10016
     RDKit          3D

  7  6  0  0  0  0  0  0  0  0999 V2000
   -2.5297   -0.7027    0.5218 F   0  0  0  0  0  0  0  0  0  0  0  0
    0.1003   -0.3012   -0.2158 O   0  0  0  0  0  0  0  0  0  0  0  0
    1.8259    1.1421    0.3094 O   0  0  0  0  0  0  0  0  0  0  0  0
   -0.8375    0.7752   -0.1160 C   0  0  0  0  0  0  0  0  0  0  0  0
   -2.2226    0.2431   -0.4079 C   0  0  0  0  0  0  0  0  0  0  0  0
    1.4009    0.0309    0.0236 C   0  0  0  0  0  0  0  0  0  0  0  0
    2.2627   -1.1873   -0.1150 C   0  0  0  0  0  0  0  0  0  0  0  0
  1  5  1  0
  2  4  1  0
  2  6  1  0
  3  6  2  0
  4  5  1  0
  6  7  1  0
M  END
>  <PUBCHEM_COMPOUND_CID>  (1) 
10016

>  <PUBCHEM_CONFORMER_RMSD>  (1) 
0.4

>  <PUBCHEM_CONFORMER_DIVERSEORDER>  (1) 
1
22
36
29
31
34
17
23
5
24
30
25
35
16
6
11
14
33
12
28
3
15
4
32
2
9
8
18
20
7
27
26
13
19
10
21

>  <PUBCHEM_MMFF94_PARTIAL_CHARGES>  (1) 
7
1 -0.34
2 -0.43
3 -0.57
4 0.28
5 0.34
6 0.66
7 0.06

>  <PUBCHEM_EFFECTIVE_ROTOR_COUNT>  (1) 
3

>  <PUBCHEM_PHARMACOPHORE_FEATURES>  (1) 
1
1 3 acceptor

>  <PUBCHEM_HEAVY_ATOM_COUNT>  (1) 
7

>  <PUBCHEM_ATOM_DEF_STEREO_COUNT>  (1) 
0

>  <PUBCHEM_ATOM_UDEF_STEREO_COUNT>  (1) 
0

>  <PUBCHEM_BOND_DEF_STEREO_COUNT>  (1) 
0

>  <PUBCHEM_BOND_UDEF_STEREO_COUNT>  (1) 
0

>  <PUBCHEM_ISOTOPIC_ATOM_COUNT>  (1) 
0

>  <PUBCHEM_COMPONENT_COUNT>  (1) 
1

>  <PUBCHEM_CACTVS_TAUTO_COUNT>  (1) 
1

>  <PUBCHEM_CONFORMER_ID>  (1) 
0000272000000001

>  <PUBCHEM_MMFF94_ENERGY>  (1) 
2.932

>  <PUBCHEM_FEATURE_SELFOVERLAP>  (1) 
5.074

>  <PUBCHEM_SHAPE_FINGERPRINT>  (1) 
12932741 1 18187638089983099773
20096714 4 18201150048638451108
23552423 10 18113340782021816239
24536 1 18339345384252768265
29004967 10 18411135844209670096
5460574 1 9367344842485665300

>  <PUBCHEM_SHAPE_MULTIPOLES>  (1) 
125.04
3.75
1.11
0.65
0.85
0.05
0.02
-0.85
-0.12
-0.44
-0.07
0.1
-0.02
0.28

>  <PUBCHEM_SHAPE_SELFOVERLAP>  (1) 
226.092

>  <PUBCHEM_SHAPE_VOLUME>  (1) 
80.3

>  <PUBCHEM_COORDINATE_TYPE>  (1) 
2
5
10

$$$$
