10019
     RDKit          3D

  5  4  0  0  0  0  0  0  0  0999 V2000
    1.8545    0.7153   -0.1957 F   0  0  0  0  0  0  0  0  0  0  0  0
   -2.3132    0.1238   -0.1353 N   0  0  0  0  0  0  0  0  0  0  0  0
   -0.0108   -0.7114   -0.2276 C   0  0  0  0  0  0  0  0  0  0  0  0
   -0.9477    0.3666    0.3147 C   0  0  0  0  0  0  0  0  0  0  0  0
    1.4172   -0.4943    0.2439 C   0  0  0  0  0  0  0  0  0  0  0  0
  1  5  1  0
  2  4  1  0
  3  4  1  0
  3  5  1  0
M  END
>  <PUBCHEM_COMPOUND_CID>  (1) 
10019

>  <PUBCHEM_CONFORMER_RMSD>  (1) 
0.4

>  <PUBCHEM_CONFORMER_DIVERSEORDER>  (1) 
2
8
7
3
4
9
1
5
6

>  <PUBCHEM_MMFF94_PARTIAL_CHARGES>  (1) 
6
1 -0.34
12 0.36
13 0.36
2 -0.99
4 0.27
5 0.34

>  <PUBCHEM_EFFECTIVE_ROTOR_COUNT>  (1) 
2

>  <PUBCHEM_PHARMACOPHORE_FEATURES>  (1) 
2
1 2 cation
1 2 donor

>  <PUBCHEM_HEAVY_ATOM_COUNT>  (1) 
5

>  <PUBCHEM_ATOM_DEF_STEREO_COUNT>  (1) 
0

>  <PUBCHEM_ATOM_UDEF_STEREO_COUNT>  (1) 
0

>  <PUBCHEM_BOND_DEF_STEREO_COUNT>  (1) 
0

>  <PUBCHEM_BOND_UDEF_STEREO_COUNT>  (1) 
0

>  <PUBCHEM_ISOTOPIC_ATOM_COUNT>  (1) 
0

>  <PUBCHEM_COMPONENT_COUNT>  (1) 
1

>  <PUBCHEM_CACTVS_TAUTO_COUNT>  (1) 
1

>  <PUBCHEM_CONFORMER_ID>  (1) 
0000272300000002

>  <PUBCHEM_MMFF94_ENERGY>  (1) 
-4.1172

>  <PUBCHEM_FEATURE_SELFOVERLAP>  (1) 
10.148

>  <PUBCHEM_SHAPE_FINGERPRINT>  (1) 
139733 1 18411983572043466618
16714656 1 17489307507580209797
20096714 4 18410857685137550928
29004967 10 11959724975718023918
5460574 1 9151173155767876995

>  <PUBCHEM_SHAPE_MULTIPOLES>  (1) 
90.64
2.67
0.85
0.63
0.67
0.03
0.03
-0.37
-0.1
-0.2
-0.03
-0.02
0.01
-0.11

>  <PUBCHEM_SHAPE_SELFOVERLAP>  (1) 
152.157

>  <PUBCHEM_SHAPE_VOLUME>  (1) 
61.8

>  <PUBCHEM_COORDINATE_TYPE>  (1) 
2
5
10

$$$$
