10015
     RDKit          3D

 14 13  0  0  0  0  0  0  0  0999 V2000
    0.0361    1.3442    0.0464 O   0  0  0  0  0  0  0  0  0  0  0  0
   -2.5285    0.1932    0.0295 C   0  0  0  0  0  0  0  0  0  0  0  0
    2.5468    0.2142    0.0608 C   0  0  0  0  0  0  0  0  0  0  0  0
   -3.8537   -0.5754   -0.0563 C   0  0  0  0  0  0  0  0  0  0  0  0
    3.8517   -0.5868    0.0630 C   0  0  0  0  0  0  0  0  0  0  0  0
   -1.2761   -0.6819   -0.0002 C   0  0  0  0  0  0  0  0  0  0  0  0
    1.3103   -0.6786    0.0999 C   0  0  0  0  0  0  0  0  0  0  0  0
   -5.0871    0.3303   -0.0038 C   0  0  0  0  0  0  0  0  0  0  0  0
    5.0692    0.3372   -0.0033 C   0  0  0  0  0  0  0  0  0  0  0  0
    0.0189    0.1131    0.0348 C   0  0  0  0  0  0  0  0  0  0  0  0
   -6.4053   -0.4441   -0.0855 C   0  0  0  0  0  0  0  0  0  0  0  0
    6.3715   -0.4621   -0.0386 C   0  0  0  0  0  0  0  0  0  0  0  0
   -7.6364    0.4452   -0.0089 C   0  0  0  0  0  0  0  0  0  0  0  0
    7.5826    0.4516   -0.1379 C   0  0  0  0  0  0  0  0  0  0  0  0
  1 10  2  0
  2  4  1  0
  2  6  1  0
  3  5  1  0
  3  7  1  0
  4  8  1  0
  5  9  1  0
  6 10  1  0
  7 10  1  0
  8 11  1  0
  9 12  1  0
 11 13  1  0
 12 14  1  0
M  END
>  <PUBCHEM_COMPOUND_CID>  (1) 
10015

>  <PUBCHEM_CONFORMER_RMSD>  (1) 
1

>  <PUBCHEM_CONFORMER_DIVERSEORDER>  (1) 
1
97
100
74
123
82
34
8
41
53
154
149
9
11
131
64
58
20
147
30
117
89
16
2
15
107
143
61
99
62
40
118
91
85
22
59
13
140
146
73
28
87
7
69
36
111
52
31
116
42
137
17
3
96
21
45
90
32
50
29
98
14
133
101
144
65
109
18
128
104
115
19
112
54
79
5
122
33
67
6
126
4
25
39
35
47
23
12
88
110
27
141
121
119
26
124
81
120
66
83
113
49
46
57
114
145
139
132
106
60
153
108
135
56
84
76
102
148
10
103
71
142
134
86
43
105
70
94
152
55
51
151
68
44
77
24
150
125
63
93
78
38
75
155
92
37
138
127
80
129
95
130
136
48
72

>  <PUBCHEM_MMFF94_PARTIAL_CHARGES>  (1) 
4
1 -0.57
10 0.45
6 0.06
7 0.06

>  <PUBCHEM_EFFECTIVE_ROTOR_COUNT>  (1) 
10

>  <PUBCHEM_PHARMACOPHORE_FEATURES>  (1) 
5
1 1 acceptor
1 13 hydrophobe
1 14 hydrophobe
5 2 4 6 8 11 hydrophobe
5 3 5 7 9 12 hydrophobe

>  <PUBCHEM_HEAVY_ATOM_COUNT>  (1) 
14

>  <PUBCHEM_ATOM_DEF_STEREO_COUNT>  (1) 
0

>  <PUBCHEM_ATOM_UDEF_STEREO_COUNT>  (1) 
0

>  <PUBCHEM_BOND_DEF_STEREO_COUNT>  (1) 
0

>  <PUBCHEM_BOND_UDEF_STEREO_COUNT>  (1) 
0

>  <PUBCHEM_ISOTOPIC_ATOM_COUNT>  (1) 
0

>  <PUBCHEM_COMPONENT_COUNT>  (1) 
1

>  <PUBCHEM_CACTVS_TAUTO_COUNT>  (1) 
2

>  <PUBCHEM_CONFORMER_ID>  (1) 
0000271F00000001

>  <PUBCHEM_MMFF94_ENERGY>  (1) 
-1.5388

>  <PUBCHEM_FEATURE_SELFOVERLAP>  (1) 
25.374

>  <PUBCHEM_SHAPE_FINGERPRINT>  (1) 
10968037 39 18410292515102788519
11315181 36 17917715725501840267
12091667 2 18411419514879974499
13533116 47 17313654972325585538
14123256 10 18334857216775000324
14251764 18 18273496753951727561
14251764 46 18410575088958059202
15048467 5 17675924295968320159
17834076 25 18410292510174753478
18006028 8 17703790318673549577
20281389 69 18040713662783930420
20621476 8 18335983090606194719
22224240 67 16917344844746258254
23035841 295 18412543210535132107
23402539 116 18272928345010658983
23521765 1 18341894095129044359
33532 11 12175630559849044668
33684 2 18409729556359011498
42788 4 18410855460128168298
4463277 17 18410573989446639305
59567204 34 17749662984338036837
8209 1 18410855460128161806

>  <PUBCHEM_SHAPE_MULTIPOLES>  (1) 
282.24
22.11
0.9
0.61
1
0.06
0
1.71
0.91
-0.02
0
-0.01
-0.01
-0.07

>  <PUBCHEM_SHAPE_SELFOVERLAP>  (1) 
508.073

>  <PUBCHEM_SHAPE_VOLUME>  (1) 
182

>  <PUBCHEM_COORDINATE_TYPE>  (1) 
2
5
10

$$$$
