10021
     RDKit          3D

 14 13  0  0  0  0  0  0  0  0999 V2000
    7.6591    0.3757    0.0203 F   0  0  0  0  0  0  0  0  0  0  0  0
   -4.6469    0.4883    0.0070 O   0  0  0  0  0  0  0  0  0  0  0  0
   -3.6073   -1.5706    0.0406 O   0  0  0  0  0  0  0  0  0  0  0  0
    1.4978   -0.3711   -0.0410 C   0  0  0  0  0  0  0  0  0  0  0  0
    2.7678    0.4809    0.0189 C   0  0  0  0  0  0  0  0  0  0  0  0
    0.2407    0.4972    0.0424 C   0  0  0  0  0  0  0  0  0  0  0  0
    4.0234   -0.3924   -0.0327 C   0  0  0  0  0  0  0  0  0  0  0  0
   -1.0286   -0.3600    0.0153 C   0  0  0  0  0  0  0  0  0  0  0  0
    5.3218    0.4106    0.0382 C   0  0  0  0  0  0  0  0  0  0  0  0
   -2.3030    0.4826    0.0638 C   0  0  0  0  0  0  0  0  0  0  0  0
    6.5743   -0.4387   -0.0891 C   0  0  0  0  0  0  0  0  0  0  0  0
   -3.5674   -0.3478    0.0467 C   0  0  0  0  0  0  0  0  0  0  0  0
   -5.9241   -0.1556   -0.0458 C   0  0  0  0  0  0  0  0  0  0  0  0
   -7.0076    0.9008   -0.0848 C   0  0  0  0  0  0  0  0  0  0  0  0
  1 11  1  0
  2 12  1  0
  2 13  1  0
  3 12  2  0
  4  5  1  0
  4  6  1  0
  5  7  1  0
  6  8  1  0
  7  9  1  0
  8 10  1  0
  9 11  1  0
 10 12  1  0
 13 14  1  0
M  END
>  <PUBCHEM_COMPOUND_CID>  (1) 
10021

>  <PUBCHEM_CONFORMER_RMSD>  (1) 
1

>  <PUBCHEM_CONFORMER_DIVERSEORDER>  (1) 
1
64
126
6
87
85
147
24
123
122
58
25
109
96
30
49
47
39
102
106
56
65
124
77
83
138
139
38
41
95
145
13
127
20
94
154
101
48
63
92
40
74
68
15
28
98
93
59
97
21
73
132
46
134
91
67
11
66
70
144
32
51
3
62
153
137
16
121
129
76
12
9
114
2
107
8
17
143
23
135
99
110
146
86
128
84
108
14
72
79
103
34
88
43
117
31
4
125
22
61
118
42
18
52
140
19
26
33
36
27
45
90
116
54
57
60
10
105
80
112
120
50
100
5
149
131
53
55
142
81
115
7
89
29
71
35
119
82
141
150
44
151
75
148
133
78
111
69
104
130
113
152
136
37

>  <PUBCHEM_MMFF94_PARTIAL_CHARGES>  (1) 
7
1 -0.34
10 0.06
11 0.34
12 0.66
13 0.28
2 -0.43
3 -0.57

>  <PUBCHEM_EFFECTIVE_ROTOR_COUNT>  (1) 
10

>  <PUBCHEM_PHARMACOPHORE_FEATURES>  (1) 
1
1 3 acceptor

>  <PUBCHEM_HEAVY_ATOM_COUNT>  (1) 
14

>  <PUBCHEM_ATOM_DEF_STEREO_COUNT>  (1) 
0

>  <PUBCHEM_ATOM_UDEF_STEREO_COUNT>  (1) 
0

>  <PUBCHEM_BOND_DEF_STEREO_COUNT>  (1) 
0

>  <PUBCHEM_BOND_UDEF_STEREO_COUNT>  (1) 
0

>  <PUBCHEM_ISOTOPIC_ATOM_COUNT>  (1) 
0

>  <PUBCHEM_COMPONENT_COUNT>  (1) 
1

>  <PUBCHEM_CACTVS_TAUTO_COUNT>  (1) 
1

>  <PUBCHEM_CONFORMER_ID>  (1) 
0000272500000001

>  <PUBCHEM_MMFF94_ENERGY>  (1) 
2.1974

>  <PUBCHEM_FEATURE_SELFOVERLAP>  (1) 
5.074

>  <PUBCHEM_SHAPE_FINGERPRINT>  (1) 
10968037 39 18342457041436292943
11315181 36 17703793643457907899
12091667 2 17530965787612887537
13073987 5 12540960876929714228
13533116 47 16877930612981552952
13964095 4 18409166593494379573
14123238 8 11815900054395698050
1420 363 18060704992074645414
14251764 18 18187080654694047835
14251764 46 18410573985156732389
14729087 3 18409444761536488149
17834072 8 18273213097105334521
17834076 25 18409729560221325665
18006028 8 17418092113516259697
20281389 69 18259982665119905612
20621476 8 18261392213219461374
220451 1 16443060617026925458
22224240 67 15123785185244550652
23035841 295 18186518804352344626
23402539 116 18412259562257334742
23521765 1 18341894090897426052
23559900 14 18271238421376909688
33684 2 18411135827050782898
3545911 37 18410573976572079043
42788 4 18410856568235011904
57583515 80 17847062186063341403
59567204 34 18341049602583047809
59755656 520 16877660184486920483
8209 1 18342175566264500885

>  <PUBCHEM_SHAPE_MULTIPOLES>  (1) 
269.1
20.76
0.94
0.6
9.15
0.15
0
-2.32
0.5
-0.7
0
-0.01
0
0.08

>  <PUBCHEM_SHAPE_SELFOVERLAP>  (1) 
490.758

>  <PUBCHEM_SHAPE_VOLUME>  (1) 
171.6

>  <PUBCHEM_COORDINATE_TYPE>  (1) 
2
5
10

$$$$
