10027
     RDKit          3D

  9  8  0  0  0  0  0  0  0  0999 V2000
    4.0988   -0.9680    0.3733 F   0  0  0  0  0  0  0  0  0  0  0  0
    0.0961    0.5676    0.1739 C   0  0  0  0  0  0  0  0  0  0  0  0
   -1.0951   -0.3325   -0.1615 C   0  0  0  0  0  0  0  0  0  0  0  0
    1.4182   -0.0911   -0.2272 C   0  0  0  0  0  0  0  0  0  0  0  0
   -2.4478    0.2888    0.1981 C   0  0  0  0  0  0  0  0  0  0  0  0
    2.6083    0.8214    0.0738 C   0  0  0  0  0  0  0  0  0  0  0  0
   -3.6414   -0.5785   -0.2038 C   0  0  0  0  0  0  0  0  0  0  0  0
    3.9224    0.1785   -0.3350 C   0  0  0  0  0  0  0  0  0  0  0  0
   -4.9595    0.1137    0.1084 C   0  0  0  0  0  0  0  0  0  0  0  0
  1  8  1  0
  2  3  1  0
  2  4  1  0
  3  5  1  0
  4  6  1  0
  5  7  1  0
  6  8  1  0
  7  9  1  0
M  END
>  <PUBCHEM_COMPOUND_CID>  (1) 
10027

>  <PUBCHEM_CONFORMER_RMSD>  (1) 
0.6

>  <PUBCHEM_CONFORMER_DIVERSEORDER>  (1) 
1
99
126
66
34
65
155
2
133
19
31
105
154
156
9
33
32
60
14
4
122
62
149
70
102
42
39
137
131
18
41
115
108
5
94
79
110
25
135
69
26
140
93
13
124
132
44
8
148
90
101
63
142
10
47
16
144
11
151
97
136
3
83
152
76
92
7
53
45
40
128
58
129
119
141
111
52
30
120
85
103
55
35
143
51
12
61
134
121
75
54
59
146
36
77
67
153
98
80
130
38
116
6
104
64
15
147
48
117
106
71
29
50
78
118
87
112
150
21
56
20
138
46
113
107
22
96
91
100
49
68
109
86
73
81
139
23
145
27
88
24
89
72
43
127
95
123
125
114
84
37
74
57
28
82
17

>  <PUBCHEM_MMFF94_PARTIAL_CHARGES>  (1) 
2
1 -0.34
8 0.34

>  <PUBCHEM_EFFECTIVE_ROTOR_COUNT>  (1) 
6

>  <PUBCHEM_PHARMACOPHORE_FEATURES>  (1) 
3
1 9 hydrophobe
3 2 4 6 hydrophobe
3 3 5 7 hydrophobe

>  <PUBCHEM_HEAVY_ATOM_COUNT>  (1) 
9

>  <PUBCHEM_ATOM_DEF_STEREO_COUNT>  (1) 
0

>  <PUBCHEM_ATOM_UDEF_STEREO_COUNT>  (1) 
0

>  <PUBCHEM_BOND_DEF_STEREO_COUNT>  (1) 
0

>  <PUBCHEM_BOND_UDEF_STEREO_COUNT>  (1) 
0

>  <PUBCHEM_ISOTOPIC_ATOM_COUNT>  (1) 
0

>  <PUBCHEM_COMPONENT_COUNT>  (1) 
1

>  <PUBCHEM_CACTVS_TAUTO_COUNT>  (1) 
1

>  <PUBCHEM_CONFORMER_ID>  (1) 
0000272B00000001

>  <PUBCHEM_MMFF94_ENERGY>  (1) 
-3.4245

>  <PUBCHEM_FEATURE_SELFOVERLAP>  (1) 
15.235

>  <PUBCHEM_SHAPE_FINGERPRINT>  (1) 
11062470 55 18273497888002519501
11987891 38 18409732863072710571
12932764 1 15213568070025433173
14123238 8 9079114458129075833
17834076 25 12324240564005994317
190213 19 17530965803954155613
20645477 70 18040996207429212818
20719005 15 18412826893383190399
20767249 13 16773795896552681509
21293036 1 12035447237679282724
22485316 2 18411697716126299991
23402539 116 17203603775248636613
42788 4 18412263943292742469
522135 26 18113618989034706364

>  <PUBCHEM_SHAPE_MULTIPOLES>  (1) 
177.94
9.85
0.85
0.65
2.59
0.01
-0.01
0.91
0.15
-0.3
0.04
-0.06
0.01
-0.22

>  <PUBCHEM_SHAPE_SELFOVERLAP>  (1) 
310.727

>  <PUBCHEM_SHAPE_VOLUME>  (1) 
117.8

>  <PUBCHEM_COORDINATE_TYPE>  (1) 
2
5
10

$$$$
