10024
     RDKit          3D

  7  6  0  0  0  0  0  0  0  0999 V2000
   -1.0808    0.5814    0.5035 O   0  0  0  0  0  0  0  0  0  0  0  0
    1.0979    0.6044   -0.4920 O   0  0  0  0  0  0  0  0  0  0  0  0
   -1.6630   -0.2323   -0.5061 C   0  0  0  0  0  0  0  0  0  0  0  0
    1.6443   -0.2585    0.4966 C   0  0  0  0  0  0  0  0  0  0  0  0
    0.0003    1.3694    0.0056 C   0  0  0  0  0  0  0  0  0  0  0  0
   -2.7964   -1.0331    0.0987 C   0  0  0  0  0  0  0  0  0  0  0  0
    2.7978   -1.0314   -0.1064 C   0  0  0  0  0  0  0  0  0  0  0  0
  1  3  1  0
  1  5  1  0
  2  4  1  0
  2  5  1  0
  3  6  1  0
  4  7  1  0
M  END
>  <PUBCHEM_COMPOUND_CID>  (1) 
10024

>  <PUBCHEM_CONFORMER_RMSD>  (1) 
0.6

>  <PUBCHEM_CONFORMER_DIVERSEORDER>  (1) 
1
10
18
4
6
7
2
9
13
14
12
5
17
16
11
15
3
8

>  <PUBCHEM_MMFF94_PARTIAL_CHARGES>  (1) 
5
1 -0.56
2 -0.56
3 0.28
4 0.28
5 0.56

>  <PUBCHEM_EFFECTIVE_ROTOR_COUNT>  (1) 
4

>  <PUBCHEM_PHARMACOPHORE_FEATURES>  (1) 
2
1 1 acceptor
1 2 acceptor

>  <PUBCHEM_HEAVY_ATOM_COUNT>  (1) 
7

>  <PUBCHEM_ATOM_DEF_STEREO_COUNT>  (1) 
0

>  <PUBCHEM_ATOM_UDEF_STEREO_COUNT>  (1) 
0

>  <PUBCHEM_BOND_DEF_STEREO_COUNT>  (1) 
0

>  <PUBCHEM_BOND_UDEF_STEREO_COUNT>  (1) 
0

>  <PUBCHEM_ISOTOPIC_ATOM_COUNT>  (1) 
0

>  <PUBCHEM_COMPONENT_COUNT>  (1) 
1

>  <PUBCHEM_CACTVS_TAUTO_COUNT>  (1) 
1

>  <PUBCHEM_CONFORMER_ID>  (1) 
0000272800000001

>  <PUBCHEM_MMFF94_ENERGY>  (1) 
6.9601

>  <PUBCHEM_FEATURE_SELFOVERLAP>  (1) 
10.181

>  <PUBCHEM_SHAPE_FINGERPRINT>  (1) 
14390081 3 8935004771743049151
20653085 51 9006764454138420014
23552333 60 18057615454125565785
23552423 10 18187366523358751724
23552449 11 17916862564101916729
29004967 10 18337385049562426361

>  <PUBCHEM_SHAPE_MULTIPOLES>  (1) 
132.32
4.14
1.31
0.72
0
0.16
0
-2.4
0.02
0
0
0
0
-0.01

>  <PUBCHEM_SHAPE_SELFOVERLAP>  (1) 
227.016

>  <PUBCHEM_SHAPE_VOLUME>  (1) 
88.3

>  <PUBCHEM_COORDINATE_TYPE>  (1) 
2
5
10

$$$$
