10029
     RDKit          3D

 10  9  0  0  0  0  0  0  0  0999 V2000
   -5.5449    0.3092   -0.0744 F   0  0  0  0  0  0  0  0  0  0  0  0
    0.6165   -0.4280    0.0610 C   0  0  0  0  0  0  0  0  0  0  0  0
   -0.6559    0.4240    0.0828 C   0  0  0  0  0  0  0  0  0  0  0  0
    1.8699    0.4496    0.0371 C   0  0  0  0  0  0  0  0  0  0  0  0
   -1.9101   -0.4528    0.0686 C   0  0  0  0  0  0  0  0  0  0  0  0
    3.1735   -0.3522   -0.0160 C   0  0  0  0  0  0  0  0  0  0  0  0
   -3.2092    0.3508    0.0201 C   0  0  0  0  0  0  0  0  0  0  0  0
    4.4252    0.5251   -0.0651 C   0  0  0  0  0  0  0  0  0  0  0  0
   -4.4574   -0.5094   -0.0710 C   0  0  0  0  0  0  0  0  0  0  0  0
    5.6924   -0.3162   -0.0434 C   0  0  0  0  0  0  0  0  0  0  0  0
  1  9  1  0
  2  3  1  0
  2  4  1  0
  3  5  1  0
  4  6  1  0
  5  7  1  0
  6  8  1  0
  7  9  1  0
  8 10  1  0
M  END
>  <PUBCHEM_COMPOUND_CID>  (1) 
10029

>  <PUBCHEM_CONFORMER_RMSD>  (1) 
0.6

>  <PUBCHEM_CONFORMER_DIVERSEORDER>  (1) 
1
179
74
339
38
276
222
15
245
282
2
106
318
93
343
140
289
5
62
198
42
183
47
33
123
260
136
6
163
215
335
211
273
32
176
75
285
344
334
149
145
30
210
89
77
167
127
333
161
165
80
27
261
146
26
290
253
14
28
152
317
43
319
128
175
225
56
247
139
296
91
226
40
132
18
70
200
295
105
189
197
191
34
114
283
112
90
223
320
322
154
203
81
185
65
227
19
274
87
10
277
304
4
241
177
209
16
257
109
64
264
108
48
305
313
214
236
82
66
118
301
188
131
235
194
67
104
239
321
21
147
59
99
259
243
341
130
9
330
272
228
328
280
3
252
116
323
117
270
180
50
29
271
172
37
151
133
115
72
340
201
31
287
41
182
337
134
23
303
22
8
12
265
315
58
45
205
53
336
84
98
168
100
216
278
86
76
292
279
24
101
213
57
329
125
111
250
238
122
220
244
160
254
155
246
54
61
157
68
256
97
78
110
208
206
73
342
159
20
25
248
338
124
35
113
224
141
291
212
153
286
196
94
36
144
267
69
63
119
85
171
306
129
60
166
300
92
103
237
46
126
284
269
325
13
299
293
240
266
230
288
275
158
88
308
263
79
192
307
39
178
96
55
309
17
294
169
137
83
95
184
181
281
218
204
297
143
44
52
249
102
327
71
135
11
51
234
310
195
233
231
229
142
120
262
193
316
170
221
138
268
314
174
148
298
207
258
187
156
232
302
242
326
186
217
121
311
150
107
324
202
312
332
255
162
173
164
331
219
251
49
190
199
7

>  <PUBCHEM_MMFF94_PARTIAL_CHARGES>  (1) 
2
1 -0.34
9 0.34

>  <PUBCHEM_EFFECTIVE_ROTOR_COUNT>  (1) 
7

>  <PUBCHEM_PHARMACOPHORE_FEATURES>  (1) 
1
1 10 hydrophobe

>  <PUBCHEM_HEAVY_ATOM_COUNT>  (1) 
10

>  <PUBCHEM_ATOM_DEF_STEREO_COUNT>  (1) 
0

>  <PUBCHEM_ATOM_UDEF_STEREO_COUNT>  (1) 
0

>  <PUBCHEM_BOND_DEF_STEREO_COUNT>  (1) 
0

>  <PUBCHEM_BOND_UDEF_STEREO_COUNT>  (1) 
0

>  <PUBCHEM_ISOTOPIC_ATOM_COUNT>  (1) 
0

>  <PUBCHEM_COMPONENT_COUNT>  (1) 
1

>  <PUBCHEM_CACTVS_TAUTO_COUNT>  (1) 
1

>  <PUBCHEM_CONFORMER_ID>  (1) 
0000272D00000001

>  <PUBCHEM_MMFF94_ENERGY>  (1) 
-3.3518

>  <PUBCHEM_FEATURE_SELFOVERLAP>  (1) 
5.074

>  <PUBCHEM_SHAPE_FINGERPRINT>  (1) 
11062470 55 18410293618276309354
12815109 37 18060419118571369192
14123238 8 18410855464438959886
17834072 33 18272651298261203412
17834076 25 18409449189061792075
187816 3 16587744235097024153
20645477 70 18200035032553673118
20719005 15 18412263939155907272
20767249 13 18202565081469558282
20767249 213 8934994876491729598
22485316 2 18413387644018268903
23402539 116 18201432588919843901
366044 4 18409449193388895234
42788 4 18410012139073268141
8209 1 18410855464433685116

>  <PUBCHEM_SHAPE_MULTIPOLES>  (1) 
198.52
13.01
0.78
0.61
0.06
0.01
0
0.3
-0.55
-0.06
0
-0.06
0
-0.01

>  <PUBCHEM_SHAPE_SELFOVERLAP>  (1) 
347.627

>  <PUBCHEM_SHAPE_VOLUME>  (1) 
131.2

>  <PUBCHEM_COORDINATE_TYPE>  (1) 
2
5
10

$$$$
