10032
     RDKit          3D

 11 10  0  0  0  0  0  0  0  0999 V2000
    6.1601    0.3584    0.0236 F   0  0  0  0  0  0  0  0  0  0  0  0
   -6.2065    0.3731   -0.0150 O   0  0  0  0  0  0  0  0  0  0  0  0
    0.0059   -0.4457   -0.0064 C   0  0  0  0  0  0  0  0  0  0  0  0
   -1.2585    0.4161    0.0294 C   0  0  0  0  0  0  0  0  0  0  0  0
    1.2686    0.4189   -0.0222 C   0  0  0  0  0  0  0  0  0  0  0  0
   -2.5198   -0.4501    0.0130 C   0  0  0  0  0  0  0  0  0  0  0  0
    2.5316   -0.4451   -0.0197 C   0  0  0  0  0  0  0  0  0  0  0  0
   -3.8135    0.3644    0.0344 C   0  0  0  0  0  0  0  0  0  0  0  0
    3.8235    0.3711   -0.0496 C   0  0  0  0  0  0  0  0  0  0  0  0
   -5.0746   -0.4875   -0.0165 C   0  0  0  0  0  0  0  0  0  0  0  0
    5.0832   -0.4736    0.0289 C   0  0  0  0  0  0  0  0  0  0  0  0
  1 11  1  0
  2 10  1  0
  3  4  1  0
  3  5  1  0
  4  6  1  0
  5  7  1  0
  6  8  1  0
  7  9  1  0
  8 10  1  0
  9 11  1  0
M  END
>  <PUBCHEM_COMPOUND_CID>  (1) 
10032

>  <PUBCHEM_CONFORMER_RMSD>  (1) 
0.8

>  <PUBCHEM_CONFORMER_DIVERSEORDER>  (1) 
1
111
120
193
160
201
211
118
12
171
190
127
86
146
26
167
35
58
176
88
74
199
165
32
48
95
184
37
116
5
203
33
180
2
90
133
19
145
10
110
39
3
52
55
187
7
109
205
182
141
81
177
200
83
112
8
21
124
121
45
122
14
34
206
130
41
174
198
46
16
114
150
181
9
175
162
142
185
132
84
100
207
28
170
17
18
125
195
68
63
204
67
44
61
159
148
30
13
11
197
54
105
85
202
188
72
128
62
24
60
186
38
134
22
179
42
151
20
189
15
154
172
143
168
163
196
78
79
59
57
153
173
161
25
71
69
64
96
4
47
209
82
6
129
147
126
152
94
123
49
144
210
87
23
119
192
104
99
70
156
138
117
107
53
137
77
76
191
98
56
73
135
75
89
115
80
27
93
102
106
166
101
50
43
29
97
131
208
140
108
155
169
65
194
164
103
113
139
40
36
92
31
149
51
91
66
158
157
178
136
183

>  <PUBCHEM_MMFF94_PARTIAL_CHARGES>  (1) 
5
1 -0.34
10 0.28
11 0.34
2 -0.68
30 0.4

>  <PUBCHEM_EFFECTIVE_ROTOR_COUNT>  (1) 
8

>  <PUBCHEM_PHARMACOPHORE_FEATURES>  (1) 
2
1 2 acceptor
1 2 donor

>  <PUBCHEM_HEAVY_ATOM_COUNT>  (1) 
11

>  <PUBCHEM_ATOM_DEF_STEREO_COUNT>  (1) 
0

>  <PUBCHEM_ATOM_UDEF_STEREO_COUNT>  (1) 
0

>  <PUBCHEM_BOND_DEF_STEREO_COUNT>  (1) 
0

>  <PUBCHEM_BOND_UDEF_STEREO_COUNT>  (1) 
0

>  <PUBCHEM_ISOTOPIC_ATOM_COUNT>  (1) 
0

>  <PUBCHEM_COMPONENT_COUNT>  (1) 
1

>  <PUBCHEM_CACTVS_TAUTO_COUNT>  (1) 
1

>  <PUBCHEM_CONFORMER_ID>  (1) 
0000273000000001

>  <PUBCHEM_MMFF94_ENERGY>  (1) 
-0.1346

>  <PUBCHEM_FEATURE_SELFOVERLAP>  (1) 
10.148

>  <PUBCHEM_SHAPE_FINGERPRINT>  (1) 
12091667 2 18335139796027771963
12815109 37 18411138034621787973
14123238 8 18411138034621800982
1420 363 18187652405167242931
14251718 22 18411136948200907371
17834072 33 18271525389648349156
17834076 25 18410573985151457635
187816 3 18411702084292572283
20645477 70 18200033928620516454
20719005 15 18410856559660895078
20767249 13 18410856559639802567
20767249 213 18410856576819671756
23402539 116 18272928336990215717
23521765 1 18341894090834057575
366044 4 18409167718428021826
42788 4 18410575084663104901
8209 1 18410855464423135613

>  <PUBCHEM_SHAPE_MULTIPOLES>  (1) 
213.23
14.96
0.78
0.6
0.11
0.03
0
-0.37
0.03
0.02
0
0.01
0.01
-0.02

>  <PUBCHEM_SHAPE_SELFOVERLAP>  (1) 
377.452

>  <PUBCHEM_SHAPE_VOLUME>  (1) 
139.3

>  <PUBCHEM_COORDINATE_TYPE>  (1) 
2
5
10

$$$$
