10036
     RDKit          3D

 15 14  0  0  0  0  0  0  0  0999 V2000
    3.4743   -1.7353   -1.7197 F   0  0  0  0  0  0  0  0  0  0  0  0
   -3.8256   -1.2757    1.8447 F   0  0  0  0  0  0  0  0  0  0  0  0
    1.2083    2.0111    0.0557 O   0  0  0  0  0  0  0  0  0  0  0  0
   -1.1654    2.0088   -0.2668 O   0  0  0  0  0  0  0  0  0  0  0  0
    2.5560   -0.3991    0.5081 O   0  0  0  0  0  0  0  0  0  0  0  0
   -2.5279   -0.4296   -0.4339 O   0  0  0  0  0  0  0  0  0  0  0  0
    1.3427    1.4775    1.3665 C   0  0  0  0  0  0  0  0  0  0  0  0
   -1.1227    1.2213   -1.4493 C   0  0  0  0  0  0  0  0  0  0  0  0
    2.6245    0.6706    1.4431 C   0  0  0  0  0  0  0  0  0  0  0  0
   -2.4104    0.4283   -1.5624 C   0  0  0  0  0  0  0  0  0  0  0  0
    0.0189    2.7864   -0.0925 C   0  0  0  0  0  0  0  0  0  0  0  0
    3.7350   -1.1917    0.5366 C   0  0  0  0  0  0  0  0  0  0  0  0
   -3.7207   -1.1997   -0.4872 C   0  0  0  0  0  0  0  0  0  0  0  0
    3.6034   -2.2974   -0.4866 C   0  0  0  0  0  0  0  0  0  0  0  0
   -3.7904   -2.0755    0.7437 C   0  0  0  0  0  0  0  0  0  0  0  0
  1 14  1  0
  2 15  1  0
  3  7  1  0
  3 11  1  0
  4  8  1  0
  4 11  1  0
  5  9  1  0
  5 12  1  0
  6 10  1  0
  6 13  1  0
  7  9  1  0
  8 10  1  0
 12 14  1  0
 13 15  1  0
M  END
>  <PUBCHEM_COMPOUND_CID>  (1) 
10036

>  <PUBCHEM_CONFORMER_RMSD>  (1) 
1

>  <PUBCHEM_CONFORMER_DIVERSEORDER>  (1) 
1
3
15
6
21
17
11
33
32
20
25
16
19
18
14
27
23
26
5
2
13
22
31
24
29
12
28
37
38
30
36
8
34
7
9
10
35
4

>  <PUBCHEM_MMFF94_PARTIAL_CHARGES>  (1) 
15
1 -0.34
10 0.28
11 0.56
12 0.28
13 0.28
14 0.34
15 0.34
2 -0.34
3 -0.56
4 -0.56
5 -0.56
6 -0.56
7 0.28
8 0.28
9 0.28

>  <PUBCHEM_EFFECTIVE_ROTOR_COUNT>  (1) 
12

>  <PUBCHEM_PHARMACOPHORE_FEATURES>  (1) 
4
1 3 acceptor
1 4 acceptor
1 5 acceptor
1 6 acceptor

>  <PUBCHEM_HEAVY_ATOM_COUNT>  (1) 
15

>  <PUBCHEM_ATOM_DEF_STEREO_COUNT>  (1) 
0

>  <PUBCHEM_ATOM_UDEF_STEREO_COUNT>  (1) 
0

>  <PUBCHEM_BOND_DEF_STEREO_COUNT>  (1) 
0

>  <PUBCHEM_BOND_UDEF_STEREO_COUNT>  (1) 
0

>  <PUBCHEM_ISOTOPIC_ATOM_COUNT>  (1) 
0

>  <PUBCHEM_COMPONENT_COUNT>  (1) 
1

>  <PUBCHEM_CACTVS_TAUTO_COUNT>  (1) 
1

>  <PUBCHEM_CONFORMER_ID>  (1) 
0000273400000001

>  <PUBCHEM_MMFF94_ENERGY>  (1) 
20.534

>  <PUBCHEM_FEATURE_SELFOVERLAP>  (1) 
20.339

>  <PUBCHEM_SHAPE_FINGERPRINT>  (1) 
117890 22 18336822117026393843
12596599 1 18261953059145570339
12596602 18 16270789229428400475
12841375 5 18192157203017006252
13533116 47 18126849528875346755
14251705 54 18410003355965387742
14957384 54 10735581476320568862
19766037 51 18113340825224709883
20645477 70 17974263707091578693
21427221 339 16056884645260618954
21591331 117 18117305634079312195
5352402 22 18342174513718101051
7987 15 18410577292371506951

>  <PUBCHEM_SHAPE_MULTIPOLES>  (1) 
270.67
8.15
3.12
1.65
0.99
0.62
-0.02
-8.02
-0.82
-0.62
0.11
0.28
-0.26
2.37

>  <PUBCHEM_SHAPE_SELFOVERLAP>  (1) 
494.918

>  <PUBCHEM_SHAPE_VOLUME>  (1) 
171.4

>  <PUBCHEM_COORDINATE_TYPE>  (1) 
2
5
10

$$$$
