10030
     RDKit          3D

 10  9  0  0  0  0  0  0  0  0999 V2000
   -5.4846    0.5158    0.0185 F   0  0  0  0  0  0  0  0  0  0  0  0
   -0.5943    0.2782   -0.0040 C   0  0  0  0  0  0  0  0  0  0  0  0
    0.6285   -0.6429    0.0080 C   0  0  0  0  0  0  0  0  0  0  0  0
   -1.9252   -0.4779   -0.0521 C   0  0  0  0  0  0  0  0  0  0  0  0
    1.9296    0.1676    0.0439 C   0  0  0  0  0  0  0  0  0  0  0  0
   -3.1462    0.4378    0.0103 C   0  0  0  0  0  0  0  0  0  0  0  0
    3.1799   -0.7139    0.0283 C   0  0  0  0  0  0  0  0  0  0  0  0
   -4.4411   -0.3557   -0.0136 C   0  0  0  0  0  0  0  0  0  0  0  0
    4.4192    0.0752   -0.0057 C   0  0  0  0  0  0  0  0  0  0  0  0
    5.4341    0.7160   -0.0338 C   0  0  0  0  0  0  0  0  0  0  0  0
  1  8  1  0
  2  3  1  0
  2  4  1  0
  3  5  1  0
  4  6  1  0
  5  7  1  0
  6  8  1  0
  7  9  1  0
  9 10  3  0
M  END
>  <PUBCHEM_COMPOUND_CID>  (1) 
10030

>  <PUBCHEM_CONFORMER_RMSD>  (1) 
0.6

>  <PUBCHEM_CONFORMER_DIVERSEORDER>  (1) 
1
47
142
18
121
144
32
26
13
65
71
50
145
27
22
151
51
88
61
23
129
6
85
5
25
11
153
8
79
16
133
48
10
118
149
80
82
90
124
146
52
147
31
46
7
94
68
45
74
34
140
99
81
17
106
152
115
12
15
28
60
150
39
112
138
44
111
21
35
41
86
141
37
136
38
148
96
101
67
83
42
143
92
24
87
119
49
97
69
29
105
116
20
120
62
104
14
73
77
43
33
72
30
76
125
102
66
117
139
130
110
93
95
109
56
89
70
91
75
126
59
128
63
55
53
122
132
9
114
127
19
113
108
40
64
58
107
131
3
100
103
135
36
134
137
78
4
2
54
98
57
84
123

>  <PUBCHEM_MMFF94_PARTIAL_CHARGES>  (1) 
6
1 -0.34
10 -0.18
25 0.18
7 0.2
8 0.34
9 -0.2

>  <PUBCHEM_EFFECTIVE_ROTOR_COUNT>  (1) 
6

>  <PUBCHEM_PHARMACOPHORE_FEATURES>  (1) 
1
1 10 hydrophobe

>  <PUBCHEM_HEAVY_ATOM_COUNT>  (1) 
10

>  <PUBCHEM_ATOM_DEF_STEREO_COUNT>  (1) 
0

>  <PUBCHEM_ATOM_UDEF_STEREO_COUNT>  (1) 
0

>  <PUBCHEM_BOND_DEF_STEREO_COUNT>  (1) 
0

>  <PUBCHEM_BOND_UDEF_STEREO_COUNT>  (1) 
0

>  <PUBCHEM_ISOTOPIC_ATOM_COUNT>  (1) 
0

>  <PUBCHEM_COMPONENT_COUNT>  (1) 
1

>  <PUBCHEM_CACTVS_TAUTO_COUNT>  (1) 
1

>  <PUBCHEM_CONFORMER_ID>  (1) 
0000272E00000001

>  <PUBCHEM_MMFF94_ENERGY>  (1) 
-0.1719

>  <PUBCHEM_FEATURE_SELFOVERLAP>  (1) 
5.074

>  <PUBCHEM_SHAPE_FINGERPRINT>  (1) 
11062470 55 18409730664413075074
114248 4 18342175574469300642
12815109 37 18408885139596866428
14123238 8 18411136939405121030
14251718 22 18272368702282236623
15242439 84 13830129498779588686
15501527 16 18337391535738847493
17834072 33 18131066086335306596
17834076 25 17989487424545759422
18342897 14 18411699889464180344
187816 3 15339121247009051151
20605781 2 18412262861404069576
20645477 70 18129947767663517886
20719005 15 18410855460154555042
20767249 13 11963390747516515131
20767249 213 18335702762343547389
20828058 44 13840271398323906769
22485316 2 18261109673033202707
23402539 116 12396295985033388587
366044 4 18409729568838160330
42788 4 18410573985156732389
449060 50 18333731321131619598
522135 26 14979959164532078462
59345606 91 18411980264829042888

>  <PUBCHEM_SHAPE_MULTIPOLES>  (1) 
198.52
12.64
0.84
0.61
1.46
0.03
0
-2.42
-0.06
-0.2
0
-0.06
0.01
-0.03

>  <PUBCHEM_SHAPE_SELFOVERLAP>  (1) 
355.092

>  <PUBCHEM_SHAPE_VOLUME>  (1) 
127.8

>  <PUBCHEM_COORDINATE_TYPE>  (1) 
2
5
10

$$$$
