10043
     RDKit          3D

  6  5  0  0  0  0  0  0  0  0999 V2000
    0.3982   -0.0004    0.0129 N   0  0  0  0  0  0  0  0  0  0  0  0
    0.4227   -1.2450    0.8790 C   0  0  0  0  0  0  0  0  0  0  0  0
    0.4273    1.2515    0.8692 C   0  0  0  0  0  0  0  0  0  0  0  0
    1.5677   -0.0049   -0.9548 C   0  0  0  0  0  0  0  0  0  0  0  0
   -0.8296   -0.0027   -0.7372 C   0  0  0  0  0  0  0  0  0  0  0  0
   -1.9862    0.0015   -0.0691 C   0  0  0  0  0  0  0  0  0  0  0  0
  1  2  1  0
  1  3  1  0
  1  4  1  0
  1  5  1  0
  5  6  2  0
M  CHG  1   1   1
M  END
>  <PUBCHEM_COMPOUND_CID>  (1) 
10043

>  <PUBCHEM_CONFORMER_RMSD>  (1) 
0.4

>  <PUBCHEM_CONFORMER_DIVERSEORDER>  (1) 
1

>  <PUBCHEM_MMFF94_PARTIAL_CHARGES>  (1) 
9
1 -0.87
16 0.15
17 0.15
18 0.15
2 0.5
3 0.5
4 0.5
5 0.21
6 -0.3

>  <PUBCHEM_EFFECTIVE_ROTOR_COUNT>  (1) 
1

>  <PUBCHEM_PHARMACOPHORE_FEATURES>  (1) 
1
1 1 cation

>  <PUBCHEM_HEAVY_ATOM_COUNT>  (1) 
6

>  <PUBCHEM_ATOM_DEF_STEREO_COUNT>  (1) 
0

>  <PUBCHEM_ATOM_UDEF_STEREO_COUNT>  (1) 
0

>  <PUBCHEM_BOND_DEF_STEREO_COUNT>  (1) 
0

>  <PUBCHEM_BOND_UDEF_STEREO_COUNT>  (1) 
0

>  <PUBCHEM_ISOTOPIC_ATOM_COUNT>  (1) 
0

>  <PUBCHEM_COMPONENT_COUNT>  (1) 
1

>  <PUBCHEM_CACTVS_TAUTO_COUNT>  (1) 
1

>  <PUBCHEM_CONFORMER_ID>  (1) 
0000273B00000001

>  <PUBCHEM_MMFF94_ENERGY>  (1) 
23.4919

>  <PUBCHEM_FEATURE_SELFOVERLAP>  (1) 
5.074

>  <PUBCHEM_SHAPE_FINGERPRINT>  (1) 
137420 1 17044635129325427106
139733 1 15430045391084967758
16714656 1 17273434780297780693
20096714 4 17773583022043085185
21040471 1 17895188960740663255
24536 1 17059190679355471797
29004967 10 17632027410994836758
5943 1 11177752009764673394

>  <PUBCHEM_SHAPE_MULTIPOLES>  (1) 
118.5
1.92
1.14
1.12
0.71
0.01
-0.01
0
0.49
-0.23
-0.47
-0.28
0
0

>  <PUBCHEM_SHAPE_SELFOVERLAP>  (1) 
209.114

>  <PUBCHEM_SHAPE_VOLUME>  (1) 
80.7

>  <PUBCHEM_COORDINATE_TYPE>  (1) 
2
5
10

$$$$
