10044
     RDKit          3D

  7  6  0  0  0  0  0  0  0  0999 V2000
    0.6389   -0.0001   -0.0016 C   0  0  0  0  0  0  0  0  0  0  0  0
   -0.8723    0.0000   -0.4310 C   0  0  0  0  0  0  0  0  0  0  0  0
    1.3510    1.2548   -0.5521 C   0  0  0  0  0  0  0  0  0  0  0  0
    1.3617   -1.2315   -0.5902 C   0  0  0  0  0  0  0  0  0  0  0  0
    0.8193   -0.0230    1.5280 C   0  0  0  0  0  0  0  0  0  0  0  0
   -1.6492    1.2447    0.0239 C   0  0  0  0  0  0  0  0  0  0  0  0
   -1.6493   -1.2449    0.0230 C   0  0  0  0  0  0  0  0  0  0  0  0
  1  2  1  0
  1  3  1  0
  1  4  1  0
  1  5  1  0
  2  6  1  0
  2  7  1  0
M  END
>  <PUBCHEM_COMPOUND_CID>  (1) 
10044

>  <PUBCHEM_CONFORMER_RMSD>  (1) 
0.4

>  <PUBCHEM_CONFORMER_DIVERSEORDER>  (1) 
1

>  <PUBCHEM_MMFF94_PARTIAL_CHARGES>  (1) 
0

>  <PUBCHEM_EFFECTIVE_ROTOR_COUNT>  (1) 
1

>  <PUBCHEM_PHARMACOPHORE_FEATURES>  (1) 
2
3 2 6 7 hydrophobe
4 1 3 4 5 hydrophobe

>  <PUBCHEM_HEAVY_ATOM_COUNT>  (1) 
7

>  <PUBCHEM_ATOM_DEF_STEREO_COUNT>  (1) 
0

>  <PUBCHEM_ATOM_UDEF_STEREO_COUNT>  (1) 
0

>  <PUBCHEM_BOND_DEF_STEREO_COUNT>  (1) 
0

>  <PUBCHEM_BOND_UDEF_STEREO_COUNT>  (1) 
0

>  <PUBCHEM_ISOTOPIC_ATOM_COUNT>  (1) 
0

>  <PUBCHEM_COMPONENT_COUNT>  (1) 
1

>  <PUBCHEM_CACTVS_TAUTO_COUNT>  (1) 
1

>  <PUBCHEM_CONFORMER_ID>  (1) 
0000273C00000001

>  <PUBCHEM_MMFF94_ENERGY>  (1) 
17.3961

>  <PUBCHEM_FEATURE_SELFOVERLAP>  (1) 
10.174

>  <PUBCHEM_SHAPE_FINGERPRINT>  (1) 
137420 1 7961233177670726922
16714656 1 17832151519536584782
20096714 4 18261679181480728357
21040471 1 18268142055147104085
23552333 60 17677878201498763019
24536 1 18339065047584601653
29004967 10 18049175654452595091
5084963 1 18056475050399124341
5943 1 13886613429690801433

>  <PUBCHEM_SHAPE_MULTIPOLES>  (1) 
144.06
2.18
1.5
1.07
0.55
0.02
-0.44
0
0.18
0.13
0.24
-0.38
-0.01
0

>  <PUBCHEM_SHAPE_SELFOVERLAP>  (1) 
256.036

>  <PUBCHEM_SHAPE_VOLUME>  (1) 
98.1

>  <PUBCHEM_COORDINATE_TYPE>  (1) 
2
5
10

$$$$
