10041
     RDKit          3D

  5  4  0  0  0  0  0  0  0  0999 V2000
    0.0000    0.0000    0.0000 C   0  0  0  0  0  0  0  0  0  0  0  0
   -1.3467    0.3727    0.6364 C   0  0  0  0  0  0  0  0  0  0  0  0
    0.8961    1.2449   -0.0677 C   0  0  0  0  0  0  0  0  0  0  0  0
   -0.2359   -0.5385   -1.4183 C   0  0  0  0  0  0  0  0  0  0  0  0
    0.6864   -1.0791    0.8496 C   0  0  0  0  0  0  0  0  0  0  0  0
  1  2  1  0
  1  3  1  0
  1  4  1  0
  1  5  1  0
M  END
>  <PUBCHEM_COMPOUND_CID>  (1) 
10041

>  <PUBCHEM_CONFORMER_RMSD>  (1) 
0.4

>  <PUBCHEM_CONFORMER_DIVERSEORDER>  (1) 
1

>  <PUBCHEM_MMFF94_PARTIAL_CHARGES>  (1) 
0

>  <PUBCHEM_EFFECTIVE_ROTOR_COUNT>  (1) 
0

>  <PUBCHEM_PHARMACOPHORE_FEATURES>  (1) 
1
5 1 2 3 4 5 hydrophobe

>  <PUBCHEM_HEAVY_ATOM_COUNT>  (1) 
5

>  <PUBCHEM_ATOM_DEF_STEREO_COUNT>  (1) 
0

>  <PUBCHEM_ATOM_UDEF_STEREO_COUNT>  (1) 
0

>  <PUBCHEM_BOND_DEF_STEREO_COUNT>  (1) 
0

>  <PUBCHEM_BOND_UDEF_STEREO_COUNT>  (1) 
0

>  <PUBCHEM_ISOTOPIC_ATOM_COUNT>  (1) 
0

>  <PUBCHEM_COMPONENT_COUNT>  (1) 
1

>  <PUBCHEM_CACTVS_TAUTO_COUNT>  (1) 
1

>  <PUBCHEM_CONFORMER_ID>  (1) 
0000273900000001

>  <PUBCHEM_MMFF94_ENERGY>  (1) 
8.5018

>  <PUBCHEM_FEATURE_SELFOVERLAP>  (1) 
5.074

>  <PUBCHEM_SHAPE_FINGERPRINT>  (1) 
21015797 1 13819237569022426240
5943 1 14102923088085647366

>  <PUBCHEM_SHAPE_MULTIPOLES>  (1) 
102.9
1.25
1.25
1.24
0.2
0.05
0.51
-0.19
-0.3
-0.46
-0.21
0.27
0.14
0.15

>  <PUBCHEM_SHAPE_SELFOVERLAP>  (1) 
177.049

>  <PUBCHEM_SHAPE_VOLUME>  (1) 
72.5

>  <PUBCHEM_COORDINATE_TYPE>  (1) 
2
5
10

$$$$
