10056
     RDKit          3D

 31 35  0  0  1  0  0  0  0  0999 V2000
    0.3086    1.6485   -1.3995 O   0  0  0  0  0  0  0  0  0  0  0  0
    3.1099    1.6429   -0.0293 O   0  0  0  0  0  0  0  0  0  0  0  0
   -7.3499   -0.5141    1.2408 O   0  0  0  0  0  0  0  0  0  0  0  0
    4.6788   -3.0540    0.2242 O   0  0  0  0  0  0  0  0  0  0  0  0
    2.8300    3.7252    0.9313 O   0  0  0  0  0  0  0  0  0  0  0  0
    6.6615   -1.8856    0.2142 O   0  0  0  0  0  0  0  0  0  0  0  0
    0.1958    0.8516   -0.2137 C   0  0  0  0  0  0  0  0  0  0  0  0
   -1.3136    0.6114    0.1000 C   0  0  0  0  0  0  0  0  0  0  0  0
    1.0165   -0.4820   -0.4087 C   0  0  0  0  0  0  0  0  0  0  0  0
   -1.9634   -0.3558   -0.9255 C   0  0  0  0  0  0  0  0  0  0  0  0
   -3.5069   -0.6022   -0.6762 C   0  0  0  0  0  0  0  0  0  0  0  0
    2.0784   -0.4380    0.7423 C   0  0  0  0  0  0  0  0  0  0  0  0
   -4.2468    0.7686   -0.5230 C   0  0  0  0  0  0  0  0  0  0  0  0
    0.1149   -1.7225   -0.2290 C   0  0  0  0  0  0  0  0  0  0  0  0
   -1.1477   -1.6643   -1.0856 C   0  0  0  0  0  0  0  0  0  0  0  0
    0.8981    1.6123    0.9425 C   0  0  0  0  0  0  0  0  0  0  0  0
   -2.1043    1.9294    0.1578 C   0  0  0  0  0  0  0  0  0  0  0  0
    2.3160    1.0540    0.9899 C   0  0  0  0  0  0  0  0  0  0  0  0
   -3.5653    1.6924    0.5008 C   0  0  0  0  0  0  0  0  0  0  0  0
   -3.7655   -1.4672    0.5925 C   0  0  0  0  0  0  0  0  0  0  0  0
    1.6811   -0.5654   -1.8084 C   0  0  0  0  0  0  0  0  0  0  0  0
   -5.7344    0.6035   -0.1578 C   0  0  0  0  0  0  0  0  0  0  0  0
   -4.0731   -1.3395   -1.9217 C   0  0  0  0  0  0  0  0  0  0  0  0
   -5.2467   -1.6168    0.9446 C   0  0  0  0  0  0  0  0  0  0  0  0
   -5.9553   -0.2745    1.0721 C   0  0  0  0  0  0  0  0  0  0  0  0
    3.3307   -1.2325    0.5491 C   0  0  0  0  0  0  0  0  0  0  0  0
    3.3001   -2.6987    0.3736 C   0  0  0  0  0  0  0  0  0  0  0  0
    4.5770   -0.7691    0.5098 C   0  0  0  0  0  0  0  0  0  0  0  0
    3.2879    2.9954    0.0625 C   0  0  0  0  0  0  0  0  0  0  0  0
    5.4465   -1.9282    0.3025 C   0  0  0  0  0  0  0  0  0  0  0  0
    4.1413    3.4751   -1.0723 C   0  0  0  0  0  0  0  0  0  0  0  0
  1  7  1  0
  2 18  1  0
  2 29  1  0
  3 25  1  0
  4 27  1  0
  4 30  1  0
  5 29  2  0
  6 30  2  0
  7  8  1  0
  7  9  1  0
  7 16  1  0
  8 10  1  0
  8 17  1  0
  9 12  1  0
  9 14  1  0
  9 21  1  0
 10 11  1  0
 10 15  1  0
 11 13  1  0
 11 20  1  0
 11 23  1  0
 12 18  1  0
 12 26  1  0
 13 19  1  0
 13 22  1  0
 14 15  1  0
 16 18  1  0
 17 19  1  0
 20 24  1  0
 22 25  1  0
 24 25  1  0
 26 27  1  0
 26 28  2  0
 28 30  1  0
 29 31  1  0
M  END
>  <PUBCHEM_COMPOUND_CID>  (1) 
10056

>  <PUBCHEM_CONFORMER_RMSD>  (1) 
0.8

>  <PUBCHEM_CONFORMER_DIVERSEORDER>  (1) 
3
21
16
23
26
7
18
15
19
25
1
14
12
10
11
9
13
22
2
20
8
6
24
5
4
17

>  <PUBCHEM_MMFF94_PARTIAL_CHARGES>  (1) 
19
1 -0.68
12 0.14
18 0.28
2 -0.43
25 0.28
26 -0.28
27 0.42
28 -0.14
29 0.66
3 -0.68
30 0.71
31 0.06
4 -0.43
5 -0.57
59 0.4
6 -0.57
63 0.15
64 0.4
7 0.28

>  <PUBCHEM_EFFECTIVE_ROTOR_COUNT>  (1) 
5.6

>  <PUBCHEM_PHARMACOPHORE_FEATURES>  (1) 
11
1 1 acceptor
1 1 donor
1 3 acceptor
1 3 donor
1 5 acceptor
1 6 acceptor
5 4 26 27 28 30 rings
5 7 9 12 16 18 rings
6 11 13 20 22 24 25 rings
6 7 8 9 10 14 15 rings
6 8 10 11 13 17 19 rings

>  <PUBCHEM_HEAVY_ATOM_COUNT>  (1) 
31

>  <PUBCHEM_ATOM_DEF_STEREO_COUNT>  (1) 
7

>  <PUBCHEM_ATOM_UDEF_STEREO_COUNT>  (1) 
2

>  <PUBCHEM_BOND_DEF_STEREO_COUNT>  (1) 
0

>  <PUBCHEM_BOND_UDEF_STEREO_COUNT>  (1) 
0

>  <PUBCHEM_ISOTOPIC_ATOM_COUNT>  (1) 
0

>  <PUBCHEM_COMPONENT_COUNT>  (1) 
1

>  <PUBCHEM_CACTVS_TAUTO_COUNT>  (1) 
1

>  <PUBCHEM_CONFORMER_ID>  (1) 
0000274800000003

>  <PUBCHEM_MMFF94_ENERGY>  (1) 
106.824

>  <PUBCHEM_FEATURE_SELFOVERLAP>  (1) 
55.959

>  <PUBCHEM_SHAPE_FINGERPRINT>  (1) 
10190108 129 17544208528321771675
10369192 42 17680149874306209756
10759866 29 18339924925865502516
11135926 11 18192985135689583140
11445158 3 18409441480128415830
11456790 92 18201731635467528555
11578080 2 17605575438122226450
12107183 9 18198066863668916609
12107698 1 18411138013769593411
12236239 1 17968382238700263462
12422481 6 17703785877703661415
12616971 3 18201997746539287239
12633257 1 17346877866840845779
12788726 201 17560817536543994377
13140716 1 18340209600835578313
13224815 77 18341897428698925381
13533116 47 18409731789610221305
13540713 5 17915446405778388422
13583140 156 18261943047466039639
13782708 43 17603862291068142635
13955234 65 18339356470048877384
14114211 68 18046082689890305228
14341114 176 18342454824679429874
14739800 52 17345176995256851672
14790565 3 17616538801106218188
14849402 71 18336831991515104860
14955137 171 18270121210727074038
15475509 35 17168132425865687234
15788980 27 18413101750058222447
15927050 60 18052819440978435326
17349148 13 17561074787382467022
17492 89 18337388339824178539
17844677 252 18408609145468027857
1813 80 18268436737570172110
18785283 64 18261106431124054948
19841028 212 18263353863157285563
20739085 24 18334861640370061805
21033648 29 17416098617367549434
21049683 271 18260556615318002692
21267235 1 18411422773773968498
21421861 104 18272378580596104789
21781055 127 16629424496165479891
21792934 111 18341325618555507617
23522609 53 18057628610159617457
23559900 14 18339349799494843249
23566358 27 18336825389970639796
24771293 8 18129642219906082154
25147074 1 17988636454328308871
3178227 256 18410579456950914394
335352 9 18270673178390883317
3411729 13 18339365291980242140
350125 39 18411981347303382180
3680242 22 18201726154303547329
392239 28 18341622503726994899
4093350 32 17131836495641395700
4144715 1 18040722493743242689
4516262 110 18193830668299485869
46194498 28 17894628150266784796
465052 167 18340207401733077974
5104073 3 18411710898182707449
57527293 21 18199762487125050887
5912855 24 18126561469175954703
7495541 125 18334860493903651454
9962374 69 18339629118562020999
9981440 41 17834380599490707184

>  <PUBCHEM_SHAPE_MULTIPOLES>  (1) 
602.75
14.06
3.44
1.29
8
1.94
0.38
-5.11
-3.57
-5.86
-0.09
0.75
-0.06
-0.63

>  <PUBCHEM_SHAPE_SELFOVERLAP>  (1) 
1299.62

>  <PUBCHEM_SHAPE_VOLUME>  (1) 
329.5

>  <PUBCHEM_COORDINATE_TYPE>  (1) 
2
5
10

$$$$
