10063
     RDKit          3D

 28 33  0  0  1  0  0  0  0  0999 V2000
    0.4307    2.5284   -0.6629 O   0  0  0  0  0  0  0  0  0  0  0  0
   -7.1853   -0.9602    0.9028 O   0  0  0  0  0  0  0  0  0  0  0  0
    5.9152    0.1931   -0.5337 O   0  0  0  0  0  0  0  0  0  0  0  0
    7.4188   -1.4860   -0.2375 O   0  0  0  0  0  0  0  0  0  0  0  0
    0.1931    1.2649   -0.0201 C   0  0  0  0  0  0  0  0  0  0  0  0
    1.2362    0.1866   -0.2662 C   0  0  0  0  0  0  0  0  0  0  0  0
   -1.2499    0.8783    0.2230 C   0  0  0  0  0  0  0  0  0  0  0  0
    0.8570    2.4071    0.6931 C   0  0  0  0  0  0  0  0  0  0  0  0
   -1.6583   -0.2734   -0.7356 C   0  0  0  0  0  0  0  0  0  0  0  0
    2.3592    0.5518    0.7722 C   0  0  0  0  0  0  0  0  0  0  0  0
    2.3068    2.0907    0.8833 C   0  0  0  0  0  0  0  0  0  0  0  0
   -3.1719   -0.7099   -0.6045 C   0  0  0  0  0  0  0  0  0  0  0  0
    0.6389   -1.1919    0.0588 C   0  0  0  0  0  0  0  0  0  0  0  0
   -0.6632   -1.4678   -0.6938 C   0  0  0  0  0  0  0  0  0  0  0  0
   -2.2103    2.0659    0.0645 C   0  0  0  0  0  0  0  0  0  0  0  0
   -4.0941    0.5510   -0.6920 C   0  0  0  0  0  0  0  0  0  0  0  0
    1.7298    0.2300   -1.7266 C   0  0  0  0  0  0  0  0  0  0  0  0
   -3.6585    1.6625    0.2784 C   0  0  0  0  0  0  0  0  0  0  0  0
   -3.4561   -1.4573    0.7315 C   0  0  0  0  0  0  0  0  0  0  0  0
    3.7285    0.0312    0.4810 C   0  0  0  0  0  0  0  0  0  0  0  0
   -5.5796    0.2170   -0.4580 C   0  0  0  0  0  0  0  0  0  0  0  0
   -3.4931   -1.6558   -1.7942 C   0  0  0  0  0  0  0  0  0  0  0  0
   -4.9358   -1.7750    0.9569 C   0  0  0  0  0  0  0  0  0  0  0  0
   -5.8241   -0.5428    0.8443 C   0  0  0  0  0  0  0  0  0  0  0  0
    4.1091   -1.2457    1.0265 C   0  0  0  0  0  0  0  0  0  0  0  0
    4.6299    0.6824   -0.2612 C   0  0  0  0  0  0  0  0  0  0  0  0
    5.3225   -1.7564    0.7961 C   0  0  0  0  0  0  0  0  0  0  0  0
    6.3044   -1.0187   -0.0262 C   0  0  0  0  0  0  0  0  0  0  0  0
  1  5  1  0
  1  8  1  0
  2 24  1  0
  3 26  1  0
  3 28  1  0
  4 28  2  0
  5  6  1  0
  5  7  1  0
  5  8  1  0
  6 10  1  0
  6 13  1  0
  6 17  1  0
  7  9  1  0
  7 15  1  0
  8 11  1  0
  9 12  1  0
  9 14  1  0
 10 11  1  0
 10 20  1  0
 12 16  1  0
 12 19  1  0
 12 22  1  0
 13 14  1  0
 15 18  1  0
 16 18  1  0
 16 21  1  0
 19 23  1  0
 20 25  1  0
 20 26  2  0
 21 24  1  0
 23 24  1  0
 25 27  2  0
 27 28  1  0
M  END
>  <PUBCHEM_COMPOUND_CID>  (1) 
10063

>  <PUBCHEM_CONFORMER_RMSD>  (1) 
0.8

>  <PUBCHEM_CONFORMER_DIVERSEORDER>  (1) 
1
6
17
4
10
11
7
8
12
14
16
9
2
15
5
3
13

>  <PUBCHEM_MMFF94_PARTIAL_CHARGES>  (1) 
21
1 -0.3
10 0.14
11 0.09
2 -0.68
20 -0.14
24 0.28
25 -0.15
26 -0.07
27 -0.14
28 0.71
3 -0.23
30 0.1
4 -0.57
5 -0.04
57 0.15
58 0.15
59 0.4
6 0.09
60 0.15
7 0.09
8 -0.05

>  <PUBCHEM_EFFECTIVE_ROTOR_COUNT>  (1) 
3.2

>  <PUBCHEM_PHARMACOPHORE_FEATURES>  (1) 
9
1 1 acceptor
1 2 acceptor
1 2 donor
1 4 acceptor
6 1 5 6 8 10 11 rings
6 12 16 19 21 23 24 rings
6 3 20 25 26 27 28 rings
6 5 6 7 9 13 14 rings
6 7 9 12 15 16 18 rings

>  <PUBCHEM_HEAVY_ATOM_COUNT>  (1) 
28

>  <PUBCHEM_ATOM_DEF_STEREO_COUNT>  (1) 
7

>  <PUBCHEM_ATOM_UDEF_STEREO_COUNT>  (1) 
2

>  <PUBCHEM_BOND_DEF_STEREO_COUNT>  (1) 
0

>  <PUBCHEM_BOND_UDEF_STEREO_COUNT>  (1) 
0

>  <PUBCHEM_ISOTOPIC_ATOM_COUNT>  (1) 
0

>  <PUBCHEM_COMPONENT_COUNT>  (1) 
1

>  <PUBCHEM_CACTVS_TAUTO_COUNT>  (1) 
1

>  <PUBCHEM_CONFORMER_ID>  (1) 
0000274F00000001

>  <PUBCHEM_MMFF94_ENERGY>  (1) 
100.8001

>  <PUBCHEM_FEATURE_SELFOVERLAP>  (1) 
45.81

>  <PUBCHEM_SHAPE_FINGERPRINT>  (1) 
10076449 9 18131357397805158752
10675989 125 16612228941762174825
11456790 92 17988657311401648971
11524674 6 16917064460395991655
11578080 2 12390693895637294843
11646440 116 17561086903574886841
117089 54 17899146189495869507
11963148 33 18410848854738791798
12035758 1 17703783713620158698
12107698 1 18411982481728363593
12166972 35 17822014232750570717
12236239 1 18113339687274706316
12422481 6 17704075100911936071
12516196 113 18411416211564801512
12633257 1 17417812889350032841
12760667 363 18341891892185309515
13009979 54 18334020488173822077
13140716 1 18127691741569909631
13288520 33 18335420158159709469
13540713 5 17701250584816563861
13685833 64 18408041818605120658
13862211 1 18271801328391103391
14341114 176 18409167748677116953
14420673 8 18411140229514184771
14955137 171 18412267267428826032
15183329 4 18272082790884007702
15788980 27 18412539929274855751
17349148 13 17704353298702174213
17492 89 18054778757039108287
1813 80 17822577101668974886
18335252 98 18412829076091831106
18927931 339 18343018883008772359
20028762 73 17845926437480816847
20157964 124 9727642704523246288
21033648 29 17417797414567022329
21150785 3 16298392366075783574
21236236 1 18341331093720814393
21267235 1 18410859853906092456
21792934 111 18343008987573219832
21792961 116 18187919530473646991
21859007 373 12966311331012071600
22182313 1 17774168885530941309
22223350 30 17559101305998530435
22950370 63 18335419054442772272
23402539 116 18130779066761590942
23522609 53 18124907704698095577
23559900 14 18188485891158784217
2838139 119 11887670650219150899
3004659 81 18260265231830166538
3178227 256 18411709802602166747
335352 9 18341607105984311181
3383291 50 18409443695957805722
3411729 13 17630595937931338984
350125 39 18411983567981004185
4093350 32 16630249212456567696
4325135 7 9655575214706595138
46194498 28 16298670585155989726
465052 167 18342459240454267308
5104073 3 18343295955501957032
5385378 56 16916799435233961543
559249 180 18339638941368212417
59755656 215 18409166575924640038
8863177 126 18190183562697368699
999808 66 18041008345096241747

>  <PUBCHEM_SHAPE_MULTIPOLES>  (1) 
552.75
15.55
2.31
1.18
6.34
0.83
-0.24
-8.35
2.41
0.07
0.27
-0.49
-0.28
0.05

>  <PUBCHEM_SHAPE_SELFOVERLAP>  (1) 
1209.282

>  <PUBCHEM_SHAPE_VOLUME>  (1) 
297.1

>  <PUBCHEM_COORDINATE_TYPE>  (1) 
2
5
10

$$$$
