10060
     RDKit          3D

 28 32  0  0  1  0  0  0  0  0999 V2000
   -1.3255   -1.3145   -0.7536 O   0  0  0  0  0  0  0  0  0  0  0  0
    5.7653   -0.6919    2.3540 O   0  0  0  0  0  0  0  0  0  0  0  0
   -5.0626   -1.3997    0.0727 O   0  0  0  0  0  0  0  0  0  0  0  0
   -7.1385   -0.8302   -0.6577 O   0  0  0  0  0  0  0  0  0  0  0  0
   -0.4149   -0.4579   -0.0474 C   0  0  0  0  0  0  0  0  0  0  0  0
    0.9570   -0.5059   -0.7803 C   0  0  0  0  0  0  0  0  0  0  0  0
    1.9700    0.5577   -0.2625 C   0  0  0  0  0  0  0  0  0  0  0  0
   -1.0329    0.9656    0.0279 C   0  0  0  0  0  0  0  0  0  0  0  0
    3.3545    0.4978   -1.0183 C   0  0  0  0  0  0  0  0  0  0  0  0
    3.9258   -0.9562   -0.9497 C   0  0  0  0  0  0  0  0  0  0  0  0
    1.3234    1.9559   -0.2716 C   0  0  0  0  0  0  0  0  0  0  0  0
    0.0220    1.9882    0.5264 C   0  0  0  0  0  0  0  0  0  0  0  0
   -2.1380    0.8111    1.1212 C   0  0  0  0  0  0  0  0  0  0  0  0
    1.5695   -1.9208   -0.7567 C   0  0  0  0  0  0  0  0  0  0  0  0
   -0.3855   -0.9138    1.4241 C   0  0  0  0  0  0  0  0  0  0  0  0
    2.9187   -1.9938   -1.4640 C   0  0  0  0  0  0  0  0  0  0  0  0
   -1.5443   -0.1929    2.1270 C   0  0  0  0  0  0  0  0  0  0  0  0
    4.4099    1.4668   -0.4053 C   0  0  0  0  0  0  0  0  0  0  0  0
    4.4160   -1.3387    0.4628 C   0  0  0  0  0  0  0  0  0  0  0  0
   -1.6013    1.4547   -1.3206 C   0  0  0  0  0  0  0  0  0  0  0  0
    3.2003    0.9197   -2.5033 C   0  0  0  0  0  0  0  0  0  0  0  0
    4.8653    1.0835    0.9972 C   0  0  0  0  0  0  0  0  0  0  0  0
    5.4210   -0.3348    1.0192 C   0  0  0  0  0  0  0  0  0  0  0  0
   -3.4794    0.3342    0.6430 C   0  0  0  0  0  0  0  0  0  0  0  0
   -4.4741    1.3153    0.2953 C   0  0  0  0  0  0  0  0  0  0  0  0
   -3.8097   -0.9553    0.5189 C   0  0  0  0  0  0  0  0  0  0  0  0
   -5.6836    0.9436   -0.1352 C   0  0  0  0  0  0  0  0  0  0  0  0
   -6.0284   -0.4878   -0.2636 C   0  0  0  0  0  0  0  0  0  0  0  0
  1  5  1  0
  2 23  1  0
  3 26  1  0
  3 28  1  0
  4 28  2  0
  5  6  1  0
  5  8  1  0
  5 15  1  0
  6  7  1  0
  6 14  1  0
  7  9  1  0
  7 11  1  0
  8 12  1  0
  8 13  1  0
  8 20  1  0
  9 10  1  0
  9 18  1  0
  9 21  1  0
 10 16  1  0
 10 19  1  0
 11 12  1  0
 13 17  1  0
 13 24  1  0
 14 16  1  0
 15 17  1  0
 18 22  1  0
 19 23  1  0
 22 23  1  0
 24 25  1  0
 24 26  2  0
 25 27  2  0
 27 28  1  0
M  END
>  <PUBCHEM_COMPOUND_CID>  (1) 
10060

>  <PUBCHEM_CONFORMER_RMSD>  (1) 
0.8

>  <PUBCHEM_CONFORMER_DIVERSEORDER>  (1) 
1
8
12
7
9
3
10
4
11
2
6
5

>  <PUBCHEM_MMFF94_PARTIAL_CHARGES>  (1) 
17
1 -0.68
13 0.14
2 -0.68
23 0.28
24 -0.14
25 -0.15
26 -0.07
27 -0.14
28 0.71
3 -0.23
4 -0.57
5 0.28
58 0.4
59 0.15
60 0.15
61 0.4
62 0.15

>  <PUBCHEM_EFFECTIVE_ROTOR_COUNT>  (1) 
3.2

>  <PUBCHEM_PHARMACOPHORE_FEATURES>  (1) 
10
1 1 acceptor
1 1 donor
1 2 acceptor
1 2 donor
1 4 acceptor
5 5 8 13 15 17 rings
6 3 24 25 26 27 28 rings
6 5 6 7 8 11 12 rings
6 6 7 9 10 14 16 rings
6 9 10 18 19 22 23 rings

>  <PUBCHEM_HEAVY_ATOM_COUNT>  (1) 
28

>  <PUBCHEM_ATOM_DEF_STEREO_COUNT>  (1) 
6

>  <PUBCHEM_ATOM_UDEF_STEREO_COUNT>  (1) 
2

>  <PUBCHEM_BOND_DEF_STEREO_COUNT>  (1) 
0

>  <PUBCHEM_BOND_UDEF_STEREO_COUNT>  (1) 
0

>  <PUBCHEM_ISOTOPIC_ATOM_COUNT>  (1) 
0

>  <PUBCHEM_COMPONENT_COUNT>  (1) 
1

>  <PUBCHEM_CACTVS_TAUTO_COUNT>  (1) 
1

>  <PUBCHEM_CONFORMER_ID>  (1) 
0000274C00000001

>  <PUBCHEM_MMFF94_ENERGY>  (1) 
108.6148

>  <PUBCHEM_FEATURE_SELFOVERLAP>  (1) 
50.982

>  <PUBCHEM_SHAPE_FINGERPRINT>  (1) 
10 15 18130213944171812120
10674148 151 10881397613638256818
11578080 2 17273125787619066904
11719270 70 18342453733826763199
11796584 16 16588031225064769322
12166972 35 18130793326559402632
12236239 1 18187080667847747641
12403260 363 17603868866694467740
12422481 6 18336824199969215276
12516196 113 17346881156949272977
12596602 18 16272212972654098771
12730499 353 14979960281033671726
12788726 201 17822588113617741596
13224815 77 18271257053498732404
13533116 47 16988289685798655950
13782708 43 16733845206335352867
13914758 101 16950834822287955045
14251758 9 13984661451690745451
14341114 176 9007055764822327807
14840074 17 12247676080496273393
15183329 4 17967818241043528829
15475509 8 12468909837202024426
15788980 27 17458070365266331361
17349148 13 18187655682216805124
19319366 153 16486966255070366766
200 152 18060425703204711273
20511986 3 17988072301884245047
20567600 234 17989194984802658656
21285901 2 18187652370876051045
21304304 249 18334572413721531082
22079108 93 16988837294049553386
22149856 69 17917448518538823515
23402539 116 17749106690834239557
23559900 14 17677071078570833734
23569917 315 18202290186420948974
2838139 119 16660638541173986213
3004659 81 18260275135544729484
34797466 226 16343709854136796709
404807 14 16523256555341631706
4072396 5 18410571782260528722
4325135 7 17418372506271708366
4340502 62 17346595279277675406
439807 62 18268709601692193223
474 4 16988558031413640688
474113 269 17532911853974058298
5104073 3 17773887410733715059
5283173 99 18261674758097274565
58260988 393 16128381445376459066
59755656 215 18342185436384658518
6004065 56 18271800289399810529
6913067 236 18412539899072941140
8509985 295 17530685411789218960
8988823 20 18410572920517039608

>  <PUBCHEM_SHAPE_MULTIPOLES>  (1) 
552.75
13.72
1.92
1.7
10.95
0.03
-0.17
-1.97
-1.17
-0.63
0.36
-1.86
-0.08
-0.22

>  <PUBCHEM_SHAPE_SELFOVERLAP>  (1) 
1196.57

>  <PUBCHEM_SHAPE_VOLUME>  (1) 
299.3

>  <PUBCHEM_COORDINATE_TYPE>  (1) 
2
5
10

$$$$
