10065
     RDKit          3D

 24 27  0  0  1  0  0  0  0  0999 V2000
   -0.6765   -0.1698    1.2275 F   0  0  0  0  0  0  0  0  0  0  0  0
    4.9751   -0.7608    0.1797 O   0  0  0  0  0  0  0  0  0  0  0  0
    0.0305   -2.6102   -0.9139 O   0  0  0  0  0  0  0  0  0  0  0  0
   -5.3235    0.2078    1.5716 O   0  0  0  0  0  0  0  0  0  0  0  0
    2.5474   -0.3830   -0.1085 C   0  0  0  0  0  0  0  0  0  0  0  0
    1.7110    0.8943    0.1460 C   0  0  0  0  0  0  0  0  0  0  0  0
    0.3679    0.8905   -0.6039 C   0  0  0  0  0  0  0  0  0  0  0  0
   -0.4756   -0.3420   -0.1223 C   0  0  0  0  0  0  0  0  0  0  0  0
    3.8538   -0.0255    0.6636 C   0  0  0  0  0  0  0  0  0  0  0  0
    2.6966    2.0250   -0.1309 C   0  0  0  0  0  0  0  0  0  0  0  0
   -1.8959   -0.3831   -0.7856 C   0  0  0  0  0  0  0  0  0  0  0  0
    1.7484   -1.5897    0.3995 C   0  0  0  0  0  0  0  0  0  0  0  0
    4.0572    1.4779    0.3394 C   0  0  0  0  0  0  0  0  0  0  0  0
   -0.3929    2.2126   -0.3965 C   0  0  0  0  0  0  0  0  0  0  0  0
    0.3881   -1.6138   -0.2903 C   0  0  0  0  0  0  0  0  0  0  0  0
    2.8765   -0.6202   -1.6129 C   0  0  0  0  0  0  0  0  0  0  0  0
   -2.5424    0.9839   -0.5039 C   0  0  0  0  0  0  0  0  0  0  0  0
   -1.7861    2.1818   -1.0252 C   0  0  0  0  0  0  0  0  0  0  0  0
   -2.7981   -1.5281   -0.2339 C   0  0  0  0  0  0  0  0  0  0  0  0
    3.8055   -0.2463    2.1807 C   0  0  0  0  0  0  0  0  0  0  0  0
   -1.8151   -0.6011   -2.3196 C   0  0  0  0  0  0  0  0  0  0  0  0
   -3.4626   -1.2260    1.0977 C   0  0  0  0  0  0  0  0  0  0  0  0
   -3.6383    1.1741    0.2489 C   0  0  0  0  0  0  0  0  0  0  0  0
   -4.2509    0.0517    0.9929 C   0  0  0  0  0  0  0  0  0  0  0  0
  1  8  1  0
  2  9  1  0
  3 15  2  0
  4 24  2  0
  5  6  1  0
  5  9  1  0
  5 12  1  0
  5 16  1  0
  6  7  1  0
  6 10  1  0
  7  8  1  0
  7 14  1  0
  8 11  1  0
  8 15  1  0
  9 13  1  0
  9 20  1  0
 10 13  1  0
 11 17  1  0
 11 19  1  0
 11 21  1  0
 12 15  1  0
 14 18  1  0
 17 18  1  0
 17 23  2  0
 19 22  1  0
 22 24  1  0
 23 24  1  0
M  END
>  <PUBCHEM_COMPOUND_CID>  (1) 
10065

>  <PUBCHEM_CONFORMER_RMSD>  (1) 
0.6

>  <PUBCHEM_CONFORMER_DIVERSEORDER>  (1) 
1

>  <PUBCHEM_MMFF94_PARTIAL_CHARGES>  (1) 
16
1 -0.34
11 0.14
12 0.06
15 0.45
17 -0.28
18 0.14
2 -0.68
22 0.06
23 -0.14
24 0.49
3 -0.57
4 -0.57
48 0.4
51 0.15
8 0.4
9 0.28

>  <PUBCHEM_EFFECTIVE_ROTOR_COUNT>  (1) 
1.6

>  <PUBCHEM_PHARMACOPHORE_FEATURES>  (1) 
8
1 2 acceptor
1 2 donor
1 3 acceptor
1 4 acceptor
5 5 6 9 10 13 rings
6 11 17 19 22 23 24 rings
6 5 6 7 8 12 15 rings
6 7 8 11 14 17 18 rings

>  <PUBCHEM_HEAVY_ATOM_COUNT>  (1) 
24

>  <PUBCHEM_ATOM_DEF_STEREO_COUNT>  (1) 
6

>  <PUBCHEM_ATOM_UDEF_STEREO_COUNT>  (1) 
0

>  <PUBCHEM_BOND_DEF_STEREO_COUNT>  (1) 
0

>  <PUBCHEM_BOND_UDEF_STEREO_COUNT>  (1) 
0

>  <PUBCHEM_ISOTOPIC_ATOM_COUNT>  (1) 
0

>  <PUBCHEM_COMPONENT_COUNT>  (1) 
1

>  <PUBCHEM_CACTVS_TAUTO_COUNT>  (1) 
10

>  <PUBCHEM_CONFORMER_ID>  (1) 
0000275100000001

>  <PUBCHEM_MMFF94_ENERGY>  (1) 
86.2344

>  <PUBCHEM_FEATURE_SELFOVERLAP>  (1) 
40.71

>  <PUBCHEM_SHAPE_FINGERPRINT>  (1) 
10863032 1 15626226831281396311
11132069 177 18412262835322931973
11796584 16 15068620526526472385
11961588 58 13398620633126079561
12173636 292 16917067741956369501
12236239 1 17918270974483915159
12403259 415 18341888581050841704
12403814 3 18411694400896883197
12422481 6 18337952264418262465
12553582 1 18334574641933318676
12633257 1 18187938291455090699
12892183 10 17676475134583634184
13140716 1 18337955708966144377
13214271 11 18408037395152789589
13224815 77 18334851740459699868
13581323 91 15430035452710109602
13583140 156 17241303859673976428
13675066 3 17989208161298014146
14178342 30 18194118504338695208
14223421 5 18189898625813077421
14787075 74 17387977731561431282
14790565 3 18193008233649492348
15196674 1 18409165540947888612
15209289 33 17458346333841677059
15209294 21 17917993897173849035
15309172 13 18411134744819478511
16945 1 18335411323047868100
17349148 13 16950002530250037858
1813 80 16805614680792070711
18186145 218 18059856147333139118
19784866 170 18410300181371472523
20028762 73 18197222657914634511
20261772 1 18411418427335318426
20739085 24 18334588965771096260
20871999 31 9511464437314154323
21033648 29 17916852531079614304
21069387 34 12324244953430993891
21267235 1 18334303058261061323
22182313 1 18196091049356724798
23184049 59 18411141367542913389
2334 1 18338510957985552124
23559900 14 17897172329351514270
2748010 2 18124305017933091782
2838139 119 15624827016411073433
296302 2 15195565714598941961
350125 39 18411426090095382368
4340502 62 17917441921410839491
465052 167 17895771685076898203
5104073 3 18339640152263829362
7064713 232 18202284718952661683
7097593 13 17389363927750622234

>  <PUBCHEM_SHAPE_MULTIPOLES>  (1) 
469.03
8.52
2.15
1.55
0.13
0.32
-0.07
0.19
3.93
-0.04
-0.43
-0.28
-0.34
0.16

>  <PUBCHEM_SHAPE_SELFOVERLAP>  (1) 
1021.12

>  <PUBCHEM_SHAPE_VOLUME>  (1) 
256.9

>  <PUBCHEM_COORDINATE_TYPE>  (1) 
2
5
10

$$$$
