10062
     RDKit          3D

 28 32  0  0  1  0  0  0  0  0999 V2000
    1.3987   -1.4274    0.4073 O   0  0  0  0  0  0  0  0  0  0  0  0
   -7.2797   -0.6574   -0.1632 O   0  0  0  0  0  0  0  0  0  0  0  0
    5.2051   -1.4273   -0.0261 O   0  0  0  0  0  0  0  0  0  0  0  0
    7.2032   -1.0025    0.9715 O   0  0  0  0  0  0  0  0  0  0  0  0
    0.5730   -0.4314   -0.2149 C   0  0  0  0  0  0  0  0  0  0  0  0
    1.2004    0.9775   -0.0294 C   0  0  0  0  0  0  0  0  0  0  0  0
   -0.8622   -0.5636    0.3642 C   0  0  0  0  0  0  0  0  0  0  0  0
   -1.8199    0.5733   -0.0872 C   0  0  0  0  0  0  0  0  0  0  0  0
   -3.2741    0.4363    0.5121 C   0  0  0  0  0  0  0  0  0  0  0  0
    2.4041    0.9597   -1.0241 C   0  0  0  0  0  0  0  0  0  0  0  0
    0.1959    2.0744   -0.4786 C   0  0  0  0  0  0  0  0  0  0  0  0
   -1.1774    1.9479    0.1788 C   0  0  0  0  0  0  0  0  0  0  0  0
    0.6824   -0.6751   -1.7313 C   0  0  0  0  0  0  0  0  0  0  0  0
    1.9064    0.1169   -2.2131 C   0  0  0  0  0  0  0  0  0  0  0  0
   -1.4769   -1.9413    0.0479 C   0  0  0  0  0  0  0  0  0  0  0  0
   -3.7804   -0.9942    0.2899 C   0  0  0  0  0  0  0  0  0  0  0  0
    1.6373    1.2714    1.4203 C   0  0  0  0  0  0  0  0  0  0  0  0
   -2.8477   -2.1083    0.6919 C   0  0  0  0  0  0  0  0  0  0  0  0
   -4.2056    1.4657   -0.2035 C   0  0  0  0  0  0  0  0  0  0  0  0
   -3.3068    0.7248    2.0322 C   0  0  0  0  0  0  0  0  0  0  0  0
    3.6913    0.3969   -0.4931 C   0  0  0  0  0  0  0  0  0  0  0  0
   -5.6859    1.1363   -0.0477 C   0  0  0  0  0  0  0  0  0  0  0  0
   -4.9876   -1.2746   -0.2354 C   0  0  0  0  0  0  0  0  0  0  0  0
   -5.9981   -0.2408   -0.6255 C   0  0  0  0  0  0  0  0  0  0  0  0
    4.6516    1.3019    0.0829 C   0  0  0  0  0  0  0  0  0  0  0  0
    4.0030   -0.9027   -0.5217 C   0  0  0  0  0  0  0  0  0  0  0  0
    5.8125    0.8524    0.5694 C   0  0  0  0  0  0  0  0  0  0  0  0
    6.1376   -0.5888    0.5262 C   0  0  0  0  0  0  0  0  0  0  0  0
  1  5  1  0
  2 24  1  0
  3 26  1  0
  3 28  1  0
  4 28  2  0
  5  6  1  0
  5  7  1  0
  5 13  1  0
  6 10  1  0
  6 11  1  0
  6 17  1  0
  7  8  1  0
  7 15  1  0
  8  9  1  0
  8 12  1  0
  9 16  1  0
  9 19  1  0
  9 20  1  0
 10 14  1  0
 10 21  1  0
 11 12  1  0
 13 14  1  0
 15 18  1  0
 16 18  1  0
 16 23  2  0
 19 22  1  0
 21 25  1  0
 21 26  2  0
 22 24  1  0
 23 24  1  0
 25 27  2  0
 27 28  1  0
M  END
>  <PUBCHEM_COMPOUND_CID>  (1) 
10062

>  <PUBCHEM_CONFORMER_RMSD>  (1) 
0.8

>  <PUBCHEM_CONFORMER_DIVERSEORDER>  (1) 
1
6
4
16
13
5
12
10
11
2
15
3
14
8
9
7

>  <PUBCHEM_MMFF94_PARTIAL_CHARGES>  (1) 
22
1 -0.68
10 0.14
16 -0.28
18 0.14
2 -0.68
21 -0.14
23 -0.29
24 0.42
25 -0.15
26 -0.07
27 -0.14
28 0.71
3 -0.23
4 -0.57
49 0.4
5 0.28
55 0.15
57 0.15
58 0.15
59 0.4
60 0.15
9 0.14

>  <PUBCHEM_EFFECTIVE_ROTOR_COUNT>  (1) 
3

>  <PUBCHEM_PHARMACOPHORE_FEATURES>  (1) 
10
1 1 acceptor
1 1 donor
1 2 acceptor
1 2 donor
1 4 acceptor
5 5 6 10 13 14 rings
6 3 21 25 26 27 28 rings
6 5 6 7 8 11 12 rings
6 7 8 9 15 16 18 rings
6 9 16 19 22 23 24 rings

>  <PUBCHEM_HEAVY_ATOM_COUNT>  (1) 
28

>  <PUBCHEM_ATOM_DEF_STEREO_COUNT>  (1) 
5

>  <PUBCHEM_ATOM_UDEF_STEREO_COUNT>  (1) 
2

>  <PUBCHEM_BOND_DEF_STEREO_COUNT>  (1) 
0

>  <PUBCHEM_BOND_UDEF_STEREO_COUNT>  (1) 
0

>  <PUBCHEM_ISOTOPIC_ATOM_COUNT>  (1) 
0

>  <PUBCHEM_COMPONENT_COUNT>  (1) 
1

>  <PUBCHEM_CACTVS_TAUTO_COUNT>  (1) 
1

>  <PUBCHEM_CONFORMER_ID>  (1) 
0000274E00000001

>  <PUBCHEM_MMFF94_ENERGY>  (1) 
99.5308

>  <PUBCHEM_FEATURE_SELFOVERLAP>  (1) 
50.949

>  <PUBCHEM_SHAPE_FINGERPRINT>  (1) 
10 15 18060408145926980056
106641 1 17275096254658868730
10906281 52 18199490859817097653
11045977 3 18343582962802277936
11315181 36 18130791178437568241
11578080 2 16270213085905028714
11646440 116 18271537467755957345
11719270 70 17917712387853633934
11796584 16 17967533505849505042
12011746 2 18411134745083073089
12107698 1 17346314916977362001
12166972 35 18040719207776639933
12236239 1 17603868935286992789
12516196 113 18202562877919636320
13533116 47 18336546024092202034
13590594 115 16153425038897154796
13862211 1 18408323284859975677
13914758 101 17822004286070270109
14251764 18 18413106178237913888
14856354 85 14273461366370818787
15142383 8 16370716024557646134
15183329 4 18041000634970431975
15196674 1 18409732875936104188
15788980 27 18040723575220107916
15849732 13 17676204684339520967
17349148 13 18202291315853889333
17492 89 17974291233553316035
17857418 61 18335137583766401170
17980427 23 17632591452229070001
1813 80 16950566576016218846
18608769 82 18262242226978718739
19377110 9 16056887913867881267
19489759 90 18114180826586557109
200 152 17489872648584240837
20028762 73 18342457036989163774
20511986 3 18337659880156223150
21267235 1 18335426781168117531
21279426 13 18338516313830499071
21521721 280 8718824314601608318
21781051 124 17750251351749406563
21859007 373 17895460441228802405
22079108 93 14979954787654416470
22224240 67 16487248885329651158
23402539 116 18412823586147784893
23559900 14 18269267027757950457
23569917 315 18411144636177731791
23622692 88 15646772293042335875
3004659 81 18186523207221233204
335352 9 18334858333434875159
3383291 50 18259989309951648379
34797466 226 15913335727317053584
3633792 109 18261101934266831511
404807 14 17261039818505326970
4073 2 17895479245312691490
4098825 35 8646503937712143472
4325135 7 16558751221526420484
4340502 62 15769777952981424340
5104073 3 18339371867042156760
559249 180 18260546719043205523
58260988 393 14333140654023842931
59755656 215 18261394416780900814
59755656 520 18114456847287682959
633830 44 15575283223514123764
7226269 152 18409731746397018529
7495541 125 18131349752009413704
9981440 41 18334866000411129731

>  <PUBCHEM_SHAPE_MULTIPOLES>  (1) 
552.75
15.32
1.93
1.3
3.11
0.04
0.17
2.6
-2.07
-0.52
-0.18
0.38
-0.1
-0.15

>  <PUBCHEM_SHAPE_SELFOVERLAP>  (1) 
1203.985

>  <PUBCHEM_SHAPE_VOLUME>  (1) 
297.4

>  <PUBCHEM_COORDINATE_TYPE>  (1) 
2
5
10

$$$$
