10064
     RDKit          3D

 24 28  0  0  1  0  0  0  0  0999 V2000
    2.3036    0.7785    1.4486 O   0  0  0  0  0  0  0  0  0  0  0  0
   -1.7736    1.7663   -0.3263 O   0  0  0  0  0  0  0  0  0  0  0  0
    2.7911    2.8266   -0.2790 O   0  0  0  0  0  0  0  0  0  0  0  0
    4.5270   -1.0770    1.0720 O   0  0  0  0  0  0  0  0  0  0  0  0
   -2.6702   -0.8588    0.1027 N   0  0  0  0  0  0  0  0  0  0  0  0
    0.0709    0.4950    0.5765 C   0  0  0  0  0  0  0  0  0  0  0  0
   -0.8198    0.7434   -0.6331 C   0  0  0  0  0  0  0  0  0  0  0  0
   -1.4843   -0.6961   -0.7518 C   0  0  0  0  0  0  0  0  0  0  0  0
    1.1546    1.5212    0.9283 C   0  0  0  0  0  0  0  0  0  0  0  0
   -0.8731    0.0952    1.7958 C   0  0  0  0  0  0  0  0  0  0  0  0
    1.0361   -0.6131    0.1545 C   0  0  0  0  0  0  0  0  0  0  0  0
   -0.0336    1.3068   -1.8335 C   0  0  0  0  0  0  0  0  0  0  0  0
   -0.5568   -1.6755   -1.5368 C   0  0  0  0  0  0  0  0  0  0  0  0
   -2.4163   -0.1812    1.4218 C   0  0  0  0  0  0  0  0  0  0  0  0
    0.8142   -1.6235   -0.8132 C   0  0  0  0  0  0  0  0  0  0  0  0
    0.7075    2.5844   -1.4245 C   0  0  0  0  0  0  0  0  0  0  0  0
    1.6617    2.3325   -0.2738 C   0  0  0  0  0  0  0  0  0  0  0  0
    2.2646   -0.3998    0.7396 C   0  0  0  0  0  0  0  0  0  0  0  0
   -3.9222   -0.4908   -0.5271 C   0  0  0  0  0  0  0  0  0  0  0  0
    1.8697   -2.4906   -1.0771 C   0  0  0  0  0  0  0  0  0  0  0  0
    3.3115   -1.2622    0.4994 C   0  0  0  0  0  0  0  0  0  0  0  0
    3.1012   -2.3178   -0.4071 C   0  0  0  0  0  0  0  0  0  0  0  0
   -5.0962   -0.8322    0.3382 C   0  0  0  0  0  0  0  0  0  0  0  0
   -5.9676    0.0687    0.8058 C   0  0  0  0  0  0  0  0  0  0  0  0
  1  9  1  0
  1 18  1  0
  2  7  1  0
  3 17  2  0
  4 21  1  0
  5  8  1  0
  5 14  1  0
  5 19  1  0
  6  7  1  0
  6  9  1  0
  6 10  1  0
  6 11  1  0
  7  8  1  0
  7 12  1  0
  8 13  1  0
  9 17  1  0
 10 14  1  0
 11 15  2  0
 11 18  1  0
 12 16  1  0
 13 15  1  0
 15 20  1  0
 16 17  1  0
 18 21  2  0
 19 23  1  0
 20 22  2  0
 21 22  1  0
 23 24  2  0
M  END
>  <PUBCHEM_COMPOUND_CID>  (1) 
10064

>  <PUBCHEM_CONFORMER_RMSD>  (1) 
0.6

>  <PUBCHEM_CONFORMER_DIVERSEORDER>  (1) 
1
2

>  <PUBCHEM_MMFF94_PARTIAL_CHARGES>  (1) 
29
1 -0.36
11 -0.14
13 0.14
14 0.27
15 -0.14
16 0.06
17 0.45
18 0.08
19 0.41
2 -0.68
20 -0.15
21 0.08
22 -0.15
23 -0.29
24 -0.3
3 -0.57
37 0.4
4 -0.53
40 0.15
41 0.15
42 0.15
43 0.45
44 0.15
45 0.15
5 -0.81
6 0.14
7 0.28
8 0.27
9 0.34

>  <PUBCHEM_EFFECTIVE_ROTOR_COUNT>  (1) 
3.4

>  <PUBCHEM_PHARMACOPHORE_FEATURES>  (1) 
12
1 1 acceptor
1 2 acceptor
1 2 donor
1 24 hydrophobe
1 3 acceptor
1 4 donor
1 5 cation
5 1 6 9 11 18 rings
6 11 15 18 20 21 22 rings
6 5 6 7 8 10 14 rings
6 6 7 8 11 13 15 rings
6 6 7 9 12 16 17 rings

>  <PUBCHEM_HEAVY_ATOM_COUNT>  (1) 
24

>  <PUBCHEM_ATOM_DEF_STEREO_COUNT>  (1) 
4

>  <PUBCHEM_ATOM_UDEF_STEREO_COUNT>  (1) 
0

>  <PUBCHEM_BOND_DEF_STEREO_COUNT>  (1) 
0

>  <PUBCHEM_BOND_UDEF_STEREO_COUNT>  (1) 
0

>  <PUBCHEM_ISOTOPIC_ATOM_COUNT>  (1) 
0

>  <PUBCHEM_COMPONENT_COUNT>  (1) 
1

>  <PUBCHEM_CACTVS_TAUTO_COUNT>  (1) 
9

>  <PUBCHEM_CONFORMER_ID>  (1) 
0000275000000001

>  <PUBCHEM_MMFF94_ENERGY>  (1) 
133.3219

>  <PUBCHEM_FEATURE_SELFOVERLAP>  (1) 
62.306

>  <PUBCHEM_SHAPE_FINGERPRINT>  (1) 
10863032 1 18193837278401164859
10948715 1 17907303495693262693
12011746 2 18130514054305218614
12422481 6 18118936274448559504
12423570 1 11190290247604432244
12592029 89 18118974821378782804
12644460 14 18337118959205906337
13134695 92 18260832622120713885
13140716 1 18127962203776096538
133893 2 17825985677271589932
13681431 1 18187947065625013276
14181834 199 18338528515843181860
14790565 3 17834678571025844513
14817 1 11165355312762389844
14955137 171 18202569484143554194
15163728 17 15071474948537142887
16945 1 18129643288387782230
17357779 13 18267006289605268695
17492 54 18119561888280232846
1813 80 18263372412149579527
20739085 24 18335985354180839549
21041028 32 18410569561435947709
22182313 1 18125987296329836518
23184049 59 18130785633883040023
23419403 2 18056737863373532433
23559900 14 18114186379736561003
2748010 2 17912349949559861614
350125 39 18343865510946117904
465052 167 18408044022087367515
5845 1 17977410251387405468
6443956 14 18270686368092939737
7364860 26 18338239361486317660
81228 2 17756722835896464040
8272917 22 18340212976558040385

>  <PUBCHEM_SHAPE_MULTIPOLES>  (1) 
465.45
7.4
2.69
1.55
10.15
0.94
0.03
-2.76
-2.53
-2.76
1.13
-0.09
0.18
-0.03

>  <PUBCHEM_SHAPE_SELFOVERLAP>  (1) 
1039.402

>  <PUBCHEM_SHAPE_VOLUME>  (1) 
244.4

>  <PUBCHEM_COORDINATE_TYPE>  (1) 
2
5
10

$$$$
