1006
     RDKit          3D

 13 12  0  0  1  0  0  0  0  0999 V2000
   -3.2148   -0.0451    0.0682 P   0  0  0  0  0  0  0  0  0  0  0  0
   -1.6888   -0.4293    0.4383 O   0  0  0  0  0  0  0  0  0  0  0  0
    0.7769   -1.6437   -0.0510 O   0  0  0  0  0  0  0  0  0  0  0  0
   -3.2691   -0.1904   -1.5414 O   0  0  0  0  0  0  0  0  0  0  0  0
   -3.2457    1.5552    0.2985 O   0  0  0  0  0  0  0  0  0  0  0  0
    3.5269   -0.0605    1.2735 O   0  0  0  0  0  0  0  0  0  0  0  0
    4.0403   -0.5689   -0.8922 O   0  0  0  0  0  0  0  0  0  0  0  0
   -4.2637   -0.8136    0.8176 O   0  0  0  0  0  0  0  0  0  0  0  0
    2.0191    1.8620   -0.0600 N   0  0  0  0  0  0  0  0  0  0  0  0
    0.7234   -0.2453    0.2540 C   0  0  0  0  0  0  0  0  0  0  0  0
    1.9319    0.4428   -0.4030 C   0  0  0  0  0  0  0  0  0  0  0  0
   -0.6387    0.2574   -0.2316 C   0  0  0  0  0  0  0  0  0  0  0  0
    3.3022   -0.1206    0.0291 C   0  0  0  0  0  0  0  0  0  0  0  0
  1  2  1  0
  1  4  1  0
  1  5  1  0
  1  8  2  0
  2 12  1  0
  3 10  1  0
  6 13  1  0
  7 13  2  0
  9 11  1  0
 10 11  1  0
 10 12  1  0
 11 13  1  0
M  CHG  1   6  -1
M  END
>  <PUBCHEM_COMPOUND_CID>  (1) 
1006

>  <PUBCHEM_CONFORMER_RMSD>  (1) 
0.6

>  <PUBCHEM_CONFORMER_DIVERSEORDER>  (1) 
3
133
145
115
52
98
146
47
55
148
153
53
150
120
131
23
114
20
1
58
128
144
43
147
93
4
34
132
8
82
79
151
65
149
72
15
89
92
104
5
80
77
38
152
124
126
125
141
17
154
24
127
40
66
87
113
21
109
36
39
49
13
134
78
137
70
94
37
32
106
142
61
11
29
111
96
85
59
122
44
81
130
26
75
67
135
117
100
60
18
41
19
102
51
138
143
88
90
22
31
139
86
57
45
42
68
99
140
123
116
14
95
107
50
48
91
105
46
118
10
62
103
27
6
112
84
56
28
9
7
136
64
129
63
54
16
83
119
108
73
74
12
121
71
97
35
30
101
76
69
2
33
110
25

>  <PUBCHEM_MMFF94_PARTIAL_CHARGES>  (1) 
18
1 1.51
10 0.28
11 0.16
12 0.28
13 0.91
18 0.36
19 0.36
2 -0.55
20 0.4
21 0.5
22 0.5
3 -0.68
4 -0.77
5 -0.77
6 -0.9
7 -0.9
8 -0.7
9 -0.99

>  <PUBCHEM_EFFECTIVE_ROTOR_COUNT>  (1) 
5

>  <PUBCHEM_PHARMACOPHORE_FEATURES>  (1) 
11
1 3 acceptor
1 3 donor
1 4 acceptor
1 5 acceptor
1 6 acceptor
1 7 acceptor
1 8 acceptor
1 9 cation
1 9 donor
3 6 7 13 anion
4 1 4 5 8 anion

>  <PUBCHEM_HEAVY_ATOM_COUNT>  (1) 
13

>  <PUBCHEM_ATOM_DEF_STEREO_COUNT>  (1) 
0

>  <PUBCHEM_ATOM_UDEF_STEREO_COUNT>  (1) 
2

>  <PUBCHEM_BOND_DEF_STEREO_COUNT>  (1) 
0

>  <PUBCHEM_BOND_UDEF_STEREO_COUNT>  (1) 
0

>  <PUBCHEM_ISOTOPIC_ATOM_COUNT>  (1) 
0

>  <PUBCHEM_COMPONENT_COUNT>  (1) 
1

>  <PUBCHEM_CACTVS_TAUTO_COUNT>  (1) 
1

>  <PUBCHEM_CONFORMER_ID>  (1) 
000003EE00000003

>  <PUBCHEM_MMFF94_ENERGY>  (1) 
-12.5413

>  <PUBCHEM_FEATURE_SELFOVERLAP>  (1) 
55.914

>  <PUBCHEM_SHAPE_FINGERPRINT>  (1) 
10219947 1 14417853639724124498
12162725 195 18410013247401898209
124424 183 17385995157145483897
12932764 1 17458337576234613347
13675066 3 18060702792450009730
13922767 16 18411974780535776576
14144814 61 18333447625356071600
14325111 11 18409732893147725808
18186145 218 18260547839802764324
190213 19 18060419118661020461
1986462 14 17967253096240597407
20671657 1 17970361522902665756
20828058 21 17167866361152538246
22485316 2 16128654150024688831
23402539 116 13901907774141105514
3248919 1 18408602556776926319

>  <PUBCHEM_SHAPE_MULTIPOLES>  (1) 
225.32
8.06
1.25
0.96
1.96
0.34
0.12
-0.43
-0.25
-0.01
-0.05
0.12
-0.09
0.12

>  <PUBCHEM_SHAPE_SELFOVERLAP>  (1) 
419.017

>  <PUBCHEM_SHAPE_VOLUME>  (1) 
141.5

>  <PUBCHEM_COORDINATE_TYPE>  (1) 
2
5
10

$$$$
