10075
     RDKit          3D

 25 29  0  0  1  0  0  0  0  0999 V2000
   -1.3334   -0.0493   -1.2614 O   0  0  0  0  0  0  0  0  0  0  0  0
   -2.4995    2.4141   -0.2254 O   0  0  0  0  0  0  0  0  0  0  0  0
   -2.4123   -2.6733   -0.5940 O   0  0  0  0  0  0  0  0  0  0  0  0
   -3.3123    0.4602    0.7462 O   0  0  0  0  0  0  0  0  0  0  0  0
    3.7838    0.6812   -0.4188 N   0  0  0  0  0  0  0  0  0  0  0  0
    0.8928    0.7142   -0.6673 C   0  0  0  0  0  0  0  0  0  0  0  0
    1.6408    1.5269    0.3951 C   0  0  0  0  0  0  0  0  0  0  0  0
    2.9127    0.7059    0.7806 C   0  0  0  0  0  0  0  0  0  0  0  0
   -0.5389    1.1658   -1.0227 C   0  0  0  0  0  0  0  0  0  0  0  0
    1.7899    0.5563   -1.9130 C   0  0  0  0  0  0  0  0  0  0  0  0
    0.5561   -0.6208   -0.1071 C   0  0  0  0  0  0  0  0  0  0  0  0
    2.5621   -0.7119    1.3627 C   0  0  0  0  0  0  0  0  0  0  0  0
    0.7605    1.9075    1.6005 C   0  0  0  0  0  0  0  0  0  0  0  0
    3.1853    0.0062   -1.5748 C   0  0  0  0  0  0  0  0  0  0  0  0
    1.3231   -1.3466    0.7847 C   0  0  0  0  0  0  0  0  0  0  0  0
   -0.6924   -1.0217   -0.5328 C   0  0  0  0  0  0  0  0  0  0  0  0
   -1.2116    1.9948    0.0480 C   0  0  0  0  0  0  0  0  0  0  0  0
   -0.6294    2.3215    1.2112 C   0  0  0  0  0  0  0  0  0  0  0  0
    5.1295    0.1857   -0.1491 C   0  0  0  0  0  0  0  0  0  0  0  0
    0.8288   -2.5929    1.1694 C   0  0  0  0  0  0  0  0  0  0  0  0
   -1.1947   -2.2519   -0.1736 C   0  0  0  0  0  0  0  0  0  0  0  0
   -0.4134   -3.0477    0.6768 C   0  0  0  0  0  0  0  0  0  0  0  0
   -3.4698    1.5365    0.1843 C   0  0  0  0  0  0  0  0  0  0  0  0
   -2.8417   -3.9673   -0.1648 C   0  0  0  0  0  0  0  0  0  0  0  0
   -4.8159    2.1067   -0.1546 C   0  0  0  0  0  0  0  0  0  0  0  0
  1  9  1  0
  1 16  1  0
  2 17  1  0
  2 23  1  0
  3 21  1  0
  3 24  1  0
  4 23  2  0
  5  8  1  0
  5 14  1  0
  5 19  1  0
  6  7  1  0
  6  9  1  0
  6 10  1  0
  6 11  1  0
  7  8  1  0
  7 13  1  0
  8 12  1  0
  9 17  1  0
 10 14  1  0
 11 15  2  0
 11 16  1  0
 12 15  1  0
 13 18  1  0
 15 20  1  0
 16 21  2  0
 17 18  2  0
 20 22  2  0
 21 22  1  0
 23 25  1  0
M  END
>  <PUBCHEM_COMPOUND_CID>  (1) 
10075

>  <PUBCHEM_CONFORMER_RMSD>  (1) 
0.8

>  <PUBCHEM_CONFORMER_DIVERSEORDER>  (1) 
1
13
3
11
7
9
12
4
14
5
2
6
10
8

>  <PUBCHEM_MMFF94_PARTIAL_CHARGES>  (1) 
26
1 -0.36
11 -0.14
12 0.14
13 0.14
14 0.27
15 -0.14
16 0.08
17 -0.06
18 -0.29
19 0.27
2 -0.23
20 -0.15
21 0.08
22 -0.15
23 0.66
24 0.28
25 0.06
3 -0.36
37 0.15
4 -0.57
41 0.15
42 0.15
5 -0.81
6 0.14
8 0.27
9 0.42

>  <PUBCHEM_EFFECTIVE_ROTOR_COUNT>  (1) 
4.2

>  <PUBCHEM_PHARMACOPHORE_FEATURES>  (1) 
9
1 1 acceptor
1 3 acceptor
1 4 acceptor
1 5 cation
5 1 6 9 11 16 rings
6 11 15 16 20 21 22 rings
6 5 6 7 8 10 14 rings
6 6 7 8 11 12 15 rings
6 6 7 9 13 17 18 rings

>  <PUBCHEM_HEAVY_ATOM_COUNT>  (1) 
25

>  <PUBCHEM_ATOM_DEF_STEREO_COUNT>  (1) 
0

>  <PUBCHEM_ATOM_UDEF_STEREO_COUNT>  (1) 
4

>  <PUBCHEM_BOND_DEF_STEREO_COUNT>  (1) 
0

>  <PUBCHEM_BOND_UDEF_STEREO_COUNT>  (1) 
0

>  <PUBCHEM_ISOTOPIC_ATOM_COUNT>  (1) 
0

>  <PUBCHEM_COMPONENT_COUNT>  (1) 
1

>  <PUBCHEM_CACTVS_TAUTO_COUNT>  (1) 
1

>  <PUBCHEM_CONFORMER_ID>  (1) 
0000275B00000001

>  <PUBCHEM_MMFF94_ENERGY>  (1) 
88.1762

>  <PUBCHEM_FEATURE_SELFOVERLAP>  (1) 
47.773

>  <PUBCHEM_SHAPE_FINGERPRINT>  (1) 
10064457 181 18410004408306403593
104564 63 18263645219850826730
10863032 1 17968667003442555448
10948715 1 18187371995479773040
1100329 8 18266449906588862066
11578080 2 17535993948080422908
12293681 25 17487925365846059014
12293681 4 17846226544093748200
12592029 89 17750808657456046928
12788726 201 18047207515690683910
13140716 1 18268976734728181928
14223421 5 17911512417719910777
14787075 74 18273206495888800273
14790565 3 18338241461889557132
14866123 147 18409164407214276946
16752209 62 18335703904805095023
16945 1 18263341664784616956
19591789 44 18193840331980753854
20600515 1 18413113874466550076
20691752 17 18124283122021608977
23419403 2 17202480185675172560
23557571 272 18198915888798568316
23558518 356 18120655987542853005
23559900 14 17472127380988666545
2748010 2 17907273795978255244
3052486 1 18262794198050985417
404807 78 18041853921610410859
427121 178 18270965635171844609
4340502 62 18336554806867779581
58260988 647 16413816798788636455
5845 1 12845442309886343102
59755656 520 18337390444167775790
6438718 38 18059292166783089903
70251023 43 17628052805241328951
7495541 125 10950891193489029029
81228 2 18118963839136629865

>  <PUBCHEM_SHAPE_MULTIPOLES>  (1) 
486.03
6.42
3.78
1.41
0.17
3.42
0.13
-2.44
0.66
-4.28
-0.74
0.82
-0.22
-0.46

>  <PUBCHEM_SHAPE_SELFOVERLAP>  (1) 
1086.027

>  <PUBCHEM_SHAPE_VOLUME>  (1) 
254.4

>  <PUBCHEM_COORDINATE_TYPE>  (1) 
2
5
10

$$$$
