10071
     RDKit          3D

 27 31  0  0  1  0  0  0  0  0999 V2000
   -1.6573    1.3878    0.5036 O   0  0  0  0  0  0  0  0  0  0  0  0
    5.9788    0.4083   -1.5877 O   0  0  0  0  0  0  0  0  0  0  0  0
   -5.9847   -0.4350    0.6558 O   0  0  0  0  0  0  0  0  0  0  0  0
   -6.3208    1.8353    0.4860 O   0  0  0  0  0  0  0  0  0  0  0  0
   -0.8228    0.4343   -0.1715 C   0  0  0  0  0  0  0  0  0  0  0  0
    0.6243    0.5871    0.3785 C   0  0  0  0  0  0  0  0  0  0  0  0
    1.5836   -0.5458   -0.0938 C   0  0  0  0  0  0  0  0  0  0  0  0
   -1.4230   -0.9841    0.0365 C   0  0  0  0  0  0  0  0  0  0  0  0
    3.0474   -0.3745    0.4706 C   0  0  0  0  0  0  0  0  0  0  0  0
    3.5481    1.0432    0.0528 C   0  0  0  0  0  0  0  0  0  0  0  0
    0.9667   -1.9263    0.1949 C   0  0  0  0  0  0  0  0  0  0  0  0
   -0.4190   -2.0719   -0.4296 C   0  0  0  0  0  0  0  0  0  0  0  0
   -2.6523   -0.9899   -0.9277 C   0  0  0  0  0  0  0  0  0  0  0  0
    1.2125    1.9807    0.0730 C   0  0  0  0  0  0  0  0  0  0  0  0
   -0.9736    0.6669   -1.6870 C   0  0  0  0  0  0  0  0  0  0  0  0
    2.6398    2.1535    0.5857 C   0  0  0  0  0  0  0  0  0  0  0  0
   -2.2003   -0.1418   -2.1315 C   0  0  0  0  0  0  0  0  0  0  0  0
    4.0065   -1.4183   -0.1722 C   0  0  0  0  0  0  0  0  0  0  0  0
   -1.8197   -1.2679    1.5004 C   0  0  0  0  0  0  0  0  0  0  0  0
    5.0190    1.2984    0.4246 C   0  0  0  0  0  0  0  0  0  0  0  0
    3.0738   -0.5721    2.0086 C   0  0  0  0  0  0  0  0  0  0  0  0
    5.4856   -1.1815    0.1590 C   0  0  0  0  0  0  0  0  0  0  0  0
    5.9443    0.2370   -0.1709 C   0  0  0  0  0  0  0  0  0  0  0  0
   -3.9361   -0.4494   -0.3660 C   0  0  0  0  0  0  0  0  0  0  0  0
   -4.9386   -1.3311    0.2659 C   0  0  0  0  0  0  0  0  0  0  0  0
   -4.3359    0.8193   -0.3548 C   0  0  0  0  0  0  0  0  0  0  0  0
   -5.6464    0.8377    0.2970 C   0  0  0  0  0  0  0  0  0  0  0  0
  1  5  1  0
  2 23  1  0
  3 25  1  0
  3 27  1  0
  4 27  2  0
  5  6  1  0
  5  8  1  0
  5 15  1  0
  6  7  1  0
  6 14  1  0
  7  9  1  0
  7 11  1  0
  8 12  1  0
  8 13  1  0
  8 19  1  0
  9 10  1  0
  9 18  1  0
  9 21  1  0
 10 16  1  0
 10 20  1  0
 11 12  1  0
 13 17  1  0
 13 24  1  0
 14 16  1  0
 15 17  1  0
 18 22  1  0
 20 23  1  0
 22 23  1  0
 24 25  1  0
 24 26  2  0
 26 27  1  0
M  END
>  <PUBCHEM_COMPOUND_CID>  (1) 
10071

>  <PUBCHEM_CONFORMER_RMSD>  (1) 
0.8

>  <PUBCHEM_CONFORMER_DIVERSEORDER>  (1) 
1
7
9
5
14
10
13
8
4
11
2
12
6
15
3

>  <PUBCHEM_MMFF94_PARTIAL_CHARGES>  (1) 
14
1 -0.68
13 0.14
2 -0.68
23 0.28
24 -0.28
25 0.42
26 -0.14
27 0.71
3 -0.43
4 -0.57
5 0.28
57 0.4
60 0.15
61 0.4

>  <PUBCHEM_EFFECTIVE_ROTOR_COUNT>  (1) 
3.6

>  <PUBCHEM_PHARMACOPHORE_FEATURES>  (1) 
10
1 1 acceptor
1 1 donor
1 2 acceptor
1 2 donor
1 4 acceptor
5 3 24 25 26 27 rings
5 5 8 13 15 17 rings
6 5 6 7 8 11 12 rings
6 6 7 9 10 14 16 rings
6 9 10 18 20 22 23 rings

>  <PUBCHEM_HEAVY_ATOM_COUNT>  (1) 
27

>  <PUBCHEM_ATOM_DEF_STEREO_COUNT>  (1) 
6

>  <PUBCHEM_ATOM_UDEF_STEREO_COUNT>  (1) 
2

>  <PUBCHEM_BOND_DEF_STEREO_COUNT>  (1) 
0

>  <PUBCHEM_BOND_UDEF_STEREO_COUNT>  (1) 
0

>  <PUBCHEM_ISOTOPIC_ATOM_COUNT>  (1) 
0

>  <PUBCHEM_COMPONENT_COUNT>  (1) 
1

>  <PUBCHEM_CACTVS_TAUTO_COUNT>  (1) 
1

>  <PUBCHEM_CONFORMER_ID>  (1) 
0000275700000001

>  <PUBCHEM_MMFF94_ENERGY>  (1) 
91.4473

>  <PUBCHEM_FEATURE_SELFOVERLAP>  (1) 
50.942

>  <PUBCHEM_SHAPE_FINGERPRINT>  (1) 
10 15 18187933846675875913
10674148 151 18343588417801055848
10906281 52 18336563641319757635
10930396 42 11239141232222588214
11045977 3 18260548948484530227
11089746 13 15697990834424422547
11578080 2 14058444243908109668
11796584 16 15769774689175382310
12011746 2 18411422812723787338
12166972 35 17632013151961948873
12236239 1 17632857555063607943
12403259 415 18114451314546463996
12553582 1 18339907282350691212
12788726 201 18060424581770270632
128620 24 15140952950746518934
12916748 109 15791728594844777556
13140716 1 18265041608244947234
13533116 47 17168417161171221562
13782708 43 15141510343291990986
13914758 101 14548748257159163611
14251764 18 18334016099444433507
14341114 176 18409451384222753009
14617045 38 18334297574231441534
14790565 3 18411140237951047532
14856354 85 18335146422999195599
15142383 8 18335697200551212541
15183329 4 18131070419909900389
15196674 1 18412260666100833339
15238133 3 18410022026283643421
15301273 46 17458344127035640373
15475509 8 18130522837835014452
15788980 27 13686296906788239919
15840311 113 18411986824125448901
1601671 61 18411697673171235342
17349148 13 11312062066866760346
1813 80 16588021329655265533
18335252 114 18130217169487068157
19319366 153 17313096458899807906
19489759 90 13758357769538951171
200 152 18131066060713247762
20832881 197 18272649039366953256
21033648 29 17750213911495996845
21267235 1 18413113865643778834
21279426 13 18339361846999434285
22079108 93 13334739063682332852
22149856 69 10953738834115325037
23402539 116 18060131063604515069
23522609 53 18042427792553102452
23559900 14 17988074603960459128
2838139 119 17846212242544066969
3004659 81 18261111838751728614
3009799 131 10159703478048775175
335352 9 18413387635665542598
350125 39 18410575071889486052
3680242 22 18334849477434207938
38695281 34 17989205936790305295
4073 2 18114186392389614554
4093350 32 17274826896154450884
4340502 62 16226046682922136674
5104073 3 18336536213648082635
542803 24 18187362138418760126
57724786 102 18261674886666809732
58260988 393 15068617154323023828
59755656 215 17703796881552051748
59755656 520 18113616793922043555
6328613 192 18261398866134878573
633830 44 18200861989450287796
7226269 152 17275107228163264297
9996256 80 18341610468901668023

>  <PUBCHEM_SHAPE_MULTIPOLES>  (1) 
532.17
13.81
1.97
1.32
2.3
0.16
0.24
2.22
-0.66
-0.18
-0.24
-0.01
-0.09
-0.12

>  <PUBCHEM_SHAPE_SELFOVERLAP>  (1) 
1152.867

>  <PUBCHEM_SHAPE_VOLUME>  (1) 
290.1

>  <PUBCHEM_COORDINATE_TYPE>  (1) 
2
5
10

$$$$
