10074
     RDKit          3D

 20 23  0  0  1  0  0  0  0  0999 V2000
    3.5418   -1.3547   -0.9404 O   0  0  0  0  0  0  0  0  0  0  0  0
   -3.4142   -1.2253   -0.2229 O   0  0  0  0  0  0  0  0  0  0  0  0
   -2.6543   -2.9443    1.0077 O   0  0  0  0  0  0  0  0  0  0  0  0
    0.4240    2.1649   -0.1323 N   0  0  0  0  0  0  0  0  0  0  0  0
    0.5145    0.6808    0.0358 C   0  0  0  0  0  0  0  0  0  0  0  0
   -0.8352   -0.0312   -0.2353 C   0  0  0  0  0  0  0  0  0  0  0  0
    1.6715    0.1448   -0.8409 C   0  0  0  0  0  0  0  0  0  0  0  0
    0.9404    0.6068    1.4915 C   0  0  0  0  0  0  0  0  0  0  0  0
   -0.3926    2.6100   -1.2481 C   0  0  0  0  0  0  0  0  0  0  0  0
    0.0476    2.7168    1.1853 C   0  0  0  0  0  0  0  0  0  0  0  0
   -1.8744    0.6153   -0.7955 C   0  0  0  0  0  0  0  0  0  0  0  0
   -1.8116    2.0550   -1.2226 C   0  0  0  0  0  0  0  0  0  0  0  0
    2.2431   -1.2075   -0.3645 C   0  0  0  0  0  0  0  0  0  0  0  0
    0.6152    1.7256    2.1481 C   0  0  0  0  0  0  0  0  0  0  0  0
   -1.0015   -1.4895    0.0807 C   0  0  0  0  0  0  0  0  0  0  0  0
    1.7427   -0.4783    1.9841 C   0  0  0  0  0  0  0  0  0  0  0  0
    2.3438   -1.3265    1.1359 C   0  0  0  0  0  0  0  0  0  0  0  0
   -3.1757   -0.0749   -1.0530 C   0  0  0  0  0  0  0  0  0  0  0  0
   -2.4187   -1.9384    0.3411 C   0  0  0  0  0  0  0  0  0  0  0  0
    3.4936   -1.2492   -2.3546 C   0  0  0  0  0  0  0  0  0  0  0  0
  1 13  1  0
  1 20  1  0
  2 18  1  0
  2 19  1  0
  3 19  2  0
  4  5  1  0
  4  9  1  0
  4 10  1  0
  5  6  1  0
  5  7  1  0
  5  8  1  0
  6 11  2  0
  6 15  1  0
  7 13  1  0
  8 14  2  0
  8 16  1  0
  9 12  1  0
 10 14  1  0
 11 12  1  0
 11 18  1  0
 13 17  1  0
 15 19  1  0
 16 17  2  0
M  END
>  <PUBCHEM_COMPOUND_CID>  (1) 
10074

>  <PUBCHEM_CONFORMER_RMSD>  (1) 
0.6

>  <PUBCHEM_CONFORMER_DIVERSEORDER>  (1) 
1

>  <PUBCHEM_MMFF94_PARTIAL_CHARGES>  (1) 
22
1 -0.56
10 0.41
11 -0.28
12 0.14
13 0.42
14 -0.29
15 0.2
16 -0.15
17 -0.29
18 0.42
19 0.66
2 -0.43
20 0.28
3 -0.57
30 0.15
33 0.15
34 0.15
4 -0.81
5 0.55
6 -0.28
8 -0.14
9 0.27

>  <PUBCHEM_EFFECTIVE_ROTOR_COUNT>  (1) 
2.6

>  <PUBCHEM_PHARMACOPHORE_FEATURES>  (1) 
7
1 1 acceptor
1 3 acceptor
1 4 cation
5 4 5 8 10 14 rings
6 2 6 11 15 18 19 rings
6 4 5 6 9 11 12 rings
6 5 7 8 13 16 17 rings

>  <PUBCHEM_HEAVY_ATOM_COUNT>  (1) 
20

>  <PUBCHEM_ATOM_DEF_STEREO_COUNT>  (1) 
2

>  <PUBCHEM_ATOM_UDEF_STEREO_COUNT>  (1) 
0

>  <PUBCHEM_BOND_DEF_STEREO_COUNT>  (1) 
0

>  <PUBCHEM_BOND_UDEF_STEREO_COUNT>  (1) 
0

>  <PUBCHEM_ISOTOPIC_ATOM_COUNT>  (1) 
0

>  <PUBCHEM_COMPONENT_COUNT>  (1) 
1

>  <PUBCHEM_CACTVS_TAUTO_COUNT>  (1) 
1

>  <PUBCHEM_CONFORMER_ID>  (1) 
0000275A00000001

>  <PUBCHEM_MMFF94_ENERGY>  (1) 
50.8209

>  <PUBCHEM_FEATURE_SELFOVERLAP>  (1) 
35.858

>  <PUBCHEM_SHAPE_FINGERPRINT>  (1) 
11140007 195 17988096551269793291
12423570 1 12085103480750585800
12553582 1 18260264161945914571
12716301 132 17974255791319444857
14115302 16 17824242826903356554
14251740 79 17836940996741380430
14817 1 12805503026775273096
15375462 175 18116983399925992799
15664445 248 16228859422750336391
16752209 62 18044078069669990805
16945 1 18116704127966837636
1813 80 15625957421696118332
19765921 60 15864074281945304308
20600515 1 18192406637716841968
20645476 183 17535184449670762831
20645477 70 17250892932962621927
23419403 2 18060410327079458080
23526113 38 18129929092775903694
23557571 272 18341044130350503072
23559900 14 17980737374232945794
2748010 2 18118666941391490247
484985 159 15550529643597947710
4921388 177 17768558009518372502
576247 118 18131077017158976054
5845 1 15769231426956678932
5895379 119 13917326315813588287
7364860 26 18053662761347396705
81228 2 17771622352292676880
84936 31 17416114208309660872

>  <PUBCHEM_SHAPE_MULTIPOLES>  (1) 
389
4.69
3.01
1.98
0.66
0.55
0.11
-3.63
-2.12
-1.63
0.53
1.45
0.3
1.36

>  <PUBCHEM_SHAPE_SELFOVERLAP>  (1) 
849.661

>  <PUBCHEM_SHAPE_VOLUME>  (1) 
209.2

>  <PUBCHEM_COORDINATE_TYPE>  (1) 
2
5
10

$$$$
