10073
     RDKit          3D

 26 30  0  0  1  0  0  0  0  0999 V2000
   -4.1581   -0.4081   -0.1603 O   0  0  0  0  0  0  0  0  0  0  0  0
   -3.7101    1.9123   -0.2384 O   0  0  0  0  0  0  0  0  0  0  0  0
    2.7207    0.7349    1.2138 N   0  0  0  0  0  0  0  0  0  0  0  0
   -1.5277    1.1237   -0.0220 N   0  0  0  0  0  0  0  0  0  0  0  0
    0.5167    0.1566    0.8512 C   0  0  0  0  0  0  0  0  0  0  0  0
    1.9425   -0.3222    0.5385 C   0  0  0  0  0  0  0  0  0  0  0  0
    2.3385   -0.4271   -0.9512 C   0  0  0  0  0  0  0  0  0  0  0  0
   -0.0378    1.2753   -0.0878 C   0  0  0  0  0  0  0  0  0  0  0  0
    0.6456    0.6886    2.3071 C   0  0  0  0  0  0  0  0  0  0  0  0
    1.9003    0.8445   -1.7103 C   0  0  0  0  0  0  0  0  0  0  0  0
    0.4132    1.1399   -1.5569 C   0  0  0  0  0  0  0  0  0  0  0  0
    2.1425    0.8680    2.5449 C   0  0  0  0  0  0  0  0  0  0  0  0
    3.8805   -0.6081   -1.0519 C   0  0  0  0  0  0  0  0  0  0  0  0
   -0.6156   -0.8375    0.7902 C   0  0  0  0  0  0  0  0  0  0  0  0
    1.6996   -1.6739   -1.6017 C   0  0  0  0  0  0  0  0  0  0  0  0
    4.1510    0.4573    1.2257 C   0  0  0  0  0  0  0  0  0  0  0  0
    4.6686    0.3969   -0.2100 C   0  0  0  0  0  0  0  0  0  0  0  0
   -1.7933   -0.2182    0.3477 C   0  0  0  0  0  0  0  0  0  0  0  0
   -0.6188   -2.1663    1.1934 C   0  0  0  0  0  0  0  0  0  0  0  0
    2.1424   -1.8149   -3.0386 C   0  0  0  0  0  0  0  0  0  0  0  0
   -2.4914    2.0810   -0.3060 C   0  0  0  0  0  0  0  0  0  0  0  0
   -2.9928   -0.9142    0.3145 C   0  0  0  0  0  0  0  0  0  0  0  0
   -1.8179   -2.8771    1.1443 C   0  0  0  0  0  0  0  0  0  0  0  0
   -2.9960   -2.2543    0.7116 C   0  0  0  0  0  0  0  0  0  0  0  0
   -1.9668    3.4407   -0.6988 C   0  0  0  0  0  0  0  0  0  0  0  0
   -4.4361   -0.5980   -1.5490 C   0  0  0  0  0  0  0  0  0  0  0  0
  1 22  1  0
  1 26  1  0
  2 21  2  0
  3  6  1  0
  3 12  1  0
  3 16  1  0
  4  8  1  0
  4 18  1  0
  4 21  1  0
  5  6  1  0
  5  8  1  0
  5  9  1  0
  5 14  1  0
  6  7  1  0
  7 10  1  0
  7 13  1  0
  7 15  1  0
  8 11  1  0
  9 12  1  0
 10 11  1  0
 13 17  1  0
 14 18  2  0
 14 19  1  0
 15 20  1  0
 16 17  1  0
 18 22  1  0
 19 23  2  0
 21 25  1  0
 22 24  2  0
 23 24  1  0
M  END
>  <PUBCHEM_COMPOUND_CID>  (1) 
10073

>  <PUBCHEM_CONFORMER_RMSD>  (1) 
0.8

>  <PUBCHEM_CONFORMER_DIVERSEORDER>  (1) 
1
2

>  <PUBCHEM_MMFF94_PARTIAL_CHARGES>  (1) 
21
1 -0.36
12 0.27
14 -0.14
16 0.27
18 0.12
19 -0.15
2 -0.57
21 0.57
22 0.08
23 -0.15
24 -0.15
25 0.06
26 0.28
3 -0.81
4 -0.48
45 0.15
49 0.15
5 0.14
50 0.15
6 0.27
8 0.3

>  <PUBCHEM_EFFECTIVE_ROTOR_COUNT>  (1) 
4.6

>  <PUBCHEM_PHARMACOPHORE_FEATURES>  (1) 
9
1 1 acceptor
1 2 acceptor
1 20 hydrophobe
1 3 cation
5 3 5 6 9 12 rings
5 4 5 8 14 18 rings
6 14 18 19 22 23 24 rings
6 3 6 7 13 16 17 rings
6 5 6 7 8 10 11 rings

>  <PUBCHEM_HEAVY_ATOM_COUNT>  (1) 
26

>  <PUBCHEM_ATOM_DEF_STEREO_COUNT>  (1) 
3

>  <PUBCHEM_ATOM_UDEF_STEREO_COUNT>  (1) 
1

>  <PUBCHEM_BOND_DEF_STEREO_COUNT>  (1) 
0

>  <PUBCHEM_BOND_UDEF_STEREO_COUNT>  (1) 
0

>  <PUBCHEM_ISOTOPIC_ATOM_COUNT>  (1) 
0

>  <PUBCHEM_COMPONENT_COUNT>  (1) 
1

>  <PUBCHEM_CACTVS_TAUTO_COUNT>  (1) 
1

>  <PUBCHEM_CONFORMER_ID>  (1) 
0000275900000001

>  <PUBCHEM_MMFF94_ENERGY>  (1) 
104.4678

>  <PUBCHEM_FEATURE_SELFOVERLAP>  (1) 
46.271

>  <PUBCHEM_SHAPE_FINGERPRINT>  (1) 
10366900 7 18202564007569563178
10863032 1 18335701577438982346
11370993 70 18409451349673260206
11578080 2 17843714138560239680
11582403 64 16833118882082378920
11640471 11 16805611373171516758
12035759 4 17676202485463932333
12236239 1 16878216532848396890
12788726 201 18042989707693152733
13140716 1 18043254741772197883
13911987 19 17417817305077904360
13947920 75 17894638033007209310
13965767 371 17171793649194273052
14955137 171 14165606298342546834
15324884 4 17912075354661810442
16752209 62 18186791475062790801
16945 1 18260837015608195323
17349148 13 18260537944335134807
19862831 5 17240483649516407575
20600515 1 18189600795643588977
20691752 17 17678181498988260559
21285901 2 18342746217184085175
21756936 100 16083663225691540158
22112679 90 17458057162394581656
23402539 116 18334569170171376823
23419403 2 17916885512164907462
23526113 38 17987521416098358218
23557571 272 18412549811868211089
23559900 14 18409171022001300522
238 59 17273391938115138900
298252 57 17462315463454444856
350125 39 17901095327115519761
3797600 57 14332558033241291239
57527295 17 17558829477486172189
5895379 119 18261403217131967524
77492 1 17022615386249829880
81228 2 18411707582241445481
9709674 26 18341343209870873710

>  <PUBCHEM_SHAPE_MULTIPOLES>  (1) 
513.37
7.19
2.7
2.28
0.15
0.44
0.34
-0.17
1.24
2.68
0.29
-1.78
-0.51
1.69

>  <PUBCHEM_SHAPE_SELFOVERLAP>  (1) 
1127.194

>  <PUBCHEM_SHAPE_VOLUME>  (1) 
278

>  <PUBCHEM_COORDINATE_TYPE>  (1) 
2
5
10

$$$$
