10072
     RDKit          3D

 23 24  0  0  1  0  0  0  0  0999 V2000
    1.2662    1.8480    1.8909 O   0  0  0  0  0  0  0  0  0  0  0  0
   -1.9988   -3.0451   -0.1547 N   0  0  0  0  0  0  0  0  0  0  0  0
    0.1380    0.2003    0.4378 C   0  0  0  0  0  0  0  0  0  0  0  0
   -0.6939   -1.1218    0.7812 C   0  0  0  0  0  0  0  0  0  0  0  0
   -1.1036   -1.9350   -0.4816 C   0  0  0  0  0  0  0  0  0  0  0  0
   -0.5881    1.2008   -0.5211 C   0  0  0  0  0  0  0  0  0  0  0  0
    1.5151   -0.2553   -0.1457 C   0  0  0  0  0  0  0  0  0  0  0  0
    0.3136    1.0763    1.7474 C   0  0  0  0  0  0  0  0  0  0  0  0
    0.0197   -2.0738    1.7697 C   0  0  0  0  0  0  0  0  0  0  0  0
   -0.8037    1.0383    2.7938 C   0  0  0  0  0  0  0  0  0  0  0  0
    0.1921    1.9987   -1.2981 C   0  0  0  0  0  0  0  0  0  0  0  0
    1.6361   -0.3016   -1.4999 C   0  0  0  0  0  0  0  0  0  0  0  0
   -1.9480    1.2012   -0.5100 C   0  0  0  0  0  0  0  0  0  0  0  0
    2.4961   -0.5733    0.7414 C   0  0  0  0  0  0  0  0  0  0  0  0
   -2.3184   -3.8140   -1.3567 C   0  0  0  0  0  0  0  0  0  0  0  0
   -3.2214   -2.5470    0.4740 C   0  0  0  0  0  0  0  0  0  0  0  0
   -0.5001    1.9158    3.9977 C   0  0  0  0  0  0  0  0  0  0  0  0
   -0.4552    2.8906   -2.1532 C   0  0  0  0  0  0  0  0  0  0  0  0
    2.8646   -0.7078   -2.0207 C   0  0  0  0  0  0  0  0  0  0  0  0
   -2.5952    2.0930   -1.3653 C   0  0  0  0  0  0  0  0  0  0  0  0
    3.7246   -0.9795    0.2206 C   0  0  0  0  0  0  0  0  0  0  0  0
   -1.8487    2.9378   -2.1869 C   0  0  0  0  0  0  0  0  0  0  0  0
    3.9089   -1.0467   -1.1604 C   0  0  0  0  0  0  0  0  0  0  0  0
  1  8  2  0
  2  5  1  0
  2 15  1  0
  2 16  1  0
  3  4  1  0
  3  6  1  0
  3  7  1  0
  3  8  1  0
  4  5  1  0
  4  9  1  0
  6 11  2  0
  6 13  1  0
  7 12  2  0
  7 14  1  0
  8 10  1  0
 10 17  1  0
 11 18  1  0
 12 19  1  0
 13 20  2  0
 14 21  2  0
 18 22  2  0
 19 23  2  0
 20 22  1  0
 21 23  1  0
M  END
>  <PUBCHEM_COMPOUND_CID>  (1) 
10072

>  <PUBCHEM_CONFORMER_RMSD>  (1) 
0.8

>  <PUBCHEM_CONFORMER_DIVERSEORDER>  (1) 
1
7
17
23
20
15
16
22
12
5
21
3
19
2
13
11
8
9
6
14
4
24
10
18

>  <PUBCHEM_MMFF94_PARTIAL_CHARGES>  (1) 
30
1 -0.57
10 0.06
11 -0.15
12 -0.15
13 -0.15
14 -0.15
15 0.27
16 0.27
18 -0.15
19 -0.15
2 -0.81
20 -0.15
21 -0.15
22 -0.15
23 -0.15
3 0.35
32 0.15
33 0.15
34 0.15
35 0.15
45 0.15
46 0.15
47 0.15
48 0.15
49 0.15
5 0.27
50 0.15
6 -0.14
7 -0.14
8 0.45

>  <PUBCHEM_EFFECTIVE_ROTOR_COUNT>  (1) 
7

>  <PUBCHEM_PHARMACOPHORE_FEATURES>  (1) 
6
1 1 acceptor
1 17 hydrophobe
1 2 cation
1 9 hydrophobe
6 6 11 13 18 20 22 rings
6 7 12 14 19 21 23 rings

>  <PUBCHEM_HEAVY_ATOM_COUNT>  (1) 
23

>  <PUBCHEM_ATOM_DEF_STEREO_COUNT>  (1) 
0

>  <PUBCHEM_ATOM_UDEF_STEREO_COUNT>  (1) 
1

>  <PUBCHEM_BOND_DEF_STEREO_COUNT>  (1) 
0

>  <PUBCHEM_BOND_UDEF_STEREO_COUNT>  (1) 
0

>  <PUBCHEM_ISOTOPIC_ATOM_COUNT>  (1) 
0

>  <PUBCHEM_COMPONENT_COUNT>  (1) 
1

>  <PUBCHEM_CACTVS_TAUTO_COUNT>  (1) 
2

>  <PUBCHEM_CONFORMER_ID>  (1) 
0000275800000001

>  <PUBCHEM_MMFF94_ENERGY>  (1) 
97.8328

>  <PUBCHEM_FEATURE_SELFOVERLAP>  (1) 
30.446

>  <PUBCHEM_SHAPE_FINGERPRINT>  (1) 
11578080 2 18340775935007224112
11833330 49 18114175371508495740
12617007 42 17974563899488831783
12788726 201 17967542276262387494
13149001 5 17914020214679774208
13681431 1 17759253176997493142
14004458 79 18261110785492951982
14181834 199 17696479859297668190
14817 1 13529176347154836353
14863182 85 16973596731554510543
16945 1 18341334379386308244
17980427 23 16031780896750424531
17980427 26 15026019750233095537
20600515 1 18129118868433434511
20602899 9 18053099515210258166
21524375 3 16953099695734475164
229495 10 17681588890097040666
23419403 2 17915155005316600008
23559900 14 18196640819163790410
23598288 3 16953134987664972622
25222932 49 15816685335104044687
266924 78 16971968290187685841
298252 57 17679578939601908692
3052486 1 17897697999436738111
5895379 119 17833531768240380503
81228 2 18262247710554449626

>  <PUBCHEM_SHAPE_MULTIPOLES>  (1) 
462.48
4.45
4.02
3.16
4.4
4.14
-3.28
-0.08
2.31
-4.39
1.93
-1.1
-2.16
0.42

>  <PUBCHEM_SHAPE_SELFOVERLAP>  (1) 
971.992

>  <PUBCHEM_SHAPE_VOLUME>  (1) 
259.4

>  <PUBCHEM_COORDINATE_TYPE>  (1) 
2
5
10

$$$$
