10086
     RDKit          3D

 24 26  0  0  1  0  0  0  0  0999 V2000
   -0.4169    0.8839    0.0947 O   0  0  0  0  0  0  0  0  0  0  0  0
    2.6754   -0.0218    1.6884 O   0  0  0  0  0  0  0  0  0  0  0  0
    0.3566    1.1616    2.2478 O   0  0  0  0  0  0  0  0  0  0  0  0
   -4.1067    0.8621   -0.3263 N   0  0  0  0  0  0  0  0  0  0  0  0
    2.4759    1.0856   -0.3895 C   0  0  0  0  0  0  0  0  0  0  0  0
    2.7696    2.4494    0.2279 C   0  0  0  0  0  0  0  0  0  0  0  0
    3.8624    0.6185   -0.8212 C   0  0  0  0  0  0  0  0  0  0  0  0
    1.7936    0.1277    0.5713 C   0  0  0  0  0  0  0  0  0  0  0  0
    3.8217    3.0559   -0.6955 C   0  0  0  0  0  0  0  0  0  0  0  0
    4.5171    1.8777   -1.3797 C   0  0  0  0  0  0  0  0  0  0  0  0
   -1.7780    0.8283    0.5085 C   0  0  0  0  0  0  0  0  0  0  0  0
    0.5155    0.7837    1.0934 C   0  0  0  0  0  0  0  0  0  0  0  0
    1.5118   -1.2718    0.0410 C   0  0  0  0  0  0  0  0  0  0  0  0
   -2.0374   -0.4880    1.2366 C   0  0  0  0  0  0  0  0  0  0  0  0
   -2.6941    0.9809   -0.7091 C   0  0  0  0  0  0  0  0  0  0  0  0
   -3.5194   -0.6361    1.5556 C   0  0  0  0  0  0  0  0  0  0  0  0
   -4.3786   -0.4370    0.3052 C   0  0  0  0  0  0  0  0  0  0  0  0
   -4.9711    1.0569   -1.4900 C   0  0  0  0  0  0  0  0  0  0  0  0
    1.1757   -1.4250   -1.2882 C   0  0  0  0  0  0  0  0  0  0  0  0
    1.6017   -2.3426    0.9059 C   0  0  0  0  0  0  0  0  0  0  0  0
   -6.4383    0.9878   -1.1018 C   0  0  0  0  0  0  0  0  0  0  0  0
    0.9178   -2.7068   -1.7742 C   0  0  0  0  0  0  0  0  0  0  0  0
    1.3438   -3.6244    0.4197 C   0  0  0  0  0  0  0  0  0  0  0  0
    1.0019   -3.8064   -0.9204 C   0  0  0  0  0  0  0  0  0  0  0  0
  1 11  1  0
  1 12  1  0
  2  8  1  0
  3 12  2  0
  4 15  1  0
  4 17  1  0
  4 18  1  0
  5  6  1  0
  5  7  1  0
  5  8  1  0
  6  9  1  0
  7 10  1  0
  8 12  1  0
  8 13  1  0
  9 10  1  0
 11 14  1  0
 11 15  1  0
 13 19  2  0
 13 20  1  0
 14 16  1  0
 16 17  1  0
 18 21  1  0
 19 22  1  0
 20 23  2  0
 22 24  2  0
 23 24  1  0
M  END
>  <PUBCHEM_COMPOUND_CID>  (1) 
10086

>  <PUBCHEM_CONFORMER_RMSD>  (1) 
1

>  <PUBCHEM_CONFORMER_DIVERSEORDER>  (1) 
4
617
21
5
262
98
356
534
615
565
52
489
12
395
329
373
211
132
564
303
547
608
110
155
103
87
445
327
193
294
86
26
63
286
77
169
81
521
144
236
131
584
161
305
39
282
415
609
314
341
64
11
616
186
24
73
70
187
255
68
179
318
59
93
120
203
446
237
405
126
308
61
381
57
49
605
47
449
2
6
256
597
33
41
30
500
529
304
201
15
129
45
156
152
455
18
16
113
32
399
410
1
224
46
123
376
190
165
88
299
271
20
301
599
69
512
14
74
9
119
325
42
434
205
580
168
212
50
111
242
324
134
31
357
238
17
53
428
558
94
543
34
10
7
379
148
263
25
118
175
259
75
502
235
535
117
400
164

>  <PUBCHEM_MMFF94_PARTIAL_CHARGES>  (1) 
22
1 -0.43
11 0.28
12 0.66
13 -0.14
15 0.27
17 0.27
18 0.27
19 -0.15
2 -0.68
20 -0.15
22 -0.15
23 -0.15
24 -0.15
3 -0.57
4 -0.81
43 0.4
46 0.15
47 0.15
51 0.15
52 0.15
53 0.15
8 0.48

>  <PUBCHEM_EFFECTIVE_ROTOR_COUNT>  (1) 
8.2

>  <PUBCHEM_PHARMACOPHORE_FEATURES>  (1) 
7
1 2 acceptor
1 2 donor
1 3 acceptor
1 4 cation
5 5 6 7 9 10 rings
6 13 19 20 22 23 24 rings
6 4 11 14 15 16 17 rings

>  <PUBCHEM_HEAVY_ATOM_COUNT>  (1) 
24

>  <PUBCHEM_ATOM_DEF_STEREO_COUNT>  (1) 
0

>  <PUBCHEM_ATOM_UDEF_STEREO_COUNT>  (1) 
2

>  <PUBCHEM_BOND_DEF_STEREO_COUNT>  (1) 
0

>  <PUBCHEM_BOND_UDEF_STEREO_COUNT>  (1) 
0

>  <PUBCHEM_ISOTOPIC_ATOM_COUNT>  (1) 
0

>  <PUBCHEM_COMPONENT_COUNT>  (1) 
1

>  <PUBCHEM_CACTVS_TAUTO_COUNT>  (1) 
1

>  <PUBCHEM_CONFORMER_ID>  (1) 
0000276600000004

>  <PUBCHEM_MMFF94_ENERGY>  (1) 
52.6979

>  <PUBCHEM_FEATURE_SELFOVERLAP>  (1) 
35.53

>  <PUBCHEM_SHAPE_FINGERPRINT>  (1) 
10366900 7 18273212011075026169
10871710 139 16099415168199767100
11069576 57 17987226734308547543
11421498 54 17702685292450054377
11488393 25 18268733648449010142
12553582 1 17547030532146014859
12730499 353 18408046217105312273
12788726 201 17617929675194574346
12969540 114 18270123555473437920
13149001 5 17557713752610288984
13150687 139 18341055211535335196
13257819 37 18048060702728568478
13383661 66 16770139105663494751
133893 2 18196393432482418474
13681431 1 17981895146553793894
13836976 161 18341885277708937470
13911987 19 18268443492905544548
14863182 85 17631436887525948886
14955137 171 18262506006531531162
15163728 17 17823726159649483700
15849732 13 18335410258977367954
17134984 74 17486457591549461863
17138139 8 17415251087735309871
17818456 19 16984345587477159913
17980427 26 16951389075053882808
20197701 30 18338239370603422102
20645477 70 18340202990970281783
21285901 2 18190170205781484445
21304303 94 17632580443773937383
21344244 181 17487643993838150990
21344244 246 18200602393575722934
21452121 199 17981322292342497714
21641784 216 16606337290535105788
21756936 100 17316765683999983332
22393880 68 17987788735237265159
23114952 82 18263646169302070373
23227448 37 17688884446222137460
23419403 2 17190164500304327478
23557571 272 17096103453821959465
23558518 356 17979635633132209353
23559900 14 18262230006846981339
238 59 18413387618491077707
25147074 1 17773325534754161305
3060560 45 18410294722637149996
3472631 163 17095521820850835349
3729539 64 18194713430972216070
404807 78 17973437995714653319
4280585 95 17691414010181979670
44802255 64 17827107257432597364
46194498 28 18263075523036118039
495365 180 18339908398815640521
53917941 68 18053376884509541364
6025842 7 18410006607556252935
633830 44 17772781396319867008
6669772 16 18341344370350852782
81228 2 17405137916979080482
81539 233 18409452492028961790
8272917 22 18339924818649231525
9709674 26 18264205808189062739
9925002 15 17180826562285807405

>  <PUBCHEM_SHAPE_MULTIPOLES>  (1) 
471.32
9.66
3.74
1.71
14.35
3.38
0.21
-7.68
-4.03
-4.43
-1.12
0.27
0.17
0.45

>  <PUBCHEM_SHAPE_SELFOVERLAP>  (1) 
990.573

>  <PUBCHEM_SHAPE_VOLUME>  (1) 
265.5

>  <PUBCHEM_COORDINATE_TYPE>  (1) 
2
5
10

$$$$
