10080
     RDKit          3D

 32 34  0  0  1  0  0  0  0  0999 V2000
    2.0702    0.2591   -1.6313 O   0  0  0  0  0  0  0  0  0  0  0  0
    0.5615    0.3815    1.2473 O   0  0  0  0  0  0  0  0  0  0  0  0
    0.6609   -1.5819    0.0524 N   0  0  0  0  0  0  0  0  0  0  0  0
   -2.9687   -2.4096    0.4160 N   0  0  0  0  0  0  0  0  0  0  0  0
    2.4511    0.2194   -0.2454 C   0  0  0  0  0  0  0  0  0  0  0  0
   -0.5459   -2.1638    0.6388 C   0  0  0  0  0  0  0  0  0  0  0  0
    1.1467   -0.3137    0.4057 C   0  0  0  0  0  0  0  0  0  0  0  0
   -1.7827   -1.7970   -0.1682 C   0  0  0  0  0  0  0  0  0  0  0  0
    3.6435   -0.7445   -0.0635 C   0  0  0  0  0  0  0  0  0  0  0  0
    2.8709    1.6149    0.2267 C   0  0  0  0  0  0  0  0  0  0  0  0
   -4.1783   -1.7035   -0.0108 C   0  0  0  0  0  0  0  0  0  0  0  0
   -4.3751   -0.4182    0.7940 C   0  0  0  0  0  0  0  0  0  0  0  0
    1.3154   -2.4375   -0.9334 C   0  0  0  0  0  0  0  0  0  0  0  0
    4.5643   -0.9181   -1.0969 C   0  0  0  0  0  0  0  0  0  0  0  0
    2.6793    1.9882    1.5571 C   0  0  0  0  0  0  0  0  0  0  0  0
    3.7996   -1.4424    1.1342 C   0  0  0  0  0  0  0  0  0  0  0  0
    3.4444    2.5126   -0.6738 C   0  0  0  0  0  0  0  0  0  0  0  0
   -3.0524   -3.8250    0.0500 C   0  0  0  0  0  0  0  0  0  0  0  0
    0.9839    1.1437   -1.8316 C   0  0  0  0  0  0  0  0  0  0  0  0
   -5.6300    0.3077    0.3794 C   0  0  0  0  0  0  0  0  0  0  0  0
    5.6411   -1.7892   -0.9323 C   0  0  0  0  0  0  0  0  0  0  0  0
    3.0614    3.2590    1.9867 C   0  0  0  0  0  0  0  0  0  0  0  0
    4.8765   -2.3135    1.2987 C   0  0  0  0  0  0  0  0  0  0  0  0
    3.8266    3.7834   -0.2440 C   0  0  0  0  0  0  0  0  0  0  0  0
    0.6194    1.1523   -3.3009 C   0  0  0  0  0  0  0  0  0  0  0  0
    5.7972   -2.4869    0.2654 C   0  0  0  0  0  0  0  0  0  0  0  0
    3.6350    4.1566    1.0861 C   0  0  0  0  0  0  0  0  0  0  0  0
   -5.5815    1.2579   -0.6407 C   0  0  0  0  0  0  0  0  0  0  0  0
   -6.8397    0.0288    1.0155 C   0  0  0  0  0  0  0  0  0  0  0  0
   -6.7423    1.9293   -1.0245 C   0  0  0  0  0  0  0  0  0  0  0  0
   -8.0006    0.7002    0.6316 C   0  0  0  0  0  0  0  0  0  0  0  0
   -7.9518    1.6504   -0.3884 C   0  0  0  0  0  0  0  0  0  0  0  0
  1  5  1  0
  1 19  1  0
  2  7  2  0
  3  6  1  0
  3  7  1  0
  3 13  1  0
  4  8  1  0
  4 11  1  0
  4 18  1  0
  5  7  1  0
  5  9  1  0
  5 10  1  0
  6  8  1  0
  9 14  2  0
  9 16  1  0
 10 15  2  0
 10 17  1  0
 11 12  1  0
 12 20  1  0
 14 21  1  0
 15 22  1  0
 16 23  2  0
 17 24  2  0
 19 25  1  0
 20 28  2  0
 20 29  1  0
 21 26  2  0
 22 27  2  0
 23 26  1  0
 24 27  1  0
 28 30  1  0
 29 31  2  0
 30 32  2  0
 31 32  1  0
M  END
>  <PUBCHEM_COMPOUND_CID>  (1) 
10080

>  <PUBCHEM_CONFORMER_RMSD>  (1) 
1.2

>  <PUBCHEM_CONFORMER_DIVERSEORDER>  (1) 
1
11
19
90
70
36
85
22
16
81
14
79
28
75
60
65
18
39
76
53
43
72
9
35
41
74
44
46
10
57
45
89
84
27
59
42
20
64
3
73
91
25
8
21
58
49
50
51
66
80
31
68
6
38
78
82
71
7
15
86
69
55
87
4
34
56
26
88
54
83
30
40
12
62
47
5
17
52
29
67
13
33
63
24
48
77
61
2
37
32
23

>  <PUBCHEM_MMFF94_PARTIAL_CHARGES>  (1) 
46
1 -0.56
10 -0.14
11 0.27
12 0.14
13 0.3
14 -0.15
15 -0.15
16 -0.15
17 -0.15
18 0.27
19 0.28
2 -0.57
20 -0.14
21 -0.15
22 -0.15
23 -0.15
24 -0.15
26 -0.15
27 -0.15
28 -0.15
29 -0.15
3 -0.66
30 -0.15
31 -0.15
32 -0.15
4 -0.81
47 0.15
48 0.15
49 0.15
5 0.63
50 0.15
53 0.15
54 0.15
55 0.15
56 0.15
6 0.3
60 0.15
61 0.15
62 0.15
63 0.15
64 0.15
65 0.15
66 0.15
7 0.57
8 0.27
9 -0.14

>  <PUBCHEM_EFFECTIVE_ROTOR_COUNT>  (1) 
12

>  <PUBCHEM_PHARMACOPHORE_FEATURES>  (1) 
6
1 1 acceptor
1 2 acceptor
1 4 cation
6 10 15 17 22 24 27 rings
6 20 28 29 30 31 32 rings
6 9 14 16 21 23 26 rings

>  <PUBCHEM_HEAVY_ATOM_COUNT>  (1) 
32

>  <PUBCHEM_ATOM_DEF_STEREO_COUNT>  (1) 
0

>  <PUBCHEM_ATOM_UDEF_STEREO_COUNT>  (1) 
0

>  <PUBCHEM_BOND_DEF_STEREO_COUNT>  (1) 
0

>  <PUBCHEM_BOND_UDEF_STEREO_COUNT>  (1) 
0

>  <PUBCHEM_ISOTOPIC_ATOM_COUNT>  (1) 
0

>  <PUBCHEM_COMPONENT_COUNT>  (1) 
1

>  <PUBCHEM_CACTVS_TAUTO_COUNT>  (1) 
1

>  <PUBCHEM_CONFORMER_ID>  (1) 
0000276000000001

>  <PUBCHEM_MMFF94_ENERGY>  (1) 
106.4893

>  <PUBCHEM_FEATURE_SELFOVERLAP>  (1) 
30.447

>  <PUBCHEM_SHAPE_FINGERPRINT>  (1) 
10050765 1 18267302208694821075
10439779 11 18267581299948364619
11578080 2 18264768934210049108
12107183 9 18336259055198562747
12422481 6 17894345584436725277
12664476 115 18187367581007734389
13008946 113 18263080076224554728
13835254 42 17760089910043118531
13878862 14 18340752815219167325
14068700 686 17835525199099580602
14118638 360 18193836179132689063
14675019 173 17386295298282328270
15183329 4 18342743970942725283
15537594 2 11891340867762142867
16112460 7 18272097093320659489
17868525 174 18411415103505515274
20691028 202 18411419527865642569
21033648 29 18261108633724717041
21304303 172 17986965046736273008
23191077 185 18338505431418008339
23559900 14 18201719574250275554
249057 3 18341612594441052554
25223398 141 17677606454349152797
3178227 256 18338794520527144018
5104073 3 18261953071814584035
6086070 43 18131358547880603946
6371009 1 18201719501446549009
6371380 46 18334857195068685643

>  <PUBCHEM_SHAPE_MULTIPOLES>  (1) 
636.84
18.53
4.57
1.77
40.84
1.83
0.98
3.98
-1.8
-5.11
-1.08
-1.27
1.01
1.49

>  <PUBCHEM_SHAPE_SELFOVERLAP>  (1) 
1342.964

>  <PUBCHEM_SHAPE_VOLUME>  (1) 
356.1

>  <PUBCHEM_COORDINATE_TYPE>  (1) 
2
5
10

$$$$
