10097
     RDKit          3D

 24 26  0  0  1  0  0  0  0  0999 V2000
    2.8666    2.8530    0.1916 Cl  0  0  0  0  0  0  0  0  0  0  0  0
    0.1205    1.5171    0.1594 O   0  0  0  0  0  0  0  0  0  0  0  0
   -5.2643    0.0216    0.1234 O   0  0  0  0  0  0  0  0  0  0  0  0
   -1.0926   -1.7768   -0.3330 O   0  0  0  0  0  0  0  0  0  0  0  0
   -1.4319    1.7464   -2.0251 O   0  0  0  0  0  0  0  0  0  0  0  0
    1.6413   -2.8647   -0.6645 O   0  0  0  0  0  0  0  0  0  0  0  0
    4.8514    0.6466   -0.3034 O   0  0  0  0  0  0  0  0  0  0  0  0
   -1.0443    0.6494    0.0999 C   0  0  0  0  0  0  0  0  0  0  0  0
   -1.8256    0.7631    1.4228 C   0  0  0  0  0  0  0  0  0  0  0  0
   -3.1734    0.0292    1.3401 C   0  0  0  0  0  0  0  0  0  0  0  0
   -0.4828   -0.7373   -0.1737 C   0  0  0  0  0  0  0  0  0  0  0  0
   -1.9040    1.1530   -1.0567 C   0  0  0  0  0  0  0  0  0  0  0  0
   -1.0363    0.2976    2.6505 C   0  0  0  0  0  0  0  0  0  0  0  0
    0.9477   -0.6117   -0.2472 C   0  0  0  0  0  0  0  0  0  0  0  0
   -3.9177    0.3261    0.0705 C   0  0  0  0  0  0  0  0  0  0  0  0
    1.2191    0.7248   -0.0471 C   0  0  0  0  0  0  0  0  0  0  0  0
   -3.3596    0.8604   -1.0241 C   0  0  0  0  0  0  0  0  0  0  0  0
    1.9288   -1.5557   -0.4687 C   0  0  0  0  0  0  0  0  0  0  0  0
    2.5207    1.1856   -0.0596 C   0  0  0  0  0  0  0  0  0  0  0  0
    3.2490   -1.1041   -0.4837 C   0  0  0  0  0  0  0  0  0  0  0  0
    3.5433    0.2570   -0.2806 C   0  0  0  0  0  0  0  0  0  0  0  0
   -5.4957   -1.3011   -0.3188 C   0  0  0  0  0  0  0  0  0  0  0  0
    1.5868   -3.7044    0.4915 C   0  0  0  0  0  0  0  0  0  0  0  0
    5.5531    0.6247    0.9367 C   0  0  0  0  0  0  0  0  0  0  0  0
  1 19  1  0
  2  8  1  0
  2 16  1  0
  3 15  1  0
  3 22  1  0
  4 11  2  0
  5 12  2  0
  6 18  1  0
  6 23  1  0
  7 21  1  0
  7 24  1  0
  8  9  1  0
  8 11  1  0
  8 12  1  0
  9 10  1  0
  9 13  1  0
 10 15  1  0
 11 14  1  0
 12 17  1  0
 14 16  2  0
 14 18  1  0
 15 17  2  0
 16 19  1  0
 18 20  2  0
 19 21  2  0
 20 21  1  0
M  END
>  <PUBCHEM_COMPOUND_CID>  (1) 
10097

>  <PUBCHEM_CONFORMER_RMSD>  (1) 
0.6

>  <PUBCHEM_CONFORMER_DIVERSEORDER>  (1) 
9
12
8
5
10
3
7
2
6
1
4
13
11

>  <PUBCHEM_MMFF94_PARTIAL_CHARGES>  (1) 
24
1 -0.18
10 0.14
11 0.42
12 0.49
14 0.09
15 -0.06
16 0.08
17 -0.14
18 0.08
19 0.18
2 -0.36
20 -0.15
21 0.08
22 0.28
23 0.28
24 0.28
3 -0.36
31 0.15
32 0.15
4 -0.57
5 -0.57
6 -0.36
7 -0.36
8 0.4

>  <PUBCHEM_EFFECTIVE_ROTOR_COUNT>  (1) 
3.6

>  <PUBCHEM_PHARMACOPHORE_FEATURES>  (1) 
9
1 2 acceptor
1 3 acceptor
1 4 acceptor
1 5 acceptor
1 6 acceptor
1 7 acceptor
5 2 8 11 14 16 rings
6 14 16 18 19 20 21 rings
6 8 9 10 12 15 17 rings

>  <PUBCHEM_HEAVY_ATOM_COUNT>  (1) 
24

>  <PUBCHEM_ATOM_DEF_STEREO_COUNT>  (1) 
0

>  <PUBCHEM_ATOM_UDEF_STEREO_COUNT>  (1) 
2

>  <PUBCHEM_BOND_DEF_STEREO_COUNT>  (1) 
0

>  <PUBCHEM_BOND_UDEF_STEREO_COUNT>  (1) 
0

>  <PUBCHEM_ISOTOPIC_ATOM_COUNT>  (1) 
0

>  <PUBCHEM_COMPONENT_COUNT>  (1) 
1

>  <PUBCHEM_CACTVS_TAUTO_COUNT>  (1) 
3

>  <PUBCHEM_CONFORMER_ID>  (1) 
0000277100000009

>  <PUBCHEM_MMFF94_ENERGY>  (1) 
86.5587

>  <PUBCHEM_FEATURE_SELFOVERLAP>  (1) 
45.789

>  <PUBCHEM_SHAPE_FINGERPRINT>  (1) 
10366900 7 17968108503322951504
10906281 52 17531832189152708501
11582403 64 16957543028101335829
12236239 1 17346602962847801177
12293681 25 17677917680817627739
12403259 226 18189330161221745204
12403814 3 18260544532973274373
12592029 89 18408600349285192186
12596602 18 17346883355640258187
12788726 201 16988570061347953067
13009979 54 17129027062353335442
13140716 1 18268145534260563552
13583140 156 17822010943063909480
13911987 19 18336280032298657028
14787075 74 17703229623851914587
15309172 13 18411426128665464720
16945 1 18340774749753862580
17349148 13 18202273702514586504
18219364 16 18410015438009318488
19049666 15 17752772329151049876
19930381 70 18411980303853604897
200 152 18131633383122737441
20645477 70 18336265635325440406
21054139 6 18272080660390604319
22079108 93 17917705851081876208
23402539 116 17167856470143497213
23557571 272 17531243933631703029
23559900 14 16660651790626198588
23598288 3 16987157111502098521
2748010 2 18266750262673783284
33824 294 18410295783130178842
350125 39 18267866266939234420
4340502 62 18272937158589446835
474 4 18343587369301683952
5104073 3 18338799983609357841
6913067 236 18259697912987754511
77492 1 17346319258841060153
81228 2 17617365625723893258
9709674 26 18041567927373341675

>  <PUBCHEM_SHAPE_MULTIPOLES>  (1) 
460.56
9.31
2.68
1.41
1.91
2.07
0.65
-0.76
0.15
-2.25
-0.21
0.89
-0.41
0.38

>  <PUBCHEM_SHAPE_SELFOVERLAP>  (1) 
994.565

>  <PUBCHEM_SHAPE_VOLUME>  (1) 
256.1

>  <PUBCHEM_COORDINATE_TYPE>  (1) 
2
5
10

$$$$
