10092
     RDKit          3D

 29 33  0  0  1  0  0  0  0  0999 V2000
    1.5854   -0.4637   -1.4128 O   0  0  0  0  0  0  0  0  0  0  0  0
    3.0329    2.7569    0.0759 O   0  0  0  0  0  0  0  0  0  0  0  0
   -6.2753    1.0172   -0.2640 O   0  0  0  0  0  0  0  0  0  0  0  0
   -3.3778   -2.8811   -0.7510 O   0  0  0  0  0  0  0  0  0  0  0  0
    5.8604   -0.8525    0.2551 O   0  0  0  0  0  0  0  0  0  0  0  0
    6.1463   -0.2405   -1.9448 O   0  0  0  0  0  0  0  0  0  0  0  0
    0.7526    0.0527   -0.3607 C   0  0  0  0  0  0  0  0  0  0  0  0
    1.3279   -0.3607    1.0252 C   0  0  0  0  0  0  0  0  0  0  0  0
   -0.6965   -0.4447   -0.6234 C   0  0  0  0  0  0  0  0  0  0  0  0
   -1.6774   -0.1489    0.5432 C   0  0  0  0  0  0  0  0  0  0  0  0
   -3.1196   -0.6933    0.2509 C   0  0  0  0  0  0  0  0  0  0  0  0
    2.5518    0.6002    1.1894 C   0  0  0  0  0  0  0  0  0  0  0  0
    0.2947   -0.0704    2.1480 C   0  0  0  0  0  0  0  0  0  0  0  0
   -1.0881   -0.6566    1.8742 C   0  0  0  0  0  0  0  0  0  0  0  0
   -3.6427   -0.1829   -1.1254 C   0  0  0  0  0  0  0  0  0  0  0  0
    0.9333    1.5877   -0.4046 C   0  0  0  0  0  0  0  0  0  0  0  0
   -1.2407    0.0928   -1.9609 C   0  0  0  0  0  0  0  0  0  0  0  0
    2.0179    1.9358    0.6290 C   0  0  0  0  0  0  0  0  0  0  0  0
   -2.6400   -0.4265   -2.2666 C   0  0  0  0  0  0  0  0  0  0  0  0
   -4.1513   -0.3230    1.3507 C   0  0  0  0  0  0  0  0  0  0  0  0
    1.7321   -1.8473    1.1056 C   0  0  0  0  0  0  0  0  0  0  0  0
   -4.0396    1.3124   -1.0855 C   0  0  0  0  0  0  0  0  0  0  0  0
   -4.5124    1.1599    1.3840 C   0  0  0  0  0  0  0  0  0  0  0  0
    3.8200    0.1518    0.5184 C   0  0  0  0  0  0  0  0  0  0  0  0
   -5.0264    1.6391    0.0310 C   0  0  0  0  0  0  0  0  0  0  0  0
   -3.0921   -2.2101    0.2351 C   0  0  0  0  0  0  0  0  0  0  0  0
    4.8377   -0.6435    1.2348 C   0  0  0  0  0  0  0  0  0  0  0  0
    4.1911    0.3892   -0.7369 C   0  0  0  0  0  0  0  0  0  0  0  0
    5.4959   -0.2496   -0.9139 C   0  0  0  0  0  0  0  0  0  0  0  0
  1  7  1  0
  2 18  1  0
  3 25  1  0
  4 26  2  0
  5 27  1  0
  5 29  1  0
  6 29  2  0
  7  8  1  0
  7  9  1  0
  7 16  1  0
  8 12  1  0
  8 13  1  0
  8 21  1  0
  9 10  1  0
  9 17  1  0
 10 11  1  0
 10 14  1  0
 11 15  1  0
 11 20  1  0
 11 26  1  0
 12 18  1  0
 12 24  1  0
 13 14  1  0
 15 19  1  0
 15 22  1  0
 16 18  1  0
 17 19  1  0
 20 23  1  0
 22 25  1  0
 23 25  1  0
 24 27  1  0
 24 28  2  0
 28 29  1  0
M  END
>  <PUBCHEM_COMPOUND_CID>  (1) 
10092

>  <PUBCHEM_CONFORMER_RMSD>  (1) 
0.8

>  <PUBCHEM_CONFORMER_DIVERSEORDER>  (1) 
7
24
19
6
22
16
14
21
8
13
11
5
15
18
12
9
3
17
23
2
25
20
26
4
1
10

>  <PUBCHEM_MMFF94_PARTIAL_CHARGES>  (1) 
21
1 -0.68
11 0.06
12 0.14
18 0.28
2 -0.68
24 -0.28
25 0.28
26 0.45
27 0.42
28 -0.14
29 0.71
3 -0.68
4 -0.57
5 -0.43
52 0.4
56 0.06
57 0.4
6 -0.57
60 0.15
61 0.4
7 0.28

>  <PUBCHEM_EFFECTIVE_ROTOR_COUNT>  (1) 
4.6

>  <PUBCHEM_PHARMACOPHORE_FEATURES>  (1) 
13
1 1 acceptor
1 1 donor
1 2 acceptor
1 2 donor
1 3 acceptor
1 3 donor
1 4 acceptor
1 6 acceptor
5 5 24 27 28 29 rings
5 7 8 12 16 18 rings
6 11 15 20 22 23 25 rings
6 7 8 9 10 13 14 rings
6 9 10 11 15 17 19 rings

>  <PUBCHEM_HEAVY_ATOM_COUNT>  (1) 
29

>  <PUBCHEM_ATOM_DEF_STEREO_COUNT>  (1) 
7

>  <PUBCHEM_ATOM_UDEF_STEREO_COUNT>  (1) 
2

>  <PUBCHEM_BOND_DEF_STEREO_COUNT>  (1) 
0

>  <PUBCHEM_BOND_UDEF_STEREO_COUNT>  (1) 
0

>  <PUBCHEM_ISOTOPIC_ATOM_COUNT>  (1) 
0

>  <PUBCHEM_COMPONENT_COUNT>  (1) 
1

>  <PUBCHEM_CACTVS_TAUTO_COUNT>  (1) 
1

>  <PUBCHEM_CONFORMER_ID>  (1) 
0000276C00000007

>  <PUBCHEM_MMFF94_ENERGY>  (1) 
100.7377

>  <PUBCHEM_FEATURE_SELFOVERLAP>  (1) 
66.212

>  <PUBCHEM_SHAPE_FINGERPRINT>  (1) 
10165383 225 17386010541924144697
10366900 7 17385994096763393449
11405975 8 18340483456139009121
11552529 35 18267015253461153299
11578080 2 17679319700388665148
11796584 16 18060416924218120998
12166972 35 16917058988829169393
12236239 1 17846771923145719192
12403259 415 17312814996190612156
12553582 1 15936680545254738573
12633257 1 18334283267294380657
12788726 201 17986669273228326449
128620 24 11025794284267947129
13224815 77 16226036808528455043
13583140 156 17631726183616597291
13590594 115 18341332206460898424
13675066 3 17346597521329790210
13782708 43 17773875475347049703
13944108 23 16456821808187263645
14251758 9 17775570827502345700
14787075 74 11891345248338718484
14790565 3 16443351944421307764
14840074 17 15574719101140431199
14856354 85 18334583446737913263
14955137 171 15647346207757140068
15183329 4 18342179938404097136
15209289 33 17458343056813258955
15238133 3 18337397041264591325
15788980 27 16845575335280740210
1601671 61 18261108548210343328
17349148 13 12679179440001474890
17980427 23 11887674021805355931
1813 80 18060423513077507996
18186145 218 18260820548851476920
19377110 9 9079117777938348759
200 152 11095878277057544281
20775530 9 11387806379760836841
20832881 197 18334856096136943008
21033648 29 17530963630838341552
21503847 285 18409444808364501040
21781051 124 17131549570272247847
22079108 93 11819285464162998388
22393880 68 18339920510617964938
23493267 7 18060700602497029107
23522609 53 17531831063955770756
23559900 14 17846224340997077430
3004659 81 16773796974853216942
350125 39 16443069395887356821
392239 28 12324539635311216965
4015057 19 15338823283921878451
404807 14 13896893867958852236
4325135 7 12612760094298591165
460360 51 16414630608959584920
5104073 3 18341044228607334896
5283173 99 15338839707718419849
542803 24 17603304847262196608
59755656 215 17988931015917265958
633830 44 18338508746398978908
6913067 236 10735875045719294256
9981440 41 16407281615411457528

>  <PUBCHEM_SHAPE_MULTIPOLES>  (1) 
561.59
12.45
1.95
1.88
5.36
0.23
0.17
-2.38
0.28
-0.25
0.13
-0.89
-0.18
-0.36

>  <PUBCHEM_SHAPE_SELFOVERLAP>  (1) 
1224.291

>  <PUBCHEM_SHAPE_VOLUME>  (1) 
301.3

>  <PUBCHEM_COORDINATE_TYPE>  (1) 
2
5
10

$$$$
