10099
     RDKit          3D

 15 17  0  0  1  0  0  0  0  0999 V2000
   -0.8227   -0.4957    0.1569 C   0  0  0  0  0  0  0  0  0  0  0  0
   -0.4285    0.8219   -0.5993 C   0  0  0  0  0  0  0  0  0  0  0  0
    0.9237    1.3029    0.0141 C   0  0  0  0  0  0  0  0  0  0  0  0
    1.3742    0.0593    0.8538 C   0  0  0  0  0  0  0  0  0  0  0  0
    0.0308   -0.4280    1.4352 C   0  0  0  0  0  0  0  0  0  0  0  0
   -2.3451   -0.3819    0.4159 C   0  0  0  0  0  0  0  0  0  0  0  0
   -1.6591    1.7219   -0.4923 C   0  0  0  0  0  0  0  0  0  0  0  0
   -0.3573   -1.7389   -0.6493 C   0  0  0  0  0  0  0  0  0  0  0  0
   -2.8080    0.7241   -0.5395 C   0  0  0  0  0  0  0  0  0  0  0  0
    1.9596   -1.0637    0.0042 C   0  0  0  0  0  0  0  0  0  0  0  0
    0.7980    2.5332    0.9382 C   0  0  0  0  0  0  0  0  0  0  0  0
    1.9094    1.6958   -1.1015 C   0  0  0  0  0  0  0  0  0  0  0  0
    1.1450   -1.8811   -0.6900 C   0  0  0  0  0  0  0  0  0  0  0  0
   -3.1699   -1.6504    0.2545 C   0  0  0  0  0  0  0  0  0  0  0  0
    3.4499   -1.2195   -0.0009 C   0  0  0  0  0  0  0  0  0  0  0  0
  1  2  1  0
  1  5  1  0
  1  6  1  0
  1  8  1  0
  2  3  1  0
  2  7  1  0
  3  4  1  0
  3 11  1  0
  3 12  1  0
  4  5  1  0
  4 10  1  0
  6  9  1  0
  6 14  1  0
  7  9  1  0
  8 13  1  0
 10 13  2  0
 10 15  1  0
M  END
>  <PUBCHEM_COMPOUND_CID>  (1) 
10099

>  <PUBCHEM_CONFORMER_RMSD>  (1) 
0.6

>  <PUBCHEM_CONFORMER_DIVERSEORDER>  (1) 
1
2

>  <PUBCHEM_MMFF94_PARTIAL_CHARGES>  (1) 
6
10 -0.28
13 -0.29
15 0.14
33 0.15
4 0.14
8 0.14

>  <PUBCHEM_EFFECTIVE_ROTOR_COUNT>  (1) 
1.2

>  <PUBCHEM_PHARMACOPHORE_FEATURES>  (1) 
3
3 3 11 12 hydrophobe
5 1 2 6 7 9 rings
8 1 2 3 4 5 8 10 13 rings

>  <PUBCHEM_HEAVY_ATOM_COUNT>  (1) 
15

>  <PUBCHEM_ATOM_DEF_STEREO_COUNT>  (1) 
2

>  <PUBCHEM_ATOM_UDEF_STEREO_COUNT>  (1) 
2

>  <PUBCHEM_BOND_DEF_STEREO_COUNT>  (1) 
0

>  <PUBCHEM_BOND_UDEF_STEREO_COUNT>  (1) 
0

>  <PUBCHEM_ISOTOPIC_ATOM_COUNT>  (1) 
0

>  <PUBCHEM_COMPONENT_COUNT>  (1) 
1

>  <PUBCHEM_CACTVS_TAUTO_COUNT>  (1) 
1

>  <PUBCHEM_CONFORMER_ID>  (1) 
0000277300000001

>  <PUBCHEM_MMFF94_ENERGY>  (1) 
59.7807

>  <PUBCHEM_FEATURE_SELFOVERLAP>  (1) 
15.275

>  <PUBCHEM_SHAPE_FINGERPRINT>  (1) 
10863032 1 18408888442511100260
10967382 1 18050567636078296959
12138202 97 17971464105489612695
12423570 1 10063277596366056696
12524768 44 18263638648909202547
13024252 1 15793728516101045594
13140716 1 18411138008920660297
13380535 220 18260268520968214836
144361 1 18260835911886223432
14648413 74 18410568483631024729
14817 1 11067884775075172624
15219456 202 18408321111896680705
15490181 7 17910109445061667732
15775835 57 18124323962596094621
161256 15 18336826519209415297
16945 1 18042683901431148749
17990270 104 18408882940747619219
193761 8 18053092119218525894
20201158 50 18266737987277670495
20511035 2 18336528487123326597
20588541 1 18194960730113169935
21501502 16 18336274508716993037
22344851 341 18187075148720028368
22721475 48 18337957792231082655
2334 1 18336826515072658149
23402539 116 17977367348975085454
23419403 2 15321852360238019766
23559900 14 18050842218487747994
241688 4 17328869790132904768
2748010 2 18335972168799857469
353137 74 17687743835671919432
5084963 1 18334574663619073761
5255222 1 18124596637216470733
528886 8 18197489619541574434
5493415 88 18408882923420167490
68250623 7 18260838119441157395
7364860 26 18269834375198583448
81228 2 17764034566719782544

>  <PUBCHEM_SHAPE_MULTIPOLES>  (1) 
308.69
4.03
2.46
1.08
0.75
0.65
-0.14
-1.38
0.24
-0.44
0.17
-0.16
0.17
0.26

>  <PUBCHEM_SHAPE_SELFOVERLAP>  (1) 
658.343

>  <PUBCHEM_SHAPE_VOLUME>  (1) 
171.5

>  <PUBCHEM_COORDINATE_TYPE>  (1) 
2
5
10

$$$$
