10110
     RDKit          3D

  5  4  0  0  0  0  0  0  0  0999 V2000
   -1.1599   -1.1719    0.0000 O   0  0  0  0  0  0  0  0  0  0  0  0
   -1.1859    1.1130    0.0000 O   0  0  0  0  0  0  0  0  0  0  0  0
   -0.5778    0.0533   -0.0001 C   0  0  0  0  0  0  0  0  0  0  0  0
    0.8618    0.0170    0.0000 C   0  0  0  0  0  0  0  0  0  0  0  0
    2.0618   -0.0113    0.0000 C   0  0  0  0  0  0  0  0  0  0  0  0
  1  3  1  0
  2  3  2  0
  3  4  1  0
  4  5  3  0
M  END
>  <PUBCHEM_COMPOUND_CID>  (1) 
10110

>  <PUBCHEM_CONFORMER_RMSD>  (1) 
0.4

>  <PUBCHEM_CONFORMER_DIVERSEORDER>  (1) 
1

>  <PUBCHEM_MMFF94_PARTIAL_CHARGES>  (1) 
7
1 -0.65
2 -0.57
3 0.83
4 -0.1
5 -0.18
6 0.5
7 0.18

>  <PUBCHEM_EFFECTIVE_ROTOR_COUNT>  (1) 
0

>  <PUBCHEM_PHARMACOPHORE_FEATURES>  (1) 
4
1 1 acceptor
1 2 acceptor
1 5 hydrophobe
3 1 2 3 anion

>  <PUBCHEM_HEAVY_ATOM_COUNT>  (1) 
5

>  <PUBCHEM_ATOM_DEF_STEREO_COUNT>  (1) 
0

>  <PUBCHEM_ATOM_UDEF_STEREO_COUNT>  (1) 
0

>  <PUBCHEM_BOND_DEF_STEREO_COUNT>  (1) 
0

>  <PUBCHEM_BOND_UDEF_STEREO_COUNT>  (1) 
0

>  <PUBCHEM_ISOTOPIC_ATOM_COUNT>  (1) 
0

>  <PUBCHEM_COMPONENT_COUNT>  (1) 
1

>  <PUBCHEM_CACTVS_TAUTO_COUNT>  (1) 
1

>  <PUBCHEM_CONFORMER_ID>  (1) 
0000277E00000001

>  <PUBCHEM_MMFF94_ENERGY>  (1) 
1.6876

>  <PUBCHEM_FEATURE_SELFOVERLAP>  (1) 
20.352

>  <PUBCHEM_SHAPE_FINGERPRINT>  (1) 
139733 1 9222695287469160579
20096714 4 18263927644194436784
21015797 1 9871481914689711979
21040471 1 18194682570719511748
24536 1 18341039770631669516
5460574 1 9295287244453443840
5943 1 8911969376033452677

>  <PUBCHEM_SHAPE_MULTIPOLES>  (1) 
91.16
2.2
1
0.58
0.98
0.04
0
0
0
-0.51
0
0.05
0
0

>  <PUBCHEM_SHAPE_SELFOVERLAP>  (1) 
167.3

>  <PUBCHEM_SHAPE_VOLUME>  (1) 
57.2

>  <PUBCHEM_COORDINATE_TYPE>  (1) 
2
5
10

$$$$
