10117
     RDKit          3D

 22 24  0  0  1  0  0  0  0  0999 V2000
    4.1042    0.1483   -1.6527 O   0  0  0  0  0  0  0  0  0  0  0  0
    4.4867    1.3324    0.2570 O   0  0  0  0  0  0  0  0  0  0  0  0
    0.7191    0.6547   -0.1757 C   0  0  0  0  0  0  0  0  0  0  0  0
    1.6314   -0.6168   -0.4532 C   0  0  0  0  0  0  0  0  0  0  0  0
   -0.7108    0.4798   -0.8591 C   0  0  0  0  0  0  0  0  0  0  0  0
    3.0114   -0.5945    0.3007 C   0  0  0  0  0  0  0  0  0  0  0  0
    0.6099    0.8643    1.3602 C   0  0  0  0  0  0  0  0  0  0  0  0
    0.8689   -1.9285   -0.1238 C   0  0  0  0  0  0  0  0  0  0  0  0
    2.8370   -0.2867    1.7988 C   0  0  0  0  0  0  0  0  0  0  0  0
    1.9582    0.9249    2.0778 C   0  0  0  0  0  0  0  0  0  0  0  0
   -1.3409   -0.8781   -0.6034 C   0  0  0  0  0  0  0  0  0  0  0  0
   -0.4520   -2.0547   -0.8580 C   0  0  0  0  0  0  0  0  0  0  0  0
    1.3459    1.9286   -0.8070 C   0  0  0  0  0  0  0  0  0  0  0  0
   -1.6979    1.6386   -0.5361 C   0  0  0  0  0  0  0  0  0  0  0  0
    3.7949   -1.9194    0.1645 C   0  0  0  0  0  0  0  0  0  0  0  0
    3.9456    0.4086   -0.3320 C   0  0  0  0  0  0  0  0  0  0  0  0
   -3.1427    1.3052   -0.9021 C   0  0  0  0  0  0  0  0  0  0  0  0
   -2.6291   -1.0498   -0.2558 C   0  0  0  0  0  0  0  0  0  0  0  0
   -3.5791    0.0424   -0.2099 C   0  0  0  0  0  0  0  0  0  0  0  0
   -4.7797   -0.0834    0.3730 C   0  0  0  0  0  0  0  0  0  0  0  0
   -5.7623    1.0494    0.4193 C   0  0  0  0  0  0  0  0  0  0  0  0
   -5.2186   -1.3653    1.0174 C   0  0  0  0  0  0  0  0  0  0  0  0
  1 16  1  0
  2 16  2  0
  3  4  1  0
  3  5  1  0
  3  7  1  0
  3 13  1  0
  4  6  1  0
  4  8  1  0
  5 11  1  0
  5 14  1  0
  6  9  1  0
  6 15  1  0
  6 16  1  0
  7 10  1  0
  8 12  1  0
  9 10  1  0
 11 12  1  0
 11 18  2  0
 14 17  1  0
 17 19  1  0
 18 19  1  0
 19 20  2  3
 20 21  1  0
 20 22  1  0
M  END
>  <PUBCHEM_COMPOUND_CID>  (1) 
10117

>  <PUBCHEM_CONFORMER_RMSD>  (1) 
0.6

>  <PUBCHEM_CONFORMER_DIVERSEORDER>  (1) 
10
60
42
61
43
11
36
6
1
28
65
35
58
66
53
17
33
38
70
63
62
25
45
24
55
9
68
8
44
22
18
52
71
64
12
15
54
59
34
29
40
69
46
26
67
16
2
47
27
37
7
32
57
39
30
19
49
3
41
48
4
50
51
56
20
5
31
21
14
13
23

>  <PUBCHEM_MMFF94_PARTIAL_CHARGES>  (1) 
15
1 -0.65
11 -0.28
12 0.14
16 0.66
17 0.14
18 -0.15
19 -0.14
2 -0.57
20 -0.28
21 0.14
22 0.14
45 0.15
46 0.5
5 0.14
6 0.06

>  <PUBCHEM_EFFECTIVE_ROTOR_COUNT>  (1) 
2.6

>  <PUBCHEM_PHARMACOPHORE_FEATURES>  (1) 
7
1 1 acceptor
1 2 acceptor
3 1 2 16 anion
3 20 21 22 hydrophobe
6 3 4 5 8 11 12 rings
6 3 4 6 7 9 10 rings
6 5 11 14 17 18 19 rings

>  <PUBCHEM_HEAVY_ATOM_COUNT>  (1) 
22

>  <PUBCHEM_ATOM_DEF_STEREO_COUNT>  (1) 
0

>  <PUBCHEM_ATOM_UDEF_STEREO_COUNT>  (1) 
4

>  <PUBCHEM_BOND_DEF_STEREO_COUNT>  (1) 
0

>  <PUBCHEM_BOND_UDEF_STEREO_COUNT>  (1) 
0

>  <PUBCHEM_ISOTOPIC_ATOM_COUNT>  (1) 
0

>  <PUBCHEM_COMPONENT_COUNT>  (1) 
1

>  <PUBCHEM_CACTVS_TAUTO_COUNT>  (1) 
1

>  <PUBCHEM_CONFORMER_ID>  (1) 
000027850000000A

>  <PUBCHEM_MMFF94_ENERGY>  (1) 
67.9984

>  <PUBCHEM_FEATURE_SELFOVERLAP>  (1) 
35.644

>  <PUBCHEM_SHAPE_FINGERPRINT>  (1) 
10366900 7 18413383238146376603
10863032 1 18334856087325260606
11089746 13 17346591934105086129
11578080 2 17557704952153240730
11796584 16 16515683369132878195
12236239 1 17603585227323005252
12592029 89 18333737913763987538
12633257 1 17560504166675750274
12644460 14 18041003959354409053
128620 24 14490471984897861961
13134695 92 15626222433714894144
13140716 1 18267296715346798563
13224815 77 18338785784669094295
13583140 156 16878764085417934629
13675066 3 18272930531681664859
14289901 80 15864063248042413172
14341114 176 18261118448225992161
14341114 328 17313108561595004865
14787075 74 16733274541819184212
14790565 3 18339370754762242693
15196674 1 18409166589167744375
15788980 27 11887958765510225391
1601671 61 18410858754384019181
16945 1 18198319910198558990
17349148 13 18335691789646462543
17804303 29 18342738529071091215
1813 80 17022906744226052103
18186145 218 17417800760124986067
18222031 100 18262791986775934647
19784866 170 18409453557755617279
200 152 13117998899061107191
20028762 73 18198346363314761263
20261772 1 18341049700759926087
20645477 70 11314317135087319403
20691752 17 18116414007368848262
21033648 29 18059560378863763665
21267235 1 18335708191725853422
212847 35 18131067112858974602
21503847 285 16774076275927772649
22854114 59 18343862217085678507
23559900 14 17973435508126456135
2748010 2 18123458380825913591
296302 2 17632572785873368008
350125 39 18340206263666828494
4340502 62 16008752432870058784
465052 167 18186527622358241603
474 4 16486679376929390515
5104073 3 18335417920339402105
54040823 5 18040157318600635848
57724786 102 16701740574452623593
633830 44 17131823292015187453
6442390 28 18410857693527759523
6913067 236 13840537523061003968
7495541 125 17968098659031237633
81228 2 17694756907566002775

>  <PUBCHEM_SHAPE_MULTIPOLES>  (1) 
441.01
10.01
1.97
1.4
8.5
0.36
0.52
-0.14
1.68
-0.17
-0.25
-0.83
-0.24
0.39

>  <PUBCHEM_SHAPE_SELFOVERLAP>  (1) 
929.385

>  <PUBCHEM_SHAPE_VOLUME>  (1) 
245.5

>  <PUBCHEM_COORDINATE_TYPE>  (1) 
2
5
10

$$$$
