10120
     RDKit          3D

 29 33  0  0  1  0  0  0  0  0999 V2000
    1.4299   -1.5299    0.2766 O   0  0  0  0  0  0  0  0  0  0  0  0
   -4.9897   -1.3096    1.1332 O   0  0  0  0  0  0  0  0  0  0  0  0
   -6.4226    0.0141   -0.8839 O   0  0  0  0  0  0  0  0  0  0  0  0
    5.3237   -1.3625   -0.2798 O   0  0  0  0  0  0  0  0  0  0  0  0
    7.3657   -0.9712    0.6393 O   0  0  0  0  0  0  0  0  0  0  0  0
   -0.8171   -0.6415    0.4618 C   0  0  0  0  0  0  0  0  0  0  0  0
    0.5931   -0.4517   -0.1663 C   0  0  0  0  0  0  0  0  0  0  0  0
   -1.7768    0.5555    0.2080 C   0  0  0  0  0  0  0  0  0  0  0  0
    1.2546    0.9137    0.1653 C   0  0  0  0  0  0  0  0  0  0  0  0
   -3.1992    0.3406    0.8693 C   0  0  0  0  0  0  0  0  0  0  0  0
   -3.8030   -1.0238    0.3757 C   0  0  0  0  0  0  0  0  0  0  0  0
   -1.0933    1.8763    0.6134 C   0  0  0  0  0  0  0  0  0  0  0  0
    0.2483    2.0687   -0.0914 C   0  0  0  0  0  0  0  0  0  0  0  0
    2.4084    1.0188   -0.8837 C   0  0  0  0  0  0  0  0  0  0  0  0
   -1.4508   -1.9746    0.0221 C   0  0  0  0  0  0  0  0  0  0  0  0
    0.6233   -0.4918   -1.7038 C   0  0  0  0  0  0  0  0  0  0  0  0
   -2.8327   -2.1924    0.6242 C   0  0  0  0  0  0  0  0  0  0  0  0
    1.8806    0.2783   -2.1273 C   0  0  0  0  0  0  0  0  0  0  0  0
   -4.1947    1.4836    0.5000 C   0  0  0  0  0  0  0  0  0  0  0  0
   -4.2143   -0.9718   -1.1207 C   0  0  0  0  0  0  0  0  0  0  0  0
    1.7642    1.0160    1.6172 C   0  0  0  0  0  0  0  0  0  0  0  0
   -3.0943    0.3618    2.4205 C   0  0  0  0  0  0  0  0  0  0  0  0
   -4.5661    1.5305   -0.9817 C   0  0  0  0  0  0  0  0  0  0  0  0
   -5.1352    0.2021   -1.4666 C   0  0  0  0  0  0  0  0  0  0  0  0
    3.7382    0.4493   -0.4830 C   0  0  0  0  0  0  0  0  0  0  0  0
    4.7073    1.3256    0.1220 C   0  0  0  0  0  0  0  0  0  0  0  0
    4.0811   -0.8315   -0.6540 C   0  0  0  0  0  0  0  0  0  0  0  0
    5.9061    0.8686    0.4966 C   0  0  0  0  0  0  0  0  0  0  0  0
    6.2652   -0.5510    0.2969 C   0  0  0  0  0  0  0  0  0  0  0  0
  1  7  1  0
  2 11  1  0
  3 24  1  0
  4 27  1  0
  4 29  1  0
  5 29  2  0
  6  7  1  0
  6  8  1  0
  6 15  1  0
  7  9  1  0
  7 16  1  0
  8 10  1  0
  8 12  1  0
  9 13  1  0
  9 14  1  0
  9 21  1  0
 10 11  1  0
 10 19  1  0
 10 22  1  0
 11 17  1  0
 11 20  1  0
 12 13  1  0
 14 18  1  0
 14 25  1  0
 15 17  1  0
 16 18  1  0
 19 23  1  0
 20 24  1  0
 23 24  1  0
 25 26  1  0
 25 27  2  0
 26 28  2  0
 28 29  1  0
M  END
>  <PUBCHEM_COMPOUND_CID>  (1) 
10120

>  <PUBCHEM_CONFORMER_RMSD>  (1) 
0.8

>  <PUBCHEM_CONFORMER_DIVERSEORDER>  (1) 
5
13
7
21
12
17
6
20
8
16
15
9
4
10
11
1
14
18
19
2
3

>  <PUBCHEM_MMFF94_PARTIAL_CHARGES>  (1) 
20
1 -0.68
11 0.28
14 0.14
2 -0.68
24 0.28
25 -0.14
26 -0.15
27 -0.07
28 -0.14
29 0.71
3 -0.68
4 -0.23
5 -0.57
58 0.4
59 0.4
60 0.15
61 0.15
62 0.4
63 0.15
7 0.28

>  <PUBCHEM_EFFECTIVE_ROTOR_COUNT>  (1) 
3.2

>  <PUBCHEM_PHARMACOPHORE_FEATURES>  (1) 
12
1 1 acceptor
1 1 donor
1 2 acceptor
1 2 donor
1 3 acceptor
1 3 donor
1 5 acceptor
5 7 9 14 16 18 rings
6 10 11 19 20 23 24 rings
6 4 25 26 27 28 29 rings
6 6 7 8 9 12 13 rings
6 6 8 10 11 15 17 rings

>  <PUBCHEM_HEAVY_ATOM_COUNT>  (1) 
29

>  <PUBCHEM_ATOM_DEF_STEREO_COUNT>  (1) 
6

>  <PUBCHEM_ATOM_UDEF_STEREO_COUNT>  (1) 
2

>  <PUBCHEM_BOND_DEF_STEREO_COUNT>  (1) 
0

>  <PUBCHEM_BOND_UDEF_STEREO_COUNT>  (1) 
0

>  <PUBCHEM_ISOTOPIC_ATOM_COUNT>  (1) 
0

>  <PUBCHEM_COMPONENT_COUNT>  (1) 
1

>  <PUBCHEM_CACTVS_TAUTO_COUNT>  (1) 
1

>  <PUBCHEM_CONFORMER_ID>  (1) 
0000278800000005

>  <PUBCHEM_MMFF94_ENERGY>  (1) 
119.5047

>  <PUBCHEM_FEATURE_SELFOVERLAP>  (1) 
61.136

>  <PUBCHEM_SHAPE_FINGERPRINT>  (1) 
10 15 17988629823726797168
10165383 225 12179842780394549941
10675989 125 16968575188662641925
10930396 42 17985514894015537832
11315181 36 17989487437219846888
11796584 16 18187363246684203810
12011746 2 18413100662961881121
12166972 35 17968381259579498085
12236239 1 17603868922892779192
13224815 77 17918001585386945653
13583140 156 18272649099332932214
13590594 115 16081085961482511676
13631057 29 14117219690454108845
13782708 43 16486428577294969116
13914758 101 18260541187061985749
14251758 9 17676207961768683478
14787075 74 13830128408195674558
14849402 71 13901327331118795610
14856354 85 14562537275316958515
15183329 4 16081083771069911620
15238133 3 15140679142434326847
15788980 27 18040441005095276092
1601671 61 13984659257068049604
17349148 13 17846225474441058745
17857418 61 18411135814772665978
17980427 23 17560813142512985561
1813 80 17240207629881353958
18608769 82 18335142029738157979
19377110 9 16056885718896876510
19489759 90 17967250892885574701
200 152 17203890773568958221
20197701 30 18335137600862231546
20511986 3 18338222852212202450
20567600 75 18335137575186847358
21033648 29 18261382382161140345
21236236 1 18272934890752100369
21279426 13 18337110060202682142
21682296 61 17488756549761399270
21859007 373 17895454965430401444
22079108 93 14117794730829722844
23198884 109 15574714707578466293
23402539 116 18342738507185122956
23559900 14 18339072808569932872
3004659 81 18113616790317503336
3009799 131 18409724062758372957
335352 9 18408604760037374149
34797466 226 14764349383695435584
3633792 109 18335692790051972047
4015057 19 18270394009543234801
404807 14 17190109224017718750
4325135 7 12607401109005719751
5104073 3 18341341079988964944
5265222 85 11747237740191759394
5283173 99 18337104579576934261
53794403 172 11599131367994939218
542803 24 12251901503533908484
559249 180 18113898255929079466
59755656 215 18334575699181406990
633830 44 15792017843416894902
7226269 152 18409168800896703056
7495541 125 17775563165576335848

>  <PUBCHEM_SHAPE_MULTIPOLES>  (1) 
567.46
14.44
1.91
1.55
11.7
0.08
0.03
1.87
-0.06
-0.63
-0.24
-1.06
-0.12
0.28

>  <PUBCHEM_SHAPE_SELFOVERLAP>  (1) 
1232.525

>  <PUBCHEM_SHAPE_VOLUME>  (1) 
306.1

>  <PUBCHEM_COORDINATE_TYPE>  (1) 
2
5
10

$$$$
