10139
     RDKit          3D

 19 20  0  0  0  0  0  0  0  0999 V2000
   -0.2130   -2.4268   -1.8508 Cl  0  0  0  0  0  0  0  0  0  0  0  0
   -1.4209   -3.2680    0.6330 Cl  0  0  0  0  0  0  0  0  0  0  0  0
    1.4569   -3.2752    0.3843 Cl  0  0  0  0  0  0  0  0  0  0  0  0
   -4.6496    2.1552   -0.4351 F   0  0  0  0  0  0  0  0  0  0  0  0
    4.7108    2.0767   -0.2162 F   0  0  0  0  0  0  0  0  0  0  0  0
   -0.0143   -0.8760    0.5220 C   0  0  0  0  0  0  0  0  0  0  0  0
   -1.2438   -0.0711    0.2680 C   0  0  0  0  0  0  0  0  0  0  0  0
    1.2881   -0.0612    0.3184 C   0  0  0  0  0  0  0  0  0  0  0  0
   -0.0233   -2.3478   -0.0697 C   0  0  0  0  0  0  0  0  0  0  0  0
   -1.3381    0.7156   -0.8798 C   0  0  0  0  0  0  0  0  0  0  0  0
    1.6114    0.8734    1.2614 C   0  0  0  0  0  0  0  0  0  0  0  0
   -2.3000   -0.1056    1.1786 C   0  0  0  0  0  0  0  0  0  0  0  0
    2.0392   -0.3246   -0.7927 C   0  0  0  0  0  0  0  0  0  0  0  0
   -2.4885    1.4678   -1.1172 C   0  0  0  0  0  0  0  0  0  0  0  0
    2.7841    1.6061    1.0780 C   0  0  0  0  0  0  0  0  0  0  0  0
   -3.4504    0.6466    0.9411 C   0  0  0  0  0  0  0  0  0  0  0  0
    3.2118    0.4081   -0.9759 C   0  0  0  0  0  0  0  0  0  0  0  0
   -3.5447    1.4333   -0.2067 C   0  0  0  0  0  0  0  0  0  0  0  0
    3.5844    1.3735   -0.0406 C   0  0  0  0  0  0  0  0  0  0  0  0
  1  9  1  0
  2  9  1  0
  3  9  1  0
  4 18  1  0
  5 19  1  0
  6  7  1  0
  6  8  1  0
  6  9  1  0
  7 10  2  0
  7 12  1  0
  8 11  2  0
  8 13  1  0
 10 14  1  0
 11 15  1  0
 12 16  2  0
 13 17  2  0
 14 18  2  0
 15 19  2  0
 16 18  1  0
 17 19  1  0
M  END
>  <PUBCHEM_COMPOUND_CID>  (1) 
10139

>  <PUBCHEM_CONFORMER_RMSD>  (1) 
0.6

>  <PUBCHEM_CONFORMER_DIVERSEORDER>  (1) 
1
2

>  <PUBCHEM_MMFF94_PARTIAL_CHARGES>  (1) 
27
1 -0.29
10 -0.15
11 -0.15
12 -0.15
13 -0.15
14 -0.15
15 -0.15
16 -0.15
17 -0.15
18 0.19
19 0.19
2 -0.29
21 0.15
22 0.15
23 0.15
24 0.15
25 0.15
26 0.15
27 0.15
28 0.15
3 -0.29
4 -0.19
5 -0.19
6 0.29
7 -0.14
8 -0.14
9 0.87

>  <PUBCHEM_EFFECTIVE_ROTOR_COUNT>  (1) 
3

>  <PUBCHEM_PHARMACOPHORE_FEATURES>  (1) 
2
6 7 10 12 14 16 18 rings
6 8 11 13 15 17 19 rings

>  <PUBCHEM_HEAVY_ATOM_COUNT>  (1) 
19

>  <PUBCHEM_ATOM_DEF_STEREO_COUNT>  (1) 
0

>  <PUBCHEM_ATOM_UDEF_STEREO_COUNT>  (1) 
0

>  <PUBCHEM_BOND_DEF_STEREO_COUNT>  (1) 
0

>  <PUBCHEM_BOND_UDEF_STEREO_COUNT>  (1) 
0

>  <PUBCHEM_ISOTOPIC_ATOM_COUNT>  (1) 
0

>  <PUBCHEM_COMPONENT_COUNT>  (1) 
1

>  <PUBCHEM_CACTVS_TAUTO_COUNT>  (1) 
1

>  <PUBCHEM_CONFORMER_ID>  (1) 
0000279B00000001

>  <PUBCHEM_MMFF94_ENERGY>  (1) 
57.8035

>  <PUBCHEM_FEATURE_SELFOVERLAP>  (1) 
10.149

>  <PUBCHEM_SHAPE_FINGERPRINT>  (1) 
10165383 225 18266201519950269048
10498660 4 18408882932295451949
12138202 97 18130227180823232902
12173636 292 18192992840586020772
12500047 106 18341050839121171856
12532896 13 18410853304350296734
12716301 132 18197766907405349930
12730499 353 18338525132158181777
12788726 201 17978776128060016014
13134695 92 17833255429216575342
13140716 1 18189336771424814403
13294875 104 18201421563881317538
13583140 156 16660913495573053105
13681431 1 17622164568260733447
14955137 171 15528556500738091544
15219456 202 18043258950708382619
15309172 13 18409452492123985289
15490181 7 18341609356025142346
16945 1 18189057645510163243
17134986 127 18410853248446922724
17357779 13 17697025200080465479
1813 80 17125363424873924870
18186145 218 18130797745505899472
18219364 16 18341344369501552689
18785283 64 18189901915605097490
20600515 1 8790885206973939526
20645477 56 18268156538072413880
21296965 67 9295287235710541501
21524375 3 18341890788025598318
21756936 100 16734690773795889564
2255824 54 18052533275454416519
23227448 37 18120660385742487956
23402539 116 17835798969269153910
23419403 2 17411390598824810879
23557571 272 17982185718682941124
23559900 14 17460328646312403351
238 59 18269827615209969799
25 1 18059864947620914688
2748010 2 18129392647060547098
3060560 45 18201432524078726540
350125 39 18409171016968381402
3729539 64 18050594866857315342
458136 41 18338809918048236443
495365 180 18193260906938765617
633830 44 17844827918063916201
6442390 28 18409740581540320347
7364860 26 18121495756712325931
7808743 9 18189900988309561908
81228 2 17836356425579316242
8272917 22 18055918693405060245
84936 182 18198339550778393097

>  <PUBCHEM_SHAPE_MULTIPOLES>  (1) 
382.07
6.62
3.43
1.34
0.12
3.34
0.23
-6.92
0.26
-0.04
0.04
-0.13
0.2
0.64

>  <PUBCHEM_SHAPE_SELFOVERLAP>  (1) 
791.183

>  <PUBCHEM_SHAPE_VOLUME>  (1) 
219

>  <PUBCHEM_COORDINATE_TYPE>  (1) 
2
5
10

$$$$
