10149
     RDKit          3D

 21 22  0  0  0  0  0  0  0  0999 V2000
    0.8751   -2.1784   -0.7415 O   0  0  0  0  0  0  0  0  0  0  0  0
    0.2876    3.2397    0.1500 O   0  0  0  0  0  0  0  0  0  0  0  0
   -4.2107   -1.4033   -0.1125 O   0  0  0  0  0  0  0  0  0  0  0  0
   -1.6845   -2.4023   -0.5195 O   0  0  0  0  0  0  0  0  0  0  0  0
   -2.2609    2.8390    0.3448 O   0  0  0  0  0  0  0  0  0  0  0  0
    3.3260   -0.9721    1.6550 O   0  0  0  0  0  0  0  0  0  0  0  0
    1.8025   -0.0135   -0.5024 C   0  0  0  0  0  0  0  0  0  0  0  0
   -0.5916   -0.3066   -0.3064 C   0  0  0  0  0  0  0  0  0  0  0  0
    1.6547    1.3541   -0.2774 C   0  0  0  0  0  0  0  0  0  0  0  0
   -0.7389    1.0639   -0.0808 C   0  0  0  0  0  0  0  0  0  0  0  0
    0.6826   -0.8458   -0.5175 C   0  0  0  0  0  0  0  0  0  0  0  0
    0.3865    1.8957   -0.0663 C   0  0  0  0  0  0  0  0  0  0  0  0
    3.1640   -0.5923   -0.7286 C   0  0  0  0  0  0  0  0  0  0  0  0
   -1.7702   -1.1956   -0.3246 C   0  0  0  0  0  0  0  0  0  0  0  0
   -2.0759    1.6451    0.1429 C   0  0  0  0  0  0  0  0  0  0  0  0
    2.8574    2.2447   -0.2607 C   0  0  0  0  0  0  0  0  0  0  0  0
   -3.1015   -0.5818   -0.0970 C   0  0  0  0  0  0  0  0  0  0  0  0
   -3.2346    0.7290    0.1179 C   0  0  0  0  0  0  0  0  0  0  0  0
    3.8587   -1.0391    0.5480 C   0  0  0  0  0  0  0  0  0  0  0  0
    5.2573   -1.5789    0.3944 C   0  0  0  0  0  0  0  0  0  0  0  0
   -4.4835   -1.9017    1.1824 C   0  0  0  0  0  0  0  0  0  0  0  0
  1 11  1  0
  2 12  1  0
  3 17  1  0
  3 21  1  0
  4 14  2  0
  5 15  2  0
  6 19  2  0
  7  9  2  0
  7 11  1  0
  7 13  1  0
  8 10  1  0
  8 11  2  0
  8 14  1  0
  9 12  1  0
  9 16  1  0
 10 12  2  0
 10 15  1  0
 13 19  1  0
 14 17  1  0
 15 18  1  0
 17 18  2  0
 19 20  1  0
M  END
>  <PUBCHEM_COMPOUND_CID>  (1) 
10149

>  <PUBCHEM_CONFORMER_RMSD>  (1) 
0.6

>  <PUBCHEM_CONFORMER_DIVERSEORDER>  (1) 
1
14
12
15
13
9
2
6
5
8
7
4
11
10
3

>  <PUBCHEM_MMFF94_PARTIAL_CHARGES>  (1) 
24
1 -0.53
10 0.09
11 0.08
12 0.08
13 0.2
14 0.47
15 0.47
16 0.14
17 0.09
18 -0.14
19 0.45
2 -0.53
20 0.06
21 0.28
27 0.15
28 0.45
29 0.45
3 -0.36
4 -0.57
5 -0.57
6 -0.57
7 -0.14
8 0.09
9 -0.14

>  <PUBCHEM_EFFECTIVE_ROTOR_COUNT>  (1) 
3

>  <PUBCHEM_PHARMACOPHORE_FEATURES>  (1) 
8
1 1 donor
1 2 donor
1 3 acceptor
1 4 acceptor
1 5 acceptor
1 6 acceptor
6 7 8 9 10 11 12 rings
6 8 10 14 15 17 18 rings

>  <PUBCHEM_HEAVY_ATOM_COUNT>  (1) 
21

>  <PUBCHEM_ATOM_DEF_STEREO_COUNT>  (1) 
0

>  <PUBCHEM_ATOM_UDEF_STEREO_COUNT>  (1) 
0

>  <PUBCHEM_BOND_DEF_STEREO_COUNT>  (1) 
0

>  <PUBCHEM_BOND_UDEF_STEREO_COUNT>  (1) 
0

>  <PUBCHEM_ISOTOPIC_ATOM_COUNT>  (1) 
0

>  <PUBCHEM_COMPONENT_COUNT>  (1) 
1

>  <PUBCHEM_CACTVS_TAUTO_COUNT>  (1) 
161

>  <PUBCHEM_CONFORMER_ID>  (1) 
000027A500000001

>  <PUBCHEM_MMFF94_ENERGY>  (1) 
68.6661

>  <PUBCHEM_FEATURE_SELFOVERLAP>  (1) 
40.624

>  <PUBCHEM_SHAPE_FINGERPRINT>  (1) 
10062212 137 18410008810547453887
10319926 262 18053924196983053834
10759866 29 18115879666372024900
10967382 1 18196938996376583285
11132069 177 18270120080707453172
11796584 16 17313096467168034219
12236239 1 17967820406203269230
12382932 28 18197777708894553944
12553582 1 18341898540547108519
12633257 1 18339370669141991001
12644460 14 18265342887352451696
13140716 1 18412546474810809344
13583140 156 17096659703305243065
14178342 30 18127701426183072729
14420673 8 17547003036588922842
14790565 3 17473838689164999173
15042514 8 18265901258786241682
15196674 1 18411140264095073005
15442244 35 18411136943985113412
16945 1 18196097646490203900
17492 89 18408887343047529866
17804303 29 18343018865907881028
1813 80 17459476555187778574
20028762 73 18129662036184936679
20510252 161 18201721717254073352
20739085 24 18266198251643712929
21033648 29 17416667095286758978
21041028 32 18411704304906844921
21267235 1 18410302414575534214
21421861 104 18263080083975160968
21501502 16 18411144648887722429
2297311 6 18270409291706436142
23184049 29 18411135852984383412
2334 1 18340487875818917540
23366157 5 18115309024137840764
23402539 116 18272076176549937063
23419403 2 14687726642916332757
23463225 33 18410011048362740604
23558518 356 18261403255950274537
23559900 14 18410004446876843096
25147074 1 18337408087804367140
2748010 2 18413670209953758717
312423 11 18261968408926077804
3286 77 18260548947930642326
335352 9 18411137996521204645
350125 39 18411705391317611332
352729 6 18269561537649447173
4409770 3 17463959164967114820
465052 167 18264499536628951867
5104073 3 18340494443055794953
58807428 26 18051980212193587363
7364860 26 18198062684449322716
90316 7 18044930182639600728

>  <PUBCHEM_SHAPE_MULTIPOLES>  (1) 
396.95
7.98
3.07
0.9
1.93
1.61
0.19
-5.14
2.18
-0.54
0.19
0.26
-0.34
-0.28

>  <PUBCHEM_SHAPE_SELFOVERLAP>  (1) 
863.468

>  <PUBCHEM_SHAPE_VOLUME>  (1) 
216.6

>  <PUBCHEM_COORDINATE_TYPE>  (1) 
2
5
10

$$$$
