10158
     RDKit          3D

 28 30  0  0  1  0  0  0  0  0999 V2000
    0.0818   -1.9747   -2.1012 O   0  0  0  0  0  0  0  0  0  0  0  0
    2.1414   -0.3846   -0.7171 O   0  0  0  0  0  0  0  0  0  0  0  0
   -0.3901   -1.4585    1.6153 O   0  0  0  0  0  0  0  0  0  0  0  0
   -2.0548    1.0563    1.0467 O   0  0  0  0  0  0  0  0  0  0  0  0
    2.8209    0.5654    1.2730 O   0  0  0  0  0  0  0  0  0  0  0  0
    1.6482   -1.4127    2.7018 O   0  0  0  0  0  0  0  0  0  0  0  0
   -3.1128    2.4881    2.4876 O   0  0  0  0  0  0  0  0  0  0  0  0
    0.9498   -2.4896   -1.0742 C   0  0  0  0  0  0  0  0  0  0  0  0
    1.3585   -1.3909   -0.0661 C   0  0  0  0  0  0  0  0  0  0  0  0
    0.1494   -0.6839    0.5495 C   0  0  0  0  0  0  0  0  0  0  0  0
   -0.9325   -0.4579   -0.4716 C   0  0  0  0  0  0  0  0  0  0  0  0
   -0.8998   -1.1027   -1.7127 C   0  0  0  0  0  0  0  0  0  0  0  0
    2.1851   -3.0279   -1.8184 C   0  0  0  0  0  0  0  0  0  0  0  0
    0.2541   -3.6848   -0.3989 C   0  0  0  0  0  0  0  0  0  0  0  0
   -2.0072    0.4088   -0.2113 C   0  0  0  0  0  0  0  0  0  0  0  0
   -1.8971   -0.8602   -2.6652 C   0  0  0  0  0  0  0  0  0  0  0  0
   -3.0131    0.6498   -1.1464 C   0  0  0  0  0  0  0  0  0  0  0  0
   -2.9512    0.0103   -2.3835 C   0  0  0  0  0  0  0  0  0  0  0  0
    2.5704    0.6316    0.0813 C   0  0  0  0  0  0  0  0  0  0  0  0
   -4.0932    1.5617   -0.8077 C   0  0  0  0  0  0  0  0  0  0  0  0
    0.4747   -1.7522    2.6319 C   0  0  0  0  0  0  0  0  0  0  0  0
   -3.0768    1.9318    1.3958 C   0  0  0  0  0  0  0  0  0  0  0  0
   -4.1223    2.1623    0.3840 C   0  0  0  0  0  0  0  0  0  0  0  0
    2.6592    1.8471   -0.7624 C   0  0  0  0  0  0  0  0  0  0  0  0
   -0.2268   -2.5664    3.6764 C   0  0  0  0  0  0  0  0  0  0  0  0
    3.4966    2.8796   -0.5562 C   0  0  0  0  0  0  0  0  0  0  0  0
    3.4785    4.0559   -1.4987 C   0  0  0  0  0  0  0  0  0  0  0  0
    4.5091    2.9981    0.5484 C   0  0  0  0  0  0  0  0  0  0  0  0
  1  8  1  0
  1 12  1  0
  2  9  1  0
  2 19  1  0
  3 10  1  0
  3 21  1  0
  4 15  1  0
  4 22  1  0
  5 19  2  0
  6 21  2  0
  7 22  2  0
  8  9  1  0
  8 13  1  0
  8 14  1  0
  9 10  1  0
 10 11  1  0
 11 12  2  0
 11 15  1  0
 12 16  1  0
 15 17  2  0
 16 18  2  0
 17 18  1  0
 17 20  1  0
 19 24  1  0
 20 23  2  0
 21 25  1  0
 22 23  1  0
 24 26  2  3
 26 27  1  0
 26 28  1  0
M  END
>  <PUBCHEM_COMPOUND_CID>  (1) 
10158

>  <PUBCHEM_CONFORMER_RMSD>  (1) 
0.8

>  <PUBCHEM_CONFORMER_DIVERSEORDER>  (1) 
2
29
36
37
17
20
18
26
10
33
19
14
28
6
27
22
15
4
11
35
38
32
31
24
23
16
12
7
30
1
25
13
21
9
34
3
8
5

>  <PUBCHEM_MMFF94_PARTIAL_CHARGES>  (1) 
31
1 -0.36
10 0.42
11 -0.14
12 0.08
15 0.08
16 -0.15
17 0.03
18 -0.15
19 0.71
2 -0.43
20 -0.18
21 0.66
22 0.71
23 -0.14
24 -0.14
25 0.06
26 -0.28
27 0.14
28 0.14
3 -0.43
37 0.15
38 0.15
39 0.15
4 -0.23
40 0.15
41 0.15
5 -0.57
6 -0.57
7 -0.57
8 0.28
9 0.28

>  <PUBCHEM_EFFECTIVE_ROTOR_COUNT>  (1) 
5.8

>  <PUBCHEM_PHARMACOPHORE_FEATURES>  (1) 
9
1 1 acceptor
1 5 acceptor
1 6 acceptor
1 7 acceptor
3 26 27 28 hydrophobe
3 8 13 14 hydrophobe
6 1 8 9 10 11 12 rings
6 11 12 15 16 17 18 rings
6 4 15 17 20 22 23 rings

>  <PUBCHEM_HEAVY_ATOM_COUNT>  (1) 
28

>  <PUBCHEM_ATOM_DEF_STEREO_COUNT>  (1) 
0

>  <PUBCHEM_ATOM_UDEF_STEREO_COUNT>  (1) 
2

>  <PUBCHEM_BOND_DEF_STEREO_COUNT>  (1) 
0

>  <PUBCHEM_BOND_UDEF_STEREO_COUNT>  (1) 
0

>  <PUBCHEM_ISOTOPIC_ATOM_COUNT>  (1) 
0

>  <PUBCHEM_COMPONENT_COUNT>  (1) 
1

>  <PUBCHEM_CACTVS_TAUTO_COUNT>  (1) 
1

>  <PUBCHEM_CONFORMER_ID>  (1) 
000027AE00000002

>  <PUBCHEM_MMFF94_ENERGY>  (1) 
94.8031

>  <PUBCHEM_FEATURE_SELFOVERLAP>  (1) 
45.732

>  <PUBCHEM_SHAPE_FINGERPRINT>  (1) 
10291535 26 17769650137965887064
11578080 2 16750514832703038452
11640471 11 18265873908672209196
12156800 1 13607267464517163731
12655364 131 17248312229080362760
12788726 201 17910662490820686838
13134695 92 17833846970672003207
13583140 156 17678727931056637429
13965767 371 17909796909003103912
14142880 1 17826786233421435900
14713325 29 18053103110208784614
14787075 74 17900534889723591847
15876981 60 16613009007017807488
1813 80 17619051851027525322
18336668 15 17056674777418215998
21304303 64 18125456215529948718
22149856 69 17344610558882281317
22907989 373 17766563830153460916
229495 10 17772503228489352707
23419403 2 17616870617668496138
23559900 14 17629186127647672191
266924 78 17557742154828181318
35225 105 17681261484302275226
394222 165 17971440049224741743
474 4 18411698759851001389
7288768 16 18115311210001868104
81228 2 17098933690856656939
9981440 41 18198337558361629176

>  <PUBCHEM_SHAPE_MULTIPOLES>  (1) 
535.14
6.66
4.57
3.12
1.36
0.24
1.86
9.82
-0.64
3.37
0.19
-1.29
-2.18
-1.22

>  <PUBCHEM_SHAPE_SELFOVERLAP>  (1) 
1150.674

>  <PUBCHEM_SHAPE_VOLUME>  (1) 
292.3

>  <PUBCHEM_COORDINATE_TYPE>  (1) 
2
5
10

$$$$
