10160
     RDKit          3D

 24 27  0  0  0  0  0  0  0  0999 V2000
    0.0365   -0.4850   -0.0001 N   0  0  0  0  0  0  0  0  0  0  0  0
   -0.7306    2.1358   -0.0006 N   0  0  0  0  0  0  0  0  0  0  0  0
    4.6768    0.7595    0.0014 N   0  0  0  0  0  0  0  0  0  0  0  0
   -5.3555    0.7431    0.0008 N   0  0  0  0  0  0  0  0  0  0  0  0
   -1.2769   -0.1974    0.0000 C   0  0  0  0  0  0  0  0  0  0  0  0
    0.9875    0.4653   -0.0003 C   0  0  0  0  0  0  0  0  0  0  0  0
   -1.6543    1.1575   -0.0004 C   0  0  0  0  0  0  0  0  0  0  0  0
    0.5748    1.8099   -0.0006 C   0  0  0  0  0  0  0  0  0  0  0  0
   -3.0155    1.4483   -0.0002 C   0  0  0  0  0  0  0  0  0  0  0  0
    0.4400   -1.8677   -0.0001 C   0  0  0  0  0  0  0  0  0  0  0  0
    2.3426    0.1173   -0.0001 C   0  0  0  0  0  0  0  0  0  0  0  0
   -2.2305   -1.2212    0.0005 C   0  0  0  0  0  0  0  0  0  0  0  0
    1.5644    2.7887   -0.0006 C   0  0  0  0  0  0  0  0  0  0  0  0
    2.9217    2.4521   -0.0004 C   0  0  0  0  0  0  0  0  0  0  0  0
    3.3107    1.1159   -0.0001 C   0  0  0  0  0  0  0  0  0  0  0  0
   -3.9770    0.4331    0.0001 C   0  0  0  0  0  0  0  0  0  0  0  0
   -3.5844   -0.9020    0.0005 C   0  0  0  0  0  0  0  0  0  0  0  0
   -3.4573    2.8817    0.0001 C   0  0  0  0  0  0  0  0  0  0  0  0
    0.6246   -2.5000   -1.2081 C   0  0  0  0  0  0  0  0  0  0  0  0
    0.6250   -2.4998    1.2080 C   0  0  0  0  0  0  0  0  0  0  0  0
    3.9348    3.5511    0.0006 C   0  0  0  0  0  0  0  0  0  0  0  0
    1.0155   -3.8390   -1.2081 C   0  0  0  0  0  0  0  0  0  0  0  0
    1.0160   -3.8388    1.2078 C   0  0  0  0  0  0  0  0  0  0  0  0
    1.2112   -4.5083   -0.0002 C   0  0  0  0  0  0  0  0  0  0  0  0
  1  5  2  0
  1  6  1  0
  1 10  1  0
  2  7  2  0
  2  8  1  0
  3 15  1  0
  4 16  1  0
  5  7  1  0
  5 12  1  0
  6  8  2  0
  6 11  1  0
  7  9  1  0
  8 13  1  0
  9 16  2  0
  9 18  1  0
 10 19  2  0
 10 20  1  0
 11 15  2  0
 12 17  2  0
 13 14  2  0
 14 15  1  0
 14 21  1  0
 16 17  1  0
 19 22  1  0
 20 23  2  0
 22 24  2  0
 23 24  1  0
M  CHG  1   1   1
M  END
>  <PUBCHEM_COMPOUND_CID>  (1) 
10160

>  <PUBCHEM_CONFORMER_RMSD>  (1) 
0.6

>  <PUBCHEM_CONFORMER_DIVERSEORDER>  (1) 
1

>  <PUBCHEM_MMFF94_PARTIAL_CHARGES>  (1) 
37
1 -0.08
10 0.36
11 -0.15
12 -0.15
13 -0.15
14 -0.14
15 0.1
16 0.1
17 -0.15
18 0.14
19 -0.15
2 -0.62
20 -0.15
21 0.14
22 -0.15
23 -0.15
24 -0.15
25 0.15
26 0.15
27 0.15
28 0.15
3 -0.9
32 0.15
33 0.15
37 0.15
38 0.15
39 0.4
4 -0.9
40 0.4
41 0.4
42 0.4
43 0.15
5 0.36
6 0.36
7 0.31
8 0.31
9 -0.14

>  <PUBCHEM_EFFECTIVE_ROTOR_COUNT>  (1) 
1

>  <PUBCHEM_PHARMACOPHORE_FEATURES>  (1) 
9
1 2 acceptor
1 3 cation
1 3 donor
1 4 cation
1 4 donor
6 1 2 5 6 7 8 rings
6 10 19 20 22 23 24 rings
6 5 7 9 12 16 17 rings
6 6 8 11 13 14 15 rings

>  <PUBCHEM_HEAVY_ATOM_COUNT>  (1) 
24

>  <PUBCHEM_ATOM_DEF_STEREO_COUNT>  (1) 
0

>  <PUBCHEM_ATOM_UDEF_STEREO_COUNT>  (1) 
0

>  <PUBCHEM_BOND_DEF_STEREO_COUNT>  (1) 
0

>  <PUBCHEM_BOND_UDEF_STEREO_COUNT>  (1) 
0

>  <PUBCHEM_ISOTOPIC_ATOM_COUNT>  (1) 
0

>  <PUBCHEM_COMPONENT_COUNT>  (1) 
1

>  <PUBCHEM_CACTVS_TAUTO_COUNT>  (1) 
5

>  <PUBCHEM_CONFORMER_ID>  (1) 
000027B000000001

>  <PUBCHEM_MMFF94_ENERGY>  (1) 
129.6694

>  <PUBCHEM_FEATURE_SELFOVERLAP>  (1) 
45.74

>  <PUBCHEM_SHAPE_FINGERPRINT>  (1) 
10319926 262 17695047192249145256
10411042 1 17689998934300556571
10967382 1 18410573942238753413
1100329 8 18337945805462545986
11421498 54 17703525336972337571
11578080 2 17025428877491428903
12173636 292 18338795748724702533
12553582 1 17402336971279210363
12592029 89 18409731746502182601
12788726 201 17616238626121164226
12839892 36 18338217315397763832
13140716 1 18410859875439523105
138480 1 18050286959870512290
14223421 5 18336831896967295401
14466204 15 18338508647831431568
14790565 3 18338521953276364081
14844126 61 17546435044184341648
14955137 171 17259088202935251369
15042514 8 17760933243781342994
15196674 1 18338799047322862945
15475509 35 16880781547974891665
15475509 8 16548355060361680893
16087824 20 17762338424734128447
16728300 4 17534591873771490850
16945 1 18338797801903484517
19591789 44 18338516447111712810
20028762 73 18200029702261940431
20101258 96 17475530373508051602
20510252 161 18198628919963243401
20567600 347 18334298673210468731
20642791 35 17908995305128579670
20775438 99 15898655327405071631
20905425 154 17908708332715212022
21421861 104 18265620875142876321
21524375 3 18340487867028113380
23184049 29 17761209916963660503
2334 1 18267022941098983845
23366157 5 18116721711763401087
23558518 356 17977097195611333758
23559900 14 18196084439375688392
2748010 2 18265066896964536261
283562 15 18268993262252739225
3091708 16 9116129512435164483
335352 9 18410574024476544444
352729 6 18264214784311943889
43471831 8 18409728452156680171
5104073 3 18337672043588437641
5265222 85 18337124465998188596
54173680 148 17473263652835113264
59755656 215 18335420124006070053
6138700 20 18267309738442332534
7364860 26 18340206263323995543
81228 2 17332227106012531491
9709674 26 17909555296134714988
9981440 41 18336823195131660265

>  <PUBCHEM_SHAPE_MULTIPOLES>  (1) 
473.98
6.96
5.62
0.86
3.85
4.95
0
-6.87
0
-4.09
0
-0.2
0.81
0

>  <PUBCHEM_SHAPE_SELFOVERLAP>  (1) 
1074.267

>  <PUBCHEM_SHAPE_VOLUME>  (1) 
247.6

>  <PUBCHEM_COORDINATE_TYPE>  (1) 
2
5
10

$$$$
