10164
     RDKit          3D

 26 30  0  0  1  0  0  0  0  0999 V2000
   -0.1859    1.3156   -1.4919 O   0  0  0  0  0  0  0  0  0  0  0  0
   -5.0194    1.9167    0.8070 O   0  0  0  0  0  0  0  0  0  0  0  0
   -6.1596    0.0549   -0.2112 O   0  0  0  0  0  0  0  0  0  0  0  0
    4.3510   -1.5031    0.2882 O   0  0  0  0  0  0  0  0  0  0  0  0
    5.8234    0.8206    0.1579 O   0  0  0  0  0  0  0  0  0  0  0  0
    0.1201   -1.3763   -0.3048 N   0  0  0  0  0  0  0  0  0  0  0  0
   -0.5395   -0.2323    0.3732 C   0  0  0  0  0  0  0  0  0  0  0  0
    0.1614    1.0600   -0.1289 C   0  0  0  0  0  0  0  0  0  0  0  0
   -2.0560   -0.1880    0.1855 C   0  0  0  0  0  0  0  0  0  0  0  0
   -0.6247   -2.6231   -0.1156 C   0  0  0  0  0  0  0  0  0  0  0  0
    1.5055   -1.5276    0.1742 C   0  0  0  0  0  0  0  0  0  0  0  0
   -1.9750   -2.5141   -0.8187 C   0  0  0  0  0  0  0  0  0  0  0  0
   -2.7420   -1.2978   -0.3734 C   0  0  0  0  0  0  0  0  0  0  0  0
    1.6682    0.9892   -0.0364 C   0  0  0  0  0  0  0  0  0  0  0  0
    2.3113   -0.2547    0.0744 C   0  0  0  0  0  0  0  0  0  0  0  0
   -2.7964    0.9246    0.6259 C   0  0  0  0  0  0  0  0  0  0  0  0
   -4.1352   -1.2641   -0.5500 C   0  0  0  0  0  0  0  0  0  0  0  0
    3.7099   -0.3059    0.1494 C   0  0  0  0  0  0  0  0  0  0  0  0
    2.4352    2.1610   -0.1015 C   0  0  0  0  0  0  0  0  0  0  0  0
   -4.1654    0.9190    0.4487 C   0  0  0  0  0  0  0  0  0  0  0  0
   -4.8161   -0.1429   -0.1285 C   0  0  0  0  0  0  0  0  0  0  0  0
    4.4634    0.8660    0.0900 C   0  0  0  0  0  0  0  0  0  0  0  0
    3.8268    2.0982   -0.0376 C   0  0  0  0  0  0  0  0  0  0  0  0
   -6.2815    1.3640    0.3813 C   0  0  0  0  0  0  0  0  0  0  0  0
    4.5905   -1.9565    1.6177 C   0  0  0  0  0  0  0  0  0  0  0  0
    6.5299    0.6964   -1.0747 C   0  0  0  0  0  0  0  0  0  0  0  0
  1  8  1  0
  2 20  1  0
  2 24  1  0
  3 21  1  0
  3 24  1  0
  4 18  1  0
  4 25  1  0
  5 22  1  0
  5 26  1  0
  6  7  1  0
  6 10  1  0
  6 11  1  0
  7  8  1  0
  7  9  1  0
  8 14  1  0
  9 13  2  0
  9 16  1  0
 10 12  1  0
 11 15  1  0
 12 13  1  0
 13 17  1  0
 14 15  2  0
 14 19  1  0
 15 18  1  0
 16 20  2  0
 17 21  2  0
 18 22  2  0
 19 23  2  0
 20 21  1  0
 22 23  1  0
M  END
>  <PUBCHEM_COMPOUND_CID>  (1) 
10164

>  <PUBCHEM_CONFORMER_RMSD>  (1) 
0.8

>  <PUBCHEM_CONFORMER_DIVERSEORDER>  (1) 
1
4
8
3
7
6
2
5

>  <PUBCHEM_MMFF94_PARTIAL_CHARGES>  (1) 
31
1 -0.68
10 0.27
11 0.41
12 0.14
13 -0.14
14 -0.14
15 -0.14
16 -0.15
17 -0.15
18 0.08
19 -0.15
2 -0.36
20 0.08
21 0.08
22 0.08
23 -0.15
24 0.56
25 0.28
26 0.28
3 -0.36
35 0.15
36 0.15
37 0.15
38 0.4
39 0.15
4 -0.36
5 -0.36
6 -0.81
7 0.41
8 0.42
9 -0.14

>  <PUBCHEM_EFFECTIVE_ROTOR_COUNT>  (1) 
3.4

>  <PUBCHEM_PHARMACOPHORE_FEATURES>  (1) 
12
1 1 acceptor
1 1 donor
1 2 acceptor
1 3 acceptor
1 4 acceptor
1 5 acceptor
1 6 cation
5 2 3 20 21 24 rings
6 14 15 18 19 22 23 rings
6 6 7 8 11 14 15 rings
6 6 7 9 10 12 13 rings
6 9 13 16 17 20 21 rings

>  <PUBCHEM_HEAVY_ATOM_COUNT>  (1) 
26

>  <PUBCHEM_ATOM_DEF_STEREO_COUNT>  (1) 
0

>  <PUBCHEM_ATOM_UDEF_STEREO_COUNT>  (1) 
2

>  <PUBCHEM_BOND_DEF_STEREO_COUNT>  (1) 
0

>  <PUBCHEM_BOND_UDEF_STEREO_COUNT>  (1) 
0

>  <PUBCHEM_ISOTOPIC_ATOM_COUNT>  (1) 
0

>  <PUBCHEM_COMPONENT_COUNT>  (1) 
1

>  <PUBCHEM_CACTVS_TAUTO_COUNT>  (1) 
1

>  <PUBCHEM_CONFORMER_ID>  (1) 
000027B400000001

>  <PUBCHEM_MMFF94_ENERGY>  (1) 
96.2331

>  <PUBCHEM_FEATURE_SELFOVERLAP>  (1) 
61.123

>  <PUBCHEM_SHAPE_FINGERPRINT>  (1) 
10 15 18335430045807285241
10411042 1 17618505385005975230
10595046 47 18339920545035420127
10906281 52 18335152994172447070
11315181 36 17131842005451447000
11578080 2 17344612971634822616
12107183 9 17979355265813430128
12236239 1 18409727353214842643
12422481 6 18189893124023190301
12633257 1 18411694361904599894
12788726 201 17917437484081953768
13140716 1 18408600387671138842
13533116 47 17703510991602531742
13583140 156 18041571328860547851
13785724 45 17907015071908587674
14251764 18 18408602573830272947
14739800 52 17844513599767972352
14790565 3 18410295808720446205
14840074 17 18113621183372741405
15183329 4 18413669106410589133
15196674 1 18411699911160673259
15475509 8 18341347608513373404
1577012 14 18341891879500887137
1601671 61 18410573985441725012
17349148 13 18060416923711192647
1813 80 17022902350158029724
18681886 176 18131064982602642672
19141452 34 18409727395710932430
20511986 3 18341314665444156728
20739085 24 18186241714479175628
21133410 171 16974991277635579550
21267235 1 18339931535688269823
21304253 335 18336269019448245357
21421861 104 17895740834749044866
21703447 108 17268327828128544579
23402539 116 18059571421266781901
23522609 53 18189641404876254244
23559900 14 17988923422483892312
25147074 1 18338784693568579022
3004659 81 18413390921663540378
335352 9 18411983568323395756
345986 75 17971734602761881136
34797466 226 16916790733418839288
34934 24 18409164454906582322
350125 39 18410292488705691972
3545911 37 18342741831653229785
3680242 22 18337670806764183706
4017518 198 17561087995420604358
404807 14 16478843973486980102
4073 2 18041284382164190698
4214541 1 18341613758614222165
474 4 18187367670510782097
5104073 3 18409163342014369635
543358 83 18409166632418065098
59755656 215 18201728331862405540
6328613 192 18336835302898103604
7226269 152 17775290456422050769
7495541 125 12396301482280031526

>  <PUBCHEM_SHAPE_MULTIPOLES>  (1) 
500.74
14.26
2.5
0.93
0.88
0.75
0.03
-4.73
0.59
-0.22
0.03
-0.47
0.13
-1.72

>  <PUBCHEM_SHAPE_SELFOVERLAP>  (1) 
1115.951

>  <PUBCHEM_SHAPE_VOLUME>  (1) 
266.2

>  <PUBCHEM_COORDINATE_TYPE>  (1) 
2
5
10

$$$$
