10169
     RDKit          3D

 22 24  0  0  0  0  0  0  0  0999 V2000
   -0.4419    2.3805   -0.0275 O   0  0  0  0  0  0  0  0  0  0  0  0
    0.8702   -2.7990    0.0083 O   0  0  0  0  0  0  0  0  0  0  0  0
   -1.5859   -3.5282    0.0013 O   0  0  0  0  0  0  0  0  0  0  0  0
    3.3694   -2.2366    0.0186 O   0  0  0  0  0  0  0  0  0  0  0  0
    4.5649    2.3472   -0.0016 O   0  0  0  0  0  0  0  0  0  0  0  0
   -3.2172    2.3830    1.2160 O   0  0  0  0  0  0  0  0  0  0  0  0
   -3.2682    2.5550   -1.0499 O   0  0  0  0  0  0  0  0  0  0  0  0
   -1.2116    0.1409   -0.0183 C   0  0  0  0  0  0  0  0  0  0  0  0
   -0.8594   -1.2104   -0.0086 C   0  0  0  0  0  0  0  0  0  0  0  0
    1.6043   -0.5682    0.0003 C   0  0  0  0  0  0  0  0  0  0  0  0
    1.2521    0.7830   -0.0094 C   0  0  0  0  0  0  0  0  0  0  0  0
   -0.1687    1.1870   -0.0191 C   0  0  0  0  0  0  0  0  0  0  0  0
    0.5614   -1.6143    0.0012 C   0  0  0  0  0  0  0  0  0  0  0  0
   -2.5619    0.5105   -0.0275 C   0  0  0  0  0  0  0  0  0  0  0  0
   -1.8576   -2.1921   -0.0080 C   0  0  0  0  0  0  0  0  0  0  0  0
    2.9547   -0.9378    0.0094 C   0  0  0  0  0  0  0  0  0  0  0  0
    2.2503    1.7648   -0.0102 C   0  0  0  0  0  0  0  0  0  0  0  0
   -3.5535   -0.4710   -0.0270 C   0  0  0  0  0  0  0  0  0  0  0  0
   -3.2021   -1.8194   -0.0173 C   0  0  0  0  0  0  0  0  0  0  0  0
    3.5948    1.3922   -0.0012 C   0  0  0  0  0  0  0  0  0  0  0  0
    3.9463    0.0438    0.0085 C   0  0  0  0  0  0  0  0  0  0  0  0
   -3.0403    1.8889   -0.0381 C   0  0  0  0  0  0  0  0  0  0  0  0
  1 12  2  0
  2 13  2  0
  3 15  1  0
  4 16  1  0
  5 20  1  0
  6 22  1  0
  7 22  2  0
  8  9  2  0
  8 12  1  0
  8 14  1  0
  9 13  1  0
  9 15  1  0
 10 11  2  0
 10 13  1  0
 10 16  1  0
 11 12  1  0
 11 17  1  0
 14 18  2  0
 14 22  1  0
 15 19  2  0
 16 21  2  0
 17 20  2  0
 18 19  1  0
 20 21  1  0
M  END
>  <PUBCHEM_COMPOUND_CID>  (1) 
10169

>  <PUBCHEM_CONFORMER_RMSD>  (1) 
0.6

>  <PUBCHEM_CONFORMER_DIVERSEORDER>  (1) 
1

>  <PUBCHEM_MMFF94_PARTIAL_CHARGES>  (1) 
30
1 -0.57
10 0.09
11 0.09
12 0.4
13 0.4
14 0.09
15 0.08
16 0.08
17 -0.15
18 -0.15
19 -0.15
2 -0.57
20 0.08
21 -0.15
22 0.63
23 0.15
24 0.15
25 0.15
26 0.15
27 0.45
28 0.45
29 0.45
3 -0.53
30 0.5
4 -0.53
5 -0.53
6 -0.65
7 -0.57
8 0.09
9 0.09

>  <PUBCHEM_EFFECTIVE_ROTOR_COUNT>  (1) 
1

>  <PUBCHEM_PHARMACOPHORE_FEATURES>  (1) 
11
1 1 acceptor
1 2 acceptor
1 3 donor
1 4 donor
1 5 donor
1 6 acceptor
1 7 acceptor
3 6 7 22 anion
6 10 11 16 17 20 21 rings
6 8 9 10 11 12 13 rings
6 8 9 14 15 18 19 rings

>  <PUBCHEM_HEAVY_ATOM_COUNT>  (1) 
22

>  <PUBCHEM_ATOM_DEF_STEREO_COUNT>  (1) 
0

>  <PUBCHEM_ATOM_UDEF_STEREO_COUNT>  (1) 
0

>  <PUBCHEM_BOND_DEF_STEREO_COUNT>  (1) 
0

>  <PUBCHEM_BOND_UDEF_STEREO_COUNT>  (1) 
0

>  <PUBCHEM_ISOTOPIC_ATOM_COUNT>  (1) 
0

>  <PUBCHEM_COMPONENT_COUNT>  (1) 
1

>  <PUBCHEM_CACTVS_TAUTO_COUNT>  (1) 
69

>  <PUBCHEM_CONFORMER_ID>  (1) 
000027B900000001

>  <PUBCHEM_MMFF94_ENERGY>  (1) 
76.8278

>  <PUBCHEM_FEATURE_SELFOVERLAP>  (1) 
55.922

>  <PUBCHEM_SHAPE_FINGERPRINT>  (1) 
10319926 262 18126544934321849632
10411042 1 16897365915659375810
10493431 412 18341342115145096337
10608611 8 18410854369322558684
10616163 171 18339082721470178038
10863032 1 18412263930460555604
10967382 1 18410573980867052846
1100329 8 17259061792458427656
12173636 292 18410290332737098189
12390115 104 18270983308952133848
12403260 363 18339629066959064431
12553582 1 17978505661168816123
12633257 1 18194398896882933120
13140716 1 18337958878636197731
13583140 156 16805878498699791505
138480 1 17257652214652647479
14081887 123 18127961112816999840
14178342 30 18337659936555209816
14223421 5 18339641273229200240
14790565 3 18052548676970406481
15196674 1 18410573989451693198
15442244 35 18410291368119920554
15536298 74 18342177786857551462
16945 1 18194401078488909998
17492 89 18409729569028558146
18186145 218 18269843029663238364
19591789 44 18337956692640515403
20510252 161 18342178911848852465
20905425 154 18341335612105472774
21267235 1 18410583902495188386
21279426 13 18341056233948080356
21501502 16 18411698776972568650
2334 1 18410855494498462670
23366157 5 18113337510106160082
23402539 116 18125714840605274758
23558518 356 18260553350277655179
23559900 14 18271525283155362102
238 59 17323195296848503309
2748010 2 18411140246551116022
335352 9 18194401078752816934
34934 24 18266734856193900510
350125 39 18410580552710347761
352729 6 18269275668582952363
474 4 18053383189516276833
5104073 3 18410009936224642072
58051976 378 18267866262485966356
7097593 13 17825651267203005178
9709674 26 18413393154841150486

>  <PUBCHEM_SHAPE_MULTIPOLES>  (1) 
411.66
7.17
3.54
0.68
3.61
0.76
-0.02
-2.5
-0.02
-1.41
0
-0.29
-0.24
-0.03

>  <PUBCHEM_SHAPE_SELFOVERLAP>  (1) 
938.978

>  <PUBCHEM_SHAPE_VOLUME>  (1) 
211.5

>  <PUBCHEM_COORDINATE_TYPE>  (1) 
2
5
10

$$$$
