10166
     RDKit          3D

 20 22  0  0  1  0  0  0  0  0999 V2000
   -3.4644   -0.9971    0.1750 O   0  0  0  0  0  0  0  0  0  0  0  0
    0.5947   -2.1480   -0.6279 O   0  0  0  0  0  0  0  0  0  0  0  0
   -0.4848    2.9935    0.2863 O   0  0  0  0  0  0  0  0  0  0  0  0
    3.1095   -1.7490   -0.4554 O   0  0  0  0  0  0  0  0  0  0  0  0
   -2.7311    1.2812    0.1486 C   0  0  0  0  0  0  0  0  0  0  0  0
   -3.6843    0.2564   -0.4677 C   0  0  0  0  0  0  0  0  0  0  0  0
   -2.1684   -1.5602   -0.1061 C   0  0  0  0  0  0  0  0  0  0  0  0
   -1.3131    0.7824    0.0792 C   0  0  0  0  0  0  0  0  0  0  0  0
   -1.0529   -0.5263   -0.0775 C   0  0  0  0  0  0  0  0  0  0  0  0
    0.3448   -0.9919   -0.3061 C   0  0  0  0  0  0  0  0  0  0  0  0
   -0.2337    1.8019    0.1474 C   0  0  0  0  0  0  0  0  0  0  0  0
    1.4381   -0.0138   -0.1593 C   0  0  0  0  0  0  0  0  0  0  0  0
    1.1596    1.3339    0.0586 C   0  0  0  0  0  0  0  0  0  0  0  0
   -5.1369    0.6536   -0.2479 C   0  0  0  0  0  0  0  0  0  0  0  0
   -1.9905   -2.6611    0.9403 C   0  0  0  0  0  0  0  0  0  0  0  0
    2.7675   -0.4447   -0.2512 C   0  0  0  0  0  0  0  0  0  0  0  0
    2.2080    2.2535    0.1859 C   0  0  0  0  0  0  0  0  0  0  0  0
    3.8103    0.4731   -0.1222 C   0  0  0  0  0  0  0  0  0  0  0  0
    3.5309    1.8203    0.0962 C   0  0  0  0  0  0  0  0  0  0  0  0
    3.2969   -2.5576    0.7037 C   0  0  0  0  0  0  0  0  0  0  0  0
  1  6  1  0
  1  7  1  0
  2 10  2  0
  3 11  2  0
  4 16  1  0
  4 20  1  0
  5  6  1  0
  5  8  1  0
  6 14  1  0
  7  9  1  0
  7 15  1  0
  8  9  2  0
  8 11  1  0
  9 10  1  0
 10 12  1  0
 11 13  1  0
 12 13  2  0
 12 16  1  0
 13 17  1  0
 16 18  2  0
 17 19  2  0
 18 19  1  0
M  END
>  <PUBCHEM_COMPOUND_CID>  (1) 
10166

>  <PUBCHEM_CONFORMER_RMSD>  (1) 
0.6

>  <PUBCHEM_CONFORMER_DIVERSEORDER>  (1) 
1
2

>  <PUBCHEM_MMFF94_PARTIAL_CHARGES>  (1) 
21
1 -0.56
10 0.47
11 0.47
12 0.09
13 0.09
16 0.08
17 -0.15
18 -0.15
19 -0.15
2 -0.57
20 0.28
3 -0.57
31 0.15
32 0.15
33 0.15
4 -0.36
5 0.14
6 0.28
7 0.42
8 -0.12
9 -0.12

>  <PUBCHEM_EFFECTIVE_ROTOR_COUNT>  (1) 
1.8

>  <PUBCHEM_PHARMACOPHORE_FEATURES>  (1) 
7
1 1 acceptor
1 2 acceptor
1 3 acceptor
1 4 acceptor
6 1 5 6 7 8 9 rings
6 12 13 16 17 18 19 rings
6 8 9 10 11 12 13 rings

>  <PUBCHEM_HEAVY_ATOM_COUNT>  (1) 
20

>  <PUBCHEM_ATOM_DEF_STEREO_COUNT>  (1) 
2

>  <PUBCHEM_ATOM_UDEF_STEREO_COUNT>  (1) 
0

>  <PUBCHEM_BOND_DEF_STEREO_COUNT>  (1) 
0

>  <PUBCHEM_BOND_UDEF_STEREO_COUNT>  (1) 
0

>  <PUBCHEM_ISOTOPIC_ATOM_COUNT>  (1) 
0

>  <PUBCHEM_COMPONENT_COUNT>  (1) 
1

>  <PUBCHEM_CACTVS_TAUTO_COUNT>  (1) 
3

>  <PUBCHEM_CONFORMER_ID>  (1) 
000027B600000001

>  <PUBCHEM_MMFF94_ENERGY>  (1) 
61.8795

>  <PUBCHEM_FEATURE_SELFOVERLAP>  (1) 
35.577

>  <PUBCHEM_SHAPE_FINGERPRINT>  (1) 
10062212 137 18201710744029421903
10411042 1 18051694343771865870
10608611 8 18338515343289384485
10616163 171 18339082721232853150
10759866 29 18187654626029163092
10863032 1 18410857697811410769
10967382 1 18411982472589919612
1100329 8 17113538112860366411
11132069 177 18411133679620194297
11471102 20 18412542102533679757
11578080 2 13986105166119134708
11680986 33 18410860979461869522
116883 192 18199191685211335236
12011746 2 18413112745047776580
12553582 1 18267880388591172146
12788726 201 18059583429462936145
13140716 1 18411985753839432506
13380535 76 18411699902644442367
14115302 16 18186814564242485071
14178342 30 17766821090099015370
14223421 5 18337393867256905018
14790565 3 18267592299887760233
15196674 1 18411699898460127935
15219456 202 18410014381309992723
15375358 24 18411416254134698521
15442244 35 18339643313533844704
15536298 74 18344146994728787468
16945 1 18196944279096472068
17492 89 18411980290736964743
18186145 218 17967808336648640223
19591789 44 18193276295627433985
200 152 17846776330399479909
20645477 70 18343584040316914415
21267235 1 18340496581501218662
21421861 104 18041549248855633370
21501502 16 18269280071135797616
221490 88 18337399330518764914
23184049 29 18338516322937397914
2334 1 18340490091916124812
23402539 116 18201711907638544068
23463225 33 18411419505446073132
23559900 14 18411134728019332970
2748010 2 18341056331777636676
335352 9 18195529186125169661
34934 24 18340762736550864150
350125 39 18265617567744050124
495365 180 17703213109412803368
5104073 3 18411421713481335211
59755656 215 18410576176365520172
7364860 26 18413669106695386702
8809292 202 18335707130462586883
9709674 26 18411141376127885143

>  <PUBCHEM_SHAPE_MULTIPOLES>  (1) 
388.11
7.43
3.06
0.73
3.46
0.51
0.04
-0.11
-0.27
-1.21
0.58
0.01
0.2
0.22

>  <PUBCHEM_SHAPE_SELFOVERLAP>  (1) 
850.299

>  <PUBCHEM_SHAPE_VOLUME>  (1) 
209.3

>  <PUBCHEM_COORDINATE_TYPE>  (1) 
2
5
10

$$$$
