10161
     RDKit          3D

 24 27  0  0  0  0  0  0  0  0999 V2000
   -0.0008    2.4186   -0.0004 N   0  0  0  0  0  0  0  0  0  0  0  0
   -4.7952    2.5348    0.0012 N   0  0  0  0  0  0  0  0  0  0  0  0
    4.7934    2.5375   -0.0004 N   0  0  0  0  0  0  0  0  0  0  0  0
   -0.0001   -0.3516    0.0001 C   0  0  0  0  0  0  0  0  0  0  0  0
   -1.2149    0.3413    0.0000 C   0  0  0  0  0  0  0  0  0  0  0  0
    1.2144    0.3420    0.0000 C   0  0  0  0  0  0  0  0  0  0  0  0
   -1.1677    1.7457   -0.0003 C   0  0  0  0  0  0  0  0  0  0  0  0
    1.1665    1.7463   -0.0002 C   0  0  0  0  0  0  0  0  0  0  0  0
    0.0004   -1.8127    0.0002 C   0  0  0  0  0  0  0  0  0  0  0  0
   -2.4501   -0.3299    0.0003 C   0  0  0  0  0  0  0  0  0  0  0  0
    2.4499   -0.3287    0.0003 C   0  0  0  0  0  0  0  0  0  0  0  0
   -3.6418    0.3889    0.0002 C   0  0  0  0  0  0  0  0  0  0  0  0
    3.6412    0.3908    0.0004 C   0  0  0  0  0  0  0  0  0  0  0  0
   -2.3739    2.4412   -0.0003 C   0  0  0  0  0  0  0  0  0  0  0  0
    2.3723    2.4424   -0.0003 C   0  0  0  0  0  0  0  0  0  0  0  0
   -3.6032    1.7773   -0.0001 C   0  0  0  0  0  0  0  0  0  0  0  0
    3.6019    1.7792    0.0001 C   0  0  0  0  0  0  0  0  0  0  0  0
    0.0008   -2.4959   -1.2080 C   0  0  0  0  0  0  0  0  0  0  0  0
    0.0013   -2.4961    1.2081 C   0  0  0  0  0  0  0  0  0  0  0  0
   -4.9388   -0.3517   -0.0005 C   0  0  0  0  0  0  0  0  0  0  0  0
    4.9384   -0.3492    0.0005 C   0  0  0  0  0  0  0  0  0  0  0  0
    0.0016   -3.8907   -1.2082 C   0  0  0  0  0  0  0  0  0  0  0  0
    0.0022   -3.8910    1.2078 C   0  0  0  0  0  0  0  0  0  0  0  0
    0.0023   -4.5883   -0.0003 C   0  0  0  0  0  0  0  0  0  0  0  0
  1  7  2  0
  1  8  1  0
  2 16  1  0
  3 17  1  0
  4  5  2  0
  4  6  1  0
  4  9  1  0
  5  7  1  0
  5 10  1  0
  6  8  2  0
  6 11  1  0
  7 14  1  0
  8 15  1  0
  9 18  2  0
  9 19  1  0
 10 12  2  0
 11 13  2  0
 12 16  1  0
 12 20  1  0
 13 17  1  0
 13 21  1  0
 14 16  2  0
 15 17  2  0
 18 22  1  0
 19 23  2  0
 22 24  2  0
 23 24  1  0
M  END
>  <PUBCHEM_COMPOUND_CID>  (1) 
10161

>  <PUBCHEM_CONFORMER_RMSD>  (1) 
0.6

>  <PUBCHEM_CONFORMER_DIVERSEORDER>  (1) 
1

>  <PUBCHEM_MMFF94_PARTIAL_CHARGES>  (1) 
33
1 -0.62
10 -0.15
11 -0.15
12 -0.14
13 -0.14
14 -0.15
15 -0.15
16 0.1
17 0.1
18 -0.15
19 -0.15
2 -0.9
20 0.14
21 0.14
22 -0.15
23 -0.15
24 -0.15
25 0.15
26 0.15
27 0.15
28 0.15
29 0.15
3 -0.9
30 0.15
37 0.15
38 0.15
39 0.4
40 0.4
41 0.4
42 0.4
43 0.15
7 0.31
8 0.31

>  <PUBCHEM_EFFECTIVE_ROTOR_COUNT>  (1) 
1

>  <PUBCHEM_PHARMACOPHORE_FEATURES>  (1) 
9
1 1 acceptor
1 2 cation
1 2 donor
1 3 cation
1 3 donor
6 1 4 5 6 7 8 rings
6 5 7 10 12 14 16 rings
6 6 8 11 13 15 17 rings
6 9 18 19 22 23 24 rings

>  <PUBCHEM_HEAVY_ATOM_COUNT>  (1) 
24

>  <PUBCHEM_ATOM_DEF_STEREO_COUNT>  (1) 
0

>  <PUBCHEM_ATOM_UDEF_STEREO_COUNT>  (1) 
0

>  <PUBCHEM_BOND_DEF_STEREO_COUNT>  (1) 
0

>  <PUBCHEM_BOND_UDEF_STEREO_COUNT>  (1) 
0

>  <PUBCHEM_ISOTOPIC_ATOM_COUNT>  (1) 
0

>  <PUBCHEM_COMPONENT_COUNT>  (1) 
1

>  <PUBCHEM_CACTVS_TAUTO_COUNT>  (1) 
10

>  <PUBCHEM_CONFORMER_ID>  (1) 
000027B100000001

>  <PUBCHEM_MMFF94_ENERGY>  (1) 
109.6899

>  <PUBCHEM_FEATURE_SELFOVERLAP>  (1) 
45.732

>  <PUBCHEM_SHAPE_FINGERPRINT>  (1) 
10319926 262 17982993834381800136
10967382 1 18194683665888660484
1100329 8 18266173027147478008
11421498 54 17560532720356800083
12035759 4 18056167307513156535
12592029 89 18336829667277934561
12788726 201 17976245061062210762
12839892 36 18265597819399644235
13140716 1 18411137991672725969
138480 1 17762336911923581315
14790565 3 18410578387493748037
14866123 147 18338508738004846914
14955137 171 18049148978849031242
15042514 8 18049445043333390467
15196674 1 18410855464423830661
15927050 60 18410856590348996406
16087824 20 18050568740882651735
16728300 4 17390201764765548218
19591789 44 18410572885639855843
20028762 73 18272647991474574143
20101258 96 17472709494869618648
20197701 30 18410567392376651782
20567600 347 18334863775079739771
20739085 24 18190767278496276137
20775438 99 16618663846912152447
20905425 154 17548419202847537614
21033648 29 18342730857907002232
21421861 104 17976264530317463409
21478907 32 17762898075229084527
21524375 3 18410855464423174566
23366157 5 17901115113687012727
23558518 356 17466784201143932616
23559900 14 18051124796610917107
3091708 16 9120350541974613419
335352 9 18410573955814934076
3383291 50 18410572847856556522
34934 24 18265048227443593424
38695281 34 18343017749163948671
43471831 8 18337670797999831083
474229 33 18410293648789512339
5104073 3 18410293609734602017
54173680 148 17905609152606561888
59755656 215 18191024491592836213
6138700 20 18123474882755409438
633830 44 18343300327583394205
7364860 26 18051975822800417943
81228 2 17761755656982873555
9709674 26 18198065983358447308
9981440 41 18408319982478629169

>  <PUBCHEM_SHAPE_MULTIPOLES>  (1) 
478.97
7.7
5.19
0.86
0.01
6.1
0
-7.28
0
-0.01
0
0
0.81
0

>  <PUBCHEM_SHAPE_SELFOVERLAP>  (1) 
1086.261

>  <PUBCHEM_SHAPE_VOLUME>  (1) 
250.6

>  <PUBCHEM_COORDINATE_TYPE>  (1) 
2
5
10

$$$$
