10176
     RDKit          3D

 20 24  0  0  0  0  0  0  0  0999 V2000
   -1.2967   -1.1421   -0.0001 C   0  0  0  0  0  0  0  0  0  0  0  0
   -2.0910   -0.0268    0.0000 C   0  0  0  0  0  0  0  0  0  0  0  0
   -2.1450   -2.3889    0.0000 C   0  0  0  0  0  0  0  0  0  0  0  0
   -3.6005   -1.8538   -0.0008 C   0  0  0  0  0  0  0  0  0  0  0  0
   -3.4193   -0.3673    0.0001 C   0  0  0  0  0  0  0  0  0  0  0  0
    0.0964   -1.0044    0.0000 C   0  0  0  0  0  0  0  0  0  0  0  0
   -1.6144    1.2775    0.0002 C   0  0  0  0  0  0  0  0  0  0  0  0
    0.6760    0.3037    0.0000 C   0  0  0  0  0  0  0  0  0  0  0  0
   -0.2131    1.4251    0.0000 C   0  0  0  0  0  0  0  0  0  0  0  0
    2.1108    0.4280   -0.0001 C   0  0  0  0  0  0  0  0  0  0  0  0
   -4.3772    0.6322    0.0001 C   0  0  0  0  0  0  0  0  0  0  0  0
    0.9238   -2.1331    0.0002 C   0  0  0  0  0  0  0  0  0  0  0  0
   -2.5853    2.2977    0.0002 C   0  0  0  0  0  0  0  0  0  0  0  0
    2.9115   -0.7447    0.0002 C   0  0  0  0  0  0  0  0  0  0  0  0
   -3.9542    1.9699    0.0003 C   0  0  0  0  0  0  0  0  0  0  0  0
    2.3081   -2.0039    0.0004 C   0  0  0  0  0  0  0  0  0  0  0  0
    2.8028    1.6658   -0.0004 C   0  0  0  0  0  0  0  0  0  0  0  0
    4.3141   -0.6552    0.0002 C   0  0  0  0  0  0  0  0  0  0  0  0
    4.1986    1.7409   -0.0004 C   0  0  0  0  0  0  0  0  0  0  0  0
    4.9546    0.5796    0.0000 C   0  0  0  0  0  0  0  0  0  0  0  0
  1  2  2  0
  1  3  1  0
  1  6  1  0
  2  5  1  0
  2  7  1  0
  3  4  1  0
  4  5  1  0
  5 11  2  0
  6  8  2  0
  6 12  1  0
  7  9  2  0
  7 13  1  0
  8  9  1  0
  8 10  1  0
 10 14  2  0
 10 17  1  0
 11 15  1  0
 12 16  2  0
 13 15  2  0
 14 16  1  0
 14 18  1  0
 17 19  2  0
 18 20  2  0
 19 20  1  0
M  END
>  <PUBCHEM_COMPOUND_CID>  (1) 
10176

>  <PUBCHEM_CONFORMER_RMSD>  (1) 
0.6

>  <PUBCHEM_CONFORMER_DIVERSEORDER>  (1) 
1

>  <PUBCHEM_MMFF94_PARTIAL_CHARGES>  (1) 
24
1 -0.14
11 -0.15
12 -0.15
13 -0.15
15 -0.15
16 -0.15
17 -0.15
18 -0.15
19 -0.15
20 -0.15
25 0.15
26 0.15
27 0.15
28 0.15
29 0.15
3 0.14
30 0.15
31 0.15
32 0.15
33 0.15
34 0.15
4 0.14
5 -0.14
9 -0.15

>  <PUBCHEM_EFFECTIVE_ROTOR_COUNT>  (1) 
0.4

>  <PUBCHEM_PHARMACOPHORE_FEATURES>  (1) 
5
5 1 2 3 4 5 rings
6 1 2 6 7 8 9 rings
6 10 14 17 18 19 20 rings
6 2 5 7 11 13 15 rings
6 6 8 10 12 14 16 rings

>  <PUBCHEM_HEAVY_ATOM_COUNT>  (1) 
20

>  <PUBCHEM_ATOM_DEF_STEREO_COUNT>  (1) 
0

>  <PUBCHEM_ATOM_UDEF_STEREO_COUNT>  (1) 
0

>  <PUBCHEM_BOND_DEF_STEREO_COUNT>  (1) 
0

>  <PUBCHEM_BOND_UDEF_STEREO_COUNT>  (1) 
0

>  <PUBCHEM_ISOTOPIC_ATOM_COUNT>  (1) 
0

>  <PUBCHEM_COMPONENT_COUNT>  (1) 
1

>  <PUBCHEM_CACTVS_TAUTO_COUNT>  (1) 
1

>  <PUBCHEM_CONFORMER_ID>  (1) 
000027C000000001

>  <PUBCHEM_MMFF94_ENERGY>  (1) 
76.368

>  <PUBCHEM_FEATURE_SELFOVERLAP>  (1) 
25.624

>  <PUBCHEM_SHAPE_FINGERPRINT>  (1) 
10319926 262 18340750612617980098
10411042 1 17185596257240502030
10498660 4 18410292518902143572
10608611 8 18411136917925042244
10616163 171 18411420639217459375
10646746 165 18411419510025825100
10967382 1 18338798905472332485
1100329 8 17116357260853579144
11132069 177 18409726274671727048
11370993 70 18410570660862588332
11578080 2 13900535566460913161
12107183 9 17903631883028951482
12173636 292 18410571747906182453
12390115 104 18271263667237172144
12403259 415 18130224973516322936
12403260 363 18337101393195775996
12403814 3 17749105569868848469
13140716 1 18193001405009187515
13224815 77 18410293626987641266
138480 1 17546164099824751847
14223421 5 18411422795248675063
14790565 3 18053108324558057985
15196674 1 18410573993968375458
15442244 35 18266176119787948010
15536298 74 18341614785164043086
16945 1 18266459797950856679
17492 89 18409729551727402154
1813 80 16950287290940066300
19591789 44 18196371635296329626
200 152 17989484130226761117
20510252 161 18342461473299269281
21267235 1 18410302431628783239
21421861 104 17751633252632943882
21501502 16 18410288086379765035
221490 88 18410582764508203074
23227448 37 18411698785757688957
2334 1 18410855434780390155
23366157 5 18041563521048333658
23402539 116 18412256272359767862
23557571 272 18271535289606092766
23559900 14 18270961220547058670
238 59 16165490817766222493
245318 6 16738065264997019636
2748010 2 18265620892459732735
3004659 81 18262246513524833222
335352 9 18266458707287672246
34934 24 18409162191121207087
350125 39 18410859901145743801
3545911 37 18410857642045635084
4214541 1 18410856555461139652
474 4 17749115516928631804
5104073 3 18410011031188010530
69090 78 18411134702022591389
7097593 13 17753876230288949642
7364860 26 18269275664763135078
77779 3 18410857668068477524
9709674 26 18412549794736048646
9981440 41 18334853956779363618

>  <PUBCHEM_SHAPE_MULTIPOLES>  (1) 
411.59
9
2.66
0.62
3.52
0.29
0
-2.47
0
-1.05
0
0
0
0

>  <PUBCHEM_SHAPE_SELFOVERLAP>  (1) 
963.431

>  <PUBCHEM_SHAPE_VOLUME>  (1) 
189.8

>  <PUBCHEM_COORDINATE_TYPE>  (1) 
2
5
10

$$$$
