10185
     RDKit          3D

 22 24  0  0  1  0  0  0  0  0999 V2000
   -0.2561   -0.8067   -0.0469 O   0  0  0  0  0  0  0  0  0  0  0  0
    0.2521    1.4743    1.6565 O   0  0  0  0  0  0  0  0  0  0  0  0
   -2.0737    2.8648    0.2263 O   0  0  0  0  0  0  0  0  0  0  0  0
   -4.4019    1.7256    0.0172 O   0  0  0  0  0  0  0  0  0  0  0  0
   -4.4472   -3.0132   -0.2508 O   0  0  0  0  0  0  0  0  0  0  0  0
    4.3776   -1.5524    1.6335 O   0  0  0  0  0  0  0  0  0  0  0  0
    6.0254   -0.3809   -0.2740 O   0  0  0  0  0  0  0  0  0  0  0  0
    0.4140    0.3755   -0.5123 C   0  0  0  0  0  0  0  0  0  0  0  0
   -0.0247    1.6146    0.2729 C   0  0  0  0  0  0  0  0  0  0  0  0
    1.9156    0.1705   -0.4459 C   0  0  0  0  0  0  0  0  0  0  0  0
   -1.5205    1.7740    0.1483 C   0  0  0  0  0  0  0  0  0  0  0  0
   -2.2982    0.5264   -0.0062 C   0  0  0  0  0  0  0  0  0  0  0  0
   -1.6222   -0.6951   -0.0736 C   0  0  0  0  0  0  0  0  0  0  0  0
   -3.6944    0.5629   -0.0403 C   0  0  0  0  0  0  0  0  0  0  0  0
    2.4678   -0.6044    0.5729 C   0  0  0  0  0  0  0  0  0  0  0  0
    2.7410    0.7582   -1.4034 C   0  0  0  0  0  0  0  0  0  0  0  0
   -2.3466   -1.8859   -0.1413 C   0  0  0  0  0  0  0  0  0  0  0  0
   -4.4128   -0.6299   -0.1284 C   0  0  0  0  0  0  0  0  0  0  0  0
   -3.7410   -1.8518   -0.1739 C   0  0  0  0  0  0  0  0  0  0  0  0
    3.8485   -0.7922    0.6344 C   0  0  0  0  0  0  0  0  0  0  0  0
    4.1218    0.5705   -1.3419 C   0  0  0  0  0  0  0  0  0  0  0  0
    4.6755   -0.2046   -0.3230 C   0  0  0  0  0  0  0  0  0  0  0  0
  1  8  1  0
  1 13  1  0
  2  9  1  0
  3 11  2  0
  4 14  1  0
  5 19  1  0
  6 20  1  0
  7 22  1  0
  8  9  1  0
  8 10  1  0
  9 11  1  0
 10 15  2  0
 10 16  1  0
 11 12  1  0
 12 13  2  0
 12 14  1  0
 13 17  1  0
 14 18  2  0
 15 20  1  0
 16 21  2  0
 17 19  2  0
 18 19  1  0
 20 22  2  0
 21 22  1  0
M  END
>  <PUBCHEM_COMPOUND_CID>  (1) 
10185

>  <PUBCHEM_CONFORMER_RMSD>  (1) 
0.6

>  <PUBCHEM_CONFORMER_DIVERSEORDER>  (1) 
5
3
1
7
11
4
10
8
2
9
6

>  <PUBCHEM_MMFF94_PARTIAL_CHARGES>  (1) 
32
1 -0.36
10 -0.14
11 0.42
12 0.09
13 0.08
14 0.08
15 -0.15
16 -0.15
17 -0.15
18 -0.15
19 0.08
2 -0.68
20 0.08
21 -0.15
22 0.08
25 0.15
26 0.15
27 0.15
28 0.4
29 0.15
3 -0.57
30 0.15
31 0.45
32 0.45
33 0.45
34 0.45
4 -0.53
5 -0.53
6 -0.53
7 -0.53
8 0.42
9 0.34

>  <PUBCHEM_EFFECTIVE_ROTOR_COUNT>  (1) 
1.6

>  <PUBCHEM_PHARMACOPHORE_FEATURES>  (1) 
11
1 1 acceptor
1 2 acceptor
1 2 donor
1 3 acceptor
1 4 donor
1 5 donor
1 6 donor
1 7 donor
6 1 8 9 11 12 13 rings
6 10 15 16 20 21 22 rings
6 12 13 14 17 18 19 rings

>  <PUBCHEM_HEAVY_ATOM_COUNT>  (1) 
22

>  <PUBCHEM_ATOM_DEF_STEREO_COUNT>  (1) 
1

>  <PUBCHEM_ATOM_UDEF_STEREO_COUNT>  (1) 
1

>  <PUBCHEM_BOND_DEF_STEREO_COUNT>  (1) 
0

>  <PUBCHEM_BOND_UDEF_STEREO_COUNT>  (1) 
0

>  <PUBCHEM_ISOTOPIC_ATOM_COUNT>  (1) 
0

>  <PUBCHEM_COMPONENT_COUNT>  (1) 
1

>  <PUBCHEM_CACTVS_TAUTO_COUNT>  (1) 
998

>  <PUBCHEM_CONFORMER_ID>  (1) 
000027C900000005

>  <PUBCHEM_MMFF94_ENERGY>  (1) 
62.5464

>  <PUBCHEM_FEATURE_SELFOVERLAP>  (1) 
55.86

>  <PUBCHEM_SHAPE_FINGERPRINT>  (1) 
10062212 137 18334855022094470675
10319926 262 18200011964542380330
10411042 1 18196091269276275911
10616163 171 18411421700069295223
11045515 52 17894347800118104549
11046707 91 18341615944805206503
11315181 36 18408326584112400796
11552529 35 13253928269833238228
11578080 2 17897699111554570292
11796584 16 18411138013352998366
12107183 9 17613431152233852866
12236239 1 18259706683986089142
12403814 3 17749392529650840325
12553582 1 18270396234357354087
12714826 92 18202563977478476881
12788726 201 18337395946015912489
13140716 1 18271807969054368185
13167823 11 18259705596932348590
13288520 33 18413110580231304327
13583140 156 17560224844015679566
13760787 19 18260831475105709923
14386348 63 17275388690149363340
14576447 43 18114180869715630150
14790565 3 17981615870917532329
15196674 1 18339926016576036812
16752209 62 18411697677487574482
16945 1 18342184328040223117
17349148 13 17530963592589395288
17492 89 18408888404173685042
17804303 29 18272088335760464281
18186145 218 14923945669235056116
18222031 100 17987796457462207039
18681886 176 18411702123759622022
200 152 17967254204299922716
20028762 73 17487618765538429775
20281475 54 18333725836194664295
20511986 3 18114730586679503772
20645477 70 15430032120327015994
21033648 29 16343414025479571266
21065201 7 18129668495877799230
21267235 1 18337399326413740671
21728266 224 18409440388742614702
22646028 1 18187081754500886222
2297311 6 18202294601762100022
23175994 123 16917353649334022801
23366157 5 18046344403326815365
23402539 116 18410291410673695164
23557571 272 17845941723490546172
23559900 14 18129390315162207854
2748010 2 18199456852719774005
3004659 81 18187643634870573710
335352 9 18411980287453749767
4214541 1 18408887325761594092
474 4 17314524810445813148
5104073 3 18342459278528958833
559249 180 18334292028848601998
573450 72 18335979800661226322
633830 44 11455899078427104772
67856867 119 18261393403590696836
7495541 125 17775283894086432024
7970288 3 18197495336360492991
8863177 126 17683815680776182235
9709674 26 18200038334839912542

>  <PUBCHEM_SHAPE_MULTIPOLES>  (1) 
411.66
10.82
2.32
1.04
6.45
0.03
-0.12
4.15
0.77
-3.15
-0.27
1.18
-0.07
-1.18

>  <PUBCHEM_SHAPE_SELFOVERLAP>  (1) 
916.705

>  <PUBCHEM_SHAPE_VOLUME>  (1) 
217.5

>  <PUBCHEM_COORDINATE_TYPE>  (1) 
2
5
10

$$$$
