10191
     RDKit          3D

 25 27  0  0  1  0  0  0  0  0999 V2000
   -1.2552    0.6422   -0.2065 O   0  0  0  0  0  0  0  0  0  0  0  0
    0.9789   -1.4657   -0.8077 O   0  0  0  0  0  0  0  0  0  0  0  0
    3.6365   -0.2234    1.2584 O   0  0  0  0  0  0  0  0  0  0  0  0
   -1.3409    2.6408   -1.3662 O   0  0  0  0  0  0  0  0  0  0  0  0
    1.9063   -2.2453    1.1566 O   0  0  0  0  0  0  0  0  0  0  0  0
    4.4967   -1.8450   -0.6962 O   0  0  0  0  0  0  0  0  0  0  0  0
   -3.4887   -1.5677    0.1846 N   0  0  0  0  0  0  0  0  0  0  0  0
   -2.3477   -1.4754   -0.7768 C   0  0  0  0  0  0  0  0  0  0  0  0
   -2.1965    0.0183   -1.1014 C   0  0  0  0  0  0  0  0  0  0  0  0
   -3.6052    0.5431   -0.8347 C   0  0  0  0  0  0  0  0  0  0  0  0
   -4.0021   -0.2163    0.4209 C   0  0  0  0  0  0  0  0  0  0  0  0
   -1.2183   -2.2240   -0.1413 C   0  0  0  0  0  0  0  0  0  0  0  0
   -2.9754   -2.2288    1.3989 C   0  0  0  0  0  0  0  0  0  0  0  0
   -1.5846   -2.6565    1.0696 C   0  0  0  0  0  0  0  0  0  0  0  0
    0.0495   -2.5603   -0.8484 C   0  0  0  0  0  0  0  0  0  0  0  0
    2.1306    1.0681   -0.1789 C   0  0  0  0  0  0  0  0  0  0  0  0
    2.8560   -0.2854    0.0673 C   0  0  0  0  0  0  0  0  0  0  0  0
    1.1616    1.4309    0.9802 C   0  0  0  0  0  0  0  0  0  0  0  0
   -0.9172    1.9359   -0.4622 C   0  0  0  0  0  0  0  0  0  0  0  0
    0.0782    2.3824    0.5440 C   0  0  0  0  0  0  0  0  0  0  0  0
    1.8711   -1.4452    0.2293 C   0  0  0  0  0  0  0  0  0  0  0  0
    3.8184   -0.6608   -1.0649 C   0  0  0  0  0  0  0  0  0  0  0  0
    3.1173    2.2279   -0.3977 C   0  0  0  0  0  0  0  0  0  0  0  0
   -0.0505    3.6337    1.0053 C   0  0  0  0  0  0  0  0  0  0  0  0
   -1.1189    4.5765    0.5678 C   0  0  0  0  0  0  0  0  0  0  0  0
  1  9  1  0
  1 19  1  0
  2 15  1  0
  2 21  1  0
  3 17  1  0
  4 19  2  0
  5 21  2  0
  6 22  1  0
  7  8  1  0
  7 11  1  0
  7 13  1  0
  8  9  1  0
  8 12  1  0
  9 10  1  0
 10 11  1  0
 12 14  2  0
 12 15  1  0
 13 14  1  0
 16 17  1  0
 16 18  1  0
 16 23  1  0
 17 21  1  0
 17 22  1  0
 18 20  1  0
 19 20  1  0
 20 24  2  0
 24 25  1  0
M  END
>  <PUBCHEM_COMPOUND_CID>  (1) 
10191

>  <PUBCHEM_CONFORMER_RMSD>  (1) 
0.6

>  <PUBCHEM_CONFORMER_DIVERSEORDER>  (1) 
1
11
7
4
16
13
9
2
15
12
5
8
14
10
3
6

>  <PUBCHEM_MMFF94_PARTIAL_CHARGES>  (1) 
26
1 -0.43
11 0.27
12 -0.28
13 0.41
14 -0.29
15 0.42
17 0.34
18 0.14
19 0.71
2 -0.43
20 -0.12
21 0.66
22 0.28
24 -0.29
25 0.14
3 -0.68
34 0.15
4 -0.57
45 0.4
46 0.15
47 0.4
5 -0.57
6 -0.68
7 -0.81
8 0.41
9 0.28

>  <PUBCHEM_EFFECTIVE_ROTOR_COUNT>  (1) 
2.8

>  <PUBCHEM_PHARMACOPHORE_FEATURES>  (1) 
10
1 25 hydrophobe
1 3 acceptor
1 3 donor
1 4 acceptor
1 5 acceptor
1 6 acceptor
1 6 donor
1 7 cation
5 7 8 12 13 14 rings
5 7 8 9 10 11 rings

>  <PUBCHEM_HEAVY_ATOM_COUNT>  (1) 
25

>  <PUBCHEM_ATOM_DEF_STEREO_COUNT>  (1) 
4

>  <PUBCHEM_ATOM_UDEF_STEREO_COUNT>  (1) 
0

>  <PUBCHEM_BOND_DEF_STEREO_COUNT>  (1) 
0

>  <PUBCHEM_BOND_UDEF_STEREO_COUNT>  (1) 
1

>  <PUBCHEM_ISOTOPIC_ATOM_COUNT>  (1) 
0

>  <PUBCHEM_COMPONENT_COUNT>  (1) 
1

>  <PUBCHEM_CACTVS_TAUTO_COUNT>  (1) 
1

>  <PUBCHEM_CONFORMER_ID>  (1) 
000027CF00000001

>  <PUBCHEM_MMFF94_ENERGY>  (1) 
60.8491

>  <PUBCHEM_FEATURE_SELFOVERLAP>  (1) 
51.086

>  <PUBCHEM_SHAPE_FINGERPRINT>  (1) 
10006869 2 17834957473991494841
10366900 7 17968659461696833155
104564 63 18269277859121755322
10675989 125 17905302066967706437
10759866 29 17967535636559380902
10967382 1 18267580397730932092
1100329 8 17042327138539335558
11112241 14 16483308420498155856
12011746 2 18408603695270742983
12054548 360 18265614466893395092
12156800 1 15758035074001507940
12506688 2 18338799030127078600
12553582 1 18340762749288521197
12596599 1 17203614825608698095
12633257 1 18334858342099072251
12788726 201 18195806271756216329
13140716 1 18337667615655950722
13402501 40 18410290307320793463
13533116 47 18052542368432873771
138480 1 15169115437716557296
14178342 30 17908126695369940624
14363568 33 17761234484250342800
14955137 171 18196396860204190339
16945 1 18187919556491311846
17138139 8 17479980161706851549
19930381 70 17548411970301985035
20775438 99 17335572812712408151
20905425 154 18126279740384281566
2334 1 18193833979755381862
23558518 356 17906739102804708399
23559900 14 18410289199530571342
238 59 17693906967828758639
2748010 2 18266729371451728119
4058900 60 16825049338908418508
5312544 6 17258494440670813429
5939293 188 18197213865524527674
6287921 2 17328596527160024883
6438718 38 17701819882357095173
7226269 152 18336818767495059938
81228 2 18270121193025225456

>  <PUBCHEM_SHAPE_MULTIPOLES>  (1) 
474.29
6.46
4.7
1.24
1.38
4.55
0.09
-3.25
-0.33
-0.07
0.91
-0.17
-0.14
0.84

>  <PUBCHEM_SHAPE_SELFOVERLAP>  (1) 
1002.011

>  <PUBCHEM_SHAPE_VOLUME>  (1) 
265.8

>  <PUBCHEM_COORDINATE_TYPE>  (1) 
2
5
10

$$$$
