1019
     RDKit          3D

 15 15  0  0  0  0  0  0  0  0999 V2000
   -2.5894   -0.8456   -0.0747 P   0  0  0  0  0  0  0  0  0  0  0  0
   -1.8399    0.5885   -0.0540 O   0  0  0  0  0  0  0  0  0  0  0  0
   -0.7554    3.1480   -0.0245 O   0  0  0  0  0  0  0  0  0  0  0  0
   -2.2718   -1.4784    1.3795 O   0  0  0  0  0  0  0  0  0  0  0  0
   -4.1500   -0.4340    0.0425 O   0  0  0  0  0  0  0  0  0  0  0  0
   -2.2654   -1.7212   -1.2503 O   0  0  0  0  0  0  0  0  0  0  0  0
    3.8327   -1.1309    0.0293 O   0  0  0  0  0  0  0  0  0  0  0  0
    2.0813   -2.4541   -0.0053 O   0  0  0  0  0  0  0  0  0  0  0  0
    2.5905   -1.3072    0.0079 N   0  0  0  0  0  0  0  0  0  0  0  0
   -0.4897    0.7682   -0.0307 C   0  0  0  0  0  0  0  0  0  0  0  0
    0.3505   -0.3453   -0.0234 C   0  0  0  0  0  0  0  0  0  0  0  0
    0.0544    2.0525   -0.0157 C   0  0  0  0  0  0  0  0  0  0  0  0
    1.7348   -0.1742   -0.0011 C   0  0  0  0  0  0  0  0  0  0  0  0
    1.4386    2.2236    0.0065 C   0  0  0  0  0  0  0  0  0  0  0  0
    2.2787    1.1102    0.0138 C   0  0  0  0  0  0  0  0  0  0  0  0
  1  2  1  0
  1  4  1  0
  1  5  1  0
  1  6  2  0
  2 10  1  0
  3 12  1  0
  7  9  1  0
  8  9  2  0
  9 13  1  0
 10 11  2  0
 10 12  1  0
 11 13  1  0
 12 14  2  0
 13 15  2  0
 14 15  1  0
M  CHG  2   7  -1   9   1
M  END
>  <PUBCHEM_COMPOUND_CID>  (1) 
1019

>  <PUBCHEM_CONFORMER_RMSD>  (1) 
0.6

>  <PUBCHEM_CONFORMER_DIVERSEORDER>  (1) 
1
6
2
4
5
3

>  <PUBCHEM_MMFF94_PARTIAL_CHARGES>  (1) 
21
1 1.51
10 0.08
11 -0.15
12 0.08
13 0.13
14 -0.15
15 -0.15
16 0.15
17 0.15
18 0.15
19 0.45
2 -0.35
20 0.5
21 0.5
3 -0.53
4 -0.77
5 -0.77
6 -0.7
7 -0.52
8 -0.52
9 0.91

>  <PUBCHEM_EFFECTIVE_ROTOR_COUNT>  (1) 
3

>  <PUBCHEM_PHARMACOPHORE_FEATURES>  (1) 
9
1 3 donor
1 4 acceptor
1 5 acceptor
1 6 acceptor
1 7 acceptor
1 7 anion
1 8 acceptor
4 1 4 5 6 anion
6 10 11 12 13 14 15 rings

>  <PUBCHEM_HEAVY_ATOM_COUNT>  (1) 
15

>  <PUBCHEM_ATOM_DEF_STEREO_COUNT>  (1) 
0

>  <PUBCHEM_ATOM_UDEF_STEREO_COUNT>  (1) 
0

>  <PUBCHEM_BOND_DEF_STEREO_COUNT>  (1) 
0

>  <PUBCHEM_BOND_UDEF_STEREO_COUNT>  (1) 
0

>  <PUBCHEM_ISOTOPIC_ATOM_COUNT>  (1) 
0

>  <PUBCHEM_COMPONENT_COUNT>  (1) 
1

>  <PUBCHEM_CACTVS_TAUTO_COUNT>  (1) 
5

>  <PUBCHEM_CONFORMER_ID>  (1) 
000003FB00000001

>  <PUBCHEM_MMFF94_ENERGY>  (1) 
7.0031

>  <PUBCHEM_FEATURE_SELFOVERLAP>  (1) 
45.79

>  <PUBCHEM_SHAPE_FINGERPRINT>  (1) 
10967382 1 18338797947705162014
12553582 1 18411695465727435078
14251717 144 18195236939370571303
15442244 35 18413111641362747337
16945 1 17977948208694223989
17990270 104 18263923417893655817
193761 8 18338797819204952340
20201158 50 18334293205706421587
20645476 183 17252335023670358990
20645477 70 18263352767496798679
20711985 365 18338233752454266317
20871998 184 18128252277224014838
20871998 22 18271532983472457358
21501502 16 18337962190351881928
2334 1 18338517550865677292
23557571 272 18128262177856946102
23559900 14 17621593918523337174
23598291 2 18058734727151078431
2748010 2 18410846681447481324
6338986 31 18340192029691541878
7364860 26 18341330114584179008
81228 2 18191588557899864928
8809292 202 18187087264606609411

>  <PUBCHEM_SHAPE_MULTIPOLES>  (1) 
266.48
5.2
2.84
0.76
2.17
1.13
-0.04
-3
-0.07
-1.15
0.05
0.46
-0.26
-0.02

>  <PUBCHEM_SHAPE_SELFOVERLAP>  (1) 
544.701

>  <PUBCHEM_SHAPE_VOLUME>  (1) 
154.9

>  <PUBCHEM_COORDINATE_TYPE>  (1) 
2
5
10

$$$$
