102
     RDKit          3D

  9  9  0  0  0  0  0  0  0  0999 V2000
    2.9230    0.6054   -0.7218 O   0  0  0  0  0  0  0  0  0  0  0  0
   -2.4350    1.5060   -0.0832 O   0  0  0  0  0  0  0  0  0  0  0  0
    0.8626   -0.0372    0.2773 C   0  0  0  0  0  0  0  0  0  0  0  0
   -0.1364    0.9341    0.2117 C   0  0  0  0  0  0  0  0  0  0  0  0
    2.2776    0.3641    0.5226 C   0  0  0  0  0  0  0  0  0  0  0  0
    0.5381   -1.3838    0.1127 C   0  0  0  0  0  0  0  0  0  0  0  0
   -1.4600    0.5587   -0.0186 C   0  0  0  0  0  0  0  0  0  0  0  0
   -0.7854   -1.7593   -0.1175 C   0  0  0  0  0  0  0  0  0  0  0  0
   -1.7844   -0.7880   -0.1832 C   0  0  0  0  0  0  0  0  0  0  0  0
  1  5  1  0
  2  7  1  0
  3  4  2  0
  3  5  1  0
  3  6  1  0
  4  7  1  0
  6  8  2  0
  7  9  2  0
  8  9  1  0
M  END
>  <PUBCHEM_COMPOUND_CID>  (1) 
102

>  <PUBCHEM_CONFORMER_RMSD>  (1) 
0.4

>  <PUBCHEM_CONFORMER_DIVERSEORDER>  (1) 
1
3
2
4

>  <PUBCHEM_MMFF94_PARTIAL_CHARGES>  (1) 
15
1 -0.68
10 0.15
13 0.15
14 0.15
15 0.15
16 0.4
17 0.45
2 -0.53
3 -0.14
4 -0.15
5 0.42
6 -0.15
7 0.08
8 -0.15
9 -0.15

>  <PUBCHEM_EFFECTIVE_ROTOR_COUNT>  (1) 
1

>  <PUBCHEM_PHARMACOPHORE_FEATURES>  (1) 
4
1 1 acceptor
1 1 donor
1 2 donor
6 3 4 6 7 8 9 rings

>  <PUBCHEM_HEAVY_ATOM_COUNT>  (1) 
9

>  <PUBCHEM_ATOM_DEF_STEREO_COUNT>  (1) 
0

>  <PUBCHEM_ATOM_UDEF_STEREO_COUNT>  (1) 
0

>  <PUBCHEM_BOND_DEF_STEREO_COUNT>  (1) 
0

>  <PUBCHEM_BOND_UDEF_STEREO_COUNT>  (1) 
0

>  <PUBCHEM_ISOTOPIC_ATOM_COUNT>  (1) 
0

>  <PUBCHEM_COMPONENT_COUNT>  (1) 
1

>  <PUBCHEM_CACTVS_TAUTO_COUNT>  (1) 
3

>  <PUBCHEM_CONFORMER_ID>  (1) 
0000006600000001

>  <PUBCHEM_MMFF94_ENERGY>  (1) 
19.1739

>  <PUBCHEM_FEATURE_SELFOVERLAP>  (1) 
20.297

>  <PUBCHEM_SHAPE_FINGERPRINT>  (1) 
11206711 2 18339631347781286725
12716758 59 18342739632830297898
16714656 1 18339363088134264682
16945 1 18339354296346830835
20645464 45 17845640573326292008
20653085 51 18261128378016514980
21040471 1 18339916039356224843
23235685 24 18411413982118208385
23552423 10 18334009463214078722
2748010 2 18339643334892877015
29004967 10 16056606507726620506
5084963 1 18058733635886370170

>  <PUBCHEM_SHAPE_MULTIPOLES>  (1) 
173.48
3.27
1.64
0.69
1.52
0.35
0.01
-1.13
0.42
-0.8
0.02
0.22
-0.02
-0.09

>  <PUBCHEM_SHAPE_SELFOVERLAP>  (1) 
358.063

>  <PUBCHEM_SHAPE_VOLUME>  (1) 
100

>  <PUBCHEM_COORDINATE_TYPE>  (1) 
2
5
10

$$$$
