10217
     RDKit          3D

 25 29  0  0  1  0  0  0  0  0999 V2000
   -5.0274   -2.0193   -0.5563 O   0  0  0  0  0  0  0  0  0  0  0  0
   -6.1670   -0.0292    0.1804 O   0  0  0  0  0  0  0  0  0  0  0  0
    4.3609    1.4521   -0.1814 O   0  0  0  0  0  0  0  0  0  0  0  0
    5.8022   -0.8906   -0.0126 O   0  0  0  0  0  0  0  0  0  0  0  0
    0.0726    1.3433   -0.0472 N   0  0  0  0  0  0  0  0  0  0  0  0
   -0.7097    2.5799   -0.1147 C   0  0  0  0  0  0  0  0  0  0  0  0
   -0.5390    0.0823   -0.0121 C   0  0  0  0  0  0  0  0  0  0  0  0
   -1.9352    2.4712    0.7844 C   0  0  0  0  0  0  0  0  0  0  0  0
    1.5259    1.5151   -0.1737 C   0  0  0  0  0  0  0  0  0  0  0  0
   -2.0332    0.0567    0.0277 C   0  0  0  0  0  0  0  0  0  0  0  0
   -2.7239    1.2374    0.4249 C   0  0  0  0  0  0  0  0  0  0  0  0
    2.3010    0.2249   -0.0697 C   0  0  0  0  0  0  0  0  0  0  0  0
    1.6424   -1.0112    0.0241 C   0  0  0  0  0  0  0  0  0  0  0  0
    0.1769   -1.0585    0.0359 C   0  0  0  0  0  0  0  0  0  0  0  0
   -2.7863   -1.0761   -0.3338 C   0  0  0  0  0  0  0  0  0  0  0  0
   -4.1254    1.2629    0.5135 C   0  0  0  0  0  0  0  0  0  0  0  0
    3.7028    0.2600   -0.0835 C   0  0  0  0  0  0  0  0  0  0  0  0
   -4.1645   -1.0114   -0.2501 C   0  0  0  0  0  0  0  0  0  0  0  0
   -4.8150    0.1227    0.1673 C   0  0  0  0  0  0  0  0  0  0  0  0
    2.3902   -2.1928    0.1067 C   0  0  0  0  0  0  0  0  0  0  0  0
    4.4403   -0.9205    0.0001 C   0  0  0  0  0  0  0  0  0  0  0  0
    3.7845   -2.1455    0.0952 C   0  0  0  0  0  0  0  0  0  0  0  0
   -6.2948   -1.3900   -0.2789 C   0  0  0  0  0  0  0  0  0  0  0  0
    4.6619    1.9170   -1.4943 C   0  0  0  0  0  0  0  0  0  0  0  0
    6.4598   -0.7806    1.2483 C   0  0  0  0  0  0  0  0  0  0  0  0
  1 18  1  0
  1 23  1  0
  2 19  1  0
  2 23  1  0
  3 17  1  0
  3 24  1  0
  4 21  1  0
  4 25  1  0
  5  6  1  0
  5  7  1  0
  5  9  1  0
  6  8  1  0
  7 10  1  0
  7 14  2  0
  8 11  1  0
  9 12  1  0
 10 11  2  0
 10 15  1  0
 11 16  1  0
 12 13  2  0
 12 17  1  0
 13 14  1  0
 13 20  1  0
 15 18  2  0
 16 19  2  0
 17 21  2  0
 18 19  1  0
 20 22  2  0
 21 22  1  0
M  END
>  <PUBCHEM_COMPOUND_CID>  (1) 
10217

>  <PUBCHEM_CONFORMER_RMSD>  (1) 
0.6

>  <PUBCHEM_CONFORMER_DIVERSEORDER>  (1) 
1
2

>  <PUBCHEM_MMFF94_PARTIAL_CHARGES>  (1) 
30
1 -0.36
10 0.03
11 -0.14
12 -0.14
13 0.03
14 -0.18
15 -0.15
16 -0.15
17 0.08
18 0.08
19 0.08
2 -0.36
20 -0.15
21 0.08
22 -0.15
23 0.56
24 0.28
25 0.28
3 -0.36
32 0.15
33 0.15
34 0.15
35 0.15
36 0.15
4 -0.36
5 -0.84
6 0.37
7 0.07
8 0.14
9 0.51

>  <PUBCHEM_EFFECTIVE_ROTOR_COUNT>  (1) 
3.2

>  <PUBCHEM_PHARMACOPHORE_FEATURES>  (1) 
10
1 1 acceptor
1 2 acceptor
1 3 acceptor
1 4 acceptor
1 5 cation
5 1 2 18 19 23 rings
6 10 11 15 16 18 19 rings
6 12 13 17 20 21 22 rings
6 5 6 7 8 10 11 rings
6 5 7 9 12 13 14 rings

>  <PUBCHEM_HEAVY_ATOM_COUNT>  (1) 
25

>  <PUBCHEM_ATOM_DEF_STEREO_COUNT>  (1) 
0

>  <PUBCHEM_ATOM_UDEF_STEREO_COUNT>  (1) 
0

>  <PUBCHEM_BOND_DEF_STEREO_COUNT>  (1) 
0

>  <PUBCHEM_BOND_UDEF_STEREO_COUNT>  (1) 
0

>  <PUBCHEM_ISOTOPIC_ATOM_COUNT>  (1) 
0

>  <PUBCHEM_COMPONENT_COUNT>  (1) 
1

>  <PUBCHEM_CACTVS_TAUTO_COUNT>  (1) 
1

>  <PUBCHEM_CONFORMER_ID>  (1) 
000027E900000001

>  <PUBCHEM_MMFF94_ENERGY>  (1) 
96.6161

>  <PUBCHEM_FEATURE_SELFOVERLAP>  (1) 
50.979

>  <PUBCHEM_SHAPE_FINGERPRINT>  (1) 
10 15 18200580476657746026
10595046 47 18411140237934723074
10906281 52 18269014071400748219
11045515 52 18187363216804354533
11135609 187 18117564152372157356
11963148 33 18412257354845813086
12107183 9 17619070529686607123
12166972 35 17822012021090248748
12236239 1 18408888447259650693
12403260 363 18261674784019708176
12516196 113 18201717366673579579
12596602 18 17346599660128734042
12788726 201 18059870453922196601
13167823 11 18412544280103353543
13288520 33 18341894082950965757
13533116 47 18408605868439343696
13862211 1 18409446990038666538
14251764 18 18260546728403091522
14528608 73 18409737291531827892
14787075 74 18334860536526276937
14849402 71 18341889758320657472
15196674 1 18411420592252218465
15352361 1 18411981364894480635
15927050 60 17479452786856317932
16087824 20 18267303124609953973
17349148 13 18041000626760259912
17492 89 18196371420728137966
17834072 33 18410295813015147231
17857418 61 18410290293982308362
1813 80 17749113261717419437
18681886 176 18413668007521460258
200 152 18412825798456647769
20028762 73 18412824677407776646
21130935 74 18272086033922465626
21267235 1 18411989043752927318
21792934 111 18342166761819317681
22950370 63 18413390947391191571
23402539 116 18412822478267735951
23522609 53 18124908795967857465
23559900 14 18341884174087303121
25147074 1 18338249196972254216
3004659 81 18259703398098802174
314194 84 18340770429191089467
329604 57 18410577305177008235
34797466 226 16773804744085513128
350125 39 18411417294091946496
4073 2 17968383450187191283
4214541 1 18340487772939915449
4325135 7 18410576184253971158
439807 62 18262237850307063739
46194498 28 17386284419509956253
474 4 17895203250566518124
5104073 3 18271244919862817555
5283173 99 18041551422114976805
5312544 6 18263088858947066764
67856867 119 18408884053476776608
7495541 125 17917706916080778608
9709674 26 18337682901445031202
9981440 41 17257086498856891433

>  <PUBCHEM_SHAPE_MULTIPOLES>  (1) 
486.03
14.62
2.52
0.83
1.31
0.65
0.03
-5.26
-0.44
-0.2
0.12
-0.64
0.19
-1.63

>  <PUBCHEM_SHAPE_SELFOVERLAP>  (1) 
1090.847

>  <PUBCHEM_SHAPE_VOLUME>  (1) 
256.6

>  <PUBCHEM_COORDINATE_TYPE>  (1) 
2
5
10

$$$$
