10227
     RDKit          3D

 19 21  0  0  0  0  0  0  0  0999 V2000
   -3.4269   -1.8469    0.2460 O   0  0  0  0  0  0  0  0  0  0  0  0
   -1.4941    2.3067   -0.5584 O   0  0  0  0  0  0  0  0  0  0  0  0
    3.4654    1.3561   -0.2627 O   0  0  0  0  0  0  0  0  0  0  0  0
    3.6662   -1.3597    0.2909 O   0  0  0  0  0  0  0  0  0  0  0  0
   -1.0449   -1.7924    0.2835 N   0  0  0  0  0  0  0  0  0  0  0  0
   -0.0712    0.3940   -0.1402 C   0  0  0  0  0  0  0  0  0  0  0  0
    0.0202   -0.9895    0.1421 C   0  0  0  0  0  0  0  0  0  0  0  0
   -1.3404    0.9754   -0.2843 C   0  0  0  0  0  0  0  0  0  0  0  0
   -2.4635    0.1526   -0.1401 C   0  0  0  0  0  0  0  0  0  0  0  0
   -2.2364   -1.1893    0.1371 C   0  0  0  0  0  0  0  0  0  0  0  0
    1.0925    1.1692   -0.2735 C   0  0  0  0  0  0  0  0  0  0  0  0
    1.2903   -1.5397    0.2793 C   0  0  0  0  0  0  0  0  0  0  0  0
    2.3490    0.5888   -0.1304 C   0  0  0  0  0  0  0  0  0  0  0  0
    2.4477   -0.7680    0.1461 C   0  0  0  0  0  0  0  0  0  0  0  0
   -3.8699    0.3127   -0.2018 C   0  0  0  0  0  0  0  0  0  0  0  0
   -4.4075   -0.9298    0.0401 C   0  0  0  0  0  0  0  0  0  0  0  0
   -2.2198    3.0789    0.3924 C   0  0  0  0  0  0  0  0  0  0  0  0
    3.9721    1.9741    0.9193 C   0  0  0  0  0  0  0  0  0  0  0  0
    4.2713   -1.8933   -0.8853 C   0  0  0  0  0  0  0  0  0  0  0  0
  1 10  1  0
  1 16  1  0
  2  8  1  0
  2 17  1  0
  3 13  1  0
  3 18  1  0
  4 14  1  0
  4 19  1  0
  5  7  1  0
  5 10  2  0
  6  7  2  0
  6  8  1  0
  6 11  1  0
  7 12  1  0
  8  9  2  0
  9 10  1  0
  9 15  1  0
 11 13  2  0
 12 14  2  0
 13 14  1  0
 15 16  2  0
M  END
>  <PUBCHEM_COMPOUND_CID>  (1) 
10227

>  <PUBCHEM_CONFORMER_RMSD>  (1) 
0.6

>  <PUBCHEM_CONFORMER_DIVERSEORDER>  (1) 
1
3
4
2

>  <PUBCHEM_MMFF94_PARTIAL_CHARGES>  (1) 
21
1 -0.28
10 0.4
11 -0.15
12 -0.15
13 0.08
14 0.08
15 -0.15
16 -0.01
17 0.28
18 0.28
19 0.28
2 -0.36
20 0.15
21 0.15
22 0.15
23 0.15
3 -0.36
4 -0.36
5 -0.57
7 0.31
8 0.08

>  <PUBCHEM_EFFECTIVE_ROTOR_COUNT>  (1) 
3

>  <PUBCHEM_PHARMACOPHORE_FEATURES>  (1) 
6
1 2 acceptor
1 3 acceptor
1 4 acceptor
5 1 9 10 15 16 rings
6 5 6 7 8 9 10 rings
6 6 7 11 12 13 14 rings

>  <PUBCHEM_HEAVY_ATOM_COUNT>  (1) 
19

>  <PUBCHEM_ATOM_DEF_STEREO_COUNT>  (1) 
0

>  <PUBCHEM_ATOM_UDEF_STEREO_COUNT>  (1) 
0

>  <PUBCHEM_BOND_DEF_STEREO_COUNT>  (1) 
0

>  <PUBCHEM_BOND_UDEF_STEREO_COUNT>  (1) 
0

>  <PUBCHEM_ISOTOPIC_ATOM_COUNT>  (1) 
0

>  <PUBCHEM_COMPONENT_COUNT>  (1) 
1

>  <PUBCHEM_CACTVS_TAUTO_COUNT>  (1) 
1

>  <PUBCHEM_CONFORMER_ID>  (1) 
000027F300000001

>  <PUBCHEM_MMFF94_ENERGY>  (1) 
78.5566

>  <PUBCHEM_FEATURE_SELFOVERLAP>  (1) 
30.603

>  <PUBCHEM_SHAPE_FINGERPRINT>  (1) 
10608611 8 18411133615374961360
10967382 1 18264771136958215101
1100329 8 17399230846329957523
11132069 177 18334572490370929033
12032990 46 18335145323297643819
12236239 1 18060421335666238795
12403259 226 18411976940777732256
12916754 54 18342742892399362659
13140716 1 18265889160254142536
13583140 156 14692286184514196103
14178342 30 18120075205238185770
14223421 5 18411978066038110312
14787075 74 17971753534592586073
14866123 147 16399447045371464154
15196674 1 18409166623569641591
15219456 202 18410571812008944598
15442244 35 18264487295750053482
15536298 74 18411418427557020302
16945 1 18336825273832488235
17804303 29 18339083683495321150
18186145 218 18113333106920792967
200 152 18131344203053936095
20510252 161 18412542115545357713
20645477 70 18413669114816329942
20871999 31 18264787467120655446
21029758 11 18339072822134803293
21267235 1 18336274478805670491
21501502 16 18336831892203083020
221490 88 18410017624126586114
2334 1 18408319965035203564
23402539 116 18267574883040215077
23463225 33 18334576879890835151
23558518 356 18261962863991618305
23559900 14 18411695483186521668
2748010 2 18335977597633186476
2871803 45 18261387841106524567
3286 77 18336826403656729334
335352 9 18265051340967484967
34934 24 18266732657370923135
350125 39 18338240357982040208
5104073 3 18409730664318136987
7097593 13 17536858988716360579
7364860 26 18343020008685692878
81228 2 18187653513237494569
8809292 202 18187370930254193195
9709674 26 18336830882943946682

>  <PUBCHEM_SHAPE_MULTIPOLES>  (1) 
362.55
7.95
2.72
0.74
1.73
1.36
0
-1.36
-0.01
0.06
0.2
0.31
0.05
0.71

>  <PUBCHEM_SHAPE_SELFOVERLAP>  (1) 
804.941

>  <PUBCHEM_SHAPE_VOLUME>  (1) 
196.4

>  <PUBCHEM_COORDINATE_TYPE>  (1) 
2
5
10

$$$$
