10232
     RDKit          3D

 23 26  0  0  0  0  0  0  0  0999 V2000
    0.9554   -1.0371   -0.0358 N   0  0  0  0  0  0  0  0  0  0  0  0
    0.9875    1.1821    0.0412 N   0  0  0  0  0  0  0  0  0  0  0  0
   -0.3533   -0.6443   -0.0230 C   0  0  0  0  0  0  0  0  0  0  0  0
   -0.3045    0.7266    0.0250 C   0  0  0  0  0  0  0  0  0  0  0  0
    1.7232    0.0933    0.0041 C   0  0  0  0  0  0  0  0  0  0  0  0
   -1.4479   -1.5818   -0.0564 C   0  0  0  0  0  0  0  0  0  0  0  0
   -1.4447    1.5996    0.0549 C   0  0  0  0  0  0  0  0  0  0  0  0
    3.1650    0.0402    0.0032 C   0  0  0  0  0  0  0  0  0  0  0  0
   -1.9783   -1.9943   -1.2793 C   0  0  0  0  0  0  0  0  0  0  0  0
   -1.9789   -2.0769    1.1352 C   0  0  0  0  0  0  0  0  0  0  0  0
   -1.9990    1.9813    1.2766 C   0  0  0  0  0  0  0  0  0  0  0  0
   -1.9974    2.0661   -1.1378 C   0  0  0  0  0  0  0  0  0  0  0  0
    3.9017    1.0798   -0.5645 C   0  0  0  0  0  0  0  0  0  0  0  0
    3.8220   -1.0520    0.5695 C   0  0  0  0  0  0  0  0  0  0  0  0
   -3.0382   -2.9006   -1.3107 C   0  0  0  0  0  0  0  0  0  0  0  0
   -3.0386   -2.9834    1.1039 C   0  0  0  0  0  0  0  0  0  0  0  0
   -3.1062    2.8292    1.3058 C   0  0  0  0  0  0  0  0  0  0  0  0
   -3.1044    2.9141   -1.1087 C   0  0  0  0  0  0  0  0  0  0  0  0
   -3.5684   -3.3951   -0.1191 C   0  0  0  0  0  0  0  0  0  0  0  0
    5.2956    1.0271   -0.5659 C   0  0  0  0  0  0  0  0  0  0  0  0
    5.2159   -1.1046    0.5683 C   0  0  0  0  0  0  0  0  0  0  0  0
   -3.6589    3.2956    0.1131 C   0  0  0  0  0  0  0  0  0  0  0  0
    5.9526   -0.0651    0.0005 C   0  0  0  0  0  0  0  0  0  0  0  0
  1  3  1  0
  1  5  1  0
  2  4  1  0
  2  5  2  0
  3  4  2  0
  3  6  1  0
  4  7  1  0
  5  8  1  0
  6  9  2  0
  6 10  1  0
  7 11  2  0
  7 12  1  0
  8 13  2  0
  8 14  1  0
  9 15  1  0
 10 16  2  0
 11 17  1  0
 12 18  2  0
 13 20  1  0
 14 21  2  0
 15 19  2  0
 16 19  1  0
 17 22  2  0
 18 22  1  0
 20 23  2  0
 21 23  1  0
M  END
>  <PUBCHEM_COMPOUND_CID>  (1) 
10232

>  <PUBCHEM_CONFORMER_RMSD>  (1) 
0.6

>  <PUBCHEM_CONFORMER_DIVERSEORDER>  (1) 
1
4
2
5
3

>  <PUBCHEM_MMFF94_PARTIAL_CHARGES>  (1) 
39
1 0.03
10 -0.15
11 -0.15
12 -0.15
13 -0.15
14 -0.15
15 -0.15
16 -0.15
17 -0.15
18 -0.15
19 -0.15
2 -0.57
20 -0.15
21 -0.15
22 -0.15
23 -0.15
24 0.27
25 0.15
26 0.15
27 0.15
28 0.15
29 0.15
3 -0.2
30 0.15
31 0.15
32 0.15
33 0.15
34 0.15
35 0.15
36 0.15
37 0.15
38 0.15
39 0.15
4 0.17
5 0.13
6 0.05
7 0.05
8 0.05
9 -0.15

>  <PUBCHEM_EFFECTIVE_ROTOR_COUNT>  (1) 
3

>  <PUBCHEM_PHARMACOPHORE_FEATURES>  (1) 
6
1 1 donor
3 1 2 5 cation
5 1 2 3 4 5 rings
6 6 9 10 15 16 19 rings
6 7 11 12 17 18 22 rings
6 8 13 14 20 21 23 rings

>  <PUBCHEM_HEAVY_ATOM_COUNT>  (1) 
23

>  <PUBCHEM_ATOM_DEF_STEREO_COUNT>  (1) 
0

>  <PUBCHEM_ATOM_UDEF_STEREO_COUNT>  (1) 
0

>  <PUBCHEM_BOND_DEF_STEREO_COUNT>  (1) 
0

>  <PUBCHEM_BOND_UDEF_STEREO_COUNT>  (1) 
0

>  <PUBCHEM_ISOTOPIC_ATOM_COUNT>  (1) 
0

>  <PUBCHEM_COMPONENT_COUNT>  (1) 
1

>  <PUBCHEM_CACTVS_TAUTO_COUNT>  (1) 
1

>  <PUBCHEM_CONFORMER_ID>  (1) 
000027F800000001

>  <PUBCHEM_MMFF94_ENERGY>  (1) 
64.0806

>  <PUBCHEM_FEATURE_SELFOVERLAP>  (1) 
30.448

>  <PUBCHEM_SHAPE_FINGERPRINT>  (1) 
1100329 8 17903912262895262922
11045515 52 18120650494712081159
11056379 131 18341341075667928694
11101153 10 18046916150090684004
11405975 8 18338795620745556466
11545043 162 18131066035792809370
11578080 2 17485686764223982004
11582403 64 15795074275573883229
12107183 9 17974843978891146370
12553582 1 18197493150379861814
12714826 92 18130791200112871034
12788726 201 18337658785414687011
13004483 165 18268707397450277691
13052359 8 18411135793028745609
13134695 92 17836644502574726271
13140716 1 18267872864119634723
13149001 5 17552950358668893447
13540713 5 18259987081089603660
13631057 29 18338233890225327722
14508225 48 18265324195992558733
14713325 29 18412263939114151239
15042514 8 18410016511376505225
15131766 46 15264790009080054136
15439362 3 17838619951196739756
15806764 133 17417817283639874608
16752209 62 18340190969241054970
17138139 8 17767641124448197693
17539 30 18340760537812452039
1813 80 17982470474434196671
19427546 20 18336549403956956308
20101258 96 18263655115545218936
204376 136 18193840344870943521
20587220 17 16980154241058360449
21033648 144 18339067230088222324
21049683 271 17540259074143629271
21202864 24 18340782467968433849
21236236 1 18411418410086864366
21307412 95 17769674001210450942
21641784 216 18116447022840690036
22182313 1 17774459199909179758
22224240 67 18268156358079861961
23175994 123 17972033910358933983
23227448 37 18335423435241037588
23419403 2 17273679052726541081
23558518 356 18115033012475035920
23598288 3 18413386544802040598
25147074 1 18259702294640327810
283562 15 18335979882376797202
3027735 51 18412260636068451531
312423 11 18261121824228516534
350125 39 18339085985545434072
3759504 43 18338516318342094621
38695281 34 17976252439926788253
4058900 60 17907019470002370137
4258327 124 18041292014321699452
4409770 3 18412820292409074247
484985 159 17095249137213322379
5104073 3 18409440385486547088
5171179 24 17772456035810405385
53917941 68 18264190453127358221
559249 180 18265044744235743794
58779409 54 18340760503178426365
5924683 9 18409728482617200714
59755656 520 18268991973166496837
633830 44 17626390017501137885
6669772 16 18052819139613670431
7164475 11 18336547230634854716
7237137 82 18338239365981725852
81228 2 18335691802046035049

>  <PUBCHEM_SHAPE_MULTIPOLES>  (1) 
463.37
10.34
4.39
1.19
18.65
0.29
0
-0.05
0.03
-8.92
0.01
-1.06
0.01
-0.79

>  <PUBCHEM_SHAPE_SELFOVERLAP>  (1) 
1039.171

>  <PUBCHEM_SHAPE_VOLUME>  (1) 
246

>  <PUBCHEM_COORDINATE_TYPE>  (1) 
2
5
10

$$$$
