10239
     RDKit          3D

 20 22  0  0  0  0  0  0  0  0999 V2000
   -0.7459    2.2330   -0.0388 O   0  0  0  0  0  0  0  0  0  0  0  0
    2.2991    2.7039    1.2049 O   0  0  0  0  0  0  0  0  0  0  0  0
    2.3940    2.8443   -1.0617 O   0  0  0  0  0  0  0  0  0  0  0  0
   -0.1833   -1.3704    0.0043 N   0  0  0  0  0  0  0  0  0  0  0  0
    1.9518   -0.2530   -0.0163 C   0  0  0  0  0  0  0  0  0  0  0  0
    1.2965    0.9856   -0.0299 C   0  0  0  0  0  0  0  0  0  0  0  0
   -0.7768   -0.1550   -0.0092 C   0  0  0  0  0  0  0  0  0  0  0  0
    1.1622   -1.4219    0.0008 C   0  0  0  0  0  0  0  0  0  0  0  0
   -0.0898    1.0419   -0.0262 C   0  0  0  0  0  0  0  0  0  0  0  0
   -2.2217   -0.2056   -0.0029 C   0  0  0  0  0  0  0  0  0  0  0  0
    3.3541   -0.3439   -0.0196 C   0  0  0  0  0  0  0  0  0  0  0  0
    1.8137   -2.6521    0.0142 C   0  0  0  0  0  0  0  0  0  0  0  0
    3.9792   -1.5875   -0.0060 C   0  0  0  0  0  0  0  0  0  0  0  0
    3.2078   -2.7428    0.0109 C   0  0  0  0  0  0  0  0  0  0  0  0
   -2.9248   -0.2446   -1.2077 C   0  0  0  0  0  0  0  0  0  0  0  0
   -2.9150   -0.2158    1.2080 C   0  0  0  0  0  0  0  0  0  0  0  0
    2.0376    2.2463   -0.0469 C   0  0  0  0  0  0  0  0  0  0  0  0
   -4.3188   -0.2935   -1.2016 C   0  0  0  0  0  0  0  0  0  0  0  0
   -4.3090   -0.2648    1.2142 C   0  0  0  0  0  0  0  0  0  0  0  0
   -5.0109   -0.3038    0.0094 C   0  0  0  0  0  0  0  0  0  0  0  0
  1  9  1  0
  2 17  1  0
  3 17  2  0
  4  7  2  0
  4  8  1  0
  5  6  1  0
  5  8  2  0
  5 11  1  0
  6  9  2  0
  6 17  1  0
  7  9  1  0
  7 10  1  0
  8 12  1  0
 10 15  2  0
 10 16  1  0
 11 13  2  0
 12 14  2  0
 13 14  1  0
 15 18  1  0
 16 19  2  0
 18 20  2  0
 19 20  1  0
M  END
>  <PUBCHEM_COMPOUND_CID>  (1) 
10239

>  <PUBCHEM_CONFORMER_RMSD>  (1) 
0.6

>  <PUBCHEM_CONFORMER_DIVERSEORDER>  (1) 
1
2
3

>  <PUBCHEM_MMFF94_PARTIAL_CHARGES>  (1) 
29
1 -0.53
11 -0.15
12 -0.15
13 -0.15
14 -0.15
15 -0.15
16 -0.15
17 0.63
18 -0.15
19 -0.15
2 -0.65
20 -0.15
21 0.15
22 0.15
23 0.15
24 0.15
25 0.15
26 0.15
27 0.15
28 0.15
29 0.15
3 -0.57
30 0.45
31 0.5
4 -0.62
6 0.09
7 0.31
8 0.31
9 0.08

>  <PUBCHEM_EFFECTIVE_ROTOR_COUNT>  (1) 
2

>  <PUBCHEM_PHARMACOPHORE_FEATURES>  (1) 
8
1 1 donor
1 2 acceptor
1 3 acceptor
1 4 acceptor
3 2 3 17 anion
6 10 15 16 18 19 20 rings
6 4 5 6 7 8 9 rings
6 5 8 11 12 13 14 rings

>  <PUBCHEM_HEAVY_ATOM_COUNT>  (1) 
20

>  <PUBCHEM_ATOM_DEF_STEREO_COUNT>  (1) 
0

>  <PUBCHEM_ATOM_UDEF_STEREO_COUNT>  (1) 
0

>  <PUBCHEM_BOND_DEF_STEREO_COUNT>  (1) 
0

>  <PUBCHEM_BOND_UDEF_STEREO_COUNT>  (1) 
0

>  <PUBCHEM_ISOTOPIC_ATOM_COUNT>  (1) 
0

>  <PUBCHEM_COMPONENT_COUNT>  (1) 
1

>  <PUBCHEM_CACTVS_TAUTO_COUNT>  (1) 
4

>  <PUBCHEM_CONFORMER_ID>  (1) 
000027FF00000001

>  <PUBCHEM_MMFF94_ENERGY>  (1) 
73.0622

>  <PUBCHEM_FEATURE_SELFOVERLAP>  (1) 
40.684

>  <PUBCHEM_SHAPE_FINGERPRINT>  (1) 
10411042 1 18122344584385414990
10967382 1 18410575110897158326
11471102 20 18409166614642174910
11796584 16 16588300527867260570
12236239 1 17775283859689841607
12553582 1 18340769234842210038
12707595 3 18188207602515115779
13009979 54 17774731882966567747
13134695 92 18410005499222607926
13140716 1 18266737072745048794
13533116 47 18341617053445027675
13544653 18 18264210214272003846
13862211 1 18338513041699175338
14178342 30 17910945065335099985
14347332 77 17909276776428489334
14790565 3 18121512507507669900
15042514 8 17545884828229054546
16945 1 18410575080679549366
17357779 13 18261382296303570501
17818456 19 17558843784333647297
1813 80 18057335997820654638
18186145 218 18340211902679248461
18222031 100 18272364218389562438
18785283 64 18115594884244024780
19591789 44 17687761844654329996
19784866 34 18124597749634651529
200 152 18272081665839913759
20645477 70 18334287699827262911
21029758 11 18339637837513839290
21041028 32 18269562649692282720
21065201 7 16660361485433903091
21267235 1 18339651023153784422
21641784 216 17970651605499779068
22112679 90 17418093230666399953
221490 88 18335140860499296421
22182313 1 18189595216576023644
2255824 54 18413111688338115414
23175994 123 18261680251207224879
2334 1 17978228593134272382
23402539 116 18196365927591320014
23559900 14 18187083970334706777
2748010 2 18048607202872881798
3091708 16 9214877768802261472
312423 11 18201170896704949273
458136 41 18191881216950295684
474 4 18198054974687465112
5104073 3 18051967023024774762
58807428 26 18196071460707330560
5895379 119 15482131400118438585
602551 16 15194989600871679903
6049 1 17967531259908338413
7364860 26 18341328968086198432
7471813 234 17988348300466566321
7495541 125 17967823759586394115
7615 1 17917713500534733497
77492 1 17775568654554796879
81228 2 17546451076964993186
8272917 22 18411142450148855357
84936 182 17915737780665337313
9709674 26 18260548952732193523
9971528 1 18201998798785299010
9981440 41 17551774246277956576

>  <PUBCHEM_SHAPE_MULTIPOLES>  (1) 
389
8.27
2.85
1
7.47
1.21
-0.02
-2.91
-0.01
-4.24
0
0.89
0.17
-0.01

>  <PUBCHEM_SHAPE_SELFOVERLAP>  (1) 
874.632

>  <PUBCHEM_SHAPE_VOLUME>  (1) 
204.6

>  <PUBCHEM_COORDINATE_TYPE>  (1) 
2
5
10

$$$$
