10242
     RDKit          3D

 15 17  0  0  1  0  0  0  0  0999 V2000
   -3.0393    1.4830   -1.0674 O   0  0  0  0  0  0  0  0  0  0  0  0
    0.1300   -2.6374   -0.2032 O   0  0  0  0  0  0  0  0  0  0  0  0
   -1.1648   -0.7302    0.0489 N   0  0  0  0  0  0  0  0  0  0  0  0
   -0.2226    1.4522    0.1917 N   0  0  0  0  0  0  0  0  0  0  0  0
   -3.3698   -0.2375    0.6278 C   0  0  0  0  0  0  0  0  0  0  0  0
   -2.6757    1.0680    0.2354 C   0  0  0  0  0  0  0  0  0  0  0  0
   -2.4842   -1.3216    0.0293 C   0  0  0  0  0  0  0  0  0  0  0  0
   -1.2361    0.6536    0.1659 C   0  0  0  0  0  0  0  0  0  0  0  0
    0.0242   -1.4241   -0.0708 C   0  0  0  0  0  0  0  0  0  0  0  0
    1.2221   -0.5457   -0.0303 C   0  0  0  0  0  0  0  0  0  0  0  0
    1.0490    0.8463    0.0993 C   0  0  0  0  0  0  0  0  0  0  0  0
    2.5008   -1.1038   -0.1218 C   0  0  0  0  0  0  0  0  0  0  0  0
    2.1848    1.6627    0.1351 C   0  0  0  0  0  0  0  0  0  0  0  0
    3.6193   -0.2725   -0.0839 C   0  0  0  0  0  0  0  0  0  0  0  0
    3.4624    1.1069    0.0441 C   0  0  0  0  0  0  0  0  0  0  0  0
  1  6  1  0
  2  9  2  0
  3  7  1  0
  3  8  1  0
  3  9  1  0
  4  8  2  0
  4 11  1  0
  5  6  1  0
  5  7  1  0
  6  8  1  0
  9 10  1  0
 10 11  2  0
 10 12  1  0
 11 13  1  0
 12 14  2  0
 13 15  2  0
 14 15  1  0
M  END
>  <PUBCHEM_COMPOUND_CID>  (1) 
10242

>  <PUBCHEM_CONFORMER_RMSD>  (1) 
0.4

>  <PUBCHEM_CONFORMER_DIVERSEORDER>  (1) 
2
1

>  <PUBCHEM_MMFF94_PARTIAL_CHARGES>  (1) 
19
1 -0.68
10 0.09
11 0.18
12 -0.15
13 -0.15
14 -0.15
15 -0.15
2 -0.57
21 0.4
22 0.15
23 0.15
24 0.15
25 0.15
3 -0.42
4 -0.63
6 0.34
7 0.3
8 0.45
9 0.54

>  <PUBCHEM_EFFECTIVE_ROTOR_COUNT>  (1) 
0.6

>  <PUBCHEM_PHARMACOPHORE_FEATURES>  (1) 
6
1 1 acceptor
1 1 donor
1 2 acceptor
5 3 5 6 7 8 rings
6 10 11 12 13 14 15 rings
6 3 4 8 9 10 11 rings

>  <PUBCHEM_HEAVY_ATOM_COUNT>  (1) 
15

>  <PUBCHEM_ATOM_DEF_STEREO_COUNT>  (1) 
0

>  <PUBCHEM_ATOM_UDEF_STEREO_COUNT>  (1) 
1

>  <PUBCHEM_BOND_DEF_STEREO_COUNT>  (1) 
0

>  <PUBCHEM_BOND_UDEF_STEREO_COUNT>  (1) 
0

>  <PUBCHEM_ISOTOPIC_ATOM_COUNT>  (1) 
0

>  <PUBCHEM_COMPONENT_COUNT>  (1) 
1

>  <PUBCHEM_CACTVS_TAUTO_COUNT>  (1) 
7

>  <PUBCHEM_CONFORMER_ID>  (1) 
0000280200000002

>  <PUBCHEM_MMFF94_ENERGY>  (1) 
35.4878

>  <PUBCHEM_FEATURE_SELFOVERLAP>  (1) 
30.58

>  <PUBCHEM_SHAPE_FINGERPRINT>  (1) 
10411042 1 15601734489304746044
10608611 8 18409727374136174256
10922523 26 18409169917519433476
10967382 1 18411984641548378106
11132069 177 18342170068574389394
11471102 20 18340204094486719901
11543360 7 15195276573311628728
12032990 46 18411428314408198962
13140716 1 18411702062643649584
13380535 76 18409727327112872235
13897977 150 18410854317793598053
14144814 61 18411419535605731416
14325111 11 18411139151450629928
15196674 1 18411703200846905882
15219456 202 18336266760559145697
15309172 13 18341059574504422963
15536298 74 18272373083570715744
15775835 57 18411989086712863992
16945 1 18196094347870521578
17844478 74 18114753719241413361
18186145 218 18343590624659988828
193761 8 17547012927317161312
200 152 18060411439792258413
20201158 50 18339643334744956519
20510252 161 18272938262058633553
20645476 183 17896337955045567374
20645477 70 18270396084185966391
21267235 1 18339654411566177482
21501502 16 18197216060527232894
2334 1 18339642346876059208
23402539 116 18272643559046595228
23402655 69 18269541759852362261
23419403 2 16535606274133782800
23463225 33 18408605851053739714
23493267 7 17822290150023697977
23559900 14 18201445822548006716
25 1 18264482880497448909
2748010 2 18411140250840743540
335352 9 18123191195068006118
5104073 3 18410856559755880600
528886 8 18412541002963854322
53812653 166 18343301487487989672
63268167 104 18342461421738549640
69090 78 18270960249356727703
7364860 26 18197500614790201710
81228 2 17691676101485570923
8809292 202 18334022708587115338

>  <PUBCHEM_SHAPE_MULTIPOLES>  (1) 
286.99
5.79
2.04
0.69
0.45
0.58
0.04
-1.18
-0.03
-0.03
0.15
-0.26
-0.1
0.32

>  <PUBCHEM_SHAPE_SELFOVERLAP>  (1) 
637.933

>  <PUBCHEM_SHAPE_VOLUME>  (1) 
153.9

>  <PUBCHEM_COORDINATE_TYPE>  (1) 
2
5
10

$$$$
