10246
     RDKit          3D

 18 21  0  0  1  0  0  0  0  0999 V2000
    2.3805   -2.5409   -0.1440 O   0  0  0  0  0  0  0  0  0  0  0  0
   -1.5010    0.6014    0.5462 N   0  0  0  0  0  0  0  0  0  0  0  0
    1.3857   -0.4357   -0.3978 N   0  0  0  0  0  0  0  0  0  0  0  0
   -0.7414   -0.0444   -1.7693 C   0  0  0  0  0  0  0  0  0  0  0  0
   -1.9138    0.0197   -0.7470 C   0  0  0  0  0  0  0  0  0  0  0  0
    0.3341    1.8396   -0.6256 C   0  0  0  0  0  0  0  0  0  0  0  0
   -0.1733    1.3567   -1.9815 C   0  0  0  0  0  0  0  0  0  0  0  0
   -0.8474    1.9092    0.3652 C   0  0  0  0  0  0  0  0  0  0  0  0
   -2.5648   -1.3603   -0.5360 C   0  0  0  0  0  0  0  0  0  0  0  0
    0.4281   -0.9617   -1.3783 C   0  0  0  0  0  0  0  0  0  0  0  0
   -2.6339    0.7278    1.4752 C   0  0  0  0  0  0  0  0  0  0  0  0
    1.4180    0.9266   -0.0838 C   0  0  0  0  0  0  0  0  0  0  0  0
   -3.7436   -1.2743    0.4286 C   0  0  0  0  0  0  0  0  0  0  0  0
   -3.3055   -0.6202    1.7325 C   0  0  0  0  0  0  0  0  0  0  0  0
    2.3835    1.4132    0.7148 C   0  0  0  0  0  0  0  0  0  0  0  0
    2.3386   -1.3373    0.1113 C   0  0  0  0  0  0  0  0  0  0  0  0
    3.3805    0.5453    1.2747 C   0  0  0  0  0  0  0  0  0  0  0  0
    3.3757   -0.7646    1.0148 C   0  0  0  0  0  0  0  0  0  0  0  0
  1 16  2  0
  2  5  1  0
  2  8  1  0
  2 11  1  0
  3 10  1  0
  3 12  1  0
  3 16  1  0
  4  5  1  0
  4  7  1  0
  4 10  1  0
  5  9  1  0
  6  7  1  0
  6  8  1  0
  6 12  1  0
  9 13  1  0
 11 14  1  0
 12 15  2  0
 13 14  1  0
 15 17  1  0
 16 18  1  0
 17 18  2  0
M  END
>  <PUBCHEM_COMPOUND_CID>  (1) 
10246

>  <PUBCHEM_CONFORMER_RMSD>  (1) 
0.6

>  <PUBCHEM_CONFORMER_DIVERSEORDER>  (1) 
1
4
3
2

>  <PUBCHEM_MMFF94_PARTIAL_CHARGES>  (1) 
16
1 -0.57
10 0.3
11 0.27
12 -0.03
15 -0.15
16 0.62
17 -0.15
18 -0.14
2 -0.81
3 -0.47
36 0.15
37 0.15
38 0.15
5 0.27
6 0.14
8 0.27

>  <PUBCHEM_EFFECTIVE_ROTOR_COUNT>  (1) 
1.4

>  <PUBCHEM_PHARMACOPHORE_FEATURES>  (1) 
6
1 1 acceptor
1 2 cation
6 2 4 5 6 7 8 rings
6 2 5 9 11 13 14 rings
6 3 12 15 16 17 18 rings
6 3 4 6 7 10 12 rings

>  <PUBCHEM_HEAVY_ATOM_COUNT>  (1) 
18

>  <PUBCHEM_ATOM_DEF_STEREO_COUNT>  (1) 
1

>  <PUBCHEM_ATOM_UDEF_STEREO_COUNT>  (1) 
2

>  <PUBCHEM_BOND_DEF_STEREO_COUNT>  (1) 
0

>  <PUBCHEM_BOND_UDEF_STEREO_COUNT>  (1) 
0

>  <PUBCHEM_ISOTOPIC_ATOM_COUNT>  (1) 
0

>  <PUBCHEM_COMPONENT_COUNT>  (1) 
1

>  <PUBCHEM_CACTVS_TAUTO_COUNT>  (1) 
1

>  <PUBCHEM_CONFORMER_ID>  (1) 
0000280600000001

>  <PUBCHEM_MMFF94_ENERGY>  (1) 
32.8838

>  <PUBCHEM_FEATURE_SELFOVERLAP>  (1) 
31.97

>  <PUBCHEM_SHAPE_FINGERPRINT>  (1) 
10165383 225 13325465863685194561
10498660 4 11311777207693354019
10948715 1 13830139415869598601
11086676 242 18341620299696290410
11471102 22 18410287025754795618
11582403 64 15085420088598359045
12202030 40 17604985923511463578
12251169 10 18131354094015296787
12363563 72 17023180556627594067
12382932 28 18060424616256212793
12400797 245 18341897393716746682
12400797 292 11602822418952250802
12423570 1 10890038618694954693
12491281 212 10375870787925649219
12633257 1 17700708263158665515
12716301 132 17410529513726846365
13294875 104 11743564228545657100
13299463 15 11387243343078887012
13764800 53 15051738616029163571
14115302 16 13984649374279612731
14223421 5 18341607075618592962
14787075 74 16548312724483701213
14817 1 17760106020153163781
15309172 13 18059562603577493406
15422964 175 18333732394562252586
15775835 57 16630526266798425418
16752209 62 13985476220336247279
16945 1 18339359768087699812
17834072 14 18411974759361308629
18186145 218 9511465536725412354
18981168 100 12174754343238307890
19862831 5 11891325456955293171
20361792 2 17168153333766353101
21524375 3 12175623957982903525
21731516 1 16733279966415346969
22112679 90 15837875295188536669
22445834 79 18273212023284330811
22802520 49 12036031117314416013
23382010 3 8070022238299225205
23402539 116 11242509126321281896
23419403 2 16590250142361202292
23557571 272 14851880408648999444
23559900 14 15358515550445648824
25 1 10951785113046507036
2748010 2 18055615232495815644
3797600 57 16988005036313508515
427121 178 15697180541863506207
495365 180 14906240105366569169
5262128 65 13623818172199928898
549884 4 8502382100377969235
568465 68 18261946470153846312
576247 118 17458923551549861141
5845 1 12099566465139292517
598444 67 17329152373147738030
6442390 28 13182741506732653085
7097593 13 18129949974616954610
81228 2 17532363163100959029

>  <PUBCHEM_SHAPE_MULTIPOLES>  (1) 
354.6
5.65
2.03
1.72
0.58
0.19
-0.23
2.4
3.28
-0.67
-0.19
0.59
-0.23
0.13

>  <PUBCHEM_SHAPE_SELFOVERLAP>  (1) 
768.996

>  <PUBCHEM_SHAPE_VOLUME>  (1) 
187.5

>  <PUBCHEM_COORDINATE_TYPE>  (1) 
2
5
10

$$$$
