10243
     RDKit          3D

 13 14  0  0  0  0  0  0  0  0999 V2000
    2.6565   -0.9667   -1.2004 O   0  0  0  0  0  0  0  0  0  0  0  0
    2.7816   -1.0739    1.0667 O   0  0  0  0  0  0  0  0  0  0  0  0
   -1.0158    2.0816   -0.0044 N   0  0  0  0  0  0  0  0  0  0  0  0
   -0.2352   -0.1982    0.0172 C   0  0  0  0  0  0  0  0  0  0  0  0
   -1.2708    0.7594   -0.0004 C   0  0  0  0  0  0  0  0  0  0  0  0
    1.0885    0.2616    0.0304 C   0  0  0  0  0  0  0  0  0  0  0  0
   -0.5376   -1.5705    0.0210 C   0  0  0  0  0  0  0  0  0  0  0  0
   -2.5855    0.3021   -0.0134 C   0  0  0  0  0  0  0  0  0  0  0  0
    1.3544    1.6234    0.0262 C   0  0  0  0  0  0  0  0  0  0  0  0
   -1.8615   -2.0000    0.0076 C   0  0  0  0  0  0  0  0  0  0  0  0
   -2.8865   -1.0622   -0.0097 C   0  0  0  0  0  0  0  0  0  0  0  0
    0.2756    2.4840    0.0088 C   0  0  0  0  0  0  0  0  0  0  0  0
    2.2362   -0.6405    0.0503 C   0  0  0  0  0  0  0  0  0  0  0  0
  1 13  1  0
  2 13  2  0
  3  5  2  0
  3 12  1  0
  4  5  1  0
  4  6  2  0
  4  7  1  0
  5  8  1  0
  6  9  1  0
  6 13  1  0
  7 10  2  0
  8 11  2  0
  9 12  2  0
 10 11  1  0
M  END
>  <PUBCHEM_COMPOUND_CID>  (1) 
10243

>  <PUBCHEM_CONFORMER_RMSD>  (1) 
0.4

>  <PUBCHEM_CONFORMER_DIVERSEORDER>  (1) 
1
3
2

>  <PUBCHEM_MMFF94_PARTIAL_CHARGES>  (1) 
19
1 -0.65
10 -0.15
11 -0.15
12 0.16
13 0.63
14 0.15
15 0.15
16 0.15
17 0.15
18 0.15
19 0.15
2 -0.57
20 0.5
3 -0.62
5 0.31
6 0.09
7 -0.15
8 -0.15
9 -0.15

>  <PUBCHEM_EFFECTIVE_ROTOR_COUNT>  (1) 
1

>  <PUBCHEM_PHARMACOPHORE_FEATURES>  (1) 
6
1 1 acceptor
1 2 acceptor
1 3 acceptor
3 1 2 13 anion
6 3 4 5 6 9 12 rings
6 4 5 7 8 10 11 rings

>  <PUBCHEM_HEAVY_ATOM_COUNT>  (1) 
13

>  <PUBCHEM_ATOM_DEF_STEREO_COUNT>  (1) 
0

>  <PUBCHEM_ATOM_UDEF_STEREO_COUNT>  (1) 
0

>  <PUBCHEM_BOND_DEF_STEREO_COUNT>  (1) 
0

>  <PUBCHEM_BOND_UDEF_STEREO_COUNT>  (1) 
0

>  <PUBCHEM_ISOTOPIC_ATOM_COUNT>  (1) 
0

>  <PUBCHEM_COMPONENT_COUNT>  (1) 
1

>  <PUBCHEM_CACTVS_TAUTO_COUNT>  (1) 
1

>  <PUBCHEM_CONFORMER_ID>  (1) 
0000280300000001

>  <PUBCHEM_MMFF94_ENERGY>  (1) 
44.6458

>  <PUBCHEM_FEATURE_SELFOVERLAP>  (1) 
30.535

>  <PUBCHEM_SHAPE_FINGERPRINT>  (1) 
10967382 1 17906171011828116123
11206711 2 18335699382499698005
12423570 1 12097724778856997432
12524768 44 18269558393495502887
13380535 76 17761204823053053443
161256 15 18266181810403265917
16945 1 18338798901356706755
17990270 104 18269278048005559295
193761 8 18338516455739005897
20645477 70 17979914144755728047
20871998 184 18272362023745325990
20871998 22 18341619234592088014
21501502 16 18267303325459501735
22802520 49 17842285756991427334
2334 1 18266458891865549657
23419403 2 17408748502548093833
23552423 10 18045783643895534791
23559900 14 17983015549620215110
241688 4 18410011035361807353
2748010 2 18338512049207665597
63268167 104 18266180719840132561
7364860 26 18055638570826180608
81228 2 18267869384642360416

>  <PUBCHEM_SHAPE_MULTIPOLES>  (1) 
250.81
3.88
2.41
0.75
0.28
0.98
0.03
-1.8
0
-0.21
-0.02
-0.37
-0.2
0

>  <PUBCHEM_SHAPE_SELFOVERLAP>  (1) 
554.774

>  <PUBCHEM_SHAPE_VOLUME>  (1) 
134.3

>  <PUBCHEM_COORDINATE_TYPE>  (1) 
2
5
10

$$$$
