10247
     RDKit          3D

 22 25  0  0  0  0  0  0  0  0999 V2000
   -0.2831    0.1194    0.5457 N   0  0  0  0  0  0  0  0  0  0  0  0
    0.2828   -0.1197   -0.5450 N   0  0  0  0  0  0  0  0  0  0  0  0
   -2.6960   -0.0858    0.1692 C   0  0  0  0  0  0  0  0  0  0  0  0
    2.6958    0.0858   -0.1692 C   0  0  0  0  0  0  0  0  0  0  0  0
   -3.9385    0.5496   -0.0658 C   0  0  0  0  0  0  0  0  0  0  0  0
    3.9385   -0.5494    0.0655 C   0  0  0  0  0  0  0  0  0  0  0  0
   -1.5398    0.6988    0.3119 C   0  0  0  0  0  0  0  0  0  0  0  0
    1.5413   -0.6997   -0.3105 C   0  0  0  0  0  0  0  0  0  0  0  0
   -2.6462   -1.4867    0.2544 C   0  0  0  0  0  0  0  0  0  0  0  0
    2.6458    1.4867   -0.2550 C   0  0  0  0  0  0  0  0  0  0  0  0
   -3.9885    1.9506   -0.1507 C   0  0  0  0  0  0  0  0  0  0  0  0
    3.9885   -1.9502    0.1517 C   0  0  0  0  0  0  0  0  0  0  0  0
   -5.0948   -0.2347   -0.2085 C   0  0  0  0  0  0  0  0  0  0  0  0
    5.0947    0.2351    0.2073 C   0  0  0  0  0  0  0  0  0  0  0  0
   -1.6078    2.0896    0.2243 C   0  0  0  0  0  0  0  0  0  0  0  0
    1.6077   -2.0897   -0.2227 C   0  0  0  0  0  0  0  0  0  0  0  0
   -2.8299    2.7143   -0.0064 C   0  0  0  0  0  0  0  0  0  0  0  0
    2.8298   -2.7141    0.0084 C   0  0  0  0  0  0  0  0  0  0  0  0
   -3.8049   -2.2503    0.1099 C   0  0  0  0  0  0  0  0  0  0  0  0
    3.8046    2.2504   -0.1120 C   0  0  0  0  0  0  0  0  0  0  0  0
   -5.0268   -1.6255   -0.1213 C   0  0  0  0  0  0  0  0  0  0  0  0
    5.0267    1.6257    0.1188 C   0  0  0  0  0  0  0  0  0  0  0  0
  1  2  2  0
  1  7  1  0
  2  8  1  0
  3  5  1  0
  3  7  1  0
  3  9  2  0
  4  6  1  0
  4  8  1  0
  4 10  2  0
  5 11  1  0
  5 13  2  0
  6 12  1  0
  6 14  2  0
  7 15  2  0
  8 16  2  0
  9 19  1  0
 10 20  1  0
 11 17  2  0
 12 18  2  0
 13 21  1  0
 14 22  1  0
 15 17  1  0
 16 18  1  0
 19 21  2  0
 20 22  2  0
M  END
>  <PUBCHEM_COMPOUND_CID>  (1) 
10247

>  <PUBCHEM_CONFORMER_RMSD>  (1) 
0.6

>  <PUBCHEM_CONFORMER_DIVERSEORDER>  (1) 
1
2
3
6
5
4

>  <PUBCHEM_MMFF94_PARTIAL_CHARGES>  (1) 
32
1 -0.18
10 -0.15
11 -0.15
12 -0.15
13 -0.15
14 -0.15
15 -0.15
16 -0.15
17 -0.15
18 -0.15
19 -0.15
2 -0.18
20 -0.15
21 -0.15
22 -0.15
23 0.15
24 0.15
25 0.15
26 0.15
27 0.15
28 0.15
29 0.15
30 0.15
31 0.15
32 0.15
33 0.15
34 0.15
35 0.15
36 0.15
7 0.18
8 0.18
9 -0.15

>  <PUBCHEM_EFFECTIVE_ROTOR_COUNT>  (1) 
2

>  <PUBCHEM_PHARMACOPHORE_FEATURES>  (1) 
4
6 3 5 7 11 15 17 rings
6 3 5 9 13 19 21 rings
6 4 6 10 14 20 22 rings
6 4 6 8 12 16 18 rings

>  <PUBCHEM_HEAVY_ATOM_COUNT>  (1) 
22

>  <PUBCHEM_ATOM_DEF_STEREO_COUNT>  (1) 
0

>  <PUBCHEM_ATOM_UDEF_STEREO_COUNT>  (1) 
0

>  <PUBCHEM_BOND_DEF_STEREO_COUNT>  (1) 
0

>  <PUBCHEM_BOND_UDEF_STEREO_COUNT>  (1) 
0

>  <PUBCHEM_ISOTOPIC_ATOM_COUNT>  (1) 
0

>  <PUBCHEM_COMPONENT_COUNT>  (1) 
1

>  <PUBCHEM_CACTVS_TAUTO_COUNT>  (1) 
1

>  <PUBCHEM_CONFORMER_ID>  (1) 
0000280700000001

>  <PUBCHEM_MMFF94_ENERGY>  (1) 
71.4321

>  <PUBCHEM_FEATURE_SELFOVERLAP>  (1) 
20.352

>  <PUBCHEM_SHAPE_FINGERPRINT>  (1) 
10090160 65 18262513818196164998
10366900 7 18336274534529073080
10595046 47 18410574011000519117
10616163 171 18412827984241982935
10835480 77 18336537279401735029
11370993 70 18408884023000522946
11405975 8 18338799987856858473
11578080 2 17314772036725246365
12107183 9 17833548990214958938
13167823 11 18410854339147336094
13224815 77 18342179959562312042
13583140 156 17988348326130855592
13631057 29 18199749309627264555
14289901 80 18410576175600596706
14341114 176 18411143502241814852
14528608 73 18410858802066425012
15196674 1 18410856538164953093
15927050 60 14161142503871175830
15961568 22 17894634798760537052
17349148 13 17821733865811917077
17492 89 18411420566219307210
17844677 252 18340494369666634802
18681886 176 18412823625504129976
200 152 18272087205962428321
20645477 70 18343304730346735598
20715895 44 18051689937151289761
21033648 144 18337664200957088324
21065198 57 18266459806466782406
21267235 1 18411146830746757566
21618674 54 18410573968019067737
21673915 165 18409448093977084934
21709351 56 18410007728579692564
21859007 373 17316469610065521909
221490 88 18410582760134056058
22393880 68 18340496569138296742
23402539 116 18334008423847278213
23559900 14 18197775505682099002
239999 70 18273221893889661526
245318 6 17027141139720434516
2838139 119 15194987411218821400
350125 39 18411418445132489436
3545911 37 18410014316695735156
4073 2 18114187457562511898
4214541 1 18338235964346320053
474 4 17822299015226469836
5104073 3 18410857620523092835
5283173 99 18187916249762419085
5312544 6 18118406382826760364
59755656 215 18410298021367088734
67856867 119 18409162212727938584
6823239 73 18057615269980360838
7495541 125 17846774143875952744
77779 3 18411138004551729152
9709674 26 18340211773909792503

>  <PUBCHEM_SHAPE_MULTIPOLES>  (1) 
442.79
12.17
3.06
0.66
0
0
0
0
0
0
0
0
0
0

>  <PUBCHEM_SHAPE_SELFOVERLAP>  (1) 
1001.219

>  <PUBCHEM_SHAPE_VOLUME>  (1) 
229.9

>  <PUBCHEM_COORDINATE_TYPE>  (1) 
2
5
10

$$$$
