10261
     RDKit          3D

 12 12  0  0  0  0  0  0  0  0999 V2000
   -0.4553    2.0583    0.8106 O   0  0  0  0  0  0  0  0  0  0  0  0
   -2.9038    0.1114   -0.8684 C   0  0  0  0  0  0  0  0  0  0  0  0
   -1.9232   -0.8373   -0.2417 C   0  0  0  0  0  0  0  0  0  0  0  0
   -0.9298   -0.2456    0.4346 C   0  0  0  0  0  0  0  0  0  0  0  0
   -2.4015    1.4992   -0.4986 C   0  0  0  0  0  0  0  0  0  0  0  0
   -1.1742    1.2053    0.3104 C   0  0  0  0  0  0  0  0  0  0  0  0
    0.2246   -0.7895    1.1869 C   0  0  0  0  0  0  0  0  0  0  0  0
   -2.1432   -2.3014   -0.4265 C   0  0  0  0  0  0  0  0  0  0  0  0
    1.4633   -0.8905    0.3413 C   0  0  0  0  0  0  0  0  0  0  0  0
    2.5958   -0.2150    0.5882 C   0  0  0  0  0  0  0  0  0  0  0  0
    3.8282   -0.3149   -0.2612 C   0  0  0  0  0  0  0  0  0  0  0  0
    3.8191    0.7199   -1.3755 C   0  0  0  0  0  0  0  0  0  0  0  0
  1  6  2  0
  2  3  1  0
  2  5  1  0
  3  4  2  0
  3  8  1  0
  4  6  1  0
  4  7  1  0
  5  6  1  0
  7  9  1  0
  9 10  2  0
 10 11  1  0
 11 12  1  0
M  END
>  <PUBCHEM_COMPOUND_CID>  (1) 
10261

>  <PUBCHEM_CONFORMER_RMSD>  (1) 
0.6

>  <PUBCHEM_CONFORMER_DIVERSEORDER>  (1) 
4
18
5
21
17
3
20
10
15
11
19
9
1
8
6
2
13
12
7
16
14

>  <PUBCHEM_MMFF94_PARTIAL_CHARGES>  (1) 
13
1 -0.57
10 -0.29
11 0.14
2 0.14
22 0.15
23 0.15
3 -0.28
4 -0.12
5 0.06
6 0.49
7 0.28
8 0.14
9 -0.29

>  <PUBCHEM_EFFECTIVE_ROTOR_COUNT>  (1) 
3.4

>  <PUBCHEM_PHARMACOPHORE_FEATURES>  (1) 
3
1 1 acceptor
1 12 hydrophobe
5 2 3 4 5 6 rings

>  <PUBCHEM_HEAVY_ATOM_COUNT>  (1) 
12

>  <PUBCHEM_ATOM_DEF_STEREO_COUNT>  (1) 
0

>  <PUBCHEM_ATOM_UDEF_STEREO_COUNT>  (1) 
0

>  <PUBCHEM_BOND_DEF_STEREO_COUNT>  (1) 
0

>  <PUBCHEM_BOND_UDEF_STEREO_COUNT>  (1) 
1

>  <PUBCHEM_ISOTOPIC_ATOM_COUNT>  (1) 
0

>  <PUBCHEM_COMPONENT_COUNT>  (1) 
1

>  <PUBCHEM_CACTVS_TAUTO_COUNT>  (1) 
10

>  <PUBCHEM_CONFORMER_ID>  (1) 
0000281500000004

>  <PUBCHEM_MMFF94_ENERGY>  (1) 
2.5123

>  <PUBCHEM_FEATURE_SELFOVERLAP>  (1) 
15.223

>  <PUBCHEM_SHAPE_FINGERPRINT>  (1) 
11127187 94 18343579663840165719
11137873 295 15554176861142721348
12162725 195 18113337514158332926
12897270 3 18272363170480436490
12932764 1 18342175574786110954
13024252 1 17022908947512541587
14123260 362 17386307462030455030
15669948 3 18410282614602193802
15775835 57 17894915092335682892
16945 1 18339343215658034041
18534176 82 18273213084162605359
19765921 60 17749382642039720777
20300324 65 18339932601435946476
20361792 2 14261343640072986666
20645476 183 18187918414061919447
20653085 51 17823138917144439498
20828058 34 18335140856357257866
20871999 31 18340480162273925423
22213442 358 18127965519363852170
22802520 49 17988926626381788730
228727 97 18335136479511315986
23419403 2 14927071714474762921
23557571 272 18130783516616637376
23559900 14 18201145573984077682
2748010 2 17978766224387229251
369184 2 14996283574392496993
5262128 65 18057907855979502260
528716 315 18412265055567965910
84936 31 16198441381637921920

>  <PUBCHEM_SHAPE_MULTIPOLES>  (1) 
241.09
5.99
1.88
1.1
6.19
0.03
0.07
-0.35
2.57
-1.45
0.02
0.39
-0.1
-0.58

>  <PUBCHEM_SHAPE_SELFOVERLAP>  (1) 
479.071

>  <PUBCHEM_SHAPE_VOLUME>  (1) 
145.8

>  <PUBCHEM_COORDINATE_TYPE>  (1) 
2
5
10

$$$$
