10268
     RDKit          3D

  8  8  0  0  0  0  0  0  0  0999 V2000
   -2.0925    0.7000    0.0008 O   0  0  0  0  0  0  0  0  0  0  0  0
    2.0695   -1.1712    0.0012 O   0  0  0  0  0  0  0  0  0  0  0  0
    2.1727    1.0996   -0.0002 O   0  0  0  0  0  0  0  0  0  0  0  0
    0.0451    0.0053   -0.0008 C   0  0  0  0  0  0  0  0  0  0  0  0
   -0.7939   -1.1346   -0.0009 C   0  0  0  0  0  0  0  0  0  0  0  0
   -0.7927    1.0963    0.0002 C   0  0  0  0  0  0  0  0  0  0  0  0
   -2.0845   -0.6589    0.0002 C   0  0  0  0  0  0  0  0  0  0  0  0
    1.4763    0.0636   -0.0004 C   0  0  0  0  0  0  0  0  0  0  0  0
  1  6  1  0
  1  7  1  0
  2  8  1  0
  3  8  2  0
  4  5  1  0
  4  6  2  0
  4  8  1  0
  5  7  2  0
M  END
>  <PUBCHEM_COMPOUND_CID>  (1) 
10268

>  <PUBCHEM_CONFORMER_RMSD>  (1) 
0.4

>  <PUBCHEM_CONFORMER_DIVERSEORDER>  (1) 
1
2

>  <PUBCHEM_MMFF94_PARTIAL_CHARGES>  (1) 
12
1 -0.28
10 0.15
11 0.15
12 0.5
2 -0.65
3 -0.57
4 -0.09
5 -0.15
6 -0.01
7 -0.01
8 0.81
9 0.15

>  <PUBCHEM_EFFECTIVE_ROTOR_COUNT>  (1) 
1

>  <PUBCHEM_PHARMACOPHORE_FEATURES>  (1) 
5
1 1 acceptor
1 2 acceptor
1 3 acceptor
3 2 3 8 anion
5 1 4 5 6 7 rings

>  <PUBCHEM_HEAVY_ATOM_COUNT>  (1) 
8

>  <PUBCHEM_ATOM_DEF_STEREO_COUNT>  (1) 
0

>  <PUBCHEM_ATOM_UDEF_STEREO_COUNT>  (1) 
0

>  <PUBCHEM_BOND_DEF_STEREO_COUNT>  (1) 
0

>  <PUBCHEM_BOND_UDEF_STEREO_COUNT>  (1) 
0

>  <PUBCHEM_ISOTOPIC_ATOM_COUNT>  (1) 
0

>  <PUBCHEM_COMPONENT_COUNT>  (1) 
1

>  <PUBCHEM_CACTVS_TAUTO_COUNT>  (1) 
1

>  <PUBCHEM_CONFORMER_ID>  (1) 
0000281C00000001

>  <PUBCHEM_MMFF94_ENERGY>  (1) 
5.3033

>  <PUBCHEM_FEATURE_SELFOVERLAP>  (1) 
25.429

>  <PUBCHEM_SHAPE_FINGERPRINT>  (1) 
12897270 3 18338800138323203388
14390081 3 18271805782435992344
18185500 45 18265614466650639646
20096714 4 18409730621088803808
21040471 1 18410856551081568453
23552423 10 18261112971662953526
24536 1 18338219527406134536
29004967 10 18189059852949026867
369184 2 18411133649570948635
5084963 1 18271240517394633883

>  <PUBCHEM_SHAPE_MULTIPOLES>  (1) 
147.03
3
1.29
0.58
0.57
0.03
0
0.01
0
0.08
0
-0.03
0.01
0

>  <PUBCHEM_SHAPE_SELFOVERLAP>  (1) 
308.405

>  <PUBCHEM_SHAPE_VOLUME>  (1) 
85.1

>  <PUBCHEM_COORDINATE_TYPE>  (1) 
2
5
10

$$$$
