10264
     RDKit          3D

 11 10  0  0  1  0  0  0  0  0999 V2000
   -0.2129   -1.5140    0.9760 O   0  0  0  0  0  0  0  0  0  0  0  0
    2.5473   -1.1126    0.7194 O   0  0  0  0  0  0  0  0  0  0  0  0
   -0.9726   -0.7390   -1.6077 O   0  0  0  0  0  0  0  0  0  0  0  0
    2.5170    1.7117    0.1647 O   0  0  0  0  0  0  0  0  0  0  0  0
   -2.0985    1.3724    1.0507 O   0  0  0  0  0  0  0  0  0  0  0  0
   -3.1382   -0.2241   -0.1794 O   0  0  0  0  0  0  0  0  0  0  0  0
    0.2806   -0.2976    0.4156 C   0  0  0  0  0  0  0  0  0  0  0  0
    1.6596   -0.5336   -0.2369 C   0  0  0  0  0  0  0  0  0  0  0  0
   -0.7760    0.2187   -0.5750 C   0  0  0  0  0  0  0  0  0  0  0  0
    2.3185    0.7147   -0.8274 C   0  0  0  0  0  0  0  0  0  0  0  0
   -2.1248    0.4033    0.1000 C   0  0  0  0  0  0  0  0  0  0  0  0
  1  7  1  0
  2  8  1  0
  3  9  1  0
  4 10  1  0
  5 11  1  0
  6 11  2  0
  7  8  1  0
  7  9  1  0
  8 10  1  0
  9 11  1  0
M  END
>  <PUBCHEM_COMPOUND_CID>  (1) 
10264

>  <PUBCHEM_CONFORMER_RMSD>  (1) 
0.6

>  <PUBCHEM_CONFORMER_DIVERSEORDER>  (1) 
2
104
132
124
149
94
130
52
51
103
60
120
74
62
144
141
72
117
93
73
98
116
10
136
58
138
127
45
41
119
27
33
59
19
21
118
82
109
122
11
66
107
125
143
1
46
126
18
129
84
112
88
53
114
28
24
96
135
3
89
134
110
102
20
61
13
57
137
131
54
121
85
123
37
55
100
22
133
30
32
106
9
64
43
44
113
99
70
40
8
7
87
63
111
139
56
36
15
81
14
69
142
77
148
34
95
35
83
75
79
6
39
146
4
86
145
42
71
76
5
147
78
49
68
105
38
29
26
91
48
23
140
97
25
108
115
65
16
67
31
92
90
12
17
80
128
47
50
101

>  <PUBCHEM_MMFF94_PARTIAL_CHARGES>  (1) 
16
1 -0.68
10 0.28
11 0.66
17 0.4
18 0.4
19 0.4
2 -0.68
20 0.4
21 0.5
3 -0.68
4 -0.68
5 -0.65
6 -0.57
7 0.28
8 0.28
9 0.34

>  <PUBCHEM_EFFECTIVE_ROTOR_COUNT>  (1) 
4

>  <PUBCHEM_PHARMACOPHORE_FEATURES>  (1) 
11
1 1 acceptor
1 1 donor
1 2 acceptor
1 2 donor
1 3 acceptor
1 3 donor
1 4 acceptor
1 4 donor
1 5 acceptor
1 6 acceptor
3 5 6 11 anion

>  <PUBCHEM_HEAVY_ATOM_COUNT>  (1) 
11

>  <PUBCHEM_ATOM_DEF_STEREO_COUNT>  (1) 
0

>  <PUBCHEM_ATOM_UDEF_STEREO_COUNT>  (1) 
3

>  <PUBCHEM_BOND_DEF_STEREO_COUNT>  (1) 
0

>  <PUBCHEM_BOND_UDEF_STEREO_COUNT>  (1) 
0

>  <PUBCHEM_ISOTOPIC_ATOM_COUNT>  (1) 
0

>  <PUBCHEM_COMPONENT_COUNT>  (1) 
1

>  <PUBCHEM_CACTVS_TAUTO_COUNT>  (1) 
1

>  <PUBCHEM_CONFORMER_ID>  (1) 
0000281800000002

>  <PUBCHEM_MMFF94_ENERGY>  (1) 
15.858

>  <PUBCHEM_FEATURE_SELFOVERLAP>  (1) 
55.912

>  <PUBCHEM_SHAPE_FINGERPRINT>  (1) 
10857977 72 15574727901549265965
12932764 1 18114188497086684205
14325111 11 18186522111519230471
14390081 3 18341618152170743072
15310529 11 18060703904846578375
15775835 57 18340779160290078385
16945 1 18269281161941114967
20653085 51 17774182135404822032
20711985 344 13325761482258411962
21028194 46 18334577949137225276
21040471 1 17968104165432356262
21061003 4 17607235455513981434
23235685 24 17968096481846861180
23552423 10 17916595210946137503
29004967 10 15647349519261314309
3248919 1 18202280264945091919
369184 2 18187080659104825677
5084963 1 18336822000787697417

>  <PUBCHEM_SHAPE_MULTIPOLES>  (1) 
191.16
4.15
1.37
1.09
0.33
0.12
0.22
0.93
-0.2
-0.61
-0.36
0.21
-0.09
-0.46

>  <PUBCHEM_SHAPE_SELFOVERLAP>  (1) 
365.029

>  <PUBCHEM_SHAPE_VOLUME>  (1) 
116.3

>  <PUBCHEM_COORDINATE_TYPE>  (1) 
2
5
10

$$$$
