10288
     RDKit          3D

 18 20  0  0  0  0  0  0  0  0999 V2000
   -0.5318   -2.3408    0.0010 O   0  0  0  0  0  0  0  0  0  0  0  0
    1.9979   -2.6082   -0.0001 O   0  0  0  0  0  0  0  0  0  0  0  0
   -3.0598   -2.0568   -0.0003 O   0  0  0  0  0  0  0  0  0  0  0  0
    0.9091   -0.4274   -0.0002 C   0  0  0  0  0  0  0  0  0  0  0  0
    1.0622    0.9764    0.0001 C   0  0  0  0  0  0  0  0  0  0  0  0
   -1.5266   -0.1619   -0.0001 C   0  0  0  0  0  0  0  0  0  0  0  0
   -1.3736    1.2419    0.0001 C   0  0  0  0  0  0  0  0  0  0  0  0
   -0.3832   -0.9782   -0.0003 C   0  0  0  0  0  0  0  0  0  0  0  0
   -0.0812    1.7928    0.0002 C   0  0  0  0  0  0  0  0  0  0  0  0
    2.3548    1.5265    0.0003 C   0  0  0  0  0  0  0  0  0  0  0  0
    2.0530   -1.2430   -0.0002 C   0  0  0  0  0  0  0  0  0  0  0  0
    3.4803    0.7023    0.0003 C   0  0  0  0  0  0  0  0  0  0  0  0
   -2.8192   -0.7120   -0.0002 C   0  0  0  0  0  0  0  0  0  0  0  0
    3.3296   -0.6807    0.0000 C   0  0  0  0  0  0  0  0  0  0  0  0
   -2.5173    2.0575    0.0002 C   0  0  0  0  0  0  0  0  0  0  0  0
   -3.9447    0.1121   -0.0002 C   0  0  0  0  0  0  0  0  0  0  0  0
   -3.7940    1.4951    0.0000 C   0  0  0  0  0  0  0  0  0  0  0  0
    4.8447    1.3045   -0.0005 C   0  0  0  0  0  0  0  0  0  0  0  0
  1  8  1  0
  2 11  1  0
  3 13  1  0
  4  5  1  0
  4  8  2  0
  4 11  1  0
  5  9  2  0
  5 10  1  0
  6  7  2  0
  6  8  1  0
  6 13  1  0
  7  9  1  0
  7 15  1  0
 10 12  2  0
 11 14  2  0
 12 14  1  0
 12 18  1  0
 13 16  2  0
 15 17  2  0
 16 17  1  0
M  END
>  <PUBCHEM_COMPOUND_CID>  (1) 
10288

>  <PUBCHEM_CONFORMER_RMSD>  (1) 
0.4

>  <PUBCHEM_CONFORMER_DIVERSEORDER>  (1) 
1

>  <PUBCHEM_MMFF94_PARTIAL_CHARGES>  (1) 
23
1 -0.53
10 -0.15
11 0.08
12 -0.14
13 0.08
14 -0.15
15 -0.15
16 -0.15
17 -0.15
18 0.14
19 0.15
2 -0.53
20 0.15
21 0.15
22 0.15
23 0.15
24 0.15
28 0.45
29 0.45
3 -0.53
30 0.45
8 0.08
9 -0.15

>  <PUBCHEM_EFFECTIVE_ROTOR_COUNT>  (1) 
0

>  <PUBCHEM_PHARMACOPHORE_FEATURES>  (1) 
6
1 1 donor
1 2 donor
1 3 donor
6 4 5 10 11 12 14 rings
6 4 5 6 7 8 9 rings
6 6 7 13 15 16 17 rings

>  <PUBCHEM_HEAVY_ATOM_COUNT>  (1) 
18

>  <PUBCHEM_ATOM_DEF_STEREO_COUNT>  (1) 
0

>  <PUBCHEM_ATOM_UDEF_STEREO_COUNT>  (1) 
0

>  <PUBCHEM_BOND_DEF_STEREO_COUNT>  (1) 
0

>  <PUBCHEM_BOND_UDEF_STEREO_COUNT>  (1) 
0

>  <PUBCHEM_ISOTOPIC_ATOM_COUNT>  (1) 
0

>  <PUBCHEM_COMPONENT_COUNT>  (1) 
1

>  <PUBCHEM_CACTVS_TAUTO_COUNT>  (1) 
189

>  <PUBCHEM_CONFORMER_ID>  (1) 
0000283000000001

>  <PUBCHEM_MMFF94_ENERGY>  (1) 
64.1198

>  <PUBCHEM_FEATURE_SELFOVERLAP>  (1) 
30.529

>  <PUBCHEM_SHAPE_FINGERPRINT>  (1) 
10062212 137 18410001152510164242
10411042 1 17257653847046714210
10608611 8 18410571751800482525
10616163 171 18411140280916356455
10863032 1 18412826854417319833
10967382 1 18338516335305341605
10980938 120 18409730634284922594
11132069 177 18410007732384269904
11471102 20 18411133615311606012
12236239 1 17822288037849412168
12403814 3 17603861217384048389
13140716 1 18193561068853730483
13221675 6 18411418440325695804
13380535 76 18409448098446164490
138480 1 17834113044249943842
14144814 61 18410293583964193289
14790565 3 18338247079680393556
15196674 1 18410856546770724932
15219456 202 18411139104100384181
15442244 35 18123187900944218834
15536298 74 18342458102040013964
16945 1 18338517567939882533
17492 89 18410011013961629195
18186145 218 18269278971444691940
19591789 44 18268149953433543450
200 152 18059850688556351845
20510252 161 18272091595197881409
20645477 70 18270961232904219407
21267235 1 18410583876477250407
21501502 16 18410570647961888170
221490 88 18337963298485086354
2334 1 18410855442985228865
23366157 5 18041565715950584754
23402539 116 18340760545959313932
23402655 69 18342451509191797045
23463225 33 18336827494008742453
23559900 14 18270679749997041182
238 59 16165209342873985853
2748010 2 18410295765817986301
3312278 4 18413110571504330073
335352 9 17978509737007942645
34934 24 18410568474961702429
350125 39 18266182927126645185
3545911 37 18410576175632563221
474 4 17604155925524347444
4990 188 18059868246662246076
5104073 3 18410575067557076728
53812653 166 18342453746774721712
58051976 378 18412261735648215908
69090 78 18412540994664128373
7364860 26 18269837519547245198
8809292 202 18334299772816905779
9709674 26 18411423907714029870

>  <PUBCHEM_SHAPE_MULTIPOLES>  (1) 
352.82
7.41
2.47
0.6
1.83
0.83
0
-1.97
0
-0.21
0
0.01
-0.04
0

>  <PUBCHEM_SHAPE_SELFOVERLAP>  (1) 
801.059

>  <PUBCHEM_SHAPE_VOLUME>  (1) 
185.4

>  <PUBCHEM_COORDINATE_TYPE>  (1) 
2
5
10

$$$$
