10283
     RDKit          3D

 11 11  0  0  0  0  0  0  0  0999 V2000
    0.9165   -2.4406   -0.0001 Cl  0  0  0  0  0  0  0  0  0  0  0  0
   -3.5293   -0.0026   -0.0001 O   0  0  0  0  0  0  0  0  0  0  0  0
    2.5257    1.5624   -0.0001 O   0  0  0  0  0  0  0  0  0  0  0  0
    2.7359   -0.6228    0.0002 O   0  0  0  0  0  0  0  0  0  0  0  0
    2.0290    0.4120   -0.0002 N   0  0  0  0  0  0  0  0  0  0  0  0
    0.6120    0.2758    0.0000 C   0  0  0  0  0  0  0  0  0  0  0  0
   -0.0025   -0.9765    0.0000 C   0  0  0  0  0  0  0  0  0  0  0  0
   -0.1650    1.4342    0.0001 C   0  0  0  0  0  0  0  0  0  0  0  0
   -2.1714    0.0882    0.0000 C   0  0  0  0  0  0  0  0  0  0  0  0
   -1.3943   -1.0703    0.0000 C   0  0  0  0  0  0  0  0  0  0  0  0
   -1.5566    1.3403    0.0000 C   0  0  0  0  0  0  0  0  0  0  0  0
  1  7  1  0
  2  9  1  0
  3  5  1  0
  4  5  2  0
  5  6  1  0
  6  7  2  0
  6  8  1  0
  7 10  1  0
  8 11  2  0
  9 10  2  0
  9 11  1  0
M  CHG  2   3  -1   5   1
M  END
>  <PUBCHEM_COMPOUND_CID>  (1) 
10283

>  <PUBCHEM_CONFORMER_RMSD>  (1) 
0.4

>  <PUBCHEM_CONFORMER_DIVERSEORDER>  (1) 
1

>  <PUBCHEM_MMFF94_PARTIAL_CHARGES>  (1) 
15
1 -0.18
10 -0.15
11 -0.15
12 0.15
13 0.15
14 0.15
15 0.45
2 -0.53
3 -0.52
4 -0.52
5 0.91
6 0.13
7 0.18
8 -0.15
9 0.08

>  <PUBCHEM_EFFECTIVE_ROTOR_COUNT>  (1) 
1

>  <PUBCHEM_PHARMACOPHORE_FEATURES>  (1) 
5
1 2 donor
1 3 acceptor
1 3 anion
1 4 acceptor
6 6 7 8 9 10 11 rings

>  <PUBCHEM_HEAVY_ATOM_COUNT>  (1) 
11

>  <PUBCHEM_ATOM_DEF_STEREO_COUNT>  (1) 
0

>  <PUBCHEM_ATOM_UDEF_STEREO_COUNT>  (1) 
0

>  <PUBCHEM_BOND_DEF_STEREO_COUNT>  (1) 
0

>  <PUBCHEM_BOND_UDEF_STEREO_COUNT>  (1) 
0

>  <PUBCHEM_ISOTOPIC_ATOM_COUNT>  (1) 
0

>  <PUBCHEM_COMPONENT_COUNT>  (1) 
1

>  <PUBCHEM_CACTVS_TAUTO_COUNT>  (1) 
5

>  <PUBCHEM_CONFORMER_ID>  (1) 
0000282B00000001

>  <PUBCHEM_MMFF94_ENERGY>  (1) 
37.2715

>  <PUBCHEM_FEATURE_SELFOVERLAP>  (1) 
25.453

>  <PUBCHEM_SHAPE_FINGERPRINT>  (1) 
10219947 1 18408325510048738849
12423570 1 17628342788912015455
12897270 3 18409729538894260309
14325111 11 18410855486088071013
161256 15 18266465304025057847
16945 1 18338517443454441703
19021347 11 18337108964791011418
193761 8 17906453225449628325
19973954 147 18194965128112247113
20201158 50 18336546027817275155
20645476 183 17751094702277967510
20871998 184 17911246335874470398
21040471 1 18266458887538940320
21501502 16 18122345679427203177
23235685 24 18408880767546960421
23402655 69 18195508326503384365
23463225 33 18335135354493686706
23552423 10 18263930934018027319
241688 4 17545602249403408090
2748010 2 18265899253078861927
369184 2 18412261761333363513
5084963 1 18201719526810092304
528886 8 18339074990307297843

>  <PUBCHEM_SHAPE_MULTIPOLES>  (1) 
205.66
3.82
2.05
0.59
0.78
0.66
0
-0.46
0
-0.87
0
0.03
0.02
0

>  <PUBCHEM_SHAPE_SELFOVERLAP>  (1) 
426.197

>  <PUBCHEM_SHAPE_VOLUME>  (1) 
118.9

>  <PUBCHEM_COORDINATE_TYPE>  (1) 
2
5
10

$$$$
