10297
     RDKit          3D

 11 11  0  0  1  0  0  0  0  0999 V2000
   -1.4627   -0.7780   -1.4851 O   0  0  0  0  0  0  0  0  0  0  0  0
   -3.4340    0.6148    0.1154 N   0  0  0  0  0  0  0  0  0  0  0  0
   -1.1151    0.3432   -0.6680 C   0  0  0  0  0  0  0  0  0  0  0  0
   -2.0495    0.4120    0.5609 C   0  0  0  0  0  0  0  0  0  0  0  0
    0.3478    0.1872   -0.3115 C   0  0  0  0  0  0  0  0  0  0  0  0
   -2.0070   -0.8636    1.4042 C   0  0  0  0  0  0  0  0  0  0  0  0
    1.1225    1.3191   -0.1275 C   0  0  0  0  0  0  0  0  0  0  0  0
    0.8784   -1.0840   -0.1781 C   0  0  0  0  0  0  0  0  0  0  0  0
    2.4707    1.1753    0.2005 C   0  0  0  0  0  0  0  0  0  0  0  0
    2.2265   -1.2278    0.1501 C   0  0  0  0  0  0  0  0  0  0  0  0
    3.0225   -0.0981    0.3392 C   0  0  0  0  0  0  0  0  0  0  0  0
  1  3  1  0
  2  4  1  0
  3  4  1  0
  3  5  1  0
  4  6  1  0
  5  7  2  0
  5  8  1  0
  7  9  1  0
  8 10  2  0
  9 11  2  0
 10 11  1  0
M  END
>  <PUBCHEM_COMPOUND_CID>  (1) 
10297

>  <PUBCHEM_CONFORMER_RMSD>  (1) 
0.4

>  <PUBCHEM_CONFORMER_DIVERSEORDER>  (1) 
3
6
2
1
4
5

>  <PUBCHEM_MMFF94_PARTIAL_CHARGES>  (1) 
18
1 -0.68
10 -0.15
11 -0.15
17 0.15
18 0.15
19 0.36
2 -0.99
20 0.36
21 0.4
22 0.15
23 0.15
24 0.15
3 0.42
4 0.27
5 -0.14
7 -0.15
8 -0.15
9 -0.15

>  <PUBCHEM_EFFECTIVE_ROTOR_COUNT>  (1) 
2

>  <PUBCHEM_PHARMACOPHORE_FEATURES>  (1) 
5
1 1 acceptor
1 1 donor
1 2 cation
1 2 donor
6 5 7 8 9 10 11 rings

>  <PUBCHEM_HEAVY_ATOM_COUNT>  (1) 
11

>  <PUBCHEM_ATOM_DEF_STEREO_COUNT>  (1) 
2

>  <PUBCHEM_ATOM_UDEF_STEREO_COUNT>  (1) 
0

>  <PUBCHEM_BOND_DEF_STEREO_COUNT>  (1) 
0

>  <PUBCHEM_BOND_UDEF_STEREO_COUNT>  (1) 
0

>  <PUBCHEM_ISOTOPIC_ATOM_COUNT>  (1) 
0

>  <PUBCHEM_COMPONENT_COUNT>  (1) 
1

>  <PUBCHEM_CACTVS_TAUTO_COUNT>  (1) 
1

>  <PUBCHEM_CONFORMER_ID>  (1) 
0000283900000003

>  <PUBCHEM_MMFF94_ENERGY>  (1) 
21.5017

>  <PUBCHEM_FEATURE_SELFOVERLAP>  (1) 
25.374

>  <PUBCHEM_SHAPE_FINGERPRINT>  (1) 
10219947 1 18343022159963128782
10857977 72 17676490587411559464
12932764 1 18059575823244224208
15775835 57 17917992806030863048
16945 1 18131351886639509276
20201158 50 18186803547646258346
20871998 22 17911521991650666262
21028194 46 15984826991129955185
29004967 10 18261112954714972104
3248919 1 17968092061924495740
369184 2 18410007741184947673
5084963 1 18058714927219779860
63268167 104 18273493477007887600

>  <PUBCHEM_SHAPE_MULTIPOLES>  (1) 
215.52
4.63
1.33
1.04
0.89
0.03
-0.09
-0.26
0.93
-0.51
0.09
0.6
0.22
0.22

>  <PUBCHEM_SHAPE_SELFOVERLAP>  (1) 
438.883

>  <PUBCHEM_SHAPE_VOLUME>  (1) 
125.7

>  <PUBCHEM_COORDINATE_TYPE>  (1) 
2
5
10

$$$$
