10306
     RDKit          3D

 18 19  0  0  1  0  0  0  0  0999 V2000
   -3.6865    0.9064    1.1435 S   0  0  0  0  0  0  0  0  0  0  0  0
    0.1549    0.2138    0.3172 N   0  0  0  0  0  0  0  0  0  0  0  0
    3.3735    2.0451    0.0364 N   0  0  0  0  0  0  0  0  0  0  0  0
    1.1248    1.1143   -0.2589 C   0  0  0  0  0  0  0  0  0  0  0  0
    2.3681    1.1578    0.6200 C   0  0  0  0  0  0  0  0  0  0  0  0
   -0.9304    0.7758    1.1231 C   0  0  0  0  0  0  0  0  0  0  0  0
    0.2430   -1.1728    0.1301 C   0  0  0  0  0  0  0  0  0  0  0  0
   -2.1908    1.0571    0.3501 C   0  0  0  0  0  0  0  0  0  0  0  0
   -0.7029   -2.0248    0.7107 C   0  0  0  0  0  0  0  0  0  0  0  0
    1.2767   -1.7174   -0.6395 C   0  0  0  0  0  0  0  0  0  0  0  0
    3.7325    1.5962   -1.3084 C   0  0  0  0  0  0  0  0  0  0  0  0
    4.5601    2.1042    0.8892 C   0  0  0  0  0  0  0  0  0  0  0  0
   -2.2999    1.4311   -0.9547 C   0  0  0  0  0  0  0  0  0  0  0  0
   -0.6162   -3.4043    0.5237 C   0  0  0  0  0  0  0  0  0  0  0  0
    1.3634   -3.0970   -0.8264 C   0  0  0  0  0  0  0  0  0  0  0  0
    0.4170   -3.9406   -0.2448 C   0  0  0  0  0  0  0  0  0  0  0  0
   -3.6638    1.6041   -1.3288 C   0  0  0  0  0  0  0  0  0  0  0  0
   -4.5234    1.3509   -0.2827 C   0  0  0  0  0  0  0  0  0  0  0  0
  1  8  1  0
  1 18  1  0
  2  4  1  0
  2  6  1  0
  2  7  1  0
  3  5  1  0
  3 11  1  0
  3 12  1  0
  4  5  1  0
  6  8  1  0
  7  9  2  0
  7 10  1  0
  8 13  2  0
  9 14  1  0
 10 15  2  0
 13 17  1  0
 14 16  2  0
 15 16  1  0
 17 18  2  0
M  END
>  <PUBCHEM_COMPOUND_CID>  (1) 
10306

>  <PUBCHEM_CONFORMER_RMSD>  (1) 
0.8

>  <PUBCHEM_CONFORMER_DIVERSEORDER>  (1) 
2
55
82
61
84
66
31
83
91
67
89
43
90
65
77
15
81
42
7
28
17
57
51
74
95
53
92
41
76
18
72
34
75
12
70
68
39
46
94
48
87
85
30
64
49
80
63
29
38
73
47
79
33
37
78
56
88
40
16
50
69
23
9
86
21
59
19
25
52
13
3
71
22
5
4
96
10
11
54
93
60
35
1
58
27
26
44
6
8
20
14
32
24
62
45
36

>  <PUBCHEM_MMFF94_PARTIAL_CHARGES>  (1) 
26
1 -0.08
10 -0.15
11 0.27
12 0.27
13 -0.15
14 -0.15
15 -0.15
16 -0.15
17 -0.15
18 -0.11
2 -0.84
25 0.15
26 0.15
3 -0.81
33 0.15
34 0.15
35 0.15
36 0.15
37 0.15
38 0.15
4 0.37
5 0.27
6 0.55
7 0.1
8 -0.14
9 -0.15

>  <PUBCHEM_EFFECTIVE_ROTOR_COUNT>  (1) 
6

>  <PUBCHEM_PHARMACOPHORE_FEATURES>  (1) 
4
1 2 cation
1 3 cation
5 1 8 13 17 18 rings
6 7 9 10 14 15 16 rings

>  <PUBCHEM_HEAVY_ATOM_COUNT>  (1) 
18

>  <PUBCHEM_ATOM_DEF_STEREO_COUNT>  (1) 
0

>  <PUBCHEM_ATOM_UDEF_STEREO_COUNT>  (1) 
0

>  <PUBCHEM_BOND_DEF_STEREO_COUNT>  (1) 
0

>  <PUBCHEM_BOND_UDEF_STEREO_COUNT>  (1) 
0

>  <PUBCHEM_ISOTOPIC_ATOM_COUNT>  (1) 
0

>  <PUBCHEM_COMPONENT_COUNT>  (1) 
1

>  <PUBCHEM_CACTVS_TAUTO_COUNT>  (1) 
1

>  <PUBCHEM_CONFORMER_ID>  (1) 
0000284200000002

>  <PUBCHEM_MMFF94_ENERGY>  (1) 
53.3057

>  <PUBCHEM_FEATURE_SELFOVERLAP>  (1) 
20.297

>  <PUBCHEM_SHAPE_FINGERPRINT>  (1) 
105312 117 18335425711652988340
10871710 139 16961567442585892468
11833330 49 17615676775351978441
121448 382 18199455735616658165
12553582 1 17402901016533824811
12643181 29 18412549826166629796
12707595 3 17759805845347892235
12730499 353 18336837394631195801
12788726 201 17613158885677612922
13004483 165 17402042791599217354
13052359 8 18265891547949679058
13140716 1 18410578353181086642
13583140 156 16588571110717126457
13681431 1 17835230156336518906
14178000 22 18337098068569764240
15502722 9 18339078168831224581
15842332 3 17630603410978910369
16752209 62 18123742317098439826
17539 30 17837201950100067382
1813 80 17268074545406978879
18915476 22 18337682897418556809
19784866 34 18343582932426783809
20361792 2 17478598019860948671
204376 136 18410291432291384865
20600515 1 16547489722956086144
20645477 70 18194953051360666829
20671657 53 17620187638212313895
21285901 2 17624719116208984182
21499 59 18411695491539293777
21524375 3 18261107516996550008
22182313 1 18265357116584722147
2255824 54 18126283039235604271
22907989 373 17905336469528283052
23114952 82 18045500816147031749
23419403 2 17685261288619100563
23558518 356 17685489145625286816
23559900 14 18049995602622420691
23598288 3 17899421071617664744
23598291 2 17700422373267044401
2748010 2 18264232290456555411
3091708 16 9263902792955719058
4409770 3 18051121794181227678
458136 41 18339656554923390657
474 4 18341324488002694736
474229 33 18336825420140814883
532947 4 18268430123331371158
559249 180 18335695088260324168
6025842 7 18339634526447670669
6049 1 17680444255838686685
621550 34 18261961748033461185
633830 44 17917443015894640560
7364860 26 18196087746753681451
81228 2 17761488501332156472
81539 233 18335416833580806773
84936 182 18200875045966881744
90316 7 17546452640280711746
9862522 239 18264772227848461515

>  <PUBCHEM_SHAPE_MULTIPOLES>  (1) 
364.32
7.15
4.39
1.21
1.35
5.65
-0.1
-8.69
-0.5
-3.1
-0.29
0.24
-0.39
0.97

>  <PUBCHEM_SHAPE_SELFOVERLAP>  (1) 
741.465

>  <PUBCHEM_SHAPE_VOLUME>  (1) 
214

>  <PUBCHEM_COORDINATE_TYPE>  (1) 
2
5
10

$$$$
