10302
     RDKit          3D

 15 16  0  0  1  0  0  0  0  0999 V2000
    2.5470    1.4604    0.3884 O   0  0  0  0  0  0  0  0  0  0  0  0
    2.8342   -1.1832   -0.4100 O   0  0  0  0  0  0  0  0  0  0  0  0
   -3.4057   -0.0203    0.6363 N   0  0  0  0  0  0  0  0  0  0  0  0
   -2.3404    0.9910    0.5010 C   0  0  0  0  0  0  0  0  0  0  0  0
   -0.9626    0.4006    0.2638 C   0  0  0  0  0  0  0  0  0  0  0  0
   -0.8130   -0.9360   -0.1492 C   0  0  0  0  0  0  0  0  0  0  0  0
   -2.0161   -1.8310   -0.2931 C   0  0  0  0  0  0  0  0  0  0  0  0
   -3.3204   -1.0440   -0.4066 C   0  0  0  0  0  0  0  0  0  0  0  0
   -2.7108    2.0104   -0.5829 C   0  0  0  0  0  0  0  0  0  0  0  0
    0.1814    1.1946    0.4393 C   0  0  0  0  0  0  0  0  0  0  0  0
    0.4700   -1.4576   -0.3660 C   0  0  0  0  0  0  0  0  0  0  0  0
    1.4530    0.6688    0.2111 C   0  0  0  0  0  0  0  0  0  0  0  0
    1.5971   -0.6560   -0.1913 C   0  0  0  0  0  0  0  0  0  0  0  0
    3.0027    2.1995   -0.7429 C   0  0  0  0  0  0  0  0  0  0  0  0
    3.4835   -1.7971    0.7021 C   0  0  0  0  0  0  0  0  0  0  0  0
  1 12  1  0
  1 14  1  0
  2 13  1  0
  2 15  1  0
  3  4  1  0
  3  8  1  0
  4  5  1  0
  4  9  1  0
  5  6  2  0
  5 10  1  0
  6  7  1  0
  6 11  1  0
  7  8  1  0
 10 12  2  0
 11 13  2  0
 12 13  1  0
M  END
>  <PUBCHEM_COMPOUND_CID>  (1) 
10302

>  <PUBCHEM_CONFORMER_RMSD>  (1) 
0.6

>  <PUBCHEM_CONFORMER_DIVERSEORDER>  (1) 
1
4
3
2

>  <PUBCHEM_MMFF94_PARTIAL_CHARGES>  (1) 
17
1 -0.36
10 -0.15
11 -0.15
12 0.08
13 0.08
14 0.28
15 0.28
2 -0.36
21 0.36
25 0.15
26 0.15
3 -0.9
4 0.41
5 -0.14
6 -0.14
7 0.14
8 0.27

>  <PUBCHEM_EFFECTIVE_ROTOR_COUNT>  (1) 
2.8

>  <PUBCHEM_PHARMACOPHORE_FEATURES>  (1) 
6
1 1 acceptor
1 2 acceptor
1 3 cation
1 3 donor
6 3 4 5 6 7 8 rings
6 5 6 10 11 12 13 rings

>  <PUBCHEM_HEAVY_ATOM_COUNT>  (1) 
15

>  <PUBCHEM_ATOM_DEF_STEREO_COUNT>  (1) 
0

>  <PUBCHEM_ATOM_UDEF_STEREO_COUNT>  (1) 
1

>  <PUBCHEM_BOND_DEF_STEREO_COUNT>  (1) 
0

>  <PUBCHEM_BOND_UDEF_STEREO_COUNT>  (1) 
0

>  <PUBCHEM_ISOTOPIC_ATOM_COUNT>  (1) 
0

>  <PUBCHEM_COMPONENT_COUNT>  (1) 
1

>  <PUBCHEM_CACTVS_TAUTO_COUNT>  (1) 
1

>  <PUBCHEM_CONFORMER_ID>  (1) 
0000283E00000001

>  <PUBCHEM_MMFF94_ENERGY>  (1) 
53.7514

>  <PUBCHEM_FEATURE_SELFOVERLAP>  (1) 
30.472

>  <PUBCHEM_SHAPE_FINGERPRINT>  (1) 
10608611 8 18411134736224418477
10967382 1 18268710700158406203
11206711 2 18199465656959554437
12251169 10 18411980226306388066
12932764 1 18334586715149600085
13140716 1 18341613685320021857
13380535 21 18269285701605456808
13380535 76 18266740362621289026
14325111 11 18412827992784269313
14576447 43 17626932429232245119
15219456 202 18410008823379848501
15375462 6 18335422421322702957
15442244 35 18338796715334456202
15536298 74 18272653472005090034
15775835 57 18270973447896658393
16945 1 18126573322899848279
17844478 74 18261685843496925649
18186145 218 18342464707372836556
200 152 17774705495045807439
20511035 2 18201145612079522790
20645477 70 18411979169992554567
20711985 365 18411696560990977023
21501502 16 18341613741291798255
21501925 9 18341320146044238906
21524375 3 18124599940610992692
2255824 54 18261115184072309850
2334 1 18341612663112530200
23366157 5 18114181960774161478
23463225 33 18412262830927848362
23532345 88 18334574650876720100
23552423 10 18408885156898126370
23559900 14 18129098910601384230
2748010 2 18342458148894335589
3071541 158 18336830762916782764
5104073 3 18413111675796170683
5255222 1 18128530655698382873
57096353 35 18198903810743877351
57177213 63 18191028009086168164
58051976 378 18268710678689293012
7364860 26 18343585170462849656
74978 22 18336823100267741662
8809292 202 18408891728430503363

>  <PUBCHEM_SHAPE_MULTIPOLES>  (1) 
291.97
5.86
2.4
0.8
0.45
0.43
0
-0.11
0.03
0.83
-0.32
0.04
0.07
-0.5

>  <PUBCHEM_SHAPE_SELFOVERLAP>  (1) 
610.032

>  <PUBCHEM_SHAPE_VOLUME>  (1) 
166.8

>  <PUBCHEM_COORDINATE_TYPE>  (1) 
2
5
10

$$$$
