10328
     RDKit          3D

  9 10  0  0  0  0  0  0  0  0999 V2000
   -1.5608   -1.1831    0.0822 N   0  0  0  0  0  0  0  0  0  0  0  0
   -1.6336    1.2309    0.0932 C   0  0  0  0  0  0  0  0  0  0  0  0
   -0.2355    0.7120    0.0110 C   0  0  0  0  0  0  0  0  0  0  0  0
   -2.4535   -0.0544   -0.1512 C   0  0  0  0  0  0  0  0  0  0  0  0
   -0.2615   -0.6849    0.0025 C   0  0  0  0  0  0  0  0  0  0  0  0
    0.9551    1.4162   -0.0060 C   0  0  0  0  0  0  0  0  0  0  0  0
    0.9160   -1.4114    0.0111 C   0  0  0  0  0  0  0  0  0  0  0  0
    2.1465    0.6893   -0.0273 C   0  0  0  0  0  0  0  0  0  0  0  0
    2.1273   -0.7145   -0.0155 C   0  0  0  0  0  0  0  0  0  0  0  0
  1  4  1  0
  1  5  1  0
  2  3  1  0
  2  4  1  0
  3  5  2  0
  3  6  1  0
  5  7  1  0
  6  8  2  0
  7  9  2  0
  8  9  1  0
M  END
>  <PUBCHEM_COMPOUND_CID>  (1) 
10328

>  <PUBCHEM_CONFORMER_RMSD>  (1) 
0.4

>  <PUBCHEM_CONFORMER_DIVERSEORDER>  (1) 
1

>  <PUBCHEM_MMFF94_PARTIAL_CHARGES>  (1) 
14
1 -0.87
14 0.4
15 0.15
16 0.15
17 0.15
18 0.15
2 0.14
3 -0.14
4 0.37
5 0.1
6 -0.15
7 -0.15
8 -0.15
9 -0.15

>  <PUBCHEM_EFFECTIVE_ROTOR_COUNT>  (1) 
0.6

>  <PUBCHEM_PHARMACOPHORE_FEATURES>  (1) 
4
1 1 cation
1 1 donor
5 1 2 3 4 5 rings
6 3 5 6 7 8 9 rings

>  <PUBCHEM_HEAVY_ATOM_COUNT>  (1) 
9

>  <PUBCHEM_ATOM_DEF_STEREO_COUNT>  (1) 
0

>  <PUBCHEM_ATOM_UDEF_STEREO_COUNT>  (1) 
0

>  <PUBCHEM_BOND_DEF_STEREO_COUNT>  (1) 
0

>  <PUBCHEM_BOND_UDEF_STEREO_COUNT>  (1) 
0

>  <PUBCHEM_ISOTOPIC_ATOM_COUNT>  (1) 
0

>  <PUBCHEM_COMPONENT_COUNT>  (1) 
1

>  <PUBCHEM_CACTVS_TAUTO_COUNT>  (1) 
1

>  <PUBCHEM_CONFORMER_ID>  (1) 
0000285800000001

>  <PUBCHEM_MMFF94_ENERGY>  (1) 
34.0873

>  <PUBCHEM_FEATURE_SELFOVERLAP>  (1) 
20.388

>  <PUBCHEM_SHAPE_FINGERPRINT>  (1) 
12897270 3 18410855494514293589
16945 1 18410575088963333961
18185500 45 18338516331068455082
21040471 1 18266458891823410084
23402655 69 18268131077838820405
23552423 10 18333453144494593814
241688 4 18121501245854460832
2748010 2 17762338419514916700
29004967 10 18335144189009156696
5084963 1 18272090512849882520

>  <PUBCHEM_SHAPE_MULTIPOLES>  (1) 
180.23
3.07
1.58
0.61
0.38
0.03
0
0
0.07
-0.14
-0.03
-0.01
0.01
-0.02

>  <PUBCHEM_SHAPE_SELFOVERLAP>  (1) 
389.376

>  <PUBCHEM_SHAPE_VOLUME>  (1) 
100.6

>  <PUBCHEM_COORDINATE_TYPE>  (1) 
2
5
10

$$$$
