10320
     RDKit          3D

 18 19  0  0  0  0  0  0  0  0999 V2000
   -1.4039   -1.6929    1.1895 O   0  0  0  0  0  0  0  0  0  0  0  0
    5.3496    1.4501    1.4185 O   0  0  0  0  0  0  0  0  0  0  0  0
    0.4298   -1.5259   -0.8356 N   0  0  0  0  0  0  0  0  0  0  0  0
   -0.7426   -0.8247   -0.8545 N   0  0  0  0  0  0  0  0  0  0  0  0
    5.1996    1.1546    0.2236 N   0  0  0  0  0  0  0  0  0  0  0  0
    1.6284   -0.8520   -0.5717 C   0  0  0  0  0  0  0  0  0  0  0  0
   -2.8557   -0.1745    0.1442 C   0  0  0  0  0  0  0  0  0  0  0  0
    1.6826    0.5458   -0.6297 C   0  0  0  0  0  0  0  0  0  0  0  0
    2.7853   -1.5690   -0.2443 C   0  0  0  0  0  0  0  0  0  0  0  0
   -1.6322   -0.9574    0.2119 C   0  0  0  0  0  0  0  0  0  0  0  0
   -4.0050   -0.6187    0.7978 C   0  0  0  0  0  0  0  0  0  0  0  0
   -2.8801    1.0206   -0.5747 C   0  0  0  0  0  0  0  0  0  0  0  0
    2.8764    1.2166   -0.3641 C   0  0  0  0  0  0  0  0  0  0  0  0
    3.9790   -0.8982    0.0214 C   0  0  0  0  0  0  0  0  0  0  0  0
    4.0246    0.4947   -0.0385 C   0  0  0  0  0  0  0  0  0  0  0  0
   -5.1788    0.1321    0.7326 C   0  0  0  0  0  0  0  0  0  0  0  0
   -4.0538    1.7714   -0.6400 C   0  0  0  0  0  0  0  0  0  0  0  0
   -5.2032    1.3272    0.0137 C   0  0  0  0  0  0  0  0  0  0  0  0
  1 10  2  0
  2  5  2  0
  3  4  1  0
  3  6  1  0
  4 10  1  0
  5 15  1  0
  6  8  2  0
  6  9  1  0
  7 10  1  0
  7 11  2  0
  7 12  1  0
  8 13  1  0
  9 14  2  0
 11 16  1  0
 12 17  2  0
 13 15  2  0
 14 15  1  0
 16 18  2  0
 17 18  1  0
M  END
>  <PUBCHEM_COMPOUND_CID>  (1) 
10320

>  <PUBCHEM_CONFORMER_RMSD>  (1) 
0.6

>  <PUBCHEM_CONFORMER_DIVERSEORDER>  (1) 
1
35
25
36
24
14
34
37
9
29
13
38
7
32
31
16
28
18
30
33
20
11
26
2
6
23
21
19
17
8
12
5
15
27
3
10
22
4

>  <PUBCHEM_MMFF94_PARTIAL_CHARGES>  (1) 
29
1 -0.57
10 0.54
11 -0.15
12 -0.15
13 -0.15
14 -0.15
15 0.3
16 -0.15
17 -0.15
18 -0.15
19 0.4
2 -0.16
20 0.15
21 0.15
22 0.37
23 0.15
24 0.15
25 0.15
26 0.15
27 0.15
28 0.15
29 0.15
3 -0.52
4 -0.41
5 -0.14
6 0.1
7 0.09
8 -0.15
9 -0.15

>  <PUBCHEM_EFFECTIVE_ROTOR_COUNT>  (1) 
5

>  <PUBCHEM_PHARMACOPHORE_FEATURES>  (1) 
5
1 1 acceptor
1 3 donor
1 4 donor
6 6 8 9 13 14 15 rings
6 7 11 12 16 17 18 rings

>  <PUBCHEM_HEAVY_ATOM_COUNT>  (1) 
18

>  <PUBCHEM_ATOM_DEF_STEREO_COUNT>  (1) 
0

>  <PUBCHEM_ATOM_UDEF_STEREO_COUNT>  (1) 
0

>  <PUBCHEM_BOND_DEF_STEREO_COUNT>  (1) 
0

>  <PUBCHEM_BOND_UDEF_STEREO_COUNT>  (1) 
0

>  <PUBCHEM_ISOTOPIC_ATOM_COUNT>  (1) 
0

>  <PUBCHEM_COMPONENT_COUNT>  (1) 
1

>  <PUBCHEM_CACTVS_TAUTO_COUNT>  (1) 
7

>  <PUBCHEM_CONFORMER_ID>  (1) 
0000285000000001

>  <PUBCHEM_MMFF94_ENERGY>  (1) 
60.3207

>  <PUBCHEM_FEATURE_SELFOVERLAP>  (1) 
26.942

>  <PUBCHEM_SHAPE_FINGERPRINT>  (1) 
10 15 18260828250123672432
11089746 13 17632570566129695496
11128504 68 15052012381381185976
12251169 10 17967256428797732662
12403259 415 18262523585204861069
12507557 5 18409171017405886801
12507560 40 18335423447835736990
12596602 18 16081093713845920513
12633257 1 17458061607706728108
12670546 177 13614237096415195376
12892183 10 17967251966369013843
13675066 3 18261117361093149863
13914758 101 15574702587861349679
14123255 352 18412543202071720157
14178342 30 17677056857502074506
1420 369 12829481537447510992
14341114 176 18260276226039134909
14455015 7 7853571322709046341
14576447 43 9583529715692198588
15188451 53 16443635717812170467
15196674 1 18409169878970274757
15238133 3 18041287608027716140
16988056 13 12520801129619354403
1813 80 14779269683201003726
19784866 240 10809338914849455766
20157964 124 18342455898838037311
204376 136 17989489606521521791
20645477 56 18410295821879537831
20645477 70 17917440769985317990
20871999 31 12679467465246443011
21065199 12 18260553303148987891
212916 134 18187357740219424538
21713013 43 10592049041885991906
23402539 116 18260545645718054599
23503953 91 17822012051202186812
23559900 14 18188505557445034166
2916195 48 18410570682654189441
351380 180 18334014982415391437
351380 3 12035447250543391144
3545911 37 18411987957373919966
4259306 186 8214146243821633736
4325135 7 18060699520555543935
465052 167 11963687607467124009
5104073 3 18261680264218494123
542803 24 16702305641592435425
5924683 9 18263082279025683043

>  <PUBCHEM_SHAPE_MULTIPOLES>  (1) 
343.75
12.67
1.79
0.98
0.42
0.05
0.14
5.78
3.17
0.28
0.03
0.17
0.01
1.26

>  <PUBCHEM_SHAPE_SELFOVERLAP>  (1) 
737.707

>  <PUBCHEM_SHAPE_VOLUME>  (1) 
189.1

>  <PUBCHEM_COORDINATE_TYPE>  (1) 
2
5
10

$$$$
