10339
     RDKit          3D

  6  5  0  0  0  0  0  0  0  0999 V2000
    0.0001    1.8799    0.0000 O   0  0  0  0  0  0  0  0  0  0  0  0
    1.4044   -1.2420    0.0000 O   0  0  0  0  0  0  0  0  0  0  0  0
   -1.4043   -1.2421    0.0000 O   0  0  0  0  0  0  0  0  0  0  0  0
    0.0000    0.6570    0.0001 C   0  0  0  0  0  0  0  0  0  0  0  0
    1.3331   -0.0264   -0.0001 C   0  0  0  0  0  0  0  0  0  0  0  0
   -1.3333   -0.0264   -0.0001 C   0  0  0  0  0  0  0  0  0  0  0  0
  1  4  2  0
  2  5  2  0
  3  6  2  0
  4  5  1  0
  4  6  1  0
M  END
>  <PUBCHEM_COMPOUND_CID>  (1) 
10339

>  <PUBCHEM_CONFORMER_RMSD>  (1) 
0.4

>  <PUBCHEM_CONFORMER_DIVERSEORDER>  (1) 
1
3
6
4
8
5
7
2

>  <PUBCHEM_MMFF94_PARTIAL_CHARGES>  (1) 
8
1 -0.57
2 -0.57
3 -0.57
4 0.57
5 0.51
6 0.51
7 0.06
8 0.06

>  <PUBCHEM_EFFECTIVE_ROTOR_COUNT>  (1) 
2

>  <PUBCHEM_PHARMACOPHORE_FEATURES>  (1) 
4
1 1 acceptor
1 2 acceptor
1 3 acceptor
1 4 anion

>  <PUBCHEM_HEAVY_ATOM_COUNT>  (1) 
6

>  <PUBCHEM_ATOM_DEF_STEREO_COUNT>  (1) 
0

>  <PUBCHEM_ATOM_UDEF_STEREO_COUNT>  (1) 
0

>  <PUBCHEM_BOND_DEF_STEREO_COUNT>  (1) 
0

>  <PUBCHEM_BOND_UDEF_STEREO_COUNT>  (1) 
0

>  <PUBCHEM_ISOTOPIC_ATOM_COUNT>  (1) 
0

>  <PUBCHEM_COMPONENT_COUNT>  (1) 
1

>  <PUBCHEM_CACTVS_TAUTO_COUNT>  (1) 
1

>  <PUBCHEM_CONFORMER_ID>  (1) 
0000286300000001

>  <PUBCHEM_MMFF94_ENERGY>  (1) 
1.9477

>  <PUBCHEM_FEATURE_SELFOVERLAP>  (1) 
20.302

>  <PUBCHEM_SHAPE_FINGERPRINT>  (1) 
139733 1 9223231844827332035
16714656 1 18050581650535413374
20096714 4 17547294857396965933
21040471 1 17329991292067030756
29004967 10 18335987565930410195
5943 1 10931816212238438245

>  <PUBCHEM_SHAPE_MULTIPOLES>  (1) 
105.87
1.8
1.57
0.56
0
0.38
0
-0.73
0
0
0
0
0.01
0

>  <PUBCHEM_SHAPE_SELFOVERLAP>  (1) 
198.286

>  <PUBCHEM_SHAPE_VOLUME>  (1) 
64.9

>  <PUBCHEM_COORDINATE_TYPE>  (1) 
2
5
10

$$$$
