10332
     RDKit          3D

  9  9  0  0  0  0  0  0  0  0999 V2000
   -1.6833    1.8516   -0.0002 N   0  0  0  0  0  0  0  0  0  0  0  0
   -2.5348   -0.8653   -0.0005 N   0  0  0  0  0  0  0  0  0  0  0  0
    1.5615    0.0734    0.0000 C   0  0  0  0  0  0  0  0  0  0  0  0
   -0.7439    0.7962    0.0004 C   0  0  0  0  0  0  0  0  0  0  0  0
   -1.1611   -0.5348    0.0003 C   0  0  0  0  0  0  0  0  0  0  0  0
    0.6176    1.1004    0.0002 C   0  0  0  0  0  0  0  0  0  0  0  0
    1.1441   -1.2576    0.0000 C   0  0  0  0  0  0  0  0  0  0  0  0
   -0.2171   -1.5618    0.0002 C   0  0  0  0  0  0  0  0  0  0  0  0
    3.0170    0.3979   -0.0004 C   0  0  0  0  0  0  0  0  0  0  0  0
  1  4  1  0
  2  5  1  0
  3  6  2  0
  3  7  1  0
  3  9  1  0
  4  5  2  0
  4  6  1  0
  5  8  1  0
  7  8  2  0
M  END
>  <PUBCHEM_COMPOUND_CID>  (1) 
10332

>  <PUBCHEM_CONFORMER_RMSD>  (1) 
0.4

>  <PUBCHEM_CONFORMER_DIVERSEORDER>  (1) 
1

>  <PUBCHEM_MMFF94_PARTIAL_CHARGES>  (1) 
16
1 -0.9
10 0.15
11 0.15
12 0.15
16 0.4
17 0.4
18 0.4
19 0.4
2 -0.9
3 -0.14
4 0.1
5 0.1
6 -0.15
7 -0.15
8 -0.15
9 0.14

>  <PUBCHEM_EFFECTIVE_ROTOR_COUNT>  (1) 
0

>  <PUBCHEM_PHARMACOPHORE_FEATURES>  (1) 
5
1 1 cation
1 1 donor
1 2 cation
1 2 donor
6 3 4 5 6 7 8 rings

>  <PUBCHEM_HEAVY_ATOM_COUNT>  (1) 
9

>  <PUBCHEM_ATOM_DEF_STEREO_COUNT>  (1) 
0

>  <PUBCHEM_ATOM_UDEF_STEREO_COUNT>  (1) 
0

>  <PUBCHEM_BOND_DEF_STEREO_COUNT>  (1) 
0

>  <PUBCHEM_BOND_UDEF_STEREO_COUNT>  (1) 
0

>  <PUBCHEM_ISOTOPIC_ATOM_COUNT>  (1) 
0

>  <PUBCHEM_COMPONENT_COUNT>  (1) 
1

>  <PUBCHEM_CACTVS_TAUTO_COUNT>  (1) 
1

>  <PUBCHEM_CONFORMER_ID>  (1) 
0000285C00000001

>  <PUBCHEM_MMFF94_ENERGY>  (1) 
42.9809

>  <PUBCHEM_FEATURE_SELFOVERLAP>  (1) 
25.377

>  <PUBCHEM_SHAPE_FINGERPRINT>  (1) 
14325111 11 18410855439233703936
15310529 11 14548752702376513754
16714656 1 18339364179235247502
16945 1 18338517542296789734
18185500 45 18122905596922892366
193761 8 18122626046070496199
21040471 1 18194683670294423552
23402655 69 18268129999944226589
23552423 10 18189058607656813926
2748010 2 18267024964065178926
29004967 10 18262805180155910163
5084963 1 18202005455762795458

>  <PUBCHEM_SHAPE_MULTIPOLES>  (1) 
175.25
3.19
1.71
0.6
0.97
0.13
0
0.25
0
-0.58
0
0.04
-0.01
0

>  <PUBCHEM_SHAPE_SELFOVERLAP>  (1) 
362.718

>  <PUBCHEM_SHAPE_VOLUME>  (1) 
101.4

>  <PUBCHEM_COORDINATE_TYPE>  (1) 
2
5
10

$$$$
