10346
     RDKit          3D

 16 16  0  0  0  0  0  0  0  0999 V2000
   -2.3481    2.0910   -0.0010 O   0  0  0  0  0  0  0  0  0  0  0  0
    2.4811   -0.8334   -0.0020 C   0  0  0  0  0  0  0  0  0  0  0  0
   -2.4989   -0.7615    0.0010 C   0  0  0  0  0  0  0  0  0  0  0  0
    1.1729   -0.0253   -0.0023 C   0  0  0  0  0  0  0  0  0  0  0  0
   -1.2053   -0.0160   -0.0012 C   0  0  0  0  0  0  0  0  0  0  0  0
   -0.0067   -0.7297   -0.0016 C   0  0  0  0  0  0  0  0  0  0  0  0
    1.2291    1.3463   -0.0023 C   0  0  0  0  0  0  0  0  0  0  0  0
    2.1588   -2.3435   -0.0012 C   0  0  0  0  0  0  0  0  0  0  0  0
    3.3043   -0.4892    1.2581 C   0  0  0  0  0  0  0  0  0  0  0  0
    3.3847   -0.5603   -1.2258 C   0  0  0  0  0  0  0  0  0  0  0  0
   -1.1866    1.3788   -0.0012 C   0  0  0  0  0  0  0  0  0  0  0  0
   -2.3580   -2.1334    0.7294 C   0  0  0  0  0  0  0  0  0  0  0  0
   -2.9880   -1.0471   -1.4521 C   0  0  0  0  0  0  0  0  0  0  0  0
   -3.6899   -0.0340    0.7071 C   0  0  0  0  0  0  0  0  0  0  0  0
    0.0306    2.0599   -0.0017 C   0  0  0  0  0  0  0  0  0  0  0  0
    2.5200    2.0975   -0.0031 C   0  0  0  0  0  0  0  0  0  0  0  0
  1 11  1  0
  2  4  1  0
  2  8  1  0
  2  9  1  0
  2 10  1  0
  3  5  1  0
  3 12  1  0
  3 13  1  0
  3 14  1  0
  4  6  2  0
  4  7  1  0
  5  6  1  0
  5 11  2  0
  7 15  2  0
  7 16  1  0
 11 15  1  0
M  END
>  <PUBCHEM_COMPOUND_CID>  (1) 
10346

>  <PUBCHEM_CONFORMER_RMSD>  (1) 
0.6

>  <PUBCHEM_CONFORMER_DIVERSEORDER>  (1) 
1

>  <PUBCHEM_MMFF94_PARTIAL_CHARGES>  (1) 
13
1 -0.53
11 0.08
15 -0.15
16 0.14
17 0.15
2 0.14
3 0.14
36 0.15
4 -0.14
40 0.45
5 -0.14
6 -0.15
7 -0.14

>  <PUBCHEM_EFFECTIVE_ROTOR_COUNT>  (1) 
2

>  <PUBCHEM_PHARMACOPHORE_FEATURES>  (1) 
4
1 1 donor
4 2 8 9 10 hydrophobe
4 3 12 13 14 hydrophobe
6 4 5 6 7 11 15 rings

>  <PUBCHEM_HEAVY_ATOM_COUNT>  (1) 
16

>  <PUBCHEM_ATOM_DEF_STEREO_COUNT>  (1) 
0

>  <PUBCHEM_ATOM_UDEF_STEREO_COUNT>  (1) 
0

>  <PUBCHEM_BOND_DEF_STEREO_COUNT>  (1) 
0

>  <PUBCHEM_BOND_UDEF_STEREO_COUNT>  (1) 
0

>  <PUBCHEM_ISOTOPIC_ATOM_COUNT>  (1) 
0

>  <PUBCHEM_COMPONENT_COUNT>  (1) 
1

>  <PUBCHEM_CACTVS_TAUTO_COUNT>  (1) 
9

>  <PUBCHEM_CONFORMER_ID>  (1) 
0000286A00000001

>  <PUBCHEM_MMFF94_ENERGY>  (1) 
87.9249

>  <PUBCHEM_FEATURE_SELFOVERLAP>  (1) 
20.297

>  <PUBCHEM_SHAPE_FINGERPRINT>  (1) 
10967382 1 18410295856001743395
11132069 177 18272082786219521785
11206711 2 18335702710798626516
11578080 2 17201892995338146449
12251169 10 18342743996432609857
12553582 1 18410015424660212403
12932764 1 18060135401632571854
13140716 1 18265332987389829859
13221675 6 18410300185423905179
13296908 3 18262237849515246907
14144814 61 18409168787848108579
14178342 30 18268137670038106474
14289901 80 15338825504103497527
15375462 189 18186805751054230122
15536298 74 18272375308163652776
16752209 62 18263351508991889249
16945 1 18409448080965549962
17990270 104 18411418389002379026
18186145 218 18041277759203280959
19591789 44 17327749899117482692
20201158 50 18335978739762405027
20442098 301 18273494563449867182
20525323 117 18339632356792788691
20559304 39 18408606937764939522
20645476 183 17608962809481461494
20645477 70 18341326807675756239
20871998 184 18200313191419401053
21501502 16 18411136948021871113
21501925 9 18338784689383868480
2255824 54 18335425728732279508
22721475 48 18409731763550318906
232386 152 18335983060868510118
2334 1 18194120943547296441
23388829 49 18270384088115338118
23419403 2 16969347333349863320
23463225 33 18410576167015994977
23552423 10 18335424585986265556
23557571 272 17846206748583868074
23559900 14 18196651788383618278
2748010 2 18048319143357891538
34934 24 18339072683883486001
5902787 121 18260824951193091882
7364860 26 18271529796696582648
74978 22 18408322159657743357
81228 2 18266176132409138392
8809292 202 18187933910066572899
9709674 26 18411699880816587263

>  <PUBCHEM_SHAPE_MULTIPOLES>  (1) 
323.4
5.93
2.45
1.01
0.68
0.42
0.14
-1.62
-0.02
-0.28
-0.1
-0.05
-0.31
-0.03

>  <PUBCHEM_SHAPE_SELFOVERLAP>  (1) 
668.74

>  <PUBCHEM_SHAPE_VOLUME>  (1) 
189.7

>  <PUBCHEM_COORDINATE_TYPE>  (1) 
2
5
10

$$$$
