1034
     RDKit          3D

  9  8  0  0  0  0  0  0  0  0999 V2000
    1.5956   -0.0163   -0.0801 P   0  0  0  0  0  0  0  0  0  0  0  0
    0.1064   -0.6459   -0.1024 O   0  0  0  0  0  0  0  0  0  0  0  0
    1.7496    0.5681    1.4197 O   0  0  0  0  0  0  0  0  0  0  0  0
    2.5440   -1.3265   -0.0626 O   0  0  0  0  0  0  0  0  0  0  0  0
   -1.0822    1.3011    0.0894 O   0  0  0  0  0  0  0  0  0  0  0  0
    1.8982    0.9554   -1.1829 O   0  0  0  0  0  0  0  0  0  0  0  0
   -2.2299   -0.8394   -0.0697 C   0  0  0  0  0  0  0  0  0  0  0  0
   -1.0385    0.0841   -0.0161 C   0  0  0  0  0  0  0  0  0  0  0  0
   -3.5432   -0.0805    0.0045 C   0  0  0  0  0  0  0  0  0  0  0  0
  1  2  1  0
  1  3  1  0
  1  4  1  0
  1  6  2  0
  2  8  1  0
  5  8  2  0
  7  8  1  0
  7  9  1  0
M  END
>  <PUBCHEM_COMPOUND_CID>  (1) 
1034

>  <PUBCHEM_CONFORMER_RMSD>  (1) 
0.6

>  <PUBCHEM_CONFORMER_DIVERSEORDER>  (1) 
1
10
9
4
5
3
6
7
8
2

>  <PUBCHEM_MMFF94_PARTIAL_CHARGES>  (1) 
10
1 1.51
15 0.5
16 0.5
2 -0.42
3 -0.77
4 -0.77
5 -0.57
6 -0.7
7 0.06
8 0.66

>  <PUBCHEM_EFFECTIVE_ROTOR_COUNT>  (1) 
3

>  <PUBCHEM_PHARMACOPHORE_FEATURES>  (1) 
6
1 3 acceptor
1 4 acceptor
1 5 acceptor
1 6 acceptor
1 9 hydrophobe
4 1 3 4 6 anion

>  <PUBCHEM_HEAVY_ATOM_COUNT>  (1) 
9

>  <PUBCHEM_ATOM_DEF_STEREO_COUNT>  (1) 
0

>  <PUBCHEM_ATOM_UDEF_STEREO_COUNT>  (1) 
0

>  <PUBCHEM_BOND_DEF_STEREO_COUNT>  (1) 
0

>  <PUBCHEM_BOND_UDEF_STEREO_COUNT>  (1) 
0

>  <PUBCHEM_ISOTOPIC_ATOM_COUNT>  (1) 
0

>  <PUBCHEM_COMPONENT_COUNT>  (1) 
1

>  <PUBCHEM_CACTVS_TAUTO_COUNT>  (1) 
1

>  <PUBCHEM_CONFORMER_ID>  (1) 
0000040A00000001

>  <PUBCHEM_MMFF94_ENERGY>  (1) 
-28.3422

>  <PUBCHEM_FEATURE_SELFOVERLAP>  (1) 
30.484

>  <PUBCHEM_SHAPE_FINGERPRINT>  (1) 
10857977 72 18340761663014814147
12932741 1 17274547645258383311
12932764 1 17917714634290002895
14390081 3 17918272073842523129
170605 34 17314237833193632492
23552333 60 17676767647214897112
23552423 10 18260268525300222027
23552449 11 17275101755868351179
24536 1 18259980479039054502
29004967 10 18340205292856344715
3248919 1 18187358874454722059
5084963 1 18337111172308866275

>  <PUBCHEM_SHAPE_MULTIPOLES>  (1) 
159.72
4.65
1.13
0.89
2.46
0.02
0.11
0.64
-0.06
-0.32
-0.06
-0.58
-0.22
-0.07

>  <PUBCHEM_SHAPE_SELFOVERLAP>  (1) 
285.079

>  <PUBCHEM_SHAPE_VOLUME>  (1) 
104.1

>  <PUBCHEM_COORDINATE_TYPE>  (1) 
2
5
10

$$$$
