10350
     RDKit          3D

 12 11  0  0  1  0  0  0  0  0999 V2000
    0.9092   -1.5736    0.9378 O   0  0  0  0  0  0  0  0  0  0  0  0
    2.0362    1.4476   -0.7951 O   0  0  0  0  0  0  0  0  0  0  0  0
   -1.7443   -1.2126   -1.2173 O   0  0  0  0  0  0  0  0  0  0  0  0
    4.5224    0.4500    0.1032 O   0  0  0  0  0  0  0  0  0  0  0  0
   -3.0856    0.9379    1.3379 O   0  0  0  0  0  0  0  0  0  0  0  0
   -3.8245    0.4306   -0.7470 O   0  0  0  0  0  0  0  0  0  0  0  0
    0.8574   -0.5103   -0.0113 C   0  0  0  0  0  0  0  0  0  0  0  0
   -0.4490    0.2896    0.1636 C   0  0  0  0  0  0  0  0  0  0  0  0
    2.1054    0.3761    0.1470 C   0  0  0  0  0  0  0  0  0  0  0  0
   -1.7353   -0.5381    0.0307 C   0  0  0  0  0  0  0  0  0  0  0  0
    3.3986   -0.4030   -0.0899 C   0  0  0  0  0  0  0  0  0  0  0  0
   -2.9904    0.3058    0.1404 C   0  0  0  0  0  0  0  0  0  0  0  0
  1  7  1  0
  2  9  1  0
  3 10  1  0
  4 11  1  0
  5 12  1  0
  6 12  2  0
  7  8  1  0
  7  9  1  0
  8 10  1  0
  9 11  1  0
 10 12  1  0
M  END
>  <PUBCHEM_COMPOUND_CID>  (1) 
10350

>  <PUBCHEM_CONFORMER_RMSD>  (1) 
0.6

>  <PUBCHEM_CONFORMER_DIVERSEORDER>  (1) 
1
258
285
15
53
296
299
11
307
302
171
110
309
34
173
316
58
54
232
89
312
249
247
345
208
169
248
351
78
167
328
132
263
305
339
57
64
326
346
136
288
8
323
224
111
178
26
322
332
95
349
24
31
294
189
47
284
186
303
295
298
4
246
330
102
257
51
321
65
35
240
161
319
140
327
250
68
352
210
116
313
274
265
314
318
293
85
175
76
193
219
20
59
289
253
86
152
46
279
108
223
115
188
67
28
254
37
212
80
81
74
278
282
259
190
335
235
203
229
160
168
180
252
347
320
40
48
36
272
315
141
225
70
290
125
154
310
19
338
126
205
226
241
243
3
148
336
82
183
79
273
306
317
237
63
277
149
230
17
216
256
129
114
77
333
341
195
39
142
124
218
329
112
239
62
176
251
165
105
69
104
344
325
291
311
144
21
286
118
134
304
42
297
87
242
2
266
350
93
137
6
221
281
52
213
128
71
187
157
199
334
287
29
331
209
14
99
166
88
135
264
91
192
100
164
150
101
227
50
156
191
269
177
174
84
255
5
55
337
280
340
233
163
308
231
131
217
151
214
13
343
202
172
120
244
260
275
198
204
262
30
25
271
92
261
98
106
75
181
18
201
220
122
49
127
23
12
236
90
38
146
7
94
268
348
27
158
162
245
185
300
211
107
276
83
22
182
200
292
45
197
222
145
179
283
60
56
109
44
143
153
97
170
16
130
10
155
119
324
196
33
301
267
73
207
123
234
9
228
32
194
147
342
270
41
96
61
133
121
184
117
113
43
206
138
215
103
139
159
66
72
238

>  <PUBCHEM_MMFF94_PARTIAL_CHARGES>  (1) 
16
1 -0.68
10 0.34
11 0.28
12 0.66
2 -0.68
20 0.4
21 0.4
22 0.4
23 0.4
24 0.5
3 -0.68
4 -0.68
5 -0.65
6 -0.57
7 0.28
9 0.28

>  <PUBCHEM_EFFECTIVE_ROTOR_COUNT>  (1) 
5

>  <PUBCHEM_PHARMACOPHORE_FEATURES>  (1) 
11
1 1 acceptor
1 1 donor
1 2 acceptor
1 2 donor
1 3 acceptor
1 3 donor
1 4 acceptor
1 4 donor
1 5 acceptor
1 6 acceptor
3 5 6 12 anion

>  <PUBCHEM_HEAVY_ATOM_COUNT>  (1) 
12

>  <PUBCHEM_ATOM_DEF_STEREO_COUNT>  (1) 
0

>  <PUBCHEM_ATOM_UDEF_STEREO_COUNT>  (1) 
3

>  <PUBCHEM_BOND_DEF_STEREO_COUNT>  (1) 
0

>  <PUBCHEM_BOND_UDEF_STEREO_COUNT>  (1) 
0

>  <PUBCHEM_ISOTOPIC_ATOM_COUNT>  (1) 
0

>  <PUBCHEM_COMPONENT_COUNT>  (1) 
1

>  <PUBCHEM_CACTVS_TAUTO_COUNT>  (1) 
1

>  <PUBCHEM_CONFORMER_ID>  (1) 
0000286E00000001

>  <PUBCHEM_MMFF94_ENERGY>  (1) 
16.5167

>  <PUBCHEM_FEATURE_SELFOVERLAP>  (1) 
55.898

>  <PUBCHEM_SHAPE_FINGERPRINT>  (1) 
10219947 1 17894912914813507382
10857977 72 14996291327151370375
11062470 55 16415480450107227352
12932764 1 16081357605220713930
14325111 11 18260551177187337266
14993402 34 18130780149330726053
15775835 57 18411698785551947252
18175812 5 16226053318182378247
18186145 218 18408610270680666764
18342897 14 17675924296448517404
190213 19 18413109463318118171
20279233 1 16588028978949821315
20645464 45 16515687723833667755
20645477 70 17896307035201827210
21119208 17 18343581841346211228
21293036 1 13901905613566853156
22926399 65 16916793924684918937
23235685 24 17894628162597447410
23402539 116 16988839445480268873
3248919 1 18202289108187776327
42627469 27 18341339932720895881

>  <PUBCHEM_SHAPE_MULTIPOLES>  (1) 
211.74
7.03
1.17
0.94
1.81
0.13
-0.03
-1.65
0.15
0.11
0.01
-0.54
0.03
-0.6

>  <PUBCHEM_SHAPE_SELFOVERLAP>  (1) 
401.438

>  <PUBCHEM_SHAPE_VOLUME>  (1) 
129.9

>  <PUBCHEM_COORDINATE_TYPE>  (1) 
2
5
10

$$$$
