10359
     RDKit          3D

 12 12  0  0  0  0  0  0  0  0999 V2000
   -2.7025    1.7875    0.0004 O   0  0  0  0  0  0  0  0  0  0  0  0
   -3.5626   -0.8558    0.0009 O   0  0  0  0  0  0  0  0  0  0  0  0
    2.3168    1.5031   -0.0004 O   0  0  0  0  0  0  0  0  0  0  0  0
    4.2993   -0.2996    0.0021 N   0  0  0  0  0  0  0  0  0  0  0  0
    0.4962    0.0184   -0.0005 C   0  0  0  0  0  0  0  0  0  0  0  0
   -0.4367    1.0554   -0.0002 C   0  0  0  0  0  0  0  0  0  0  0  0
    1.9189    0.3196   -0.0007 C   0  0  0  0  0  0  0  0  0  0  0  0
    0.0644   -1.3080   -0.0005 C   0  0  0  0  0  0  0  0  0  0  0  0
   -1.8011    0.7661    0.0001 C   0  0  0  0  0  0  0  0  0  0  0  0
   -2.2328   -0.5602    0.0000 C   0  0  0  0  0  0  0  0  0  0  0  0
    2.9401   -0.8290   -0.0009 C   0  0  0  0  0  0  0  0  0  0  0  0
   -1.3000   -1.5974   -0.0002 C   0  0  0  0  0  0  0  0  0  0  0  0
  1  9  1  0
  2 10  1  0
  3  7  2  0
  4 11  1  0
  5  6  2  0
  5  7  1  0
  5  8  1  0
  6  9  1  0
  7 11  1  0
  8 12  2  0
  9 10  2  0
 10 12  1  0
M  END
>  <PUBCHEM_COMPOUND_CID>  (1) 
10359

>  <PUBCHEM_CONFORMER_RMSD>  (1) 
0.6

>  <PUBCHEM_CONFORMER_DIVERSEORDER>  (1) 
1
6
8
4
7
5
3
2

>  <PUBCHEM_MMFF94_PARTIAL_CHARGES>  (1) 
19
1 -0.53
10 0.08
11 0.33
12 -0.15
13 0.15
14 0.15
17 0.15
18 0.36
19 0.36
2 -0.53
20 0.45
21 0.45
3 -0.57
4 -0.99
5 0.09
6 -0.15
7 0.42
8 -0.15
9 0.08

>  <PUBCHEM_EFFECTIVE_ROTOR_COUNT>  (1) 
2

>  <PUBCHEM_PHARMACOPHORE_FEATURES>  (1) 
6
1 1 donor
1 2 donor
1 3 acceptor
1 4 cation
1 4 donor
6 5 6 8 9 10 12 rings

>  <PUBCHEM_HEAVY_ATOM_COUNT>  (1) 
12

>  <PUBCHEM_ATOM_DEF_STEREO_COUNT>  (1) 
0

>  <PUBCHEM_ATOM_UDEF_STEREO_COUNT>  (1) 
0

>  <PUBCHEM_BOND_DEF_STEREO_COUNT>  (1) 
0

>  <PUBCHEM_BOND_UDEF_STEREO_COUNT>  (1) 
0

>  <PUBCHEM_ISOTOPIC_ATOM_COUNT>  (1) 
0

>  <PUBCHEM_COMPONENT_COUNT>  (1) 
1

>  <PUBCHEM_CACTVS_TAUTO_COUNT>  (1) 
57

>  <PUBCHEM_CONFORMER_ID>  (1) 
0000287700000001

>  <PUBCHEM_MMFF94_ENERGY>  (1) 
28.4176

>  <PUBCHEM_FEATURE_SELFOVERLAP>  (1) 
30.45

>  <PUBCHEM_SHAPE_FINGERPRINT>  (1) 
10608611 8 18341045294018004776
12032990 46 18264212572588844483
12932764 1 17560516313054032388
13024252 1 13551188888097474343
13380535 76 18267302041359310287
14144814 61 18408882915188857666
14325111 11 18410573976751602496
15219456 202 18059019367212860966
15775835 57 18188213087351493112
16945 1 18338517555244956167
193761 8 17834113048544391463
19973954 147 18338237171169015084
20201158 50 18343867710254184006
20510252 161 18272652337527368273
20871998 184 18200879590205629111
21501502 16 18339646736543859684
23402539 116 18271796939414639911
23402655 69 18124860284754945405
23463225 33 18335701607345595286
23552423 10 18188490297552298854
23559900 14 18272087142376818794
2748010 2 18410853261247545573
369184 2 18271525385390240043
5084963 1 18272652358986178811
6333449 129 18412260606208655077
7364860 26 18269837691462215384

>  <PUBCHEM_SHAPE_MULTIPOLES>  (1) 
224.37
5.61
1.64
0.58
3.19
0.17
0
-0.23
0
-0.68
0
0
-0.02
0

>  <PUBCHEM_SHAPE_SELFOVERLAP>  (1) 
469.46

>  <PUBCHEM_SHAPE_VOLUME>  (1) 
127.1

>  <PUBCHEM_COORDINATE_TYPE>  (1) 
2
5
10

$$$$
