10372
     RDKit          3D

 17 17  0  0  0  0  0  0  0  0999 V2000
   -2.2217    2.4308   -0.1066 Cl  0  0  0  0  0  0  0  0  0  0  0  0
    2.6634    0.4539   -2.1475 S   0  0  0  0  0  0  0  0  0  0  0  0
    2.7633    0.0767   -0.2367 P   0  0  0  0  0  0  0  0  0  0  0  0
    1.6003   -0.8638    0.3887 O   0  0  0  0  0  0  0  0  0  0  0  0
    4.1007   -0.7059    0.2646 O   0  0  0  0  0  0  0  0  0  0  0  0
    2.7524    1.3495    0.7769 O   0  0  0  0  0  0  0  0  0  0  0  0
   -4.6307   -1.1474   -0.0684 O   0  0  0  0  0  0  0  0  0  0  0  0
   -4.3762    1.0301   -0.1832 O   0  0  0  0  0  0  0  0  0  0  0  0
   -3.9048   -0.1259   -0.0758 N   0  0  0  0  0  0  0  0  0  0  0  0
    0.2497   -0.6724    0.2745 C   0  0  0  0  0  0  0  0  0  0  0  0
   -0.2567    0.6176    0.1558 C   0  0  0  0  0  0  0  0  0  0  0  0
   -0.6044   -1.7702    0.2781 C   0  0  0  0  0  0  0  0  0  0  0  0
   -2.4951   -0.2846    0.0424 C   0  0  0  0  0  0  0  0  0  0  0  0
   -1.6331    0.8120    0.0393 C   0  0  0  0  0  0  0  0  0  0  0  0
   -1.9808   -1.5757    0.1617 C   0  0  0  0  0  0  0  0  0  0  0  0
    4.3219   -2.0494   -0.1306 C   0  0  0  0  0  0  0  0  0  0  0  0
    3.6518    2.4247    0.5670 C   0  0  0  0  0  0  0  0  0  0  0  0
  1 14  1  0
  2  3  2  0
  3  4  1  0
  3  5  1  0
  3  6  1  0
  4 10  1  0
  5 16  1  0
  6 17  1  0
  7  9  1  0
  8  9  2  0
  9 13  1  0
 10 11  2  0
 10 12  1  0
 11 14  1  0
 12 15  2  0
 13 14  2  0
 13 15  1  0
M  CHG  2   7  -1   9   1
M  END
>  <PUBCHEM_COMPOUND_CID>  (1) 
10372

>  <PUBCHEM_CONFORMER_RMSD>  (1) 
0.6

>  <PUBCHEM_CONFORMER_DIVERSEORDER>  (1) 
1
27
9
30
3
21
32
29
31
17
13
28
19
36
23
14
20
24
4
10
5
18
37
12
34
11
35
25
22
2
16
38
33
15
26
6
8
7

>  <PUBCHEM_MMFF94_PARTIAL_CHARGES>  (1) 
20
1 -0.18
10 0.08
11 -0.15
12 -0.15
13 0.13
14 0.18
15 -0.15
16 0.28
17 0.28
18 0.15
19 0.15
2 -0.68
20 0.15
3 1.49
4 -0.35
5 -0.55
6 -0.55
7 -0.52
8 -0.52
9 0.91

>  <PUBCHEM_EFFECTIVE_ROTOR_COUNT>  (1) 
5

>  <PUBCHEM_PHARMACOPHORE_FEATURES>  (1) 
4
1 7 acceptor
1 7 anion
1 8 acceptor
6 10 11 12 13 14 15 rings

>  <PUBCHEM_HEAVY_ATOM_COUNT>  (1) 
17

>  <PUBCHEM_ATOM_DEF_STEREO_COUNT>  (1) 
0

>  <PUBCHEM_ATOM_UDEF_STEREO_COUNT>  (1) 
0

>  <PUBCHEM_BOND_DEF_STEREO_COUNT>  (1) 
0

>  <PUBCHEM_BOND_UDEF_STEREO_COUNT>  (1) 
0

>  <PUBCHEM_ISOTOPIC_ATOM_COUNT>  (1) 
0

>  <PUBCHEM_COMPONENT_COUNT>  (1) 
1

>  <PUBCHEM_CACTVS_TAUTO_COUNT>  (1) 
1

>  <PUBCHEM_CONFORMER_ID>  (1) 
0000288400000001

>  <PUBCHEM_MMFF94_ENERGY>  (1) 
48.6272

>  <PUBCHEM_FEATURE_SELFOVERLAP>  (1) 
20.379

>  <PUBCHEM_SHAPE_FINGERPRINT>  (1) 
10608611 8 18411978079012585664
12403259 226 18338229371571806508
12403259 415 18260824873878490141
12916754 54 18342177752144320459
13675066 3 18186521037640470939
14115302 16 18260839193526119782
15196674 1 18410853278675334553
15536298 74 18411979187040152024
16945 1 18335432304274345155
17802600 8 18409727331397134128
17804303 29 18337112255162974806
18186145 218 18202010910244888185
19786989 88 17346601919371091556
200 152 17703785903536729379
20510252 161 18413669123659348801
20645477 70 17988931093390344070
21524375 3 18262522468360499875
23402539 116 18340760468876911839
23557571 272 18054799643633353774
23559900 14 18413385445543314816
2748010 2 18050849115771948651
3286 77 18410572856044667924
351380 180 18341608200799791182
474 4 17168151199468346108
4990 188 17988928859801550239
5104073 3 18410012147900496107
537710 114 18260835938030489293
58051976 100 18343584057708208894
69090 78 18343860034815290639
7364860 26 18413107277918372834
9709674 26 18413111645272963030
9981440 41 17393056440664811820

>  <PUBCHEM_SHAPE_MULTIPOLES>  (1) 
325.09
8.69
2.36
1.02
0.99
0.72
0.63
-0.39
0.35
-0.83
-0.35
-1.09
0.26
0.35

>  <PUBCHEM_SHAPE_SELFOVERLAP>  (1) 
631.991

>  <PUBCHEM_SHAPE_VOLUME>  (1) 
200.3

>  <PUBCHEM_COORDINATE_TYPE>  (1) 
2
5
10

$$$$
