10374
     RDKit          3D

 15 16  0  0  0  0  0  0  0  0999 V2000
    5.2090    1.0802    0.0943 Cl  0  0  0  0  0  0  0  0  0  0  0  0
   -0.2123   -1.2865   -0.1614 N   0  0  0  0  0  0  0  0  0  0  0  0
   -1.5751    0.6049    0.0889 N   0  0  0  0  0  0  0  0  0  0  0  0
   -2.5397   -1.5759   -0.1778 N   0  0  0  0  0  0  0  0  0  0  0  0
   -3.9600    0.3412    0.0770 N   0  0  0  0  0  0  0  0  0  0  0  0
   -2.9878    2.4598    0.3365 N   0  0  0  0  0  0  0  0  0  0  0  0
    1.0791   -0.7229   -0.1008 C   0  0  0  0  0  0  0  0  0  0  0  0
    2.1427   -1.4697    0.4056 C   0  0  0  0  0  0  0  0  0  0  0  0
    1.2925    0.5812   -0.5473 C   0  0  0  0  0  0  0  0  0  0  0  0
   -1.5022   -0.7267   -0.0801 C   0  0  0  0  0  0  0  0  0  0  0  0
    3.4201   -0.9121    0.4657 C   0  0  0  0  0  0  0  0  0  0  0  0
    2.5698    1.1387   -0.4874 C   0  0  0  0  0  0  0  0  0  0  0  0
    3.6335    0.3921    0.0192 C   0  0  0  0  0  0  0  0  0  0  0  0
   -2.8337    1.0676    0.1585 C   0  0  0  0  0  0  0  0  0  0  0  0
   -3.7358   -0.9721   -0.0909 C   0  0  0  0  0  0  0  0  0  0  0  0
  1 13  1  0
  2  7  1  0
  2 10  1  0
  3 10  2  0
  3 14  1  0
  4 10  1  0
  4 15  2  0
  5 14  2  0
  5 15  1  0
  6 14  1  0
  7  8  2  0
  7  9  1  0
  8 11  1  0
  9 12  2  0
 11 13  2  0
 12 13  1  0
M  END
>  <PUBCHEM_COMPOUND_CID>  (1) 
10374

>  <PUBCHEM_CONFORMER_RMSD>  (1) 
0.6

>  <PUBCHEM_CONFORMER_DIVERSEORDER>  (1) 
1
6
7
2
4
3
5

>  <PUBCHEM_MMFF94_PARTIAL_CHARGES>  (1) 
23
1 -0.18
10 0.72
11 -0.15
12 -0.15
13 0.18
14 0.72
15 0.47
16 0.4
17 0.15
18 0.15
19 0.15
2 -0.6
20 0.15
21 0.15
22 0.4
23 0.4
3 -0.62
4 -0.62
5 -0.62
6 -0.9
7 0.1
8 -0.15
9 -0.15

>  <PUBCHEM_EFFECTIVE_ROTOR_COUNT>  (1) 
2

>  <PUBCHEM_PHARMACOPHORE_FEATURES>  (1) 
6
1 2 donor
1 6 donor
4 2 3 4 10 cation
4 3 5 6 14 cation
6 3 4 5 10 14 15 rings
6 7 8 9 11 12 13 rings

>  <PUBCHEM_HEAVY_ATOM_COUNT>  (1) 
15

>  <PUBCHEM_ATOM_DEF_STEREO_COUNT>  (1) 
0

>  <PUBCHEM_ATOM_UDEF_STEREO_COUNT>  (1) 
0

>  <PUBCHEM_BOND_DEF_STEREO_COUNT>  (1) 
0

>  <PUBCHEM_BOND_UDEF_STEREO_COUNT>  (1) 
0

>  <PUBCHEM_ISOTOPIC_ATOM_COUNT>  (1) 
0

>  <PUBCHEM_COMPONENT_COUNT>  (1) 
1

>  <PUBCHEM_CACTVS_TAUTO_COUNT>  (1) 
9

>  <PUBCHEM_CONFORMER_ID>  (1) 
0000288600000001

>  <PUBCHEM_MMFF94_ENERGY>  (1) 
50.2817

>  <PUBCHEM_FEATURE_SELFOVERLAP>  (1) 
30.489

>  <PUBCHEM_SHAPE_FINGERPRINT>  (1) 
10608611 8 18412824655425810209
10646746 165 18344145895444116984
12107183 9 17832418696772960850
12162725 195 18408323280675888591
12251169 10 18334013899608840238
12346645 44 18408602574062491922
12932764 1 17274811471972063470
13897977 58 18412266155332684229
14144814 61 18408041792692963275
14325111 11 18410293592527708550
15196674 1 18410011009438782048
15442244 35 18192991526363165714
15536298 74 18412265013103706534
15669948 3 18201148940542436607
15775835 57 18411140233697856088
17492 89 18410012109188845667
17802600 8 18340763827309319337
17834072 32 18267305318351402377
18186145 218 18187082815199845086
18522853 276 18409728486490174613
19050596 39 18408041827184557587
200 152 18338223964540232207
20233049 118 18130785659831893280
20300324 65 18201435913256231263
20510252 161 18272938202334935337
21267235 1 18408895039644384618
21652331 79 18410575093501193265
23402539 116 18270955851262653311
23402655 69 18411415098693505148
23463225 33 18334858298800816918
23557571 272 17775010119210505991
23559900 14 17986671463988726742
26918003 58 17749108945787041547
2916195 48 18059003025706409608
3545911 37 18409450292878975694
4214541 1 18410855434564242240
474 4 17749956673457301212
4921388 177 15123216784603286037
4990 188 18201731639335279166
5104073 3 18335983086506361474
7364860 26 18270121206348029150
77779 3 18411138022085260074
9709674 26 18410862065799153166

>  <PUBCHEM_SHAPE_MULTIPOLES>  (1) 
285.66
9.06
1.83
0.67
2.55
0.45
-0.01
2.38
0.64
-0.84
0.15
0.16
0.02
-0.56

>  <PUBCHEM_SHAPE_SELFOVERLAP>  (1) 
602.095

>  <PUBCHEM_SHAPE_VOLUME>  (1) 
159.1

>  <PUBCHEM_COORDINATE_TYPE>  (1) 
2
5
10

$$$$
