10389
     RDKit          3D

 16 17  0  0  0  0  0  0  0  0999 V2000
   -0.3004   -0.0003    0.5498 N   0  0  0  0  0  0  0  0  0  0  0  0
    0.2997   -0.0003   -0.5509 N   0  0  0  0  0  0  0  0  0  0  0  0
   -4.4417    0.0000   -0.0738 C   0  0  0  0  0  0  0  0  0  0  0  0
    4.4408    0.0000    0.0742 C   0  0  0  0  0  0  0  0  0  0  0  0
   -1.6831   -0.0001    0.3409 C   0  0  0  0  0  0  0  0  0  0  0  0
    1.6892   -0.0002   -0.3404 C   0  0  0  0  0  0  0  0  0  0  0  0
   -3.7522   -1.2080    0.0293 C   0  0  0  0  0  0  0  0  0  0  0  0
    3.7513   -1.2081   -0.0292 C   0  0  0  0  0  0  0  0  0  0  0  0
   -3.7521    1.2080    0.0304 C   0  0  0  0  0  0  0  0  0  0  0  0
    3.7511    1.2080   -0.0303 C   0  0  0  0  0  0  0  0  0  0  0  0
   -2.3728   -1.2081    0.2367 C   0  0  0  0  0  0  0  0  0  0  0  0
    2.3719   -1.2081   -0.2371 C   0  0  0  0  0  0  0  0  0  0  0  0
   -2.3727    1.2078    0.2377 C   0  0  0  0  0  0  0  0  0  0  0  0
    2.3719    1.2078   -0.2381 C   0  0  0  0  0  0  0  0  0  0  0  0
   -5.9162    0.0008   -0.2973 C   0  0  0  0  0  0  0  0  0  0  0  0
    5.9152    0.0008    0.2981 C   0  0  0  0  0  0  0  0  0  0  0  0
  1  2  2  0
  1  5  1  0
  2  6  1  0
  3  7  2  0
  3  9  1  0
  3 15  1  0
  4  8  2  0
  4 10  1  0
  4 16  1  0
  5 11  2  0
  5 13  1  0
  6 12  2  0
  6 14  1  0
  7 11  1  0
  8 12  1  0
  9 13  2  0
 10 14  2  0
M  END
>  <PUBCHEM_COMPOUND_CID>  (1) 
10389

>  <PUBCHEM_CONFORMER_RMSD>  (1) 
0.6

>  <PUBCHEM_CONFORMER_DIVERSEORDER>  (1) 
1
2

>  <PUBCHEM_MMFF94_PARTIAL_CHARGES>  (1) 
24
1 -0.18
10 -0.15
11 -0.15
12 -0.15
13 -0.15
14 -0.15
15 0.14
16 0.14
17 0.15
18 0.15
19 0.15
2 -0.18
20 0.15
21 0.15
22 0.15
23 0.15
24 0.15
3 -0.14
4 -0.14
5 0.18
6 0.18
7 -0.15
8 -0.15
9 -0.15

>  <PUBCHEM_EFFECTIVE_ROTOR_COUNT>  (1) 
2

>  <PUBCHEM_PHARMACOPHORE_FEATURES>  (1) 
2
6 3 5 7 9 11 13 rings
6 4 6 8 10 12 14 rings

>  <PUBCHEM_HEAVY_ATOM_COUNT>  (1) 
16

>  <PUBCHEM_ATOM_DEF_STEREO_COUNT>  (1) 
0

>  <PUBCHEM_ATOM_UDEF_STEREO_COUNT>  (1) 
0

>  <PUBCHEM_BOND_DEF_STEREO_COUNT>  (1) 
0

>  <PUBCHEM_BOND_UDEF_STEREO_COUNT>  (1) 
0

>  <PUBCHEM_ISOTOPIC_ATOM_COUNT>  (1) 
0

>  <PUBCHEM_COMPONENT_COUNT>  (1) 
1

>  <PUBCHEM_CACTVS_TAUTO_COUNT>  (1) 
1

>  <PUBCHEM_CONFORMER_ID>  (1) 
0000289500000001

>  <PUBCHEM_MMFF94_ENERGY>  (1) 
43.0338

>  <PUBCHEM_FEATURE_SELFOVERLAP>  (1) 
10.149

>  <PUBCHEM_SHAPE_FINGERPRINT>  (1) 
10968037 39 18412825802683101895
11315181 36 18410578400473037048
11401426 45 18187364332999355219
12107183 9 17690280408960107250
12236239 1 18410855455833239979
12815109 37 18410573989446528871
128620 24 15841835542418520116
13167823 11 18410572889935173927
13533116 47 18342173319633154050
14123238 8 18411982450972534861
15375358 24 18410579482720607250
17802600 8 18410572885640291072
17834072 33 18410293640146843348
17834076 25 18410855464428436342
18186145 218 17168139078833103725
18522853 276 18343022185516934200
19489759 90 18412824681316901009
200 152 18060136535667143497
20279233 1 18410583880761635714
20645477 56 18334013883025199813
20645477 70 18270402685519461006
21267235 1 18410865355732909219
23402539 116 18411131459591334575
23402655 69 18412265034298734332
23557571 272 18201725015673295101
23559900 14 18339639039740919416
26918003 58 18408604781306345682
29717793 49 17988931054630039484
300161 21 18409441488180201075
351380 180 18411136943700094793
3545911 37 18410857659156711620
42 15 18334296470002638846
4214541 1 18410012117783229857
42788 4 18410855464423135589
5104073 3 18410577287991865217
5374978 207 18343017796018010457
542803 24 17167866365405080276
67856867 119 18264207083430859676
69090 78 18410011039804519311
7495541 125 17560515217721340731
77779 3 18410858762958018917
9709674 26 18411709785048328991
9971528 1 17749110002375337836

>  <PUBCHEM_SHAPE_MULTIPOLES>  (1) 
319.31
13.11
1.36
0.68
0.01
0
0
0
0
0
0
0
0
0

>  <PUBCHEM_SHAPE_SELFOVERLAP>  (1) 
682.162

>  <PUBCHEM_SHAPE_VOLUME>  (1) 
178.3

>  <PUBCHEM_COORDINATE_TYPE>  (1) 
2
5
10

$$$$
