10384
     RDKit          3D

 19 19  0  0  0  0  0  0  0  0999 V2000
    5.4593   -1.2669    0.1454 O   0  0  0  0  0  0  0  0  0  0  0  0
   -1.9304   -1.5560    0.5195 O   0  0  0  0  0  0  0  0  0  0  0  0
    5.9011    1.4299   -0.3616 O   0  0  0  0  0  0  0  0  0  0  0  0
   -2.7179    0.5858    0.9682 N   0  0  0  0  0  0  0  0  0  0  0  0
   -8.5945   -0.2321   -1.0488 N   0  0  0  0  0  0  0  0  0  0  0  0
   -4.8935    0.3243   -0.1617 C   0  0  0  0  0  0  0  0  0  0  0  0
   -6.3773   -0.0113    0.0331 C   0  0  0  0  0  0  0  0  0  0  0  0
   -4.1051    0.2535    1.1431 C   0  0  0  0  0  0  0  0  0  0  0  0
   -7.1924    0.1090   -1.2564 C   0  0  0  0  0  0  0  0  0  0  0  0
   -1.7389   -0.3536    0.6688 C   0  0  0  0  0  0  0  0  0  0  0  0
    2.0478    0.0040    0.0841 C   0  0  0  0  0  0  0  0  0  0  0  0
   -0.3884    0.2649    0.5422 C   0  0  0  0  0  0  0  0  0  0  0  0
    0.6720   -0.4996    0.2428 C   0  0  0  0  0  0  0  0  0  0  0  0
    3.1102   -0.8788    0.1910 C   0  0  0  0  0  0  0  0  0  0  0  0
    4.4124   -0.4015    0.0417 C   0  0  0  0  0  0  0  0  0  0  0  0
    2.2518    1.3510   -0.1678 C   0  0  0  0  0  0  0  0  0  0  0  0
    4.6341    0.9521   -0.2124 C   0  0  0  0  0  0  0  0  0  0  0  0
    3.5539    1.8283   -0.3170 C   0  0  0  0  0  0  0  0  0  0  0  0
    5.8957   -1.9030   -1.0542 C   0  0  0  0  0  0  0  0  0  0  0  0
  1 15  1  0
  1 19  1  0
  2 10  2  0
  3 17  1  0
  4  8  1  0
  4 10  1  0
  5  9  1  0
  6  7  1  0
  6  8  1  0
  7  9  1  0
 10 12  1  0
 11 13  1  0
 11 14  2  0
 11 16  1  0
 12 13  2  0
 14 15  1  0
 15 17  2  0
 16 18  2  0
 17 18  1  0
M  END
>  <PUBCHEM_COMPOUND_CID>  (1) 
10384

>  <PUBCHEM_CONFORMER_RMSD>  (1) 
0.8

>  <PUBCHEM_CONFORMER_DIVERSEORDER>  (1) 
4
106
42
1
92
46
72
99
7
80
33
89
20
93
23
97
5
32
118
127
35
44
2
40
18
104
13
31
116
39
122
43
90
119
51
15
128
83
100
6
120
34
124
81
101
109
60
102
8
107
11
78
86
48
19
117
96
111
115
94
10
84
71
58
121
76
41
91
27
103
21
113
77
68
29
25
16
129
53
38
79
105
47
3
30
54
67
110
26
57
24
88
130
49
17
112
14
36
22
98
125
123
65
75
28
45
87
62
95
55
132
59
69
9
64
12
114
70
61
82
85
73
108
50
37
52
131
56
66
74
63
126

>  <PUBCHEM_MMFF94_PARTIAL_CHARGES>  (1) 
26
1 -0.36
10 0.62
11 0.03
12 -0.14
13 -0.18
14 -0.15
15 0.08
16 -0.15
17 0.08
18 -0.15
19 0.28
2 -0.57
28 0.37
29 0.36
3 -0.53
30 0.36
31 0.15
32 0.15
33 0.15
34 0.15
35 0.15
36 0.45
4 -0.73
5 -0.99
8 0.3
9 0.27

>  <PUBCHEM_EFFECTIVE_ROTOR_COUNT>  (1) 
8

>  <PUBCHEM_PHARMACOPHORE_FEATURES>  (1) 
7
1 1 acceptor
1 2 acceptor
1 3 donor
1 4 donor
1 5 cation
1 5 donor
6 11 14 15 16 17 18 rings

>  <PUBCHEM_HEAVY_ATOM_COUNT>  (1) 
19

>  <PUBCHEM_ATOM_DEF_STEREO_COUNT>  (1) 
0

>  <PUBCHEM_ATOM_UDEF_STEREO_COUNT>  (1) 
0

>  <PUBCHEM_BOND_DEF_STEREO_COUNT>  (1) 
0

>  <PUBCHEM_BOND_UDEF_STEREO_COUNT>  (1) 
1

>  <PUBCHEM_ISOTOPIC_ATOM_COUNT>  (1) 
0

>  <PUBCHEM_COMPONENT_COUNT>  (1) 
1

>  <PUBCHEM_CACTVS_TAUTO_COUNT>  (1) 
6

>  <PUBCHEM_CONFORMER_ID>  (1) 
0000289000000004

>  <PUBCHEM_MMFF94_ENERGY>  (1) 
41.8469

>  <PUBCHEM_FEATURE_SELFOVERLAP>  (1) 
35.522

>  <PUBCHEM_SHAPE_FINGERPRINT>  (1) 
10066227 49 18201721704728575991
106641 1 15554436397848866994
12166972 35 18131634486724163529
12236239 1 17988927751705262601
13533116 47 18131635556508214114
13668630 136 18202282481391115303
13885169 127 13038914322738132523
14123256 10 18059855087061668813
14251757 52 14996292430815768846
15183329 4 18334011662474178555
15716309 27 10375870784411539937
16120349 18 18272649070202058928
17834072 8 18113059319935295234
20157964 124 18407760343491188257
20281389 69 14923936847889117173
20645477 70 18412270502330497054
21150785 3 16845574252991549984
21521239 73 18272369754539077407
221357 26 18334011674916546948
2215653 11 18261399927250055490
23035841 295 16989123167674090439
23081809 10 17775013370748753841
23402539 116 17988646255459677825
23559900 14 18270115837680737369
29717793 49 18201725028779229998
300161 21 18337110163545446408
3014965 18 17968654926089614090
335352 9 18408890616624732926
34797466 226 14836123294979900312
4325135 7 18131349705365751013
4463277 17 8718828682773479443
5283156 175 17775566417061419551
59682541 35 12031491199348970086
59682541 52 18260269612138152402
59755656 215 17894912888796238667
59755656 520 17603860127232936699

>  <PUBCHEM_SHAPE_MULTIPOLES>  (1) 
363.44
20.67
1.49
0.98
32.68
0.02
-0.08
1.93
-8.27
-3.07
-0.23
1.13
0.08
0.05

>  <PUBCHEM_SHAPE_SELFOVERLAP>  (1) 
732.736

>  <PUBCHEM_SHAPE_VOLUME>  (1) 
212.9

>  <PUBCHEM_COORDINATE_TYPE>  (1) 
2
5
10

$$$$
