10395
     RDKit          3D

 13 13  0  0  1  0  0  0  0  0999 V2000
   -2.2903    0.0778   -0.8532 O   0  0  0  0  0  0  0  0  0  0  0  0
   -4.2406    1.2623   -1.0960 O   0  0  0  0  0  0  0  0  0  0  0  0
   -2.3009   -0.1656    1.4627 C   0  0  0  0  0  0  0  0  0  0  0  0
   -1.4114   -0.2219    0.2399 C   0  0  0  0  0  0  0  0  0  0  0  0
   -3.2724    0.9333    1.1006 C   0  0  0  0  0  0  0  0  0  0  0  0
   -3.3632    0.7908   -0.3899 C   0  0  0  0  0  0  0  0  0  0  0  0
   -0.7710   -1.5469    0.0173 C   0  0  0  0  0  0  0  0  0  0  0  0
    0.5092   -1.7415   -0.1178 C   0  0  0  0  0  0  0  0  0  0  0  0
    1.7852   -1.9398   -0.2531 C   0  0  0  0  0  0  0  0  0  0  0  0
    2.6634   -0.8324   -0.1560 C   0  0  0  0  0  0  0  0  0  0  0  0
    3.4118    0.1031   -0.0744 C   0  0  0  0  0  0  0  0  0  0  0  0
    4.2664    1.1728    0.0191 C   0  0  0  0  0  0  0  0  0  0  0  0
    5.0138    2.1080    0.1008 C   0  0  0  0  0  0  0  0  0  0  0  0
  1  4  1  0
  1  6  1  0
  2  6  2  0
  3  4  1  0
  3  5  1  0
  4  7  1  0
  5  6  1  0
  7  8  2  0
  8  9  2  0
  9 10  1  0
 10 11  3  0
 11 12  1  0
 12 13  3  0
M  END
>  <PUBCHEM_COMPOUND_CID>  (1) 
10395

>  <PUBCHEM_CONFORMER_RMSD>  (1) 
0.6

>  <PUBCHEM_CONFORMER_DIVERSEORDER>  (1) 
2
8
6
9
1
7
10
11
12
3
5
13
14
4

>  <PUBCHEM_MMFF94_PARTIAL_CHARGES>  (1) 
13
1 -0.43
10 -0.06
13 -0.18
19 0.15
2 -0.57
20 0.15
21 0.18
4 0.42
5 0.06
6 0.66
7 -0.22
8 -0.13
9 -0.02

>  <PUBCHEM_EFFECTIVE_ROTOR_COUNT>  (1) 
1.8

>  <PUBCHEM_PHARMACOPHORE_FEATURES>  (1) 
3
1 13 hydrophobe
1 2 acceptor
5 1 3 4 5 6 rings

>  <PUBCHEM_HEAVY_ATOM_COUNT>  (1) 
13

>  <PUBCHEM_ATOM_DEF_STEREO_COUNT>  (1) 
0

>  <PUBCHEM_ATOM_UDEF_STEREO_COUNT>  (1) 
1

>  <PUBCHEM_BOND_DEF_STEREO_COUNT>  (1) 
0

>  <PUBCHEM_BOND_UDEF_STEREO_COUNT>  (1) 
0

>  <PUBCHEM_ISOTOPIC_ATOM_COUNT>  (1) 
0

>  <PUBCHEM_COMPONENT_COUNT>  (1) 
1

>  <PUBCHEM_CACTVS_TAUTO_COUNT>  (1) 
2

>  <PUBCHEM_CONFORMER_ID>  (1) 
0000289B00000002

>  <PUBCHEM_MMFF94_ENERGY>  (1) 
5.5646

>  <PUBCHEM_FEATURE_SELFOVERLAP>  (1) 
15.223

>  <PUBCHEM_SHAPE_FINGERPRINT>  (1) 
10465860 71 15051728681448054763
10498660 4 18341896320354899728
11543360 7 15195285356762192784
122479 349 18334579092126215554
12633257 1 15647054884615747692
14123255 352 18337109068423997532
14123255 52 18410292536487850218
14123260 362 18060144266581954584
1420 369 8214147352382300656
14251710 61 9799695904672291892
14251732 14 16486678277866298765
15239191 94 7925908175615499354
15342168 16 18271539610538351873
17834072 32 18338518663795320708
1798214 55 18411140264316657964
18186145 218 18270410386179382246
193927 3 9007068980436742976
19782 4 18259980466090888204
20281475 54 8574421032883372298
20291156 8 8718555999626244660
20325693 3 14836412419414404753
204376 136 18411140251036201626
20767249 462 18410856594563991372
20871999 31 14548740607521781083
212916 134 16153707562309874057
21499 59 18343301457233593702
21713013 43 13039186996087215208
22096605 113 18338513032639385119
22926399 37 18273213080189313465
22959321 60 18040721367659613338
231179 274 18335141990571456914
23403322 49 10303825267320566404
23500284 214 18337680801369151178
23559900 14 16951416398929548323
27216 239 18187932836266297850
328317 168 18411411825949472621
351380 3 10665223744497119544
474 4 18341611486560795874
5365585 94 9942987601674122980
57096353 35 17203034202159959991
59345606 38 18410571820799248396
633830 44 17916321449630424327
8199 26 18342744035308978432
94968 8 10303809891611719622

>  <PUBCHEM_SHAPE_MULTIPOLES>  (1) 
255.8
9.6
2.08
1
5.91
0.26
-0.15
-7.9
0.58
1.72
0.12
-1.18
-0.2
0.44

>  <PUBCHEM_SHAPE_SELFOVERLAP>  (1) 
518.617

>  <PUBCHEM_SHAPE_VOLUME>  (1) 
147.7

>  <PUBCHEM_COORDINATE_TYPE>  (1) 
2
5
10

$$$$
