10401
     RDKit          3D

  8  8  0  0  0  0  0  0  0  0999 V2000
    0.6647    1.2158    0.0868 O   0  0  0  0  0  0  0  0  0  0  0  0
    2.4535   -0.1231    0.3601 O   0  0  0  0  0  0  0  0  0  0  0  0
   -1.9021   -0.6989    0.0321 C   0  0  0  0  0  0  0  0  0  0  0  0
   -0.6497   -1.5430    0.2460 C   0  0  0  0  0  0  0  0  0  0  0  0
   -1.7275    0.7770    0.3797 C   0  0  0  0  0  0  0  0  0  0  0  0
    0.5166   -1.1127   -0.6319 C   0  0  0  0  0  0  0  0  0  0  0  0
   -0.6509    1.4615   -0.4494 C   0  0  0  0  0  0  0  0  0  0  0  0
    1.2953    0.0235   -0.0235 C   0  0  0  0  0  0  0  0  0  0  0  0
  1  7  1  0
  1  8  1  0
  2  8  2  0
  3  4  1  0
  3  5  1  0
  4  6  1  0
  5  7  1  0
  6  8  1  0
M  END
>  <PUBCHEM_COMPOUND_CID>  (1) 
10401

>  <PUBCHEM_CONFORMER_RMSD>  (1) 
0.4

>  <PUBCHEM_CONFORMER_DIVERSEORDER>  (1) 
1
3
2
4

>  <PUBCHEM_MMFF94_PARTIAL_CHARGES>  (1) 
5
1 -0.43
2 -0.57
6 0.06
7 0.28
8 0.66

>  <PUBCHEM_EFFECTIVE_ROTOR_COUNT>  (1) 
1.2

>  <PUBCHEM_PHARMACOPHORE_FEATURES>  (1) 
2
1 2 acceptor
7 1 3 4 5 6 7 8 rings

>  <PUBCHEM_HEAVY_ATOM_COUNT>  (1) 
8

>  <PUBCHEM_ATOM_DEF_STEREO_COUNT>  (1) 
0

>  <PUBCHEM_ATOM_UDEF_STEREO_COUNT>  (1) 
0

>  <PUBCHEM_BOND_DEF_STEREO_COUNT>  (1) 
0

>  <PUBCHEM_BOND_UDEF_STEREO_COUNT>  (1) 
0

>  <PUBCHEM_ISOTOPIC_ATOM_COUNT>  (1) 
0

>  <PUBCHEM_COMPONENT_COUNT>  (1) 
1

>  <PUBCHEM_CACTVS_TAUTO_COUNT>  (1) 
1

>  <PUBCHEM_CONFORMER_ID>  (1) 
000028A100000001

>  <PUBCHEM_MMFF94_ENERGY>  (1) 
10.596

>  <PUBCHEM_FEATURE_SELFOVERLAP>  (1) 
10.148

>  <PUBCHEM_SHAPE_FINGERPRINT>  (1) 
16714656 1 18409736157459884484
18185500 45 17188411006442346247
21040471 1 18194127317310477237
23235685 24 18341329989929861649
29004967 10 18412553093217664699
5084963 1 18343299270994675435

>  <PUBCHEM_SHAPE_MULTIPOLES>  (1) 
152.9
2.47
1.66
0.71
0.6
0.01
0.04
-0.01
-0.37
-0.39
0.1
-0.01
0.03
0.08

>  <PUBCHEM_SHAPE_SELFOVERLAP>  (1) 
296.31

>  <PUBCHEM_SHAPE_VOLUME>  (1) 
91

>  <PUBCHEM_COORDINATE_TYPE>  (1) 
2
5
10

$$$$
