10416
     RDKit          3D

 20 20  0  0  0  0  0  0  0  0999 V2000
   -6.0699    3.9088    0.0290 O   0  0  0  0  0  0  0  0  0  0  0  0
   -7.0046    1.8399    0.0302 O   0  0  0  0  0  0  0  0  0  0  0  0
    1.3861   -3.8187    0.0076 C   0  0  0  0  0  0  0  0  0  0  0  0
    0.0909   -3.9416    0.0295 C   0  0  0  0  0  0  0  0  0  0  0  0
    0.8592   -5.1470    0.0539 C   0  0  0  0  0  0  0  0  0  0  0  0
    2.6819   -3.0804   -0.0365 C   0  0  0  0  0  0  0  0  0  0  0  0
   -1.2694   -3.4782    0.0301 C   0  0  0  0  0  0  0  0  0  0  0  0
    2.5185   -1.5586   -0.0237 C   0  0  0  0  0  0  0  0  0  0  0  0
   -1.4031   -1.9334    0.0084 C   0  0  0  0  0  0  0  0  0  0  0  0
    3.8572   -0.8120    0.0013 C   0  0  0  0  0  0  0  0  0  0  0  0
   -2.8580   -1.4595   -0.0351 C   0  0  0  0  0  0  0  0  0  0  0  0
    3.6438    0.7039   -0.0158 C   0  0  0  0  0  0  0  0  0  0  0  0
   -3.0026    0.0652   -0.0690 C   0  0  0  0  0  0  0  0  0  0  0  0
    4.9499    1.5035   -0.0046 C   0  0  0  0  0  0  0  0  0  0  0  0
    4.7375    3.0183   -0.0480 C   0  0  0  0  0  0  0  0  0  0  0  0
   -4.4605    0.5374   -0.0439 C   0  0  0  0  0  0  0  0  0  0  0  0
    6.0688    3.7662    0.0386 C   0  0  0  0  0  0  0  0  0  0  0  0
   -4.5786    2.0624   -0.0109 C   0  0  0  0  0  0  0  0  0  0  0  0
    5.8627    5.2726    0.0342 C   0  0  0  0  0  0  0  0  0  0  0  0
   -6.0096    2.5512    0.0248 C   0  0  0  0  0  0  0  0  0  0  0  0
  1 20  1  0
  2 20  2  0
  3  4  2  0
  3  5  1  0
  3  6  1  0
  4  5  1  0
  4  7  1  0
  6  8  1  0
  7  9  1  0
  8 10  1  0
  9 11  1  0
 10 12  1  0
 11 13  1  0
 12 14  1  0
 13 16  1  0
 14 15  1  0
 15 17  1  0
 16 18  1  0
 17 19  1  0
 18 20  1  0
M  END
>  <PUBCHEM_COMPOUND_CID>  (1) 
10416

>  <PUBCHEM_CONFORMER_RMSD>  (1) 
1.4

>  <PUBCHEM_CONFORMER_DIVERSEORDER>  (1) 
1
99
62
37
88
2
97
68
59
34
8
61
41
60
22
100
73
57
5
78
70
49
24
52
23
58
18
55
56
42
82
25
77
74
98
13
81
45
93
20
28
84
51
10
7
54
6
89
11
69
14
31
17
66
16
79
53
91
63
43
9
35
71
21
94
26
75
12
101
19
48
33
72
50
39
87
80
38
32
85
3
67
46
90
40
65
15
83
4
92
29
76
47
44
30
96
64
27
86
95
36

>  <PUBCHEM_MMFF94_PARTIAL_CHARGES>  (1) 
12
1 -0.65
18 0.06
2 -0.57
20 0.66
21 0.1
22 0.1
3 -0.18
4 -0.18
5 -0.12
52 0.5
6 0.14
7 0.14

>  <PUBCHEM_EFFECTIVE_ROTOR_COUNT>  (1) 
14.2

>  <PUBCHEM_PHARMACOPHORE_FEATURES>  (1) 
6
1 1 acceptor
1 19 hydrophobe
1 2 acceptor
3 1 2 20 anion
3 13 16 18 hydrophobe
3 7 9 11 hydrophobe

>  <PUBCHEM_HEAVY_ATOM_COUNT>  (1) 
20

>  <PUBCHEM_ATOM_DEF_STEREO_COUNT>  (1) 
0

>  <PUBCHEM_ATOM_UDEF_STEREO_COUNT>  (1) 
0

>  <PUBCHEM_BOND_DEF_STEREO_COUNT>  (1) 
0

>  <PUBCHEM_BOND_UDEF_STEREO_COUNT>  (1) 
0

>  <PUBCHEM_ISOTOPIC_ATOM_COUNT>  (1) 
0

>  <PUBCHEM_COMPONENT_COUNT>  (1) 
1

>  <PUBCHEM_CACTVS_TAUTO_COUNT>  (1) 
1

>  <PUBCHEM_CONFORMER_ID>  (1) 
000028B000000001

>  <PUBCHEM_MMFF94_ENERGY>  (1) 
34.4974

>  <PUBCHEM_FEATURE_SELFOVERLAP>  (1) 
30.504

>  <PUBCHEM_SHAPE_FINGERPRINT>  (1) 
10675989 125 18339646611974302520
10937287 8 18410855490452058314
11059845 2 18051662681926503952
11374522 174 18261692422797116884
11386260 185 17837484155664473407
11761917 142 17836638996612178856
12107183 9 18263064644549017874
14223995 32 18270672203903481344
14251764 75 18412550915827696225
14429114 114 18411697712148038705
15142526 21 18261112929167468419
15400415 2 18410574019628357876
155225 5 17978792634157378744
155225 6 18410577283919203241
1768 85 18265623083051244377
21388113 180 18410579482846909081
5047190 36 17823146785694286940
5047190 47 17398937290170445901
5047190 92 18410856590343085029
53794403 172 18339361855489434255
5951187 136 18200320913828778014
7808743 9 18122623027389164314
9849439 229 18336267924352923430

>  <PUBCHEM_SHAPE_MULTIPOLES>  (1) 
399.85
17.16
9.07
0.61
5.17
1.19
0
-37.29
0.11
-4.47
0.18
-0.06
0.03
0.01

>  <PUBCHEM_SHAPE_SELFOVERLAP>  (1) 
752.145

>  <PUBCHEM_SHAPE_VOLUME>  (1) 
249.4

>  <PUBCHEM_COORDINATE_TYPE>  (1) 
2
5
10

$$$$
