10418
     RDKit          3D

  5  5  0  0  1  0  0  0  0  0999 V2000
   -2.0509    0.1897   -0.1560 F   0  0  0  0  0  0  0  0  0  0  0  0
    1.1801    0.8051    0.1740 O   0  0  0  0  0  0  0  0  0  0  0  0
    0.2315   -0.0805   -0.4299 C   0  0  0  0  0  0  0  0  0  0  0  0
    1.5904   -0.5556   -0.0134 C   0  0  0  0  0  0  0  0  0  0  0  0
   -0.9511   -0.3588    0.4252 C   0  0  0  0  0  0  0  0  0  0  0  0
  1  5  1  0
  2  3  1  0
  2  4  1  0
  3  4  1  0
  3  5  1  0
M  END
>  <PUBCHEM_COMPOUND_CID>  (1) 
10418

>  <PUBCHEM_CONFORMER_RMSD>  (1) 
0.4

>  <PUBCHEM_CONFORMER_DIVERSEORDER>  (1) 
2
3
1
4

>  <PUBCHEM_MMFF94_PARTIAL_CHARGES>  (1) 
8
1 -0.34
2 -0.3
3 -0.05
4 -0.05
5 0.44
6 0.1
7 0.1
8 0.1

>  <PUBCHEM_EFFECTIVE_ROTOR_COUNT>  (1) 
1.6

>  <PUBCHEM_PHARMACOPHORE_FEATURES>  (1) 
1
1 2 acceptor

>  <PUBCHEM_HEAVY_ATOM_COUNT>  (1) 
5

>  <PUBCHEM_ATOM_DEF_STEREO_COUNT>  (1) 
0

>  <PUBCHEM_ATOM_UDEF_STEREO_COUNT>  (1) 
1

>  <PUBCHEM_BOND_DEF_STEREO_COUNT>  (1) 
0

>  <PUBCHEM_BOND_UDEF_STEREO_COUNT>  (1) 
0

>  <PUBCHEM_ISOTOPIC_ATOM_COUNT>  (1) 
0

>  <PUBCHEM_COMPONENT_COUNT>  (1) 
1

>  <PUBCHEM_CACTVS_TAUTO_COUNT>  (1) 
1

>  <PUBCHEM_CONFORMER_ID>  (1) 
000028B200000002

>  <PUBCHEM_MMFF94_ENERGY>  (1) 
4.8373

>  <PUBCHEM_FEATURE_SELFOVERLAP>  (1) 
5.074

>  <PUBCHEM_SHAPE_FINGERPRINT>  (1) 
139733 1 9511165340192090670
20096714 4 18201440349598790824
21015797 1 9580650077047325078
24536 1 17241330303566143255
29004967 10 18410579452924575850
5460574 1 9439404626967496119
5943 1 12877641701437734998

>  <PUBCHEM_SHAPE_MULTIPOLES>  (1) 
89.75
2.22
0.78
0.66
0.64
0.01
0.01
-0.02
0
-0.19
-0.04
0
-0.02
0.08

>  <PUBCHEM_SHAPE_SELFOVERLAP>  (1) 
164.389

>  <PUBCHEM_SHAPE_VOLUME>  (1) 
58.4

>  <PUBCHEM_COORDINATE_TYPE>  (1) 
2
5
10

$$$$
