1041
     RDKit          3D

 22 22  0  0  1  0  0  0  0  0999 V2000
   -2.9544    0.7864    0.0214 P   0  0  0  0  0  0  0  0  0  0  0  0
    4.1103   -1.7269   -0.0257 P   0  0  0  0  0  0  0  0  0  0  0  0
   -3.2844   -2.1363   -0.0228 P   0  0  0  0  0  0  0  0  0  0  0  0
    0.3654    0.3897    0.0864 O   0  0  0  0  0  0  0  0  0  0  0  0
   -1.6086    1.6541    0.2327 O   0  0  0  0  0  0  0  0  0  0  0  0
    0.6219    3.1161    1.6809 O   0  0  0  0  0  0  0  0  0  0  0  0
    1.1982    2.5682   -1.8329 O   0  0  0  0  0  0  0  0  0  0  0  0
    2.8120   -0.9006    0.4770 O   0  0  0  0  0  0  0  0  0  0  0  0
   -2.4814   -0.7502    0.1900 O   0  0  0  0  0  0  0  0  0  0  0  0
   -3.2707    0.9054   -1.5606 O   0  0  0  0  0  0  0  0  0  0  0  0
   -4.0969    1.1797    0.9125 O   0  0  0  0  0  0  0  0  0  0  0  0
    5.3548   -0.8995    0.5923 O   0  0  0  0  0  0  0  0  0  0  0  0
    4.1752   -1.3735   -1.6024 O   0  0  0  0  0  0  0  0  0  0  0  0
    4.0919   -3.1928    0.2950 O   0  0  0  0  0  0  0  0  0  0  0  0
   -2.2379   -3.2565    0.4894 O   0  0  0  0  0  0  0  0  0  0  0  0
   -4.3993   -2.0974    1.1466 O   0  0  0  0  0  0  0  0  0  0  0  0
   -3.8185   -2.3438   -1.4093 O   0  0  0  0  0  0  0  0  0  0  0  0
    1.2856    2.5411    0.5570 C   0  0  0  0  0  0  0  0  0  0  0  0
    1.4491    1.0390    0.7771 C   0  0  0  0  0  0  0  0  0  0  0  0
    0.3919    2.6322   -0.6634 C   0  0  0  0  0  0  0  0  0  0  0  0
   -0.4566    1.3752   -0.5543 C   0  0  0  0  0  0  0  0  0  0  0  0
    2.7523    0.4904    0.2130 C   0  0  0  0  0  0  0  0  0  0  0  0
  1  5  1  0
  1  9  1  0
  1 10  1  0
  1 11  2  0
  2  8  1  0
  2 12  1  0
  2 13  1  0
  2 14  2  0
  3  9  1  0
  3 15  1  0
  3 16  1  0
  3 17  2  0
  4 19  1  0
  4 21  1  0
  5 21  1  0
  6 18  1  0
  7 20  1  0
  8 22  1  0
 18 19  1  0
 18 20  1  0
 19 22  1  0
 20 21  1  0
M  END
>  <PUBCHEM_COMPOUND_CID>  (1) 
1041

>  <PUBCHEM_CONFORMER_RMSD>  (1) 
1

>  <PUBCHEM_CONFORMER_DIVERSEORDER>  (1) 
1
78
62
129
192
77
267
559
280
46
578
680
19
346
637
472
458
58
507
506
24
366
92
79
21
437
609
532
10
234
367
538
20
257
453
657
681
246
66
12
38
624
623
113
683
168
88
610
16
7
524
400
30
529
621
604
555
222
452
160
254
112
586
420
211
249
33
35
179
525
667
652
513
656
309
242
68
193
514
617
325
490
404
255
148
436
316
613
553
644
70
48
215
117
382
361
688
61
80
642
464
50
677
176
11
25
422
22
151
6
239
534
147
3
128
521
676
473
51
60
606
402
100
653
441
279
323
344
471
413
329
49
509
201
154
576
541
15
504
135
17
338
684
535
672
287
395
18
52
9
289
409
41
233
43
399
28
345
389
248
405
54
145
67
2
57
523
72
4
339
40
26
73

>  <PUBCHEM_MMFF94_PARTIAL_CHARGES>  (1) 
29
1 1.51
10 -0.77
11 -0.7
12 -0.77
13 -0.77
14 -0.7
15 -0.77
16 -0.77
17 -0.7
18 0.28
19 0.28
2 1.51
20 0.28
21 0.56
22 0.28
29 0.4
3 1.51
30 0.4
31 0.5
32 0.5
33 0.5
34 0.5
35 0.5
4 -0.56
5 -0.55
6 -0.68
7 -0.68
8 -0.55
9 -0.54

>  <PUBCHEM_EFFECTIVE_ROTOR_COUNT>  (1) 
8

>  <PUBCHEM_PHARMACOPHORE_FEATURES>  (1) 
16
1 10 acceptor
1 11 acceptor
1 12 acceptor
1 13 acceptor
1 14 acceptor
1 15 acceptor
1 16 acceptor
1 17 acceptor
1 4 acceptor
1 6 acceptor
1 6 donor
1 7 acceptor
1 7 donor
4 2 12 13 14 anion
4 3 15 16 17 anion
5 4 18 19 20 21 rings

>  <PUBCHEM_HEAVY_ATOM_COUNT>  (1) 
22

>  <PUBCHEM_ATOM_DEF_STEREO_COUNT>  (1) 
0

>  <PUBCHEM_ATOM_UDEF_STEREO_COUNT>  (1) 
4

>  <PUBCHEM_BOND_DEF_STEREO_COUNT>  (1) 
0

>  <PUBCHEM_BOND_UDEF_STEREO_COUNT>  (1) 
0

>  <PUBCHEM_ISOTOPIC_ATOM_COUNT>  (1) 
0

>  <PUBCHEM_COMPONENT_COUNT>  (1) 
1

>  <PUBCHEM_CACTVS_TAUTO_COUNT>  (1) 
1

>  <PUBCHEM_CONFORMER_ID>  (1) 
0000041100000001

>  <PUBCHEM_MMFF94_ENERGY>  (1) 
-41.4356

>  <PUBCHEM_FEATURE_SELFOVERLAP>  (1) 
81.294

>  <PUBCHEM_SHAPE_FINGERPRINT>  (1) 
11135609 12 17969784275113385553
12553582 1 18262790761892688354
12596602 18 14116930493047026214
12633257 1 18058189322418610099
12760667 363 18126276433655050294
12969540 37 18265888228277536752
13533116 47 18127127696579396843
14251731 5 18409169921825222994
14863182 85 17687464976240796740
15352361 1 18410852157562523050
1813 80 18040721329353483204
18186145 218 11530768050888397376
19141452 34 18341049614601857441
20281475 54 18410575097733084344
20403669 9 18413109471966737863
20600515 1 18267595614900620324
20621476 51 17916295220619050303
20645477 70 17973711765139674471
20775530 9 18409163346103685875
21069387 34 17917412242886260901
221490 88 18336546126564340048
23557571 272 18128253377537554140
23559900 14 18265038314337333769
23566358 27 18043265732462048317
238078 22 18340498772546222444
5486654 36 18410019831623498419
9709674 26 18265325304136351123

>  <PUBCHEM_SHAPE_MULTIPOLES>  (1) 
382.13
9.21
4.14
1.28
2.68
0.83
0.35
9.16
-0.14
0.1
-0.23
-0.17
-0.46
0.21

>  <PUBCHEM_SHAPE_SELFOVERLAP>  (1) 
724.945

>  <PUBCHEM_SHAPE_VOLUME>  (1) 
236.6

>  <PUBCHEM_COORDINATE_TYPE>  (1) 
2
5
10

$$$$
