10420
     RDKit          3D

  4  3  0  0  0  0  0  0  0  0999 V2000
   -1.5795   -0.4921    0.0000 F   0  0  0  0  0  0  0  0  0  0  0  0
    1.7214   -0.2356   -0.0001 N   0  0  0  0  0  0  0  0  0  0  0  0
   -0.7628    0.5951   -0.0001 C   0  0  0  0  0  0  0  0  0  0  0  0
    0.6210    0.1325    0.0001 C   0  0  0  0  0  0  0  0  0  0  0  0
  1  3  1  0
  2  4  3  0
  3  4  1  0
M  END
>  <PUBCHEM_COMPOUND_CID>  (1) 
10420

>  <PUBCHEM_CONFORMER_RMSD>  (1) 
0.4

>  <PUBCHEM_CONFORMER_DIVERSEORDER>  (1) 
1

>  <PUBCHEM_MMFF94_PARTIAL_CHARGES>  (1) 
4
1 -0.34
2 -0.56
3 0.54
4 0.36

>  <PUBCHEM_EFFECTIVE_ROTOR_COUNT>  (1) 
0

>  <PUBCHEM_PHARMACOPHORE_FEATURES>  (1) 
1
1 2 acceptor

>  <PUBCHEM_HEAVY_ATOM_COUNT>  (1) 
4

>  <PUBCHEM_ATOM_DEF_STEREO_COUNT>  (1) 
0

>  <PUBCHEM_ATOM_UDEF_STEREO_COUNT>  (1) 
0

>  <PUBCHEM_BOND_DEF_STEREO_COUNT>  (1) 
0

>  <PUBCHEM_BOND_UDEF_STEREO_COUNT>  (1) 
0

>  <PUBCHEM_ISOTOPIC_ATOM_COUNT>  (1) 
0

>  <PUBCHEM_COMPONENT_COUNT>  (1) 
1

>  <PUBCHEM_CACTVS_TAUTO_COUNT>  (1) 
1

>  <PUBCHEM_CONFORMER_ID>  (1) 
000028B400000001

>  <PUBCHEM_MMFF94_ENERGY>  (1) 
-0.0443

>  <PUBCHEM_FEATURE_SELFOVERLAP>  (1) 
5.074

>  <PUBCHEM_SHAPE_FINGERPRINT>  (1) 
139733 1 9223236242947650689
20096714 4 18113623343767846524
21015797 1 10158823893983465264
5460574 1 9223232948670824384

>  <PUBCHEM_SHAPE_MULTIPOLES>  (1) 
70.06
1.98
0.72
0.56
0.22
0.06
0
-0.32
0
-0.15
0
0.01
0.02
0

>  <PUBCHEM_SHAPE_SELFOVERLAP>  (1) 
119.823

>  <PUBCHEM_SHAPE_VOLUME>  (1) 
45.1

>  <PUBCHEM_COORDINATE_TYPE>  (1) 
2
5
10

$$$$
