10429
     RDKit          3D

  6  5  0  0  0  0  0  0  0  0999 V2000
    2.7479    0.2017   -0.5604 Cl  0  0  0  0  0  0  0  0  0  0  0  0
   -0.9875    0.0305    0.0145 C   0  0  0  0  0  0  0  0  0  0  0  0
    0.2355    0.4980    0.3292 C   0  0  0  0  0  0  0  0  0  0  0  0
   -2.1435    0.9780   -0.1657 C   0  0  0  0  0  0  0  0  0  0  0  0
   -1.3319   -1.4165   -0.1977 C   0  0  0  0  0  0  0  0  0  0  0  0
    1.4794   -0.2917    0.5802 C   0  0  0  0  0  0  0  0  0  0  0  0
  1  6  1  0
  2  3  2  3
  2  4  1  0
  2  5  1  0
  3  6  1  0
M  END
>  <PUBCHEM_COMPOUND_CID>  (1) 
10429

>  <PUBCHEM_CONFORMER_RMSD>  (1) 
0.4

>  <PUBCHEM_CONFORMER_DIVERSEORDER>  (1) 
1
5
3
4
2

>  <PUBCHEM_MMFF94_PARTIAL_CHARGES>  (1) 
7
1 -0.29
2 -0.28
3 -0.29
4 0.14
5 0.14
6 0.43
7 0.15

>  <PUBCHEM_EFFECTIVE_ROTOR_COUNT>  (1) 
1

>  <PUBCHEM_PHARMACOPHORE_FEATURES>  (1) 
1
3 2 4 5 hydrophobe

>  <PUBCHEM_HEAVY_ATOM_COUNT>  (1) 
6

>  <PUBCHEM_ATOM_DEF_STEREO_COUNT>  (1) 
0

>  <PUBCHEM_ATOM_UDEF_STEREO_COUNT>  (1) 
0

>  <PUBCHEM_BOND_DEF_STEREO_COUNT>  (1) 
0

>  <PUBCHEM_BOND_UDEF_STEREO_COUNT>  (1) 
0

>  <PUBCHEM_ISOTOPIC_ATOM_COUNT>  (1) 
0

>  <PUBCHEM_COMPONENT_COUNT>  (1) 
1

>  <PUBCHEM_CACTVS_TAUTO_COUNT>  (1) 
1

>  <PUBCHEM_CONFORMER_ID>  (1) 
000028BD00000001

>  <PUBCHEM_MMFF94_ENERGY>  (1) 
2.5055

>  <PUBCHEM_FEATURE_SELFOVERLAP>  (1) 
5.074

>  <PUBCHEM_SHAPE_FINGERPRINT>  (1) 
12932741 1 17704065231172054544
14390081 3 18260266365105829988
16714656 1 18410013212873198917
20096714 4 18186517674617748576
21040471 1 18268418058250921305
23552423 10 18260825951999748746
24536 1 17346312738911653176
29004967 10 16630531760499349282
5460574 1 11167938060943412520

>  <PUBCHEM_SHAPE_MULTIPOLES>  (1) 
125.35
3.55
1.17
0.76
1.8
0.29
0
-0.49
0.69
-0.73
0.08
0.22
0
-0.09

>  <PUBCHEM_SHAPE_SELFOVERLAP>  (1) 
212.924

>  <PUBCHEM_SHAPE_VOLUME>  (1) 
84.9

>  <PUBCHEM_COORDINATE_TYPE>  (1) 
2
5
10

$$$$
