10425
     RDKit          3D

  7  6  0  0  0  0  0  0  0  0999 V2000
   -0.8596    0.0281    0.0000 N   0  0  0  0  0  0  0  0  0  0  0  0
    0.3938   -0.1971    0.8334 C   0  0  0  0  0  0  0  0  0  0  0  0
   -1.1359   -1.2073   -0.8449 C   0  0  0  0  0  0  0  0  0  0  0  0
   -2.0421    0.2868    0.9224 C   0  0  0  0  0  0  0  0  0  0  0  0
   -0.6543    1.2300   -0.9108 C   0  0  0  0  0  0  0  0  0  0  0  0
    1.6049   -0.4591    0.0000 C   0  0  0  0  0  0  0  0  0  0  0  0
    2.6931    0.3185   -0.0001 C   0  0  0  0  0  0  0  0  0  0  0  0
  1  2  1  0
  1  3  1  0
  1  4  1  0
  1  5  1  0
  2  6  1  0
  6  7  2  0
M  CHG  1   1   1
M  END
>  <PUBCHEM_COMPOUND_CID>  (1) 
10425

>  <PUBCHEM_CONFORMER_RMSD>  (1) 
0.4

>  <PUBCHEM_CONFORMER_DIVERSEORDER>  (1) 
2
1

>  <PUBCHEM_MMFF94_PARTIAL_CHARGES>  (1) 
10
1 -1.01
19 0.15
2 0.64
20 0.15
21 0.15
3 0.5
4 0.5
5 0.5
6 -0.29
7 -0.3

>  <PUBCHEM_EFFECTIVE_ROTOR_COUNT>  (1) 
2

>  <PUBCHEM_PHARMACOPHORE_FEATURES>  (1) 
2
1 1 cation
1 7 hydrophobe

>  <PUBCHEM_HEAVY_ATOM_COUNT>  (1) 
7

>  <PUBCHEM_ATOM_DEF_STEREO_COUNT>  (1) 
0

>  <PUBCHEM_ATOM_UDEF_STEREO_COUNT>  (1) 
0

>  <PUBCHEM_BOND_DEF_STEREO_COUNT>  (1) 
0

>  <PUBCHEM_BOND_UDEF_STEREO_COUNT>  (1) 
0

>  <PUBCHEM_ISOTOPIC_ATOM_COUNT>  (1) 
0

>  <PUBCHEM_COMPONENT_COUNT>  (1) 
1

>  <PUBCHEM_CACTVS_TAUTO_COUNT>  (1) 
1

>  <PUBCHEM_CONFORMER_ID>  (1) 
000028B900000002

>  <PUBCHEM_MMFF94_ENERGY>  (1) 
19.1476

>  <PUBCHEM_FEATURE_SELFOVERLAP>  (1) 
10.148

>  <PUBCHEM_SHAPE_FINGERPRINT>  (1) 
10857977 72 17386296487777324145
16714656 1 18411700980296072823
20096714 4 17533768308964693116
21040471 1 17417533501432068019
23235687 12 18343301483361684348
24536 1 17202460312777129770
29004967 10 17676498253907122920
369184 2 13695863740307971492
5943 1 13073720818364847853

>  <PUBCHEM_SHAPE_MULTIPOLES>  (1) 
139.08
3.04
1.11
1.06
1.73
0.01
0
0.19
0.37
-0.33
-0.37
-0.42
0.04
-0.15

>  <PUBCHEM_SHAPE_SELFOVERLAP>  (1) 
243.545

>  <PUBCHEM_SHAPE_VOLUME>  (1) 
93.8

>  <PUBCHEM_COORDINATE_TYPE>  (1) 
2
5
10

$$$$
