10434
     RDKit          3D

  8  8  0  0  0  0  0  0  0  0999 V2000
   -2.3011   -0.9885    0.2721 O   0  0  0  0  0  0  0  0  0  0  0  0
    2.3010   -0.9886    0.2721 O   0  0  0  0  0  0  0  0  0  0  0  0
   -0.0001    1.7063    0.3693 C   0  0  0  0  0  0  0  0  0  0  0  0
   -1.2561    1.1026   -0.2416 C   0  0  0  0  0  0  0  0  0  0  0  0
    1.2562    1.1027   -0.2414 C   0  0  0  0  0  0  0  0  0  0  0  0
    0.0001   -1.1466   -0.3599 C   0  0  0  0  0  0  0  0  0  0  0  0
   -1.2677   -0.3941   -0.0352 C   0  0  0  0  0  0  0  0  0  0  0  0
    1.2677   -0.3940   -0.0354 C   0  0  0  0  0  0  0  0  0  0  0  0
  1  7  2  0
  2  8  2  0
  3  4  1  0
  3  5  1  0
  4  7  1  0
  5  8  1  0
  6  7  1  0
  6  8  1  0
M  END
>  <PUBCHEM_COMPOUND_CID>  (1) 
10434

>  <PUBCHEM_CONFORMER_RMSD>  (1) 
0.4

>  <PUBCHEM_CONFORMER_DIVERSEORDER>  (1) 
1

>  <PUBCHEM_MMFF94_PARTIAL_CHARGES>  (1) 
7
1 -0.57
2 -0.57
4 0.06
5 0.06
6 0.12
7 0.45
8 0.45

>  <PUBCHEM_EFFECTIVE_ROTOR_COUNT>  (1) 
0.8

>  <PUBCHEM_PHARMACOPHORE_FEATURES>  (1) 
4
1 1 acceptor
1 2 acceptor
1 6 anion
6 3 4 5 6 7 8 rings

>  <PUBCHEM_HEAVY_ATOM_COUNT>  (1) 
8

>  <PUBCHEM_ATOM_DEF_STEREO_COUNT>  (1) 
0

>  <PUBCHEM_ATOM_UDEF_STEREO_COUNT>  (1) 
0

>  <PUBCHEM_BOND_DEF_STEREO_COUNT>  (1) 
0

>  <PUBCHEM_BOND_UDEF_STEREO_COUNT>  (1) 
0

>  <PUBCHEM_ISOTOPIC_ATOM_COUNT>  (1) 
0

>  <PUBCHEM_COMPONENT_COUNT>  (1) 
1

>  <PUBCHEM_CACTVS_TAUTO_COUNT>  (1) 
5

>  <PUBCHEM_CONFORMER_ID>  (1) 
000028C200000001

>  <PUBCHEM_MMFF94_ENERGY>  (1) 
5.3129

>  <PUBCHEM_FEATURE_SELFOVERLAP>  (1) 
20.297

>  <PUBCHEM_SHAPE_FINGERPRINT>  (1) 
18185500 45 18125157383825172094
21040471 1 17042044040022574669
23552423 10 18187652375218470854
29004967 10 18116436036250711273

>  <PUBCHEM_SHAPE_MULTIPOLES>  (1) 
152.9
2.47
1.71
0.66
0
0.45
0.02
-0.82
-0.21
0
-0.06
0
0.03
0

>  <PUBCHEM_SHAPE_SELFOVERLAP>  (1) 
303.754

>  <PUBCHEM_SHAPE_VOLUME>  (1) 
90

>  <PUBCHEM_COORDINATE_TYPE>  (1) 
2
5
10

$$$$
