10438
     RDKit          3D

 10  9  0  0  0  0  0  0  0  0999 V2000
    0.0158   -1.4476    0.0180 O   0  0  0  0  0  0  0  0  0  0  0  0
   -2.4833    0.2127    0.0227 C   0  0  0  0  0  0  0  0  0  0  0  0
    2.4929    0.2451   -0.0390 C   0  0  0  0  0  0  0  0  0  0  0  0
   -1.2140    0.5903    0.2633 C   0  0  0  0  0  0  0  0  0  0  0  0
    1.2184    0.5990   -0.2880 C   0  0  0  0  0  0  0  0  0  0  0  0
    0.0077   -0.2257   -0.0006 C   0  0  0  0  0  0  0  0  0  0  0  0
   -3.6156    1.1544    0.3453 C   0  0  0  0  0  0  0  0  0  0  0  0
   -2.9283   -1.0940   -0.5723 C   0  0  0  0  0  0  0  0  0  0  0  0
    3.7192    1.0665   -0.3236 C   0  0  0  0  0  0  0  0  0  0  0  0
    2.7873   -1.1006    0.5741 C   0  0  0  0  0  0  0  0  0  0  0  0
  1  6  2  0
  2  4  2  3
  2  7  1  0
  2  8  1  0
  3  5  2  3
  3  9  1  0
  3 10  1  0
  4  6  1  0
  5  6  1  0
M  END
>  <PUBCHEM_COMPOUND_CID>  (1) 
10438

>  <PUBCHEM_CONFORMER_RMSD>  (1) 
0.4

>  <PUBCHEM_CONFORMER_DIVERSEORDER>  (1) 
2
8
3
10
1
6
7
9
5
4

>  <PUBCHEM_MMFF94_PARTIAL_CHARGES>  (1) 
12
1 -0.57
10 0.14
11 0.15
12 0.15
2 -0.28
3 -0.28
4 -0.14
5 -0.14
6 0.54
7 0.14
8 0.14
9 0.14

>  <PUBCHEM_EFFECTIVE_ROTOR_COUNT>  (1) 
2

>  <PUBCHEM_PHARMACOPHORE_FEATURES>  (1) 
3
1 1 acceptor
3 2 7 8 hydrophobe
3 3 9 10 hydrophobe

>  <PUBCHEM_HEAVY_ATOM_COUNT>  (1) 
10

>  <PUBCHEM_ATOM_DEF_STEREO_COUNT>  (1) 
0

>  <PUBCHEM_ATOM_UDEF_STEREO_COUNT>  (1) 
0

>  <PUBCHEM_BOND_DEF_STEREO_COUNT>  (1) 
0

>  <PUBCHEM_BOND_UDEF_STEREO_COUNT>  (1) 
0

>  <PUBCHEM_ISOTOPIC_ATOM_COUNT>  (1) 
0

>  <PUBCHEM_COMPONENT_COUNT>  (1) 
1

>  <PUBCHEM_CACTVS_TAUTO_COUNT>  (1) 
5

>  <PUBCHEM_CONFORMER_ID>  (1) 
000028C600000002

>  <PUBCHEM_MMFF94_ENERGY>  (1) 
22.0698

>  <PUBCHEM_FEATURE_SELFOVERLAP>  (1) 
15.223

>  <PUBCHEM_SHAPE_FINGERPRINT>  (1) 
10219947 1 18040437667884575173
11062470 55 18409450284289242409
12932764 1 18410573985167489769
14144814 61 18408321098800736872
14325111 11 18410575088963333956
14993402 34 18334011735087754556
15775835 57 18410859858185423785
18186145 218 18410856542660543100
20279233 1 15502369041145914595
20645477 70 18260822648969483383
20711983 171 18343302560950225741
20871998 22 17974843974606884106
23402539 116 18202278113483176212
3248919 1 18411691084707448399

>  <PUBCHEM_SHAPE_MULTIPOLES>  (1) 
199.93
6.64
1.35
0.71
0.1
0.22
0
-1.46
0.06
-0.07
-0.01
0
0.03
-0.7

>  <PUBCHEM_SHAPE_SELFOVERLAP>  (1) 
376.961

>  <PUBCHEM_SHAPE_VOLUME>  (1) 
125.1

>  <PUBCHEM_COORDINATE_TYPE>  (1) 
2
5
10

$$$$
