10433
     RDKit          3D

  8  8  0  0  1  0  0  0  0  0999 V2000
   -1.6200   -1.1321   -0.8986 O   0  0  0  0  0  0  0  0  0  0  0  0
    2.5254   -0.5125    0.0108 O   0  0  0  0  0  0  0  0  0  0  0  0
   -1.2129   -0.7294    0.4075 C   0  0  0  0  0  0  0  0  0  0  0  0
    1.1685   -0.2173   -0.3042 C   0  0  0  0  0  0  0  0  0  0  0  0
    0.2649   -1.0717    0.5872 C   0  0  0  0  0  0  0  0  0  0  0  0
   -1.4693    0.7676    0.5911 C   0  0  0  0  0  0  0  0  0  0  0  0
    0.9072    1.2737   -0.0967 C   0  0  0  0  0  0  0  0  0  0  0  0
   -0.5637    1.6216   -0.2972 C   0  0  0  0  0  0  0  0  0  0  0  0
  1  3  1  0
  2  4  1  0
  3  5  1  0
  3  6  1  0
  4  5  1  0
  4  7  1  0
  6  8  1  0
  7  8  1  0
M  END
>  <PUBCHEM_COMPOUND_CID>  (1) 
10433

>  <PUBCHEM_CONFORMER_RMSD>  (1) 
0.4

>  <PUBCHEM_CONFORMER_DIVERSEORDER>  (1) 
1
6
4
3
7
2
5

>  <PUBCHEM_MMFF94_PARTIAL_CHARGES>  (1) 
6
1 -0.68
19 0.4
2 -0.68
20 0.4
3 0.28
4 0.28

>  <PUBCHEM_EFFECTIVE_ROTOR_COUNT>  (1) 
1.2

>  <PUBCHEM_PHARMACOPHORE_FEATURES>  (1) 
5
1 1 acceptor
1 1 donor
1 2 acceptor
1 2 donor
6 3 4 5 6 7 8 rings

>  <PUBCHEM_HEAVY_ATOM_COUNT>  (1) 
8

>  <PUBCHEM_ATOM_DEF_STEREO_COUNT>  (1) 
0

>  <PUBCHEM_ATOM_UDEF_STEREO_COUNT>  (1) 
2

>  <PUBCHEM_BOND_DEF_STEREO_COUNT>  (1) 
0

>  <PUBCHEM_BOND_UDEF_STEREO_COUNT>  (1) 
0

>  <PUBCHEM_ISOTOPIC_ATOM_COUNT>  (1) 
0

>  <PUBCHEM_COMPONENT_COUNT>  (1) 
1

>  <PUBCHEM_CACTVS_TAUTO_COUNT>  (1) 
1

>  <PUBCHEM_CONFORMER_ID>  (1) 
000028C100000001

>  <PUBCHEM_MMFF94_ENERGY>  (1) 
8.1397

>  <PUBCHEM_FEATURE_SELFOVERLAP>  (1) 
25.371

>  <PUBCHEM_SHAPE_FINGERPRINT>  (1) 
12423570 1 16754633307108436641
137420 1 14423729197813354048
16714656 1 18266470801635840096
18185500 45 18409730672665412587
21040471 1 17976261227260732912
23552423 10 18115037290315450414
241688 4 18409165540874035841
24536 1 17971194965316032544
29004967 10 18047195429620856419

>  <PUBCHEM_SHAPE_MULTIPOLES>  (1) 
152.9
2.3
1.62
0.81
0.95
0.4
-0.04
-0.39
-0.05
-0.27
-0.08
-0.22
-0.12
-0.2

>  <PUBCHEM_SHAPE_SELFOVERLAP>  (1) 
295.74

>  <PUBCHEM_SHAPE_VOLUME>  (1) 
92.3

>  <PUBCHEM_COORDINATE_TYPE>  (1) 
2
5
10

$$$$
