10439
     RDKit          3D

  7  7  0  0  0  0  0  0  0  0999 V2000
    0.3357   -1.2057   -0.0001 N   0  0  0  0  0  0  0  0  0  0  0  0
    2.3622    0.0470    0.0000 N   0  0  0  0  0  0  0  0  0  0  0  0
    0.9462    0.0004    0.0001 C   0  0  0  0  0  0  0  0  0  0  0  0
    0.2722    1.2110   -0.0001 C   0  0  0  0  0  0  0  0  0  0  0  0
   -1.1179    1.1818    0.0000 C   0  0  0  0  0  0  0  0  0  0  0  0
   -1.7821   -0.0399    0.0001 C   0  0  0  0  0  0  0  0  0  0  0  0
   -1.0162   -1.1945   -0.0001 C   0  0  0  0  0  0  0  0  0  0  0  0
  1  3  2  0
  1  7  1  0
  2  3  1  0
  3  4  1  0
  4  5  2  0
  5  6  1  0
  6  7  2  0
M  END
>  <PUBCHEM_COMPOUND_CID>  (1) 
10439

>  <PUBCHEM_CONFORMER_RMSD>  (1) 
0.4

>  <PUBCHEM_CONFORMER_DIVERSEORDER>  (1) 
1

>  <PUBCHEM_MMFF94_PARTIAL_CHARGES>  (1) 
13
1 -0.62
10 0.15
11 0.15
12 0.4
13 0.4
2 -0.9
3 0.41
4 -0.15
5 -0.15
6 -0.15
7 0.16
8 0.15
9 0.15

>  <PUBCHEM_EFFECTIVE_ROTOR_COUNT>  (1) 
0

>  <PUBCHEM_PHARMACOPHORE_FEATURES>  (1) 
4
1 1 acceptor
1 2 cation
1 2 donor
6 1 3 4 5 6 7 rings

>  <PUBCHEM_HEAVY_ATOM_COUNT>  (1) 
7

>  <PUBCHEM_ATOM_DEF_STEREO_COUNT>  (1) 
0

>  <PUBCHEM_ATOM_UDEF_STEREO_COUNT>  (1) 
0

>  <PUBCHEM_BOND_DEF_STEREO_COUNT>  (1) 
0

>  <PUBCHEM_BOND_UDEF_STEREO_COUNT>  (1) 
0

>  <PUBCHEM_ISOTOPIC_ATOM_COUNT>  (1) 
0

>  <PUBCHEM_COMPONENT_COUNT>  (1) 
1

>  <PUBCHEM_CACTVS_TAUTO_COUNT>  (1) 
2

>  <PUBCHEM_CONFORMER_ID>  (1) 
000028C700000001

>  <PUBCHEM_MMFF94_ENERGY>  (1) 
22.6753

>  <PUBCHEM_FEATURE_SELFOVERLAP>  (1) 
20.297

>  <PUBCHEM_SHAPE_FINGERPRINT>  (1) 
16714656 1 18410579487147014668
18185500 45 18336262439526581870
20096714 4 18122908629238186681
21040471 1 18266741272811522785
23552423 10 18260836960222331510
29004967 10 18187375328178917289

>  <PUBCHEM_SHAPE_MULTIPOLES>  (1) 
134.09
2.23
1.42
0.59
0.81
0.02
0
-0.03
0
-0.3
0
-0.03
0.02
0

>  <PUBCHEM_SHAPE_SELFOVERLAP>  (1) 
275.278

>  <PUBCHEM_SHAPE_VOLUME>  (1) 
75.9

>  <PUBCHEM_COORDINATE_TYPE>  (1) 
2
5
10

$$$$
