10447
     RDKit          3D

 11 10  0  0  1  0  0  0  0  0999 V2000
    4.7915   -0.7109    0.2085 O   0  0  0  0  0  0  0  0  0  0  0  0
    3.8645    1.2703   -0.3996 O   0  0  0  0  0  0  0  0  0  0  0  0
   -2.6857   -0.1861    0.2124 C   0  0  0  0  0  0  0  0  0  0  0  0
   -1.3187    0.4768   -0.0667 C   0  0  0  0  0  0  0  0  0  0  0  0
   -0.1197   -0.4245    0.2478 C   0  0  0  0  0  0  0  0  0  0  0  0
   -3.8017    0.8515   -0.0331 C   0  0  0  0  0  0  0  0  0  0  0  0
    1.2032    0.3010   -0.0255 C   0  0  0  0  0  0  0  0  0  0  0  0
   -2.8897   -1.4440   -0.6377 C   0  0  0  0  0  0  0  0  0  0  0  0
    2.4209   -0.5846    0.2410 C   0  0  0  0  0  0  0  0  0  0  0  0
   -5.2013    0.3346    0.2696 C   0  0  0  0  0  0  0  0  0  0  0  0
    3.7366    0.1158   -0.0165 C   0  0  0  0  0  0  0  0  0  0  0  0
  1 11  1  0
  2 11  2  0
  3  4  1  0
  3  6  1  0
  3  8  1  0
  4  5  1  0
  5  7  1  0
  6 10  1  0
  7  9  1  0
  9 11  1  0
M  END
>  <PUBCHEM_COMPOUND_CID>  (1) 
10447

>  <PUBCHEM_CONFORMER_RMSD>  (1) 
0.6

>  <PUBCHEM_CONFORMER_DIVERSEORDER>  (1) 
2
216
46
201
34
187
81
214
58
19
222
123
176
50
223
10
90
220
75
213
22
198
20
191
71
4
59
221
48
73
207
6
8
224
154
203
30
156
32
199
15
151
17
195
206
175
45
210
101
80
64
202
5
194
83
215
86
24
62
95
70
200
113
192
84
219
78
94
115
97
197
102
141
168
55
85
54
211
33
61
28
39
160
150
147
208
144
129
167
178
88
21
41
63
40
35
189
89
145
68
14
118
217
106
162
67
98
36
218
146
82
109
57
139
69
209
170
114
29
105
49
92
125
1
60
158
128
117
165
3
9
153
23
148
47
152
190
159
38
65
179
134
185
99
173
169
193
177
149
103
51
182
161
212
56
119
204
155
157
104
72
142
27
108
127
186
26
100
180
53
138
132
137
166
111
31
135
122
183
18
87
96
174
16
12
163
91
13
205
130
112
143
140
66
133
171
77
196
93
7
136
107
76
79
116
110
44
124
164
121
184
37
42
120
11
52
181
74
25
172
188
131
126
43

>  <PUBCHEM_MMFF94_PARTIAL_CHARGES>  (1) 
5
1 -0.65
11 0.66
2 -0.57
29 0.5
9 0.06

>  <PUBCHEM_EFFECTIVE_ROTOR_COUNT>  (1) 
6

>  <PUBCHEM_PHARMACOPHORE_FEATURES>  (1) 
7
1 1 acceptor
1 10 hydrophobe
1 2 acceptor
1 8 hydrophobe
3 1 2 11 anion
3 3 4 6 hydrophobe
3 5 7 9 hydrophobe

>  <PUBCHEM_HEAVY_ATOM_COUNT>  (1) 
11

>  <PUBCHEM_ATOM_DEF_STEREO_COUNT>  (1) 
0

>  <PUBCHEM_ATOM_UDEF_STEREO_COUNT>  (1) 
1

>  <PUBCHEM_BOND_DEF_STEREO_COUNT>  (1) 
0

>  <PUBCHEM_BOND_UDEF_STEREO_COUNT>  (1) 
0

>  <PUBCHEM_ISOTOPIC_ATOM_COUNT>  (1) 
0

>  <PUBCHEM_COMPONENT_COUNT>  (1) 
1

>  <PUBCHEM_CACTVS_TAUTO_COUNT>  (1) 
1

>  <PUBCHEM_CONFORMER_ID>  (1) 
000028CF00000002

>  <PUBCHEM_MMFF94_ENERGY>  (1) 
6.0056

>  <PUBCHEM_FEATURE_SELFOVERLAP>  (1) 
35.804

>  <PUBCHEM_SHAPE_FINGERPRINT>  (1) 
11062470 55 18410293609696924273
14123238 8 12324243862356222369
14251718 22 11311764077429410801
14325111 11 18410011052615373290
15242433 33 18412826880192573807
17834072 33 18342736360154798317
17834076 25 18410576175590046849
18186145 218 17240196660081107834
187816 3 16773794780320075091
190213 19 16558753429387491186
20279233 1 16343707637880749439
20645477 70 18270401577307200270
20719005 15 18335421257465511529
20828058 44 18201717362094009374
21119208 17 18413670201352832569
22485316 2 18201716262724754390
23402539 116 18341324543842550878
23402655 69 18411702093088377828
42788 4 18334576832920540393
449060 50 18409169896408496335

>  <PUBCHEM_SHAPE_MULTIPOLES>  (1) 
214.64
10.82
1.11
0.67
1.9
0.14
0.01
-1.04
-0.22
-0.24
0.16
-0.11
0.04
-0.48

>  <PUBCHEM_SHAPE_SELFOVERLAP>  (1) 
390.125

>  <PUBCHEM_SHAPE_VOLUME>  (1) 
137.6

>  <PUBCHEM_COORDINATE_TYPE>  (1) 
2
5
10

$$$$
