10448
     RDKit          3D

  6  5  0  0  0  0  0  0  0  0999 V2000
   -1.9713    0.7761    0.0053 S   0  0  0  0  0  0  0  0  0  0  0  0
    3.1423    0.2045   -0.0044 O   0  0  0  0  0  0  0  0  0  0  0  0
    0.7539    0.3929   -0.0056 C   0  0  0  0  0  0  0  0  0  0  0  0
   -0.5642   -0.3711    0.0148 C   0  0  0  0  0  0  0  0  0  0  0  0
    1.9438   -0.5585    0.0006 C   0  0  0  0  0  0  0  0  0  0  0  0
   -3.3045   -0.4440   -0.0108 C   0  0  0  0  0  0  0  0  0  0  0  0
  1  4  1  0
  1  6  1  0
  2  5  1  0
  3  4  1  0
  3  5  1  0
M  END
>  <PUBCHEM_COMPOUND_CID>  (1) 
10448

>  <PUBCHEM_CONFORMER_RMSD>  (1) 
0.4

>  <PUBCHEM_CONFORMER_DIVERSEORDER>  (1) 
1
21
10
14
20
13
9
6
15
19
16
17
18
4
11
12
5
7
8
2
3

>  <PUBCHEM_MMFF94_PARTIAL_CHARGES>  (1) 
6
1 -0.46
16 0.4
2 -0.68
4 0.23
5 0.28
6 0.23

>  <PUBCHEM_EFFECTIVE_ROTOR_COUNT>  (1) 
3

>  <PUBCHEM_PHARMACOPHORE_FEATURES>  (1) 
3
1 2 acceptor
1 2 donor
1 6 hydrophobe

>  <PUBCHEM_HEAVY_ATOM_COUNT>  (1) 
6

>  <PUBCHEM_ATOM_DEF_STEREO_COUNT>  (1) 
0

>  <PUBCHEM_ATOM_UDEF_STEREO_COUNT>  (1) 
0

>  <PUBCHEM_BOND_DEF_STEREO_COUNT>  (1) 
0

>  <PUBCHEM_BOND_UDEF_STEREO_COUNT>  (1) 
0

>  <PUBCHEM_ISOTOPIC_ATOM_COUNT>  (1) 
0

>  <PUBCHEM_COMPONENT_COUNT>  (1) 
1

>  <PUBCHEM_CACTVS_TAUTO_COUNT>  (1) 
1

>  <PUBCHEM_CONFORMER_ID>  (1) 
000028D000000001

>  <PUBCHEM_MMFF94_ENERGY>  (1) 
5.2624

>  <PUBCHEM_FEATURE_SELFOVERLAP>  (1) 
15.223

>  <PUBCHEM_SHAPE_FINGERPRINT>  (1) 
11062470 55 14851603284737617663
12932764 1 15697708225365355469
14325111 11 18410855421510405379
14390081 3 18413386523126730760
16714656 1 18412261735853515271
29004967 10 16630809893717170963
5460574 1 9295286140346161921

>  <PUBCHEM_SHAPE_MULTIPOLES>  (1) 
121.46
5.19
0.88
0.62
0.13
0.05
0
-0.39
-0.02
-0.26
0
-0.08
0.01
0

>  <PUBCHEM_SHAPE_SELFOVERLAP>  (1) 
194.044

>  <PUBCHEM_SHAPE_VOLUME>  (1) 
86.7

>  <PUBCHEM_COORDINATE_TYPE>  (1) 
2
5
10

$$$$
