10444
     RDKit          3D

  5  5  0  0  0  0  0  0  0  0999 V2000
   -1.3829   -0.6132   -0.0304 S   0  0  0  0  0  0  0  0  0  0  0  0
    1.2349   -0.2160    0.2468 N   0  0  0  0  0  0  0  0  0  0  0  0
    0.6526    1.0273   -0.2770 C   0  0  0  0  0  0  0  0  0  0  0  0
   -0.8015    1.0861    0.1675 C   0  0  0  0  0  0  0  0  0  0  0  0
    0.2969   -1.2841   -0.1069 C   0  0  0  0  0  0  0  0  0  0  0  0
  1  4  1  0
  1  5  1  0
  2  3  1  0
  2  5  1  0
  3  4  1  0
M  END
>  <PUBCHEM_COMPOUND_CID>  (1) 
10444

>  <PUBCHEM_CONFORMER_RMSD>  (1) 
0.4

>  <PUBCHEM_CONFORMER_DIVERSEORDER>  (1) 
1

>  <PUBCHEM_MMFF94_PARTIAL_CHARGES>  (1) 
6
1 -0.46
12 0.36
2 -0.9
3 0.27
4 0.23
5 0.5

>  <PUBCHEM_EFFECTIVE_ROTOR_COUNT>  (1) 
1

>  <PUBCHEM_PHARMACOPHORE_FEATURES>  (1) 
3
1 2 cation
1 2 donor
5 1 2 3 4 5 rings

>  <PUBCHEM_HEAVY_ATOM_COUNT>  (1) 
5

>  <PUBCHEM_ATOM_DEF_STEREO_COUNT>  (1) 
0

>  <PUBCHEM_ATOM_UDEF_STEREO_COUNT>  (1) 
0

>  <PUBCHEM_BOND_DEF_STEREO_COUNT>  (1) 
0

>  <PUBCHEM_BOND_UDEF_STEREO_COUNT>  (1) 
0

>  <PUBCHEM_ISOTOPIC_ATOM_COUNT>  (1) 
0

>  <PUBCHEM_COMPONENT_COUNT>  (1) 
1

>  <PUBCHEM_CACTVS_TAUTO_COUNT>  (1) 
1

>  <PUBCHEM_CONFORMER_ID>  (1) 
000028CC00000001

>  <PUBCHEM_MMFF94_ENERGY>  (1) 
1.947

>  <PUBCHEM_FEATURE_SELFOVERLAP>  (1) 
15.223

>  <PUBCHEM_SHAPE_FINGERPRINT>  (1) 
139733 1 9439409038009652915
16714656 1 18267597977300950636
20096714 4 17617945072266792895
21015797 1 9295296027381995821
21040471 1 17834114530133924845
5943 1 13458394654767256173

>  <PUBCHEM_SHAPE_MULTIPOLES>  (1) 
101.77
1.56
1.47
0.65
0.25
0.03
-0.01
-0.07
-0.06
-0.01
0.05
0.01
-0.02
-0.07

>  <PUBCHEM_SHAPE_SELFOVERLAP>  (1) 
177.307

>  <PUBCHEM_SHAPE_VOLUME>  (1) 
68.8

>  <PUBCHEM_COORDINATE_TYPE>  (1) 
2
5
10

$$$$
