10451
     RDKit          3D

  6  6  0  0  0  0  0  0  0  0999 V2000
   -1.5025   -0.8410   -0.3178 S   0  0  0  0  0  0  0  0  0  0  0  0
    1.5026   -0.8409   -0.3181 S   0  0  0  0  0  0  0  0  0  0  0  0
    0.0000    1.5112   -0.2599 C   0  0  0  0  0  0  0  0  0  0  0  0
   -1.2834    0.8686    0.2588 C   0  0  0  0  0  0  0  0  0  0  0  0
    1.2833    0.8686    0.2592 C   0  0  0  0  0  0  0  0  0  0  0  0
    0.0000   -1.5665    0.3778 C   0  0  0  0  0  0  0  0  0  0  0  0
  1  4  1  0
  1  6  1  0
  2  5  1  0
  2  6  1  0
  3  4  1  0
  3  5  1  0
M  END
>  <PUBCHEM_COMPOUND_CID>  (1) 
10451

>  <PUBCHEM_CONFORMER_RMSD>  (1) 
0.4

>  <PUBCHEM_CONFORMER_DIVERSEORDER>  (1) 
1
4
3
2

>  <PUBCHEM_MMFF94_PARTIAL_CHARGES>  (1) 
5
1 -0.46
2 -0.46
4 0.23
5 0.23
6 0.46

>  <PUBCHEM_EFFECTIVE_ROTOR_COUNT>  (1) 
1.2

>  <PUBCHEM_PHARMACOPHORE_FEATURES>  (1) 
1
6 1 2 3 4 5 6 rings

>  <PUBCHEM_HEAVY_ATOM_COUNT>  (1) 
6

>  <PUBCHEM_ATOM_DEF_STEREO_COUNT>  (1) 
0

>  <PUBCHEM_ATOM_UDEF_STEREO_COUNT>  (1) 
0

>  <PUBCHEM_BOND_DEF_STEREO_COUNT>  (1) 
0

>  <PUBCHEM_BOND_UDEF_STEREO_COUNT>  (1) 
0

>  <PUBCHEM_ISOTOPIC_ATOM_COUNT>  (1) 
0

>  <PUBCHEM_COMPONENT_COUNT>  (1) 
1

>  <PUBCHEM_CACTVS_TAUTO_COUNT>  (1) 
1

>  <PUBCHEM_CONFORMER_ID>  (1) 
000028D300000001

>  <PUBCHEM_MMFF94_ENERGY>  (1) 
4.1341

>  <PUBCHEM_FEATURE_SELFOVERLAP>  (1) 
5.074

>  <PUBCHEM_SHAPE_FINGERPRINT>  (1) 
16714656 1 17908154182827974606
18185500 45 18121215381273590743
20096714 4 17328869794327697175
21040471 1 16825869071801845325

>  <PUBCHEM_SHAPE_MULTIPOLES>  (1) 
131.18
2
1.89
0.74
0
0.04
-0.02
-0.21
-0.11
0
0.04
0
-0.05
0

>  <PUBCHEM_SHAPE_SELFOVERLAP>  (1) 
218.823

>  <PUBCHEM_SHAPE_VOLUME>  (1) 
87.3

>  <PUBCHEM_COORDINATE_TYPE>  (1) 
2
5
10

$$$$
