10450
     RDKit          3D

  6  6  0  0  0  0  0  0  0  0999 V2000
   -1.1886   -0.6952   -0.2317 O   0  0  0  0  0  0  0  0  0  0  0  0
    1.1886   -0.6949   -0.2319 O   0  0  0  0  0  0  0  0  0  0  0  0
   -0.0001    1.4104   -0.2161 C   0  0  0  0  0  0  0  0  0  0  0  0
   -1.2488    0.6565    0.2232 C   0  0  0  0  0  0  0  0  0  0  0  0
    1.2487    0.6566    0.2234 C   0  0  0  0  0  0  0  0  0  0  0  0
    0.0002   -1.3333    0.2331 C   0  0  0  0  0  0  0  0  0  0  0  0
  1  4  1  0
  1  6  1  0
  2  5  1  0
  2  6  1  0
  3  4  1  0
  3  5  1  0
M  END
>  <PUBCHEM_COMPOUND_CID>  (1) 
10450

>  <PUBCHEM_CONFORMER_RMSD>  (1) 
0.4

>  <PUBCHEM_CONFORMER_DIVERSEORDER>  (1) 
1

>  <PUBCHEM_MMFF94_PARTIAL_CHARGES>  (1) 
5
1 -0.56
2 -0.56
4 0.28
5 0.28
6 0.56

>  <PUBCHEM_EFFECTIVE_ROTOR_COUNT>  (1) 
1.2

>  <PUBCHEM_PHARMACOPHORE_FEATURES>  (1) 
3
1 1 acceptor
1 2 acceptor
6 1 2 3 4 5 6 rings

>  <PUBCHEM_HEAVY_ATOM_COUNT>  (1) 
6

>  <PUBCHEM_ATOM_DEF_STEREO_COUNT>  (1) 
0

>  <PUBCHEM_ATOM_UDEF_STEREO_COUNT>  (1) 
0

>  <PUBCHEM_BOND_DEF_STEREO_COUNT>  (1) 
0

>  <PUBCHEM_BOND_UDEF_STEREO_COUNT>  (1) 
0

>  <PUBCHEM_ISOTOPIC_ATOM_COUNT>  (1) 
0

>  <PUBCHEM_COMPONENT_COUNT>  (1) 
1

>  <PUBCHEM_CACTVS_TAUTO_COUNT>  (1) 
1

>  <PUBCHEM_CONFORMER_ID>  (1) 
000028D200000001

>  <PUBCHEM_MMFF94_ENERGY>  (1) 
8.3873

>  <PUBCHEM_FEATURE_SELFOVERLAP>  (1) 
15.258

>  <PUBCHEM_SHAPE_FINGERPRINT>  (1) 
16714656 1 18194980542876466710
20096714 4 18268150863924431721
21015797 1 9223231853427790161
21040471 1 18410576218592688217
5943 1 11318220633019708841

>  <PUBCHEM_SHAPE_MULTIPOLES>  (1) 
111.74
1.56
1.53
0.63
0.04
0
0.02
0
-0.01
-0.07
0.03
-0.02
0
0

>  <PUBCHEM_SHAPE_SELFOVERLAP>  (1) 
211.209

>  <PUBCHEM_SHAPE_VOLUME>  (1) 
67.7

>  <PUBCHEM_COORDINATE_TYPE>  (1) 
2
5
10

$$$$
