10465
     RDKit          3D

 19 18  0  0  0  0  0  0  0  0999 V2000
   10.1241    0.5848   -0.0344 O   0  0  0  0  0  0  0  0  0  0  0  0
    9.1064   -1.4481    0.0758 O   0  0  0  0  0  0  0  0  0  0  0  0
   -1.1195   -0.2874   -0.0710 C   0  0  0  0  0  0  0  0  0  0  0  0
   -2.4298    0.5053   -0.0356 C   0  0  0  0  0  0  0  0  0  0  0  0
    0.1658    0.5418    0.0098 C   0  0  0  0  0  0  0  0  0  0  0  0
   -3.6782   -0.3787   -0.0628 C   0  0  0  0  0  0  0  0  0  0  0  0
    1.4389   -0.3066    0.0326 C   0  0  0  0  0  0  0  0  0  0  0  0
   -4.9533    0.4591    0.0647 C   0  0  0  0  0  0  0  0  0  0  0  0
    2.6914    0.5744    0.0222 C   0  0  0  0  0  0  0  0  0  0  0  0
   -6.2026   -0.4221    0.0044 C   0  0  0  0  0  0  0  0  0  0  0  0
    3.9651   -0.2737    0.0077 C   0  0  0  0  0  0  0  0  0  0  0  0
   -7.5119    0.3676    0.0952 C   0  0  0  0  0  0  0  0  0  0  0  0
    5.2500    0.5587   -0.0253 C   0  0  0  0  0  0  0  0  0  0  0  0
   -8.7984   -0.4600    0.0167 C   0  0  0  0  0  0  0  0  0  0  0  0
    6.5239   -0.2885   -0.0150 C   0  0  0  0  0  0  0  0  0  0  0  0
  -10.0710    0.3862    0.0559 C   0  0  0  0  0  0  0  0  0  0  0  0
    7.7740    0.5907   -0.0364 C   0  0  0  0  0  0  0  0  0  0  0  0
  -11.3138   -0.4740   -0.1157 C   0  0  0  0  0  0  0  0  0  0  0  0
    9.0388   -0.2298    0.0110 C   0  0  0  0  0  0  0  0  0  0  0  0
  1 19  1  0
  2 19  2  0
  3  4  1  0
  3  5  1  0
  4  6  1  0
  5  7  1  0
  6  8  1  0
  7  9  1  0
  8 10  1  0
  9 11  1  0
 10 12  1  0
 11 13  1  0
 12 14  1  0
 13 15  1  0
 14 16  1  0
 15 17  1  0
 16 18  1  0
 17 19  1  0
M  END
>  <PUBCHEM_COMPOUND_CID>  (1) 
10465

>  <PUBCHEM_CONFORMER_RMSD>  (1) 
1.4

>  <PUBCHEM_CONFORMER_DIVERSEORDER>  (1) 
1
13
29
15
27
55
50
45
18
44
23
20
17
28
26
31
14
2
22
47
42
53
51
43
19
21
10
5
6
16
12
4
41
39
32
56
52
33
8
24
11
40
35
49
37
46
25
36
30
38
7
48
34
9
54
3

>  <PUBCHEM_MMFF94_PARTIAL_CHARGES>  (1) 
5
1 -0.65
17 0.06
19 0.66
2 -0.57
53 0.5

>  <PUBCHEM_EFFECTIVE_ROTOR_COUNT>  (1) 
15

>  <PUBCHEM_PHARMACOPHORE_FEATURES>  (1) 
4
1 1 acceptor
1 18 hydrophobe
1 2 acceptor
3 1 2 19 anion

>  <PUBCHEM_HEAVY_ATOM_COUNT>  (1) 
19

>  <PUBCHEM_ATOM_DEF_STEREO_COUNT>  (1) 
0

>  <PUBCHEM_ATOM_UDEF_STEREO_COUNT>  (1) 
0

>  <PUBCHEM_BOND_DEF_STEREO_COUNT>  (1) 
0

>  <PUBCHEM_BOND_UDEF_STEREO_COUNT>  (1) 
0

>  <PUBCHEM_ISOTOPIC_ATOM_COUNT>  (1) 
0

>  <PUBCHEM_COMPONENT_COUNT>  (1) 
1

>  <PUBCHEM_CACTVS_TAUTO_COUNT>  (1) 
1

>  <PUBCHEM_CONFORMER_ID>  (1) 
000028E100000001

>  <PUBCHEM_MMFF94_ENERGY>  (1) 
-1.002

>  <PUBCHEM_FEATURE_SELFOVERLAP>  (1) 
20.354

>  <PUBCHEM_SHAPE_FINGERPRINT>  (1) 
14251764 46 18410573985151451137
14251920 1 18410856555344822272
15061470 23 18410291406505971053
15510794 2 18408045113272850115
20812841 46 17489300911476100312
21362267 20 18187646937928409011
232437 2 18412825789529297975
23521765 1 18341895194714596608
23581129 1 18409448089539588805
33684 2 18410855460128161793
67123 10 18410575088963327461
8209 1 18410575088958052704
9663363 56 16153426160838289748

>  <PUBCHEM_SHAPE_MULTIPOLES>  (1) 
379.27
44.84
0.87
0.61
15.24
0.08
0
4.14
-0.06
-0.68
0.01
0.1
0
-0.13

>  <PUBCHEM_SHAPE_SELFOVERLAP>  (1) 
688.263

>  <PUBCHEM_SHAPE_VOLUME>  (1) 
242.2

>  <PUBCHEM_COORDINATE_TYPE>  (1) 
2
5
10

$$$$
