10462
     RDKit          3D

 10  9  0  0  0  0  0  0  0  0999 V2000
    3.9204   -0.7285    0.4593 O   0  0  0  0  0  0  0  0  0  0  0  0
   -3.9154    0.7302    0.4663 O   0  0  0  0  0  0  0  0  0  0  0  0
    3.1630    1.1336   -0.4649 O   0  0  0  0  0  0  0  0  0  0  0  0
   -3.1679   -1.1357   -0.4583 O   0  0  0  0  0  0  0  0  0  0  0  0
    1.7811   -0.5522    0.0087 N   0  0  0  0  0  0  0  0  0  0  0  0
   -1.7812    0.5523   -0.0072 N   0  0  0  0  0  0  0  0  0  0  0  0
    3.0325   -0.0008    0.0061 N   0  0  0  0  0  0  0  0  0  0  0  0
   -3.0325    0.0008    0.0064 N   0  0  0  0  0  0  0  0  0  0  0  0
    0.6604    0.3818    0.0041 C   0  0  0  0  0  0  0  0  0  0  0  0
   -0.6605   -0.3815   -0.0205 C   0  0  0  0  0  0  0  0  0  0  0  0
  1  7  1  0
  2  8  1  0
  3  7  2  0
  4  8  2  0
  5  7  1  0
  5  9  1  0
  6  8  1  0
  6 10  1  0
  9 10  1  0
M  CHG  4   1  -1   2  -1   7   1   8   1
M  END
>  <PUBCHEM_COMPOUND_CID>  (1) 
10462

>  <PUBCHEM_CONFORMER_RMSD>  (1) 
0.6

>  <PUBCHEM_CONFORMER_DIVERSEORDER>  (1) 
1
30
16
10
33
7
17
39
47
13
22
6
5
46
11
41
3
37
19
15
44
34
43
38
9
4
20
12
28
8
24
32
14
45
36
42
25
40
21
2
35
31
29
27
23
26
18

>  <PUBCHEM_MMFF94_PARTIAL_CHARGES>  (1) 
12
1 -0.52
10 0.27
15 0.36
16 0.36
2 -0.52
3 -0.52
4 -0.52
5 -0.62
6 -0.62
7 1.03
8 1.03
9 0.27

>  <PUBCHEM_EFFECTIVE_ROTOR_COUNT>  (1) 
5

>  <PUBCHEM_PHARMACOPHORE_FEATURES>  (1) 
6
1 1 acceptor
1 2 acceptor
1 3 acceptor
1 4 acceptor
1 5 donor
1 6 donor

>  <PUBCHEM_HEAVY_ATOM_COUNT>  (1) 
10

>  <PUBCHEM_ATOM_DEF_STEREO_COUNT>  (1) 
0

>  <PUBCHEM_ATOM_UDEF_STEREO_COUNT>  (1) 
0

>  <PUBCHEM_BOND_DEF_STEREO_COUNT>  (1) 
0

>  <PUBCHEM_BOND_UDEF_STEREO_COUNT>  (1) 
0

>  <PUBCHEM_ISOTOPIC_ATOM_COUNT>  (1) 
0

>  <PUBCHEM_COMPONENT_COUNT>  (1) 
1

>  <PUBCHEM_CACTVS_TAUTO_COUNT>  (1) 
1

>  <PUBCHEM_CONFORMER_ID>  (1) 
000028DE00000001

>  <PUBCHEM_MMFF94_ENERGY>  (1) 
9.9003

>  <PUBCHEM_FEATURE_SELFOVERLAP>  (1) 
30.6

>  <PUBCHEM_SHAPE_FINGERPRINT>  (1) 
11062470 55 18201721742960469425
12932764 1 16298657365098803050
14325111 11 18410575101848235863
190213 19 16486977297177614944

>  <PUBCHEM_SHAPE_MULTIPOLES>  (1) 
162.39
7.61
0.96
0.61
0.01
0
0
0.01
-0.46
0
0.06
0
0
-0.54

>  <PUBCHEM_SHAPE_SELFOVERLAP>  (1) 
303.061

>  <PUBCHEM_SHAPE_VOLUME>  (1) 
102.1

>  <PUBCHEM_COORDINATE_TYPE>  (1) 
2
5
10

$$$$
