10464
     RDKit          3D

 12 11  0  0  0  0  0  0  0  0999 V2000
    6.8207   -0.2911    0.0800 F   0  0  0  0  0  0  0  0  0  0  0  0
   -0.5986   -0.4585   -0.0430 C   0  0  0  0  0  0  0  0  0  0  0  0
    0.6430    0.4380   -0.0287 C   0  0  0  0  0  0  0  0  0  0  0  0
   -1.8825    0.3731    0.0054 C   0  0  0  0  0  0  0  0  0  0  0  0
    1.9270   -0.3945   -0.0383 C   0  0  0  0  0  0  0  0  0  0  0  0
   -3.1603   -0.4715   -0.0376 C   0  0  0  0  0  0  0  0  0  0  0  0
    3.2020    0.4534   -0.0370 C   0  0  0  0  0  0  0  0  0  0  0  0
   -4.4422    0.3652   -0.0118 C   0  0  0  0  0  0  0  0  0  0  0  0
    4.4828   -0.3761    0.0282 C   0  0  0  0  0  0  0  0  0  0  0  0
   -5.7171   -0.4823    0.0171 C   0  0  0  0  0  0  0  0  0  0  0  0
    5.7204    0.5039   -0.0071 C   0  0  0  0  0  0  0  0  0  0  0  0
   -6.9952    0.3404    0.0728 C   0  0  0  0  0  0  0  0  0  0  0  0
  1 11  1  0
  2  3  1  0
  2  4  1  0
  3  5  1  0
  4  6  1  0
  5  7  1  0
  6  8  1  0
  7  9  1  0
  8 10  1  0
  9 11  1  0
 10 12  1  0
M  END
>  <PUBCHEM_COMPOUND_CID>  (1) 
10464

>  <PUBCHEM_CONFORMER_RMSD>  (1) 
0.8

>  <PUBCHEM_CONFORMER_DIVERSEORDER>  (1) 
1
346
39
27
337
44
22
107
251
14
379
339
255
83
383
47
45
92
13
291
5
349
283
177
312
105
94
146
9
29
188
86
18
237
166
79
132
265
355
224
319
161
103
327
81
141
84
239
32
175
187
202
52
48
348
170
292
19
209
369
67
371
326
96
4
11
386
10
231
85
121
37
332
229
285
344
2
201
95
311
263
296
101
140
51
158
31
378
25
99
26
156
100
306
299
240
30
34
184
55
129
375
325
227
91
302
287
115
210
286
168
321
108
336
117
351
74
180
360
56
53
381
282
297
160
15
196
102
363
59
36
328
305
145
376
303
178
134
78
293
171
126
357
262
269
46
173
60
119
182
206
318
290
23
133
90
38
298
125
16
259
204
147
64
193
109
308
61
295
174
88
203
138
364
75
162
367
300
24
234
127
21
289
40
370
194
341
124
338
153
93
112
272
382
387
164
192
28
54
216
340
366
233
172
280
155
66
294
200
8
316
42
73
313
136
151
373
270
114
154
152
214
123
143
7
212
345
181
63
356
62
17
256
137
271
217
68
179
380
148
3
50
189
372
359
266
242
139
218
243
58
281
70
57
354
244
245
185
226
190
149
169
324
176
157
252
205
82
232
128
104
350
207
228
309
167
98
365
71
236
195
213
250
144
20
106
385
89
352
69
317
6
329
197
246
220
260
120
116
65
12
384
273
331
131
122
264
268
111
159
335
314
253
222
277
358
33
43
343
80
307
165
219
223
322
267
221
257
183
261
77
254
199
118
191
113
130
211
279
276
238
247
49
235
76
110
225
97
249
274
320
41
230
258
35
248
275
347
135
301
142
374
150
72
186
284
288
315
198
215
377
310
278
333
241
304
87
163
208
368
353
362
334
323
361
342
330

>  <PUBCHEM_MMFF94_PARTIAL_CHARGES>  (1) 
2
1 -0.34
11 0.34

>  <PUBCHEM_EFFECTIVE_ROTOR_COUNT>  (1) 
9

>  <PUBCHEM_PHARMACOPHORE_FEATURES>  (1) 
1
1 12 hydrophobe

>  <PUBCHEM_HEAVY_ATOM_COUNT>  (1) 
12

>  <PUBCHEM_ATOM_DEF_STEREO_COUNT>  (1) 
0

>  <PUBCHEM_ATOM_UDEF_STEREO_COUNT>  (1) 
0

>  <PUBCHEM_BOND_DEF_STEREO_COUNT>  (1) 
0

>  <PUBCHEM_BOND_UDEF_STEREO_COUNT>  (1) 
0

>  <PUBCHEM_ISOTOPIC_ATOM_COUNT>  (1) 
0

>  <PUBCHEM_COMPONENT_COUNT>  (1) 
1

>  <PUBCHEM_CACTVS_TAUTO_COUNT>  (1) 
1

>  <PUBCHEM_CONFORMER_ID>  (1) 
000028E000000001

>  <PUBCHEM_MMFF94_ENERGY>  (1) 
-3.5411

>  <PUBCHEM_FEATURE_SELFOVERLAP>  (1) 
5.074

>  <PUBCHEM_SHAPE_FINGERPRINT>  (1) 
12091667 2 18334576846248391459
13533116 47 18336540522044066994
14123238 8 18410856559645064335
1420 363 17749112188102072027
14251764 46 18411418414392387666
17834076 25 18410573989451699683
187816 3 15554731079301314919
20281389 69 18334292067703871612
20621476 8 18335703802115912861
20645477 70 18271810051612736646
20767249 213 18410575101842954597
23402539 116 18060695108985645461
23521765 1 18341895190345678853
33684 2 18410854356321586219
42788 4 18409729564759022516
4463277 17 18411136939695596145
8209 1 18410855460133443053

>  <PUBCHEM_SHAPE_MULTIPOLES>  (1) 
239.68
18.81
0.78
0.61
0.25
0
0
0.56
-0.53
0.05
0
0.06
0
-0.03

>  <PUBCHEM_SHAPE_SELFOVERLAP>  (1) 
422.945

>  <PUBCHEM_SHAPE_VOLUME>  (1) 
157.2

>  <PUBCHEM_COORDINATE_TYPE>  (1) 
2
5
10

$$$$
