10463
     RDKit          3D

 19 18  0  0  1  0  0  0  0  0999 V2000
   -7.0951   -1.1375    1.5912 O   0  0  0  0  0  0  0  0  0  0  0  0
    9.3303    2.6064    0.4915 O   0  0  0  0  0  0  0  0  0  0  0  0
   -7.2857    0.9474    0.3631 C   0  0  0  0  0  0  0  0  0  0  0  0
   -6.5399   -0.3876    0.5128 C   0  0  0  0  0  0  0  0  0  0  0  0
   -6.7807    1.8327   -0.7823 C   0  0  0  0  0  0  0  0  0  0  0  0
   -7.5605    3.1372   -0.8572 C   0  0  0  0  0  0  0  0  0  0  0  0
   -5.0689   -0.2215    0.7710 C   0  0  0  0  0  0  0  0  0  0  0  0
   -4.1161   -0.7356   -0.0216 C   0  0  0  0  0  0  0  0  0  0  0  0
    7.5427    0.9769    0.2634 C   0  0  0  0  0  0  0  0  0  0  0  0
    7.1380   -0.4991    0.3064 C   0  0  0  0  0  0  0  0  0  0  0  0
    9.0202    1.2219    0.5628 C   0  0  0  0  0  0  0  0  0  0  0  0
   -2.7020   -0.5674    0.2302 C   0  0  0  0  0  0  0  0  0  0  0  0
   -1.7517   -1.0831   -0.5648 C   0  0  0  0  0  0  0  0  0  0  0  0
    5.7129   -0.6933    0.0049 C   0  0  0  0  0  0  0  0  0  0  0  0
   -0.3361   -0.9125   -0.3088 C   0  0  0  0  0  0  0  0  0  0  0  0
    0.6742   -1.3923   -1.0490 C   0  0  0  0  0  0  0  0  0  0  0  0
    4.5486   -0.8552   -0.2392 C   0  0  0  0  0  0  0  0  0  0  0  0
    2.0521   -1.1985   -0.7572 C   0  0  0  0  0  0  0  0  0  0  0  0
    3.2177   -1.0390   -0.5171 C   0  0  0  0  0  0  0  0  0  0  0  0
  1  4  1  0
  2 11  1  0
  3  4  1  0
  3  5  1  0
  4  7  1  0
  5  6  1  0
  7  8  2  0
  8 12  1  0
  9 10  1  0
  9 11  1  0
 10 14  1  0
 12 13  2  0
 13 15  1  0
 14 17  3  0
 15 16  2  0
 16 18  1  0
 17 19  1  0
 18 19  3  0
M  END
>  <PUBCHEM_COMPOUND_CID>  (1) 
10463

>  <PUBCHEM_CONFORMER_RMSD>  (1) 
0.8

>  <PUBCHEM_CONFORMER_DIVERSEORDER>  (1) 
1
117
95
106
16
14
18
96
54
35
113
109
28
4
40
7
49
69
93
44
68
36
67
21
46
47
13
119
38
3
2
89
80
65
10
19
25
74
58
108
59
30
101
5
110
29
105
11
111
12
24
97
45
88
62
86
60
15
99
114
53
90
77
73
34
103
71
23
8
64
102
20
107
27
39
94
116
43
92
98
118
31
9
91
56
52
120
85
70
22
17
33
72
55
81
26
37
41
75
79
100
78
82
48
112
87
42
61
115
76
50
66
32
83
63
51
104
6
84
57

>  <PUBCHEM_MMFF94_PARTIAL_CHARGES>  (1) 
21
1 -0.68
10 0.2
11 0.28
12 -0.15
13 -0.15
14 -0.2
15 -0.15
16 -0.09
18 -0.06
2 -0.68
28 0.15
29 0.4
30 0.15
37 0.15
38 0.15
39 0.4
4 0.42
40 0.15
41 0.15
7 -0.29
8 -0.15

>  <PUBCHEM_EFFECTIVE_ROTOR_COUNT>  (1) 
7

>  <PUBCHEM_PHARMACOPHORE_FEATURES>  (1) 
5
1 1 acceptor
1 1 donor
1 2 acceptor
1 2 donor
1 6 hydrophobe

>  <PUBCHEM_HEAVY_ATOM_COUNT>  (1) 
19

>  <PUBCHEM_ATOM_DEF_STEREO_COUNT>  (1) 
0

>  <PUBCHEM_ATOM_UDEF_STEREO_COUNT>  (1) 
1

>  <PUBCHEM_BOND_DEF_STEREO_COUNT>  (1) 
0

>  <PUBCHEM_BOND_UDEF_STEREO_COUNT>  (1) 
3

>  <PUBCHEM_ISOTOPIC_ATOM_COUNT>  (1) 
0

>  <PUBCHEM_COMPONENT_COUNT>  (1) 
1

>  <PUBCHEM_CACTVS_TAUTO_COUNT>  (1) 
1

>  <PUBCHEM_CONFORMER_ID>  (1) 
000028DF00000001

>  <PUBCHEM_MMFF94_ENERGY>  (1) 
8.9824

>  <PUBCHEM_FEATURE_SELFOVERLAP>  (1) 
25.371

>  <PUBCHEM_SHAPE_FINGERPRINT>  (1) 
10 15 18410576193176494298
10066227 49 9007068963325763808
10429389 143 18412543185108369281
106641 1 18336269032307143419
11315181 36 17704356572443355947
11386260 185 13758066429613628778
11463208 3 8790878597479272329
11638347 137 17022614274897980746
11973863 73 12757418428212736757
12091667 2 18408606951357132519
125118 31 18261116261877032012
12838862 33 17632565051502386288
13668630 136 9727632800144006406
14251764 18 18040157331253721654
14428016 248 17131844170246917939
14598715 104 18339069411683357217
14617042 71 18338801238901181932
14729087 3 18409729522252350959
155225 1 17918276463309662352
15690457 1 12613027319502163762
17093844 174 17967817124990380827
1754908 1 16660363697204988520
1768 4 17988651817363179099
1818759 1 12107785177929958048
18335252 114 17132112438526038984
20735858 18 16370722647856620010
21095123 145 16558470894124298719
21130983 4 17917715712474870418
21130991 4 9438862556175005476
21150785 3 13758067489694829895
21267235 1 10665230345482110334
21344244 246 9799150547580980076
220451 1 13038906582922468959
22224240 67 18040152937871930154
246663 6 11602823488699768378
33532 11 7853576803583194768
3711267 37 18200886153396062808
437795 83 17560238012491547849
5283384 27 18272930497005350695
5470011 282 10015576221526424122
59682541 35 18260270784600732674
636775 72 18337107853260184501
636775 8 9655570837770942924
6438161 24 7997976752660243686
9995097 26 10087629425543149254

>  <PUBCHEM_SHAPE_MULTIPOLES>  (1) 
379.27
33.6
2.3
1
31.46
2.34
0.06
26.61
7.5
-1.05
-0.42
-1.18
-0.08
3.24

>  <PUBCHEM_SHAPE_SELFOVERLAP>  (1) 
720.875

>  <PUBCHEM_SHAPE_VOLUME>  (1) 
230.6

>  <PUBCHEM_COORDINATE_TYPE>  (1) 
2
5
10

$$$$
