10486
     RDKit          3D

  5  4  0  0  0  0  0  0  0  0999 V2000
    1.7293    0.0002    0.0008 Cl  0  0  0  0  0  0  0  0  0  0  0  0
   -0.0682    0.0000   -0.0001 C   0  0  0  0  0  0  0  0  0  0  0  0
   -0.5545    0.0974    1.4469 C   0  0  0  0  0  0  0  0  0  0  0  0
   -0.5534    1.2048   -0.8082 C   0  0  0  0  0  0  0  0  0  0  0  0
   -0.5532   -1.3024   -0.6394 C   0  0  0  0  0  0  0  0  0  0  0  0
  1  2  1  0
  2  3  1  0
  2  4  1  0
  2  5  1  0
M  END
>  <PUBCHEM_COMPOUND_CID>  (1) 
10486

>  <PUBCHEM_CONFORMER_RMSD>  (1) 
0.4

>  <PUBCHEM_CONFORMER_DIVERSEORDER>  (1) 
1

>  <PUBCHEM_MMFF94_PARTIAL_CHARGES>  (1) 
2
1 -0.29
2 0.29

>  <PUBCHEM_EFFECTIVE_ROTOR_COUNT>  (1) 
0

>  <PUBCHEM_PHARMACOPHORE_FEATURES>  (1) 
1
4 2 3 4 5 hydrophobe

>  <PUBCHEM_HEAVY_ATOM_COUNT>  (1) 
5

>  <PUBCHEM_ATOM_DEF_STEREO_COUNT>  (1) 
0

>  <PUBCHEM_ATOM_UDEF_STEREO_COUNT>  (1) 
0

>  <PUBCHEM_BOND_DEF_STEREO_COUNT>  (1) 
0

>  <PUBCHEM_BOND_UDEF_STEREO_COUNT>  (1) 
0

>  <PUBCHEM_ISOTOPIC_ATOM_COUNT>  (1) 
0

>  <PUBCHEM_COMPONENT_COUNT>  (1) 
1

>  <PUBCHEM_CACTVS_TAUTO_COUNT>  (1) 
1

>  <PUBCHEM_CONFORMER_ID>  (1) 
000028F600000001

>  <PUBCHEM_MMFF94_ENERGY>  (1) 
7.1762

>  <PUBCHEM_FEATURE_SELFOVERLAP>  (1) 
5.074

>  <PUBCHEM_SHAPE_FINGERPRINT>  (1) 
139733 1 11783839987668430830
20096714 4 17463392937673713948
21015797 1 12720391077114514505
5943 1 13513021334440013447

>  <PUBCHEM_SHAPE_MULTIPOLES>  (1) 
104.77
1.45
1.24
1.24
0.97
0.06
-0.44
0
0
-0.35
0.45
-0.35
-0.06
0

>  <PUBCHEM_SHAPE_SELFOVERLAP>  (1) 
173.119

>  <PUBCHEM_SHAPE_VOLUME>  (1) 
75

>  <PUBCHEM_COORDINATE_TYPE>  (1) 
2
5
10

$$$$
