10501
     RDKit          3D

 40 45  0  0  1  0  0  0  0  0999 V2000
    3.4483    2.3706    1.9457 O   0  0  0  0  0  0  0  0  0  0  0  0
   -0.6329    3.5505    0.6576 O   0  0  0  0  0  0  0  0  0  0  0  0
    2.1348   -0.3526   -1.6626 O   0  0  0  0  0  0  0  0  0  0  0  0
   -4.3284    0.7917   -0.6894 O   0  0  0  0  0  0  0  0  0  0  0  0
    0.1545    3.6978   -1.9125 O   0  0  0  0  0  0  0  0  0  0  0  0
    6.3930   -2.8239   -1.8237 O   0  0  0  0  0  0  0  0  0  0  0  0
   -4.9657   -0.6640    1.0171 O   0  0  0  0  0  0  0  0  0  0  0  0
    8.3552   -3.1155   -0.6572 O   0  0  0  0  0  0  0  0  0  0  0  0
   -6.4869   -0.1932   -2.2889 O   0  0  0  0  0  0  0  0  0  0  0  0
   -8.7098   -1.1034   -0.6625 O   0  0  0  0  0  0  0  0  0  0  0  0
   -7.8674   -2.8965    1.4089 O   0  0  0  0  0  0  0  0  0  0  0  0
    3.2051    1.0365    1.4970 C   0  0  0  0  0  0  0  0  0  0  0  0
    1.7016    0.9098    1.0582 C   0  0  0  0  0  0  0  0  0  0  0  0
    4.2363    0.6351    0.3986 C   0  0  0  0  0  0  0  0  0  0  0  0
    1.4346    1.5888   -0.3173 C   0  0  0  0  0  0  0  0  0  0  0  0
   -0.0945    1.5928   -0.7383 C   0  0  0  0  0  0  0  0  0  0  0  0
   -0.9756    2.1768    0.4139 C   0  0  0  0  0  0  0  0  0  0  0  0
    2.3904    1.0187   -1.3964 C   0  0  0  0  0  0  0  0  0  0  0  0
    3.8561    1.1888   -0.9937 C   0  0  0  0  0  0  0  0  0  0  0  0
    4.2122   -0.9168    0.5175 C   0  0  0  0  0  0  0  0  0  0  0  0
    3.5396    0.0700    2.6573 C   0  0  0  0  0  0  0  0  0  0  0  0
    0.7675    1.5011    2.1355 C   0  0  0  0  0  0  0  0  0  0  0  0
   -0.7008    1.4349    1.7352 C   0  0  0  0  0  0  0  0  0  0  0  0
    4.1879   -1.1688    2.0312 C   0  0  0  0  0  0  0  0  0  0  0  0
   -0.6326    0.2019   -1.1713 C   0  0  0  0  0  0  0  0  0  0  0  0
   -2.4802    2.1265    0.0880 C   0  0  0  0  0  0  0  0  0  0  0  0
    5.6570    1.1867    0.7182 C   0  0  0  0  0  0  0  0  0  0  0  0
   -2.1445    0.1479   -1.4196 C   0  0  0  0  0  0  0  0  0  0  0  0
   -2.9650    0.7293   -0.2791 C   0  0  0  0  0  0  0  0  0  0  0  0
   -0.1949    2.5224   -1.9373 C   0  0  0  0  0  0  0  0  0  0  0  0
    5.3065   -1.6639   -0.1759 C   0  0  0  0  0  0  0  0  0  0  0  0
    5.1390   -2.1922   -1.5450 C   0  0  0  0  0  0  0  0  0  0  0  0
    6.5144   -1.9469    0.3044 C   0  0  0  0  0  0  0  0  0  0  0  0
   -5.0197   -0.4217   -0.3871 C   0  0  0  0  0  0  0  0  0  0  0  0
    7.2163   -2.6895   -0.7435 C   0  0  0  0  0  0  0  0  0  0  0  0
   -6.4632   -0.2597   -0.8633 C   0  0  0  0  0  0  0  0  0  0  0  0
   -7.3392   -1.4309   -0.4240 C   0  0  0  0  0  0  0  0  0  0  0  0
   -5.6836   -1.8217    1.4523 C   0  0  0  0  0  0  0  0  0  0  0  0
   -7.1629   -1.7077    1.0666 C   0  0  0  0  0  0  0  0  0  0  0  0
   -5.0026   -3.1096    0.9853 C   0  0  0  0  0  0  0  0  0  0  0  0
  1 12  1  0
  2 17  1  0
  3 18  1  0
  4 29  1  0
  4 34  1  0
  5 30  2  0
  6 32  1  0
  6 35  1  0
  7 34  1  0
  7 38  1  0
  8 35  2  0
  9 36  1  0
 10 37  1  0
 11 39  1  0
 12 13  1  0
 12 14  1  0
 12 21  1  0
 13 15  1  0
 13 22  1  0
 14 19  1  0
 14 20  1  0
 14 27  1  0
 15 16  1  0
 15 18  1  0
 16 17  1  0
 16 25  1  0
 16 30  1  0
 17 23  1  0
 17 26  1  0
 18 19  1  0
 20 24  1  0
 20 31  1  0
 21 24  1  0
 22 23  1  0
 25 28  1  0
 26 29  1  0
 28 29  1  0
 31 32  1  0
 31 33  2  0
 33 35  1  0
 34 36  1  0
 36 37  1  0
 37 39  1  0
 38 39  1  0
 38 40  1  0
M  END
>  <PUBCHEM_COMPOUND_CID>  (1) 
10501

>  <PUBCHEM_CONFORMER_RMSD>  (1) 
1

>  <PUBCHEM_CONFORMER_DIVERSEORDER>  (1) 
6
113
20
148
38
64
84
118
69
9
155
131
11
105
94
154
17
119
108
39
127
146
10
73
114
41
141
135
124
145
45
70
60
147
99
121
28
107
79
4
31
48
106
52
66
152
156
80
150
56
102
139
12
76
90
74
2
14
65
24
98
143
134
55
125
136
123
112
1
120
75
142
18
57
22
97
88
40
54
5
101
34
59
151
58
109
33
83
149
72
29
117
111
89
81
77
78
32
46
51
115
35
126
128
153
122
104
21
50
13
43
30
25
157
26
91
100
49
42
63
110
85
137
36
103
86
93
61
138
140
7
16
53
8
3
96
144
130
92
47
95
68
82
27
133
132
19
87
129
67
15
23
62
71
44
116
37

>  <PUBCHEM_MMFF94_PARTIAL_CHARGES>  (1) 
35
1 -0.68
10 -0.68
11 -0.68
12 0.28
16 0.06
17 0.28
18 0.28
2 -0.68
20 0.14
29 0.28
3 -0.68
30 0.45
31 -0.28
32 0.42
33 -0.14
34 0.56
35 0.71
36 0.28
37 0.28
38 0.28
39 0.28
4 -0.56
5 -0.57
6 -0.43
65 0.4
66 0.06
67 0.4
68 0.4
7 -0.56
71 0.15
77 0.4
8 -0.57
81 0.4
82 0.4
9 -0.68

>  <PUBCHEM_EFFECTIVE_ROTOR_COUNT>  (1) 
7.8

>  <PUBCHEM_PHARMACOPHORE_FEATURES>  (1) 
22
1 1 acceptor
1 1 donor
1 10 acceptor
1 10 donor
1 11 acceptor
1 11 donor
1 2 acceptor
1 2 donor
1 3 acceptor
1 3 donor
1 4 acceptor
1 5 acceptor
1 7 acceptor
1 8 acceptor
1 9 acceptor
1 9 donor
5 12 14 20 21 24 rings
5 6 31 32 33 35 rings
6 12 13 14 15 18 19 rings
6 13 15 16 17 22 23 rings
6 16 17 25 26 28 29 rings
6 7 34 36 37 38 39 rings

>  <PUBCHEM_HEAVY_ATOM_COUNT>  (1) 
40

>  <PUBCHEM_ATOM_DEF_STEREO_COUNT>  (1) 
9

>  <PUBCHEM_ATOM_UDEF_STEREO_COUNT>  (1) 
5

>  <PUBCHEM_BOND_DEF_STEREO_COUNT>  (1) 
0

>  <PUBCHEM_BOND_UDEF_STEREO_COUNT>  (1) 
0

>  <PUBCHEM_ISOTOPIC_ATOM_COUNT>  (1) 
0

>  <PUBCHEM_COMPONENT_COUNT>  (1) 
1

>  <PUBCHEM_CACTVS_TAUTO_COUNT>  (1) 
1

>  <PUBCHEM_CONFORMER_ID>  (1) 
0000290500000006

>  <PUBCHEM_MMFF94_ENERGY>  (1) 
144.8027

>  <PUBCHEM_FEATURE_SELFOVERLAP>  (1) 
111.925

>  <PUBCHEM_SHAPE_FINGERPRINT>  (1) 
10677351 27 17240776098894124619
11135609 12 18413386549635006402
117089 54 18270972224142839246
11796584 16 17967523602050175665
1200032 147 15266488690885570032
12013929 27 18123479285429496806
12342043 65 18271801290285407320
12422481 6 15195296286995278849
12633257 1 16773790424442859540
131258 43 18337686273474614812
13383661 66 18269004089850059154
13673619 4 18343300328205463692
13690498 29 17312821555217187319
13782708 43 18271523113352631652
13811026 1 18410289207587827514
13947930 73 18272364278798855126
14068700 675 17821726092527980876
14294032 229 10807635823036290453
15183329 4 15647050465490071207
15238133 3 11455594518523223202
15510800 12 18412544297235970851
15721738 202 18343585127835014626
19246450 95 15984265089248852819
2026 5 18408040702526579515
21424621 283 10519983755435127197
21987483 16 16843019070311611663
23559900 14 17823691049162230997
23569914 2 8356566921287115174
25269216 80 13190637087316198977
2838139 119 8646499500541240017
3004659 81 17458060482467358015
3383291 50 18271803497630189038
3680242 22 17275382122849000916
392239 28 16845851291345892365
44249763 50 9511451243712762785
4461854 278 17060335207169364542
44880168 125 18338795728273310727
474113 269 17703778199130129613
513202 73 18131631154193297809
5372103 7 11314314953154729930
54039377 194 17989209201619343678
57527293 21 16701724055813490044
57816373 69 18272087227390266559
6691757 9 13541882565935568140
70251023 43 18260831475908083140
86090 222 18411983546311469962
9962374 69 18059280050542996758
999808 66 18130227056322292518

>  <PUBCHEM_SHAPE_MULTIPOLES>  (1) 
758.62
21.87
3.68
2.2
20.98
0.29
0.37
26.76
-1.89
-1.72
-0.36
-0.91
-0.29
3.54

>  <PUBCHEM_SHAPE_SELFOVERLAP>  (1) 
1640.751

>  <PUBCHEM_SHAPE_VOLUME>  (1) 
409.5

>  <PUBCHEM_COORDINATE_TYPE>  (1) 
2
5
10

$$$$
