10505
     RDKit          3D

 27 31  0  0  1  0  0  0  0  0999 V2000
    0.8110   -2.9393    0.4149 O   0  0  0  0  0  0  0  0  0  0  0  0
   -6.9258    1.3717   -0.5468 O   0  0  0  0  0  0  0  0  0  0  0  0
    5.9265    0.9620    0.6709 O   0  0  0  0  0  0  0  0  0  0  0  0
    6.0072    2.5906   -0.9532 O   0  0  0  0  0  0  0  0  0  0  0  0
    0.5518   -1.6030   -0.0455 C   0  0  0  0  0  0  0  0  0  0  0  0
    1.5767   -0.6141    0.5782 C   0  0  0  0  0  0  0  0  0  0  0  0
   -0.9325   -1.2634    0.2621 C   0  0  0  0  0  0  0  0  0  0  0  0
   -1.3008    0.2214    0.0265 C   0  0  0  0  0  0  0  0  0  0  0  0
    2.8834   -1.0157   -0.1676 C   0  0  0  0  0  0  0  0  0  0  0  0
   -2.7987    0.5361    0.4417 C   0  0  0  0  0  0  0  0  0  0  0  0
    1.1604    0.8479    0.2758 C   0  0  0  0  0  0  0  0  0  0  0  0
    0.9265   -1.5945   -1.5415 C   0  0  0  0  0  0  0  0  0  0  0  0
   -0.2740    1.1547    0.6988 C   0  0  0  0  0  0  0  0  0  0  0  0
    2.4314   -1.3013   -1.6070 C   0  0  0  0  0  0  0  0  0  0  0  0
   -1.8913   -2.1876   -0.5153 C   0  0  0  0  0  0  0  0  0  0  0  0
    1.7531   -0.8027    2.0979 C   0  0  0  0  0  0  0  0  0  0  0  0
   -3.7517   -0.5661   -0.0352 C   0  0  0  0  0  0  0  0  0  0  0  0
   -3.2114    1.8853   -0.2225 C   0  0  0  0  0  0  0  0  0  0  0  0
   -3.3229   -1.7646   -0.4637 C   0  0  0  0  0  0  0  0  0  0  0  0
    4.0196   -0.0457   -0.0969 C   0  0  0  0  0  0  0  0  0  0  0  0
   -2.9458    0.6578    1.9785 C   0  0  0  0  0  0  0  0  0  0  0  0
   -5.2317   -0.2592   -0.0154 C   0  0  0  0  0  0  0  0  0  0  0  0
   -4.7036    2.2028   -0.1315 C   0  0  0  0  0  0  0  0  0  0  0  0
   -5.5439    1.0662   -0.7045 C   0  0  0  0  0  0  0  0  0  0  0  0
    5.0434   -0.1257    0.9647 C   0  0  0  0  0  0  0  0  0  0  0  0
    4.2623    0.9677   -0.9239 C   0  0  0  0  0  0  0  0  0  0  0  0
    5.4807    1.6184   -0.4397 C   0  0  0  0  0  0  0  0  0  0  0  0
  1  5  1  0
  2 24  1  0
  3 25  1  0
  3 27  1  0
  4 27  2  0
  5  6  1  0
  5  7  1  0
  5 12  1  0
  6  9  1  0
  6 11  1  0
  6 16  1  0
  7  8  1  0
  7 15  1  0
  8 10  1  0
  8 13  1  0
  9 14  1  0
  9 20  1  0
 10 17  1  0
 10 18  1  0
 10 21  1  0
 11 13  1  0
 12 14  1  0
 15 19  1  0
 17 19  2  0
 17 22  1  0
 18 23  1  0
 20 25  1  0
 20 26  2  0
 22 24  1  0
 23 24  1  0
 26 27  1  0
M  END
>  <PUBCHEM_COMPOUND_CID>  (1) 
10505

>  <PUBCHEM_CONFORMER_RMSD>  (1) 
0.8

>  <PUBCHEM_CONFORMER_DIVERSEORDER>  (1) 
2
11
25
21
23
14
18
20
13
9
10
26
16
22
12
4
24
17
5
1
15
6
19
7
8
3

>  <PUBCHEM_MMFF94_PARTIAL_CHARGES>  (1) 
20
1 -0.68
10 0.14
15 0.14
17 -0.28
19 -0.29
2 -0.68
20 -0.28
22 0.14
24 0.28
25 0.42
26 -0.14
27 0.71
3 -0.43
4 -0.57
46 0.15
47 0.4
5 0.28
58 0.15
59 0.4
9 0.14

>  <PUBCHEM_EFFECTIVE_ROTOR_COUNT>  (1) 
3.4

>  <PUBCHEM_PHARMACOPHORE_FEATURES>  (1) 
10
1 1 acceptor
1 1 donor
1 2 acceptor
1 2 donor
1 4 acceptor
5 3 20 25 26 27 rings
5 5 6 9 12 14 rings
6 10 17 18 22 23 24 rings
6 5 6 7 8 11 13 rings
6 7 8 10 15 17 19 rings

>  <PUBCHEM_HEAVY_ATOM_COUNT>  (1) 
27

>  <PUBCHEM_ATOM_DEF_STEREO_COUNT>  (1) 
4

>  <PUBCHEM_ATOM_UDEF_STEREO_COUNT>  (1) 
3

>  <PUBCHEM_BOND_DEF_STEREO_COUNT>  (1) 
0

>  <PUBCHEM_BOND_UDEF_STEREO_COUNT>  (1) 
0

>  <PUBCHEM_ISOTOPIC_ATOM_COUNT>  (1) 
0

>  <PUBCHEM_COMPONENT_COUNT>  (1) 
1

>  <PUBCHEM_CACTVS_TAUTO_COUNT>  (1) 
1

>  <PUBCHEM_CONFORMER_ID>  (1) 
0000290900000002

>  <PUBCHEM_MMFF94_ENERGY>  (1) 
79.0402

>  <PUBCHEM_FEATURE_SELFOVERLAP>  (1) 
50.942

>  <PUBCHEM_SHAPE_FINGERPRINT>  (1) 
10 15 18113625603157930265
10366900 7 16917345926972515267
10411042 1 17618503628670358303
10498660 4 18341898450326213265
10554248 39 18337376150369422071
10675989 125 17689433785524437265
10906281 52 18201169784271457385
11961588 58 18411414012356942463
12011746 2 17632576054528090067
12107183 9 18189886544735245194
12236239 1 18114176458414880698
12422481 6 16877939395604188828
12596602 18 17603584161822898120
12633257 1 14418146109774823799
12788726 201 17774156778514155529
12969540 114 16630528466502111022
13583140 156 17748835119661788657
13685833 64 9799689298960005756
14251764 30 10663821866818212212
14739800 52 18336531781732553848
14790565 3 18409449184825282304
15196674 1 18413108329462875135
15238133 3 16371015048791801557
15475509 35 8935005833117164084
15788980 27 17894916213242967314
15840311 113 17821728325330440492
15961568 22 18334579027285624940
1601671 61 18343862225633525568
16728300 4 9294470264180665504
173720 79 18410845569562394938
17492 54 18272096019531160888
17980427 23 17822013150555812991
18222031 100 12607405485936317882
18608769 82 18412546548742917259
19784866 240 11815897872800251169
20511986 3 18114730603458472381
20715895 44 18408604734309950164
21304253 335 18187932828262231444
21637258 2 12319463160493072500
22122407 14 17822584900940064436
221357 26 15841549665105424664
22950370 63 10303815388890335426
23227448 37 18411703226595701997
23402539 116 18340762732435504934
23559900 14 17987239933065041398
23569914 152 15763890939814243325
2838139 119 18338516456329771964
3004659 81 18341331081474228930
3472631 163 18408323293544973148
34797466 226 17846789541376361492
34934 24 18413384320019621415
350125 39 18341334500077961337
4340502 62 16950288373398366955
44802255 64 17628934606136946340
474 4 17822296842189204948
5104073 3 18261398780625644019
59755656 215 18060418014775563957
7808743 9 18411133653987469023
7970288 3 10159692491164242917
8863177 126 9150589323805360381
9981440 41 18334017206876863075

>  <PUBCHEM_SHAPE_MULTIPOLES>  (1) 
532.17
13.6
2.45
1.33
0.42
0.24
-0.36
-9.7
2.39
0.05
0.53
0.6
0.13
-0.4

>  <PUBCHEM_SHAPE_SELFOVERLAP>  (1) 
1157.553

>  <PUBCHEM_SHAPE_VOLUME>  (1) 
289.1

>  <PUBCHEM_COORDINATE_TYPE>  (1) 
2
5
10

$$$$
