10513
     RDKit          3D

 26 31  0  0  1  0  0  0  0  0999 V2000
   -2.5317    2.1272   -0.0847 O   0  0  0  0  0  0  0  0  0  0  0  0
   -2.0959    2.2186    2.2553 O   0  0  0  0  0  0  0  0  0  0  0  0
    0.0810    2.8713   -1.6135 O   0  0  0  0  0  0  0  0  0  0  0  0
   -1.2670   -2.6819   -0.7541 N   0  0  0  0  0  0  0  0  0  0  0  0
    1.1641    1.1786   -0.4854 N   0  0  0  0  0  0  0  0  0  0  0  0
    0.5521   -1.1595   -0.4042 C   0  0  0  0  0  0  0  0  0  0  0  0
   -0.2844   -2.2591    0.2746 C   0  0  0  0  0  0  0  0  0  0  0  0
   -0.0411    0.2966   -0.3747 C   0  0  0  0  0  0  0  0  0  0  0  0
   -0.8465    0.5996    0.9380 C   0  0  0  0  0  0  0  0  0  0  0  0
   -1.8077   -0.5725    1.2700 C   0  0  0  0  0  0  0  0  0  0  0  0
   -0.9371   -1.7975    1.5728 C   0  0  0  0  0  0  0  0  0  0  0  0
    0.6113   -1.6904   -1.8410 C   0  0  0  0  0  0  0  0  0  0  0  0
   -0.8024   -2.2068   -2.0660 C   0  0  0  0  0  0  0  0  0  0  0  0
    1.9310   -0.9004    0.1478 C   0  0  0  0  0  0  0  0  0  0  0  0
   -2.7676   -0.8978    0.1323 C   0  0  0  0  0  0  0  0  0  0  0  0
   -2.6508   -2.2901   -0.4513 C   0  0  0  0  0  0  0  0  0  0  0  0
    2.2625    0.4603    0.0461 C   0  0  0  0  0  0  0  0  0  0  0  0
   -1.5642    1.9704    0.9517 C   0  0  0  0  0  0  0  0  0  0  0  0
    2.8431   -1.8258    0.6412 C   0  0  0  0  0  0  0  0  0  0  0  0
   -3.6257    0.0000   -0.3785 C   0  0  0  0  0  0  0  0  0  0  0  0
    1.1144    2.4156   -1.1098 C   0  0  0  0  0  0  0  0  0  0  0  0
    3.5115    0.9053    0.4536 C   0  0  0  0  0  0  0  0  0  0  0  0
   -3.7480    1.4091    0.0954 C   0  0  0  0  0  0  0  0  0  0  0  0
    4.0975   -1.3786    1.0510 C   0  0  0  0  0  0  0  0  0  0  0  0
    4.4280   -0.0225    0.9590 C   0  0  0  0  0  0  0  0  0  0  0  0
    2.3736    3.2302   -1.2254 C   0  0  0  0  0  0  0  0  0  0  0  0
  1 18  1  0
  1 23  1  0
  2 18  1  0
  3 21  2  0
  4  7  1  0
  4 13  1  0
  4 16  1  0
  5  8  1  0
  5 17  1  0
  5 21  1  0
  6  7  1  0
  6  8  1  0
  6 12  1  0
  6 14  1  0
  7 11  1  0
  8  9  1  0
  9 10  1  0
  9 18  1  0
 10 11  1  0
 10 15  1  0
 12 13  1  0
 14 17  2  0
 14 19  1  0
 15 16  1  0
 15 20  2  0
 17 22  1  0
 19 24  2  0
 20 23  1  0
 21 26  1  0
 22 25  2  0
 24 25  1  0
M  END
>  <PUBCHEM_COMPOUND_CID>  (1) 
10513

>  <PUBCHEM_CONFORMER_RMSD>  (1) 
0.6

>  <PUBCHEM_CONFORMER_DIVERSEORDER>  (1) 
1
9
6
11
10
4
3
13
7
2
8
12
15
5
14

>  <PUBCHEM_MMFF94_PARTIAL_CHARGES>  (1) 
29
1 -0.56
10 0.14
13 0.27
14 -0.14
15 -0.28
16 0.41
17 0.12
18 0.56
19 -0.15
2 -0.68
20 -0.29
21 0.57
22 -0.15
23 0.42
24 -0.15
25 -0.15
26 0.06
3 -0.57
4 -0.81
40 0.15
41 0.15
42 0.15
45 0.4
46 0.15
47 0.15
5 -0.48
6 0.14
7 0.27
8 0.3

>  <PUBCHEM_EFFECTIVE_ROTOR_COUNT>  (1) 
2.6

>  <PUBCHEM_PHARMACOPHORE_FEATURES>  (1) 
11
1 1 acceptor
1 2 acceptor
1 2 donor
1 3 acceptor
1 4 cation
5 4 6 7 12 13 rings
5 5 6 8 14 17 rings
6 14 17 19 22 24 25 rings
6 4 7 10 11 15 16 rings
6 6 7 8 9 10 11 rings
7 1 9 10 15 18 20 23 rings

>  <PUBCHEM_HEAVY_ATOM_COUNT>  (1) 
26

>  <PUBCHEM_ATOM_DEF_STEREO_COUNT>  (1) 
1

>  <PUBCHEM_ATOM_UDEF_STEREO_COUNT>  (1) 
5

>  <PUBCHEM_BOND_DEF_STEREO_COUNT>  (1) 
0

>  <PUBCHEM_BOND_UDEF_STEREO_COUNT>  (1) 
0

>  <PUBCHEM_ISOTOPIC_ATOM_COUNT>  (1) 
0

>  <PUBCHEM_COMPONENT_COUNT>  (1) 
1

>  <PUBCHEM_CACTVS_TAUTO_COUNT>  (1) 
1

>  <PUBCHEM_CONFORMER_ID>  (1) 
0000291100000001

>  <PUBCHEM_MMFF94_ENERGY>  (1) 
101.8435

>  <PUBCHEM_FEATURE_SELFOVERLAP>  (1) 
57.98

>  <PUBCHEM_SHAPE_FINGERPRINT>  (1) 
10863032 1 18410566275759417307
10948715 1 18199461057075940963
11370993 70 17986945246114137817
11578080 2 17698125750705218185
12011746 2 18337391526742269966
12035758 1 17552650153730415362
12035759 4 18192445279701206204
12422481 6 18268447775662438467
13009979 54 18198341956345128946
13132413 78 18408879663698212982
13140716 1 18052544553611034514
13583140 156 17676209052827540003
13965767 371 17691980258137092992
14142880 1 18267289963584349856
14178342 30 18054803788350965969
14223421 5 17825686709040503146
16945 1 18190192349836238083
17349148 13 18342735195912751303
17492 54 17981605180838007903
17492 89 18336827601573667234
17980427 23 18342455919838470576
192875 21 18408879633775951133
20691752 17 17902533487960952499
20715895 44 18339073767059692285
20905425 154 17980491370683659607
22149856 69 17557739927047872353
23184049 59 18337670811106305008
2334 1 18338809913499892448
23388829 49 18267017452504799768
23419403 2 16468318718188237464
23559900 14 18202275914633877352
2748010 2 18052559684960282927
3380486 145 16178761841535213307
34934 24 18260823783330875536
4340502 62 17984985899936791049
6287921 2 17771363980203254061
6992083 37 18409170974128977984
7471813 234 17696728318818538118
9981440 41 17396135102722996832

>  <PUBCHEM_SHAPE_MULTIPOLES>  (1) 
507.5
6
3.54
1.64
2.75
1.43
-0.16
0.35
1.7
-0.25
-1.06
-0.19
0.03
-1.46

>  <PUBCHEM_SHAPE_SELFOVERLAP>  (1) 
1141.14

>  <PUBCHEM_SHAPE_VOLUME>  (1) 
263.8

>  <PUBCHEM_COORDINATE_TYPE>  (1) 
2
5
10

$$$$
