10517
     RDKit          3D

 26 27  0  0  1  0  0  0  0  0999 V2000
   -1.2505   -1.8431    0.2445 O   0  0  0  0  0  0  0  0  0  0  0  0
   -1.0919   -3.8768   -0.8398 O   0  0  0  0  0  0  0  0  0  0  0  0
    2.9961    0.1862   -0.8795 N   0  0  0  0  0  0  0  0  0  0  0  0
   -0.0640    0.2905   -0.2709 C   0  0  0  0  0  0  0  0  0  0  0  0
    0.7046    0.9551   -1.4905 C   0  0  0  0  0  0  0  0  0  0  0  0
   -0.5390   -1.1487   -0.7866 C   0  0  0  0  0  0  0  0  0  0  0  0
    2.0301    0.3105   -1.9733 C   0  0  0  0  0  0  0  0  0  0  0  0
   -1.2876    1.2090    0.0406 C   0  0  0  0  0  0  0  0  0  0  0  0
    0.8359    0.0498    0.9790 C   0  0  0  0  0  0  0  0  0  0  0  0
   -1.3909   -1.1708   -2.0758 C   0  0  0  0  0  0  0  0  0  0  0  0
    2.6639    1.1620   -3.0777 C   0  0  0  0  0  0  0  0  0  0  0  0
   -2.1674    0.7824    0.9878 C   0  0  0  0  0  0  0  0  0  0  0  0
    0.8911    1.0382    1.9152 C   0  0  0  0  0  0  0  0  0  0  0  0
   -1.3912    2.3741   -0.6557 C   0  0  0  0  0  0  0  0  0  0  0  0
    1.5078   -1.1331    1.0535 C   0  0  0  0  0  0  0  0  0  0  0  0
   -2.6712   -0.3535   -1.9287 C   0  0  0  0  0  0  0  0  0  0  0  0
    3.3370    1.5049   -0.3489 C   0  0  0  0  0  0  0  0  0  0  0  0
    4.1978   -0.5085   -1.3379 C   0  0  0  0  0  0  0  0  0  0  0  0
   -3.2604    1.6029    1.2664 C   0  0  0  0  0  0  0  0  0  0  0  0
    1.6962    0.8229    3.0338 C   0  0  0  0  0  0  0  0  0  0  0  0
   -2.4843    3.1948   -0.3769 C   0  0  0  0  0  0  0  0  0  0  0  0
    2.3126   -1.3484    2.1722 C   0  0  0  0  0  0  0  0  0  0  0  0
   -1.6520   -3.1066   -0.0714 C   0  0  0  0  0  0  0  0  0  0  0  0
   -3.4188    2.8090    0.5841 C   0  0  0  0  0  0  0  0  0  0  0  0
    2.4068   -0.3703    3.1624 C   0  0  0  0  0  0  0  0  0  0  0  0
   -2.9105   -3.4326    0.6744 C   0  0  0  0  0  0  0  0  0  0  0  0
  1  6  1  0
  1 23  1  0
  2 23  2  0
  3  7  1  0
  3 17  1  0
  3 18  1  0
  4  5  1  0
  4  6  1  0
  4  8  1  0
  4  9  1  0
  5  7  1  0
  6 10  1  0
  7 11  1  0
  8 12  2  0
  8 14  1  0
  9 13  2  0
  9 15  1  0
 10 16  1  0
 12 19  1  0
 13 20  1  0
 14 21  2  0
 15 22  2  0
 19 24  2  0
 20 25  2  0
 21 24  1  0
 22 25  1  0
 23 26  1  0
M  END
>  <PUBCHEM_COMPOUND_CID>  (1) 
10517

>  <PUBCHEM_CONFORMER_RMSD>  (1) 
1

>  <PUBCHEM_CONFORMER_DIVERSEORDER>  (1) 
3
7
15
9
11
12
13
16
17
19
6
4
5
14
10
18
8
1
2

>  <PUBCHEM_MMFF94_PARTIAL_CHARGES>  (1) 
32
1 -0.43
12 -0.15
13 -0.15
14 -0.15
15 -0.15
17 0.27
18 0.27
19 -0.15
2 -0.57
20 -0.15
21 -0.15
22 -0.15
23 0.66
24 -0.15
25 -0.15
26 0.06
3 -0.81
36 0.15
37 0.15
38 0.15
39 0.15
4 0.29
49 0.15
50 0.15
51 0.15
52 0.15
53 0.15
54 0.15
6 0.28
7 0.27
8 -0.14
9 -0.14

>  <PUBCHEM_EFFECTIVE_ROTOR_COUNT>  (1) 
9

>  <PUBCHEM_PHARMACOPHORE_FEATURES>  (1) 
5
1 16 hydrophobe
1 2 acceptor
1 3 cation
6 8 12 14 19 21 24 rings
6 9 13 15 20 22 25 rings

>  <PUBCHEM_HEAVY_ATOM_COUNT>  (1) 
26

>  <PUBCHEM_ATOM_DEF_STEREO_COUNT>  (1) 
0

>  <PUBCHEM_ATOM_UDEF_STEREO_COUNT>  (1) 
2

>  <PUBCHEM_BOND_DEF_STEREO_COUNT>  (1) 
0

>  <PUBCHEM_BOND_UDEF_STEREO_COUNT>  (1) 
0

>  <PUBCHEM_ISOTOPIC_ATOM_COUNT>  (1) 
0

>  <PUBCHEM_COMPONENT_COUNT>  (1) 
1

>  <PUBCHEM_CACTVS_TAUTO_COUNT>  (1) 
1

>  <PUBCHEM_CONFORMER_ID>  (1) 
0000291500000003

>  <PUBCHEM_MMFF94_ENERGY>  (1) 
128.4036

>  <PUBCHEM_FEATURE_SELFOVERLAP>  (1) 
25.371

>  <PUBCHEM_SHAPE_FINGERPRINT>  (1) 
11421498 54 17534077534084183179
11578080 2 17488479635528377248
12035759 4 18040712618816558223
12160290 23 18271789247228296317
12714826 92 17630073621966555558
12716301 132 18202003222332582307
12788726 201 17830486072995308526
13009979 54 17897419861454834298
13149001 5 17489592229536696744
13681431 1 17334758173495491045
14022347 108 18196652015589422423
14142880 1 15003651655356135692
14817 1 8213590904581785788
15219462 58 17909788267929415546
16945 1 17904439143432958339
17980427 26 16588606243865670726
18981168 100 10738103721086387275
20600515 1 17835480025055320549
20691752 17 17916008062978516217
21756936 100 16954547989072229316
23419403 2 17059792116178529776
23526113 38 17417826018975282190
2748010 2 16199565000948862808
298252 57 18118152223688739860
3052486 1 18410858793829963495
3380486 77 17977344457068176471
35225 105 18272649048046669211
376196 1 16338865337154055465
497634 4 17541605778751793608
5845 1 11566507160910768469
68419 9 18187918512671808176
81228 2 18057583538550597573
9981440 41 15551021365639171722
9999458 23 17695319513620957433

>  <PUBCHEM_SHAPE_MULTIPOLES>  (1) 
518.35
5.55
3.61
3.02
1.28
2.69
-0.76
-1.82
0.35
-4.31
0.32
2.77
-0.3
-1.46

>  <PUBCHEM_SHAPE_SELFOVERLAP>  (1) 
1089.411

>  <PUBCHEM_SHAPE_VOLUME>  (1) 
291.7

>  <PUBCHEM_COORDINATE_TYPE>  (1) 
2
5
10

$$$$
