10510
     RDKit          3D

 24 29  0  0  1  0  0  0  0  0999 V2000
    0.2349    0.7040   -2.3886 O   0  0  0  0  0  0  0  0  0  0  0  0
   -0.0861   -2.9358    0.1098 O   0  0  0  0  0  0  0  0  0  0  0  0
   -2.0326    2.0049    1.2426 N   0  0  0  0  0  0  0  0  0  0  0  0
    1.9855   -2.0725    0.6950 N   0  0  0  0  0  0  0  0  0  0  0  0
   -0.5925    0.1849    0.6725 C   0  0  0  0  0  0  0  0  0  0  0  0
   -2.0666   -0.2666    0.5362 C   0  0  0  0  0  0  0  0  0  0  0  0
   -2.3111    0.0688   -0.9645 C   0  0  0  0  0  0  0  0  0  0  0  0
   -0.9654    1.6382    0.2820 C   0  0  0  0  0  0  0  0  0  0  0  0
   -1.7118    1.4992   -1.0737 C   0  0  0  0  0  0  0  0  0  0  0  0
    0.4330   -0.5138   -0.2735 C   0  0  0  0  0  0  0  0  0  0  0  0
   -0.0313   -0.5517   -1.7547 C   0  0  0  0  0  0  0  0  0  0  0  0
   -1.5263   -0.8835   -1.8808 C   0  0  0  0  0  0  0  0  0  0  0  0
   -2.7913    0.7587    1.4423 C   0  0  0  0  0  0  0  0  0  0  0  0
   -0.8022    1.6717   -2.2856 C   0  0  0  0  0  0  0  0  0  0  0  0
   -2.4472   -1.6429    0.9598 C   0  0  0  0  0  0  0  0  0  0  0  0
    1.8338    0.0690   -0.0665 C   0  0  0  0  0  0  0  0  0  0  0  0
    0.6894   -1.9950    0.1931 C   0  0  0  0  0  0  0  0  0  0  0  0
   -1.5095    2.5479    2.4907 C   0  0  0  0  0  0  0  0  0  0  0  0
    2.6644   -0.8795    0.5287 C   0  0  0  0  0  0  0  0  0  0  0  0
    2.3546    1.3228   -0.3511 C   0  0  0  0  0  0  0  0  0  0  0  0
   -3.4931   -2.3152    0.4672 C   0  0  0  0  0  0  0  0  0  0  0  0
    3.9848   -0.6376    0.8632 C   0  0  0  0  0  0  0  0  0  0  0  0
    3.6888    1.5983   -0.0247 C   0  0  0  0  0  0  0  0  0  0  0  0
    4.4976    0.6256    0.5807 C   0  0  0  0  0  0  0  0  0  0  0  0
  1 11  1  0
  1 14  1  0
  2 17  2  0
  3  8  1  0
  3 13  1  0
  3 18  1  0
  4 17  1  0
  4 19  1  0
  5  6  1  0
  5  8  1  0
  5 10  1  0
  6  7  1  0
  6 13  1  0
  6 15  1  0
  7  9  1  0
  7 12  1  0
  8  9  1  0
  9 14  1  0
 10 11  1  0
 10 16  1  0
 10 17  1  0
 11 12  1  0
 15 21  2  0
 16 19  2  0
 16 20  1  0
 19 22  1  0
 20 23  2  0
 22 24  2  0
 23 24  1  0
M  END
>  <PUBCHEM_COMPOUND_CID>  (1) 
10510

>  <PUBCHEM_CONFORMER_RMSD>  (1) 
0.6

>  <PUBCHEM_CONFORMER_DIVERSEORDER>  (1) 
1

>  <PUBCHEM_MMFF94_PARTIAL_CHARGES>  (1) 
28
1 -0.56
10 0.2
11 0.28
13 0.27
14 0.28
15 -0.29
16 -0.14
17 0.57
18 0.27
19 0.12
2 -0.57
20 -0.15
21 -0.3
22 -0.15
23 -0.15
24 -0.15
3 -0.81
36 0.15
4 -0.55
40 0.37
41 0.15
42 0.15
43 0.15
44 0.15
45 0.15
46 0.15
6 0.14
8 0.27

>  <PUBCHEM_EFFECTIVE_ROTOR_COUNT>  (1) 
2.2

>  <PUBCHEM_PHARMACOPHORE_FEATURES>  (1) 
9
1 1 acceptor
1 2 acceptor
1 21 hydrophobe
1 3 cation
1 4 donor
10 1 5 6 7 8 9 10 11 12 14 rings
5 4 10 16 17 19 rings
6 16 19 20 22 23 24 rings
7 3 5 6 7 8 9 13 rings

>  <PUBCHEM_HEAVY_ATOM_COUNT>  (1) 
24

>  <PUBCHEM_ATOM_DEF_STEREO_COUNT>  (1) 
2

>  <PUBCHEM_ATOM_UDEF_STEREO_COUNT>  (1) 
5

>  <PUBCHEM_BOND_DEF_STEREO_COUNT>  (1) 
0

>  <PUBCHEM_BOND_UDEF_STEREO_COUNT>  (1) 
0

>  <PUBCHEM_ISOTOPIC_ATOM_COUNT>  (1) 
0

>  <PUBCHEM_COMPONENT_COUNT>  (1) 
1

>  <PUBCHEM_CACTVS_TAUTO_COUNT>  (1) 
2

>  <PUBCHEM_CONFORMER_ID>  (1) 
0000290E00000001

>  <PUBCHEM_MMFF94_ENERGY>  (1) 
112.3696

>  <PUBCHEM_FEATURE_SELFOVERLAP>  (1) 
46.641

>  <PUBCHEM_SHAPE_FINGERPRINT>  (1) 
10863032 1 18187352238619337365
10948715 1 17630614409846609025
1100329 8 17762627591173671139
11221954 11 16769315210228299913
11640471 11 17414981466430465944
12403814 3 17896027909566419826
12633257 1 18189335658811591282
13004483 165 17895175741042784267
13027679 85 18052816137620875539
13132413 78 17759531362129546695
13140716 1 18267018354574857754
13224815 77 17822010926163465286
133893 2 15120717379972283367
13544653 18 18042410312373538291
14142880 1 18341324518052343017
14223421 5 18335138665929523498
14289901 80 17023181609432521672
14787075 74 17836652194238433509
14817 1 17986699037483224701
15309172 13 18334853896897266306
16945 1 18120381964423571367
18219364 16 18116424839576983944
18981168 100 17274269322608456548
19010151 120 17458627886143824203
200 152 18339346565447941687
20510252 161 18340486767711859714
21197605 99 16973080995634385433
21421861 104 16884751029574180259
21756936 100 18060138773899363288
2306618 200 18261379036312823976
23419403 2 16900992069872128542
23559900 14 18188756272166306690
2748010 2 17174060803647299703
3380486 145 17894353272133123613
350125 39 18261672688165143632
3797600 57 18200322133588751792
392239 28 18054230109468584314
4340502 62 18339086965457172377

>  <PUBCHEM_SHAPE_MULTIPOLES>  (1) 
472.21
5.73
2.65
1.97
5.65
0.41
0.65
0.2
-2.06
-1.12
-0.9
-1.2
-1.06
-0.52

>  <PUBCHEM_SHAPE_SELFOVERLAP>  (1) 
1084.639

>  <PUBCHEM_SHAPE_VOLUME>  (1) 
244.7

>  <PUBCHEM_COORDINATE_TYPE>  (1) 
2
5
10

$$$$
