10521
     RDKit          3D

 26 28  0  0  0  0  0  0  0  0999 V2000
   -0.0238    1.0085   -2.2005 O   0  0  0  0  0  0  0  0  0  0  0  0
   -4.6627   -2.1951    0.3597 N   0  0  0  0  0  0  0  0  0  0  0  0
    4.6908   -2.1768    0.3806 N   0  0  0  0  0  0  0  0  0  0  0  0
    0.0106    0.8601   -0.7444 C   0  0  0  0  0  0  0  0  0  0  0  0
   -1.2743    0.0192   -0.4402 C   0  0  0  0  0  0  0  0  0  0  0  0
    1.2992    0.0247   -0.4342 C   0  0  0  0  0  0  0  0  0  0  0  0
   -0.0133    2.2336   -0.1635 C   0  0  0  0  0  0  0  0  0  0  0  0
   -1.9291    0.2798    0.7219 C   0  0  0  0  0  0  0  0  0  0  0  0
    1.2899   -0.7391    0.6893 C   0  0  0  0  0  0  0  0  0  0  0  0
   -1.6433   -0.9103   -1.3610 C   0  0  0  0  0  0  0  0  0  0  0  0
    2.3314    0.1244   -1.3122 C   0  0  0  0  0  0  0  0  0  0  0  0
   -1.0155    3.1302   -0.5343 C   0  0  0  0  0  0  0  0  0  0  0  0
    0.9662    2.6214    0.7508 C   0  0  0  0  0  0  0  0  0  0  0  0
   -3.5046   -1.4381    0.0862 C   0  0  0  0  0  0  0  0  0  0  0  0
    3.5311   -1.4242    0.1019 C   0  0  0  0  0  0  0  0  0  0  0  0
   -3.0746   -0.4688    0.9924 C   0  0  0  0  0  0  0  0  0  0  0  0
    2.4369   -1.4836    0.9649 C   0  0  0  0  0  0  0  0  0  0  0  0
   -2.7889   -1.6589   -1.0907 C   0  0  0  0  0  0  0  0  0  0  0  0
    3.4785   -0.6201   -1.0367 C   0  0  0  0  0  0  0  0  0  0  0  0
   -1.0382    4.4147    0.0091 C   0  0  0  0  0  0  0  0  0  0  0  0
    0.9434    3.9060    1.2942 C   0  0  0  0  0  0  0  0  0  0  0  0
   -0.0588    4.8026    0.9232 C   0  0  0  0  0  0  0  0  0  0  0  0
   -5.0444   -2.4842    1.7277 C   0  0  0  0  0  0  0  0  0  0  0  0
   -5.4940   -2.6820   -0.7232 C   0  0  0  0  0  0  0  0  0  0  0  0
    5.9916   -1.7096   -0.0561 C   0  0  0  0  0  0  0  0  0  0  0  0
    4.5957   -3.4343    1.0952 C   0  0  0  0  0  0  0  0  0  0  0  0
  1  4  1  0
  2 14  1  0
  2 23  1  0
  2 24  1  0
  3 15  1  0
  3 25  1  0
  3 26  1  0
  4  5  1  0
  4  6  1  0
  4  7  1  0
  5  8  2  0
  5 10  1  0
  6  9  2  0
  6 11  1  0
  7 12  2  0
  7 13  1  0
  8 16  1  0
  9 17  1  0
 10 18  2  0
 11 19  2  0
 12 20  1  0
 13 21  2  0
 14 16  2  0
 14 18  1  0
 15 17  2  0
 15 19  1  0
 20 22  2  0
 21 22  1  0
M  END
>  <PUBCHEM_COMPOUND_CID>  (1) 
10521

>  <PUBCHEM_CONFORMER_RMSD>  (1) 
0.8

>  <PUBCHEM_CONFORMER_DIVERSEORDER>  (1) 
1
2
4
3

>  <PUBCHEM_MMFF94_PARTIAL_CHARGES>  (1) 
40
1 -0.68
10 -0.15
11 -0.15
12 -0.15
13 -0.15
14 0.1
15 0.1
16 -0.15
17 -0.15
18 -0.15
19 -0.15
2 -0.84
20 -0.15
21 -0.15
22 -0.15
23 0.37
24 0.37
25 0.37
26 0.37
27 0.15
28 0.15
29 0.15
3 -0.84
30 0.15
31 0.15
32 0.15
33 0.4
34 0.15
35 0.15
36 0.15
37 0.15
38 0.15
39 0.15
4 0.71
40 0.15
5 -0.14
6 -0.14
7 -0.14
8 -0.15
9 -0.15

>  <PUBCHEM_EFFECTIVE_ROTOR_COUNT>  (1) 
5

>  <PUBCHEM_PHARMACOPHORE_FEATURES>  (1) 
7
1 1 acceptor
1 1 donor
1 2 cation
1 3 cation
6 5 8 10 14 16 18 rings
6 6 9 11 15 17 19 rings
6 7 12 13 20 21 22 rings

>  <PUBCHEM_HEAVY_ATOM_COUNT>  (1) 
26

>  <PUBCHEM_ATOM_DEF_STEREO_COUNT>  (1) 
0

>  <PUBCHEM_ATOM_UDEF_STEREO_COUNT>  (1) 
0

>  <PUBCHEM_BOND_DEF_STEREO_COUNT>  (1) 
0

>  <PUBCHEM_BOND_UDEF_STEREO_COUNT>  (1) 
0

>  <PUBCHEM_ISOTOPIC_ATOM_COUNT>  (1) 
0

>  <PUBCHEM_COMPONENT_COUNT>  (1) 
1

>  <PUBCHEM_CACTVS_TAUTO_COUNT>  (1) 
1

>  <PUBCHEM_CONFORMER_ID>  (1) 
0000291900000001

>  <PUBCHEM_MMFF94_ENERGY>  (1) 
128.4847

>  <PUBCHEM_FEATURE_SELFOVERLAP>  (1) 
35.522

>  <PUBCHEM_SHAPE_FINGERPRINT>  (1) 
10074138 170 18052813654945409713
10411042 1 18412260648905406279
11049842 53 14856050749538568415
11056379 131 18196381325391772910
11135609 149 18122312900733049927
11552529 35 18120367658373117058
11578080 2 18187632639775928381
12107183 9 18342469140776333011
12293681 160 17620724229746393893
12342043 65 17388274574570288731
12553582 1 18342458170501541558
12633257 1 16702015409030442722
12643181 29 17259909516927075366
12788726 201 18337969900055406062
12969540 37 17974287925922245083
13004483 165 18413103940132587303
13052359 8 18049442539499637621
13134695 92 18337955713619801557
13140716 1 18341050726814108505
13533116 47 18120097436564552547
13540713 5 17897742976788072510
13583140 156 18121220046504905711
13631057 29 18261955155348378058
13911987 19 17536341437189568412
13955234 65 17907303496252094427
14787075 74 18263936603965883908
14844126 61 18195233434804053394
15042514 8 18267308625433470141
15475509 35 17899997202910757227
15878777 1 17977989822611627172
16728300 4 17175188894151059257
17492 89 18266178332298018310
17980427 23 17418097620350141665
17980427 26 17694496344516005549
1813 80 18272661167938008687
18681886 176 16269423648993352973
19319366 153 17974301112035528646
20600515 1 18197513843442630141
20832881 197 18334016116519210683
21033648 29 16629698240612728771
21049683 271 18190750932145640260
21120745 212 18338529538536411468
21304303 172 18200595796373833409
21344244 78 17987511688429813907
21796203 349 18049476838844940683
23366157 5 18051415372750156077
23559900 14 17751078227247799319
23598288 3 18196369221915184270
244849 19 18044910585014514167
2747138 104 18409730673736610090
283562 15 18261673662854162506
3091708 16 8993095286579322801
314194 84 18335707203535611875
3421961 26 18266177412631002947
376196 1 14566489139350790223
394222 165 17411351214253715897
4409770 3 18120090581406286557
463206 1 18261393390104986467
474 4 17549544458667800897
497634 4 18042974160433859342
5912855 24 18192998110954511354
59755656 520 17616525164827328724
6786 2 8881360699046359776
77188 2 18411697716168946253
7970288 3 18409729586177051515
79837 15 17548702880762617368
9841814 1 18199202856495203175
9981440 41 17052995781884282206

>  <PUBCHEM_SHAPE_MULTIPOLES>  (1) 
519.24
9.59
5.65
1.46
1.15
7.81
-0.16
-16.4
1.78
-0.49
2.12
-0.41
-0.16
-0.25

>  <PUBCHEM_SHAPE_SELFOVERLAP>  (1) 
1126.265

>  <PUBCHEM_SHAPE_VOLUME>  (1) 
285.5

>  <PUBCHEM_COORDINATE_TYPE>  (1) 
2
5
10

$$$$
