10534
     RDKit          3D

 15 16  0  0  1  0  0  0  0  0999 V2000
   -1.6407    0.7523    0.9756 C   0  0  0  0  0  0  0  0  0  0  0  0
   -0.8493   -0.4567    0.3733 C   0  0  0  0  0  0  0  0  0  0  0  0
   -3.1254   -0.0873   -0.4675 C   0  0  0  0  0  0  0  0  0  0  0  0
   -3.0799    0.2144    1.0289 C   0  0  0  0  0  0  0  0  0  0  0  0
   -1.8277    1.8961   -0.0473 C   0  0  0  0  0  0  0  0  0  0  0  0
   -1.8971   -0.9660   -0.6110 C   0  0  0  0  0  0  0  0  0  0  0  0
   -2.7960    1.2855   -1.0774 C   0  0  0  0  0  0  0  0  0  0  0  0
    0.4608   -0.0467   -0.3135 C   0  0  0  0  0  0  0  0  0  0  0  0
   -0.5273   -1.4984    1.4606 C   0  0  0  0  0  0  0  0  0  0  0  0
   -1.7939   -2.0157   -1.4337 C   0  0  0  0  0  0  0  0  0  0  0  0
    1.4618    0.4917    0.7005 C   0  0  0  0  0  0  0  0  0  0  0  0
    2.7399    0.8976    0.0226 C   0  0  0  0  0  0  0  0  0  0  0  0
    3.8519    0.1580   -0.1492 C   0  0  0  0  0  0  0  0  0  0  0  0
    5.1019    0.6257   -0.8393 C   0  0  0  0  0  0  0  0  0  0  0  0
    3.9209   -1.2505    0.3776 C   0  0  0  0  0  0  0  0  0  0  0  0
  1  2  1  0
  1  4  1  0
  1  5  1  0
  2  6  1  0
  2  8  1  0
  2  9  1  0
  3  4  1  0
  3  6  1  0
  3  7  1  0
  5  7  1  0
  6 10  2  0
  8 11  1  0
 11 12  1  0
 12 13  2  3
 13 14  1  0
 13 15  1  0
M  END
>  <PUBCHEM_COMPOUND_CID>  (1) 
10534

>  <PUBCHEM_CONFORMER_RMSD>  (1) 
0.6

>  <PUBCHEM_CONFORMER_DIVERSEORDER>  (1) 
1
25
16
19
7
20
22
5
9
26
21
6
24
14
12
11
8
13
18
3
4
2
17
10
23
15

>  <PUBCHEM_MMFF94_PARTIAL_CHARGES>  (1) 
12
10 -0.3
11 0.14
12 -0.29
13 -0.28
14 0.14
15 0.14
2 0.14
29 0.15
3 0.14
30 0.15
33 0.15
6 -0.28

>  <PUBCHEM_EFFECTIVE_ROTOR_COUNT>  (1) 
3.8

>  <PUBCHEM_PHARMACOPHORE_FEATURES>  (1) 
2
3 13 14 15 hydrophobe
7 1 2 3 4 5 6 7 rings

>  <PUBCHEM_HEAVY_ATOM_COUNT>  (1) 
15

>  <PUBCHEM_ATOM_DEF_STEREO_COUNT>  (1) 
0

>  <PUBCHEM_ATOM_UDEF_STEREO_COUNT>  (1) 
3

>  <PUBCHEM_BOND_DEF_STEREO_COUNT>  (1) 
0

>  <PUBCHEM_BOND_UDEF_STEREO_COUNT>  (1) 
0

>  <PUBCHEM_ISOTOPIC_ATOM_COUNT>  (1) 
0

>  <PUBCHEM_COMPONENT_COUNT>  (1) 
1

>  <PUBCHEM_CACTVS_TAUTO_COUNT>  (1) 
1

>  <PUBCHEM_CONFORMER_ID>  (1) 
0000292600000001

>  <PUBCHEM_MMFF94_ENERGY>  (1) 
44.724

>  <PUBCHEM_FEATURE_SELFOVERLAP>  (1) 
10.148

>  <PUBCHEM_SHAPE_FINGERPRINT>  (1) 
10062212 137 18339066095678454506
10680689 15 18341057393167373588
10922523 26 18336829689153625868
11315181 36 15051740772682793320
12173636 292 17748828522707923074
12592029 89 18200880573711142895
12916754 54 17845374512844820508
12932764 1 18341890814169701856
13024252 1 17313103077348841001
13296908 3 17060054891447869178
14144814 61 18343864398960629096
15775835 57 18337107873995697961
16945 1 18201986742817237609
17870717 6 17775019985309639156
18186145 218 18060416932818215648
200 152 14692571013765146644
20325693 3 18272942638867392548
20645477 70 18336831892910224630
2306618 200 18202283563501379849
23402539 116 18334853939519755437
23419403 2 15793993756565451493
23559900 14 17775562053496044400
27216 239 13840260398896727167
2838139 119 17025974261424690445
4028521 119 18334849506992602428
4175511 318 18342173366845684764
58051976 100 18272653497426981342
633830 44 17530963545381632698
69090 78 18272647939649577375
74978 22 18060133280150622032
93112 12 18272366512170721004
9709674 26 18408610270929034834

>  <PUBCHEM_SHAPE_MULTIPOLES>  (1) 
308.69
7.75
1.71
1.25
11.24
0.27
-0.03
-1.07
1.57
-0.79
0.26
-0.63
0.32
-0.47

>  <PUBCHEM_SHAPE_SELFOVERLAP>  (1) 
636.426

>  <PUBCHEM_SHAPE_VOLUME>  (1) 
178.3

>  <PUBCHEM_COORDINATE_TYPE>  (1) 
2
5
10

$$$$
