10546
     RDKit          3D

 14 13  0  0  0  0  0  0  0  0999 V2000
   -0.0047    0.8172    0.6099 P   0  0  0  0  0  0  0  0  0  0  0  0
    0.0016   -0.7625    0.9720 O   0  0  0  0  0  0  0  0  0  0  0  0
   -1.2724    0.9994   -0.3824 O   0  0  0  0  0  0  0  0  0  0  0  0
    1.2628    1.0099   -0.3810 O   0  0  0  0  0  0  0  0  0  0  0  0
   -0.0091    1.7281    1.8048 O   0  0  0  0  0  0  0  0  0  0  0  0
    0.0062   -1.7303   -0.0636 C   0  0  0  0  0  0  0  0  0  0  0  0
   -2.5731    0.7821    0.1373 C   0  0  0  0  0  0  0  0  0  0  0  0
    2.5646    0.8033    0.1401 C   0  0  0  0  0  0  0  0  0  0  0  0
    0.0115   -3.1176    0.5598 C   0  0  0  0  0  0  0  0  0  0  0  0
   -3.5898    1.0103   -0.9706 C   0  0  0  0  0  0  0  0  0  0  0  0
    3.5805    1.0400   -0.9668 C   0  0  0  0  0  0  0  0  0  0  0  0
    0.0317   -4.2102   -0.4939 C   0  0  0  0  0  0  0  0  0  0  0  0
   -5.0128    0.8091   -0.4816 C   0  0  0  0  0  0  0  0  0  0  0  0
    5.0031    0.8212   -0.4839 C   0  0  0  0  0  0  0  0  0  0  0  0
  1  2  1  0
  1  3  1  0
  1  4  1  0
  1  5  2  0
  2  6  1  0
  3  7  1  0
  4  8  1  0
  6  9  1  0
  7 10  1  0
  8 11  1  0
  9 12  1  0
 10 13  1  0
 11 14  1  0
M  END
>  <PUBCHEM_COMPOUND_CID>  (1) 
10546

>  <PUBCHEM_CONFORMER_RMSD>  (1) 
0.8

>  <PUBCHEM_CONFORMER_DIVERSEORDER>  (1) 
1
51
10
38
68
28
33
62
45
53
70
26
65
14
57
17
47
69
63
76
2
55
56
15
50
43
52
73
9
18
66
75
59
11
54
36
46
16
25
44
3
32
42
13
4
74
34
39
72
61
19
37
30
23
71
41
20
12
5
40
22
29
7
64
8
35
27
31
48
24
58
67
60
21
6
49

>  <PUBCHEM_MMFF94_PARTIAL_CHARGES>  (1) 
8
1 1.51
2 -0.55
3 -0.55
4 -0.55
5 -0.7
6 0.28
7 0.28
8 0.28

>  <PUBCHEM_EFFECTIVE_ROTOR_COUNT>  (1) 
9

>  <PUBCHEM_PHARMACOPHORE_FEATURES>  (1) 
4
1 12 hydrophobe
1 13 hydrophobe
1 14 hydrophobe
1 5 acceptor

>  <PUBCHEM_HEAVY_ATOM_COUNT>  (1) 
14

>  <PUBCHEM_ATOM_DEF_STEREO_COUNT>  (1) 
0

>  <PUBCHEM_ATOM_UDEF_STEREO_COUNT>  (1) 
0

>  <PUBCHEM_BOND_DEF_STEREO_COUNT>  (1) 
0

>  <PUBCHEM_BOND_UDEF_STEREO_COUNT>  (1) 
0

>  <PUBCHEM_ISOTOPIC_ATOM_COUNT>  (1) 
0

>  <PUBCHEM_COMPONENT_COUNT>  (1) 
1

>  <PUBCHEM_CACTVS_TAUTO_COUNT>  (1) 
1

>  <PUBCHEM_CONFORMER_ID>  (1) 
0000293200000001

>  <PUBCHEM_MMFF94_ENERGY>  (1) 
2.3557

>  <PUBCHEM_FEATURE_SELFOVERLAP>  (1) 
20.298

>  <PUBCHEM_SHAPE_FINGERPRINT>  (1) 
10465860 250 11095885960342911477
10726558 24 18335703831964542437
116883 192 17691960887950567039
12500047 106 18337954605808571092
12555020 224 18339936922336745822
13052359 8 18337109089397901498
13911882 115 18115046147070680939
14943834 7 17552084999930886857
15502722 9 18190460454938205703
17539 30 17907857649706902646
18186145 218 18342733044002955897
187816 3 18273218599164623728
20602899 9 18343029903731245418
20645476 183 18260545675313203582
20645477 70 18118950414092197319
20711985 344 17830724718621869098
20871999 31 18268428125575233092
21524375 3 18040715870170312564
22218785 32 18334860515230957468
23402539 116 18412541033166295364
23530152 11 18410004446998227391
266924 1 17843127991482996169
298252 57 18113336431388978128
3060560 45 18334007285417545285
3250762 1 17622719134432815833
366044 4 18334576853968193396
81228 2 17615112721945383619
81539 233 18187078404315677591

>  <PUBCHEM_SHAPE_MULTIPOLES>  (1) 
268.49
7.6
3.65
1.1
0.1
7.25
0.27
-6.53
-3.38
-0.08
-0.14
0
-0.34
-0.01

>  <PUBCHEM_SHAPE_SELFOVERLAP>  (1) 
472.396

>  <PUBCHEM_SHAPE_VOLUME>  (1) 
176.2

>  <PUBCHEM_COORDINATE_TYPE>  (1) 
2
5
10

$$$$
