10544
     RDKit          3D

  9  8  0  0  0  0  0  0  0  0999 V2000
    0.0041   -0.0040   -0.0017 P   0  0  0  0  0  0  0  0  0  0  0  0
    1.7900   -1.7114   -0.6196 O   0  0  0  0  0  0  0  0  0  0  0  0
    1.7858    1.7275    0.6278 O   0  0  0  0  0  0  0  0  0  0  0  0
   -1.7922    0.6349   -1.6929 O   0  0  0  0  0  0  0  0  0  0  0  0
   -1.7865   -0.6248    1.7008 O   0  0  0  0  0  0  0  0  0  0  0  0
    0.9922   -1.3733    0.5014 C   0  0  0  0  0  0  0  0  0  0  0  0
    1.0230    1.3420   -0.5032 C   0  0  0  0  0  0  0  0  0  0  0  0
   -1.0073   -0.4966   -1.3594 C   0  0  0  0  0  0  0  0  0  0  0  0
   -1.0091    0.5058    1.3470 C   0  0  0  0  0  0  0  0  0  0  0  0
  1  6  1  0
  1  7  1  0
  1  8  1  0
  1  9  1  0
  2  6  1  0
  3  7  1  0
  4  8  1  0
  5  9  1  0
M  CHG  1   1   1
M  END
>  <PUBCHEM_COMPOUND_CID>  (1) 
10544

>  <PUBCHEM_CONFORMER_RMSD>  (1) 
0.6

>  <PUBCHEM_CONFORMER_DIVERSEORDER>  (1) 
1
2
9
8
4
7
3
5
6

>  <PUBCHEM_MMFF94_PARTIAL_CHARGES>  (1) 
12
18 0.4
19 0.4
2 -0.68
20 0.4
21 0.4
3 -0.68
4 -0.68
5 -0.68
6 0.28
7 0.28
8 0.28
9 0.28

>  <PUBCHEM_EFFECTIVE_ROTOR_COUNT>  (1) 
4

>  <PUBCHEM_PHARMACOPHORE_FEATURES>  (1) 
8
1 2 acceptor
1 2 donor
1 3 acceptor
1 3 donor
1 4 acceptor
1 4 donor
1 5 acceptor
1 5 donor

>  <PUBCHEM_HEAVY_ATOM_COUNT>  (1) 
9

>  <PUBCHEM_ATOM_DEF_STEREO_COUNT>  (1) 
0

>  <PUBCHEM_ATOM_UDEF_STEREO_COUNT>  (1) 
0

>  <PUBCHEM_BOND_DEF_STEREO_COUNT>  (1) 
0

>  <PUBCHEM_BOND_UDEF_STEREO_COUNT>  (1) 
0

>  <PUBCHEM_ISOTOPIC_ATOM_COUNT>  (1) 
0

>  <PUBCHEM_COMPONENT_COUNT>  (1) 
1

>  <PUBCHEM_CACTVS_TAUTO_COUNT>  (1) 
1

>  <PUBCHEM_CONFORMER_ID>  (1) 
0000293000000001

>  <PUBCHEM_MMFF94_ENERGY>  (1) 
16.3129

>  <PUBCHEM_FEATURE_SELFOVERLAP>  (1) 
40.6

>  <PUBCHEM_SHAPE_FINGERPRINT>  (1) 
12423570 1 16038847895762408091
137420 1 17630636554508031206
20711978 78 18340221729358602411
21930827 45 16950841410314086949
23552333 60 17845636144967096261
5943 1 10122952537575292035
68250623 7 17055598617474601575

>  <PUBCHEM_SHAPE_MULTIPOLES>  (1) 
165.59
2.23
1.7
1.68
0
0.01
0
-0.02
0
-1.2
0.01
1.18
0
0.38

>  <PUBCHEM_SHAPE_SELFOVERLAP>  (1) 
283.858

>  <PUBCHEM_SHAPE_VOLUME>  (1) 
110.3

>  <PUBCHEM_COORDINATE_TYPE>  (1) 
2
5
10

$$$$
