10549
     RDKit          3D

  8  7  0  0  0  0  0  0  0  0999 V2000
   -0.3525   -0.0057   -0.1786 S   0  0  0  0  0  0  0  0  0  0  0  0
   -0.4735    0.6008   -1.4932 O   0  0  0  0  0  0  0  0  0  0  0  0
   -0.1355   -1.4354   -0.0400 O   0  0  0  0  0  0  0  0  0  0  0  0
    2.6121   -0.7779    0.0708 O   0  0  0  0  0  0  0  0  0  0  0  0
    0.9291    0.8342    0.7001 C   0  0  0  0  0  0  0  0  0  0  0  0
   -1.8175    0.4070    0.7404 C   0  0  0  0  0  0  0  0  0  0  0  0
    2.2869    0.6062    0.0648 C   0  0  0  0  0  0  0  0  0  0  0  0
   -3.0491   -0.2290    0.1356 C   0  0  0  0  0  0  0  0  0  0  0  0
  1  2  2  0
  1  3  2  0
  1  5  1  0
  1  6  1  0
  4  7  1  0
  5  7  1  0
  6  8  1  0
M  END
>  <PUBCHEM_COMPOUND_CID>  (1) 
10549

>  <PUBCHEM_CONFORMER_RMSD>  (1) 
0.6

>  <PUBCHEM_CONFORMER_DIVERSEORDER>  (1) 
1
14
7
21
15
10
19
3
12
20
17
9
18
16
11
2
5
8
6
4
13

>  <PUBCHEM_MMFF94_PARTIAL_CHARGES>  (1) 
8
1 1.09
18 0.4
2 -0.65
3 -0.65
4 -0.68
5 0.11
6 0.11
7 0.28

>  <PUBCHEM_EFFECTIVE_ROTOR_COUNT>  (1) 
3

>  <PUBCHEM_PHARMACOPHORE_FEATURES>  (1) 
4
1 2 acceptor
1 3 acceptor
1 4 acceptor
1 4 donor

>  <PUBCHEM_HEAVY_ATOM_COUNT>  (1) 
8

>  <PUBCHEM_ATOM_DEF_STEREO_COUNT>  (1) 
0

>  <PUBCHEM_ATOM_UDEF_STEREO_COUNT>  (1) 
0

>  <PUBCHEM_BOND_DEF_STEREO_COUNT>  (1) 
0

>  <PUBCHEM_BOND_UDEF_STEREO_COUNT>  (1) 
0

>  <PUBCHEM_ISOTOPIC_ATOM_COUNT>  (1) 
0

>  <PUBCHEM_COMPONENT_COUNT>  (1) 
1

>  <PUBCHEM_CACTVS_TAUTO_COUNT>  (1) 
1

>  <PUBCHEM_CONFORMER_ID>  (1) 
0000293500000001

>  <PUBCHEM_MMFF94_ENERGY>  (1) 
1.0672

>  <PUBCHEM_FEATURE_SELFOVERLAP>  (1) 
20.318

>  <PUBCHEM_SHAPE_FINGERPRINT>  (1) 
10219947 1 18040722480451671449
10857977 72 16878222064571309353
11062470 55 12757147987270519377
12897270 3 10881395439503765816
14128692 85 13046814355620208417
14325111 11 18343585161429888049
14390081 3 12823305567654387419
16714656 1 17748826323521013728
21040471 1 18271809072301501528
23235685 24 18272646870450543096
24536 1 17913466189969074448
29004967 10 16660365908580298328
5084963 1 18334294270863455769
5460574 1 11818988595422040865

>  <PUBCHEM_SHAPE_MULTIPOLES>  (1) 
150.88
3.85
1.07
0.95
0.5
0.15
-0.37
0.07
0.53
-0.24
0.17
0.14
-0.07
-0.09

>  <PUBCHEM_SHAPE_SELFOVERLAP>  (1) 
261.94

>  <PUBCHEM_SHAPE_VOLUME>  (1) 
100.1

>  <PUBCHEM_COORDINATE_TYPE>  (1) 
2
5
10

$$$$
