10554
     RDKit          3D

  5  4  0  0  0  0  0  0  0  0999 V2000
    1.9355    0.0036    0.5749 Cl  0  0  0  0  0  0  0  0  0  0  0  0
   -0.6544   -0.0020   -0.4339 C   0  0  0  0  0  0  0  0  0  0  0  0
    0.8296   -0.0818   -0.8176 C   0  0  0  0  0  0  0  0  0  0  0  0
   -0.9978    1.2954    0.2997 C   0  0  0  0  0  0  0  0  0  0  0  0
   -1.1129   -1.2151    0.3769 C   0  0  0  0  0  0  0  0  0  0  0  0
  1  3  1  0
  2  3  1  0
  2  4  1  0
  2  5  1  0
M  END
>  <PUBCHEM_COMPOUND_CID>  (1) 
10554

>  <PUBCHEM_CONFORMER_RMSD>  (1) 
0.4

>  <PUBCHEM_CONFORMER_DIVERSEORDER>  (1) 
1

>  <PUBCHEM_MMFF94_PARTIAL_CHARGES>  (1) 
2
1 -0.29
3 0.29

>  <PUBCHEM_EFFECTIVE_ROTOR_COUNT>  (1) 
1

>  <PUBCHEM_PHARMACOPHORE_FEATURES>  (1) 
1
3 2 4 5 hydrophobe

>  <PUBCHEM_HEAVY_ATOM_COUNT>  (1) 
5

>  <PUBCHEM_ATOM_DEF_STEREO_COUNT>  (1) 
0

>  <PUBCHEM_ATOM_UDEF_STEREO_COUNT>  (1) 
0

>  <PUBCHEM_BOND_DEF_STEREO_COUNT>  (1) 
0

>  <PUBCHEM_BOND_UDEF_STEREO_COUNT>  (1) 
0

>  <PUBCHEM_ISOTOPIC_ATOM_COUNT>  (1) 
0

>  <PUBCHEM_COMPONENT_COUNT>  (1) 
1

>  <PUBCHEM_CACTVS_TAUTO_COUNT>  (1) 
1

>  <PUBCHEM_CONFORMER_ID>  (1) 
0000293A00000001

>  <PUBCHEM_MMFF94_ENERGY>  (1) 
1.9292

>  <PUBCHEM_FEATURE_SELFOVERLAP>  (1) 
5.074

>  <PUBCHEM_SHAPE_FINGERPRINT>  (1) 
139733 1 10663285309217122679
20096714 4 17699566944197858344
21015797 1 10158320206173313245
21040471 1 18121512258045209989
24536 1 18411419501288152156
5943 1 14097362565831709823

>  <PUBCHEM_SHAPE_MULTIPOLES>  (1) 
104.77
2.08
1.25
0.91
1.06
0.07
-0.07
-0.05
0.44
-0.65
0.22
0.16
-0.02
0.04

>  <PUBCHEM_SHAPE_SELFOVERLAP>  (1) 
169.261

>  <PUBCHEM_SHAPE_VOLUME>  (1) 
74.1

>  <PUBCHEM_COORDINATE_TYPE>  (1) 
2
5
10

$$$$
