10555
     RDKit          3D

  5  4  0  0  0  0  0  0  0  0999 V2000
   -2.2364    0.0007    0.0000 Cl  0  0  0  0  0  0  0  0  0  0  0  0
    0.4893    0.0197    0.0000 C   0  0  0  0  0  0  0  0  0  0  0  0
    1.7968    0.7640    0.0000 C   0  0  0  0  0  0  0  0  0  0  0  0
    0.6202   -1.4777    0.0000 C   0  0  0  0  0  0  0  0  0  0  0  0
   -0.6699    0.6933    0.0001 C   0  0  0  0  0  0  0  0  0  0  0  0
  1  5  1  0
  2  3  1  0
  2  4  1  0
  2  5  2  3
M  END
>  <PUBCHEM_COMPOUND_CID>  (1) 
10555

>  <PUBCHEM_CONFORMER_RMSD>  (1) 
0.4

>  <PUBCHEM_CONFORMER_DIVERSEORDER>  (1) 
1

>  <PUBCHEM_MMFF94_PARTIAL_CHARGES>  (1) 
6
1 -0.14
12 0.15
2 -0.28
3 0.14
4 0.14
5 -0.01

>  <PUBCHEM_EFFECTIVE_ROTOR_COUNT>  (1) 
0

>  <PUBCHEM_PHARMACOPHORE_FEATURES>  (1) 
1
3 2 3 4 hydrophobe

>  <PUBCHEM_HEAVY_ATOM_COUNT>  (1) 
5

>  <PUBCHEM_ATOM_DEF_STEREO_COUNT>  (1) 
0

>  <PUBCHEM_ATOM_UDEF_STEREO_COUNT>  (1) 
0

>  <PUBCHEM_BOND_DEF_STEREO_COUNT>  (1) 
0

>  <PUBCHEM_BOND_UDEF_STEREO_COUNT>  (1) 
0

>  <PUBCHEM_ISOTOPIC_ATOM_COUNT>  (1) 
0

>  <PUBCHEM_COMPONENT_COUNT>  (1) 
1

>  <PUBCHEM_CACTVS_TAUTO_COUNT>  (1) 
1

>  <PUBCHEM_CONFORMER_ID>  (1) 
0000293B00000001

>  <PUBCHEM_MMFF94_ENERGY>  (1) 
3.0383

>  <PUBCHEM_FEATURE_SELFOVERLAP>  (1) 
5.074

>  <PUBCHEM_SHAPE_FINGERPRINT>  (1) 
139733 1 9221501213630811587
16714656 1 18264494060160027380
20096714 4 18412544348785783568
21015797 1 8862358934625782344
21040471 1 18338516468575973796
24536 1 18194106443991029665
29004967 10 18260555515173008113
5460574 1 9295297135715809665
5943 1 16665709715701286958

>  <PUBCHEM_SHAPE_MULTIPOLES>  (1) 
104.77
2.54
1.26
0.62
1.07
0.48
0
-0.44
0
-0.42
0
0.02
0
0

>  <PUBCHEM_SHAPE_SELFOVERLAP>  (1) 
175.413

>  <PUBCHEM_SHAPE_VOLUME>  (1) 
71.5

>  <PUBCHEM_COORDINATE_TYPE>  (1) 
2
5
10

$$$$
