10553
     RDKit          3D

  5  4  0  0  0  0  0  0  0  0999 V2000
    0.4675    0.0427   -0.0001 C   0  0  0  0  0  0  0  0  0  0  0  0
   -0.7328    0.6525    0.0001 C   0  0  0  0  0  0  0  0  0  0  0  0
    1.7995    0.7381    0.0000 C   0  0  0  0  0  0  0  0  0  0  0  0
    0.5561   -1.4610    0.0000 C   0  0  0  0  0  0  0  0  0  0  0  0
   -2.0903    0.0276    0.0000 C   0  0  0  0  0  0  0  0  0  0  0  0
  1  2  2  3
  1  3  1  0
  1  4  1  0
  2  5  1  0
M  END
>  <PUBCHEM_COMPOUND_CID>  (1) 
10553

>  <PUBCHEM_CONFORMER_RMSD>  (1) 
0.4

>  <PUBCHEM_CONFORMER_DIVERSEORDER>  (1) 
1

>  <PUBCHEM_MMFF94_PARTIAL_CHARGES>  (1) 
6
1 -0.28
2 -0.29
3 0.14
4 0.14
5 0.14
6 0.15

>  <PUBCHEM_EFFECTIVE_ROTOR_COUNT>  (1) 
0

>  <PUBCHEM_PHARMACOPHORE_FEATURES>  (1) 
2
1 5 hydrophobe
3 1 3 4 hydrophobe

>  <PUBCHEM_HEAVY_ATOM_COUNT>  (1) 
5

>  <PUBCHEM_ATOM_DEF_STEREO_COUNT>  (1) 
0

>  <PUBCHEM_ATOM_UDEF_STEREO_COUNT>  (1) 
0

>  <PUBCHEM_BOND_DEF_STEREO_COUNT>  (1) 
0

>  <PUBCHEM_BOND_UDEF_STEREO_COUNT>  (1) 
0

>  <PUBCHEM_ISOTOPIC_ATOM_COUNT>  (1) 
0

>  <PUBCHEM_COMPONENT_COUNT>  (1) 
1

>  <PUBCHEM_CACTVS_TAUTO_COUNT>  (1) 
1

>  <PUBCHEM_CONFORMER_ID>  (1) 
0000293900000001

>  <PUBCHEM_MMFF94_ENERGY>  (1) 
3.0237

>  <PUBCHEM_FEATURE_SELFOVERLAP>  (1) 
10.149

>  <PUBCHEM_SHAPE_FINGERPRINT>  (1) 
139733 1 9293274038404685539
16714656 1 18264495159698028916
20096714 4 18412262869524642128
21015797 1 8862358930251680784
21040471 1 18338517559508229476
24536 1 18194106439674950385
29004967 10 18260276234914029729
5460574 1 9295297135547050081
5943 1 12851560722812170730

>  <PUBCHEM_SHAPE_MULTIPOLES>  (1) 
102.9
2.35
1.24
0.62
0.69
0.49
0
-0.48
0
-0.37
0
0
0
0

>  <PUBCHEM_SHAPE_SELFOVERLAP>  (1) 
177.202

>  <PUBCHEM_SHAPE_VOLUME>  (1) 
69.9

>  <PUBCHEM_COORDINATE_TYPE>  (1) 
2
5
10

$$$$
