10559
     RDKit          3D

  5  4  0  0  1  0  0  0  0  0999 V2000
    2.2831   -0.7305   -0.0503 I   0  0  0  0  0  0  0  0  0  0  0  0
    0.3303    0.1515    0.3809 C   0  0  0  0  0  0  0  0  0  0  0  0
   -0.7571   -0.7425   -0.2348 C   0  0  0  0  0  0  0  0  0  0  0  0
    0.3130    1.5802   -0.1597 C   0  0  0  0  0  0  0  0  0  0  0  0
   -2.1693   -0.2587    0.0639 C   0  0  0  0  0  0  0  0  0  0  0  0
  1  2  1  0
  2  3  1  0
  2  4  1  0
  3  5  1  0
M  END
>  <PUBCHEM_COMPOUND_CID>  (1) 
10559

>  <PUBCHEM_CONFORMER_RMSD>  (1) 
0.4

>  <PUBCHEM_CONFORMER_DIVERSEORDER>  (1) 
2
3
4
5
1
6

>  <PUBCHEM_MMFF94_PARTIAL_CHARGES>  (1) 
2
1 -0.19
2 0.19

>  <PUBCHEM_EFFECTIVE_ROTOR_COUNT>  (1) 
1

>  <PUBCHEM_PHARMACOPHORE_FEATURES>  (1) 
3
1 1 hydrophobe
1 5 hydrophobe
3 1 2 4 hydrophobe

>  <PUBCHEM_HEAVY_ATOM_COUNT>  (1) 
5

>  <PUBCHEM_ATOM_DEF_STEREO_COUNT>  (1) 
0

>  <PUBCHEM_ATOM_UDEF_STEREO_COUNT>  (1) 
1

>  <PUBCHEM_BOND_DEF_STEREO_COUNT>  (1) 
0

>  <PUBCHEM_BOND_UDEF_STEREO_COUNT>  (1) 
0

>  <PUBCHEM_ISOTOPIC_ATOM_COUNT>  (1) 
0

>  <PUBCHEM_COMPONENT_COUNT>  (1) 
1

>  <PUBCHEM_CACTVS_TAUTO_COUNT>  (1) 
1

>  <PUBCHEM_CONFORMER_ID>  (1) 
0000293F00000002

>  <PUBCHEM_MMFF94_ENERGY>  (1) 
2.2404

>  <PUBCHEM_FEATURE_SELFOVERLAP>  (1) 
15.808

>  <PUBCHEM_SHAPE_FINGERPRINT>  (1) 
139733 1 8934998178968087386
16714656 1 18340206276224565750
20096714 4 18050004686309563377
23552449 11 18201711903343336210
24536 1 18049425235033723139
29004967 10 18407762551315550554
5460574 1 8430315740354118050
5943 1 8782088212077307844

>  <PUBCHEM_SHAPE_MULTIPOLES>  (1) 
114.83
3.1
1.37
0.72
0.44
0.61
0
-1.13
-0.02
0.06
-0.1
0.12
-0.02
0

>  <PUBCHEM_SHAPE_SELFOVERLAP>  (1) 
175.097

>  <PUBCHEM_SHAPE_VOLUME>  (1) 
86.2

>  <PUBCHEM_COORDINATE_TYPE>  (1) 
2
5
10

$$$$
