10557
     RDKit          3D

  5  4  0  0  0  0  0  0  0  0999 V2000
   -1.8407    0.0609   -0.3914 O   0  0  0  0  0  0  0  0  0  0  0  0
    0.4989   -0.0541    0.0783 C   0  0  0  0  0  0  0  0  0  0  0  0
   -0.8793   -0.4655    0.5132 C   0  0  0  0  0  0  0  0  0  0  0  0
    0.7831    1.4196    0.0314 C   0  0  0  0  0  0  0  0  0  0  0  0
    1.4380   -0.9609   -0.2315 C   0  0  0  0  0  0  0  0  0  0  0  0
  1  3  1  0
  2  3  1  0
  2  4  1  0
  2  5  2  0
M  END
>  <PUBCHEM_COMPOUND_CID>  (1) 
10557

>  <PUBCHEM_CONFORMER_RMSD>  (1) 
0.4

>  <PUBCHEM_CONFORMER_DIVERSEORDER>  (1) 
1
2

>  <PUBCHEM_MMFF94_PARTIAL_CHARGES>  (1) 
8
1 -0.68
11 0.15
12 0.15
13 0.4
2 -0.28
3 0.42
4 0.14
5 -0.3

>  <PUBCHEM_EFFECTIVE_ROTOR_COUNT>  (1) 
1

>  <PUBCHEM_PHARMACOPHORE_FEATURES>  (1) 
2
1 1 acceptor
1 1 donor

>  <PUBCHEM_HEAVY_ATOM_COUNT>  (1) 
5

>  <PUBCHEM_ATOM_DEF_STEREO_COUNT>  (1) 
0

>  <PUBCHEM_ATOM_UDEF_STEREO_COUNT>  (1) 
0

>  <PUBCHEM_BOND_DEF_STEREO_COUNT>  (1) 
0

>  <PUBCHEM_BOND_UDEF_STEREO_COUNT>  (1) 
0

>  <PUBCHEM_ISOTOPIC_ATOM_COUNT>  (1) 
0

>  <PUBCHEM_COMPONENT_COUNT>  (1) 
1

>  <PUBCHEM_CACTVS_TAUTO_COUNT>  (1) 
1

>  <PUBCHEM_CONFORMER_ID>  (1) 
0000293D00000001

>  <PUBCHEM_MMFF94_ENERGY>  (1) 
2.2523

>  <PUBCHEM_FEATURE_SELFOVERLAP>  (1) 
10.148

>  <PUBCHEM_SHAPE_FINGERPRINT>  (1) 
139733 1 8574130740291193634
20096714 4 18194685001607730288
21015797 1 10156262010553021850
29004967 10 18411706447895169626
5943 1 15944836421793135890

>  <PUBCHEM_SHAPE_MULTIPOLES>  (1) 
97.03
1.89
1.27
0.69
0.64
0.38
-0.03
-0.27
0.24
-0.55
0
0.07
-0.03
0.12

>  <PUBCHEM_SHAPE_SELFOVERLAP>  (1) 
168.746

>  <PUBCHEM_SHAPE_VOLUME>  (1) 
65.2

>  <PUBCHEM_COORDINATE_TYPE>  (1) 
2
5
10

$$$$
