10567
     RDKit          3D

  6  5  0  0  0  0  0  0  0  0999 V2000
   -1.7113    1.1644    0.4073 Cl  0  0  0  0  0  0  0  0  0  0  0  0
   -1.2130   -1.5445   -0.5674 Cl  0  0  0  0  0  0  0  0  0  0  0  0
    0.9115    1.0181   -0.8862 O   0  0  0  0  0  0  0  0  0  0  0  0
    0.7380    0.1656   -0.0148 C   0  0  0  0  0  0  0  0  0  0  0  0
   -0.6339   -0.2370    0.4710 C   0  0  0  0  0  0  0  0  0  0  0  0
    1.9086   -0.5665    0.5900 C   0  0  0  0  0  0  0  0  0  0  0  0
  1  5  1  0
  2  5  1  0
  3  4  2  0
  4  5  1  0
  4  6  1  0
M  END
>  <PUBCHEM_COMPOUND_CID>  (1) 
10567

>  <PUBCHEM_CONFORMER_RMSD>  (1) 
0.4

>  <PUBCHEM_CONFORMER_DIVERSEORDER>  (1) 
1
4
2
3
5

>  <PUBCHEM_MMFF94_PARTIAL_CHARGES>  (1) 
6
1 -0.29
2 -0.29
3 -0.57
4 0.45
5 0.64
6 0.06

>  <PUBCHEM_EFFECTIVE_ROTOR_COUNT>  (1) 
1

>  <PUBCHEM_PHARMACOPHORE_FEATURES>  (1) 
1
1 3 acceptor

>  <PUBCHEM_HEAVY_ATOM_COUNT>  (1) 
6

>  <PUBCHEM_ATOM_DEF_STEREO_COUNT>  (1) 
0

>  <PUBCHEM_ATOM_UDEF_STEREO_COUNT>  (1) 
0

>  <PUBCHEM_BOND_DEF_STEREO_COUNT>  (1) 
0

>  <PUBCHEM_BOND_UDEF_STEREO_COUNT>  (1) 
0

>  <PUBCHEM_ISOTOPIC_ATOM_COUNT>  (1) 
0

>  <PUBCHEM_COMPONENT_COUNT>  (1) 
1

>  <PUBCHEM_CACTVS_TAUTO_COUNT>  (1) 
3

>  <PUBCHEM_CONFORMER_ID>  (1) 
0000294700000001

>  <PUBCHEM_MMFF94_ENERGY>  (1) 
5.295

>  <PUBCHEM_FEATURE_SELFOVERLAP>  (1) 
5.074

>  <PUBCHEM_SHAPE_FINGERPRINT>  (1) 
139733 1 10954827410244525447
16714656 1 18046633304501732718
18185500 45 18051127291749812095
20096714 4 18188228540538517473
21040471 1 18200322000318210193
24536 1 17677050281785077744
29004967 10 16660652795500567208
5943 1 12913428468079819918

>  <PUBCHEM_SHAPE_MULTIPOLES>  (1) 
121.35
2.3
1.5
0.89
0.4
0.42
0.07
-0.15
-0.36
-0.79
0.23
0.12
-0.07
-0.41

>  <PUBCHEM_SHAPE_SELFOVERLAP>  (1) 
203.398

>  <PUBCHEM_SHAPE_VOLUME>  (1) 
83.7

>  <PUBCHEM_COORDINATE_TYPE>  (1) 
2
5
10

$$$$
