1057
     RDKit          3D

  9  9  0  0  0  0  0  0  0  0999 V2000
    0.0003   -2.1481    0.0008 O   0  0  0  0  0  0  0  0  0  0  0  0
   -2.3943   -0.7571    0.0000 O   0  0  0  0  0  0  0  0  0  0  0  0
    2.3945   -0.7565    0.0005 O   0  0  0  0  0  0  0  0  0  0  0  0
    0.0002   -0.7846   -0.0009 C   0  0  0  0  0  0  0  0  0  0  0  0
   -1.2079   -0.0874   -0.0002 C   0  0  0  0  0  0  0  0  0  0  0  0
    1.2080   -0.0869   -0.0008 C   0  0  0  0  0  0  0  0  0  0  0  0
   -1.2082    1.3075    0.0003 C   0  0  0  0  0  0  0  0  0  0  0  0
    1.2078    1.3080   -0.0001 C   0  0  0  0  0  0  0  0  0  0  0  0
   -0.0004    2.0051    0.0005 C   0  0  0  0  0  0  0  0  0  0  0  0
  1  4  1  0
  2  5  1  0
  3  6  1  0
  4  5  2  0
  4  6  1  0
  5  7  1  0
  6  8  2  0
  7  9  2  0
  8  9  1  0
M  END
>  <PUBCHEM_COMPOUND_CID>  (1) 
1057

>  <PUBCHEM_CONFORMER_RMSD>  (1) 
0.4

>  <PUBCHEM_CONFORMER_DIVERSEORDER>  (1) 
1

>  <PUBCHEM_MMFF94_PARTIAL_CHARGES>  (1) 
15
1 -0.53
10 0.15
11 0.15
12 0.15
13 0.45
14 0.45
15 0.45
2 -0.53
3 -0.53
4 0.08
5 0.08
6 0.08
7 -0.15
8 -0.15
9 -0.15

>  <PUBCHEM_EFFECTIVE_ROTOR_COUNT>  (1) 
0

>  <PUBCHEM_PHARMACOPHORE_FEATURES>  (1) 
4
1 1 donor
1 2 donor
1 3 donor
6 4 5 6 7 8 9 rings

>  <PUBCHEM_HEAVY_ATOM_COUNT>  (1) 
9

>  <PUBCHEM_ATOM_DEF_STEREO_COUNT>  (1) 
0

>  <PUBCHEM_ATOM_UDEF_STEREO_COUNT>  (1) 
0

>  <PUBCHEM_BOND_DEF_STEREO_COUNT>  (1) 
0

>  <PUBCHEM_BOND_UDEF_STEREO_COUNT>  (1) 
0

>  <PUBCHEM_ISOTOPIC_ATOM_COUNT>  (1) 
0

>  <PUBCHEM_COMPONENT_COUNT>  (1) 
1

>  <PUBCHEM_CACTVS_TAUTO_COUNT>  (1) 
11

>  <PUBCHEM_CONFORMER_ID>  (1) 
0000042100000001

>  <PUBCHEM_MMFF94_ENERGY>  (1) 
19.6229

>  <PUBCHEM_FEATURE_SELFOVERLAP>  (1) 
20.307

>  <PUBCHEM_SHAPE_FINGERPRINT>  (1) 
12423570 1 17775567541509401623
18185500 45 18266458706965723557
21040471 1 17978510067889456421
23552423 10 18045231431540091342
241688 4 18410575054598600513
2748010 2 18410289215940456621
29004967 10 18190744321990323041
5084963 1 18202283601897245618

>  <PUBCHEM_SHAPE_MULTIPOLES>  (1) 
167.61
2.31
2.06
0.58
0
0.09
0
-0.5
0
0
0
0
0.04
0

>  <PUBCHEM_SHAPE_SELFOVERLAP>  (1) 
353.616

>  <PUBCHEM_SHAPE_VOLUME>  (1) 
94.3

>  <PUBCHEM_COORDINATE_TYPE>  (1) 
2
5
10

$$$$
