10576
     RDKit          3D

 21 24  0  0  1  0  0  0  0  0999 V2000
    4.5222    1.3649    0.7242 O   0  0  0  0  0  0  0  0  0  0  0  0
   -5.7785    0.1273    0.9656 O   0  0  0  0  0  0  0  0  0  0  0  0
    2.5874    0.3886   -0.4383 C   0  0  0  0  0  0  0  0  0  0  0  0
    1.7846   -0.9075   -0.1838 C   0  0  0  0  0  0  0  0  0  0  0  0
    0.3041   -0.8272   -0.6074 C   0  0  0  0  0  0  0  0  0  0  0  0
   -0.4299    0.4125   -0.0450 C   0  0  0  0  0  0  0  0  0  0  0  0
    3.8779    0.1344    0.4048 C   0  0  0  0  0  0  0  0  0  0  0  0
    1.8067    1.6262    0.0830 C   0  0  0  0  0  0  0  0  0  0  0  0
    2.0346   -1.2237    1.3021 C   0  0  0  0  0  0  0  0  0  0  0  0
    0.3543    1.6904   -0.3911 C   0  0  0  0  0  0  0  0  0  0  0  0
    3.3455   -0.5307    1.6857 C   0  0  0  0  0  0  0  0  0  0  0  0
   -1.9068    0.4800   -0.5503 C   0  0  0  0  0  0  0  0  0  0  0  0
   -0.4563   -2.1109   -0.2433 C   0  0  0  0  0  0  0  0  0  0  0  0
    2.8882    0.5864   -1.9353 C   0  0  0  0  0  0  0  0  0  0  0  0
   -1.8744   -2.0785   -0.7986 C   0  0  0  0  0  0  0  0  0  0  0  0
   -2.6241   -0.8484   -0.3533 C   0  0  0  0  0  0  0  0  0  0  0  0
    4.9272   -0.7674   -0.2610 C   0  0  0  0  0  0  0  0  0  0  0  0
   -2.6557    1.6419    0.1360 C   0  0  0  0  0  0  0  0  0  0  0  0
   -4.1596    1.5667   -0.0607 C   0  0  0  0  0  0  0  0  0  0  0  0
   -3.8667   -0.9645    0.1416 C   0  0  0  0  0  0  0  0  0  0  0  0
   -4.6806    0.2395    0.4251 C   0  0  0  0  0  0  0  0  0  0  0  0
  1  7  1  0
  2 21  2  0
  3  4  1  0
  3  7  1  0
  3  8  1  0
  3 14  1  0
  4  5  1  0
  4  9  1  0
  5  6  1  0
  5 13  1  0
  6 10  1  0
  6 12  1  0
  7 11  1  0
  7 17  1  0
  8 10  1  0
  9 11  1  0
 12 16  1  0
 12 18  1  0
 13 15  1  0
 15 16  1  0
 16 20  2  0
 18 19  1  0
 19 21  1  0
 20 21  1  0
M  END
>  <PUBCHEM_COMPOUND_CID>  (1) 
10576

>  <PUBCHEM_CONFORMER_RMSD>  (1) 
0.6

>  <PUBCHEM_CONFORMER_DIVERSEORDER>  (1) 
4
52
40
46
32
23
38
41
36
26
24
53
51
16
35
31
39
29
42
45
22
56
9
6
43
27
14
47
13
37
20
7
8
54
49
30
10
28
3
5
17
15
1
12
44
34
25
48
55
33
18
21
11
19
50
2

>  <PUBCHEM_MMFF94_PARTIAL_CHARGES>  (1) 
11
1 -0.68
12 0.14
15 0.14
16 -0.28
19 0.06
2 -0.57
20 -0.14
21 0.49
46 0.4
49 0.15
7 0.28

>  <PUBCHEM_EFFECTIVE_ROTOR_COUNT>  (1) 
1.8

>  <PUBCHEM_PHARMACOPHORE_FEATURES>  (1) 
7
1 1 acceptor
1 1 donor
1 2 acceptor
5 3 4 7 9 11 rings
6 12 16 18 19 20 21 rings
6 3 4 5 6 8 10 rings
6 5 6 12 13 15 16 rings

>  <PUBCHEM_HEAVY_ATOM_COUNT>  (1) 
21

>  <PUBCHEM_ATOM_DEF_STEREO_COUNT>  (1) 
1

>  <PUBCHEM_ATOM_UDEF_STEREO_COUNT>  (1) 
5

>  <PUBCHEM_BOND_DEF_STEREO_COUNT>  (1) 
0

>  <PUBCHEM_BOND_UDEF_STEREO_COUNT>  (1) 
0

>  <PUBCHEM_ISOTOPIC_ATOM_COUNT>  (1) 
0

>  <PUBCHEM_COMPONENT_COUNT>  (1) 
1

>  <PUBCHEM_CACTVS_TAUTO_COUNT>  (1) 
8

>  <PUBCHEM_CONFORMER_ID>  (1) 
0000295000000004

>  <PUBCHEM_MMFF94_ENERGY>  (1) 
62.4963

>  <PUBCHEM_FEATURE_SELFOVERLAP>  (1) 
35.726

>  <PUBCHEM_SHAPE_FINGERPRINT>  (1) 
10064457 181 17095530629317102162
10366900 7 16225775103064915048
10646746 165 18343581841409637992
10759866 29 18041289810902586724
11132069 177 18342174462310141455
11543360 7 14476666521342101949
11578080 2 17129853070268088770
12107183 9 17320409104250479585
12236239 1 18040719151915307708
12251169 10 18408882940895221375
12403259 118 17967812722005850717
12403814 3 17894906322255135741
12553582 1 18261944198174279300
12592029 89 18409175381129492187
12633257 1 18342178886379793645
12788726 201 17774731887093100736
13140716 1 18268148845701194331
13221675 6 18408321115928059935
13224815 77 18259981578471586973
13544592 145 17846230916523442982
13583140 156 17458335339279267343
13675066 3 18335419071221714766
14341114 176 18261397741011241395
14341114 328 17967256399001922027
14790565 3 18336271223109768452
15042514 8 18339928246461018727
15142383 8 17313097506781994317
15196674 1 18412543240546843870
15238133 3 18187936053239357765
15375358 24 17775284971368777964
15375462 189 18113607976427375314
15788980 27 17748824103281443173
1601671 61 18412548682323311372
16752209 62 18412256255364781279
16945 1 18341888627672788543
17349148 13 18343011182084768727
1813 80 17314226658237685534
18186145 218 17632583725424167831
19050596 39 18260266373637443451
19078846 21 18334851706110569408
200 152 10737286853161856747
20028762 73 18200594838728651703
20261772 1 18409166606004592131
20510252 161 18131071502542599473
20691752 17 17823681152602571360
20715895 44 17756413864988297365
20739085 24 17750229227940029274
21033648 29 17702932656970657961
21267235 1 18335711524092739886
22182313 1 18267588996756398319
23402539 116 18131061641028279271
23557571 272 17131266986624411463
23558518 356 17687747559329593373
23559900 14 17917715708274394244
2748010 2 17980198591627521047
296302 2 16630522977059055312
335352 9 18413108338047223684
350125 39 18126009264977045318
38570 142 17388286621736652716
465052 167 18041290932390197891
474 4 17386855091740975708
4921388 177 15266765711696247549
495365 180 16773795870640888550
5104073 3 18340200903072864154
542803 24 16989126456838421297
59755656 215 18341056194724292670
7097593 13 18042953307608442979
7495541 125 14129058136497645486
9862522 239 18338503141783240565
9981440 41 17110440243155514568

>  <PUBCHEM_SHAPE_MULTIPOLES>  (1) 
420.43
9.93
1.94
1.18
4.29
0.14
-0.01
-1.24
2.33
0.56
-0.15
-0.95
0.09
-0.47

>  <PUBCHEM_SHAPE_SELFOVERLAP>  (1) 
901.719

>  <PUBCHEM_SHAPE_VOLUME>  (1) 
230.1

>  <PUBCHEM_COORDINATE_TYPE>  (1) 
2
5
10

$$$$
