10571
     RDKit          3D

 30 34  0  0  1  0  0  0  0  0999 V2000
    0.3527    1.6808   -1.5561 O   0  0  0  0  0  0  0  0  0  0  0  0
    3.1665    1.8882   -0.2280 O   0  0  0  0  0  0  0  0  0  0  0  0
   -7.1738   -0.6259    1.3304 O   0  0  0  0  0  0  0  0  0  0  0  0
    4.9427   -2.7091    0.3176 O   0  0  0  0  0  0  0  0  0  0  0  0
    6.8720   -1.4598    0.2015 O   0  0  0  0  0  0  0  0  0  0  0  0
    2.8141    4.0274    0.5842 O   0  0  0  0  0  0  0  0  0  0  0  0
    0.2881    0.9617   -0.3181 C   0  0  0  0  0  0  0  0  0  0  0  0
   -1.2057    0.6785    0.0322 C   0  0  0  0  0  0  0  0  0  0  0  0
    1.1643   -0.3456   -0.4348 C   0  0  0  0  0  0  0  0  0  0  0  0
   -1.8238   -0.3828   -0.9170 C   0  0  0  0  0  0  0  0  0  0  0  0
   -3.3522   -0.6779   -0.6301 C   0  0  0  0  0  0  0  0  0  0  0  0
    2.2360   -0.1783    0.6957 C   0  0  0  0  0  0  0  0  0  0  0  0
   -4.1497    0.6670   -0.5588 C   0  0  0  0  0  0  0  0  0  0  0  0
    0.3200   -1.6087   -0.1598 C   0  0  0  0  0  0  0  0  0  0  0  0
   -0.9533   -1.6629   -1.0005 C   0  0  0  0  0  0  0  0  0  0  0  0
    0.9692    1.8282    0.7746 C   0  0  0  0  0  0  0  0  0  0  0  0
   -2.0528    1.9622    0.0126 C   0  0  0  0  0  0  0  0  0  0  0  0
    2.4107    1.3359    0.8394 C   0  0  0  0  0  0  0  0  0  0  0  0
   -3.4981    1.6863    0.3912 C   0  0  0  0  0  0  0  0  0  0  0  0
   -3.5585   -1.4656    0.6971 C   0  0  0  0  0  0  0  0  0  0  0  0
    1.8163   -0.4947   -1.8350 C   0  0  0  0  0  0  0  0  0  0  0  0
   -5.6245    0.4631   -0.1625 C   0  0  0  0  0  0  0  0  0  0  0  0
   -3.8993   -1.5213   -1.8154 C   0  0  0  0  0  0  0  0  0  0  0  0
   -5.0278   -1.6546    1.0792 C   0  0  0  0  0  0  0  0  0  0  0  0
   -5.7931   -0.3385    1.1264 C   0  0  0  0  0  0  0  0  0  0  0  0
    3.5196   -0.9294    0.5386 C   0  0  0  0  0  0  0  0  0  0  0  0
    3.5515   -2.4041    0.4622 C   0  0  0  0  0  0  0  0  0  0  0  0
    4.7439   -0.4165    0.4508 C   0  0  0  0  0  0  0  0  0  0  0  0
    5.6611   -1.5485    0.3095 C   0  0  0  0  0  0  0  0  0  0  0  0
    3.2839    3.2449   -0.2269 C   0  0  0  0  0  0  0  0  0  0  0  0
  1  7  1  0
  2 18  1  0
  2 30  1  0
  3 25  1  0
  4 27  1  0
  4 29  1  0
  5 29  2  0
  6 30  2  0
  7  8  1  0
  7  9  1  0
  7 16  1  0
  8 10  1  0
  8 17  1  0
  9 12  1  0
  9 14  1  0
  9 21  1  0
 10 11  1  0
 10 15  1  0
 11 13  1  0
 11 20  1  0
 11 23  1  0
 12 18  1  0
 12 26  1  0
 13 19  1  0
 13 22  1  0
 14 15  1  0
 16 18  1  0
 17 19  1  0
 20 24  1  0
 22 25  1  0
 24 25  1  0
 26 27  1  0
 26 28  2  0
 28 29  1  0
M  END
>  <PUBCHEM_COMPOUND_CID>  (1) 
10571

>  <PUBCHEM_CONFORMER_RMSD>  (1) 
0.8

>  <PUBCHEM_CONFORMER_DIVERSEORDER>  (1) 
3
10
15
21
12
2
13
20
9
16
7
18
14
19
1
4
5
8
6
11
17

>  <PUBCHEM_MMFF94_PARTIAL_CHARGES>  (1) 
19
1 -0.68
12 0.14
18 0.28
2 -0.43
25 0.28
26 -0.28
27 0.42
28 -0.14
29 0.71
3 -0.68
30 0.66
4 -0.43
5 -0.57
58 0.4
6 -0.57
62 0.15
63 0.4
64 0.06
7 0.28

>  <PUBCHEM_EFFECTIVE_ROTOR_COUNT>  (1) 
5.6

>  <PUBCHEM_PHARMACOPHORE_FEATURES>  (1) 
11
1 1 acceptor
1 1 donor
1 3 acceptor
1 3 donor
1 5 acceptor
1 6 acceptor
5 4 26 27 28 29 rings
5 7 9 12 16 18 rings
6 11 13 20 22 24 25 rings
6 7 8 9 10 14 15 rings
6 8 10 11 13 17 19 rings

>  <PUBCHEM_HEAVY_ATOM_COUNT>  (1) 
30

>  <PUBCHEM_ATOM_DEF_STEREO_COUNT>  (1) 
7

>  <PUBCHEM_ATOM_UDEF_STEREO_COUNT>  (1) 
2

>  <PUBCHEM_BOND_DEF_STEREO_COUNT>  (1) 
0

>  <PUBCHEM_BOND_UDEF_STEREO_COUNT>  (1) 
0

>  <PUBCHEM_ISOTOPIC_ATOM_COUNT>  (1) 
0

>  <PUBCHEM_COMPONENT_COUNT>  (1) 
1

>  <PUBCHEM_CACTVS_TAUTO_COUNT>  (1) 
1

>  <PUBCHEM_CONFORMER_ID>  (1) 
0000294B00000003

>  <PUBCHEM_MMFF94_ENERGY>  (1) 
107.6351

>  <PUBCHEM_FEATURE_SELFOVERLAP>  (1) 
55.959

>  <PUBCHEM_SHAPE_FINGERPRINT>  (1) 
10622 236 17557112276800561103
11045977 3 18187082862681706419
11135926 11 18192985148590452188
11456790 92 18272664437663233489
11545043 162 17894628137159900989
12107183 9 18270124479202754009
12107698 1 18410576176191524795
12166972 35 17603311461791511661
12236239 1 17894917282774350038
12422481 6 17917990542604151815
12516196 113 18410571743948948498
12616971 3 18273212023743351343
12633257 1 17489869362549105163
12788726 201 17488762150098203089
13140716 1 18340488988479366567
13224815 77 18341055211355635829
13533116 47 18335986453755556505
13540713 5 17843672498704248495
13583140 156 18261380114644995239
13673619 4 18113339682821418486
13685833 64 18260269633296328667
13782708 43 17385715860260999090
13955234 65 18339076107489925312
14341114 176 18413387631249106440
14739800 52 17273684567370234016
14849402 71 18336832004389580676
14950920 106 18269854128365231835
14955137 171 18341334388419432414
15209289 33 18335979779202506562
15475509 35 17168131335007141658
15475509 84 18202290164887661545
15510800 12 16951705773400799699
15788980 27 18411976962473998023
15927050 60 17980761859862105190
17349148 13 17703783704428889468
17492 89 18336825415566733915
1813 80 17531250496330999934
20028762 73 18131342038238257319
20739085 24 18334581273479121725
21033648 29 17487594373922289330
21049683 271 18260275157505505884
21267235 1 18410297982000206810
21421861 104 18271816738728493037
21781055 127 16629707083491240953
21792934 111 18412259524621117593
22182313 1 17824513410159711196
23522609 53 18197807502993821193
23559900 14 18408876326408403833
23566358 27 18336543936484758788
23569917 315 17846777434412850407
24771293 8 18129361857336613040
25147074 1 17916860352425803319
2838139 119 11383827143451483411
3178227 256 18410580569357876626
335352 9 18341605984865815765
3411729 13 18268433615071386428
350125 39 18411419505430489212
3680242 22 18272658960799559241
392239 28 18340779191135389803
4093350 32 17131837608096168452
46194498 28 17603585227687022188
465052 167 18411139104527872958
5104073 3 17988077919601462643
57527293 21 18127988592809537075
5912855 24 18054222413003974487
7495541 125 18334860511109933404
8863177 126 18114470058111038491
9981440 41 17762042647151871184

>  <PUBCHEM_SHAPE_MULTIPOLES>  (1) 
582.17
13.91
3.09
1.26
3.92
2.16
0.34
-6.34
-4.47
-3.81
-0.24
0.98
-0.27
-0.15

>  <PUBCHEM_SHAPE_SELFOVERLAP>  (1) 
1258.857

>  <PUBCHEM_SHAPE_VOLUME>  (1) 
316.6

>  <PUBCHEM_COORDINATE_TYPE>  (1) 
2
5
10

$$$$
