10575
     RDKit          3D

 39 44  0  0  1  0  0  0  0  0999 V2000
    3.5482    3.0956    0.4913 O   0  0  0  0  0  0  0  0  0  0  0  0
   -0.9143    2.9398   -0.6071 O   0  0  0  0  0  0  0  0  0  0  0  0
   -3.9012   -0.7637   -0.0307 O   0  0  0  0  0  0  0  0  0  0  0  0
    7.1043   -2.5866   -1.1758 O   0  0  0  0  0  0  0  0  0  0  0  0
   -5.4603   -0.8666    1.7488 O   0  0  0  0  0  0  0  0  0  0  0  0
    8.7097   -3.0134    0.4168 O   0  0  0  0  0  0  0  0  0  0  0  0
   -6.3940    1.7475    0.7989 O   0  0  0  0  0  0  0  0  0  0  0  0
   -6.2593   -0.9120   -1.6996 O   0  0  0  0  0  0  0  0  0  0  0  0
   -8.3670   -1.9408   -0.2231 O   0  0  0  0  0  0  0  0  0  0  0  0
    1.9907    1.2194    0.6117 C   0  0  0  0  0  0  0  0  0  0  0  0
    3.4795    1.6948    0.7501 C   0  0  0  0  0  0  0  0  0  0  0  0
    1.5220    1.1596   -0.8699 C   0  0  0  0  0  0  0  0  0  0  0  0
    4.4763    0.9432   -0.1832 C   0  0  0  0  0  0  0  0  0  0  0  0
    0.0051    0.7186   -1.0414 C   0  0  0  0  0  0  0  0  0  0  0  0
   -0.9206    1.5890   -0.1184 C   0  0  0  0  0  0  0  0  0  0  0  0
    2.4962    0.2879   -1.6874 C   0  0  0  0  0  0  0  0  0  0  0  0
    3.9279    0.8015   -1.6128 C   0  0  0  0  0  0  0  0  0  0  0  0
    4.6393   -0.4079    0.5711 C   0  0  0  0  0  0  0  0  0  0  0  0
    1.0323    2.1136    1.4215 C   0  0  0  0  0  0  0  0  0  0  0  0
    4.0457    1.3815    2.1520 C   0  0  0  0  0  0  0  0  0  0  0  0
   -0.4071    1.6254    1.3335 C   0  0  0  0  0  0  0  0  0  0  0  0
    4.7001   -0.0016    2.0537 C   0  0  0  0  0  0  0  0  0  0  0  0
   -0.1986   -0.7882   -0.7032 C   0  0  0  0  0  0  0  0  0  0  0  0
   -2.3874    1.1093   -0.1351 C   0  0  0  0  0  0  0  0  0  0  0  0
    5.8369    1.6873   -0.2971 C   0  0  0  0  0  0  0  0  0  0  0  0
   -0.3864    0.9403   -2.5329 C   0  0  0  0  0  0  0  0  0  0  0  0
   -1.6617   -1.2319   -0.7310 C   0  0  0  0  0  0  0  0  0  0  0  0
   -2.5441   -0.3778    0.1694 C   0  0  0  0  0  0  0  0  0  0  0  0
    5.7863   -1.2753    0.1600 C   0  0  0  0  0  0  0  0  0  0  0  0
    5.8867   -1.8345   -1.2035 C   0  0  0  0  0  0  0  0  0  0  0  0
    6.8190   -1.6494    0.9105 C   0  0  0  0  0  0  0  0  0  0  0  0
   -4.7809   -0.0255    0.8114 C   0  0  0  0  0  0  0  0  0  0  0  0
    7.6674   -2.4893    0.0636 C   0  0  0  0  0  0  0  0  0  0  0  0
   -5.7697    0.7796   -0.0424 C   0  0  0  0  0  0  0  0  0  0  0  0
   -6.8439   -0.1114   -0.6732 C   0  0  0  0  0  0  0  0  0  0  0  0
   -6.3769   -1.7883    1.1509 C   0  0  0  0  0  0  0  0  0  0  0  0
   -7.4650   -1.0259    0.3876 C   0  0  0  0  0  0  0  0  0  0  0  0
   -6.9661   -2.6363    2.2744 C   0  0  0  0  0  0  0  0  0  0  0  0
   -5.6689   -0.1075   -2.7090 C   0  0  0  0  0  0  0  0  0  0  0  0
  1 11  1  0
  2 15  1  0
  3 28  1  0
  3 32  1  0
  4 30  1  0
  4 33  1  0
  5 32  1  0
  5 36  1  0
  6 33  2  0
  7 34  1  0
  8 35  1  0
  8 39  1  0
  9 37  1  0
 10 11  1  0
 10 12  1  0
 10 19  1  0
 11 13  1  0
 11 20  1  0
 12 14  1  0
 12 16  1  0
 13 17  1  0
 13 18  1  0
 13 25  1  0
 14 15  1  0
 14 23  1  0
 14 26  1  0
 15 21  1  0
 15 24  1  0
 16 17  1  0
 18 22  1  0
 18 29  1  0
 19 21  1  0
 20 22  1  0
 23 27  1  0
 24 28  1  0
 27 28  1  0
 29 30  1  0
 29 31  2  0
 31 33  1  0
 32 34  1  0
 34 35  1  0
 35 37  1  0
 36 37  1  0
 36 38  1  0
M  END
>  <PUBCHEM_COMPOUND_CID>  (1) 
10575

>  <PUBCHEM_CONFORMER_RMSD>  (1) 
1

>  <PUBCHEM_CONFORMER_DIVERSEORDER>  (1) 
3
120
149
118
227
98
222
113
137
110
67
190
195
142
215
185
18
176
172
22
138
184
198
57
160
169
238
159
117
236
187
217
87
119
158
182
104
46
226
232
177
213
148
165
54
108
224
192
216
207
59
139
191
107
163
90
186
218
101
194
144
21
229
127
179
69
199
212
220
4
111
230
20
153
150
228
145
11
71
26
168
225
103
162
233
161
197
24
235
48
193
156
36
124
201
140
141
7
206
60
189
146
86
204
78
183
92
109
106
155
154
42
84
166
128
125
112
181
173
16
167
135
231
202
121
180
88
76
126
208
209
234
93
32
65
210
171
170
51
85
237
89
45
133
47
96
200
105
129
95
50
203
58
79
123
55
73
214
134
80
132
2
6
147
68
174
31
221
164
211
102
205
115
10
83
81
131
17
75
116
100
38
175
49
23
29
40
151
130
157
114
61
64
52
152
223
74
25
178
196
94
66
35
143
72
77
97
12
91
37
34
28
39
43
219
44
13
82
41
27
63
122
188
99
19
136
53
8
33
56
15
70
5
62
14
9
30
1

>  <PUBCHEM_MMFF94_PARTIAL_CHARGES>  (1) 
28
1 -0.68
11 0.28
15 0.28
18 0.14
2 -0.68
28 0.28
29 -0.28
3 -0.56
30 0.42
31 -0.14
32 0.56
33 0.71
34 0.28
35 0.28
36 0.28
37 0.28
39 0.28
4 -0.43
5 -0.56
6 -0.57
68 0.4
69 0.4
7 -0.68
72 0.15
78 0.4
8 -0.56
82 0.4
9 -0.68

>  <PUBCHEM_EFFECTIVE_ROTOR_COUNT>  (1) 
7.8

>  <PUBCHEM_PHARMACOPHORE_FEATURES>  (1) 
18
1 1 acceptor
1 1 donor
1 2 acceptor
1 2 donor
1 3 acceptor
1 5 acceptor
1 6 acceptor
1 7 acceptor
1 7 donor
1 8 acceptor
1 9 acceptor
1 9 donor
5 11 13 18 20 22 rings
5 4 29 30 31 33 rings
6 10 11 12 13 16 17 rings
6 10 12 14 15 19 21 rings
6 14 15 23 24 27 28 rings
6 5 32 34 35 36 37 rings

>  <PUBCHEM_HEAVY_ATOM_COUNT>  (1) 
39

>  <PUBCHEM_ATOM_DEF_STEREO_COUNT>  (1) 
8

>  <PUBCHEM_ATOM_UDEF_STEREO_COUNT>  (1) 
5

>  <PUBCHEM_BOND_DEF_STEREO_COUNT>  (1) 
0

>  <PUBCHEM_BOND_UDEF_STEREO_COUNT>  (1) 
0

>  <PUBCHEM_ISOTOPIC_ATOM_COUNT>  (1) 
0

>  <PUBCHEM_COMPONENT_COUNT>  (1) 
1

>  <PUBCHEM_CACTVS_TAUTO_COUNT>  (1) 
1

>  <PUBCHEM_CONFORMER_ID>  (1) 
0000294F00000003

>  <PUBCHEM_MMFF94_ENERGY>  (1) 
146.3858

>  <PUBCHEM_FEATURE_SELFOVERLAP>  (1) 
91.62

>  <PUBCHEM_SHAPE_FINGERPRINT>  (1) 
10 15 13110956526948220790
10673678 19 10737291238334028840
11135609 12 18341888585714730104
11456790 92 17131834261261682330
117089 54 18126014771890769990
11828532 37 18335991960030815258
12013929 112 17313938616224162455
12120059 9 18189878959200488467
12422481 6 17988922279864453101
13150687 139 12107792862032613504
13673619 4 18334856087615560436
13782708 43 18410290311336263933
13811026 1 18260828219847716498
14347424 109 17917710236296441328
14904525 67 9078853874096034487
14931854 50 14273742811646553550
15064981 113 16516229809480479031
15183329 4 16773801432918740621
15198563 99 17385995131909113653
15352257 5 17603586326729625379
15510800 12 18411426077057909174
16994733 274 10879996848182176319
20105231 36 17131553831444600358
2026 5 18334857204176007211
21424621 283 11600007639310316453
21781051 124 18410300215731685302
21792934 111 17917991642527288129
21987483 16 17272553183059003259
23559900 14 18260270793248845196
23569917 315 18335706078972014427
23569943 247 18130499756660225479
23576562 1 13624398817429314915
24771293 8 11671773862666696466
25269216 80 15068631500368497115
3004659 81 17313104163500897672
3383291 50 18343300345011702410
392239 28 17132117948473344177
4112364 45 12607104245863217618
4149490 64 18333728040678419530
4340502 62 14405189477501221044
4403749 210 11671778257288729653
44880168 125 18262234525596123431
474113 269 18130779023964937863
504579 68 14707208838131256447
5104073 3 16773223115271484950
54039377 194 18271810078368697950
58083652 198 16845275151796416361
6691757 9 15122927531525510124
9831232 110 18336549313757738550
9962374 69 18271796961037331782

>  <PUBCHEM_SHAPE_MULTIPOLES>  (1) 
749.78
24.31
2.88
2.04
11.83
0.6
-0.3
21.26
2.75
-3.29
0.66
1.06
0
1.98

>  <PUBCHEM_SHAPE_SELFOVERLAP>  (1) 
1611.604

>  <PUBCHEM_SHAPE_VOLUME>  (1) 
411.1

>  <PUBCHEM_COORDINATE_TYPE>  (1) 
2
5
10

$$$$
