10585
     RDKit          3D

 12 12  0  0  0  0  0  0  0  0999 V2000
    0.9190   -0.8530   -0.0072 S   0  0  0  0  0  0  0  0  0  0  0  0
    1.8556    0.4927    0.0065 O   0  0  0  0  0  0  0  0  0  0  0  0
    1.1091   -1.5614    1.2497 O   0  0  0  0  0  0  0  0  0  0  0  0
    1.1425   -1.5244   -1.2803 O   0  0  0  0  0  0  0  0  0  0  0  0
   -0.7213   -0.2551   -0.0027 C   0  0  0  0  0  0  0  0  0  0  0  0
   -1.3755   -0.0046   -1.2088 C   0  0  0  0  0  0  0  0  0  0  0  0
   -1.3770   -0.0265    1.2070 C   0  0  0  0  0  0  0  0  0  0  0  0
    3.2689    0.3613    0.0063 C   0  0  0  0  0  0  0  0  0  0  0  0
   -2.6855    0.4747   -1.2054 C   0  0  0  0  0  0  0  0  0  0  0  0
   -2.6870    0.4526    1.2105 C   0  0  0  0  0  0  0  0  0  0  0  0
   -3.3413    0.7031    0.0043 C   0  0  0  0  0  0  0  0  0  0  0  0
    3.8925    1.7406    0.0201 C   0  0  0  0  0  0  0  0  0  0  0  0
  1  2  1  0
  1  3  2  0
  1  4  2  0
  1  5  1  0
  2  8  1  0
  5  6  2  0
  5  7  1  0
  6  9  1  0
  7 10  2  0
  8 12  1  0
  9 11  2  0
 10 11  1  0
M  END
>  <PUBCHEM_COMPOUND_CID>  (1) 
10585

>  <PUBCHEM_CONFORMER_RMSD>  (1) 
0.6

>  <PUBCHEM_CONFORMER_DIVERSEORDER>  (1) 
1
2
3

>  <PUBCHEM_MMFF94_PARTIAL_CHARGES>  (1) 
16
1 1.49
10 -0.15
11 -0.15
13 0.15
14 0.15
17 0.15
18 0.15
19 0.15
2 -0.46
3 -0.65
4 -0.65
5 -0.01
6 -0.15
7 -0.15
8 0.28
9 -0.15

>  <PUBCHEM_EFFECTIVE_ROTOR_COUNT>  (1) 
3

>  <PUBCHEM_PHARMACOPHORE_FEATURES>  (1) 
3
1 3 acceptor
1 4 acceptor
6 5 6 7 9 10 11 rings

>  <PUBCHEM_HEAVY_ATOM_COUNT>  (1) 
12

>  <PUBCHEM_ATOM_DEF_STEREO_COUNT>  (1) 
0

>  <PUBCHEM_ATOM_UDEF_STEREO_COUNT>  (1) 
0

>  <PUBCHEM_BOND_DEF_STEREO_COUNT>  (1) 
0

>  <PUBCHEM_BOND_UDEF_STEREO_COUNT>  (1) 
0

>  <PUBCHEM_ISOTOPIC_ATOM_COUNT>  (1) 
0

>  <PUBCHEM_COMPONENT_COUNT>  (1) 
1

>  <PUBCHEM_CACTVS_TAUTO_COUNT>  (1) 
1

>  <PUBCHEM_CONFORMER_ID>  (1) 
0000295900000001

>  <PUBCHEM_MMFF94_ENERGY>  (1) 
12.1042

>  <PUBCHEM_FEATURE_SELFOVERLAP>  (1) 
15.24

>  <PUBCHEM_SHAPE_FINGERPRINT>  (1) 
10465860 71 14620800418100469968
10857977 72 16588037792154036685
11127187 94 13758363288229301541
12186901 62 16056886831757876605
12251169 10 15502373452372876012
12326174 3 18265896852319094754
12897270 3 15985098621909754653
12932764 1 17968948470198589811
15219456 202 17458902639354148978
15775835 57 18340482356880751180
170605 34 18412830174622244458
18186145 218 18341900709996027676
20281407 28 9655581803149380304
20645464 45 17675926478086045497
20645476 183 17346875642074232037
20653085 51 17987527064302008340
21499 59 18201439211690848900
21524375 3 18340201998732401584
228727 97 16845577521303114418
23402539 116 14057265529342387263
23552423 10 17130428974085577983
2748010 2 15214976334484376339
3248919 1 17988071185024053399
369184 2 18041559135896760747
528716 315 16559032726652434485
8030462 33 16558456496934310687
90316 7 14201387274936057582

>  <PUBCHEM_SHAPE_MULTIPOLES>  (1) 
233.2
5.98
1.36
1.32
3.22
0.12
0.01
-3.46
-0.03
1.21
-0.01
-0.78
0.21
0.03

>  <PUBCHEM_SHAPE_SELFOVERLAP>  (1) 
460.38

>  <PUBCHEM_SHAPE_VOLUME>  (1) 
139.2

>  <PUBCHEM_COORDINATE_TYPE>  (1) 
2
5
10

$$$$
