10594
     RDKit          3D

 34 37  0  0  1  0  0  0  0  0999 V2000
   -6.5595   -2.6119   -0.0547 S   0  0  0  0  0  0  0  0  0  0  0  0
    1.2314    0.6633    1.9969 O   0  0  0  0  0  0  0  0  0  0  0  0
    5.6973   -3.5125    1.9948 O   0  0  0  0  0  0  0  0  0  0  0  0
   -5.7045    2.0172   -0.4820 O   0  0  0  0  0  0  0  0  0  0  0  0
   -7.2375   -3.4312   -1.2914 O   0  0  0  0  0  0  0  0  0  0  0  0
   -6.9873   -3.2142    1.1947 O   0  0  0  0  0  0  0  0  0  0  0  0
   -5.1552   -2.3967   -0.3522 O   0  0  0  0  0  0  0  0  0  0  0  0
   -5.7607    0.2060    0.9727 N   0  0  0  0  0  0  0  0  0  0  0  0
    0.8815    1.6092   -0.2268 C   0  0  0  0  0  0  0  0  0  0  0  0
    1.2508    0.2796   -0.9266 C   0  0  0  0  0  0  0  0  0  0  0  0
    2.7438    0.1752   -1.2632 C   0  0  0  0  0  0  0  0  0  0  0  0
    3.5714    0.2884    0.0582 C   0  0  0  0  0  0  0  0  0  0  0  0
    5.1192    0.1443   -0.2023 C   0  0  0  0  0  0  0  0  0  0  0  0
   -0.6518    1.3990   -0.1112 C   0  0  0  0  0  0  0  0  0  0  0  0
    1.6562    1.6938    1.1043 C   0  0  0  0  0  0  0  0  0  0  0  0
    3.1769    1.5511    0.8771 C   0  0  0  0  0  0  0  0  0  0  0  0
    5.3952   -1.1904   -0.9739 C   0  0  0  0  0  0  0  0  0  0  0  0
    0.2332    0.1716   -2.0602 C   0  0  0  0  0  0  0  0  0  0  0  0
    3.0562   -1.1300   -2.0071 C   0  0  0  0  0  0  0  0  0  0  0  0
   -1.0462    0.8029   -1.4824 C   0  0  0  0  0  0  0  0  0  0  0  0
    4.5510   -1.3098   -2.2534 C   0  0  0  0  0  0  0  0  0  0  0  0
    5.9461    0.1308    1.1166 C   0  0  0  0  0  0  0  0  0  0  0  0
    1.2003    2.8687   -1.0769 C   0  0  0  0  0  0  0  0  0  0  0  0
   -1.4765    2.6221    0.2632 C   0  0  0  0  0  0  0  0  0  0  0  0
    5.2017   -2.4408   -0.0898 C   0  0  0  0  0  0  0  0  0  0  0  0
    5.6579    1.3379   -1.0334 C   0  0  0  0  0  0  0  0  0  0  0  0
    5.7166   -1.1034    1.9795 C   0  0  0  0  0  0  0  0  0  0  0  0
    6.0155   -2.3763    1.1979 C   0  0  0  0  0  0  0  0  0  0  0  0
   -2.9656    2.4747   -0.1099 C   0  0  0  0  0  0  0  0  0  0  0  0
   -1.3543    2.8968    1.7664 C   0  0  0  0  0  0  0  0  0  0  0  0
   -3.6642    1.3309    0.6261 C   0  0  0  0  0  0  0  0  0  0  0  0
   -5.1453    1.2490    0.2957 C   0  0  0  0  0  0  0  0  0  0  0  0
   -7.1656   -0.1036    0.8367 C   0  0  0  0  0  0  0  0  0  0  0  0
   -7.4280   -1.0917   -0.2835 C   0  0  0  0  0  0  0  0  0  0  0  0
  1  5  1  0
  1  6  2  0
  1  7  2  0
  1 34  1  0
  2 15  1  0
  3 28  1  0
  4 32  2  0
  8 32  1  0
  8 33  1  0
  9 10  1  0
  9 14  1  0
  9 15  1  0
  9 23  1  0
 10 11  1  0
 10 18  1  0
 11 12  1  0
 11 19  1  0
 12 13  1  0
 12 16  1  0
 13 17  1  0
 13 22  1  0
 13 26  1  0
 14 20  1  0
 14 24  1  0
 15 16  1  0
 17 21  1  0
 17 25  1  0
 18 20  1  0
 19 21  1  0
 22 27  1  0
 24 29  1  0
 24 30  1  0
 25 28  1  0
 27 28  1  0
 29 31  1  0
 31 32  1  0
 33 34  1  0
M  END
>  <PUBCHEM_COMPOUND_CID>  (1) 
10594

>  <PUBCHEM_CONFORMER_RMSD>  (1) 
1

>  <PUBCHEM_CONFORMER_DIVERSEORDER>  (1) 
6
123
116
78
29
99
114
35
106
119
138
142
101
15
68
73
97
20
102
22
86
127
25
9
141
137
111
89
42
76
18
83
104
41
107
32
136
59
92
84
134
14
5
37
87
81
133
70
19
30
16
39
130
28
2
52
49
13
90
117
74
143
3
100
96
50
60
64
108
54
122
31
139
10
43
56
58
66
85
132
47
75
40
4
27
112
23
17
53
120
69
67
135
8
121
82
44
33
45
55
118
38
105
93
48
79
57
140
126
129
94
12
51
91
128
124
11
61
72
125
113
77
110
24
1
71
21
46
115
95
36
63
103
98
34
7
26
88
109
131
80
62
65

>  <PUBCHEM_MMFF94_PARTIAL_CHARGES>  (1) 
18
1 1.38
15 0.28
2 -0.68
28 0.28
3 -0.68
31 0.06
32 0.57
33 0.3
34 0.11
4 -0.57
5 -0.68
6 -0.65
65 0.4
7 -0.65
73 0.4
74 0.37
79 0.5
8 -0.73

>  <PUBCHEM_EFFECTIVE_ROTOR_COUNT>  (1) 
10.2

>  <PUBCHEM_PHARMACOPHORE_FEATURES>  (1) 
15
1 2 acceptor
1 2 donor
1 3 acceptor
1 3 donor
1 30 hydrophobe
1 4 acceptor
1 5 acceptor
1 6 acceptor
1 7 acceptor
1 8 donor
4 1 5 6 7 anion
5 9 10 14 18 20 rings
6 11 12 13 17 19 21 rings
6 13 17 22 25 27 28 rings
6 9 10 11 12 15 16 rings

>  <PUBCHEM_HEAVY_ATOM_COUNT>  (1) 
34

>  <PUBCHEM_ATOM_DEF_STEREO_COUNT>  (1) 
9

>  <PUBCHEM_ATOM_UDEF_STEREO_COUNT>  (1) 
1

>  <PUBCHEM_BOND_DEF_STEREO_COUNT>  (1) 
0

>  <PUBCHEM_BOND_UDEF_STEREO_COUNT>  (1) 
0

>  <PUBCHEM_ISOTOPIC_ATOM_COUNT>  (1) 
0

>  <PUBCHEM_COMPONENT_COUNT>  (1) 
1

>  <PUBCHEM_CACTVS_TAUTO_COUNT>  (1) 
2

>  <PUBCHEM_CONFORMER_ID>  (1) 
0000296200000006

>  <PUBCHEM_MMFF94_ENERGY>  (1) 
98.9793

>  <PUBCHEM_FEATURE_SELFOVERLAP>  (1) 
76.304

>  <PUBCHEM_SHAPE_FINGERPRINT>  (1) 
10190206 1 12468637183908876870
10939801 23 18270964681973831286
11135609 12 18343020034202601245
11136131 41 17551218997797365489
11963148 33 18052253200726631047
12035758 1 17060327496948166792
12422481 6 17203613696538415805
1361 4 18410575059220790562
13782708 43 18341331111000728357
13944108 23 11244174895153962791
14068700 675 18408045095940052065
14211702 104 18413111671327090119
14347329 18 7997695251681686309
15183329 4 18408609171148472723
15352257 5 18343023298430266071
15475509 35 18336259038645850082
16992727 255 7997972375139308759
1979834 28 16988560148763932940
19958102 18 17167583786743386627
20028762 73 18413674616748693799
20691028 202 9367349219584997211
20775438 99 17751084827847493048
21424621 283 10952051160896745309
21781051 124 17846227635611313334
21792938 169 17676198058640125362
22122407 14 11959145563218702230
22149856 69 17417825988873938825
23522609 53 18120688818416087277
23569914 152 13264328430150470530
25222932 49 18408036312815879490
255183 313 16558743529825563061
2747138 104 17632302258879558560
2748736 6 9871750165937008779
2838139 119 11242256302744419961
397830 11 18202559592232692577
439807 62 18408041819201264891
5104073 3 18060416915253556065
5718773 13 18409728482975851315
59682541 52 14129058084773668808
6201320 221 17969759931424355467
9962374 69 17822290151057601330
9980921 52 17387392563600718826

>  <PUBCHEM_SHAPE_MULTIPOLES>  (1) 
663.36
21.1
3.82
1.94
29.12
1.92
-0.02
20.28
4.26
3.74
0.8
-2.49
0.55
-1.54

>  <PUBCHEM_SHAPE_SELFOVERLAP>  (1) 
1365.413

>  <PUBCHEM_SHAPE_VOLUME>  (1) 
385.1

>  <PUBCHEM_COORDINATE_TYPE>  (1) 
2
5
10

$$$$
