10601
     RDKit          3D

  9  9  0  0  1  0  0  0  0  0999 V2000
    2.0675   -0.1557    0.1705 O   0  0  0  0  0  0  0  0  0  0  0  0
    0.7271   -1.9731   -0.2227 O   0  0  0  0  0  0  0  0  0  0  0  0
   -1.7628   -1.0965    0.5910 O   0  0  0  0  0  0  0  0  0  0  0  0
   -0.1458    0.2799   -0.4808 C   0  0  0  0  0  0  0  0  0  0  0  0
    0.4191    1.4947    0.2199 C   0  0  0  0  0  0  0  0  0  0  0  0
    1.9060    1.2654    0.1203 C   0  0  0  0  0  0  0  0  0  0  0  0
    0.8884   -0.7637   -0.1667 C   0  0  0  0  0  0  0  0  0  0  0  0
   -1.5164   -0.0412    0.0091 C   0  0  0  0  0  0  0  0  0  0  0  0
   -2.5832    0.9902   -0.2406 C   0  0  0  0  0  0  0  0  0  0  0  0
  1  6  1  0
  1  7  1  0
  2  7  2  0
  3  8  2  0
  4  5  1  0
  4  7  1  0
  4  8  1  0
  5  6  1  0
  8  9  1  0
M  END
>  <PUBCHEM_COMPOUND_CID>  (1) 
10601

>  <PUBCHEM_CONFORMER_RMSD>  (1) 
0.4

>  <PUBCHEM_CONFORMER_DIVERSEORDER>  (1) 
1
7
6
5
10
2
9
3
4
8

>  <PUBCHEM_MMFF94_PARTIAL_CHARGES>  (1) 
8
1 -0.43
2 -0.57
3 -0.57
4 0.12
6 0.28
7 0.66
8 0.45
9 0.06

>  <PUBCHEM_EFFECTIVE_ROTOR_COUNT>  (1) 
1.8

>  <PUBCHEM_PHARMACOPHORE_FEATURES>  (1) 
4
1 2 acceptor
1 3 acceptor
1 4 anion
5 1 4 5 6 7 rings

>  <PUBCHEM_HEAVY_ATOM_COUNT>  (1) 
9

>  <PUBCHEM_ATOM_DEF_STEREO_COUNT>  (1) 
0

>  <PUBCHEM_ATOM_UDEF_STEREO_COUNT>  (1) 
1

>  <PUBCHEM_BOND_DEF_STEREO_COUNT>  (1) 
0

>  <PUBCHEM_BOND_UDEF_STEREO_COUNT>  (1) 
0

>  <PUBCHEM_ISOTOPIC_ATOM_COUNT>  (1) 
0

>  <PUBCHEM_COMPONENT_COUNT>  (1) 
1

>  <PUBCHEM_CACTVS_TAUTO_COUNT>  (1) 
5

>  <PUBCHEM_CONFORMER_ID>  (1) 
0000296900000001

>  <PUBCHEM_MMFF94_ENERGY>  (1) 
8.3532

>  <PUBCHEM_FEATURE_SELFOVERLAP>  (1) 
20.302

>  <PUBCHEM_SHAPE_FINGERPRINT>  (1) 
16945 1 18338518521417503413
18185500 45 18272366438755200917
21040471 1 18195806490852198260
23552423 10 18334300829188787502
241688 4 17331399766309166368
2748010 2 18338800121074827372
29004967 10 18410858724329745608
5084963 1 17844249742261195065

>  <PUBCHEM_SHAPE_MULTIPOLES>  (1) 
167.61
2.95
1.69
0.67
1.05
0.32
-0.01
-0.65
0.11
-0.34
0.04
0.08
0
0.25

>  <PUBCHEM_SHAPE_SELFOVERLAP>  (1) 
340.123

>  <PUBCHEM_SHAPE_VOLUME>  (1) 
99.7

>  <PUBCHEM_COORDINATE_TYPE>  (1) 
2
5
10

$$$$
