10604
     RDKit          3D

 28 31  0  0  1  0  0  0  0  0999 V2000
   -1.5934   -0.2938   -1.7271 O   0  0  0  0  0  0  0  0  0  0  0  0
    1.3274   -1.4265    0.7139 O   0  0  0  0  0  0  0  0  0  0  0  0
   -2.6631    0.9417    1.3290 N   0  0  0  0  0  0  0  0  0  0  0  0
    2.7367    1.2472   -0.9814 N   0  0  0  0  0  0  0  0  0  0  0  0
   -2.9655    0.3056    0.1165 N   0  0  0  0  0  0  0  0  0  0  0  0
    2.8924   -0.0021   -0.3643 N   0  0  0  0  0  0  0  0  0  0  0  0
   -0.6794    0.7028    0.2464 C   0  0  0  0  0  0  0  0  0  0  0  0
    0.6942    0.7173   -0.1382 C   0  0  0  0  0  0  0  0  0  0  0  0
   -1.2791    1.1077    1.3786 C   0  0  0  0  0  0  0  0  0  0  0  0
    1.4195    1.6548   -0.7710 C   0  0  0  0  0  0  0  0  0  0  0  0
   -1.7843    0.1926   -0.6235 C   0  0  0  0  0  0  0  0  0  0  0  0
    1.6441   -0.4098    0.1164 C   0  0  0  0  0  0  0  0  0  0  0  0
   -0.6325    1.7200    2.5781 C   0  0  0  0  0  0  0  0  0  0  0  0
    0.9481    2.9811   -1.2716 C   0  0  0  0  0  0  0  0  0  0  0  0
   -4.1815   -0.3832   -0.1205 C   0  0  0  0  0  0  0  0  0  0  0  0
    4.1532   -0.5473   -0.0144 C   0  0  0  0  0  0  0  0  0  0  0  0
   -3.5611    1.9888    1.8067 C   0  0  0  0  0  0  0  0  0  0  0  0
    3.3959    1.4757   -2.2638 C   0  0  0  0  0  0  0  0  0  0  0  0
   -4.5354   -0.7608   -1.4194 C   0  0  0  0  0  0  0  0  0  0  0  0
    4.2630   -1.8938    0.3461 C   0  0  0  0  0  0  0  0  0  0  0  0
   -5.0352   -0.6908    0.9432 C   0  0  0  0  0  0  0  0  0  0  0  0
    5.2964    0.2575   -0.0282 C   0  0  0  0  0  0  0  0  0  0  0  0
   -5.7317   -1.4395   -1.6525 C   0  0  0  0  0  0  0  0  0  0  0  0
    5.5039   -2.4303    0.6895 C   0  0  0  0  0  0  0  0  0  0  0  0
   -6.2313   -1.3694    0.7103 C   0  0  0  0  0  0  0  0  0  0  0  0
    6.5375   -0.2789    0.3150 C   0  0  0  0  0  0  0  0  0  0  0  0
   -6.5795   -1.7438   -0.5876 C   0  0  0  0  0  0  0  0  0  0  0  0
    6.6411   -1.6229    0.6738 C   0  0  0  0  0  0  0  0  0  0  0  0
  1 11  2  0
  2 12  2  0
  3  5  1  0
  3  9  1  0
  3 17  1  0
  4  6  1  0
  4 10  1  0
  4 18  1  0
  5 11  1  0
  5 15  1  0
  6 12  1  0
  6 16  1  0
  7  8  1  0
  7  9  2  0
  7 11  1  0
  8 10  2  0
  8 12  1  0
  9 13  1  0
 10 14  1  0
 15 19  2  0
 15 21  1  0
 16 20  2  0
 16 22  1  0
 19 23  1  0
 20 24  1  0
 21 25  2  0
 22 26  2  0
 23 27  2  0
 24 28  2  0
 25 27  1  0
 26 28  1  0
M  END
>  <PUBCHEM_COMPOUND_CID>  (1) 
10604

>  <PUBCHEM_CONFORMER_RMSD>  (1) 
0.8

>  <PUBCHEM_CONFORMER_DIVERSEORDER>  (1) 
2
3
9
8
11
12
10
7
6
5
1
4

>  <PUBCHEM_MMFF94_PARTIAL_CHARGES>  (1) 
38
1 -0.57
10 -0.04
11 0.62
12 0.62
13 0.14
14 0.14
15 0.12
16 0.12
17 0.37
18 0.37
19 -0.15
2 -0.57
20 -0.15
21 -0.15
22 -0.15
23 -0.15
24 -0.15
25 -0.15
26 -0.15
27 -0.15
28 -0.15
3 -0.49
4 -0.49
41 0.15
42 0.15
43 0.15
44 0.15
45 0.15
46 0.15
47 0.15
48 0.15
49 0.15
5 -0.16
50 0.15
6 -0.16
7 0.01
8 0.01
9 -0.04

>  <PUBCHEM_EFFECTIVE_ROTOR_COUNT>  (1) 
3

>  <PUBCHEM_PHARMACOPHORE_FEATURES>  (1) 
6
1 1 acceptor
1 2 acceptor
5 3 5 7 9 11 rings
5 4 6 8 10 12 rings
6 15 19 21 23 25 27 rings
6 16 20 22 24 26 28 rings

>  <PUBCHEM_HEAVY_ATOM_COUNT>  (1) 
28

>  <PUBCHEM_ATOM_DEF_STEREO_COUNT>  (1) 
0

>  <PUBCHEM_ATOM_UDEF_STEREO_COUNT>  (1) 
0

>  <PUBCHEM_BOND_DEF_STEREO_COUNT>  (1) 
0

>  <PUBCHEM_BOND_UDEF_STEREO_COUNT>  (1) 
0

>  <PUBCHEM_ISOTOPIC_ATOM_COUNT>  (1) 
0

>  <PUBCHEM_COMPONENT_COUNT>  (1) 
1

>  <PUBCHEM_CACTVS_TAUTO_COUNT>  (1) 
1

>  <PUBCHEM_CONFORMER_ID>  (1) 
0000296C00000002

>  <PUBCHEM_MMFF94_ENERGY>  (1) 
118.9638

>  <PUBCHEM_FEATURE_SELFOVERLAP>  (1) 
30.449

>  <PUBCHEM_SHAPE_FINGERPRINT>  (1) 
10 15 14333121988212116010
11135926 11 17388286626106012020
11497681 19 18341333272324547838
11578080 2 18199162066938637873
12166972 35 18410572907431645320
12236239 1 18341896281341361512
12596602 18 18130786720841724906
12623949 98 18129668470541402598
13533116 47 18412262878573577808
13583140 156 16055737739275302266
13862211 1 18113616747362802730
13911987 19 17531545225877505238
15119646 104 18334582338583213205
15183329 4 15068614972627206326
15188451 53 18273208686105479674
15320294 125 18131629011226385015
15728490 51 18201713012057179086
17349148 13 18341338833309637778
17857418 61 18413390942811550079
1813 80 18336840688802482116
18222031 100 18113333094726591408
19315092 285 18265037047870550338
19377110 9 17988932171063067058
19784866 240 18334859406992141071
200 152 18408041810220940185
20028762 73 18411698760321240022
20567600 247 18335977653531551875
21033648 29 14261366743277305595
21637258 2 18411974767460860075
21756936 100 9294990380656585948
22061861 79 17458063780791537287
22393880 68 16805601525244199699
23522609 53 18126596545889199913
23559900 14 18041559269067289761
23569914 152 16231911340385225927
23569943 247 17905049154193537754
2838139 119 8574715697953030083
3886686 26 16837714677620097870
4015057 19 17676781945140296880
4058900 60 11242239728608244513
4098825 35 17967247577766791469
439807 62 18191307277162611531
44880568 143 16515399647202457078
46194498 28 17095238155361475110
5104073 3 15625678093528082110
5718773 13 17896309226452936530
57527295 17 16878775003277775793
59755656 215 16081079377044425387
59755656 520 15502664754720544185

>  <PUBCHEM_SHAPE_MULTIPOLES>  (1) 
544.56
16.55
2.39
1.81
0.59
0.47
0.08
-13.05
0.07
0.87
0.07
-1.14
0.96
-2.9

>  <PUBCHEM_SHAPE_SELFOVERLAP>  (1) 
1190.977

>  <PUBCHEM_SHAPE_VOLUME>  (1) 
297.5

>  <PUBCHEM_COORDINATE_TYPE>  (1) 
2
5
10

$$$$
