10613
     RDKit          3D

 14 14  0  0  0  0  0  0  0  0999 V2000
   -0.4549    1.9340    0.0006 O   0  0  0  0  0  0  0  0  0  0  0  0
    2.5018   -1.8404   -0.0003 O   0  0  0  0  0  0  0  0  0  0  0  0
    3.3143    0.4622    0.0004 O   0  0  0  0  0  0  0  0  0  0  0  0
    1.9549    2.1858   -0.0004 O   0  0  0  0  0  0  0  0  0  0  0  0
   -3.6334   -0.5907   -0.0012 O   0  0  0  0  0  0  0  0  0  0  0  0
   -2.8557    1.4621    0.0001 O   0  0  0  0  0  0  0  0  0  0  0  0
    2.1608    0.9503   -0.0001 N   0  0  0  0  0  0  0  0  0  0  0  0
   -2.6781    0.2211   -0.0003 N   0  0  0  0  0  0  0  0  0  0  0  0
    1.0422    0.0682   -0.0006 C   0  0  0  0  0  0  0  0  0  0  0  0
   -0.2542    0.5827    0.0002 C   0  0  0  0  0  0  0  0  0  0  0  0
   -1.3481   -0.2828    0.0009 C   0  0  0  0  0  0  0  0  0  0  0  0
    1.2449   -1.3119   -0.0006 C   0  0  0  0  0  0  0  0  0  0  0  0
   -1.1455   -1.6630    0.0011 C   0  0  0  0  0  0  0  0  0  0  0  0
    0.1510   -2.1775    0.0002 C   0  0  0  0  0  0  0  0  0  0  0  0
  1 10  1  0
  2 12  1  0
  3  7  1  0
  4  7  2  0
  5  8  1  0
  6  8  2  0
  7  9  1  0
  8 11  1  0
  9 10  2  0
  9 12  1  0
 10 11  1  0
 11 13  2  0
 12 14  2  0
 13 14  1  0
M  CHG  4   3  -1   5  -1   7   1   8   1
M  END
>  <PUBCHEM_COMPOUND_CID>  (1) 
10613

>  <PUBCHEM_CONFORMER_RMSD>  (1) 
0.6

>  <PUBCHEM_CONFORMER_DIVERSEORDER>  (1) 
1

>  <PUBCHEM_MMFF94_PARTIAL_CHARGES>  (1) 
18
1 -0.53
10 0.08
11 0.13
12 0.08
13 -0.15
14 -0.15
15 0.15
16 0.15
17 0.45
18 0.45
2 -0.53
3 -0.52
4 -0.52
5 -0.52
6 -0.52
7 0.91
8 0.91
9 0.13

>  <PUBCHEM_EFFECTIVE_ROTOR_COUNT>  (1) 
2

>  <PUBCHEM_PHARMACOPHORE_FEATURES>  (1) 
9
1 1 donor
1 2 donor
1 3 acceptor
1 3 anion
1 4 acceptor
1 5 acceptor
1 5 anion
1 6 acceptor
6 9 10 11 12 13 14 rings

>  <PUBCHEM_HEAVY_ATOM_COUNT>  (1) 
14

>  <PUBCHEM_ATOM_DEF_STEREO_COUNT>  (1) 
0

>  <PUBCHEM_ATOM_UDEF_STEREO_COUNT>  (1) 
0

>  <PUBCHEM_BOND_DEF_STEREO_COUNT>  (1) 
0

>  <PUBCHEM_BOND_UDEF_STEREO_COUNT>  (1) 
0

>  <PUBCHEM_ISOTOPIC_ATOM_COUNT>  (1) 
0

>  <PUBCHEM_COMPONENT_COUNT>  (1) 
1

>  <PUBCHEM_CACTVS_TAUTO_COUNT>  (1) 
17

>  <PUBCHEM_CONFORMER_ID>  (1) 
0000297500000001

>  <PUBCHEM_MMFF94_ENERGY>  (1) 
56.6771

>  <PUBCHEM_FEATURE_SELFOVERLAP>  (1) 
45.835

>  <PUBCHEM_SHAPE_FINGERPRINT>  (1) 
10967382 1 18410855490203495366
11206711 2 18048322149782154255
11471102 20 18338230462720002397
12423570 1 12784777142476704974
13380535 76 18410290358533697522
13897977 150 18410854395113448487
14325111 11 18410573968235365025
16945 1 18338797926246227718
193761 8 18410573959418843462
20588541 1 18409451426766120554
20645477 70 18340763746417175551
21040471 1 18338517555144722882
21501502 16 18338517426374812337
2334 1 18410573972493396069
23402655 69 18268978822841689765
23463225 33 18408037412037253018
23552423 10 18336545997873732395
23559900 14 17262155823435228526
241688 4 17330840123512562306
2748010 2 18410014325348882423
5084963 1 18058726888456032803
528862 383 18334568032031579458
528886 8 18411414055032295874
53812653 166 18271241745734207736
63268167 104 18341615888822867331
7364860 26 18343019965340621422

>  <PUBCHEM_SHAPE_MULTIPOLES>  (1) 
242.94
4.4
2.31
0.56
1.27
0.06
0
-0.78
0
-0.65
0
0
0.04
0

>  <PUBCHEM_SHAPE_SELFOVERLAP>  (1) 
523.378

>  <PUBCHEM_SHAPE_VOLUME>  (1) 
133.1

>  <PUBCHEM_COORDINATE_TYPE>  (1) 
2
5
10

$$$$
