10610
     RDKit          3D

 25 27  0  0  0  0  0  0  0  0999 V2000
    3.4946   -1.8390    1.1823 S   0  0  0  0  0  0  0  0  0  0  0  0
   -3.1817    1.2711    0.2257 O   0  0  0  0  0  0  0  0  0  0  0  0
   -0.4041    1.3170    0.6091 O   0  0  0  0  0  0  0  0  0  0  0  0
    1.3099    2.7419    0.1900 O   0  0  0  0  0  0  0  0  0  0  0  0
    1.6684    0.4159    0.0258 N   0  0  0  0  0  0  0  0  0  0  0  0
   -6.3484   -0.4934   -0.3983 N   0  0  0  0  0  0  0  0  0  0  0  0
    3.0827    0.5100   -0.2613 C   0  0  0  0  0  0  0  0  0  0  0  0
    1.1080   -0.9147    0.0904 C   0  0  0  0  0  0  0  0  0  0  0  0
    3.9993   -0.4582    0.1862 C   0  0  0  0  0  0  0  0  0  0  0  0
    1.8384   -2.0135    0.5722 C   0  0  0  0  0  0  0  0  0  0  0  0
   -5.0296    0.0536   -0.6804 C   0  0  0  0  0  0  0  0  0  0  0  0
    3.5900    1.5805   -1.0229 C   0  0  0  0  0  0  0  0  0  0  0  0
   -0.1939   -1.1587   -0.3910 C   0  0  0  0  0  0  0  0  0  0  0  0
   -4.4732    0.7696    0.5400 C   0  0  0  0  0  0  0  0  0  0  0  0
    0.8900    1.5866    0.2324 C   0  0  0  0  0  0  0  0  0  0  0  0
    5.3700   -0.3327   -0.0961 C   0  0  0  0  0  0  0  0  0  0  0  0
    1.2583   -3.2920    0.6205 C   0  0  0  0  0  0  0  0  0  0  0  0
   -2.6047    1.9548    1.3317 C   0  0  0  0  0  0  0  0  0  0  0  0
   -1.2226    2.4445    0.9445 C   0  0  0  0  0  0  0  0  0  0  0  0
    4.9535    1.6968   -1.3075 C   0  0  0  0  0  0  0  0  0  0  0  0
   -0.7640   -2.4334   -0.3486 C   0  0  0  0  0  0  0  0  0  0  0  0
    5.8450    0.7425   -0.8397 C   0  0  0  0  0  0  0  0  0  0  0  0
   -0.0401   -3.4997    0.1652 C   0  0  0  0  0  0  0  0  0  0  0  0
   -7.2783    0.5698   -0.0101 C   0  0  0  0  0  0  0  0  0  0  0  0
   -6.8675   -1.2194   -1.5601 C   0  0  0  0  0  0  0  0  0  0  0  0
  1  9  1  0
  1 10  1  0
  2 14  1  0
  2 18  1  0
  3 15  1  0
  3 19  1  0
  4 15  2  0
  5  7  1  0
  5  8  1  0
  5 15  1  0
  6 11  1  0
  6 24  1  0
  6 25  1  0
  7  9  2  0
  7 12  1  0
  8 10  2  0
  8 13  1  0
  9 16  1  0
 10 17  1  0
 11 14  1  0
 12 20  2  0
 13 21  2  0
 16 22  2  0
 17 23  2  0
 18 19  1  0
 20 22  1  0
 21 23  1  0
M  END
>  <PUBCHEM_COMPOUND_CID>  (1) 
10610

>  <PUBCHEM_CONFORMER_RMSD>  (1) 
1

>  <PUBCHEM_CONFORMER_DIVERSEORDER>  (1) 
1
64
67
25
21
6
29
22
39
53
79
15
70
66
49
54
74
43
12
42
4
78
47
36
28
41
61
14
45
20
23
71
2
34
44
62
55
69
65
32
10
46
19
72
11
13
40
75
17
24
38
63
50
16
73
5
80
35
76
3
18
81
60
26
56
7
58
27
9
57
52
31
59
48
8
68
77
30
33
51
37

>  <PUBCHEM_MMFF94_PARTIAL_CHARGES>  (1) 
33
1 -0.2
10 0.1
11 0.27
12 -0.15
13 -0.15
14 0.28
15 0.78
16 -0.15
17 -0.15
18 0.28
19 0.28
2 -0.56
20 -0.15
21 -0.15
22 -0.15
23 -0.15
24 0.27
25 0.27
3 -0.43
30 0.15
31 0.15
32 0.15
33 0.15
38 0.15
39 0.15
4 -0.57
40 0.15
41 0.15
5 -0.29
6 -0.81
7 0.12
8 0.12
9 0.1

>  <PUBCHEM_EFFECTIVE_ROTOR_COUNT>  (1) 
8.4

>  <PUBCHEM_PHARMACOPHORE_FEATURES>  (1) 
6
1 2 acceptor
1 4 acceptor
1 6 cation
6 1 5 7 8 9 10 rings
6 7 9 12 16 20 22 rings
6 8 10 13 17 21 23 rings

>  <PUBCHEM_HEAVY_ATOM_COUNT>  (1) 
25

>  <PUBCHEM_ATOM_DEF_STEREO_COUNT>  (1) 
0

>  <PUBCHEM_ATOM_UDEF_STEREO_COUNT>  (1) 
0

>  <PUBCHEM_BOND_DEF_STEREO_COUNT>  (1) 
0

>  <PUBCHEM_BOND_UDEF_STEREO_COUNT>  (1) 
0

>  <PUBCHEM_ISOTOPIC_ATOM_COUNT>  (1) 
0

>  <PUBCHEM_COMPONENT_COUNT>  (1) 
1

>  <PUBCHEM_CACTVS_TAUTO_COUNT>  (1) 
1

>  <PUBCHEM_CONFORMER_ID>  (1) 
0000297200000001

>  <PUBCHEM_MMFF94_ENERGY>  (1) 
91.276

>  <PUBCHEM_FEATURE_SELFOVERLAP>  (1) 
30.484

>  <PUBCHEM_SHAPE_FINGERPRINT>  (1) 
10090160 65 18261678081900301570
1100329 8 18341049734639415201
11135609 187 18408323306652070441
12788726 201 18060423474222277689
13836976 161 18260835890733030092
14464042 87 18272367564115903187
14767858 380 18412824707323984317
14787075 74 18343023276512415457
14790565 3 18410020931230428440
14931854 50 18412822487200601399
15131766 46 15866629681067122548
15537594 2 18202279200473606735
16993438 75 18042696181487389419
17138139 8 18200864184342385559
17492 54 18335709355118476905
19319366 153 18408597059193251919
19591789 44 18338805498896062880
20028762 73 18202563960246159414
208703 8 17058065944192187911
21054139 6 18413109441848725357
21344244 181 17917446301866337302
23569917 315 18411142398789797450
3178227 256 18337967774057027321
335352 9 18335425660820151990
4098825 35 18041273254748387069
439807 62 18336261332723089255
484989 97 18121784087232736275
5312544 6 18335704901627735426

>  <PUBCHEM_SHAPE_MULTIPOLES>  (1) 
490.77
14.97
3.47
1.13
24.55
1.9
-0.08
-2.71
-5.63
-1.17
0.67
0.23
-0.17
-2.57

>  <PUBCHEM_SHAPE_SELFOVERLAP>  (1) 
1022.178

>  <PUBCHEM_SHAPE_VOLUME>  (1) 
278.8

>  <PUBCHEM_COORDINATE_TYPE>  (1) 
2
5
10

$$$$
