10629
     RDKit          3D

 10 11  0  0  0  0  0  0  0  0999 V2000
   -1.0638   -2.0141   -0.0003 S   0  0  0  0  0  0  0  0  0  0  0  0
   -2.3373    1.6209    0.0005 O   0  0  0  0  0  0  0  0  0  0  0  0
   -0.1808    0.4160   -0.0001 C   0  0  0  0  0  0  0  0  0  0  0  0
    0.2612   -0.9106    0.0001 C   0  0  0  0  0  0  0  0  0  0  0  0
   -1.6144    0.4858    0.0001 C   0  0  0  0  0  0  0  0  0  0  0  0
    0.7914    1.4453   -0.0003 C   0  0  0  0  0  0  0  0  0  0  0  0
    1.6333   -1.2299    0.0004 C   0  0  0  0  0  0  0  0  0  0  0  0
   -2.2104   -0.7530   -0.0003 C   0  0  0  0  0  0  0  0  0  0  0  0
    2.1533    1.1320   -0.0005 C   0  0  0  0  0  0  0  0  0  0  0  0
    2.5674   -0.1923    0.0004 C   0  0  0  0  0  0  0  0  0  0  0  0
  1  4  1  0
  1  8  1  0
  2  5  1  0
  3  4  2  0
  3  5  1  0
  3  6  1  0
  4  7  1  0
  5  8  2  0
  6  9  2  0
  7 10  2  0
  9 10  1  0
M  END
>  <PUBCHEM_COMPOUND_CID>  (1) 
10629

>  <PUBCHEM_CONFORMER_RMSD>  (1) 
0.4

>  <PUBCHEM_CONFORMER_DIVERSEORDER>  (1) 
1

>  <PUBCHEM_MMFF94_PARTIAL_CHARGES>  (1) 
15
1 -0.08
10 -0.15
11 0.15
12 0.15
13 0.15
14 0.15
15 0.15
16 0.45
2 -0.51
4 0.04
5 0.06
6 -0.15
7 -0.15
8 -0.11
9 -0.15

>  <PUBCHEM_EFFECTIVE_ROTOR_COUNT>  (1) 
0

>  <PUBCHEM_PHARMACOPHORE_FEATURES>  (1) 
3
1 2 donor
5 1 3 4 5 8 rings
6 3 4 6 7 9 10 rings

>  <PUBCHEM_HEAVY_ATOM_COUNT>  (1) 
10

>  <PUBCHEM_ATOM_DEF_STEREO_COUNT>  (1) 
0

>  <PUBCHEM_ATOM_UDEF_STEREO_COUNT>  (1) 
0

>  <PUBCHEM_BOND_DEF_STEREO_COUNT>  (1) 
0

>  <PUBCHEM_BOND_UDEF_STEREO_COUNT>  (1) 
0

>  <PUBCHEM_ISOTOPIC_ATOM_COUNT>  (1) 
0

>  <PUBCHEM_COMPONENT_COUNT>  (1) 
1

>  <PUBCHEM_CACTVS_TAUTO_COUNT>  (1) 
2

>  <PUBCHEM_CONFORMER_ID>  (1) 
0000298500000001

>  <PUBCHEM_MMFF94_ENERGY>  (1) 
18.5882

>  <PUBCHEM_FEATURE_SELFOVERLAP>  (1) 
15.283

>  <PUBCHEM_SHAPE_FINGERPRINT>  (1) 
11206711 2 18338236088673440869
12423570 1 7892381295688635694
12897270 3 18194963165180369654
14325111 11 18410855455833376384
16945 1 18338516468481086726
18185500 45 18410008849249755642
19973954 147 18338237171089653460
21040471 1 18410855455996757284
23402655 69 18196920103364360581
23552423 10 18189053268885624150
23559900 14 18271254833712829870
241688 4 17835238226622500059
2748010 2 18338237059346689871
369184 2 18059856215714908130
5084963 1 18201441423261441690
528886 8 18338793395050436352
66348 1 18338515343194354470

>  <PUBCHEM_SHAPE_MULTIPOLES>  (1) 
203.78
3.39
1.95
0.62
0.4
0.11
0
-0.33
0
-0.53
0
0.01
0.03
0

>  <PUBCHEM_SHAPE_SELFOVERLAP>  (1) 
434.355

>  <PUBCHEM_SHAPE_VOLUME>  (1) 
114.6

>  <PUBCHEM_COORDINATE_TYPE>  (1) 
2
5
10

$$$$
