1062
     RDKit          3D

 23 23  0  0  0  0  0  0  0  0999 V2000
   -2.1332    1.6273    1.7331 O   0  0  0  0  0  0  0  0  0  0  0  0
    0.0890    0.0920    2.2695 O   0  0  0  0  0  0  0  0  0  0  0  0
   -3.8102    0.9512   -0.3490 O   0  0  0  0  0  0  0  0  0  0  0  0
   -3.2660   -1.2609   -1.8966 O   0  0  0  0  0  0  0  0  0  0  0  0
   -0.4712   -1.3623    0.4544 C   0  0  0  0  0  0  0  0  0  0  0  0
    0.7488   -2.1986    0.7499 C   0  0  0  0  0  0  0  0  0  0  0  0
   -1.3092   -1.7112   -0.5963 C   0  0  0  0  0  0  0  0  0  0  0  0
    4.3221   -0.8483   -0.3158 C   0  0  0  0  0  0  0  0  0  0  0  0
    3.1255   -1.2742    0.5088 C   0  0  0  0  0  0  0  0  0  0  0  0
    1.9615   -1.7235   -0.0002 C   0  0  0  0  0  0  0  0  0  0  0  0
   -0.7380   -0.2483    1.2395 C   0  0  0  0  0  0  0  0  0  0  0  0
    4.3786    0.6601   -0.5920 C   0  0  0  0  0  0  0  0  0  0  0  0
   -2.4343   -0.9322   -0.8669 C   0  0  0  0  0  0  0  0  0  0  0  0
   -1.8630    0.5307    0.9690 C   0  0  0  0  0  0  0  0  0  0  0  0
   -2.7111    0.1888   -0.0842 C   0  0  0  0  0  0  0  0  0  0  0  0
   -1.0166   -2.9106   -1.4408 C   0  0  0  0  0  0  0  0  0  0  0  0
    3.3185   -1.2074    2.0023 C   0  0  0  0  0  0  0  0  0  0  0  0
    3.2440    1.1312   -1.4589 C   0  0  0  0  0  0  0  0  0  0  0  0
    2.3071    2.0552   -1.1737 C   0  0  0  0  0  0  0  0  0  0  0  0
    1.1962    2.4795   -2.0914 C   0  0  0  0  0  0  0  0  0  0  0  0
    2.3245    2.7713    0.1507 C   0  0  0  0  0  0  0  0  0  0  0  0
   -2.1845    2.8851    1.0640 C   0  0  0  0  0  0  0  0  0  0  0  0
   -5.0787    0.3048   -0.2753 C   0  0  0  0  0  0  0  0  0  0  0  0
  1 14  1  0
  1 22  1  0
  2 11  1  0
  3 15  1  0
  3 23  1  0
  4 13  1  0
  5  6  1  0
  5  7  2  0
  5 11  1  0
  6 10  1  0
  7 13  1  0
  7 16  1  0
  8  9  1  0
  8 12  1  0
  9 10  2  0
  9 17  1  0
 11 14  2  0
 12 18  1  0
 13 15  2  0
 14 15  1  0
 18 19  2  3
 19 20  1  0
 19 21  1  0
M  END
>  <PUBCHEM_COMPOUND_CID>  (1) 
1062

>  <PUBCHEM_CONFORMER_RMSD>  (1) 
0.8

>  <PUBCHEM_CONFORMER_DIVERSEORDER>  (1) 
1
14
92
85
110
61
98
157
149
93
53
133
107
125
44
131
146
101
69
121
65
124
76
52
128
140
188
122
153
119
186
73
126
154
78
180
111
84
137
60
142
33
57
113
144
166
58
155
8
150
183
160
34
67
143
168
99
62
145
83
172
177
68
106
158
96
64
115
179
173
118
129
9
79
72
117
182
105
90
4
164
95
136
114
45
187
25
81
108
51
10
59
18
91
138
97
31
11
123
26
88
23
171
47
86
102
13
116
127
46
174
42
74
135
41
147
66
152
89
148
120
39
7
3
94
29
178
112
21
151
176
80
5
109
181
82
170
165
77
24
50
38
40
30
139
103
6
141
32
71
159
35
100
48
19
55
175
134
130
56
20
75
15
184
63
87
43
156
161
17
16
54
37
163
162
27
185
22
70
12
49
2
36
28
167
132
104
169

>  <PUBCHEM_MMFF94_PARTIAL_CHARGES>  (1) 
27
1 -0.36
10 -0.29
11 0.08
12 0.14
13 0.08
14 0.08
15 0.08
16 0.14
17 0.14
18 -0.29
19 -0.28
2 -0.53
20 0.14
21 0.14
22 0.28
23 0.28
28 0.15
3 -0.36
37 0.15
38 0.45
39 0.45
4 -0.53
5 -0.14
6 0.28
7 -0.14
8 0.14
9 -0.28

>  <PUBCHEM_EFFECTIVE_ROTOR_COUNT>  (1) 
7

>  <PUBCHEM_PHARMACOPHORE_FEATURES>  (1) 
8
1 1 acceptor
1 17 hydrophobe
1 2 donor
1 3 acceptor
1 4 donor
3 19 20 21 hydrophobe
4 8 9 12 18 hydrophobe
6 5 7 11 13 14 15 rings

>  <PUBCHEM_HEAVY_ATOM_COUNT>  (1) 
23

>  <PUBCHEM_ATOM_DEF_STEREO_COUNT>  (1) 
0

>  <PUBCHEM_ATOM_UDEF_STEREO_COUNT>  (1) 
0

>  <PUBCHEM_BOND_DEF_STEREO_COUNT>  (1) 
0

>  <PUBCHEM_BOND_UDEF_STEREO_COUNT>  (1) 
1

>  <PUBCHEM_ISOTOPIC_ATOM_COUNT>  (1) 
0

>  <PUBCHEM_COMPONENT_COUNT>  (1) 
1

>  <PUBCHEM_CACTVS_TAUTO_COUNT>  (1) 
19

>  <PUBCHEM_CONFORMER_ID>  (1) 
0000042600000001

>  <PUBCHEM_MMFF94_ENERGY>  (1) 
72.7265

>  <PUBCHEM_FEATURE_SELFOVERLAP>  (1) 
40.606

>  <PUBCHEM_SHAPE_FINGERPRINT>  (1) 
104564 63 17897165715787271508
10708813 3 18409450258741160484
11640471 11 18409739469127738862
12035759 4 18342177773814549913
12467345 10 18409729603498287087
12633257 1 15285638867162295732
12788726 201 17845672420388271545
128993 33 16809289386075448356
13583140 156 17458638799687508907
13965767 371 17476915758179674770
14790565 3 17702948020495989217
16752209 62 17917431990823712083
17980427 23 18126818669292322714
18219364 16 17385730239695077614
18981168 100 17605844831129099722
192875 21 18412260627699322220
19930381 70 17539136459770684421
21475661 188 17095798824481650621
22749437 52 17974290121198724532
23227448 37 18187933918841220967
23419403 2 17191159545547493264
23557571 272 17273967115882889906
23559900 14 17346303896218179642
474 4 18259707787275972858
57100710 29 18412267199120500800
9981440 41 17689712382936084408

>  <PUBCHEM_SHAPE_MULTIPOLES>  (1) 
449.85
7.81
3.26
1.91
0.42
1.12
-0.19
1.29
1.29
-0.79
0.58
-0.02
0.2
-2.29

>  <PUBCHEM_SHAPE_SELFOVERLAP>  (1) 
914.97

>  <PUBCHEM_SHAPE_VOLUME>  (1) 
263.6

>  <PUBCHEM_COORDINATE_TYPE>  (1) 
2
5
10

$$$$
