10637
     RDKit          3D

 16 17  0  0  0  0  0  0  0  0999 V2000
    2.5831    0.1320    0.0745 S   0  0  0  0  0  0  0  0  0  0  0  0
    2.6584   -0.8736   -1.2095 O   0  0  0  0  0  0  0  0  0  0  0  0
    2.8927   -0.6467    1.2639 O   0  0  0  0  0  0  0  0  0  0  0  0
    3.3601    1.3196   -0.2465 O   0  0  0  0  0  0  0  0  0  0  0  0
   -3.0573    1.3443   -0.0251 O   0  0  0  0  0  0  0  0  0  0  0  0
   -1.2586    3.3090    0.0085 O   0  0  0  0  0  0  0  0  0  0  0  0
   -0.0190   -0.6295    0.0257 C   0  0  0  0  0  0  0  0  0  0  0  0
    0.9125    0.5081    0.0452 C   0  0  0  0  0  0  0  0  0  0  0  0
   -1.4011   -0.3592    0.0014 C   0  0  0  0  0  0  0  0  0  0  0  0
    0.5621    1.7962    0.0414 C   0  0  0  0  0  0  0  0  0  0  0  0
   -1.8747    1.0407   -0.0041 C   0  0  0  0  0  0  0  0  0  0  0  0
    0.3704   -1.9797    0.0296 C   0  0  0  0  0  0  0  0  0  0  0  0
   -2.3519   -1.3885   -0.0178 C   0  0  0  0  0  0  0  0  0  0  0  0
   -0.8660    2.1526    0.0158 C   0  0  0  0  0  0  0  0  0  0  0  0
   -0.5762   -3.0101    0.0103 C   0  0  0  0  0  0  0  0  0  0  0  0
   -1.9346   -2.7151   -0.0134 C   0  0  0  0  0  0  0  0  0  0  0  0
  1  2  1  0
  1  3  2  0
  1  4  2  0
  1  8  1  0
  5 11  2  0
  6 14  2  0
  7  8  1  0
  7  9  2  0
  7 12  1  0
  8 10  2  0
  9 11  1  0
  9 13  1  0
 10 14  1  0
 11 14  1  0
 12 15  2  0
 13 16  2  0
 15 16  1  0
M  END
>  <PUBCHEM_COMPOUND_CID>  (1) 
10637

>  <PUBCHEM_CONFORMER_RMSD>  (1) 
0.6

>  <PUBCHEM_CONFORMER_DIVERSEORDER>  (1) 
1
2

>  <PUBCHEM_MMFF94_PARTIAL_CHARGES>  (1) 
22
1 1.5
10 -0.14
11 0.48
12 -0.15
13 -0.15
14 0.56
15 -0.15
16 -0.15
17 0.15
18 0.15
19 0.15
2 -0.68
20 0.15
21 0.15
22 0.5
3 -0.65
4 -0.65
5 -0.57
6 -0.57
7 0.03
8 -0.05
9 0.09

>  <PUBCHEM_EFFECTIVE_ROTOR_COUNT>  (1) 
1

>  <PUBCHEM_PHARMACOPHORE_FEATURES>  (1) 
8
1 2 acceptor
1 3 acceptor
1 4 acceptor
1 5 acceptor
1 6 acceptor
4 1 2 3 4 anion
6 7 8 9 10 11 14 rings
6 7 9 12 13 15 16 rings

>  <PUBCHEM_HEAVY_ATOM_COUNT>  (1) 
16

>  <PUBCHEM_ATOM_DEF_STEREO_COUNT>  (1) 
0

>  <PUBCHEM_ATOM_UDEF_STEREO_COUNT>  (1) 
0

>  <PUBCHEM_BOND_DEF_STEREO_COUNT>  (1) 
0

>  <PUBCHEM_BOND_UDEF_STEREO_COUNT>  (1) 
0

>  <PUBCHEM_ISOTOPIC_ATOM_COUNT>  (1) 
0

>  <PUBCHEM_COMPONENT_COUNT>  (1) 
1

>  <PUBCHEM_CACTVS_TAUTO_COUNT>  (1) 
1

>  <PUBCHEM_CONFORMER_ID>  (1) 
0000298D00000001

>  <PUBCHEM_MMFF94_ENERGY>  (1) 
43.6575

>  <PUBCHEM_FEATURE_SELFOVERLAP>  (1) 
40.683

>  <PUBCHEM_SHAPE_FINGERPRINT>  (1) 
10967382 1 18410856594242224995
11578080 2 17028766148959534604
11680986 33 17330267269501453009
12524768 44 17764593509326765879
12553582 1 18050003586640011434
13140716 1 18410854386666146977
13380535 76 18266731399019390859
13538477 17 18260542321170481824
14790565 3 18339099102650427713
15001771 113 17907023129097331937
15042514 8 18408886252051697986
15490181 7 18195252113405430503
15490181 8 18121776136451075659
16945 1 18266459810782965569
17990270 104 17474950303635425754
193761 8 17762336912345353617
19591789 44 18124047727817062659
19868273 325 18265899240156900415
20510252 161 18343023297865971857
20645476 183 17749970898088279326
20871998 184 18200597037091594998
22802520 49 18129399145393597502
2334 1 18266457796585787025
23402539 116 18199172048489346487
23419403 2 17124750241388515489
23526114 1 16898494009502573014
23552423 10 17328018188354852975
23557571 272 18199201753052767364
23559900 14 18271530798135970086
23598294 1 18336263534838266330
2748010 2 18339356491291331869
34934 24 18122616429744014154
352729 6 18338232669895296995
7364860 26 17260178900704345747
81228 2 18340209686333562571

>  <PUBCHEM_SHAPE_MULTIPOLES>  (1) 
303.78
4.15
3.48
0.74
2.14
1.31
0.01
-1.1
-0.05
-1.83
-0.01
0.38
-0.22
-0.03

>  <PUBCHEM_SHAPE_SELFOVERLAP>  (1) 
656.392

>  <PUBCHEM_SHAPE_VOLUME>  (1) 
166.7

>  <PUBCHEM_COORDINATE_TYPE>  (1) 
2
5
10

$$$$
