10641
     RDKit          3D

 21 23  0  0  0  0  0  0  0  0999 V2000
    3.3931   -1.8844   -0.3822 N   0  0  0  0  0  0  0  0  0  0  0  0
   -0.3490   -0.1573    0.9857 C   0  0  0  0  0  0  0  0  0  0  0  0
    0.7711   -1.1600    0.6748 C   0  0  0  0  0  0  0  0  0  0  0  0
    2.0763   -0.7448    1.3425 C   0  0  0  0  0  0  0  0  0  0  0  0
   -1.7090   -0.6377    0.5027 C   0  0  0  0  0  0  0  0  0  0  0  0
   -0.0069    1.2540    0.5326 C   0  0  0  0  0  0  0  0  0  0  0  0
    3.1772   -1.7642    1.0547 C   0  0  0  0  0  0  0  0  0  0  0  0
   -2.0758   -0.6731   -0.8569 C   0  0  0  0  0  0  0  0  0  0  0  0
    0.0113    1.6461   -0.8203 C   0  0  0  0  0  0  0  0  0  0  0  0
   -2.6340   -1.0887    1.4658 C   0  0  0  0  0  0  0  0  0  0  0  0
    0.3294    2.2041    1.5179 C   0  0  0  0  0  0  0  0  0  0  0  0
   -1.1914   -0.2545   -1.9534 C   0  0  0  0  0  0  0  0  0  0  0  0
   -0.2949    0.7420   -1.9376 C   0  0  0  0  0  0  0  0  0  0  0  0
   -3.3399   -1.1765   -1.2155 C   0  0  0  0  0  0  0  0  0  0  0  0
    0.3851    2.9618   -1.1500 C   0  0  0  0  0  0  0  0  0  0  0  0
   -3.8888   -1.5704    1.0950 C   0  0  0  0  0  0  0  0  0  0  0  0
    0.6826    3.5086    1.1755 C   0  0  0  0  0  0  0  0  0  0  0  0
   -4.2410   -1.6165   -0.2470 C   0  0  0  0  0  0  0  0  0  0  0  0
    0.7127    3.8871   -0.1600 C   0  0  0  0  0  0  0  0  0  0  0  0
    4.4240   -2.8842   -0.6667 C   0  0  0  0  0  0  0  0  0  0  0  0
    3.7677   -0.5913   -0.9574 C   0  0  0  0  0  0  0  0  0  0  0  0
  1  7  1  0
  1 20  1  0
  1 21  1  0
  2  3  1  0
  2  5  1  0
  2  6  1  0
  3  4  1  0
  4  7  1  0
  5  8  2  0
  5 10  1  0
  6  9  2  0
  6 11  1  0
  8 12  1  0
  8 14  1  0
  9 13  1  0
  9 15  1  0
 10 16  2  0
 11 17  2  0
 12 13  2  0
 14 18  2  0
 15 19  2  0
 16 18  1  0
 17 19  1  0
M  END
>  <PUBCHEM_COMPOUND_CID>  (1) 
10641

>  <PUBCHEM_CONFORMER_RMSD>  (1) 
0.6

>  <PUBCHEM_CONFORMER_DIVERSEORDER>  (1) 
3
7
18
4
16
9
8
13
2
17
6
5
11
1
14
15
10
12

>  <PUBCHEM_MMFF94_PARTIAL_CHARGES>  (1) 
29
1 -0.81
10 -0.15
11 -0.15
12 -0.18
13 -0.18
14 -0.15
15 -0.15
16 -0.15
17 -0.15
18 -0.15
19 -0.15
2 0.29
20 0.27
21 0.27
29 0.15
30 0.15
31 0.15
32 0.15
33 0.15
34 0.15
35 0.15
36 0.15
37 0.15
38 0.15
5 -0.14
6 -0.14
7 0.27
8 0.03
9 0.03

>  <PUBCHEM_EFFECTIVE_ROTOR_COUNT>  (1) 
4.2

>  <PUBCHEM_PHARMACOPHORE_FEATURES>  (1) 
4
1 1 cation
6 5 8 10 14 16 18 rings
6 6 9 11 15 17 19 rings
7 2 5 6 8 9 12 13 rings

>  <PUBCHEM_HEAVY_ATOM_COUNT>  (1) 
21

>  <PUBCHEM_ATOM_DEF_STEREO_COUNT>  (1) 
0

>  <PUBCHEM_ATOM_UDEF_STEREO_COUNT>  (1) 
0

>  <PUBCHEM_BOND_DEF_STEREO_COUNT>  (1) 
0

>  <PUBCHEM_BOND_UDEF_STEREO_COUNT>  (1) 
0

>  <PUBCHEM_ISOTOPIC_ATOM_COUNT>  (1) 
0

>  <PUBCHEM_COMPONENT_COUNT>  (1) 
1

>  <PUBCHEM_CACTVS_TAUTO_COUNT>  (1) 
1

>  <PUBCHEM_CONFORMER_ID>  (1) 
0000299100000003

>  <PUBCHEM_MMFF94_ENERGY>  (1) 
67.6266

>  <PUBCHEM_FEATURE_SELFOVERLAP>  (1) 
20.314

>  <PUBCHEM_SHAPE_FINGERPRINT>  (1) 
11101153 10 18336840715168235150
121448 382 10881982604704315563
12716301 132 14187889833586832839
12788726 201 17975402517258584747
12839892 36 10879698897700174173
13149001 5 18042695081258057194
133893 2 17906422752524730014
13533116 47 18194126446371769307
13681431 1 18337668719304355040
14251757 17 16805609204318703190
14713325 29 17909557160129630278
14863182 85 16747358431247271451
14955137 171 18265922201643272915
16945 1 18191300696385717913
17980427 26 17186219546751096161
1813 80 18201730547627920534
19765921 60 12179842801357566375
20600515 1 18043274407900665927
20645476 183 17401765225301111280
21304303 282 17035803813724791516
21330990 113 17557982844990296725
21731228 192 10519978270872575338
22112679 90 18124065397027779456
22907989 373 18122905326809373638
23175994 123 18408324371961819059
23419403 2 18043784645704197380
23557571 272 18264751187484069506
23559900 14 17532089578712491047
25222932 49 14612867669492594023
2748010 2 17097465817575065471
3729539 64 17898303938061405396
576247 118 18337378379446398314
5845 1 7992134032762273032
7364860 26 18194682802721482097
81228 2 18122331385607484400
84936 31 18052525861929101720
9981440 41 16906887196455214554

>  <PUBCHEM_SHAPE_MULTIPOLES>  (1) 
427.19
6.34
4.02
1.83
0.07
4.17
-0.28
-8.47
-0.46
3.38
0.28
-0.33
0.21
0.53

>  <PUBCHEM_SHAPE_SELFOVERLAP>  (1) 
913.712

>  <PUBCHEM_SHAPE_VOLUME>  (1) 
234.4

>  <PUBCHEM_COORDINATE_TYPE>  (1) 
2
5
10

$$$$
