10646
     RDKit          3D

 21 24  0  0  0  0  0  0  0  0999 V2000
    3.5525   -0.4296   -0.3573 S   0  0  0  0  0  0  0  0  0  0  0  0
   -3.1856    0.6346   -0.0256 N   0  0  0  0  0  0  0  0  0  0  0  0
    0.4791    0.0371   -0.3850 N   0  0  0  0  0  0  0  0  0  0  0  0
   -4.0865    0.8390    1.1083 C   0  0  0  0  0  0  0  0  0  0  0  0
   -3.7448   -0.5036   -0.7544 C   0  0  0  0  0  0  0  0  0  0  0  0
   -5.4634    0.6667    0.4842 C   0  0  0  0  0  0  0  0  0  0  0  0
   -5.2394   -0.2186   -0.7379 C   0  0  0  0  0  0  0  0  0  0  0  0
   -1.8103    0.4056    0.3918 C   0  0  0  0  0  0  0  0  0  0  0  0
   -0.9078    0.2392   -0.8240 C   0  0  0  0  0  0  0  0  0  0  0  0
    0.8966   -1.2943   -0.1331 C   0  0  0  0  0  0  0  0  0  0  0  0
    1.2747    1.1931   -0.1825 C   0  0  0  0  0  0  0  0  0  0  0  0
    2.2644   -1.6272   -0.0725 C   0  0  0  0  0  0  0  0  0  0  0  0
    2.6800    1.1065   -0.1264 C   0  0  0  0  0  0  0  0  0  0  0  0
   -0.0273   -2.3359    0.1030 C   0  0  0  0  0  0  0  0  0  0  0  0
    0.7034    2.4705    0.0072 C   0  0  0  0  0  0  0  0  0  0  0  0
    2.6731   -2.9479    0.1848 C   0  0  0  0  0  0  0  0  0  0  0  0
    3.4642    2.2551    0.0824 C   0  0  0  0  0  0  0  0  0  0  0  0
    0.3845   -3.6458    0.3633 C   0  0  0  0  0  0  0  0  0  0  0  0
    1.4873    3.6079    0.2193 C   0  0  0  0  0  0  0  0  0  0  0  0
    1.7361   -3.9528    0.4009 C   0  0  0  0  0  0  0  0  0  0  0  0
    2.8692    3.5006    0.2538 C   0  0  0  0  0  0  0  0  0  0  0  0
  1 12  1  0
  1 13  1  0
  2  4  1  0
  2  5  1  0
  2  8  1  0
  3  9  1  0
  3 10  1  0
  3 11  1  0
  4  6  1  0
  5  7  1  0
  6  7  1  0
  8  9  1  0
 10 12  2  0
 10 14  1  0
 11 13  2  0
 11 15  1  0
 12 16  1  0
 13 17  1  0
 14 18  2  0
 15 19  2  0
 16 20  2  0
 17 21  2  0
 18 20  1  0
 19 21  1  0
M  END
>  <PUBCHEM_COMPOUND_CID>  (1) 
10646

>  <PUBCHEM_CONFORMER_RMSD>  (1) 
0.6

>  <PUBCHEM_CONFORMER_DIVERSEORDER>  (1) 
1
9
7
4
6
2
8
3
5

>  <PUBCHEM_MMFF94_PARTIAL_CHARGES>  (1) 
27
1 -0.2
10 0.1
11 0.1
12 0.1
13 0.1
14 -0.15
15 -0.15
16 -0.15
17 -0.15
18 -0.15
19 -0.15
2 -0.81
20 -0.15
21 -0.15
3 -0.57
34 0.15
35 0.15
36 0.15
37 0.15
38 0.15
39 0.15
4 0.27
40 0.15
41 0.15
5 0.27
8 0.27
9 0.37

>  <PUBCHEM_EFFECTIVE_ROTOR_COUNT>  (1) 
4.4

>  <PUBCHEM_PHARMACOPHORE_FEATURES>  (1) 
6
1 2 cation
1 3 cation
5 2 4 5 6 7 rings
6 1 3 10 11 12 13 rings
6 10 12 14 16 18 20 rings
6 11 13 15 17 19 21 rings

>  <PUBCHEM_HEAVY_ATOM_COUNT>  (1) 
21

>  <PUBCHEM_ATOM_DEF_STEREO_COUNT>  (1) 
0

>  <PUBCHEM_ATOM_UDEF_STEREO_COUNT>  (1) 
0

>  <PUBCHEM_BOND_DEF_STEREO_COUNT>  (1) 
0

>  <PUBCHEM_BOND_UDEF_STEREO_COUNT>  (1) 
0

>  <PUBCHEM_ISOTOPIC_ATOM_COUNT>  (1) 
0

>  <PUBCHEM_COMPONENT_COUNT>  (1) 
1

>  <PUBCHEM_CACTVS_TAUTO_COUNT>  (1) 
1

>  <PUBCHEM_CONFORMER_ID>  (1) 
0000299600000001

>  <PUBCHEM_MMFF94_ENERGY>  (1) 
67.9431

>  <PUBCHEM_FEATURE_SELFOVERLAP>  (1) 
30.479

>  <PUBCHEM_SHAPE_FINGERPRINT>  (1) 
10165383 225 18188501275700075044
10411042 1 17978228262153369382
10693767 8 18130227060606997102
10967382 1 18410293584370420574
1100329 8 18411134771048367602
11370993 70 18194117640928546505
12107183 9 17838062507713587401
12553582 1 18123185706174271831
12730499 353 18335993055568495003
12788726 201 17109321498732206867
13004483 165 17472412154420964283
13009979 54 17630332934854048531
13140716 1 18337666538035819298
13533116 47 18409735037343832323
13785724 45 17695362373833158303
138480 1 18266457603196194706
13955234 65 18410013226122052723
14790565 3 18337966636091829068
14844126 61 16821080097362828651
15927050 60 18267867379657719022
16728300 4 17390190817178234282
17138139 8 17412157122218201711
1813 80 17913497835003690862
19427546 62 18192712469616689909
19591789 44 18337392755023840766
20028762 73 18272644688259640670
20645477 70 18261103050800014359
20739085 24 18261111893747988468
21041028 32 17977943488810073934
21197605 99 18121227734312463963
21344244 78 18127959833354654377
21524375 3 18129100202610989461
2255824 54 18413108351058920559
23558518 356 17908138029440072502
23559900 14 18410286974510743243
23845131 108 18263077893753128667
25147074 1 17989485209265924173
283562 15 18049452440047841358
3091708 16 9257148480114813962
3178227 256 18335998518418710122
335352 9 18339080497421092972
33824 294 18408885143886396555
3421961 26 18337671893448600195
350125 39 17976269250364974474
4409770 3 17257362471526054531
474 4 18340203098059679441
57527573 199 17344045623614577656
633830 44 18272374225737014229
6443956 14 18192432969892035589
7364860 26 18410292484584414711
81228 2 16895366423113210648
8272917 22 18412548699856686373
84936 182 18272650194497131481
9777508 108 17835240421276818410
9981440 41 18194114351263173281
9999458 23 18410296929880919308

>  <PUBCHEM_SHAPE_MULTIPOLES>  (1) 
426.06
8.48
4.9
0.82
14.86
1.59
0.01
-2.72
0.04
-6.36
0.95
0.51
0
-0.37

>  <PUBCHEM_SHAPE_SELFOVERLAP>  (1) 
910.528

>  <PUBCHEM_SHAPE_VOLUME>  (1) 
236.4

>  <PUBCHEM_COORDINATE_TYPE>  (1) 
2
5
10

$$$$
