10643
     RDKit          3D

 27 29  0  0  0  0  0  0  0  0999 V2000
   -0.1212    0.5072   -0.0027 O   0  0  0  0  0  0  0  0  0  0  0  0
    1.6503    2.5265   -0.3571 O   0  0  0  0  0  0  0  0  0  0  0  0
   -1.6058   -2.8416    0.5541 O   0  0  0  0  0  0  0  0  0  0  0  0
    4.3603    2.0296   -0.3925 O   0  0  0  0  0  0  0  0  0  0  0  0
    5.2960   -0.5540   -0.0612 O   0  0  0  0  0  0  0  0  0  0  0  0
    1.0867   -3.3493    0.5042 O   0  0  0  0  0  0  0  0  0  0  0  0
   -6.3492    1.3235    0.0694 O   0  0  0  0  0  0  0  0  0  0  0  0
    1.6895   -1.0987    0.1558 C   0  0  0  0  0  0  0  0  0  0  0  0
    1.2140    0.1993   -0.0099 C   0  0  0  0  0  0  0  0  0  0  0  0
   -1.0369   -0.5186    0.1694 C   0  0  0  0  0  0  0  0  0  0  0  0
    2.1097    1.2531   -0.1935 C   0  0  0  0  0  0  0  0  0  0  0  0
    0.7235   -2.1905    0.3501 C   0  0  0  0  0  0  0  0  0  0  0  0
   -0.7113   -1.8142    0.3513 C   0  0  0  0  0  0  0  0  0  0  0  0
    3.0631   -1.3541    0.1388 C   0  0  0  0  0  0  0  0  0  0  0  0
    3.4819    1.0024   -0.2112 C   0  0  0  0  0  0  0  0  0  0  0  0
    3.9575   -0.2989   -0.0455 C   0  0  0  0  0  0  0  0  0  0  0  0
   -2.4266   -0.0361    0.1434 C   0  0  0  0  0  0  0  0  0  0  0  0
   -3.0479    0.3707    1.3251 C   0  0  0  0  0  0  0  0  0  0  0  0
   -3.1262    0.0150   -1.0633 C   0  0  0  0  0  0  0  0  0  0  0  0
   -4.3657    0.8276    1.3001 C   0  0  0  0  0  0  0  0  0  0  0  0
   -4.4438    0.4719   -1.0882 C   0  0  0  0  0  0  0  0  0  0  0  0
   -5.0636    0.8781    0.0935 C   0  0  0  0  0  0  0  0  0  0  0  0
    1.4800    3.3092    0.8222 C   0  0  0  0  0  0  0  0  0  0  0  0
   -1.9995   -3.4175   -0.6770 C   0  0  0  0  0  0  0  0  0  0  0  0
    5.3059    2.2631    0.6485 C   0  0  0  0  0  0  0  0  0  0  0  0
    5.8836   -0.8530   -1.3257 C   0  0  0  0  0  0  0  0  0  0  0  0
   -7.0042    1.3493   -1.1980 C   0  0  0  0  0  0  0  0  0  0  0  0
  1  9  1  0
  1 10  1  0
  2 11  1  0
  2 23  1  0
  3 13  1  0
  3 24  1  0
  4 15  1  0
  4 25  1  0
  5 16  1  0
  5 26  1  0
  6 12  2  0
  7 22  1  0
  7 27  1  0
  8  9  2  0
  8 12  1  0
  8 14  1  0
  9 11  1  0
 10 13  2  0
 10 17  1  0
 11 15  2  0
 12 13  1  0
 14 16  2  0
 15 16  1  0
 17 18  2  0
 17 19  1  0
 18 20  1  0
 19 21  2  0
 20 22  2  0
 21 22  1  0
M  END
>  <PUBCHEM_COMPOUND_CID>  (1) 
10643

>  <PUBCHEM_CONFORMER_RMSD>  (1) 
0.8

>  <PUBCHEM_CONFORMER_DIVERSEORDER>  (1) 
1
2
4
3

>  <PUBCHEM_MMFF94_PARTIAL_CHARGES>  (1) 
32
1 -0.16
10 0.05
11 0.08
12 0.47
13 0.09
14 -0.15
15 0.08
16 0.08
17 0.03
18 -0.15
19 -0.15
2 -0.36
20 -0.15
21 -0.15
22 0.08
23 0.28
24 0.28
25 0.28
26 0.28
27 0.28
28 0.15
29 0.15
3 -0.36
30 0.15
31 0.15
32 0.15
4 -0.36
5 -0.36
6 -0.57
7 -0.36
8 0.09
9 0.08

>  <PUBCHEM_EFFECTIVE_ROTOR_COUNT>  (1) 
6

>  <PUBCHEM_PHARMACOPHORE_FEATURES>  (1) 
10
1 1 acceptor
1 2 acceptor
1 3 acceptor
1 4 acceptor
1 5 acceptor
1 6 acceptor
1 7 acceptor
6 1 8 9 10 12 13 rings
6 17 18 19 20 21 22 rings
6 8 9 11 14 15 16 rings

>  <PUBCHEM_HEAVY_ATOM_COUNT>  (1) 
27

>  <PUBCHEM_ATOM_DEF_STEREO_COUNT>  (1) 
0

>  <PUBCHEM_ATOM_UDEF_STEREO_COUNT>  (1) 
0

>  <PUBCHEM_BOND_DEF_STEREO_COUNT>  (1) 
0

>  <PUBCHEM_BOND_UDEF_STEREO_COUNT>  (1) 
0

>  <PUBCHEM_ISOTOPIC_ATOM_COUNT>  (1) 
0

>  <PUBCHEM_COMPONENT_COUNT>  (1) 
1

>  <PUBCHEM_CACTVS_TAUTO_COUNT>  (1) 
1

>  <PUBCHEM_CONFORMER_ID>  (1) 
0000299300000001

>  <PUBCHEM_MMFF94_ENERGY>  (1) 
128.1367

>  <PUBCHEM_FEATURE_SELFOVERLAP>  (1) 
50.801

>  <PUBCHEM_SHAPE_FINGERPRINT>  (1) 
10165383 225 18113904831602916887
10411042 1 17615965513240719490
10693767 8 18057884641344060510
1100329 8 18410576201898135530
11578080 2 17344615166178663370
12011746 2 18335707104587067332
12236239 1 17917710184920343909
12403259 415 18334303101263403955
12633257 1 18335693949556030682
12730499 353 18261115145470202467
12838862 33 18336813235366322160
13140716 1 18336265746894214194
13402501 40 18113896031637459589
13540713 4 18195822971338188226
13583140 156 17749395870913831387
14790565 3 18338806619339864304
15099037 51 18409452470786246902
15196674 1 18338238279718892442
18335252 114 18340476769682512237
18681886 176 17917981781240158667
21033648 144 18339915021612850732
21033648 29 17895182308042518245
21033650 10 16557094223154556792
21279426 13 18340215158670543302
21298829 104 18341895156503827977
21307412 95 17986699012130900270
221357 26 18339077090652366021
23227448 37 18338799021758625391
23558518 356 17682960251410810890
23559900 14 18272092738597827840
23569943 247 17627807313675360038
23576562 1 18188219821881300301
23845131 108 18186237329993611923
29717793 49 17632861897581766052
335352 9 18409732842352034086
34797466 226 15051725425847137169
34934 24 18409443726443614426
404807 14 15116800876562795094
474 4 18412545384242089267
484989 97 18339927142717577875
5104073 3 18263359347576380090
59755656 215 18335422305432218327
9709674 26 18050855708789893190
9981440 41 16981216780536532912

>  <PUBCHEM_SHAPE_MULTIPOLES>  (1) 
514.56
13.49
3.36
1.05
7.75
1.21
-0.05
-7.49
-3.5
-1.47
0.42
0.73
-0.11
0.54

>  <PUBCHEM_SHAPE_SELFOVERLAP>  (1) 
1117.762

>  <PUBCHEM_SHAPE_VOLUME>  (1) 
283

>  <PUBCHEM_COORDINATE_TYPE>  (1) 
2
5
10

$$$$
