10652
     RDKit          3D

 37 38  0  0  1  0  0  0  0  0999 V2000
   -1.9518   -1.6175   -0.4766 O   0  0  0  0  0  0  0  0  0  0  0  0
   -1.0220    0.6586   -1.9056 O   0  0  0  0  0  0  0  0  0  0  0  0
   -2.3546    2.4232   -0.0108 O   0  0  0  0  0  0  0  0  0  0  0  0
   -1.4204    0.8079    1.3456 O   0  0  0  0  0  0  0  0  0  0  0  0
   -1.5396    2.5694   -3.0875 O   0  0  0  0  0  0  0  0  0  0  0  0
   -3.3997   -3.3499   -0.9479 O   0  0  0  0  0  0  0  0  0  0  0  0
    2.4005    3.4249   -0.0157 O   0  0  0  0  0  0  0  0  0  0  0  0
    4.6139    1.7282   -1.0243 O   0  0  0  0  0  0  0  0  0  0  0  0
    7.1212   -2.0136    1.3792 O   0  0  0  0  0  0  0  0  0  0  0  0
    0.7977    1.8196   -0.4969 N   0  0  0  0  0  0  0  0  0  0  0  0
    6.2628   -0.2521    0.0523 N   0  0  0  0  0  0  0  0  0  0  0  0
   -3.3847    0.3051   -0.0061 C   0  0  0  0  0  0  0  0  0  0  0  0
   -2.8608   -0.6915   -1.0733 C   0  0  0  0  0  0  0  0  0  0  0  0
   -4.0784   -0.4147    1.1518 C   0  0  0  0  0  0  0  0  0  0  0  0
   -2.2122   -0.0430   -2.3204 C   0  0  0  0  0  0  0  0  0  0  0  0
   -4.7237    0.5798    2.1112 C   0  0  0  0  0  0  0  0  0  0  0  0
   -2.2809    1.1873    0.5632 C   0  0  0  0  0  0  0  0  0  0  0  0
   -1.1586    3.2435   -0.0323 C   0  0  0  0  0  0  0  0  0  0  0  0
   -0.1636    2.7163   -1.0976 C   0  0  0  0  0  0  0  0  0  0  0  0
   -1.7904   -1.0767   -3.3580 C   0  0  0  0  0  0  0  0  0  0  0  0
   -5.4423   -0.1443    3.2493 C   0  0  0  0  0  0  0  0  0  0  0  0
   -0.9266    1.9886   -2.1998 C   0  0  0  0  0  0  0  0  0  0  0  0
   -1.6161    4.6604   -0.3671 C   0  0  0  0  0  0  0  0  0  0  0  0
   -2.3510   -2.9253   -0.4825 C   0  0  0  0  0  0  0  0  0  0  0  0
   -1.3035   -3.7663    0.2157 C   0  0  0  0  0  0  0  0  0  0  0  0
   -6.1187    0.8360    4.1942 C   0  0  0  0  0  0  0  0  0  0  0  0
   -0.7643   -4.9085   -0.6594 C   0  0  0  0  0  0  0  0  0  0  0  0
    2.0155    2.2587   -0.0003 C   0  0  0  0  0  0  0  0  0  0  0  0
   -0.1124   -4.3744   -1.9374 C   0  0  0  0  0  0  0  0  0  0  0  0
    0.2493   -5.7394    0.1296 C   0  0  0  0  0  0  0  0  0  0  0  0
    2.9034    1.2085    0.5616 C   0  0  0  0  0  0  0  0  0  0  0  0
    4.1725    0.9808    0.0293 C   0  0  0  0  0  0  0  0  0  0  0  0
    2.4512    0.4452    1.6379 C   0  0  0  0  0  0  0  0  0  0  0  0
    4.9893   -0.0107    0.5733 C   0  0  0  0  0  0  0  0  0  0  0  0
    3.2678   -0.5461    2.1818 C   0  0  0  0  0  0  0  0  0  0  0  0
    4.5368   -0.7740    1.6495 C   0  0  0  0  0  0  0  0  0  0  0  0
    7.1944   -1.1941    0.4743 C   0  0  0  0  0  0  0  0  0  0  0  0
  1 13  1  0
  1 24  1  0
  2 15  1  0
  2 22  1  0
  3 17  1  0
  3 18  1  0
  4 17  2  0
  5 22  2  0
  6 24  2  0
  7 28  2  0
  8 32  1  0
  9 37  2  0
 10 19  1  0
 10 28  1  0
 11 34  1  0
 11 37  1  0
 12 13  1  0
 12 14  1  0
 12 17  1  0
 13 15  1  0
 14 16  1  0
 15 20  1  0
 16 21  1  0
 18 19  1  0
 18 23  1  0
 19 22  1  0
 21 26  1  0
 24 25  1  0
 25 27  1  0
 27 29  1  0
 27 30  1  0
 28 31  1  0
 31 32  2  0
 31 33  1  0
 32 34  1  0
 33 35  2  0
 34 36  2  0
 35 36  1  0
M  END
>  <PUBCHEM_COMPOUND_CID>  (1) 
10652

>  <PUBCHEM_CONFORMER_RMSD>  (1) 
1.2

>  <PUBCHEM_CONFORMER_DIVERSEORDER>  (1) 
1
63
69
22
12
64
43
21
44
35
40
70
5
2
46
55
49
58
68
41
37
24
32
47
56
48
19
25
9
28
52
65
51
14
4
60
57
67
61
66
13
34
17
36
3
54
8
11
31
59
23
20
29
72
50
39
6
38
62
30
42
53
26
33
15
7
10
27
18
71
16
45

>  <PUBCHEM_MMFF94_PARTIAL_CHARGES>  (1) 
35
1 -0.43
10 -0.73
11 -0.55
12 0.06
13 0.28
15 0.28
17 0.66
18 0.28
19 0.36
2 -0.43
22 0.66
24 0.66
25 0.06
28 0.54
3 -0.43
31 0.09
32 0.08
33 -0.15
34 0.12
35 -0.15
36 -0.15
37 0.57
4 -0.57
5 -0.57
55 0.37
6 -0.57
68 0.15
69 0.15
7 -0.57
70 0.15
71 0.45
72 0.37
73 0.06
8 -0.53
9 -0.57

>  <PUBCHEM_EFFECTIVE_ROTOR_COUNT>  (1) 
13.4

>  <PUBCHEM_PHARMACOPHORE_FEATURES>  (1) 
11
1 10 donor
1 11 donor
1 26 hydrophobe
1 4 acceptor
1 5 acceptor
1 6 acceptor
1 7 acceptor
1 8 donor
1 9 acceptor
3 27 29 30 hydrophobe
6 31 32 33 34 35 36 rings

>  <PUBCHEM_HEAVY_ATOM_COUNT>  (1) 
37

>  <PUBCHEM_ATOM_DEF_STEREO_COUNT>  (1) 
3

>  <PUBCHEM_ATOM_UDEF_STEREO_COUNT>  (1) 
2

>  <PUBCHEM_BOND_DEF_STEREO_COUNT>  (1) 
0

>  <PUBCHEM_BOND_UDEF_STEREO_COUNT>  (1) 
0

>  <PUBCHEM_ISOTOPIC_ATOM_COUNT>  (1) 
0

>  <PUBCHEM_COMPONENT_COUNT>  (1) 
1

>  <PUBCHEM_CACTVS_TAUTO_COUNT>  (1) 
14

>  <PUBCHEM_CONFORMER_ID>  (1) 
0000299C00000001

>  <PUBCHEM_MMFF94_ENERGY>  (1) 
88.057

>  <PUBCHEM_FEATURE_SELFOVERLAP>  (1) 
55.827

>  <PUBCHEM_SHAPE_FINGERPRINT>  (1) 
10305334 12 18273500074305053359
10928967 22 18187633748182893114
11552529 35 17766836504573500286
12422481 6 18128274319608646961
12633257 1 18343304798696940433
14279260 333 17677041340776933778
14675020 138 17912963598034856169
14705955 166 17201655556455529891
15064986 96 18265061223887686891
15439362 3 17257927096670676500
15444296 8 16370731400946657103
17974551 9 17487903517305401377
19246450 95 18269849618560250945
19311894 1 18337096982391996754
20764821 26 18050267190716927894
20775530 9 17687168099617059198
21033648 29 16199889335377794449
3027735 51 18123999418035285623
463206 1 17972586960196115962
484985 159 18336530647428463053

>  <PUBCHEM_SHAPE_MULTIPOLES>  (1) 
698.66
12.37
6.26
3.16
18.07
7.41
-0.76
1.1
-12.25
-2.01
2.82
-5.33
-0.48
-1.84

>  <PUBCHEM_SHAPE_SELFOVERLAP>  (1) 
1436.096

>  <PUBCHEM_SHAPE_VOLUME>  (1) 
395.6

>  <PUBCHEM_COORDINATE_TYPE>  (1) 
2
5
10

$$$$
