10654
     RDKit          3D

 26 28  0  0  0  0  0  0  0  0999 V2000
   -0.8353   -2.2679    0.0016 O   0  0  0  0  0  0  0  0  0  0  0  0
   -0.8338    2.2684   -0.0016 O   0  0  0  0  0  0  0  0  0  0  0  0
   -2.7239   -3.5840    0.0041 O   0  0  0  0  0  0  0  0  0  0  0  0
   -2.7218    3.5852   -0.0045 O   0  0  0  0  0  0  0  0  0  0  0  0
   -2.9151   -1.2074    0.0020 C   0  0  0  0  0  0  0  0  0  0  0  0
   -2.9141    1.2086   -0.0018 C   0  0  0  0  0  0  0  0  0  0  0  0
   -2.2171    0.0003    0.0001 C   0  0  0  0  0  0  0  0  0  0  0  0
    1.4320   -3.0186   -0.0005 C   0  0  0  0  0  0  0  0  0  0  0  0
    1.4337    3.0179    0.0004 C   0  0  0  0  0  0  0  0  0  0  0  0
   -0.0090   -3.4372    0.0012 C   0  0  0  0  0  0  0  0  0  0  0  0
   -0.0071    3.4371   -0.0014 C   0  0  0  0  0  0  0  0  0  0  0  0
   -4.3100   -1.2068    0.0020 C   0  0  0  0  0  0  0  0  0  0  0  0
   -4.3091    1.2090   -0.0019 C   0  0  0  0  0  0  0  0  0  0  0  0
   -2.1889   -2.4675    0.0031 C   0  0  0  0  0  0  0  0  0  0  0  0
   -2.1873    2.4684   -0.0032 C   0  0  0  0  0  0  0  0  0  0  0  0
   -5.0070    0.0014    0.0001 C   0  0  0  0  0  0  0  0  0  0  0  0
    2.0916   -2.8266   -1.2093 C   0  0  0  0  0  0  0  0  0  0  0  0
    2.0945   -2.8259    1.2067 C   0  0  0  0  0  0  0  0  0  0  0  0
    2.0932    2.8258    1.2093 C   0  0  0  0  0  0  0  0  0  0  0  0
    2.0962    2.8247   -1.2068 C   0  0  0  0  0  0  0  0  0  0  0  0
    3.4310   -2.4373   -1.2111 C   0  0  0  0  0  0  0  0  0  0  0  0
    3.4339   -2.4365    1.2048 C   0  0  0  0  0  0  0  0  0  0  0  0
    3.4325    2.4360    1.2112 C   0  0  0  0  0  0  0  0  0  0  0  0
    3.4354    2.4347   -1.2048 C   0  0  0  0  0  0  0  0  0  0  0  0
    4.1021   -2.2421   -0.0041 C   0  0  0  0  0  0  0  0  0  0  0  0
    4.1035    2.2403    0.0043 C   0  0  0  0  0  0  0  0  0  0  0  0
  1 10  1  0
  1 14  1  0
  2 11  1  0
  2 15  1  0
  3 14  2  0
  4 15  2  0
  5  7  2  0
  5 12  1  0
  5 14  1  0
  6  7  1  0
  6 13  2  0
  6 15  1  0
  8 10  1  0
  8 17  2  0
  8 18  1  0
  9 11  1  0
  9 19  2  0
  9 20  1  0
 12 16  2  0
 13 16  1  0
 17 21  1  0
 18 22  2  0
 19 23  1  0
 20 24  2  0
 21 25  2  0
 22 25  1  0
 23 26  2  0
 24 26  1  0
M  END
>  <PUBCHEM_COMPOUND_CID>  (1) 
10654

>  <PUBCHEM_CONFORMER_RMSD>  (1) 
1

>  <PUBCHEM_CONFORMER_DIVERSEORDER>  (1) 
1
19
323
18
69
402
4
195
409
199
420
270
5
203
421
271
404
8
185
87
429
192
214
378
291
16
173
588
3
417
511
243
220
205
266
381
330
2
564
116
460
322
83
194
9
469
558
27
68
139
550
527
312
456
40
127
196
499
170
610
66
345
100
180
50
467
11
230
244
448
332
361
245
44
174
425
134
229
28
371
7
188
10
96
337
437
288
463
6
500
150
53
56
135
75
519
476
238
298
137
55
393
235
239
21
20
29
611
411
549
319
73
65
51
390
184
249
299
278
316
153
13
128
34
397
484
48
67
189
579
236
46
276
215
103
71
515
175
85
33
334
327
227
24
197
228
357
388
242
108
212
52
58
42
129
179
32
521
204
372
306
57
368
572
210
81
598
93
201
279
329
347
328

>  <PUBCHEM_MMFF94_PARTIAL_CHARGES>  (1) 
40
1 -0.43
10 0.42
11 0.42
12 -0.15
13 -0.15
14 0.63
15 0.63
16 -0.15
17 -0.15
18 -0.15
19 -0.15
2 -0.43
20 -0.15
21 -0.15
22 -0.15
23 -0.15
24 -0.15
25 -0.15
26 -0.15
27 0.15
3 -0.57
32 0.15
33 0.15
34 0.15
35 0.15
36 0.15
37 0.15
38 0.15
39 0.15
4 -0.57
40 0.15
41 0.15
42 0.15
43 0.15
44 0.15
5 0.09
6 0.09
7 -0.15
8 -0.14
9 -0.14

>  <PUBCHEM_EFFECTIVE_ROTOR_COUNT>  (1) 
8

>  <PUBCHEM_PHARMACOPHORE_FEATURES>  (1) 
5
1 3 acceptor
1 4 acceptor
6 5 6 7 12 13 16 rings
6 8 17 18 21 22 25 rings
6 9 19 20 23 24 26 rings

>  <PUBCHEM_HEAVY_ATOM_COUNT>  (1) 
26

>  <PUBCHEM_ATOM_DEF_STEREO_COUNT>  (1) 
0

>  <PUBCHEM_ATOM_UDEF_STEREO_COUNT>  (1) 
0

>  <PUBCHEM_BOND_DEF_STEREO_COUNT>  (1) 
0

>  <PUBCHEM_BOND_UDEF_STEREO_COUNT>  (1) 
0

>  <PUBCHEM_ISOTOPIC_ATOM_COUNT>  (1) 
0

>  <PUBCHEM_COMPONENT_COUNT>  (1) 
1

>  <PUBCHEM_CACTVS_TAUTO_COUNT>  (1) 
1

>  <PUBCHEM_CONFORMER_ID>  (1) 
0000299E00000001

>  <PUBCHEM_MMFF94_ENERGY>  (1) 
73.4028

>  <PUBCHEM_FEATURE_SELFOVERLAP>  (1) 
25.373

>  <PUBCHEM_SHAPE_FINGERPRINT>  (1) 
1100329 8 17980487758843724761
11513181 2 18130506430807068102
12038231 1 18410573963977275522
12422481 6 18123717990872992810
13122387 1 17978228249452226308
14020679 6 17682989616814793241
14647877 51 18341895173967688898
14790565 3 16683726884434072265
16719943 64 17976540834464837412
17093844 170 18268151044935985564
17859628 97 18120654901421977065
19319366 153 16453180779768333400
19930381 70 18410009910238403675
20028762 73 17478616067361480111
20764821 26 18409166619179599030
21344244 246 18267567178940154895
22113638 7 17976818683882190260
23559900 14 18339351968749018929
238918 7 17985550198472558820
3027735 51 18052536866099739039
3298306 158 18194963165454682855
338550 245 18263081166628698524
463206 1 18411143541139464648
5047190 69 18124586489369852258
532947 4 18411132563545570575
6433294 58 18411983546469082036
9543594 6 18411132537717848408

>  <PUBCHEM_SHAPE_MULTIPOLES>  (1) 
511.59
8.95
6.69
1.07
4.14
0
0
0
0
-4.02
0
-1.29
0
0.01

>  <PUBCHEM_SHAPE_SELFOVERLAP>  (1) 
1107.216

>  <PUBCHEM_SHAPE_VOLUME>  (1) 
279

>  <PUBCHEM_COORDINATE_TYPE>  (1) 
2
5
10

$$$$
