10662
     RDKit          3D

 20 21  0  0  0  0  0  0  0  0999 V2000
   -2.6413   -2.9054   -2.0850 Br  0  0  0  0  0  0  0  0  0  0  0  0
    2.6024    2.9755   -1.9994 Br  0  0  0  0  0  0  0  0  0  0  0  0
   -2.4668    2.3776    0.8429 O   0  0  0  0  0  0  0  0  0  0  0  0
    2.4868   -2.4009    0.7562 O   0  0  0  0  0  0  0  0  0  0  0  0
   -0.8443    1.0519    2.6089 O   0  0  0  0  0  0  0  0  0  0  0  0
    0.8774   -1.1533    2.5504 O   0  0  0  0  0  0  0  0  0  0  0  0
   -1.6202    0.1526    0.5466 C   0  0  0  0  0  0  0  0  0  0  0  0
    1.6381   -0.1701    0.5208 C   0  0  0  0  0  0  0  0  0  0  0  0
   -0.6559    0.3306    1.6235 C   0  0  0  0  0  0  0  0  0  0  0  0
    0.6674   -0.3936    1.6160 C   0  0  0  0  0  0  0  0  0  0  0  0
   -2.4934    1.1807    0.1913 C   0  0  0  0  0  0  0  0  0  0  0  0
    2.5001   -1.1834    0.1437 C   0  0  0  0  0  0  0  0  0  0  0  0
   -1.6638   -1.0652   -0.1321 C   0  0  0  0  0  0  0  0  0  0  0  0
    1.6523    1.0657   -0.1005 C   0  0  0  0  0  0  0  0  0  0  0  0
   -3.4101    0.9911   -0.8426 C   0  0  0  0  0  0  0  0  0  0  0  0
    3.4078   -0.9536   -0.8901 C   0  0  0  0  0  0  0  0  0  0  0  0
   -2.5806   -1.2549   -1.1660 C   0  0  0  0  0  0  0  0  0  0  0  0
    2.5601    1.2957   -1.1343 C   0  0  0  0  0  0  0  0  0  0  0  0
   -3.4538   -0.2269   -1.5213 C   0  0  0  0  0  0  0  0  0  0  0  0
    3.4378    0.2860   -1.5291 C   0  0  0  0  0  0  0  0  0  0  0  0
  1 17  1  0
  2 18  1  0
  3 11  1  0
  4 12  1  0
  5  9  2  0
  6 10  2  0
  7  9  1  0
  7 11  2  0
  7 13  1  0
  8 10  1  0
  8 12  2  0
  8 14  1  0
  9 10  1  0
 11 15  1  0
 12 16  1  0
 13 17  2  0
 14 18  2  0
 15 19  2  0
 16 20  2  0
 17 19  1  0
 18 20  1  0
M  END
>  <PUBCHEM_COMPOUND_CID>  (1) 
10662

>  <PUBCHEM_CONFORMER_RMSD>  (1) 
0.6

>  <PUBCHEM_CONFORMER_DIVERSEORDER>  (1) 
1
47
33
22
49
36
20
25
39
26
18
41
44
51
37
23
30
8
54
2
31
55
34
32
19
57
3
60
45
4
7
46
29
9
21
24
35
6
5
50
48
42
40
56
28
15
16
53
27
43
58
17
13
12
14
38
52
59
10
11

>  <PUBCHEM_MMFF94_PARTIAL_CHARGES>  (1) 
28
1 -0.11
10 0.48
11 0.08
12 0.08
13 -0.15
14 -0.15
15 -0.15
16 -0.15
17 0.11
18 0.11
19 -0.15
2 -0.11
20 -0.15
21 0.15
22 0.15
23 0.15
24 0.15
25 0.15
26 0.15
27 0.45
28 0.45
3 -0.53
4 -0.53
5 -0.57
6 -0.57
7 0.09
8 0.09
9 0.48

>  <PUBCHEM_EFFECTIVE_ROTOR_COUNT>  (1) 
3

>  <PUBCHEM_PHARMACOPHORE_FEATURES>  (1) 
8
1 1 hydrophobe
1 2 hydrophobe
1 3 donor
1 4 donor
1 5 acceptor
1 6 acceptor
6 7 11 13 15 17 19 rings
6 8 12 14 16 18 20 rings

>  <PUBCHEM_HEAVY_ATOM_COUNT>  (1) 
20

>  <PUBCHEM_ATOM_DEF_STEREO_COUNT>  (1) 
0

>  <PUBCHEM_ATOM_UDEF_STEREO_COUNT>  (1) 
0

>  <PUBCHEM_BOND_DEF_STEREO_COUNT>  (1) 
0

>  <PUBCHEM_BOND_UDEF_STEREO_COUNT>  (1) 
0

>  <PUBCHEM_ISOTOPIC_ATOM_COUNT>  (1) 
0

>  <PUBCHEM_COMPONENT_COUNT>  (1) 
1

>  <PUBCHEM_CACTVS_TAUTO_COUNT>  (1) 
9

>  <PUBCHEM_CONFORMER_ID>  (1) 
000029A600000001

>  <PUBCHEM_MMFF94_ENERGY>  (1) 
55.2398

>  <PUBCHEM_FEATURE_SELFOVERLAP>  (1) 
40.599

>  <PUBCHEM_SHAPE_FINGERPRINT>  (1) 
10165383 225 15503805999722037011
11578080 2 17836613385558006536
12156800 1 14870986948585227549
12202030 40 16701730674505266191
12363563 72 15913324680365282245
12400797 292 18339639069847842972
12714826 92 17346048860627080783
128993 33 16877957022081288820
13134695 92 16373498837005994514
13294875 104 16009014082631263232
13764800 53 14418139491377933421
14115302 16 17988641852764452895
14250199 8 18113901558764243933
15664445 248 17621860412289596645
16752209 62 17916859115607070887
16945 1 18266740375136802578
17980427 23 17899661778564569472
18186145 218 17240777142117463650
18219364 16 16443359653718986901
18981168 100 15864074264601742212
20397935 3 17845355803698539846
20429585 67 17538293130342386975
20600515 1 16700318712496356602
20645476 183 18341900632444049279
21486144 27 16733278866814113307
21524375 3 15719666645087558570
21639500 275 17313376820825308184
21731516 1 15625956390043948597
23419403 2 16315858430146927771
23557571 272 17987217001780239739
23559900 14 16915934068549501090
23598291 2 18191303771497814771
238 59 17895756326015404302
25 1 17096095679678017480
3082319 5 18410855468728646205
474 4 17895477037182750788
495365 180 14492123417230104519
576247 118 15553343572704039589
81228 2 15409786769115883275
90316 7 12035746326723231711
9981440 41 17755020036315271536

>  <PUBCHEM_SHAPE_MULTIPOLES>  (1) 
400
6.42
2.77
2.43
0.07
0.05
-0.73
0.01
4.55
-0.06
1.08
0.05
-0.03
-2.57

>  <PUBCHEM_SHAPE_SELFOVERLAP>  (1) 
843.308

>  <PUBCHEM_SHAPE_VOLUME>  (1) 
231.4

>  <PUBCHEM_COORDINATE_TYPE>  (1) 
2
5
10

$$$$
