10679
     RDKit          3D

 15 17  0  0  0  0  0  0  0  0999 V2000
    4.8225    0.3579    0.0007 N   0  0  0  0  0  0  0  0  0  0  0  0
   -4.8225    0.3579    0.0005 N   0  0  0  0  0  0  0  0  0  0  0  0
    0.0000    1.7881   -0.0001 C   0  0  0  0  0  0  0  0  0  0  0  0
    1.1750    0.8326   -0.0003 C   0  0  0  0  0  0  0  0  0  0  0  0
   -1.1749    0.8326   -0.0002 C   0  0  0  0  0  0  0  0  0  0  0  0
    0.7236   -0.5065   -0.0003 C   0  0  0  0  0  0  0  0  0  0  0  0
   -0.7236   -0.5064   -0.0002 C   0  0  0  0  0  0  0  0  0  0  0  0
    2.5240    1.1409   -0.0002 C   0  0  0  0  0  0  0  0  0  0  0  0
   -2.5240    1.1409    0.0001 C   0  0  0  0  0  0  0  0  0  0  0  0
    1.6292   -1.5541   -0.0001 C   0  0  0  0  0  0  0  0  0  0  0  0
   -1.6292   -1.5541    0.0000 C   0  0  0  0  0  0  0  0  0  0  0  0
    3.4367    0.0846    0.0000 C   0  0  0  0  0  0  0  0  0  0  0  0
   -3.4367    0.0846    0.0001 C   0  0  0  0  0  0  0  0  0  0  0  0
    2.9938   -1.2495    0.0001 C   0  0  0  0  0  0  0  0  0  0  0  0
   -2.9939   -1.2495    0.0000 C   0  0  0  0  0  0  0  0  0  0  0  0
  1 12  1  0
  2 13  1  0
  3  4  1  0
  3  5  1  0
  4  6  2  0
  4  8  1  0
  5  7  2  0
  5  9  1  0
  6  7  1  0
  6 10  1  0
  7 11  1  0
  8 12  2  0
  9 13  2  0
 10 14  2  0
 11 15  2  0
 12 14  1  0
 13 15  1  0
M  END
>  <PUBCHEM_COMPOUND_CID>  (1) 
10679

>  <PUBCHEM_CONFORMER_RMSD>  (1) 
0.4

>  <PUBCHEM_CONFORMER_DIVERSEORDER>  (1) 
1

>  <PUBCHEM_MMFF94_PARTIAL_CHARGES>  (1) 
23
1 -0.9
10 -0.15
11 -0.15
12 0.1
13 0.1
14 -0.15
15 -0.15
18 0.15
19 0.15
2 -0.9
20 0.15
21 0.15
22 0.15
23 0.15
24 0.4
25 0.4
26 0.4
27 0.4
3 0.29
4 -0.14
5 -0.14
8 -0.15
9 -0.15

>  <PUBCHEM_EFFECTIVE_ROTOR_COUNT>  (1) 
0.2

>  <PUBCHEM_PHARMACOPHORE_FEATURES>  (1) 
7
1 1 cation
1 1 donor
1 2 cation
1 2 donor
5 3 4 5 6 7 rings
6 4 6 8 10 12 14 rings
6 5 7 9 11 13 15 rings

>  <PUBCHEM_HEAVY_ATOM_COUNT>  (1) 
15

>  <PUBCHEM_ATOM_DEF_STEREO_COUNT>  (1) 
0

>  <PUBCHEM_ATOM_UDEF_STEREO_COUNT>  (1) 
0

>  <PUBCHEM_BOND_DEF_STEREO_COUNT>  (1) 
0

>  <PUBCHEM_BOND_UDEF_STEREO_COUNT>  (1) 
0

>  <PUBCHEM_ISOTOPIC_ATOM_COUNT>  (1) 
0

>  <PUBCHEM_COMPONENT_COUNT>  (1) 
1

>  <PUBCHEM_CACTVS_TAUTO_COUNT>  (1) 
1

>  <PUBCHEM_CONFORMER_ID>  (1) 
000029B700000001

>  <PUBCHEM_MMFF94_ENERGY>  (1) 
70.4792

>  <PUBCHEM_FEATURE_SELFOVERLAP>  (1) 
35.685

>  <PUBCHEM_SHAPE_FINGERPRINT>  (1) 
10411042 1 15672385803617745922
10608611 8 18410851066377027236
10967382 1 18410855438690462950
11132069 177 18411414029425976896
11401426 45 18412258454160968864
11471102 20 18410852153013919502
11806522 49 18338514248051690007
12032990 46 18410580586516328007
12251169 10 18412263938823610889
13140716 1 18266458895865410528
13214271 11 18412542149678132182
13221675 6 18410575084663208839
13380535 76 18410857663446832871
14115302 16 18114474425817997382
14144814 61 18411419488155349795
14325111 11 18410856546754939648
15196674 1 18410856559640023431
15219456 202 18411982425202841662
15442244 35 18195246607421010890
15536298 74 18342739589944025862
16945 1 18410575084663221828
18186145 218 17749103400462029191
18522853 276 18413670205611065097
200 152 17988637515158707383
20201158 50 18410293605391621882
20510252 161 18200876154157932889
20528008 55 18413666911597774907
20645477 70 18340767035692373599
21029758 11 18343577435058438297
21267235 1 18410583880756419431
21501502 16 18411138021736925062
23402539 116 18272643546167046165
23402655 69 18341887451352928845
23463225 33 18408885131207210062
23559900 14 18413106131172686626
2748010 2 18411136965185532886
3312278 4 18411421725796426754
335352 9 18050568439152701206
34934 24 18410848863058616002
5104073 3 18410292531649675403
528886 8 18411414025146918330
53655031 270 18411419505382730680
537710 114 18410860962050164636
53812653 166 18342453768296790648
57005193 9 18410284809340791183
69090 78 18342171168233976535
7364860 26 18269273645849125920
8809292 202 18260552276551629603
9709674 26 18411706499345528598

>  <PUBCHEM_SHAPE_MULTIPOLES>  (1) 
298.73
7.4
1.7
0.61
0
0.09
0
-0.1
0
0
0
0
0
0

>  <PUBCHEM_SHAPE_SELFOVERLAP>  (1) 
672.07

>  <PUBCHEM_SHAPE_VOLUME>  (1) 
160.3

>  <PUBCHEM_COORDINATE_TYPE>  (1) 
2
5
10

$$$$
