10673
     RDKit          3D

 21 22  0  0  0  0  0  0  0  0999 V2000
   -3.4755   -1.6745    0.1289 S   0  0  0  0  0  0  0  0  0  0  0  0
    4.3513   -0.7980   -0.0333 S   0  0  0  0  0  0  0  0  0  0  0  0
   -3.4928    1.2932   -0.1303 O   0  0  0  0  0  0  0  0  0  0  0  0
   -4.1568   -1.6322   -1.3555 O   0  0  0  0  0  0  0  0  0  0  0  0
    4.7613   -0.8330    1.5489 O   0  0  0  0  0  0  0  0  0  0  0  0
   -2.9917   -3.0300    0.3382 O   0  0  0  0  0  0  0  0  0  0  0  0
   -4.3973   -1.0591    1.0691 O   0  0  0  0  0  0  0  0  0  0  0  0
    5.2413    0.1325   -0.7100 O   0  0  0  0  0  0  0  0  0  0  0  0
    4.2475   -2.1808   -0.4757 O   0  0  0  0  0  0  0  0  0  0  0  0
   -1.3678    3.5248    0.7910 O   0  0  0  0  0  0  0  0  0  0  0  0
   -1.3094    2.9428   -0.2984 N   0  0  0  0  0  0  0  0  0  0  0  0
    0.3360   -0.3694   -0.0268 C   0  0  0  0  0  0  0  0  0  0  0  0
    0.1820    1.0322   -0.1477 C   0  0  0  0  0  0  0  0  0  0  0  0
   -2.0834   -0.6190    0.0215 C   0  0  0  0  0  0  0  0  0  0  0  0
   -0.8070   -1.1812    0.0567 C   0  0  0  0  0  0  0  0  0  0  0  0
   -1.1103    1.5808   -0.1816 C   0  0  0  0  0  0  0  0  0  0  0  0
    1.6283   -0.9180    0.0069 C   0  0  0  0  0  0  0  0  0  0  0  0
    2.7528   -0.0965   -0.0773 C   0  0  0  0  0  0  0  0  0  0  0  0
   -2.2349    0.7593   -0.0974 C   0  0  0  0  0  0  0  0  0  0  0  0
    1.3250    1.8440   -0.2313 C   0  0  0  0  0  0  0  0  0  0  0  0
    2.6014    1.2820   -0.1961 C   0  0  0  0  0  0  0  0  0  0  0  0
  1  4  1  0
  1  6  2  0
  1  7  2  0
  1 14  1  0
  2  5  1  0
  2  8  2  0
  2  9  2  0
  2 18  1  0
  3 19  1  0
 10 11  2  0
 11 16  1  0
 12 13  2  0
 12 15  1  0
 12 17  1  0
 13 16  1  0
 13 20  1  0
 14 15  2  0
 14 19  1  0
 16 19  2  0
 17 18  2  0
 18 21  1  0
 20 21  2  0
M  END
>  <PUBCHEM_COMPOUND_CID>  (1) 
10673

>  <PUBCHEM_CONFORMER_RMSD>  (1) 
0.6

>  <PUBCHEM_CONFORMER_DIVERSEORDER>  (1) 
1
4
3
2

>  <PUBCHEM_MMFF94_PARTIAL_CHARGES>  (1) 
26
1 1.49
10 -0.16
11 -0.14
14 -0.01
15 -0.15
16 0.3
17 -0.15
18 -0.01
19 0.08
2 1.49
20 -0.15
21 -0.15
22 0.15
23 0.15
24 0.15
25 0.15
26 0.45
27 0.5
28 0.5
3 -0.53
4 -0.68
5 -0.68
6 -0.65
7 -0.65
8 -0.65
9 -0.65

>  <PUBCHEM_EFFECTIVE_ROTOR_COUNT>  (1) 
3

>  <PUBCHEM_PHARMACOPHORE_FEATURES>  (1) 
11
1 3 donor
1 4 acceptor
1 5 acceptor
1 6 acceptor
1 7 acceptor
1 8 acceptor
1 9 acceptor
4 1 4 6 7 anion
4 2 5 8 9 anion
6 12 13 14 15 16 19 rings
6 12 13 17 18 20 21 rings

>  <PUBCHEM_HEAVY_ATOM_COUNT>  (1) 
21

>  <PUBCHEM_ATOM_DEF_STEREO_COUNT>  (1) 
0

>  <PUBCHEM_ATOM_UDEF_STEREO_COUNT>  (1) 
0

>  <PUBCHEM_BOND_DEF_STEREO_COUNT>  (1) 
0

>  <PUBCHEM_BOND_UDEF_STEREO_COUNT>  (1) 
0

>  <PUBCHEM_ISOTOPIC_ATOM_COUNT>  (1) 
0

>  <PUBCHEM_COMPONENT_COUNT>  (1) 
1

>  <PUBCHEM_CACTVS_TAUTO_COUNT>  (1) 
4

>  <PUBCHEM_CONFORMER_ID>  (1) 
000029B100000001

>  <PUBCHEM_MMFF94_ENERGY>  (1) 
47.1725

>  <PUBCHEM_FEATURE_SELFOVERLAP>  (1) 
55.962

>  <PUBCHEM_SHAPE_FINGERPRINT>  (1) 
10062212 137 18334573533916223611
10319926 262 18196910225292787258
10616163 171 18338801117829376702
10967382 1 18050007997507763581
11543360 7 15285644342966120502
11578080 2 17488441101160821753
11806522 49 18334577966818163468
12032990 46 18336831999640413047
12236239 1 17749111059301126654
12553582 1 18410012173396557515
12788726 201 18334859415824766602
13134695 92 18197774621245845013
13140716 1 18411704304949218601
13583140 156 14333137346851564911
138480 1 15455650379776076853
14178342 30 18192138314351900634
15042514 8 18409736123453684473
15196674 1 18409168818208337100
16945 1 18339085873828577669
17492 89 18408888417237746610
17804303 29 18412547600213209152
1813 80 17676214575807446534
18222031 100 18271237347703904031
19141452 34 18201444700939069687
200 152 18412537743395127431
20281475 54 18265058122805390383
20510252 161 18341895164918955216
21029758 11 18339356474206284829
21267235 1 18336557100406624459
221490 88 18118409676755140875
2297311 6 18341346534528780622
2334 1 18338237188654748485
23366157 5 17896883351431070804
23402539 116 18413665820776542615
23557571 272 18272662224584034686
23559900 14 18411693309965114696
23845131 108 17548712785585768577
2748010 2 18339350980964569653
3091708 16 8990569708497019489
312423 11 18261127274162479700
335352 9 18337673010282730117
5104073 3 18410573998300448800
54173680 148 18410295782961100956
7364860 26 17764310935233962409
8809292 202 18334580130996448891
8863177 126 17534920876830691819
9709674 26 18127131879560960958

>  <PUBCHEM_SHAPE_MULTIPOLES>  (1) 
387.93
9.05
3.02
0.86
5.79
1.47
0.09
-5.67
0.2
-2.2
0.22
0.04
-0.16
-0.23

>  <PUBCHEM_SHAPE_SELFOVERLAP>  (1) 
824.761

>  <PUBCHEM_SHAPE_VOLUME>  (1) 
217.2

>  <PUBCHEM_COORDINATE_TYPE>  (1) 
2
5
10

$$$$
