10684
     RDKit          3D

 14 15  0  0  1  0  0  0  0  0999 V2000
   -3.7852   -1.1274   -0.2758 O   0  0  0  0  0  0  0  0  0  0  0  0
    1.0017   -2.0131    0.1165 N   0  0  0  0  0  0  0  0  0  0  0  0
   -3.5364    1.7197    0.1623 N   0  0  0  0  0  0  0  0  0  0  0  0
   -1.5354    0.4865    0.9211 C   0  0  0  0  0  0  0  0  0  0  0  0
   -0.3379   -0.3005    0.5626 C   0  0  0  0  0  0  0  0  0  0  0  0
   -2.4098    0.8985   -0.2961 C   0  0  0  0  0  0  0  0  0  0  0  0
    0.9521    0.2132    0.2512 C   0  0  0  0  0  0  0  0  0  0  0  0
    1.7736   -0.8819   -0.0249 C   0  0  0  0  0  0  0  0  0  0  0  0
   -0.2757   -1.6719    0.4712 C   0  0  0  0  0  0  0  0  0  0  0  0
   -2.9648   -0.2950   -1.0851 C   0  0  0  0  0  0  0  0  0  0  0  0
    1.5014    1.5087    0.1774 C   0  0  0  0  0  0  0  0  0  0  0  0
    3.1224   -0.7457   -0.3723 C   0  0  0  0  0  0  0  0  0  0  0  0
    2.8490    1.6602   -0.1690 C   0  0  0  0  0  0  0  0  0  0  0  0
    3.6451    0.5489   -0.4391 C   0  0  0  0  0  0  0  0  0  0  0  0
  1 10  1  0
  2  8  1  0
  2  9  1  0
  3  6  1  0
  4  5  1  0
  4  6  1  0
  5  7  1  0
  5  9  2  0
  6 10  1  0
  7  8  2  0
  7 11  1  0
  8 12  1  0
 11 13  2  0
 12 14  2  0
 13 14  1  0
M  END
>  <PUBCHEM_COMPOUND_CID>  (1) 
10684

>  <PUBCHEM_CONFORMER_RMSD>  (1) 
0.6

>  <PUBCHEM_CONFORMER_DIVERSEORDER>  (1) 
1
24
3
21
25
5
6
8
14
20
22
17
23
12
10
13
11
15
9
18
2
4
7
16
19

>  <PUBCHEM_MMFF94_PARTIAL_CHARGES>  (1) 
22
1 -0.68
10 0.28
11 -0.15
12 -0.15
13 -0.15
14 -0.15
18 0.15
2 0.03
21 0.27
22 0.15
23 0.15
24 0.36
25 0.36
26 0.15
27 0.15
28 0.4
3 -0.99
4 0.18
5 -0.18
6 0.27
8 -0.15
9 -0.3

>  <PUBCHEM_EFFECTIVE_ROTOR_COUNT>  (1) 
3

>  <PUBCHEM_PHARMACOPHORE_FEATURES>  (1) 
8
1 1 acceptor
1 1 donor
1 2 cation
1 2 donor
1 3 cation
1 3 donor
5 2 5 7 8 9 rings
6 7 8 11 12 13 14 rings

>  <PUBCHEM_HEAVY_ATOM_COUNT>  (1) 
14

>  <PUBCHEM_ATOM_DEF_STEREO_COUNT>  (1) 
0

>  <PUBCHEM_ATOM_UDEF_STEREO_COUNT>  (1) 
1

>  <PUBCHEM_BOND_DEF_STEREO_COUNT>  (1) 
0

>  <PUBCHEM_BOND_UDEF_STEREO_COUNT>  (1) 
0

>  <PUBCHEM_ISOTOPIC_ATOM_COUNT>  (1) 
0

>  <PUBCHEM_COMPONENT_COUNT>  (1) 
1

>  <PUBCHEM_CACTVS_TAUTO_COUNT>  (1) 
1

>  <PUBCHEM_CONFORMER_ID>  (1) 
000029BC00000001

>  <PUBCHEM_MMFF94_ENERGY>  (1) 
17.723

>  <PUBCHEM_FEATURE_SELFOVERLAP>  (1) 
40.69

>  <PUBCHEM_SHAPE_FINGERPRINT>  (1) 
10062212 137 18341602673034768371
10608611 8 18336829783358420440
124424 183 17603865598688234720
12932764 1 17603863339324394739
13380535 76 18336826493745735674
13705890 14 17418377986955764460
14325111 11 18410012143305061872
14897335 6 18338514257116170352
14911166 2 18338811030898258414
15279308 100 18335712671387019772
15775835 57 18410859824026191181
16945 1 18337965510524703474
18186145 218 18409165480770750436
19422 9 18060139838602515271
20281407 28 11095890366826109936
21501502 16 18335978679885823683
21524375 3 18260261992765585306
21639500 275 18336537270384103604
23402539 116 18342172242144527676
23402655 69 18341332210459764725
23559900 14 18269856328053118732
25 1 18334860467827905520
25610 137 18338236080732430235
2748010 2 16900466529368353896
2871803 45 18338505443938543063
528886 8 18410012126536513112
58051976 378 18268986651717555647
63268167 104 18340209587628539896
7832392 63 18269273456891611889

>  <PUBCHEM_SHAPE_MULTIPOLES>  (1) 
272.28
6.26
1.88
0.84
2.24
0.1
-0.03
-1.47
-1.55
-0.13
0.1
0.31
0.01
-0.18

>  <PUBCHEM_SHAPE_SELFOVERLAP>  (1) 
580.173

>  <PUBCHEM_SHAPE_VOLUME>  (1) 
152.7

>  <PUBCHEM_COORDINATE_TYPE>  (1) 
2
5
10

$$$$
