10693
     RDKit          3D

 12 12  0  0  0  0  0  0  0  0999 V2000
   -2.7024   -1.6122   -0.0001 Cl  0  0  0  0  0  0  0  0  0  0  0  0
    2.6980   -1.6195   -0.0007 Cl  0  0  0  0  0  0  0  0  0  0  0  0
    2.7227    1.5373    0.0008 Cl  0  0  0  0  0  0  0  0  0  0  0  0
   -2.7183    1.5449    0.0003 Cl  0  0  0  0  0  0  0  0  0  0  0  0
    0.0046    3.1166   -0.0003 Cl  0  0  0  0  0  0  0  0  0  0  0  0
   -0.0041   -2.8348    0.0005 N   0  0  0  0  0  0  0  0  0  0  0  0
   -0.0022   -1.4169    0.0000 C   0  0  0  0  0  0  0  0  0  0  0  0
   -1.2092   -0.7178   -0.0001 C   0  0  0  0  0  0  0  0  0  0  0  0
    1.2069   -0.7213    0.0000 C   0  0  0  0  0  0  0  0  0  0  0  0
    1.2091    0.6736   -0.0001 C   0  0  0  0  0  0  0  0  0  0  0  0
   -1.2070    0.6771   -0.0003 C   0  0  0  0  0  0  0  0  0  0  0  0
    0.0020    1.3729   -0.0002 C   0  0  0  0  0  0  0  0  0  0  0  0
  1  8  1  0
  2  9  1  0
  3 10  1  0
  4 11  1  0
  5 12  1  0
  6  7  1  0
  7  8  2  0
  7  9  1  0
  8 11  1  0
  9 10  2  0
 10 12  1  0
 11 12  2  0
M  END
>  <PUBCHEM_COMPOUND_CID>  (1) 
10693

>  <PUBCHEM_CONFORMER_RMSD>  (1) 
0.4

>  <PUBCHEM_CONFORMER_DIVERSEORDER>  (1) 
1

>  <PUBCHEM_MMFF94_PARTIAL_CHARGES>  (1) 
14
1 -0.18
10 0.18
11 0.18
12 0.18
13 0.4
14 0.4
2 -0.18
3 -0.18
4 -0.18
5 -0.18
6 -0.9
7 0.1
8 0.18
9 0.18

>  <PUBCHEM_EFFECTIVE_ROTOR_COUNT>  (1) 
0

>  <PUBCHEM_PHARMACOPHORE_FEATURES>  (1) 
3
1 6 cation
1 6 donor
6 7 8 9 10 11 12 rings

>  <PUBCHEM_HEAVY_ATOM_COUNT>  (1) 
12

>  <PUBCHEM_ATOM_DEF_STEREO_COUNT>  (1) 
0

>  <PUBCHEM_ATOM_UDEF_STEREO_COUNT>  (1) 
0

>  <PUBCHEM_BOND_DEF_STEREO_COUNT>  (1) 
0

>  <PUBCHEM_BOND_UDEF_STEREO_COUNT>  (1) 
0

>  <PUBCHEM_ISOTOPIC_ATOM_COUNT>  (1) 
0

>  <PUBCHEM_COMPONENT_COUNT>  (1) 
1

>  <PUBCHEM_CACTVS_TAUTO_COUNT>  (1) 
1

>  <PUBCHEM_CONFORMER_ID>  (1) 
000029C500000001

>  <PUBCHEM_MMFF94_ENERGY>  (1) 
41.473

>  <PUBCHEM_FEATURE_SELFOVERLAP>  (1) 
15.223

>  <PUBCHEM_SHAPE_FINGERPRINT>  (1) 
10967382 1 18194401091384484808
11206711 2 18265616670216997077
12423570 1 9582357635537171950
13140716 1 18410575041713412906
16945 1 18122344850250562688
193761 8 18410856559639802565
20588541 1 18121784099410262606
21040471 1 18410574036849483136
21501502 16 18410573989446431431
2334 1 18410574015216228708
23526114 1 18410856563940044717
23552423 10 18334014986415063478
23559900 14 18198911314975396694
241688 4 18410575054598314690
2748010 2 18411138034616506812
528886 8 18339074874300976339
53812653 166 18270961361621603201
66348 1 18410856538165031040

>  <PUBCHEM_SHAPE_MULTIPOLES>  (1) 
251.32
3.73
3.36
0.63
0
0.6
0
-0.29
0
0
0
0
0.03
0

>  <PUBCHEM_SHAPE_SELFOVERLAP>  (1) 
483.402

>  <PUBCHEM_SHAPE_VOLUME>  (1) 
153.9

>  <PUBCHEM_COORDINATE_TYPE>  (1) 
2
5
10

$$$$
