10696
     RDKit          3D

 10 10  0  0  0  0  0  0  0  0999 V2000
    3.0535    0.0004   -0.0001 O   0  0  0  0  0  0  0  0  0  0  0  0
   -1.0973   -0.0001   -0.0004 C   0  0  0  0  0  0  0  0  0  0  0  0
   -0.4001    1.2080   -0.0004 C   0  0  0  0  0  0  0  0  0  0  0  0
   -0.3998   -1.2081    0.0000 C   0  0  0  0  0  0  0  0  0  0  0  0
    0.9947    1.2081   -0.0002 C   0  0  0  0  0  0  0  0  0  0  0  0
    0.9952   -1.2080    0.0003 C   0  0  0  0  0  0  0  0  0  0  0  0
   -2.5931   -0.0002    0.0002 C   0  0  0  0  0  0  0  0  0  0  0  0
    1.6925    0.0002    0.0002 C   0  0  0  0  0  0  0  0  0  0  0  0
   -1.1232    2.5150    0.0004 C   0  0  0  0  0  0  0  0  0  0  0  0
   -1.1226   -2.5152    0.0000 C   0  0  0  0  0  0  0  0  0  0  0  0
  1  8  1  0
  2  3  2  0
  2  4  1  0
  2  7  1  0
  3  5  1  0
  3  9  1  0
  4  6  2  0
  4 10  1  0
  5  8  2  0
  6  8  1  0
M  END
>  <PUBCHEM_COMPOUND_CID>  (1) 
10696

>  <PUBCHEM_CONFORMER_RMSD>  (1) 
0.4

>  <PUBCHEM_CONFORMER_DIVERSEORDER>  (1) 
1

>  <PUBCHEM_MMFF94_PARTIAL_CHARGES>  (1) 
13
1 -0.53
10 0.14
11 0.15
12 0.15
2 -0.14
22 0.45
3 -0.14
4 -0.14
5 -0.15
6 -0.15
7 0.14
8 0.08
9 0.14

>  <PUBCHEM_EFFECTIVE_ROTOR_COUNT>  (1) 
0

>  <PUBCHEM_PHARMACOPHORE_FEATURES>  (1) 
2
1 1 donor
6 2 3 4 5 6 8 rings

>  <PUBCHEM_HEAVY_ATOM_COUNT>  (1) 
10

>  <PUBCHEM_ATOM_DEF_STEREO_COUNT>  (1) 
0

>  <PUBCHEM_ATOM_UDEF_STEREO_COUNT>  (1) 
0

>  <PUBCHEM_BOND_DEF_STEREO_COUNT>  (1) 
0

>  <PUBCHEM_BOND_UDEF_STEREO_COUNT>  (1) 
0

>  <PUBCHEM_ISOTOPIC_ATOM_COUNT>  (1) 
0

>  <PUBCHEM_COMPONENT_COUNT>  (1) 
1

>  <PUBCHEM_CACTVS_TAUTO_COUNT>  (1) 
10

>  <PUBCHEM_CONFORMER_ID>  (1) 
000029C800000001

>  <PUBCHEM_MMFF94_ENERGY>  (1) 
27.2146

>  <PUBCHEM_FEATURE_SELFOVERLAP>  (1) 
10.148

>  <PUBCHEM_SHAPE_FINGERPRINT>  (1) 
12423570 1 12540963131813905665
16945 1 18410575089105739270
18185500 45 18265614475251136614
193761 8 17762338007409085255
20871998 184 18200879590205492646
21040471 1 18266740177837390468
23552423 10 17972316493194055166
2748010 2 18124031501193079220
5084963 1 18058729091774028226

>  <PUBCHEM_SHAPE_MULTIPOLES>  (1) 
199.93
2.89
2.51
0.61
1.09
0
0
0
0
-1.14
0
-0.03
0
0

>  <PUBCHEM_SHAPE_SELFOVERLAP>  (1) 
414.007

>  <PUBCHEM_SHAPE_VOLUME>  (1) 
117.8

>  <PUBCHEM_COORDINATE_TYPE>  (1) 
2
5
10

$$$$
