10704
     RDKit          3D

 10 10  0  0  0  0  0  0  0  0999 V2000
    2.3435    0.3571   -1.1178 O   0  0  0  0  0  0  0  0  0  0  0  0
    2.3808    0.3522    1.1751 N   0  0  0  0  0  0  0  0  0  0  0  0
   -0.4021   -0.9809   -0.0056 C   0  0  0  0  0  0  0  0  0  0  0  0
    0.2616    0.2460   -0.0222 C   0  0  0  0  0  0  0  0  0  0  0  0
   -1.7963   -1.0194    0.0168 C   0  0  0  0  0  0  0  0  0  0  0  0
   -0.4691    1.4342   -0.0163 C   0  0  0  0  0  0  0  0  0  0  0  0
    0.3556   -2.2687   -0.0124 C   0  0  0  0  0  0  0  0  0  0  0  0
   -2.5269    0.1688    0.0226 C   0  0  0  0  0  0  0  0  0  0  0  0
   -1.8634    1.3955    0.0060 C   0  0  0  0  0  0  0  0  0  0  0  0
    1.7163    0.3152   -0.0462 C   0  0  0  0  0  0  0  0  0  0  0  0
  1 10  2  0
  2 10  1  0
  3  4  2  0
  3  5  1  0
  3  7  1  0
  4  6  1  0
  4 10  1  0
  5  8  2  0
  6  9  2  0
  8  9  1  0
M  END
>  <PUBCHEM_COMPOUND_CID>  (1) 
10704

>  <PUBCHEM_CONFORMER_RMSD>  (1) 
0.4

>  <PUBCHEM_CONFORMER_DIVERSEORDER>  (1) 
2
3
1

>  <PUBCHEM_MMFF94_PARTIAL_CHARGES>  (1) 
16
1 -0.57
10 0.54
11 0.15
12 0.15
16 0.15
17 0.15
18 0.37
19 0.37
2 -0.8
3 -0.14
4 0.09
5 -0.15
6 -0.15
7 0.14
8 -0.15
9 -0.15

>  <PUBCHEM_EFFECTIVE_ROTOR_COUNT>  (1) 
1

>  <PUBCHEM_PHARMACOPHORE_FEATURES>  (1) 
3
1 1 acceptor
1 2 donor
6 3 4 5 6 8 9 rings

>  <PUBCHEM_HEAVY_ATOM_COUNT>  (1) 
10

>  <PUBCHEM_ATOM_DEF_STEREO_COUNT>  (1) 
0

>  <PUBCHEM_ATOM_UDEF_STEREO_COUNT>  (1) 
0

>  <PUBCHEM_BOND_DEF_STEREO_COUNT>  (1) 
0

>  <PUBCHEM_BOND_UDEF_STEREO_COUNT>  (1) 
0

>  <PUBCHEM_ISOTOPIC_ATOM_COUNT>  (1) 
0

>  <PUBCHEM_COMPONENT_COUNT>  (1) 
1

>  <PUBCHEM_CACTVS_TAUTO_COUNT>  (1) 
2

>  <PUBCHEM_CONFORMER_ID>  (1) 
000029D000000002

>  <PUBCHEM_MMFF94_ENERGY>  (1) 
31.6382

>  <PUBCHEM_FEATURE_SELFOVERLAP>  (1) 
15.223

>  <PUBCHEM_SHAPE_FINGERPRINT>  (1) 
10857977 72 18340482378281572361
12423570 1 15375898678270876362
12524768 44 17982173627558211781
15310529 11 16660639708545318597
16945 1 18410856568630670285
20645464 45 17988635346100061240
20871998 184 18055917851132722870
21040471 1 18410856533875267055
23211744 41 17845920927089795208
23235685 24 18408046195245477309
23552423 10 18189622631167371479
2748010 2 18121221978786280845
29004967 10 16272213002433669304
369184 2 18131058359662780344
5084963 1 18201731655692254020

>  <PUBCHEM_SHAPE_MULTIPOLES>  (1) 
194.94
3.2
1.81
0.8
0.4
0.82
-0.02
-0.74
-0.07
-0.28
0.01
0.46
-0.09
0.01

>  <PUBCHEM_SHAPE_SELFOVERLAP>  (1) 
406.898

>  <PUBCHEM_SHAPE_VOLUME>  (1) 
111.6

>  <PUBCHEM_COORDINATE_TYPE>  (1) 
2
5
10

$$$$
