10710
     RDKit          3D

 14 14  0  0  0  0  0  0  0  0999 V2000
   -1.1570   -2.7153    0.7002 O   0  0  0  0  0  0  0  0  0  0  0  0
    1.7368    0.3683   -1.6325 O   0  0  0  0  0  0  0  0  0  0  0  0
    0.5085   -2.2210   -0.7654 O   0  0  0  0  0  0  0  0  0  0  0  0
    3.4563    0.3346    0.1364 O   0  0  0  0  0  0  0  0  0  0  0  0
    1.8722    0.5514    1.7891 O   0  0  0  0  0  0  0  0  0  0  0  0
   -0.2001    0.6055   -0.2700 C   0  0  0  0  0  0  0  0  0  0  0  0
   -1.0140   -0.5101   -0.0735 C   0  0  0  0  0  0  0  0  0  0  0  0
   -0.7521    1.8861   -0.2372 C   0  0  0  0  0  0  0  0  0  0  0  0
   -2.3799   -0.3451    0.1559 C   0  0  0  0  0  0  0  0  0  0  0  0
   -2.1181    2.0510   -0.0078 C   0  0  0  0  0  0  0  0  0  0  0  0
   -2.9320    0.9355    0.1886 C   0  0  0  0  0  0  0  0  0  0  0  0
    1.2302    0.4660   -0.5108 C   0  0  0  0  0  0  0  0  0  0  0  0
   -0.4672   -1.8604   -0.1021 C   0  0  0  0  0  0  0  0  0  0  0  0
    2.2162    0.4535    0.6293 C   0  0  0  0  0  0  0  0  0  0  0  0
  1 13  1  0
  2 12  2  0
  3 13  2  0
  4 14  1  0
  5 14  2  0
  6  7  2  0
  6  8  1  0
  6 12  1  0
  7  9  1  0
  7 13  1  0
  8 10  2  0
  9 11  2  0
 10 11  1  0
 12 14  1  0
M  END
>  <PUBCHEM_COMPOUND_CID>  (1) 
10710

>  <PUBCHEM_CONFORMER_RMSD>  (1) 
0.6

>  <PUBCHEM_CONFORMER_DIVERSEORDER>  (1) 
1
4
2
3

>  <PUBCHEM_MMFF94_PARTIAL_CHARGES>  (1) 
20
1 -0.65
10 -0.15
11 -0.15
12 0.48
13 0.63
14 0.72
15 0.15
16 0.15
17 0.15
18 0.15
19 0.5
2 -0.57
20 0.5
3 -0.57
4 -0.65
5 -0.57
6 0.09
7 0.09
8 -0.15
9 -0.15

>  <PUBCHEM_EFFECTIVE_ROTOR_COUNT>  (1) 
3

>  <PUBCHEM_PHARMACOPHORE_FEATURES>  (1) 
8
1 1 acceptor
1 2 acceptor
1 3 acceptor
1 4 acceptor
1 5 acceptor
3 1 3 13 anion
3 4 5 14 anion
6 6 7 8 9 10 11 rings

>  <PUBCHEM_HEAVY_ATOM_COUNT>  (1) 
14

>  <PUBCHEM_ATOM_DEF_STEREO_COUNT>  (1) 
0

>  <PUBCHEM_ATOM_UDEF_STEREO_COUNT>  (1) 
0

>  <PUBCHEM_BOND_DEF_STEREO_COUNT>  (1) 
0

>  <PUBCHEM_BOND_UDEF_STEREO_COUNT>  (1) 
0

>  <PUBCHEM_ISOTOPIC_ATOM_COUNT>  (1) 
0

>  <PUBCHEM_COMPONENT_COUNT>  (1) 
1

>  <PUBCHEM_CACTVS_TAUTO_COUNT>  (1) 
1

>  <PUBCHEM_CONFORMER_ID>  (1) 
000029D600000001

>  <PUBCHEM_MMFF94_ENERGY>  (1) 
45.1216

>  <PUBCHEM_FEATURE_SELFOVERLAP>  (1) 
40.731

>  <PUBCHEM_SHAPE_FINGERPRINT>  (1) 
12423570 1 10847120977854047621
13380535 76 18339921524108784511
13538477 17 17968943131184709508
14817 1 14461743558350305120
15076042 46 18334850628099989666
15775835 57 18272087149990827017
15852999 172 17826207628776398517
16945 1 18337402611952647085
20510252 161 18343022194286502961
20511035 2 17689998934347756821
20645476 183 17749404696744329783
20871998 184 18269840993658784071
21040471 1 18410019814285288837
22344851 341 18050573936937810123
23402539 116 18271229629963788207
23419403 2 16171113694286063286
23552423 10 17902243212997029589
23559900 14 18200046053935036054
27216 239 16767561820121111720
2748010 2 18192445073637311975
305870 269 18192145993209872721
5084963 1 18202014200253179413
53812653 166 18200878366139774169
54338 74 18121759880237276149
7364860 26 17767682763559850623
77492 1 17603870030830954332
81228 2 18123449833788077787

>  <PUBCHEM_SHAPE_MULTIPOLES>  (1) 
258.77
3.86
2.35
1.05
0.99
1.54
-0.08
-1.57
-0.56
-1.01
-0.05
0.68
-0.08
0.27

>  <PUBCHEM_SHAPE_SELFOVERLAP>  (1) 
554.227

>  <PUBCHEM_SHAPE_VOLUME>  (1) 
142

>  <PUBCHEM_COORDINATE_TYPE>  (1) 
2
5
10

$$$$
