10726
     RDKit          3D

 12 12  0  0  1  0  0  0  0  0999 V2000
    1.0189    2.6563   -0.4073 O   0  0  0  0  0  0  0  0  0  0  0  0
    3.2480   -0.8684   -0.1018 O   0  0  0  0  0  0  0  0  0  0  0  0
    1.4166   -1.9362    0.6967 O   0  0  0  0  0  0  0  0  0  0  0  0
    1.1103    0.2175   -0.4227 C   0  0  0  0  0  0  0  0  0  0  0  0
   -0.3567    0.0511   -0.2101 C   0  0  0  0  0  0  0  0  0  0  0  0
    1.6660    1.5302    0.1774 C   0  0  0  0  0  0  0  0  0  0  0  0
   -1.1349   -0.5808   -1.1801 C   0  0  0  0  0  0  0  0  0  0  0  0
   -0.9505    0.5276    0.9587 C   0  0  0  0  0  0  0  0  0  0  0  0
    1.9118   -0.9733    0.1255 C   0  0  0  0  0  0  0  0  0  0  0  0
   -2.5067   -0.7362   -0.9813 C   0  0  0  0  0  0  0  0  0  0  0  0
   -2.3223    0.3720    1.1576 C   0  0  0  0  0  0  0  0  0  0  0  0
   -3.1005   -0.2599    0.1877 C   0  0  0  0  0  0  0  0  0  0  0  0
  1  6  1  0
  2  9  1  0
  3  9  2  0
  4  5  1  0
  4  6  1  0
  4  9  1  0
  5  7  2  0
  5  8  1  0
  7 10  1  0
  8 11  2  0
 10 12  2  0
 11 12  1  0
M  END
>  <PUBCHEM_COMPOUND_CID>  (1) 
10726

>  <PUBCHEM_CONFORMER_RMSD>  (1) 
0.6

>  <PUBCHEM_CONFORMER_DIVERSEORDER>  (1) 
1
9
12
10
4
15
6
11
8
14
13
3
5
2
7

>  <PUBCHEM_MMFF94_PARTIAL_CHARGES>  (1) 
19
1 -0.68
10 -0.15
11 -0.15
12 -0.15
16 0.15
17 0.15
18 0.15
19 0.15
2 -0.65
20 0.15
21 0.4
22 0.5
3 -0.57
4 0.2
5 -0.14
6 0.28
7 -0.15
8 -0.15
9 0.66

>  <PUBCHEM_EFFECTIVE_ROTOR_COUNT>  (1) 
3

>  <PUBCHEM_PHARMACOPHORE_FEATURES>  (1) 
6
1 1 acceptor
1 1 donor
1 2 acceptor
1 3 acceptor
3 2 3 9 anion
6 5 7 8 10 11 12 rings

>  <PUBCHEM_HEAVY_ATOM_COUNT>  (1) 
12

>  <PUBCHEM_ATOM_DEF_STEREO_COUNT>  (1) 
0

>  <PUBCHEM_ATOM_UDEF_STEREO_COUNT>  (1) 
1

>  <PUBCHEM_BOND_DEF_STEREO_COUNT>  (1) 
0

>  <PUBCHEM_BOND_UDEF_STEREO_COUNT>  (1) 
0

>  <PUBCHEM_ISOTOPIC_ATOM_COUNT>  (1) 
0

>  <PUBCHEM_COMPONENT_COUNT>  (1) 
1

>  <PUBCHEM_CACTVS_TAUTO_COUNT>  (1) 
1

>  <PUBCHEM_CONFORMER_ID>  (1) 
000029E600000001

>  <PUBCHEM_MMFF94_ENERGY>  (1) 
28.1566

>  <PUBCHEM_FEATURE_SELFOVERLAP>  (1) 
30.506

>  <PUBCHEM_SHAPE_FINGERPRINT>  (1) 
10857977 72 15913041045489636731
12932764 1 18408892849485026189
13538477 17 17846497097158282023
14128692 85 18131345332187073726
14993402 34 18272654510791271942
15775835 57 17988652959550263881
16945 1 18335697252048245103
20201158 50 17386008325531395250
20361792 2 18338791213402423742
20653091 64 18342735260289820490
207724 885 18201445726818808670
21061003 4 18261108535146158274
22445834 79 18271527498625348315
23552423 10 18270113642751780631
29004967 10 18113337483492201162
369184 2 18411138047997293787
5084963 1 18273493481292168841
528862 383 18338513152724025889
63268167 104 18340487858507055892
77492 1 18131636707052845661
81228 2 17758107108293538920

>  <PUBCHEM_SHAPE_MULTIPOLES>  (1) 
229.35
4.25
1.76
1.07
0.45
0.76
-0.01
-0.94
-0.21
-1.35
0.06
0.52
-0.05
-0.69

>  <PUBCHEM_SHAPE_SELFOVERLAP>  (1) 
473.044

>  <PUBCHEM_SHAPE_VOLUME>  (1) 
130.7

>  <PUBCHEM_COORDINATE_TYPE>  (1) 
2
5
10

$$$$
