10735
     RDKit          3D

 13 13  0  0  0  0  0  0  0  0999 V2000
    0.8887   -1.6945   -1.1641 O   0  0  0  0  0  0  0  0  0  0  0  0
    1.6371    0.1915   -0.0033 N   0  0  0  0  0  0  0  0  0  0  0  0
   -3.4149    0.1393    0.3563 N   0  0  0  0  0  0  0  0  0  0  0  0
    3.0431   -0.0781   -0.2693 C   0  0  0  0  0  0  0  0  0  0  0  0
    1.3606    1.3915    0.7834 C   0  0  0  0  0  0  0  0  0  0  0  0
    0.6651   -0.6829   -0.5003 C   0  0  0  0  0  0  0  0  0  0  0  0
    3.6519   -0.9436    0.8207 C   0  0  0  0  0  0  0  0  0  0  0  0
    1.1792    2.6053   -0.1120 C   0  0  0  0  0  0  0  0  0  0  0  0
   -0.7477   -0.3981   -0.2035 C   0  0  0  0  0  0  0  0  0  0  0  0
   -1.4793    0.3911   -1.0703 C   0  0  0  0  0  0  0  0  0  0  0  0
   -1.3228   -0.9241    0.9374 C   0  0  0  0  0  0  0  0  0  0  0  0
   -2.8052    0.6295   -0.7464 C   0  0  0  0  0  0  0  0  0  0  0  0
   -2.6558   -0.6269    1.1715 C   0  0  0  0  0  0  0  0  0  0  0  0
  1  6  2  0
  2  4  1  0
  2  5  1  0
  2  6  1  0
  3 12  2  0
  3 13  1  0
  4  7  1  0
  5  8  1  0
  6  9  1  0
  9 10  2  0
  9 11  1  0
 10 12  1  0
 11 13  2  0
M  END
>  <PUBCHEM_COMPOUND_CID>  (1) 
10735

>  <PUBCHEM_CONFORMER_RMSD>  (1) 
0.6

>  <PUBCHEM_CONFORMER_DIVERSEORDER>  (1) 
1
2
3
4

>  <PUBCHEM_MMFF94_PARTIAL_CHARGES>  (1) 
15
1 -0.57
10 -0.15
11 -0.15
12 0.16
13 0.16
2 -0.66
24 0.15
25 0.15
26 0.15
27 0.15
3 -0.62
4 0.3
5 0.3
6 0.54
9 0.09

>  <PUBCHEM_EFFECTIVE_ROTOR_COUNT>  (1) 
4

>  <PUBCHEM_PHARMACOPHORE_FEATURES>  (1) 
3
1 1 acceptor
1 3 acceptor
6 3 9 10 11 12 13 rings

>  <PUBCHEM_HEAVY_ATOM_COUNT>  (1) 
13

>  <PUBCHEM_ATOM_DEF_STEREO_COUNT>  (1) 
0

>  <PUBCHEM_ATOM_UDEF_STEREO_COUNT>  (1) 
0

>  <PUBCHEM_BOND_DEF_STEREO_COUNT>  (1) 
0

>  <PUBCHEM_BOND_UDEF_STEREO_COUNT>  (1) 
0

>  <PUBCHEM_ISOTOPIC_ATOM_COUNT>  (1) 
0

>  <PUBCHEM_COMPONENT_COUNT>  (1) 
1

>  <PUBCHEM_CACTVS_TAUTO_COUNT>  (1) 
1

>  <PUBCHEM_CONFORMER_ID>  (1) 
000029EF00000001

>  <PUBCHEM_MMFF94_ENERGY>  (1) 
30.8545

>  <PUBCHEM_FEATURE_SELFOVERLAP>  (1) 
15.223

>  <PUBCHEM_SHAPE_FINGERPRINT>  (1) 
10130415 120 18261668191028481720
10219947 1 18201436961159692646
10465860 250 18187354394935500130
10857977 72 17531533195452244241
124424 183 18187919547727225962
12696612 119 18339367460379421013
12932764 1 18261959655656173378
14648413 74 18189333631392296352
15219456 202 18260829357687053945
15653759 3 18040152937285769952
15775835 57 17131836520483005793
16945 1 18202570565857978263
17357990 137 16772418259717062289
17841504 4 18261955249146263512
19422 9 15068344479940056210
20201158 50 18409731733685877971
20511035 2 18264771145680187652
20645464 45 18261115145317214963
20671657 1 18124597732744796348
21061003 4 18341057328294373776
21130352 189 18410004442618825072
21501502 16 18194686088413784751
21524375 3 17477771642214920592
23175994 123 18336829689164227244
23402539 116 18261380136378177583
31174 14 18191033506570395729
3286 77 18409444830023388597
449060 23 14923944544101447770
5084963 1 17987507276886587367
77492 1 16702302334430798311
81228 2 18051983511103452120

>  <PUBCHEM_SHAPE_MULTIPOLES>  (1) 
251.7
5.27
1.75
1.14
0.5
1.11
0
-0.79
0.96
0.96
0.06
-0.28
-0.21
0.48

>  <PUBCHEM_SHAPE_SELFOVERLAP>  (1) 
509.071

>  <PUBCHEM_SHAPE_VOLUME>  (1) 
146.6

>  <PUBCHEM_COORDINATE_TYPE>  (1) 
2
5
10

$$$$
