10737
     RDKit          3D

 17 18  0  0  0  0  0  0  0  0999 V2000
   -1.4173    2.4292   -0.0052 O   0  0  0  0  0  0  0  0  0  0  0  0
    4.1785   -0.5071    0.0009 N   0  0  0  0  0  0  0  0  0  0  0  0
    2.8340   -0.0811   -0.0001 C   0  0  0  0  0  0  0  0  0  0  0  0
    0.2134    0.7524   -0.0016 C   0  0  0  0  0  0  0  0  0  0  0  0
    2.1689    0.1272   -1.2084 C   0  0  0  0  0  0  0  0  0  0  0  0
    2.1697    0.1334    1.2074 C   0  0  0  0  0  0  0  0  0  0  0  0
    0.8397    0.5501   -1.2092 C   0  0  0  0  0  0  0  0  0  0  0  0
    0.8405    0.5561    1.2068 C   0  0  0  0  0  0  0  0  0  0  0  0
   -1.2102    1.2066   -0.0023 C   0  0  0  0  0  0  0  0  0  0  0  0
   -2.3259    0.2739   -0.0002 C   0  0  0  0  0  0  0  0  0  0  0  0
    4.8783   -0.7313   -1.2484 C   0  0  0  0  0  0  0  0  0  0  0  0
    4.8822   -0.7128    1.2512 C   0  0  0  0  0  0  0  0  0  0  0  0
   -2.0866   -1.1002    0.0027 C   0  0  0  0  0  0  0  0  0  0  0  0
   -3.6356    0.7537   -0.0014 C   0  0  0  0  0  0  0  0  0  0  0  0
   -3.1569   -1.9946    0.0043 C   0  0  0  0  0  0  0  0  0  0  0  0
   -4.7060   -0.1406    0.0004 C   0  0  0  0  0  0  0  0  0  0  0  0
   -4.4666   -1.5149    0.0032 C   0  0  0  0  0  0  0  0  0  0  0  0
  1  9  2  0
  2  3  1  0
  2 11  1  0
  2 12  1  0
  3  5  2  0
  3  6  1  0
  4  7  2  0
  4  8  1  0
  4  9  1  0
  5  7  1  0
  6  8  2  0
  9 10  1  0
 10 13  2  0
 10 14  1  0
 13 15  1  0
 14 16  2  0
 15 17  2  0
 16 17  1  0
M  END
>  <PUBCHEM_COMPOUND_CID>  (1) 
10737

>  <PUBCHEM_CONFORMER_RMSD>  (1) 
0.6

>  <PUBCHEM_CONFORMER_DIVERSEORDER>  (1) 
1

>  <PUBCHEM_MMFF94_PARTIAL_CHARGES>  (1) 
26
1 -0.57
10 0.09
11 0.37
12 0.37
13 -0.15
14 -0.15
15 -0.15
16 -0.15
17 -0.15
18 0.15
19 0.15
2 -0.84
20 0.15
21 0.15
28 0.15
29 0.15
3 0.1
30 0.15
31 0.15
32 0.15
4 0.09
5 -0.15
6 -0.15
7 -0.15
8 -0.15
9 0.4

>  <PUBCHEM_EFFECTIVE_ROTOR_COUNT>  (1) 
3

>  <PUBCHEM_PHARMACOPHORE_FEATURES>  (1) 
4
1 1 acceptor
1 2 cation
6 10 13 14 15 16 17 rings
6 3 4 5 6 7 8 rings

>  <PUBCHEM_HEAVY_ATOM_COUNT>  (1) 
17

>  <PUBCHEM_ATOM_DEF_STEREO_COUNT>  (1) 
0

>  <PUBCHEM_ATOM_UDEF_STEREO_COUNT>  (1) 
0

>  <PUBCHEM_BOND_DEF_STEREO_COUNT>  (1) 
0

>  <PUBCHEM_BOND_UDEF_STEREO_COUNT>  (1) 
0

>  <PUBCHEM_ISOTOPIC_ATOM_COUNT>  (1) 
0

>  <PUBCHEM_COMPONENT_COUNT>  (1) 
1

>  <PUBCHEM_CACTVS_TAUTO_COUNT>  (1) 
1

>  <PUBCHEM_CONFORMER_ID>  (1) 
000029F100000001

>  <PUBCHEM_MMFF94_ENERGY>  (1) 
70.2928

>  <PUBCHEM_FEATURE_SELFOVERLAP>  (1) 
20.297

>  <PUBCHEM_SHAPE_FINGERPRINT>  (1) 
10465860 250 18273493468228081473
11046707 91 18407758149132165123
11128504 68 17458351853265094166
11471102 20 15285361713080673932
11578080 2 17533186826138538133
11796584 16 18412263917402087126
12236239 1 17603868888401191549
12251169 10 16343702157491897533
12507557 5 13830128408427763915
12633257 1 16558475291642983411
12730499 353 12973602218776190369
13288520 33 18410858750125942622
13296908 3 18340764961607778057
13583140 156 18056450912925377888
13675066 3 17275382088774190120
13760787 5 16081375111903090172
14115302 16 18040721406530603367
14252887 29 16486982778009565574
14386348 63 17918278644704837495
14576447 43 17603865632700047306
15653759 3 18131628976259457992
16752209 62 18188475905549523565
17804303 29 18342739641515093641
17834072 33 18114186350035741460
17862501 102 18113613461427659872
18186145 218 15285355162981403277
18785283 64 17558814316726670480
18915474 69 18040999595662283599
19141452 34 17846499275002457615
19862831 5 17385724716050467937
200 152 17167863049648337460
20279233 1 17632581560876682319
20374829 77 18411133654156267611
204376 136 15123504839385367804
20681677 155 18187366519522798593
20871999 31 18186799167101402213
21267235 1 18335710468169225059
22646028 28 18260266373479304803
22854114 59 15913608376024733434
2297311 6 18272100374390342812
231179 274 11963389656900796588
23175994 123 17203611479939879169
232386 152 18336547226366111671
23402539 116 18261106357323452205
23402655 69 14923934652923458343
23557571 272 18059303041508563884
23559900 14 18412542141283603616
26918003 58 16917071070688055043
2916195 48 11169916121022002750
4325135 7 18335699486301677064
5104073 3 18340491165921934097
559249 180 18114173091260825315
573450 72 18188484679703440424
602551 16 18413388735219517514
67856867 119 18115871965807269764
7364860 26 17981608483467898113
77492 1 17676206862157075529

>  <PUBCHEM_SHAPE_MULTIPOLES>  (1) 
339
10.18
1.59
1.15
2.93
0.1
0
-4.66
0.02
-1.62
0
1.47
-0.02
0.01

>  <PUBCHEM_SHAPE_SELFOVERLAP>  (1) 
727.519

>  <PUBCHEM_SHAPE_VOLUME>  (1) 
187.5

>  <PUBCHEM_COORDINATE_TYPE>  (1) 
2
5
10

$$$$
