10739
     RDKit          3D

 14 15  0  0  0  0  0  0  0  0999 V2000
   -0.0023   -0.9608    0.0128 N   0  0  0  0  0  0  0  0  0  0  0  0
   -0.0010   -2.3770   -0.0282 N   0  0  0  0  0  0  0  0  0  0  0  0
   -1.2677   -0.3384    0.0409 C   0  0  0  0  0  0  0  0  0  0  0  0
    1.2929   -0.3246   -0.0278 C   0  0  0  0  0  0  0  0  0  0  0  0
   -1.4157    0.9136    0.6376 C   0  0  0  0  0  0  0  0  0  0  0  0
    1.4114    0.9016   -0.6464 C   0  0  0  0  0  0  0  0  0  0  0  0
   -2.3706   -0.9743   -0.5287 C   0  0  0  0  0  0  0  0  0  0  0  0
    2.3661   -0.9647    0.5544 C   0  0  0  0  0  0  0  0  0  0  0  0
   -2.6669    1.5298    0.6648 C   0  0  0  0  0  0  0  0  0  0  0  0
    2.6626    1.5170   -0.6850 C   0  0  0  0  0  0  0  0  0  0  0  0
   -3.6218   -0.3582   -0.5017 C   0  0  0  0  0  0  0  0  0  0  0  0
    3.6173   -0.3494    0.5160 C   0  0  0  0  0  0  0  0  0  0  0  0
   -3.7698    0.8938    0.0951 C   0  0  0  0  0  0  0  0  0  0  0  0
    3.7655    0.8915   -0.1037 C   0  0  0  0  0  0  0  0  0  0  0  0
  1  2  1  0
  1  3  1  0
  1  4  1  0
  3  5  2  0
  3  7  1  0
  4  6  2  0
  4  8  1  0
  5  9  1  0
  6 10  1  0
  7 11  2  0
  8 12  2  0
  9 13  2  0
 10 14  2  0
 11 13  1  0
 12 14  1  0
M  END
>  <PUBCHEM_COMPOUND_CID>  (1) 
10739

>  <PUBCHEM_CONFORMER_RMSD>  (1) 
0.6

>  <PUBCHEM_CONFORMER_DIVERSEORDER>  (1) 
2
3
1

>  <PUBCHEM_MMFF94_PARTIAL_CHARGES>  (1) 
26
1 -0.21
10 -0.15
11 -0.15
12 -0.15
13 -0.15
14 -0.15
15 0.15
16 0.15
17 0.15
18 0.15
19 0.15
2 -0.71
20 0.15
21 0.15
22 0.15
23 0.15
24 0.15
25 0.36
26 0.36
3 0.1
4 0.1
5 -0.15
6 -0.15
7 -0.15
8 -0.15
9 -0.15

>  <PUBCHEM_EFFECTIVE_ROTOR_COUNT>  (1) 
2

>  <PUBCHEM_PHARMACOPHORE_FEATURES>  (1) 
3
1 2 donor
6 3 5 7 9 11 13 rings
6 4 6 8 10 12 14 rings

>  <PUBCHEM_HEAVY_ATOM_COUNT>  (1) 
14

>  <PUBCHEM_ATOM_DEF_STEREO_COUNT>  (1) 
0

>  <PUBCHEM_ATOM_UDEF_STEREO_COUNT>  (1) 
0

>  <PUBCHEM_BOND_DEF_STEREO_COUNT>  (1) 
0

>  <PUBCHEM_BOND_UDEF_STEREO_COUNT>  (1) 
0

>  <PUBCHEM_ISOTOPIC_ATOM_COUNT>  (1) 
0

>  <PUBCHEM_COMPONENT_COUNT>  (1) 
1

>  <PUBCHEM_CACTVS_TAUTO_COUNT>  (1) 
1

>  <PUBCHEM_CONFORMER_ID>  (1) 
000029F300000002

>  <PUBCHEM_MMFF94_ENERGY>  (1) 
55.7201

>  <PUBCHEM_FEATURE_SELFOVERLAP>  (1) 
15.223

>  <PUBCHEM_SHAPE_FINGERPRINT>  (1) 
10062212 137 18340476807798816003
10465860 228 18197224650145242459
10980938 120 18113896057417162792
11132069 177 18342171154911224704
12162725 195 18410573989451738657
12251169 10 18259704484319300786
12932764 1 16773790407131017471
13380535 76 18410576184185697931
14144814 61 18335421270366309112
14325111 11 18410856563934763360
14897335 6 18410855468781490886
14993402 34 18407761439140385022
15309172 13 18259704492851394914
15442244 35 18194118521565614722
15536298 74 18272371919476615406
15669948 3 18130781308703046183
15775835 57 18410578387493247844
16945 1 18201724010618903070
17802600 8 18410566292870785957
18186145 218 18409168787879620710
19107657 47 17603579720779474508
200 152 18411690011482394519
20279233 1 15770056124880331581
21524375 3 18410292514475203403
23402539 116 18130497608795944276
23402655 69 18411135818450675828
23463225 33 18335700503327789280
23557571 272 16845289470937117291
23559900 14 17989485230466278872
305870 269 18336829675889240523
474 4 18259989270742378273
537710 114 18341896307496449665
57096353 35 18342171206756540975
7364860 26 17985549948647459535
74978 22 18263087763576886084
77492 1 18410289215940112202
9981440 41 17471286727224911664

>  <PUBCHEM_SHAPE_MULTIPOLES>  (1) 
278.15
7.06
1.73
0.82
0.03
0.35
0
-1.81
0.01
0.02
-0.01
-0.01
-0.11
-0.85

>  <PUBCHEM_SHAPE_SELFOVERLAP>  (1) 
597.263

>  <PUBCHEM_SHAPE_VOLUME>  (1) 
153.1

>  <PUBCHEM_COORDINATE_TYPE>  (1) 
2
5
10

$$$$
