10745
     RDKit          3D

 22 23  0  0  0  0  0  0  0  0999 V2000
   -0.7085   -1.1426    0.3744 O   0  0  0  0  0  0  0  0  0  0  0  0
    2.4182    0.9947   -1.2431 O   0  0  0  0  0  0  0  0  0  0  0  0
   -0.0568   -0.0682   -1.5886 O   0  0  0  0  0  0  0  0  0  0  0  0
   -2.3755    2.5362    1.0300 O   0  0  0  0  0  0  0  0  0  0  0  0
   -1.0076    1.0316    2.0459 O   0  0  0  0  0  0  0  0  0  0  0  0
    2.1035    2.1924    0.7435 O   0  0  0  0  0  0  0  0  0  0  0  0
    1.6065   -0.9742   -0.1399 C   0  0  0  0  0  0  0  0  0  0  0  0
    2.6354   -0.1286   -0.5025 C   0  0  0  0  0  0  0  0  0  0  0  0
   -2.0092   -0.8947    0.0517 C   0  0  0  0  0  0  0  0  0  0  0  0
   -2.6387    0.2791    0.4656 C   0  0  0  0  0  0  0  0  0  0  0  0
    1.8231   -2.1135    0.6099 C   0  0  0  0  0  0  0  0  0  0  0  0
    0.2150   -0.6677   -0.5590 C   0  0  0  0  0  0  0  0  0  0  0  0
    3.9352   -0.4344   -0.0990 C   0  0  0  0  0  0  0  0  0  0  0  0
   -2.7115   -1.8337   -0.7038 C   0  0  0  0  0  0  0  0  0  0  0  0
    3.1228   -2.4193    1.0133 C   0  0  0  0  0  0  0  0  0  0  0  0
   -3.9705    0.5140    0.1241 C   0  0  0  0  0  0  0  0  0  0  0  0
    4.1789   -1.5799    0.6590 C   0  0  0  0  0  0  0  0  0  0  0  0
   -4.0435   -1.5987   -1.0454 C   0  0  0  0  0  0  0  0  0  0  0  0
   -4.6729   -0.4250   -0.6314 C   0  0  0  0  0  0  0  0  0  0  0  0
   -1.9239    1.2726    1.2548 C   0  0  0  0  0  0  0  0  0  0  0  0
    2.1520    2.1415   -0.4784 C   0  0  0  0  0  0  0  0  0  0  0  0
    1.9281    3.3183   -1.3811 C   0  0  0  0  0  0  0  0  0  0  0  0
  1  9  1  0
  1 12  1  0
  2  8  1  0
  2 21  1  0
  3 12  2  0
  4 20  1  0
  5 20  2  0
  6 21  2  0
  7  8  2  0
  7 11  1  0
  7 12  1  0
  8 13  1  0
  9 10  2  0
  9 14  1  0
 10 16  1  0
 10 20  1  0
 11 15  2  0
 13 17  2  0
 14 18  2  0
 15 17  1  0
 16 19  2  0
 18 19  1  0
 21 22  1  0
M  END
>  <PUBCHEM_COMPOUND_CID>  (1) 
10745

>  <PUBCHEM_CONFORMER_RMSD>  (1) 
0.8

>  <PUBCHEM_CONFORMER_DIVERSEORDER>  (1) 
1
137
89
181
154
132
26
141
99
41
113
21
147
74
62
159
50
65
155
60
116
209
191
219
63
28
160
40
24
58
211
108
146
227
190
75
222
188
199
208
39
25
96
200
31
215
177
6
142
192
206
164
66
111
133
81
176
35
112
127
92
29
138
80
225
110
195
86
67
102
84
173
69
210
163
165
82
72
53
203
229
216
118
184
44
234
47
179
143
68
126
120
109
34
104
197
91
223
70
100
174
64
4
117
207
85
77
153
106
27
123
59
180
139
201
185
150
220
170
175
37
230
79
16
202
71
97
42
161
136
46
115
107
149
83
158
140
54
20
129
224
131
156
78
2
122
30
128
114
18
8
228
231
217
152
167
87
105
193
11
76
22
52
57
134
51
145
48
93
38
9
186
73
151
5
135
17
55
178
125
45
194
15
187
10
33
3
56
168
119
23
169
182
204
61
7
162
171
218
43
233
148
12
166
172
90
14
144
183
103
19
196
221
130
226
212
101
13
205
189
49
198
213
95
32
94
88
124
98
121
157
214
36
232

>  <PUBCHEM_MMFF94_PARTIAL_CHARGES>  (1) 
31
1 -0.23
10 0.09
11 -0.15
12 0.63
13 -0.15
14 -0.15
15 -0.15
16 -0.15
17 -0.15
18 -0.15
19 -0.15
2 -0.23
20 0.63
21 0.66
22 0.06
23 0.15
24 0.15
25 0.15
26 0.15
27 0.15
28 0.15
29 0.15
3 -0.57
30 0.15
34 0.5
4 -0.65
5 -0.57
6 -0.57
7 0.09
8 0.08
9 0.08

>  <PUBCHEM_EFFECTIVE_ROTOR_COUNT>  (1) 
6

>  <PUBCHEM_PHARMACOPHORE_FEATURES>  (1) 
7
1 3 acceptor
1 4 acceptor
1 5 acceptor
1 6 acceptor
3 4 5 20 anion
6 7 8 11 13 15 17 rings
6 9 10 14 16 18 19 rings

>  <PUBCHEM_HEAVY_ATOM_COUNT>  (1) 
22

>  <PUBCHEM_ATOM_DEF_STEREO_COUNT>  (1) 
0

>  <PUBCHEM_ATOM_UDEF_STEREO_COUNT>  (1) 
0

>  <PUBCHEM_BOND_DEF_STEREO_COUNT>  (1) 
0

>  <PUBCHEM_BOND_UDEF_STEREO_COUNT>  (1) 
0

>  <PUBCHEM_ISOTOPIC_ATOM_COUNT>  (1) 
0

>  <PUBCHEM_COMPONENT_COUNT>  (1) 
1

>  <PUBCHEM_CACTVS_TAUTO_COUNT>  (1) 
1

>  <PUBCHEM_CONFORMER_ID>  (1) 
000029F900000001

>  <PUBCHEM_MMFF94_ENERGY>  (1) 
77.2451

>  <PUBCHEM_FEATURE_SELFOVERLAP>  (1) 
35.58

>  <PUBCHEM_SHAPE_FINGERPRINT>  (1) 
10062212 137 18201998841903660127
11578080 2 18124000564581329313
12236239 1 18411697660271067871
12507557 5 18408881832477180331
13009979 54 18200884967699596242
13134695 92 18040995120712432942
13224815 77 17846223305820009011
13583140 156 17968672514586956481
13965767 371 17262454906948703688
14787075 74 17330562453966657135
15375462 478 18060411391862043174
17349148 13 18202278078817521799
17492 89 18342178856067947543
17980427 23 18059849519950889184
18335252 114 17972018268615479021
18681886 176 18201714094072595398
192875 21 18410291397841553433
200 152 18411693292669077687
20715895 44 18125437506758161741
2255824 54 18334297617054501142
23402539 116 17916854743425465279
23419403 2 17910352248327191392
23557571 272 16845298198289615907
23559900 14 18340196479314713787
238 59 18115882952011177352
312423 11 18270132300037213675
4409770 3 17396409517026179972
474 4 18116713113191531812
67856867 119 18339915038660532244
6992083 37 18195534679372438762
7097593 13 18267305330845771339
7471813 234 18200295715044661806
7615 1 18413395323588306883
84936 182 18195247947493251964
9971528 1 18410006616378679094
9981440 41 17758675938015062448

>  <PUBCHEM_SHAPE_MULTIPOLES>  (1) 
417.53
8.1
3.02
1.35
3.24
1.91
-0.18
-2.56
0.53
-2.17
0.08
0.26
0.5
-2.09

>  <PUBCHEM_SHAPE_SELFOVERLAP>  (1) 
905.871

>  <PUBCHEM_SHAPE_VOLUME>  (1) 
223.4

>  <PUBCHEM_COORDINATE_TYPE>  (1) 
2
5
10

$$$$
