10746
     RDKit          3D

 19 20  0  0  1  0  0  0  0  0999 V2000
    3.4903   -2.9999    1.2199 I   0  0  0  0  0  0  0  0  0  0  0  0
    4.1286    2.7828   -0.6241 I   0  0  0  0  0  0  0  0  0  0  0  0
   -3.4581   -2.1099   -1.4687 O   0  0  0  0  0  0  0  0  0  0  0  0
   -2.7431   -2.2542    0.6980 O   0  0  0  0  0  0  0  0  0  0  0  0
    4.8285   -0.1121    0.6381 O   0  0  0  0  0  0  0  0  0  0  0  0
   -1.4859    0.3641   -0.0495 C   0  0  0  0  0  0  0  0  0  0  0  0
   -2.9301   -0.0992   -0.3227 C   0  0  0  0  0  0  0  0  0  0  0  0
   -1.4181    1.8937    0.0891 C   0  0  0  0  0  0  0  0  0  0  0  0
   -3.9111    0.4526    0.7175 C   0  0  0  0  0  0  0  0  0  0  0  0
   -2.3968    2.4188    1.1346 C   0  0  0  0  0  0  0  0  0  0  0  0
   -3.8220    1.9696    0.8368 C   0  0  0  0  0  0  0  0  0  0  0  0
   -0.5270   -0.0930   -1.1537 C   0  0  0  0  0  0  0  0  0  0  0  0
   -3.0265   -1.5964   -0.2917 C   0  0  0  0  0  0  0  0  0  0  0  0
    0.8973   -0.0979   -0.6767 C   0  0  0  0  0  0  0  0  0  0  0  0
    1.6748    1.0443   -0.8236 C   0  0  0  0  0  0  0  0  0  0  0  0
    1.4226   -1.2450   -0.0941 C   0  0  0  0  0  0  0  0  0  0  0  0
    2.7456   -1.2500    0.3480 C   0  0  0  0  0  0  0  0  0  0  0  0
    2.9978    1.0394   -0.3815 C   0  0  0  0  0  0  0  0  0  0  0  0
    3.5333   -0.1077    0.2044 C   0  0  0  0  0  0  0  0  0  0  0  0
  1 17  1  0
  2 18  1  0
  3 13  1  0
  4 13  2  0
  5 19  1  0
  6  7  1  0
  6  8  1  0
  6 12  1  0
  7  9  1  0
  7 13  1  0
  8 10  1  0
  9 11  1  0
 10 11  1  0
 12 14  1  0
 14 15  2  0
 14 16  1  0
 15 18  1  0
 16 17  2  0
 17 19  1  0
 18 19  2  0
M  END
>  <PUBCHEM_COMPOUND_CID>  (1) 
10746

>  <PUBCHEM_CONFORMER_RMSD>  (1) 
0.6

>  <PUBCHEM_CONFORMER_DIVERSEORDER>  (1) 
1
53
37
44
56
8
12
60
20
57
50
43
13
21
35
59
26
55
29
33
38
52
54
40
10
24
34
51
36
11
39
14
48
17
58
47
16
22
28
31
19
2
41
27
30
49
18
9
5
42
7
6
32
4
15
23
25
45
46
3

>  <PUBCHEM_MMFF94_PARTIAL_CHARGES>  (1) 
18
1 -0.08
12 0.14
13 0.66
14 -0.14
15 -0.15
16 -0.15
17 0.08
18 0.08
19 0.08
2 -0.08
3 -0.65
32 0.15
33 0.15
34 0.5
35 0.45
4 -0.57
5 -0.53
7 0.06

>  <PUBCHEM_EFFECTIVE_ROTOR_COUNT>  (1) 
4.2

>  <PUBCHEM_PHARMACOPHORE_FEATURES>  (1) 
8
1 1 hydrophobe
1 2 hydrophobe
1 3 acceptor
1 4 acceptor
1 5 donor
3 3 4 13 anion
6 14 15 16 17 18 19 rings
6 6 7 8 9 10 11 rings

>  <PUBCHEM_HEAVY_ATOM_COUNT>  (1) 
19

>  <PUBCHEM_ATOM_DEF_STEREO_COUNT>  (1) 
0

>  <PUBCHEM_ATOM_UDEF_STEREO_COUNT>  (1) 
2

>  <PUBCHEM_BOND_DEF_STEREO_COUNT>  (1) 
0

>  <PUBCHEM_BOND_UDEF_STEREO_COUNT>  (1) 
0

>  <PUBCHEM_ISOTOPIC_ATOM_COUNT>  (1) 
0

>  <PUBCHEM_COMPONENT_COUNT>  (1) 
1

>  <PUBCHEM_CACTVS_TAUTO_COUNT>  (1) 
2

>  <PUBCHEM_CONFORMER_ID>  (1) 
000029FA00000001

>  <PUBCHEM_MMFF94_ENERGY>  (1) 
38.9463

>  <PUBCHEM_FEATURE_SELFOVERLAP>  (1) 
40.649

>  <PUBCHEM_SHAPE_FINGERPRINT>  (1) 
10366900 7 18197495331911349370
10616163 171 18413673512794171615
10759866 29 18411991260362363904
10906281 52 17987816180500552301
12107183 9 17906171750388424856
12251169 10 18337676308443027724
12553582 1 17828475869778140490
12633257 1 18267867168396933602
12670546 177 7925332078878163018
12788726 201 18129943502708017887
13140716 1 18336271145599539699
13533116 47 18409163312202824891
13583140 156 17968384437903035945
14289901 80 18411981373136203994
14341114 176 18340209583707969578
14341114 328 18341620351357678432
14787075 74 17834677475718610644
15442244 35 18264768762194981706
17492 89 18410014316685906859
1813 80 16951701185932303222
19050596 39 18409450297353375432
200 152 18337661027176300727
20715895 44 17763185735513141849
20739085 24 17967535701263615052
21065198 48 18410856538186052176
21501502 16 18411700980274954252
23503953 91 18339075999777768720
23557571 272 17275385382718739461
23559900 14 17916595215415015830
23566358 27 18262247629482808094
23598288 3 18201721786289905581
312423 11 18410577279629088630
392239 28 17907020934332374168
474 4 18115597070578012092
5104073 3 18336547204817656560
633830 44 18339651130659284108
7097593 13 18265050237129370890
7615 1 18411413999171379781
9709674 26 18341338807529687327
9981440 41 18117841229718354576

>  <PUBCHEM_SHAPE_MULTIPOLES>  (1) 
397.27
9.35
3.48
1.17
0.33
0.47
0.02
-0.55
-1.7
2.44
-0.66
-0.45
0.15
-2.62

>  <PUBCHEM_SHAPE_SELFOVERLAP>  (1) 
788.784

>  <PUBCHEM_SHAPE_VOLUME>  (1) 
242.2

>  <PUBCHEM_COORDINATE_TYPE>  (1) 
2
5
10

$$$$
