1074
     RDKit          3D

 14 14  0  0  1  0  0  0  0  0999 V2000
   -2.5790    0.3751   -0.1609 P   0  0  0  0  0  0  0  0  0  0  0  0
    0.6121    0.5209    0.7383 O   0  0  0  0  0  0  0  0  0  0  0  0
   -1.1623   -0.2875   -0.5688 O   0  0  0  0  0  0  0  0  0  0  0  0
    1.5031   -0.6137   -1.9424 O   0  0  0  0  0  0  0  0  0  0  0  0
    1.1051   -2.4665    1.1471 O   0  0  0  0  0  0  0  0  0  0  0  0
    2.5877    2.4960    0.6184 O   0  0  0  0  0  0  0  0  0  0  0  0
   -2.1624    1.6476    0.7457 O   0  0  0  0  0  0  0  0  0  0  0  0
   -3.1655   -0.6754    0.9196 O   0  0  0  0  0  0  0  0  0  0  0  0
   -3.4940    0.6786   -1.3111 O   0  0  0  0  0  0  0  0  0  0  0  0
    1.8303   -1.0013   -0.6142 C   0  0  0  0  0  0  0  0  0  0  0  0
    0.6618   -1.7402    0.0065 C   0  0  0  0  0  0  0  0  0  0  0  0
    1.9470    0.2174    0.2948 C   0  0  0  0  0  0  0  0  0  0  0  0
   -0.2415   -0.6035    0.4688 C   0  0  0  0  0  0  0  0  0  0  0  0
    2.5576    1.4526   -0.3419 C   0  0  0  0  0  0  0  0  0  0  0  0
  1  3  1  0
  1  7  1  0
  1  8  1  0
  1  9  2  0
  2 12  1  0
  2 13  1  0
  3 13  1  0
  4 10  1  0
  5 11  1  0
  6 14  1  0
 10 11  1  0
 10 12  1  0
 11 13  1  0
 12 14  1  0
M  END
>  <PUBCHEM_COMPOUND_CID>  (1) 
1074

>  <PUBCHEM_CONFORMER_RMSD>  (1) 
0.6

>  <PUBCHEM_CONFORMER_DIVERSEORDER>  (1) 
2
38
53
28
11
49
44
51
14
6
35
34
22
56
13
58
5
40
18
48
30
43
19
41
12
29
20
39
4
47
15
55
25
36
57
21
42
32
16
33
3
24
27
17
54
8
7
26
45
1
37
52
46
10
31
50
23
9

>  <PUBCHEM_MMFF94_PARTIAL_CHARGES>  (1) 
19
1 1.51
10 0.28
11 0.28
12 0.28
13 0.56
14 0.28
2 -0.56
21 0.4
22 0.4
23 0.4
24 0.5
25 0.5
3 -0.55
4 -0.68
5 -0.68
6 -0.68
7 -0.77
8 -0.77
9 -0.7

>  <PUBCHEM_EFFECTIVE_ROTOR_COUNT>  (1) 
4

>  <PUBCHEM_PHARMACOPHORE_FEATURES>  (1) 
12
1 2 acceptor
1 4 acceptor
1 4 donor
1 5 acceptor
1 5 donor
1 6 acceptor
1 6 donor
1 7 acceptor
1 8 acceptor
1 9 acceptor
4 1 7 8 9 anion
5 2 10 11 12 13 rings

>  <PUBCHEM_HEAVY_ATOM_COUNT>  (1) 
14

>  <PUBCHEM_ATOM_DEF_STEREO_COUNT>  (1) 
0

>  <PUBCHEM_ATOM_UDEF_STEREO_COUNT>  (1) 
4

>  <PUBCHEM_BOND_DEF_STEREO_COUNT>  (1) 
0

>  <PUBCHEM_BOND_UDEF_STEREO_COUNT>  (1) 
0

>  <PUBCHEM_ISOTOPIC_ATOM_COUNT>  (1) 
0

>  <PUBCHEM_COMPONENT_COUNT>  (1) 
1

>  <PUBCHEM_CACTVS_TAUTO_COUNT>  (1) 
1

>  <PUBCHEM_CONFORMER_ID>  (1) 
0000043200000002

>  <PUBCHEM_MMFF94_ENERGY>  (1) 
-2.1588

>  <PUBCHEM_FEATURE_SELFOVERLAP>  (1) 
60.942

>  <PUBCHEM_SHAPE_FINGERPRINT>  (1) 
12423570 1 11577694554163421674
12932764 1 18261121720927995375
14250199 8 18273498953059781885
16945 1 18202288004544744022
170605 34 18343020029427312877
18186145 218 18342184400790721684
20653091 64 18268426837116796618
20711985 344 16972527937095147710
21028194 46 18114184171891177688
21524375 3 18198334246709897584
21947302 44 18342463676891941332
22112679 90 17550684218265101426
230 275 18413101749609595768
23211744 41 18268716184884559642
23552423 10 18270962332579169249
23557571 272 17385438817843167621
25 1 18272099343640545424
2748010 2 18264220255957984010
305870 269 18187355554318271938
3248919 1 17774999055802214311
5084963 1 17458354017374885579
7364860 26 18337387124126803178
74978 22 18267021648714364627
8030462 33 18265617589529687751
81228 2 17470452201803616762

>  <PUBCHEM_SHAPE_MULTIPOLES>  (1) 
245.01
4.75
2.13
1.2
3.68
0.11
0.39
2.13
0.5
-1.54
-0.65
0.05
-0.18
0.35

>  <PUBCHEM_SHAPE_SELFOVERLAP>  (1) 
477.822

>  <PUBCHEM_SHAPE_VOLUME>  (1) 
149.2

>  <PUBCHEM_COORDINATE_TYPE>  (1) 
2
5
10

$$$$
