10764
     RDKit          3D

 19 18  0  0  0  0  0  0  0  0999 V2000
    0.4121    0.1181    0.0413 O   0  0  0  0  0  0  0  0  0  0  0  0
   -0.5092   -1.5986   -1.1535 O   0  0  0  0  0  0  0  0  0  0  0  0
    4.1391   -0.0622    0.0994 N   0  0  0  0  0  0  0  0  0  0  0  0
   -1.8893   -0.0024   -0.1760 N   0  0  0  0  0  0  0  0  0  0  0  0
    2.7542    0.4799    0.4226 C   0  0  0  0  0  0  0  0  0  0  0  0
    4.2771   -1.4696    0.6618 C   0  0  0  0  0  0  0  0  0  0  0  0
    4.3305   -0.0979   -1.4099 C   0  0  0  0  0  0  0  0  0  0  0  0
    5.1948    0.8392    0.7234 C   0  0  0  0  0  0  0  0  0  0  0  0
    1.7071   -0.4034   -0.2267 C   0  0  0  0  0  0  0  0  0  0  0  0
    5.6556   -2.0028    0.3375 C   0  0  0  0  0  0  0  0  0  0  0  0
   -1.9997    1.2134    0.6240 C   0  0  0  0  0  0  0  0  0  0  0  0
   -3.1439   -0.5816   -0.6345 C   0  0  0  0  0  0  0  0  0  0  0  0
   -1.9744    2.4765   -0.2303 C   0  0  0  0  0  0  0  0  0  0  0  0
   -3.7145   -1.5916    0.3555 C   0  0  0  0  0  0  0  0  0  0  0  0
   -0.6516   -0.5768   -0.4840 C   0  0  0  0  0  0  0  0  0  0  0  0
   -2.0622    3.7546    0.6070 C   0  0  0  0  0  0  0  0  0  0  0  0
   -5.0192   -2.2233   -0.1352 C   0  0  0  0  0  0  0  0  0  0  0  0
   -1.9741    4.9969   -0.2655 C   0  0  0  0  0  0  0  0  0  0  0  0
   -5.5324   -3.2685    0.8431 C   0  0  0  0  0  0  0  0  0  0  0  0
  1  9  1  0
  1 15  1  0
  2 15  2  0
  3  5  1  0
  3  6  1  0
  3  7  1  0
  3  8  1  0
  4 11  1  0
  4 12  1  0
  4 15  1  0
  5  9  1  0
  6 10  1  0
 11 13  1  0
 12 14  1  0
 13 16  1  0
 14 17  1  0
 16 18  1  0
 17 19  1  0
M  CHG  1   3   1
M  END
>  <PUBCHEM_COMPOUND_CID>  (1) 
10764

>  <PUBCHEM_CONFORMER_RMSD>  (1) 
1

>  <PUBCHEM_CONFORMER_DIVERSEORDER>  (1) 
1
110
185
154
50
150
92
132
115
173
170
44
175
186
181
87
205
46
215
201
101
65
131
81
93
95
155
21
152
210
193
70
144
59
90
182
184
39
162
169
187
48
37
85
47
31
220
200
214
80
88
138
118
91
62
73
146
45
209
104
112
79
166
172
128
29
36
100
77
103
113
134
163
35
178
71
117
102
202
212
111
96
67
16
119
133
140
171
208
114
213
147
15
25
64
121
164
12
216
180
28
196
153
33
84
137
63
22
221
179
94
72
177
125
203
206
23
69
160
124
218
76
98
190
167
2
53
55
120
198
4
41
157
8
83
19
126
10
168
149
38
68
156
5
127
158
174
189
13
217
60
123
176
82
66
106
122
78
105
74
219
211
183
18
86
17
148
195
204
207
194
191
26
143
141
97
151
109
108
116
52
199
7
24
40
99
11
75
9
129
56
49
161
142
32
130
145
139
188
107
61
42
197
51
30
34
54
89
14
27
57
20
135
6
159
43
58
165
3
192
136

>  <PUBCHEM_MMFF94_PARTIAL_CHARGES>  (1) 
12
1 -0.43
11 0.3
12 0.3
15 0.78
2 -0.57
3 -1.01
4 -0.66
5 0.5
6 0.5
7 0.5
8 0.5
9 0.28

>  <PUBCHEM_EFFECTIVE_ROTOR_COUNT>  (1) 
12

>  <PUBCHEM_PHARMACOPHORE_FEATURES>  (1) 
4
1 18 hydrophobe
1 19 hydrophobe
1 2 acceptor
1 3 cation

>  <PUBCHEM_HEAVY_ATOM_COUNT>  (1) 
19

>  <PUBCHEM_ATOM_DEF_STEREO_COUNT>  (1) 
0

>  <PUBCHEM_ATOM_UDEF_STEREO_COUNT>  (1) 
0

>  <PUBCHEM_BOND_DEF_STEREO_COUNT>  (1) 
0

>  <PUBCHEM_BOND_UDEF_STEREO_COUNT>  (1) 
0

>  <PUBCHEM_ISOTOPIC_ATOM_COUNT>  (1) 
0

>  <PUBCHEM_COMPONENT_COUNT>  (1) 
1

>  <PUBCHEM_CACTVS_TAUTO_COUNT>  (1) 
1

>  <PUBCHEM_CONFORMER_ID>  (1) 
00002A0C00000001

>  <PUBCHEM_MMFF94_ENERGY>  (1) 
33.7719

>  <PUBCHEM_FEATURE_SELFOVERLAP>  (1) 
20.297

>  <PUBCHEM_SHAPE_FINGERPRINT>  (1) 
11045515 52 18187079602970619837
11056379 131 18338526252479994751
12107183 9 17614836315299244410
12516196 113 18337674247360197475
12788726 201 18335148612831129530
12892183 10 18411973651296818878
12916754 54 18186800275213358230
13073987 5 18411412892003598026
13955234 65 17546173356311978057
15042514 8 18411420596868880777
17492 89 18411418376371269450
17844677 252 18410858742258648984
1813 80 18128550434344235711
20286276 3 18195251018532200558
21426921 1 18338797814703905969
2297311 6 18341061794981461582
23402539 116 18343016722920069935
23557571 272 18412265008787601701
23558518 356 18189624830280557787
23845131 108 17766294076633631417
312423 11 18333740108903667652
5104073 3 18272646819106258050
59755656 520 17975687299687771885
633830 44 13398622884058181630
77188 2 18265897037567223365

>  <PUBCHEM_SHAPE_MULTIPOLES>  (1) 
369.31
12.77
4.76
0.97
9.1
6.97
-0.14
-11.58
2.1
-8.42
0.62
0.36
-0.14
0.35

>  <PUBCHEM_SHAPE_SELFOVERLAP>  (1) 
682.133

>  <PUBCHEM_SHAPE_VOLUME>  (1) 
235.8

>  <PUBCHEM_COORDINATE_TYPE>  (1) 
2
5
10

$$$$
