10770
     RDKit          3D

 19 20  0  0  1  0  0  0  0  0999 V2000
    1.4189   -1.5888   -0.5152 O   0  0  0  0  0  0  0  0  0  0  0  0
    1.6020   -1.2952    1.7606 O   0  0  0  0  0  0  0  0  0  0  0  0
   -2.2268   -1.2292    0.0307 N   0  0  0  0  0  0  0  0  0  0  0  0
   -3.0487   -0.0774    0.3969 C   0  0  0  0  0  0  0  0  0  0  0  0
   -2.9244    1.0125   -0.6737 C   0  0  0  0  0  0  0  0  0  0  0  0
   -4.5070   -0.5134    0.5750 C   0  0  0  0  0  0  0  0  0  0  0  0
   -3.8302    2.2030   -0.3636 C   0  0  0  0  0  0  0  0  0  0  0  0
   -5.4106    0.6791    0.8840 C   0  0  0  0  0  0  0  0  0  0  0  0
   -5.2816    1.7716   -0.1736 C   0  0  0  0  0  0  0  0  0  0  0  0
   -0.8288   -0.8465   -0.0943 C   0  0  0  0  0  0  0  0  0  0  0  0
    0.0670   -2.0399   -0.4351 C   0  0  0  0  0  0  0  0  0  0  0  0
   -0.2822   -2.6881   -1.7688 C   0  0  0  0  0  0  0  0  0  0  0  0
    1.9230   -1.0244    0.6138 C   0  0  0  0  0  0  0  0  0  0  0  0
    2.9452   -0.0026    0.2740 C   0  0  0  0  0  0  0  0  0  0  0  0
    3.9780    0.2275    1.1596 C   0  0  0  0  0  0  0  0  0  0  0  0
    2.8309    0.6847   -0.9170 C   0  0  0  0  0  0  0  0  0  0  0  0
    4.9386    1.1872    0.8404 C   0  0  0  0  0  0  0  0  0  0  0  0
    3.7916    1.6444   -1.2362 C   0  0  0  0  0  0  0  0  0  0  0  0
    4.8454    1.8956   -0.3574 C   0  0  0  0  0  0  0  0  0  0  0  0
  1 11  1  0
  1 13  1  0
  2 13  2  0
  3  4  1  0
  3 10  1  0
  4  5  1  0
  4  6  1  0
  5  7  1  0
  6  8  1  0
  7  9  1  0
  8  9  1  0
 10 11  1  0
 11 12  1  0
 13 14  1  0
 14 15  2  0
 14 16  1  0
 15 17  1  0
 16 18  2  0
 17 19  2  0
 18 19  1  0
M  END
>  <PUBCHEM_COMPOUND_CID>  (1) 
10770

>  <PUBCHEM_CONFORMER_RMSD>  (1) 
0.8

>  <PUBCHEM_CONFORMER_DIVERSEORDER>  (1) 
1
124
91
53
33
85
52
46
96
101
4
123
67
105
58
131
113
89
73
74
80
72
122
10
108
55
65
126
115
77
69
130
81
17
116
87
44
26
132
90
94
92
129
25
114
135
2
54
121
106
12
28
111
68
66
6
31
24
82
23
70
117
104
43
49
107
97
112
57
99
50
109
45
136
86
3
35
102
8
60
125
59
63
34
83
93
7
64
88
9
27
56
51
32
78
15
98
16
37
128
47
30
22
38
29
71
14
39
133
48
79
95
134
118
120
119
110
19
36
5
11
76
61
21
20
18
41
40
84
100
62
127
75
103
42
13

>  <PUBCHEM_MMFF94_PARTIAL_CHARGES>  (1) 
19
1 -0.43
10 0.27
11 0.28
13 0.63
14 0.09
15 -0.15
16 -0.15
17 -0.15
18 -0.15
19 -0.15
2 -0.57
3 -0.9
31 0.36
38 0.15
39 0.15
4 0.27
40 0.15
41 0.15
42 0.15

>  <PUBCHEM_EFFECTIVE_ROTOR_COUNT>  (1) 
7.2

>  <PUBCHEM_PHARMACOPHORE_FEATURES>  (1) 
5
1 2 acceptor
1 3 cation
1 3 donor
6 14 15 16 17 18 19 rings
6 4 5 6 7 8 9 rings

>  <PUBCHEM_HEAVY_ATOM_COUNT>  (1) 
19

>  <PUBCHEM_ATOM_DEF_STEREO_COUNT>  (1) 
0

>  <PUBCHEM_ATOM_UDEF_STEREO_COUNT>  (1) 
1

>  <PUBCHEM_BOND_DEF_STEREO_COUNT>  (1) 
0

>  <PUBCHEM_BOND_UDEF_STEREO_COUNT>  (1) 
0

>  <PUBCHEM_ISOTOPIC_ATOM_COUNT>  (1) 
0

>  <PUBCHEM_COMPONENT_COUNT>  (1) 
1

>  <PUBCHEM_CACTVS_TAUTO_COUNT>  (1) 
1

>  <PUBCHEM_CONFORMER_ID>  (1) 
00002A1200000001

>  <PUBCHEM_MMFF94_ENERGY>  (1) 
34.0289

>  <PUBCHEM_FEATURE_SELFOVERLAP>  (1) 
25.372

>  <PUBCHEM_SHAPE_FINGERPRINT>  (1) 
10498660 4 18060138747369722345
10670039 82 18271540697360847484
11552529 35 16952820724802871818
12363563 72 11314310520726822791
12403259 118 18261105300919843769
12555020 224 10015580568007090161
12596602 18 16732703882726735217
12633257 1 15864354691907353284
12892183 10 17458626679558701091
12978246 48 18335706065269123157
13583140 156 17168688765985803911
14123255 52 18341330067349808990
14123256 34 8430315774687768737
1420 369 7853857186963167369
14251764 30 12318872817644770509
14251764 38 18049156662524515397
14341114 328 17821450183322191169
14576447 43 11383838181986425240
14774955 27 18410569561852257149
15183329 4 12175633845603929867
15188451 53 15141254277748011169
15342168 16 18341612586330626935
15342816 4 10375602516316762104
15961568 22 18261398832139247949
1601671 61 18412545413906252032
17834072 32 18341331179662280308
1798214 20 10807938158621307864
1798214 55 18343301465770488348
18222031 100 12757152385100960755
18785283 64 18267021657115161966
19784866 240 9151178666290026039
20369508 70 7925615697006624231
20403669 9 8286201660517098225
20645477 56 17987804153969657102
20715895 44 17756132398532942869
20832881 197 8718825388770732695
21452121 103 18409166571924668918
21503847 285 18114464474837721146
21756936 100 18116436036857268602
23403322 49 9511458927266680953
23559900 14 18050852113749363711
2838139 119 18341043094915588900
3057174 1 17632577115375152511
314173 85 12324236157121765383
3472631 163 18200594834069082996
351380 3 8935003672046961176
38570 142 17024617674988159844
465052 167 8214134179475030593
474144 1 17241631556862738557
4921388 177 15625932192794400013
5104073 3 18042413439541987065
7808743 9 18340204219114643968
7970288 3 8070034367240189288
960060 61 13326855543488299824

>  <PUBCHEM_SHAPE_MULTIPOLES>  (1) 
374.29
12.49
2.54
1.3
5.01
0.61
-0.03
-9.87
2.08
0.28
-1.02
-0.76
0.36
-0.3

>  <PUBCHEM_SHAPE_SELFOVERLAP>  (1) 
767.596

>  <PUBCHEM_SHAPE_VOLUME>  (1) 
214.4

>  <PUBCHEM_COORDINATE_TYPE>  (1) 
2
5
10

$$$$
