10785
     RDKit          3D

  8  8  0  0  1  0  0  0  0  0999 V2000
   -1.9811   -1.1546    0.0530 O   0  0  0  0  0  0  0  0  0  0  0  0
   -1.5148    1.4915    0.3110 O   0  0  0  0  0  0  0  0  0  0  0  0
    1.7608   -0.9239   -0.0896 C   0  0  0  0  0  0  0  0  0  0  0  0
    0.3813   -1.4779    0.2571 C   0  0  0  0  0  0  0  0  0  0  0  0
    1.8744    0.5485    0.3022 C   0  0  0  0  0  0  0  0  0  0  0  0
   -0.7321   -0.6770   -0.4079 C   0  0  0  0  0  0  0  0  0  0  0  0
    0.7878    1.3949   -0.3479 C   0  0  0  0  0  0  0  0  0  0  0  0
   -0.5764    0.7986   -0.0779 C   0  0  0  0  0  0  0  0  0  0  0  0
  1  6  1  0
  2  8  2  0
  3  4  1  0
  3  5  1  0
  4  6  1  0
  5  7  1  0
  6  8  1  0
  7  8  1  0
M  END
>  <PUBCHEM_COMPOUND_CID>  (1) 
10785

>  <PUBCHEM_CONFORMER_RMSD>  (1) 
0.4

>  <PUBCHEM_CONFORMER_DIVERSEORDER>  (1) 
2
3
4
1

>  <PUBCHEM_MMFF94_PARTIAL_CHARGES>  (1) 
6
1 -0.68
18 0.4
2 -0.57
6 0.34
7 0.06
8 0.45

>  <PUBCHEM_EFFECTIVE_ROTOR_COUNT>  (1) 
1

>  <PUBCHEM_PHARMACOPHORE_FEATURES>  (1) 
4
1 1 acceptor
1 1 donor
1 2 acceptor
6 3 4 5 6 7 8 rings

>  <PUBCHEM_HEAVY_ATOM_COUNT>  (1) 
8

>  <PUBCHEM_ATOM_DEF_STEREO_COUNT>  (1) 
0

>  <PUBCHEM_ATOM_UDEF_STEREO_COUNT>  (1) 
1

>  <PUBCHEM_BOND_DEF_STEREO_COUNT>  (1) 
0

>  <PUBCHEM_BOND_UDEF_STEREO_COUNT>  (1) 
0

>  <PUBCHEM_ISOTOPIC_ATOM_COUNT>  (1) 
0

>  <PUBCHEM_COMPONENT_COUNT>  (1) 
1

>  <PUBCHEM_CACTVS_TAUTO_COUNT>  (1) 
3

>  <PUBCHEM_CONFORMER_ID>  (1) 
00002A2100000002

>  <PUBCHEM_MMFF94_ENERGY>  (1) 
1.1629

>  <PUBCHEM_FEATURE_SELFOVERLAP>  (1) 
20.304

>  <PUBCHEM_SHAPE_FINGERPRINT>  (1) 
18185500 45 18336542703459678082
20096714 4 18196370312541341466
21040471 1 18122906421656787964
23552423 10 18261115145185424230
241688 4 18335980861697451192
24536 1 18339624677549382542
29004967 10 18118966029601755427

>  <PUBCHEM_SHAPE_MULTIPOLES>  (1) 
152.9
2.28
1.79
0.66
0.01
0.08
0.02
-0.15
-0.15
0.19
-0.04
-0.04
0.01
-0.09

>  <PUBCHEM_SHAPE_SELFOVERLAP>  (1) 
300.29

>  <PUBCHEM_SHAPE_VOLUME>  (1) 
90.8

>  <PUBCHEM_COORDINATE_TYPE>  (1) 
2
5
10

$$$$
