10783
     RDKit          3D

  9  9  0  0  0  0  0  0  0  0999 V2000
   -3.9569    0.0176   -0.0955 Cl  0  0  0  0  0  0  0  0  0  0  0  0
    0.8880    1.7711    0.1425 S   0  0  0  0  0  0  0  0  0  0  0  0
    2.3254   -0.3402   -0.2558 N   0  0  0  0  0  0  0  0  0  0  0  0
   -1.3086    0.1542    0.6291 C   0  0  0  0  0  0  0  0  0  0  0  0
    0.1252    0.2419    0.2871 C   0  0  0  0  0  0  0  0  0  0  0  0
    1.0431   -0.7579    0.0423 C   0  0  0  0  0  0  0  0  0  0  0  0
   -2.2508    0.1499   -0.5891 C   0  0  0  0  0  0  0  0  0  0  0  0
    0.7741   -2.2102    0.0715 C   0  0  0  0  0  0  0  0  0  0  0  0
    2.3606    0.9736   -0.2320 C   0  0  0  0  0  0  0  0  0  0  0  0
  1  7  1  0
  2  5  1  0
  2  9  1  0
  3  6  1  0
  3  9  2  0
  4  5  1  0
  4  7  1  0
  5  6  2  0
  6  8  1  0
M  END
>  <PUBCHEM_COMPOUND_CID>  (1) 
10783

>  <PUBCHEM_CONFORMER_RMSD>  (1) 
0.4

>  <PUBCHEM_CONFORMER_DIVERSEORDER>  (1) 
1
15
16
12
13
7
10
11
4
2
14
6
3
9
5
8

>  <PUBCHEM_MMFF94_PARTIAL_CHARGES>  (1) 
10
1 -0.29
17 0.15
2 -0.08
3 -0.57
4 0.18
5 -0.14
6 0.05
7 0.29
8 0.18
9 0.23

>  <PUBCHEM_EFFECTIVE_ROTOR_COUNT>  (1) 
2

>  <PUBCHEM_PHARMACOPHORE_FEATURES>  (1) 
2
1 3 acceptor
5 2 3 5 6 9 rings

>  <PUBCHEM_HEAVY_ATOM_COUNT>  (1) 
9

>  <PUBCHEM_ATOM_DEF_STEREO_COUNT>  (1) 
0

>  <PUBCHEM_ATOM_UDEF_STEREO_COUNT>  (1) 
0

>  <PUBCHEM_BOND_DEF_STEREO_COUNT>  (1) 
0

>  <PUBCHEM_BOND_UDEF_STEREO_COUNT>  (1) 
0

>  <PUBCHEM_ISOTOPIC_ATOM_COUNT>  (1) 
0

>  <PUBCHEM_COMPONENT_COUNT>  (1) 
1

>  <PUBCHEM_CACTVS_TAUTO_COUNT>  (1) 
1

>  <PUBCHEM_CONFORMER_ID>  (1) 
00002A1F00000001

>  <PUBCHEM_MMFF94_ENERGY>  (1) 
5.385

>  <PUBCHEM_FEATURE_SELFOVERLAP>  (1) 
10.148

>  <PUBCHEM_SHAPE_FINGERPRINT>  (1) 
12897270 3 18409165523994690909
14325111 11 18337953501648431109
18185500 45 18271526373227508338
20201158 50 18334013874229524003
20645477 70 18339354163983761591
21040471 1 18194123142987413344
21293036 1 18410301336665031820
23235685 24 18336542815070922473
23402655 69 18411975850330799597
23552333 60 18130505245279425531
23552423 10 18193844738637921763
2748010 2 18122074357674033056
29004967 10 18336270054524683904

>  <PUBCHEM_SHAPE_MULTIPOLES>  (1) 
185.95
4.62
1.76
0.73
5.28
0.58
0.01
-0.53
-0.63
-1.15
0.06
0.13
-0.04
-0.01

>  <PUBCHEM_SHAPE_SELFOVERLAP>  (1) 
348.159

>  <PUBCHEM_SHAPE_VOLUME>  (1) 
119.5

>  <PUBCHEM_COORDINATE_TYPE>  (1) 
2
5
10

$$$$
