1078
     RDKit          2D

 24 26  0  0  1  0  0  0  0  0999 V2000
    0.0000    0.0000    0.0000 S   0  0  0  0  0  0  0  0  0  0  0  0
    0.0000    0.0000    0.0000 O   0  0  0  0  0  0  0  0  0  0  0  0
    0.0000    0.0000    0.0000 O   0  0  0  0  0  0  0  0  0  0  0  0
    0.0000    0.0000    0.0000 O   0  0  0  0  0  0  0  0  0  0  0  0
    0.0000    0.0000    0.0000 N   0  0  0  0  0  0  0  0  0  0  0  0
    0.0000    0.0000    0.0000 N   0  0  0  0  0  0  0  0  0  0  0  0
    0.0000    0.0000    0.0000 N   0  0  0  0  0  0  0  0  0  0  0  0
    0.0000    0.0000    0.0000 N   0  0  0  0  0  0  0  0  0  0  0  0
    0.0000    0.0000    0.0000 N   0  0  0  0  0  0  0  0  0  0  0  0
    0.0000    0.0000    0.0000 N   0  0  0  0  0  0  0  0  0  0  0  0
    0.0000    0.0000    0.0000 C   0  0  0  0  0  0  0  0  0  0  0  0
    0.0000    0.0000    0.0000 C   0  0  0  0  0  0  0  0  0  0  0  0
    0.0000    0.0000    0.0000 C   0  0  0  0  0  0  0  0  0  0  0  0
    0.0000    0.0000    0.0000 C   0  0  0  0  0  0  0  0  0  0  0  0
    0.0000    0.0000    0.0000 C   0  0  0  0  0  0  0  0  0  0  0  0
    0.0000    0.0000    0.0000 C   0  0  0  0  0  0  0  0  0  0  0  0
    0.0000    0.0000    0.0000 C   0  0  0  0  0  0  0  0  0  0  0  0
    0.0000    0.0000    0.0000 C   0  0  0  0  0  0  0  0  0  0  0  0
    0.0000    0.0000    0.0000 C   0  0  0  0  0  0  0  0  0  0  0  0
    0.0000    0.0000    0.0000 C   0  0  0  0  0  0  0  0  0  0  0  0
    0.0000    0.0000    0.0000 C   0  0  0  0  0  0  0  0  0  0  0  0
    0.0000    0.0000    0.0000 C   0  0  0  0  0  0  0  0  0  0  0  0
    0.0000    0.0000    0.0000 C   0  0  0  0  0  0  0  0  0  0  0  0
    0.0000    0.0000    0.0000 C   0  0  0  0  0  0  0  0  0  0  0  0
  1 15  1  0
  1 16  1  0
  1 19  1  0
  2 11  1  0
  2 14  1  0
  3 12  1  0
  4 13  1  0
  5 14  1  0
  5 17  1  0
  5 18  1  0
  6 18  2  0
  6 21  1  0
  7 17  1  0
  7 24  2  0
  8 23  2  0
  8 24  1  0
  9 22  1  0
 10 23  1  0
 11 12  1  0
 11 15  1  0
 12 13  1  0
 13 14  1  0
 16 20  1  0
 17 21  2  0
 20 22  1  0
 21 23  1  0
M  CHG  1   1   1
M  END
>  <PUBCHEM_COMPOUND_CID>  (1) 
1078

>  <PUBCHEM_CONFORMER_RMSD>  (1) 
0.8

>  <PUBCHEM_CONFORMER_DIVERSEORDER>  (1) 
73
414
1
440
178
152
79
312
148
288
8
145
415
165
373
234
61
36
356
422
447
309
457
75
157
87
434
154
293
242
223
463
386
167
370
50
261
321
130
204
462
89
347
216
43
92
127
153
271
74
320
161
239
60
168
9
443
433
58
456
131
55
431
361
224
173
341
285
436
86
281
357
181
291
292
435
78
441
303
372
5
4
299
230
54
391
417
142
339
12
365
442
184
266
238
221
450
32
62
175
202
129
198
69
188
368
263
364
399
461
106
160
464
114
248
23
400
389
444
117
120
406
362
90
379
128
14
35
41
378
287
448
138
302
342
123
340
264
133
84
220
374
189
88
267
229
47
334
119
306
326
66
105
219
388
197
446
64
24
437
311
185
151
349
360
371
116
351
122
428
268
163
51
53
16
179
330
18
72
11
28
135
290
102
377
426
214
10
397
255
132
260
359
147
363
99
369
355
253
401
315
217
71
121
211
257
458
380
29
254
333
232
313
45
34
301
455
104
283
394
17
193
44
82
65
134
215
430
85
183
416
196
150
393
162
139
344
22
83
304
222
286
298
280
7
459
201
407
192
97
59
136
296
13
241
314
109
209
207
144
279
235
307
125
70
323
38
212
182
245
419
171
408
169
159
187
155
367
124
262
218
335
451
332
297
429
427
101
383
2
256
93
115
63
305
278
336
418
103
76
404
210
194
396
158
327
308
259
96
180
164
177
21
272
425
19
200
227
231
348
319
277
337
49
107
15
205
453
25
317
126
460
108
274
246
111
94
449
68
233
37
166
56
195
325
328
438
445
282
237
338
80
30
350
375
353
20
140
403
269
324
186
395
352
392
345
190
424
57
226
112
250
421
410
390
98
385
252
118
265
146
199
331
366
31
420
249
452
100
432
6
346
358
33
213
236
423
208
156
295
258
40
247
77
143
191
381
273
409
275
174
27
310
384
3
412
206
289
170
225
454
81
294
39
95
439
251
318
149
343
91
300
405
322
411
382
316
26
270
398
46
203
387
228
354
240
137
413
376
402
110
67
284
113
48
276
244
52
172
176
243
329
141
42

>  <PUBCHEM_EFFECTIVE_ROTOR_COUNT>  (1) 
7

>  <PUBCHEM_PHARMACOPHORE_FEATURES>  (1) 
15
1 10 cation
1 10 donor
1 2 acceptor
1 3 acceptor
1 3 donor
1 4 acceptor
1 4 donor
1 9 cation
1 9 donor
3 5 6 18 cation
3 5 7 17 cation
3 7 8 24 cation
5 2 11 12 13 14 rings
5 5 6 17 18 21 rings
6 7 8 17 21 23 24 rings

>  <PUBCHEM_HEAVY_ATOM_COUNT>  (1) 
24

>  <PUBCHEM_ATOM_DEF_STEREO_COUNT>  (1) 
0

>  <PUBCHEM_ATOM_UDEF_STEREO_COUNT>  (1) 
4

>  <PUBCHEM_BOND_DEF_STEREO_COUNT>  (1) 
0

>  <PUBCHEM_BOND_UDEF_STEREO_COUNT>  (1) 
0

>  <PUBCHEM_ISOTOPIC_ATOM_COUNT>  (1) 
0

>  <PUBCHEM_COMPONENT_COUNT>  (1) 
1

>  <PUBCHEM_CACTVS_TAUTO_COUNT>  (1) 
3

$$$$
