10780
     RDKit          3D

 15 15  0  0  0  0  0  0  0  0999 V2000
   -1.1225    2.5959   -0.3942 Cl  0  0  0  0  0  0  0  0  0  0  0  0
   -5.3071   -0.7719   -0.7995 Cl  0  0  0  0  0  0  0  0  0  0  0  0
    0.2223    0.2421    0.9034 O   0  0  0  0  0  0  0  0  0  0  0  0
    3.4946   -0.6203   -0.2500 O   0  0  0  0  0  0  0  0  0  0  0  0
    2.6696    1.3330    0.6623 O   0  0  0  0  0  0  0  0  0  0  0  0
   -1.0625    0.0284    0.5006 C   0  0  0  0  0  0  0  0  0  0  0  0
    1.2281   -0.5868    0.3254 C   0  0  0  0  0  0  0  0  0  0  0  0
   -1.8042    1.0359   -0.1163 C   0  0  0  0  0  0  0  0  0  0  0  0
   -1.6331   -1.2263    0.7146 C   0  0  0  0  0  0  0  0  0  0  0  0
    4.7922   -0.0258   -0.3567 C   0  0  0  0  0  0  0  0  0  0  0  0
    2.5236    0.1796    0.2807 C   0  0  0  0  0  0  0  0  0  0  0  0
   -3.1167    0.7887   -0.5189 C   0  0  0  0  0  0  0  0  0  0  0  0
   -2.9454   -1.4735    0.3122 C   0  0  0  0  0  0  0  0  0  0  0  0
   -3.6873   -0.4659   -0.3047 C   0  0  0  0  0  0  0  0  0  0  0  0
    5.7483   -1.0333   -0.9588 C   0  0  0  0  0  0  0  0  0  0  0  0
  1  8  1  0
  2 14  1  0
  3  6  1  0
  3  7  1  0
  4 10  1  0
  4 11  1  0
  5 11  2  0
  6  8  2  0
  6  9  1  0
  7 11  1  0
  8 12  1  0
  9 13  2  0
 10 15  1  0
 12 14  2  0
 13 14  1  0
M  END
>  <PUBCHEM_COMPOUND_CID>  (1) 
10780

>  <PUBCHEM_CONFORMER_RMSD>  (1) 
0.6

>  <PUBCHEM_CONFORMER_DIVERSEORDER>  (1) 
1
123
72
180
87
42
188
39
67
125
94
160
116
202
107
174
121
196
147
148
120
146
108
114
172
154
218
191
28
97
235
159
208
86
211
84
80
81
210
163
10
141
225
58
13
151
243
54
175
209
190
194
217
15
140
22
195
223
201
34
228
167
183
241
17
231
85
61
193
186
215
203
135
181
230
27
18
192
224
47
216
96
207
226
177
44
9
179
20
100
102
173
205
5
176
23
16
113
35
227
156
145
46
14
91
73
62
166
187
2
109
239
24
69
134
119
242
240
110
150
30
12
112
149
219
237
98
89
130
8
234
66
233
29
111
168
184
117
101
55
129
77
204
56
118
71
238
144
41
79
138
220
198
105
6
70
36
171
74
199
206
33
155
59
25
40
95
60
76
103
213
157
21
200
139
106
182
170
161
169
132
124
115
43
53
153
158
136
164
143
185
88
92
37
38
229
232
3
82
142
83
128
197
127
32
50
48
11
131
178
52
104
99
212
19
31
236
90
64
162
165
51
78
137
189
63
122
26
75
57
221
222
7
65
68
126
49
4
133
45
152
93
214

>  <PUBCHEM_MMFF94_PARTIAL_CHARGES>  (1) 
17
1 -0.18
10 0.28
11 0.66
12 -0.15
13 -0.15
14 0.18
18 0.15
2 -0.18
21 0.15
22 0.15
3 -0.36
4 -0.43
5 -0.57
6 0.08
7 0.34
8 0.18
9 -0.15

>  <PUBCHEM_EFFECTIVE_ROTOR_COUNT>  (1) 
5

>  <PUBCHEM_PHARMACOPHORE_FEATURES>  (1) 
3
1 3 acceptor
1 5 acceptor
6 6 8 9 12 13 14 rings

>  <PUBCHEM_HEAVY_ATOM_COUNT>  (1) 
15

>  <PUBCHEM_ATOM_DEF_STEREO_COUNT>  (1) 
0

>  <PUBCHEM_ATOM_UDEF_STEREO_COUNT>  (1) 
0

>  <PUBCHEM_BOND_DEF_STEREO_COUNT>  (1) 
0

>  <PUBCHEM_BOND_UDEF_STEREO_COUNT>  (1) 
0

>  <PUBCHEM_ISOTOPIC_ATOM_COUNT>  (1) 
0

>  <PUBCHEM_COMPONENT_COUNT>  (1) 
1

>  <PUBCHEM_CACTVS_TAUTO_COUNT>  (1) 
1

>  <PUBCHEM_CONFORMER_ID>  (1) 
00002A1C00000001

>  <PUBCHEM_MMFF94_ENERGY>  (1) 
31.8559

>  <PUBCHEM_FEATURE_SELFOVERLAP>  (1) 
15.23

>  <PUBCHEM_SHAPE_FINGERPRINT>  (1) 
12186901 62 18261670394140950245
12251169 10 10592040267257172170
12670543 26 18335695010339080527
13288520 33 18343866606389254863
13551218 46 12535362159674389316
14350574 20 18060421322216626678
14911166 2 18188198888827903063
15048467 5 15791721989512312535
17870717 6 18339936926151762510
1813 80 15410626895332598536
18186145 218 17458616873826461205
187816 3 18040714775306826723
19433438 38 18272653394516506406
1986462 14 18411986827992654388
200 152 17489587861380701506
20300324 65 18334861593283611876
20374829 77 18412821399988403339
20645476 183 16950562216213365931
20645477 70 17917714587377880142
20871999 31 18260540105125853245
21267235 1 18336271214772599579
21637258 2 16415467273364023447
22926399 37 15574714694371850229
2297311 6 18409175402081829206
23379529 103 17694488644383961991
23402539 116 18410289190460563005
23403322 49 18273217465351007054
23503953 91 10591751083236242546
23557571 272 18412830153063233093
23559900 14 18336260249446831872
2748010 2 17682104819239082899
2871803 45 18409164411577166122
3286 77 17203325645413016473
4028521 119 18040990726591675877

>  <PUBCHEM_SHAPE_MULTIPOLES>  (1) 
294.82
10.97
1.76
0.9
10.66
1.09
-0.04
-4.27
-4.4
-0.92
-0.09
0.09
-0.09
0.59

>  <PUBCHEM_SHAPE_SELFOVERLAP>  (1) 
583.135

>  <PUBCHEM_SHAPE_VOLUME>  (1) 
177.2

>  <PUBCHEM_COORDINATE_TYPE>  (1) 
2
5
10

$$$$
