10798
     RDKit          3D

  6  6  0  0  0  0  0  0  0  0999 V2000
   -0.0887   -1.1120   -0.0115 N   0  0  0  0  0  0  0  0  0  0  0  0
    0.0699    1.1581    0.0078 N   0  0  0  0  0  0  0  0  0  0  0  0
   -1.4726   -0.7466    0.0167 C   0  0  0  0  0  0  0  0  0  0  0  0
   -1.3786    0.7863   -0.0113 C   0  0  0  0  0  0  0  0  0  0  0  0
    0.6899    0.0053   -0.0076 C   0  0  0  0  0  0  0  0  0  0  0  0
    2.1802   -0.0912    0.0058 C   0  0  0  0  0  0  0  0  0  0  0  0
  1  3  1  0
  1  5  1  0
  2  4  1  0
  2  5  2  0
  3  4  1  0
  5  6  1  0
M  END
>  <PUBCHEM_COMPOUND_CID>  (1) 
10798

>  <PUBCHEM_CONFORMER_RMSD>  (1) 
0.4

>  <PUBCHEM_CONFORMER_DIVERSEORDER>  (1) 
1

>  <PUBCHEM_MMFF94_PARTIAL_CHARGES>  (1) 
7
1 -0.82
11 0.4
2 -0.7
3 0.37
4 0.25
5 0.44
6 0.06

>  <PUBCHEM_EFFECTIVE_ROTOR_COUNT>  (1) 
0.6

>  <PUBCHEM_PHARMACOPHORE_FEATURES>  (1) 
3
1 1 donor
3 1 2 5 cation
5 1 2 3 4 5 rings

>  <PUBCHEM_HEAVY_ATOM_COUNT>  (1) 
6

>  <PUBCHEM_ATOM_DEF_STEREO_COUNT>  (1) 
0

>  <PUBCHEM_ATOM_UDEF_STEREO_COUNT>  (1) 
0

>  <PUBCHEM_BOND_DEF_STEREO_COUNT>  (1) 
0

>  <PUBCHEM_BOND_UDEF_STEREO_COUNT>  (1) 
0

>  <PUBCHEM_ISOTOPIC_ATOM_COUNT>  (1) 
0

>  <PUBCHEM_COMPONENT_COUNT>  (1) 
1

>  <PUBCHEM_CACTVS_TAUTO_COUNT>  (1) 
1

>  <PUBCHEM_CONFORMER_ID>  (1) 
00002A2E00000001

>  <PUBCHEM_MMFF94_ENERGY>  (1) 
16.1202

>  <PUBCHEM_FEATURE_SELFOVERLAP>  (1) 
15.223

>  <PUBCHEM_SHAPE_FINGERPRINT>  (1) 
139733 1 9295023357077672962
16714656 1 18410580573805350126
20096714 4 18338235946987070328
21015797 1 9221501222257520033
21040471 1 18194682562097948133
23552423 10 18260555476650456974
29004967 10 18335708298635519914
5460574 1 9295293841428258466
5943 1 12994401044235210741

>  <PUBCHEM_SHAPE_MULTIPOLES>  (1) 
113.52
2.28
1.16
0.59
0.88
0.03
0
-0.09
0.01
-0.3
0
0
0
0

>  <PUBCHEM_SHAPE_SELFOVERLAP>  (1) 
219.578

>  <PUBCHEM_SHAPE_VOLUME>  (1) 
69.3

>  <PUBCHEM_COORDINATE_TYPE>  (1) 
2
5
10

$$$$
