10807
     RDKit          3D

  8  7  0  0  1  0  0  0  0  0999 V2000
   -2.9106   -0.5107    0.2540 Cl  0  0  0  0  0  0  0  0  0  0  0  0
    0.9202    0.2860    0.2061 O   0  0  0  0  0  0  0  0  0  0  0  0
   -0.3002   -1.5731   -0.3959 O   0  0  0  0  0  0  0  0  0  0  0  0
   -1.4136    0.4485    0.3938 C   0  0  0  0  0  0  0  0  0  0  0  0
    2.1304   -0.4065   -0.1164 C   0  0  0  0  0  0  0  0  0  0  0  0
   -0.2343   -0.4231    0.0172 C   0  0  0  0  0  0  0  0  0  0  0  0
   -1.4992    1.6702   -0.5047 C   0  0  0  0  0  0  0  0  0  0  0  0
    3.3072    0.5088    0.1460 C   0  0  0  0  0  0  0  0  0  0  0  0
  1  4  1  0
  2  5  1  0
  2  6  1  0
  3  6  2  0
  4  6  1  0
  4  7  1  0
  5  8  1  0
M  END
>  <PUBCHEM_COMPOUND_CID>  (1) 
10807

>  <PUBCHEM_CONFORMER_RMSD>  (1) 
0.6

>  <PUBCHEM_CONFORMER_DIVERSEORDER>  (1) 
1
19
2
21
22
18
10
17
28
25
27
4
3
12
23
24
20
13
7
9
16
26
14
5
8
6
11
15

>  <PUBCHEM_MMFF94_PARTIAL_CHARGES>  (1) 
6
1 -0.29
2 -0.43
3 -0.57
4 0.35
5 0.28
6 0.66

>  <PUBCHEM_EFFECTIVE_ROTOR_COUNT>  (1) 
3

>  <PUBCHEM_PHARMACOPHORE_FEATURES>  (1) 
1
1 3 acceptor

>  <PUBCHEM_HEAVY_ATOM_COUNT>  (1) 
8

>  <PUBCHEM_ATOM_DEF_STEREO_COUNT>  (1) 
0

>  <PUBCHEM_ATOM_UDEF_STEREO_COUNT>  (1) 
1

>  <PUBCHEM_BOND_DEF_STEREO_COUNT>  (1) 
0

>  <PUBCHEM_BOND_UDEF_STEREO_COUNT>  (1) 
0

>  <PUBCHEM_ISOTOPIC_ATOM_COUNT>  (1) 
0

>  <PUBCHEM_COMPONENT_COUNT>  (1) 
1

>  <PUBCHEM_CACTVS_TAUTO_COUNT>  (1) 
1

>  <PUBCHEM_CONFORMER_ID>  (1) 
00002A3700000001

>  <PUBCHEM_MMFF94_ENERGY>  (1) 
5.6315

>  <PUBCHEM_FEATURE_SELFOVERLAP>  (1) 
5.074

>  <PUBCHEM_SHAPE_FINGERPRINT>  (1) 
10857977 72 18335419105781881001
11062470 55 14056716863748175819
12932764 1 18059848472305604786
14325111 11 18412263900337703832
14390081 3 18410571752053586192
16714656 1 18411701014777162903
21040471 1 18340484469972810786
23235685 24 17775567537404292696
23552423 10 18189058586002648898
29004967 10 15482675675480241719
5084963 1 18411423886217678672
5460574 1 8790887376011551850

>  <PUBCHEM_SHAPE_MULTIPOLES>  (1) 
154.77
4.54
1.36
0.68
2.38
0.21
0
0.32
0.41
-0.61
-0.25
-0.09
0.03
0.2

>  <PUBCHEM_SHAPE_SELFOVERLAP>  (1) 
274.457

>  <PUBCHEM_SHAPE_VOLUME>  (1) 
102.1

>  <PUBCHEM_COORDINATE_TYPE>  (1) 
2
5
10

$$$$
