10801
     RDKit          3D

 11 10  0  0  0  0  0  0  0  0999 V2000
    0.9411   -2.3925   -0.7209 O   0  0  0  0  0  0  0  0  0  0  0  0
    1.1282    2.3599   -0.6927 O   0  0  0  0  0  0  0  0  0  0  0  0
    1.6957   -1.3932    1.1677 O   0  0  0  0  0  0  0  0  0  0  0  0
    1.8045    1.2968    1.1960 O   0  0  0  0  0  0  0  0  0  0  0  0
   -0.5663    0.0467   -1.0807 C   0  0  0  0  0  0  0  0  0  0  0  0
   -1.5279    0.0054    0.1155 C   0  0  0  0  0  0  0  0  0  0  0  0
    0.9204   -0.0008   -0.6827 C   0  0  0  0  0  0  0  0  0  0  0  0
   -3.0010    0.0996   -0.2922 C   0  0  0  0  0  0  0  0  0  0  0  0
   -3.9634    0.0279    0.8834 C   0  0  0  0  0  0  0  0  0  0  0  0
    1.2372   -1.3035    0.0368 C   0  0  0  0  0  0  0  0  0  0  0  0
    1.3316    1.2537    0.0699 C   0  0  0  0  0  0  0  0  0  0  0  0
  1 10  1  0
  2 11  1  0
  3 10  2  0
  4 11  2  0
  5  6  1  0
  5  7  1  0
  6  8  1  0
  7 10  1  0
  7 11  1  0
  8  9  1  0
M  END
>  <PUBCHEM_COMPOUND_CID>  (1) 
10801

>  <PUBCHEM_CONFORMER_RMSD>  (1) 
0.6

>  <PUBCHEM_CONFORMER_DIVERSEORDER>  (1) 
1
40
22
10
30
39
23
37
32
35
2
33
41
14
36
25
34
16
5
31
28
29
38
24
27
20
21
6
3
4
26
19
12
8
18
13
11
9
17
15
7

>  <PUBCHEM_MMFF94_PARTIAL_CHARGES>  (1) 
9
1 -0.65
10 0.66
11 0.66
2 -0.65
22 0.5
23 0.5
3 -0.57
4 -0.57
7 0.12

>  <PUBCHEM_EFFECTIVE_ROTOR_COUNT>  (1) 
5

>  <PUBCHEM_PHARMACOPHORE_FEATURES>  (1) 
9
1 1 acceptor
1 2 acceptor
1 3 acceptor
1 4 acceptor
1 7 anion
1 9 hydrophobe
3 1 3 10 anion
3 2 4 11 anion
4 5 6 7 8 hydrophobe

>  <PUBCHEM_HEAVY_ATOM_COUNT>  (1) 
11

>  <PUBCHEM_ATOM_DEF_STEREO_COUNT>  (1) 
0

>  <PUBCHEM_ATOM_UDEF_STEREO_COUNT>  (1) 
0

>  <PUBCHEM_BOND_DEF_STEREO_COUNT>  (1) 
0

>  <PUBCHEM_BOND_UDEF_STEREO_COUNT>  (1) 
0

>  <PUBCHEM_ISOTOPIC_ATOM_COUNT>  (1) 
0

>  <PUBCHEM_COMPONENT_COUNT>  (1) 
1

>  <PUBCHEM_CACTVS_TAUTO_COUNT>  (1) 
1

>  <PUBCHEM_CONFORMER_ID>  (1) 
00002A3100000001

>  <PUBCHEM_MMFF94_ENERGY>  (1) 
7.2433

>  <PUBCHEM_FEATURE_SELFOVERLAP>  (1) 
46.293

>  <PUBCHEM_SHAPE_FINGERPRINT>  (1) 
12932764 1 18411144628108698709
15775835 57 17774440602505621705
20559304 39 18059866013020639593
20653091 64 18336557005627011873
20711978 78 18340196402152716463
20871998 22 18123472678640374094
21040471 1 18053379096027165916
21061003 4 18195232326496710402
21524375 3 17978791534086595005
21730867 7 18334584568066859219
230 275 18341333378891251149
23552449 11 18334572408882705367
528862 383 18409720785629546219
81228 2 17400915302375133452

>  <PUBCHEM_SHAPE_MULTIPOLES>  (1) 
202.9
4.35
1.99
1.11
6.44
0.09
0.12
-0.18
1.41
-1.91
-0.17
-0.16
0
0.01

>  <PUBCHEM_SHAPE_SELFOVERLAP>  (1) 
384.199

>  <PUBCHEM_SHAPE_VOLUME>  (1) 
124.7

>  <PUBCHEM_COORDINATE_TYPE>  (1) 
2
5
10

$$$$
