10803
     RDKit          3D

 19 20  0  0  0  0  0  0  0  0999 V2000
    4.6918    2.7652    0.6734 O   0  0  0  0  0  0  0  0  0  0  0  0
    0.6034   -1.3532    0.0486 N   0  0  0  0  0  0  0  0  0  0  0  0
   -3.8908    0.4082    0.3415 N   0  0  0  0  0  0  0  0  0  0  0  0
   -2.2128    1.3496   -1.1095 N   0  0  0  0  0  0  0  0  0  0  0  0
   -3.3769   -1.4613    1.7072 N   0  0  0  0  0  0  0  0  0  0  0  0
    1.5266   -0.5486    0.5927 C   0  0  0  0  0  0  0  0  0  0  0  0
    2.7458   -0.3596   -0.0424 C   0  0  0  0  0  0  0  0  0  0  0  0
   -0.6813   -1.5511    0.7207 C   0  0  0  0  0  0  0  0  0  0  0  0
    3.7968    0.5280    0.5328 C   0  0  0  0  0  0  0  0  0  0  0  0
    0.8069   -1.9992   -1.1078 C   0  0  0  0  0  0  0  0  0  0  0  0
   -1.6948   -0.5359    0.2681 C   0  0  0  0  0  0  0  0  0  0  0  0
    2.9844   -1.0183   -1.2450 C   0  0  0  0  0  0  0  0  0  0  0  0
    1.2182    0.1321    1.8847 C   0  0  0  0  0  0  0  0  0  0  0  0
    2.0074   -1.8479   -1.7870 C   0  0  0  0  0  0  0  0  0  0  0  0
    3.6800    1.9793    0.0568 C   0  0  0  0  0  0  0  0  0  0  0  0
   -2.9789   -0.5009    0.7448 C   0  0  0  0  0  0  0  0  0  0  0  0
   -1.3524    0.4116   -0.6617 C   0  0  0  0  0  0  0  0  0  0  0  0
   -3.4468    1.2908   -0.5737 C   0  0  0  0  0  0  0  0  0  0  0  0
   -4.4266    2.3116   -1.0442 C   0  0  0  0  0  0  0  0  0  0  0  0
  1 15  1  0
  2  6  2  0
  2  8  1  0
  2 10  1  0
  3 16  2  0
  3 18  1  0
  4 17  1  0
  4 18  2  0
  5 16  1  0
  6  7  1  0
  6 13  1  0
  7  9  1  0
  7 12  2  0
  8 11  1  0
  9 15  1  0
 10 14  2  0
 11 16  1  0
 11 17  2  0
 12 14  1  0
 18 19  1  0
M  CHG  1   2   1
M  END
>  <PUBCHEM_COMPOUND_CID>  (1) 
10803

>  <PUBCHEM_CONFORMER_RMSD>  (1) 
0.6

>  <PUBCHEM_CONFORMER_DIVERSEORDER>  (1) 
7
18
15
1
55
37
2
58
28
42
34
46
54
19
11
26
12
33
21
38
50
49
44
36
24
22
5
52
31
48
57
51
23
56
13
17
43
45
27
35
20
53
14
41
3
8
6
32
4
47
29
39
40
10
25
16
9
30

>  <PUBCHEM_MMFF94_PARTIAL_CHARGES>  (1) 
26
1 -0.68
10 0.21
11 -0.14
12 -0.15
13 0.14
14 -0.15
15 0.28
16 0.41
17 0.16
18 0.48
19 0.14
2 -0.21
24 0.15
25 0.15
29 0.15
3 -0.62
32 0.15
33 0.4
34 0.4
35 0.4
4 -0.62
5 -0.9
6 0.22
7 -0.14
8 0.63
9 0.14

>  <PUBCHEM_EFFECTIVE_ROTOR_COUNT>  (1) 
4

>  <PUBCHEM_PHARMACOPHORE_FEATURES>  (1) 
7
1 1 acceptor
1 1 donor
1 5 donor
3 3 4 18 cation
3 3 5 16 cation
6 2 6 7 10 12 14 rings
6 3 4 11 16 17 18 rings

>  <PUBCHEM_HEAVY_ATOM_COUNT>  (1) 
19

>  <PUBCHEM_ATOM_DEF_STEREO_COUNT>  (1) 
0

>  <PUBCHEM_ATOM_UDEF_STEREO_COUNT>  (1) 
0

>  <PUBCHEM_BOND_DEF_STEREO_COUNT>  (1) 
0

>  <PUBCHEM_BOND_UDEF_STEREO_COUNT>  (1) 
0

>  <PUBCHEM_ISOTOPIC_ATOM_COUNT>  (1) 
0

>  <PUBCHEM_COMPONENT_COUNT>  (1) 
1

>  <PUBCHEM_CACTVS_TAUTO_COUNT>  (1) 
3

>  <PUBCHEM_CONFORMER_ID>  (1) 
00002A3300000007

>  <PUBCHEM_MMFF94_ENERGY>  (1) 
67.1905

>  <PUBCHEM_FEATURE_SELFOVERLAP>  (1) 
35.656

>  <PUBCHEM_SHAPE_FINGERPRINT>  (1) 
10498660 4 18189332386252622933
10608611 8 18336548231061398183
10646746 165 18113058224992804894
10871710 139 16752133632021927044
11132069 177 17603308124638728671
11543360 7 17845919737869112325
11759241 127 18341046427799479719
12403259 415 18409740560001816438
12788726 201 15578413580537538834
12892183 10 17677044754637038738
13583140 156 18334011679549156970
13764800 53 17968670293914680345
13965767 371 16735222696309257469
14178342 30 17312825965842885355
15219456 202 18413113839874280406
15375358 24 18336260154931190581
17539 30 16329368585111648974
18186145 218 18270413688924784890
18222031 100 13984650486940010466
19784866 34 17417816205381173450
19786989 88 18202286909307153430
20645477 70 17774726342158231575
23114952 82 18201451229120126166
231179 274 18411700976507624634
23557571 272 18115042860592478327
23559900 14 18192991526089118826
238 59 17846481634901521869
25 1 17632301206939384810
27216 239 18261669389060697665
2838139 119 18267293404544718092
474 4 18343577421851542604
57096353 35 16272207479037167955
6049 1 18265918898417698239
633830 44 17416990377095196683
7364860 26 17608928690457084051
7615 1 15936703635073053959
77492 1 15482391941551524735
90316 7 16443058379174904141

>  <PUBCHEM_SHAPE_MULTIPOLES>  (1) 
365.22
8.39
2.46
1.53
1.88
1.08
-0.09
6.2
0.27
-1.25
0.46
0.08
-0.45
2.44

>  <PUBCHEM_SHAPE_SELFOVERLAP>  (1) 
772.99

>  <PUBCHEM_SHAPE_VOLUME>  (1) 
204.4

>  <PUBCHEM_COORDINATE_TYPE>  (1) 
2
5
10

$$$$
