10818
     RDKit          3D

 10 10  0  0  1  0  0  0  0  0999 V2000
    2.4279   -0.2028   -0.4209 S   0  0  0  0  0  0  0  0  0  0  0  0
    2.6233   -1.0154    0.9547 O   0  0  0  0  0  0  0  0  0  0  0  0
    2.9754    1.1800   -0.2041 O   0  0  0  0  0  0  0  0  0  0  0  0
   -2.1222    0.0624    0.0547 C   0  0  0  0  0  0  0  0  0  0  0  0
    0.6478   -0.0993   -0.2343 C   0  0  0  0  0  0  0  0  0  0  0  0
   -1.3376    1.2059    0.2039 C   0  0  0  0  0  0  0  0  0  0  0  0
   -1.5219   -1.1620   -0.2390 C   0  0  0  0  0  0  0  0  0  0  0  0
    0.0474    1.1251    0.0593 C   0  0  0  0  0  0  0  0  0  0  0  0
   -0.1369   -1.2429   -0.3835 C   0  0  0  0  0  0  0  0  0  0  0  0
   -3.6032    0.1490    0.2092 C   0  0  0  0  0  0  0  0  0  0  0  0
  1  2  1  0
  1  3  2  0
  1  5  1  0
  4  6  2  0
  4  7  1  0
  4 10  1  0
  5  8  2  0
  5  9  1  0
  6  8  1  0
  7  9  2  0
M  END
>  <PUBCHEM_COMPOUND_CID>  (1) 
10818

>  <PUBCHEM_CONFORMER_RMSD>  (1) 
0.4

>  <PUBCHEM_CONFORMER_DIVERSEORDER>  (1) 
1
2
3

>  <PUBCHEM_MMFF94_PARTIAL_CHARGES>  (1) 
15
1 0.49
10 0.14
11 0.15
12 0.15
13 0.15
14 0.15
18 0.5
2 -0.55
3 -0.5
4 -0.14
5 0.06
6 -0.15
7 -0.15
8 -0.15
9 -0.15

>  <PUBCHEM_EFFECTIVE_ROTOR_COUNT>  (1) 
1

>  <PUBCHEM_PHARMACOPHORE_FEATURES>  (1) 
1
6 4 5 6 7 8 9 rings

>  <PUBCHEM_HEAVY_ATOM_COUNT>  (1) 
10

>  <PUBCHEM_ATOM_DEF_STEREO_COUNT>  (1) 
0

>  <PUBCHEM_ATOM_UDEF_STEREO_COUNT>  (1) 
0

>  <PUBCHEM_BOND_DEF_STEREO_COUNT>  (1) 
0

>  <PUBCHEM_BOND_UDEF_STEREO_COUNT>  (1) 
0

>  <PUBCHEM_ISOTOPIC_ATOM_COUNT>  (1) 
0

>  <PUBCHEM_COMPONENT_COUNT>  (1) 
1

>  <PUBCHEM_CACTVS_TAUTO_COUNT>  (1) 
1

>  <PUBCHEM_CONFORMER_ID>  (1) 
00002A4200000001

>  <PUBCHEM_MMFF94_ENERGY>  (1) 
21.965

>  <PUBCHEM_FEATURE_SELFOVERLAP>  (1) 
5.074

>  <PUBCHEM_SHAPE_FINGERPRINT>  (1) 
10219947 1 18410579474510045573
10857977 72 18272928327957227755
11062470 55 18113621187878743813
12932764 1 18113054926347177934
14325111 11 18411985754002962541
14993402 34 18413672430667745237
15310529 11 17530962479733819189
15775835 57 18409453608852301428
16945 1 18272369750370190991
193761 8 17548424704605470541
20645464 45 17203030955170114970
20871998 184 17916030238131880031
21040471 1 18199190598415804127
23235685 24 18272089392121933013
23402655 69 18126835012128681045
23463225 33 18337107869563574066
23552423 10 18118966042428635053
2748010 2 18054224603399650805
29004967 10 16225767419468383086
369184 2 18040995137433268463
5084963 1 17916873395961866886
7364860 26 18343302544551117166

>  <PUBCHEM_SHAPE_MULTIPOLES>  (1) 
197.91
4.78
1.38
0.73
0.02
0.03
-0.06
0.34
-0.4
-0.12
0.01
-0.24
-0.1
-0.29

>  <PUBCHEM_SHAPE_SELFOVERLAP>  (1) 
394.047

>  <PUBCHEM_SHAPE_VOLUME>  (1) 
117.8

>  <PUBCHEM_COORDINATE_TYPE>  (1) 
2
5
10

$$$$
