10816
     RDKit          3D

 11 11  0  0  0  0  0  0  0  0999 V2000
    4.1564   -0.2992   -0.0765 Cl  0  0  0  0  0  0  0  0  0  0  0  0
   -2.2871    1.4038    0.4042 O   0  0  0  0  0  0  0  0  0  0  0  0
   -2.5336   -0.8093   -0.2472 N   0  0  0  0  0  0  0  0  0  0  0  0
   -3.9132   -0.7343   -0.2480 N   0  0  0  0  0  0  0  0  0  0  0  0
   -0.3283    0.1642    0.0523 C   0  0  0  0  0  0  0  0  0  0  0  0
    0.4811    1.2755   -0.1833 C   0  0  0  0  0  0  0  0  0  0  0  0
    0.2492   -1.0903    0.2480 C   0  0  0  0  0  0  0  0  0  0  0  0
    1.8680    1.1322   -0.2234 C   0  0  0  0  0  0  0  0  0  0  0  0
    1.6362   -1.2335    0.2080 C   0  0  0  0  0  0  0  0  0  0  0  0
   -1.7744    0.3131    0.0936 C   0  0  0  0  0  0  0  0  0  0  0  0
    2.4455   -0.1223   -0.0277 C   0  0  0  0  0  0  0  0  0  0  0  0
  1 11  1  0
  2 10  2  0
  3  4  1  0
  3 10  1  0
  5  6  2  0
  5  7  1  0
  5 10  1  0
  6  8  1  0
  7  9  2  0
  8 11  2  0
  9 11  1  0
M  END
>  <PUBCHEM_COMPOUND_CID>  (1) 
10816

>  <PUBCHEM_CONFORMER_RMSD>  (1) 
0.4

>  <PUBCHEM_CONFORMER_DIVERSEORDER>  (1) 
1
3
2

>  <PUBCHEM_MMFF94_PARTIAL_CHARGES>  (1) 
18
1 -0.18
10 0.54
11 0.18
12 0.15
13 0.15
14 0.15
15 0.15
16 0.37
17 0.36
18 0.36
2 -0.57
3 -0.42
4 -0.73
5 0.09
6 -0.15
7 -0.15
8 -0.15
9 -0.15

>  <PUBCHEM_EFFECTIVE_ROTOR_COUNT>  (1) 
2

>  <PUBCHEM_PHARMACOPHORE_FEATURES>  (1) 
4
1 2 acceptor
1 3 donor
1 4 donor
6 5 6 7 8 9 11 rings

>  <PUBCHEM_HEAVY_ATOM_COUNT>  (1) 
11

>  <PUBCHEM_ATOM_DEF_STEREO_COUNT>  (1) 
0

>  <PUBCHEM_ATOM_UDEF_STEREO_COUNT>  (1) 
0

>  <PUBCHEM_BOND_DEF_STEREO_COUNT>  (1) 
0

>  <PUBCHEM_BOND_UDEF_STEREO_COUNT>  (1) 
0

>  <PUBCHEM_ISOTOPIC_ATOM_COUNT>  (1) 
0

>  <PUBCHEM_COMPONENT_COUNT>  (1) 
1

>  <PUBCHEM_CACTVS_TAUTO_COUNT>  (1) 
2

>  <PUBCHEM_CONFORMER_ID>  (1) 
00002A4000000001

>  <PUBCHEM_MMFF94_ENERGY>  (1) 
26.7493

>  <PUBCHEM_FEATURE_SELFOVERLAP>  (1) 
21.803

>  <PUBCHEM_SHAPE_FINGERPRINT>  (1) 
10219947 1 17530686506947733932
11062470 55 12757147982843852166
11806522 49 18411133683909776398
12032990 46 18411143524028063046
12897270 3 18408320016685275567
13690532 89 18334573538638549746
14128692 85 18342175587285617740
14325111 11 18410857650930884312
14993402 34 18259707813377923718
16945 1 18334866029921343234
19026448 4 16917067724939971992
20201158 50 18260830401358871211
21040471 1 18336270149404347832
21293036 1 18260268564244798894
21501925 9 18409439298121348738
23402539 116 18272642459070815391
23402655 69 18265037051959905685
23552423 10 18334017155188762703
2748010 2 16102754792955476842
5084963 1 18410574002384275792
528886 8 18409444748260793512
8809292 202 18042128815732204075

>  <PUBCHEM_SHAPE_MULTIPOLES>  (1) 
212.41
5.84
1.39
0.64
0.56
0.16
0
-1.08
0.42
0.1
-0.04
-0.02
0.01
-0.28

>  <PUBCHEM_SHAPE_SELFOVERLAP>  (1) 
433.116

>  <PUBCHEM_SHAPE_VOLUME>  (1) 
124.4

>  <PUBCHEM_COORDINATE_TYPE>  (1) 
2
5
10

$$$$
