10819
     RDKit          3D

 11 11  0  0  1  0  0  0  0  0999 V2000
    3.8000   -0.6153    0.7175 O   0  0  0  0  0  0  0  0  0  0  0  0
   -1.0693   -0.1070    0.2971 C   0  0  0  0  0  0  0  0  0  0  0  0
   -0.3808   -1.0334   -0.7118 C   0  0  0  0  0  0  0  0  0  0  0  0
   -0.4754    1.3088    0.2076 C   0  0  0  0  0  0  0  0  0  0  0  0
    1.1286   -1.1055   -0.4599 C   0  0  0  0  0  0  0  0  0  0  0  0
    1.7601    0.2343   -0.1784 C   0  0  0  0  0  0  0  0  0  0  0  0
    1.0224    1.3209    0.1063 C   0  0  0  0  0  0  0  0  0  0  0  0
   -2.5530   -0.0788    0.0852 C   0  0  0  0  0  0  0  0  0  0  0  0
    3.2584    0.2839   -0.2316 C   0  0  0  0  0  0  0  0  0  0  0  0
   -3.3938   -0.5628    1.2291 C   0  0  0  0  0  0  0  0  0  0  0  0
   -3.0973    0.3549   -1.0612 C   0  0  0  0  0  0  0  0  0  0  0  0
  1  9  1  0
  2  3  1  0
  2  4  1  0
  2  8  1  0
  3  5  1  0
  4  7  1  0
  5  6  1  0
  6  7  2  0
  6  9  1  0
  8 10  1  0
  8 11  2  0
M  END
>  <PUBCHEM_COMPOUND_CID>  (1) 
10819

>  <PUBCHEM_CONFORMER_RMSD>  (1) 
0.6

>  <PUBCHEM_CONFORMER_DIVERSEORDER>  (1) 
1
6
3
2
5
4

>  <PUBCHEM_MMFF94_PARTIAL_CHARGES>  (1) 
14
1 -0.68
10 0.14
11 -0.3
19 0.15
2 0.14
25 0.15
26 0.15
27 0.4
4 0.14
5 0.14
6 -0.28
7 -0.29
8 -0.28
9 0.42

>  <PUBCHEM_EFFECTIVE_ROTOR_COUNT>  (1) 
2.8

>  <PUBCHEM_PHARMACOPHORE_FEATURES>  (1) 
3
1 1 acceptor
1 1 donor
6 2 3 4 5 6 7 rings

>  <PUBCHEM_HEAVY_ATOM_COUNT>  (1) 
11

>  <PUBCHEM_ATOM_DEF_STEREO_COUNT>  (1) 
0

>  <PUBCHEM_ATOM_UDEF_STEREO_COUNT>  (1) 
1

>  <PUBCHEM_BOND_DEF_STEREO_COUNT>  (1) 
0

>  <PUBCHEM_BOND_UDEF_STEREO_COUNT>  (1) 
0

>  <PUBCHEM_ISOTOPIC_ATOM_COUNT>  (1) 
0

>  <PUBCHEM_COMPONENT_COUNT>  (1) 
1

>  <PUBCHEM_CACTVS_TAUTO_COUNT>  (1) 
1

>  <PUBCHEM_CONFORMER_ID>  (1) 
00002A4300000001

>  <PUBCHEM_MMFF94_ENERGY>  (1) 
10.297

>  <PUBCHEM_FEATURE_SELFOVERLAP>  (1) 
15.223

>  <PUBCHEM_SHAPE_FINGERPRINT>  (1) 
10130415 120 18410293622824653360
10219947 1 18343302569724672556
11062470 55 17967531263770723828
11132069 177 17988635298813177286
11401426 45 18130211701349745381
11769659 78 16877656876971465306
12032990 46 18411709763794518902
124424 183 18113890546589052207
12932764 1 18261393402899067439
14325111 11 18411982489653770252
14993402 34 18131627906759795564
15310529 11 17676490591706643756
15775835 57 16558758888359632779
16945 1 18273219702696425108
17844478 74 18187374250469290325
19026448 4 17095240341135772484
19026448 5 16226049989688121508
20201158 50 18408603643398468439
23235685 24 18202284714304285678
23380061 330 17917990589785351885
23402539 116 15482386478400207288
23402655 69 18127677246393390061
2748010 2 17984148054241941700
29004967 10 18411146831026059601
5084963 1 18041003989682774821
57812782 119 17894346687478305319

>  <PUBCHEM_SHAPE_MULTIPOLES>  (1) 
220.51
5.78
1.22
0.98
0.93
0.14
0.04
-0.61
0.97
0.24
-0.05
-0.65
-0.11
0.16

>  <PUBCHEM_SHAPE_SELFOVERLAP>  (1) 
434.764

>  <PUBCHEM_SHAPE_VOLUME>  (1) 
131.6

>  <PUBCHEM_COORDINATE_TYPE>  (1) 
2
5
10

$$$$
