10814
     RDKit          3D

 23 24  0  0  0  0  0  0  0  0999 V2000
    0.5671   -0.3478    0.3444 O   0  0  0  0  0  0  0  0  0  0  0  0
   -1.8081    2.9003   -0.4905 O   0  0  0  0  0  0  0  0  0  0  0  0
   -4.5430    2.6284   -0.1972 O   0  0  0  0  0  0  0  0  0  0  0  0
    4.5874   -1.6345   -1.8716 O   0  0  0  0  0  0  0  0  0  0  0  0
    4.7652    1.2219    1.9689 O   0  0  0  0  0  0  0  0  0  0  0  0
    6.0640   -0.1584   -0.0512 O   0  0  0  0  0  0  0  0  0  0  0  0
    0.4754    1.5190   -1.0495 O   0  0  0  0  0  0  0  0  0  0  0  0
   -3.1282   -3.1524    0.3964 O   0  0  0  0  0  0  0  0  0  0  0  0
   -5.2681   -2.3939    0.5049 O   0  0  0  0  0  0  0  0  0  0  0  0
   -1.5328    0.5386   -0.2177 C   0  0  0  0  0  0  0  0  0  0  0  0
   -2.3512    1.6664   -0.2828 C   0  0  0  0  0  0  0  0  0  0  0  0
   -2.0953   -0.7201   -0.0058 C   0  0  0  0  0  0  0  0  0  0  0  0
   -3.4761   -0.8510    0.1414 C   0  0  0  0  0  0  0  0  0  0  0  0
    1.9601   -0.2997    0.2441 C   0  0  0  0  0  0  0  0  0  0  0  0
   -3.7321    1.5354   -0.1356 C   0  0  0  0  0  0  0  0  0  0  0  0
   -4.2946    0.2766    0.0764 C   0  0  0  0  0  0  0  0  0  0  0  0
   -0.0887    0.6522   -0.3691 C   0  0  0  0  0  0  0  0  0  0  0  0
    2.6638    0.4433    1.1651 C   0  0  0  0  0  0  0  0  0  0  0  0
    2.5742   -0.9975   -0.7720 C   0  0  0  0  0  0  0  0  0  0  0  0
    3.9647   -0.9497   -0.8721 C   0  0  0  0  0  0  0  0  0  0  0  0
    4.0543    0.4914    1.0651 C   0  0  0  0  0  0  0  0  0  0  0  0
    4.7048   -0.2052    0.0465 C   0  0  0  0  0  0  0  0  0  0  0  0
   -4.0629   -2.1633    0.3618 C   0  0  0  0  0  0  0  0  0  0  0  0
  1 14  1  0
  1 17  1  0
  2 11  1  0
  3 15  1  0
  4 20  1  0
  5 21  1  0
  6 22  1  0
  7 17  2  0
  8 23  1  0
  9 23  2  0
 10 11  2  0
 10 12  1  0
 10 17  1  0
 11 15  1  0
 12 13  2  0
 13 16  1  0
 13 23  1  0
 14 18  2  0
 14 19  1  0
 15 16  2  0
 18 21  1  0
 19 20  2  0
 20 22  1  0
 21 22  2  0
M  END
>  <PUBCHEM_COMPOUND_CID>  (1) 
10814

>  <PUBCHEM_CONFORMER_RMSD>  (1) 
0.8

>  <PUBCHEM_CONFORMER_DIVERSEORDER>  (1) 
1
32
6
28
38
35
36
15
13
41
39
2
30
3
31
25
21
4
26
24
8
29
40
5
18
22
19
14
43
9
16
37
17
20
7
33
23
34
42
27
12
10
11

>  <PUBCHEM_MMFF94_PARTIAL_CHARGES>  (1) 
33
1 -0.23
10 0.09
11 0.08
12 -0.15
13 0.09
14 0.08
15 0.08
16 -0.15
17 0.63
18 -0.15
19 -0.15
2 -0.53
20 0.08
21 0.08
22 0.08
23 0.63
24 0.15
25 0.15
26 0.15
27 0.15
28 0.45
29 0.45
3 -0.53
30 0.45
31 0.45
32 0.45
33 0.5
4 -0.53
5 -0.53
6 -0.53
7 -0.57
8 -0.65
9 -0.57

>  <PUBCHEM_EFFECTIVE_ROTOR_COUNT>  (1) 
4

>  <PUBCHEM_PHARMACOPHORE_FEATURES>  (1) 
11
1 2 donor
1 3 donor
1 4 donor
1 5 donor
1 6 donor
1 7 acceptor
1 8 acceptor
1 9 acceptor
3 8 9 23 anion
6 10 11 12 13 15 16 rings
6 14 18 19 20 21 22 rings

>  <PUBCHEM_HEAVY_ATOM_COUNT>  (1) 
23

>  <PUBCHEM_ATOM_DEF_STEREO_COUNT>  (1) 
0

>  <PUBCHEM_ATOM_UDEF_STEREO_COUNT>  (1) 
0

>  <PUBCHEM_BOND_DEF_STEREO_COUNT>  (1) 
0

>  <PUBCHEM_BOND_UDEF_STEREO_COUNT>  (1) 
0

>  <PUBCHEM_ISOTOPIC_ATOM_COUNT>  (1) 
0

>  <PUBCHEM_COMPONENT_COUNT>  (1) 
1

>  <PUBCHEM_CACTVS_TAUTO_COUNT>  (1) 
120

>  <PUBCHEM_CONFORMER_ID>  (1) 
00002A3E00000001

>  <PUBCHEM_MMFF94_ENERGY>  (1) 
74.5295

>  <PUBCHEM_FEATURE_SELFOVERLAP>  (1) 
55.894

>  <PUBCHEM_SHAPE_FINGERPRINT>  (1) 
10319926 262 18339060615790386546
10366900 7 18058715932263544465
10369192 42 17914887880633493672
105312 117 17824249424648259805
10616163 171 18408043996338746915
10912923 1 17530681013684718288
11045977 3 18273210876665472632
11370993 144 17703519804711626739
11405975 8 18272088236796868666
11545043 162 18343022177116767338
11552529 35 15983965124396196455
11796584 16 18266179423145741502
12236239 1 16950283984152682368
12403259 415 18131347540459640720
12507560 40 18131349721659461485
12553582 1 18186806906838399315
12616971 3 16370729201585836228
12730499 353 17989489654414592258
13583140 156 17846774109268391716
13675066 3 18201998845707952036
13760787 5 15719396118304264254
14178342 30 18261384525217594891
15042514 8 18335711550885865113
15099037 37 18410288138172437255
15537594 2 17822015276749117211
15788980 27 15791726386788521046
15961568 22 18188207732145415372
17349148 13 16660640748259583898
1768 85 17344053328849047496
17844677 252 18410579513054222024
1813 80 17749107832957813541
193927 3 18188220917467582291
200 152 15285351808501025988
21033648 29 17774707714932158489
21065198 57 18342174432150515648
21065199 12 18273212006231081760
21065201 7 18336826403377180258
21267235 1 18261399992006939379
21792961 116 17917999335499238094
22943178 12 18272929389040944636
2297311 6 18411145744135557181
23402539 116 18186516605519051494
23557571 272 18411984671518106208
23559900 14 18340489950572522974
25147074 1 17968393332933332573
268830 7 14189565365027955410
2838139 119 15122667978636774809
314173 85 18337112362684993283
335352 9 18335138714091620199
4073 2 18413109433680784002
4214541 1 18410575063267552137
5104073 3 18271803493381818170
602551 16 18335137609436114722
7495541 125 18341894100304914920
90127 26 17918272030523805752
9709674 26 18342736316915091943

>  <PUBCHEM_SHAPE_MULTIPOLES>  (1) 
420.51
12.66
2.59
1.12
6.7
0.28
-0.07
2.8
-1.15
-4.51
0.12
1.7
0
2.14

>  <PUBCHEM_SHAPE_SELFOVERLAP>  (1) 
925.095

>  <PUBCHEM_SHAPE_VOLUME>  (1) 
224.1

>  <PUBCHEM_COORDINATE_TYPE>  (1) 
2
5
10

$$$$
