10824
     RDKit          3D

  9  9  0  0  0  0  0  0  0  0999 V2000
    2.0274   -0.9312    0.0001 O   0  0  0  0  0  0  0  0  0  0  0  0
   -2.7853   -1.1251    0.0000 N   0  0  0  0  0  0  0  0  0  0  0  0
    0.8253   -0.2929   -0.0001 C   0  0  0  0  0  0  0  0  0  0  0  0
   -1.5892   -0.3777    0.0000 C   0  0  0  0  0  0  0  0  0  0  0  0
   -0.3575   -1.0325    0.0000 C   0  0  0  0  0  0  0  0  0  0  0  0
    0.7762    1.1011   -0.0001 C   0  0  0  0  0  0  0  0  0  0  0  0
   -1.6381    1.0163    0.0000 C   0  0  0  0  0  0  0  0  0  0  0  0
   -0.4555    1.7558    0.0000 C   0  0  0  0  0  0  0  0  0  0  0  0
    3.1967   -0.1137    0.0000 C   0  0  0  0  0  0  0  0  0  0  0  0
  1  3  1  0
  1  9  1  0
  2  4  1  0
  3  5  2  0
  3  6  1  0
  4  5  1  0
  4  7  2  0
  6  8  2  0
  7  8  1  0
M  END
>  <PUBCHEM_COMPOUND_CID>  (1) 
10824

>  <PUBCHEM_CONFORMER_RMSD>  (1) 
0.4

>  <PUBCHEM_CONFORMER_DIVERSEORDER>  (1) 
1
2

>  <PUBCHEM_MMFF94_PARTIAL_CHARGES>  (1) 
15
1 -0.36
10 0.15
11 0.15
12 0.15
13 0.15
14 0.4
15 0.4
2 -0.9
3 0.08
4 0.1
5 -0.15
6 -0.15
7 -0.15
8 -0.15
9 0.28

>  <PUBCHEM_EFFECTIVE_ROTOR_COUNT>  (1) 
1

>  <PUBCHEM_PHARMACOPHORE_FEATURES>  (1) 
4
1 1 acceptor
1 2 cation
1 2 donor
6 3 4 5 6 7 8 rings

>  <PUBCHEM_HEAVY_ATOM_COUNT>  (1) 
9

>  <PUBCHEM_ATOM_DEF_STEREO_COUNT>  (1) 
0

>  <PUBCHEM_ATOM_UDEF_STEREO_COUNT>  (1) 
0

>  <PUBCHEM_BOND_DEF_STEREO_COUNT>  (1) 
0

>  <PUBCHEM_BOND_UDEF_STEREO_COUNT>  (1) 
0

>  <PUBCHEM_ISOTOPIC_ATOM_COUNT>  (1) 
0

>  <PUBCHEM_COMPONENT_COUNT>  (1) 
1

>  <PUBCHEM_CACTVS_TAUTO_COUNT>  (1) 
1

>  <PUBCHEM_CONFORMER_ID>  (1) 
00002A4800000001

>  <PUBCHEM_MMFF94_ENERGY>  (1) 
40.5006

>  <PUBCHEM_FEATURE_SELFOVERLAP>  (1) 
20.297

>  <PUBCHEM_SHAPE_FINGERPRINT>  (1) 
10857977 72 18340474634455433792
14128692 85 18339365269930074493
16945 1 18266458698312673824
18185500 45 18335702710846053371
20871998 184 18202001006008060359
21040471 1 17834394518872810884
23552423 10 18116439146018322270
241688 4 18409165515246747849
2748010 2 18411130376843123685
29004967 10 18411420634922238810
369184 2 18114180770524947104
5084963 1 18272089417612142587

>  <PUBCHEM_SHAPE_MULTIPOLES>  (1) 
174.37
3.65
1.56
0.6
1.69
0.45
0
-1.09
0
-0.52
0
0
0.02
0

>  <PUBCHEM_SHAPE_SELFOVERLAP>  (1) 
358.565

>  <PUBCHEM_SHAPE_VOLUME>  (1) 
101.2

>  <PUBCHEM_COORDINATE_TYPE>  (1) 
2
5
10

$$$$
