10835
     RDKit          3D

 11 11  0  0  0  0  0  0  0  0999 V2000
   -2.6896    2.1499   -0.0001 Br  0  0  0  0  0  0  0  0  0  0  0  0
   -0.4284   -3.1410    0.0001 Br  0  0  0  0  0  0  0  0  0  0  0  0
    3.5555   -0.1570    0.0002 Cl  0  0  0  0  0  0  0  0  0  0  0  0
   -2.5195   -0.9060    0.0005 O   0  0  0  0  0  0  0  0  0  0  0  0
    2.4622    1.1932    0.0004 N   0  0  0  0  0  0  0  0  0  0  0  0
    1.2612    0.7086   -0.0002 C   0  0  0  0  0  0  0  0  0  0  0  0
    0.0562    1.5668   -0.0002 C   0  0  0  0  0  0  0  0  0  0  0  0
    1.0474   -0.7533   -0.0003 C   0  0  0  0  0  0  0  0  0  0  0  0
   -1.1769    1.0504    0.0002 C   0  0  0  0  0  0  0  0  0  0  0  0
   -0.1779   -1.2880   -0.0005 C   0  0  0  0  0  0  0  0  0  0  0  0
   -1.3903   -0.4235    0.0000 C   0  0  0  0  0  0  0  0  0  0  0  0
  1  9  1  0
  2 10  1  0
  3  5  1  0
  4 11  2  0
  5  6  2  3
  6  7  1  0
  6  8  1  0
  7  9  2  0
  8 10  2  0
  9 11  1  0
 10 11  1  0
M  END
>  <PUBCHEM_COMPOUND_CID>  (1) 
10835

>  <PUBCHEM_CONFORMER_RMSD>  (1) 
0.4

>  <PUBCHEM_CONFORMER_DIVERSEORDER>  (1) 
1

>  <PUBCHEM_MMFF94_PARTIAL_CHARGES>  (1) 
12
1 -0.11
10 0.12
11 0.54
12 0.15
13 0.15
2 -0.11
4 -0.57
5 -0.45
6 0.42
7 -0.14
8 -0.14
9 0.12

>  <PUBCHEM_EFFECTIVE_ROTOR_COUNT>  (1) 
0

>  <PUBCHEM_PHARMACOPHORE_FEATURES>  (1) 
5
1 1 hydrophobe
1 2 hydrophobe
1 4 acceptor
1 5 acceptor
6 6 7 8 9 10 11 rings

>  <PUBCHEM_HEAVY_ATOM_COUNT>  (1) 
11

>  <PUBCHEM_ATOM_DEF_STEREO_COUNT>  (1) 
0

>  <PUBCHEM_ATOM_UDEF_STEREO_COUNT>  (1) 
0

>  <PUBCHEM_BOND_DEF_STEREO_COUNT>  (1) 
0

>  <PUBCHEM_BOND_UDEF_STEREO_COUNT>  (1) 
0

>  <PUBCHEM_ISOTOPIC_ATOM_COUNT>  (1) 
0

>  <PUBCHEM_COMPONENT_COUNT>  (1) 
1

>  <PUBCHEM_CACTVS_TAUTO_COUNT>  (1) 
1

>  <PUBCHEM_CONFORMER_ID>  (1) 
00002A5300000001

>  <PUBCHEM_MMFF94_ENERGY>  (1) 
42.8465

>  <PUBCHEM_FEATURE_SELFOVERLAP>  (1) 
25.371

>  <PUBCHEM_SHAPE_FINGERPRINT>  (1) 
1 1 18194401082783922988
12423570 1 12507152651286407813
12716758 59 18413103991788304536
13380535 21 18194414298662069133
13380535 76 18264767662588167985
14325111 11 18410856551451138880
16945 1 18266459999745643876
193761 8 17978228257942044547
20510252 161 18272089426265731784
20645476 183 18042145227076113494
20645477 70 17832417602126473349
20871998 184 18056485182042444006
21040471 1 18410856564045760512
23235685 24 18266452114149154920
2334 1 18410856546754894181
23402539 116 18270669986940265815
23402655 69 18124861371292234317
23526114 1 17257091463421808028
23552423 10 18122622747883610223
23559900 14 18271811186580607956
241688 4 17834111231530470115
2748010 2 18338241465993613591
3071541 12 17691408507769119252
5084963 1 18202566210808599976
528862 383 17902510385310631913
528886 8 18338792304150063048
53812653 166 18270115704141196368
54173680 148 18193276527302525378
7364860 26 17836363752825035087
81228 2 18121770888069579465

>  <PUBCHEM_SHAPE_MULTIPOLES>  (1) 
229.28
4.14
2.99
0.63
0.87
2.66
0
-2.64
0
-0.28
0
-0.02
0.02
0

>  <PUBCHEM_SHAPE_SELFOVERLAP>  (1) 
439.916

>  <PUBCHEM_SHAPE_VOLUME>  (1) 
144.7

>  <PUBCHEM_COORDINATE_TYPE>  (1) 
2
5
10

$$$$
