10834
     RDKit          3D

 18 20  0  0  1  0  0  0  0  0999 V2000
    0.4045    0.2370    0.4444 O   0  0  0  0  0  0  0  0  0  0  0  0
    0.9540   -1.8517   -0.3525 O   0  0  0  0  0  0  0  0  0  0  0  0
   -3.4390    0.8284   -0.6604 N   0  0  0  0  0  0  0  0  0  0  0  0
   -3.0121   -0.5501   -0.9665 C   0  0  0  0  0  0  0  0  0  0  0  0
   -3.2905    0.8964    0.8057 C   0  0  0  0  0  0  0  0  0  0  0  0
   -3.6557   -1.4035    0.1318 C   0  0  0  0  0  0  0  0  0  0  0  0
   -3.8408   -0.4427    1.3090 C   0  0  0  0  0  0  0  0  0  0  0  0
   -1.4735   -0.5576   -0.8728 C   0  0  0  0  0  0  0  0  0  0  0  0
   -1.7806    1.0378    1.0818 C   0  0  0  0  0  0  0  0  0  0  0  0
   -0.9670   -0.1337    0.5139 C   0  0  0  0  0  0  0  0  0  0  0  0
   -4.8016    1.1106   -1.1048 C   0  0  0  0  0  0  0  0  0  0  0  0
    1.2598   -0.7208   -0.0077 C   0  0  0  0  0  0  0  0  0  0  0  0
    2.6543   -0.2114   -0.0314 C   0  0  0  0  0  0  0  0  0  0  0  0
    3.6922   -1.1002    0.1600 C   0  0  0  0  0  0  0  0  0  0  0  0
    2.8690    1.1350   -0.2446 C   0  0  0  0  0  0  0  0  0  0  0  0
    5.0023   -0.6218    0.1374 C   0  0  0  0  0  0  0  0  0  0  0  0
    4.1791    1.6132   -0.2671 C   0  0  0  0  0  0  0  0  0  0  0  0
    5.2457    0.7348   -0.0762 C   0  0  0  0  0  0  0  0  0  0  0  0
  1 10  1  0
  1 12  1  0
  2 12  2  0
  3  4  1  0
  3  5  1  0
  3 11  1  0
  4  6  1  0
  4  8  1  0
  5  7  1  0
  5  9  1  0
  6  7  1  0
  8 10  1  0
  9 10  1  0
 12 13  1  0
 13 14  2  0
 13 15  1  0
 14 16  1  0
 15 17  2  0
 16 18  2  0
 17 18  1  0
M  END
>  <PUBCHEM_COMPOUND_CID>  (1) 
10834

>  <PUBCHEM_CONFORMER_RMSD>  (1) 
0.6

>  <PUBCHEM_CONFORMER_DIVERSEORDER>  (1) 
1
16
5
8
4
19
13
20
23
17
18
12
15
14
10
11
3
21
22
9
7
2
6

>  <PUBCHEM_MMFF94_PARTIAL_CHARGES>  (1) 
19
1 -0.43
10 0.28
11 0.27
12 0.63
13 0.09
14 -0.15
15 -0.15
16 -0.15
17 -0.15
18 -0.15
2 -0.57
3 -0.81
33 0.15
34 0.15
35 0.15
36 0.15
37 0.15
4 0.27
5 0.27

>  <PUBCHEM_EFFECTIVE_ROTOR_COUNT>  (1) 
4.2

>  <PUBCHEM_PHARMACOPHORE_FEATURES>  (1) 
4
1 2 acceptor
1 3 cation
6 13 14 15 16 17 18 rings
8 3 4 5 6 7 8 9 10 rings

>  <PUBCHEM_HEAVY_ATOM_COUNT>  (1) 
18

>  <PUBCHEM_ATOM_DEF_STEREO_COUNT>  (1) 
0

>  <PUBCHEM_ATOM_UDEF_STEREO_COUNT>  (1) 
2

>  <PUBCHEM_BOND_DEF_STEREO_COUNT>  (1) 
0

>  <PUBCHEM_BOND_UDEF_STEREO_COUNT>  (1) 
0

>  <PUBCHEM_ISOTOPIC_ATOM_COUNT>  (1) 
0

>  <PUBCHEM_COMPONENT_COUNT>  (1) 
1

>  <PUBCHEM_CACTVS_TAUTO_COUNT>  (1) 
1

>  <PUBCHEM_CONFORMER_ID>  (1) 
00002A5200000001

>  <PUBCHEM_MMFF94_ENERGY>  (1) 
49.5854

>  <PUBCHEM_FEATURE_SELFOVERLAP>  (1) 
20.297

>  <PUBCHEM_SHAPE_FINGERPRINT>  (1) 
10014705 185 18187079542745807093
10366900 7 17060051545151705795
10680689 15 17749112192444505619
12107183 9 17691973665678473418
12236239 1 18131068225192031694
12403259 415 18113341920409780132
12507557 5 18334294283796090112
128620 24 18131635586108566402
13167823 11 18412545414227959770
13214271 11 18113054939585468767
13224815 77 18272093807163684050
13583140 156 17967814950766530811
13675066 3 17894916234712444478
13760787 5 18131072623254373584
14252887 29 11530757081774045056
15196674 1 18410292531971486308
15239154 128 18412828005727284332
15788980 27 18259984872917257314
17844677 252 18113905969943557172
18186145 218 18410580578290364382
19050596 39 18273219685569310130
19489759 90 16298101003683288057
200 152 18201432576008542029
20300324 65 17346596387247349385
20325693 3 15339126736388491313
20645477 56 17676486095603878645
20645477 70 18410572843207641414
21033648 29 17748819743921825404
21709351 56 18334574655113516004
22094290 60 14908186343330550467
22646028 1 17988925565614258184
22854114 59 18040999553071066414
23402539 116 17676202476763130518
23402655 69 18342458136479049052
23557571 272 17385732378588648199
23559900 14 18340204081902959722
2838139 119 17970330530846042981
29717793 49 17703511008887694964
300161 21 18342730828252810128
3268164 11 16343700998019922641
351380 180 17967811652479593020
3545911 37 18409732858756209022
4214541 1 18407477773318974542
474 4 18408044026555920656
5104073 3 18408604764369005392
542803 24 17703795825259141424
602551 16 15430326870894761728
633830 44 17603581937298928486
77779 3 18408324397504496630
90127 26 17749113292109250472

>  <PUBCHEM_SHAPE_MULTIPOLES>  (1) 
353.71
11.52
1.5
1.04
6.1
0.03
-0.05
-2
0.73
0.27
0.1
-1.24
-0.1
0.03

>  <PUBCHEM_SHAPE_SELFOVERLAP>  (1) 
759.882

>  <PUBCHEM_SHAPE_VOLUME>  (1) 
195.9

>  <PUBCHEM_COORDINATE_TYPE>  (1) 
2
5
10

$$$$
