10833
     RDKit          3D

 15 15  0  0  1  0  0  0  0  0999 V2000
    3.3036    2.4983   -0.6424 Br  0  0  0  0  0  0  0  0  0  0  0  0
    2.1358   -3.0382    0.3477 Br  0  0  0  0  0  0  0  0  0  0  0  0
   -2.1798   -1.1653   -1.4389 O   0  0  0  0  0  0  0  0  0  0  0  0
    3.7974   -0.5512   -0.4481 O   0  0  0  0  0  0  0  0  0  0  0  0
   -3.8965   -1.1377    0.0525 O   0  0  0  0  0  0  0  0  0  0  0  0
   -3.6264    1.6188    0.1442 N   0  0  0  0  0  0  0  0  0  0  0  0
   -1.4792    0.8246    1.0180 C   0  0  0  0  0  0  0  0  0  0  0  0
   -2.4451    0.8148   -0.1748 C   0  0  0  0  0  0  0  0  0  0  0  0
   -0.0661    0.4562    0.6262 C   0  0  0  0  0  0  0  0  0  0  0  0
    0.3207   -0.8731    0.6588 C   0  0  0  0  0  0  0  0  0  0  0  0
    0.8121    1.4557    0.2424 C   0  0  0  0  0  0  0  0  0  0  0  0
   -2.9382   -0.5875   -0.4716 C   0  0  0  0  0  0  0  0  0  0  0  0
    2.1157    1.1158   -0.1194 C   0  0  0  0  0  0  0  0  0  0  0  0
    1.6243   -1.2128    0.2971 C   0  0  0  0  0  0  0  0  0  0  0  0
    2.5218   -0.2183   -0.0918 C   0  0  0  0  0  0  0  0  0  0  0  0
  1 13  1  0
  2 14  1  0
  3 12  1  0
  4 15  1  0
  5 12  2  0
  6  8  1  0
  7  8  1  0
  7  9  1  0
  8 12  1  0
  9 10  2  0
  9 11  1  0
 10 14  1  0
 11 13  2  0
 13 15  1  0
 14 15  2  0
M  END
>  <PUBCHEM_COMPOUND_CID>  (1) 
10833

>  <PUBCHEM_CONFORMER_RMSD>  (1) 
0.6

>  <PUBCHEM_CONFORMER_DIVERSEORDER>  (1) 
1
7
5
4
10
3
8
2
6
9

>  <PUBCHEM_MMFF94_PARTIAL_CHARGES>  (1) 
21
1 -0.11
10 -0.15
11 -0.15
12 0.66
13 0.11
14 0.11
15 0.08
19 0.15
2 -0.11
20 0.15
21 0.36
22 0.36
23 0.5
24 0.45
3 -0.65
4 -0.53
5 -0.57
6 -0.99
7 0.14
8 0.33
9 -0.14

>  <PUBCHEM_EFFECTIVE_ROTOR_COUNT>  (1) 
3

>  <PUBCHEM_PHARMACOPHORE_FEATURES>  (1) 
9
1 1 hydrophobe
1 2 hydrophobe
1 3 acceptor
1 4 donor
1 5 acceptor
1 6 cation
1 6 donor
3 3 5 12 anion
6 9 10 11 13 14 15 rings

>  <PUBCHEM_HEAVY_ATOM_COUNT>  (1) 
15

>  <PUBCHEM_ATOM_DEF_STEREO_COUNT>  (1) 
0

>  <PUBCHEM_ATOM_UDEF_STEREO_COUNT>  (1) 
1

>  <PUBCHEM_BOND_DEF_STEREO_COUNT>  (1) 
0

>  <PUBCHEM_BOND_UDEF_STEREO_COUNT>  (1) 
0

>  <PUBCHEM_ISOTOPIC_ATOM_COUNT>  (1) 
0

>  <PUBCHEM_COMPONENT_COUNT>  (1) 
1

>  <PUBCHEM_CACTVS_TAUTO_COUNT>  (1) 
2

>  <PUBCHEM_CONFORMER_ID>  (1) 
00002A5100000001

>  <PUBCHEM_MMFF94_ENERGY>  (1) 
28.0561

>  <PUBCHEM_FEATURE_SELFOVERLAP>  (1) 
45.726

>  <PUBCHEM_SHAPE_FINGERPRINT>  (1) 
10062212 137 18411409584077030714
12932764 1 17775000245339421785
13380535 76 18191870231014659832
14181834 199 18113901550764763038
14251717 144 18409165545580342572
15375462 189 18202004347883013307
15442244 35 18123187896559691281
15775835 57 18409735032241970901
16945 1 18263376823571375640
18186145 218 18186799184065071372
18619055 16 18270392785598296209
19422 9 18343306976493077941
20645476 183 18342455907349013103
20645477 70 18342457036825003239
21160774 45 17688041116133775290
21499 59 18189899897287122244
21501502 16 18410854348127375073
21524375 3 17897723395562970056
21634736 98 18341334409736084942
221490 88 18335711549963037090
2255824 54 18408324389215183922
23402539 116 18338233757355765070
23402655 69 18410858745820854581
23532345 88 18335417920286485110
23552423 10 18411697673202916459
23559900 14 18272366430914372322
23598291 2 18195808457910186283
25 1 18259708891267132160
2748010 2 16541024113885906472
2871803 45 18338508763795320927
57096353 35 18270115854596914245
58051976 100 18338802217314344965
58051976 378 18194683902233304732
6338986 31 17903066738442641834
6992083 37 17694230962828783728
7364860 26 18339921524525314626
7832392 63 18338797788865790281
84936 182 18343020038434693896
90525 40 18059855022178334191
93112 12 18410291372319968269
9939556 21 18341047415647225553

>  <PUBCHEM_SHAPE_MULTIPOLES>  (1) 
297.99
6.47
2.8
0.93
3.48
1.01
-0.08
-1.04
-1.34
-2.68
-0.08
0.27
0.04
-0.82

>  <PUBCHEM_SHAPE_SELFOVERLAP>  (1) 
590.535

>  <PUBCHEM_SHAPE_VOLUME>  (1) 
182.7

>  <PUBCHEM_COORDINATE_TYPE>  (1) 
2
5
10

$$$$
