10837
     RDKit          3D

 11 11  0  0  0  0  0  0  0  0999 V2000
    1.8615   -1.3269    0.0007 O   0  0  0  0  0  0  0  0  0  0  0  0
    0.7311    0.7349    0.0004 N   0  0  0  0  0  0  0  0  0  0  0  0
    3.0395    0.6639   -0.0005 N   0  0  0  0  0  0  0  0  0  0  0  0
    4.2618    0.0238   -0.0008 N   0  0  0  0  0  0  0  0  0  0  0  0
   -0.6149    0.3677    0.0007 C   0  0  0  0  0  0  0  0  0  0  0  0
   -1.6059    1.3493    0.0004 C   0  0  0  0  0  0  0  0  0  0  0  0
   -0.9695   -0.9813    0.0003 C   0  0  0  0  0  0  0  0  0  0  0  0
   -2.9515    0.9820   -0.0002 C   0  0  0  0  0  0  0  0  0  0  0  0
   -2.3151   -1.3487   -0.0004 C   0  0  0  0  0  0  0  0  0  0  0  0
   -3.3061   -0.3670   -0.0008 C   0  0  0  0  0  0  0  0  0  0  0  0
    1.8690   -0.0977    0.0003 C   0  0  0  0  0  0  0  0  0  0  0  0
  1 11  2  0
  2  5  1  0
  2 11  1  0
  3  4  1  0
  3 11  1  0
  5  6  2  0
  5  7  1  0
  6  8  1  0
  7  9  2  0
  8 10  2  0
  9 10  1  0
M  END
>  <PUBCHEM_COMPOUND_CID>  (1) 
10837

>  <PUBCHEM_CONFORMER_RMSD>  (1) 
0.6

>  <PUBCHEM_CONFORMER_DIVERSEORDER>  (1) 
1
2
3
4

>  <PUBCHEM_MMFF94_PARTIAL_CHARGES>  (1) 
20
1 -0.57
10 -0.15
11 0.69
12 0.15
13 0.15
14 0.37
15 0.15
16 0.15
17 0.15
18 0.37
19 0.36
2 -0.55
20 0.36
3 -0.42
4 -0.73
5 0.12
6 -0.15
7 -0.15
8 -0.15
9 -0.15

>  <PUBCHEM_EFFECTIVE_ROTOR_COUNT>  (1) 
3

>  <PUBCHEM_PHARMACOPHORE_FEATURES>  (1) 
5
1 1 acceptor
1 2 donor
1 3 donor
1 4 donor
6 5 6 7 8 9 10 rings

>  <PUBCHEM_HEAVY_ATOM_COUNT>  (1) 
11

>  <PUBCHEM_ATOM_DEF_STEREO_COUNT>  (1) 
0

>  <PUBCHEM_ATOM_UDEF_STEREO_COUNT>  (1) 
0

>  <PUBCHEM_BOND_DEF_STEREO_COUNT>  (1) 
0

>  <PUBCHEM_BOND_UDEF_STEREO_COUNT>  (1) 
0

>  <PUBCHEM_ISOTOPIC_ATOM_COUNT>  (1) 
0

>  <PUBCHEM_COMPONENT_COUNT>  (1) 
1

>  <PUBCHEM_CACTVS_TAUTO_COUNT>  (1) 
3

>  <PUBCHEM_CONFORMER_ID>  (1) 
00002A5500000001

>  <PUBCHEM_MMFF94_ENERGY>  (1) 
28.8799

>  <PUBCHEM_FEATURE_SELFOVERLAP>  (1) 
26.932

>  <PUBCHEM_SHAPE_FINGERPRINT>  (1) 
10608611 8 18412821391388166176
11062470 55 18410573993741398733
12932764 1 17275091830183105739
13024252 1 15574713599740725945
13380535 76 18410292501696049910
14144814 61 18409448063796178448
14325111 11 18410575046193112993
15775835 57 18335986372098306849
20201158 50 18342175565826767911
20645464 45 18059862761498216415
20871998 184 18201443635628886039
23402539 116 18201712964817476005
23402655 69 18269822135380696741
23552423 10 18260548978248510279
3312278 4 18410857672236889939
369184 2 18343301453270513401
6333449 129 18413105065503735149
75552 356 18410013260144109007

>  <PUBCHEM_SHAPE_MULTIPOLES>  (1) 
205.56
6.13
1.37
0.58
5.06
0.12
0
-0.14
0
-0.67
0
-0.09
0
0

>  <PUBCHEM_SHAPE_SELFOVERLAP>  (1) 
421.98

>  <PUBCHEM_SHAPE_VOLUME>  (1) 
117.6

>  <PUBCHEM_COORDINATE_TYPE>  (1) 
2
5
10

$$$$
