10849
     RDKit          3D

  9  8  0  0  0  0  0  0  0  0999 V2000
   -0.7067   -0.1778   -0.2246 N   0  0  0  0  0  0  0  0  0  0  0  0
   -3.1359   -0.1795    0.4277 N   0  0  0  0  0  0  0  0  0  0  0  0
    0.0355   -1.4233   -0.5091 C   0  0  0  0  0  0  0  0  0  0  0  0
   -0.0717    1.0087   -0.8692 C   0  0  0  0  0  0  0  0  0  0  0  0
    1.1711   -1.5362    0.4546 C   0  0  0  0  0  0  0  0  0  0  0  0
    0.4853    1.8936    0.1972 C   0  0  0  0  0  0  0  0  0  0  0  0
   -2.0154   -0.1744    0.1270 C   0  0  0  0  0  0  0  0  0  0  0  0
    2.4555   -1.6139    0.0884 C   0  0  0  0  0  0  0  0  0  0  0  0
    1.7822    2.2027    0.3081 C   0  0  0  0  0  0  0  0  0  0  0  0
  1  3  1  0
  1  4  1  0
  1  7  1  0
  2  7  3  0
  3  5  1  0
  4  6  1  0
  5  8  2  0
  6  9  2  0
M  END
>  <PUBCHEM_COMPOUND_CID>  (1) 
10849

>  <PUBCHEM_CONFORMER_RMSD>  (1) 
0.6

>  <PUBCHEM_CONFORMER_DIVERSEORDER>  (1) 
2
10
4
15
26
21
22
12
18
3
24
8
23
5
19
17
11
16
1
13
6
25
14
20
7
9

>  <PUBCHEM_MMFF94_PARTIAL_CHARGES>  (1) 
15
1 -0.84
14 0.15
15 0.15
16 0.15
17 0.15
18 0.15
19 0.15
2 -0.56
3 0.49
4 0.49
5 -0.29
6 -0.29
7 0.68
8 -0.3
9 -0.3

>  <PUBCHEM_EFFECTIVE_ROTOR_COUNT>  (1) 
4

>  <PUBCHEM_PHARMACOPHORE_FEATURES>  (1) 
5
1 1 cation
1 2 acceptor
1 8 hydrophobe
1 9 hydrophobe
3 1 2 7 cation

>  <PUBCHEM_HEAVY_ATOM_COUNT>  (1) 
9

>  <PUBCHEM_ATOM_DEF_STEREO_COUNT>  (1) 
0

>  <PUBCHEM_ATOM_UDEF_STEREO_COUNT>  (1) 
0

>  <PUBCHEM_BOND_DEF_STEREO_COUNT>  (1) 
0

>  <PUBCHEM_BOND_UDEF_STEREO_COUNT>  (1) 
0

>  <PUBCHEM_ISOTOPIC_ATOM_COUNT>  (1) 
0

>  <PUBCHEM_COMPONENT_COUNT>  (1) 
1

>  <PUBCHEM_CACTVS_TAUTO_COUNT>  (1) 
1

>  <PUBCHEM_CONFORMER_ID>  (1) 
00002A6100000002

>  <PUBCHEM_MMFF94_ENERGY>  (1) 
7.248

>  <PUBCHEM_FEATURE_SELFOVERLAP>  (1) 
27.293

>  <PUBCHEM_SHAPE_FINGERPRINT>  (1) 
100427 49 18267851805589046548
10857977 72 18265041444999201650
21040471 1 17833560363293938349
23552449 1 17833827175331259150
23552449 11 18410579474536523239
528862 383 18336818801095064904
58734985 188 18411982442467022560

>  <PUBCHEM_SHAPE_MULTIPOLES>  (1) 
175.25
3.25
2.54
0.78
1.79
1.04
0.07
-0.95
-0.71
-2.03
-0.17
0.01
0.04
0.09

>  <PUBCHEM_SHAPE_SELFOVERLAP>  (1) 
322.238

>  <PUBCHEM_SHAPE_VOLUME>  (1) 
109.2

>  <PUBCHEM_COORDINATE_TYPE>  (1) 
2
5
10

$$$$
