10860
     RDKit          3D

 18 19  0  0  0  0  0  0  0  0999 V2000
    0.3587   -1.4078    1.4232 O   0  0  0  0  0  0  0  0  0  0  0  0
    2.2974   -1.3417   -0.4829 N   0  0  0  0  0  0  0  0  0  0  0  0
    1.0241   -0.9147   -0.7234 N   0  0  0  0  0  0  0  0  0  0  0  0
   -1.9882   -0.5643    0.8059 N   0  0  0  0  0  0  0  0  0  0  0  0
   -1.1368   -0.5104   -0.1102 N   0  0  0  0  0  0  0  0  0  0  0  0
    3.3141   -0.3992   -0.2878 C   0  0  0  0  0  0  0  0  0  0  0  0
    4.6584   -0.7881   -0.3330 C   0  0  0  0  0  0  0  0  0  0  0  0
    2.9977    0.9429   -0.0448 C   0  0  0  0  0  0  0  0  0  0  0  0
    5.6712    0.1509   -0.1380 C   0  0  0  0  0  0  0  0  0  0  0  0
    4.0107    1.8820    0.1501 C   0  0  0  0  0  0  0  0  0  0  0  0
    5.3474    1.4858    0.1035 C   0  0  0  0  0  0  0  0  0  0  0  0
   -3.2165   -0.0777    0.3478 C   0  0  0  0  0  0  0  0  0  0  0  0
   -4.1383   -0.9483   -0.2338 C   0  0  0  0  0  0  0  0  0  0  0  0
   -3.5200    1.2783    0.4715 C   0  0  0  0  0  0  0  0  0  0  0  0
   -5.3633   -0.4631   -0.6918 C   0  0  0  0  0  0  0  0  0  0  0  0
   -4.7451    1.7633    0.0135 C   0  0  0  0  0  0  0  0  0  0  0  0
   -5.6666    0.8926   -0.5681 C   0  0  0  0  0  0  0  0  0  0  0  0
    0.0952   -0.9807    0.2983 C   0  0  0  0  0  0  0  0  0  0  0  0
  1 18  2  0
  2  3  1  0
  2  6  1  0
  3 18  1  0
  4  5  2  0
  4 12  1  0
  5 18  1  0
  6  7  2  0
  6  8  1  0
  7  9  1  0
  8 10  2  0
  9 11  2  0
 10 11  1  0
 12 13  2  0
 12 14  1  0
 13 15  1  0
 14 16  2  0
 15 17  2  0
 16 17  1  0
M  END
>  <PUBCHEM_COMPOUND_CID>  (1) 
10860

>  <PUBCHEM_CONFORMER_RMSD>  (1) 
0.6

>  <PUBCHEM_CONFORMER_DIVERSEORDER>  (1) 
1
23
25
27
16
33
29
26
8
4
28
18
32
14
24
3
30
19
34
22
21
20
6
31
5
13
11
9
2
10
17
15
12
7

>  <PUBCHEM_MMFF94_PARTIAL_CHARGES>  (1) 
30
1 -0.57
10 -0.15
11 -0.15
12 0.18
13 -0.15
14 -0.15
15 -0.15
16 -0.15
17 -0.15
18 0.84
19 0.15
2 -0.52
20 0.15
21 0.4
22 0.15
23 0.15
24 0.15
25 0.15
26 0.15
27 0.37
28 0.15
29 0.15
3 -0.41
30 0.15
4 -0.18
5 -0.21
6 0.1
7 -0.15
8 -0.15
9 -0.15

>  <PUBCHEM_EFFECTIVE_ROTOR_COUNT>  (1) 
5

>  <PUBCHEM_PHARMACOPHORE_FEATURES>  (1) 
6
1 1 acceptor
1 2 donor
1 3 donor
1 5 donor
6 12 13 14 15 16 17 rings
6 6 7 8 9 10 11 rings

>  <PUBCHEM_HEAVY_ATOM_COUNT>  (1) 
18

>  <PUBCHEM_ATOM_DEF_STEREO_COUNT>  (1) 
0

>  <PUBCHEM_ATOM_UDEF_STEREO_COUNT>  (1) 
0

>  <PUBCHEM_BOND_DEF_STEREO_COUNT>  (1) 
0

>  <PUBCHEM_BOND_UDEF_STEREO_COUNT>  (1) 
0

>  <PUBCHEM_ISOTOPIC_ATOM_COUNT>  (1) 
0

>  <PUBCHEM_COMPONENT_COUNT>  (1) 
1

>  <PUBCHEM_CACTVS_TAUTO_COUNT>  (1) 
2

>  <PUBCHEM_CONFORMER_ID>  (1) 
00002A6C00000001

>  <PUBCHEM_MMFF94_ENERGY>  (1) 
53.1297

>  <PUBCHEM_FEATURE_SELFOVERLAP>  (1) 
32.078

>  <PUBCHEM_SHAPE_FINGERPRINT>  (1) 
10595046 47 18344143691988672711
11089746 13 18335136492828786170
11128504 68 14836122191035908096
12596602 18 14562824269363769052
12633257 1 14996290235929087859
13167372 99 18341896234128616824
13288520 33 10447925071171565243
13402501 40 18408038515723223980
13533116 47 17531519876669366138
13551218 46 8646772201174597481
14251718 22 18202280316780157047
14251764 18 11674882178471081213
14251764 38 18409737261135539773
14528608 73 18343300379138351476
15196674 1 18412546513402009896
15537594 2 12319742453373702597
17834072 33 18201716262761528463
17959699 21 18411418388949891513
1813 80 12895354399584732362
19141452 34 9007053565535477481
193927 3 12391503222564155837
19489759 90 17822009826588520883
20157964 124 18342739611418907982
212847 35 18187087261070952884
21315763 129 18411417310607294452
22289505 5 18272091583035522748
22950370 63 9511462229674661826
23402539 116 18410852170215024247
23402655 69 18202565064004885046
23559900 14 18129101121702634478
2767999 5 17967811647883802661
2838139 119 18411978061579749220
2916195 48 18334012813071876081
29717793 49 17131841932537106364
33382 64 9151177558230902436
34797466 226 17775011201848388989
351380 180 18409449193604861108
351380 3 11312057638491805757
3545911 37 18409451380006802967
42 15 8286198357876891627
4325135 7 18201717379869744071
441001 317 18409167701849006609
474 4 18187086186574865236
5104073 3 17967819293426698203
5924683 9 13262979446017680433
59755656 520 17968090945323234850
6328613 192 17968390043362910932
7495541 125 16917062312812005587
9971528 1 17968100793904212910

>  <PUBCHEM_SHAPE_MULTIPOLES>  (1) 
344.64
15.56
1.72
0.83
0.98
0.55
-0.11
5.46
2.41
-0.34
-0.1
0.26
-0.16
0.16

>  <PUBCHEM_SHAPE_SELFOVERLAP>  (1) 
733.439

>  <PUBCHEM_SHAPE_VOLUME>  (1) 
190.3

>  <PUBCHEM_COORDINATE_TYPE>  (1) 
2
5
10

$$$$
