10863
     RDKit          3D

 19 19  0  0  0  0  0  0  0  0999 V2000
   -0.4753    0.3218   -0.0641 O   0  0  0  0  0  0  0  0  0  0  0  0
    0.6059    2.2654   -0.6898 O   0  0  0  0  0  0  0  0  0  0  0  0
   -5.2500   -0.4214    0.2670 N   0  0  0  0  0  0  0  0  0  0  0  0
   -4.2227    0.5548   -0.0751 C   0  0  0  0  0  0  0  0  0  0  0  0
   -2.8354   -0.0587    0.0846 C   0  0  0  0  0  0  0  0  0  0  0  0
   -5.1583   -1.5937   -0.6052 C   0  0  0  0  0  0  0  0  0  0  0  0
   -6.5825    0.1778    0.1731 C   0  0  0  0  0  0  0  0  0  0  0  0
   -1.7391    0.9454   -0.2452 C   0  0  0  0  0  0  0  0  0  0  0  0
   -6.1808   -2.6482   -0.2168 C   0  0  0  0  0  0  0  0  0  0  0  0
   -6.7005    1.3976    1.0712 C   0  0  0  0  0  0  0  0  0  0  0  0
    0.6153    1.1010   -0.3231 C   0  0  0  0  0  0  0  0  0  0  0  0
    1.8276    0.2857   -0.0828 C   0  0  0  0  0  0  0  0  0  0  0  0
    4.3148    0.1313   -0.0420 C   0  0  0  0  0  0  0  0  0  0  0  0
    3.0381    0.8344   -0.2585 C   0  0  0  0  0  0  0  0  0  0  0  0
    4.3346   -1.2542   -0.0406 C   0  0  0  0  0  0  0  0  0  0  0  0
    5.4708    0.8690    0.1560 C   0  0  0  0  0  0  0  0  0  0  0  0
    5.5431   -1.9199    0.1647 C   0  0  0  0  0  0  0  0  0  0  0  0
    6.6792    0.2032    0.3612 C   0  0  0  0  0  0  0  0  0  0  0  0
    6.7153   -1.1913    0.3655 C   0  0  0  0  0  0  0  0  0  0  0  0
  1  8  1  0
  1 11  1  0
  2 11  2  0
  3  4  1  0
  3  6  1  0
  3  7  1  0
  4  5  1  0
  5  8  1  0
  6  9  1  0
  7 10  1  0
 11 12  1  0
 12 14  2  0
 13 14  1  0
 13 15  2  0
 13 16  1  0
 15 17  1  0
 16 18  2  0
 17 19  2  0
 18 19  1  0
M  END
>  <PUBCHEM_COMPOUND_CID>  (1) 
10863

>  <PUBCHEM_CONFORMER_RMSD>  (1) 
0.8

>  <PUBCHEM_CONFORMER_DIVERSEORDER>  (1) 
1
129
68
307
239
53
313
160
151
70
155
279
309
131
319
152
258
256
308
137
224
71
293
159
96
39
264
17
104
316
285
314
164
124
11
203
5
207
165
281
60
3
317
254
157
77
86
123
132
283
176
7
277
100
126
156
297
252
154
13
182
148
180
98
2
267
306
16
170
233
33
106
108
320
14
153
158
184
66
315
50
257
228
4
204
274
138
42
294
125
41
177
21
318
290
84
266
215
198
28
20
282
168
163
109
38
246
212
24
304
9
120
227
261
88
8
101
295
22
221
69
287
150
181
174
15
127
55
241
59
45
243
250
146
216
63
222
97
116
147
122
220
113
78
289
162
85
192
130
280
229
18
210
298
186
292
238
110
114
57
311
310
105
149
75
29
90
67
73
115
140
171
272
199
133
94
190
278
10
111
58
183
284
275
6
36
194
218
208
31
117
201
288
52
225
248
26
64
286
185
178
92
276
82
107
269
202
187
189
19
91
253
296
193
299
47
247
80
142
112
301
251
231
118
273
259
99
196
262
175
217
35
271
43
32
237
214
103
143
291
30
173
93
25
244
83
121
172
312
27
211
37
188
195
81
161
265
44
12
139
56
245
242
191
54
87
48
268
213
134
89
303
141
62
72
209
135
95
23
270
240
144
230
40
255
234
226
200
76
61
260
166
136
34
263
232
167
179
46
205
74
65
305
49
249
169
223
206
79
235
197
302
128
145
300
102
51
119
236
219

>  <PUBCHEM_MMFF94_PARTIAL_CHARGES>  (1) 
23
1 -0.43
11 0.71
12 -0.14
13 0.03
14 -0.18
15 -0.15
16 -0.15
17 -0.15
18 -0.15
19 -0.15
2 -0.57
3 -0.81
36 0.15
37 0.15
38 0.15
39 0.15
4 0.27
40 0.15
41 0.15
42 0.15
6 0.27
7 0.27
8 0.28

>  <PUBCHEM_EFFECTIVE_ROTOR_COUNT>  (1) 
9

>  <PUBCHEM_PHARMACOPHORE_FEATURES>  (1) 
3
1 2 acceptor
1 3 cation
6 13 15 16 17 18 19 rings

>  <PUBCHEM_HEAVY_ATOM_COUNT>  (1) 
19

>  <PUBCHEM_ATOM_DEF_STEREO_COUNT>  (1) 
0

>  <PUBCHEM_ATOM_UDEF_STEREO_COUNT>  (1) 
0

>  <PUBCHEM_BOND_DEF_STEREO_COUNT>  (1) 
0

>  <PUBCHEM_BOND_UDEF_STEREO_COUNT>  (1) 
1

>  <PUBCHEM_ISOTOPIC_ATOM_COUNT>  (1) 
0

>  <PUBCHEM_COMPONENT_COUNT>  (1) 
1

>  <PUBCHEM_CACTVS_TAUTO_COUNT>  (1) 
1

>  <PUBCHEM_CONFORMER_ID>  (1) 
00002A6F00000001

>  <PUBCHEM_MMFF94_ENERGY>  (1) 
38.1515

>  <PUBCHEM_FEATURE_SELFOVERLAP>  (1) 
15.223

>  <PUBCHEM_SHAPE_FINGERPRINT>  (1) 
10299344 5 18410295813009872354
11315181 36 18343302592017258089
11524674 6 16989124271074900767
12091667 2 17313101952278659389
12236239 1 18342176682634289929
12516196 113 18410854369586640624
12596602 18 18060137652147793922
13533116 47 18409450302181463056
13668630 136 17894628193111033603
13685833 64 18259987063166046424
13862211 1 18335138708578334238
13885169 127 18409445865680531093
1420 363 17458348528522648008
14251764 18 18344146994528333965
15183329 4 17022895765999512451
15716309 27 18410011035388018389
17093844 174 18343300371450588001
17780758 139 18202283602841608145
20526848 3 10375869697268070314
21130935 74 18342175583107195458
21150785 3 11602827904005315545
21267235 1 18340207385391667126
21623969 137 18131071528365261350
220451 1 18410299115945257189
22224240 67 16845565418486155718
23035841 295 18333731308199076041
23081809 10 18336272335585159709
23198884 109 8935000374102681045
23402539 116 18413106178375213549
23522609 53 18119279283358942557
23536379 177 18413389826072548137
23559900 14 18338228388467466185
246663 6 16226057686939793081
2767999 5 11887952146585794777
28498 318 18260827064796815365
29717793 49 17676209069944196500
3004659 81 17821729438349357868
351380 3 18408317795897286550
3663271 9 18202284705877914376
4073 2 18188213216058224122
465052 167 18272652351113682206
5104073 3 17987525960822604529
559249 180 18412544328133964463
59682541 35 18342446081244146250
999808 66 17895484721565117355

>  <PUBCHEM_SHAPE_MULTIPOLES>  (1) 
374.29
22.81
2.04
0.74
6.66
0.93
0.05
7.88
4.01
1.64
-0.16
0.38
-0.1
-1.2

>  <PUBCHEM_SHAPE_SELFOVERLAP>  (1) 
746.395

>  <PUBCHEM_SHAPE_VOLUME>  (1) 
222.3

>  <PUBCHEM_COORDINATE_TYPE>  (1) 
2
5
10

$$$$
