10870
     RDKit          3D

 10 10  0  0  0  0  0  0  0  0999 V2000
    2.3969    0.0506   -0.1172 C   0  0  0  0  0  0  0  0  0  0  0  0
    1.2720    0.0075   -1.1699 C   0  0  0  0  0  0  0  0  0  0  0  0
   -0.1167   -0.0019   -0.5790 C   0  0  0  0  0  0  0  0  0  0  0  0
    2.2578    1.2508    0.8227 C   0  0  0  0  0  0  0  0  0  0  0  0
    2.3938   -1.2451    0.6978 C   0  0  0  0  0  0  0  0  0  0  0  0
   -0.7222   -1.2138   -0.2852 C   0  0  0  0  0  0  0  0  0  0  0  0
   -0.7622    1.2012   -0.3407 C   0  0  0  0  0  0  0  0  0  0  0  0
   -2.0058   -1.2225    0.2606 C   0  0  0  0  0  0  0  0  0  0  0  0
   -2.0459    1.1925    0.2052 C   0  0  0  0  0  0  0  0  0  0  0  0
   -2.6677   -0.0194    0.5058 C   0  0  0  0  0  0  0  0  0  0  0  0
  1  2  1  0
  1  4  1  0
  1  5  1  0
  2  3  1  0
  3  6  2  0
  3  7  1  0
  6  8  1  0
  7  9  2  0
  8 10  2  0
  9 10  1  0
M  END
>  <PUBCHEM_COMPOUND_CID>  (1) 
10870

>  <PUBCHEM_CONFORMER_RMSD>  (1) 
0.4

>  <PUBCHEM_CONFORMER_DIVERSEORDER>  (1) 
1

>  <PUBCHEM_MMFF94_PARTIAL_CHARGES>  (1) 
12
10 -0.15
2 0.14
20 0.15
21 0.15
22 0.15
23 0.15
24 0.15
3 -0.14
6 -0.15
7 -0.15
8 -0.15
9 -0.15

>  <PUBCHEM_EFFECTIVE_ROTOR_COUNT>  (1) 
2

>  <PUBCHEM_PHARMACOPHORE_FEATURES>  (1) 
2
3 1 4 5 hydrophobe
6 3 6 7 8 9 10 rings

>  <PUBCHEM_HEAVY_ATOM_COUNT>  (1) 
10

>  <PUBCHEM_ATOM_DEF_STEREO_COUNT>  (1) 
0

>  <PUBCHEM_ATOM_UDEF_STEREO_COUNT>  (1) 
0

>  <PUBCHEM_BOND_DEF_STEREO_COUNT>  (1) 
0

>  <PUBCHEM_BOND_UDEF_STEREO_COUNT>  (1) 
0

>  <PUBCHEM_ISOTOPIC_ATOM_COUNT>  (1) 
0

>  <PUBCHEM_COMPONENT_COUNT>  (1) 
1

>  <PUBCHEM_CACTVS_TAUTO_COUNT>  (1) 
1

>  <PUBCHEM_CONFORMER_ID>  (1) 
00002A7600000001

>  <PUBCHEM_MMFF94_ENERGY>  (1) 
21.8183

>  <PUBCHEM_FEATURE_SELFOVERLAP>  (1) 
10.148

>  <PUBCHEM_SHAPE_FINGERPRINT>  (1) 
10857977 72 18339366374000394073
12696612 119 18341891956583906440
12932764 1 18411705391211661599
15076042 46 18265614290667711328
15775835 57 18409737235443999912
16945 1 18261397805414599693
19973954 147 18131357401135093256
20645464 45 18060421313326024790
20653085 51 10879725320001355599
20871998 184 18128826407178280943
21040471 1 18265912258524632077
22445834 79 18114741534213752338
23552423 10 18042414684264688367
29004967 10 14923946777352319460
369184 2 18412258441455343599
5084963 1 18040721311782782037

>  <PUBCHEM_SHAPE_MULTIPOLES>  (1) 
205.8
4.08
1.51
0.96
0.46
0.02
0.08
0.05
-1.08
-0.08
-0.21
0.34
-0.03
0.04

>  <PUBCHEM_SHAPE_SELFOVERLAP>  (1) 
414.164

>  <PUBCHEM_SHAPE_VOLUME>  (1) 
118.1

>  <PUBCHEM_COORDINATE_TYPE>  (1) 
2
5
10

$$$$
