10884
     RDKit          3D

 10  9  0  0  0  0  0  0  0  0999 V2000
   -1.7437   -0.4223    0.1776 O   0  0  0  0  0  0  0  0  0  0  0  0
   -0.8666    1.6874   -0.0579 O   0  0  0  0  0  0  0  0  0  0  0  0
    0.4312   -0.0982    0.6593 N   0  0  0  0  0  0  0  0  0  0  0  0
    2.7882    0.0263   -0.0638 C   0  0  0  0  0  0  0  0  0  0  0  0
    1.6778    0.5989    0.8243 C   0  0  0  0  0  0  0  0  0  0  0  0
    2.3992    0.1540   -1.5371 C   0  0  0  0  0  0  0  0  0  0  0  0
    3.0826   -1.4371    0.2734 C   0  0  0  0  0  0  0  0  0  0  0  0
   -0.7389    0.5023    0.2319 C   0  0  0  0  0  0  0  0  0  0  0  0
   -3.0193    0.0665   -0.2524 C   0  0  0  0  0  0  0  0  0  0  0  0
   -4.0103   -1.0778   -0.2554 C   0  0  0  0  0  0  0  0  0  0  0  0
  1  8  1  0
  1  9  1  0
  2  8  2  0
  3  5  1  0
  3  8  1  0
  4  5  1  0
  4  6  1  0
  4  7  1  0
  9 10  1  0
M  END
>  <PUBCHEM_COMPOUND_CID>  (1) 
10884

>  <PUBCHEM_CONFORMER_RMSD>  (1) 
0.6

>  <PUBCHEM_CONFORMER_DIVERSEORDER>  (1) 
1
7
15
11
5
14
4
3
16
19
9
2
17
21
12
20
6
22
23
8
18
13
10

>  <PUBCHEM_MMFF94_PARTIAL_CHARGES>  (1) 
7
1 -0.43
2 -0.57
20 0.37
3 -0.73
5 0.3
8 0.78
9 0.28

>  <PUBCHEM_EFFECTIVE_ROTOR_COUNT>  (1) 
5

>  <PUBCHEM_PHARMACOPHORE_FEATURES>  (1) 
3
1 2 acceptor
1 3 donor
3 4 6 7 hydrophobe

>  <PUBCHEM_HEAVY_ATOM_COUNT>  (1) 
10

>  <PUBCHEM_ATOM_DEF_STEREO_COUNT>  (1) 
0

>  <PUBCHEM_ATOM_UDEF_STEREO_COUNT>  (1) 
0

>  <PUBCHEM_BOND_DEF_STEREO_COUNT>  (1) 
0

>  <PUBCHEM_BOND_UDEF_STEREO_COUNT>  (1) 
0

>  <PUBCHEM_ISOTOPIC_ATOM_COUNT>  (1) 
0

>  <PUBCHEM_COMPONENT_COUNT>  (1) 
1

>  <PUBCHEM_CACTVS_TAUTO_COUNT>  (1) 
2

>  <PUBCHEM_CONFORMER_ID>  (1) 
00002A8400000001

>  <PUBCHEM_MMFF94_ENERGY>  (1) 
4.5123

>  <PUBCHEM_FEATURE_SELFOVERLAP>  (1) 
15.223

>  <PUBCHEM_SHAPE_FINGERPRINT>  (1) 
10149128 111 10881404201147729494
11031198 65 13479134566666299178
12897270 3 18259991478518903792
12932741 1 14996584875080865640
12932764 1 18342742905299997913
14252887 29 17060625511875582718
14390081 3 13839984430110281141
177051 138 18412261709946931694
18186145 218 16008749104412634077
20201158 50 17632580443963879710
20281407 28 18272934920769034803
20653085 51 16153431610344660237
21119208 17 17095519591224621151
21293036 1 17822010947253173233
22485316 2 18343576361131614615
23552423 10 17969221135812202842
29004967 10 16415196733305333368
3248919 1 17603874390074930432
581208 293 16415476064618583862

>  <PUBCHEM_SHAPE_MULTIPOLES>  (1) 
189.08
6.51
1.24
0.99
4.16
0.01
-0.31
2.78
-0.93
-0.02
0.07
-0.73
-0.05
-0.19

>  <PUBCHEM_SHAPE_SELFOVERLAP>  (1) 
345.088

>  <PUBCHEM_SHAPE_VOLUME>  (1) 
121.4

>  <PUBCHEM_COORDINATE_TYPE>  (1) 
2
5
10

$$$$
