10895
     RDKit          3D

  9  8  0  0  0  0  0  0  0  0999 V2000
    0.1154   -0.3002   -0.2277 O   0  0  0  0  0  0  0  0  0  0  0  0
    1.5683    1.3689    0.4256 O   0  0  0  0  0  0  0  0  0  0  0  0
   -2.2970   -0.1654   -0.3286 C   0  0  0  0  0  0  0  0  0  0  0  0
   -0.9908    0.5638   -0.0024 C   0  0  0  0  0  0  0  0  0  0  0  0
   -2.4842   -1.3976    0.5593 C   0  0  0  0  0  0  0  0  0  0  0  0
   -3.4865    0.7808   -0.1810 C   0  0  0  0  0  0  0  0  0  0  0  0
    2.4105   -0.8064   -0.2587 C   0  0  0  0  0  0  0  0  0  0  0  0
    1.3518    0.2325    0.0278 C   0  0  0  0  0  0  0  0  0  0  0  0
    3.8126   -0.2764   -0.0142 C   0  0  0  0  0  0  0  0  0  0  0  0
  1  4  1  0
  1  8  1  0
  2  8  2  0
  3  4  1  0
  3  5  1  0
  3  6  1  0
  7  8  1  0
  7  9  1  0
M  END
>  <PUBCHEM_COMPOUND_CID>  (1) 
10895

>  <PUBCHEM_CONFORMER_RMSD>  (1) 
0.6

>  <PUBCHEM_CONFORMER_DIVERSEORDER>  (1) 
1
18
16
7
20
2
19
11
4
13
8
12
10
3
9
14
17
5
6
15

>  <PUBCHEM_MMFF94_PARTIAL_CHARGES>  (1) 
5
1 -0.43
2 -0.57
4 0.28
7 0.06
8 0.66

>  <PUBCHEM_EFFECTIVE_ROTOR_COUNT>  (1) 
4

>  <PUBCHEM_PHARMACOPHORE_FEATURES>  (1) 
3
1 2 acceptor
1 9 hydrophobe
3 3 5 6 hydrophobe

>  <PUBCHEM_HEAVY_ATOM_COUNT>  (1) 
9

>  <PUBCHEM_ATOM_DEF_STEREO_COUNT>  (1) 
0

>  <PUBCHEM_ATOM_UDEF_STEREO_COUNT>  (1) 
0

>  <PUBCHEM_BOND_DEF_STEREO_COUNT>  (1) 
0

>  <PUBCHEM_BOND_UDEF_STEREO_COUNT>  (1) 
0

>  <PUBCHEM_ISOTOPIC_ATOM_COUNT>  (1) 
0

>  <PUBCHEM_COMPONENT_COUNT>  (1) 
1

>  <PUBCHEM_CACTVS_TAUTO_COUNT>  (1) 
1

>  <PUBCHEM_CONFORMER_ID>  (1) 
00002A8F00000001

>  <PUBCHEM_MMFF94_ENERGY>  (1) 
5.2216

>  <PUBCHEM_FEATURE_SELFOVERLAP>  (1) 
15.223

>  <PUBCHEM_SHAPE_FINGERPRINT>  (1) 
10219947 1 17203610372122886764
11062470 55 17989203720301693580
12932741 1 18335695078857999461
12932764 1 16660351602223498901
14325111 11 18409729594628556340
20201158 50 18342176639610926407
20279233 1 18343304751452300326
20645464 45 18412551994286408999
20645477 70 17845935104872155750
22485316 2 18259981561650608858
23402539 116 18201430351701058949
23552423 10 18113901614740963911
29004967 10 18202285784125760194
3248919 1 18261664982408343109

>  <PUBCHEM_SHAPE_MULTIPOLES>  (1) 
173.48
6.35
1.2
0.68
1.4
0.1
-0.01
0.41
0.16
-0.43
-0.17
-0.07
0.03
0.39

>  <PUBCHEM_SHAPE_SELFOVERLAP>  (1) 
315.034

>  <PUBCHEM_SHAPE_VOLUME>  (1) 
112.2

>  <PUBCHEM_COORDINATE_TYPE>  (1) 
2
5
10

$$$$
