109
     RDKit          3D

  9  8  0  0  1  0  0  0  0  0999 V2000
   -1.7190   -0.4001   -0.3156 S   0  0  0  0  0  0  0  0  0  0  0  0
    1.0909   -1.7423    0.2861 O   0  0  0  0  0  0  0  0  0  0  0  0
   -2.8933    0.5576   -0.8527 O   0  0  0  0  0  0  0  0  0  0  0  0
    2.2881   -0.3565   -1.0617 O   0  0  0  0  0  0  0  0  0  0  0  0
   -2.0699   -0.8188    1.0760 O   0  0  0  0  0  0  0  0  0  0  0  0
    1.6475    1.7147    0.6501 N   0  0  0  0  0  0  0  0  0  0  0  0
    0.7265    0.5793    0.5650 C   0  0  0  0  0  0  0  0  0  0  0  0
   -0.5416    0.9863   -0.1808 C   0  0  0  0  0  0  0  0  0  0  0  0
    1.4708   -0.5200   -0.1664 C   0  0  0  0  0  0  0  0  0  0  0  0
  1  3  1  0
  1  5  2  0
  1  8  1  0
  2  9  1  0
  4  9  2  0
  6  7  1  0
  7  8  1  0
  7  9  1  0
M  END
>  <PUBCHEM_COMPOUND_CID>  (1) 
109

>  <PUBCHEM_CONFORMER_RMSD>  (1) 
0.6

>  <PUBCHEM_CONFORMER_DIVERSEORDER>  (1) 
1
11
21
23
10
24
22
18
20
19
17
13
15
16
4
6
5
9
3
2
14
8
12
7

>  <PUBCHEM_MMFF94_PARTIAL_CHARGES>  (1) 
13
1 0.36
13 0.36
14 0.36
15 0.5
16 0.5
2 -0.65
3 -0.55
4 -0.57
5 -0.5
6 -0.99
7 0.33
8 0.19
9 0.66

>  <PUBCHEM_EFFECTIVE_ROTOR_COUNT>  (1) 
3

>  <PUBCHEM_PHARMACOPHORE_FEATURES>  (1) 
5
1 2 acceptor
1 4 acceptor
1 6 cation
1 6 donor
3 2 4 9 anion

>  <PUBCHEM_HEAVY_ATOM_COUNT>  (1) 
9

>  <PUBCHEM_ATOM_DEF_STEREO_COUNT>  (1) 
0

>  <PUBCHEM_ATOM_UDEF_STEREO_COUNT>  (1) 
1

>  <PUBCHEM_BOND_DEF_STEREO_COUNT>  (1) 
0

>  <PUBCHEM_BOND_UDEF_STEREO_COUNT>  (1) 
0

>  <PUBCHEM_ISOTOPIC_ATOM_COUNT>  (1) 
0

>  <PUBCHEM_COMPONENT_COUNT>  (1) 
1

>  <PUBCHEM_CACTVS_TAUTO_COUNT>  (1) 
1

>  <PUBCHEM_CONFORMER_ID>  (1) 
0000006D00000001

>  <PUBCHEM_MMFF94_ENERGY>  (1) 
6.6718

>  <PUBCHEM_FEATURE_SELFOVERLAP>  (1) 
25.429

>  <PUBCHEM_SHAPE_FINGERPRINT>  (1) 
12897270 3 18041572368284824670
12932741 1 18408603690679980037
137420 1 9361771203654962624
18185500 45 18123471570654661314
20711985 344 17554064138335846396
21040471 1 18051122893908925392
21922407 69 15984809502017877171
23552333 60 17632280311664773369
23552449 11 18058430080488045913
24536 1 17530676623980169879
29004967 10 18411421717253925960

>  <PUBCHEM_SHAPE_MULTIPOLES>  (1) 
160.61
3.42
1.46
0.96
1.52
0.05
0
-0.08
0.63
-0.63
-0.25
0.12
-0.05
0.51

>  <PUBCHEM_SHAPE_SELFOVERLAP>  (1) 
291.021

>  <PUBCHEM_SHAPE_VOLUME>  (1) 
103

>  <PUBCHEM_COORDINATE_TYPE>  (1) 
2
5
10

$$$$
