10906
     RDKit          3D

  7  6  0  0  0  0  0  0  0  0999 V2000
    0.4423   -0.6691   -0.0009 O   0  0  0  0  0  0  0  0  0  0  0  0
    2.6718   -0.2534   -0.0002 O   0  0  0  0  0  0  0  0  0  0  0  0
    1.4639    0.3179    0.0005 N   0  0  0  0  0  0  0  0  0  0  0  0
   -0.8243   -0.0095    0.0000 C   0  0  0  0  0  0  0  0  0  0  0  0
   -0.9209    0.8591   -1.2534 C   0  0  0  0  0  0  0  0  0  0  0  0
   -1.9050   -1.0885   -0.0094 C   0  0  0  0  0  0  0  0  0  0  0  0
   -0.9278    0.8435    1.2634 C   0  0  0  0  0  0  0  0  0  0  0  0
  1  3  1  0
  1  4  1  0
  2  3  2  0
  4  5  1  0
  4  6  1  0
  4  7  1  0
M  END
>  <PUBCHEM_COMPOUND_CID>  (1) 
10906

>  <PUBCHEM_CONFORMER_RMSD>  (1) 
0.4

>  <PUBCHEM_CONFORMER_DIVERSEORDER>  (1) 
1
3
4
2

>  <PUBCHEM_MMFF94_PARTIAL_CHARGES>  (1) 
4
1 -0.09
2 -0.3
3 0.12
4 0.28

>  <PUBCHEM_EFFECTIVE_ROTOR_COUNT>  (1) 
2

>  <PUBCHEM_PHARMACOPHORE_FEATURES>  (1) 
1
4 4 5 6 7 hydrophobe

>  <PUBCHEM_HEAVY_ATOM_COUNT>  (1) 
7

>  <PUBCHEM_ATOM_DEF_STEREO_COUNT>  (1) 
0

>  <PUBCHEM_ATOM_UDEF_STEREO_COUNT>  (1) 
0

>  <PUBCHEM_BOND_DEF_STEREO_COUNT>  (1) 
0

>  <PUBCHEM_BOND_UDEF_STEREO_COUNT>  (1) 
0

>  <PUBCHEM_ISOTOPIC_ATOM_COUNT>  (1) 
0

>  <PUBCHEM_COMPONENT_COUNT>  (1) 
1

>  <PUBCHEM_CACTVS_TAUTO_COUNT>  (1) 
1

>  <PUBCHEM_CONFORMER_ID>  (1) 
00002A9A00000001

>  <PUBCHEM_MMFF94_ENERGY>  (1) 
17.1275

>  <PUBCHEM_FEATURE_SELFOVERLAP>  (1) 
5.074

>  <PUBCHEM_SHAPE_FINGERPRINT>  (1) 
137420 1 9745464409113795449
16714656 1 18040709281837946327
20096714 4 17415856686149243368
21040471 1 17535162489555823533
24536 1 18059287661071849530
29004967 10 17560802190140281779
5943 1 14977404066627866021

>  <PUBCHEM_SHAPE_MULTIPOLES>  (1) 
127.34
2.62
1.09
1.07
2.12
0
0.02
0
0.65
-0.43
-0.44
-0.47
0
0

>  <PUBCHEM_SHAPE_SELFOVERLAP>  (1) 
227.362

>  <PUBCHEM_SHAPE_VOLUME>  (1) 
85

>  <PUBCHEM_COORDINATE_TYPE>  (1) 
2
5
10

$$$$
