10929
     RDKit          3D

  6  5  0  0  0  0  0  0  0  0999 V2000
    0.2753   -0.5518   -0.1672 O   0  0  0  0  0  0  0  0  0  0  0  0
    2.5209   -0.2131   -0.1640 O   0  0  0  0  0  0  0  0  0  0  0  0
    1.3531    0.2610    0.2796 N   0  0  0  0  0  0  0  0  0  0  0  0
   -0.9425   -0.0060    0.3306 C   0  0  0  0  0  0  0  0  0  0  0  0
   -1.1072    1.4120   -0.1944 C   0  0  0  0  0  0  0  0  0  0  0  0
   -2.0995   -0.9020   -0.0846 C   0  0  0  0  0  0  0  0  0  0  0  0
  1  3  1  0
  1  4  1  0
  2  3  2  0
  4  5  1  0
  4  6  1  0
M  END
>  <PUBCHEM_COMPOUND_CID>  (1) 
10929

>  <PUBCHEM_CONFORMER_RMSD>  (1) 
0.4

>  <PUBCHEM_CONFORMER_DIVERSEORDER>  (1) 
1
8
5
9
3
2
7
4
6

>  <PUBCHEM_MMFF94_PARTIAL_CHARGES>  (1) 
4
1 -0.09
2 -0.3
3 0.12
4 0.28

>  <PUBCHEM_EFFECTIVE_ROTOR_COUNT>  (1) 
2

>  <PUBCHEM_PHARMACOPHORE_FEATURES>  (1) 
1
3 4 5 6 hydrophobe

>  <PUBCHEM_HEAVY_ATOM_COUNT>  (1) 
6

>  <PUBCHEM_ATOM_DEF_STEREO_COUNT>  (1) 
0

>  <PUBCHEM_ATOM_UDEF_STEREO_COUNT>  (1) 
0

>  <PUBCHEM_BOND_DEF_STEREO_COUNT>  (1) 
0

>  <PUBCHEM_BOND_UDEF_STEREO_COUNT>  (1) 
0

>  <PUBCHEM_ISOTOPIC_ATOM_COUNT>  (1) 
0

>  <PUBCHEM_COMPONENT_COUNT>  (1) 
1

>  <PUBCHEM_CACTVS_TAUTO_COUNT>  (1) 
1

>  <PUBCHEM_CONFORMER_ID>  (1) 
00002AB100000001

>  <PUBCHEM_MMFF94_ENERGY>  (1) 
6.5918

>  <PUBCHEM_FEATURE_SELFOVERLAP>  (1) 
5.074

>  <PUBCHEM_SHAPE_FINGERPRINT>  (1) 
139733 1 9295024461158574675
16714656 1 18412265055694553415
20096714 4 18120091676079225153
21040471 1 18049435942255505129
23552449 1 18410569565678031069
29004967 10 18264491861273928483
5460574 1 8646776590356386546
5943 1 11987646433935057153

>  <PUBCHEM_SHAPE_MULTIPOLES>  (1) 
106.76
2.93
1.17
0.62
1.65
0.39
0.01
-0.65
-0.16
-0.64
-0.09
-0.07
0.02
0.05

>  <PUBCHEM_SHAPE_SELFOVERLAP>  (1) 
182.867

>  <PUBCHEM_SHAPE_VOLUME>  (1) 
72.8

>  <PUBCHEM_COORDINATE_TYPE>  (1) 
2
5
10

$$$$
