10920
     RDKit          3D

 13 12  0  0  0  0  0  0  0  0999 V2000
   -3.7261    0.0632    0.0026 N   0  0  0  0  0  0  0  0  0  0  0  0
    3.7197    0.0630    0.0016 N   0  0  0  0  0  0  0  0  0  0  0  0
   -2.5364   -0.8201    0.0095 C   0  0  0  0  0  0  0  0  0  0  0  0
    2.5329   -0.8252   -0.0319 C   0  0  0  0  0  0  0  0  0  0  0  0
   -1.2543    0.0031   -0.0140 C   0  0  0  0  0  0  0  0  0  0  0  0
    1.2722    0.0264   -0.0115 C   0  0  0  0  0  0  0  0  0  0  0  0
    0.0176   -0.8497    0.0018 C   0  0  0  0  0  0  0  0  0  0  0  0
   -3.7630    0.9420    1.2616 C   0  0  0  0  0  0  0  0  0  0  0  0
   -3.7133    0.9888   -1.2228 C   0  0  0  0  0  0  0  0  0  0  0  0
   -5.0206   -0.7621   -0.0387 C   0  0  0  0  0  0  0  0  0  0  0  0
    3.7161    1.0252   -1.1949 C   0  0  0  0  0  0  0  0  0  0  0  0
    3.7379    0.9020    1.2873 C   0  0  0  0  0  0  0  0  0  0  0  0
    5.0172   -0.7563   -0.0506 C   0  0  0  0  0  0  0  0  0  0  0  0
  1  3  1  0
  1  8  1  0
  1  9  1  0
  1 10  1  0
  2  4  1  0
  2 11  1  0
  2 12  1  0
  2 13  1  0
  3  5  1  0
  4  6  1  0
  5  7  1  0
  6  7  1  0
M  CHG  2   1   1   2   1
M  END
>  <PUBCHEM_COMPOUND_CID>  (1) 
10920

>  <PUBCHEM_CONFORMER_RMSD>  (1) 
0.6

>  <PUBCHEM_CONFORMER_DIVERSEORDER>  (1) 
1
3
4
2

>  <PUBCHEM_MMFF94_PARTIAL_CHARGES>  (1) 
10
1 -1.01
10 0.5
11 0.5
12 0.5
13 0.5
2 -1.01
3 0.5
4 0.5
8 0.5
9 0.5

>  <PUBCHEM_EFFECTIVE_ROTOR_COUNT>  (1) 
6

>  <PUBCHEM_PHARMACOPHORE_FEATURES>  (1) 
2
1 1 cation
1 2 cation

>  <PUBCHEM_HEAVY_ATOM_COUNT>  (1) 
13

>  <PUBCHEM_ATOM_DEF_STEREO_COUNT>  (1) 
0

>  <PUBCHEM_ATOM_UDEF_STEREO_COUNT>  (1) 
0

>  <PUBCHEM_BOND_DEF_STEREO_COUNT>  (1) 
0

>  <PUBCHEM_BOND_UDEF_STEREO_COUNT>  (1) 
0

>  <PUBCHEM_ISOTOPIC_ATOM_COUNT>  (1) 
0

>  <PUBCHEM_COMPONENT_COUNT>  (1) 
1

>  <PUBCHEM_CACTVS_TAUTO_COUNT>  (1) 
1

>  <PUBCHEM_CONFORMER_ID>  (1) 
00002AA800000001

>  <PUBCHEM_MMFF94_ENERGY>  (1) 
44.5096

>  <PUBCHEM_FEATURE_SELFOVERLAP>  (1) 
10.149

>  <PUBCHEM_SHAPE_FINGERPRINT>  (1) 
10680689 15 17676491640069008467
10912923 1 15791449322569240936
11287383 113 17060054895226163991
114248 4 15913608380161588035
11987891 27 11167944641023136056
13081056 2 17989204858389016417
14123238 8 18333452058010292687
14252887 29 11025794280674385406
15239154 128 18411138038917099561
17834072 33 18334296517305567903
17834076 25 18343023289297012454
18186145 218 18342177756449843546
1986462 14 18273215317898890719
20432913 95 12324240550852261960
20645477 70 18202289057018070854
20828058 21 17603584118889113774
212847 35 18341897398586772504
23402539 116 16702016448659798648
23402655 69 15985109595767552008
23557571 272 18334299730120252333
42788 4 18410856559639919511
4990 188 16845579712058227774
522135 26 17095240320257041386
633830 44 17274827947387216933
90127 26 17240770566259010436

>  <PUBCHEM_SHAPE_MULTIPOLES>  (1) 
257.57
12.04
1.16
1.1
0.11
0.08
-0.05
0.53
-0.01
0
0.03
0
0.47
-0.01

>  <PUBCHEM_SHAPE_SELFOVERLAP>  (1) 
461.796

>  <PUBCHEM_SHAPE_VOLUME>  (1) 
171.1

>  <PUBCHEM_COORDINATE_TYPE>  (1) 
2
5
10

$$$$
