10926
     RDKit          3D

  6  5  0  0  0  0  0  0  0  0999 V2000
   -1.6676   -1.4434   -0.3606 Cl  0  0  0  0  0  0  0  0  0  0  0  0
   -1.6258    1.4718   -0.3541 Cl  0  0  0  0  0  0  0  0  0  0  0  0
    0.3895   -0.0175    0.7768 C   0  0  0  0  0  0  0  0  0  0  0  0
    1.2743   -0.0275   -0.4757 C   0  0  0  0  0  0  0  0  0  0  0  0
   -1.1207    0.0047    0.5195 C   0  0  0  0  0  0  0  0  0  0  0  0
    2.7504    0.0120   -0.1059 C   0  0  0  0  0  0  0  0  0  0  0  0
  1  5  1  0
  2  5  1  0
  3  4  1  0
  3  5  1  0
  4  6  1  0
M  END
>  <PUBCHEM_COMPOUND_CID>  (1) 
10926

>  <PUBCHEM_CONFORMER_RMSD>  (1) 
0.4

>  <PUBCHEM_CONFORMER_DIVERSEORDER>  (1) 
1
9
4
8
5
2
7
3
6

>  <PUBCHEM_MMFF94_PARTIAL_CHARGES>  (1) 
3
1 -0.29
2 -0.29
5 0.58

>  <PUBCHEM_EFFECTIVE_ROTOR_COUNT>  (1) 
2

>  <PUBCHEM_PHARMACOPHORE_FEATURES>  (1) 
1
1 6 hydrophobe

>  <PUBCHEM_HEAVY_ATOM_COUNT>  (1) 
6

>  <PUBCHEM_ATOM_DEF_STEREO_COUNT>  (1) 
0

>  <PUBCHEM_ATOM_UDEF_STEREO_COUNT>  (1) 
0

>  <PUBCHEM_BOND_DEF_STEREO_COUNT>  (1) 
0

>  <PUBCHEM_BOND_UDEF_STEREO_COUNT>  (1) 
0

>  <PUBCHEM_ISOTOPIC_ATOM_COUNT>  (1) 
0

>  <PUBCHEM_COMPONENT_COUNT>  (1) 
1

>  <PUBCHEM_CACTVS_TAUTO_COUNT>  (1) 
1

>  <PUBCHEM_CONFORMER_ID>  (1) 
00002AAE00000001

>  <PUBCHEM_MMFF94_ENERGY>  (1) 
0.0025

>  <PUBCHEM_FEATURE_SELFOVERLAP>  (1) 
5.074

>  <PUBCHEM_SHAPE_FINGERPRINT>  (1) 
12932741 1 17775563139621590584
139733 1 11603078600972037387
16714656 1 18410859858559729811
20096714 4 17677900032459053177
21040471 1 18194391200254176297
23552449 1 18412262852323849316
24536 1 17275112695350475184
29004967 10 16343713152798215714
5460574 1 9223236221784044154
5943 1 17335107732167170873

>  <PUBCHEM_SHAPE_MULTIPOLES>  (1) 
127.22
3.3
1.38
0.85
2.22
0.03
0.06
-0.02
-0.46
-1.22
-0.26
-0.04
0
0

>  <PUBCHEM_SHAPE_SELFOVERLAP>  (1) 
203.33

>  <PUBCHEM_SHAPE_VOLUME>  (1) 
88.8

>  <PUBCHEM_COORDINATE_TYPE>  (1) 
2
5
10

$$$$
