10924
     RDKit          3D

  6  5  0  0  0  0  0  0  0  0999 V2000
    3.2735   -0.2732   -0.2211 I   0  0  0  0  0  0  0  0  0  0  0  0
   -1.1671   -0.0331    0.3272 C   0  0  0  0  0  0  0  0  0  0  0  0
    0.2460   -0.5006   -0.0714 C   0  0  0  0  0  0  0  0  0  0  0  0
   -1.4455    1.3475   -0.2726 C   0  0  0  0  0  0  0  0  0  0  0  0
   -2.2535   -1.0152   -0.1135 C   0  0  0  0  0  0  0  0  0  0  0  0
    1.3466    0.4746    0.3514 C   0  0  0  0  0  0  0  0  0  0  0  0
  1  6  1  0
  2  3  1  0
  2  4  1  0
  2  5  1  0
  3  6  1  0
M  END
>  <PUBCHEM_COMPOUND_CID>  (1) 
10924

>  <PUBCHEM_CONFORMER_RMSD>  (1) 
0.4

>  <PUBCHEM_CONFORMER_DIVERSEORDER>  (1) 
1
2

>  <PUBCHEM_MMFF94_PARTIAL_CHARGES>  (1) 
2
1 -0.19
6 0.19

>  <PUBCHEM_EFFECTIVE_ROTOR_COUNT>  (1) 
2

>  <PUBCHEM_PHARMACOPHORE_FEATURES>  (1) 
2
1 1 hydrophobe
3 2 4 5 hydrophobe

>  <PUBCHEM_HEAVY_ATOM_COUNT>  (1) 
6

>  <PUBCHEM_ATOM_DEF_STEREO_COUNT>  (1) 
0

>  <PUBCHEM_ATOM_UDEF_STEREO_COUNT>  (1) 
0

>  <PUBCHEM_BOND_DEF_STEREO_COUNT>  (1) 
0

>  <PUBCHEM_BOND_UDEF_STEREO_COUNT>  (1) 
0

>  <PUBCHEM_ISOTOPIC_ATOM_COUNT>  (1) 
0

>  <PUBCHEM_COMPONENT_COUNT>  (1) 
1

>  <PUBCHEM_CACTVS_TAUTO_COUNT>  (1) 
1

>  <PUBCHEM_CONFORMER_ID>  (1) 
00002AAC00000001

>  <PUBCHEM_MMFF94_ENERGY>  (1) 
4.3445

>  <PUBCHEM_FEATURE_SELFOVERLAP>  (1) 
10.149

>  <PUBCHEM_SHAPE_FINGERPRINT>  (1) 
12932741 1 18060125536277140520
12932764 1 18412829075427108394
14325111 11 18410575068052941422
14390081 3 18335137579487244968
16714656 1 18410576209970981726
21040471 1 18120928408870707465
23552423 10 18187649038134623746
29004967 10 16702308948949400882
3248919 1 17095246917147375634
5460574 1 8718831981260681970

>  <PUBCHEM_SHAPE_MULTIPOLES>  (1) 
135.41
4.74
1.19
0.73
3.35
0.16
-0.02
-0.72
-0.43
-0.67
-0.09
0.15
0.01
0.11

>  <PUBCHEM_SHAPE_SELFOVERLAP>  (1) 
214.693

>  <PUBCHEM_SHAPE_VOLUME>  (1) 
99.1

>  <PUBCHEM_COORDINATE_TYPE>  (1) 
2
5
10

$$$$
