10931
     RDKit          3D

  7  6  0  0  0  0  0  0  0  0999 V2000
   -2.2168    0.9407   -0.3145 O   0  0  0  0  0  0  0  0  0  0  0  0
   -1.5477   -1.1489    0.2951 O   0  0  0  0  0  0  0  0  0  0  0  0
    1.2118    0.1017   -0.0018 C   0  0  0  0  0  0  0  0  0  0  0  0
    2.5575    0.7635    0.0999 C   0  0  0  0  0  0  0  0  0  0  0  0
    1.2779   -1.3706   -0.3194 C   0  0  0  0  0  0  0  0  0  0  0  0
    0.0157    0.6923    0.1728 C   0  0  0  0  0  0  0  0  0  0  0  0
   -1.2983    0.0214    0.0680 C   0  0  0  0  0  0  0  0  0  0  0  0
  1  7  1  0
  2  7  2  0
  3  4  1  0
  3  5  1  0
  3  6  2  3
  6  7  1  0
M  END
>  <PUBCHEM_COMPOUND_CID>  (1) 
10931

>  <PUBCHEM_CONFORMER_RMSD>  (1) 
0.4

>  <PUBCHEM_CONFORMER_DIVERSEORDER>  (1) 
2
1
3

>  <PUBCHEM_MMFF94_PARTIAL_CHARGES>  (1) 
9
1 -0.65
14 0.15
15 0.5
2 -0.57
3 -0.28
4 0.14
5 0.14
6 -0.14
7 0.71

>  <PUBCHEM_EFFECTIVE_ROTOR_COUNT>  (1) 
1

>  <PUBCHEM_PHARMACOPHORE_FEATURES>  (1) 
4
1 1 acceptor
1 2 acceptor
3 1 2 7 anion
3 3 4 5 hydrophobe

>  <PUBCHEM_HEAVY_ATOM_COUNT>  (1) 
7

>  <PUBCHEM_ATOM_DEF_STEREO_COUNT>  (1) 
0

>  <PUBCHEM_ATOM_UDEF_STEREO_COUNT>  (1) 
0

>  <PUBCHEM_BOND_DEF_STEREO_COUNT>  (1) 
0

>  <PUBCHEM_BOND_UDEF_STEREO_COUNT>  (1) 
0

>  <PUBCHEM_ISOTOPIC_ATOM_COUNT>  (1) 
0

>  <PUBCHEM_COMPONENT_COUNT>  (1) 
1

>  <PUBCHEM_CACTVS_TAUTO_COUNT>  (1) 
1

>  <PUBCHEM_CONFORMER_ID>  (1) 
00002AB300000002

>  <PUBCHEM_MMFF94_ENERGY>  (1) 
13.1535

>  <PUBCHEM_FEATURE_SELFOVERLAP>  (1) 
20.354

>  <PUBCHEM_SHAPE_FINGERPRINT>  (1) 
14390081 3 18343579655176631240
16714656 1 18196095671026397358
20096714 4 18410293579637440944
21040471 1 18409167688336370156
23552423 10 18261116244496630806
24536 1 18341889654185614400
29004967 10 18341900709536948952
5460574 1 9223236247174195648

>  <PUBCHEM_SHAPE_MULTIPOLES>  (1) 
132.32
3.14
1.29
0.63
0.14
0.37
0
-0.64
0.08
0.11
0.05
0.01
0.01
0.24

>  <PUBCHEM_SHAPE_SELFOVERLAP>  (1) 
246.128

>  <PUBCHEM_SHAPE_VOLUME>  (1) 
83.8

>  <PUBCHEM_COORDINATE_TYPE>  (1) 
2
5
10

$$$$
