10944
     RDKit          3D

 12 11  0  0  1  0  0  0  0  0999 V2000
    3.8541   -0.2644   -0.5927 Cl  0  0  0  0  0  0  0  0  0  0  0  0
    2.4818    1.2800    1.4604 Cl  0  0  0  0  0  0  0  0  0  0  0  0
    1.7520    1.5875   -1.3392 Cl  0  0  0  0  0  0  0  0  0  0  0  0
    1.6123   -1.6735    1.0143 O   0  0  0  0  0  0  0  0  0  0  0  0
   -2.3001    0.1816    0.3727 O   0  0  0  0  0  0  0  0  0  0  0  0
   -1.3417   -1.0057   -1.3439 O   0  0  0  0  0  0  0  0  0  0  0  0
   -0.0930   -0.2170    0.4451 N   0  0  0  0  0  0  0  0  0  0  0  0
    1.2138   -0.7138    0.0379 C   0  0  0  0  0  0  0  0  0  0  0  0
    2.2672    0.4040   -0.0895 C   0  0  0  0  0  0  0  0  0  0  0  0
   -1.2520   -0.4046   -0.2784 C   0  0  0  0  0  0  0  0  0  0  0  0
   -3.5760    0.0636   -0.2666 C   0  0  0  0  0  0  0  0  0  0  0  0
   -4.6183    0.7624    0.5801 C   0  0  0  0  0  0  0  0  0  0  0  0
  1  9  1  0
  2  9  1  0
  3  9  1  0
  4  8  1  0
  5 10  1  0
  5 11  1  0
  6 10  2  0
  7  8  1  0
  7 10  1  0
  8  9  1  0
 11 12  1  0
M  END
>  <PUBCHEM_COMPOUND_CID>  (1) 
10944

>  <PUBCHEM_CONFORMER_RMSD>  (1) 
0.6

>  <PUBCHEM_CONFORMER_DIVERSEORDER>  (1) 
1
32
4
31
2
24
10
12
21
15
14
13
17
16
23
6
28
19
33
7
30
3
18
22
25
8
5
20
9
29
26
11
27

>  <PUBCHEM_MMFF94_PARTIAL_CHARGES>  (1) 
13
1 -0.29
10 0.78
11 0.28
14 0.37
17 0.4
2 -0.29
3 -0.29
4 -0.68
5 -0.43
6 -0.57
7 -0.73
8 0.58
9 0.87

>  <PUBCHEM_EFFECTIVE_ROTOR_COUNT>  (1) 
5

>  <PUBCHEM_PHARMACOPHORE_FEATURES>  (1) 
4
1 4 acceptor
1 4 donor
1 6 acceptor
1 7 donor

>  <PUBCHEM_HEAVY_ATOM_COUNT>  (1) 
12

>  <PUBCHEM_ATOM_DEF_STEREO_COUNT>  (1) 
0

>  <PUBCHEM_ATOM_UDEF_STEREO_COUNT>  (1) 
1

>  <PUBCHEM_BOND_DEF_STEREO_COUNT>  (1) 
0

>  <PUBCHEM_BOND_UDEF_STEREO_COUNT>  (1) 
0

>  <PUBCHEM_ISOTOPIC_ATOM_COUNT>  (1) 
0

>  <PUBCHEM_COMPONENT_COUNT>  (1) 
1

>  <PUBCHEM_CACTVS_TAUTO_COUNT>  (1) 
2

>  <PUBCHEM_CONFORMER_ID>  (1) 
00002AC000000001

>  <PUBCHEM_MMFF94_ENERGY>  (1) 
10.049

>  <PUBCHEM_FEATURE_SELFOVERLAP>  (1) 
20.345

>  <PUBCHEM_SHAPE_FINGERPRINT>  (1) 
10857977 72 14634870864274872671
11031198 65 17967538960521059750
12932764 1 18338783559659744039
13380536 305 17967821595529174628
14252887 29 15430328988018219681
15207287 21 14117519818172754620
15775835 57 18272369805988676328
18186145 218 18411412912861086919
20233049 118 18059859424103334456
20279233 1 13039184818654710861
20645477 70 10015576212540850345
21119208 17 18060143128257307180
22485316 2 9439404597456703921
23235685 24 17894910754413289526
23380061 451 15357689782330886408
23402539 116 16486970657153205873
23557571 272 17058649792385448765
31174 14 15864349198470056837
3248919 1 18114173190018614819
449060 50 17530974579010113311

>  <PUBCHEM_SHAPE_MULTIPOLES>  (1) 
229.97
7.34
1.38
1.26
7.18
0.11
0.05
1.66
-0.34
-0.72
-0.09
-0.76
0.27
-0.34

>  <PUBCHEM_SHAPE_SELFOVERLAP>  (1) 
408.283

>  <PUBCHEM_SHAPE_VOLUME>  (1) 
150.5

>  <PUBCHEM_COORDINATE_TYPE>  (1) 
2
5
10

$$$$
