10958
     RDKit          3D

  7  6  0  0  0  0  0  0  0  0999 V2000
    0.8975   -0.1705   -0.2349 O   0  0  0  0  0  0  0  0  0  0  0  0
    3.1656   -0.2583   -0.1102 O   0  0  0  0  0  0  0  0  0  0  0  0
    2.0860    0.4390    0.2554 N   0  0  0  0  0  0  0  0  0  0  0  0
   -1.5144   -0.0264   -0.3345 C   0  0  0  0  0  0  0  0  0  0  0  0
   -0.2184    0.6066    0.1795 C   0  0  0  0  0  0  0  0  0  0  0  0
   -1.7030   -1.4395    0.2211 C   0  0  0  0  0  0  0  0  0  0  0  0
   -2.7134    0.8491    0.0235 C   0  0  0  0  0  0  0  0  0  0  0  0
  1  3  1  0
  1  5  1  0
  2  3  2  0
  4  5  1  0
  4  6  1  0
  4  7  1  0
M  END
>  <PUBCHEM_COMPOUND_CID>  (1) 
10958

>  <PUBCHEM_CONFORMER_RMSD>  (1) 
0.4

>  <PUBCHEM_CONFORMER_DIVERSEORDER>  (1) 
1
7
6
5
3
4
2

>  <PUBCHEM_MMFF94_PARTIAL_CHARGES>  (1) 
4
1 -0.09
2 -0.3
3 0.12
5 0.28

>  <PUBCHEM_EFFECTIVE_ROTOR_COUNT>  (1) 
3

>  <PUBCHEM_PHARMACOPHORE_FEATURES>  (1) 
1
3 4 6 7 hydrophobe

>  <PUBCHEM_HEAVY_ATOM_COUNT>  (1) 
7

>  <PUBCHEM_ATOM_DEF_STEREO_COUNT>  (1) 
0

>  <PUBCHEM_ATOM_UDEF_STEREO_COUNT>  (1) 
0

>  <PUBCHEM_BOND_DEF_STEREO_COUNT>  (1) 
0

>  <PUBCHEM_BOND_UDEF_STEREO_COUNT>  (1) 
0

>  <PUBCHEM_ISOTOPIC_ATOM_COUNT>  (1) 
0

>  <PUBCHEM_COMPONENT_COUNT>  (1) 
1

>  <PUBCHEM_CACTVS_TAUTO_COUNT>  (1) 
1

>  <PUBCHEM_CONFORMER_ID>  (1) 
00002ACE00000001

>  <PUBCHEM_MMFF94_ENERGY>  (1) 
4.7782

>  <PUBCHEM_FEATURE_SELFOVERLAP>  (1) 
5.074

>  <PUBCHEM_SHAPE_FINGERPRINT>  (1) 
12932764 1 17312812788782916180
14390081 3 18130781261294894953
16714656 1 18260546706210934165
21040471 1 18337110064645134317
23552423 10 18114462382740170582
29004967 10 17632302301834031882
5460574 1 9151173159888881412

>  <PUBCHEM_SHAPE_MULTIPOLES>  (1) 
127.34
4.32
1.12
0.62
3.03
0.34
0
-0.23
0.02
-0.78
-0.09
-0.1
0
0.1

>  <PUBCHEM_SHAPE_SELFOVERLAP>  (1) 
220.51

>  <PUBCHEM_SHAPE_VOLUME>  (1) 
85.8

>  <PUBCHEM_COORDINATE_TYPE>  (1) 
2
5
10

$$$$
