10957
     RDKit          3D

  7  6  0  0  0  0  0  0  0  0999 V2000
    0.8821   -0.5999   -0.3798 O   0  0  0  0  0  0  0  0  0  0  0  0
    2.6803    0.6476    0.3759 O   0  0  0  0  0  0  0  0  0  0  0  0
   -1.4574    0.0086   -0.3163 C   0  0  0  0  0  0  0  0  0  0  0  0
   -0.0214    0.4242    0.0149 C   0  0  0  0  0  0  0  0  0  0  0  0
   -1.8534   -1.2690    0.4268 C   0  0  0  0  0  0  0  0  0  0  0  0
   -2.4292    1.1388    0.0163 C   0  0  0  0  0  0  0  0  0  0  0  0
    2.1991   -0.3503   -0.1377 C   0  0  0  0  0  0  0  0  0  0  0  0
  1  4  1  0
  1  7  1  0
  2  7  2  0
  3  4  1  0
  3  5  1  0
  3  6  1  0
M  END
>  <PUBCHEM_COMPOUND_CID>  (1) 
10957

>  <PUBCHEM_CONFORMER_RMSD>  (1) 
0.4

>  <PUBCHEM_CONFORMER_DIVERSEORDER>  (1) 
1
5
4
6
3
2

>  <PUBCHEM_MMFF94_PARTIAL_CHARGES>  (1) 
5
1 -0.43
17 0.06
2 -0.57
4 0.28
7 0.66

>  <PUBCHEM_EFFECTIVE_ROTOR_COUNT>  (1) 
3

>  <PUBCHEM_PHARMACOPHORE_FEATURES>  (1) 
2
1 2 acceptor
3 3 5 6 hydrophobe

>  <PUBCHEM_HEAVY_ATOM_COUNT>  (1) 
7

>  <PUBCHEM_ATOM_DEF_STEREO_COUNT>  (1) 
0

>  <PUBCHEM_ATOM_UDEF_STEREO_COUNT>  (1) 
0

>  <PUBCHEM_BOND_DEF_STEREO_COUNT>  (1) 
0

>  <PUBCHEM_BOND_UDEF_STEREO_COUNT>  (1) 
0

>  <PUBCHEM_ISOTOPIC_ATOM_COUNT>  (1) 
0

>  <PUBCHEM_COMPONENT_COUNT>  (1) 
1

>  <PUBCHEM_CACTVS_TAUTO_COUNT>  (1) 
1

>  <PUBCHEM_CONFORMER_ID>  (1) 
00002ACD00000001

>  <PUBCHEM_MMFF94_ENERGY>  (1) 
6.9981

>  <PUBCHEM_FEATURE_SELFOVERLAP>  (1) 
10.148

>  <PUBCHEM_SHAPE_FINGERPRINT>  (1) 
10857977 72 18338509871427021170
12932741 1 18201729431036332006
12932764 1 17022616464413240900
14390081 3 18201715141532672328
16714656 1 18187366485068133981
21040471 1 18190185594126695751
23552449 1 18410012169264808685
29004967 10 18202289116788273394
5084963 1 8646481933882295567
5460574 1 8718827595650673389

>  <PUBCHEM_SHAPE_MULTIPOLES>  (1) 
132.32
3.99
1.17
0.67
1.58
0.13
0
-0.6
-0.32
-0.71
-0.11
-0.03
0.02
0.24

>  <PUBCHEM_SHAPE_SELFOVERLAP>  (1) 
235.731

>  <PUBCHEM_SHAPE_VOLUME>  (1) 
86.4

>  <PUBCHEM_COORDINATE_TYPE>  (1) 
2
5
10

$$$$
