10953
     RDKit          3D

  7  7  0  0  0  0  0  0  0  0999 V2000
   -0.3879    1.1671    0.0582 O   0  0  0  0  0  0  0  0  0  0  0  0
   -2.2902   -0.0318   -0.0485 O   0  0  0  0  0  0  0  0  0  0  0  0
    1.1663   -1.1804   -0.3060 C   0  0  0  0  0  0  0  0  0  0  0  0
    1.8100    0.0561    0.2833 C   0  0  0  0  0  0  0  0  0  0  0  0
   -0.2664   -1.2750    0.1745 C   0  0  0  0  0  0  0  0  0  0  0  0
    1.0311    1.2698   -0.1764 C   0  0  0  0  0  0  0  0  0  0  0  0
   -1.0628   -0.0057    0.0150 C   0  0  0  0  0  0  0  0  0  0  0  0
  1  6  1  0
  1  7  1  0
  2  7  2  0
  3  4  1  0
  3  5  1  0
  4  6  1  0
  5  7  1  0
M  END
>  <PUBCHEM_COMPOUND_CID>  (1) 
10953

>  <PUBCHEM_CONFORMER_RMSD>  (1) 
0.4

>  <PUBCHEM_CONFORMER_DIVERSEORDER>  (1) 
1

>  <PUBCHEM_MMFF94_PARTIAL_CHARGES>  (1) 
5
1 -0.43
2 -0.57
5 0.06
6 0.28
7 0.66

>  <PUBCHEM_EFFECTIVE_ROTOR_COUNT>  (1) 
1

>  <PUBCHEM_PHARMACOPHORE_FEATURES>  (1) 
2
1 2 acceptor
6 1 3 4 5 6 7 rings

>  <PUBCHEM_HEAVY_ATOM_COUNT>  (1) 
7

>  <PUBCHEM_ATOM_DEF_STEREO_COUNT>  (1) 
0

>  <PUBCHEM_ATOM_UDEF_STEREO_COUNT>  (1) 
0

>  <PUBCHEM_BOND_DEF_STEREO_COUNT>  (1) 
0

>  <PUBCHEM_BOND_UDEF_STEREO_COUNT>  (1) 
0

>  <PUBCHEM_ISOTOPIC_ATOM_COUNT>  (1) 
0

>  <PUBCHEM_COMPONENT_COUNT>  (1) 
1

>  <PUBCHEM_CACTVS_TAUTO_COUNT>  (1) 
1

>  <PUBCHEM_CONFORMER_ID>  (1) 
00002AC900000001

>  <PUBCHEM_MMFF94_ENERGY>  (1) 
7.3321

>  <PUBCHEM_FEATURE_SELFOVERLAP>  (1) 
10.148

>  <PUBCHEM_SHAPE_FINGERPRINT>  (1) 
16714656 1 18410580591233165150
18185500 45 18413385427836087271
20096714 4 18338236084468202322
21040471 1 18267022949714889448
23552423 10 17757004302389157494
29004967 10 18408327670084901619

>  <PUBCHEM_SHAPE_MULTIPOLES>  (1) 
132.32
2.25
1.46
0.63
0.66
0.03
0
-0.07
0.03
-0.32
-0.06
-0.08
0.03
0.04

>  <PUBCHEM_SHAPE_SELFOVERLAP>  (1) 
258.149

>  <PUBCHEM_SHAPE_VOLUME>  (1) 
78.4

>  <PUBCHEM_COORDINATE_TYPE>  (1) 
2
5
10

$$$$
