10956
     RDKit          3D

  7  6  0  0  0  0  0  0  0  0999 V2000
   -3.2694    0.0057   -0.0972 N   0  0  0  0  0  0  0  0  0  0  0  0
    1.6997    0.0010   -0.4634 C   0  0  0  0  0  0  0  0  0  0  0  0
    0.1822   -0.0555   -0.7364 C   0  0  0  0  0  0  0  0  0  0  0  0
    2.1117    1.2668    0.2895 C   0  0  0  0  0  0  0  0  0  0  0  0
    2.1261   -1.2349    0.3342 C   0  0  0  0  0  0  0  0  0  0  0  0
   -0.7106    0.0097    0.5060 C   0  0  0  0  0  0  0  0  0  0  0  0
   -2.1396    0.0073    0.1674 C   0  0  0  0  0  0  0  0  0  0  0  0
  1  7  3  0
  2  3  1  0
  2  4  1  0
  2  5  1  0
  3  6  1  0
  6  7  1  0
M  END
>  <PUBCHEM_COMPOUND_CID>  (1) 
10956

>  <PUBCHEM_CONFORMER_RMSD>  (1) 
0.4

>  <PUBCHEM_CONFORMER_DIVERSEORDER>  (1) 
1
3
2

>  <PUBCHEM_MMFF94_PARTIAL_CHARGES>  (1) 
3
1 -0.56
6 0.2
7 0.36

>  <PUBCHEM_EFFECTIVE_ROTOR_COUNT>  (1) 
2

>  <PUBCHEM_PHARMACOPHORE_FEATURES>  (1) 
2
1 1 acceptor
3 2 4 5 hydrophobe

>  <PUBCHEM_HEAVY_ATOM_COUNT>  (1) 
7

>  <PUBCHEM_ATOM_DEF_STEREO_COUNT>  (1) 
0

>  <PUBCHEM_ATOM_UDEF_STEREO_COUNT>  (1) 
0

>  <PUBCHEM_BOND_DEF_STEREO_COUNT>  (1) 
0

>  <PUBCHEM_BOND_UDEF_STEREO_COUNT>  (1) 
0

>  <PUBCHEM_ISOTOPIC_ATOM_COUNT>  (1) 
0

>  <PUBCHEM_COMPONENT_COUNT>  (1) 
1

>  <PUBCHEM_CACTVS_TAUTO_COUNT>  (1) 
1

>  <PUBCHEM_CONFORMER_ID>  (1) 
00002ACC00000001

>  <PUBCHEM_MMFF94_ENERGY>  (1) 
4.1915

>  <PUBCHEM_FEATURE_SELFOVERLAP>  (1) 
10.148

>  <PUBCHEM_SHAPE_FINGERPRINT>  (1) 
12932764 1 18410017632615949775
14325111 11 18409449202395099851
14390081 3 18342459274418698073
23552333 60 18202004321944170536
23552449 11 18409163277573905258
29004967 10 17894354388428559052
3248919 1 17167866391470263471
5460574 1 8430319021861833677

>  <PUBCHEM_SHAPE_MULTIPOLES>  (1) 
139.08
4.3
1.07
0.79
3.06
0.02
0.04
0.02
-0.23
-0.97
-0.15
-0.11
-0.01
-0.01

>  <PUBCHEM_SHAPE_SELFOVERLAP>  (1) 
246.455

>  <PUBCHEM_SHAPE_VOLUME>  (1) 
89.4

>  <PUBCHEM_COORDINATE_TYPE>  (1) 
2
5
10

$$$$
