10954
     RDKit          3D

 18 18  0  0  0  0  0  0  0  0999 V2000
    2.7884    0.6330    1.4796 O   0  0  0  0  0  0  0  0  0  0  0  0
    1.0602    2.7099   -0.1940 C   0  0  0  0  0  0  0  0  0  0  0  0
    1.0194   -2.2662   -0.2552 C   0  0  0  0  0  0  0  0  0  0  0  0
   -0.0988    2.1870   -1.0472 C   0  0  0  0  0  0  0  0  0  0  0  0
   -0.0188   -3.3170    0.1406 C   0  0  0  0  0  0  0  0  0  0  0  0
    2.4465    2.3648   -0.7516 C   0  0  0  0  0  0  0  0  0  0  0  0
    2.2196   -2.2839    0.6955 C   0  0  0  0  0  0  0  0  0  0  0  0
   -1.4284    2.8906   -0.7514 C   0  0  0  0  0  0  0  0  0  0  0  0
   -1.2002   -3.3957   -0.8312 C   0  0  0  0  0  0  0  0  0  0  0  0
    2.7385    0.8765   -0.9286 C   0  0  0  0  0  0  0  0  0  0  0  0
    3.3326   -1.3433    0.2458 C   0  0  0  0  0  0  0  0  0  0  0  0
   -1.9105    2.8154    0.7019 C   0  0  0  0  0  0  0  0  0  0  0  0
   -2.0216   -2.1116   -0.9898 C   0  0  0  0  0  0  0  0  0  0  0  0
    2.9389    0.1166    0.3733 C   0  0  0  0  0  0  0  0  0  0  0  0
   -2.2495    1.4069    1.2054 C   0  0  0  0  0  0  0  0  0  0  0  0
   -2.6241   -1.6141    0.3251 C   0  0  0  0  0  0  0  0  0  0  0  0
   -3.4226    0.8028    0.4868 C   0  0  0  0  0  0  0  0  0  0  0  0
   -3.5696   -0.4717    0.0950 C   0  0  0  0  0  0  0  0  0  0  0  0
  1 14  2  0
  2  4  1  0
  2  6  1  0
  3  5  1  0
  3  7  1  0
  4  8  1  0
  5  9  1  0
  6 10  1  0
  7 11  1  0
  8 12  1  0
  9 13  1  0
 10 14  1  0
 11 14  1  0
 12 15  1  0
 13 16  1  0
 15 17  1  0
 16 18  1  0
 17 18  2  0
M  END
>  <PUBCHEM_COMPOUND_CID>  (1) 
10954

>  <PUBCHEM_CONFORMER_RMSD>  (1) 
0.6

>  <PUBCHEM_CONFORMER_DIVERSEORDER>  (1) 
1

>  <PUBCHEM_MMFF94_PARTIAL_CHARGES>  (1) 
10
1 -0.57
10 0.06
11 0.06
14 0.45
15 0.14
16 0.14
17 -0.29
18 -0.29
47 0.15
48 0.15

>  <PUBCHEM_EFFECTIVE_ROTOR_COUNT>  (1) 
2.8

>  <PUBCHEM_PHARMACOPHORE_FEATURES>  (1) 
1
1 1 acceptor

>  <PUBCHEM_HEAVY_ATOM_COUNT>  (1) 
18

>  <PUBCHEM_ATOM_DEF_STEREO_COUNT>  (1) 
0

>  <PUBCHEM_ATOM_UDEF_STEREO_COUNT>  (1) 
0

>  <PUBCHEM_BOND_DEF_STEREO_COUNT>  (1) 
0

>  <PUBCHEM_BOND_UDEF_STEREO_COUNT>  (1) 
1

>  <PUBCHEM_ISOTOPIC_ATOM_COUNT>  (1) 
0

>  <PUBCHEM_COMPONENT_COUNT>  (1) 
1

>  <PUBCHEM_CACTVS_TAUTO_COUNT>  (1) 
2

>  <PUBCHEM_CONFORMER_ID>  (1) 
00002ACA00000001

>  <PUBCHEM_MMFF94_ENERGY>  (1) 
8.3949

>  <PUBCHEM_FEATURE_SELFOVERLAP>  (1) 
5.074

>  <PUBCHEM_SHAPE_FINGERPRINT>  (1) 
10616163 171 18336555918995160545
10708813 3 18340775840411675363
12038231 1 18338237171058063447
12156800 1 13241613335895812517
12539773 59 16980993575639576003
12553582 1 18122626316816842885
12633257 1 17257653313968882491
13032168 30 17765732590451609192
13122387 1 17402331469088292679
13402501 40 16752123113192740463
14081887 123 18056752363347031160
1420 336 18050573137926141359
14251705 54 18119536427028532888
14251757 17 17682637858744798357
14289585 56 17095532837489657236
14931854 50 17401206071671473743
15006816 218 17978795601837141237
19026451 147 16546622779512857294
19930381 70 16968575188962432237
20442098 301 18410578383335683968
20621476 7 18410018697794284387
20765182 40 14806002805356029163
20765182 5 18194675089493293264
21141583 151 16032691339232213492
21315764 21 17607209277635448383
22113638 7 18338510971207667773
2803657 2 17975980078759481180
3524813 1 18128809742515125635
44154327 71 18410300245664340495
5282274 181 17979648835555189289
532947 4 17040351312266415157
58250162 1 18123750026390649872
7064713 232 18200309888336479608

>  <PUBCHEM_SHAPE_MULTIPOLES>  (1) 
364.56
5.89
5.11
1.14
0.11
1.14
-0.06
-0.24
-1.14
-0.73
1
0.07
-0.24
-1.11

>  <PUBCHEM_SHAPE_SELFOVERLAP>  (1) 
689.743

>  <PUBCHEM_SHAPE_VOLUME>  (1) 
222.5

>  <PUBCHEM_COORDINATE_TYPE>  (1) 
2
5
10

$$$$
