10967
     RDKit          3D

  5  4  0  0  0  0  0  0  0  0999 V2000
    2.5916    0.4788   -0.0063 Cl  0  0  0  0  0  0  0  0  0  0  0  0
   -2.5915    0.4788    0.0064 Cl  0  0  0  0  0  0  0  0  0  0  0  0
    0.0001    0.2136   -0.0002 O   0  0  0  0  0  0  0  0  0  0  0  0
    1.1738   -0.5856    0.0140 C   0  0  0  0  0  0  0  0  0  0  0  0
   -1.1739   -0.5856   -0.0140 C   0  0  0  0  0  0  0  0  0  0  0  0
  1  4  1  0
  2  5  1  0
  3  4  1  0
  3  5  1  0
M  END
>  <PUBCHEM_COMPOUND_CID>  (1) 
10967

>  <PUBCHEM_CONFORMER_RMSD>  (1) 
0.4

>  <PUBCHEM_CONFORMER_DIVERSEORDER>  (1) 
1
5
2
4
3

>  <PUBCHEM_MMFF94_PARTIAL_CHARGES>  (1) 
5
1 -0.29
2 -0.29
3 -0.56
4 0.57
5 0.57

>  <PUBCHEM_EFFECTIVE_ROTOR_COUNT>  (1) 
2

>  <PUBCHEM_PHARMACOPHORE_FEATURES>  (1) 
1
1 3 acceptor

>  <PUBCHEM_HEAVY_ATOM_COUNT>  (1) 
5

>  <PUBCHEM_ATOM_DEF_STEREO_COUNT>  (1) 
0

>  <PUBCHEM_ATOM_UDEF_STEREO_COUNT>  (1) 
0

>  <PUBCHEM_BOND_DEF_STEREO_COUNT>  (1) 
0

>  <PUBCHEM_BOND_UDEF_STEREO_COUNT>  (1) 
0

>  <PUBCHEM_ISOTOPIC_ATOM_COUNT>  (1) 
0

>  <PUBCHEM_COMPONENT_COUNT>  (1) 
1

>  <PUBCHEM_CACTVS_TAUTO_COUNT>  (1) 
1

>  <PUBCHEM_CONFORMER_ID>  (1) 
00002AD700000001

>  <PUBCHEM_MMFF94_ENERGY>  (1) 
5.6569

>  <PUBCHEM_FEATURE_SELFOVERLAP>  (1) 
5.074

>  <PUBCHEM_SHAPE_FINGERPRINT>  (1) 
14390081 3 18343862233833187048
16714656 1 18343584044680329701
20096714 4 18410575114775361752
29004967 10 13984660343372898612
5460574 1 9295289443339529859

>  <PUBCHEM_SHAPE_MULTIPOLES>  (1) 
100.77
4.17
0.86
0.61
0
0.02
0
-1.09
0
0
0
0
0
-0.01

>  <PUBCHEM_SHAPE_SELFOVERLAP>  (1) 
154.431

>  <PUBCHEM_SHAPE_VOLUME>  (1) 
75.1

>  <PUBCHEM_COORDINATE_TYPE>  (1) 
2
5
10

$$$$
