10974
     RDKit          3D

  8  7  0  0  0  0  0  0  0  0999 V2000
    0.5879   -0.4532   -0.2757 O   0  0  0  0  0  0  0  0  0  0  0  0
    1.9026    1.1815    0.4324 O   0  0  0  0  0  0  0  0  0  0  0  0
    2.8427   -0.7371   -0.2056 O   0  0  0  0  0  0  0  0  0  0  0  0
    1.8976    0.0268    0.0042 N   0  0  0  0  0  0  0  0  0  0  0  0
   -1.8044   -0.1046   -0.3330 C   0  0  0  0  0  0  0  0  0  0  0  0
   -0.4349    0.4959   -0.0037 C   0  0  0  0  0  0  0  0  0  0  0  0
   -2.0874   -1.3457    0.5161 C   0  0  0  0  0  0  0  0  0  0  0  0
   -2.9041    0.9363   -0.1346 C   0  0  0  0  0  0  0  0  0  0  0  0
  1  4  1  0
  1  6  1  0
  2  4  1  0
  3  4  2  0
  5  6  1  0
  5  7  1  0
  5  8  1  0
M  CHG  2   2  -1   4   1
M  END
>  <PUBCHEM_COMPOUND_CID>  (1) 
10974

>  <PUBCHEM_CONFORMER_RMSD>  (1) 
0.6

>  <PUBCHEM_CONFORMER_DIVERSEORDER>  (1) 
1
3
2
4

>  <PUBCHEM_MMFF94_PARTIAL_CHARGES>  (1) 
5
1 -0.27
2 -0.52
3 -0.52
4 1.03
6 0.28

>  <PUBCHEM_EFFECTIVE_ROTOR_COUNT>  (1) 
3

>  <PUBCHEM_PHARMACOPHORE_FEATURES>  (1) 
3
1 2 acceptor
1 3 acceptor
3 5 7 8 hydrophobe

>  <PUBCHEM_HEAVY_ATOM_COUNT>  (1) 
8

>  <PUBCHEM_ATOM_DEF_STEREO_COUNT>  (1) 
0

>  <PUBCHEM_ATOM_UDEF_STEREO_COUNT>  (1) 
0

>  <PUBCHEM_BOND_DEF_STEREO_COUNT>  (1) 
0

>  <PUBCHEM_BOND_UDEF_STEREO_COUNT>  (1) 
0

>  <PUBCHEM_ISOTOPIC_ATOM_COUNT>  (1) 
0

>  <PUBCHEM_COMPONENT_COUNT>  (1) 
1

>  <PUBCHEM_CACTVS_TAUTO_COUNT>  (1) 
1

>  <PUBCHEM_CONFORMER_ID>  (1) 
00002ADE00000001

>  <PUBCHEM_MMFF94_ENERGY>  (1) 
13.8033

>  <PUBCHEM_FEATURE_SELFOVERLAP>  (1) 
15.293

>  <PUBCHEM_SHAPE_FINGERPRINT>  (1) 
10857977 72 18191297380686666281
12932741 1 18411699906564811357
12932764 1 17845657074158113172
14325111 11 18410854377796409725
14390081 3 18342170077127699425
19973954 147 18338236067346732185
23552423 10 18113620126715873023
29004967 10 18202005451309611554
3248919 1 18261946448605228100
5460574 1 9007057971923710949

>  <PUBCHEM_SHAPE_MULTIPOLES>  (1) 
142.05
4.48
1.22
0.65
1.21
0.12
-0.02
-0.08
0.02
-0.45
-0.16
-0.1
0.02
0.38

>  <PUBCHEM_SHAPE_SELFOVERLAP>  (1) 
256.105

>  <PUBCHEM_SHAPE_VOLUME>  (1) 
92.9

>  <PUBCHEM_COORDINATE_TYPE>  (1) 
2
5
10

$$$$
