10983
     RDKit          3D

  9  8  0  0  0  0  0  0  0  0999 V2000
   -1.0031    0.0612    0.4798 N   0  0  0  0  0  0  0  0  0  0  0  0
   -3.1417    0.9184    0.7413 N   0  0  0  0  0  0  0  0  0  0  0  0
   -2.8309   -0.5966   -0.9330 N   0  0  0  0  0  0  0  0  0  0  0  0
    2.2709    0.0493   -0.0260 C   0  0  0  0  0  0  0  0  0  0  0  0
    1.2621   -0.7702    0.3259 C   0  0  0  0  0  0  0  0  0  0  0  0
   -0.1133   -0.8323   -0.2611 C   0  0  0  0  0  0  0  0  0  0  0  0
    3.6113   -0.0551    0.6514 C   0  0  0  0  0  0  0  0  0  0  0  0
    2.1863    1.1223   -1.0745 C   0  0  0  0  0  0  0  0  0  0  0  0
   -2.2416    0.1031    0.0963 C   0  0  0  0  0  0  0  0  0  0  0  0
  1  6  1  0
  1  9  2  3
  2  9  1  0
  3  9  1  0
  4  5  2  3
  4  7  1  0
  4  8  1  0
  5  6  1  0
M  END
>  <PUBCHEM_COMPOUND_CID>  (1) 
10983

>  <PUBCHEM_CONFORMER_RMSD>  (1) 
0.4

>  <PUBCHEM_CONFORMER_DIVERSEORDER>  (1) 
1
15
4
13
20
3
17
10
22
14
5
18
8
9
16
21
11
12
2
19
6
7

>  <PUBCHEM_MMFF94_PARTIAL_CHARGES>  (1) 
14
1 -0.7
10 0.15
19 0.4
2 -0.85
20 0.4
21 0.4
22 0.4
3 -0.85
4 -0.28
5 -0.29
6 0.38
7 0.14
8 0.14
9 0.55

>  <PUBCHEM_EFFECTIVE_ROTOR_COUNT>  (1) 
2

>  <PUBCHEM_PHARMACOPHORE_FEATURES>  (1) 
4
1 2 donor
1 3 donor
3 4 7 8 hydrophobe
4 1 2 3 9 cation

>  <PUBCHEM_HEAVY_ATOM_COUNT>  (1) 
9

>  <PUBCHEM_ATOM_DEF_STEREO_COUNT>  (1) 
0

>  <PUBCHEM_ATOM_UDEF_STEREO_COUNT>  (1) 
0

>  <PUBCHEM_BOND_DEF_STEREO_COUNT>  (1) 
0

>  <PUBCHEM_BOND_UDEF_STEREO_COUNT>  (1) 
0

>  <PUBCHEM_ISOTOPIC_ATOM_COUNT>  (1) 
0

>  <PUBCHEM_COMPONENT_COUNT>  (1) 
1

>  <PUBCHEM_CACTVS_TAUTO_COUNT>  (1) 
2

>  <PUBCHEM_CONFORMER_ID>  (1) 
00002AE700000001

>  <PUBCHEM_MMFF94_ENERGY>  (1) 
17.3185

>  <PUBCHEM_FEATURE_SELFOVERLAP>  (1) 
20.353

>  <PUBCHEM_SHAPE_FINGERPRINT>  (1) 
10219947 1 17968089811894402066
10857977 72 14201402711275345943
11062470 55 15913325793088885394
124424 183 16153973682440807038
12897270 3 15482675666995665784
12932764 1 17489874834015855675
14325111 11 17918273142941427850
14390081 3 17989205932262605249
15310529 11 13254804520576033912
15775835 57 18202283580469940400
20279233 1 15339120138912471429
3248919 1 18408606976029508402

>  <PUBCHEM_SHAPE_MULTIPOLES>  (1) 
170.27
5.86
1.03
0.93
0.75
0.29
0.01
0.59
-0.93
-0.64
0.12
0.49
0.04
-0.45

>  <PUBCHEM_SHAPE_SELFOVERLAP>  (1) 
314.705

>  <PUBCHEM_SHAPE_VOLUME>  (1) 
106.8

>  <PUBCHEM_COORDINATE_TYPE>  (1) 
2
5
10

$$$$
