10990
     RDKit          3D

 11 10  0  0  0  0  0  0  0  0999 V2000
   -0.0049   -1.3845   -0.0005 S   0  0  0  0  0  0  0  0  0  0  0  0
    3.9218    0.0201   -0.0212 C   0  0  0  0  0  0  0  0  0  0  0  0
   -3.9211    0.0217    0.0213 C   0  0  0  0  0  0  0  0  0  0  0  0
    2.7099   -0.9326   -0.0144 C   0  0  0  0  0  0  0  0  0  0  0  0
   -2.7112   -0.9335    0.0136 C   0  0  0  0  0  0  0  0  0  0  0  0
    1.3709   -0.1973   -0.0071 C   0  0  0  0  0  0  0  0  0  0  0  0
   -1.3706   -0.2010    0.0070 C   0  0  0  0  0  0  0  0  0  0  0  0
    3.8630    0.9262   -1.2536 C   0  0  0  0  0  0  0  0  0  0  0  0
    3.9997    0.8757    1.2442 C   0  0  0  0  0  0  0  0  0  0  0  0
   -3.8604    0.9269    1.2543 C   0  0  0  0  0  0  0  0  0  0  0  0
   -3.9971    0.8784   -1.2436 C   0  0  0  0  0  0  0  0  0  0  0  0
  1  6  1  0
  1  7  1  0
  2  4  1  0
  2  8  1  0
  2  9  1  0
  3  5  1  0
  3 10  1  0
  3 11  1  0
  4  6  1  0
  5  7  1  0
M  END
>  <PUBCHEM_COMPOUND_CID>  (1) 
10990

>  <PUBCHEM_CONFORMER_RMSD>  (1) 
0.6

>  <PUBCHEM_CONFORMER_DIVERSEORDER>  (1) 
1
4
5
2
3

>  <PUBCHEM_MMFF94_PARTIAL_CHARGES>  (1) 
3
1 -0.46
6 0.23
7 0.23

>  <PUBCHEM_EFFECTIVE_ROTOR_COUNT>  (1) 
6

>  <PUBCHEM_PHARMACOPHORE_FEATURES>  (1) 
2
3 2 8 9 hydrophobe
3 3 10 11 hydrophobe

>  <PUBCHEM_HEAVY_ATOM_COUNT>  (1) 
11

>  <PUBCHEM_ATOM_DEF_STEREO_COUNT>  (1) 
0

>  <PUBCHEM_ATOM_UDEF_STEREO_COUNT>  (1) 
0

>  <PUBCHEM_BOND_DEF_STEREO_COUNT>  (1) 
0

>  <PUBCHEM_BOND_UDEF_STEREO_COUNT>  (1) 
0

>  <PUBCHEM_ISOTOPIC_ATOM_COUNT>  (1) 
0

>  <PUBCHEM_COMPONENT_COUNT>  (1) 
1

>  <PUBCHEM_CACTVS_TAUTO_COUNT>  (1) 
1

>  <PUBCHEM_CONFORMER_ID>  (1) 
00002AEE00000001

>  <PUBCHEM_MMFF94_ENERGY>  (1) 
13.9108

>  <PUBCHEM_FEATURE_SELFOVERLAP>  (1) 
10.149

>  <PUBCHEM_SHAPE_FINGERPRINT>  (1) 
10014705 185 18260542325655353391
11132069 177 18261106374524348951
114248 4 15769770281863884359
11543360 7 15697710497397812779
11987891 27 11312062028137993796
11987891 38 11959735970844805940
12616999 72 13973966532521514948
14123238 8 18260552242497605683
14123260 362 18271540735772291169
14251718 22 14476950229443343592
14252887 29 11602815805403916734
15239154 128 18410576184174947044
15239191 94 9079115544370796736
177051 138 10809340040415827906
18186145 218 18411144601758977278
18915474 69 13758355587542571220
190213 19 18410575088958156642
20300324 65 17132110247844837177
20432913 95 12251901490443323760
20645477 70 17917156000673882166
20671657 53 12319735873230629851
20828058 44 13984664750104277027
20871999 31 15554437510086718789
212847 35 18411702076077196824
22959321 60 16950568787212167413
23402539 116 16845570890226939648
23402655 69 17060341825138167496
42 15 14345788340667692378
449060 62 18409735053970001910
53428517 29 15647049344128937391
548570 60 18410852161593401892
633830 44 17561370564605574206
81539 233 18410575050499260302
90127 26 17240771652764183084

>  <PUBCHEM_SHAPE_MULTIPOLES>  (1) 
230.22
10.55
1.28
1.18
0.02
0.15
0
-3.96
0
0
0
0
-0.51
-0.02

>  <PUBCHEM_SHAPE_SELFOVERLAP>  (1) 
399.195

>  <PUBCHEM_SHAPE_VOLUME>  (1) 
151.9

>  <PUBCHEM_COORDINATE_TYPE>  (1) 
2
5
10

$$$$
