10993
     RDKit          3D

  7  6  0  0  0  0  0  0  0  0999 V2000
    2.0095    1.3760    0.2571 O   0  0  0  0  0  0  0  0  0  0  0  0
    1.4865   -0.9716    0.1315 C   0  0  0  0  0  0  0  0  0  0  0  0
   -2.3724   -0.3557   -0.0288 C   0  0  0  0  0  0  0  0  0  0  0  0
    0.0855   -0.7279   -0.3545 C   0  0  0  0  0  0  0  0  0  0  0  0
   -0.9730   -0.5902    0.4576 C   0  0  0  0  0  0  0  0  0  0  0  0
    2.4350    0.1398   -0.3019 C   0  0  0  0  0  0  0  0  0  0  0  0
   -2.6711    1.1296   -0.1611 C   0  0  0  0  0  0  0  0  0  0  0  0
  1  6  1  0
  2  4  1  0
  2  6  1  0
  3  5  1  0
  3  7  1  0
  4  5  2  0
M  END
>  <PUBCHEM_COMPOUND_CID>  (1) 
10993

>  <PUBCHEM_CONFORMER_RMSD>  (1) 
0.4

>  <PUBCHEM_CONFORMER_DIVERSEORDER>  (1) 
1
5
10
13
8
15
17
16
6
18
12
7
14
4
3
9
11
2

>  <PUBCHEM_MMFF94_PARTIAL_CHARGES>  (1) 
9
1 -0.68
12 0.15
13 0.15
19 0.4
2 0.14
3 0.14
4 -0.29
5 -0.29
6 0.28

>  <PUBCHEM_EFFECTIVE_ROTOR_COUNT>  (1) 
3

>  <PUBCHEM_PHARMACOPHORE_FEATURES>  (1) 
3
1 1 acceptor
1 1 donor
1 7 hydrophobe

>  <PUBCHEM_HEAVY_ATOM_COUNT>  (1) 
7

>  <PUBCHEM_ATOM_DEF_STEREO_COUNT>  (1) 
0

>  <PUBCHEM_ATOM_UDEF_STEREO_COUNT>  (1) 
0

>  <PUBCHEM_BOND_DEF_STEREO_COUNT>  (1) 
0

>  <PUBCHEM_BOND_UDEF_STEREO_COUNT>  (1) 
1

>  <PUBCHEM_ISOTOPIC_ATOM_COUNT>  (1) 
0

>  <PUBCHEM_COMPONENT_COUNT>  (1) 
1

>  <PUBCHEM_CACTVS_TAUTO_COUNT>  (1) 
1

>  <PUBCHEM_CONFORMER_ID>  (1) 
00002AF100000001

>  <PUBCHEM_MMFF94_ENERGY>  (1) 
-0.5737

>  <PUBCHEM_FEATURE_SELFOVERLAP>  (1) 
15.223

>  <PUBCHEM_SHAPE_FINGERPRINT>  (1) 
10857977 72 17023198127729081441
12897270 3 18202563977589103775
12932764 1 18408611348548925787
14390081 3 18410291419464108833
19973954 147 18410296899805598185
20096714 4 18341051921104822778
21040471 1 18334580195600520678
29004967 10 8286202729889939446
5460574 1 10015864271359469167

>  <PUBCHEM_SHAPE_MULTIPOLES>  (1) 
138.19
4.29
1.28
0.68
0.76
0.33
0.01
1.36
0.19
-0.13
-0.06
0
-0.03
0.14

>  <PUBCHEM_SHAPE_SELFOVERLAP>  (1) 
242.582

>  <PUBCHEM_SHAPE_VOLUME>  (1) 
91

>  <PUBCHEM_COORDINATE_TYPE>  (1) 
2
5
10

$$$$
