11006
     RDKit          3D

 16 15  0  0  0  0  0  0  0  0999 V2000
    0.6381    0.4162   -0.1202 C   0  0  0  0  0  0  0  0  0  0  0  0
   -0.6469   -0.4183   -0.1396 C   0  0  0  0  0  0  0  0  0  0  0  0
    1.9120   -0.4328   -0.1013 C   0  0  0  0  0  0  0  0  0  0  0  0
   -1.9201    0.4303   -0.0830 C   0  0  0  0  0  0  0  0  0  0  0  0
    3.1611    0.4472   -0.0100 C   0  0  0  0  0  0  0  0  0  0  0  0
   -3.2038   -0.4052   -0.0424 C   0  0  0  0  0  0  0  0  0  0  0  0
    4.4703   -0.3484   -0.0193 C   0  0  0  0  0  0  0  0  0  0  0  0
   -4.4792    0.4417   -0.0118 C   0  0  0  0  0  0  0  0  0  0  0  0
    5.7567    0.4821    0.0449 C   0  0  0  0  0  0  0  0  0  0  0  0
   -5.7281   -0.4436    0.0157 C   0  0  0  0  0  0  0  0  0  0  0  0
    7.0270   -0.3705    0.0948 C   0  0  0  0  0  0  0  0  0  0  0  0
   -7.0380    0.3498    0.0168 C   0  0  0  0  0  0  0  0  0  0  0  0
    8.3120    0.4615    0.0795 C   0  0  0  0  0  0  0  0  0  0  0  0
   -8.2836   -0.5314    0.1182 C   0  0  0  0  0  0  0  0  0  0  0  0
    9.5780   -0.3813    0.0553 C   0  0  0  0  0  0  0  0  0  0  0  0
   -9.5555    0.3030    0.1024 C   0  0  0  0  0  0  0  0  0  0  0  0
  1  2  1  0
  1  3  1  0
  2  4  1  0
  3  5  1  0
  4  6  1  0
  5  7  1  0
  6  8  1  0
  7  9  1  0
  8 10  1  0
  9 11  1  0
 10 12  1  0
 11 13  1  0
 12 14  1  0
 13 15  1  0
 14 16  1  0
M  END
>  <PUBCHEM_COMPOUND_CID>  (1) 
11006

>  <PUBCHEM_CONFORMER_RMSD>  (1) 
1.4

>  <PUBCHEM_CONFORMER_DIVERSEORDER>  (1) 
1
17
5
19
22
21
4
23
11
15
9
13
18
10
16
12
2
8
20
14
7
3
6

>  <PUBCHEM_MMFF94_PARTIAL_CHARGES>  (1) 
0

>  <PUBCHEM_EFFECTIVE_ROTOR_COUNT>  (1) 
13

>  <PUBCHEM_PHARMACOPHORE_FEATURES>  (1) 
2
1 15 hydrophobe
1 16 hydrophobe

>  <PUBCHEM_HEAVY_ATOM_COUNT>  (1) 
16

>  <PUBCHEM_ATOM_DEF_STEREO_COUNT>  (1) 
0

>  <PUBCHEM_ATOM_UDEF_STEREO_COUNT>  (1) 
0

>  <PUBCHEM_BOND_DEF_STEREO_COUNT>  (1) 
0

>  <PUBCHEM_BOND_UDEF_STEREO_COUNT>  (1) 
0

>  <PUBCHEM_ISOTOPIC_ATOM_COUNT>  (1) 
0

>  <PUBCHEM_COMPONENT_COUNT>  (1) 
1

>  <PUBCHEM_CACTVS_TAUTO_COUNT>  (1) 
1

>  <PUBCHEM_CONFORMER_ID>  (1) 
00002AFE00000001

>  <PUBCHEM_MMFF94_ENERGY>  (1) 
-5.7336

>  <PUBCHEM_FEATURE_SELFOVERLAP>  (1) 
10.149

>  <PUBCHEM_SHAPE_FINGERPRINT>  (1) 
14123256 10 18411138034621781483
14251764 18 18410855447243273083
14251764 46 18410573985156745379
155225 1 12463562999158062258
22224240 67 18408602573762019506
232437 2 18333731316921197618
23521765 1 18341894095129024885
23581129 1 18409449184756236295
246663 6 17530685407087965844
33684 2 18410855460128161794
67123 10 18410575097547980805
8209 1 18410856563934756869

>  <PUBCHEM_SHAPE_MULTIPOLES>  (1) 
329.27
35.25
0.79
0.62
0.71
0
0
-0.58
2.1
0
0
0
0
0.02

>  <PUBCHEM_SHAPE_SELFOVERLAP>  (1) 
582.556

>  <PUBCHEM_SHAPE_VOLUME>  (1) 
215.6

>  <PUBCHEM_COORDINATE_TYPE>  (1) 
2
5
10

$$$$
