11000
     RDKit          3D

  7  7  0  0  0  0  0  0  0  0999 V2000
    1.6856   -0.0019   -0.1629 C   0  0  0  0  0  0  0  0  0  0  0  0
    0.9631    1.2917    0.0544 C   0  0  0  0  0  0  0  0  0  0  0  0
    0.9603   -1.2937    0.0545 C   0  0  0  0  0  0  0  0  0  0  0  0
   -0.3461    1.5634    0.1122 C   0  0  0  0  0  0  0  0  0  0  0  0
   -0.3495   -1.5626    0.1122 C   0  0  0  0  0  0  0  0  0  0  0  0
   -1.4560    0.6701   -0.0852 C   0  0  0  0  0  0  0  0  0  0  0  0
   -1.4574   -0.6671   -0.0851 C   0  0  0  0  0  0  0  0  0  0  0  0
  1  2  1  0
  1  3  1  0
  2  4  2  0
  3  5  2  0
  4  6  1  0
  5  7  1  0
  6  7  2  0
M  END
>  <PUBCHEM_COMPOUND_CID>  (1) 
11000

>  <PUBCHEM_CONFORMER_RMSD>  (1) 
0.4

>  <PUBCHEM_CONFORMER_DIVERSEORDER>  (1) 
1

>  <PUBCHEM_MMFF94_PARTIAL_CHARGES>  (1) 
13
1 0.28
10 0.15
11 0.15
12 0.15
13 0.15
14 0.15
15 0.15
2 -0.29
3 -0.29
4 -0.15
5 -0.15
6 -0.15
7 -0.15

>  <PUBCHEM_EFFECTIVE_ROTOR_COUNT>  (1) 
0.2

>  <PUBCHEM_PHARMACOPHORE_FEATURES>  (1) 
1
7 1 2 3 4 5 6 7 rings

>  <PUBCHEM_HEAVY_ATOM_COUNT>  (1) 
7

>  <PUBCHEM_ATOM_DEF_STEREO_COUNT>  (1) 
0

>  <PUBCHEM_ATOM_UDEF_STEREO_COUNT>  (1) 
0

>  <PUBCHEM_BOND_DEF_STEREO_COUNT>  (1) 
0

>  <PUBCHEM_BOND_UDEF_STEREO_COUNT>  (1) 
0

>  <PUBCHEM_ISOTOPIC_ATOM_COUNT>  (1) 
0

>  <PUBCHEM_COMPONENT_COUNT>  (1) 
1

>  <PUBCHEM_CACTVS_TAUTO_COUNT>  (1) 
1

>  <PUBCHEM_CONFORMER_ID>  (1) 
00002AF800000001

>  <PUBCHEM_MMFF94_ENERGY>  (1) 
13.768

>  <PUBCHEM_FEATURE_SELFOVERLAP>  (1) 
5.074

>  <PUBCHEM_SHAPE_FINGERPRINT>  (1) 
18185500 45 17905885881623214007
20096714 4 18410293583943146135
21040471 1 17977946009718311277

>  <PUBCHEM_SHAPE_MULTIPOLES>  (1) 
144.06
1.93
1.92
0.63
0.04
0
0
0
0.1
0.03
-0.09
0
0
0

>  <PUBCHEM_SHAPE_SELFOVERLAP>  (1) 
285.385

>  <PUBCHEM_SHAPE_VOLUME>  (1) 
81.6

>  <PUBCHEM_COORDINATE_TYPE>  (1) 
2
5
10

$$$$
