11003
     RDKit          3D

 11 10  0  0  0  0  0  0  0  0999 V2000
    5.1284   -0.8450   -0.6520 F   0  0  0  0  0  0  0  0  0  0  0  0
   -4.0860    1.2158   -0.3180 O   0  0  0  0  0  0  0  0  0  0  0  0
    1.1276    0.5171    0.0140 C   0  0  0  0  0  0  0  0  0  0  0  0
   -0.0809   -0.4110    0.1708 C   0  0  0  0  0  0  0  0  0  0  0  0
    2.4688   -0.1819    0.2470 C   0  0  0  0  0  0  0  0  0  0  0  0
   -1.4235    0.2981   -0.0373 C   0  0  0  0  0  0  0  0  0  0  0  0
    3.6354    0.7995    0.1108 C   0  0  0  0  0  0  0  0  0  0  0  0
   -2.6117   -0.6473    0.1404 C   0  0  0  0  0  0  0  0  0  0  0  0
    4.9734    0.1072    0.3057 C   0  0  0  0  0  0  0  0  0  0  0  0
   -3.9622    0.0180   -0.0672 C   0  0  0  0  0  0  0  0  0  0  0  0
   -5.1694   -0.8704    0.0858 C   0  0  0  0  0  0  0  0  0  0  0  0
  1  9  1  0
  2 10  2  0
  3  4  1  0
  3  5  1  0
  4  6  1  0
  5  7  1  0
  6  8  1  0
  7  9  1  0
  8 10  1  0
 10 11  1  0
M  END
>  <PUBCHEM_COMPOUND_CID>  (1) 
11003

>  <PUBCHEM_CONFORMER_RMSD>  (1) 
0.8

>  <PUBCHEM_CONFORMER_DIVERSEORDER>  (1) 
1
68
31
149
6
153
16
157
9
30
158
150
131
77
34
123
76
11
124
26
151
20
89
28
155
3
146
114
97
27
57
8
134
147
12
33
36
43
152
47
154
21
51
122
93
4
79
136
17
81
107
156
18
78
25
145
40
37
24
127
137
50
103
142
2
46
58
120
106
96
74
138
44
109
5
110
139
55
91
148
70
95
35
112
73
63
90
132
56
72
39
64
86
15
88
87
100
111
75
54
38
121
113
45
22
84
14
62
61
144
29
13
67
141
41
66
69
119
105
98
53
83
10
108
128
71
49
104
94
7
126
92
115
52
117
19
32
129
143
48
101
102
42
80
23
82
99
135
85
116
118
133
130
60
140
59
125
65

>  <PUBCHEM_MMFF94_PARTIAL_CHARGES>  (1) 
6
1 -0.34
10 0.45
11 0.06
2 -0.57
8 0.06
9 0.34

>  <PUBCHEM_EFFECTIVE_ROTOR_COUNT>  (1) 
7

>  <PUBCHEM_PHARMACOPHORE_FEATURES>  (1) 
3
1 2 acceptor
3 3 5 7 hydrophobe
3 4 6 8 hydrophobe

>  <PUBCHEM_HEAVY_ATOM_COUNT>  (1) 
11

>  <PUBCHEM_ATOM_DEF_STEREO_COUNT>  (1) 
0

>  <PUBCHEM_ATOM_UDEF_STEREO_COUNT>  (1) 
0

>  <PUBCHEM_BOND_DEF_STEREO_COUNT>  (1) 
0

>  <PUBCHEM_BOND_UDEF_STEREO_COUNT>  (1) 
0

>  <PUBCHEM_ISOTOPIC_ATOM_COUNT>  (1) 
0

>  <PUBCHEM_COMPONENT_COUNT>  (1) 
1

>  <PUBCHEM_CACTVS_TAUTO_COUNT>  (1) 
3

>  <PUBCHEM_CONFORMER_ID>  (1) 
00002AFB00000001

>  <PUBCHEM_MMFF94_ENERGY>  (1) 
1.8999

>  <PUBCHEM_FEATURE_SELFOVERLAP>  (1) 
15.223

>  <PUBCHEM_SHAPE_FINGERPRINT>  (1) 
11062470 55 18408321098721674057
14123238 8 16008746917973606595
1420 363 18259990396435305659
15242439 84 18408323293655606210
15501527 16 18411139104797054313
17834072 33 18336547213175280588
17834076 25 16660644059610816586
20645477 70 18131074792767279054
20719005 15 18410574002331320338
20828058 21 18261108577795111817
22485316 2 17988639714134581062
23402539 116 12391513070539108641
300161 21 11023832747350720021
366044 4 18187081771475404154
42788 4 18408885144224052184
522135 26 16443061699775252632
57483677 66 18343862225290920102

>  <PUBCHEM_SHAPE_MULTIPOLES>  (1) 
213.23
12.72
0.97
0.65
2.59
0.09
0
-1.31
-0.61
-0.37
-0.05
0.17
-0.03
0.38

>  <PUBCHEM_SHAPE_SELFOVERLAP>  (1) 
384.904

>  <PUBCHEM_SHAPE_VOLUME>  (1) 
136.9

>  <PUBCHEM_COORDINATE_TYPE>  (1) 
2
5
10

$$$$
