11012
     RDKit          3D

 28 32  0  0  1  0  0  0  0  0999 V2000
   -0.5606   -2.9175   -0.4850 O   0  0  0  0  0  0  0  0  0  0  0  0
   -2.8299   -2.0132    1.3875 O   0  0  0  0  0  0  0  0  0  0  0  0
    5.8914    1.5828    1.1848 O   0  0  0  0  0  0  0  0  0  0  0  0
   -5.0777    1.9407   -0.5757 O   0  0  0  0  0  0  0  0  0  0  0  0
   -6.7476    1.0259    0.7167 O   0  0  0  0  0  0  0  0  0  0  0  0
   -0.2646   -1.5535   -0.1436 C   0  0  0  0  0  0  0  0  0  0  0  0
    1.1996   -1.2644   -0.5917 C   0  0  0  0  0  0  0  0  0  0  0  0
   -1.3274   -0.5816   -0.7876 C   0  0  0  0  0  0  0  0  0  0  0  0
    1.5893    0.2303   -0.4330 C   0  0  0  0  0  0  0  0  0  0  0  0
    3.0810    0.5233   -0.8553 C   0  0  0  0  0  0  0  0  0  0  0  0
    4.0478   -0.4439   -0.0964 C   0  0  0  0  0  0  0  0  0  0  0  0
   -2.0100    0.0939    0.4519 C   0  0  0  0  0  0  0  0  0  0  0  0
   -0.6574    0.4729   -1.6973 C   0  0  0  0  0  0  0  0  0  0  0  0
    0.5592    1.1719   -1.0971 C   0  0  0  0  0  0  0  0  0  0  0  0
   -0.4776   -1.4563    1.3896 C   0  0  0  0  0  0  0  0  0  0  0  0
    2.2037   -2.1975    0.1147 C   0  0  0  0  0  0  0  0  0  0  0  0
   -1.9051   -0.9506    1.5660 C   0  0  0  0  0  0  0  0  0  0  0  0
    3.6491   -1.9165   -0.2806 C   0  0  0  0  0  0  0  0  0  0  0  0
    3.4972    1.9914   -0.5410 C   0  0  0  0  0  0  0  0  0  0  0  0
   -2.3555   -1.3314   -1.6746 C   0  0  0  0  0  0  0  0  0  0  0  0
    4.1769   -0.1067    1.4076 C   0  0  0  0  0  0  0  0  0  0  0  0
    3.2743    0.3279   -2.3840 C   0  0  0  0  0  0  0  0  0  0  0  0
    3.6143    2.3057    0.9502 C   0  0  0  0  0  0  0  0  0  0  0  0
    4.5662    1.3481    1.6560 C   0  0  0  0  0  0  0  0  0  0  0  0
   -3.3892    0.6414    0.2622 C   0  0  0  0  0  0  0  0  0  0  0  0
   -3.6695    1.7194   -0.7079 C   0  0  0  0  0  0  0  0  0  0  0  0
   -4.4963    0.2654    0.8967 C   0  0  0  0  0  0  0  0  0  0  0  0
   -5.5818    1.0921    0.3669 C   0  0  0  0  0  0  0  0  0  0  0  0
  1  6  1  0
  2 17  1  0
  3 24  1  0
  4 26  1  0
  4 28  1  0
  5 28  2  0
  6  7  1  0
  6  8  1  0
  6 15  1  0
  7  9  1  0
  7 16  1  0
  8 12  1  0
  8 13  1  0
  8 20  1  0
  9 10  1  0
  9 14  1  0
 10 11  1  0
 10 19  1  0
 10 22  1  0
 11 18  1  0
 11 21  1  0
 12 17  1  0
 12 25  1  0
 13 14  1  0
 15 17  1  0
 16 18  1  0
 19 23  1  0
 21 24  1  0
 23 24  1  0
 25 26  1  0
 25 27  2  0
 27 28  1  0
M  END
>  <PUBCHEM_COMPOUND_CID>  (1) 
11012

>  <PUBCHEM_CONFORMER_RMSD>  (1) 
0.8

>  <PUBCHEM_CONFORMER_DIVERSEORDER>  (1) 
1
5
9
11
20
17
18
19
16
14
13
7
15
10
6
21
3
12
4
2
8

>  <PUBCHEM_MMFF94_PARTIAL_CHARGES>  (1) 
17
1 -0.68
12 0.14
17 0.28
2 -0.68
24 0.28
25 -0.28
26 0.42
27 -0.14
28 0.71
3 -0.68
4 -0.43
5 -0.57
57 0.4
58 0.4
6 0.28
61 0.15
62 0.4

>  <PUBCHEM_EFFECTIVE_ROTOR_COUNT>  (1) 
3.6

>  <PUBCHEM_PHARMACOPHORE_FEATURES>  (1) 
12
1 1 acceptor
1 1 donor
1 2 acceptor
1 2 donor
1 3 acceptor
1 3 donor
1 5 acceptor
5 4 25 26 27 28 rings
5 6 8 12 15 17 rings
6 10 11 19 21 23 24 rings
6 6 7 8 9 13 14 rings
6 7 9 10 11 16 18 rings

>  <PUBCHEM_HEAVY_ATOM_COUNT>  (1) 
28

>  <PUBCHEM_ATOM_DEF_STEREO_COUNT>  (1) 
7

>  <PUBCHEM_ATOM_UDEF_STEREO_COUNT>  (1) 
2

>  <PUBCHEM_BOND_DEF_STEREO_COUNT>  (1) 
0

>  <PUBCHEM_BOND_UDEF_STEREO_COUNT>  (1) 
0

>  <PUBCHEM_ISOTOPIC_ATOM_COUNT>  (1) 
0

>  <PUBCHEM_COMPONENT_COUNT>  (1) 
1

>  <PUBCHEM_CACTVS_TAUTO_COUNT>  (1) 
1

>  <PUBCHEM_CONFORMER_ID>  (1) 
00002B0400000001

>  <PUBCHEM_MMFF94_ENERGY>  (1) 
101.6241

>  <PUBCHEM_FEATURE_SELFOVERLAP>  (1) 
61.161

>  <PUBCHEM_SHAPE_FINGERPRINT>  (1) 
10319926 262 17968099724404836130
10498660 4 14476673169882969284
10692045 39 18337943477305929066
11089746 13 18131350787006555916
11578080 2 18059006310522557912
11595378 159 15574715768356365093
11961588 58 16415469480523441593
12166972 35 16916508021855479238
12236239 1 17775280535105417607
12403259 415 18270695249779541138
12422481 6 17968364659293482780
12633257 1 16805322223256923394
12670546 177 11527954473473328472
13140716 1 18113617910987709866
13224815 77 17968375770806485342
13533116 47 18339929194851848819
13544653 18 8502365638195539629
13583140 156 18272374225573353827
13675066 3 18334576823845218309
13692114 37 18261394481733269259
13965767 371 18261659463918712592
14178342 30 18190460665518658238
14251764 30 7853568020074972569
15183329 4 10015587182298443043
15238133 3 18113623378460134740
15664445 248 12607104232566936906
15840311 113 18272092635455672965
17349148 13 17749391490036412215
17492 54 15195285356414027024
1813 80 14129065802603221567
193927 3 11458421302097784600
20157964 124 18202281377484117685
20775438 99 8934129496111082600
20775530 9 14564464655324548056
21033648 29 18340214075827185752
21421861 104 16153709838742709332
21452121 103 18337104575328796504
21859007 373 17024292055978936517
22149856 69 18191895391550129233
22907989 373 13901354839824786034
23227448 37 18130220566410001709
23503953 91 17821731662672944724
23559900 14 18115038402553861126
23569914 152 9075788319834238409
2838139 119 17988354893399972137
3472631 163 17774999111183231948
34797466 226 17418097603090865413
350125 39 18263085422935956020
4340502 62 18334017173006916195
437815 12 18053109415548257926
465052 167 12973897991667277169
474 4 18059852900485608368
495365 180 18343303647914620022
5104073 3 18335147458170411563
513532 50 17988651770350270708
57527293 21 17023182790385134326
58807428 26 17676200273487489458
6086070 43 17203325667752964112
7970288 3 11025787683257356240
8509985 295 17530971280206536181
960060 61 13470688139626863948

>  <PUBCHEM_SHAPE_MULTIPOLES>  (1) 
546.88
11.74
2.48
1.72
7.53
0.53
-0.23
-7.45
3.78
-0.71
0.17
-0.84
-0.07
0.9

>  <PUBCHEM_SHAPE_SELFOVERLAP>  (1) 
1184.602

>  <PUBCHEM_SHAPE_VOLUME>  (1) 
298.1

>  <PUBCHEM_COORDINATE_TYPE>  (1) 
2
5
10

$$$$
