11016
     RDKit          3D

 11 13  0  0  0  0  0  0  0  0999 V2000
   -0.1182    0.0292   -0.2650 P   0  0  0  0  0  0  0  0  0  0  0  0
   -0.3096   -0.3532   -1.7142 O   0  0  0  0  0  0  0  0  0  0  0  0
    0.5125    1.5523   -0.0530 N   0  0  0  0  0  0  0  0  0  0  0  0
    0.9123   -0.9794    0.5621 N   0  0  0  0  0  0  0  0  0  0  0  0
   -1.5249    0.0216    0.6201 N   0  0  0  0  0  0  0  0  0  0  0  0
    1.8661    1.7657   -0.5461 C   0  0  0  0  0  0  0  0  0  0  0  0
    1.5834    1.6819    0.9255 C   0  0  0  0  0  0  0  0  0  0  0  0
    0.5851   -2.3982    0.5383 C   0  0  0  0  0  0  0  0  0  0  0  0
    1.7466   -1.8594   -0.2445 C   0  0  0  0  0  0  0  0  0  0  0  0
   -2.5343    0.9993    0.2378 C   0  0  0  0  0  0  0  0  0  0  0  0
   -2.7189   -0.4598   -0.0611 C   0  0  0  0  0  0  0  0  0  0  0  0
  1  2  2  0
  1  3  1  0
  1  4  1  0
  1  5  1  0
  3  6  1  0
  3  7  1  0
  4  8  1  0
  4  9  1  0
  5 10  1  0
  5 11  1  0
  6  7  1  0
  8  9  1  0
 10 11  1  0
M  END
>  <PUBCHEM_COMPOUND_CID>  (1) 
11016

>  <PUBCHEM_CONFORMER_RMSD>  (1) 
0.6

>  <PUBCHEM_CONFORMER_DIVERSEORDER>  (1) 
1
5
4
3
2

>  <PUBCHEM_MMFF94_PARTIAL_CHARGES>  (1) 
23
1 1.5
10 -0.04
11 -0.04
12 0.1
13 0.1
14 0.1
15 0.1
16 0.1
17 0.1
18 0.1
19 0.1
2 -0.7
20 0.1
21 0.1
22 0.1
23 0.1
3 -0.58
4 -0.58
5 -0.58
6 -0.04
7 -0.04
8 -0.04
9 -0.04

>  <PUBCHEM_EFFECTIVE_ROTOR_COUNT>  (1) 
4.8

>  <PUBCHEM_PHARMACOPHORE_FEATURES>  (1) 
1
1 2 acceptor

>  <PUBCHEM_HEAVY_ATOM_COUNT>  (1) 
11

>  <PUBCHEM_ATOM_DEF_STEREO_COUNT>  (1) 
0

>  <PUBCHEM_ATOM_UDEF_STEREO_COUNT>  (1) 
0

>  <PUBCHEM_BOND_DEF_STEREO_COUNT>  (1) 
0

>  <PUBCHEM_BOND_UDEF_STEREO_COUNT>  (1) 
0

>  <PUBCHEM_ISOTOPIC_ATOM_COUNT>  (1) 
0

>  <PUBCHEM_COMPONENT_COUNT>  (1) 
1

>  <PUBCHEM_CACTVS_TAUTO_COUNT>  (1) 
1

>  <PUBCHEM_CONFORMER_ID>  (1) 
00002B0800000001

>  <PUBCHEM_MMFF94_ENERGY>  (1) 
27.9932

>  <PUBCHEM_FEATURE_SELFOVERLAP>  (1) 
5.074

>  <PUBCHEM_SHAPE_FINGERPRINT>  (1) 
1 1 18337953492842290164
10702982 57 18126277781963252646
12423570 1 16033706871380028036
15775835 57 18058453269164553473
16945 1 18263649459020087713
20645477 70 18412541012445741791
20653091 64 18341060609723293185
20711985 344 16975071124601250679
21040471 1 18121501525027549240
21061003 4 18119794833968103002
23211744 41 17986120835869066809
23526114 1 18410015416091078205
23552423 10 18410012113709561923
23595355 12 18335703879293507230
305870 269 18339913913484894784
5084963 1 17984717854684335857
528862 383 18335128813200349330
54338 74 17690281504176890633
68250623 7 18058453277633188566
68419 9 17344316047265141445
7364860 26 18343584018963266947
81228 2 17257655517181525818

>  <PUBCHEM_SHAPE_MULTIPOLES>  (1) 
209.41
3.14
2.46
1.01
2.26
0.67
-0.26
-0.66
0.18
-1.77
0.32
-0.11
-0.03
-0.05

>  <PUBCHEM_SHAPE_SELFOVERLAP>  (1) 
403.89

>  <PUBCHEM_SHAPE_VOLUME>  (1) 
130.8

>  <PUBCHEM_COORDINATE_TYPE>  (1) 
2
5
10

$$$$
