11013
     RDKit          3D

 38 43  0  0  1  0  0  0  0  0999 V2000
   -4.0944    1.6327   -0.2331 O   0  0  0  0  0  0  0  0  0  0  0  0
   -0.4839   -2.3124    1.4478 O   0  0  0  0  0  0  0  0  0  0  0  0
    3.9045    0.8733   -0.2137 O   0  0  0  0  0  0  0  0  0  0  0  0
   -8.3891   -0.7101    0.2430 O   0  0  0  0  0  0  0  0  0  0  0  0
    5.3520   -0.5905   -1.3362 O   0  0  0  0  0  0  0  0  0  0  0  0
   -8.9297    1.2122   -0.9009 O   0  0  0  0  0  0  0  0  0  0  0  0
    6.5052    1.8157   -0.2013 O   0  0  0  0  0  0  0  0  0  0  0  0
    8.4769    0.4132    1.2161 O   0  0  0  0  0  0  0  0  0  0  0  0
    8.2284    0.0563   -1.5272 O   0  0  0  0  0  0  0  0  0  0  0  0
   -3.1626    0.5399   -0.2685 C   0  0  0  0  0  0  0  0  0  0  0  0
   -1.8414    1.0675    0.3549 C   0  0  0  0  0  0  0  0  0  0  0  0
   -0.7600   -0.0324    0.6042 C   0  0  0  0  0  0  0  0  0  0  0  0
   -3.7560   -0.6850    0.4722 C   0  0  0  0  0  0  0  0  0  0  0  0
    0.5574    0.5807    1.2556 C   0  0  0  0  0  0  0  0  0  0  0  0
    1.0718    1.7736    0.3792 C   0  0  0  0  0  0  0  0  0  0  0  0
   -1.3912   -1.2150    1.3830 C   0  0  0  0  0  0  0  0  0  0  0  0
   -2.6549   -1.7475    0.7026 C   0  0  0  0  0  0  0  0  0  0  0  0
   -4.7869   -1.2666   -0.5498 C   0  0  0  0  0  0  0  0  0  0  0  0
   -1.2815    2.2464   -0.4656 C   0  0  0  0  0  0  0  0  0  0  0  0
   -3.0416    0.0531   -1.7222 C   0  0  0  0  0  0  0  0  0  0  0  0
   -0.0135    2.8303    0.1411 C   0  0  0  0  0  0  0  0  0  0  0  0
   -4.2072   -0.9217   -1.9381 C   0  0  0  0  0  0  0  0  0  0  0  0
    1.7398   -0.4253    1.3876 C   0  0  0  0  0  0  0  0  0  0  0  0
    1.6703    1.3075   -0.9718 C   0  0  0  0  0  0  0  0  0  0  0  0
   -4.3921   -0.3235    1.8288 C   0  0  0  0  0  0  0  0  0  0  0  0
    0.2757    1.0835    2.6968 C   0  0  0  0  0  0  0  0  0  0  0  0
    2.2954   -0.9117    0.0513 C   0  0  0  0  0  0  0  0  0  0  0  0
    2.7648    0.2565   -0.8097 C   0  0  0  0  0  0  0  0  0  0  0  0
   -6.2004   -0.7770   -0.4247 C   0  0  0  0  0  0  0  0  0  0  0  0
   -7.2003   -1.4934    0.3928 C   0  0  0  0  0  0  0  0  0  0  0  0
   -6.7289    0.3031   -0.9939 C   0  0  0  0  0  0  0  0  0  0  0  0
    4.9781   -0.0531   -0.0662 C   0  0  0  0  0  0  0  0  0  0  0  0
   -8.1297    0.3533   -0.5723 C   0  0  0  0  0  0  0  0  0  0  0  0
    6.1587    0.6716    0.5828 C   0  0  0  0  0  0  0  0  0  0  0  0
    7.3497   -0.2810    0.6943 C   0  0  0  0  0  0  0  0  0  0  0  0
    6.4340   -1.5347   -1.3103 C   0  0  0  0  0  0  0  0  0  0  0  0
    7.6851   -0.9348   -0.6502 C   0  0  0  0  0  0  0  0  0  0  0  0
    5.9977   -2.8547   -0.6782 C   0  0  0  0  0  0  0  0  0  0  0  0
  1 10  1  0
  2 16  1  0
  3 28  1  0
  3 32  1  0
  4 30  1  0
  4 33  1  0
  5 32  1  0
  5 36  1  0
  6 33  2  0
  7 34  1  0
  8 35  1  0
  9 37  1  0
 10 11  1  0
 10 13  1  0
 10 20  1  0
 11 12  1  0
 11 19  1  0
 12 14  1  0
 12 16  1  0
 13 17  1  0
 13 18  1  0
 13 25  1  0
 14 15  1  0
 14 23  1  0
 14 26  1  0
 15 21  1  0
 15 24  1  0
 16 17  1  0
 18 22  1  0
 18 29  1  0
 19 21  1  0
 20 22  1  0
 23 27  1  0
 24 28  1  0
 27 28  1  0
 29 30  1  0
 29 31  2  0
 31 33  1  0
 32 34  1  0
 34 35  1  0
 35 37  1  0
 36 37  1  0
 36 38  1  0
M  END
>  <PUBCHEM_COMPOUND_CID>  (1) 
11013

>  <PUBCHEM_CONFORMER_RMSD>  (1) 
1

>  <PUBCHEM_CONFORMER_DIVERSEORDER>  (1) 
6
162
124
86
2
135
54
107
76
27
176
164
163
141
34
112
88
87
69
73
78
139
36
5
47
106
66
98
49
129
173
143
30
178
55
128
32
171
52
84
114
50
157
62
58
8
159
120
82
11
146
60
177
14
9
175
170
174
123
154
68
116
142
83
138
165
61
102
118
132
168
110
17
149
133
72
148
59
103
95
38
39
26
144
28
41
64
13
42
156
109
91
96
121
77
153
101
137
100
93
45
33
53
67
145
63
85
108
113
104
166
167
1
97
172
99
117
111
46
140
119
131
152
160
158
89
56
22
25
147
92
51
127
150
48
70
19
105
115
155
12
94
40
23
151
74
71
24
130
161
169
75
57
65
20
136
35
3
4
125
29
126
79
37
21
10
18
90
44
31
16
7
15
80
122
43
134
81

>  <PUBCHEM_MMFF94_PARTIAL_CHARGES>  (1) 
28
1 -0.68
10 0.28
16 0.28
18 0.14
2 -0.68
28 0.28
29 -0.28
3 -0.56
30 0.42
31 -0.14
32 0.56
33 0.71
34 0.28
35 0.28
36 0.28
37 0.28
4 -0.43
5 -0.56
6 -0.57
67 0.4
68 0.4
7 -0.68
71 0.15
77 0.4
8 -0.68
81 0.4
82 0.4
9 -0.68

>  <PUBCHEM_EFFECTIVE_ROTOR_COUNT>  (1) 
6.8

>  <PUBCHEM_PHARMACOPHORE_FEATURES>  (1) 
19
1 1 acceptor
1 1 donor
1 2 acceptor
1 2 donor
1 3 acceptor
1 5 acceptor
1 6 acceptor
1 7 acceptor
1 7 donor
1 8 acceptor
1 8 donor
1 9 acceptor
1 9 donor
5 10 13 18 20 22 rings
5 4 29 30 31 33 rings
6 10 11 12 13 16 17 rings
6 11 12 14 15 19 21 rings
6 14 15 23 24 27 28 rings
6 5 32 34 35 36 37 rings

>  <PUBCHEM_HEAVY_ATOM_COUNT>  (1) 
38

>  <PUBCHEM_ATOM_DEF_STEREO_COUNT>  (1) 
9

>  <PUBCHEM_ATOM_UDEF_STEREO_COUNT>  (1) 
5

>  <PUBCHEM_BOND_DEF_STEREO_COUNT>  (1) 
0

>  <PUBCHEM_BOND_UDEF_STEREO_COUNT>  (1) 
0

>  <PUBCHEM_ISOTOPIC_ATOM_COUNT>  (1) 
0

>  <PUBCHEM_COMPONENT_COUNT>  (1) 
1

>  <PUBCHEM_CACTVS_TAUTO_COUNT>  (1) 
1

>  <PUBCHEM_CONFORMER_ID>  (1) 
00002B0500000006

>  <PUBCHEM_MMFF94_ENERGY>  (1) 
138.2792

>  <PUBCHEM_FEATURE_SELFOVERLAP>  (1) 
96.73

>  <PUBCHEM_SHAPE_FINGERPRINT>  (1) 
10 15 12247677171729111382
10076449 9 17458067080191336977
10165383 225 17458060465762515387
10299344 5 17203611492745613926
106641 1 9655573020284021637
10674148 151 18333165068512196337
11456790 92 16630537263022836899
11578080 2 8357168513815276255
11991303 11 15502667034751852746
12516196 113 17704354373087336408
12741549 16 17489583451077641360
12857493 111 18413669127981495248
13811026 1 18409166636211794584
14068700 675 16272208608840433795
14150023 79 12901538027552854616
14251764 18 13326854435333801333
14294032 229 17750791048476074533
15064986 266 18339375084115118048
15082195 135 18113914771222856956
15131766 46 15623659575016308144
15183329 4 17603305947317201714
15198563 99 18335705983770454676
15392192 104 11527944560868606108
15439362 3 18050845816926946432
15840311 113 8574424340541329970
15849732 13 18202563994911417615
16087824 20 18262233319327699797
18393751 57 9079111142108751537
18603816 31 16558735850772093719
18608769 82 18040997384587667139
19611394 137 11314609597197243157
19841028 212 18336826386646639522
19958102 18 17895193264868028270
20105231 36 18260270763938448483
21033648 29 11747513794898786516
21267235 1 18408888456013219473
22224240 67 9439404627215591405
23559900 14 18264766743423475497
23576562 1 17970346126003637023
24771293 8 9799421035893762051
249057 3 17894632582023836677
2838139 119 14634865349215319526
3004659 81 18040714787738262340
335352 9 18114181964415131165
3383291 50 18334860549475197355
3633792 109 18411140216671058962
4098825 35 18411700941910470541
4325135 7 17561364002570824492
439807 62 18060137622578868494
45266715 3 18186804630775375034
484989 97 17822865315470881307
5219985 9 16415478250846647697
59682541 35 10663816390961418989
59755656 520 12757149112546943273
6081469 158 16845856780071496857
6126387 218 17775566421277402073
9663363 56 18341606023103906457
9962374 69 15984809485576473517

>  <PUBCHEM_SHAPE_MULTIPOLES>  (1) 
729.2
24.96
2.14
1.65
8.15
0.13
0.42
-6.09
-6.81
1.01
-0.05
-0.17
-0.09
1.28

>  <PUBCHEM_SHAPE_SELFOVERLAP>  (1) 
1570.555

>  <PUBCHEM_SHAPE_VOLUME>  (1) 
397.7

>  <PUBCHEM_COORDINATE_TYPE>  (1) 
2
5
10

$$$$
