11022
     RDKit          3D

 28 32  0  0  1  0  0  0  0  0999 V2000
    0.8941    2.8974   -0.4153 O   0  0  0  0  0  0  0  0  0  0  0  0
    5.7146   -1.2945   -0.8840 O   0  0  0  0  0  0  0  0  0  0  0  0
   -6.8133   -1.4179    0.7666 O   0  0  0  0  0  0  0  0  0  0  0  0
   -2.6398    0.3111   -2.4794 O   0  0  0  0  0  0  0  0  0  0  0  0
    6.5275   -2.1446    1.0939 O   0  0  0  0  0  0  0  0  0  0  0  0
    0.6395    1.5878    0.1191 C   0  0  0  0  0  0  0  0  0  0  0  0
    1.6383    0.5855   -0.5264 C   0  0  0  0  0  0  0  0  0  0  0  0
   -0.8522    1.2438   -0.1386 C   0  0  0  0  0  0  0  0  0  0  0  0
   -1.2086   -0.2387    0.1340 C   0  0  0  0  0  0  0  0  0  0  0  0
    2.9723    0.9982    0.1644 C   0  0  0  0  0  0  0  0  0  0  0  0
    1.2380   -0.8725   -0.1907 C   0  0  0  0  0  0  0  0  0  0  0  0
    1.0674    1.6047    1.6006 C   0  0  0  0  0  0  0  0  0  0  0  0
   -2.7053   -0.5621   -0.2267 C   0  0  0  0  0  0  0  0  0  0  0  0
   -0.2100   -1.1912   -0.5520 C   0  0  0  0  0  0  0  0  0  0  0  0
    2.5731    1.3080    1.6150 C   0  0  0  0  0  0  0  0  0  0  0  0
   -1.8040    2.1717    0.6468 C   0  0  0  0  0  0  0  0  0  0  0  0
    1.7544    0.7562   -2.0544 C   0  0  0  0  0  0  0  0  0  0  0  0
   -3.6632    0.5369    0.2117 C   0  0  0  0  0  0  0  0  0  0  0  0
   -3.1066   -1.9232    0.4026 C   0  0  0  0  0  0  0  0  0  0  0  0
    4.1052    0.0264    0.0681 C   0  0  0  0  0  0  0  0  0  0  0  0
   -3.2378    1.7464    0.6129 C   0  0  0  0  0  0  0  0  0  0  0  0
   -5.1382    0.2164    0.1906 C   0  0  0  0  0  0  0  0  0  0  0  0
   -4.6040   -2.2313    0.3412 C   0  0  0  0  0  0  0  0  0  0  0  0
   -2.8657   -0.6333   -1.7301 C   0  0  0  0  0  0  0  0  0  0  0  0
   -5.4356   -1.0916    0.9172 C   0  0  0  0  0  0  0  0  0  0  0  0
    4.6773   -0.3720   -1.2341 C   0  0  0  0  0  0  0  0  0  0  0  0
    4.7257   -0.5851    1.0735 C   0  0  0  0  0  0  0  0  0  0  0  0
    5.7571   -1.4326    0.4732 C   0  0  0  0  0  0  0  0  0  0  0  0
  1  6  1  0
  2 26  1  0
  2 28  1  0
  3 25  1  0
  4 24  2  0
  5 28  2  0
  6  7  1  0
  6  8  1  0
  6 12  1  0
  7 10  1  0
  7 11  1  0
  7 17  1  0
  8  9  1  0
  8 16  1  0
  9 13  1  0
  9 14  1  0
 10 15  1  0
 10 20  1  0
 11 14  1  0
 12 15  1  0
 13 18  1  0
 13 19  1  0
 13 24  1  0
 16 21  1  0
 18 21  2  0
 18 22  1  0
 19 23  1  0
 20 26  1  0
 20 27  2  0
 22 25  1  0
 23 25  1  0
 27 28  1  0
M  END
>  <PUBCHEM_COMPOUND_CID>  (1) 
11022

>  <PUBCHEM_CONFORMER_RMSD>  (1) 
0.8

>  <PUBCHEM_CONFORMER_DIVERSEORDER>  (1) 
2
28
33
36
30
20
9
35
1
31
16
27
32
19
6
14
39
26
21
24
12
13
18
34
29
22
8
5
23
10
17
38
25
7
11
37
15
4
3

>  <PUBCHEM_MMFF94_PARTIAL_CHARGES>  (1) 
23
1 -0.68
10 0.14
13 0.2
16 0.14
18 -0.28
2 -0.43
20 -0.28
21 -0.29
22 0.14
24 0.45
25 0.28
26 0.42
27 -0.14
28 0.71
3 -0.68
4 -0.57
47 0.15
48 0.4
5 -0.57
53 0.06
57 0.15
58 0.4
6 0.28

>  <PUBCHEM_EFFECTIVE_ROTOR_COUNT>  (1) 
4.4

>  <PUBCHEM_PHARMACOPHORE_FEATURES>  (1) 
11
1 1 acceptor
1 1 donor
1 3 acceptor
1 3 donor
1 4 acceptor
1 5 acceptor
5 2 20 26 27 28 rings
5 6 7 10 12 15 rings
6 13 18 19 22 23 25 rings
6 6 7 8 9 11 14 rings
6 8 9 13 16 18 21 rings

>  <PUBCHEM_HEAVY_ATOM_COUNT>  (1) 
28

>  <PUBCHEM_ATOM_DEF_STEREO_COUNT>  (1) 
4

>  <PUBCHEM_ATOM_UDEF_STEREO_COUNT>  (1) 
3

>  <PUBCHEM_BOND_DEF_STEREO_COUNT>  (1) 
0

>  <PUBCHEM_BOND_UDEF_STEREO_COUNT>  (1) 
0

>  <PUBCHEM_ISOTOPIC_ATOM_COUNT>  (1) 
0

>  <PUBCHEM_COMPONENT_COUNT>  (1) 
1

>  <PUBCHEM_CACTVS_TAUTO_COUNT>  (1) 
1

>  <PUBCHEM_CONFORMER_ID>  (1) 
00002B0E00000002

>  <PUBCHEM_MMFF94_ENERGY>  (1) 
78.0124

>  <PUBCHEM_FEATURE_SELFOVERLAP>  (1) 
56.017

>  <PUBCHEM_SHAPE_FINGERPRINT>  (1) 
10076449 9 17131288891711521316
10366900 7 14490189431858239781
10498660 4 8070037665674007502
10670039 82 12396574097362228878
11456790 92 17917725617181074811
11578080 2 17098045041085848695
11646440 116 17346886640963328730
11796584 16 18336826386371429794
11961588 58 9583521997203223625
12035758 1 17489861623218686378
12166972 35 18040158439244533853
12236239 1 18040722446039335020
12422481 6 17346324799264236095
12616971 3 17561359616776193156
12633257 1 16415481596621038873
12969540 114 14201407088321819944
13009979 54 18409457976739615612
13140716 1 17986107633150148487
13685833 64 18409449193805334482
13782708 43 18041561450969153107
13862211 1 18412824698692137231
13911987 19 14274035290255682154
14251764 30 18260828198330766226
14341114 176 18411140281190435921
14528608 73 12179843913912455578
14739800 52 9655295870212985878
14955137 171 17989214753993542881
15183329 4 11602816849460771664
15209289 33 18341895181834956554
15788980 27 17989486329202511526
16728300 4 18192983833940309594
17349148 13 18334299768500728902
17492 89 18120093037937630427
17980427 23 13398622870587958233
1813 80 17895481332655961996
19141452 34 17131829888910822863
19784866 240 17967536774366673863
1979834 28 16845583002230101646
200 152 14273729690542530715
20028762 73 18131069385050480479
21267235 1 18412272730621815274
21637258 2 17822285769684277866
22122407 14 12391220656371204058
22182313 1 17345489092949228469
22950370 63 18333453140452782080
23522609 53 17972352622333193501
23559900 14 18337105782600007977
23569914 152 14061165393194907187
3004659 81 18113903783588613612
335352 9 18411421705186857573
3411729 13 17844243146051915192
3472631 163 10087637104902515858
34797466 226 15864076502575304214
350125 39 18413395345190023289
3886686 26 17043446437862484786
4340502 62 14333138485281246517
46194498 28 16877946087411103638
465052 167 18412547604893187934
5104073 3 18202566189397470544
559249 180 18335137558112434099
59755656 215 18335702728380045547
6081469 158 18261107496608377519
70251023 43 16950564415072883269
7970288 3 18334294283675063691

>  <PUBCHEM_SHAPE_MULTIPOLES>  (1) 
546.88
13.5
2.32
1.51
3.42
0.44
-0.63
-9.62
3.46
-0.21
0.55
0.38
0.1
0.06

>  <PUBCHEM_SHAPE_SELFOVERLAP>  (1) 
1196.52

>  <PUBCHEM_SHAPE_VOLUME>  (1) 
293.8

>  <PUBCHEM_COORDINATE_TYPE>  (1) 
2
5
10

$$$$
