11035
     RDKit          3D

 20 21  0  0  0  0  0  0  0  0999 V2000
    5.2479    0.0016   -0.2232 S   0  0  0  0  0  0  0  0  0  0  0  0
    5.8927    0.0588    1.2780 O   0  0  0  0  0  0  0  0  0  0  0  0
    5.5904   -1.2977   -0.7830 O   0  0  0  0  0  0  0  0  0  0  0  0
    5.6108    1.2273   -0.9175 O   0  0  0  0  0  0  0  0  0  0  0  0
   -2.7075   -2.2432   -0.2041 O   0  0  0  0  0  0  0  0  0  0  0  0
   -6.7117    0.3002    0.2532 O   0  0  0  0  0  0  0  0  0  0  0  0
   -0.6277    0.1518    0.5951 N   0  0  0  0  0  0  0  0  0  0  0  0
   -1.2168    0.1136   -0.5108 N   0  0  0  0  0  0  0  0  0  0  0  0
    3.5191    0.0462    0.0182 C   0  0  0  0  0  0  0  0  0  0  0  0
    0.7567    0.1161    0.4012 C   0  0  0  0  0  0  0  0  0  0  0  0
    2.8514    1.2701    0.0588 C   0  0  0  0  0  0  0  0  0  0  0  0
    2.8057   -1.1428    0.1692 C   0  0  0  0  0  0  0  0  0  0  0  0
    1.4701    1.3051    0.2504 C   0  0  0  0  0  0  0  0  0  0  0  0
    1.4244   -1.1079    0.3606 C   0  0  0  0  0  0  0  0  0  0  0  0
   -2.6081    0.1492   -0.3154 C   0  0  0  0  0  0  0  0  0  0  0  0
   -3.3299   -1.0316   -0.1650 C   0  0  0  0  0  0  0  0  0  0  0  0
   -3.2562    1.3809   -0.2756 C   0  0  0  0  0  0  0  0  0  0  0  0
   -4.7105   -0.9806    0.0267 C   0  0  0  0  0  0  0  0  0  0  0  0
   -5.3641    0.2511    0.0671 C   0  0  0  0  0  0  0  0  0  0  0  0
   -4.6369    1.4318   -0.0840 C   0  0  0  0  0  0  0  0  0  0  0  0
  1  2  1  0
  1  3  2  0
  1  4  2  0
  1  9  1  0
  5 16  1  0
  6 19  1  0
  7  8  2  0
  7 10  1  0
  8 15  1  0
  9 11  2  0
  9 12  1  0
 10 13  2  0
 10 14  1  0
 11 13  1  0
 12 14  2  0
 15 16  2  0
 15 17  1  0
 16 18  1  0
 17 20  2  0
 18 19  2  0
 19 20  1  0
M  END
>  <PUBCHEM_COMPOUND_CID>  (1) 
11035

>  <PUBCHEM_CONFORMER_RMSD>  (1) 
0.6

>  <PUBCHEM_CONFORMER_DIVERSEORDER>  (1) 
2
4
3
1

>  <PUBCHEM_MMFF94_PARTIAL_CHARGES>  (1) 
30
1 1.49
10 0.18
11 -0.15
12 -0.15
13 -0.15
14 -0.15
15 0.18
16 0.08
17 -0.15
18 -0.15
19 0.08
2 -0.68
20 -0.15
21 0.15
22 0.15
23 0.15
24 0.15
25 0.15
26 0.15
27 0.15
28 0.5
29 0.45
3 -0.65
30 0.45
4 -0.65
5 -0.53
6 -0.53
7 -0.18
8 -0.18
9 -0.01

>  <PUBCHEM_EFFECTIVE_ROTOR_COUNT>  (1) 
3

>  <PUBCHEM_PHARMACOPHORE_FEATURES>  (1) 
8
1 2 acceptor
1 3 acceptor
1 4 acceptor
1 5 donor
1 6 donor
4 1 2 3 4 anion
6 15 16 17 18 19 20 rings
6 9 10 11 12 13 14 rings

>  <PUBCHEM_HEAVY_ATOM_COUNT>  (1) 
20

>  <PUBCHEM_ATOM_DEF_STEREO_COUNT>  (1) 
0

>  <PUBCHEM_ATOM_UDEF_STEREO_COUNT>  (1) 
0

>  <PUBCHEM_BOND_DEF_STEREO_COUNT>  (1) 
0

>  <PUBCHEM_BOND_UDEF_STEREO_COUNT>  (1) 
0

>  <PUBCHEM_ISOTOPIC_ATOM_COUNT>  (1) 
0

>  <PUBCHEM_COMPONENT_COUNT>  (1) 
1

>  <PUBCHEM_CACTVS_TAUTO_COUNT>  (1) 
12

>  <PUBCHEM_CONFORMER_ID>  (1) 
00002B1B00000002

>  <PUBCHEM_MMFF94_ENERGY>  (1) 
43.5442

>  <PUBCHEM_FEATURE_SELFOVERLAP>  (1) 
40.651

>  <PUBCHEM_SHAPE_FINGERPRINT>  (1) 
10968037 39 18260548935752459551
11315181 36 17561085825775517657
12107183 9 17615965513339972273
12236239 1 17989489610467965353
12516196 113 17632856434198768632
12788726 201 17773878606076917849
13533116 47 16773518763445555246
1420 363 17821733831668261745
14251764 18 18273217504559386331
14341114 176 18410579487136621101
15183329 4 18410859836963658558
15788980 27 18413109467808329270
17834072 33 18409449202200096532
17844677 252 18413113861470715512
19489759 90 9871751291044275831
200 152 18131633387085291625
20281389 69 18187080650420478229
20645477 56 18409164407609187973
20645477 70 18270684156311935126
20681677 155 18410571790729462619
21267235 1 18409455795380824393
2297311 6 18413113848981153749
23035841 295 18411419492492670946
23402539 116 17168137931923985020
23402655 69 18409166606046816080
23536379 177 18408604747278942584
23557571 272 18411705343962182148
23559900 14 18270955851589934705
300161 21 18411410700726160547
3004659 81 18335987485254712654
34797466 226 17917721231539572644
3545911 37 18411418406208751913
4073 2 18040722505963376722
4214541 1 18411418410567055173
4325135 7 18333453149274786692
4340502 62 16298102086600564322
5104073 3 18338231686347819616
542803 24 17676488349807470660
59755656 215 18412266099303288174
59755656 520 16805321106956057499
6327066 14 17753318778753815805
7495541 125 12973900220454441525
77779 3 18410011044262770073

>  <PUBCHEM_SHAPE_MULTIPOLES>  (1) 
376.13
15.65
1.57
0.77
1.02
0.24
-0.04
-0.77
0.55
-0.45
0.13
0.66
-0.02
-0.04

>  <PUBCHEM_SHAPE_SELFOVERLAP>  (1) 
799.658

>  <PUBCHEM_SHAPE_VOLUME>  (1) 
209.5

>  <PUBCHEM_COORDINATE_TYPE>  (1) 
2
5
10

$$$$
