11037
     RDKit          3D

 21 22  0  0  0  0  0  0  0  0999 V2000
   -5.8370    0.0234    0.1910 S   0  0  0  0  0  0  0  0  0  0  0  0
   -6.4617   -0.1446   -1.3106 O   0  0  0  0  0  0  0  0  0  0  0  0
   -6.2124   -1.1657    0.9422 O   0  0  0  0  0  0  0  0  0  0  0  0
   -6.1846    1.3491    0.6787 O   0  0  0  0  0  0  0  0  0  0  0  0
    6.1778   -0.0185   -0.1352 N   0  0  0  0  0  0  0  0  0  0  0  0
    0.6228    0.0641    0.5584 N   0  0  0  0  0  0  0  0  0  0  0  0
    0.0502   -0.0600   -0.5496 N   0  0  0  0  0  0  0  0  0  0  0  0
    4.7783    0.0026    0.0393 C   0  0  0  0  0  0  0  0  0  0  0  0
    4.0873    1.2134   -0.0092 C   0  0  0  0  0  0  0  0  0  0  0  0
    4.0851   -1.1876    0.2606 C   0  0  0  0  0  0  0  0  0  0  0  0
   -4.1051   -0.0008   -0.0275 C   0  0  0  0  0  0  0  0  0  0  0  0
    2.0103    0.0441    0.3849 C   0  0  0  0  0  0  0  0  0  0  0  0
    2.7034    1.2342    0.1637 C   0  0  0  0  0  0  0  0  0  0  0  0
    2.7011   -1.1668    0.4334 C   0  0  0  0  0  0  0  0  0  0  0  0
   -1.3441   -0.0401   -0.3747 C   0  0  0  0  0  0  0  0  0  0  0  0
    6.9849    1.1153    0.2691 C   0  0  0  0  0  0  0  0  0  0  0  0
    6.8284   -1.1799   -0.7086 C   0  0  0  0  0  0  0  0  0  0  0  0
   -3.4129    1.1898   -0.2491 C   0  0  0  0  0  0  0  0  0  0  0  0
   -3.4133   -1.2112    0.0202 C   0  0  0  0  0  0  0  0  0  0  0  0
   -2.0290    1.1700   -0.4232 C   0  0  0  0  0  0  0  0  0  0  0  0
   -2.0294   -1.2308   -0.1538 C   0  0  0  0  0  0  0  0  0  0  0  0
  1  2  1  0
  1  3  2  0
  1  4  2  0
  1 11  1  0
  5  8  1  0
  5 16  1  0
  5 17  1  0
  6  7  2  0
  6 12  1  0
  7 15  1  0
  8  9  2  0
  8 10  1  0
  9 13  1  0
 10 14  2  0
 11 18  2  0
 11 19  1  0
 12 13  2  0
 12 14  1  0
 15 20  2  0
 15 21  1  0
 18 20  1  0
 19 21  2  0
M  END
>  <PUBCHEM_COMPOUND_CID>  (1) 
11037

>  <PUBCHEM_CONFORMER_RMSD>  (1) 
0.6

>  <PUBCHEM_CONFORMER_DIVERSEORDER>  (1) 
1
4
2
3

>  <PUBCHEM_MMFF94_PARTIAL_CHARGES>  (1) 
30
1 1.49
10 -0.15
11 -0.01
12 0.18
13 -0.15
14 -0.15
15 0.18
16 0.37
17 0.37
18 -0.15
19 -0.15
2 -0.68
20 -0.15
21 -0.15
22 0.15
23 0.15
24 0.15
25 0.15
3 -0.65
32 0.15
33 0.15
34 0.15
35 0.15
36 0.5
4 -0.65
5 -0.84
6 -0.18
7 -0.18
8 0.1
9 -0.15

>  <PUBCHEM_EFFECTIVE_ROTOR_COUNT>  (1) 
4

>  <PUBCHEM_PHARMACOPHORE_FEATURES>  (1) 
7
1 2 acceptor
1 3 acceptor
1 4 acceptor
1 5 cation
4 1 2 3 4 anion
6 11 15 18 19 20 21 rings
6 8 9 10 12 13 14 rings

>  <PUBCHEM_HEAVY_ATOM_COUNT>  (1) 
21

>  <PUBCHEM_ATOM_DEF_STEREO_COUNT>  (1) 
0

>  <PUBCHEM_ATOM_UDEF_STEREO_COUNT>  (1) 
0

>  <PUBCHEM_BOND_DEF_STEREO_COUNT>  (1) 
0

>  <PUBCHEM_BOND_UDEF_STEREO_COUNT>  (1) 
0

>  <PUBCHEM_ISOTOPIC_ATOM_COUNT>  (1) 
0

>  <PUBCHEM_COMPONENT_COUNT>  (1) 
1

>  <PUBCHEM_CACTVS_TAUTO_COUNT>  (1) 
1

>  <PUBCHEM_CONFORMER_ID>  (1) 
00002B1D00000001

>  <PUBCHEM_MMFF94_ENERGY>  (1) 
63.226

>  <PUBCHEM_FEATURE_SELFOVERLAP>  (1) 
35.577

>  <PUBCHEM_SHAPE_FINGERPRINT>  (1) 
10 15 18187921829162326360
10299344 5 18272653441333923863
10354089 29 18334575742130664024
106641 1 18335147510095036801
10968037 39 18113337518368871695
11315181 36 18408887356649297833
11524674 6 16917067776316628447
12091667 2 17989205950149264981
12107183 9 17616811037702454913
12236239 1 17988925569977868696
12516196 113 18333731325141873572
12730499 353 18260832592557102890
13073987 5 18336824187437806248
13533116 47 13182752398759244340
14170010 4 18410572912354340464
1420 363 17967254199714818226
14251764 18 18201719565480687084
14251764 46 18410291414958099491
14341114 176 18410295830385173696
14617045 38 18334861601889663010
14933364 13 18411421708896307680
15183329 4 18412822469350766707
17093844 174 17312819382254028261
19489759 90 15339121239120593763
20281389 69 18408602548387880616
21267235 1 18408328786734200320
21315759 40 17131832084092655095
221357 26 18410853248795381116
22224240 67 16732700580249838152
2297311 6 18408890615690848477
23035841 295 17458062672784732146
23198884 109 17846501426385018283
23402539 116 17988918969061644661
23536379 177 18343865511214746968
23559900 14 18339354279135371825
29717793 49 17846503625846175580
300161 21 18186794786002677466
3004659 81 18410011027235920824
34797466 226 18131357423438118012
3545911 37 18408602561077213836
4073 2 18114467863751891810
4214541 1 18410009927101969604
4325135 7 17967534571517982182
4340502 62 16443060600321855634
4463277 17 18412545409753436592
5104073 3 18263074431713836200
542803 24 17203609293637754443
59755656 215 18408323259428230422
59755656 520 16732980950850709755

>  <PUBCHEM_SHAPE_MULTIPOLES>  (1) 
403.47
19.7
1.44
0.81
2.31
0.02
-0.05
0.05
-0.28
0.32
0.06
-0.48
-0.05
0.38

>  <PUBCHEM_SHAPE_SELFOVERLAP>  (1) 
844.577

>  <PUBCHEM_SHAPE_VOLUME>  (1) 
230.1

>  <PUBCHEM_COORDINATE_TYPE>  (1) 
2
5
10

$$$$
