11056
     RDKit          3D

 22 24  0  0  0  0  0  0  0  0999 V2000
    1.4585   -2.4106    0.0050 O   0  0  0  0  0  0  0  0  0  0  0  0
   -1.4580    2.4110    0.0065 O   0  0  0  0  0  0  0  0  0  0  0  0
   -1.2786   -2.3348   -0.0310 O   0  0  0  0  0  0  0  0  0  0  0  0
    1.2790    2.3348   -0.0300 O   0  0  0  0  0  0  0  0  0  0  0  0
    1.4456   -0.0313   -0.0127 C   0  0  0  0  0  0  0  0  0  0  0  0
   -1.4457    0.0317   -0.0138 C   0  0  0  0  0  0  0  0  0  0  0  0
    0.7875   -1.2009   -0.0099 C   0  0  0  0  0  0  0  0  0  0  0  0
   -0.7874    1.2012   -0.0100 C   0  0  0  0  0  0  0  0  0  0  0  0
    2.9196   -0.0048   -0.0005 C   0  0  0  0  0  0  0  0  0  0  0  0
   -2.9199    0.0048   -0.0009 C   0  0  0  0  0  0  0  0  0  0  0  0
   -0.6955   -1.2536   -0.0184 C   0  0  0  0  0  0  0  0  0  0  0  0
    0.6957    1.2538   -0.0178 C   0  0  0  0  0  0  0  0  0  0  0  0
    3.6236   -0.0010   -1.2026 C   0  0  0  0  0  0  0  0  0  0  0  0
   -3.6242    0.0022   -1.2029 C   0  0  0  0  0  0  0  0  0  0  0  0
    3.6033    0.0170    1.2132 C   0  0  0  0  0  0  0  0  0  0  0  0
   -3.6029   -0.0183    1.2129 C   0  0  0  0  0  0  0  0  0  0  0  0
    5.0182    0.0247   -1.1912 C   0  0  0  0  0  0  0  0  0  0  0  0
   -5.0188   -0.0237   -1.1909 C   0  0  0  0  0  0  0  0  0  0  0  0
    4.9978    0.0426    1.2247 C   0  0  0  0  0  0  0  0  0  0  0  0
   -4.9975   -0.0444    1.2250 C   0  0  0  0  0  0  0  0  0  0  0  0
    5.7053    0.0465    0.0224 C   0  0  0  0  0  0  0  0  0  0  0  0
   -5.7054   -0.0469    0.0230 C   0  0  0  0  0  0  0  0  0  0  0  0
  1  7  1  0
  2  8  1  0
  3 11  2  0
  4 12  2  0
  5  7  2  0
  5  9  1  0
  5 12  1  0
  6  8  2  0
  6 10  1  0
  6 11  1  0
  7 11  1  0
  8 12  1  0
  9 13  2  0
  9 15  1  0
 10 14  2  0
 10 16  1  0
 13 17  1  0
 14 18  1  0
 15 19  2  0
 16 20  2  0
 17 21  2  0
 18 22  2  0
 19 21  1  0
 20 22  1  0
M  END
>  <PUBCHEM_COMPOUND_CID>  (1) 
11056

>  <PUBCHEM_CONFORMER_RMSD>  (1) 
0.6

>  <PUBCHEM_CONFORMER_DIVERSEORDER>  (1) 
1

>  <PUBCHEM_MMFF94_PARTIAL_CHARGES>  (1) 
34
1 -0.53
10 0.03
11 0.54
12 0.54
13 -0.15
14 -0.15
15 -0.15
16 -0.15
17 -0.15
18 -0.15
19 -0.15
2 -0.53
20 -0.15
21 -0.15
22 -0.15
23 0.15
24 0.15
25 0.15
26 0.15
27 0.15
28 0.15
29 0.15
3 -0.57
30 0.15
31 0.15
32 0.15
33 0.45
34 0.45
4 -0.57
5 -0.01
6 -0.01
7 0.09
8 0.09
9 0.03

>  <PUBCHEM_EFFECTIVE_ROTOR_COUNT>  (1) 
2

>  <PUBCHEM_PHARMACOPHORE_FEATURES>  (1) 
7
1 1 donor
1 2 donor
1 3 acceptor
1 4 acceptor
6 10 14 16 18 20 22 rings
6 5 6 7 8 11 12 rings
6 9 13 15 17 19 21 rings

>  <PUBCHEM_HEAVY_ATOM_COUNT>  (1) 
22

>  <PUBCHEM_ATOM_DEF_STEREO_COUNT>  (1) 
0

>  <PUBCHEM_ATOM_UDEF_STEREO_COUNT>  (1) 
0

>  <PUBCHEM_BOND_DEF_STEREO_COUNT>  (1) 
0

>  <PUBCHEM_BOND_UDEF_STEREO_COUNT>  (1) 
0

>  <PUBCHEM_ISOTOPIC_ATOM_COUNT>  (1) 
0

>  <PUBCHEM_COMPONENT_COUNT>  (1) 
1

>  <PUBCHEM_CACTVS_TAUTO_COUNT>  (1) 
4

>  <PUBCHEM_CONFORMER_ID>  (1) 
00002B3000000001

>  <PUBCHEM_MMFF94_ENERGY>  (1) 
70.3723

>  <PUBCHEM_FEATURE_SELFOVERLAP>  (1) 
35.522

>  <PUBCHEM_SHAPE_FINGERPRINT>  (1) 
10366900 7 18411700980317198353
10595046 47 15841549690906908794
10670039 82 18189629263303661564
10906281 52 18261691284877942545
11287383 113 15719396143910641612
11578080 2 17343184543333962745
11646440 116 18202292424203138313
11796584 16 16515401859105014683
11963148 33 18260544558628235819
12011746 2 18410855451538227279
12390115 104 18058181526436276657
12403814 3 17530677714954695383
12553582 1 18410855464439141749
12788726 201 18261107422460004992
13140716 1 18266459999666438514
13533116 47 18337947892896442266
13583140 156 16877666789803411473
13760787 19 16877661283470812842
13862211 1 18410569591405402959
14341114 176 15791735195655688567
14787075 74 17775278404448536048
14790565 3 18338812159747579141
14911166 2 18410574002331320620
15099037 51 18410012160579727343
15196674 1 18338797784485855237
15209294 21 17846506876609047809
15788980 27 17022901259114912643
15848702 151 17131837555490814380
1601671 61 18408604764337492438
16752209 62 18336539430668504176
16945 1 18410855464423129110
17349148 13 18409446990028000012
17834072 33 15502376737780056362
19141452 34 17704351103994920542
19489759 90 15791730798036419197
200 152 18343860009562295549
20028762 73 18057608866168902335
21033648 29 18187908600014409365
21267235 1 18410581686027812878
21641784 216 18042138586851589244
22182313 1 18266740173268058631
2334 1 17906171002979614726
23402539 116 18272365378046030573
23559900 14 18270971245338032668
23569914 152 16832615087040177549
23569943 247 17700710470683113950
26918003 58 17748827414796122145
2748010 2 18122343471560786172
3004659 81 16805317765645236384
314173 85 18272090495797133545
335352 9 18410856581114626503
34797466 226 16371022792507397310
3759504 43 17530969115495754163
404807 14 14902602868713537102
4072396 5 18334564725217965538
4340502 62 16443349762435490202
465052 167 17894639170514296250
5104073 3 18266741466053215097
542803 24 17530684299023404813
7495541 125 17386012813888127397
9971528 1 17846501443628554432

>  <PUBCHEM_SHAPE_MULTIPOLES>  (1) 
429.27
12.42
1.66
1.16
0
0
-0.02
0
-0.11
0
0.01
0
0
0.01

>  <PUBCHEM_SHAPE_SELFOVERLAP>  (1) 
953.635

>  <PUBCHEM_SHAPE_VOLUME>  (1) 
227.5

>  <PUBCHEM_COORDINATE_TYPE>  (1) 
2
5
10

$$$$
