11075
     RDKit          3D

 14 15  0  0  0  0  0  0  0  0999 V2000
   -2.9198    1.1689   -0.0004 O   0  0  0  0  0  0  0  0  0  0  0  0
   -1.1374   -2.4425   -0.0007 O   0  0  0  0  0  0  0  0  0  0  0  0
   -2.9540   -1.2099    0.0004 O   0  0  0  0  0  0  0  0  0  0  0  0
   -1.7092   -1.3303   -0.0001 N   0  0  0  0  0  0  0  0  0  0  0  0
    0.4957   -0.2179    0.0003 C   0  0  0  0  0  0  0  0  0  0  0  0
    1.2484    0.9806    0.0000 C   0  0  0  0  0  0  0  0  0  0  0  0
   -0.9070   -0.1480    0.0004 C   0  0  0  0  0  0  0  0  0  0  0  0
    0.5762    2.2137   -0.0002 C   0  0  0  0  0  0  0  0  0  0  0  0
   -1.5581    1.0858    0.0002 C   0  0  0  0  0  0  0  0  0  0  0  0
    1.1679   -1.4510    0.0002 C   0  0  0  0  0  0  0  0  0  0  0  0
    2.6510    0.9108   -0.0002 C   0  0  0  0  0  0  0  0  0  0  0  0
   -0.8181    2.2645    0.0000 C   0  0  0  0  0  0  0  0  0  0  0  0
    2.5621   -1.5017    0.0001 C   0  0  0  0  0  0  0  0  0  0  0  0
    3.3023   -0.3230   -0.0001 C   0  0  0  0  0  0  0  0  0  0  0  0
  1  9  1  0
  2  4  1  0
  3  4  2  0
  4  7  1  0
  5  6  1  0
  5  7  2  0
  5 10  1  0
  6  8  2  0
  6 11  1  0
  7  9  1  0
  8 12  1  0
  9 12  2  0
 10 13  2  0
 11 14  2  0
 13 14  1  0
M  CHG  2   2  -1   4   1
M  END
>  <PUBCHEM_COMPOUND_CID>  (1) 
11075

>  <PUBCHEM_CONFORMER_RMSD>  (1) 
0.4

>  <PUBCHEM_CONFORMER_DIVERSEORDER>  (1) 
1

>  <PUBCHEM_MMFF94_PARTIAL_CHARGES>  (1) 
19
1 -0.53
10 -0.15
11 -0.15
12 -0.15
13 -0.15
14 -0.15
15 0.15
16 0.15
17 0.15
18 0.15
19 0.15
2 -0.52
20 0.15
21 0.45
3 -0.52
4 0.91
7 0.13
8 -0.15
9 0.08

>  <PUBCHEM_EFFECTIVE_ROTOR_COUNT>  (1) 
1

>  <PUBCHEM_PHARMACOPHORE_FEATURES>  (1) 
6
1 1 donor
1 2 acceptor
1 2 anion
1 3 acceptor
6 5 6 10 11 13 14 rings
6 5 6 7 8 9 12 rings

>  <PUBCHEM_HEAVY_ATOM_COUNT>  (1) 
14

>  <PUBCHEM_ATOM_DEF_STEREO_COUNT>  (1) 
0

>  <PUBCHEM_ATOM_UDEF_STEREO_COUNT>  (1) 
0

>  <PUBCHEM_BOND_DEF_STEREO_COUNT>  (1) 
0

>  <PUBCHEM_BOND_UDEF_STEREO_COUNT>  (1) 
0

>  <PUBCHEM_ISOTOPIC_ATOM_COUNT>  (1) 
0

>  <PUBCHEM_COMPONENT_COUNT>  (1) 
1

>  <PUBCHEM_CACTVS_TAUTO_COUNT>  (1) 
4

>  <PUBCHEM_CONFORMER_ID>  (1) 
00002B4300000001

>  <PUBCHEM_MMFF94_ENERGY>  (1) 
64.1698

>  <PUBCHEM_FEATURE_SELFOVERLAP>  (1) 
30.554

>  <PUBCHEM_SHAPE_FINGERPRINT>  (1) 
10967382 1 18266740173347244358
11132069 177 18411695465964376720
12382932 28 18412539890752038512
12524768 44 18269278962902048222
13140716 1 18338517434827519360
13380535 76 18340763724235307630
14790565 3 15956135635357921921
16945 1 18266740379463437572
193761 8 18266740375147696065
20510252 161 17984417443365830512
20588541 1 18341614750630328788
20871998 184 18201438047401335967
21501502 16 18410576197249636084
22802520 49 17986123906923645174
2334 1 18410855477323861730
23388829 49 18052808432307076236
23402539 116 18198044907278627741
23463225 33 18408604747241908772
23552423 10 18261396684449416300
23559900 14 18342741789747815036
241688 4 18409448102551338448
2748010 2 18411136922241076198
2897 32 17905045854887266732
528886 8 18339355271441394736
54173680 148 18410014291052700858
7364860 26 18126004016537676008
8809292 202 18336270037672135090

>  <PUBCHEM_SHAPE_MULTIPOLES>  (1) 
265.52
4.24
2.52
0.59
0.58
0.02
0
0.73
0
-0.74
0
0.06
-0.03
0

>  <PUBCHEM_SHAPE_SELFOVERLAP>  (1) 
590.403

>  <PUBCHEM_SHAPE_VOLUME>  (1) 
141.8

>  <PUBCHEM_COORDINATE_TYPE>  (1) 
2
5
10

$$$$
