11074
     RDKit          3D

 12 13  0  0  0  0  0  0  0  0999 V2000
   -1.3195    2.3157   -0.0059 O   0  0  0  0  0  0  0  0  0  0  0  0
   -1.3143   -2.3175   -0.0058 O   0  0  0  0  0  0  0  0  0  0  0  0
   -1.7464   -0.0005    0.0016 N   0  0  0  0  0  0  0  0  0  0  0  0
    0.4094    0.6938    0.0000 C   0  0  0  0  0  0  0  0  0  0  0  0
    0.4097   -0.6932    0.0000 C   0  0  0  0  0  0  0  0  0  0  0  0
   -0.9811    1.1467   -0.0027 C   0  0  0  0  0  0  0  0  0  0  0  0
   -0.9807   -1.1472   -0.0027 C   0  0  0  0  0  0  0  0  0  0  0  0
    1.5799    1.4243    0.0008 C   0  0  0  0  0  0  0  0  0  0  0  0
    1.5807   -1.4230    0.0007 C   0  0  0  0  0  0  0  0  0  0  0  0
   -3.1958   -0.0009    0.0099 C   0  0  0  0  0  0  0  0  0  0  0  0
    2.7789    0.7059    0.0022 C   0  0  0  0  0  0  0  0  0  0  0  0
    2.7793   -0.7040    0.0019 C   0  0  0  0  0  0  0  0  0  0  0  0
  1  6  2  0
  2  7  2  0
  3  6  1  0
  3  7  1  0
  3 10  1  0
  4  5  2  0
  4  6  1  0
  4  8  1  0
  5  7  1  0
  5  9  1  0
  8 11  2  0
  9 12  2  0
 11 12  1  0
M  END
>  <PUBCHEM_COMPOUND_CID>  (1) 
11074

>  <PUBCHEM_CONFORMER_RMSD>  (1) 
0.4

>  <PUBCHEM_CONFORMER_DIVERSEORDER>  (1) 
1

>  <PUBCHEM_MMFF94_PARTIAL_CHARGES>  (1) 
16
1 -0.57
10 0.3
11 -0.15
12 -0.15
13 0.15
14 0.15
18 0.15
19 0.15
2 -0.57
3 -0.42
4 0.09
5 0.09
6 0.54
7 0.54
8 -0.15
9 -0.15

>  <PUBCHEM_EFFECTIVE_ROTOR_COUNT>  (1) 
0.2

>  <PUBCHEM_PHARMACOPHORE_FEATURES>  (1) 
4
1 1 acceptor
1 2 acceptor
5 3 4 5 6 7 rings
6 4 5 8 9 11 12 rings

>  <PUBCHEM_HEAVY_ATOM_COUNT>  (1) 
12

>  <PUBCHEM_ATOM_DEF_STEREO_COUNT>  (1) 
0

>  <PUBCHEM_ATOM_UDEF_STEREO_COUNT>  (1) 
0

>  <PUBCHEM_BOND_DEF_STEREO_COUNT>  (1) 
0

>  <PUBCHEM_BOND_UDEF_STEREO_COUNT>  (1) 
0

>  <PUBCHEM_ISOTOPIC_ATOM_COUNT>  (1) 
0

>  <PUBCHEM_COMPONENT_COUNT>  (1) 
1

>  <PUBCHEM_CACTVS_TAUTO_COUNT>  (1) 
1

>  <PUBCHEM_CONFORMER_ID>  (1) 
00002B4200000001

>  <PUBCHEM_MMFF94_ENERGY>  (1) 
27.445

>  <PUBCHEM_FEATURE_SELFOVERLAP>  (1) 
20.39

>  <PUBCHEM_SHAPE_FINGERPRINT>  (1) 
10967382 1 18410574010926529670
11206711 2 18337392617300096525
12423570 1 14019016332134268306
12524768 44 18412549829021635086
12897270 3 18339081591914670332
13380535 76 18411978074538387094
14325111 11 18410573946618357089
16945 1 18410573989646859014
17844478 74 18040724670869259113
20588541 1 18341054094015220786
20871998 184 18201442535721586863
21040471 1 18338797789129073092
21501502 16 18338801096074633904
2334 1 17978228592770074114
23402539 116 18341878680549441679
23402655 69 18341319047044061061
23552423 10 18189054372771249574
23559900 14 18127418852913644102
2748010 2 18123469655067338974
369184 2 18411697694762135898
5084963 1 18130503016096414283
528886 8 18339637953240651018

>  <PUBCHEM_SHAPE_MULTIPOLES>  (1) 
230.23
3.95
2.05
0.59
0.14
0
0
0
0.01
0.4
0
-0.04
0
0

>  <PUBCHEM_SHAPE_SELFOVERLAP>  (1) 
509.422

>  <PUBCHEM_SHAPE_VOLUME>  (1) 
126.8

>  <PUBCHEM_COORDINATE_TYPE>  (1) 
2
5
10

$$$$
