11084
     RDKit          3D

 10 10  0  0  0  0  0  0  0  0999 V2000
    1.3672    1.8943   -0.0004 F   0  0  0  0  0  0  0  0  0  0  0  0
   -1.3671    1.8943    0.0003 F   0  0  0  0  0  0  0  0  0  0  0  0
    2.7341   -0.4738   -0.0001 F   0  0  0  0  0  0  0  0  0  0  0  0
   -2.7342   -0.4735   -0.0005 F   0  0  0  0  0  0  0  0  0  0  0  0
    0.6975    0.7345    0.0002 C   0  0  0  0  0  0  0  0  0  0  0  0
   -0.6974    0.7345    0.0002 C   0  0  0  0  0  0  0  0  0  0  0  0
    1.3949   -0.4736    0.0001 C   0  0  0  0  0  0  0  0  0  0  0  0
   -1.3948   -0.4736    0.0001 C   0  0  0  0  0  0  0  0  0  0  0  0
    0.6973   -1.6816    0.0001 C   0  0  0  0  0  0  0  0  0  0  0  0
   -0.6975   -1.6816    0.0001 C   0  0  0  0  0  0  0  0  0  0  0  0
  1  5  1  0
  2  6  1  0
  3  7  1  0
  4  8  1  0
  5  6  2  0
  5  7  1  0
  6  8  1  0
  7  9  2  0
  8 10  2  0
  9 10  1  0
M  END
>  <PUBCHEM_COMPOUND_CID>  (1) 
11084

>  <PUBCHEM_CONFORMER_RMSD>  (1) 
0.4

>  <PUBCHEM_CONFORMER_DIVERSEORDER>  (1) 
1

>  <PUBCHEM_MMFF94_PARTIAL_CHARGES>  (1) 
12
1 -0.19
10 -0.15
11 0.15
12 0.15
2 -0.19
3 -0.19
4 -0.19
5 0.19
6 0.19
7 0.19
8 0.19
9 -0.15

>  <PUBCHEM_EFFECTIVE_ROTOR_COUNT>  (1) 
0

>  <PUBCHEM_PHARMACOPHORE_FEATURES>  (1) 
1
6 5 6 7 8 9 10 rings

>  <PUBCHEM_HEAVY_ATOM_COUNT>  (1) 
10

>  <PUBCHEM_ATOM_DEF_STEREO_COUNT>  (1) 
0

>  <PUBCHEM_ATOM_UDEF_STEREO_COUNT>  (1) 
0

>  <PUBCHEM_BOND_DEF_STEREO_COUNT>  (1) 
0

>  <PUBCHEM_BOND_UDEF_STEREO_COUNT>  (1) 
0

>  <PUBCHEM_ISOTOPIC_ATOM_COUNT>  (1) 
0

>  <PUBCHEM_COMPONENT_COUNT>  (1) 
1

>  <PUBCHEM_CACTVS_TAUTO_COUNT>  (1) 
1

>  <PUBCHEM_CONFORMER_ID>  (1) 
00002B4C00000001

>  <PUBCHEM_MMFF94_ENERGY>  (1) 
13.3875

>  <PUBCHEM_FEATURE_SELFOVERLAP>  (1) 
5.074

>  <PUBCHEM_SHAPE_FINGERPRINT>  (1) 
11206711 2 18336827498430258869
12423570 1 9259216081571442119
16945 1 18410575088958338534
18185500 45 18122062005179453531
21040471 1 17906452125869285860
23552423 10 18044937024342759022
241688 4 17978795605783890626
2748010 2 18122627424744487807
29004967 10 18408328769575670731
5084963 1 18130788957812829962

>  <PUBCHEM_SHAPE_MULTIPOLES>  (1) 
176.7
2.66
1.97
0.57
0
0.34
0
-0.12
0
0
0
0
-0.04
0

>  <PUBCHEM_SHAPE_SELFOVERLAP>  (1) 
377.243

>  <PUBCHEM_SHAPE_VOLUME>  (1) 
98

>  <PUBCHEM_COORDINATE_TYPE>  (1) 
2
5
10

$$$$
