11085
     RDKit          3D

 11 11  0  0  0  0  0  0  0  0999 V2000
   -0.0626    2.8763   -0.0003 Cl  0  0  0  0  0  0  0  0  0  0  0  0
   -2.6163   -1.9281   -0.0004 Cl  0  0  0  0  0  0  0  0  0  0  0  0
    2.7465   -1.7607   -0.0003 Cl  0  0  0  0  0  0  0  0  0  0  0  0
    2.3683    1.1948    0.0001 O   0  0  0  0  0  0  0  0  0  0  0  0
   -1.2116    0.4117   -0.0004 C   0  0  0  0  0  0  0  0  0  0  0  0
   -0.0244    1.1441   -0.0002 C   0  0  0  0  0  0  0  0  0  0  0  0
   -1.1711   -0.9825    0.0000 C   0  0  0  0  0  0  0  0  0  0  0  0
    1.2035    0.4821    0.0002 C   0  0  0  0  0  0  0  0  0  0  0  0
    0.0566   -1.6445    0.0003 C   0  0  0  0  0  0  0  0  0  0  0  0
   -2.5328    1.1192    0.0006 C   0  0  0  0  0  0  0  0  0  0  0  0
    1.2439   -0.9123    0.0004 C   0  0  0  0  0  0  0  0  0  0  0  0
  1  6  1  0
  2  7  1  0
  3 11  1  0
  4  8  1  0
  5  6  2  0
  5  7  1  0
  5 10  1  0
  6  8  1  0
  7  9  2  0
  8 11  2  0
  9 11  1  0
M  END
>  <PUBCHEM_COMPOUND_CID>  (1) 
11085

>  <PUBCHEM_CONFORMER_RMSD>  (1) 
0.4

>  <PUBCHEM_CONFORMER_DIVERSEORDER>  (1) 
1

>  <PUBCHEM_MMFF94_PARTIAL_CHARGES>  (1) 
13
1 -0.18
10 0.14
11 0.18
12 0.15
16 0.45
2 -0.18
3 -0.18
4 -0.53
5 -0.14
6 0.18
7 0.18
8 0.08
9 -0.15

>  <PUBCHEM_EFFECTIVE_ROTOR_COUNT>  (1) 
0

>  <PUBCHEM_PHARMACOPHORE_FEATURES>  (1) 
2
1 4 donor
6 5 6 7 8 9 11 rings

>  <PUBCHEM_HEAVY_ATOM_COUNT>  (1) 
11

>  <PUBCHEM_ATOM_DEF_STEREO_COUNT>  (1) 
0

>  <PUBCHEM_ATOM_UDEF_STEREO_COUNT>  (1) 
0

>  <PUBCHEM_BOND_DEF_STEREO_COUNT>  (1) 
0

>  <PUBCHEM_BOND_UDEF_STEREO_COUNT>  (1) 
0

>  <PUBCHEM_ISOTOPIC_ATOM_COUNT>  (1) 
0

>  <PUBCHEM_COMPONENT_COUNT>  (1) 
1

>  <PUBCHEM_CACTVS_TAUTO_COUNT>  (1) 
6

>  <PUBCHEM_CONFORMER_ID>  (1) 
00002B4D00000001

>  <PUBCHEM_MMFF94_ENERGY>  (1) 
27.1288

>  <PUBCHEM_FEATURE_SELFOVERLAP>  (1) 
10.148

>  <PUBCHEM_SHAPE_FINGERPRINT>  (1) 
11206711 2 18264772249602756045
12423570 1 11898728348465101248
16945 1 18122343484466968710
193761 8 18410856602710872773
20588541 1 18126007053000290071
20871998 184 18201434714517647014
21040471 1 18410573972335296421
21501502 16 18410576197086209719
2334 1 18410574023816966151
23526114 1 18411139160051166086
23552423 10 18261115183660794774
23559900 14 17479174160229609958
241688 4 18410009914227442163
2748010 2 18411697694625128838
5084963 1 17842548544333038481
66348 1 18411699898011897365

>  <PUBCHEM_SHAPE_MULTIPOLES>  (1) 
226.11
3.53
2.88
0.62
0.7
1.03
0
-1.45
0
-0.6
0
-0.02
-0.01
0

>  <PUBCHEM_SHAPE_SELFOVERLAP>  (1) 
447.212

>  <PUBCHEM_SHAPE_VOLUME>  (1) 
138.6

>  <PUBCHEM_COORDINATE_TYPE>  (1) 
2
5
10

$$$$
