11089
     RDKit          3D

 14 15  0  0  0  0  0  0  0  0999 V2000
   -2.8459   -0.5629    0.0002 O   0  0  0  0  0  0  0  0  0  0  0  0
   -1.7841   -2.6233    0.0002 O   0  0  0  0  0  0  0  0  0  0  0  0
   -3.2299    1.7227    0.0015 O   0  0  0  0  0  0  0  0  0  0  0  0
    3.3363   -1.4293    0.0011 O   0  0  0  0  0  0  0  0  0  0  0  0
    3.9684    0.7541    0.0008 O   0  0  0  0  0  0  0  0  0  0  0  0
   -0.6132   -0.5428   -0.0006 C   0  0  0  0  0  0  0  0  0  0  0  0
   -1.0460    0.7582   -0.0004 C   0  0  0  0  0  0  0  0  0  0  0  0
    0.7289   -0.8678   -0.0008 C   0  0  0  0  0  0  0  0  0  0  0  0
    1.6437    0.1886   -0.0007 C   0  0  0  0  0  0  0  0  0  0  0  0
   -0.1659    1.8224   -0.0005 C   0  0  0  0  0  0  0  0  0  0  0  0
    1.1994    1.5246   -0.0007 C   0  0  0  0  0  0  0  0  0  0  0  0
   -1.7704   -1.4095   -0.0003 C   0  0  0  0  0  0  0  0  0  0  0  0
   -2.4918    0.7591    0.0000 C   0  0  0  0  0  0  0  0  0  0  0  0
    3.0705   -0.0943    0.0001 C   0  0  0  0  0  0  0  0  0  0  0  0
  1 12  1  0
  1 13  1  0
  2 12  2  0
  3 13  2  0
  4 14  1  0
  5 14  2  0
  6  7  2  0
  6  8  1  0
  6 12  1  0
  7 10  1  0
  7 13  1  0
  8  9  2  0
  9 11  1  0
  9 14  1  0
 10 11  2  0
M  END
>  <PUBCHEM_COMPOUND_CID>  (1) 
11089

>  <PUBCHEM_CONFORMER_RMSD>  (1) 
0.4

>  <PUBCHEM_CONFORMER_DIVERSEORDER>  (1) 
1
2

>  <PUBCHEM_MMFF94_PARTIAL_CHARGES>  (1) 
18
1 -0.3
10 -0.15
11 -0.15
12 0.63
13 0.63
14 0.63
15 0.15
16 0.15
17 0.15
18 0.5
2 -0.57
3 -0.57
4 -0.65
5 -0.57
6 0.09
7 0.09
8 -0.15
9 0.09

>  <PUBCHEM_EFFECTIVE_ROTOR_COUNT>  (1) 
1.2

>  <PUBCHEM_PHARMACOPHORE_FEATURES>  (1) 
7
1 2 acceptor
1 3 acceptor
1 4 acceptor
1 5 acceptor
3 4 5 14 anion
5 1 6 7 12 13 rings
6 6 7 8 9 10 11 rings

>  <PUBCHEM_HEAVY_ATOM_COUNT>  (1) 
14

>  <PUBCHEM_ATOM_DEF_STEREO_COUNT>  (1) 
0

>  <PUBCHEM_ATOM_UDEF_STEREO_COUNT>  (1) 
0

>  <PUBCHEM_BOND_DEF_STEREO_COUNT>  (1) 
0

>  <PUBCHEM_BOND_UDEF_STEREO_COUNT>  (1) 
0

>  <PUBCHEM_ISOTOPIC_ATOM_COUNT>  (1) 
0

>  <PUBCHEM_COMPONENT_COUNT>  (1) 
1

>  <PUBCHEM_CACTVS_TAUTO_COUNT>  (1) 
1

>  <PUBCHEM_CONFORMER_ID>  (1) 
00002B5100000001

>  <PUBCHEM_MMFF94_ENERGY>  (1) 
37.2964

>  <PUBCHEM_FEATURE_SELFOVERLAP>  (1) 
35.678

>  <PUBCHEM_SHAPE_FINGERPRINT>  (1) 
10608611 8 18341326777484442744
10967382 1 18266741285701524038
11132069 177 18410849950144213024
12032990 46 18410018727489881171
12382932 28 18413109446280680474
13024252 1 15285357319170919941
13214271 11 18271517697915881404
13380535 76 18342174406401947455
14144814 61 18410011031050788226
14325111 11 18410575072047377760
15669948 3 18411414038090050254
16945 1 18410575114875711941
193761 8 18122344850477727809
20510252 161 18272373040326040409
20588541 1 18341897333581910388
20645476 183 17896343387873300222
20871998 184 18201442527268776359
21267235 1 18410020939577672482
21501502 16 18265338497838047581
2334 1 18194683897885544196
23402539 116 18199737073012114077
23402655 69 18196918986868211333
23463225 33 18408603626360991566
23552423 10 18117278274900058156
23559900 14 18342455907981671134
2748010 2 18267861868407433149
3312278 4 18411985788563089584
528886 8 18411412878253552225
53812653 166 18341609287310726121
6333449 129 18411979161212312901
69090 78 18412821370187129615
7364860 26 18052819440314076264
75552 356 18411700997475948444
8809292 202 18409172086741915274

>  <PUBCHEM_SHAPE_MULTIPOLES>  (1) 
258.77
5.33
2.09
0.58
2.99
0.49
0
0.01
0
-1.03
0
0
-0.02
0

>  <PUBCHEM_SHAPE_SELFOVERLAP>  (1) 
580.218

>  <PUBCHEM_SHAPE_VOLUME>  (1) 
138.7

>  <PUBCHEM_COORDINATE_TYPE>  (1) 
2
5
10

$$$$
