11093
     RDKit          3D

  9  9  0  0  0  0  0  0  0  0999 V2000
    2.8516    0.6561   -0.8454 Cl  0  0  0  0  0  0  0  0  0  0  0  0
    0.4464    0.2946    0.3141 C   0  0  0  0  0  0  0  0  0  0  0  0
   -0.1144   -0.9595    0.0717 C   0  0  0  0  0  0  0  0  0  0  0  0
   -0.3506    1.4379    0.2557 C   0  0  0  0  0  0  0  0  0  0  0  0
   -1.4720   -1.0700   -0.2291 C   0  0  0  0  0  0  0  0  0  0  0  0
    1.8972    0.4379    0.6380 C   0  0  0  0  0  0  0  0  0  0  0  0
    0.7188   -2.1979    0.1276 C   0  0  0  0  0  0  0  0  0  0  0  0
   -1.7082    1.3274   -0.0450 C   0  0  0  0  0  0  0  0  0  0  0  0
   -2.2688    0.0734   -0.2874 C   0  0  0  0  0  0  0  0  0  0  0  0
  1  6  1  0
  2  3  2  0
  2  4  1  0
  2  6  1  0
  3  5  1  0
  3  7  1  0
  4  8  2  0
  5  9  2  0
  8  9  1  0
M  END
>  <PUBCHEM_COMPOUND_CID>  (1) 
11093

>  <PUBCHEM_CONFORMER_RMSD>  (1) 
0.4

>  <PUBCHEM_CONFORMER_DIVERSEORDER>  (1) 
2
1
3

>  <PUBCHEM_MMFF94_PARTIAL_CHARGES>  (1) 
13
1 -0.29
10 0.15
11 0.15
17 0.15
18 0.15
2 -0.14
3 -0.14
4 -0.15
5 -0.15
6 0.43
7 0.14
8 -0.15
9 -0.15

>  <PUBCHEM_EFFECTIVE_ROTOR_COUNT>  (1) 
1

>  <PUBCHEM_PHARMACOPHORE_FEATURES>  (1) 
1
6 2 3 4 5 8 9 rings

>  <PUBCHEM_HEAVY_ATOM_COUNT>  (1) 
9

>  <PUBCHEM_ATOM_DEF_STEREO_COUNT>  (1) 
0

>  <PUBCHEM_ATOM_UDEF_STEREO_COUNT>  (1) 
0

>  <PUBCHEM_BOND_DEF_STEREO_COUNT>  (1) 
0

>  <PUBCHEM_BOND_UDEF_STEREO_COUNT>  (1) 
0

>  <PUBCHEM_ISOTOPIC_ATOM_COUNT>  (1) 
0

>  <PUBCHEM_COMPONENT_COUNT>  (1) 
1

>  <PUBCHEM_CACTVS_TAUTO_COUNT>  (1) 
1

>  <PUBCHEM_CONFORMER_ID>  (1) 
00002B5500000002

>  <PUBCHEM_MMFF94_ENERGY>  (1) 
20.9996

>  <PUBCHEM_FEATURE_SELFOVERLAP>  (1) 
5.074

>  <PUBCHEM_SHAPE_FINGERPRINT>  (1) 
12423570 1 14161978137192617801
12716758 59 18339929332796989988
12897270 3 18411416219695936460
16714656 1 18338800133859437364
16945 1 18412536630845467353
20645464 45 17916571185131081888
21040471 1 18339914939855185561
23235685 24 18408039619608375021
23552423 10 18191866729988643931
241688 4 16036054019641926867
2748010 2 17906439288507378815
5084963 1 18059015102236229416

>  <PUBCHEM_SHAPE_MULTIPOLES>  (1) 
187.09
3.21
1.88
0.79
1.27
0.78
0.04
-0.9
0.76
-0.09
-0.07
0.3
-0.07
-0.17

>  <PUBCHEM_SHAPE_SELFOVERLAP>  (1) 
373.678

>  <PUBCHEM_SHAPE_VOLUME>  (1) 
108.7

>  <PUBCHEM_COORDINATE_TYPE>  (1) 
2
5
10

$$$$
