11106
     RDKit          3D

 19 21  0  0  0  0  0  0  0  0999 V2000
    4.5982   -0.5546   -0.0196 N   0  0  0  0  0  0  0  0  0  0  0  0
   -0.1693   -1.1494   -0.0604 N   0  0  0  0  0  0  0  0  0  0  0  0
   -0.5266    1.5780    0.0801 N   0  0  0  0  0  0  0  0  0  0  0  0
   -4.9199   -1.8141   -0.1052 N   0  0  0  0  0  0  0  0  0  0  0  0
    0.8917   -0.3283   -0.0153 C   0  0  0  0  0  0  0  0  0  0  0  0
   -1.5877    0.7568    0.0350 C   0  0  0  0  0  0  0  0  0  0  0  0
    0.7102    1.0568    0.0560 C   0  0  0  0  0  0  0  0  0  0  0  0
   -1.4063   -0.6281   -0.0365 C   0  0  0  0  0  0  0  0  0  0  0  0
    3.2997   -0.0079    0.0072 C   0  0  0  0  0  0  0  0  0  0  0  0
    2.1858   -0.8441   -0.0389 C   0  0  0  0  0  0  0  0  0  0  0  0
   -3.9957    0.4366    0.0126 C   0  0  0  0  0  0  0  0  0  0  0  0
   -2.8818    1.2727    0.0586 C   0  0  0  0  0  0  0  0  0  0  0  0
   -3.8159   -0.9367   -0.0584 C   0  0  0  0  0  0  0  0  0  0  0  0
   -2.5240   -1.4588   -0.0823 C   0  0  0  0  0  0  0  0  0  0  0  0
    1.8279    1.8874    0.1018 C   0  0  0  0  0  0  0  0  0  0  0  0
    3.1198    1.3653    0.0778 C   0  0  0  0  0  0  0  0  0  0  0  0
   -5.3603    1.0425    0.0417 C   0  0  0  0  0  0  0  0  0  0  0  0
    5.6968    0.1883   -0.6056 C   0  0  0  0  0  0  0  0  0  0  0  0
    4.8572   -1.8623    0.5512 C   0  0  0  0  0  0  0  0  0  0  0  0
  1  9  1  0
  1 18  1  0
  1 19  1  0
  2  5  2  0
  2  8  1  0
  3  6  1  0
  3  7  2  0
  4 13  1  0
  5  7  1  0
  5 10  1  0
  6  8  2  0
  6 12  1  0
  7 15  1  0
  8 14  1  0
  9 10  2  0
  9 16  1  0
 11 12  2  0
 11 13  1  0
 11 17  1  0
 13 14  2  0
 15 16  2  0
M  END
>  <PUBCHEM_COMPOUND_CID>  (1) 
11106

>  <PUBCHEM_CONFORMER_RMSD>  (1) 
0.6

>  <PUBCHEM_CONFORMER_DIVERSEORDER>  (1) 
1

>  <PUBCHEM_MMFF94_PARTIAL_CHARGES>  (1) 
26
1 -0.84
10 -0.15
11 -0.14
12 -0.15
13 0.1
14 -0.15
15 -0.15
16 -0.15
17 0.14
18 0.37
19 0.37
2 -0.62
20 0.15
21 0.15
22 0.15
23 0.15
24 0.15
3 -0.62
34 0.4
35 0.4
4 -0.9
5 0.31
6 0.31
7 0.31
8 0.31
9 0.1

>  <PUBCHEM_EFFECTIVE_ROTOR_COUNT>  (1) 
1

>  <PUBCHEM_PHARMACOPHORE_FEATURES>  (1) 
8
1 1 cation
1 2 acceptor
1 3 acceptor
1 4 cation
1 4 donor
6 2 3 5 6 7 8 rings
6 5 7 9 10 15 16 rings
6 6 8 11 12 13 14 rings

>  <PUBCHEM_HEAVY_ATOM_COUNT>  (1) 
19

>  <PUBCHEM_ATOM_DEF_STEREO_COUNT>  (1) 
0

>  <PUBCHEM_ATOM_UDEF_STEREO_COUNT>  (1) 
0

>  <PUBCHEM_BOND_DEF_STEREO_COUNT>  (1) 
0

>  <PUBCHEM_BOND_UDEF_STEREO_COUNT>  (1) 
0

>  <PUBCHEM_ISOTOPIC_ATOM_COUNT>  (1) 
0

>  <PUBCHEM_COMPONENT_COUNT>  (1) 
1

>  <PUBCHEM_CACTVS_TAUTO_COUNT>  (1) 
3

>  <PUBCHEM_CONFORMER_ID>  (1) 
00002B6200000001

>  <PUBCHEM_MMFF94_ENERGY>  (1) 
85.4746

>  <PUBCHEM_FEATURE_SELFOVERLAP>  (1) 
40.672

>  <PUBCHEM_SHAPE_FINGERPRINT>  (1) 
10062212 137 18342731931896095871
11315181 36 18131074835589974592
12032990 46 18411138060465568217
12107183 9 17688306790025673882
12236239 1 18113620079903742990
12403259 226 18410847785222797961
12403259 415 18409157814302210365
13167823 11 18409164415666548010
13288520 33 18413110549929000428
13675066 3 18060132167521925216
13690532 89 18410292497590564464
13862211 1 18411976957788926334
14115302 16 17821740441744476870
14251731 8 18410012121914569557
14251764 18 18413674617233340705
15099037 51 18412544297177442015
15196674 1 18411418444668330713
15536298 74 18342736364334026320
15788980 27 18259988171336128617
17804303 29 18413672426151387473
17834072 33 18408606989436461500
1813 80 17385720301241046996
18186145 218 17749380499003987857
19141452 34 18341894095535304415
200 152 18131349721891518131
20374829 77 18409727352618691536
20645477 70 18412546526772026774
21267235 1 18339087081094195879
21452121 103 18129088087014682504
221490 88 18263650738920283648
23175994 123 17132115736196025753
23402539 116 18343577443468505335
23522609 53 18121813653117942197
23559900 14 18342733052840596152
26918003 58 18202562860982184825
3004659 81 18188212005864013190
335352 9 18411418380539298725
350125 39 18410295800273254677
3545911 37 18412265021799025653
4214541 1 18411419514305065477
4463277 17 18411139143266896692
465052 167 18343025518807389878
4921388 177 16081380695023043643
5104073 3 18341332275047454425
542803 24 17385445427275414662
559249 180 18409725132300389339
633830 44 17385722529954591689
77779 3 18410012164890609641
8809292 202 18334016128760410867
9709674 26 18264208191553150731
9981440 41 17326894479029635568

>  <PUBCHEM_SHAPE_MULTIPOLES>  (1) 
371.09
11.64
1.89
0.64
2.2
0.08
0
2.4
0.43
-0.15
-0.11
0.2
0.02
-0.37

>  <PUBCHEM_SHAPE_SELFOVERLAP>  (1) 
823.169

>  <PUBCHEM_SHAPE_VOLUME>  (1) 
199.5

>  <PUBCHEM_COORDINATE_TYPE>  (1) 
2
5
10

$$$$
