11115
     RDKit          3D

 17 17  0  0  0  0  0  0  0  0999 V2000
    0.1575   -0.0890   -0.1714 O   0  0  0  0  0  0  0  0  0  0  0  0
    1.2162   -2.0463   -0.7610 O   0  0  0  0  0  0  0  0  0  0  0  0
   -3.5175   -0.2677   -0.2199 N   0  0  0  0  0  0  0  0  0  0  0  0
    5.9704   -0.7623    0.8605 N   0  0  0  0  0  0  0  0  0  0  0  0
   -5.9745    0.1239   -0.0787 C   0  0  0  0  0  0  0  0  0  0  0  0
   -4.5608    0.7196    0.0366 C   0  0  0  0  0  0  0  0  0  0  0  0
   -6.1237   -1.0452    0.8986 C   0  0  0  0  0  0  0  0  0  0  0  0
   -7.0713    1.1586    0.1858 C   0  0  0  0  0  0  0  0  0  0  0  0
   -2.1962    0.3152   -0.0363 C   0  0  0  0  0  0  0  0  0  0  0  0
   -1.1119   -0.7044   -0.3467 C   0  0  0  0  0  0  0  0  0  0  0  0
    2.5008   -0.1194   -0.1935 C   0  0  0  0  0  0  0  0  0  0  0  0
    1.2422   -0.8761   -0.4126 C   0  0  0  0  0  0  0  0  0  0  0  0
    3.6247   -0.8006    0.2273 C   0  0  0  0  0  0  0  0  0  0  0  0
    2.5077    1.2421   -0.4185 C   0  0  0  0  0  0  0  0  0  0  0  0
    4.8071   -0.0893    0.4320 C   0  0  0  0  0  0  0  0  0  0  0  0
    3.6899    1.9533   -0.2137 C   0  0  0  0  0  0  0  0  0  0  0  0
    4.8396    1.2877    0.2114 C   0  0  0  0  0  0  0  0  0  0  0  0
  1 10  1  0
  1 12  1  0
  2 12  2  0
  3  6  1  0
  3  9  1  0
  4 15  1  0
  5  6  1  0
  5  7  1  0
  5  8  1  0
  9 10  1  0
 11 12  1  0
 11 13  2  0
 11 14  1  0
 13 15  1  0
 14 16  2  0
 15 17  2  0
 16 17  1  0
M  END
>  <PUBCHEM_COMPOUND_CID>  (1) 
11115

>  <PUBCHEM_CONFORMER_RMSD>  (1) 
0.8

>  <PUBCHEM_CONFORMER_DIVERSEORDER>  (1) 
1
50
124
13
131
30
116
92
171
110
99
113
172
37
64
130
109
135
120
14
44
119
168
46
100
147
89
156
25
114
47
31
140
96
150
166
107
125
33
59
27
138
66
161
65
93
122
173
159
12
2
167
21
181
112
176
134
80
121
98
15
105
137
95
128
104
58
127
52
178
91
55
77
158
48
154
152
6
162
123
101
87
34
28
117
133
170
155
139
63
62
54
151
45
4
35
78
84
177
160
94
16
75
19
97
106
40
22
142
79
115
175
38
148
42
102
57
68
149
11
136
67
76
165
141
8
126
3
85
118
132
56
7
103
174
86
164
18
169
36
74
180
24
26
39
88
111
82
43
146
10
72
41
5
71
163
153
9
144
108
129
61
17
83
145
69
53
70
73
20
90
51
49
32
60
179
157
23
29
81
143

>  <PUBCHEM_MMFF94_PARTIAL_CHARGES>  (1) 
21
1 -0.43
10 0.28
11 0.09
12 0.63
13 -0.15
14 -0.15
15 0.1
16 -0.15
17 -0.15
2 -0.57
21 0.36
3 -0.9
32 0.15
33 0.15
34 0.15
35 0.15
36 0.4
37 0.4
4 -0.9
6 0.27
9 0.27

>  <PUBCHEM_EFFECTIVE_ROTOR_COUNT>  (1) 
7

>  <PUBCHEM_PHARMACOPHORE_FEATURES>  (1) 
7
1 2 acceptor
1 3 cation
1 3 donor
1 4 cation
1 4 donor
3 5 7 8 hydrophobe
6 11 13 14 15 16 17 rings

>  <PUBCHEM_HEAVY_ATOM_COUNT>  (1) 
17

>  <PUBCHEM_ATOM_DEF_STEREO_COUNT>  (1) 
0

>  <PUBCHEM_ATOM_UDEF_STEREO_COUNT>  (1) 
0

>  <PUBCHEM_BOND_DEF_STEREO_COUNT>  (1) 
0

>  <PUBCHEM_BOND_UDEF_STEREO_COUNT>  (1) 
0

>  <PUBCHEM_ISOTOPIC_ATOM_COUNT>  (1) 
0

>  <PUBCHEM_COMPONENT_COUNT>  (1) 
1

>  <PUBCHEM_CACTVS_TAUTO_COUNT>  (1) 
1

>  <PUBCHEM_CONFORMER_ID>  (1) 
00002B6B00000001

>  <PUBCHEM_MMFF94_ENERGY>  (1) 
39.8277

>  <PUBCHEM_FEATURE_SELFOVERLAP>  (1) 
35.521

>  <PUBCHEM_SHAPE_FINGERPRINT>  (1) 
10354089 29 18407759240175184056
10688039 33 17821726113486346772
11287383 113 18335423486970243659
11724838 91 18337389460435680791
12236239 1 18060415832979455775
12516196 113 11169913891997130055
12596602 18 18040999570346206553
12616971 3 18343013423851995205
12714333 28 15123788491783922602
13167372 99 18341333301671744689
13533116 47 17385997322014834210
13668630 136 12901551230608791649
1420 363 18040720272965166323
14251718 22 11527947859376413395
14251732 16 18335705000723063755
14251764 18 18261107504744325824
14341114 176 18040435499021198644
15183329 4 9079126544589208983
15348495 7 17822017561872341017
15475509 35 16443887403127922464
17834076 25 17561362881383809135
18222031 100 13912321295822748614
19433438 28 17821442452597544245
19489759 90 16515400760268729829
21150785 3 13901899013014736289
21267235 1 18335983074412775394
212847 35 18272650177617838392
21315763 129 18333449837808035197
2215653 11 9151174230005690169
23402539 116 18187079572942440463
2767999 5 17704352169537121753
300161 21 17418088802792449391
351380 180 18187365436990709609
351380 3 11891332062752300321
3545911 37 18342177764929118910
42630746 31 18202004304875448014
42788 4 18409166615058750309
4325135 7 18272366499744723023
4340502 62 18113621179452723123
465052 167 18186518791984602266
5104073 3 18263351659416147490

>  <PUBCHEM_SHAPE_MULTIPOLES>  (1) 
328.15
17.83
1.56
0.76
23.08
0.16
-0.04
3.14
-4.32
-0.99
0.12
-0.06
-0.12
0.03

>  <PUBCHEM_SHAPE_SELFOVERLAP>  (1) 
658.405

>  <PUBCHEM_SHAPE_VOLUME>  (1) 
194.1

>  <PUBCHEM_COORDINATE_TYPE>  (1) 
2
5
10

$$$$
