11112
     RDKit          3D

 10 10  0  0  0  0  0  0  0  0999 V2000
   -1.8157    1.4487    0.4170 O   0  0  0  0  0  0  0  0  0  0  0  0
   -2.1410   -0.7532   -0.2375 N   0  0  0  0  0  0  0  0  0  0  0  0
    1.9846   -1.3578    0.1813 N   0  0  0  0  0  0  0  0  0  0  0  0
   -3.5174   -0.6336   -0.2230 N   0  0  0  0  0  0  0  0  0  0  0  0
    0.0978    0.1473    0.0407 C   0  0  0  0  0  0  0  0  0  0  0  0
    0.9572    1.2139   -0.1982 C   0  0  0  0  0  0  0  0  0  0  0  0
   -1.3403    0.3426    0.0980 C   0  0  0  0  0  0  0  0  0  0  0  0
    0.6566   -1.1076    0.2222 C   0  0  0  0  0  0  0  0  0  0  0  0
    2.3297    0.9963   -0.2476 C   0  0  0  0  0  0  0  0  0  0  0  0
    2.7886   -0.2966   -0.0530 C   0  0  0  0  0  0  0  0  0  0  0  0
  1  7  2  0
  2  4  1  0
  2  7  1  0
  3  8  2  0
  3 10  1  0
  5  6  2  0
  5  7  1  0
  5  8  1  0
  6  9  1  0
  9 10  2  0
M  END
>  <PUBCHEM_COMPOUND_CID>  (1) 
11112

>  <PUBCHEM_CONFORMER_RMSD>  (1) 
0.4

>  <PUBCHEM_CONFORMER_DIVERSEORDER>  (1) 
1
6
4
5
2
3

>  <PUBCHEM_MMFF94_PARTIAL_CHARGES>  (1) 
17
1 -0.57
10 0.16
11 0.15
12 0.15
13 0.15
14 0.15
15 0.37
16 0.36
17 0.36
2 -0.42
3 -0.62
4 -0.73
5 0.09
6 -0.15
7 0.54
8 0.16
9 -0.15

>  <PUBCHEM_EFFECTIVE_ROTOR_COUNT>  (1) 
2

>  <PUBCHEM_PHARMACOPHORE_FEATURES>  (1) 
5
1 1 acceptor
1 2 donor
1 3 acceptor
1 4 donor
6 3 5 6 8 9 10 rings

>  <PUBCHEM_HEAVY_ATOM_COUNT>  (1) 
10

>  <PUBCHEM_ATOM_DEF_STEREO_COUNT>  (1) 
0

>  <PUBCHEM_ATOM_UDEF_STEREO_COUNT>  (1) 
0

>  <PUBCHEM_BOND_DEF_STEREO_COUNT>  (1) 
0

>  <PUBCHEM_BOND_UDEF_STEREO_COUNT>  (1) 
0

>  <PUBCHEM_ISOTOPIC_ATOM_COUNT>  (1) 
0

>  <PUBCHEM_COMPONENT_COUNT>  (1) 
1

>  <PUBCHEM_CACTVS_TAUTO_COUNT>  (1) 
2

>  <PUBCHEM_CONFORMER_ID>  (1) 
00002B6800000001

>  <PUBCHEM_MMFF94_ENERGY>  (1) 
26.0996

>  <PUBCHEM_FEATURE_SELFOVERLAP>  (1) 
26.877

>  <PUBCHEM_SHAPE_FINGERPRINT>  (1) 
12897270 3 18409166649065021927
14128692 85 18341335509126159422
14325111 11 18410294717830349524
16945 1 18337399339087230242
20201158 50 18261391173943247475
20653091 64 18334292042039101968
21040471 1 18336552724040366312
23402655 69 18409720743265598605
23552423 10 18334580092347043846
29004967 10 17968386654063618368
5084963 1 18334574650702698564

>  <PUBCHEM_SHAPE_MULTIPOLES>  (1) 
184.98
4.4
1.42
0.62
2.29
0.08
0
-0.59
0.35
-0.26
-0.07
-0.01
0.03
-0.3

>  <PUBCHEM_SHAPE_SELFOVERLAP>  (1) 
383.545

>  <PUBCHEM_SHAPE_VOLUME>  (1) 
104.7

>  <PUBCHEM_COORDINATE_TYPE>  (1) 
2
5
10

$$$$
