11139
     RDKit          3D

 14 14  0  0  1  0  0  0  0  0999 V2000
    1.4784    0.1988    1.8761 O   0  0  0  0  0  0  0  0  0  0  0  0
   -2.8450   -2.0861    0.1842 O   0  0  0  0  0  0  0  0  0  0  0  0
   -4.2702    0.1849   -0.5496 O   0  0  0  0  0  0  0  0  0  0  0  0
    3.5001   -0.3017   -0.1176 N   0  0  0  0  0  0  0  0  0  0  0  0
    1.2629    0.5309    0.5051 C   0  0  0  0  0  0  0  0  0  0  0  0
    2.0694   -0.4064   -0.4021 C   0  0  0  0  0  0  0  0  0  0  0  0
   -0.2203    0.4345    0.2228 C   0  0  0  0  0  0  0  0  0  0  0  0
   -0.8515   -0.7923    0.3349 C   0  0  0  0  0  0  0  0  0  0  0  0
   -0.9144    1.5754   -0.1414 C   0  0  0  0  0  0  0  0  0  0  0  0
    3.9727    1.0593   -0.3682 C   0  0  0  0  0  0  0  0  0  0  0  0
    4.2533   -1.2611   -0.9246 C   0  0  0  0  0  0  0  0  0  0  0  0
   -2.2191   -0.8811    0.0751 C   0  0  0  0  0  0  0  0  0  0  0  0
   -2.2819    1.4866   -0.4015 C   0  0  0  0  0  0  0  0  0  0  0  0
   -2.9344    0.2585   -0.2932 C   0  0  0  0  0  0  0  0  0  0  0  0
  1  5  1  0
  2 12  1  0
  3 14  1  0
  4  6  1  0
  4 10  1  0
  4 11  1  0
  5  6  1  0
  5  7  1  0
  7  8  2  0
  7  9  1  0
  8 12  1  0
  9 13  2  0
 12 14  2  0
 13 14  1  0
M  END
>  <PUBCHEM_COMPOUND_CID>  (1) 
11139

>  <PUBCHEM_CONFORMER_RMSD>  (1) 
0.6

>  <PUBCHEM_CONFORMER_DIVERSEORDER>  (1) 
1
13
9
3
12
5
8
14
4
6
7
11
2
10

>  <PUBCHEM_MMFF94_PARTIAL_CHARGES>  (1) 
20
1 -0.68
10 0.27
11 0.27
12 0.08
13 -0.15
14 0.08
18 0.15
19 0.15
2 -0.53
26 0.15
27 0.4
28 0.45
29 0.45
3 -0.53
4 -0.81
5 0.42
6 0.27
7 -0.14
8 -0.15
9 -0.15

>  <PUBCHEM_EFFECTIVE_ROTOR_COUNT>  (1) 
3

>  <PUBCHEM_PHARMACOPHORE_FEATURES>  (1) 
6
1 1 acceptor
1 1 donor
1 2 donor
1 3 donor
1 4 cation
6 7 8 9 12 13 14 rings

>  <PUBCHEM_HEAVY_ATOM_COUNT>  (1) 
14

>  <PUBCHEM_ATOM_DEF_STEREO_COUNT>  (1) 
0

>  <PUBCHEM_ATOM_UDEF_STEREO_COUNT>  (1) 
1

>  <PUBCHEM_BOND_DEF_STEREO_COUNT>  (1) 
0

>  <PUBCHEM_BOND_UDEF_STEREO_COUNT>  (1) 
0

>  <PUBCHEM_ISOTOPIC_ATOM_COUNT>  (1) 
0

>  <PUBCHEM_COMPONENT_COUNT>  (1) 
1

>  <PUBCHEM_CACTVS_TAUTO_COUNT>  (1) 
10

>  <PUBCHEM_CONFORMER_ID>  (1) 
00002B8300000001

>  <PUBCHEM_MMFF94_ENERGY>  (1) 
38.1418

>  <PUBCHEM_FEATURE_SELFOVERLAP>  (1) 
30.45

>  <PUBCHEM_SHAPE_FINGERPRINT>  (1) 
11543360 7 18334306391783307260
12032990 46 18411703227007197171
12186901 62 18261111816490694637
12932764 1 17458334234766089205
13024252 1 16298392357607031921
13296908 3 18342179977164284878
14911166 2 18335692845981472989
14993402 34 17894628132706879757
15219456 202 18129936900942214400
15669948 3 18260535736838086491
15775835 57 17022899029963524084
16945 1 18262783117415293193
17834074 16 18342460326743759934
17870717 6 18269855124565529062
18186145 218 16370730361385248846
200 152 17275101700144546174
20201158 50 18131073701433869174
20279233 1 18060412530376445338
20281407 28 18131354132838878810
20281475 54 18059862778641396054
20645476 183 17313101956273063339
20645477 70 17774724177990281382
20711983 138 17989486325102807745
20871999 31 18261389009553971999
21119208 17 17967818223621060238
22094290 60 18409170999751049581
22213442 358 18338518671751953853
22485316 2 18059855086444522918
22926399 37 15285648680735065621
23402539 116 18114455756159442956
23403322 49 18059018255217381446
23557571 272 18336554931426670740
23559900 14 18411698773458258188
23598291 2 17098046131559038200
2748010 2 18046894151088130801
42 15 11095888172198262996
474 4 16878798230624638068
58051976 100 18334579010274105630
633830 44 16443074872144621910
7364860 26 18124594438177956088
77492 1 17168134620578020432
93112 12 18408326570931911486
9709674 26 18270688554226558158

>  <PUBCHEM_SHAPE_MULTIPOLES>  (1) 
265.52
7.55
1.57
0.94
3.92
0.2
-0.32
1.2
2.23
-0.57
0.13
0.45
-0.01
0.56

>  <PUBCHEM_SHAPE_SELFOVERLAP>  (1) 
543.26

>  <PUBCHEM_SHAPE_VOLUME>  (1) 
155.5

>  <PUBCHEM_COORDINATE_TYPE>  (1) 
2
5
10

$$$$
