11145
     RDKit          3D

 17 17  0  0  0  0  0  0  0  0999 V2000
   -3.6499   -2.7846   -0.0768 Cl  0  0  0  0  0  0  0  0  0  0  0  0
   -5.4983   -0.1302   -0.1857 Cl  0  0  0  0  0  0  0  0  0  0  0  0
    0.7295    2.5499    0.7373 O   0  0  0  0  0  0  0  0  0  0  0  0
    2.4382    1.3465   -0.3078 N   0  0  0  0  0  0  0  0  0  0  0  0
    0.3848    0.3103    0.2095 N   0  0  0  0  0  0  0  0  0  0  0  0
    3.5924   -0.7712    0.1874 C   0  0  0  0  0  0  0  0  0  0  0  0
    2.8925    0.0971   -0.8527 C   0  0  0  0  0  0  0  0  0  0  0  0
    4.1022   -2.0912   -0.3955 C   0  0  0  0  0  0  0  0  0  0  0  0
    4.8472   -2.9083    0.6486 C   0  0  0  0  0  0  0  0  0  0  0  0
    1.1369    1.4864    0.2649 C   0  0  0  0  0  0  0  0  0  0  0  0
    3.3789    2.4721   -0.3692 C   0  0  0  0  0  0  0  0  0  0  0  0
   -1.0239    0.1883    0.1152 C   0  0  0  0  0  0  0  0  0  0  0  0
   -1.5919   -1.0731    0.0714 C   0  0  0  0  0  0  0  0  0  0  0  0
   -1.7990    1.3341    0.0689 C   0  0  0  0  0  0  0  0  0  0  0  0
   -2.9786   -1.1925   -0.0218 C   0  0  0  0  0  0  0  0  0  0  0  0
   -3.1856    1.2148   -0.0243 C   0  0  0  0  0  0  0  0  0  0  0  0
   -3.7754   -0.0484   -0.0694 C   0  0  0  0  0  0  0  0  0  0  0  0
  1 15  1  0
  2 17  1  0
  3 10  2  0
  4  7  1  0
  4 10  1  0
  4 11  1  0
  5 10  1  0
  5 12  1  0
  6  7  1  0
  6  8  1  0
  8  9  1  0
 12 13  2  0
 12 14  1  0
 13 15  1  0
 14 16  2  0
 15 17  2  0
 16 17  1  0
M  END
>  <PUBCHEM_COMPOUND_CID>  (1) 
11145

>  <PUBCHEM_CONFORMER_RMSD>  (1) 
0.8

>  <PUBCHEM_CONFORMER_DIVERSEORDER>  (1) 
1
103
43
56
112
47
69
63
100
118
98
61
45
108
113
95
51
85
91
126
15
106
96
66
73
70
28
77
82
58
88
3
79
99
41
74
5
44
116
90
7
115
75
87
33
36
50
105
76
97
124
23
111
120
84
14
17
109
86
49
101
104
2
81
42
68
24
64
93
72
48
122
94
16
9
62
39
92
83
29
102
55
25
4
119
52
54
57
60
59
32
117
22
34
53
20
8
27
114
125
89
6
38
107
46
31
13
78
110
11
80
19
71
21
40
65
30
18
121
12
26
123
10
35
67
37

>  <PUBCHEM_MMFF94_PARTIAL_CHARGES>  (1) 
18
1 -0.18
10 0.69
11 0.3
12 0.12
13 -0.15
14 -0.15
15 0.18
16 -0.15
17 0.18
2 -0.18
3 -0.57
30 0.37
31 0.15
32 0.15
33 0.15
4 -0.66
5 -0.55
7 0.3

>  <PUBCHEM_EFFECTIVE_ROTOR_COUNT>  (1) 
6

>  <PUBCHEM_PHARMACOPHORE_FEATURES>  (1) 
4
1 3 acceptor
1 5 donor
1 9 hydrophobe
6 12 13 14 15 16 17 rings

>  <PUBCHEM_HEAVY_ATOM_COUNT>  (1) 
17

>  <PUBCHEM_ATOM_DEF_STEREO_COUNT>  (1) 
0

>  <PUBCHEM_ATOM_UDEF_STEREO_COUNT>  (1) 
0

>  <PUBCHEM_BOND_DEF_STEREO_COUNT>  (1) 
0

>  <PUBCHEM_BOND_UDEF_STEREO_COUNT>  (1) 
0

>  <PUBCHEM_ISOTOPIC_ATOM_COUNT>  (1) 
0

>  <PUBCHEM_COMPONENT_COUNT>  (1) 
1

>  <PUBCHEM_CACTVS_TAUTO_COUNT>  (1) 
2

>  <PUBCHEM_CONFORMER_ID>  (1) 
00002B8900000001

>  <PUBCHEM_MMFF94_ENERGY>  (1) 
39.1992

>  <PUBCHEM_FEATURE_SELFOVERLAP>  (1) 
20.297

>  <PUBCHEM_SHAPE_FINGERPRINT>  (1) 
10062212 137 18272084972616663143
10616163 171 18196096770269474222
11265709 11 18338519613135554314
11405975 8 18412267241917225409
12107183 9 18124040031088229081
12555020 224 18337944615746562319
12633257 1 18271821089852364063
13533116 47 18413386557749940371
13955234 65 18340488992753215840
14866123 147 17622167866800553968
15196674 1 18339081596310078759
15352361 1 18339360747894468798
15442244 35 18411985719675216984
17492 89 18337391650864538770
18186145 218 17458339753830576651
20281475 54 18412548742553015265
20369508 70 18202281424560134780
20403669 9 18341897329466765590
20645477 70 18410012152111215966
21250096 35 18342174436682996194
21267235 1 18338806627939926067
21618674 54 18337391668133474748
221490 88 18336272339716603010
23559900 14 18411978104608316000
3004659 81 18260553269359091830
314173 41 18339085891430608990
335352 9 18339079272964899997
3421961 26 18411696578650894298
5104073 3 18272376390584816675
559249 180 18191020097561424923
58051976 100 18410295830306059335
633830 44 16805325513239048605
6433294 58 18266744773527088282
88748 71 18334582330046773442
9709674 26 18262241139328508810

>  <PUBCHEM_SHAPE_MULTIPOLES>  (1) 
337.76
10.76
3.17
0.73
0.08
0.9
-0.02
6.34
-0.5
-2.99
0.29
-0.3
0.01
-0.58

>  <PUBCHEM_SHAPE_SELFOVERLAP>  (1) 
661.967

>  <PUBCHEM_SHAPE_VOLUME>  (1) 
205.1

>  <PUBCHEM_COORDINATE_TYPE>  (1) 
2
5
10

$$$$
