11140
     RDKit          3D

 11 11  0  0  0  0  0  0  0  0999 V2000
    2.4537   -1.1572    0.0000 O   0  0  0  0  0  0  0  0  0  0  0  0
   -3.2768    0.3765   -0.0010 O   0  0  0  0  0  0  0  0  0  0  0  0
   -2.4910   -1.6733   -0.0001 O   0  0  0  0  0  0  0  0  0  0  0  0
   -2.3162   -0.4308   -0.0001 N   0  0  0  0  0  0  0  0  0  0  0  0
    1.3959   -0.3008    0.0012 C   0  0  0  0  0  0  0  0  0  0  0  0
   -0.9903    0.0776    0.0003 C   0  0  0  0  0  0  0  0  0  0  0  0
    0.0937   -0.8004    0.0011 C   0  0  0  0  0  0  0  0  0  0  0  0
    1.6143    1.0768    0.0006 C   0  0  0  0  0  0  0  0  0  0  0  0
   -0.7717    1.4553   -0.0003 C   0  0  0  0  0  0  0  0  0  0  0  0
    0.5305    1.9549    0.0000 C   0  0  0  0  0  0  0  0  0  0  0  0
    3.7579   -0.5784   -0.0017 C   0  0  0  0  0  0  0  0  0  0  0  0
  1  5  1  0
  1 11  1  0
  2  4  1  0
  3  4  2  0
  4  6  1  0
  5  7  2  0
  5  8  1  0
  6  7  1  0
  6  9  2  0
  8 10  2  0
  9 10  1  0
M  CHG  2   2  -1   4   1
M  END
>  <PUBCHEM_COMPOUND_CID>  (1) 
11140

>  <PUBCHEM_CONFORMER_RMSD>  (1) 
0.4

>  <PUBCHEM_CONFORMER_DIVERSEORDER>  (1) 
1
2

>  <PUBCHEM_MMFF94_PARTIAL_CHARGES>  (1) 
15
1 -0.36
10 -0.15
11 0.28
12 0.15
13 0.15
14 0.15
15 0.15
2 -0.52
3 -0.52
4 0.91
5 0.08
6 0.13
7 -0.15
8 -0.15
9 -0.15

>  <PUBCHEM_EFFECTIVE_ROTOR_COUNT>  (1) 
2

>  <PUBCHEM_PHARMACOPHORE_FEATURES>  (1) 
5
1 1 acceptor
1 2 acceptor
1 2 anion
1 3 acceptor
6 5 6 7 8 9 10 rings

>  <PUBCHEM_HEAVY_ATOM_COUNT>  (1) 
11

>  <PUBCHEM_ATOM_DEF_STEREO_COUNT>  (1) 
0

>  <PUBCHEM_ATOM_UDEF_STEREO_COUNT>  (1) 
0

>  <PUBCHEM_BOND_DEF_STEREO_COUNT>  (1) 
0

>  <PUBCHEM_BOND_UDEF_STEREO_COUNT>  (1) 
0

>  <PUBCHEM_ISOTOPIC_ATOM_COUNT>  (1) 
0

>  <PUBCHEM_COMPONENT_COUNT>  (1) 
1

>  <PUBCHEM_CACTVS_TAUTO_COUNT>  (1) 
1

>  <PUBCHEM_CONFORMER_ID>  (1) 
00002B8400000001

>  <PUBCHEM_MMFF94_ENERGY>  (1) 
39.8065

>  <PUBCHEM_FEATURE_SELFOVERLAP>  (1) 
25.453

>  <PUBCHEM_SHAPE_FINGERPRINT>  (1) 
10130415 120 18408603643234944817
10857977 72 18341036454985411040
12032990 46 18411706482471211646
12932764 1 17241032275970025139
14128692 85 18410015454930478036
14325111 11 18338516446953431265
16945 1 18338516335310765760
17990270 104 18264204897112573235
193761 8 17689998255616102310
20201158 50 18410009914238244703
20871998 184 18130221537098971670
20871998 22 18271537407141150630
21040471 1 17762337319972043077
21501925 9 18267855249883857658
23552423 10 18261113031729003781
2748010 2 18338231690632243093
29004967 10 18338234967729323705
7364860 26 18198623435368939000

>  <PUBCHEM_SHAPE_MULTIPOLES>  (1) 
203.79
4.7
1.72
0.58
0.74
0.47
0
-1.87
0
-0.13
0
0.05
0.03
0

>  <PUBCHEM_SHAPE_SELFOVERLAP>  (1) 
423.832

>  <PUBCHEM_SHAPE_VOLUME>  (1) 
117.1

>  <PUBCHEM_COORDINATE_TYPE>  (1) 
2
5
10

$$$$
