1114
     RDKit          3D

 17 17  0  0  1  0  0  0  0  0999 V2000
    2.9635   -0.6274    1.7737 O   0  0  0  0  0  0  0  0  0  0  0  0
   -0.7685    0.6516   -2.0815 O   0  0  0  0  0  0  0  0  0  0  0  0
    1.8158   -2.6357    0.3780 O   0  0  0  0  0  0  0  0  0  0  0  0
    0.4095   -2.0921   -1.3417 O   0  0  0  0  0  0  0  0  0  0  0  0
   -5.3476   -0.0598    0.1143 O   0  0  0  0  0  0  0  0  0  0  0  0
   -3.8410   -0.0655    1.8148 O   0  0  0  0  0  0  0  0  0  0  0  0
    3.0085   -0.2741    0.3893 C   0  0  0  0  0  0  0  0  0  0  0  0
    3.6191    1.1314    0.2424 C   0  0  0  0  0  0  0  0  0  0  0  0
    1.6030   -0.4092   -0.1610 C   0  0  0  0  0  0  0  0  0  0  0  0
    0.8154    0.6675   -0.3573 C   0  0  0  0  0  0  0  0  0  0  0  0
    2.5950    2.2273    0.2470 C   0  0  0  0  0  0  0  0  0  0  0  0
    1.3037    1.9939   -0.0220 C   0  0  0  0  0  0  0  0  0  0  0  0
   -0.5615    0.5774   -0.8722 C   0  0  0  0  0  0  0  0  0  0  0  0
   -1.6585    0.3863    0.1620 C   0  0  0  0  0  0  0  0  0  0  0  0
   -3.0541    0.2883   -0.4422 C   0  0  0  0  0  0  0  0  0  0  0  0
    1.1911   -1.7912   -0.4645 C   0  0  0  0  0  0  0  0  0  0  0  0
   -4.0933    0.0312    0.6208 C   0  0  0  0  0  0  0  0  0  0  0  0
  1  7  1  0
  2 13  2  0
  3 16  1  0
  4 16  2  0
  5 17  1  0
  6 17  2  0
  7  8  1  0
  7  9  1  0
  8 11  1  0
  9 10  2  0
  9 16  1  0
 10 12  1  0
 10 13  1  0
 11 12  2  0
 13 14  1  0
 14 15  1  0
 15 17  1  0
M  END
>  <PUBCHEM_COMPOUND_CID>  (1) 
1114

>  <PUBCHEM_CONFORMER_RMSD>  (1) 
0.6

>  <PUBCHEM_CONFORMER_DIVERSEORDER>  (1) 
1
56
57
112
66
117
122
59
38
3
12
87
83
50
81
48
21
77
45
130
125
41
72
7
35
106
88
96
71
91
104
119
58
86
111
68
124
109
108
47
39
51
28
131
75
97
115
116
103
27
114
32
14
123
52
120
94
37
46
100
98
84
79
5
26
73
62
61
105
43
17
107
90
121
92
36
10
53
18
40
101
74
76
2
33
127
23
55
129
29
99
25
54
15
113
9
67
93
78
128
118
6
4
13
49
95
65
31
82
80
44
16
102
19
63
20
110
60
34
30
11
70
69
42
85
89
126
64
24
8
22

>  <PUBCHEM_MMFF94_PARTIAL_CHARGES>  (1) 
22
1 -0.68
10 0.01
11 -0.29
12 -0.15
13 0.49
14 0.06
15 0.06
16 0.71
17 0.66
2 -0.57
21 0.15
22 0.15
27 0.4
28 0.5
29 0.5
3 -0.65
4 -0.57
5 -0.65
6 -0.57
7 0.42
8 0.14
9 -0.12

>  <PUBCHEM_EFFECTIVE_ROTOR_COUNT>  (1) 
5.4

>  <PUBCHEM_PHARMACOPHORE_FEATURES>  (1) 
10
1 1 acceptor
1 1 donor
1 2 acceptor
1 3 acceptor
1 4 acceptor
1 5 acceptor
1 6 acceptor
3 3 4 16 anion
3 5 6 17 anion
6 7 8 9 10 11 12 rings

>  <PUBCHEM_HEAVY_ATOM_COUNT>  (1) 
17

>  <PUBCHEM_ATOM_DEF_STEREO_COUNT>  (1) 
0

>  <PUBCHEM_ATOM_UDEF_STEREO_COUNT>  (1) 
1

>  <PUBCHEM_BOND_DEF_STEREO_COUNT>  (1) 
0

>  <PUBCHEM_BOND_UDEF_STEREO_COUNT>  (1) 
0

>  <PUBCHEM_ISOTOPIC_ATOM_COUNT>  (1) 
0

>  <PUBCHEM_COMPONENT_COUNT>  (1) 
1

>  <PUBCHEM_CACTVS_TAUTO_COUNT>  (1) 
2

>  <PUBCHEM_CONFORMER_ID>  (1) 
0000045A00000001

>  <PUBCHEM_MMFF94_ENERGY>  (1) 
33.3186

>  <PUBCHEM_FEATURE_SELFOVERLAP>  (1) 
50.868

>  <PUBCHEM_SHAPE_FINGERPRINT>  (1) 
10366900 7 18409739482097244945
10493431 412 18195522825722163784
10498660 4 14476695057263137891
10980938 120 18201440255177984741
11067466 332 18113908147655188316
11471102 22 18409728430655560785
12251169 10 18408880754461468569
12346645 6 18411984675802725493
12390115 104 17691694798022081392
12633257 1 18334852814296677795
14251717 144 18413388739524832887
14252887 29 18041008327720972409
14289901 80 18343865498583163217
15309172 13 18339072787194985180
15375358 24 18040152925075912753
15501101 241 18260833682824538365
15502708 68 18411980282124820292
16945 1 18267279003281257332
20157964 124 18200313209501759389
20279233 1 17967257507535896939
204376 136 18268151039965674637
20645477 70 18336538353042851431
232386 152 15430323593692400089
23557571 272 17095799923940400869
23558518 356 17404292392384755444
251288 83 18187085074336591291
2748010 2 17765690457454626310
276578 36 17846781814592571478
298252 57 16343150249947218116
31174 14 18334851680340681270
33824 294 18408604772953872307
458136 41 18410018762297895750
633830 44 17988371475936295453
81228 2 16756893903104866836
8272917 22 18272658909317778781
9999458 23 18408889568246199796

>  <PUBCHEM_SHAPE_MULTIPOLES>  (1) 
314.64
7.42
2.1
1.31
10.04
0.79
0
-1.12
3.08
-2.27
-0.18
0.41
0.16
-0.02

>  <PUBCHEM_SHAPE_SELFOVERLAP>  (1) 
651.931

>  <PUBCHEM_SHAPE_VOLUME>  (1) 
176.5

>  <PUBCHEM_COORDINATE_TYPE>  (1) 
2
5
10

$$$$
