11154
     RDKit          3D

 16 17  0  0  0  0  0  0  0  0999 V2000
    1.9494    0.5385   -0.0003 O   0  0  0  0  0  0  0  0  0  0  0  0
   -4.0759   -1.7905    0.0004 O   0  0  0  0  0  0  0  0  0  0  0  0
    5.3934   -0.0545    0.0012 O   0  0  0  0  0  0  0  0  0  0  0  0
    4.2291    1.8116   -0.0007 O   0  0  0  0  0  0  0  0  0  0  0  0
   -2.6070    0.0491   -0.0003 N   0  0  0  0  0  0  0  0  0  0  0  0
   -4.8147    0.4367    0.0006 N   0  0  0  0  0  0  0  0  0  0  0  0
   -1.4413   -0.6111   -0.0001 N   0  0  0  0  0  0  0  0  0  0  0  0
    4.2795    0.5467    0.0003 N   0  0  0  0  0  0  0  0  0  0  0  0
   -2.7034    1.4827    0.0037 C   0  0  0  0  0  0  0  0  0  0  0  0
   -4.2050    1.7461   -0.0028 C   0  0  0  0  0  0  0  0  0  0  0  0
   -3.8513   -0.5878   -0.0001 C   0  0  0  0  0  0  0  0  0  0  0  0
    0.9498   -0.3613   -0.0003 C   0  0  0  0  0  0  0  0  0  0  0  0
   -0.4054    0.1644   -0.0004 C   0  0  0  0  0  0  0  0  0  0  0  0
    1.3981   -1.6405   -0.0002 C   0  0  0  0  0  0  0  0  0  0  0  0
    3.0950   -0.1922   -0.0004 C   0  0  0  0  0  0  0  0  0  0  0  0
    2.8096   -1.5378   -0.0004 C   0  0  0  0  0  0  0  0  0  0  0  0
  1 12  1  0
  1 15  1  0
  2 11  2  0
  3  8  1  0
  4  8  2  0
  5  7  1  0
  5  9  1  0
  5 11  1  0
  6 10  1  0
  6 11  1  0
  7 13  2  0
  8 15  1  0
  9 10  1  0
 12 13  1  0
 12 14  2  0
 14 16  1  0
 15 16  2  0
M  CHG  2   3  -1   8   1
M  END
>  <PUBCHEM_COMPOUND_CID>  (1) 
11154

>  <PUBCHEM_CONFORMER_RMSD>  (1) 
0.6

>  <PUBCHEM_CONFORMER_DIVERSEORDER>  (1) 
1
2
3
7
4
8
5
6

>  <PUBCHEM_MMFF94_PARTIAL_CHARGES>  (1) 
20
1 -0.28
10 0.3
11 0.69
12 0.05
13 0.47
14 -0.15
15 0.22
16 -0.15
2 -0.57
21 0.37
22 0.06
23 0.15
24 0.15
3 -0.52
4 -0.52
5 -0.3
6 -0.73
7 -0.51
8 0.96
9 0.3

>  <PUBCHEM_EFFECTIVE_ROTOR_COUNT>  (1) 
3.8

>  <PUBCHEM_PHARMACOPHORE_FEATURES>  (1) 
9
1 1 acceptor
1 2 acceptor
1 3 acceptor
1 3 anion
1 4 acceptor
1 6 donor
1 7 acceptor
5 1 12 14 15 16 rings
5 5 6 9 10 11 rings

>  <PUBCHEM_HEAVY_ATOM_COUNT>  (1) 
16

>  <PUBCHEM_ATOM_DEF_STEREO_COUNT>  (1) 
0

>  <PUBCHEM_ATOM_UDEF_STEREO_COUNT>  (1) 
0

>  <PUBCHEM_BOND_DEF_STEREO_COUNT>  (1) 
0

>  <PUBCHEM_BOND_UDEF_STEREO_COUNT>  (1) 
1

>  <PUBCHEM_ISOTOPIC_ATOM_COUNT>  (1) 
0

>  <PUBCHEM_COMPONENT_COUNT>  (1) 
1

>  <PUBCHEM_CACTVS_TAUTO_COUNT>  (1) 
2

>  <PUBCHEM_CONFORMER_ID>  (1) 
00002B9200000001

>  <PUBCHEM_MMFF94_ENERGY>  (1) 
36.1027

>  <PUBCHEM_FEATURE_SELFOVERLAP>  (1) 
45.766

>  <PUBCHEM_SHAPE_FINGERPRINT>  (1) 
10014705 185 18187923942148955837
12107183 9 17617093607843052491
13081056 2 18412263947830562740
13167823 11 18409444769562089274
13214271 11 18412260636542315349
14252887 29 12540691492971750696
14415576 193 18411703162450676188
15196674 1 18410855442948305607
17834072 33 18413106173352148518
18186145 218 17968096365497687015
200 152 18131346406514421155
20645477 56 18261956246185499925
20645477 70 18129381505673100366
21709351 56 18408599275464253716
22485316 2 18335700516376422843
23402539 116 18113893870751425007
23402655 69 18343300331893717607
23557571 272 18343872103958144677
23559900 14 18270397162207257882
245318 6 17026860764123534836
2916195 48 18130778023543694840
300161 21 18335695018997430709
3545911 37 18410576163032335525
4214541 1 18410855430316695745
42788 4 18410856559639789572
449060 50 18409450267346568325
474 4 17894918463848294780
4990 188 18060147526805082414
5104073 3 18408886200569853499
58051976 378 18343021073162537783
77779 3 18411420583535611903
9709674 26 18410018727706737099

>  <PUBCHEM_SHAPE_MULTIPOLES>  (1) 
285.87
11.13
1.73
0.57
1.01
0.03
0
2.53
0
-0.39
0
-0.02
-0.01
0

>  <PUBCHEM_SHAPE_SELFOVERLAP>  (1) 
609.151

>  <PUBCHEM_SHAPE_VOLUME>  (1) 
160.3

>  <PUBCHEM_COORDINATE_TYPE>  (1) 
2
5
10

$$$$
