11160
     RDKit          3D

  8  7  0  0  0  0  0  0  0  0999 V2000
   -1.4523   -0.6872   -0.2342 O   0  0  0  0  0  0  0  0  0  0  0  0
   -1.0071    1.5205    0.2634 O   0  0  0  0  0  0  0  0  0  0  0  0
    1.7460   -0.2021   -0.2925 C   0  0  0  0  0  0  0  0  0  0  0  0
    0.5212    0.2242   -1.1168 C   0  0  0  0  0  0  0  0  0  0  0  0
    2.0979    0.8435    0.7687 C   0  0  0  0  0  0  0  0  0  0  0  0
    1.4821   -1.5513    0.3785 C   0  0  0  0  0  0  0  0  0  0  0  0
   -0.7122    0.4604   -0.2713 C   0  0  0  0  0  0  0  0  0  0  0  0
   -2.6757   -0.6080    0.5042 C   0  0  0  0  0  0  0  0  0  0  0  0
  1  7  1  0
  1  8  1  0
  2  7  2  0
  3  4  1  0
  3  5  1  0
  3  6  1  0
  4  7  1  0
M  END
>  <PUBCHEM_COMPOUND_CID>  (1) 
11160

>  <PUBCHEM_CONFORMER_RMSD>  (1) 
0.6

>  <PUBCHEM_CONFORMER_DIVERSEORDER>  (1) 
1
2
3
4

>  <PUBCHEM_MMFF94_PARTIAL_CHARGES>  (1) 
5
1 -0.43
2 -0.57
4 0.06
7 0.66
8 0.28

>  <PUBCHEM_EFFECTIVE_ROTOR_COUNT>  (1) 
3

>  <PUBCHEM_PHARMACOPHORE_FEATURES>  (1) 
2
1 2 acceptor
3 3 5 6 hydrophobe

>  <PUBCHEM_HEAVY_ATOM_COUNT>  (1) 
8

>  <PUBCHEM_ATOM_DEF_STEREO_COUNT>  (1) 
0

>  <PUBCHEM_ATOM_UDEF_STEREO_COUNT>  (1) 
0

>  <PUBCHEM_BOND_DEF_STEREO_COUNT>  (1) 
0

>  <PUBCHEM_BOND_UDEF_STEREO_COUNT>  (1) 
0

>  <PUBCHEM_ISOTOPIC_ATOM_COUNT>  (1) 
0

>  <PUBCHEM_COMPONENT_COUNT>  (1) 
1

>  <PUBCHEM_CACTVS_TAUTO_COUNT>  (1) 
1

>  <PUBCHEM_CONFORMER_ID>  (1) 
00002B9800000001

>  <PUBCHEM_MMFF94_ENERGY>  (1) 
8.6366

>  <PUBCHEM_FEATURE_SELFOVERLAP>  (1) 
10.148

>  <PUBCHEM_SHAPE_FINGERPRINT>  (1) 
10857977 72 18339637970457346105
14390081 3 12319740245834131195
18185500 45 18335143141095483471
20651381 22 17417242277111619527
20711978 78 18201149954006856590
21040471 1 17834404423104396885
23552333 60 17458918135606734765
23552423 10 18041007189159175287
24536 1 18189041032534256484
29004967 10 17967814985083797997
5084963 1 17968096391509999438

>  <PUBCHEM_SHAPE_MULTIPOLES>  (1) 
152.9
3.25
1.37
0.93
1.28
0.13
-0.1
0.53
0.83
-0.21
0.24
-0.2
-0.09
0.12

>  <PUBCHEM_SHAPE_SELFOVERLAP>  (1) 
278.346

>  <PUBCHEM_SHAPE_VOLUME>  (1) 
98.7

>  <PUBCHEM_COORDINATE_TYPE>  (1) 
2
5
10

$$$$
