11171
     RDKit          3D

 33 32  0  0  0  0  0  0  0  0999 V2000
   -0.1709   -2.3620    1.0869 Si  0  0  0  0  0  4  0  0  0  0  0  0
   -2.9254   -2.6315   -0.4526 Si  0  0  0  0  0  4  0  0  0  0  0  0
    2.5003   -2.5488   -0.6197 Si  0  0  0  0  0  4  0  0  0  0  0  0
   -4.2921    0.1068    0.3739 Si  0  0  0  0  0  4  0  0  0  0  0  0
    4.2167    0.1020   -0.9166 Si  0  0  0  0  0  4  0  0  0  0  0  0
   -2.4635    2.6773    0.5831 Si  0  0  0  0  0  4  0  0  0  0  0  0
    3.4188    1.5751    1.7664 Si  0  0  0  0  0  4  0  0  0  0  0  0
   -0.3463    2.6419   -1.7629 Si  0  0  0  0  0  4  0  0  0  0  0  0
   -1.2928   -2.3904   -0.1570 O   0  0  0  0  0  0  0  0  0  0  0  0
    1.3417   -2.0180    0.4617 O   0  0  0  0  0  0  0  0  0  0  0  0
   -3.7925   -1.4909    0.4131 O   0  0  0  0  0  0  0  0  0  0  0  0
    3.7946   -1.4907   -0.6320 O   0  0  0  0  0  0  0  0  0  0  0  0
   -2.9397    1.0952    0.3016 O   0  0  0  0  0  0  0  0  0  0  0  0
    3.3821    1.0742    0.1667 O   0  0  0  0  0  0  0  0  0  0  0  0
   -1.0587    2.9787   -0.2824 O   0  0  0  0  0  0  0  0  0  0  0  0
   -0.1585   -4.0153    1.9869 C   0  0  0  0  0  0  0  0  0  0  0  0
   -0.6250   -1.0421    2.3540 C   0  0  0  0  0  0  0  0  0  0  0  0
   -3.4226   -4.3714    0.0672 C   0  0  0  0  0  0  0  0  0  0  0  0
   -3.2979   -2.4533   -2.2884 C   0  0  0  0  0  0  0  0  0  0  0  0
    3.0673   -4.2789   -0.1320 C   0  0  0  0  0  0  0  0  0  0  0  0
    1.7834   -2.6841   -2.3564 C   0  0  0  0  0  0  0  0  0  0  0  0
   -5.3003    0.5053    1.9111 C   0  0  0  0  0  0  0  0  0  0  0  0
   -5.3797    0.4267   -1.1267 C   0  0  0  0  0  0  0  0  0  0  0  0
    6.0663    0.3410   -0.6930 C   0  0  0  0  0  0  0  0  0  0  0  0
    3.8032    0.6002   -2.6846 C   0  0  0  0  0  0  0  0  0  0  0  0
   -3.8285    3.8587    0.0490 C   0  0  0  0  0  0  0  0  0  0  0  0
   -2.1775    2.9538    2.4198 C   0  0  0  0  0  0  0  0  0  0  0  0
    5.0231    2.4756    2.1587 C   0  0  0  0  0  0  0  0  0  0  0  0
    3.2714    0.1031    2.9306 C   0  0  0  0  0  0  0  0  0  0  0  0
    1.9872    2.7417    2.1240 C   0  0  0  0  0  0  0  0  0  0  0  0
    1.3505    3.4459   -1.8725 C   0  0  0  0  0  0  0  0  0  0  0  0
   -1.3952    3.2838   -3.1888 C   0  0  0  0  0  0  0  0  0  0  0  0
   -0.1398    0.7904   -1.9889 C   0  0  0  0  0  0  0  0  0  0  0  0
  1  9  1  0
  1 10  1  0
  1 16  1  0
  1 17  1  0
  2  9  1  0
  2 11  1  0
  2 18  1  0
  2 19  1  0
  3 10  1  0
  3 12  1  0
  3 20  1  0
  3 21  1  0
  4 11  1  0
  4 13  1  0
  4 22  1  0
  4 23  1  0
  5 12  1  0
  5 14  1  0
  5 24  1  0
  5 25  1  0
  6 13  1  0
  6 15  1  0
  6 26  1  0
  6 27  1  0
  7 14  1  0
  7 28  1  0
  7 29  1  0
  7 30  1  0
  8 15  1  0
  8 31  1  0
  8 32  1  0
  8 33  1  0
M  END
>  <PUBCHEM_COMPOUND_CID>  (1) 
11171

>  <PUBCHEM_CONFORMER_RMSD>  (1) 
1.8

>  <PUBCHEM_CONFORMER_DIVERSEORDER>  (1) 
1
50
90
75
48
61
89
45
6
78
54
98
66
106
76
63
118
8
43
84
40
24
52
53
83
111
99
97
107
74
112
65
38
2
113
72
79
15
41
44
108
73
39
109
37
114
62
70
14
102
80
116
69
105
82
64
34
85
42
58
110
51
95
60
104
101
100
88
16
67
81
119
71
46
13
86
7
94
33
5
36
47
77
32
68
115
12
55
59
29
96
11
49
23
30
28
4
20
93
17
18
103
26
35
3
27
117
31
92
10
9
25
87
19
22
91
56
21
57

>  <PUBCHEM_MMFF94_PARTIAL_CHARGES>  (1) 
33
1 0.76
10 -0.59
11 -0.59
12 -0.59
13 -0.59
14 -0.59
15 -0.59
16 -0.08
17 -0.08
18 -0.08
19 -0.08
2 0.76
20 -0.08
21 -0.08
22 -0.08
23 -0.08
24 -0.08
25 -0.08
26 -0.08
27 -0.08
28 -0.08
29 -0.08
3 0.76
30 -0.08
31 -0.08
32 -0.08
33 -0.08
4 0.76
5 0.76
6 0.76
7 0.54
8 0.54
9 -0.59

>  <PUBCHEM_EFFECTIVE_ROTOR_COUNT>  (1) 
14

>  <PUBCHEM_PHARMACOPHORE_FEATURES>  (1) 
0

>  <PUBCHEM_HEAVY_ATOM_COUNT>  (1) 
33

>  <PUBCHEM_ATOM_DEF_STEREO_COUNT>  (1) 
0

>  <PUBCHEM_ATOM_UDEF_STEREO_COUNT>  (1) 
0

>  <PUBCHEM_BOND_DEF_STEREO_COUNT>  (1) 
0

>  <PUBCHEM_BOND_UDEF_STEREO_COUNT>  (1) 
0

>  <PUBCHEM_ISOTOPIC_ATOM_COUNT>  (1) 
0

>  <PUBCHEM_COMPONENT_COUNT>  (1) 
1

>  <PUBCHEM_CACTVS_TAUTO_COUNT>  (1) 
1

>  <PUBCHEM_CONFORMER_ID>  (1) 
00002BA300000001

>  <PUBCHEM_MMFF94_ENERGY>  (1) 
-10.0744

>  <PUBCHEM_FEATURE_SELFOVERLAP>  (1) 
0

>  <PUBCHEM_SHAPE_FINGERPRINT>  (1) 
11513181 2 17768815612729280500
11595378 159 17822004285795853218
12422481 6 18338495487935163618
14840074 17 18260558796913423513
15001296 14 18118701034404432717
15297060 5 18125181543449242184
15406563 42 18127690642042678808
15975801 100 17967810497566212516
20600515 1 17826218881321597728
20764821 26 17974873939912693479
22121540 332 17698449063887079268
23559900 14 18341335590541121220
25265897 201 16986067649997477855
469060 322 18041547148200192373
508706 21 18343016718023313288

>  <PUBCHEM_SHAPE_MULTIPOLES>  (1) 
783.74
10.58
6.37
3.16
1.65
2.14
0.14
-1.51
-0.95
-2.34
0.39
1.4
-1.71
0.92

>  <PUBCHEM_SHAPE_SELFOVERLAP>  (1) 
1355.427

>  <PUBCHEM_SHAPE_VOLUME>  (1) 
519.8

>  <PUBCHEM_COORDINATE_TYPE>  (1) 
2
5
10

$$$$
