11176
     RDKit          3D

 10  9  0  0  0  0  0  0  0  0999 V2000
   -0.6486   -0.0261   -0.4928 O   0  0  0  0  0  0  0  0  0  0  0  0
    0.3838    1.8496    0.3648 O   0  0  0  0  0  0  0  0  0  0  0  0
    2.5238   -0.5905   -0.2023 C   0  0  0  0  0  0  0  0  0  0  0  0
    1.6057    0.2977   -1.0562 C   0  0  0  0  0  0  0  0  0  0  0  0
    3.0395    0.1583    1.0292 C   0  0  0  0  0  0  0  0  0  0  0  0
    1.7749   -1.8508    0.2350 C   0  0  0  0  0  0  0  0  0  0  0  0
    0.4059    0.8194   -0.2944 C   0  0  0  0  0  0  0  0  0  0  0  0
   -1.8734    0.3571    0.1410 C   0  0  0  0  0  0  0  0  0  0  0  0
   -2.9375   -0.6821   -0.1769 C   0  0  0  0  0  0  0  0  0  0  0  0
   -4.2740   -0.3327    0.4526 C   0  0  0  0  0  0  0  0  0  0  0  0
  1  7  1  0
  1  8  1  0
  2  7  2  0
  3  4  1  0
  3  5  1  0
  3  6  1  0
  4  7  1  0
  8  9  1  0
  9 10  1  0
M  END
>  <PUBCHEM_COMPOUND_CID>  (1) 
11176

>  <PUBCHEM_CONFORMER_RMSD>  (1) 
0.6

>  <PUBCHEM_CONFORMER_DIVERSEORDER>  (1) 
1
22
49
10
48
14
50
13
40
9
36
5
56
24
37
42
45
6
43
11
51
44
8
57
47
2
39
21
35
41
25
4
7
46
31
52
19
34
3
23
38
54
16
18
12
20
30
33
17
26
15
55
53
32
27
29
28

>  <PUBCHEM_MMFF94_PARTIAL_CHARGES>  (1) 
5
1 -0.43
2 -0.57
4 0.06
7 0.66
8 0.28

>  <PUBCHEM_EFFECTIVE_ROTOR_COUNT>  (1) 
5

>  <PUBCHEM_PHARMACOPHORE_FEATURES>  (1) 
3
1 10 hydrophobe
1 2 acceptor
3 3 5 6 hydrophobe

>  <PUBCHEM_HEAVY_ATOM_COUNT>  (1) 
10

>  <PUBCHEM_ATOM_DEF_STEREO_COUNT>  (1) 
0

>  <PUBCHEM_ATOM_UDEF_STEREO_COUNT>  (1) 
0

>  <PUBCHEM_BOND_DEF_STEREO_COUNT>  (1) 
0

>  <PUBCHEM_BOND_UDEF_STEREO_COUNT>  (1) 
0

>  <PUBCHEM_ISOTOPIC_ATOM_COUNT>  (1) 
0

>  <PUBCHEM_COMPONENT_COUNT>  (1) 
1

>  <PUBCHEM_CACTVS_TAUTO_COUNT>  (1) 
1

>  <PUBCHEM_CONFORMER_ID>  (1) 
00002BA800000001

>  <PUBCHEM_MMFF94_ENERGY>  (1) 
5.9187

>  <PUBCHEM_FEATURE_SELFOVERLAP>  (1) 
15.223

>  <PUBCHEM_SHAPE_FINGERPRINT>  (1) 
10219947 1 17561083605050585085
10857977 72 18343291557428623072
11062470 55 17418094325787978387
12897270 3 8286202751417341479
12932764 1 18060414707671689421
14251717 144 18335417980717227163
14252887 29 18131081427985153951
14390081 3 9943804482709200183
20201158 50 18040438780302509363
20281407 28 18333454231379652599
20645477 70 18186519925740021239
20653085 51 9799110998598107710
20871998 22 18270687450319437254
21119208 17 11674874494215556003
21293036 1 11891337551609552855
21501925 9 18200870781522597085
23380061 451 18131069307624186146
29004967 10 18409163294869760396
3248919 1 17676497137453048013
581208 293 18408321111601483006

>  <PUBCHEM_SHAPE_MULTIPOLES>  (1) 
194.06
6.15
1.41
0.9
6.07
0.11
0
1.68
1.31
-0.65
0.13
-0.45
-0.07
-0.01

>  <PUBCHEM_SHAPE_SELFOVERLAP>  (1) 
354.147

>  <PUBCHEM_SHAPE_VOLUME>  (1) 
124.5

>  <PUBCHEM_COORDINATE_TYPE>  (1) 
2
5
10

$$$$
