11196
     RDKit          3D

 10  9  0  0  0  0  0  0  0  0999 V2000
   -3.3860   -1.6526    0.2114 O   0  0  0  0  0  0  0  0  0  0  0  0
    1.0691    2.0979   -0.0994 C   0  0  0  0  0  0  0  0  0  0  0  0
   -0.4223    2.2020    0.2365 C   0  0  0  0  0  0  0  0  0  0  0  0
    1.6787    0.8131    0.3864 C   0  0  0  0  0  0  0  0  0  0  0  0
    2.8618   -1.3730    0.0629 C   0  0  0  0  0  0  0  0  0  0  0  0
    2.2555   -0.0894   -0.4206 C   0  0  0  0  0  0  0  0  0  0  0  0
   -1.2311    1.0994   -0.3884 C   0  0  0  0  0  0  0  0  0  0  0  0
    1.8372   -2.4967    0.0772 C   0  0  0  0  0  0  0  0  0  0  0  0
   -1.9528    0.2240    0.3216 C   0  0  0  0  0  0  0  0  0  0  0  0
   -2.7101   -0.8246   -0.3874 C   0  0  0  0  0  0  0  0  0  0  0  0
  1 10  2  0
  2  3  1  0
  2  4  1  0
  3  7  1  0
  4  6  2  0
  5  6  1  0
  5  8  1  0
  7  9  2  0
  9 10  1  0
M  END
>  <PUBCHEM_COMPOUND_CID>  (1) 
11196

>  <PUBCHEM_CONFORMER_RMSD>  (1) 
0.6

>  <PUBCHEM_CONFORMER_DIVERSEORDER>  (1) 
1
42
13
57
33
43
4
49
20
25
48
55
3
6
44
27
54
39
24
51
34
9
47
38
40
17
30
53
5
36
32
12
10
18
21
22
16
29
15
14
52
28
41
37
23
26
50
19
8
56
31
11
45
35
46
7
2

>  <PUBCHEM_MMFF94_PARTIAL_CHARGES>  (1) 
14
1 -0.57
10 0.5
15 0.15
18 0.15
19 0.15
2 0.14
23 0.15
24 0.06
3 0.14
4 -0.29
5 0.14
6 -0.29
7 -0.29
9 -0.14

>  <PUBCHEM_EFFECTIVE_ROTOR_COUNT>  (1) 
5

>  <PUBCHEM_PHARMACOPHORE_FEATURES>  (1) 
3
1 1 acceptor
1 8 hydrophobe
4 2 3 4 7 hydrophobe

>  <PUBCHEM_HEAVY_ATOM_COUNT>  (1) 
10

>  <PUBCHEM_ATOM_DEF_STEREO_COUNT>  (1) 
0

>  <PUBCHEM_ATOM_UDEF_STEREO_COUNT>  (1) 
0

>  <PUBCHEM_BOND_DEF_STEREO_COUNT>  (1) 
0

>  <PUBCHEM_BOND_UDEF_STEREO_COUNT>  (1) 
2

>  <PUBCHEM_ISOTOPIC_ATOM_COUNT>  (1) 
0

>  <PUBCHEM_COMPONENT_COUNT>  (1) 
1

>  <PUBCHEM_CACTVS_TAUTO_COUNT>  (1) 
1

>  <PUBCHEM_CONFORMER_ID>  (1) 
00002BBC00000001

>  <PUBCHEM_MMFF94_ENERGY>  (1) 
0.9074

>  <PUBCHEM_FEATURE_SELFOVERLAP>  (1) 
15.223

>  <PUBCHEM_SHAPE_FINGERPRINT>  (1) 
11321824 6 17983556538419194047
1420 336 17687466762884226362
14251705 54 18409731785141563771
14251711 518 18271514398864501462
14251717 144 18195520630877629687
20201158 50 18334855073317437315
20645477 70 18118392085175783871
20724930 14 18267301108913615594
20724930 33 18192708934832049542
23500284 5 18341055116439042097
23530152 11 17472985472098559124
23552423 10 18408610278959767821
66348 1 18267863882863133006
8199 65 18194118748840334566

>  <PUBCHEM_SHAPE_MULTIPOLES>  (1) 
199.93
4.9
2.85
0.69
1.31
0.14
-0.01
3.72
-0.03
-0.34
0.14
0
-0.03
-0.01

>  <PUBCHEM_SHAPE_SELFOVERLAP>  (1) 
366.612

>  <PUBCHEM_SHAPE_VOLUME>  (1) 
126.1

>  <PUBCHEM_COORDINATE_TYPE>  (1) 
2
5
10

$$$$
