11191
     RDKit          3D

  6  5  0  0  0  0  0  0  0  0999 V2000
   -0.5500    0.2003   -0.1638 O   0  0  0  0  0  0  0  0  0  0  0  0
   -1.7539   -0.4669    0.1911 C   0  0  0  0  0  0  0  0  0  0  0  0
    0.5777   -0.6539   -0.0354 C   0  0  0  0  0  0  0  0  0  0  0  0
   -2.9143    0.4925    0.0339 C   0  0  0  0  0  0  0  0  0  0  0  0
    1.8023    0.1070   -0.4221 C   0  0  0  0  0  0  0  0  0  0  0  0
    2.8383    0.3211    0.3964 C   0  0  0  0  0  0  0  0  0  0  0  0
  1  2  1  0
  1  3  1  0
  2  4  1  0
  3  5  1  0
  5  6  2  0
M  END
>  <PUBCHEM_COMPOUND_CID>  (1) 
11191

>  <PUBCHEM_CONFORMER_RMSD>  (1) 
0.4

>  <PUBCHEM_CONFORMER_DIVERSEORDER>  (1) 
1
15
11
14
16
12
9
2
7
17
3
8
4
13
6
10
5

>  <PUBCHEM_MMFF94_PARTIAL_CHARGES>  (1) 
8
1 -0.56
14 0.15
15 0.15
16 0.15
2 0.28
3 0.42
5 -0.29
6 -0.3

>  <PUBCHEM_EFFECTIVE_ROTOR_COUNT>  (1) 
3

>  <PUBCHEM_PHARMACOPHORE_FEATURES>  (1) 
2
1 1 acceptor
1 6 hydrophobe

>  <PUBCHEM_HEAVY_ATOM_COUNT>  (1) 
6

>  <PUBCHEM_ATOM_DEF_STEREO_COUNT>  (1) 
0

>  <PUBCHEM_ATOM_UDEF_STEREO_COUNT>  (1) 
0

>  <PUBCHEM_BOND_DEF_STEREO_COUNT>  (1) 
0

>  <PUBCHEM_BOND_UDEF_STEREO_COUNT>  (1) 
0

>  <PUBCHEM_ISOTOPIC_ATOM_COUNT>  (1) 
0

>  <PUBCHEM_COMPONENT_COUNT>  (1) 
1

>  <PUBCHEM_CACTVS_TAUTO_COUNT>  (1) 
1

>  <PUBCHEM_CONFORMER_ID>  (1) 
00002BB700000001

>  <PUBCHEM_MMFF94_ENERGY>  (1) 
3.7572

>  <PUBCHEM_FEATURE_SELFOVERLAP>  (1) 
10.148

>  <PUBCHEM_SHAPE_FINGERPRINT>  (1) 
14390081 3 18131069320593503489
29004967 10 12685090393179843964
5460574 1 10953456336366243351

>  <PUBCHEM_SHAPE_MULTIPOLES>  (1) 
117.61
4.7
0.78
0.67
0.54
0.04
0
-1.01
0.42
0.09
0.01
-0.13
-0.01
0.08

>  <PUBCHEM_SHAPE_SELFOVERLAP>  (1) 
202.112

>  <PUBCHEM_SHAPE_VOLUME>  (1) 
79.2

>  <PUBCHEM_COORDINATE_TYPE>  (1) 
2
5
10

$$$$
