11208
     RDKit          3D

  5  5  0  0  0  0  0  0  0  0999 V2000
    0.9682   -0.0042    0.7609 O   0  0  0  0  0  0  0  0  0  0  0  0
   -0.1803    0.0201   -0.0765 C   0  0  0  0  0  0  0  0  0  0  0  0
    1.1884   -0.0028   -0.6556 C   0  0  0  0  0  0  0  0  0  0  0  0
   -0.9875   -1.2570   -0.0155 C   0  0  0  0  0  0  0  0  0  0  0  0
   -0.9889    1.2439   -0.0134 C   0  0  0  0  0  0  0  0  0  0  0  0
  1  2  1  0
  1  3  1  0
  2  3  1  0
  2  4  1  0
  2  5  1  0
M  END
>  <PUBCHEM_COMPOUND_CID>  (1) 
11208

>  <PUBCHEM_CONFORMER_RMSD>  (1) 
0.4

>  <PUBCHEM_CONFORMER_DIVERSEORDER>  (1) 
1

>  <PUBCHEM_MMFF94_PARTIAL_CHARGES>  (1) 
7
1 -0.3
2 -0.04
3 -0.05
4 0.09
5 0.09
6 0.1
7 0.1

>  <PUBCHEM_EFFECTIVE_ROTOR_COUNT>  (1) 
0.6

>  <PUBCHEM_PHARMACOPHORE_FEATURES>  (1) 
2
1 1 acceptor
3 2 4 5 hydrophobe

>  <PUBCHEM_HEAVY_ATOM_COUNT>  (1) 
5

>  <PUBCHEM_ATOM_DEF_STEREO_COUNT>  (1) 
0

>  <PUBCHEM_ATOM_UDEF_STEREO_COUNT>  (1) 
0

>  <PUBCHEM_BOND_DEF_STEREO_COUNT>  (1) 
0

>  <PUBCHEM_BOND_UDEF_STEREO_COUNT>  (1) 
0

>  <PUBCHEM_ISOTOPIC_ATOM_COUNT>  (1) 
0

>  <PUBCHEM_COMPONENT_COUNT>  (1) 
1

>  <PUBCHEM_CACTVS_TAUTO_COUNT>  (1) 
1

>  <PUBCHEM_CONFORMER_ID>  (1) 
00002BC800000001

>  <PUBCHEM_MMFF94_ENERGY>  (1) 
7.6269

>  <PUBCHEM_FEATURE_SELFOVERLAP>  (1) 
10.148

>  <PUBCHEM_SHAPE_FINGERPRINT>  (1) 
139733 1 9078023733703940959
20096714 4 17969520211681066892
21015797 1 10591779669989763172
21040471 1 18194683661693958989
5943 1 12260988022091567752

>  <PUBCHEM_SHAPE_MULTIPOLES>  (1) 
97.03
1.46
1.26
0.77
0.19
0.01
-0.02
0.01
0.09
-0.63
0.04
0.17
0
0

>  <PUBCHEM_SHAPE_SELFOVERLAP>  (1) 
179.563

>  <PUBCHEM_SHAPE_VOLUME>  (1) 
63.8

>  <PUBCHEM_COORDINATE_TYPE>  (1) 
2
5
10

$$$$
