11204
     RDKit          3D

  4  3  0  0  0  0  0  0  0  0999 V2000
   -0.7363   -1.0955    0.0031 F   0  0  0  0  0  0  0  0  0  0  0  0
   -0.6749    1.0927    0.0037 O   0  0  0  0  0  0  0  0  0  0  0  0
    1.4505   -0.0464    0.0030 C   0  0  0  0  0  0  0  0  0  0  0  0
   -0.0393    0.0492   -0.0097 C   0  0  0  0  0  0  0  0  0  0  0  0
  1  4  1  0
  2  4  2  0
  3  4  1  0
M  END
>  <PUBCHEM_COMPOUND_CID>  (1) 
11204

>  <PUBCHEM_CONFORMER_RMSD>  (1) 
0.4

>  <PUBCHEM_CONFORMER_DIVERSEORDER>  (1) 
1

>  <PUBCHEM_MMFF94_PARTIAL_CHARGES>  (1) 
4
1 -0.22
2 -0.57
3 0.06
4 0.73

>  <PUBCHEM_EFFECTIVE_ROTOR_COUNT>  (1) 
0

>  <PUBCHEM_PHARMACOPHORE_FEATURES>  (1) 
0

>  <PUBCHEM_HEAVY_ATOM_COUNT>  (1) 
4

>  <PUBCHEM_ATOM_DEF_STEREO_COUNT>  (1) 
0

>  <PUBCHEM_ATOM_UDEF_STEREO_COUNT>  (1) 
0

>  <PUBCHEM_BOND_DEF_STEREO_COUNT>  (1) 
0

>  <PUBCHEM_BOND_UDEF_STEREO_COUNT>  (1) 
0

>  <PUBCHEM_ISOTOPIC_ATOM_COUNT>  (1) 
0

>  <PUBCHEM_COMPONENT_COUNT>  (1) 
1

>  <PUBCHEM_CACTVS_TAUTO_COUNT>  (1) 
1

>  <PUBCHEM_CONFORMER_ID>  (1) 
00002BC400000001

>  <PUBCHEM_MMFF94_ENERGY>  (1) 
0.5867

>  <PUBCHEM_FEATURE_SELFOVERLAP>  (1) 
0

>  <PUBCHEM_SHAPE_FINGERPRINT>  (1) 
139733 1 9294475804671847490
20096714 4 18193558852867104048
21015797 1 9727097329090508524
5943 1 12777660914026548964

>  <PUBCHEM_SHAPE_MULTIPOLES>  (1) 
69.18
1.37
1.04
0.56
0.58
0.08
0
-0.06
0
-0.35
0
0.05
-0.01
0

>  <PUBCHEM_SHAPE_SELFOVERLAP>  (1) 
118.806

>  <PUBCHEM_SHAPE_VOLUME>  (1) 
46.8

>  <PUBCHEM_COORDINATE_TYPE>  (1) 
2
5
10

$$$$
