11216
     RDKit          3D

  8  7  0  0  0  0  0  0  0  0999 V2000
    0.3214   -0.5271   -0.0765 C   0  0  0  0  0  0  0  0  0  0  0  0
    1.4163    0.4598   -0.5823 C   0  0  0  0  0  0  0  0  0  0  0  0
   -1.0424    0.1770    0.1036 C   0  0  0  0  0  0  0  0  0  0  0  0
    0.8353   -1.2110    1.2158 C   0  0  0  0  0  0  0  0  0  0  0  0
    0.1712   -1.6514   -1.1296 C   0  0  0  0  0  0  0  0  0  0  0  0
    1.6668    1.6714    0.3101 C   0  0  0  0  0  0  0  0  0  0  0  0
   -1.6358    0.8750   -1.0992 C   0  0  0  0  0  0  0  0  0  0  0  0
   -1.7328    0.2063    1.2580 C   0  0  0  0  0  0  0  0  0  0  0  0
  1  2  1  0
  1  3  1  0
  1  4  1  0
  1  5  1  0
  2  6  1  0
  3  7  1  0
  3  8  2  0
M  END
>  <PUBCHEM_COMPOUND_CID>  (1) 
11216

>  <PUBCHEM_CONFORMER_RMSD>  (1) 
0.4

>  <PUBCHEM_CONFORMER_DIVERSEORDER>  (1) 
1
4
6
3
8
7
5
2
9

>  <PUBCHEM_MMFF94_PARTIAL_CHARGES>  (1) 
6
1 0.14
23 0.15
24 0.15
3 -0.28
7 0.14
8 -0.3

>  <PUBCHEM_EFFECTIVE_ROTOR_COUNT>  (1) 
2

>  <PUBCHEM_PHARMACOPHORE_FEATURES>  (1) 
2
1 6 hydrophobe
3 1 4 5 hydrophobe

>  <PUBCHEM_HEAVY_ATOM_COUNT>  (1) 
8

>  <PUBCHEM_ATOM_DEF_STEREO_COUNT>  (1) 
0

>  <PUBCHEM_ATOM_UDEF_STEREO_COUNT>  (1) 
0

>  <PUBCHEM_BOND_DEF_STEREO_COUNT>  (1) 
0

>  <PUBCHEM_BOND_UDEF_STEREO_COUNT>  (1) 
0

>  <PUBCHEM_ISOTOPIC_ATOM_COUNT>  (1) 
0

>  <PUBCHEM_COMPONENT_COUNT>  (1) 
1

>  <PUBCHEM_CACTVS_TAUTO_COUNT>  (1) 
1

>  <PUBCHEM_CONFORMER_ID>  (1) 
00002BD000000001

>  <PUBCHEM_MMFF94_ENERGY>  (1) 
16.5226

>  <PUBCHEM_FEATURE_SELFOVERLAP>  (1) 
10.149

>  <PUBCHEM_SHAPE_FINGERPRINT>  (1) 
13024252 1 16664558479803632812
137420 1 10625064506887578375
21040471 1 18058466463282779736
24536 1 18056762035692028467
29004967 10 17694812651582332534
5084963 1 18189629387129627724
54338 74 17034700359011258052
5943 1 8746686445929251850

>  <PUBCHEM_SHAPE_MULTIPOLES>  (1) 
164.64
2.16
1.66
1.37
0.33
0.12
0.11
-0.97
0.18
-0.67
-0.17
0.33
0.27
0.09

>  <PUBCHEM_SHAPE_SELFOVERLAP>  (1) 
299.963

>  <PUBCHEM_SHAPE_VOLUME>  (1) 
109

>  <PUBCHEM_COORDINATE_TYPE>  (1) 
2
5
10

$$$$
