11214
     RDKit          2D

 39 44  0  0  1  0  0  0  0  0999 V2000
    0.0000    0.0000    0.0000 O   0  0  0  0  0  0  0  0  0  0  0  0
    0.0000    0.0000    0.0000 O   0  0  0  0  0  0  0  0  0  0  0  0
    0.0000    0.0000    0.0000 O   0  0  0  0  0  0  0  0  0  0  0  0
    0.0000    0.0000    0.0000 O   0  0  0  0  0  0  0  0  0  0  0  0
    0.0000    0.0000    0.0000 O   0  0  0  0  0  0  0  0  0  0  0  0
    0.0000    0.0000    0.0000 O   0  0  0  0  0  0  0  0  0  0  0  0
    0.0000    0.0000    0.0000 O   0  0  0  0  0  0  0  0  0  0  0  0
    0.0000    0.0000    0.0000 O   0  0  0  0  0  0  0  0  0  0  0  0
    0.0000    0.0000    0.0000 O   0  0  0  0  0  0  0  0  0  0  0  0
    0.0000    0.0000    0.0000 C   0  0  0  0  0  0  0  0  0  0  0  0
    0.0000    0.0000    0.0000 C   0  0  0  0  0  0  0  0  0  0  0  0
    0.0000    0.0000    0.0000 C   0  0  0  0  0  0  0  0  0  0  0  0
    0.0000    0.0000    0.0000 C   0  0  0  0  0  0  0  0  0  0  0  0
    0.0000    0.0000    0.0000 C   0  0  0  0  0  0  0  0  0  0  0  0
    0.0000    0.0000    0.0000 C   0  0  0  0  0  0  0  0  0  0  0  0
    0.0000    0.0000    0.0000 C   0  0  0  0  0  0  0  0  0  0  0  0
    0.0000    0.0000    0.0000 C   0  0  0  0  0  0  0  0  0  0  0  0
    0.0000    0.0000    0.0000 C   0  0  0  0  0  0  0  0  0  0  0  0
    0.0000    0.0000    0.0000 C   0  0  0  0  0  0  0  0  0  0  0  0
    0.0000    0.0000    0.0000 C   0  0  0  0  0  0  0  0  0  0  0  0
    0.0000    0.0000    0.0000 C   0  0  0  0  0  0  0  0  0  0  0  0
    0.0000    0.0000    0.0000 C   0  0  0  0  0  0  0  0  0  0  0  0
    0.0000    0.0000    0.0000 C   0  0  0  0  0  0  0  0  0  0  0  0
    0.0000    0.0000    0.0000 C   0  0  0  0  0  0  0  0  0  0  0  0
    0.0000    0.0000    0.0000 C   0  0  0  0  0  0  0  0  0  0  0  0
    0.0000    0.0000    0.0000 C   0  0  0  0  0  0  0  0  0  0  0  0
    0.0000    0.0000    0.0000 C   0  0  0  0  0  0  0  0  0  0  0  0
    0.0000    0.0000    0.0000 C   0  0  0  0  0  0  0  0  0  0  0  0
    0.0000    0.0000    0.0000 C   0  0  0  0  0  0  0  0  0  0  0  0
    0.0000    0.0000    0.0000 C   0  0  0  0  0  0  0  0  0  0  0  0
    0.0000    0.0000    0.0000 C   0  0  0  0  0  0  0  0  0  0  0  0
    0.0000    0.0000    0.0000 C   0  0  0  0  0  0  0  0  0  0  0  0
    0.0000    0.0000    0.0000 C   0  0  0  0  0  0  0  0  0  0  0  0
    0.0000    0.0000    0.0000 C   0  0  0  0  0  0  0  0  0  0  0  0
    0.0000    0.0000    0.0000 C   0  0  0  0  0  0  0  0  0  0  0  0
    0.0000    0.0000    0.0000 C   0  0  0  0  0  0  0  0  0  0  0  0
    0.0000    0.0000    0.0000 C   0  0  0  0  0  0  0  0  0  0  0  0
    0.0000    0.0000    0.0000 C   0  0  0  0  0  0  0  0  0  0  0  0
    0.0000    0.0000    0.0000 C   0  0  0  0  0  0  0  0  0  0  0  0
  1 10  1  0
  2 19  1  0
  3 21  2  0
  4 28  1  0
  4 32  1  0
  5 30  1  0
  5 33  1  0
  6 32  1  0
  6 36  1  0
  7 33  2  0
  8 35  1  0
  8 39  1  0
  9 37  1  0
 10 11  1  0
 10 12  1  0
 10 17  1  0
 11 13  1  0
 11 18  1  0
 12 16  1  0
 12 19  1  0
 12 25  1  0
 13 14  1  0
 13 21  1  0
 14 15  1  0
 14 23  1  0
 14 26  1  0
 15 20  1  0
 15 24  1  0
 16 22  1  0
 16 29  1  0
 17 22  1  0
 18 20  1  0
 19 21  1  0
 23 27  1  0
 24 28  1  0
 27 28  1  0
 29 30  1  0
 29 31  2  0
 31 33  1  0
 32 34  1  0
 34 35  1  0
 35 37  1  0
 36 37  1  0
 36 38  1  0
M  END
>  <PUBCHEM_COMPOUND_CID>  (1) 
11214

>  <PUBCHEM_CONFORMER_RMSD>  (1) 
1

>  <PUBCHEM_CONFORMER_DIVERSEORDER>  (1) 
91
223
5
92
125
28
208
196
70
32
185
215
182
117
81
113
231
243
132
222
133
128
225
59
126
58
175
205
45
227
216
48
212
195
53
235
158
150
186
157
210
240
110
124
116
143
236
142
111
6
93
228
187
160
46
193
100
34
168
163
207
63
164
152
233
237
62
55
25
51
39
24
162
173
181
21
64
239
30
213
65
159
82
230
232
41
26
108
56
129
217
118
19
115
151
9
171
131
244
122
214
86
141
12
167
14
112
165
189
102
176
73
35
107
138
248
178
170
8
247
134
37
120
202
75
137
206
57
172
15
148
194
238
94
123
38
16
97
50
192
105
29
36
68
95
7
27
1
67
166
229
80
190
52
169
147
224
99
149
242
40
174
71
246
3
145
49
250
219
74
245
156
2
249
18
198
11
234
154
87
47
114
220
136
85
20
241
104
119
200
103
191
60
140
90
197
43
44
109
4
84
61
209
42
121
76
153
204
96
251
106
203
101
127
179
199
54
89
13
135
66
83
69
72
218
33
31
79
155
177
88
130
144
10
78
146
77
161
22
184
139
211
180
226
17
98
183
23
221
201
188

>  <PUBCHEM_MMFF94_PARTIAL_CHARGES>  (1) 
28
1 -0.68
10 0.28
13 0.06
16 0.14
19 0.34
2 -0.68
21 0.45
28 0.28
29 -0.28
3 -0.57
30 0.42
31 -0.14
32 0.56
33 0.71
35 0.28
36 0.28
37 0.28
39 0.28
4 -0.56
5 -0.43
6 -0.56
66 0.4
67 0.4
7 -0.57
70 0.15
8 -0.56
80 0.4
9 -0.68

>  <PUBCHEM_EFFECTIVE_ROTOR_COUNT>  (1) 
7.6

>  <PUBCHEM_PHARMACOPHORE_FEATURES>  (1) 
17
1 1 acceptor
1 1 donor
1 2 acceptor
1 2 donor
1 3 acceptor
1 4 acceptor
1 6 acceptor
1 7 acceptor
1 8 acceptor
1 9 acceptor
1 9 donor
5 10 12 16 17 22 rings
5 5 29 30 31 33 rings
6 10 11 12 13 19 21 rings
6 11 13 14 15 18 20 rings
6 14 15 23 24 27 28 rings
6 6 32 34 35 36 37 rings

>  <PUBCHEM_HEAVY_ATOM_COUNT>  (1) 
39

>  <PUBCHEM_ATOM_DEF_STEREO_COUNT>  (1) 
9

>  <PUBCHEM_ATOM_UDEF_STEREO_COUNT>  (1) 
4

>  <PUBCHEM_BOND_DEF_STEREO_COUNT>  (1) 
0

>  <PUBCHEM_BOND_UDEF_STEREO_COUNT>  (1) 
0

>  <PUBCHEM_ISOTOPIC_ATOM_COUNT>  (1) 
0

>  <PUBCHEM_COMPONENT_COUNT>  (1) 
1

>  <PUBCHEM_CACTVS_TAUTO_COUNT>  (1) 
4

$$$$
