11219
     RDKit          3D

 29 33  0  0  1  0  0  0  0  0999 V2000
    1.8238   -1.4650    0.4759 O   0  0  0  0  0  0  0  0  0  0  0  0
   -4.6332   -1.2264    0.9707 O   0  0  0  0  0  0  0  0  0  0  0  0
   -4.1336    0.4331    2.6167 O   0  0  0  0  0  0  0  0  0  0  0  0
   -5.9669   -0.1651   -1.2584 O   0  0  0  0  0  0  0  0  0  0  0  0
    6.2367    0.4898    0.5625 O   0  0  0  0  0  0  0  0  0  0  0  0
    6.6099   -1.7777    0.4394 O   0  0  0  0  0  0  0  0  0  0  0  0
   -0.4354   -0.5891    0.4404 C   0  0  0  0  0  0  0  0  0  0  0  0
    1.0044   -0.4563   -0.1325 C   0  0  0  0  0  0  0  0  0  0  0  0
   -1.3882    0.5579   -0.0007 C   0  0  0  0  0  0  0  0  0  0  0  0
    1.6390    0.9465    0.0703 C   0  0  0  0  0  0  0  0  0  0  0  0
   -2.8419    0.4039    0.6074 C   0  0  0  0  0  0  0  0  0  0  0  0
   -3.4102   -1.0162    0.2467 C   0  0  0  0  0  0  0  0  0  0  0  0
   -0.7353    1.9254    0.2816 C   0  0  0  0  0  0  0  0  0  0  0  0
    0.6401    2.0510   -0.3711 C   0  0  0  0  0  0  0  0  0  0  0  0
    2.8454    0.9429   -0.9233 C   0  0  0  0  0  0  0  0  0  0  0  0
   -1.0367   -1.9723    0.1280 C   0  0  0  0  0  0  0  0  0  0  0  0
    1.1154   -0.6752   -1.6512 C   0  0  0  0  0  0  0  0  0  0  0  0
   -2.4468   -2.1356    0.6798 C   0  0  0  0  0  0  0  0  0  0  0  0
    2.3882    0.0559   -2.0970 C   0  0  0  0  0  0  0  0  0  0  0  0
   -3.8239    1.4836    0.0561 C   0  0  0  0  0  0  0  0  0  0  0  0
   -3.7429   -1.1442   -1.2646 C   0  0  0  0  0  0  0  0  0  0  0  0
    2.0712    1.2239    1.5244 C   0  0  0  0  0  0  0  0  0  0  0  0
   -2.8184    0.6072    2.1487 C   0  0  0  0  0  0  0  0  0  0  0  0
   -4.1176    1.3526   -1.4379 C   0  0  0  0  0  0  0  0  0  0  0  0
   -4.6519   -0.0303   -1.7924 C   0  0  0  0  0  0  0  0  0  0  0  0
    4.1560    0.4407   -0.3910 C   0  0  0  0  0  0  0  0  0  0  0  0
    5.1618    1.3564    0.1847 C   0  0  0  0  0  0  0  0  0  0  0  0
    4.5799   -0.8199   -0.3607 C   0  0  0  0  0  0  0  0  0  0  0  0
    5.9110   -0.7977    0.2475 C   0  0  0  0  0  0  0  0  0  0  0  0
  1  8  1  0
  2 12  1  0
  3 23  1  0
  4 25  1  0
  5 27  1  0
  5 29  1  0
  6 29  2  0
  7  8  1  0
  7  9  1  0
  7 16  1  0
  8 10  1  0
  8 17  1  0
  9 11  1  0
  9 13  1  0
 10 14  1  0
 10 15  1  0
 10 22  1  0
 11 12  1  0
 11 20  1  0
 11 23  1  0
 12 18  1  0
 12 21  1  0
 13 14  1  0
 15 19  1  0
 15 26  1  0
 16 18  1  0
 17 19  1  0
 20 24  1  0
 21 25  1  0
 24 25  1  0
 26 27  1  0
 26 28  2  0
 28 29  1  0
M  END
>  <PUBCHEM_COMPOUND_CID>  (1) 
11219

>  <PUBCHEM_CONFORMER_RMSD>  (1) 
0.8

>  <PUBCHEM_CONFORMER_DIVERSEORDER>  (1) 
8
25
16
6
12
23
11
20
18
26
22
7
13
4
21
10
14
9
19
15
2
24
17
1
5
3

>  <PUBCHEM_MMFF94_PARTIAL_CHARGES>  (1) 
20
1 -0.68
12 0.28
15 0.14
2 -0.68
23 0.28
25 0.28
26 -0.28
27 0.42
28 -0.14
29 0.71
3 -0.68
4 -0.68
5 -0.43
57 0.4
58 0.4
6 -0.57
61 0.4
62 0.15
63 0.4
8 0.28

>  <PUBCHEM_EFFECTIVE_ROTOR_COUNT>  (1) 
4.6

>  <PUBCHEM_PHARMACOPHORE_FEATURES>  (1) 
14
1 1 acceptor
1 1 donor
1 2 acceptor
1 2 donor
1 3 acceptor
1 3 donor
1 4 acceptor
1 4 donor
1 6 acceptor
5 5 26 27 28 29 rings
5 8 10 15 17 19 rings
6 11 12 20 21 24 25 rings
6 7 8 9 10 13 14 rings
6 7 9 11 12 16 18 rings

>  <PUBCHEM_HEAVY_ATOM_COUNT>  (1) 
29

>  <PUBCHEM_ATOM_DEF_STEREO_COUNT>  (1) 
6

>  <PUBCHEM_ATOM_UDEF_STEREO_COUNT>  (1) 
2

>  <PUBCHEM_BOND_DEF_STEREO_COUNT>  (1) 
0

>  <PUBCHEM_BOND_UDEF_STEREO_COUNT>  (1) 
0

>  <PUBCHEM_ISOTOPIC_ATOM_COUNT>  (1) 
0

>  <PUBCHEM_COMPONENT_COUNT>  (1) 
1

>  <PUBCHEM_CACTVS_TAUTO_COUNT>  (1) 
1

>  <PUBCHEM_CONFORMER_ID>  (1) 
00002BD300000008

>  <PUBCHEM_MMFF94_ENERGY>  (1) 
110.1358

>  <PUBCHEM_FEATURE_SELFOVERLAP>  (1) 
71.354

>  <PUBCHEM_SHAPE_FINGERPRINT>  (1) 
10675989 125 16966034221411739525
11315181 36 17917991698040031472
11545043 162 16805611394641247448
11796584 16 17894625976807513482
12011746 2 18410283714145086924
12166972 35 17967816101865083245
12236239 1 18273212006157306670
12403260 363 17417808495392838816
12422481 6 17774445958756984622
12553582 1 18267326311760882557
12633257 1 18059585671862762368
12788726 201 18128529363256573257
13140716 1 18269006447195767640
13224815 77 18131075947849301957
13583140 156 18341608278367756342
13631057 29 14404887125073457397
13675066 3 17676214601856863536
13782708 43 17059787615981271086
13914758 101 18187636964817810253
14068700 675 16772938337802715997
14251758 9 17530683191306990406
14787075 74 14189286093422338030
14856354 85 14345800439406261074
15131766 46 17392518719180989533
15183329 4 15864066551389020358
15238133 3 14707485841677649959
15788980 27 17967257502771548044
1601671 61 13623524654509102724
17349148 13 18060143162701688280
17844677 252 15647345168586109316
17980427 23 17775294884116951953
18608769 82 18261110812254525407
18927931 339 18337684035183937566
19377110 9 16702306741035647454
19489759 90 18413103957117297356
200 152 17418091040248903333
20567600 75 18114178614799641318
21033648 29 17822564009960316273
21267235 1 18334304187890435138
21279426 13 18334572396214192046
21682296 61 17702673129820389110
21709351 56 16660366991075385982
22079108 93 14261343679102232230
22393880 68 17822561811189735699
23402539 116 18341892974364379772
23559900 14 18338506555691611344
3004659 81 18040431084559449390
34797466 226 15051736443055539920
3633792 109 18337099061071089991
4015057 19 18340762745004344048
4325135 7 13758071930643242446
5104073 3 18271533078198907450
5283173 99 18335129852503950540
59755656 215 18188206503715676966
59755656 520 14490187216113726193
6913067 236 17060333016223573140
7226269 152 18408324371898424592
7495541 125 17774995813371054824
9981440 41 17822008667200675795

>  <PUBCHEM_SHAPE_MULTIPOLES>  (1) 
561.59
13.14
1.93
1.72
10.66
0.11
-0.1
1.94
0.18
-0.11
-0.23
-1.82
-0.18
-0.05

>  <PUBCHEM_SHAPE_SELFOVERLAP>  (1) 
1221.913

>  <PUBCHEM_SHAPE_VOLUME>  (1) 
303.5

>  <PUBCHEM_COORDINATE_TYPE>  (1) 
2
5
10

$$$$
