11210
     RDKit          3D

  6  5  0  0  0  0  0  0  0  0999 V2000
   -0.4102    0.0016   -0.0001 C   0  0  0  0  0  0  0  0  0  0  0  0
   -1.1410   -0.4880    1.2626 C   0  0  0  0  0  0  0  0  0  0  0  0
   -1.1591   -0.5090   -1.2438 C   0  0  0  0  0  0  0  0  0  0  0  0
   -0.4341    1.5411   -0.0129 C   0  0  0  0  0  0  0  0  0  0  0  0
    0.9872   -0.5982   -0.0050 C   0  0  0  0  0  0  0  0  0  0  0  0
    2.1572    0.0525   -0.0008 C   0  0  0  0  0  0  0  0  0  0  0  0
  1  2  1  0
  1  3  1  0
  1  4  1  0
  1  5  1  0
  5  6  2  0
M  END
>  <PUBCHEM_COMPOUND_CID>  (1) 
11210

>  <PUBCHEM_CONFORMER_RMSD>  (1) 
0.4

>  <PUBCHEM_CONFORMER_DIVERSEORDER>  (1) 
1

>  <PUBCHEM_MMFF94_PARTIAL_CHARGES>  (1) 
6
1 0.14
16 0.15
17 0.15
18 0.15
5 -0.29
6 -0.3

>  <PUBCHEM_EFFECTIVE_ROTOR_COUNT>  (1) 
1

>  <PUBCHEM_PHARMACOPHORE_FEATURES>  (1) 
2
1 6 hydrophobe
4 1 2 3 4 hydrophobe

>  <PUBCHEM_HEAVY_ATOM_COUNT>  (1) 
6

>  <PUBCHEM_ATOM_DEF_STEREO_COUNT>  (1) 
0

>  <PUBCHEM_ATOM_UDEF_STEREO_COUNT>  (1) 
0

>  <PUBCHEM_BOND_DEF_STEREO_COUNT>  (1) 
0

>  <PUBCHEM_BOND_UDEF_STEREO_COUNT>  (1) 
0

>  <PUBCHEM_ISOTOPIC_ATOM_COUNT>  (1) 
0

>  <PUBCHEM_COMPONENT_COUNT>  (1) 
1

>  <PUBCHEM_CACTVS_TAUTO_COUNT>  (1) 
1

>  <PUBCHEM_CONFORMER_ID>  (1) 
00002BCA00000001

>  <PUBCHEM_MMFF94_ENERGY>  (1) 
10.5237

>  <PUBCHEM_FEATURE_SELFOVERLAP>  (1) 
10.15

>  <PUBCHEM_SHAPE_FINGERPRINT>  (1) 
137420 1 12198816948900650923
20096714 4 17833548998926433024
21040471 1 17698149656645810920
24536 1 18040718017933236554
29004967 10 18337390551404976531
5943 1 10948344844332088193

>  <PUBCHEM_SHAPE_MULTIPOLES>  (1) 
123.48
2.05
1.16
1.14
1.3
0.53
0.01
-0.23
-0.01
-0.21
-0.01
-0.6
-0.26
0

>  <PUBCHEM_SHAPE_SELFOVERLAP>  (1) 
220.072

>  <PUBCHEM_SHAPE_VOLUME>  (1) 
83.2

>  <PUBCHEM_COORDINATE_TYPE>  (1) 
2
5
10

$$$$
