11229
     RDKit          3D

  7  6  0  0  0  0  0  0  0  0999 V2000
   -0.0001   -0.4994    0.0002 C   0  0  0  0  0  0  0  0  0  0  0  0
    1.0128    0.3688    0.7948 C   0  0  0  0  0  0  0  0  0  0  0  0
   -1.0357    0.3446   -0.7914 C   0  0  0  0  0  0  0  0  0  0  0  0
    0.7490   -1.3998   -1.0051 C   0  0  0  0  0  0  0  0  0  0  0  0
   -0.7251   -1.4230    1.0022 C   0  0  0  0  0  0  0  0  0  0  0  0
    1.8797    1.3047   -0.0390 C   0  0  0  0  0  0  0  0  0  0  0  0
   -1.8806    1.3041    0.0382 C   0  0  0  0  0  0  0  0  0  0  0  0
  1  2  1  0
  1  3  1  0
  1  4  1  0
  1  5  1  0
  2  6  1  0
  3  7  1  0
M  END
>  <PUBCHEM_COMPOUND_CID>  (1) 
11229

>  <PUBCHEM_CONFORMER_RMSD>  (1) 
0.4

>  <PUBCHEM_CONFORMER_DIVERSEORDER>  (1) 
1
5
2
3
4

>  <PUBCHEM_MMFF94_PARTIAL_CHARGES>  (1) 
0

>  <PUBCHEM_EFFECTIVE_ROTOR_COUNT>  (1) 
2

>  <PUBCHEM_PHARMACOPHORE_FEATURES>  (1) 
3
1 6 hydrophobe
1 7 hydrophobe
3 1 4 5 hydrophobe

>  <PUBCHEM_HEAVY_ATOM_COUNT>  (1) 
7

>  <PUBCHEM_ATOM_DEF_STEREO_COUNT>  (1) 
0

>  <PUBCHEM_ATOM_UDEF_STEREO_COUNT>  (1) 
0

>  <PUBCHEM_BOND_DEF_STEREO_COUNT>  (1) 
0

>  <PUBCHEM_BOND_UDEF_STEREO_COUNT>  (1) 
0

>  <PUBCHEM_ISOTOPIC_ATOM_COUNT>  (1) 
0

>  <PUBCHEM_COMPONENT_COUNT>  (1) 
1

>  <PUBCHEM_CACTVS_TAUTO_COUNT>  (1) 
1

>  <PUBCHEM_CONFORMER_ID>  (1) 
00002BDD00000001

>  <PUBCHEM_MMFF94_ENERGY>  (1) 
11.8637

>  <PUBCHEM_FEATURE_SELFOVERLAP>  (1) 
15.225

>  <PUBCHEM_SHAPE_FINGERPRINT>  (1) 
137420 1 9907918651934600998
16714656 1 17836372922738266260
20096714 4 18339346488054140545
21040471 1 18342160189933584000
29004967 10 17483676698039111159
5084963 1 18119496964810949396
5943 1 14804991679384567718
68250623 7 18338782477222925478

>  <PUBCHEM_SHAPE_MULTIPOLES>  (1) 
144.06
2.08
1.74
1.08
0.01
0.17
0
-1.21
-0.01
0
0.01
0
0.34
0.35

>  <PUBCHEM_SHAPE_SELFOVERLAP>  (1) 
253.609

>  <PUBCHEM_SHAPE_VOLUME>  (1) 
98

>  <PUBCHEM_COORDINATE_TYPE>  (1) 
2
5
10

$$$$
