11228
     RDKit          3D

 17 16  0  0  1  0  0  0  0  0999 V2000
    1.0530   -0.6445   -0.6625 P   0  0  0  0  0  0  0  0  0  0  0  0
   -0.9818    0.6785    0.9098 P   0  0  0  0  0  0  0  0  0  0  0  0
    2.6432   -0.9186   -0.8377 O   0  0  0  0  0  0  0  0  0  0  0  0
   -1.3702   -0.8905    0.7777 O   0  0  0  0  0  0  0  0  0  0  0  0
   -1.4976    1.1759   -0.5460 O   0  0  0  0  0  0  0  0  0  0  0  0
    0.5180   -2.0609   -0.0760 O   0  0  0  0  0  0  0  0  0  0  0  0
    0.3526   -0.2421   -1.9331 O   0  0  0  0  0  0  0  0  0  0  0  0
    0.8101    0.5898    0.5750 N   0  0  0  0  0  0  0  0  0  0  0  0
    1.5359    0.1316    1.8284 C   0  0  0  0  0  0  0  0  0  0  0  0
    1.3859    1.8975    0.0708 C   0  0  0  0  0  0  0  0  0  0  0  0
    1.3838    1.1840    2.9049 C   0  0  0  0  0  0  0  0  0  0  0  0
    2.8517    1.7050   -0.2517 C   0  0  0  0  0  0  0  0  0  0  0  0
   -2.7380   -1.2127    0.9830 C   0  0  0  0  0  0  0  0  0  0  0  0
   -2.8982    1.3669   -0.6845 C   0  0  0  0  0  0  0  0  0  0  0  0
    3.0696   -1.8802   -1.7863 C   0  0  0  0  0  0  0  0  0  0  0  0
   -2.9219   -2.7068    0.8238 C   0  0  0  0  0  0  0  0  0  0  0  0
   -3.1961    1.8273   -2.0955 C   0  0  0  0  0  0  0  0  0  0  0  0
  1  3  1  0
  1  6  1  0
  1  7  2  0
  1  8  1  0
  2  4  1  0
  2  5  1  0
  2  8  1  0
  3 15  1  0
  4 13  1  0
  5 14  1  0
  8  9  1  0
  8 10  1  0
  9 11  1  0
 10 12  1  0
 13 16  1  0
 14 17  1  0
M  CHG  1   8   1
M  END
>  <PUBCHEM_COMPOUND_CID>  (1) 
11228

>  <PUBCHEM_CONFORMER_RMSD>  (1) 
0.8

>  <PUBCHEM_CONFORMER_DIVERSEORDER>  (1) 
1
22
23
8
21
7
9
17
16
4
15
12
6
20
18
5
10
11
3
24
2
13
19
14

>  <PUBCHEM_MMFF94_PARTIAL_CHARGES>  (1) 
14
1 1.75
10 0.5
13 0.28
14 0.28
15 0.28
2 0.55
28 0.5
3 -0.55
4 -0.38
5 -0.38
6 -0.77
7 -0.7
8 -0.86
9 0.5

>  <PUBCHEM_EFFECTIVE_ROTOR_COUNT>  (1) 
9

>  <PUBCHEM_PHARMACOPHORE_FEATURES>  (1) 
2
1 6 acceptor
1 7 acceptor

>  <PUBCHEM_HEAVY_ATOM_COUNT>  (1) 
17

>  <PUBCHEM_ATOM_DEF_STEREO_COUNT>  (1) 
0

>  <PUBCHEM_ATOM_UDEF_STEREO_COUNT>  (1) 
0

>  <PUBCHEM_BOND_DEF_STEREO_COUNT>  (1) 
0

>  <PUBCHEM_BOND_UDEF_STEREO_COUNT>  (1) 
0

>  <PUBCHEM_ISOTOPIC_ATOM_COUNT>  (1) 
0

>  <PUBCHEM_COMPONENT_COUNT>  (1) 
1

>  <PUBCHEM_CACTVS_TAUTO_COUNT>  (1) 
1

>  <PUBCHEM_CONFORMER_ID>  (1) 
00002BDC00000001

>  <PUBCHEM_MMFF94_ENERGY>  (1) 
40.1823

>  <PUBCHEM_FEATURE_SELFOVERLAP>  (1) 
10.16

>  <PUBCHEM_SHAPE_FINGERPRINT>  (1) 
11680611 10 17604691361600480177
12138202 97 17969509212480701535
12202030 40 18272379697593699803
12423570 1 11645489801049828074
12716301 132 18260817190139624275
13134695 92 17489585606802309634
14817 1 12478719439468805235
15219456 202 18412272752223219773
15852999 172 18122874639173085009
15881359 60 17768224054008885931
16945 1 18122355583658691602
18186145 218 18195514910223914573
19765921 60 15119237724894610865
20511035 2 18123435432767931400
20600515 1 18053095125927716266
20711985 344 17895201025762818379
21041028 32 17273162127384155106
22112679 90 16805314479330687647
23419403 2 18131351925020058018
23526113 38 18343014450380969996
23557571 272 18042969972645390883
23559900 14 18265623070420193318
2748010 2 18412263956014023117
298252 57 16953118425859564143
3060560 45 17537124010295462365
3286 77 17559692783177232235
68419 9 16950276304466379267
81228 2 17968388956556446761
88987 49 17895462666242835337

>  <PUBCHEM_SHAPE_MULTIPOLES>  (1) 
323.22
5.03
2.63
2.32
1.82
0.96
0.57
0.37
-1.63
0.82
-0.42
-0.53
-0.48
2.74

>  <PUBCHEM_SHAPE_SELFOVERLAP>  (1) 
575.073

>  <PUBCHEM_SHAPE_VOLUME>  (1) 
211.2

>  <PUBCHEM_COORDINATE_TYPE>  (1) 
2
5
10

$$$$
