1124
     RDKit          3D

 25 26  0  0  1  0  0  0  0  0999 V2000
    3.4290   -1.1487   -0.7388 P   0  0  0  0  0  0  0  0  0  0  0  0
    5.4585   -0.1575    1.1461 P   0  0  0  0  0  0  0  0  0  0  0  0
   -0.5420    0.4281   -0.1097 O   0  0  0  0  0  0  0  0  0  0  0  0
    0.3450    3.2536   -0.6337 O   0  0  0  0  0  0  0  0  0  0  0  0
    1.9036   -0.6512   -0.9431 O   0  0  0  0  0  0  0  0  0  0  0  0
   -3.8773    1.8572    1.8584 O   0  0  0  0  0  0  0  0  0  0  0  0
    3.9812   -0.2696    0.5007 O   0  0  0  0  0  0  0  0  0  0  0  0
    4.2260   -0.5406   -2.0085 O   0  0  0  0  0  0  0  0  0  0  0  0
   -6.0967   -1.9730    0.6124 O   0  0  0  0  0  0  0  0  0  0  0  0
    3.5874   -2.6309   -0.5605 O   0  0  0  0  0  0  0  0  0  0  0  0
    5.6996   -1.6296    1.7682 O   0  0  0  0  0  0  0  0  0  0  0  0
    5.2271    0.7704    2.4491 O   0  0  0  0  0  0  0  0  0  0  0  0
    6.5205    0.3190    0.1998 O   0  0  0  0  0  0  0  0  0  0  0  0
   -2.8482    0.4560    0.2996 N   0  0  0  0  0  0  0  0  0  0  0  0
   -4.9729   -0.0568    1.2286 N   0  0  0  0  0  0  0  0  0  0  0  0
   -0.3466    2.3450   -1.4817 C   0  0  0  0  0  0  0  0  0  0  0  0
    0.1293    0.9108   -1.2889 C   0  0  0  0  0  0  0  0  0  0  0  0
   -1.7818    2.2481   -1.0170 C   0  0  0  0  0  0  0  0  0  0  0  0
   -1.6773    1.2692    0.1441 C   0  0  0  0  0  0  0  0  0  0  0  0
    1.6264    0.7284   -1.1219 C   0  0  0  0  0  0  0  0  0  0  0  0
   -2.9440   -0.7217   -0.4344 C   0  0  0  0  0  0  0  0  0  0  0  0
   -3.8917    0.8301    1.1768 C   0  0  0  0  0  0  0  0  0  0  0  0
   -3.9801   -1.5681   -0.3825 C   0  0  0  0  0  0  0  0  0  0  0  0
   -5.1161   -1.2394    0.5190 C   0  0  0  0  0  0  0  0  0  0  0  0
   -4.0592   -2.8287   -1.1822 C   0  0  0  0  0  0  0  0  0  0  0  0
  1  5  1  0
  1  7  1  0
  1  8  1  0
  1 10  2  0
  2  7  1  0
  2 11  1  0
  2 12  1  0
  2 13  2  0
  3 17  1  0
  3 19  1  0
  4 16  1  0
  5 20  1  0
  6 22  2  0
  9 24  2  0
 14 19  1  0
 14 21  1  0
 14 22  1  0
 15 22  1  0
 15 24  1  0
 16 17  1  0
 16 18  1  0
 17 20  1  0
 18 19  1  0
 21 23  2  0
 23 24  1  0
 23 25  1  0
M  END
>  <PUBCHEM_COMPOUND_CID>  (1) 
1124

>  <PUBCHEM_CONFORMER_RMSD>  (1) 
1

>  <PUBCHEM_CONFORMER_DIVERSEORDER>  (1) 
1
461
149
257
328
396
235
170
286
94
6
266
115
99
401
31
460
403
264
337
47
193
96
323
270
393
161
220
151
238
292
27
368
342
207
255
45
348
37
186
355
195
326
338
366
387
49
391
451
303
237
92
313
232
411
452
54
35
276
227
230
160
307
280
441
120
154
172
225
185
16
140
440
317
169
346
50
26
57
260
205
89
365
447
107
11
117
288
134
456
19
378
421
148
427
212
281
55
226
41
30
370
263
25
243
122
262
463
175
373
184
428
349
259
70
296
429
335
359
312
267
245
125
339
282
183
374
131
233
389
362
314
209
298
347
127
198
279
284
371
34
425
188
415
23
73
133
397
308
251
455
21
80
358
379
158
385
442
116
77
426
4
274
87
341
375
289
390
229
62
197
150
321
301
86
174
420
166
331
383
173
32
424
336
327
196
119
52
199
38
357
190
377
272
164
412
201
215
414
364
376
319
291
249
333
7
407
450
384
268
33
325
13
265
59
398
113
162
408
171
454
283
88
153
118
354
353
234
180
386
18
310
111
252
462
224
244
432
211
242
29
136
142
165
206
394
176
409
315
20
223
395
123
138
269
9
430
250
181
287
345
78
112
300
258
240
413
28
340
83
40
168
129
65
247
61
42
437
100
372
436
309
51
306
124
453
356
273
64
114
444
146
22
294
208
200
97
152
334
380
177
187
404
144
189
418
93
277
302
24
79
15
295
422
128
417
293
104
253
446
400
254
5
76
299
137
406
46
459
213
256
155
69
139
75
311
14
419
285
159
367
382
130
121
91
344
103
363
275
203
329
17
214
231
351
217
399
105
332
457
241
44
388
350
261
316
58
369
48
433
163
106
431
228
343
156
443
320
126
102
210
147
85
405
410
141
98
56
63
423
109
192
108
71
222
53
202
248
10
416
157
219
361
439
72
8
145
218
167
143
290
304
246
68
278
360
179
297
204
324
95
305
110
2
191
216
438
271
392
236
84
448
221
239
43
318
178
182
36
12
132
458
445
60
449
194
322
81
3
82
39
352
381
434
90
330
101
67
135
66
402
74
435

>  <PUBCHEM_MMFF94_PARTIAL_CHARGES>  (1) 
30
1 1.51
10 -0.7
11 -0.77
12 -0.77
13 -0.7
14 -0.47
15 -0.49
16 0.28
17 0.28
19 0.58
2 1.51
20 0.28
21 -0.04
22 0.69
23 -0.12
24 0.62
25 0.14
3 -0.56
33 0.4
34 0.15
35 0.37
39 0.5
4 -0.68
40 0.5
41 0.5
5 -0.55
6 -0.57
7 -0.54
8 -0.77
9 -0.57

>  <PUBCHEM_EFFECTIVE_ROTOR_COUNT>  (1) 
7

>  <PUBCHEM_PHARMACOPHORE_FEATURES>  (1) 
14
1 10 acceptor
1 11 acceptor
1 12 acceptor
1 13 acceptor
1 15 donor
1 3 acceptor
1 4 acceptor
1 4 donor
1 6 acceptor
1 8 acceptor
1 9 acceptor
4 2 11 12 13 anion
5 3 16 17 18 19 rings
6 14 15 21 22 23 24 rings

>  <PUBCHEM_HEAVY_ATOM_COUNT>  (1) 
25

>  <PUBCHEM_ATOM_DEF_STEREO_COUNT>  (1) 
0

>  <PUBCHEM_ATOM_UDEF_STEREO_COUNT>  (1) 
3

>  <PUBCHEM_BOND_DEF_STEREO_COUNT>  (1) 
0

>  <PUBCHEM_BOND_UDEF_STEREO_COUNT>  (1) 
0

>  <PUBCHEM_ISOTOPIC_ATOM_COUNT>  (1) 
0

>  <PUBCHEM_COMPONENT_COUNT>  (1) 
1

>  <PUBCHEM_CACTVS_TAUTO_COUNT>  (1) 
3

>  <PUBCHEM_CONFORMER_ID>  (1) 
0000046400000001

>  <PUBCHEM_MMFF94_ENERGY>  (1) 
-0.3957

>  <PUBCHEM_FEATURE_SELFOVERLAP>  (1) 
71.102

>  <PUBCHEM_SHAPE_FINGERPRINT>  (1) 
10447042 23 16732702757782497534
10613725 11 8574437530269234216
11045977 3 17489594424159210521
11370993 144 17631737036887995990
12523318 42 18060143128827110515
12553582 1 18261685812925973551
12596602 18 17704079464525193570
12892183 10 17775011141492006173
13583140 156 17917698085348852052
13828863 39 16987704870224778928
13899415 180 17968090971451397501
14848178 5 16805317773950438210
14950920 106 17844809179300802786
15183329 4 10881671404427773634
17349148 13 17095528349100709738
1813 80 18114188540010354013
19377110 9 18334019397789549388
20567600 70 18041844050699547394
20621476 91 18335973238257042832
21756936 100 15410314651315394750
22061861 79 15285359526520684426
22393880 68 12251904819243776344
23559900 14 17272883981018207325
2838139 119 12463573967475589098
312425 54 18200886058304908395
339767 52 18408317792151068951
3459 110 17131539648048181411
5104073 3 18059012774738904386
56616090 89 18410856590116361589
57724786 102 13614252464003352556
59682541 52 13262667154022749802
7970288 3 18040155140926415859

>  <PUBCHEM_SHAPE_MULTIPOLES>  (1) 
447.66
14.9
2.84
1.79
11.09
0.37
0.48
-8.83
7.63
-2
-0.91
1.39
0.28
-0.73

>  <PUBCHEM_SHAPE_SELFOVERLAP>  (1) 
898.199

>  <PUBCHEM_SHAPE_VOLUME>  (1) 
264.5

>  <PUBCHEM_COORDINATE_TYPE>  (1) 
2
5
10

$$$$
