11242
     RDKit          3D

  5  4  0  0  1  0  0  0  0  0999 V2000
    1.4138   -1.3306   -0.0423 Cl  0  0  0  0  0  0  0  0  0  0  0  0
    0.4057    0.0985    0.3290 C   0  0  0  0  0  0  0  0  0  0  0  0
    1.1576    1.3665   -0.0545 C   0  0  0  0  0  0  0  0  0  0  0  0
   -0.8919   -0.0173   -0.4145 C   0  0  0  0  0  0  0  0  0  0  0  0
   -2.0853   -0.1171    0.1824 C   0  0  0  0  0  0  0  0  0  0  0  0
  1  2  1  0
  2  3  1  0
  2  4  1  0
  4  5  2  0
M  END
>  <PUBCHEM_COMPOUND_CID>  (1) 
11242

>  <PUBCHEM_CONFORMER_RMSD>  (1) 
0.4

>  <PUBCHEM_CONFORMER_DIVERSEORDER>  (1) 
1
2
3
4

>  <PUBCHEM_MMFF94_PARTIAL_CHARGES>  (1) 
7
1 -0.29
10 0.15
11 0.15
12 0.15
2 0.43
4 -0.29
5 -0.3

>  <PUBCHEM_EFFECTIVE_ROTOR_COUNT>  (1) 
1

>  <PUBCHEM_PHARMACOPHORE_FEATURES>  (1) 
1
1 5 hydrophobe

>  <PUBCHEM_HEAVY_ATOM_COUNT>  (1) 
5

>  <PUBCHEM_ATOM_DEF_STEREO_COUNT>  (1) 
0

>  <PUBCHEM_ATOM_UDEF_STEREO_COUNT>  (1) 
1

>  <PUBCHEM_BOND_DEF_STEREO_COUNT>  (1) 
0

>  <PUBCHEM_BOND_UDEF_STEREO_COUNT>  (1) 
0

>  <PUBCHEM_ISOTOPIC_ATOM_COUNT>  (1) 
0

>  <PUBCHEM_COMPONENT_COUNT>  (1) 
1

>  <PUBCHEM_CACTVS_TAUTO_COUNT>  (1) 
1

>  <PUBCHEM_CONFORMER_ID>  (1) 
00002BEA00000001

>  <PUBCHEM_MMFF94_ENERGY>  (1) 
1.3849

>  <PUBCHEM_FEATURE_SELFOVERLAP>  (1) 
5.074

>  <PUBCHEM_SHAPE_FINGERPRINT>  (1) 
139733 1 9006469737461057130
16714656 1 17475520477813178420
20096714 4 18197497530934838521
21040471 1 18050566549525547480
23552449 11 18261659411693407043
24536 1 18337093640547776145
29004967 10 18337391530726137346
5943 1 11058322043222535880

>  <PUBCHEM_SHAPE_MULTIPOLES>  (1) 
104.77
2.36
1.37
0.69
1.06
0.11
0.01
-0.38
-0.07
-0.92
0.03
0.02
-0.01
0.01

>  <PUBCHEM_SHAPE_SELFOVERLAP>  (1) 
173.094

>  <PUBCHEM_SHAPE_VOLUME>  (1) 
73.4

>  <PUBCHEM_COORDINATE_TYPE>  (1) 
2
5
10

$$$$
