11253
     RDKit          3D

  6  5  0  0  1  0  0  0  0  0999 V2000
    1.6099   -1.3771   -0.0002 Br  0  0  0  0  0  0  0  0  0  0  0  0
   -1.6843   -0.1366    0.8283 O   0  0  0  0  0  0  0  0  0  0  0  0
   -0.9435   -0.1030   -1.2422 O   0  0  0  0  0  0  0  0  0  0  0  0
   -0.7844   -0.0335   -0.0156 N   0  0  0  0  0  0  0  0  0  0  0  0
    0.6023    0.1960    0.5090 C   0  0  0  0  0  0  0  0  0  0  0  0
    1.2000    1.4543   -0.0793 C   0  0  0  0  0  0  0  0  0  0  0  0
  1  5  1  0
  2  4  1  0
  3  4  2  0
  4  5  1  0
  5  6  1  0
M  CHG  2   2  -1   4   1
M  END
>  <PUBCHEM_COMPOUND_CID>  (1) 
11253

>  <PUBCHEM_CONFORMER_RMSD>  (1) 
0.4

>  <PUBCHEM_CONFORMER_DIVERSEORDER>  (1) 
1
3
4
2

>  <PUBCHEM_MMFF94_PARTIAL_CHARGES>  (1) 
5
1 -0.23
2 -0.52
3 -0.52
4 0.8
5 0.47

>  <PUBCHEM_EFFECTIVE_ROTOR_COUNT>  (1) 
1

>  <PUBCHEM_PHARMACOPHORE_FEATURES>  (1) 
5
1 1 hydrophobe
1 2 acceptor
1 2 anion
1 3 acceptor
3 1 5 6 hydrophobe

>  <PUBCHEM_HEAVY_ATOM_COUNT>  (1) 
6

>  <PUBCHEM_ATOM_DEF_STEREO_COUNT>  (1) 
0

>  <PUBCHEM_ATOM_UDEF_STEREO_COUNT>  (1) 
1

>  <PUBCHEM_BOND_DEF_STEREO_COUNT>  (1) 
0

>  <PUBCHEM_BOND_UDEF_STEREO_COUNT>  (1) 
0

>  <PUBCHEM_ISOTOPIC_ATOM_COUNT>  (1) 
0

>  <PUBCHEM_COMPONENT_COUNT>  (1) 
1

>  <PUBCHEM_CACTVS_TAUTO_COUNT>  (1) 
2

>  <PUBCHEM_CONFORMER_ID>  (1) 
00002BF500000001

>  <PUBCHEM_MMFF94_ENERGY>  (1) 
6.6796

>  <PUBCHEM_FEATURE_SELFOVERLAP>  (1) 
26.372

>  <PUBCHEM_SHAPE_FINGERPRINT>  (1) 
139733 1 8862071975118422010
20096714 4 17986403384413476384
24536 1 18335405889924924465
29004967 10 18336550404515505098
5943 1 11014451876987237140

>  <PUBCHEM_SHAPE_MULTIPOLES>  (1) 
112.7
2.06
1.41
0.94
0.05
0.52
-0.15
-0.77
0.14
0.78
-0.04
-0.29
-0.09
0.03

>  <PUBCHEM_SHAPE_SELFOVERLAP>  (1) 
189.576

>  <PUBCHEM_SHAPE_VOLUME>  (1) 
78.9

>  <PUBCHEM_COORDINATE_TYPE>  (1) 
2
5
10

$$$$
