11258
     RDKit          3D

 13 14  0  0  0  0  0  0  0  0999 V2000
   -2.0629   -0.4439    1.4694 S   0  0  0  0  0  0  0  0  0  0  0  0
   -2.0976    0.6311   -1.3355 S   0  0  0  0  0  0  0  0  0  0  0  0
    4.2695    0.5446    0.1520 F   0  0  0  0  0  0  0  0  0  0  0  0
   -1.2664   -0.5691   -0.1999 C   0  0  0  0  0  0  0  0  0  0  0  0
    0.2301   -0.2683   -0.1041 C   0  0  0  0  0  0  0  0  0  0  0  0
   -3.1800    0.9352    1.0978 C   0  0  0  0  0  0  0  0  0  0  0  0
   -3.6020    0.8354   -0.3527 C   0  0  0  0  0  0  0  0  0  0  0  0
   -1.6252   -1.9711   -0.7268 C   0  0  0  0  0  0  0  0  0  0  0  0
    1.1344   -1.3013    0.1394 C   0  0  0  0  0  0  0  0  0  0  0  0
    0.6888    1.0392   -0.2609 C   0  0  0  0  0  0  0  0  0  0  0  0
    2.4991   -1.0266    0.2262 C   0  0  0  0  0  0  0  0  0  0  0  0
    2.0536    1.3139   -0.1742 C   0  0  0  0  0  0  0  0  0  0  0  0
    2.9588    0.2810    0.0693 C   0  0  0  0  0  0  0  0  0  0  0  0
  1  4  1  0
  1  6  1  0
  2  4  1  0
  2  7  1  0
  3 13  1  0
  4  5  1  0
  4  8  1  0
  5  9  2  0
  5 10  1  0
  6  7  1  0
  9 11  1  0
 10 12  2  0
 11 13  2  0
 12 13  1  0
M  END
>  <PUBCHEM_COMPOUND_CID>  (1) 
11258

>  <PUBCHEM_CONFORMER_RMSD>  (1) 
0.6

>  <PUBCHEM_CONFORMER_DIVERSEORDER>  (1) 
2
1

>  <PUBCHEM_MMFF94_PARTIAL_CHARGES>  (1) 
16
1 -0.46
10 -0.15
11 -0.15
12 -0.15
13 0.19
2 -0.46
21 0.15
22 0.15
23 0.15
24 0.15
3 -0.19
4 0.6
5 -0.14
6 0.23
7 0.23
9 -0.15

>  <PUBCHEM_EFFECTIVE_ROTOR_COUNT>  (1) 
2

>  <PUBCHEM_PHARMACOPHORE_FEATURES>  (1) 
2
5 1 2 4 6 7 rings
6 5 9 10 11 12 13 rings

>  <PUBCHEM_HEAVY_ATOM_COUNT>  (1) 
13

>  <PUBCHEM_ATOM_DEF_STEREO_COUNT>  (1) 
0

>  <PUBCHEM_ATOM_UDEF_STEREO_COUNT>  (1) 
0

>  <PUBCHEM_BOND_DEF_STEREO_COUNT>  (1) 
0

>  <PUBCHEM_BOND_UDEF_STEREO_COUNT>  (1) 
0

>  <PUBCHEM_ISOTOPIC_ATOM_COUNT>  (1) 
0

>  <PUBCHEM_COMPONENT_COUNT>  (1) 
1

>  <PUBCHEM_CACTVS_TAUTO_COUNT>  (1) 
1

>  <PUBCHEM_CONFORMER_ID>  (1) 
00002BFA00000002

>  <PUBCHEM_MMFF94_ENERGY>  (1) 
34.189

>  <PUBCHEM_FEATURE_SELFOVERLAP>  (1) 
10.149

>  <PUBCHEM_SHAPE_FINGERPRINT>  (1) 
10980938 120 18335985276828983210
11132069 177 18410847781312290008
11471102 20 18335978679769694716
12119455 92 18334571301118642845
12251169 10 18187657920116091769
124424 183 17749380443137797064
12491281 212 18343586230760615753
12696612 119 17968387843416190100
12932764 1 18187079563977939894
13024252 1 16008741429654268303
13214271 11 17822294612499707085
13380535 21 18409174311239588614
13581323 91 15140680276073427784
14144814 61 18342175548704758625
14897335 6 18342171167827710119
14993402 34 18202561752785605429
15219456 202 17968096378329561994
15309172 13 18411422778432731191
15653759 3 17095527283505734545
15775835 57 18411699889553760253
16945 1 18337946801277806004
17844478 74 17603591789890771109
18186145 218 18200596886910034453
18534176 82 14333403454593201637
19049666 15 17387969764312765979
200 152 18342730867118700967
20201158 50 18113900433561628153
20279233 1 17603587408986939443
20645464 45 17675926486760291753
20645477 70 18263914445575619023
21501502 16 18262517129526104126
23402539 116 17203602684200323453
23402655 69 18339627955005387181
23557571 272 14404313162929246907
2748010 2 18334573559939202710
305870 269 17985838029726424227
3248919 1 17561365088780897014
5084963 1 18195521721514148358
528886 8 18411974767455448938
63268167 104 18411697668897373736
69090 78 18335977619382329367
74978 22 18201437020983266644
77492 1 17632007551255840583
8030462 33 16702302334367670118

>  <PUBCHEM_SHAPE_MULTIPOLES>  (1) 
267.96
6
1.57
1.14
2.24
0.41
-0.13
-1.73
-0.73
-0.09
0.22
-1.1
0.02
-0.09

>  <PUBCHEM_SHAPE_SELFOVERLAP>  (1) 
534.34

>  <PUBCHEM_SHAPE_VOLUME>  (1) 
161.9

>  <PUBCHEM_COORDINATE_TYPE>  (1) 
2
5
10

$$$$
