11265
     RDKit          3D

  7  6  0  0  0  0  0  0  0  0999 V2000
    0.4196   -1.1757    0.7572 O   0  0  0  0  0  0  0  0  0  0  0  0
   -1.1327    0.2821   -0.3792 C   0  0  0  0  0  0  0  0  0  0  0  0
    0.2592   -0.1927    0.0336 C   0  0  0  0  0  0  0  0  0  0  0  0
    1.4298    0.6345   -0.4756 C   0  0  0  0  0  0  0  0  0  0  0  0
   -1.6624    1.2775    0.6461 C   0  0  0  0  0  0  0  0  0  0  0  0
   -2.0867   -0.8990   -0.5376 C   0  0  0  0  0  0  0  0  0  0  0  0
    2.7731    0.0733   -0.0446 C   0  0  0  0  0  0  0  0  0  0  0  0
  1  3  2  0
  2  3  1  0
  2  5  1  0
  2  6  1  0
  3  4  1  0
  4  7  1  0
M  END
>  <PUBCHEM_COMPOUND_CID>  (1) 
11265

>  <PUBCHEM_CONFORMER_RMSD>  (1) 
0.4

>  <PUBCHEM_CONFORMER_DIVERSEORDER>  (1) 
1
18
12
6
8
19
2
11
10
16
15
13
4
3
14
20
17
7
5
9

>  <PUBCHEM_MMFF94_PARTIAL_CHARGES>  (1) 
4
1 -0.57
2 0.06
3 0.45
4 0.06

>  <PUBCHEM_EFFECTIVE_ROTOR_COUNT>  (1) 
2

>  <PUBCHEM_PHARMACOPHORE_FEATURES>  (1) 
3
1 1 acceptor
1 7 hydrophobe
3 2 5 6 hydrophobe

>  <PUBCHEM_HEAVY_ATOM_COUNT>  (1) 
7

>  <PUBCHEM_ATOM_DEF_STEREO_COUNT>  (1) 
0

>  <PUBCHEM_ATOM_UDEF_STEREO_COUNT>  (1) 
0

>  <PUBCHEM_BOND_DEF_STEREO_COUNT>  (1) 
0

>  <PUBCHEM_BOND_UDEF_STEREO_COUNT>  (1) 
0

>  <PUBCHEM_ISOTOPIC_ATOM_COUNT>  (1) 
0

>  <PUBCHEM_COMPONENT_COUNT>  (1) 
1

>  <PUBCHEM_CACTVS_TAUTO_COUNT>  (1) 
3

>  <PUBCHEM_CONFORMER_ID>  (1) 
00002C0100000001

>  <PUBCHEM_MMFF94_ENERGY>  (1) 
3.7097

>  <PUBCHEM_FEATURE_SELFOVERLAP>  (1) 
15.223

>  <PUBCHEM_SHAPE_FINGERPRINT>  (1) 
14390081 3 18131066022127334856
15310529 11 17418375813554717092
16714656 1 17917430968695335631
20096714 4 18337959982416600580
21040471 1 17914897526406652193
23552423 10 18337395950395288438
24536 1 17986940873932317493
29004967 10 13973972029557355974
5084963 1 18187359965117868148
5460574 1 9583527520520590796

>  <PUBCHEM_SHAPE_MULTIPOLES>  (1) 
138.19
3.33
1.19
0.82
1.5
0.1
0.03
0.08
-0.27
-0.61
0.17
-0.06
-0.03
-0.39

>  <PUBCHEM_SHAPE_SELFOVERLAP>  (1) 
247.441

>  <PUBCHEM_SHAPE_VOLUME>  (1) 
90.8

>  <PUBCHEM_COORDINATE_TYPE>  (1) 
2
5
10

$$$$
