11260
     RDKit          3D

  7  6  0  0  1  0  0  0  0  0999 V2000
   -0.2411    0.5974    0.3144 C   0  0  0  0  0  0  0  0  0  0  0  0
    0.7775   -0.5720    0.1909 C   0  0  0  0  0  0  0  0  0  0  0  0
   -1.6448    0.2672   -0.2410 C   0  0  0  0  0  0  0  0  0  0  0  0
    0.2496    1.8996   -0.3340 C   0  0  0  0  0  0  0  0  0  0  0  0
    1.0668   -0.9941   -1.2521 C   0  0  0  0  0  0  0  0  0  0  0  0
    2.0969   -0.2606    0.9080 C   0  0  0  0  0  0  0  0  0  0  0  0
   -2.3049   -0.9376    0.4138 C   0  0  0  0  0  0  0  0  0  0  0  0
  1  2  1  0
  1  3  1  0
  1  4  1  0
  2  5  1  0
  2  6  1  0
  3  7  1  0
M  END
>  <PUBCHEM_COMPOUND_CID>  (1) 
11260

>  <PUBCHEM_CONFORMER_RMSD>  (1) 
0.4

>  <PUBCHEM_CONFORMER_DIVERSEORDER>  (1) 
1
7
11
8
5
3
6
4
10
9
2

>  <PUBCHEM_MMFF94_PARTIAL_CHARGES>  (1) 
0

>  <PUBCHEM_EFFECTIVE_ROTOR_COUNT>  (1) 
2

>  <PUBCHEM_PHARMACOPHORE_FEATURES>  (1) 
3
1 4 hydrophobe
1 7 hydrophobe
3 2 5 6 hydrophobe

>  <PUBCHEM_HEAVY_ATOM_COUNT>  (1) 
7

>  <PUBCHEM_ATOM_DEF_STEREO_COUNT>  (1) 
0

>  <PUBCHEM_ATOM_UDEF_STEREO_COUNT>  (1) 
1

>  <PUBCHEM_BOND_DEF_STEREO_COUNT>  (1) 
0

>  <PUBCHEM_BOND_UDEF_STEREO_COUNT>  (1) 
0

>  <PUBCHEM_ISOTOPIC_ATOM_COUNT>  (1) 
0

>  <PUBCHEM_COMPONENT_COUNT>  (1) 
1

>  <PUBCHEM_CACTVS_TAUTO_COUNT>  (1) 
1

>  <PUBCHEM_CONFORMER_ID>  (1) 
00002BFC00000001

>  <PUBCHEM_MMFF94_ENERGY>  (1) 
7.3505

>  <PUBCHEM_FEATURE_SELFOVERLAP>  (1) 
15.228

>  <PUBCHEM_SHAPE_FINGERPRINT>  (1) 
10857977 72 18337935870612411728
21040471 1 17398954873116552028
23552449 11 18262800803863634907
24536 1 18272377472816308705
29004967 10 18343021086073715827
5943 1 11980674061051214300

>  <PUBCHEM_SHAPE_MULTIPOLES>  (1) 
144.06
2.66
1.52
1.03
0.83
0.73
0.17
-0.96
-0.6
-0.02
0.27
-0.42
-0.24
0.22

>  <PUBCHEM_SHAPE_SELFOVERLAP>  (1) 
250.591

>  <PUBCHEM_SHAPE_VOLUME>  (1) 
98.1

>  <PUBCHEM_COORDINATE_TYPE>  (1) 
2
5
10

$$$$
