11269
     RDKit          3D

  8  7  0  0  0  0  0  0  0  0999 V2000
    0.0203   -0.4305    0.3308 C   0  0  0  0  0  0  0  0  0  0  0  0
   -1.2514    0.4632    0.1736 C   0  0  0  0  0  0  0  0  0  0  0  0
    1.3235    0.2337   -0.2251 C   0  0  0  0  0  0  0  0  0  0  0  0
   -0.1817   -1.8298   -0.2769 C   0  0  0  0  0  0  0  0  0  0  0  0
   -1.6123    0.7700   -1.2823 C   0  0  0  0  0  0  0  0  0  0  0  0
   -2.4721   -0.1286    0.8907 C   0  0  0  0  0  0  0  0  0  0  0  0
    1.6199    1.5891    0.4297 C   0  0  0  0  0  0  0  0  0  0  0  0
    2.5539   -0.6671   -0.0406 C   0  0  0  0  0  0  0  0  0  0  0  0
  1  2  1  0
  1  3  1  0
  1  4  1  0
  2  5  1  0
  2  6  1  0
  3  7  1  0
  3  8  1  0
M  END
>  <PUBCHEM_COMPOUND_CID>  (1) 
11269

>  <PUBCHEM_CONFORMER_RMSD>  (1) 
0.4

>  <PUBCHEM_CONFORMER_DIVERSEORDER>  (1) 
1
3
2

>  <PUBCHEM_MMFF94_PARTIAL_CHARGES>  (1) 
0

>  <PUBCHEM_EFFECTIVE_ROTOR_COUNT>  (1) 
2

>  <PUBCHEM_PHARMACOPHORE_FEATURES>  (1) 
3
1 4 hydrophobe
3 2 5 6 hydrophobe
3 3 7 8 hydrophobe

>  <PUBCHEM_HEAVY_ATOM_COUNT>  (1) 
8

>  <PUBCHEM_ATOM_DEF_STEREO_COUNT>  (1) 
0

>  <PUBCHEM_ATOM_UDEF_STEREO_COUNT>  (1) 
0

>  <PUBCHEM_BOND_DEF_STEREO_COUNT>  (1) 
0

>  <PUBCHEM_BOND_UDEF_STEREO_COUNT>  (1) 
0

>  <PUBCHEM_ISOTOPIC_ATOM_COUNT>  (1) 
0

>  <PUBCHEM_COMPONENT_COUNT>  (1) 
1

>  <PUBCHEM_CACTVS_TAUTO_COUNT>  (1) 
1

>  <PUBCHEM_CONFORMER_ID>  (1) 
00002C0500000001

>  <PUBCHEM_MMFF94_ENERGY>  (1) 
14.2454

>  <PUBCHEM_FEATURE_SELFOVERLAP>  (1) 
15.23

>  <PUBCHEM_SHAPE_FINGERPRINT>  (1) 
10857977 72 17531536498076496753
15310529 11 17458350736452225702
20096714 4 18412828009911222096
21040471 1 18340772653582929856
23235685 24 18202007620426299608
24536 1 17917142922376418424
29004967 10 18269561541743408690
5084963 1 17967541163612279785

>  <PUBCHEM_SHAPE_MULTIPOLES>  (1) 
164.64
3.27
1.54
0.98
0.25
0.24
0.16
-0.26
-0.36
0.43
0.06
-0.54
-0.16
0.35

>  <PUBCHEM_SHAPE_SELFOVERLAP>  (1) 
291.218

>  <PUBCHEM_SHAPE_VOLUME>  (1) 
111

>  <PUBCHEM_COORDINATE_TYPE>  (1) 
2
5
10

$$$$
