11268
     RDKit          3D

  8  7  0  0  1  0  0  0  0  0999 V2000
    0.3884    2.2610    0.7155 Br  0  0  0  0  0  0  0  0  0  0  0  0
    1.5576   -1.4954    0.4092 O   0  0  0  0  0  0  0  0  0  0  0  0
    1.6074    0.1406   -1.1566 O   0  0  0  0  0  0  0  0  0  0  0  0
   -1.3789    0.0299    0.2497 C   0  0  0  0  0  0  0  0  0  0  0  0
    0.0541    0.3258    0.7178 C   0  0  0  0  0  0  0  0  0  0  0  0
   -1.6875    0.5167   -1.1707 C   0  0  0  0  0  0  0  0  0  0  0  0
   -1.6876   -1.4677    0.3514 C   0  0  0  0  0  0  0  0  0  0  0  0
    1.1465   -0.3108   -0.1163 C   0  0  0  0  0  0  0  0  0  0  0  0
  1  5  1  0
  2  8  1  0
  3  8  2  0
  4  5  1  0
  4  6  1  0
  4  7  1  0
  5  8  1  0
M  END
>  <PUBCHEM_COMPOUND_CID>  (1) 
11268

>  <PUBCHEM_CONFORMER_RMSD>  (1) 
0.4

>  <PUBCHEM_CONFORMER_DIVERSEORDER>  (1) 
1
2
8
7
6
3
4
9
5

>  <PUBCHEM_MMFF94_PARTIAL_CHARGES>  (1) 
6
1 -0.23
17 0.5
2 -0.65
3 -0.57
5 0.29
8 0.66

>  <PUBCHEM_EFFECTIVE_ROTOR_COUNT>  (1) 
2

>  <PUBCHEM_PHARMACOPHORE_FEATURES>  (1) 
5
1 1 hydrophobe
1 2 acceptor
1 3 acceptor
3 2 3 8 anion
3 4 6 7 hydrophobe

>  <PUBCHEM_HEAVY_ATOM_COUNT>  (1) 
8

>  <PUBCHEM_ATOM_DEF_STEREO_COUNT>  (1) 
0

>  <PUBCHEM_ATOM_UDEF_STEREO_COUNT>  (1) 
1

>  <PUBCHEM_BOND_DEF_STEREO_COUNT>  (1) 
0

>  <PUBCHEM_BOND_UDEF_STEREO_COUNT>  (1) 
0

>  <PUBCHEM_ISOTOPIC_ATOM_COUNT>  (1) 
0

>  <PUBCHEM_COMPONENT_COUNT>  (1) 
1

>  <PUBCHEM_CACTVS_TAUTO_COUNT>  (1) 
1

>  <PUBCHEM_CONFORMER_ID>  (1) 
00002C0400000001

>  <PUBCHEM_MMFF94_ENERGY>  (1) 
10.9436

>  <PUBCHEM_FEATURE_SELFOVERLAP>  (1) 
25.431

>  <PUBCHEM_SHAPE_FINGERPRINT>  (1) 
137420 1 13926392437518115800
18185500 45 18337964393437678010
20711978 78 17772478030121221167
21040471 1 17751056077658010869
23211744 25 18048055234860504228
24536 1 17703508899715737539
29004967 10 18131358539248451802
5943 1 14875234409480158577
68250623 7 16550926126257694585

>  <PUBCHEM_SHAPE_MULTIPOLES>  (1) 
158.84
2.3
1.95
1.09
0.83
0.17
0.28
0.03
0.07
-0.92
-0.28
0.03
0.13
0.55

>  <PUBCHEM_SHAPE_SELFOVERLAP>  (1) 
281.029

>  <PUBCHEM_SHAPE_VOLUME>  (1) 
106.3

>  <PUBCHEM_COORDINATE_TYPE>  (1) 
2
5
10

$$$$
