11266
     RDKit          3D

  7  6  0  0  1  0  0  0  0  0999 V2000
    0.5008    1.5678   -0.2054 O   0  0  0  0  0  0  0  0  0  0  0  0
   -1.5044   -1.4038   -0.2513 O   0  0  0  0  0  0  0  0  0  0  0  0
   -1.9812    0.7088    0.4437 O   0  0  0  0  0  0  0  0  0  0  0  0
    1.2437   -0.6420    0.3869 C   0  0  0  0  0  0  0  0  0  0  0  0
    0.2386    0.1889   -0.4127 C   0  0  0  0  0  0  0  0  0  0  0  0
    2.6994   -0.3188    0.0687 C   0  0  0  0  0  0  0  0  0  0  0  0
   -1.1970   -0.1010   -0.0299 C   0  0  0  0  0  0  0  0  0  0  0  0
  1  5  1  0
  2  7  1  0
  3  7  2  0
  4  5  1  0
  4  6  1  0
  5  7  1  0
M  END
>  <PUBCHEM_COMPOUND_CID>  (1) 
11266

>  <PUBCHEM_CONFORMER_RMSD>  (1) 
0.4

>  <PUBCHEM_CONFORMER_DIVERSEORDER>  (1) 
3
4
5
6
1
8
2
7

>  <PUBCHEM_MMFF94_PARTIAL_CHARGES>  (1) 
7
1 -0.68
14 0.4
15 0.5
2 -0.65
3 -0.57
5 0.34
7 0.66

>  <PUBCHEM_EFFECTIVE_ROTOR_COUNT>  (1) 
2

>  <PUBCHEM_PHARMACOPHORE_FEATURES>  (1) 
6
1 1 acceptor
1 1 donor
1 2 acceptor
1 3 acceptor
1 6 hydrophobe
3 2 3 7 anion

>  <PUBCHEM_HEAVY_ATOM_COUNT>  (1) 
7

>  <PUBCHEM_ATOM_DEF_STEREO_COUNT>  (1) 
0

>  <PUBCHEM_ATOM_UDEF_STEREO_COUNT>  (1) 
1

>  <PUBCHEM_BOND_DEF_STEREO_COUNT>  (1) 
0

>  <PUBCHEM_BOND_UDEF_STEREO_COUNT>  (1) 
0

>  <PUBCHEM_ISOTOPIC_ATOM_COUNT>  (1) 
0

>  <PUBCHEM_COMPONENT_COUNT>  (1) 
1

>  <PUBCHEM_CACTVS_TAUTO_COUNT>  (1) 
1

>  <PUBCHEM_CONFORMER_ID>  (1) 
00002C0200000003

>  <PUBCHEM_MMFF94_ENERGY>  (1) 
1.0964

>  <PUBCHEM_FEATURE_SELFOVERLAP>  (1) 
30.51

>  <PUBCHEM_SHAPE_FINGERPRINT>  (1) 
139733 1 10447926187324959526
16714656 1 18338519621134697158
18185500 45 18334853913702699538
20096714 4 18410581716235151649
21040471 1 18197785405465327397
24536 1 18270667783479364415
29004967 10 16226055452865481360
5460574 1 9511455624093919474

>  <PUBCHEM_SHAPE_MULTIPOLES>  (1) 
126.45
2.99
1.23
0.66
1.15
0.14
0
-0.41
0.28
-0.27
-0.08
0
-0.01
-0.2

>  <PUBCHEM_SHAPE_SELFOVERLAP>  (1) 
231.044

>  <PUBCHEM_SHAPE_VOLUME>  (1) 
80.7

>  <PUBCHEM_COORDINATE_TYPE>  (1) 
2
5
10

$$$$
