11271
     RDKit          3D

  8  7  0  0  0  0  0  0  0  0999 V2000
    0.0001   -0.0021   -1.5643 O   0  0  0  0  0  0  0  0  0  0  0  0
    1.2960    0.1101    0.4689 C   0  0  0  0  0  0  0  0  0  0  0  0
   -1.2959   -0.1088    0.4689 C   0  0  0  0  0  0  0  0  0  0  0  0
    0.0000   -0.0003   -0.3324 C   0  0  0  0  0  0  0  0  0  0  0  0
    2.3266    0.9538   -0.2755 C   0  0  0  0  0  0  0  0  0  0  0  0
    1.8343   -1.2864    0.7554 C   0  0  0  0  0  0  0  0  0  0  0  0
   -2.3264   -0.9544   -0.2736 C   0  0  0  0  0  0  0  0  0  0  0  0
   -1.8347    1.2882    0.7526 C   0  0  0  0  0  0  0  0  0  0  0  0
  1  4  2  0
  2  4  1  0
  2  5  1  0
  2  6  1  0
  3  4  1  0
  3  7  1  0
  3  8  1  0
M  END
>  <PUBCHEM_COMPOUND_CID>  (1) 
11271

>  <PUBCHEM_CONFORMER_RMSD>  (1) 
0.4

>  <PUBCHEM_CONFORMER_DIVERSEORDER>  (1) 
1
12
8
6
3
4
11
10
9
2
13
5
7

>  <PUBCHEM_MMFF94_PARTIAL_CHARGES>  (1) 
4
1 -0.57
2 0.06
3 0.06
4 0.45

>  <PUBCHEM_EFFECTIVE_ROTOR_COUNT>  (1) 
2

>  <PUBCHEM_PHARMACOPHORE_FEATURES>  (1) 
3
1 1 acceptor
3 2 5 6 hydrophobe
3 3 7 8 hydrophobe

>  <PUBCHEM_HEAVY_ATOM_COUNT>  (1) 
8

>  <PUBCHEM_ATOM_DEF_STEREO_COUNT>  (1) 
0

>  <PUBCHEM_ATOM_UDEF_STEREO_COUNT>  (1) 
0

>  <PUBCHEM_BOND_DEF_STEREO_COUNT>  (1) 
0

>  <PUBCHEM_BOND_UDEF_STEREO_COUNT>  (1) 
0

>  <PUBCHEM_ISOTOPIC_ATOM_COUNT>  (1) 
0

>  <PUBCHEM_COMPONENT_COUNT>  (1) 
1

>  <PUBCHEM_CACTVS_TAUTO_COUNT>  (1) 
2

>  <PUBCHEM_CONFORMER_ID>  (1) 
00002C0700000001

>  <PUBCHEM_MMFF94_ENERGY>  (1) 
7.9685

>  <PUBCHEM_FEATURE_SELFOVERLAP>  (1) 
15.223

>  <PUBCHEM_SHAPE_FINGERPRINT>  (1) 
10857977 72 16916781959106530675
137420 1 15173589367619923268
16714656 1 17059781151116590301
21040471 1 16558747880062949940
21922407 69 18409448106719445320
23552423 10 18336547131460417970
24536 1 18338779144496647802
29004967 10 16081093683606653840
5084963 1 16486980621450679590

>  <PUBCHEM_SHAPE_MULTIPOLES>  (1) 
158.77
3.32
1.27
1.07
0
0
-0.25
0
0.34
0
0.24
0
0
-0.6

>  <PUBCHEM_SHAPE_SELFOVERLAP>  (1) 
289.077

>  <PUBCHEM_SHAPE_VOLUME>  (1) 
103.7

>  <PUBCHEM_COORDINATE_TYPE>  (1) 
2
5
10

$$$$
