11275
     RDKit          3D

 22 25  0  0  1  0  0  0  0  0999 V2000
   -5.1692    1.6655   -0.0177 O   0  0  0  0  0  0  0  0  0  0  0  0
    4.8116    2.3779    1.2631 O   0  0  0  0  0  0  0  0  0  0  0  0
   -0.9655   -0.9556   -0.0824 C   0  0  0  0  0  0  0  0  0  0  0  0
    0.0451    0.2108    0.1576 C   0  0  0  0  0  0  0  0  0  0  0  0
   -2.3233   -0.5529    0.5031 C   0  0  0  0  0  0  0  0  0  0  0  0
   -2.8911    0.7295   -0.1358 C   0  0  0  0  0  0  0  0  0  0  0  0
    1.4836   -0.1378   -0.3729 C   0  0  0  0  0  0  0  0  0  0  0  0
   -0.5041    1.5760   -0.3363 C   0  0  0  0  0  0  0  0  0  0  0  0
    1.9348   -1.4753    0.2924 C   0  0  0  0  0  0  0  0  0  0  0  0
   -1.9256    1.8822    0.1694 C   0  0  0  0  0  0  0  0  0  0  0  0
   -0.4544   -2.2624    0.5400 C   0  0  0  0  0  0  0  0  0  0  0  0
   -3.4884   -1.5364    0.4252 C   0  0  0  0  0  0  0  0  0  0  0  0
   -4.2385    0.8035    0.6081 C   0  0  0  0  0  0  0  0  0  0  0  0
    0.9467   -2.6235    0.0559 C   0  0  0  0  0  0  0  0  0  0  0  0
   -4.7346   -0.6556    0.6278 C   0  0  0  0  0  0  0  0  0  0  0  0
    2.5003    0.9647    0.0580 C   0  0  0  0  0  0  0  0  0  0  0  0
   -3.1244    0.6408   -1.6656 C   0  0  0  0  0  0  0  0  0  0  0  0
    1.4982   -0.2386   -1.9212 C   0  0  0  0  0  0  0  0  0  0  0  0
    3.3596   -1.8850   -0.1188 C   0  0  0  0  0  0  0  0  0  0  0  0
    3.9535    0.5494   -0.0043 C   0  0  0  0  0  0  0  0  0  0  0  0
    4.3260   -0.7384   -0.0977 C   0  0  0  0  0  0  0  0  0  0  0  0
    4.9598    1.6611    0.0519 C   0  0  0  0  0  0  0  0  0  0  0  0
  1 13  1  0
  2 22  1  0
  3  4  1  0
  3  5  1  0
  3 11  1  0
  4  7  1  0
  4  8  1  0
  5  6  1  0
  5 12  1  0
  6 10  1  0
  6 13  1  0
  6 17  1  0
  7  9  1  0
  7 16  1  0
  7 18  1  0
  8 10  1  0
  9 14  1  0
  9 19  1  0
 11 14  1  0
 12 15  1  0
 13 15  1  0
 16 20  1  0
 19 21  1  0
 20 21  2  0
 20 22  1  0
M  END
>  <PUBCHEM_COMPOUND_CID>  (1) 
11275

>  <PUBCHEM_CONFORMER_RMSD>  (1) 
0.6

>  <PUBCHEM_CONFORMER_DIVERSEORDER>  (1) 
1

>  <PUBCHEM_MMFF94_PARTIAL_CHARGES>  (1) 
11
1 -0.68
13 0.28
16 0.14
19 0.14
2 -0.68
20 -0.28
21 -0.29
22 0.42
50 0.15
51 0.4
54 0.4

>  <PUBCHEM_EFFECTIVE_ROTOR_COUNT>  (1) 
2.8

>  <PUBCHEM_PHARMACOPHORE_FEATURES>  (1) 
8
1 1 acceptor
1 1 donor
1 2 acceptor
1 2 donor
5 5 6 12 13 15 rings
6 3 4 5 6 8 10 rings
6 3 4 7 9 11 14 rings
6 7 9 16 19 20 21 rings

>  <PUBCHEM_HEAVY_ATOM_COUNT>  (1) 
22

>  <PUBCHEM_ATOM_DEF_STEREO_COUNT>  (1) 
7

>  <PUBCHEM_ATOM_UDEF_STEREO_COUNT>  (1) 
0

>  <PUBCHEM_BOND_DEF_STEREO_COUNT>  (1) 
0

>  <PUBCHEM_BOND_UDEF_STEREO_COUNT>  (1) 
0

>  <PUBCHEM_ISOTOPIC_ATOM_COUNT>  (1) 
0

>  <PUBCHEM_COMPONENT_COUNT>  (1) 
1

>  <PUBCHEM_CACTVS_TAUTO_COUNT>  (1) 
1

>  <PUBCHEM_CONFORMER_ID>  (1) 
00002C0B00000001

>  <PUBCHEM_MMFF94_ENERGY>  (1) 
69.0749

>  <PUBCHEM_FEATURE_SELFOVERLAP>  (1) 
40.688

>  <PUBCHEM_SHAPE_FINGERPRINT>  (1) 
10366900 7 13758352254932727869
10411042 1 17545883724481339138
10498660 4 18408322168168550189
10646746 165 18408045091649781390
10967382 1 18336549321946421378
11112241 14 17272552078798975376
11132069 177 18113625577493471895
11370993 70 18335416868167353026
11578080 2 16373532827124591247
11595378 159 17240749675791491472
12236239 1 17917428701485437581
12403259 226 18118964685862502270
12403259 415 18260547788416183452
12403814 3 17385729084744325861
12507560 40 18335139786731111622
12596602 18 17917164835932793587
12788726 201 17203053958930732497
13140716 1 18334857169351545051
13224815 77 18335702719499447383
13675066 3 18041005033196290995
14223421 5 18264489490203963766
14787075 74 18270678782843123803
14790565 3 18411144644629821321
15196674 1 18409169900376591387
15375358 24 18408605842511342827
15536298 74 18410860927811732494
16945 1 18047185250553996683
17349148 13 17240489104224924918
17980427 23 17531532099734632532
1813 80 16660368081870517950
18186145 218 18335423426461114366
200 152 18343297051224570671
20510252 161 18412830178732699744
21033648 29 18114169822643377428
21267235 1 18336840692496386898
21452121 103 18411697686615345738
21756936 100 18128246999616952356
22182313 1 17750228114989469327
23227448 37 18198622323051173414
23402539 116 18413385453584662351
23557571 272 18341343274332429431
23559900 14 18410856538866690022
2748010 2 18334587823183013038
2838139 119 17632006576873894936
296302 2 18202566180923170367
335352 9 18336829667579082462
34797466 226 17203337748768116829
34934 24 18411980239729009229
350125 39 18336548231757665374
3545911 37 18334862696842059716
392239 28 18413393146019023288
474 4 18409731789710655688
474229 33 18337110163113085386
5104073 3 18335424538831218995
542803 24 17561369469515592193
59755656 215 18262808349810554910
633830 44 18201157663467637822
69090 78 18410575093290359034
6913067 236 17894901971284323407
7364860 26 18196094348119019622
7808743 9 18122060081962935760
9709674 26 18337118890381571074

>  <PUBCHEM_SHAPE_MULTIPOLES>  (1) 
441.01
10.05
2.47
1.05
0.41
0.45
0.43
-4.12
-1.72
1.08
-0.45
-0.02
-0.18
0.93

>  <PUBCHEM_SHAPE_SELFOVERLAP>  (1) 
935.835

>  <PUBCHEM_SHAPE_VOLUME>  (1) 
243.8

>  <PUBCHEM_COORDINATE_TYPE>  (1) 
2
5
10

$$$$
