11278
     RDKit          3D

 15 16  0  0  0  0  0  0  0  0999 V2000
    1.9432   -1.1299   -0.0110 S   0  0  0  0  0  0  0  0  0  0  0  0
    2.4548    1.7689   -0.0047 O   0  0  0  0  0  0  0  0  0  0  0  0
    3.3484   -0.3190    0.1543 O   0  0  0  0  0  0  0  0  0  0  0  0
    1.7598   -1.9287    1.1861 O   0  0  0  0  0  0  0  0  0  0  0  0
    1.9099   -1.7303   -1.3303 O   0  0  0  0  0  0  0  0  0  0  0  0
   -0.6670   -0.1910   -0.0020 C   0  0  0  0  0  0  0  0  0  0  0  0
    0.7023    0.1213   -0.0043 C   0  0  0  0  0  0  0  0  0  0  0  0
   -1.6162    0.8587    0.0030 C   0  0  0  0  0  0  0  0  0  0  0  0
    1.1294    1.4495   -0.0017 C   0  0  0  0  0  0  0  0  0  0  0  0
   -1.1683    2.1898    0.0055 C   0  0  0  0  0  0  0  0  0  0  0  0
   -1.1149   -1.5220   -0.0043 C   0  0  0  0  0  0  0  0  0  0  0  0
    0.1960    2.4818    0.0031 C   0  0  0  0  0  0  0  0  0  0  0  0
   -2.9855    0.5465    0.0054 C   0  0  0  0  0  0  0  0  0  0  0  0
   -2.4791   -1.8140   -0.0020 C   0  0  0  0  0  0  0  0  0  0  0  0
   -3.4127   -0.7817    0.0028 C   0  0  0  0  0  0  0  0  0  0  0  0
  1  3  1  0
  1  4  2  0
  1  5  2  0
  1  7  1  0
  2  9  1  0
  6  7  2  0
  6  8  1  0
  6 11  1  0
  7  9  1  0
  8 10  2  0
  8 13  1  0
  9 12  2  0
 10 12  1  0
 11 14  2  0
 13 15  2  0
 14 15  1  0
M  END
>  <PUBCHEM_COMPOUND_CID>  (1) 
11278

>  <PUBCHEM_CONFORMER_RMSD>  (1) 
0.4

>  <PUBCHEM_CONFORMER_DIVERSEORDER>  (1) 
1
2

>  <PUBCHEM_MMFF94_PARTIAL_CHARGES>  (1) 
21
1 1.49
10 -0.15
11 -0.15
12 -0.15
13 -0.15
14 -0.15
15 -0.15
16 0.15
17 0.15
18 0.15
19 0.15
2 -0.53
20 0.15
21 0.15
22 0.45
23 0.5
3 -0.68
4 -0.65
5 -0.65
7 -0.01
9 0.08

>  <PUBCHEM_EFFECTIVE_ROTOR_COUNT>  (1) 
1

>  <PUBCHEM_PHARMACOPHORE_FEATURES>  (1) 
7
1 2 donor
1 3 acceptor
1 4 acceptor
1 5 acceptor
4 1 3 4 5 anion
6 6 7 8 9 10 12 rings
6 6 8 11 13 14 15 rings

>  <PUBCHEM_HEAVY_ATOM_COUNT>  (1) 
15

>  <PUBCHEM_ATOM_DEF_STEREO_COUNT>  (1) 
0

>  <PUBCHEM_ATOM_UDEF_STEREO_COUNT>  (1) 
0

>  <PUBCHEM_BOND_DEF_STEREO_COUNT>  (1) 
0

>  <PUBCHEM_BOND_UDEF_STEREO_COUNT>  (1) 
0

>  <PUBCHEM_ISOTOPIC_ATOM_COUNT>  (1) 
0

>  <PUBCHEM_COMPONENT_COUNT>  (1) 
1

>  <PUBCHEM_CACTVS_TAUTO_COUNT>  (1) 
3

>  <PUBCHEM_CONFORMER_ID>  (1) 
00002C0E00000001

>  <PUBCHEM_MMFF94_ENERGY>  (1) 
41.5449

>  <PUBCHEM_FEATURE_SELFOVERLAP>  (1) 
35.604

>  <PUBCHEM_SHAPE_FINGERPRINT>  (1) 
10967382 1 18122343746665604657
11132069 177 18340760541875492536
11578080 2 17097471130517949092
12382932 28 18412539933416790408
12423570 1 12857116211322265645
12524768 44 18413674616821968455
13140716 1 18411139100253680275
13380535 76 18193553599900418619
14251711 518 18411130372469203951
14790565 3 17332830257256378488
15001771 113 18341905060270527313
15375462 189 18187086113581644091
15536298 74 18271526502366775016
161256 15 18411140242240499820
16945 1 18122626050639568717
17990270 104 18342179985411516607
193761 8 18410573963819546145
20201158 50 18411417323602790719
20510252 161 17984419637851291753
20588541 1 18265053724600708125
20645477 70 18268425905747482743
20871998 184 18201151040517284527
20871998 22 18341902856925865703
21267235 1 18410301336417280619
21501502 16 18411421743208482285
22721475 48 18411141328882816001
22802520 49 17554336817066840054
2334 1 18410574007027357161
23388829 49 18126836321022216733
23419403 2 17261528211999429785
23463225 33 18337389456225362604
23552423 10 18261957456891192357
23559900 14 17335343728306040070
2748010 2 18410289177681331381
34934 24 18411128143459869829
7364860 26 18199187467416540697
81228 2 18194972837473074657
8809292 202 18261396688501894586

>  <PUBCHEM_SHAPE_MULTIPOLES>  (1) 
289.07
4.54
2.66
0.76
0.58
0.74
0.03
-1.41
-0.03
-0.41
-0.02
-0.27
-0.3
0.01

>  <PUBCHEM_SHAPE_SELFOVERLAP>  (1) 
624.606

>  <PUBCHEM_SHAPE_VOLUME>  (1) 
158.2

>  <PUBCHEM_COORDINATE_TYPE>  (1) 
2
5
10

$$$$
