11270
     RDKit          3D

  8  7  0  0  0  0  0  0  0  0999 V2000
   -1.2320   -0.4213   -0.2192 C   0  0  0  0  0  0  0  0  0  0  0  0
    0.0505    0.3853    0.0094 C   0  0  0  0  0  0  0  0  0  0  0  0
    1.2910   -0.1592   -0.0802 C   0  0  0  0  0  0  0  0  0  0  0  0
   -1.7197   -1.0696    1.0786 C   0  0  0  0  0  0  0  0  0  0  0  0
   -2.3511    0.4072   -0.8631 C   0  0  0  0  0  0  0  0  0  0  0  0
   -0.1630    1.8450    0.3483 C   0  0  0  0  0  0  0  0  0  0  0  0
    1.5582   -1.6070   -0.4147 C   0  0  0  0  0  0  0  0  0  0  0  0
    2.5661    0.6196    0.1409 C   0  0  0  0  0  0  0  0  0  0  0  0
  1  2  1  0
  1  4  1  0
  1  5  1  0
  2  3  2  3
  2  6  1  0
  3  7  1  0
  3  8  1  0
M  END
>  <PUBCHEM_COMPOUND_CID>  (1) 
11270

>  <PUBCHEM_CONFORMER_RMSD>  (1) 
0.4

>  <PUBCHEM_CONFORMER_DIVERSEORDER>  (1) 
1
3
2

>  <PUBCHEM_MMFF94_PARTIAL_CHARGES>  (1) 
6
1 0.14
2 -0.28
3 -0.28
6 0.14
7 0.14
8 0.14

>  <PUBCHEM_EFFECTIVE_ROTOR_COUNT>  (1) 
1

>  <PUBCHEM_PHARMACOPHORE_FEATURES>  (1) 
3
1 6 hydrophobe
3 1 4 5 hydrophobe
3 3 7 8 hydrophobe

>  <PUBCHEM_HEAVY_ATOM_COUNT>  (1) 
8

>  <PUBCHEM_ATOM_DEF_STEREO_COUNT>  (1) 
0

>  <PUBCHEM_ATOM_UDEF_STEREO_COUNT>  (1) 
0

>  <PUBCHEM_BOND_DEF_STEREO_COUNT>  (1) 
0

>  <PUBCHEM_BOND_UDEF_STEREO_COUNT>  (1) 
0

>  <PUBCHEM_ISOTOPIC_ATOM_COUNT>  (1) 
0

>  <PUBCHEM_COMPONENT_COUNT>  (1) 
1

>  <PUBCHEM_CACTVS_TAUTO_COUNT>  (1) 
1

>  <PUBCHEM_CONFORMER_ID>  (1) 
00002C0600000001

>  <PUBCHEM_MMFF94_ENERGY>  (1) 
13.0176

>  <PUBCHEM_FEATURE_SELFOVERLAP>  (1) 
15.229

>  <PUBCHEM_SHAPE_FINGERPRINT>  (1) 
12423570 1 10590599881239339335
12897270 3 18412826880545858940
18185500 45 18059287763924328494
20201158 50 18408598162809260679
21040471 1 17458899323866223695
21922407 69 16128374861133779034
23235687 12 17167582721443537582
23552423 10 18265336101393859614
24536 1 18335145241423850102
29004967 10 18411707620357723554

>  <PUBCHEM_SHAPE_MULTIPOLES>  (1) 
164.64
3.21
1.62
0.9
0.36
0.15
0.07
-0.2
-0.26
0.24
0.15
-0.44
-0.13
0.48

>  <PUBCHEM_SHAPE_SELFOVERLAP>  (1) 
298.675

>  <PUBCHEM_SHAPE_VOLUME>  (1) 
108.6

>  <PUBCHEM_COORDINATE_TYPE>  (1) 
2
5
10

$$$$
