11274
     RDKit          3D

 23 26  0  0  1  0  0  0  0  0999 V2000
    5.4652   -1.5123    0.1420 O   0  0  0  0  0  0  0  0  0  0  0  0
   -5.2027    0.7319    0.5995 O   0  0  0  0  0  0  0  0  0  0  0  0
   -4.5081   -1.9257    1.5155 O   0  0  0  0  0  0  0  0  0  0  0  0
    0.1895   -0.2738    0.0904 C   0  0  0  0  0  0  0  0  0  0  0  0
    1.1636    0.9276   -0.1400 C   0  0  0  0  0  0  0  0  0  0  0  0
    2.5122    0.5944    0.5069 C   0  0  0  0  0  0  0  0  0  0  0  0
   -1.2435    0.0075   -0.5018 C   0  0  0  0  0  0  0  0  0  0  0  0
    3.1570   -0.6752   -0.0827 C   0  0  0  0  0  0  0  0  0  0  0  0
   -1.7628    1.3357    0.1375 C   0  0  0  0  0  0  0  0  0  0  0  0
    0.8146   -1.6236   -0.3544 C   0  0  0  0  0  0  0  0  0  0  0  0
    2.2281   -1.8605    0.2087 C   0  0  0  0  0  0  0  0  0  0  0  0
    0.5800    2.2308    0.4219 C   0  0  0  0  0  0  0  0  0  0  0  0
    3.6383    1.6237    0.4526 C   0  0  0  0  0  0  0  0  0  0  0  0
    4.4758   -0.6788    0.7140 C   0  0  0  0  0  0  0  0  0  0  0  0
   -0.8196    2.5173   -0.1145 C   0  0  0  0  0  0  0  0  0  0  0  0
   -2.2323   -1.1219   -0.0862 C   0  0  0  0  0  0  0  0  0  0  0  0
    4.9101    0.7998    0.7244 C   0  0  0  0  0  0  0  0  0  0  0  0
   -3.1944    1.6820   -0.2764 C   0  0  0  0  0  0  0  0  0  0  0  0
   -1.1950    0.0834   -2.0481 C   0  0  0  0  0  0  0  0  0  0  0  0
    3.4467   -0.6075   -1.6039 C   0  0  0  0  0  0  0  0  0  0  0  0
   -3.6986   -0.8439   -0.4548 C   0  0  0  0  0  0  0  0  0  0  0  0
   -4.1219    0.5313    0.0457 C   0  0  0  0  0  0  0  0  0  0  0  0
   -4.6022   -1.9421    0.1035 C   0  0  0  0  0  0  0  0  0  0  0  0
  1 14  1  0
  2 22  2  0
  3 23  1  0
  4  5  1  0
  4  7  1  0
  4 10  1  0
  5  6  1  0
  5 12  1  0
  6  8  1  0
  6 13  1  0
  7  9  1  0
  7 16  1  0
  7 19  1  0
  8 11  1  0
  8 14  1  0
  8 20  1  0
  9 15  1  0
  9 18  1  0
 10 11  1  0
 12 15  1  0
 13 17  1  0
 14 17  1  0
 16 21  1  0
 18 22  1  0
 21 22  1  0
 21 23  1  0
M  END
>  <PUBCHEM_COMPOUND_CID>  (1) 
11274

>  <PUBCHEM_CONFORMER_RMSD>  (1) 
0.6

>  <PUBCHEM_CONFORMER_DIVERSEORDER>  (1) 
1
2

>  <PUBCHEM_MMFF94_PARTIAL_CHARGES>  (1) 
10
1 -0.68
14 0.28
18 0.06
2 -0.57
21 0.06
22 0.45
23 0.28
3 -0.68
52 0.4
55 0.4

>  <PUBCHEM_EFFECTIVE_ROTOR_COUNT>  (1) 
3

>  <PUBCHEM_PHARMACOPHORE_FEATURES>  (1) 
9
1 1 acceptor
1 1 donor
1 2 acceptor
1 3 acceptor
1 3 donor
5 6 8 13 14 17 rings
6 4 5 6 8 10 11 rings
6 4 5 7 9 12 15 rings
6 7 9 16 18 21 22 rings

>  <PUBCHEM_HEAVY_ATOM_COUNT>  (1) 
23

>  <PUBCHEM_ATOM_DEF_STEREO_COUNT>  (1) 
8

>  <PUBCHEM_ATOM_UDEF_STEREO_COUNT>  (1) 
0

>  <PUBCHEM_BOND_DEF_STEREO_COUNT>  (1) 
0

>  <PUBCHEM_BOND_UDEF_STEREO_COUNT>  (1) 
0

>  <PUBCHEM_ISOTOPIC_ATOM_COUNT>  (1) 
0

>  <PUBCHEM_COMPONENT_COUNT>  (1) 
1

>  <PUBCHEM_CACTVS_TAUTO_COUNT>  (1) 
3

>  <PUBCHEM_CONFORMER_ID>  (1) 
00002C0A00000001

>  <PUBCHEM_MMFF94_ENERGY>  (1) 
78.6819

>  <PUBCHEM_FEATURE_SELFOVERLAP>  (1) 
45.765

>  <PUBCHEM_SHAPE_FINGERPRINT>  (1) 
10616163 171 18340765944675175919
11045977 3 18409446994512917027
11552529 35 15912471562885970143
11578080 2 16953929822417603814
12166972 35 17749112180160984372
12236239 1 17560795537473109271
12403259 226 18337945693783327200
12403814 3 17917701401211018533
12596602 18 17131274674594811531
12633257 1 18410862036266411257
128620 24 18187081750031800094
13140716 1 18413388726344999817
13214271 11 18342450435507651061
13224815 77 18342170068315952484
13544653 18 18262240023042985647
13675066 3 18131345328013523200
14223421 5 18268710519637937198
14252887 29 17988931076083828694
14341114 176 18410015424707483985
14787075 74 18335701705850151448
14790565 3 17978514457494583464
15196674 1 18411979174023400776
15209289 33 18187082888477968507
15536298 74 18273213097290080764
15788980 27 18342736321167977982
15927050 60 17477205397873818940
16945 1 18125723383300572460
17349148 13 17022626364075656746
17492 89 18337948966274561530
17804303 29 18410295835012346549
1813 80 17458063785265749125
18785283 64 18046628073047579988
19141452 34 17918269861702393799
19591789 44 18412258471393780510
200 152 18201994443429718649
20028762 73 18057603377026741863
20261772 1 18059288859225508430
21033648 29 17060043810110538259
21267235 1 18411986844761177334
21421861 104 18044087956394868154
221490 88 18410013247364812696
22182313 1 17845378751798350132
23402539 116 18408877425835583422
23557571 272 18269837527868122076
23559900 14 18197211443527326870
26918003 58 18334572434699832547
3286 77 18261388996262641388
335352 9 18411980226654586901
34934 24 18340478976904850605
350125 39 18413105057504943192
392239 28 18410014338038606059
4214541 1 18411134701875151721
5104073 3 18412823585989451992
59755656 215 18264487287049680550
9709674 26 18198623237594416438

>  <PUBCHEM_SHAPE_MULTIPOLES>  (1) 
455.72
10.62
2.35
1.1
0.12
0.43
-0.39
-3.13
2.56
-0.64
0.31
-0.1
-0.21
0.73

>  <PUBCHEM_SHAPE_SELFOVERLAP>  (1) 
968.296

>  <PUBCHEM_SHAPE_VOLUME>  (1) 
251.2

>  <PUBCHEM_COORDINATE_TYPE>  (1) 
2
5
10

$$$$
