11284
     RDKit          3D

 21 24  0  0  0  0  0  0  0  0999 V2000
   -0.1014    2.9602    1.0644 O   0  0  0  0  0  0  0  0  0  0  0  0
    0.4761   -0.0620   -0.0592 C   0  0  0  0  0  0  0  0  0  0  0  0
    0.0159   -1.3981    0.0389 C   0  0  0  0  0  0  0  0  0  0  0  0
   -0.5164    0.9485   -0.1346 C   0  0  0  0  0  0  0  0  0  0  0  0
   -1.3607   -1.6826    0.0586 C   0  0  0  0  0  0  0  0  0  0  0  0
   -1.8963    0.6691   -0.1152 C   0  0  0  0  0  0  0  0  0  0  0  0
   -2.3236   -0.6674   -0.0171 C   0  0  0  0  0  0  0  0  0  0  0  0
    1.8942    0.1932   -0.0767 C   0  0  0  0  0  0  0  0  0  0  0  0
    2.7960   -0.8998    0.0046 C   0  0  0  0  0  0  0  0  0  0  0  0
    0.9347   -2.4482    0.1170 C   0  0  0  0  0  0  0  0  0  0  0  0
   -0.1984    2.4124   -0.2410 C   0  0  0  0  0  0  0  0  0  0  0  0
    2.3036   -2.2032    0.1002 C   0  0  0  0  0  0  0  0  0  0  0  0
   -1.8243   -3.1125    0.1633 C   0  0  0  0  0  0  0  0  0  0  0  0
   -2.8575    1.6920   -0.1914 C   0  0  0  0  0  0  0  0  0  0  0  0
   -3.6996   -0.9533    0.0029 C   0  0  0  0  0  0  0  0  0  0  0  0
    2.4702    1.4852   -0.1714 C   0  0  0  0  0  0  0  0  0  0  0  0
    4.1848   -0.6853   -0.0099 C   0  0  0  0  0  0  0  0  0  0  0  0
   -4.2205    1.3948   -0.1707 C   0  0  0  0  0  0  0  0  0  0  0  0
   -4.6413    0.0727   -0.0736 C   0  0  0  0  0  0  0  0  0  0  0  0
    3.8535    1.6850   -0.1850 C   0  0  0  0  0  0  0  0  0  0  0  0
    4.7111    0.5992   -0.1042 C   0  0  0  0  0  0  0  0  0  0  0  0
  1 11  1  0
  2  3  1  0
  2  4  2  0
  2  8  1  0
  3  5  2  0
  3 10  1  0
  4  6  1  0
  4 11  1  0
  5  7  1  0
  5 13  1  0
  6  7  2  0
  6 14  1  0
  7 15  1  0
  8  9  2  0
  8 16  1  0
  9 12  1  0
  9 17  1  0
 10 12  2  0
 14 18  2  0
 15 19  2  0
 16 20  2  0
 17 21  2  0
 18 19  1  0
 20 21  1  0
M  END
>  <PUBCHEM_COMPOUND_CID>  (1) 
11284

>  <PUBCHEM_CONFORMER_RMSD>  (1) 
0.6

>  <PUBCHEM_CONFORMER_DIVERSEORDER>  (1) 
1

>  <PUBCHEM_MMFF94_PARTIAL_CHARGES>  (1) 
26
1 -0.68
10 -0.15
11 0.42
12 -0.15
13 0.14
14 -0.15
15 -0.15
16 -0.15
17 -0.15
18 -0.15
19 -0.15
20 -0.15
21 -0.15
22 0.15
25 0.15
29 0.15
30 0.15
31 0.15
32 0.15
33 0.15
34 0.15
35 0.15
36 0.15
37 0.4
4 -0.14
5 -0.14

>  <PUBCHEM_EFFECTIVE_ROTOR_COUNT>  (1) 
1

>  <PUBCHEM_PHARMACOPHORE_FEATURES>  (1) 
6
1 1 acceptor
1 1 donor
6 2 3 4 5 6 7 rings
6 2 3 8 9 10 12 rings
6 6 7 14 15 18 19 rings
6 8 9 16 17 20 21 rings

>  <PUBCHEM_HEAVY_ATOM_COUNT>  (1) 
21

>  <PUBCHEM_ATOM_DEF_STEREO_COUNT>  (1) 
0

>  <PUBCHEM_ATOM_UDEF_STEREO_COUNT>  (1) 
0

>  <PUBCHEM_BOND_DEF_STEREO_COUNT>  (1) 
0

>  <PUBCHEM_BOND_UDEF_STEREO_COUNT>  (1) 
0

>  <PUBCHEM_ISOTOPIC_ATOM_COUNT>  (1) 
0

>  <PUBCHEM_COMPONENT_COUNT>  (1) 
1

>  <PUBCHEM_CACTVS_TAUTO_COUNT>  (1) 
1

>  <PUBCHEM_CONFORMER_ID>  (1) 
00002C1400000001

>  <PUBCHEM_MMFF94_ENERGY>  (1) 
112.4826

>  <PUBCHEM_FEATURE_SELFOVERLAP>  (1) 
30.519

>  <PUBCHEM_SHAPE_FINGERPRINT>  (1) 
10411042 1 16680345886848255387
10498660 4 18410577275434166068
10608611 8 18408884014320586294
10616163 171 18337956804199103262
10967382 1 18410292480125819694
1100329 8 18339082716990724393
11112241 14 16412362389734464816
11132069 177 18410006671759274504
11578080 2 16914524743270644171
12011746 2 18410570704239548997
12403814 3 17603580829202647837
12788726 201 17988087677561703776
12838862 33 18338215129291577892
12954195 1 17985849042323394820
13027679 85 18341612667761256745
13132413 78 18411139164409411101
13140716 1 18337945783761122546
138480 1 17616813236673793675
14223421 5 18193275191635891460
14787075 74 18409728482532719991
14790565 3 18268436737433736345
15196674 1 18409729551631508079
15442244 35 18122060897521197794
15536298 74 18341050726961476830
16945 1 18267307521415988910
19591789 44 18410292536155716251
200 152 18201997720294664637
20510252 161 18270119002681263529
20715895 44 17828751851386113301
20739085 24 17976006205357181961
21029758 11 18342452660411713729
21267235 1 18410020922234214550
21421861 104 17897723158896261546
23227448 37 18411699923776673655
2334 1 18266461090957578350
23402539 116 18343575244155170942
23557571 272 18271254901641210454
23559900 14 18341048502638247134
2748010 2 18339366382653866054
335352 9 18337390431583885374
34934 24 18411132554312375934
350125 39 18193277382327636108
3680242 22 18263078834223866178
474 4 17676212411370600470
5104073 3 18408041784108226379
537710 114 18410577292297751428
59755656 215 18340492180045963942
69090 78 18409445882084836159
7364860 26 18340487738659584302
9709674 26 18411986849167356406

>  <PUBCHEM_SHAPE_MULTIPOLES>  (1) 
426.3
8.05
3.1
0.66
0.68
0.51
-0.03
-1.65
0.44
-0.31
-0.32
-0.01
-0.13
0

>  <PUBCHEM_SHAPE_SELFOVERLAP>  (1) 
974.587

>  <PUBCHEM_SHAPE_VOLUME>  (1) 
223.2

>  <PUBCHEM_COORDINATE_TYPE>  (1) 
2
5
10

$$$$
