11287
     RDKit          3D

 12 13  0  0  0  0  0  0  0  0999 V2000
    0.0000   -0.2266   -0.0001 C   0  0  0  0  0  0  0  0  0  0  0  0
   -0.0001    1.1887    0.0000 C   0  0  0  0  0  0  0  0  0  0  0  0
    1.2250   -0.9134   -0.0001 C   0  0  0  0  0  0  0  0  0  0  0  0
   -1.2249   -0.9134   -0.0002 C   0  0  0  0  0  0  0  0  0  0  0  0
    1.2249    1.8755    0.0001 C   0  0  0  0  0  0  0  0  0  0  0  0
   -1.2252    1.8754    0.0001 C   0  0  0  0  0  0  0  0  0  0  0  0
    2.4327   -0.2147   -0.0001 C   0  0  0  0  0  0  0  0  0  0  0  0
   -2.4326   -0.2150   -0.0002 C   0  0  0  0  0  0  0  0  0  0  0  0
    2.4326    1.1770    0.0000 C   0  0  0  0  0  0  0  0  0  0  0  0
   -2.4327    1.1767    0.0000 C   0  0  0  0  0  0  0  0  0  0  0  0
    1.3572   -2.4049    0.0000 C   0  0  0  0  0  0  0  0  0  0  0  0
   -1.3569   -2.4051    0.0004 C   0  0  0  0  0  0  0  0  0  0  0  0
  1  2  1  0
  1  3  2  0
  1  4  1  0
  2  5  2  0
  2  6  1  0
  3  7  1  0
  3 11  1  0
  4  8  2  0
  4 12  1  0
  5  9  1  0
  6 10  2  0
  7  9  2  0
  8 10  1  0
M  END
>  <PUBCHEM_COMPOUND_CID>  (1) 
11287

>  <PUBCHEM_CONFORMER_RMSD>  (1) 
0.4

>  <PUBCHEM_CONFORMER_DIVERSEORDER>  (1) 
1

>  <PUBCHEM_MMFF94_PARTIAL_CHARGES>  (1) 
16
10 -0.15
11 0.14
12 0.14
13 0.15
14 0.15
15 0.15
16 0.15
23 0.15
24 0.15
3 -0.14
4 -0.14
5 -0.15
6 -0.15
7 -0.15
8 -0.15
9 -0.15

>  <PUBCHEM_EFFECTIVE_ROTOR_COUNT>  (1) 
0

>  <PUBCHEM_PHARMACOPHORE_FEATURES>  (1) 
2
6 1 2 3 5 7 9 rings
6 1 2 4 6 8 10 rings

>  <PUBCHEM_HEAVY_ATOM_COUNT>  (1) 
12

>  <PUBCHEM_ATOM_DEF_STEREO_COUNT>  (1) 
0

>  <PUBCHEM_ATOM_UDEF_STEREO_COUNT>  (1) 
0

>  <PUBCHEM_BOND_DEF_STEREO_COUNT>  (1) 
0

>  <PUBCHEM_BOND_UDEF_STEREO_COUNT>  (1) 
0

>  <PUBCHEM_ISOTOPIC_ATOM_COUNT>  (1) 
0

>  <PUBCHEM_COMPONENT_COUNT>  (1) 
1

>  <PUBCHEM_CACTVS_TAUTO_COUNT>  (1) 
1

>  <PUBCHEM_CONFORMER_ID>  (1) 
00002C1700000001

>  <PUBCHEM_MMFF94_ENERGY>  (1) 
49.1884

>  <PUBCHEM_FEATURE_SELFOVERLAP>  (1) 
10.175

>  <PUBCHEM_SHAPE_FINGERPRINT>  (1) 
10967382 1 18410856538222981861
11206711 2 18121501520531875420
12423570 1 11825955208638630217
12524768 44 18337392647380574423
13140716 1 18266740370841835464
13380535 76 18410567388081879366
16945 1 18410575088958208612
193761 8 18410855464423440903
21040471 1 18410573963782337060
21501502 16 18410572894235045703
2334 1 17978229692250040388
23463225 33 18334570210138862408
23552423 10 18335704922743674412
23559900 14 18271254850892751020
241688 4 17618505376504503458
2748010 2 18122625230005364197
2897 32 18409449158986458580
5084963 1 18202846551850699409
5255222 1 18410570686616970565
528886 8 18339356499633223344
63268167 104 18267586797321938969
66348 1 18410857620496744199
7364860 26 18271241600095813402

>  <PUBCHEM_SHAPE_MULTIPOLES>  (1) 
246.95
3.4
2.67
0.62
0
0.94
0
-0.45
0
0
0
0
0
0

>  <PUBCHEM_SHAPE_SELFOVERLAP>  (1) 
540.617

>  <PUBCHEM_SHAPE_VOLUME>  (1) 
126.7

>  <PUBCHEM_COORDINATE_TYPE>  (1) 
2
5
10

$$$$
