11289
     RDKit          3D

 27 29  0  0  0  0  0  0  0  0999 V2000
    0.8210   -3.0863    0.1910 Cl  0  0  0  0  0  0  0  0  0  0  0  0
    6.3727   -0.4337    0.4014 O   0  0  0  0  0  0  0  0  0  0  0  0
   -2.0293    4.4658   -0.4109 O   0  0  0  0  0  0  0  0  0  0  0  0
   -5.5262   -1.8532   -0.3399 O   0  0  0  0  0  0  0  0  0  0  0  0
    0.7805   -0.3643    0.0282 C   0  0  0  0  0  0  0  0  0  0  0  0
    2.2316   -0.3820    0.1257 C   0  0  0  0  0  0  0  0  0  0  0  0
    0.0296    0.9272   -0.0898 C   0  0  0  0  0  0  0  0  0  0  0  0
    0.0561   -1.5272    0.0434 C   0  0  0  0  0  0  0  0  0  0  0  0
   -1.4107   -1.6125   -0.0580 C   0  0  0  0  0  0  0  0  0  0  0  0
    2.8482   -0.3269    1.3755 C   0  0  0  0  0  0  0  0  0  0  0  0
   -0.2181    1.4274   -1.3444 C   0  0  0  0  0  0  0  0  0  0  0  0
    3.0066   -0.4542   -1.0318 C   0  0  0  0  0  0  0  0  0  0  0  0
   -0.3777    1.5529    1.0630 C   0  0  0  0  0  0  0  0  0  0  0  0
    4.2398   -0.3442    1.4680 C   0  0  0  0  0  0  0  0  0  0  0  0
   -0.9173    2.6295   -1.4533 C   0  0  0  0  0  0  0  0  0  0  0  0
    4.3983   -0.4715   -0.9395 C   0  0  0  0  0  0  0  0  0  0  0  0
   -1.0770    2.7549    0.9542 C   0  0  0  0  0  0  0  0  0  0  0  0
   -2.0006   -1.7219   -1.3069 C   0  0  0  0  0  0  0  0  0  0  0  0
   -2.1733   -1.5821    1.0988 C   0  0  0  0  0  0  0  0  0  0  0  0
    5.0150   -0.4166    0.3105 C   0  0  0  0  0  0  0  0  0  0  0  0
   -1.3468    3.2933   -0.3040 C   0  0  0  0  0  0  0  0  0  0  0  0
   -3.3899   -1.8029   -1.4019 C   0  0  0  0  0  0  0  0  0  0  0  0
   -3.5626   -1.6633    1.0039 C   0  0  0  0  0  0  0  0  0  0  0  0
   -4.1709   -1.7737   -0.2466 C   0  0  0  0  0  0  0  0  0  0  0  0
    7.1047   -0.5088   -0.8212 C   0  0  0  0  0  0  0  0  0  0  0  0
   -2.4392    5.0919    0.8040 C   0  0  0  0  0  0  0  0  0  0  0  0
   -6.2646   -1.8176    0.8807 C   0  0  0  0  0  0  0  0  0  0  0  0
  1  8  1  0
  2 20  1  0
  2 25  1  0
  3 21  1  0
  3 26  1  0
  4 24  1  0
  4 27  1  0
  5  6  1  0
  5  7  1  0
  5  8  2  3
  6 10  2  0
  6 12  1  0
  7 11  2  0
  7 13  1  0
  8  9  1  0
  9 18  2  0
  9 19  1  0
 10 14  1  0
 11 15  1  0
 12 16  2  0
 13 17  2  0
 14 20  2  0
 15 21  2  0
 16 20  1  0
 17 21  1  0
 18 22  1  0
 19 23  2  0
 22 24  2  0
 23 24  1  0
M  END
>  <PUBCHEM_COMPOUND_CID>  (1) 
11289

>  <PUBCHEM_CONFORMER_RMSD>  (1) 
0.8

>  <PUBCHEM_CONFORMER_DIVERSEORDER>  (1) 
1
2

>  <PUBCHEM_MMFF94_PARTIAL_CHARGES>  (1) 
39
1 -0.14
10 -0.15
11 -0.15
12 -0.15
13 -0.15
14 -0.15
15 -0.15
16 -0.15
17 -0.15
18 -0.15
19 -0.15
2 -0.36
20 0.08
21 0.08
22 -0.15
23 -0.15
24 0.08
25 0.28
26 0.28
27 0.28
28 0.15
29 0.15
3 -0.36
30 0.15
31 0.15
32 0.15
33 0.15
34 0.15
35 0.15
36 0.15
37 0.15
38 0.15
39 0.15
4 -0.36
5 -0.06
6 0.03
7 0.03
8 0.11
9 0.03

>  <PUBCHEM_EFFECTIVE_ROTOR_COUNT>  (1) 
6

>  <PUBCHEM_PHARMACOPHORE_FEATURES>  (1) 
6
1 2 acceptor
1 3 acceptor
1 4 acceptor
6 6 10 12 14 16 20 rings
6 7 11 13 15 17 21 rings
6 9 18 19 22 23 24 rings

>  <PUBCHEM_HEAVY_ATOM_COUNT>  (1) 
27

>  <PUBCHEM_ATOM_DEF_STEREO_COUNT>  (1) 
0

>  <PUBCHEM_ATOM_UDEF_STEREO_COUNT>  (1) 
0

>  <PUBCHEM_BOND_DEF_STEREO_COUNT>  (1) 
0

>  <PUBCHEM_BOND_UDEF_STEREO_COUNT>  (1) 
0

>  <PUBCHEM_ISOTOPIC_ATOM_COUNT>  (1) 
0

>  <PUBCHEM_COMPONENT_COUNT>  (1) 
1

>  <PUBCHEM_CACTVS_TAUTO_COUNT>  (1) 
1

>  <PUBCHEM_CONFORMER_ID>  (1) 
00002C1900000001

>  <PUBCHEM_MMFF94_ENERGY>  (1) 
119.389

>  <PUBCHEM_FEATURE_SELFOVERLAP>  (1) 
30.448

>  <PUBCHEM_SHAPE_FINGERPRINT>  (1) 
10050765 1 18194404390742898566
102385 1 17977944588264224899
104564 63 18409727331386643103
10930396 42 18049693469227544112
11101153 10 18262528112776267532
11265709 11 18336265733956414969
11421498 54 18113609075860350043
11578080 2 17985001301425315622
11582403 64 14567562936809112509
11646440 116 18336835285586216307
12236239 1 17458338642151790038
12293681 4 18187655725683644715
12516196 113 18337106886005851691
12741549 16 17822284734707975261
12788726 201 18334849507161264786
13004483 165 18339642346902738349
13134695 92 18194398025289519173
13140716 1 18409729599256242417
13540713 4 17986678061237848478
13540713 5 17970057843451255090
13583140 156 14764630806826655042
13590594 115 18340206392906192089
13911987 19 18115321105854522942
14068700 675 18336261340621492700
14294032 229 18266469697777316273
14347332 77 18339357471114133302
14955137 171 18265619973173811739
15021287 119 18199187481330623607
15081414 286 18123180470857012265
15131766 46 15695725978585450344
15198563 99 18410294683508126453
15238133 3 18261120681815006823
15420108 30 17338986869277665752
15849732 13 17988364866604144991
16087824 20 18338798902496923725
16752209 62 18335125489275860002
17357779 13 18270102608785651039
17980427 23 14907909322752170283
1813 80 18341901843260791079
18365409 1 18266456504503031365
19301679 30 18337112271953318131
19427546 62 17546164104457335761
20600515 1 18198639906399577590
21033648 29 17704064123551099435
21041028 32 18337109068408082565
21236236 1 18410293575854189590
21285901 2 18059310806577151670
21304303 172 18412549808201114673
21424621 283 11098119055532182414
21641784 216 18187093840475645412
229495 10 14116972196767701516
23175994 123 18261109737879757215
23419403 2 17488721489284044009
23558518 356 18044658602871972970
23559900 14 15913045469132625522
23845131 108 17835236745313113081
266924 87 18338228259117501638
283562 15 18408039589559629762
3027735 51 18337106765767970594
345986 75 18041820879477437067
350125 39 18267305335747465042
3552219 110 17968674803214123436
469060 322 18261402126162431089
508180 173 18051094187207233165
513202 73 18267596722976061746
5171179 24 17987499567536972633
5969126 39 18413103970324082692
59755656 520 18122060893305332468
7226269 152 18334853918087337623
7495541 125 17605277479035368091
7808743 9 18265053527628740200
81228 2 18335422331043863720
9658208 31 17909844140790145284

>  <PUBCHEM_SHAPE_MULTIPOLES>  (1) 
539.91
11.73
4.73
1.39
11.81
8.11
-0.07
-8.13
0.48
-7.31
0.25
0
0.09
-0.11

>  <PUBCHEM_SHAPE_SELFOVERLAP>  (1) 
1163.48

>  <PUBCHEM_SHAPE_VOLUME>  (1) 
300.2

>  <PUBCHEM_COORDINATE_TYPE>  (1) 
2
5
10

$$$$
