11296
     RDKit          3D

 16 17  0  0  0  0  0  0  0  0999 V2000
    0.1501   -2.5672   -0.2704 O   0  0  0  0  0  0  0  0  0  0  0  0
    2.4740   -1.8459   -1.0439 O   0  0  0  0  0  0  0  0  0  0  0  0
   -2.0679   -2.1445    1.0025 O   0  0  0  0  0  0  0  0  0  0  0  0
   -3.6646    0.0884    0.3336 O   0  0  0  0  0  0  0  0  0  0  0  0
   -2.4165    1.9365   -1.3150 O   0  0  0  0  0  0  0  0  0  0  0  0
    0.8404   -0.2997   -0.0541 C   0  0  0  0  0  0  0  0  0  0  0  0
    0.6279    1.1397    0.2655 C   0  0  0  0  0  0  0  0  0  0  0  0
   -0.1448   -1.2305   -0.0093 C   0  0  0  0  0  0  0  0  0  0  0  0
    2.2517   -0.6706   -0.3569 C   0  0  0  0  0  0  0  0  0  0  0  0
   -0.5052    1.8278    0.0491 C   0  0  0  0  0  0  0  0  0  0  0  0
    1.7782    1.9016    0.7761 C   0  0  0  0  0  0  0  0  0  0  0  0
   -1.5408   -1.0276    0.3678 C   0  0  0  0  0  0  0  0  0  0  0  0
    3.2634    0.1457   -0.0040 C   0  0  0  0  0  0  0  0  0  0  0  0
   -2.3024    0.0483    0.1004 C   0  0  0  0  0  0  0  0  0  0  0  0
   -1.7650    1.2887   -0.5011 C   0  0  0  0  0  0  0  0  0  0  0  0
    3.0215    1.4092    0.6598 C   0  0  0  0  0  0  0  0  0  0  0  0
  1  8  1  0
  2  9  1  0
  3 12  1  0
  4 14  1  0
  5 15  2  0
  6  7  1  0
  6  8  2  0
  6  9  1  0
  7 10  2  0
  7 11  1  0
  8 12  1  0
  9 13  2  0
 10 15  1  0
 11 16  2  0
 12 14  2  0
 13 16  1  0
 14 15  1  0
M  END
>  <PUBCHEM_COMPOUND_CID>  (1) 
11296

>  <PUBCHEM_CONFORMER_RMSD>  (1) 
0.4

>  <PUBCHEM_CONFORMER_DIVERSEORDER>  (1) 
1
2

>  <PUBCHEM_MMFF94_PARTIAL_CHARGES>  (1) 
22
1 -0.53
10 -0.14
11 -0.15
12 0.08
13 -0.15
14 0.09
15 0.54
16 -0.15
17 0.15
18 0.15
19 0.15
2 -0.53
20 0.15
21 0.45
22 0.45
23 0.45
24 0.45
3 -0.53
4 -0.53
5 -0.57
8 0.08
9 0.08

>  <PUBCHEM_EFFECTIVE_ROTOR_COUNT>  (1) 
0

>  <PUBCHEM_PHARMACOPHORE_FEATURES>  (1) 
7
1 1 donor
1 2 donor
1 3 donor
1 4 donor
1 5 acceptor
6 6 7 9 11 13 16 rings
7 6 7 8 10 12 14 15 rings

>  <PUBCHEM_HEAVY_ATOM_COUNT>  (1) 
16

>  <PUBCHEM_ATOM_DEF_STEREO_COUNT>  (1) 
0

>  <PUBCHEM_ATOM_UDEF_STEREO_COUNT>  (1) 
0

>  <PUBCHEM_BOND_DEF_STEREO_COUNT>  (1) 
0

>  <PUBCHEM_BOND_UDEF_STEREO_COUNT>  (1) 
0

>  <PUBCHEM_ISOTOPIC_ATOM_COUNT>  (1) 
0

>  <PUBCHEM_COMPONENT_COUNT>  (1) 
1

>  <PUBCHEM_CACTVS_TAUTO_COUNT>  (1) 
122

>  <PUBCHEM_CONFORMER_ID>  (1) 
00002C2000000001

>  <PUBCHEM_MMFF94_ENERGY>  (1) 
65.8511

>  <PUBCHEM_FEATURE_SELFOVERLAP>  (1) 
35.56

>  <PUBCHEM_SHAPE_FINGERPRINT>  (1) 
10608611 8 18410851075088346112
10967382 1 18412263938834134442
11132069 177 18339357599166080169
11471102 20 18342454786283355741
12138202 97 18261661623738779436
12382932 28 18267584782982186416
12524768 44 18411979195445333808
12730499 353 17827628159604235421
13140716 1 18411138047512088523
13380535 76 18270110339958885682
13897977 150 18341611542126182913
14761567 1 17905620903800659766
15219456 202 18412822473688100792
16945 1 18052254003378879000
17844478 74 18261401091048873897
18186145 218 18265614269071945405
19049666 15 18338517426295613144
20201158 50 18342457041009057488
20588541 1 18411421751619049425
20871998 184 18122341556132141393
21501502 16 18268987772872811700
22721475 48 18411705395659862984
22802520 49 18341057328315583254
2334 1 18339361984295891250
23388829 49 16971106848338287479
23493267 7 18113615673277905536
23559900 14 18196374724496654254
25 1 18121772829532415029
2748010 2 18411702097119458084
53812653 166 18341895220663755208
598444 67 18335990778771766607
81228 2 18114751528929353275
8809292 202 18335707152095594690

>  <PUBCHEM_SHAPE_MULTIPOLES>  (1) 
299.93
4.79
2.51
0.89
0.06
0.57
0.07
-0.61
-0.17
-0.12
0.14
-0.11
-0.06
1.26

>  <PUBCHEM_SHAPE_SELFOVERLAP>  (1) 
656.762

>  <PUBCHEM_SHAPE_VOLUME>  (1) 
158.5

>  <PUBCHEM_COORDINATE_TYPE>  (1) 
2
5
10

$$$$
