11304
     RDKit          3D

 12 13  0  0  0  0  0  0  0  0999 V2000
    0.2162    0.7076   -0.0001 C   0  0  0  0  0  0  0  0  0  0  0  0
    0.2161   -0.7076    0.0000 C   0  0  0  0  0  0  0  0  0  0  0  0
   -1.0089    1.3945   -0.0001 C   0  0  0  0  0  0  0  0  0  0  0  0
   -1.0089   -1.3943    0.0000 C   0  0  0  0  0  0  0  0  0  0  0  0
   -2.2165    0.6959   -0.0002 C   0  0  0  0  0  0  0  0  0  0  0  0
   -2.2165   -0.6958   -0.0001 C   0  0  0  0  0  0  0  0  0  0  0  0
    1.4412    1.3943   -0.0001 C   0  0  0  0  0  0  0  0  0  0  0  0
    1.4411   -1.3945    0.0001 C   0  0  0  0  0  0  0  0  0  0  0  0
   -1.0805    2.8903    0.0003 C   0  0  0  0  0  0  0  0  0  0  0  0
   -1.0810   -2.8901    0.0001 C   0  0  0  0  0  0  0  0  0  0  0  0
    2.6489    0.6957   -0.0001 C   0  0  0  0  0  0  0  0  0  0  0  0
    2.6489   -0.6960    0.0000 C   0  0  0  0  0  0  0  0  0  0  0  0
  1  2  1  0
  1  3  2  0
  1  7  1  0
  2  4  2  0
  2  8  1  0
  3  5  1  0
  3  9  1  0
  4  6  1  0
  4 10  1  0
  5  6  2  0
  7 11  2  0
  8 12  2  0
 11 12  1  0
M  END
>  <PUBCHEM_COMPOUND_CID>  (1) 
11304

>  <PUBCHEM_CONFORMER_RMSD>  (1) 
0.4

>  <PUBCHEM_CONFORMER_DIVERSEORDER>  (1) 
1

>  <PUBCHEM_MMFF94_PARTIAL_CHARGES>  (1) 
16
10 0.14
11 -0.15
12 -0.15
13 0.15
14 0.15
15 0.15
16 0.15
23 0.15
24 0.15
3 -0.14
4 -0.14
5 -0.15
6 -0.15
7 -0.15
8 -0.15
9 0.14

>  <PUBCHEM_EFFECTIVE_ROTOR_COUNT>  (1) 
0

>  <PUBCHEM_PHARMACOPHORE_FEATURES>  (1) 
2
6 1 2 3 4 5 6 rings
6 1 2 7 8 11 12 rings

>  <PUBCHEM_HEAVY_ATOM_COUNT>  (1) 
12

>  <PUBCHEM_ATOM_DEF_STEREO_COUNT>  (1) 
0

>  <PUBCHEM_ATOM_UDEF_STEREO_COUNT>  (1) 
0

>  <PUBCHEM_BOND_DEF_STEREO_COUNT>  (1) 
0

>  <PUBCHEM_BOND_UDEF_STEREO_COUNT>  (1) 
0

>  <PUBCHEM_ISOTOPIC_ATOM_COUNT>  (1) 
0

>  <PUBCHEM_COMPONENT_COUNT>  (1) 
1

>  <PUBCHEM_CACTVS_TAUTO_COUNT>  (1) 
1

>  <PUBCHEM_CONFORMER_ID>  (1) 
00002C2800000001

>  <PUBCHEM_MMFF94_ENERGY>  (1) 
38.6736

>  <PUBCHEM_FEATURE_SELFOVERLAP>  (1) 
10.175

>  <PUBCHEM_SHAPE_FINGERPRINT>  (1) 
1 1 17761772858174147124
10967382 1 18338797952031797287
11206711 2 18338518521433308676
12382932 28 18267864063204059608
12423570 1 10685610725389178250
12524768 44 18342182210141246406
13380535 76 17903914453285820313
16945 1 18410575089163761542
193761 8 18410573981141326950
20510252 161 18272087141422264568
20588541 1 18341898531835529395
20871998 184 18200879594273678095
21040471 1 18266741277380718720
2334 1 17978228592928303682
23402539 116 18271512178613978391
23552423 10 18117278275100453270
23559900 14 17695352469945042486
241688 4 18194400215195196130
2748010 2 18051973911508140844
2897 32 18193276295347404404
5084963 1 18059006160087899944
528886 8 18339637957424893994
66348 1 18337671910354091140

>  <PUBCHEM_SHAPE_MULTIPOLES>  (1) 
246.95
3.32
2.9
0.62
1.4
0
0
0
0
-1.31
0
0
0
0

>  <PUBCHEM_SHAPE_SELFOVERLAP>  (1) 
538.805

>  <PUBCHEM_SHAPE_VOLUME>  (1) 
127.4

>  <PUBCHEM_COORDINATE_TYPE>  (1) 
2
5
10

$$$$
