11317
     RDKit          3D

 12 13  0  0  0  0  0  0  0  0999 V2000
    0.3085   -0.4481    0.0000 C   0  0  0  0  0  0  0  0  0  0  0  0
   -1.0561   -0.7798   -0.0001 C   0  0  0  0  0  0  0  0  0  0  0  0
    0.6896    0.9148   -0.0001 C   0  0  0  0  0  0  0  0  0  0  0  0
   -2.0310    0.2180   -0.0002 C   0  0  0  0  0  0  0  0  0  0  0  0
   -0.3054    1.9061   -0.0002 C   0  0  0  0  0  0  0  0  0  0  0  0
   -1.6564    1.5584   -0.0003 C   0  0  0  0  0  0  0  0  0  0  0  0
    1.3034   -1.4395    0.0002 C   0  0  0  0  0  0  0  0  0  0  0  0
   -1.5047   -2.2113   -0.0007 C   0  0  0  0  0  0  0  0  0  0  0  0
    2.0543    1.2464    0.0000 C   0  0  0  0  0  0  0  0  0  0  0  0
   -3.4862   -0.1217    0.0010 C   0  0  0  0  0  0  0  0  0  0  0  0
    2.6547   -1.0919    0.0002 C   0  0  0  0  0  0  0  0  0  0  0  0
    3.0293    0.2485    0.0001 C   0  0  0  0  0  0  0  0  0  0  0  0
  1  2  2  0
  1  3  1  0
  1  7  1  0
  2  4  1  0
  2  8  1  0
  3  5  2  0
  3  9  1  0
  4  6  2  0
  4 10  1  0
  5  6  1  0
  7 11  2  0
  9 12  2  0
 11 12  1  0
M  END
>  <PUBCHEM_COMPOUND_CID>  (1) 
11317

>  <PUBCHEM_CONFORMER_RMSD>  (1) 
0.4

>  <PUBCHEM_CONFORMER_DIVERSEORDER>  (1) 
1

>  <PUBCHEM_MMFF94_PARTIAL_CHARGES>  (1) 
16
10 0.14
11 -0.15
12 -0.15
13 0.15
14 0.15
15 0.15
19 0.15
2 -0.14
23 0.15
24 0.15
4 -0.14
5 -0.15
6 -0.15
7 -0.15
8 0.14
9 -0.15

>  <PUBCHEM_EFFECTIVE_ROTOR_COUNT>  (1) 
0

>  <PUBCHEM_PHARMACOPHORE_FEATURES>  (1) 
2
6 1 2 3 4 5 6 rings
6 1 3 7 9 11 12 rings

>  <PUBCHEM_HEAVY_ATOM_COUNT>  (1) 
12

>  <PUBCHEM_ATOM_DEF_STEREO_COUNT>  (1) 
0

>  <PUBCHEM_ATOM_UDEF_STEREO_COUNT>  (1) 
0

>  <PUBCHEM_BOND_DEF_STEREO_COUNT>  (1) 
0

>  <PUBCHEM_BOND_UDEF_STEREO_COUNT>  (1) 
0

>  <PUBCHEM_ISOTOPIC_ATOM_COUNT>  (1) 
0

>  <PUBCHEM_COMPONENT_COUNT>  (1) 
1

>  <PUBCHEM_CACTVS_TAUTO_COUNT>  (1) 
1

>  <PUBCHEM_CONFORMER_ID>  (1) 
00002C3500000001

>  <PUBCHEM_MMFF94_ENERGY>  (1) 
39.7557

>  <PUBCHEM_FEATURE_SELFOVERLAP>  (1) 
10.175

>  <PUBCHEM_SHAPE_FINGERPRINT>  (1) 
10967382 1 18410855481608299014
11132069 177 18339918315994872896
11206711 2 18264490589715734749
11471102 20 18410288103939345021
12032990 46 18409737257098346611
12382932 28 18340484577120140226
12423570 1 11587523655550071417
12524768 44 18413112744615331047
13380535 76 18411697694672874350
14325111 11 18410575041787564289
16945 1 18410573985251801348
17844478 74 18040444282519352265
193761 8 17762056940385689445
20201158 50 18410291410684387114
20510252 161 18201156542397147928
20588541 1 18411984675792000431
20871998 184 18201441419109198199
21501502 16 18412262878008867318
2334 1 17978229692250046882
23402539 116 18270667710649621495
23402655 69 18341602703737687381
23463225 33 18408322176937735368
23552423 10 18189336930000623540
23559900 14 18270966718690578438
2748010 2 18050848020048931404
369184 2 18411417289111008104
5084963 1 18130220437344750579
528886 8 18411695530103991018
53812653 166 18200026386425459272
7364860 26 18343584066667096364
8809292 202 18334018315015042906

>  <PUBCHEM_SHAPE_MULTIPOLES>  (1) 
246.95
4.38
2.08
0.62
0.18
0.19
0
0.35
0
0.28
0
0
0
0

>  <PUBCHEM_SHAPE_SELFOVERLAP>  (1) 
539.039

>  <PUBCHEM_SHAPE_VOLUME>  (1) 
127.3

>  <PUBCHEM_COORDINATE_TYPE>  (1) 
2
5
10

$$$$
