11327
     RDKit          3D

 12 13  0  0  0  0  0  0  0  0999 V2000
    0.4745    0.5426   -0.0001 C   0  0  0  0  0  0  0  0  0  0  0  0
    0.3342   -0.8657    0.0001 C   0  0  0  0  0  0  0  0  0  0  0  0
   -0.6765    1.3474   -0.0002 C   0  0  0  0  0  0  0  0  0  0  0  0
   -2.0852   -0.6130    0.0000 C   0  0  0  0  0  0  0  0  0  0  0  0
   -0.9528   -1.4277    0.0001 C   0  0  0  0  0  0  0  0  0  0  0  0
   -1.9474    0.7719   -0.0002 C   0  0  0  0  0  0  0  0  0  0  0  0
    1.7615    1.1045   -0.0001 C   0  0  0  0  0  0  0  0  0  0  0  0
    1.4851   -1.6706    0.0001 C   0  0  0  0  0  0  0  0  0  0  0  0
   -0.5989    2.8431    0.0004 C   0  0  0  0  0  0  0  0  0  0  0  0
   -3.4446   -1.2270    0.0000 C   0  0  0  0  0  0  0  0  0  0  0  0
    2.8940    0.2897   -0.0001 C   0  0  0  0  0  0  0  0  0  0  0  0
    2.7561   -1.0952    0.0001 C   0  0  0  0  0  0  0  0  0  0  0  0
  1  2  1  0
  1  3  2  0
  1  7  1  0
  2  5  2  0
  2  8  1  0
  3  6  1  0
  3  9  1  0
  4  5  1  0
  4  6  2  0
  4 10  1  0
  7 11  2  0
  8 12  2  0
 11 12  1  0
M  END
>  <PUBCHEM_COMPOUND_CID>  (1) 
11327

>  <PUBCHEM_CONFORMER_RMSD>  (1) 
0.4

>  <PUBCHEM_CONFORMER_DIVERSEORDER>  (1) 
1

>  <PUBCHEM_MMFF94_PARTIAL_CHARGES>  (1) 
16
10 0.14
11 -0.15
12 -0.15
13 0.15
14 0.15
15 0.15
16 0.15
23 0.15
24 0.15
3 -0.14
4 -0.14
5 -0.15
6 -0.15
7 -0.15
8 -0.15
9 0.14

>  <PUBCHEM_EFFECTIVE_ROTOR_COUNT>  (1) 
0

>  <PUBCHEM_PHARMACOPHORE_FEATURES>  (1) 
2
6 1 2 3 4 5 6 rings
6 1 2 7 8 11 12 rings

>  <PUBCHEM_HEAVY_ATOM_COUNT>  (1) 
12

>  <PUBCHEM_ATOM_DEF_STEREO_COUNT>  (1) 
0

>  <PUBCHEM_ATOM_UDEF_STEREO_COUNT>  (1) 
0

>  <PUBCHEM_BOND_DEF_STEREO_COUNT>  (1) 
0

>  <PUBCHEM_BOND_UDEF_STEREO_COUNT>  (1) 
0

>  <PUBCHEM_ISOTOPIC_ATOM_COUNT>  (1) 
0

>  <PUBCHEM_COMPONENT_COUNT>  (1) 
1

>  <PUBCHEM_CACTVS_TAUTO_COUNT>  (1) 
1

>  <PUBCHEM_CONFORMER_ID>  (1) 
00002C3F00000001

>  <PUBCHEM_MMFF94_ENERGY>  (1) 
36.2339

>  <PUBCHEM_FEATURE_SELFOVERLAP>  (1) 
10.175

>  <PUBCHEM_SHAPE_FINGERPRINT>  (1) 
10219947 1 18341054128660081587
10967382 1 18194401319007085063
11206711 2 18337113358615999460
11471102 20 18337949112402961791
12032990 46 18410299141747112051
12524768 44 18342179985385129806
12897270 3 18410572868576063798
13380535 76 17907571428838406165
161256 15 18341610442841408432
16945 1 18266740173426359142
17844478 74 18041286529895679963
193761 8 17978510828056430819
19973954 147 18267023860427245838
20201158 50 18334856155717994971
20588541 1 18263364865971129075
20871998 184 18201717306227656415
21040471 1 17833831573493782308
21501502 16 18338239245764520826
2334 1 18410575097780108865
23402539 116 18270950327850522359
23463225 33 18409450297158099191
23552423 10 18260833665723705718
23559900 14 17406837285869374238
241688 4 18410293588338327577
2748010 2 18411415107399516637
5084963 1 18201156564050981378
528886 8 18339920540598222978
7364860 26 17981044433622761521
81228 2 18336551495352964609

>  <PUBCHEM_SHAPE_MULTIPOLES>  (1) 
246.95
4.23
2.35
0.62
0.39
1.32
0
-1.67
0
0.41
0
0
0
0

>  <PUBCHEM_SHAPE_SELFOVERLAP>  (1) 
537.779

>  <PUBCHEM_SHAPE_VOLUME>  (1) 
126.4

>  <PUBCHEM_COORDINATE_TYPE>  (1) 
2
5
10

$$$$
