11323
     RDKit          3D

 27 30  0  0  0  0  0  0  0  0999 V2000
    0.0014   -0.0206   -0.5342 O   0  0  0  0  0  0  0  0  0  0  0  0
    1.1885   -0.0138    0.2780 C   0  0  0  0  0  0  0  0  0  0  0  0
   -1.1615   -0.0130    0.2717 C   0  0  0  0  0  0  0  0  0  0  0  0
    2.2926   -0.7667   -0.3842 C   0  0  0  0  0  0  0  0  0  0  0  0
    1.5674    1.4106    0.6715 C   0  0  0  0  0  0  0  0  0  0  0  0
   -2.2636    0.7692   -0.4122 C   0  0  0  0  0  0  0  0  0  0  0  0
   -1.5869   -1.4161    0.6591 C   0  0  0  0  0  0  0  0  0  0  0  0
    3.2535   -1.4191    0.3885 C   0  0  0  0  0  0  0  0  0  0  0  0
    2.2175    1.6172    1.8691 C   0  0  0  0  0  0  0  0  0  0  0  0
   -3.2002    1.4315    0.3613 C   0  0  0  0  0  0  0  0  0  0  0  0
   -2.2410   -1.6126    1.8612 C   0  0  0  0  0  0  0  0  0  0  0  0
    2.3643   -0.8191   -1.7764 C   0  0  0  0  0  0  0  0  0  0  0  0
    1.2473    2.4427   -0.1839 C   0  0  0  0  0  0  0  0  0  0  0  0
   -2.3080    0.8040   -1.7946 C   0  0  0  0  0  0  0  0  0  0  0  0
   -1.3105   -2.4639   -0.1996 C   0  0  0  0  0  0  0  0  0  0  0  0
    4.2861   -2.1233   -0.2307 C   0  0  0  0  0  0  0  0  0  0  0  0
    2.5643    2.9195    2.2288 C   0  0  0  0  0  0  0  0  0  0  0  0
   -4.2151    2.1521   -0.2684 C   0  0  0  0  0  0  0  0  0  0  0  0
   -2.6325   -2.9030    2.2176 C   0  0  0  0  0  0  0  0  0  0  0  0
    3.3969   -1.5235   -2.3955 C   0  0  0  0  0  0  0  0  0  0  0  0
    1.5941    3.7449    0.1760 C   0  0  0  0  0  0  0  0  0  0  0  0
   -3.3228    1.5248   -2.4242 C   0  0  0  0  0  0  0  0  0  0  0  0
   -1.7023   -3.7544    0.1568 C   0  0  0  0  0  0  0  0  0  0  0  0
    4.3577   -2.1756   -1.6226 C   0  0  0  0  0  0  0  0  0  0  0  0
    2.2526    3.9832    1.3824 C   0  0  0  0  0  0  0  0  0  0  0  0
   -4.2763    2.1988   -1.6611 C   0  0  0  0  0  0  0  0  0  0  0  0
   -2.3632   -3.9739    1.3655 C   0  0  0  0  0  0  0  0  0  0  0  0
  1  2  1  0
  1  3  1  0
  2  4  1  0
  2  5  1  0
  3  6  1  0
  3  7  1  0
  4  8  2  0
  4 12  1  0
  5  9  2  0
  5 13  1  0
  6 10  2  0
  6 14  1  0
  7 11  2  0
  7 15  1  0
  8 16  1  0
  9 17  1  0
 10 18  1  0
 11 19  1  0
 12 20  2  0
 13 21  2  0
 14 22  2  0
 15 23  2  0
 16 24  2  0
 17 25  2  0
 18 26  2  0
 19 27  2  0
 20 24  1  0
 21 25  1  0
 22 26  1  0
 23 27  1  0
M  END
>  <PUBCHEM_COMPOUND_CID>  (1) 
11323

>  <PUBCHEM_CONFORMER_RMSD>  (1) 
0.8

>  <PUBCHEM_CONFORMER_DIVERSEORDER>  (1) 
1
12
2
10
11
15
13
7
14
9
6
8
5
3
4

>  <PUBCHEM_MMFF94_PARTIAL_CHARGES>  (1) 
47
1 -0.56
10 -0.15
11 -0.15
12 -0.15
13 -0.15
14 -0.15
15 -0.15
16 -0.15
17 -0.15
18 -0.15
19 -0.15
2 0.57
20 -0.15
21 -0.15
22 -0.15
23 -0.15
24 -0.15
25 -0.15
26 -0.15
27 -0.15
3 0.57
30 0.15
31 0.15
32 0.15
33 0.15
34 0.15
35 0.15
36 0.15
37 0.15
38 0.15
39 0.15
4 -0.14
40 0.15
41 0.15
42 0.15
43 0.15
44 0.15
45 0.15
46 0.15
47 0.15
48 0.15
49 0.15
5 -0.14
6 -0.14
7 -0.14
8 -0.15
9 -0.15

>  <PUBCHEM_EFFECTIVE_ROTOR_COUNT>  (1) 
6

>  <PUBCHEM_PHARMACOPHORE_FEATURES>  (1) 
5
1 1 acceptor
6 4 8 12 16 20 24 rings
6 5 9 13 17 21 25 rings
6 6 10 14 18 22 26 rings
6 7 11 15 19 23 27 rings

>  <PUBCHEM_HEAVY_ATOM_COUNT>  (1) 
27

>  <PUBCHEM_ATOM_DEF_STEREO_COUNT>  (1) 
0

>  <PUBCHEM_ATOM_UDEF_STEREO_COUNT>  (1) 
0

>  <PUBCHEM_BOND_DEF_STEREO_COUNT>  (1) 
0

>  <PUBCHEM_BOND_UDEF_STEREO_COUNT>  (1) 
0

>  <PUBCHEM_ISOTOPIC_ATOM_COUNT>  (1) 
0

>  <PUBCHEM_COMPONENT_COUNT>  (1) 
1

>  <PUBCHEM_CACTVS_TAUTO_COUNT>  (1) 
1

>  <PUBCHEM_CONFORMER_ID>  (1) 
00002C3B00000001

>  <PUBCHEM_MMFF94_ENERGY>  (1) 
82.5434

>  <PUBCHEM_FEATURE_SELFOVERLAP>  (1) 
25.374

>  <PUBCHEM_SHAPE_FINGERPRINT>  (1) 
10165383 225 17898026633270721661
10305334 12 17685725355904145224
10675989 125 17761205519212639732
10906281 52 18201436927079698144
11578080 2 18263942062431597036
12160290 23 17531518889111593951
12293681 160 17979070483907164276
12714826 92 18189923996190747710
12788726 201 17909270174735927566
13149001 5 18411136913651174076
133893 2 17489027170949356220
13681431 1 18059863857137240188
13692114 37 18335133182184708147
14223421 5 18194967580385644546
15420108 30 16262932832459861881
15439362 3 18341033164899200216
15775530 1 18338797947694619013
1813 80 17773311236697483940
18365409 1 14883930734523400172
19319366 153 17400937301551564673
20600515 1 18267031561741516148
20775438 99 18053071151536561847
21033648 29 18042950017848324941
229495 10 17915464024087553499
23557571 272 17825948401619485111
23558518 356 18266721636743083951
23559900 14 18262806301174029335
283562 15 17764029060830288656
3084891 72 18120939390975489322
3298306 158 18044376024484351311
3380486 77 18046627802896410074
3493558 16 15409180933892841083
376196 1 17622673900201686153
57527358 35 15697135345468730025
59554788 248 17838886380892735776
59554788 62 17836370719668463667
6049 1 18337965600228451731
621550 34 17836654388977440443
7226269 152 18121213187130962398
7399639 24 17836083751106451264
81228 2 17896317107427143715
9709674 26 18339633563910687903
9981440 41 17483638528607002761

>  <PUBCHEM_SHAPE_MULTIPOLES>  (1) 
549.78
7.68
5.4
2.34
0.35
0.03
-0.31
-0.31
-2.77
-0.16
2.42
-0.03
0.04
5.28

>  <PUBCHEM_SHAPE_SELFOVERLAP>  (1) 
1209.912

>  <PUBCHEM_SHAPE_VOLUME>  (1) 
294.1

>  <PUBCHEM_COORDINATE_TYPE>  (1) 
2
5
10

$$$$
