11332
     RDKit          3D

 13 13  0  0  0  0  0  0  0  0999 V2000
   -0.4830   -2.7229   -0.2581 Cl  0  0  0  0  0  0  0  0  0  0  0  0
   -0.4543    2.7157   -0.2741 Cl  0  0  0  0  0  0  0  0  0  0  0  0
    0.7339   -0.0107   -0.5238 O   0  0  0  0  0  0  0  0  0  0  0  0
    3.9120    0.0248    1.1361 O   0  0  0  0  0  0  0  0  0  0  0  0
    3.3996   -0.0212   -1.0827 O   0  0  0  0  0  0  0  0  0  0  0  0
   -0.6012   -0.0028   -0.2374 C   0  0  0  0  0  0  0  0  0  0  0  0
   -1.2895   -1.2068   -0.0878 C   0  0  0  0  0  0  0  0  0  0  0  0
   -1.2766    1.2092   -0.0945 C   0  0  0  0  0  0  0  0  0  0  0  0
    1.6309   -0.0124    0.5833 C   0  0  0  0  0  0  0  0  0  0  0  0
   -2.6533   -1.1986    0.2049 C   0  0  0  0  0  0  0  0  0  0  0  0
   -2.6404    1.2172    0.1981 C   0  0  0  0  0  0  0  0  0  0  0  0
   -3.3288    0.0133    0.3480 C   0  0  0  0  0  0  0  0  0  0  0  0
    3.0506   -0.0048    0.0881 C   0  0  0  0  0  0  0  0  0  0  0  0
  1  7  1  0
  2  8  1  0
  3  6  1  0
  3  9  1  0
  4 13  1  0
  5 13  2  0
  6  7  2  0
  6  8  1  0
  7 10  1  0
  8 11  2  0
  9 13  1  0
 10 12  2  0
 11 12  1  0
M  END
>  <PUBCHEM_COMPOUND_CID>  (1) 
11332

>  <PUBCHEM_CONFORMER_RMSD>  (1) 
0.6

>  <PUBCHEM_CONFORMER_DIVERSEORDER>  (1) 
1
6
8
5
9
7
3
2
4

>  <PUBCHEM_MMFF94_PARTIAL_CHARGES>  (1) 
17
1 -0.18
10 -0.15
11 -0.15
12 -0.15
13 0.66
16 0.15
17 0.15
18 0.15
19 0.5
2 -0.18
3 -0.36
4 -0.65
5 -0.57
6 0.08
7 0.18
8 0.18
9 0.34

>  <PUBCHEM_EFFECTIVE_ROTOR_COUNT>  (1) 
3

>  <PUBCHEM_PHARMACOPHORE_FEATURES>  (1) 
5
1 3 acceptor
1 4 acceptor
1 5 acceptor
3 4 5 13 anion
6 6 7 8 10 11 12 rings

>  <PUBCHEM_HEAVY_ATOM_COUNT>  (1) 
13

>  <PUBCHEM_ATOM_DEF_STEREO_COUNT>  (1) 
0

>  <PUBCHEM_ATOM_UDEF_STEREO_COUNT>  (1) 
0

>  <PUBCHEM_BOND_DEF_STEREO_COUNT>  (1) 
0

>  <PUBCHEM_BOND_UDEF_STEREO_COUNT>  (1) 
0

>  <PUBCHEM_ISOTOPIC_ATOM_COUNT>  (1) 
0

>  <PUBCHEM_COMPONENT_COUNT>  (1) 
1

>  <PUBCHEM_CACTVS_TAUTO_COUNT>  (1) 
1

>  <PUBCHEM_CONFORMER_ID>  (1) 
00002C4400000001

>  <PUBCHEM_MMFF94_ENERGY>  (1) 
32.9343

>  <PUBCHEM_FEATURE_SELFOVERLAP>  (1) 
25.434

>  <PUBCHEM_SHAPE_FINGERPRINT>  (1) 
11132069 177 18413388726450124377
13024252 1 15430033245381691009
14614273 12 18189894206497724741
14993402 34 18408322215792888335
15669948 3 18337111280063097342
16945 1 18410580582753980807
17846911 113 18411976932140175561
193761 8 17762340618907450343
19422 9 17822013116264652322
20510252 161 18272371940571799969
20645464 45 17988918985476564290
20871998 184 18270686475420117143
23402539 116 18271230699405558479
23463225 33 18261672567326089970
23552423 10 17542510878268125317
23557571 272 18200322146927671844
23559900 14 18271813389524304014
2748010 2 18049738325744637295
3250762 1 17689719653977592709
43471831 8 18335983065037461627
7364860 26 17909554191721692037
75552 356 18410857685084757969
77492 1 17676212381126487742
81228 2 18125989696948022927
90316 7 18260822661928355296

>  <PUBCHEM_SHAPE_MULTIPOLES>  (1) 
253.67
5.49
2.38
0.82
4.7
0.01
-0.02
-0.01
-0.93
-1.26
0.33
0.5
0
0.01

>  <PUBCHEM_SHAPE_SELFOVERLAP>  (1) 
508.113

>  <PUBCHEM_SHAPE_VOLUME>  (1) 
150.6

>  <PUBCHEM_COORDINATE_TYPE>  (1) 
2
5
10

$$$$
