11336
     RDKit          3D

 12 12  0  0  0  0  0  0  0  0999 V2000
   -3.3024   -0.1790    0.0005 Br  0  0  0  0  0  0  0  0  0  0  0  0
    3.2832    0.4472   -0.0015 Br  0  0  0  0  0  0  0  0  0  0  0  0
   -1.3995   -2.9550   -0.0035 Br  0  0  0  0  0  0  0  0  0  0  0  0
    1.9321   -2.6423    0.0037 Br  0  0  0  0  0  0  0  0  0  0  0  0
    1.1288    2.5721   -0.0011 O   0  0  0  0  0  0  0  0  0  0  0  0
   -0.8072    1.1911    0.0009 C   0  0  0  0  0  0  0  0  0  0  0  0
    0.5816    1.3205    0.0002 C   0  0  0  0  0  0  0  0  0  0  0  0
   -1.3897   -0.0764    0.0010 C   0  0  0  0  0  0  0  0  0  0  0  0
    1.3879    0.1824   -0.0006 C   0  0  0  0  0  0  0  0  0  0  0  0
   -0.5833   -1.2146    0.0002 C   0  0  0  0  0  0  0  0  0  0  0  0
    0.8056   -1.0852   -0.0006 C   0  0  0  0  0  0  0  0  0  0  0  0
   -1.6370    2.4391    0.0007 C   0  0  0  0  0  0  0  0  0  0  0  0
  1  8  1  0
  2  9  1  0
  3 10  1  0
  4 11  1  0
  5  7  1  0
  6  7  2  0
  6  8  1  0
  6 12  1  0
  7  9  1  0
  8 10  2  0
  9 11  2  0
 10 11  1  0
M  END
>  <PUBCHEM_COMPOUND_CID>  (1) 
11336

>  <PUBCHEM_CONFORMER_RMSD>  (1) 
0.4

>  <PUBCHEM_CONFORMER_DIVERSEORDER>  (1) 
1

>  <PUBCHEM_MMFF94_PARTIAL_CHARGES>  (1) 
13
1 -0.11
10 0.11
11 0.11
12 0.14
16 0.45
2 -0.11
3 -0.11
4 -0.11
5 -0.53
6 -0.14
7 0.08
8 0.11
9 0.11

>  <PUBCHEM_EFFECTIVE_ROTOR_COUNT>  (1) 
0

>  <PUBCHEM_PHARMACOPHORE_FEATURES>  (1) 
6
1 1 hydrophobe
1 2 hydrophobe
1 3 hydrophobe
1 4 hydrophobe
1 5 donor
6 6 7 8 9 10 11 rings

>  <PUBCHEM_HEAVY_ATOM_COUNT>  (1) 
12

>  <PUBCHEM_ATOM_DEF_STEREO_COUNT>  (1) 
0

>  <PUBCHEM_ATOM_UDEF_STEREO_COUNT>  (1) 
0

>  <PUBCHEM_BOND_DEF_STEREO_COUNT>  (1) 
0

>  <PUBCHEM_BOND_UDEF_STEREO_COUNT>  (1) 
0

>  <PUBCHEM_ISOTOPIC_ATOM_COUNT>  (1) 
0

>  <PUBCHEM_COMPONENT_COUNT>  (1) 
1

>  <PUBCHEM_CACTVS_TAUTO_COUNT>  (1) 
3

>  <PUBCHEM_CONFORMER_ID>  (1) 
00002C4800000001

>  <PUBCHEM_MMFF94_ENERGY>  (1) 
40.4519

>  <PUBCHEM_FEATURE_SELFOVERLAP>  (1) 
30.448

>  <PUBCHEM_SHAPE_FINGERPRINT>  (1) 
10967382 1 18410573998083962215
13140716 1 18194964277545160153
13380535 76 18410852187432141218
16945 1 18410855485903253317
193761 8 18122626058955216198
20588541 1 18410858784454129807
21501502 16 18195247715348291936
2334 1 17834396004904881191
23402539 116 18342162371734636262
23526114 1 18194119612102147015
23552423 10 18046631105314992334
23559900 14 17550386238199363350
241688 4 18050285864680167457
2748010 2 18194119612102121039
5084963 1 17914326888340601227
5255222 1 18411132562828197617
528886 8 18339637970288592946

>  <PUBCHEM_SHAPE_MULTIPOLES>  (1) 
264.85
4.13
3.5
0.66
0.26
1
0
-0.01
0
-0.07
0
0
0.07
0

>  <PUBCHEM_SHAPE_SELFOVERLAP>  (1) 
496.894

>  <PUBCHEM_SHAPE_VOLUME>  (1) 
174.2

>  <PUBCHEM_COORDINATE_TYPE>  (1) 
2
5
10

$$$$
