11348
     RDKit          3D

 13 13  0  0  0  0  0  0  0  0999 V2000
   -3.6840    0.4027   -0.0020 O   0  0  0  0  0  0  0  0  0  0  0  0
    1.4003    2.0393    1.0976 O   0  0  0  0  0  0  0  0  0  0  0  0
    1.3984    2.0401   -1.0977 O   0  0  0  0  0  0  0  0  0  0  0  0
    2.2364   -1.3626   -1.0984 O   0  0  0  0  0  0  0  0  0  0  0  0
    2.2371   -1.3637    1.0969 O   0  0  0  0  0  0  0  0  0  0  0  0
    0.9731    1.6114    0.0001 N   0  0  0  0  0  0  0  0  0  0  0  0
    1.6604   -1.1814   -0.0005 N   0  0  0  0  0  0  0  0  0  0  0  0
   -0.0308    0.6018    0.0007 C   0  0  0  0  0  0  0  0  0  0  0  0
    0.3028   -0.7526    0.0001 C   0  0  0  0  0  0  0  0  0  0  0  0
   -1.3705    0.9901    0.0011 C   0  0  0  0  0  0  0  0  0  0  0  0
   -0.7034   -1.7187    0.0002 C   0  0  0  0  0  0  0  0  0  0  0  0
   -2.3766    0.0240    0.0011 C   0  0  0  0  0  0  0  0  0  0  0  0
   -2.0431   -1.3304    0.0008 C   0  0  0  0  0  0  0  0  0  0  0  0
  1 12  1  0
  2  6  1  0
  3  6  2  0
  4  7  1  0
  5  7  2  0
  6  8  1  0
  7  9  1  0
  8  9  2  0
  8 10  1  0
  9 11  1  0
 10 12  2  0
 11 13  2  0
 12 13  1  0
M  CHG  4   2  -1   4  -1   6   1   7   1
M  END
>  <PUBCHEM_COMPOUND_CID>  (1) 
11348

>  <PUBCHEM_CONFORMER_RMSD>  (1) 
0.6

>  <PUBCHEM_CONFORMER_DIVERSEORDER>  (1) 
1

>  <PUBCHEM_MMFF94_PARTIAL_CHARGES>  (1) 
17
1 -0.53
10 -0.15
11 -0.15
12 0.08
13 -0.15
14 0.15
15 0.15
16 0.15
17 0.45
2 -0.52
3 -0.52
4 -0.52
5 -0.52
6 0.91
7 0.91
8 0.13
9 0.13

>  <PUBCHEM_EFFECTIVE_ROTOR_COUNT>  (1) 
2

>  <PUBCHEM_PHARMACOPHORE_FEATURES>  (1) 
8
1 1 donor
1 2 acceptor
1 2 anion
1 3 acceptor
1 4 acceptor
1 4 anion
1 5 acceptor
6 8 9 10 11 12 13 rings

>  <PUBCHEM_HEAVY_ATOM_COUNT>  (1) 
13

>  <PUBCHEM_ATOM_DEF_STEREO_COUNT>  (1) 
0

>  <PUBCHEM_ATOM_UDEF_STEREO_COUNT>  (1) 
0

>  <PUBCHEM_BOND_DEF_STEREO_COUNT>  (1) 
0

>  <PUBCHEM_BOND_UDEF_STEREO_COUNT>  (1) 
0

>  <PUBCHEM_ISOTOPIC_ATOM_COUNT>  (1) 
0

>  <PUBCHEM_COMPONENT_COUNT>  (1) 
1

>  <PUBCHEM_CACTVS_TAUTO_COUNT>  (1) 
5

>  <PUBCHEM_CONFORMER_ID>  (1) 
00002C5400000001

>  <PUBCHEM_MMFF94_ENERGY>  (1) 
43.6721

>  <PUBCHEM_FEATURE_SELFOVERLAP>  (1) 
40.76

>  <PUBCHEM_SHAPE_FINGERPRINT>  (1) 
12423570 1 11823561421342889640
12524768 44 18412260649021340383
13380535 21 18193857039740794635
13380535 76 18195236939460125043
14128692 85 18341621394802207103
16945 1 18338798901610180675
193761 8 18266740379711760163
20511035 2 18339920519260478031
21040471 1 18122626316890721733
21501502 16 18338796844352507431
2334 1 18266177421442574443
23419403 2 15898604470390811227
23552423 10 18189617305497471831
241688 4 17621049663623025979
2748010 2 18336829809518464967
5084963 1 18131069290787169235
528862 383 18334855051768689217
7364860 26 18201721798821469944
81228 2 17835247744354242096

>  <PUBCHEM_SHAPE_MULTIPOLES>  (1) 
228.23
3.67
2.22
0.87
2.09
0.44
0
-0.22
0
-1.19
0
-0.56
0.08
0

>  <PUBCHEM_SHAPE_SELFOVERLAP>  (1) 
482.852

>  <PUBCHEM_SHAPE_VOLUME>  (1) 
128

>  <PUBCHEM_COORDINATE_TYPE>  (1) 
2
5
10

$$$$
