11347
     RDKit          3D

 17 18  0  0  0  0  0  0  0  0999 V2000
    3.1890    0.2812    0.0034 O   0  0  0  0  0  0  0  0  0  0  0  0
   -1.6470    2.5863   -0.0003 O   0  0  0  0  0  0  0  0  0  0  0  0
   -3.4901   -1.7284   -0.0011 O   0  0  0  0  0  0  0  0  0  0  0  0
    1.0108    1.2138    0.0008 N   0  0  0  0  0  0  0  0  0  0  0  0
   -1.1720   -1.5257    0.0003 N   0  0  0  0  0  0  0  0  0  0  0  0
   -2.5933    0.4354   -0.0011 N   0  0  0  0  0  0  0  0  0  0  0  0
    1.2332   -1.0045    0.0015 N   0  0  0  0  0  0  0  0  0  0  0  0
   -0.2554    0.7029   -0.0005 C   0  0  0  0  0  0  0  0  0  0  0  0
   -0.0906   -0.6554    0.0002 C   0  0  0  0  0  0  0  0  0  0  0  0
   -1.5194    1.3650   -0.0010 C   0  0  0  0  0  0  0  0  0  0  0  0
    1.8722    0.1472    0.0019 C   0  0  0  0  0  0  0  0  0  0  0  0
   -2.4894   -1.0026   -0.0011 C   0  0  0  0  0  0  0  0  0  0  0  0
    1.3856    2.6087    0.0012 C   0  0  0  0  0  0  0  0  0  0  0  0
   -0.9457   -2.9657    0.0011 C   0  0  0  0  0  0  0  0  0  0  0  0
   -3.9505    0.9716   -0.0007 C   0  0  0  0  0  0  0  0  0  0  0  0
    4.0009   -0.9133    0.0045 C   0  0  0  0  0  0  0  0  0  0  0  0
    5.4617   -0.5165   -0.0091 C   0  0  0  0  0  0  0  0  0  0  0  0
  1 11  1  0
  1 16  1  0
  2 10  2  0
  3 12  2  0
  4  8  1  0
  4 11  1  0
  4 13  1  0
  5  9  1  0
  5 12  1  0
  5 14  1  0
  6 10  1  0
  6 12  1  0
  6 15  1  0
  7  9  1  0
  7 11  2  0
  8  9  2  0
  8 10  1  0
 16 17  1  0
M  END
>  <PUBCHEM_COMPOUND_CID>  (1) 
11347

>  <PUBCHEM_CONFORMER_RMSD>  (1) 
0.6

>  <PUBCHEM_CONFORMER_DIVERSEORDER>  (1) 
1
2
3

>  <PUBCHEM_MMFF94_PARTIAL_CHARGES>  (1) 
16
1 -0.34
10 0.71
11 0.25
12 0.69
13 0.26
14 0.3
15 0.3
16 0.28
2 -0.57
3 -0.57
4 0.05
5 -0.42
6 -0.42
7 -0.57
8 -0.24
9 0.29

>  <PUBCHEM_EFFECTIVE_ROTOR_COUNT>  (1) 
2

>  <PUBCHEM_PHARMACOPHORE_FEATURES>  (1) 
5
1 2 acceptor
1 3 acceptor
3 4 7 11 cation
5 4 7 8 9 11 rings
6 5 6 8 9 10 12 rings

>  <PUBCHEM_HEAVY_ATOM_COUNT>  (1) 
17

>  <PUBCHEM_ATOM_DEF_STEREO_COUNT>  (1) 
0

>  <PUBCHEM_ATOM_UDEF_STEREO_COUNT>  (1) 
0

>  <PUBCHEM_BOND_DEF_STEREO_COUNT>  (1) 
0

>  <PUBCHEM_BOND_UDEF_STEREO_COUNT>  (1) 
0

>  <PUBCHEM_ISOTOPIC_ATOM_COUNT>  (1) 
0

>  <PUBCHEM_COMPONENT_COUNT>  (1) 
1

>  <PUBCHEM_CACTVS_TAUTO_COUNT>  (1) 
1

>  <PUBCHEM_CONFORMER_ID>  (1) 
00002C5300000001

>  <PUBCHEM_MMFF94_ENERGY>  (1) 
26.9524

>  <PUBCHEM_FEATURE_SELFOVERLAP>  (1) 
25.487

>  <PUBCHEM_SHAPE_FINGERPRINT>  (1) 
10493431 412 18054519010592176433
10967382 1 18266458702850195267
11132069 177 18411416189799859944
11680986 33 18268142244157560656
12032990 46 18337112388032810267
13140716 1 18339088180647950633
13380535 76 18341332197527357567
13862211 1 18410569574373402231
14790565 3 18195257623833601961
14911166 2 18410004412643517189
15042514 8 18409172146819034795
15196674 1 18410574028143549472
15442244 35 18410575132240151992
15536298 74 18269836566090976680
16945 1 18410855460323399073
17804303 29 18413390955796555352
193761 8 18122344846003276037
200 152 17489580156420252229
20510252 161 18128254493701810056
20711985 365 18338517550844461415
21029758 11 18343577430457496368
21029758 27 18187656798945342356
21267235 1 18409737291553225395
21501502 16 18267308809784852020
23175994 123 17131834244577405640
2334 1 17978511167253118311
23366157 5 17897722296230872212
23402539 116 18342449327057942126
23463225 33 18337955700339312412
23559900 14 18342453764656119848
2748010 2 17689719654141291885
335352 9 18410855438843450677
43471831 8 18119247264182000138
5104073 3 18411419552817366792
54173680 148 18265616657084389314
559249 180 18116708514031014354
7364860 26 18125439954567552664
8809292 202 18335704969946246627

>  <PUBCHEM_SHAPE_MULTIPOLES>  (1) 
312.32
7.32
2.7
0.58
7.59
0.02
0
1.3
0.01
-1.38
0
0.02
0
0

>  <PUBCHEM_SHAPE_SELFOVERLAP>  (1) 
660.02

>  <PUBCHEM_SHAPE_VOLUME>  (1) 
176.9

>  <PUBCHEM_COORDINATE_TYPE>  (1) 
2
5
10

$$$$
