11342
     RDKit          3D

 17 19  0  0  0  0  0  0  0  0999 V2000
   -0.8805   -2.7392    0.0007 O   0  0  0  0  0  0  0  0  0  0  0  0
    2.4583    2.3167    0.0014 O   0  0  0  0  0  0  0  0  0  0  0  0
    4.5632    0.5610   -0.0006 O   0  0  0  0  0  0  0  0  0  0  0  0
    0.8835    0.4913   -0.0002 C   0  0  0  0  0  0  0  0  0  0  0  0
    0.6578   -0.9027   -0.0002 C   0  0  0  0  0  0  0  0  0  0  0  0
   -1.7609   -0.5110    0.0000 C   0  0  0  0  0  0  0  0  0  0  0  0
   -1.5352    0.8829   -0.0001 C   0  0  0  0  0  0  0  0  0  0  0  0
   -0.6614   -1.3857   -0.0001 C   0  0  0  0  0  0  0  0  0  0  0  0
   -0.2159    1.3659   -0.0002 C   0  0  0  0  0  0  0  0  0  0  0  0
    2.2030    0.9735   -0.0002 C   0  0  0  0  0  0  0  0  0  0  0  0
    1.7578   -1.7766    0.0000 C   0  0  0  0  0  0  0  0  0  0  0  0
   -3.0802   -0.9933    0.0001 C   0  0  0  0  0  0  0  0  0  0  0  0
   -2.6350    1.7568   -0.0002 C   0  0  0  0  0  0  0  0  0  0  0  0
    3.2842    0.0919   -0.0001 C   0  0  0  0  0  0  0  0  0  0  0  0
    3.0618   -1.2814   -0.0001 C   0  0  0  0  0  0  0  0  0  0  0  0
   -4.1615   -0.1118    0.0000 C   0  0  0  0  0  0  0  0  0  0  0  0
   -3.9391    1.2615   -0.0002 C   0  0  0  0  0  0  0  0  0  0  0  0
  1  8  1  0
  2 10  1  0
  3 14  1  0
  4  5  1  0
  4  9  2  0
  4 10  1  0
  5  8  2  0
  5 11  1  0
  6  7  2  0
  6  8  1  0
  6 12  1  0
  7  9  1  0
  7 13  1  0
 10 14  2  0
 11 15  2  0
 12 16  2  0
 13 17  2  0
 14 15  1  0
 16 17  1  0
M  END
>  <PUBCHEM_COMPOUND_CID>  (1) 
11342

>  <PUBCHEM_CONFORMER_RMSD>  (1) 
0.4

>  <PUBCHEM_CONFORMER_DIVERSEORDER>  (1) 
1

>  <PUBCHEM_MMFF94_PARTIAL_CHARGES>  (1) 
23
1 -0.53
10 0.08
11 -0.15
12 -0.15
13 -0.15
14 0.08
15 -0.15
16 -0.15
17 -0.15
18 0.15
19 0.15
2 -0.53
20 0.15
21 0.15
22 0.15
23 0.15
24 0.15
25 0.45
26 0.45
27 0.45
3 -0.53
8 0.08
9 -0.15

>  <PUBCHEM_EFFECTIVE_ROTOR_COUNT>  (1) 
0

>  <PUBCHEM_PHARMACOPHORE_FEATURES>  (1) 
6
1 1 donor
1 2 donor
1 3 donor
6 4 5 10 11 14 15 rings
6 4 5 6 7 8 9 rings
6 6 7 12 13 16 17 rings

>  <PUBCHEM_HEAVY_ATOM_COUNT>  (1) 
17

>  <PUBCHEM_ATOM_DEF_STEREO_COUNT>  (1) 
0

>  <PUBCHEM_ATOM_UDEF_STEREO_COUNT>  (1) 
0

>  <PUBCHEM_BOND_DEF_STEREO_COUNT>  (1) 
0

>  <PUBCHEM_BOND_UDEF_STEREO_COUNT>  (1) 
0

>  <PUBCHEM_ISOTOPIC_ATOM_COUNT>  (1) 
0

>  <PUBCHEM_COMPONENT_COUNT>  (1) 
1

>  <PUBCHEM_CACTVS_TAUTO_COUNT>  (1) 
65

>  <PUBCHEM_CONFORMER_ID>  (1) 
00002C4E00000001

>  <PUBCHEM_MMFF94_ENERGY>  (1) 
56.9417

>  <PUBCHEM_FEATURE_SELFOVERLAP>  (1) 
30.503

>  <PUBCHEM_SHAPE_FINGERPRINT>  (1) 
10411042 1 16753531584137577059
10608611 8 18409727352771990653
10616163 171 18340207508743439047
10967382 1 18410575063193517188
11132069 177 18412538795329565073
11471102 20 18410852127254652262
12251169 10 18409163329250519864
13140716 1 18122345949788584122
13221675 6 18410573985225466582
13380535 76 18411700988912712446
13583140 156 16878213238719367353
13897977 150 18410290285698309269
14144814 61 18410292480115263801
14325111 11 18410575059093910593
15196674 1 18410856520995691879
15219456 202 18411139099958358711
15309172 13 18411427193743475283
15442244 35 18195246607294260930
15536298 74 18342738477389195190
15775835 57 18408326557619780461
16945 1 18338517555076125126
1813 80 16879345603217135562
18186145 218 18270686363613511933
193761 8 17906171003190643777
200 152 18131342008562966261
20510252 161 18272371936434990809
20645477 70 18269834229296465103
21267235 1 18410865368744626039
21501502 16 18339639044041018351
221490 88 18409176518879106970
2334 1 18410573989741882497
23402539 116 18343011207580259509
23402655 69 18342451496380605269
23463225 33 18336264556961231101
23559900 14 18271525308787950838
238 59 16237546225676365805
2748010 2 18409732828992124927
335352 9 18122343471603016855
474 4 17241616202834312740
5104073 3 18410292475815035586
528886 8 18410851040627958891
53812653 166 18413666902955222872
54173680 148 18120938566611053731
58051976 378 18413105039607571429
69090 78 18413103970239725359
7364860 26 18269556044401872414
8809292 202 18261678176395129699
9709674 26 18412268354076910790

>  <PUBCHEM_SHAPE_MULTIPOLES>  (1) 
332.24
7.05
2.25
0.6
0.1
0.36
0
-1.54
0
-0.18
0
0.04
0
0

>  <PUBCHEM_SHAPE_SELFOVERLAP>  (1) 
756.836

>  <PUBCHEM_SHAPE_VOLUME>  (1) 
173.7

>  <PUBCHEM_COORDINATE_TYPE>  (1) 
2
5
10

$$$$
