11352
     RDKit          3D

 15 17  0  0  0  0  0  0  0  0999 V2000
   -0.3234    1.5230    0.0000 N   0  0  0  0  0  0  0  0  0  0  0  0
    2.6104   -2.3628   -0.0001 N   0  0  0  0  0  0  0  0  0  0  0  0
    1.0941   -0.4211   -0.0001 C   0  0  0  0  0  0  0  0  0  0  0  0
   -1.3229   -0.6655    0.0000 C   0  0  0  0  0  0  0  0  0  0  0  0
    0.9054    0.9713   -0.0001 C   0  0  0  0  0  0  0  0  0  0  0  0
   -0.0447   -1.2330    0.0000 C   0  0  0  0  0  0  0  0  0  0  0  0
   -1.4169    0.7364   -0.0001 C   0  0  0  0  0  0  0  0  0  0  0  0
    2.3906   -0.9643    0.0001 C   0  0  0  0  0  0  0  0  0  0  0  0
    2.0353    1.7850    0.0000 C   0  0  0  0  0  0  0  0  0  0  0  0
   -2.4845   -1.4575    0.0001 C   0  0  0  0  0  0  0  0  0  0  0  0
    3.5037   -0.1289    0.0001 C   0  0  0  0  0  0  0  0  0  0  0  0
   -2.6868    1.3073   -0.0001 C   0  0  0  0  0  0  0  0  0  0  0  0
    3.3252    1.2485    0.0001 C   0  0  0  0  0  0  0  0  0  0  0  0
   -3.7423   -0.8619    0.0001 C   0  0  0  0  0  0  0  0  0  0  0  0
   -3.8433    0.5235    0.0000 C   0  0  0  0  0  0  0  0  0  0  0  0
  1  5  2  0
  1  7  1  0
  2  8  1  0
  3  5  1  0
  3  6  2  0
  3  8  1  0
  4  6  1  0
  4  7  2  0
  4 10  1  0
  5  9  1  0
  7 12  1  0
  8 11  2  0
  9 13  2  0
 10 14  2  0
 11 13  1  0
 12 15  2  0
 14 15  1  0
M  END
>  <PUBCHEM_COMPOUND_CID>  (1) 
11352

>  <PUBCHEM_CONFORMER_RMSD>  (1) 
0.4

>  <PUBCHEM_CONFORMER_DIVERSEORDER>  (1) 
1

>  <PUBCHEM_MMFF94_PARTIAL_CHARGES>  (1) 
23
1 -0.62
10 -0.15
11 -0.15
12 -0.15
13 -0.15
14 -0.15
15 -0.15
16 0.15
17 0.15
18 0.15
19 0.15
2 -0.9
20 0.15
21 0.15
22 0.15
23 0.15
24 0.4
25 0.4
5 0.31
6 -0.15
7 0.31
8 0.1
9 -0.15

>  <PUBCHEM_EFFECTIVE_ROTOR_COUNT>  (1) 
0

>  <PUBCHEM_PHARMACOPHORE_FEATURES>  (1) 
6
1 1 acceptor
1 2 cation
1 2 donor
6 1 3 4 5 6 7 rings
6 3 5 8 9 11 13 rings
6 4 7 10 12 14 15 rings

>  <PUBCHEM_HEAVY_ATOM_COUNT>  (1) 
15

>  <PUBCHEM_ATOM_DEF_STEREO_COUNT>  (1) 
0

>  <PUBCHEM_ATOM_UDEF_STEREO_COUNT>  (1) 
0

>  <PUBCHEM_BOND_DEF_STEREO_COUNT>  (1) 
0

>  <PUBCHEM_BOND_UDEF_STEREO_COUNT>  (1) 
0

>  <PUBCHEM_ISOTOPIC_ATOM_COUNT>  (1) 
0

>  <PUBCHEM_COMPONENT_COUNT>  (1) 
1

>  <PUBCHEM_CACTVS_TAUTO_COUNT>  (1) 
3

>  <PUBCHEM_CONFORMER_ID>  (1) 
00002C5800000001

>  <PUBCHEM_MMFF94_ENERGY>  (1) 
60.2169

>  <PUBCHEM_FEATURE_SELFOVERLAP>  (1) 
30.507

>  <PUBCHEM_SHAPE_FINGERPRINT>  (1) 
10608611 8 18409726266150617493
10616163 171 18340490087637618519
10922523 26 18260828185356011789
10967382 1 18410575101858811334
10980938 120 18410856581383703402
11132069 177 18411412934003724521
11471102 20 18410852183215905604
12032990 46 18410299111671473167
13140716 1 18339080371906581731
13221675 6 18411136956579728431
13296908 3 18409450275841648195
13380535 76 18336263547892057386
13897977 150 18410853282674883205
14144814 61 18410856559766409753
14325111 11 18410575097701208449
14576447 43 17985250027377043711
14790565 3 15749813755811188804
15196674 1 18410855473018351429
15219456 202 18410011039693483221
15442244 35 18267868272314226978
15536298 74 18342739615634506958
15775835 57 18412268362713921717
16945 1 18266459986818530980
18186145 218 18336266760374432133
193761 8 15888558919726200417
200 152 18131343146702731125
20201158 50 18409730672670771826
20510252 161 18272373057669407401
20559304 39 18411135827472782610
20645477 70 18411978036131653551
21267235 1 18411146839315671055
21501502 16 18411138026042396393
21501925 9 18410282606249285426
221490 88 18336555979351685978
2334 1 18410855477323861735
23402539 116 18341884225315297468
23402655 69 18413102853685515133
23463225 33 18410293592506505612
23559900 14 18340763733321127322
2748010 2 18410011026634475677
3312278 4 18340491157089197785
335352 9 18050286968650344885
5104073 3 18410855468749745891
528886 8 18411414037831275704
53812653 166 18343016739698902064
57096353 35 18339360897727207645
69090 78 18341889706205341383
7364860 26 18342176648670209918
8809292 202 18260553358825385411
9709674 26 18410298033550786039

>  <PUBCHEM_SHAPE_MULTIPOLES>  (1) 
298.73
6.56
1.99
0.61
1.55
0.3
0
0.08
0
-0.75
0
0.01
-0.01
0

>  <PUBCHEM_SHAPE_SELFOVERLAP>  (1) 
678.443

>  <PUBCHEM_SHAPE_VOLUME>  (1) 
154

>  <PUBCHEM_COORDINATE_TYPE>  (1) 
2
5
10

$$$$
