11357
     RDKit          3D

  9  9  0  0  0  0  0  0  0  0999 V2000
    0.6876   -2.1344    0.1142 N   0  0  0  0  0  0  0  0  0  0  0  0
    0.4721    0.2920    0.2657 C   0  0  0  0  0  0  0  0  0  0  0  0
    1.9341    0.4402    0.5362 C   0  0  0  0  0  0  0  0  0  0  0  0
   -0.1010   -0.9640    0.0660 C   0  0  0  0  0  0  0  0  0  0  0  0
   -0.3226    1.4373    0.2144 C   0  0  0  0  0  0  0  0  0  0  0  0
    2.7522    0.6063   -0.7388 C   0  0  0  0  0  0  0  0  0  0  0  0
   -1.4688   -1.0745   -0.1849 C   0  0  0  0  0  0  0  0  0  0  0  0
   -1.6903    1.3265   -0.0365 C   0  0  0  0  0  0  0  0  0  0  0  0
   -2.2634    0.0707   -0.2362 C   0  0  0  0  0  0  0  0  0  0  0  0
  1  4  1  0
  2  3  1  0
  2  4  2  0
  2  5  1  0
  3  6  1  0
  4  7  1  0
  5  8  2  0
  7  9  2  0
  8  9  1  0
M  END
>  <PUBCHEM_COMPOUND_CID>  (1) 
11357

>  <PUBCHEM_CONFORMER_RMSD>  (1) 
0.4

>  <PUBCHEM_CONFORMER_DIVERSEORDER>  (1) 
1
2
3

>  <PUBCHEM_MMFF94_PARTIAL_CHARGES>  (1) 
14
1 -0.9
12 0.15
16 0.15
17 0.15
18 0.15
19 0.4
2 -0.14
20 0.4
3 0.14
4 0.1
5 -0.15
7 -0.15
8 -0.15
9 -0.15

>  <PUBCHEM_EFFECTIVE_ROTOR_COUNT>  (1) 
1

>  <PUBCHEM_PHARMACOPHORE_FEATURES>  (1) 
4
1 1 cation
1 1 donor
1 6 hydrophobe
6 2 4 5 7 8 9 rings

>  <PUBCHEM_HEAVY_ATOM_COUNT>  (1) 
9

>  <PUBCHEM_ATOM_DEF_STEREO_COUNT>  (1) 
0

>  <PUBCHEM_ATOM_UDEF_STEREO_COUNT>  (1) 
0

>  <PUBCHEM_BOND_DEF_STEREO_COUNT>  (1) 
0

>  <PUBCHEM_BOND_UDEF_STEREO_COUNT>  (1) 
0

>  <PUBCHEM_ISOTOPIC_ATOM_COUNT>  (1) 
0

>  <PUBCHEM_COMPONENT_COUNT>  (1) 
1

>  <PUBCHEM_CACTVS_TAUTO_COUNT>  (1) 
1

>  <PUBCHEM_CONFORMER_ID>  (1) 
00002C5D00000001

>  <PUBCHEM_MMFF94_ENERGY>  (1) 
30.5815

>  <PUBCHEM_FEATURE_SELFOVERLAP>  (1) 
20.297

>  <PUBCHEM_SHAPE_FINGERPRINT>  (1) 
12423570 1 11488567166362852544
12716758 59 18340209695350803744
12897270 3 18411134740387348236
16714656 1 18338518650282275100
16945 1 18412256251059075905
20645464 45 17916572284648003872
21040471 1 18339634555805501281
23235685 24 18408319990825989349
23552423 10 18263361382631430138
241688 4 15963714942068937235
2748010 2 17906441483240961309
5084963 1 18131072691973934792

>  <PUBCHEM_SHAPE_MULTIPOLES>  (1) 
180.23
3.14
1.75
0.73
1.2
0.56
0.03
-0.68
0.6
-0.24
-0.07
0.22
-0.06
-0.11

>  <PUBCHEM_SHAPE_SELFOVERLAP>  (1) 
367.883

>  <PUBCHEM_SHAPE_VOLUME>  (1) 
105.2

>  <PUBCHEM_COORDINATE_TYPE>  (1) 
2
5
10

$$$$
