11354
     RDKit          3D

 21 22  0  0  0  0  0  0  0  0999 V2000
    3.4965    2.3756   -0.1036 F   0  0  0  0  0  0  0  0  0  0  0  0
    0.8183   -2.3911   -0.2885 F   0  0  0  0  0  0  0  0  0  0  0  0
   -2.6231   -2.3623    0.4026 F   0  0  0  0  0  0  0  0  0  0  0  0
   -5.3133    2.3622   -0.1943 F   0  0  0  0  0  0  0  0  0  0  0  0
    4.9341    0.0124    0.2082 N   0  0  0  0  0  0  0  0  0  0  0  0
   -0.6059   -0.0292   -0.5981 N   0  0  0  0  0  0  0  0  0  0  0  0
   -1.1995    0.0182    0.5047 N   0  0  0  0  0  0  0  0  0  0  0  0
    3.5385    0.0035    0.0049 C   0  0  0  0  0  0  0  0  0  0  0  0
    2.8457    1.2044   -0.1480 C   0  0  0  0  0  0  0  0  0  0  0  0
    2.8509   -1.2093   -0.0431 C   0  0  0  0  0  0  0  0  0  0  0  0
    0.7848   -0.0199   -0.3957 C   0  0  0  0  0  0  0  0  0  0  0  0
    1.4706   -1.2210   -0.2439 C   0  0  0  0  0  0  0  0  0  0  0  0
    1.4655    1.1928   -0.3489 C   0  0  0  0  0  0  0  0  0  0  0  0
    5.8167   -0.6533   -0.7291 C   0  0  0  0  0  0  0  0  0  0  0  0
    5.5050    0.6996    1.3496 C   0  0  0  0  0  0  0  0  0  0  0  0
   -2.5837    0.0092    0.3037 C   0  0  0  0  0  0  0  0  0  0  0  0
   -3.2758   -1.2008    0.2561 C   0  0  0  0  0  0  0  0  0  0  0  0
   -3.2718    1.2129    0.1516 C   0  0  0  0  0  0  0  0  0  0  0  0
   -4.6523    1.2065   -0.0483 C   0  0  0  0  0  0  0  0  0  0  0  0
   -4.6563   -1.2071    0.0562 C   0  0  0  0  0  0  0  0  0  0  0  0
   -5.3446   -0.0034   -0.0960 C   0  0  0  0  0  0  0  0  0  0  0  0
  1  9  1  0
  2 12  1  0
  3 17  1  0
  4 19  1  0
  5  8  1  0
  5 14  1  0
  5 15  1  0
  6  7  2  0
  6 11  1  0
  7 16  1  0
  8  9  2  0
  8 10  1  0
  9 13  1  0
 10 12  2  0
 11 12  1  0
 11 13  2  0
 16 17  2  0
 16 18  1  0
 17 20  1  0
 18 19  2  0
 19 21  1  0
 20 21  2  0
M  END
>  <PUBCHEM_COMPOUND_CID>  (1) 
11354

>  <PUBCHEM_CONFORMER_RMSD>  (1) 
0.6

>  <PUBCHEM_CONFORMER_DIVERSEORDER>  (1) 
1
13
15
9
12
16
5
17
7
14
10
3
11
4
8
2
6

>  <PUBCHEM_MMFF94_PARTIAL_CHARGES>  (1) 
26
1 -0.19
10 -0.15
11 0.18
12 0.19
13 -0.15
14 0.37
15 0.37
16 0.18
17 0.19
18 -0.15
19 0.19
2 -0.19
20 -0.15
21 -0.15
22 0.15
23 0.15
3 -0.19
30 0.15
31 0.15
32 0.15
4 -0.19
5 -0.84
6 -0.18
7 -0.18
8 0.1
9 0.19

>  <PUBCHEM_EFFECTIVE_ROTOR_COUNT>  (1) 
3

>  <PUBCHEM_PHARMACOPHORE_FEATURES>  (1) 
3
1 5 cation
6 16 17 18 19 20 21 rings
6 8 9 10 11 12 13 rings

>  <PUBCHEM_HEAVY_ATOM_COUNT>  (1) 
21

>  <PUBCHEM_ATOM_DEF_STEREO_COUNT>  (1) 
0

>  <PUBCHEM_ATOM_UDEF_STEREO_COUNT>  (1) 
0

>  <PUBCHEM_BOND_DEF_STEREO_COUNT>  (1) 
0

>  <PUBCHEM_BOND_UDEF_STEREO_COUNT>  (1) 
0

>  <PUBCHEM_ISOTOPIC_ATOM_COUNT>  (1) 
0

>  <PUBCHEM_COMPONENT_COUNT>  (1) 
1

>  <PUBCHEM_CACTVS_TAUTO_COUNT>  (1) 
1

>  <PUBCHEM_CONFORMER_ID>  (1) 
00002C5A00000001

>  <PUBCHEM_MMFF94_ENERGY>  (1) 
66.1181

>  <PUBCHEM_FEATURE_SELFOVERLAP>  (1) 
15.223

>  <PUBCHEM_SHAPE_FINGERPRINT>  (1) 
11045977 3 18272087223311135346
11089746 13 18131343103109876061
11315181 36 18040436620165690981
11370993 70 18410573989905802603
11405975 8 18187646941763133769
12107183 9 17760645871788168281
12236239 1 17632294575077064236
12403259 118 18339072787078992496
12403259 415 18271807960110979656
12507557 5 18342176678413461769
13167823 11 18336263526317033011
13675066 3 18131349739440632908
14341114 176 18411987953131609264
15196674 1 18410294756458525556
15375358 24 18410296904343353495
15788980 27 18411703200794197283
17844677 252 18337681896417240165
18681886 176 18343579672767580450
19489759 90 18413106165231640849
200 152 18131631184194342923
20645477 56 18261114033195082989
21033648 29 17774425144759925440
21065198 57 18408887373000848939
21267235 1 18409740577176709603
21315763 129 18410009957420071717
21421861 104 17460024081406724810
21709351 56 18410570699644070501
23402539 116 18409725158349514813
23559900 14 18270681952571562923
26918003 58 18409166636264600611
2916195 48 17917418882979241792
300161 21 18410568453671397817
335352 9 18409731738080962116
351380 180 18410573998110316632
3545911 37 18411703166893414281
4073 2 18113625620137580018
4214541 1 18409450284763898661
5104073 3 18335142041594405929
542803 24 17312825974084471748
59755656 215 18340773637473507782
6328613 192 18041852813113274516
633830 44 17749670800302009146
67856867 119 18263925603900738253
7495541 125 16486406719330939402
77779 3 18409732867794510541
9709674 26 18411427198207825679
9999458 23 18113619019452938086

>  <PUBCHEM_SHAPE_MULTIPOLES>  (1) 
388.13
13.77
2.02
0.77
0.42
0.01
-0.1
-2.64
-0.92
-0.98
0.05
0.64
-0.04
0.63

>  <PUBCHEM_SHAPE_SELFOVERLAP>  (1) 
836.072

>  <PUBCHEM_SHAPE_VOLUME>  (1) 
215.5

>  <PUBCHEM_COORDINATE_TYPE>  (1) 
2
5
10

$$$$
