11351
     RDKit          3D

 17 18  0  0  0  0  0  0  0  0999 V2000
   -1.1907    2.7000   -0.0002 O   0  0  0  0  0  0  0  0  0  0  0  0
    3.1484   -0.9101    0.0000 C   0  0  0  0  0  0  0  0  0  0  0  0
    1.9608    0.0666    0.0002 C   0  0  0  0  0  0  0  0  0  0  0  0
    4.0115   -0.6785    1.2592 C   0  0  0  0  0  0  0  0  0  0  0  0
    4.0128   -0.6771   -1.2580 C   0  0  0  0  0  0  0  0  0  0  0  0
    2.7333   -2.3989   -0.0012 C   0  0  0  0  0  0  0  0  0  0  0  0
    0.6903   -0.4520    0.0000 C   0  0  0  0  0  0  0  0  0  0  0  0
    2.2262    1.4130    0.0001 C   0  0  0  0  0  0  0  0  0  0  0  0
   -0.3865    0.4346    0.0000 C   0  0  0  0  0  0  0  0  0  0  0  0
   -0.1570    1.8105   -0.0001 C   0  0  0  0  0  0  0  0  0  0  0  0
    1.1493    2.2996    0.0000 C   0  0  0  0  0  0  0  0  0  0  0  0
   -1.7359   -0.0937    0.0000 C   0  0  0  0  0  0  0  0  0  0  0  0
   -2.3833   -0.3469    1.2080 C   0  0  0  0  0  0  0  0  0  0  0  0
   -2.3832   -0.3470   -1.2080 C   0  0  0  0  0  0  0  0  0  0  0  0
   -3.6823   -0.8553    1.2080 C   0  0  0  0  0  0  0  0  0  0  0  0
   -3.6821   -0.8554   -1.2080 C   0  0  0  0  0  0  0  0  0  0  0  0
   -4.3316   -1.1095    0.0001 C   0  0  0  0  0  0  0  0  0  0  0  0
  1 10  1  0
  2  3  1  0
  2  4  1  0
  2  5  1  0
  2  6  1  0
  3  7  2  0
  3  8  1  0
  7  9  1  0
  8 11  2  0
  9 10  2  0
  9 12  1  0
 10 11  1  0
 12 13  2  0
 12 14  1  0
 13 15  1  0
 14 16  2  0
 15 17  2  0
 16 17  1  0
M  END
>  <PUBCHEM_COMPOUND_CID>  (1) 
11351

>  <PUBCHEM_CONFORMER_RMSD>  (1) 
0.6

>  <PUBCHEM_CONFORMER_DIVERSEORDER>  (1) 
1
3
2

>  <PUBCHEM_MMFF94_PARTIAL_CHARGES>  (1) 
21
1 -0.53
10 0.08
11 -0.15
13 -0.15
14 -0.15
15 -0.15
16 -0.15
17 -0.15
2 0.14
27 0.15
28 0.15
29 0.15
3 -0.14
30 0.15
31 0.15
32 0.15
33 0.15
34 0.45
35 0.15
7 -0.15
8 -0.15

>  <PUBCHEM_EFFECTIVE_ROTOR_COUNT>  (1) 
2

>  <PUBCHEM_PHARMACOPHORE_FEATURES>  (1) 
4
1 1 donor
4 2 4 5 6 hydrophobe
6 12 13 14 15 16 17 rings
6 3 7 8 9 10 11 rings

>  <PUBCHEM_HEAVY_ATOM_COUNT>  (1) 
17

>  <PUBCHEM_ATOM_DEF_STEREO_COUNT>  (1) 
0

>  <PUBCHEM_ATOM_UDEF_STEREO_COUNT>  (1) 
0

>  <PUBCHEM_BOND_DEF_STEREO_COUNT>  (1) 
0

>  <PUBCHEM_BOND_UDEF_STEREO_COUNT>  (1) 
0

>  <PUBCHEM_ISOTOPIC_ATOM_COUNT>  (1) 
0

>  <PUBCHEM_COMPONENT_COUNT>  (1) 
1

>  <PUBCHEM_CACTVS_TAUTO_COUNT>  (1) 
3

>  <PUBCHEM_CONFORMER_ID>  (1) 
00002C5700000001

>  <PUBCHEM_MMFF94_ENERGY>  (1) 
62.9097

>  <PUBCHEM_FEATURE_SELFOVERLAP>  (1) 
20.297

>  <PUBCHEM_SHAPE_FINGERPRINT>  (1) 
10618630 7 18410575067688938102
11543360 7 15719399455298882310
11578080 2 17487871528568569353
11796584 16 16805591552071825066
12236239 1 17703795859787821147
12363563 72 18335421244654677130
12553582 1 18411705378506471526
12707595 3 18261109694634425410
12892183 10 15985104119484036094
13140716 1 18195241342065568706
13296908 3 18187078498894498809
13296909 8 17060623265823809305
13583140 156 14189289309914973271
13675066 3 17561089107172937395
13705890 14 17167861971980674870
14178342 30 18123460593182249440
14252887 29 18202565073164804578
14289901 80 15123499337442844022
15848700 24 18411980265071577606
16945 1 18410574006995611204
17357779 13 18336254682916028469
1813 80 18200892711325080036
18186145 218 17530957004035645045
18222031 100 18201999940808782590
200 152 18260261936772878306
20281475 54 18337397045569575314
20361792 2 18413669123469048261
20645477 70 18336538430109760535
20671657 53 18186798075921252440
20871998 22 18342461400553876270
21296965 67 18411417302011870665
21501925 9 18411973676676200168
22112679 90 17560809874221896265
2255824 54 18268715081162334724
23402539 116 18335978675807225090
23559900 14 17095233740034756594
23598291 2 17987801946313977143
2748010 2 18339630166723938876
3082319 5 14562525180578127067
3091708 16 8922161393404227472
314173 85 18343584023131653216
4990 188 12613030557216493122
6049 1 17676484003717493685
7364860 26 18200031888484462368
77492 1 17631460127883513829
7970288 3 18411419488267308334
81228 2 18191301572533094752
83771 10 18341617005535476044
90316 7 16773528715300998785

>  <PUBCHEM_SHAPE_MULTIPOLES>  (1) 
343.98
7.89
2.2
1.15
1.37
1.17
0
-4.68
0
-0.96
0
0.31
-0.33
0

>  <PUBCHEM_SHAPE_SELFOVERLAP>  (1) 
740.138

>  <PUBCHEM_SHAPE_VOLUME>  (1) 
191.6

>  <PUBCHEM_COORDINATE_TYPE>  (1) 
2
5
10

$$$$
