11367
     RDKit          3D

 14 14  0  0  0  0  0  0  0  0999 V2000
   -4.1229    0.9035   -1.2454 Cl  0  0  0  0  0  0  0  0  0  0  0  0
   -3.8505   -0.0462    1.4978 Cl  0  0  0  0  0  0  0  0  0  0  0  0
    4.6339    0.6291    0.0127 O   0  0  0  0  0  0  0  0  0  0  0  0
   -1.5026    1.4843   -0.2752 O   0  0  0  0  0  0  0  0  0  0  0  0
   -0.7462   -0.7166    0.0200 N   0  0  0  0  0  0  0  0  0  0  0  0
    0.6072   -0.3778    0.0176 C   0  0  0  0  0  0  0  0  0  0  0  0
    1.0139    0.8724    0.4833 C   0  0  0  0  0  0  0  0  0  0  0  0
    1.5536   -1.2896   -0.4503 C   0  0  0  0  0  0  0  0  0  0  0  0
   -1.1907   -2.1352    0.1829 C   0  0  0  0  0  0  0  0  0  0  0  0
   -1.7668    0.2859   -0.1342 C   0  0  0  0  0  0  0  0  0  0  0  0
    2.3671    1.2110    0.4812 C   0  0  0  0  0  0  0  0  0  0  0  0
    2.9068   -0.9509   -0.4524 C   0  0  0  0  0  0  0  0  0  0  0  0
    3.3135    0.2993    0.0133 C   0  0  0  0  0  0  0  0  0  0  0  0
   -3.2162   -0.1692   -0.1513 C   0  0  0  0  0  0  0  0  0  0  0  0
  1 14  1  0
  2 14  1  0
  3 13  1  0
  4 10  2  0
  5  6  1  0
  5  9  1  0
  5 10  1  0
  6  7  2  0
  6  8  1  0
  7 11  1  0
  8 12  2  0
 10 14  1  0
 11 13  2  0
 12 13  1  0
M  END
>  <PUBCHEM_COMPOUND_CID>  (1) 
11367

>  <PUBCHEM_CONFORMER_RMSD>  (1) 
0.6

>  <PUBCHEM_CONFORMER_DIVERSEORDER>  (1) 
1
8
10
9
5
12
4
3
11
2
6
7

>  <PUBCHEM_MMFF94_PARTIAL_CHARGES>  (1) 
19
1 -0.29
10 0.57
11 -0.15
12 -0.15
13 0.08
14 0.64
15 0.15
16 0.15
2 -0.29
20 0.15
21 0.15
23 0.45
3 -0.53
4 -0.57
5 -0.48
6 0.12
7 -0.15
8 -0.15
9 0.3

>  <PUBCHEM_EFFECTIVE_ROTOR_COUNT>  (1) 
3

>  <PUBCHEM_PHARMACOPHORE_FEATURES>  (1) 
3
1 3 donor
1 4 acceptor
6 6 7 8 11 12 13 rings

>  <PUBCHEM_HEAVY_ATOM_COUNT>  (1) 
14

>  <PUBCHEM_ATOM_DEF_STEREO_COUNT>  (1) 
0

>  <PUBCHEM_ATOM_UDEF_STEREO_COUNT>  (1) 
0

>  <PUBCHEM_BOND_DEF_STEREO_COUNT>  (1) 
0

>  <PUBCHEM_BOND_UDEF_STEREO_COUNT>  (1) 
0

>  <PUBCHEM_ISOTOPIC_ATOM_COUNT>  (1) 
0

>  <PUBCHEM_COMPONENT_COUNT>  (1) 
1

>  <PUBCHEM_CACTVS_TAUTO_COUNT>  (1) 
2

>  <PUBCHEM_CONFORMER_ID>  (1) 
00002C6700000001

>  <PUBCHEM_MMFF94_ENERGY>  (1) 
51.7738

>  <PUBCHEM_FEATURE_SELFOVERLAP>  (1) 
15.223

>  <PUBCHEM_SHAPE_FINGERPRINT>  (1) 
10608611 8 18411695530019776736
11132069 177 18339916108102192208
11471102 20 18272367555673557740
11543360 7 15339111381368692145
12500047 106 18261667151198269343
12932764 1 18333448746374385619
13380535 21 18341342187684591414
13380535 76 18413668019689229590
13581323 91 17894634776778602426
14144814 61 18343304742782991146
14325111 11 18411417284942628357
14897335 6 18341324556864862502
14943859 89 18260546744886622010
14993402 34 16845567630098939868
15219456 202 18410014316605953935
15309172 13 18412268328691878059
15775835 57 18343585144039080615
16945 1 18413107255715490538
17844478 74 18334022674506776177
18186145 218 18272094868115675055
19026448 5 16487256543261516823
19422 9 17060619975757411127
200 152 17561074809279361717
20201158 50 18272089396364243718
20279233 1 18260830388869354675
20588541 1 18413392050844306790
20645477 56 18335418002160051436
20645477 70 18269548347630639263
21501502 16 18195811996910496966
23402539 116 18337378405232026532
23402655 69 18130499752158899637
23493267 7 17531242829824906281
23559900 14 18412545388859128182
25 1 18343585122574877998
2748010 2 18054223508093351928
53812653 166 18343301496288920762
6333449 129 18340486772038676527
633830 44 18129108831447771711
69090 78 18343297085072904975
81228 2 17904195180986084315

>  <PUBCHEM_SHAPE_MULTIPOLES>  (1) 
275.13
7.76
1.56
0.99
0.23
0.49
0.11
-1.93
-0.24
-0.03
-0.05
1.12
-0.11
0.77

>  <PUBCHEM_SHAPE_SELFOVERLAP>  (1) 
548.499

>  <PUBCHEM_SHAPE_VOLUME>  (1) 
164.7

>  <PUBCHEM_COORDINATE_TYPE>  (1) 
2
5
10

$$$$
