11374
     RDKit          3D

 11 12  0  0  0  0  0  0  0  0999 V2000
   -3.4276   -0.7241    0.0001 O   0  0  0  0  0  0  0  0  0  0  0  0
    1.7294    1.2673    0.0000 N   0  0  0  0  0  0  0  0  0  0  0  0
    0.2409   -0.6279    0.0000 C   0  0  0  0  0  0  0  0  0  0  0  0
    0.4812    0.7621   -0.0001 C   0  0  0  0  0  0  0  0  0  0  0  0
   -1.0751   -1.1206    0.0000 C   0  0  0  0  0  0  0  0  0  0  0  0
   -0.6177    1.6167    0.0000 C   0  0  0  0  0  0  0  0  0  0  0  0
    1.3468   -1.4887    0.0000 C   0  0  0  0  0  0  0  0  0  0  0  0
   -2.1556   -0.2432    0.0000 C   0  0  0  0  0  0  0  0  0  0  0  0
   -1.9262    1.1271    0.0000 C   0  0  0  0  0  0  0  0  0  0  0  0
    2.6341   -0.9711    0.0000 C   0  0  0  0  0  0  0  0  0  0  0  0
    2.7695    0.4024    0.0000 C   0  0  0  0  0  0  0  0  0  0  0  0
  1  8  1  0
  2  4  2  0
  2 11  1  0
  3  4  1  0
  3  5  1  0
  3  7  2  0
  4  6  1  0
  5  8  2  0
  6  9  2  0
  7 10  1  0
  8  9  1  0
 10 11  2  0
M  END
>  <PUBCHEM_COMPOUND_CID>  (1) 
11374

>  <PUBCHEM_CONFORMER_RMSD>  (1) 
0.4

>  <PUBCHEM_CONFORMER_DIVERSEORDER>  (1) 
1

>  <PUBCHEM_MMFF94_PARTIAL_CHARGES>  (1) 
17
1 -0.53
10 -0.15
11 0.16
12 0.15
13 0.15
14 0.15
15 0.15
16 0.15
17 0.15
18 0.45
2 -0.62
4 0.31
5 -0.15
6 -0.15
7 -0.15
8 0.08
9 -0.15

>  <PUBCHEM_EFFECTIVE_ROTOR_COUNT>  (1) 
0

>  <PUBCHEM_PHARMACOPHORE_FEATURES>  (1) 
4
1 1 donor
1 2 acceptor
6 2 3 4 7 10 11 rings
6 3 4 5 6 8 9 rings

>  <PUBCHEM_HEAVY_ATOM_COUNT>  (1) 
11

>  <PUBCHEM_ATOM_DEF_STEREO_COUNT>  (1) 
0

>  <PUBCHEM_ATOM_UDEF_STEREO_COUNT>  (1) 
0

>  <PUBCHEM_BOND_DEF_STEREO_COUNT>  (1) 
0

>  <PUBCHEM_BOND_UDEF_STEREO_COUNT>  (1) 
0

>  <PUBCHEM_ISOTOPIC_ATOM_COUNT>  (1) 
0

>  <PUBCHEM_COMPONENT_COUNT>  (1) 
1

>  <PUBCHEM_CACTVS_TAUTO_COUNT>  (1) 
3

>  <PUBCHEM_CONFORMER_ID>  (1) 
00002C6E00000001

>  <PUBCHEM_MMFF94_ENERGY>  (1) 
30.9151

>  <PUBCHEM_FEATURE_SELFOVERLAP>  (1) 
20.329

>  <PUBCHEM_SHAPE_FINGERPRINT>  (1) 
10857977 72 18411408510203065120
11206711 2 18335985263822710501
12032990 46 18410300215415005059
12897270 3 18410011026618651350
14128692 85 18412549777645323948
14325111 11 18410575067520373344
16945 1 18410574006684316388
17844478 74 18113346310093067121
193761 8 17762056532284714023
19973954 147 18339362950758569268
20201158 50 18408039615239626195
21040471 1 18410855456170837092
21501502 16 18338238154605587224
23402655 69 18267848507750872893
23552423 10 18261115132052407534
23559900 14 17334215629439271262
241688 4 18263645069595419776
2748010 2 18338796689279802932
369184 2 18410572851311753049
5084963 1 18271806800247964730
528886 8 18339637948924643170

>  <PUBCHEM_SHAPE_MULTIPOLES>  (1) 
215.52
4.16
1.65
0.6
0.56
0.18
0
-0.67
0
-0.04
0
-0.02
0
0

>  <PUBCHEM_SHAPE_SELFOVERLAP>  (1) 
476.158

>  <PUBCHEM_SHAPE_VOLUME>  (1) 
115.7

>  <PUBCHEM_COORDINATE_TYPE>  (1) 
2
5
10

$$$$
