11371
     RDKit          3D

 19 20  0  0  0  0  0  0  0  0999 V2000
   -3.4682   -2.3160   -0.6065 O   0  0  0  0  0  0  0  0  0  0  0  0
    3.4698   -2.3150    0.6057 O   0  0  0  0  0  0  0  0  0  0  0  0
   -1.4439   -1.9442   -1.5713 O   0  0  0  0  0  0  0  0  0  0  0  0
    1.4462   -1.9438    1.5719 O   0  0  0  0  0  0  0  0  0  0  0  0
    0.0003   -0.1640    0.0007 N   0  0  0  0  0  0  0  0  0  0  0  0
   -1.2750    0.4042    0.2172 C   0  0  0  0  0  0  0  0  0  0  0  0
    1.2698    0.4021   -0.2157 C   0  0  0  0  0  0  0  0  0  0  0  0
   -2.4328   -0.2571   -0.1929 C   0  0  0  0  0  0  0  0  0  0  0  0
    2.4335   -0.2564    0.1928 C   0  0  0  0  0  0  0  0  0  0  0  0
   -1.3671    1.6435    0.8509 C   0  0  0  0  0  0  0  0  0  0  0  0
    1.3666    1.6438   -0.8504 C   0  0  0  0  0  0  0  0  0  0  0  0
   -3.6824    0.3209    0.0308 C   0  0  0  0  0  0  0  0  0  0  0  0
    3.6828    0.3220   -0.0318 C   0  0  0  0  0  0  0  0  0  0  0  0
   -2.6168    2.2213    1.0747 C   0  0  0  0  0  0  0  0  0  0  0  0
    2.6160    2.2221   -1.0751 C   0  0  0  0  0  0  0  0  0  0  0  0
   -3.7743    1.5601    0.6646 C   0  0  0  0  0  0  0  0  0  0  0  0
    3.7739    1.5612   -0.6657 C   0  0  0  0  0  0  0  0  0  0  0  0
   -2.3707   -1.5528   -0.8574 C   0  0  0  0  0  0  0  0  0  0  0  0
    2.3723   -1.5520    0.8574 C   0  0  0  0  0  0  0  0  0  0  0  0
  1 18  1  0
  2 19  1  0
  3 18  2  0
  4 19  2  0
  5  6  1  0
  5  7  1  0
  6  8  2  0
  6 10  1  0
  7  9  2  0
  7 11  1  0
  8 12  1  0
  8 18  1  0
  9 13  1  0
  9 19  1  0
 10 14  2  0
 11 15  2  0
 12 16  2  0
 13 17  2  0
 14 16  1  0
 15 17  1  0
M  END
>  <PUBCHEM_COMPOUND_CID>  (1) 
11371

>  <PUBCHEM_CONFORMER_RMSD>  (1) 
0.6

>  <PUBCHEM_CONFORMER_DIVERSEORDER>  (1) 
1
16
11
2
15
8
17
5
10
14
6
9
13
12
3
4
7

>  <PUBCHEM_MMFF94_PARTIAL_CHARGES>  (1) 
30
1 -0.65
10 -0.15
11 -0.15
12 -0.15
13 -0.15
14 -0.15
15 -0.15
16 -0.15
17 -0.15
18 0.63
19 0.63
2 -0.65
20 0.4
21 0.15
22 0.15
23 0.15
24 0.15
25 0.15
26 0.15
27 0.15
28 0.15
29 0.5
3 -0.57
30 0.5
4 -0.57
5 -0.6
6 0.1
7 0.1
8 0.09
9 0.09

>  <PUBCHEM_EFFECTIVE_ROTOR_COUNT>  (1) 
4

>  <PUBCHEM_PHARMACOPHORE_FEATURES>  (1) 
10
1 1 acceptor
1 2 acceptor
1 3 acceptor
1 4 acceptor
1 5 cation
1 5 donor
3 1 3 18 anion
3 2 4 19 anion
6 6 8 10 12 14 16 rings
6 7 9 11 13 15 17 rings

>  <PUBCHEM_HEAVY_ATOM_COUNT>  (1) 
19

>  <PUBCHEM_ATOM_DEF_STEREO_COUNT>  (1) 
0

>  <PUBCHEM_ATOM_UDEF_STEREO_COUNT>  (1) 
0

>  <PUBCHEM_BOND_DEF_STEREO_COUNT>  (1) 
0

>  <PUBCHEM_BOND_UDEF_STEREO_COUNT>  (1) 
0

>  <PUBCHEM_ISOTOPIC_ATOM_COUNT>  (1) 
0

>  <PUBCHEM_COMPONENT_COUNT>  (1) 
1

>  <PUBCHEM_CACTVS_TAUTO_COUNT>  (1) 
2

>  <PUBCHEM_CONFORMER_ID>  (1) 
00002C6B00000001

>  <PUBCHEM_MMFF94_ENERGY>  (1) 
77.2123

>  <PUBCHEM_FEATURE_SELFOVERLAP>  (1) 
50.861

>  <PUBCHEM_SHAPE_FINGERPRINT>  (1) 
10616163 171 18343024418942282215
10759866 29 18409736191756488421
11578080 2 18050248631567473956
11640471 11 18338529585253569700
12236239 1 18410576184180228297
12553582 1 17841704407693866511
12788726 201 18272088348899002491
13538477 17 18343017791812791557
13583140 156 17895205380944234377
14178342 30 18339063939683551618
14787075 74 17550660458279452300
15099037 8 18410285917574345819
15279307 12 18410860961981280966
15375462 189 18340209716772892947
15442244 35 18337672992976084560
15669948 3 18202562899652591357
16752209 62 17988634229582787135
17492 89 18411140233783122519
1813 80 17899985932963758902
19422 9 18410854360616839335
20645476 183 18411141342268813037
20715895 44 17761772867556203857
21634736 98 18409732854994310030
22445834 79 18335703818900318417
2255824 54 18187654574494849546
23557571 272 17631737191702224752
23559900 14 17703801266982939716
23598288 3 18272088331534354919
23598291 2 18408884001419918702
23598294 1 18131353042012111731
2748010 2 17042045663520024349
34934 24 18410855460128655497
352729 6 18201724990514816967
4340502 62 17603878814603317801
474 4 18041849527083666380
603831 33 18269549614513706935
633830 44 18188787148812733580
6992083 37 18266459789218536369
7097593 13 18266172842617124946
7364860 26 18336551525755118256
7615 1 18410845564523615748
77492 1 18410573985151600544
7832392 63 18411141303445568460
84936 182 18268151031930076456
90525 40 18272091573944292063
9981440 41 17689714581928009784

>  <PUBCHEM_SHAPE_MULTIPOLES>  (1) 
362.55
7.38
2.77
1.18
0
0.62
0
-0.62
0
0
0
0
0.23
-2.48

>  <PUBCHEM_SHAPE_SELFOVERLAP>  (1) 
788.336

>  <PUBCHEM_SHAPE_VOLUME>  (1) 
195.7

>  <PUBCHEM_COORDINATE_TYPE>  (1) 
2
5
10

$$$$
