1137
     RDKit          3D

 13 13  0  0  0  0  0  0  0  0999 V2000
   -2.4735    1.5145   -0.6624 S   0  0  0  0  0  0  0  0  0  0  0  0
    2.7218   -0.2899   -0.3116 P   0  0  0  0  0  0  0  0  0  0  0  0
    1.2740   -0.0977    0.3870 O   0  0  0  0  0  0  0  0  0  0  0  0
    3.7216    0.5541    0.6388 O   0  0  0  0  0  0  0  0  0  0  0  0
    2.6071    0.6274   -1.6384 O   0  0  0  0  0  0  0  0  0  0  0  0
    3.1220   -1.7149   -0.5590 O   0  0  0  0  0  0  0  0  0  0  0  0
   -2.9562   -1.0234   -0.5715 N   0  0  0  0  0  0  0  0  0  0  0  0
   -0.5556    1.1958    1.3114 C   0  0  0  0  0  0  0  0  0  0  0  0
   -1.5948    0.5508    0.4255 C   0  0  0  0  0  0  0  0  0  0  0  0
    0.8220    1.2186    0.6547 C   0  0  0  0  0  0  0  0  0  0  0  0
   -1.9641   -0.7536    0.3508 C   0  0  0  0  0  0  0  0  0  0  0  0
   -1.4226   -1.8795    1.1391 C   0  0  0  0  0  0  0  0  0  0  0  0
   -3.3015    0.0977   -1.1645 C   0  0  0  0  0  0  0  0  0  0  0  0
  1  9  1  0
  1 13  1  0
  2  3  1  0
  2  4  1  0
  2  5  1  0
  2  6  2  0
  3 10  1  0
  7 11  1  0
  7 13  2  0
  8  9  1  0
  8 10  1  0
  9 11  2  0
 11 12  1  0
M  END
>  <PUBCHEM_COMPOUND_CID>  (1) 
1137

>  <PUBCHEM_CONFORMER_RMSD>  (1) 
0.6

>  <PUBCHEM_CONFORMER_DIVERSEORDER>  (1) 
1
11
17
16
6
9
15
20
5
14
7
3
10
19
18
8
4
2
13
12

>  <PUBCHEM_MMFF94_PARTIAL_CHARGES>  (1) 
16
1 -0.08
10 0.28
11 0.05
12 0.18
13 0.23
2 1.51
21 0.15
22 0.5
23 0.5
3 -0.55
4 -0.77
5 -0.77
6 -0.7
7 -0.57
8 0.18
9 -0.14

>  <PUBCHEM_EFFECTIVE_ROTOR_COUNT>  (1) 
4

>  <PUBCHEM_PHARMACOPHORE_FEATURES>  (1) 
6
1 4 acceptor
1 5 acceptor
1 6 acceptor
1 7 acceptor
4 2 4 5 6 anion
5 1 7 9 11 13 rings

>  <PUBCHEM_HEAVY_ATOM_COUNT>  (1) 
13

>  <PUBCHEM_ATOM_DEF_STEREO_COUNT>  (1) 
0

>  <PUBCHEM_ATOM_UDEF_STEREO_COUNT>  (1) 
0

>  <PUBCHEM_BOND_DEF_STEREO_COUNT>  (1) 
0

>  <PUBCHEM_BOND_UDEF_STEREO_COUNT>  (1) 
0

>  <PUBCHEM_ISOTOPIC_ATOM_COUNT>  (1) 
0

>  <PUBCHEM_COMPONENT_COUNT>  (1) 
1

>  <PUBCHEM_CACTVS_TAUTO_COUNT>  (1) 
1

>  <PUBCHEM_CONFORMER_ID>  (1) 
0000047100000001

>  <PUBCHEM_MMFF94_ENERGY>  (1) 
-20.513

>  <PUBCHEM_FEATURE_SELFOVERLAP>  (1) 
30.482

>  <PUBCHEM_SHAPE_FINGERPRINT>  (1) 
10857977 72 10519705661167137193
11127187 94 18343867718880717231
12251169 10 10087634940228266831
12696612 119 9943515349489393794
12716758 59 18335417941729731729
13296908 3 17775005674119925092
13897977 13 7925329862580079447
15775835 57 15502365725610536199
17834072 14 18270104743811691098
18186145 218 18115024095669138142
20201158 50 18271802453693679266
20279233 1 18343017809187644842
20361792 2 17132115762097827745
20645476 183 17095507509877282779
20645477 56 18187363220692990133
20653085 51 17168152217053822085
20671657 53 17988921175883758472
21524375 3 13623523554623253689
22802520 49 18262799704346875369
22959321 28 10447632583498021466
23557571 272 17823699869959407672
23559900 14 18341883049280203074
2748010 2 17904476664541640971
3248919 1 18260837003045072528
8030462 33 18272102569208145684
81228 2 17916035555185582056
90316 7 12031793573842342819

>  <PUBCHEM_SHAPE_MULTIPOLES>  (1) 
246.77
6.05
1.72
1.3
3.67
0.49
0.08
0.46
2.17
-0.5
-0.23
0.01
-0.16
0.46

>  <PUBCHEM_SHAPE_SELFOVERLAP>  (1) 
469.248

>  <PUBCHEM_SHAPE_VOLUME>  (1) 
154.5

>  <PUBCHEM_COORDINATE_TYPE>  (1) 
2
5
10

$$$$
