11383
     RDKit          3D

 13 13  0  0  0  0  0  0  0  0999 V2000
   -1.6074   -1.0310   -0.5554 O   0  0  0  0  0  0  0  0  0  0  0  0
    3.2466    0.2818    0.2549 O   0  0  0  0  0  0  0  0  0  0  0  0
    1.1569   -0.7254   -0.1663 N   0  0  0  0  0  0  0  0  0  0  0  0
    0.2888    0.3667   -0.0973 C   0  0  0  0  0  0  0  0  0  0  0  0
   -1.0822    0.1992   -0.2929 C   0  0  0  0  0  0  0  0  0  0  0  0
    0.8053    1.6346    0.1702 C   0  0  0  0  0  0  0  0  0  0  0  0
   -1.9365    1.2996   -0.2210 C   0  0  0  0  0  0  0  0  0  0  0  0
   -2.5705   -1.5340    0.3679 C   0  0  0  0  0  0  0  0  0  0  0  0
   -0.0492    2.7349    0.2421 C   0  0  0  0  0  0  0  0  0  0  0  0
   -1.4200    2.5674    0.0464 C   0  0  0  0  0  0  0  0  0  0  0  0
   -2.4994   -3.0461    0.3799 C   0  0  0  0  0  0  0  0  0  0  0  0
    2.5339   -0.6856    0.0096 C   0  0  0  0  0  0  0  0  0  0  0  0
    3.1336   -2.0621   -0.1382 C   0  0  0  0  0  0  0  0  0  0  0  0
  1  5  1  0
  1  8  1  0
  2 12  2  0
  3  4  1  0
  3 12  1  0
  4  5  2  0
  4  6  1  0
  5  7  1  0
  6  9  2  0
  7 10  2  0
  8 11  1  0
  9 10  1  0
 12 13  1  0
M  END
>  <PUBCHEM_COMPOUND_CID>  (1) 
11383

>  <PUBCHEM_CONFORMER_RMSD>  (1) 
0.6

>  <PUBCHEM_CONFORMER_DIVERSEORDER>  (1) 
1
9
6
11
3
12
7
13
8
4
5
2
10

>  <PUBCHEM_MMFF94_PARTIAL_CHARGES>  (1) 
17
1 -0.36
10 -0.15
12 0.57
13 0.06
14 0.15
15 0.15
18 0.37
19 0.15
2 -0.57
20 0.15
3 -0.55
4 0.12
5 0.08
6 -0.15
7 -0.15
8 0.28
9 -0.15

>  <PUBCHEM_EFFECTIVE_ROTOR_COUNT>  (1) 
4

>  <PUBCHEM_PHARMACOPHORE_FEATURES>  (1) 
4
1 1 acceptor
1 2 acceptor
1 3 donor
6 4 5 6 7 9 10 rings

>  <PUBCHEM_HEAVY_ATOM_COUNT>  (1) 
13

>  <PUBCHEM_ATOM_DEF_STEREO_COUNT>  (1) 
0

>  <PUBCHEM_ATOM_UDEF_STEREO_COUNT>  (1) 
0

>  <PUBCHEM_BOND_DEF_STEREO_COUNT>  (1) 
0

>  <PUBCHEM_BOND_UDEF_STEREO_COUNT>  (1) 
0

>  <PUBCHEM_ISOTOPIC_ATOM_COUNT>  (1) 
0

>  <PUBCHEM_COMPONENT_COUNT>  (1) 
1

>  <PUBCHEM_CACTVS_TAUTO_COUNT>  (1) 
2

>  <PUBCHEM_CONFORMER_ID>  (1) 
00002C7700000001

>  <PUBCHEM_MMFF94_ENERGY>  (1) 
41.6747

>  <PUBCHEM_FEATURE_SELFOVERLAP>  (1) 
20.297

>  <PUBCHEM_SHAPE_FINGERPRINT>  (1) 
1 1 17185596261223395141
12553582 1 18338521965992357046
12716758 59 18195801860808719096
13380535 76 17766553560680823654
15442244 35 18268156529783029731
16945 1 18338237037977673140
193761 8 18339078310576116973
20510252 161 17983853376483457368
20645476 183 17828227409844963862
20645477 70 17543054037287189655
20871998 184 18201718414339755351
20871998 22 18340213010649065199
21524375 3 17551787019495123077
21665056 4 17904484004298098510
23402539 116 18054211142830051973
23552423 10 18334014965182956636
23557571 272 18272661108483381412
23559900 14 18054498120556823418
2748010 2 18269823367186997236
33824 294 17112692051943944187
43471831 8 17400362252553288683
54173680 148 18338518538655401362
7364860 26 17762903564439544219
81228 2 18339913818990170545
8809292 202 18196653995353087206

>  <PUBCHEM_SHAPE_MULTIPOLES>  (1) 
250.81
4.46
3.56
0.66
3.28
0.39
0
3.31
-0.2
-2.3
-0.44
-0.09
0.03
0.39

>  <PUBCHEM_SHAPE_SELFOVERLAP>  (1) 
510.323

>  <PUBCHEM_SHAPE_VOLUME>  (1) 
145.5

>  <PUBCHEM_COORDINATE_TYPE>  (1) 
2
5
10

$$$$
