11392
     RDKit          3D

 13 14  0  0  0  0  0  0  0  0999 V2000
   -3.7838    0.6002   -0.0005 O   0  0  0  0  0  0  0  0  0  0  0  0
   -3.2100   -1.5187   -0.0003 O   0  0  0  0  0  0  0  0  0  0  0  0
   -2.9100   -0.3003    0.0000 N   0  0  0  0  0  0  0  0  0  0  0  0
    0.8095   -0.5622    0.0002 C   0  0  0  0  0  0  0  0  0  0  0  0
    1.1712    0.8060    0.0001 C   0  0  0  0  0  0  0  0  0  0  0  0
   -0.5504   -0.9131    0.0005 C   0  0  0  0  0  0  0  0  0  0  0  0
    0.1625    1.7831    0.0000 C   0  0  0  0  0  0  0  0  0  0  0  0
   -1.5393    0.0710    0.0004 C   0  0  0  0  0  0  0  0  0  0  0  0
    1.8183   -1.5393    0.0000 C   0  0  0  0  0  0  0  0  0  0  0  0
    2.5311    1.1569   -0.0003 C   0  0  0  0  0  0  0  0  0  0  0  0
   -1.1837    1.4165    0.0003 C   0  0  0  0  0  0  0  0  0  0  0  0
    3.1644   -1.1727   -0.0002 C   0  0  0  0  0  0  0  0  0  0  0  0
    3.5201    0.1729   -0.0003 C   0  0  0  0  0  0  0  0  0  0  0  0
  1  3  1  0
  2  3  2  0
  3  8  1  0
  4  5  1  0
  4  6  2  0
  4  9  1  0
  5  7  2  0
  5 10  1  0
  6  8  1  0
  7 11  1  0
  8 11  2  0
  9 12  2  0
 10 13  2  0
 12 13  1  0
M  CHG  2   1  -1   3   1
M  END
>  <PUBCHEM_COMPOUND_CID>  (1) 
11392

>  <PUBCHEM_CONFORMER_RMSD>  (1) 
0.4

>  <PUBCHEM_CONFORMER_DIVERSEORDER>  (1) 
1

>  <PUBCHEM_MMFF94_PARTIAL_CHARGES>  (1) 
18
1 -0.52
10 -0.15
11 -0.15
12 -0.15
13 -0.15
14 0.15
15 0.15
16 0.15
17 0.15
18 0.15
19 0.15
2 -0.52
20 0.15
3 0.91
6 -0.15
7 -0.15
8 0.13
9 -0.15

>  <PUBCHEM_EFFECTIVE_ROTOR_COUNT>  (1) 
1

>  <PUBCHEM_PHARMACOPHORE_FEATURES>  (1) 
5
1 1 acceptor
1 1 anion
1 2 acceptor
6 4 5 6 7 8 11 rings
6 4 5 9 10 12 13 rings

>  <PUBCHEM_HEAVY_ATOM_COUNT>  (1) 
13

>  <PUBCHEM_ATOM_DEF_STEREO_COUNT>  (1) 
0

>  <PUBCHEM_ATOM_UDEF_STEREO_COUNT>  (1) 
0

>  <PUBCHEM_BOND_DEF_STEREO_COUNT>  (1) 
0

>  <PUBCHEM_BOND_UDEF_STEREO_COUNT>  (1) 
0

>  <PUBCHEM_ISOTOPIC_ATOM_COUNT>  (1) 
0

>  <PUBCHEM_COMPONENT_COUNT>  (1) 
1

>  <PUBCHEM_CACTVS_TAUTO_COUNT>  (1) 
1

>  <PUBCHEM_CONFORMER_ID>  (1) 
00002C8000000001

>  <PUBCHEM_MMFF94_ENERGY>  (1) 
40.8056

>  <PUBCHEM_FEATURE_SELFOVERLAP>  (1) 
25.48

>  <PUBCHEM_SHAPE_FINGERPRINT>  (1) 
10219947 1 18343866619036838302
10608611 8 18409443678656116365
10967382 1 18410575046050642726
11132069 177 18412258432744089922
11471102 20 18410288103543680165
11769659 78 18409442579186400730
11806522 49 18267017452484110143
12032990 46 18410862065883029454
12932764 1 17385714777643909523
14144814 61 18413109450391031403
14325111 11 18410856585430763809
15536298 74 18343584045028482728
16945 1 18410575093606545312
17844478 74 18040720255437235061
18186145 218 17821725022548107591
193761 8 17689998938162305606
200 152 18131340900065635093
20201158 50 18408041801309336650
20645477 70 18411978031810357959
20871998 22 18199192784981776598
21267235 1 18411146835057666007
21501502 16 18266182738453740472
21501925 9 18411128164850381866
23402539 116 18411127039917194422
23402655 69 18411976932150803277
23463225 33 18409730647064374916
23552423 10 18261115123678672796
23559900 14 18339355241962413386
2748010 2 18338793390993001860
3312278 4 18410858767490376193
528886 8 18411695513092894418
53812653 166 18271801380316008272
581208 293 18411695526035857408
7364860 26 18269556216126860592
8809292 202 18260272944732029075

>  <PUBCHEM_SHAPE_MULTIPOLES>  (1) 
250.81
5.66
1.75
0.6
2
0.11
0
-1.1
0
-0.13
0
-0.07
0.01
0

>  <PUBCHEM_SHAPE_SELFOVERLAP>  (1) 
551.884

>  <PUBCHEM_SHAPE_VOLUME>  (1) 
136.3

>  <PUBCHEM_COORDINATE_TYPE>  (1) 
2
5
10

$$$$
