114
     RDKit          3D

 12 12  0  0  0  0  0  0  0  0999 V2000
   -4.4628   -0.1869   -0.6743 O   0  0  0  0  0  0  0  0  0  0  0  0
   -3.0455    1.4092    0.0935 O   0  0  0  0  0  0  0  0  0  0  0  0
    3.3630   -1.0109   -0.1100 N   0  0  0  0  0  0  0  0  0  0  0  0
   -1.1151   -0.6473    0.8358 C   0  0  0  0  0  0  0  0  0  0  0  0
   -0.3330   -0.3610   -0.4541 C   0  0  0  0  0  0  0  0  0  0  0  0
   -2.6039   -0.9283    0.6106 C   0  0  0  0  0  0  0  0  0  0  0  0
    1.1394   -0.1154   -0.2505 C   0  0  0  0  0  0  0  0  0  0  0  0
    1.6084    1.1636   -0.0252 C   0  0  0  0  0  0  0  0  0  0  0  0
    2.0311   -1.1624   -0.2858 C   0  0  0  0  0  0  0  0  0  0  0  0
   -3.3542    0.2300   -0.0094 C   0  0  0  0  0  0  0  0  0  0  0  0
    2.9724    1.3597    0.1603 C   0  0  0  0  0  0  0  0  0  0  0  0
    3.8001    0.2497    0.1091 C   0  0  0  0  0  0  0  0  0  0  0  0
  1 10  1  0
  2 10  2  0
  3  9  2  0
  3 12  1  0
  4  5  1  0
  4  6  1  0
  5  7  1  0
  6 10  1  0
  7  8  2  0
  7  9  1  0
  8 11  1  0
 11 12  2  0
M  END
>  <PUBCHEM_COMPOUND_CID>  (1) 
114

>  <PUBCHEM_CONFORMER_RMSD>  (1) 
0.6

>  <PUBCHEM_CONFORMER_DIVERSEORDER>  (1) 
2
48
5
45
23
26
32
47
16
1
27
28
46
38
36
17
29
21
9
13
49
3
15
10
22
14
39
43
41
33
35
37
18
50
40
25
44
42
6
8
11
20
24
4
31
19
7
34
30
51
12

>  <PUBCHEM_MMFF94_PARTIAL_CHARGES>  (1) 
16
1 -0.65
10 0.66
11 -0.15
12 0.16
19 0.15
2 -0.57
20 0.15
21 0.15
22 0.15
23 0.5
3 -0.62
5 0.14
6 0.06
7 -0.14
8 -0.15
9 0.16

>  <PUBCHEM_EFFECTIVE_ROTOR_COUNT>  (1) 
4

>  <PUBCHEM_PHARMACOPHORE_FEATURES>  (1) 
5
1 1 acceptor
1 2 acceptor
1 3 acceptor
3 1 2 10 anion
6 3 7 8 9 11 12 rings

>  <PUBCHEM_HEAVY_ATOM_COUNT>  (1) 
12

>  <PUBCHEM_ATOM_DEF_STEREO_COUNT>  (1) 
0

>  <PUBCHEM_ATOM_UDEF_STEREO_COUNT>  (1) 
0

>  <PUBCHEM_BOND_DEF_STEREO_COUNT>  (1) 
0

>  <PUBCHEM_BOND_UDEF_STEREO_COUNT>  (1) 
0

>  <PUBCHEM_ISOTOPIC_ATOM_COUNT>  (1) 
0

>  <PUBCHEM_COMPONENT_COUNT>  (1) 
1

>  <PUBCHEM_CACTVS_TAUTO_COUNT>  (1) 
1

>  <PUBCHEM_CONFORMER_ID>  (1) 
0000007200000002

>  <PUBCHEM_MMFF94_ENERGY>  (1) 
20.6854

>  <PUBCHEM_FEATURE_SELFOVERLAP>  (1) 
25.43

>  <PUBCHEM_SHAPE_FINGERPRINT>  (1) 
10219947 1 18130793351981118078
10608611 8 18409166631769484905
11062470 55 18411983563379743986
11471102 20 18411418419225373276
12162725 195 18341898480580946913
124424 183 18260830392926880354
12500047 106 17968096455676325618
12932764 1 18129391547269259955
13922767 16 18412543215193771576
14144814 61 18410016524229589819
14251717 144 18342737403542155646
14325111 11 18410858775916806355
15442244 35 18124036728305422098
17802600 8 18411975867014874209
18186145 218 18260551095546100379
190213 19 13479132393180777559
200 152 17917990581575179775
20201158 50 18409451379500433387
20279233 1 18260834812290212714
20528008 55 18334010614212046791
20645477 70 18412826854628914318
22096605 113 18201434834839703417
23402539 116 18411693301706996063
23402655 69 18342735191844884429
3248919 1 17458913750424143455
351380 180 18410287012959642405
4028521 119 18187074028176701765
57812782 119 18410575093500933435
69090 78 18411133658519975591
93112 12 18410294735110451983

>  <PUBCHEM_SHAPE_MULTIPOLES>  (1) 
230.23
7.74
1.33
0.75
3.84
0.21
-0.04
0.79
0.42
-0.44
-0.05
0.24
-0.08
0.3

>  <PUBCHEM_SHAPE_SELFOVERLAP>  (1) 
465.749

>  <PUBCHEM_SHAPE_VOLUME>  (1) 
133.5

>  <PUBCHEM_COORDINATE_TYPE>  (1) 
2
5
10

$$$$
