11406
     RDKit          3D

 12 12  0  0  0  0  0  0  0  0999 V2000
   -1.3636   -0.0145   -0.1572 O   0  0  0  0  0  0  0  0  0  0  0  0
   -0.5627    2.1347    0.0382 O   0  0  0  0  0  0  0  0  0  0  0  0
    0.9463    0.2892   -0.0069 C   0  0  0  0  0  0  0  0  0  0  0  0
    2.0915    1.0769    0.1114 C   0  0  0  0  0  0  0  0  0  0  0  0
    1.0605   -1.0981   -0.0967 C   0  0  0  0  0  0  0  0  0  0  0  0
   -0.3662    0.9144   -0.0360 C   0  0  0  0  0  0  0  0  0  0  0  0
    3.3506    0.4773    0.1396 C   0  0  0  0  0  0  0  0  0  0  0  0
    2.3197   -1.6976   -0.0683 C   0  0  0  0  0  0  0  0  0  0  0  0
    3.4647   -0.9098    0.0498 C   0  0  0  0  0  0  0  0  0  0  0  0
   -2.7066    0.4796   -0.1985 C   0  0  0  0  0  0  0  0  0  0  0  0
   -3.6397   -0.6778   -0.3321 C   0  0  0  0  0  0  0  0  0  0  0  0
   -4.5944   -0.9743    0.5567 C   0  0  0  0  0  0  0  0  0  0  0  0
  1  6  1  0
  1 10  1  0
  2  6  2  0
  3  4  2  0
  3  5  1  0
  3  6  1  0
  4  7  1  0
  5  8  2  0
  7  9  2  0
  8  9  1  0
 10 11  1  0
 11 12  2  0
M  END
>  <PUBCHEM_COMPOUND_CID>  (1) 
11406

>  <PUBCHEM_CONFORMER_RMSD>  (1) 
0.6

>  <PUBCHEM_CONFORMER_DIVERSEORDER>  (1) 
1
16
5
14
17
2
4
12
13
19
10
18
7
15
9
8
11
6
3

>  <PUBCHEM_MMFF94_PARTIAL_CHARGES>  (1) 
20
1 -0.43
10 0.42
11 -0.29
12 -0.3
13 0.15
14 0.15
15 0.15
16 0.15
17 0.15
2 -0.57
20 0.15
21 0.15
22 0.15
3 0.09
4 -0.15
5 -0.15
6 0.63
7 -0.15
8 -0.15
9 -0.15

>  <PUBCHEM_EFFECTIVE_ROTOR_COUNT>  (1) 
4

>  <PUBCHEM_PHARMACOPHORE_FEATURES>  (1) 
3
1 12 hydrophobe
1 2 acceptor
6 3 4 5 7 8 9 rings

>  <PUBCHEM_HEAVY_ATOM_COUNT>  (1) 
12

>  <PUBCHEM_ATOM_DEF_STEREO_COUNT>  (1) 
0

>  <PUBCHEM_ATOM_UDEF_STEREO_COUNT>  (1) 
0

>  <PUBCHEM_BOND_DEF_STEREO_COUNT>  (1) 
0

>  <PUBCHEM_BOND_UDEF_STEREO_COUNT>  (1) 
0

>  <PUBCHEM_ISOTOPIC_ATOM_COUNT>  (1) 
0

>  <PUBCHEM_COMPONENT_COUNT>  (1) 
1

>  <PUBCHEM_CACTVS_TAUTO_COUNT>  (1) 
1

>  <PUBCHEM_CONFORMER_ID>  (1) 
00002C8E00000001

>  <PUBCHEM_MMFF94_ENERGY>  (1) 
27.4362

>  <PUBCHEM_FEATURE_SELFOVERLAP>  (1) 
15.223

>  <PUBCHEM_SHAPE_FINGERPRINT>  (1) 
10219947 1 18342458170574867927
11543360 7 15791741827180346791
12032990 46 18409451375337367279
12932764 1 17417798552622734605
13296908 3 18408881815671805661
13705890 14 17894910732690591710
14251717 144 18411134770663167743
14252887 29 18131361807771564943
14325111 11 18411134714638591380
14350558 41 18333737926611855839
15375462 189 18202279234247957779
15477762 27 18334858341729364876
15501101 241 18411979191134964501
18186145 218 17603580803453910189
20201158 50 18333170574359420499
20645477 70 18341603785953622335
20871998 22 18200603488027004575
21501502 16 18265901250586931144
21501925 9 18410566284312019306
22485316 2 18411133645703372647
23402539 116 16732974310851855422
23402655 69 18411413995113750453
23557571 272 17240473706999472973
25610 137 18410575089005811372
2748010 2 18125993863572228300
276578 36 14548740594747545444
2871803 45 18333726897320754703
5104073 3 18340482262322724320
581208 293 18411414042321415170
83771 10 18410855464850390497
8809292 202 18187368782828587059

>  <PUBCHEM_SHAPE_MULTIPOLES>  (1) 
235.22
7.46
1.66
0.65
6.6
0.2
-0.01
-2.8
-0.66
-0.46
-0.02
0.15
-0.04
0.22

>  <PUBCHEM_SHAPE_SELFOVERLAP>  (1) 
481.875

>  <PUBCHEM_SHAPE_VOLUME>  (1) 
135.8

>  <PUBCHEM_COORDINATE_TYPE>  (1) 
2
5
10

$$$$
