11404
     RDKit          3D

 15 15  0  0  1  0  0  0  0  0999 V2000
    4.1746    2.0048   -0.0173 F   0  0  0  0  0  0  0  0  0  0  0  0
    0.0199   -0.3754   -1.9572 O   0  0  0  0  0  0  0  0  0  0  0  0
   -2.1548    0.1981   -0.1596 N   0  0  0  0  0  0  0  0  0  0  0  0
   -0.7591    0.3292    0.2338 C   0  0  0  0  0  0  0  0  0  0  0  0
    0.1247   -0.6414   -0.5591 C   0  0  0  0  0  0  0  0  0  0  0  0
   -3.0002    1.1002    0.6135 C   0  0  0  0  0  0  0  0  0  0  0  0
   -4.4621    0.9439    0.1982 C   0  0  0  0  0  0  0  0  0  0  0  0
   -4.9466   -0.4909    0.4106 C   0  0  0  0  0  0  0  0  0  0  0  0
    1.5793   -0.5173   -0.1618 C   0  0  0  0  0  0  0  0  0  0  0  0
   -6.4110   -0.6464    0.0329 C   0  0  0  0  0  0  0  0  0  0  0  0
    2.2089    0.7098   -0.2790 C   0  0  0  0  0  0  0  0  0  0  0  0
    2.2484   -1.6328    0.3112 C   0  0  0  0  0  0  0  0  0  0  0  0
    3.5497    0.8248    0.0884 C   0  0  0  0  0  0  0  0  0  0  0  0
    3.5889   -1.5177    0.6785 C   0  0  0  0  0  0  0  0  0  0  0  0
    4.2396   -0.2890    0.5672 C   0  0  0  0  0  0  0  0  0  0  0  0
  1 13  1  0
  2  5  1  0
  3  4  1  0
  3  6  1  0
  4  5  1  0
  5  9  1  0
  6  7  1  0
  7  8  1  0
  8 10  1  0
  9 11  2  0
  9 12  1  0
 11 13  1  0
 12 14  2  0
 13 15  2  0
 14 15  1  0
M  END
>  <PUBCHEM_COMPOUND_CID>  (1) 
11404

>  <PUBCHEM_CONFORMER_RMSD>  (1) 
0.6

>  <PUBCHEM_CONFORMER_DIVERSEORDER>  (1) 
8
62
231
241
168
150
95
140
219
112
131
260
120
51
107
134
11
108
265
129
91
61
117
132
261
166
211
148
180
40
9
266
222
119
136
13
218
127
24
93
197
28
223
49
60
17
29
226
19
209
104
101
190
189
73
130
2
254
3
186
243
41
204
154
111
126
27
46
25
143
249
248
99
161
63
194
103
89
242
36
64
263
274
7
83
100
110
157
50
169
52
183
32
56
253
37
268
258
192
77
20
105
239
272
234
43
207
262
201
216
6
67
53
167
65
4
141
229
116
84
146
225
26
245
1
205
247
257
156
138
76
74
271
147
221
38
185
5
115
165
149
97
200
88
66
196
214
240
135
57
80
173
78
164
21
224
237
16
45
12
236
15
178
90
246
230
42
162
191
259
212
144
139
85
193
267
123
22
155
72
172
270
142
137
98
133
195
152
33
206
255
215
10
199
228
252
122
145
69
269
174
14
202
86
227
96
256
128
79
121
39
251
55
188
70
118
250
113
175
47
171
187
264
232
106
109
235
94
244
213
179
177
124
102
18
158
210
71
220
233
87
184
114
203
59
273
44
159
125
23
198
54
176
153
182
238
58
68
81
217
181
208
170
92
31
151
163
35
82
160
48
30
75
34

>  <PUBCHEM_MMFF94_PARTIAL_CHARGES>  (1) 
18
1 -0.19
11 -0.15
12 -0.15
13 0.19
14 -0.15
15 -0.15
2 -0.68
23 0.36
29 0.15
3 -0.9
30 0.15
31 0.4
32 0.15
33 0.15
4 0.27
5 0.42
6 0.27
9 -0.14

>  <PUBCHEM_EFFECTIVE_ROTOR_COUNT>  (1) 
6

>  <PUBCHEM_PHARMACOPHORE_FEATURES>  (1) 
6
1 10 hydrophobe
1 2 acceptor
1 2 donor
1 3 cation
1 3 donor
6 9 11 12 13 14 15 rings

>  <PUBCHEM_HEAVY_ATOM_COUNT>  (1) 
15

>  <PUBCHEM_ATOM_DEF_STEREO_COUNT>  (1) 
0

>  <PUBCHEM_ATOM_UDEF_STEREO_COUNT>  (1) 
1

>  <PUBCHEM_BOND_DEF_STEREO_COUNT>  (1) 
0

>  <PUBCHEM_BOND_UDEF_STEREO_COUNT>  (1) 
0

>  <PUBCHEM_ISOTOPIC_ATOM_COUNT>  (1) 
0

>  <PUBCHEM_COMPONENT_COUNT>  (1) 
1

>  <PUBCHEM_CACTVS_TAUTO_COUNT>  (1) 
1

>  <PUBCHEM_CONFORMER_ID>  (1) 
00002C8C00000008

>  <PUBCHEM_MMFF94_ENERGY>  (1) 
18.7268

>  <PUBCHEM_FEATURE_SELFOVERLAP>  (1) 
30.448

>  <PUBCHEM_SHAPE_FINGERPRINT>  (1) 
10354089 29 18412824686086550488
10366900 7 17895206471459537904
10912923 1 18272374153091490945
12107183 9 17617658757152038833
124424 183 13262403258906064597
12916748 109 15985106305680133098
13167823 11 18409727331645333459
13533116 47 18259983738909183339
14123238 8 18131633387697149747
14252887 29 17022904523479844856
14366163 111 11312053244829932519
14848160 23 17821446868266880195
15342168 16 17970070152732690252
15848700 24 15864073152331956247
17834072 33 18410291423890990475
17834072 8 10953456319460661587
18222031 100 16298390145081806591
20369508 70 13551198809097453526
20645477 70 18335701594218321250
22224240 67 17676485094934482088
23402539 116 18335697218347902877
31174 14 17967806112251102662
32948 21 10737283554685262095
4047638 21 14333403450345771926
42 15 18187366484909780947
474229 33 18202845465957573447
4990 188 12679457582025561005
5104073 3 18337394851157916009
5374978 207 18409729556132151969
69090 78 18113618984602959699
7495541 125 18059851801016023051
9971528 1 17167584869159248703

>  <PUBCHEM_SHAPE_MULTIPOLES>  (1) 
290.57
12.34
1.48
0.93
16.65
0.12
0.34
-0.4
-2.36
-1.3
-0.17
-0.08
-0.11
-0.45

>  <PUBCHEM_SHAPE_SELFOVERLAP>  (1) 
579.28

>  <PUBCHEM_SHAPE_VOLUME>  (1) 
173

>  <PUBCHEM_COORDINATE_TYPE>  (1) 
2
5
10

$$$$
