11402
     RDKit          3D

 15 15  0  0  1  0  0  0  0  0999 V2000
    3.4463   -2.2693   -0.3906 F   0  0  0  0  0  0  0  0  0  0  0  0
   -0.1606    1.0887   -1.9337 O   0  0  0  0  0  0  0  0  0  0  0  0
   -2.4829    0.5892   -0.3085 N   0  0  0  0  0  0  0  0  0  0  0  0
   -3.5014   -0.3000    0.2595 C   0  0  0  0  0  0  0  0  0  0  0  0
   -1.1516    0.1542    0.0787 C   0  0  0  0  0  0  0  0  0  0  0  0
   -0.0819    1.0828   -0.5089 C   0  0  0  0  0  0  0  0  0  0  0  0
   -4.8828    0.1925   -0.1848 C   0  0  0  0  0  0  0  0  0  0  0  0
   -3.2562   -1.7196   -0.2630 C   0  0  0  0  0  0  0  0  0  0  0  0
   -3.4009   -0.2770    1.7893 C   0  0  0  0  0  0  0  0  0  0  0  0
    1.3110    0.6431   -0.1142 C   0  0  0  0  0  0  0  0  0  0  0  0
    1.7346   -0.6331   -0.4427 C   0  0  0  0  0  0  0  0  0  0  0  0
    2.1315    1.5266    0.5655 C   0  0  0  0  0  0  0  0  0  0  0  0
    3.0192   -1.0384   -0.0799 C   0  0  0  0  0  0  0  0  0  0  0  0
    3.4158    1.1213    0.9282 C   0  0  0  0  0  0  0  0  0  0  0  0
    3.8598   -0.1611    0.6054 C   0  0  0  0  0  0  0  0  0  0  0  0
  1 13  1  0
  2  6  1  0
  3  4  1  0
  3  5  1  0
  4  7  1  0
  4  8  1  0
  4  9  1  0
  5  6  1  0
  6 10  1  0
 10 11  2  0
 10 12  1  0
 11 13  1  0
 12 14  2  0
 13 15  2  0
 14 15  1  0
M  END
>  <PUBCHEM_COMPOUND_CID>  (1) 
11402

>  <PUBCHEM_CONFORMER_RMSD>  (1) 
0.6

>  <PUBCHEM_CONFORMER_DIVERSEORDER>  (1) 
3
12
20
8
13
6
22
25
10
30
16
2
17
11
28
15
14
24
4
23
7
19
27
1
26
5
9
21
18
29

>  <PUBCHEM_MMFF94_PARTIAL_CHARGES>  (1) 
18
1 -0.19
10 -0.14
11 -0.15
12 -0.15
13 0.19
14 -0.15
15 -0.15
16 0.36
2 -0.68
29 0.15
3 -0.9
30 0.15
31 0.4
32 0.15
33 0.15
4 0.27
5 0.27
6 0.42

>  <PUBCHEM_EFFECTIVE_ROTOR_COUNT>  (1) 
4

>  <PUBCHEM_PHARMACOPHORE_FEATURES>  (1) 
6
1 2 acceptor
1 2 donor
1 3 cation
1 3 donor
4 4 7 8 9 hydrophobe
6 10 11 12 13 14 15 rings

>  <PUBCHEM_HEAVY_ATOM_COUNT>  (1) 
15

>  <PUBCHEM_ATOM_DEF_STEREO_COUNT>  (1) 
0

>  <PUBCHEM_ATOM_UDEF_STEREO_COUNT>  (1) 
1

>  <PUBCHEM_BOND_DEF_STEREO_COUNT>  (1) 
0

>  <PUBCHEM_BOND_UDEF_STEREO_COUNT>  (1) 
0

>  <PUBCHEM_ISOTOPIC_ATOM_COUNT>  (1) 
0

>  <PUBCHEM_COMPONENT_COUNT>  (1) 
1

>  <PUBCHEM_CACTVS_TAUTO_COUNT>  (1) 
1

>  <PUBCHEM_CONFORMER_ID>  (1) 
00002C8A00000003

>  <PUBCHEM_MMFF94_ENERGY>  (1) 
30.7896

>  <PUBCHEM_FEATURE_SELFOVERLAP>  (1) 
30.448

>  <PUBCHEM_SHAPE_FINGERPRINT>  (1) 
10465860 71 16515696528068283703
10618630 7 18040434382276687748
10751810 167 15574716889464102617
11543360 7 11746944212935611073
12251169 10 18131630101451173268
12670546 56 17632576028716238177
12707595 3 16805609204418792925
13296908 3 18187080654772980573
13533116 47 17988642982821230979
13583140 156 17774149236335110465
13675066 3 18260552247040480009
14115302 16 14634868656398159472
14252887 29 18333734628177277392
14289901 80 18342737450723401609
14386348 63 18040154015396433811
15375358 24 18186513328421873553
15501101 241 18409729586334293780
18915474 69 14057004948500194513
19107657 162 18040721397935368347
19141452 34 18408884053692937599
200 152 17846489357964714285
20279233 1 18334857238292060891
20281407 28 18333734602222759564
20281475 54 18409453574392226014
20339313 130 17531257191858044453
20361792 2 17022901276447743461
20432913 95 18411983567806567387
20645477 70 18412257316126777343
20871998 22 18261391113977079740
21065199 12 18343020012521796057
21119208 17 12685085982106071209
21524375 3 12391517485591877037
22169311 21 18411694417971140347
22485316 2 18411133649734517867
22854114 59 18201997754680776873
23048698 100 17703791431133103377
231179 274 12247683733906266402
23382010 3 12324536375341238188
23402539 116 16515676720122258516
23557571 272 17676196940909476300
23559900 14 18342172275987294896
26918003 58 18342733026938462369
276578 36 14620800400957530732
31174 14 18341603811749643416
33824 294 18411132541749376978
42 15 18411420613790215657
581208 293 18409164454500283440
6333272 397 13326564185670300643
69090 78 18342733044456214255
81228 2 17531806827465933629
9709674 26 18336829800701995435

>  <PUBCHEM_SHAPE_MULTIPOLES>  (1) 
290.57
8.88
1.6
1.18
4.71
0.64
0.03
1.82
2.01
-1.17
-0.17
0.5
-0.25
0.48

>  <PUBCHEM_SHAPE_SELFOVERLAP>  (1) 
588.985

>  <PUBCHEM_SHAPE_VOLUME>  (1) 
172.1

>  <PUBCHEM_COORDINATE_TYPE>  (1) 
2
5
10

$$$$
