11416
     RDKit          3D

  8  8  0  0  1  0  0  0  0  0999 V2000
    0.6501    0.7189    0.2882 C   0  0  0  0  0  0  0  0  0  0  0  0
    0.6504   -0.7187   -0.2881 C   0  0  0  0  0  0  0  0  0  0  0  0
   -0.6317    1.4677   -0.1159 C   0  0  0  0  0  0  0  0  0  0  0  0
   -0.6312   -1.4679    0.1161 C   0  0  0  0  0  0  0  0  0  0  0  0
   -1.8905    0.7059    0.2846 C   0  0  0  0  0  0  0  0  0  0  0  0
   -1.8902   -0.7064   -0.2847 C   0  0  0  0  0  0  0  0  0  0  0  0
    1.8712    1.5293   -0.1556 C   0  0  0  0  0  0  0  0  0  0  0  0
    1.8718   -1.5288    0.1555 C   0  0  0  0  0  0  0  0  0  0  0  0
  1  2  1  0
  1  3  1  0
  1  7  1  0
  2  4  1  0
  2  8  1  0
  3  5  1  0
  4  6  1  0
  5  6  1  0
M  END
>  <PUBCHEM_COMPOUND_CID>  (1) 
11416

>  <PUBCHEM_CONFORMER_RMSD>  (1) 
0.4

>  <PUBCHEM_CONFORMER_DIVERSEORDER>  (1) 
2
6
3
4
1
5

>  <PUBCHEM_MMFF94_PARTIAL_CHARGES>  (1) 
0

>  <PUBCHEM_EFFECTIVE_ROTOR_COUNT>  (1) 
1.2

>  <PUBCHEM_PHARMACOPHORE_FEATURES>  (1) 
1
6 1 2 3 4 5 6 rings

>  <PUBCHEM_HEAVY_ATOM_COUNT>  (1) 
8

>  <PUBCHEM_ATOM_DEF_STEREO_COUNT>  (1) 
0

>  <PUBCHEM_ATOM_UDEF_STEREO_COUNT>  (1) 
2

>  <PUBCHEM_BOND_DEF_STEREO_COUNT>  (1) 
0

>  <PUBCHEM_BOND_UDEF_STEREO_COUNT>  (1) 
0

>  <PUBCHEM_ISOTOPIC_ATOM_COUNT>  (1) 
0

>  <PUBCHEM_COMPONENT_COUNT>  (1) 
1

>  <PUBCHEM_CACTVS_TAUTO_COUNT>  (1) 
1

>  <PUBCHEM_CONFORMER_ID>  (1) 
00002C9800000002

>  <PUBCHEM_MMFF94_ENERGY>  (1) 
6.2046

>  <PUBCHEM_FEATURE_SELFOVERLAP>  (1) 
5.074

>  <PUBCHEM_SHAPE_FINGERPRINT>  (1) 
18185500 45 17977384936670918571
21040471 1 18339642364071934521
23235685 24 18121494915141315957
23552423 10 18335140912033655174
241688 4 18337387132700575889
2748010 2 18410293609923732263
29004967 10 18116157842713404321
5084963 1 18200867366707189739
66348 1 18267303329422140134

>  <PUBCHEM_SHAPE_MULTIPOLES>  (1) 
164.64
2.59
1.99
0.67
0.04
0
0
0
0
-0.6
0
0.02
0
-0.15

>  <PUBCHEM_SHAPE_SELFOVERLAP>  (1) 
312.122

>  <PUBCHEM_SHAPE_VOLUME>  (1) 
101.7

>  <PUBCHEM_COORDINATE_TYPE>  (1) 
2
5
10

$$$$
