11417
     RDKit          3D

  8  8  0  0  0  0  0  0  0  0999 V2000
   -1.8496   -0.6550    0.0000 N   0  0  0  0  0  0  0  0  0  0  0  0
    0.6035    0.6849    0.0001 C   0  0  0  0  0  0  0  0  0  0  0  0
    0.5674   -0.7050    0.0000 C   0  0  0  0  0  0  0  0  0  0  0  0
   -0.5856    1.4057    0.0000 C   0  0  0  0  0  0  0  0  0  0  0  0
    1.9020    1.4215    0.0000 C   0  0  0  0  0  0  0  0  0  0  0  0
    1.8106   -1.5255   -0.0001 C   0  0  0  0  0  0  0  0  0  0  0  0
   -0.6735   -1.3214    0.0002 C   0  0  0  0  0  0  0  0  0  0  0  0
   -1.7749    0.6948   -0.0001 C   0  0  0  0  0  0  0  0  0  0  0  0
  1  7  2  0
  1  8  1  0
  2  3  2  0
  2  4  1  0
  2  5  1  0
  3  6  1  0
  3  7  1  0
  4  8  2  0
M  END
>  <PUBCHEM_COMPOUND_CID>  (1) 
11417

>  <PUBCHEM_CONFORMER_RMSD>  (1) 
0.4

>  <PUBCHEM_CONFORMER_DIVERSEORDER>  (1) 
1

>  <PUBCHEM_MMFF94_PARTIAL_CHARGES>  (1) 
11
1 -0.62
16 0.15
17 0.15
2 -0.14
3 -0.14
4 -0.15
5 0.14
6 0.14
7 0.16
8 0.16
9 0.15

>  <PUBCHEM_EFFECTIVE_ROTOR_COUNT>  (1) 
0

>  <PUBCHEM_PHARMACOPHORE_FEATURES>  (1) 
2
1 1 acceptor
6 1 2 3 4 7 8 rings

>  <PUBCHEM_HEAVY_ATOM_COUNT>  (1) 
8

>  <PUBCHEM_ATOM_DEF_STEREO_COUNT>  (1) 
0

>  <PUBCHEM_ATOM_UDEF_STEREO_COUNT>  (1) 
0

>  <PUBCHEM_BOND_DEF_STEREO_COUNT>  (1) 
0

>  <PUBCHEM_BOND_UDEF_STEREO_COUNT>  (1) 
0

>  <PUBCHEM_ISOTOPIC_ATOM_COUNT>  (1) 
0

>  <PUBCHEM_COMPONENT_COUNT>  (1) 
1

>  <PUBCHEM_CACTVS_TAUTO_COUNT>  (1) 
1

>  <PUBCHEM_CONFORMER_ID>  (1) 
00002C9900000001

>  <PUBCHEM_MMFF94_ENERGY>  (1) 
19.6585

>  <PUBCHEM_FEATURE_SELFOVERLAP>  (1) 
10.148

>  <PUBCHEM_SHAPE_FINGERPRINT>  (1) 
16714656 1 17905612455547299268
18185500 45 18196368336809010039
21040471 1 18338516459833201312
23552423 10 18334017202670896814
2748010 2 18409729551816033541
29004967 10 18116721896441726753

>  <PUBCHEM_SHAPE_MULTIPOLES>  (1) 
159.66
2.43
1.87
0.61
0.04
0.05
0
-0.03
0
0.57
0
0.02
0.01
0

>  <PUBCHEM_SHAPE_SELFOVERLAP>  (1) 
326.865

>  <PUBCHEM_SHAPE_VOLUME>  (1) 
92.7

>  <PUBCHEM_COORDINATE_TYPE>  (1) 
2
5
10

$$$$
