11426
     RDKit          3D

 18 17  0  0  1  0  0  0  0  0999 V2000
   -0.6646    0.3521    0.7890 S   0  0  0  0  0  0  0  0  0  0  0  0
    0.6677    0.3561   -0.7746 S   0  0  0  0  0  0  0  0  0  0  0  0
   -3.6445   -1.0431   -0.0423 O   0  0  0  0  0  0  0  0  0  0  0  0
    3.6446   -1.0438    0.0421 O   0  0  0  0  0  0  0  0  0  0  0  0
   -4.9967    0.7810    0.3589 O   0  0  0  0  0  0  0  0  0  0  0  0
    4.9938    0.7808   -0.3676 O   0  0  0  0  0  0  0  0  0  0  0  0
   -3.4995    2.1688   -1.4791 N   0  0  0  0  0  0  0  0  0  0  0  0
    3.5036    2.1700    1.4751 N   0  0  0  0  0  0  0  0  0  0  0  0
   -2.8580    1.0574   -0.7723 C   0  0  0  0  0  0  0  0  0  0  0  0
    2.8598    1.0571    0.7727 C   0  0  0  0  0  0  0  0  0  0  0  0
   -1.8611    1.6124    0.2461 C   0  0  0  0  0  0  0  0  0  0  0  0
    1.8580    1.6100   -0.2420 C   0  0  0  0  0  0  0  0  0  0  0  0
   -3.9734    0.2818   -0.0923 C   0  0  0  0  0  0  0  0  0  0  0  0
    3.9729    0.2815    0.0888 C   0  0  0  0  0  0  0  0  0  0  0  0
   -4.6006   -1.8925    0.5998 C   0  0  0  0  0  0  0  0  0  0  0  0
    4.5986   -1.8932   -0.6031 C   0  0  0  0  0  0  0  0  0  0  0  0
   -4.0911   -3.3177    0.5721 C   0  0  0  0  0  0  0  0  0  0  0  0
    4.0903   -3.3189   -0.5714 C   0  0  0  0  0  0  0  0  0  0  0  0
  1  2  1  0
  1 11  1  0
  2 12  1  0
  3 13  1  0
  3 15  1  0
  4 14  1  0
  4 16  1  0
  5 13  2  0
  6 14  2  0
  7  9  1  0
  8 10  1  0
  9 11  1  0
  9 13  1  0
 10 12  1  0
 10 14  1  0
 15 17  1  0
 16 18  1  0
M  END
>  <PUBCHEM_COMPOUND_CID>  (1) 
11426

>  <PUBCHEM_CONFORMER_RMSD>  (1) 
1

>  <PUBCHEM_CONFORMER_DIVERSEORDER>  (1) 
2
277
181
101
24
78
279
129
18
223
124
253
282
22
5
190
157
160
50
230
98
147
149
125
4
43
198
33
1
269
154
185
208
11
83
19
195
191
38
225
237
130
274
177
163
213
186
229
170
209
128
246
145
245
132
156
47
21
251
46
228
169
164
61
171
74
136
239
262
212
250
41
248
34
54
258
120
268
224
281
263
89
234
30
203
151
254
111
55
107
220
68
137
271
71
199
92
166
9
103
58
214
88
122
202
109
167
35
48
95
183
20
247
141
278
126
25
158
15
72
40
110
240
266
265
117
231
184
127
87
17
131
252
133
60
116
217
44
63
37
91
148
261
27
227
260
242
257
105
51
96
123
243
270
187
159
280
77
175
194
36
16
219
97
146
241
29
221
10
143
178
182
215
113
218
81
168
216
84
118
179
14
201
256
64
66
56
236
264
93
102
283
232
7
162
193
115
276
205
176
180
233
112
23
82
255
155
152
174
142
45
272
161
121
42
73
188
150
100
108
94
206
114
3
172
106
26
140
144
39
235
192
119
138
80
275
69
99
207
75
244
238
197
249
90
8
173
226
31
28
189
6
153
67
53
59
196
259
57
32
222
85
135
204
52
12
211
134
273
79
62
104
65
49
200
139
267
86
76
70
165
210
13

>  <PUBCHEM_MMFF94_PARTIAL_CHARGES>  (1) 
20
1 -0.23
10 0.33
11 0.23
12 0.23
13 0.66
14 0.66
15 0.28
16 0.28
2 -0.23
25 0.36
26 0.36
27 0.36
28 0.36
3 -0.43
4 -0.43
5 -0.57
6 -0.57
7 -0.99
8 -0.99
9 0.33

>  <PUBCHEM_EFFECTIVE_ROTOR_COUNT>  (1) 
11

>  <PUBCHEM_PHARMACOPHORE_FEATURES>  (1) 
7
1 5 acceptor
1 6 acceptor
1 7 cation
1 7 donor
1 8 cation
1 8 donor
4 1 2 11 12 hydrophobe

>  <PUBCHEM_HEAVY_ATOM_COUNT>  (1) 
18

>  <PUBCHEM_ATOM_DEF_STEREO_COUNT>  (1) 
0

>  <PUBCHEM_ATOM_UDEF_STEREO_COUNT>  (1) 
2

>  <PUBCHEM_BOND_DEF_STEREO_COUNT>  (1) 
0

>  <PUBCHEM_BOND_UDEF_STEREO_COUNT>  (1) 
0

>  <PUBCHEM_ISOTOPIC_ATOM_COUNT>  (1) 
0

>  <PUBCHEM_COMPONENT_COUNT>  (1) 
1

>  <PUBCHEM_CACTVS_TAUTO_COUNT>  (1) 
1

>  <PUBCHEM_CONFORMER_ID>  (1) 
00002CA200000002

>  <PUBCHEM_MMFF94_ENERGY>  (1) 
7.2809

>  <PUBCHEM_FEATURE_SELFOVERLAP>  (1) 
35.52

>  <PUBCHEM_SHAPE_FINGERPRINT>  (1) 
11089746 13 9943537271065724016
11370993 144 18343022164485189809
11405975 8 18271810099036296129
11552529 35 17702100472839990463
11796584 16 18262511469218059416
13167823 11 18410855464423135590
13255334 9 18409733962711016814
13533116 47 18272650112739368896
13583140 156 18272078422548872436
14251718 22 18187930620606914076
14251751 18 18336540543481967042
14251751 93 18261384542756348387
14251757 17 18409449184851812498
14341114 176 18411143502289501973
17834072 33 18041284356732360580
20645477 70 18338518535077780834
21065198 57 18412825776602418881
21065201 7 18187076235151653129
221490 88 18412826893457140922
23402539 116 17240477048684586021
23557571 272 18409729552212276757
23559900 14 18410852148919626608
316301 35 18408038494744045370
5104073 3 18343019986445959730
5365585 94 18042415784299322531
9709674 26 18261116317358087907

>  <PUBCHEM_SHAPE_MULTIPOLES>  (1) 
344.69
12.83
3.38
1.05
0.01
3.32
0
5.77
-0.02
0
0
0
-0.4
2.55

>  <PUBCHEM_SHAPE_SELFOVERLAP>  (1) 
628.195

>  <PUBCHEM_SHAPE_VOLUME>  (1) 
221.7

>  <PUBCHEM_COORDINATE_TYPE>  (1) 
2
5
10

$$$$
