11423
     RDKit          3D

  9  9  0  0  0  0  0  0  0  0999 V2000
    3.3750   -0.4196    0.0000 Br  0  0  0  0  0  0  0  0  0  0  0  0
   -2.5848    0.8421   -0.0001 N   0  0  0  0  0  0  0  0  0  0  0  0
   -0.7704   -0.7900   -0.0001 C   0  0  0  0  0  0  0  0  0  0  0  0
   -1.2064    0.5350    0.0000 C   0  0  0  0  0  0  0  0  0  0  0  0
    0.5951   -1.0749   -0.0001 C   0  0  0  0  0  0  0  0  0  0  0  0
   -0.2771    1.5751    0.0001 C   0  0  0  0  0  0  0  0  0  0  0  0
   -1.7442   -1.9232    0.0001 C   0  0  0  0  0  0  0  0  0  0  0  0
    1.5246   -0.0347    0.0000 C   0  0  0  0  0  0  0  0  0  0  0  0
    1.0883    1.2903    0.0000 C   0  0  0  0  0  0  0  0  0  0  0  0
  1  8  1  0
  2  4  1  0
  3  4  2  0
  3  5  1  0
  3  7  1  0
  4  6  1  0
  5  8  2  0
  6  9  2  0
  8  9  1  0
M  END
>  <PUBCHEM_COMPOUND_CID>  (1) 
11423

>  <PUBCHEM_CONFORMER_RMSD>  (1) 
0.4

>  <PUBCHEM_CONFORMER_DIVERSEORDER>  (1) 
1

>  <PUBCHEM_MMFF94_PARTIAL_CHARGES>  (1) 
14
1 -0.11
10 0.15
11 0.15
15 0.15
16 0.4
17 0.4
2 -0.9
3 -0.14
4 0.1
5 -0.15
6 -0.15
7 0.14
8 0.11
9 -0.15

>  <PUBCHEM_EFFECTIVE_ROTOR_COUNT>  (1) 
0

>  <PUBCHEM_PHARMACOPHORE_FEATURES>  (1) 
4
1 1 hydrophobe
1 2 cation
1 2 donor
6 3 4 5 6 8 9 rings

>  <PUBCHEM_HEAVY_ATOM_COUNT>  (1) 
9

>  <PUBCHEM_ATOM_DEF_STEREO_COUNT>  (1) 
0

>  <PUBCHEM_ATOM_UDEF_STEREO_COUNT>  (1) 
0

>  <PUBCHEM_BOND_DEF_STEREO_COUNT>  (1) 
0

>  <PUBCHEM_BOND_UDEF_STEREO_COUNT>  (1) 
0

>  <PUBCHEM_ISOTOPIC_ATOM_COUNT>  (1) 
0

>  <PUBCHEM_COMPONENT_COUNT>  (1) 
1

>  <PUBCHEM_CACTVS_TAUTO_COUNT>  (1) 
1

>  <PUBCHEM_CONFORMER_ID>  (1) 
00002C9F00000001

>  <PUBCHEM_MMFF94_ENERGY>  (1) 
31.1296

>  <PUBCHEM_FEATURE_SELFOVERLAP>  (1) 
20.297

>  <PUBCHEM_SHAPE_FINGERPRINT>  (1) 
12423570 1 11587439267979866066
14128692 85 18337115686709819660
15310529 11 16588303826549355312
16945 1 18410575037582085892
18185500 45 18407757040761642362
193761 8 18122344841676712197
20871998 184 18201721781699909198
21040471 1 18338797806024157637
23235685 24 18340481154010255360
23402655 69 17978772534101188109
23552423 10 18188209935051109276
2748010 2 18267017439287744508
369184 2 18408881811450710850
5084963 1 18128822021831749922

>  <PUBCHEM_SHAPE_MULTIPOLES>  (1) 
186.18
3.77
1.8
0.62
2.29
0.14
0
0.64
0
-0.79
0
0.08
0.01
0

>  <PUBCHEM_SHAPE_SELFOVERLAP>  (1) 
370.391

>  <PUBCHEM_SHAPE_VOLUME>  (1) 
114.8

>  <PUBCHEM_COORDINATE_TYPE>  (1) 
2
5
10

$$$$
