11422
     RDKit          3D

  9  9  0  0  0  0  0  0  0  0999 V2000
    2.1491   -1.9989    0.0000 Br  0  0  0  0  0  0  0  0  0  0  0  0
    2.4018    1.1487    0.0006 N   0  0  0  0  0  0  0  0  0  0  0  0
   -1.5847   -0.1818   -0.0002 C   0  0  0  0  0  0  0  0  0  0  0  0
    1.0690    0.6784   -0.0002 C   0  0  0  0  0  0  0  0  0  0  0  0
   -0.5489   -1.1160   -0.0002 C   0  0  0  0  0  0  0  0  0  0  0  0
   -1.2936    1.1824   -0.0002 C   0  0  0  0  0  0  0  0  0  0  0  0
    0.7781   -0.6859   -0.0002 C   0  0  0  0  0  0  0  0  0  0  0  0
    0.0332    1.6125   -0.0002 C   0  0  0  0  0  0  0  0  0  0  0  0
   -3.0040   -0.6395    0.0006 C   0  0  0  0  0  0  0  0  0  0  0  0
  1  7  1  0
  2  4  1  0
  3  5  2  0
  3  6  1  0
  3  9  1  0
  4  7  2  0
  4  8  1  0
  5  7  1  0
  6  8  2  0
M  END
>  <PUBCHEM_COMPOUND_CID>  (1) 
11422

>  <PUBCHEM_CONFORMER_RMSD>  (1) 
0.4

>  <PUBCHEM_CONFORMER_DIVERSEORDER>  (1) 
1

>  <PUBCHEM_MMFF94_PARTIAL_CHARGES>  (1) 
14
1 -0.11
10 0.15
11 0.15
12 0.15
16 0.4
17 0.4
2 -0.9
3 -0.14
4 0.1
5 -0.15
6 -0.15
7 0.11
8 -0.15
9 0.14

>  <PUBCHEM_EFFECTIVE_ROTOR_COUNT>  (1) 
0

>  <PUBCHEM_PHARMACOPHORE_FEATURES>  (1) 
4
1 1 hydrophobe
1 2 cation
1 2 donor
6 3 4 5 6 7 8 rings

>  <PUBCHEM_HEAVY_ATOM_COUNT>  (1) 
9

>  <PUBCHEM_ATOM_DEF_STEREO_COUNT>  (1) 
0

>  <PUBCHEM_ATOM_UDEF_STEREO_COUNT>  (1) 
0

>  <PUBCHEM_BOND_DEF_STEREO_COUNT>  (1) 
0

>  <PUBCHEM_BOND_UDEF_STEREO_COUNT>  (1) 
0

>  <PUBCHEM_ISOTOPIC_ATOM_COUNT>  (1) 
0

>  <PUBCHEM_COMPONENT_COUNT>  (1) 
1

>  <PUBCHEM_CACTVS_TAUTO_COUNT>  (1) 
1

>  <PUBCHEM_CONFORMER_ID>  (1) 
00002C9E00000001

>  <PUBCHEM_MMFF94_ENERGY>  (1) 
30.9979

>  <PUBCHEM_FEATURE_SELFOVERLAP>  (1) 
20.297

>  <PUBCHEM_SHAPE_FINGERPRINT>  (1) 
12423570 1 13073011929454185278
14128692 85 18267309737750937102
161256 15 18410858733104270542
16945 1 18338516464270521957
18185500 45 18269270330049438215
193761 8 18266740181900535012
20645477 70 18411130343158950079
20871998 22 18198630934118210678
21040471 1 17618222153407810533
23235685 24 18264765643700532621
23402655 69 18340470207209588125
23552423 10 18261398797478334894
241688 4 18192151499189290752
2748010 2 18337948987326560349
29004967 10 18262242230392275977
5084963 1 18200870665105104979

>  <PUBCHEM_SHAPE_MULTIPOLES>  (1) 
186.18
3.48
2
0.62
0.41
0.15
0
-1.38
0
-0.81
0
-0.02
-0.04
0

>  <PUBCHEM_SHAPE_SELFOVERLAP>  (1) 
370.128

>  <PUBCHEM_SHAPE_VOLUME>  (1) 
115.2

>  <PUBCHEM_COORDINATE_TYPE>  (1) 
2
5
10

$$$$
