11437
     RDKit          3D

 21 22  0  0  0  0  0  0  0  0999 V2000
    5.5376    0.7393    0.2515 O   0  0  0  0  0  0  0  0  0  0  0  0
    3.3650   -2.7151    0.5362 O   0  0  0  0  0  0  0  0  0  0  0  0
    5.3302   -1.9513   -0.3131 O   0  0  0  0  0  0  0  0  0  0  0  0
   -5.9869   -1.5079   -0.2796 O   0  0  0  0  0  0  0  0  0  0  0  0
   -4.1248   -2.6400   -0.0149 O   0  0  0  0  0  0  0  0  0  0  0  0
    0.0463    0.8125   -0.5579 N   0  0  0  0  0  0  0  0  0  0  0  0
   -0.5508    0.8099    0.5444 N   0  0  0  0  0  0  0  0  0  0  0  0
   -4.7463   -1.5532   -0.0974 N   0  0  0  0  0  0  0  0  0  0  0  0
    3.4807   -0.4545   -0.0624 C   0  0  0  0  0  0  0  0  0  0  0  0
    1.4294    0.7886   -0.3528 C   0  0  0  0  0  0  0  0  0  0  0  0
    2.1008   -0.4310   -0.2653 C   0  0  0  0  0  0  0  0  0  0  0  0
    4.1891    0.7416    0.0529 C   0  0  0  0  0  0  0  0  0  0  0  0
   -1.9407    0.8342    0.3378 C   0  0  0  0  0  0  0  0  0  0  0  0
    2.1377    1.9846   -0.2374 C   0  0  0  0  0  0  0  0  0  0  0  0
    3.5175    1.9611   -0.0346 C   0  0  0  0  0  0  0  0  0  0  0  0
   -4.0231   -0.3365    0.0187 C   0  0  0  0  0  0  0  0  0  0  0  0
   -2.6435   -0.3613    0.2233 C   0  0  0  0  0  0  0  0  0  0  0  0
   -2.6041    2.0542    0.2497 C   0  0  0  0  0  0  0  0  0  0  0  0
   -4.6931    0.8838   -0.0702 C   0  0  0  0  0  0  0  0  0  0  0  0
   -3.9835    2.0791    0.0451 C   0  0  0  0  0  0  0  0  0  0  0  0
    4.1627   -1.7382    0.0259 C   0  0  0  0  0  0  0  0  0  0  0  0
  1 12  1  0
  2 21  1  0
  3 21  2  0
  4  8  1  0
  5  8  2  0
  6  7  2  0
  6 10  1  0
  7 13  1  0
  8 16  1  0
  9 11  2  0
  9 12  1  0
  9 21  1  0
 10 11  1  0
 10 14  2  0
 12 15  2  0
 13 17  1  0
 13 18  2  0
 14 15  1  0
 16 17  2  0
 16 19  1  0
 18 20  1  0
 19 20  2  0
M  CHG  2   4  -1   8   1
M  END
>  <PUBCHEM_COMPOUND_CID>  (1) 
11437

>  <PUBCHEM_CONFORMER_RMSD>  (1) 
0.6

>  <PUBCHEM_CONFORMER_DIVERSEORDER>  (1) 
1
9
16
14
7
17
11
2
8
6
10
4
12
3
13
5
15

>  <PUBCHEM_MMFF94_PARTIAL_CHARGES>  (1) 
30
1 -0.53
10 0.18
11 -0.15
12 0.08
13 0.18
14 -0.15
15 -0.15
16 0.13
17 -0.15
18 -0.15
19 -0.15
2 -0.65
20 -0.15
21 0.63
22 0.15
23 0.15
24 0.15
25 0.15
26 0.15
27 0.15
28 0.15
29 0.45
3 -0.57
30 0.5
4 -0.52
5 -0.52
6 -0.18
7 -0.18
8 0.91
9 0.09

>  <PUBCHEM_EFFECTIVE_ROTOR_COUNT>  (1) 
4

>  <PUBCHEM_PHARMACOPHORE_FEATURES>  (1) 
9
1 1 donor
1 2 acceptor
1 3 acceptor
1 4 acceptor
1 4 anion
1 5 acceptor
3 2 3 21 anion
6 13 16 17 18 19 20 rings
6 9 10 11 12 14 15 rings

>  <PUBCHEM_HEAVY_ATOM_COUNT>  (1) 
21

>  <PUBCHEM_ATOM_DEF_STEREO_COUNT>  (1) 
0

>  <PUBCHEM_ATOM_UDEF_STEREO_COUNT>  (1) 
0

>  <PUBCHEM_BOND_DEF_STEREO_COUNT>  (1) 
0

>  <PUBCHEM_BOND_UDEF_STEREO_COUNT>  (1) 
0

>  <PUBCHEM_ISOTOPIC_ATOM_COUNT>  (1) 
0

>  <PUBCHEM_COMPONENT_COUNT>  (1) 
1

>  <PUBCHEM_CACTVS_TAUTO_COUNT>  (1) 
5

>  <PUBCHEM_CONFORMER_ID>  (1) 
00002CAD00000001

>  <PUBCHEM_MMFF94_ENERGY>  (1) 
64.7079

>  <PUBCHEM_FEATURE_SELFOVERLAP>  (1) 
45.811

>  <PUBCHEM_SHAPE_FINGERPRINT>  (1) 
10447042 23 18342730858212138647
10595046 47 18410858793097214693
10616163 171 18412547638920876855
11405975 8 18341054025628554009
11796584 16 18271808956284734350
12107183 9 17907018370052399153
12403259 226 18411415107321226713
12596602 18 17703793621983097672
12916754 54 18411139130202932537
13167823 11 18412261731263155351
13533116 47 18411701027735872353
13583140 156 17988349446948800617
14341114 176 18412550876999007928
15196674 1 18411138021747468086
15250474 111 18410567388298624955
15352361 1 18410293609696930761
17492 89 18410294735163452851
17834072 33 18408888446996166428
17844677 252 18411707568839643593
17857418 61 18411416224275727215
1813 80 17095528370343678564
19141452 34 18335986355203716021
200 152 18272368680981687793
20028762 73 18271803510620612190
20645477 70 18335420162549518350
21065198 48 18342462534082721313
21065198 57 18410293575443330565
21267235 1 18411990177634531212
21673915 165 18409729577528178666
220451 1 18339091418520599928
221490 88 18336272313782905194
22393880 68 18041269972606869311
23402539 116 18335698369156779005
23559900 14 18411975853903262152
239999 70 18273221898231776766
3004659 81 18334012774506932050
33824 294 18408039620251732506
338550 245 18336266825063043190
4073 2 18260554454105037728
4214541 1 18410856525644431341
465052 167 18202286866848006910
5104073 3 18273215274564232993
559249 180 18337388232708160011
633830 44 16805333171081653037
67856867 119 18336265763969198740
7495541 125 17703787058877696656
77779 3 18411139129907494433
7970288 3 17979915235851676255
960060 61 17749681714035461198
9709674 26 18261962937084891467
9971528 1 17968100798389460924

>  <PUBCHEM_SHAPE_MULTIPOLES>  (1) 
387.88
13.71
2.71
0.65
2.6
1.04
0
5.32
-0.2
0.11
0.08
-0.04
-0.03
-0.35

>  <PUBCHEM_SHAPE_SELFOVERLAP>  (1) 
843.639

>  <PUBCHEM_SHAPE_VOLUME>  (1) 
211.4

>  <PUBCHEM_COORDINATE_TYPE>  (1) 
2
5
10

$$$$
