11432
     RDKit          3D

  6  6  0  0  0  0  0  0  0  0999 V2000
   -0.7321    0.0000    0.0001 N   0  0  0  0  0  0  0  0  0  0  0  0
   -2.1381    0.0000   -0.0001 N   0  0  0  0  0  0  0  0  0  0  0  0
    1.3441   -0.6903   -0.0001 N   0  0  0  0  0  0  0  0  0  0  0  0
    1.3441    0.6903    0.0000 N   0  0  0  0  0  0  0  0  0  0  0  0
    0.0909   -1.0850    0.0001 C   0  0  0  0  0  0  0  0  0  0  0  0
    0.0910    1.0850    0.0000 C   0  0  0  0  0  0  0  0  0  0  0  0
  1  2  1  0
  1  5  1  0
  1  6  1  0
  3  4  1  0
  3  5  2  0
  4  6  2  0
M  END
>  <PUBCHEM_COMPOUND_CID>  (1) 
11432

>  <PUBCHEM_CONFORMER_RMSD>  (1) 
0.4

>  <PUBCHEM_CONFORMER_DIVERSEORDER>  (1) 
1

>  <PUBCHEM_MMFF94_PARTIAL_CHARGES>  (1) 
10
1 0.45
10 0.36
2 -0.87
3 -0.34
4 -0.34
5 0.04
6 0.04
7 0.15
8 0.15
9 0.36

>  <PUBCHEM_EFFECTIVE_ROTOR_COUNT>  (1) 
0

>  <PUBCHEM_PHARMACOPHORE_FEATURES>  (1) 
4
1 2 donor
3 1 3 5 cation
3 1 4 6 cation
5 1 3 4 5 6 rings

>  <PUBCHEM_HEAVY_ATOM_COUNT>  (1) 
6

>  <PUBCHEM_ATOM_DEF_STEREO_COUNT>  (1) 
0

>  <PUBCHEM_ATOM_UDEF_STEREO_COUNT>  (1) 
0

>  <PUBCHEM_BOND_DEF_STEREO_COUNT>  (1) 
0

>  <PUBCHEM_BOND_UDEF_STEREO_COUNT>  (1) 
0

>  <PUBCHEM_ISOTOPIC_ATOM_COUNT>  (1) 
0

>  <PUBCHEM_COMPONENT_COUNT>  (1) 
1

>  <PUBCHEM_CACTVS_TAUTO_COUNT>  (1) 
1

>  <PUBCHEM_CONFORMER_ID>  (1) 
00002CA800000001

>  <PUBCHEM_MMFF94_ENERGY>  (1) 
1.6756

>  <PUBCHEM_FEATURE_SELFOVERLAP>  (1) 
22.8

>  <PUBCHEM_SHAPE_FINGERPRINT>  (1) 
139733 1 9222928383944675171
20096714 4 18339644575980013993
21015797 1 9294126151436832776
21040471 1 18266458887285836676
29004967 10 18333737896547039331
5943 1 13208184085081245642

>  <PUBCHEM_SHAPE_MULTIPOLES>  (1) 
103.55
1.87
1.17
0.55
0.82
0
0
0
0
-0.23
0
0
0
0

>  <PUBCHEM_SHAPE_SELFOVERLAP>  (1) 
208.068

>  <PUBCHEM_SHAPE_VOLUME>  (1) 
63.7

>  <PUBCHEM_COORDINATE_TYPE>  (1) 
2
5
10

$$$$
