11446
     RDKit          3D

  8  7  0  0  1  0  0  0  0  0999 V2000
   -1.5688   -2.1312   -0.0325 Br  0  0  0  0  0  0  0  0  0  0  0  0
   -1.6624    1.4531    0.8616 O   0  0  0  0  0  0  0  0  0  0  0  0
   -1.2525    0.8574   -1.2864 O   0  0  0  0  0  0  0  0  0  0  0  0
    0.9609   -0.7960   -0.0352 C   0  0  0  0  0  0  0  0  0  0  0  0
    1.8619    0.3894    0.3217 C   0  0  0  0  0  0  0  0  0  0  0  0
   -0.4660   -0.5975    0.4641 C   0  0  0  0  0  0  0  0  0  0  0  0
    3.2744    0.1931   -0.2070 C   0  0  0  0  0  0  0  0  0  0  0  0
   -1.1476    0.6316   -0.0862 C   0  0  0  0  0  0  0  0  0  0  0  0
  1  6  1  0
  2  8  1  0
  3  8  2  0
  4  5  1  0
  4  6  1  0
  5  7  1  0
  6  8  1  0
M  END
>  <PUBCHEM_COMPOUND_CID>  (1) 
11446

>  <PUBCHEM_CONFORMER_RMSD>  (1) 
0.6

>  <PUBCHEM_CONFORMER_DIVERSEORDER>  (1) 
1
8
13
11
6
9
12
3
14
10
7
5
4
2

>  <PUBCHEM_MMFF94_PARTIAL_CHARGES>  (1) 
6
1 -0.23
17 0.5
2 -0.65
3 -0.57
6 0.29
8 0.66

>  <PUBCHEM_EFFECTIVE_ROTOR_COUNT>  (1) 
3

>  <PUBCHEM_PHARMACOPHORE_FEATURES>  (1) 
5
1 1 hydrophobe
1 2 acceptor
1 3 acceptor
1 7 hydrophobe
3 2 3 8 anion

>  <PUBCHEM_HEAVY_ATOM_COUNT>  (1) 
8

>  <PUBCHEM_ATOM_DEF_STEREO_COUNT>  (1) 
0

>  <PUBCHEM_ATOM_UDEF_STEREO_COUNT>  (1) 
1

>  <PUBCHEM_BOND_DEF_STEREO_COUNT>  (1) 
0

>  <PUBCHEM_BOND_UDEF_STEREO_COUNT>  (1) 
0

>  <PUBCHEM_ISOTOPIC_ATOM_COUNT>  (1) 
0

>  <PUBCHEM_COMPONENT_COUNT>  (1) 
1

>  <PUBCHEM_CACTVS_TAUTO_COUNT>  (1) 
1

>  <PUBCHEM_CONFORMER_ID>  (1) 
00002CB600000001

>  <PUBCHEM_MMFF94_ENERGY>  (1) 
6.0924

>  <PUBCHEM_FEATURE_SELFOVERLAP>  (1) 
25.431

>  <PUBCHEM_SHAPE_FINGERPRINT>  (1) 
12932764 1 17967251984171011440
20653085 51 14852697277063899854
21040471 1 18339641118668406482
23235685 24 18341329989998465976
23552449 1 18339921631593554768
24536 1 18272641321125995290
5084963 1 18187924031989483664

>  <PUBCHEM_SHAPE_MULTIPOLES>  (1) 
158.84
3.62
1.77
0.88
3.6
0.24
0.12
0.53
0.17
-1.59
-0.07
-0.26
-0.24
-0.01

>  <PUBCHEM_SHAPE_SELFOVERLAP>  (1) 
277.634

>  <PUBCHEM_SHAPE_VOLUME>  (1) 
106.6

>  <PUBCHEM_COORDINATE_TYPE>  (1) 
2
5
10

$$$$
