11450
     RDKit          3D

 11 11  0  0  0  0  0  0  0  0999 V2000
   -2.8632   -1.5893    0.0003 O   0  0  0  0  0  0  0  0  0  0  0  0
    1.8178   -0.1864    0.0001 C   0  0  0  0  0  0  0  0  0  0  0  0
    0.3168    0.1477   -0.0005 C   0  0  0  0  0  0  0  0  0  0  0  0
    2.4822    0.4101    1.2598 C   0  0  0  0  0  0  0  0  0  0  0  0
    2.4840    0.4130   -1.2574 C   0  0  0  0  0  0  0  0  0  0  0  0
    2.1210   -1.7019   -0.0016 C   0  0  0  0  0  0  0  0  0  0  0  0
   -0.5811   -0.8901   -0.0004 C   0  0  0  0  0  0  0  0  0  0  0  0
   -0.0563    1.4684   -0.0002 C   0  0  0  0  0  0  0  0  0  0  0  0
   -1.9427   -0.5869   -0.0003 C   0  0  0  0  0  0  0  0  0  0  0  0
   -1.4177    1.7714    0.0000 C   0  0  0  0  0  0  0  0  0  0  0  0
   -2.3608    0.7439    0.0001 C   0  0  0  0  0  0  0  0  0  0  0  0
  1  9  1  0
  2  3  1  0
  2  4  1  0
  2  5  1  0
  2  6  1  0
  3  7  2  0
  3  8  1  0
  7  9  1  0
  8 10  2  0
  9 11  2  0
 10 11  1  0
M  END
>  <PUBCHEM_COMPOUND_CID>  (1) 
11450

>  <PUBCHEM_CONFORMER_RMSD>  (1) 
0.4

>  <PUBCHEM_CONFORMER_DIVERSEORDER>  (1) 
1
2

>  <PUBCHEM_MMFF94_PARTIAL_CHARGES>  (1) 
13
1 -0.53
10 -0.15
11 -0.15
2 0.14
21 0.15
22 0.15
23 0.15
24 0.15
25 0.45
3 -0.14
7 -0.15
8 -0.15
9 0.08

>  <PUBCHEM_EFFECTIVE_ROTOR_COUNT>  (1) 
1

>  <PUBCHEM_PHARMACOPHORE_FEATURES>  (1) 
3
1 1 donor
4 2 4 5 6 hydrophobe
6 3 7 8 9 10 11 rings

>  <PUBCHEM_HEAVY_ATOM_COUNT>  (1) 
11

>  <PUBCHEM_ATOM_DEF_STEREO_COUNT>  (1) 
0

>  <PUBCHEM_ATOM_UDEF_STEREO_COUNT>  (1) 
0

>  <PUBCHEM_BOND_DEF_STEREO_COUNT>  (1) 
0

>  <PUBCHEM_BOND_UDEF_STEREO_COUNT>  (1) 
0

>  <PUBCHEM_ISOTOPIC_ATOM_COUNT>  (1) 
0

>  <PUBCHEM_COMPONENT_COUNT>  (1) 
1

>  <PUBCHEM_CACTVS_TAUTO_COUNT>  (1) 
3

>  <PUBCHEM_CONFORMER_ID>  (1) 
00002CBA00000001

>  <PUBCHEM_MMFF94_ENERGY>  (1) 
37.1075

>  <PUBCHEM_FEATURE_SELFOVERLAP>  (1) 
15.223

>  <PUBCHEM_SHAPE_FINGERPRINT>  (1) 
10857977 72 18341321288310139977
12326174 3 16298392318973347314
12423570 1 11420466701936133348
12716758 59 18267017254677945353
12897270 3 18409738378000246156
12932764 1 17917992780229306718
14128692 85 18266752448516887285
16945 1 18410855481808869509
193761 8 14807693849590048940
19973954 147 18341328903387551344
20645464 45 17846769698553152568
20871998 184 18273494576588171751
21040471 1 18122344583994550657
23552423 10 18187368675237886106
23559900 14 17840588094707942302
2748010 2 18412543176238534983
3248919 1 17894911832128470402
369184 2 18059001800785856185
5084963 1 18118969092013651104
8030462 33 18411698764114112254

>  <PUBCHEM_SHAPE_MULTIPOLES>  (1) 
220.51
4.14
1.73
0.9
0.06
0.14
0
0.75
0
0.6
0
-0.73
-0.16
0

>  <PUBCHEM_SHAPE_SELFOVERLAP>  (1) 
454.364

>  <PUBCHEM_SHAPE_VOLUME>  (1) 
128.4

>  <PUBCHEM_COORDINATE_TYPE>  (1) 
2
5
10

$$$$
