11455
     RDKit          3D

 10 10  0  0  0  0  0  0  0  0999 V2000
    2.2908    1.5711   -0.0001 O   0  0  0  0  0  0  0  0  0  0  0  0
    0.5843   -0.0572    0.0004 C   0  0  0  0  0  0  0  0  0  0  0  0
   -1.7686    0.4915    0.0003 C   0  0  0  0  0  0  0  0  0  0  0  0
   -0.4337    0.8965    0.0005 C   0  0  0  0  0  0  0  0  0  0  0  0
    0.2675   -1.4156    0.0001 C   0  0  0  0  0  0  0  0  0  0  0  0
   -2.0852   -0.8670   -0.0001 C   0  0  0  0  0  0  0  0  0  0  0  0
   -1.0673   -1.8206   -0.0001 C   0  0  0  0  0  0  0  0  0  0  0  0
    1.9763    0.3643    0.0001 C   0  0  0  0  0  0  0  0  0  0  0  0
   -2.8576    1.5106   -0.0006 C   0  0  0  0  0  0  0  0  0  0  0  0
    3.0935   -0.6735   -0.0005 C   0  0  0  0  0  0  0  0  0  0  0  0
  1  8  2  0
  2  4  2  0
  2  5  1  0
  2  8  1  0
  3  4  1  0
  3  6  2  0
  3  9  1  0
  5  7  2  0
  6  7  1  0
  8 10  1  0
M  END
>  <PUBCHEM_COMPOUND_CID>  (1) 
11455

>  <PUBCHEM_CONFORMER_RMSD>  (1) 
0.4

>  <PUBCHEM_CONFORMER_DIVERSEORDER>  (1) 
1
3
2
4

>  <PUBCHEM_MMFF94_PARTIAL_CHARGES>  (1) 
14
1 -0.57
10 0.06
11 0.15
12 0.15
13 0.15
14 0.15
2 0.09
3 -0.14
4 -0.15
5 -0.15
6 -0.15
7 -0.15
8 0.42
9 0.14

>  <PUBCHEM_EFFECTIVE_ROTOR_COUNT>  (1) 
1

>  <PUBCHEM_PHARMACOPHORE_FEATURES>  (1) 
2
1 1 acceptor
6 2 3 4 5 6 7 rings

>  <PUBCHEM_HEAVY_ATOM_COUNT>  (1) 
10

>  <PUBCHEM_ATOM_DEF_STEREO_COUNT>  (1) 
0

>  <PUBCHEM_ATOM_UDEF_STEREO_COUNT>  (1) 
0

>  <PUBCHEM_BOND_DEF_STEREO_COUNT>  (1) 
0

>  <PUBCHEM_BOND_UDEF_STEREO_COUNT>  (1) 
0

>  <PUBCHEM_ISOTOPIC_ATOM_COUNT>  (1) 
0

>  <PUBCHEM_COMPONENT_COUNT>  (1) 
1

>  <PUBCHEM_CACTVS_TAUTO_COUNT>  (1) 
2

>  <PUBCHEM_CONFORMER_ID>  (1) 
00002CBF00000001

>  <PUBCHEM_MMFF94_ENERGY>  (1) 
25.7969

>  <PUBCHEM_FEATURE_SELFOVERLAP>  (1) 
10.148

>  <PUBCHEM_SHAPE_FINGERPRINT>  (1) 
12716758 59 18413103982913533378
12932764 1 17631453534850206166
13380535 76 18339077078030915551
14325111 11 18410855464470783744
15775835 57 18260554385512213092
16945 1 18338797797386691815
193761 8 14519746932763687684
19973954 147 18338518663357146004
20653085 51 18409459080397894176
20871998 184 18128262383409150055
21028194 46 18410015407696406673
21040471 1 18410855443090743395
21501502 16 18339360872189440470
23235685 24 18339636724890612177
23402655 69 18052522285171501621
23552423 10 18188771772587129230
23559900 14 18271251535109387582
241688 4 16466710759852978363
2748010 2 18411139172782853293
369184 2 18342738571619954394
5084963 1 18272931639255745642
528886 8 18339074882938390177

>  <PUBCHEM_SHAPE_MULTIPOLES>  (1) 
199.93
4.17
1.81
0.61
1.21
0.23
0
-1.16
0
-0.47
0
-0.02
0.02
0

>  <PUBCHEM_SHAPE_SELFOVERLAP>  (1) 
412.793

>  <PUBCHEM_SHAPE_VOLUME>  (1) 
116.2

>  <PUBCHEM_COORDINATE_TYPE>  (1) 
2
5
10

$$$$
