11461
     RDKit          3D

 11 11  0  0  0  0  0  0  0  0999 V2000
    2.4824   -1.1530    0.0002 O   0  0  0  0  0  0  0  0  0  0  0  0
   -3.2702    0.4994    0.0011 O   0  0  0  0  0  0  0  0  0  0  0  0
   -2.6232   -1.6796   -0.0003 O   0  0  0  0  0  0  0  0  0  0  0  0
   -0.9721    0.0518   -0.0004 C   0  0  0  0  0  0  0  0  0  0  0  0
    1.4173   -0.3057    0.0001 C   0  0  0  0  0  0  0  0  0  0  0  0
    0.1195   -0.8167   -0.0001 C   0  0  0  0  0  0  0  0  0  0  0  0
   -0.7656    1.4313   -0.0005 C   0  0  0  0  0  0  0  0  0  0  0  0
    1.6237    1.0737    0.0000 C   0  0  0  0  0  0  0  0  0  0  0  0
    0.5322    1.9423   -0.0001 C   0  0  0  0  0  0  0  0  0  0  0  0
   -2.3254   -0.4806   -0.0003 C   0  0  0  0  0  0  0  0  0  0  0  0
    3.7815   -0.5629    0.0002 C   0  0  0  0  0  0  0  0  0  0  0  0
  1  5  1  0
  1 11  1  0
  2 10  1  0
  3 10  2  0
  4  6  2  0
  4  7  1  0
  4 10  1  0
  5  6  1  0
  5  8  2  0
  7  9  2  0
  8  9  1  0
M  END
>  <PUBCHEM_COMPOUND_CID>  (1) 
11461

>  <PUBCHEM_CONFORMER_RMSD>  (1) 
0.4

>  <PUBCHEM_CONFORMER_DIVERSEORDER>  (1) 
1
4
2
3

>  <PUBCHEM_MMFF94_PARTIAL_CHARGES>  (1) 
16
1 -0.36
10 0.63
11 0.28
12 0.15
13 0.15
14 0.15
15 0.15
19 0.5
2 -0.65
3 -0.57
4 0.09
5 0.08
6 -0.15
7 -0.15
8 -0.15
9 -0.15

>  <PUBCHEM_EFFECTIVE_ROTOR_COUNT>  (1) 
2

>  <PUBCHEM_PHARMACOPHORE_FEATURES>  (1) 
5
1 1 acceptor
1 2 acceptor
1 3 acceptor
3 2 3 10 anion
6 4 5 6 7 8 9 rings

>  <PUBCHEM_HEAVY_ATOM_COUNT>  (1) 
11

>  <PUBCHEM_ATOM_DEF_STEREO_COUNT>  (1) 
0

>  <PUBCHEM_ATOM_UDEF_STEREO_COUNT>  (1) 
0

>  <PUBCHEM_BOND_DEF_STEREO_COUNT>  (1) 
0

>  <PUBCHEM_BOND_UDEF_STEREO_COUNT>  (1) 
0

>  <PUBCHEM_ISOTOPIC_ATOM_COUNT>  (1) 
0

>  <PUBCHEM_COMPONENT_COUNT>  (1) 
1

>  <PUBCHEM_CACTVS_TAUTO_COUNT>  (1) 
1

>  <PUBCHEM_CONFORMER_ID>  (1) 
00002CC500000001

>  <PUBCHEM_MMFF94_ENERGY>  (1) 
38.8004

>  <PUBCHEM_FEATURE_SELFOVERLAP>  (1) 
25.429

>  <PUBCHEM_SHAPE_FINGERPRINT>  (1) 
10130415 120 18408322168237135153
10857977 72 18341037558749801602
12032990 46 18411706486760910694
12932764 1 17240470425517669115
14128692 85 18410015454893548268
14325111 11 18338797921951325377
16945 1 18338517430506353221
17990270 104 18264486363515193033
193761 8 17690279734877243750
20201158 50 18410291389236054367
20645477 70 18266734869622381455
20871998 184 18130222645190030006
20871998 22 18271537407146425398
21040471 1 17834113430474941797
21501925 9 18339912839626811802
23402655 69 18195509412924407885
23552423 10 18261111932275391773
2748010 2 18338230578330769413
7364860 26 18198623435326734496

>  <PUBCHEM_SHAPE_MULTIPOLES>  (1) 
208.77
4.83
1.71
0.59
0.9
0.46
0
-1.88
0
-0.11
0
0.03
0.02
0

>  <PUBCHEM_SHAPE_SELFOVERLAP>  (1) 
436.245

>  <PUBCHEM_SHAPE_VOLUME>  (1) 
119

>  <PUBCHEM_COORDINATE_TYPE>  (1) 
2
5
10

$$$$
