1146
     RDKit          3D

  4  3  0  0  0  0  0  0  0  0999 V2000
    0.0000    0.0000    0.3474 N   0  0  0  0  0  0  0  0  0  0  0  0
   -0.5373   -1.2788   -0.1158 C   0  0  0  0  0  0  0  0  0  0  0  0
   -0.8388    1.1047   -0.1158 C   0  0  0  0  0  0  0  0  0  0  0  0
    1.3762    0.1741   -0.1158 C   0  0  0  0  0  0  0  0  0  0  0  0
  1  2  1  0
  1  3  1  0
  1  4  1  0
M  END
>  <PUBCHEM_COMPOUND_CID>  (1) 
1146

>  <PUBCHEM_CONFORMER_RMSD>  (1) 
0.4

>  <PUBCHEM_CONFORMER_DIVERSEORDER>  (1) 
1

>  <PUBCHEM_MMFF94_PARTIAL_CHARGES>  (1) 
4
1 -0.81
2 0.27
3 0.27
4 0.27

>  <PUBCHEM_EFFECTIVE_ROTOR_COUNT>  (1) 
0

>  <PUBCHEM_PHARMACOPHORE_FEATURES>  (1) 
1
1 1 cation

>  <PUBCHEM_HEAVY_ATOM_COUNT>  (1) 
4

>  <PUBCHEM_ATOM_DEF_STEREO_COUNT>  (1) 
0

>  <PUBCHEM_ATOM_UDEF_STEREO_COUNT>  (1) 
0

>  <PUBCHEM_BOND_DEF_STEREO_COUNT>  (1) 
0

>  <PUBCHEM_BOND_UDEF_STEREO_COUNT>  (1) 
0

>  <PUBCHEM_ISOTOPIC_ATOM_COUNT>  (1) 
0

>  <PUBCHEM_COMPONENT_COUNT>  (1) 
1

>  <PUBCHEM_CACTVS_TAUTO_COUNT>  (1) 
1

>  <PUBCHEM_CONFORMER_ID>  (1) 
0000047A00000001

>  <PUBCHEM_MMFF94_ENERGY>  (1) 
7.3686

>  <PUBCHEM_FEATURE_SELFOVERLAP>  (1) 
5.074

>  <PUBCHEM_SHAPE_FINGERPRINT>  (1) 
139733 1 8861017526097598486
20096714 4 18191589644631994628
21015797 1 9799149447018708378
5943 1 12637476492957706589

>  <PUBCHEM_SHAPE_MULTIPOLES>  (1) 
77.34
1.36
1.36
0.63
0.45
0.29
-0.01
-0.29
-0.08
-0.45
-0.08
0
0
0

>  <PUBCHEM_SHAPE_SELFOVERLAP>  (1) 
124.678

>  <PUBCHEM_SHAPE_VOLUME>  (1) 
56.7

>  <PUBCHEM_COORDINATE_TYPE>  (1) 
2
5
10

$$$$
