11467
     RDKit          3D

 11 11  0  0  0  0  0  0  0  0999 V2000
   -2.4143   -0.0265    1.2174 O   0  0  0  0  0  0  0  0  0  0  0  0
   -1.9330    0.0052   -0.1295 C   0  0  0  0  0  0  0  0  0  0  0  0
   -1.0876   -1.2608   -0.3616 C   0  0  0  0  0  0  0  0  0  0  0  0
   -1.0833    1.2747   -0.3299 C   0  0  0  0  0  0  0  0  0  0  0  0
    0.1898   -1.2758    0.4855 C   0  0  0  0  0  0  0  0  0  0  0  0
    0.1917    1.2646    0.5201 C   0  0  0  0  0  0  0  0  0  0  0  0
    0.9714   -0.0032    0.2951 C   0  0  0  0  0  0  0  0  0  0  0  0
   -3.1470    0.0146   -1.0598 C   0  0  0  0  0  0  0  0  0  0  0  0
    2.2618    0.0008   -0.0687 C   0  0  0  0  0  0  0  0  0  0  0  0
    3.0189    1.2763   -0.2932 C   0  0  0  0  0  0  0  0  0  0  0  0
    3.0318   -1.2700   -0.2754 C   0  0  0  0  0  0  0  0  0  0  0  0
  1  2  1  0
  2  3  1  0
  2  4  1  0
  2  8  1  0
  3  5  1  0
  4  6  1  0
  5  7  1  0
  6  7  1  0
  7  9  2  3
  9 10  1  0
  9 11  1  0
M  END
>  <PUBCHEM_COMPOUND_CID>  (1) 
11467

>  <PUBCHEM_CONFORMER_RMSD>  (1) 
0.4

>  <PUBCHEM_CONFORMER_DIVERSEORDER>  (1) 
4
3
2
7
5
6
8
1

>  <PUBCHEM_MMFF94_PARTIAL_CHARGES>  (1) 
9
1 -0.68
10 0.14
11 0.14
2 0.28
23 0.4
5 0.14
6 0.14
7 -0.28
9 -0.28

>  <PUBCHEM_EFFECTIVE_ROTOR_COUNT>  (1) 
1

>  <PUBCHEM_PHARMACOPHORE_FEATURES>  (1) 
4
1 1 acceptor
1 1 donor
3 9 10 11 hydrophobe
6 2 3 4 5 6 7 rings

>  <PUBCHEM_HEAVY_ATOM_COUNT>  (1) 
11

>  <PUBCHEM_ATOM_DEF_STEREO_COUNT>  (1) 
0

>  <PUBCHEM_ATOM_UDEF_STEREO_COUNT>  (1) 
0

>  <PUBCHEM_BOND_DEF_STEREO_COUNT>  (1) 
0

>  <PUBCHEM_BOND_UDEF_STEREO_COUNT>  (1) 
0

>  <PUBCHEM_ISOTOPIC_ATOM_COUNT>  (1) 
0

>  <PUBCHEM_COMPONENT_COUNT>  (1) 
1

>  <PUBCHEM_CACTVS_TAUTO_COUNT>  (1) 
1

>  <PUBCHEM_CONFORMER_ID>  (1) 
00002CCB00000004

>  <PUBCHEM_MMFF94_ENERGY>  (1) 
21.7716

>  <PUBCHEM_FEATURE_SELFOVERLAP>  (1) 
20.297

>  <PUBCHEM_SHAPE_FINGERPRINT>  (1) 
11206711 2 18263645052520896388
12524768 44 18411141363500997782
12897270 3 18186799149647115860
12932764 1 18411705387312300636
13024252 1 17312823796689046379
14325111 11 18409448080986668468
14993402 34 18131064965654784693
15775835 57 18411699902285720349
16945 1 18411139142897410696
17844478 74 18041294226234436033
18186145 218 18259705579636181620
18619055 16 18411412925635167150
20201158 50 18413950585803625438
20653085 51 17022629662694851900
21293036 1 18337100263418930327
23552423 10 18408321056115067754
2748010 2 17690839386116544184
3248919 1 17989488524036450606
369184 2 18410857663483320922
5084963 1 18201429247029131426
528886 8 18411412955515334842
63268167 104 18341328976301599745

>  <PUBCHEM_SHAPE_MULTIPOLES>  (1) 
220.51
4.77
1.51
0.9
0.77
0
0.05
0
-1.04
0.61
-0.03
-0.48
0
0

>  <PUBCHEM_SHAPE_SELFOVERLAP>  (1) 
435.295

>  <PUBCHEM_SHAPE_VOLUME>  (1) 
132.7

>  <PUBCHEM_COORDINATE_TYPE>  (1) 
2
5
10

$$$$
