11476
     RDKit          3D

  9  9  0  0  0  0  0  0  0  0999 V2000
   -2.9205   -0.6585   -0.7219 O   0  0  0  0  0  0  0  0  0  0  0  0
   -0.8740    0.0285    0.2763 C   0  0  0  0  0  0  0  0  0  0  0  0
    1.4614   -0.5173   -0.0162 C   0  0  0  0  0  0  0  0  0  0  0  0
    0.1460   -0.9210    0.2131 C   0  0  0  0  0  0  0  0  0  0  0  0
   -0.5783    1.3816    0.1104 C   0  0  0  0  0  0  0  0  0  0  0  0
    1.7568    0.8359   -0.1822 C   0  0  0  0  0  0  0  0  0  0  0  0
   -2.2806   -0.4024    0.5223 C   0  0  0  0  0  0  0  0  0  0  0  0
    0.7370    1.7853   -0.1189 C   0  0  0  0  0  0  0  0  0  0  0  0
    2.5523   -1.5322   -0.0829 C   0  0  0  0  0  0  0  0  0  0  0  0
  1  7  1  0
  2  4  2  0
  2  5  1  0
  2  7  1  0
  3  4  1  0
  3  6  2  0
  3  9  1  0
  5  8  2  0
  6  8  1  0
M  END
>  <PUBCHEM_COMPOUND_CID>  (1) 
11476

>  <PUBCHEM_CONFORMER_RMSD>  (1) 
0.4

>  <PUBCHEM_CONFORMER_DIVERSEORDER>  (1) 
2
3
4
1

>  <PUBCHEM_MMFF94_PARTIAL_CHARGES>  (1) 
14
1 -0.68
10 0.15
11 0.15
14 0.15
15 0.15
19 0.4
2 -0.14
3 -0.14
4 -0.15
5 -0.15
6 -0.15
7 0.42
8 -0.15
9 0.14

>  <PUBCHEM_EFFECTIVE_ROTOR_COUNT>  (1) 
1

>  <PUBCHEM_PHARMACOPHORE_FEATURES>  (1) 
3
1 1 acceptor
1 1 donor
6 2 3 4 5 6 8 rings

>  <PUBCHEM_HEAVY_ATOM_COUNT>  (1) 
9

>  <PUBCHEM_ATOM_DEF_STEREO_COUNT>  (1) 
0

>  <PUBCHEM_ATOM_UDEF_STEREO_COUNT>  (1) 
0

>  <PUBCHEM_BOND_DEF_STEREO_COUNT>  (1) 
0

>  <PUBCHEM_BOND_UDEF_STEREO_COUNT>  (1) 
0

>  <PUBCHEM_ISOTOPIC_ATOM_COUNT>  (1) 
0

>  <PUBCHEM_COMPONENT_COUNT>  (1) 
1

>  <PUBCHEM_CACTVS_TAUTO_COUNT>  (1) 
1

>  <PUBCHEM_CONFORMER_ID>  (1) 
00002CD400000002

>  <PUBCHEM_MMFF94_ENERGY>  (1) 
21.341

>  <PUBCHEM_FEATURE_SELFOVERLAP>  (1) 
15.223

>  <PUBCHEM_SHAPE_FINGERPRINT>  (1) 
12423570 1 8099435415450859184
14128692 85 18343024376013383198
16945 1 18265903625413669488
18185500 45 18341617061159099750
20653085 51 14057299527422384798
21040471 1 17545607107085486936
23552423 10 18188219693132461638
241688 4 18264492780344318848
2748010 2 18337671910586446676
29004967 10 18335145335754979217
5084963 1 18272933786797506938

>  <PUBCHEM_SHAPE_MULTIPOLES>  (1) 
179.35
3.44
1.72
0.7
1.08
0.51
0.01
-1.64
0.39
-0.68
0.05
0.19
-0.05
-0.11

>  <PUBCHEM_SHAPE_SELFOVERLAP>  (1) 
366.615

>  <PUBCHEM_SHAPE_VOLUME>  (1) 
105.2

>  <PUBCHEM_COORDINATE_TYPE>  (1) 
2
5
10

$$$$
