11470
     RDKit          3D

 12 12  0  0  0  0  0  0  0  0999 V2000
   -3.4776   -1.1282   -0.0001 O   0  0  0  0  0  0  0  0  0  0  0  0
    3.3773    1.2373    0.0000 O   0  0  0  0  0  0  0  0  0  0  0  0
    3.5870   -1.0260    0.0003 O   0  0  0  0  0  0  0  0  0  0  0  0
   -1.3793   -0.0507    0.0002 C   0  0  0  0  0  0  0  0  0  0  0  0
    1.4103   -0.0329   -0.0005 C   0  0  0  0  0  0  0  0  0  0  0  0
   -0.6897    1.1617    0.0001 C   0  0  0  0  0  0  0  0  0  0  0  0
   -0.6742   -1.2543    0.0000 C   0  0  0  0  0  0  0  0  0  0  0  0
    0.7051    1.1706   -0.0004 C   0  0  0  0  0  0  0  0  0  0  0  0
    0.7207   -1.2453   -0.0003 C   0  0  0  0  0  0  0  0  0  0  0  0
   -2.8332   -0.0601    0.0002 C   0  0  0  0  0  0  0  0  0  0  0  0
   -3.6108    1.2518    0.0001 C   0  0  0  0  0  0  0  0  0  0  0  0
    2.8645   -0.0238    0.0003 C   0  0  0  0  0  0  0  0  0  0  0  0
  1 10  2  0
  2 12  1  0
  3 12  2  0
  4  6  2  0
  4  7  1  0
  4 10  1  0
  5  8  2  0
  5  9  1  0
  5 12  1  0
  6  8  1  0
  7  9  2  0
 10 11  1  0
M  END
>  <PUBCHEM_COMPOUND_CID>  (1) 
11470

>  <PUBCHEM_CONFORMER_RMSD>  (1) 
0.6

>  <PUBCHEM_CONFORMER_DIVERSEORDER>  (1) 
1
2
3
4

>  <PUBCHEM_MMFF94_PARTIAL_CHARGES>  (1) 
17
1 -0.57
10 0.42
11 0.06
12 0.63
13 0.15
14 0.15
15 0.15
16 0.15
2 -0.65
20 0.5
3 -0.57
4 0.09
5 0.09
6 -0.15
7 -0.15
8 -0.15
9 -0.15

>  <PUBCHEM_EFFECTIVE_ROTOR_COUNT>  (1) 
2

>  <PUBCHEM_PHARMACOPHORE_FEATURES>  (1) 
5
1 1 acceptor
1 2 acceptor
1 3 acceptor
3 2 3 12 anion
6 4 5 6 7 8 9 rings

>  <PUBCHEM_HEAVY_ATOM_COUNT>  (1) 
12

>  <PUBCHEM_ATOM_DEF_STEREO_COUNT>  (1) 
0

>  <PUBCHEM_ATOM_UDEF_STEREO_COUNT>  (1) 
0

>  <PUBCHEM_BOND_DEF_STEREO_COUNT>  (1) 
0

>  <PUBCHEM_BOND_UDEF_STEREO_COUNT>  (1) 
0

>  <PUBCHEM_ISOTOPIC_ATOM_COUNT>  (1) 
0

>  <PUBCHEM_COMPONENT_COUNT>  (1) 
1

>  <PUBCHEM_CACTVS_TAUTO_COUNT>  (1) 
2

>  <PUBCHEM_CONFORMER_ID>  (1) 
00002CCE00000001

>  <PUBCHEM_MMFF94_ENERGY>  (1) 
34.4042

>  <PUBCHEM_FEATURE_SELFOVERLAP>  (1) 
25.429

>  <PUBCHEM_SHAPE_FINGERPRINT>  (1) 
10130415 120 18335415755849730472
10219947 1 18410577292276269084
10608611 8 18410852170236376345
11062470 55 18410012130515085989
11132069 177 18412538790992484256
11401426 45 18341603802584494504
11471102 20 18410851044938860861
12032990 46 18410580586516490406
12932764 1 17167853145437727201
14144814 61 18410292518817448729
14325111 11 18410575093279504193
14993402 34 18410012164774428925
16945 1 18410856551070986471
18186145 218 18186517683334114934
193761 8 17546165203572506149
200 152 18130779097506830855
20201158 50 18411137996093897255
20645476 183 17896339058767896430
20645477 70 18270961249989389919
23235685 24 18410569582820554725
23402539 116 18272641334100483710
23402655 69 18197201578594226829
23463225 33 18336263453413241778
23559900 14 18342738503839357482
2748010 2 18122626320942868583
528886 8 18411412887080681739
53812653 166 18341889675755591489

>  <PUBCHEM_SHAPE_MULTIPOLES>  (1) 
229.35
6.07
1.5
0.59
0.05
0.02
0
0.43
0
0.13
0
0.03
0.01
0

>  <PUBCHEM_SHAPE_SELFOVERLAP>  (1) 
482.484

>  <PUBCHEM_SHAPE_VOLUME>  (1) 
129.4

>  <PUBCHEM_COORDINATE_TYPE>  (1) 
2
5
10

$$$$
