11472
     RDKit          3D

  8  8  0  0  0  0  0  0  0  0999 V2000
   -2.7412   -0.0002   -0.7081 O   0  0  0  0  0  0  0  0  0  0  0  0
    2.1784   -0.0001   -0.2146 N   0  0  0  0  0  0  0  0  0  0  0  0
   -0.5742    0.0001    0.2719 C   0  0  0  0  0  0  0  0  0  0  0  0
   -2.0425    0.0002    0.5309 C   0  0  0  0  0  0  0  0  0  0  0  0
    0.1132    1.2027    0.1503 C   0  0  0  0  0  0  0  0  0  0  0  0
    0.1130   -1.2025    0.1505 C   0  0  0  0  0  0  0  0  0  0  0  0
    1.4767    1.1487   -0.0905 C   0  0  0  0  0  0  0  0  0  0  0  0
    1.4765   -1.1489   -0.0904 C   0  0  0  0  0  0  0  0  0  0  0  0
  1  4  1  0
  2  7  2  0
  2  8  1  0
  3  4  1  0
  3  5  2  0
  3  6  1  0
  5  7  1  0
  6  8  2  0
M  END
>  <PUBCHEM_COMPOUND_CID>  (1) 
11472

>  <PUBCHEM_CONFORMER_RMSD>  (1) 
0.4

>  <PUBCHEM_CONFORMER_DIVERSEORDER>  (1) 
1
2

>  <PUBCHEM_MMFF94_PARTIAL_CHARGES>  (1) 
13
1 -0.68
11 0.15
12 0.15
13 0.15
14 0.15
15 0.4
2 -0.62
3 -0.14
4 0.42
5 -0.15
6 -0.15
7 0.16
8 0.16

>  <PUBCHEM_EFFECTIVE_ROTOR_COUNT>  (1) 
1

>  <PUBCHEM_PHARMACOPHORE_FEATURES>  (1) 
4
1 1 acceptor
1 1 donor
1 2 acceptor
6 2 3 5 6 7 8 rings

>  <PUBCHEM_HEAVY_ATOM_COUNT>  (1) 
8

>  <PUBCHEM_ATOM_DEF_STEREO_COUNT>  (1) 
0

>  <PUBCHEM_ATOM_UDEF_STEREO_COUNT>  (1) 
0

>  <PUBCHEM_BOND_DEF_STEREO_COUNT>  (1) 
0

>  <PUBCHEM_BOND_UDEF_STEREO_COUNT>  (1) 
0

>  <PUBCHEM_ISOTOPIC_ATOM_COUNT>  (1) 
0

>  <PUBCHEM_COMPONENT_COUNT>  (1) 
1

>  <PUBCHEM_CACTVS_TAUTO_COUNT>  (1) 
1

>  <PUBCHEM_CONFORMER_ID>  (1) 
00002CD000000001

>  <PUBCHEM_MMFF94_ENERGY>  (1) 
17.3365

>  <PUBCHEM_FEATURE_SELFOVERLAP>  (1) 
20.297

>  <PUBCHEM_SHAPE_FINGERPRINT>  (1) 
18185500 45 18343303626160117763
20096714 4 18338805627280773642
21040471 1 18194124238008810576
23552423 10 18046641013894351422
29004967 10 18335430049105278611
5084963 1 17895765113455097153

>  <PUBCHEM_SHAPE_MULTIPOLES>  (1) 
153.79
2.98
1.33
0.7
1.4
0
0
0
0.45
-0.55
-0.03
0.21
0
0

>  <PUBCHEM_SHAPE_SELFOVERLAP>  (1) 
314.225

>  <PUBCHEM_SHAPE_VOLUME>  (1) 
88.4

>  <PUBCHEM_COORDINATE_TYPE>  (1) 
2
5
10

$$$$
