11484
     RDKit          3D

 13 13  0  0  0  0  0  0  0  0999 V2000
    3.3979    2.4218    0.3443 Cl  0  0  0  0  0  0  0  0  0  0  0  0
    2.5644   -2.9061    0.1137 Cl  0  0  0  0  0  0  0  0  0  0  0  0
   -1.1945    0.4468   -0.6036 O   0  0  0  0  0  0  0  0  0  0  0  0
   -4.3403   -0.8430    0.5413 O   0  0  0  0  0  0  0  0  0  0  0  0
   -3.7038    1.2869    0.0450 O   0  0  0  0  0  0  0  0  0  0  0  0
    0.1230    0.2295   -0.3405 C   0  0  0  0  0  0  0  0  0  0  0  0
    0.6119   -1.0742   -0.2584 C   0  0  0  0  0  0  0  0  0  0  0  0
    0.9846    1.3105   -0.1537 C   0  0  0  0  0  0  0  0  0  0  0  0
    2.3349    1.0877    0.1154 C   0  0  0  0  0  0  0  0  0  0  0  0
    1.9624   -1.2970    0.0107 C   0  0  0  0  0  0  0  0  0  0  0  0
   -2.1183   -0.5435   -0.1546 C   0  0  0  0  0  0  0  0  0  0  0  0
    2.8238   -0.2160    0.1977 C   0  0  0  0  0  0  0  0  0  0  0  0
   -3.4460    0.0965    0.1426 C   0  0  0  0  0  0  0  0  0  0  0  0
  1  9  1  0
  2 10  1  0
  3  6  1  0
  3 11  1  0
  4 13  1  0
  5 13  2  0
  6  7  2  0
  6  8  1  0
  7 10  1  0
  8  9  2  0
  9 12  1  0
 10 12  2  0
 11 13  1  0
M  END
>  <PUBCHEM_COMPOUND_CID>  (1) 
11484

>  <PUBCHEM_CONFORMER_RMSD>  (1) 
0.6

>  <PUBCHEM_CONFORMER_DIVERSEORDER>  (1) 
1
7
3
6
2
12
4
10
5
11
9
8

>  <PUBCHEM_MMFF94_PARTIAL_CHARGES>  (1) 
17
1 -0.18
10 0.18
11 0.34
12 -0.15
13 0.66
14 0.15
15 0.15
18 0.15
19 0.5
2 -0.18
3 -0.36
4 -0.65
5 -0.57
6 0.08
7 -0.15
8 -0.15
9 0.18

>  <PUBCHEM_EFFECTIVE_ROTOR_COUNT>  (1) 
3

>  <PUBCHEM_PHARMACOPHORE_FEATURES>  (1) 
5
1 3 acceptor
1 4 acceptor
1 5 acceptor
3 4 5 13 anion
6 6 7 8 9 10 12 rings

>  <PUBCHEM_HEAVY_ATOM_COUNT>  (1) 
13

>  <PUBCHEM_ATOM_DEF_STEREO_COUNT>  (1) 
0

>  <PUBCHEM_ATOM_UDEF_STEREO_COUNT>  (1) 
0

>  <PUBCHEM_BOND_DEF_STEREO_COUNT>  (1) 
0

>  <PUBCHEM_BOND_UDEF_STEREO_COUNT>  (1) 
0

>  <PUBCHEM_ISOTOPIC_ATOM_COUNT>  (1) 
0

>  <PUBCHEM_COMPONENT_COUNT>  (1) 
1

>  <PUBCHEM_CACTVS_TAUTO_COUNT>  (1) 
1

>  <PUBCHEM_CONFORMER_ID>  (1) 
00002CDC00000001

>  <PUBCHEM_MMFF94_ENERGY>  (1) 
29.7833

>  <PUBCHEM_FEATURE_SELFOVERLAP>  (1) 
25.434

>  <PUBCHEM_SHAPE_FINGERPRINT>  (1) 
10465860 228 18412830170259004264
10608611 8 18408317766186118829
10980938 120 18413106186305622040
11471102 20 18411132524410920956
12251169 10 18341609304569748895
12346645 44 18269553999733571900
12346645 6 18411135857411024652
12932764 1 17632569483428704213
13296908 3 18260831458363742663
14144814 61 18411419505730877233
14252887 29 18113626702690481763
14325111 11 18410855477666870093
15219456 202 18261666008884570965
15442244 35 18124598587221365481
15501101 241 18260830371430964532
15775835 57 18130227184733299045
16945 1 18339063931283481862
170605 34 18202006576696687588
18380122 1 18040703784174442628
201361 129 18342741835985250400
20339313 130 18128820746463969694
20645477 70 18337943511686740135
20671657 1 18412830187670858694
20871998 22 17982731875087427254
21065199 12 18335426764135902657
21524375 3 17985546890915418852
22943178 12 18186798050578489349
23557571 272 17168137914965662517
2748010 2 17836625458726503054
33824 294 18335419105692619339
449060 50 18337392746444572533
4990 188 17988095481791216948
5104073 3 18408889508264351121
54173680 148 17402329270513520990
581208 293 18409442622056855030
6049 1 17968651601710801389
7364860 26 18413388718292738942
81228 2 17045688358991997034
81539 233 18334291019884390660

>  <PUBCHEM_SHAPE_MULTIPOLES>  (1) 
253.67
6.95
2.51
0.68
7.94
0.82
0
-1.13
1.25
-3.35
0.22
0.01
0
0.23

>  <PUBCHEM_SHAPE_SELFOVERLAP>  (1) 
507.216

>  <PUBCHEM_SHAPE_VOLUME>  (1) 
151.5

>  <PUBCHEM_COORDINATE_TYPE>  (1) 
2
5
10

$$$$
