11480
     RDKit          3D

 13 13  0  0  0  0  0  0  0  0999 V2000
    4.1761    1.7097   -0.0112 Cl  0  0  0  0  0  0  0  0  0  0  0  0
   -1.9289   -1.5630   -0.0096 O   0  0  0  0  0  0  0  0  0  0  0  0
   -3.1444    0.4071    0.0016 N   0  0  0  0  0  0  0  0  0  0  0  0
   -0.7886    0.4649    0.0006 N   0  0  0  0  0  0  0  0  0  0  0  0
    0.5614    0.0340    0.0021 C   0  0  0  0  0  0  0  0  0  0  0  0
   -1.9374   -0.3302    0.0046 C   0  0  0  0  0  0  0  0  0  0  0  0
    1.5731    0.9784   -0.0040 C   0  0  0  0  0  0  0  0  0  0  0  0
    0.8364   -1.3225    0.0083 C   0  0  0  0  0  0  0  0  0  0  0  0
   -4.4490   -0.2421   -0.0185 C   0  0  0  0  0  0  0  0  0  0  0  0
   -3.1623    1.8683    0.0184 C   0  0  0  0  0  0  0  0  0  0  0  0
    2.9015    0.5531   -0.0036 C   0  0  0  0  0  0  0  0  0  0  0  0
    2.1647   -1.7479    0.0086 C   0  0  0  0  0  0  0  0  0  0  0  0
    3.1973   -0.8100    0.0027 C   0  0  0  0  0  0  0  0  0  0  0  0
  1 11  1  0
  2  6  2  0
  3  6  1  0
  3  9  1  0
  3 10  1  0
  4  5  1  0
  4  6  1  0
  5  7  2  0
  5  8  1  0
  7 11  1  0
  8 12  2  0
 11 13  2  0
 12 13  1  0
M  END
>  <PUBCHEM_COMPOUND_CID>  (1) 
11480

>  <PUBCHEM_CONFORMER_RMSD>  (1) 
0.6

>  <PUBCHEM_CONFORMER_DIVERSEORDER>  (1) 
1
7
10
3
5
9
2
8
4
6

>  <PUBCHEM_MMFF94_PARTIAL_CHARGES>  (1) 
18
1 -0.18
10 0.3
11 0.18
12 -0.15
13 -0.15
14 0.37
15 0.15
16 0.15
2 -0.57
23 0.15
24 0.15
3 -0.66
4 -0.55
5 0.12
6 0.69
7 -0.15
8 -0.15
9 0.3

>  <PUBCHEM_EFFECTIVE_ROTOR_COUNT>  (1) 
3

>  <PUBCHEM_PHARMACOPHORE_FEATURES>  (1) 
3
1 2 acceptor
1 4 donor
6 5 7 8 11 12 13 rings

>  <PUBCHEM_HEAVY_ATOM_COUNT>  (1) 
13

>  <PUBCHEM_ATOM_DEF_STEREO_COUNT>  (1) 
0

>  <PUBCHEM_ATOM_UDEF_STEREO_COUNT>  (1) 
0

>  <PUBCHEM_BOND_DEF_STEREO_COUNT>  (1) 
0

>  <PUBCHEM_BOND_UDEF_STEREO_COUNT>  (1) 
0

>  <PUBCHEM_ISOTOPIC_ATOM_COUNT>  (1) 
0

>  <PUBCHEM_COMPONENT_COUNT>  (1) 
1

>  <PUBCHEM_CACTVS_TAUTO_COUNT>  (1) 
2

>  <PUBCHEM_CONFORMER_ID>  (1) 
00002CD800000001

>  <PUBCHEM_MMFF94_ENERGY>  (1) 
37.8422

>  <PUBCHEM_FEATURE_SELFOVERLAP>  (1) 
15.223

>  <PUBCHEM_SHAPE_FINGERPRINT>  (1) 
10608611 8 18409445860536296061
10980938 120 18411982442619957666
11471102 20 18410853257078957918
12346645 44 18410291440991777288
12932764 1 17489575775580029321
13380535 76 18408885161082505850
14144814 61 18410293575595713833
14325111 11 18410573976566810784
14415576 193 18410296900000718764
14897335 6 18411134753314324590
15196674 1 18410855430322113413
15219456 202 18334853887906450676
15442244 35 18123470475395556080
15536298 74 18341896277389214166
15775835 57 18343022228587660086
170605 34 18334857220980355442
18186145 218 18264772064839988685
20279233 1 17749113296187849339
20645477 70 18341613681152174662
21501502 16 18410851040612134463
23402539 116 18341040883434303469
23402655 69 18342731897752557557
23559900 14 18199181785560053346
449060 50 18335985345622339021
449060 62 18412546526634720624
4990 188 18060150842604185596
5104073 3 18408887300208068841
53812653 166 18270959154451264848
57096353 35 18342453785376439829
58051976 378 18339923821910857380
69090 78 18412822487010885119
7364860 26 18342740676797722070
77779 3 18411420579425182953
9709674 26 18411705365711487295

>  <PUBCHEM_SHAPE_MULTIPOLES>  (1) 
253.57
7.88
1.87
0.6
3.54
0.09
0
2.54
0.03
-0.7
0
-0.05
0.01
-0.02

>  <PUBCHEM_SHAPE_SELFOVERLAP>  (1) 
508.786

>  <PUBCHEM_SHAPE_VOLUME>  (1) 
150.9

>  <PUBCHEM_COORDINATE_TYPE>  (1) 
2
5
10

$$$$
