11494
     RDKit          3D

 12 12  0  0  0  0  0  0  0  0999 V2000
    3.0593   -1.1174   -0.0007 O   0  0  0  0  0  0  0  0  0  0  0  0
   -3.2297    1.0448   -0.0029 O   0  0  0  0  0  0  0  0  0  0  0  0
   -1.7321   -0.7760    0.0007 N   0  0  0  0  0  0  0  0  0  0  0  0
   -0.4749   -0.1706    0.0011 C   0  0  0  0  0  0  0  0  0  0  0  0
    0.6778   -0.9561    0.0006 C   0  0  0  0  0  0  0  0  0  0  0  0
    1.9343   -0.3507    0.0000 C   0  0  0  0  0  0  0  0  0  0  0  0
   -0.3709    1.2204    0.0012 C   0  0  0  0  0  0  0  0  0  0  0  0
    2.0383    1.0402    0.0000 C   0  0  0  0  0  0  0  0  0  0  0  0
    0.8857    1.8259    0.0008 C   0  0  0  0  0  0  0  0  0  0  0  0
   -2.9897   -0.1583    0.0003 C   0  0  0  0  0  0  0  0  0  0  0  0
   -4.1090   -1.1690   -0.0001 C   0  0  0  0  0  0  0  0  0  0  0  0
    4.3110   -0.4331   -0.0013 C   0  0  0  0  0  0  0  0  0  0  0  0
  1  6  1  0
  1 12  1  0
  2 10  2  0
  3  4  1  0
  3 10  1  0
  4  5  2  0
  4  7  1  0
  5  6  1  0
  6  8  2  0
  7  9  2  0
  8  9  1  0
 10 11  1  0
M  END
>  <PUBCHEM_COMPOUND_CID>  (1) 
11494

>  <PUBCHEM_CONFORMER_RMSD>  (1) 
0.6

>  <PUBCHEM_CONFORMER_DIVERSEORDER>  (1) 
1
7
2
8
4
5
3
6

>  <PUBCHEM_MMFF94_PARTIAL_CHARGES>  (1) 
17
1 -0.36
10 0.57
11 0.06
12 0.28
13 0.15
14 0.15
15 0.15
16 0.37
17 0.15
2 -0.57
3 -0.55
4 0.12
5 -0.15
6 0.08
7 -0.15
8 -0.15
9 -0.15

>  <PUBCHEM_EFFECTIVE_ROTOR_COUNT>  (1) 
3

>  <PUBCHEM_PHARMACOPHORE_FEATURES>  (1) 
4
1 1 acceptor
1 2 acceptor
1 3 donor
6 4 5 6 7 8 9 rings

>  <PUBCHEM_HEAVY_ATOM_COUNT>  (1) 
12

>  <PUBCHEM_ATOM_DEF_STEREO_COUNT>  (1) 
0

>  <PUBCHEM_ATOM_UDEF_STEREO_COUNT>  (1) 
0

>  <PUBCHEM_BOND_DEF_STEREO_COUNT>  (1) 
0

>  <PUBCHEM_BOND_UDEF_STEREO_COUNT>  (1) 
0

>  <PUBCHEM_ISOTOPIC_ATOM_COUNT>  (1) 
0

>  <PUBCHEM_COMPONENT_COUNT>  (1) 
1

>  <PUBCHEM_CACTVS_TAUTO_COUNT>  (1) 
2

>  <PUBCHEM_CONFORMER_ID>  (1) 
00002CE600000001

>  <PUBCHEM_MMFF94_ENERGY>  (1) 
41.6713

>  <PUBCHEM_FEATURE_SELFOVERLAP>  (1) 
20.297

>  <PUBCHEM_SHAPE_FINGERPRINT>  (1) 
10130415 120 18334574637870394992
10219947 1 18273216395751104614
11471102 20 18409443721589594901
11543360 7 15792025509691184726
11806522 49 18410572928642367294
12032990 46 18411985741118093118
124424 183 18260544507103211023
12932764 1 17560518533710503381
13690532 89 18411136939442330090
14144814 61 18411982472742803059
14252887 29 18131078116955810782
14325111 11 18410575119376407553
15536298 74 18271806873610828104
16945 1 18410856525364590144
18186145 218 17603580846266374565
18522853 276 18343302569941073969
200 152 18131342034485647007
20201158 50 18408323272012289419
20645477 70 18411133671462977967
20871998 22 18200322017651268262
21501925 9 18411692218636629106
221490 88 18118971531660934235
23402539 116 18411410679641831310
23402655 69 18411410705654247917
23463225 33 18410293588422606398
23532345 42 18411408527873596768
2748010 2 18193279817357854062
7364860 26 18270118066605577424
8809292 202 18187369882398185171

>  <PUBCHEM_SHAPE_MULTIPOLES>  (1) 
230.23
6.88
1.54
0.59
1.57
0.49
0
-2.45
0
-0.11
0
-0.01
0.01
0

>  <PUBCHEM_SHAPE_SELFOVERLAP>  (1) 
471.72

>  <PUBCHEM_SHAPE_VOLUME>  (1) 
133.1

>  <PUBCHEM_COORDINATE_TYPE>  (1) 
2
5
10

$$$$
