11501
     RDKit          3D

 15 16  0  0  0  0  0  0  0  0999 V2000
    5.4888   -0.4593    0.0045 O   0  0  0  0  0  0  0  0  0  0  0  0
    0.0556    0.6695   -0.0062 N   0  0  0  0  0  0  0  0  0  0  0  0
   -2.2017   -0.2129    0.0016 C   0  0  0  0  0  0  0  0  0  0  0  0
    1.4315    0.3837   -0.0035 C   0  0  0  0  0  0  0  0  0  0  0  0
    2.1078    0.2333   -1.2101 C   0  0  0  0  0  0  0  0  0  0  0  0
    2.1075    0.2536    1.2059 C   0  0  0  0  0  0  0  0  0  0  0  0
   -3.0130   -1.3475    0.0093 C   0  0  0  0  0  0  0  0  0  0  0  0
   -2.7787    1.0570   -0.0069 C   0  0  0  0  0  0  0  0  0  0  0  0
   -0.7543   -0.3536    0.0020 C   0  0  0  0  0  0  0  0  0  0  0  0
    4.1564   -0.1815    0.0017 C   0  0  0  0  0  0  0  0  0  0  0  0
    3.4736   -0.0501   -1.2075 C   0  0  0  0  0  0  0  0  0  0  0  0
    3.4733   -0.0296    1.2083 C   0  0  0  0  0  0  0  0  0  0  0  0
   -4.4013   -1.2123    0.0085 C   0  0  0  0  0  0  0  0  0  0  0  0
   -4.1670    1.1922   -0.0077 C   0  0  0  0  0  0  0  0  0  0  0  0
   -4.9783    0.0575    0.0000 C   0  0  0  0  0  0  0  0  0  0  0  0
  1 10  1  0
  2  4  1  0
  2  9  2  0
  3  7  2  0
  3  8  1  0
  3  9  1  0
  4  5  2  0
  4  6  1  0
  5 11  1  0
  6 12  2  0
  7 13  1  0
  8 14  2  0
 10 11  2  0
 10 12  1  0
 13 15  2  0
 14 15  1  0
M  END
>  <PUBCHEM_COMPOUND_CID>  (1) 
11501

>  <PUBCHEM_CONFORMER_RMSD>  (1) 
0.6

>  <PUBCHEM_CONFORMER_DIVERSEORDER>  (1) 
1
2

>  <PUBCHEM_MMFF94_PARTIAL_CHARGES>  (1) 
26
1 -0.53
10 0.08
11 -0.15
12 -0.15
13 -0.15
14 -0.15
15 -0.15
16 0.15
17 0.15
18 0.15
19 0.15
2 -0.63
20 0.06
21 0.15
22 0.15
23 0.15
24 0.15
25 0.15
26 0.45
3 0.09
4 0.18
5 -0.15
6 -0.15
7 -0.15
8 -0.15
9 0.3

>  <PUBCHEM_EFFECTIVE_ROTOR_COUNT>  (1) 
2

>  <PUBCHEM_PHARMACOPHORE_FEATURES>  (1) 
4
1 1 donor
1 2 acceptor
6 3 7 8 13 14 15 rings
6 4 5 6 10 11 12 rings

>  <PUBCHEM_HEAVY_ATOM_COUNT>  (1) 
15

>  <PUBCHEM_ATOM_DEF_STEREO_COUNT>  (1) 
0

>  <PUBCHEM_ATOM_UDEF_STEREO_COUNT>  (1) 
0

>  <PUBCHEM_BOND_DEF_STEREO_COUNT>  (1) 
0

>  <PUBCHEM_BOND_UDEF_STEREO_COUNT>  (1) 
0

>  <PUBCHEM_ISOTOPIC_ATOM_COUNT>  (1) 
0

>  <PUBCHEM_COMPONENT_COUNT>  (1) 
1

>  <PUBCHEM_CACTVS_TAUTO_COUNT>  (1) 
2

>  <PUBCHEM_CONFORMER_ID>  (1) 
00002CED00000001

>  <PUBCHEM_MMFF94_ENERGY>  (1) 
41.1278

>  <PUBCHEM_FEATURE_SELFOVERLAP>  (1) 
20.297

>  <PUBCHEM_SHAPE_FINGERPRINT>  (1) 
10912923 1 17821447967029454065
11471102 20 15913326897132889648
11615757 297 16226048907393409637
12107183 9 17320405805325225560
12236239 1 17748827405937298324
13167823 11 18040152928806728531
13675066 3 17846494863506178107
13760787 5 16805324396389023349
14123238 8 16988562415804914789
14252887 29 16128666228010665574
14386348 63 17775288261260991975
15242439 84 17988641882913684961
15375358 24 17561366179507366015
17804303 29 18412262869972989657
17834072 33 17894916260350392556
18186145 218 15719392858244868456
19489759 90 18343862204358960689
1986462 14 18412826889267590733
200 152 16515681143669580517
20279233 1 17632863031315787095
20281475 54 17603577539004627843
20645477 56 18341614768522562377
20645477 70 16415204421054155188
21065201 7 18341892978648680563
22485316 2 18344145890827298902
22646028 1 17894909641884904011
22854114 59 16200433571831256644
2297311 6 18342184362262720517
23402539 116 18260825990495828813
23402655 69 15502369024040002278
23557571 272 18272373027267259661
23559900 14 18202004304890888716
26918003 58 16702021989046453587
29717793 49 17968094209508487798
300161 21 17749101205707191781
33824 294 16702307823910751590
42 15 18413107255710306706
4214541 1 18410575076426806053
474 4 16807304741654329644
522135 26 16226044492235484088
542803 24 17894352180699311477
573450 72 18260822687982320265
69090 78 16702297975228929847
9971528 1 17385724716620427588

>  <PUBCHEM_SHAPE_MULTIPOLES>  (1) 
297.84
11.48
1.07
1.01
0.3
0.06
0
1.2
-0.01
-1.34
0
1.13
-0.04
0.02

>  <PUBCHEM_SHAPE_SELFOVERLAP>  (1) 
640.937

>  <PUBCHEM_SHAPE_VOLUME>  (1) 
163.9

>  <PUBCHEM_COORDINATE_TYPE>  (1) 
2
5
10

$$$$
