11500
     RDKit          3D

 11 11  0  0  0  0  0  0  0  0999 V2000
    2.5227   -1.2770    0.3819 O   0  0  0  0  0  0  0  0  0  0  0  0
    1.7144    0.8929    0.1365 N   0  0  0  0  0  0  0  0  0  0  0  0
    0.6541    0.8221    1.1095 C   0  0  0  0  0  0  0  0  0  0  0  0
   -0.6326    0.3597    0.5132 C   0  0  0  0  0  0  0  0  0  0  0  0
   -1.5334    1.2884   -0.0079 C   0  0  0  0  0  0  0  0  0  0  0  0
   -0.9351   -1.0014    0.4770 C   0  0  0  0  0  0  0  0  0  0  0  0
   -2.7368    0.8561   -0.5652 C   0  0  0  0  0  0  0  0  0  0  0  0
   -2.1384   -1.4339   -0.0804 C   0  0  0  0  0  0  0  0  0  0  0  0
   -3.0393   -0.5050   -0.6015 C   0  0  0  0  0  0  0  0  0  0  0  0
    2.5618   -0.1682   -0.1449 C   0  0  0  0  0  0  0  0  0  0  0  0
    3.5625    0.1663   -1.2183 C   0  0  0  0  0  0  0  0  0  0  0  0
  1 10  2  0
  2  3  1  0
  2 10  1  0
  3  4  1  0
  4  5  2  0
  4  6  1  0
  5  7  1  0
  6  8  2  0
  7  9  2  0
  8  9  1  0
 10 11  1  0
M  END
>  <PUBCHEM_COMPOUND_CID>  (1) 
11500

>  <PUBCHEM_CONFORMER_RMSD>  (1) 
0.6

>  <PUBCHEM_CONFORMER_DIVERSEORDER>  (1) 
2
3
5
4
1

>  <PUBCHEM_MMFF94_PARTIAL_CHARGES>  (1) 
17
1 -0.57
10 0.57
11 0.06
14 0.15
15 0.15
16 0.37
17 0.15
18 0.15
19 0.15
2 -0.73
3 0.44
4 -0.14
5 -0.15
6 -0.15
7 -0.15
8 -0.15
9 -0.15

>  <PUBCHEM_EFFECTIVE_ROTOR_COUNT>  (1) 
3

>  <PUBCHEM_PHARMACOPHORE_FEATURES>  (1) 
3
1 1 acceptor
1 2 donor
6 4 5 6 7 8 9 rings

>  <PUBCHEM_HEAVY_ATOM_COUNT>  (1) 
11

>  <PUBCHEM_ATOM_DEF_STEREO_COUNT>  (1) 
0

>  <PUBCHEM_ATOM_UDEF_STEREO_COUNT>  (1) 
0

>  <PUBCHEM_BOND_DEF_STEREO_COUNT>  (1) 
0

>  <PUBCHEM_BOND_UDEF_STEREO_COUNT>  (1) 
0

>  <PUBCHEM_ISOTOPIC_ATOM_COUNT>  (1) 
0

>  <PUBCHEM_COMPONENT_COUNT>  (1) 
1

>  <PUBCHEM_CACTVS_TAUTO_COUNT>  (1) 
2

>  <PUBCHEM_CONFORMER_ID>  (1) 
00002CEC00000002

>  <PUBCHEM_MMFF94_ENERGY>  (1) 
19.7865

>  <PUBCHEM_FEATURE_SELFOVERLAP>  (1) 
15.223

>  <PUBCHEM_SHAPE_FINGERPRINT>  (1) 
10857977 72 9439400267897418065
11127187 94 18343304781712003607
12251169 10 10303815371599670572
12716758 59 18411125940389560521
12897270 3 18335422412853899112
12932764 1 18411700997486517640
13296908 3 17489586766448832088
14390081 3 13190333569612457703
15775835 57 18041001700174964980
16945 1 18412255125851419545
18619055 16 18335137549279932186
20201158 50 18131070420031349774
20361792 2 16415763037264501776
20528008 55 9151174242637234979
20645476 183 17676482865197979091
20653085 51 17313103003965352821
20671657 53 17988933258169970432
20711985 344 17487914301904925936
20871999 31 18261108616945657567
21028194 46 12324235066368779632
23552423 10 18262512714436821833
23559900 14 18272080553733326826
2748010 2 18123177168047805995
3248919 1 17385721409068101088
369184 2 12463570673177494537
528716 315 18260557756855721310
8030462 33 18334577945005729810
81228 2 17130155199890394368

>  <PUBCHEM_SHAPE_MULTIPOLES>  (1) 
215.52
5.5
1.4
0.98
2.9
0.15
0.05
0.64
2.15
-0.53
-0.11
0.36
-0.09
0.02

>  <PUBCHEM_SHAPE_SELFOVERLAP>  (1) 
437.737

>  <PUBCHEM_SHAPE_VOLUME>  (1) 
125.5

>  <PUBCHEM_COORDINATE_TYPE>  (1) 
2
5
10

$$$$
