11519
     RDKit          3D

  8  7  0  0  1  0  0  0  0  0999 V2000
    1.1166    0.1305    0.2290 C   0  0  0  0  0  0  0  0  0  0  0  0
   -0.1957   -0.5092   -0.2757 C   0  0  0  0  0  0  0  0  0  0  0  0
   -1.4596    0.2049    0.2140 C   0  0  0  0  0  0  0  0  0  0  0  0
    2.3039   -0.7634   -0.1877 C   0  0  0  0  0  0  0  0  0  0  0  0
    1.2827    1.5627   -0.2882 C   0  0  0  0  0  0  0  0  0  0  0  0
   -2.7216   -0.5204   -0.2569 C   0  0  0  0  0  0  0  0  0  0  0  0
    3.6542   -0.2655    0.3087 C   0  0  0  0  0  0  0  0  0  0  0  0
   -3.9805    0.1603    0.2568 C   0  0  0  0  0  0  0  0  0  0  0  0
  1  2  1  0
  1  4  1  0
  1  5  1  0
  2  3  1  0
  3  6  1  0
  4  7  1  0
  6  8  1  0
M  END
>  <PUBCHEM_COMPOUND_CID>  (1) 
11519

>  <PUBCHEM_CONFORMER_RMSD>  (1) 
0.6

>  <PUBCHEM_CONFORMER_DIVERSEORDER>  (1) 
1
43
40
6
41
19
21
39
24
14
28
31
30
44
9
13
5
17
20
25
3
15
26
12
38
18
36
16
2
27
33
4
32
11
10
42
22
29
7
35
8
23
37
34

>  <PUBCHEM_MMFF94_PARTIAL_CHARGES>  (1) 
0

>  <PUBCHEM_EFFECTIVE_ROTOR_COUNT>  (1) 
4

>  <PUBCHEM_PHARMACOPHORE_FEATURES>  (1) 
4
1 5 hydrophobe
1 7 hydrophobe
1 8 hydrophobe
5 1 2 3 4 6 hydrophobe

>  <PUBCHEM_HEAVY_ATOM_COUNT>  (1) 
8

>  <PUBCHEM_ATOM_DEF_STEREO_COUNT>  (1) 
0

>  <PUBCHEM_ATOM_UDEF_STEREO_COUNT>  (1) 
1

>  <PUBCHEM_BOND_DEF_STEREO_COUNT>  (1) 
0

>  <PUBCHEM_BOND_UDEF_STEREO_COUNT>  (1) 
0

>  <PUBCHEM_ISOTOPIC_ATOM_COUNT>  (1) 
0

>  <PUBCHEM_COMPONENT_COUNT>  (1) 
1

>  <PUBCHEM_CACTVS_TAUTO_COUNT>  (1) 
1

>  <PUBCHEM_CONFORMER_ID>  (1) 
00002CFF00000001

>  <PUBCHEM_MMFF94_ENERGY>  (1) 
1.1946

>  <PUBCHEM_FEATURE_SELFOVERLAP>  (1) 
20.335

>  <PUBCHEM_SHAPE_FINGERPRINT>  (1) 
10219947 1 18272370862777374094
11062470 55 15841550769028141587
12932764 1 17023170661313074619
14325111 11 18339924917428171935
18342897 14 18335703827537719273
29004967 10 18335422348735390378
3248919 1 17131847490150934087
5460574 1 8935000373474855534

>  <PUBCHEM_SHAPE_MULTIPOLES>  (1) 
164.64
6.49
1.08
0.68
2.73
0.39
0
-0.72
-0.69
-0.48
0.11
-0.01
0
-0.14

>  <PUBCHEM_SHAPE_SELFOVERLAP>  (1) 
285.316

>  <PUBCHEM_SHAPE_VOLUME>  (1) 
111.1

>  <PUBCHEM_COORDINATE_TYPE>  (1) 
2
5
10

$$$$
