11515
     RDKit          3D

  9  8  0  0  1  0  0  0  0  0999 V2000
    0.5287   -1.4626    0.3265 O   0  0  0  0  0  0  0  0  0  0  0  0
    0.5421   -0.1914   -0.3273 C   0  0  0  0  0  0  0  0  0  0  0  0
   -0.7082    0.5871    0.0999 C   0  0  0  0  0  0  0  0  0  0  0  0
    1.8509    0.5182    0.0471 C   0  0  0  0  0  0  0  0  0  0  0  0
   -2.0011   -0.1804   -0.2022 C   0  0  0  0  0  0  0  0  0  0  0  0
    3.1408   -0.2372   -0.2765 C   0  0  0  0  0  0  0  0  0  0  0  0
   -3.2335    0.6270    0.2071 C   0  0  0  0  0  0  0  0  0  0  0  0
    4.3979    0.4798    0.1894 C   0  0  0  0  0  0  0  0  0  0  0  0
   -4.5176   -0.1405   -0.0640 C   0  0  0  0  0  0  0  0  0  0  0  0
  1  2  1  0
  2  3  1  0
  2  4  1  0
  3  5  1  0
  4  6  1  0
  5  7  1  0
  6  8  1  0
  7  9  1  0
M  END
>  <PUBCHEM_COMPOUND_CID>  (1) 
11515

>  <PUBCHEM_CONFORMER_RMSD>  (1) 
0.6

>  <PUBCHEM_CONFORMER_DIVERSEORDER>  (1) 
2
70
36
91
99
43
40
77
39
52
27
62
81
26
34
71
35
95
44
30
83
65
97
22
90
48
61
6
14
69
12
89
5
4
63
18
1
59
66
94
16
85
31
74
13
9
72
98
56
49
32
79
57
73
67
45
47
29
93
68
86
54
96
50
64
42
17
76
24
53
60
25
3
92
55
38
19
21
46
15
80
75
20
37
88
33
10
84
11
51
58
23
87
8
28
78
41
82
7

>  <PUBCHEM_MMFF94_PARTIAL_CHARGES>  (1) 
3
1 -0.68
2 0.28
27 0.4

>  <PUBCHEM_EFFECTIVE_ROTOR_COUNT>  (1) 
5

>  <PUBCHEM_PHARMACOPHORE_FEATURES>  (1) 
4
1 1 acceptor
1 1 donor
1 8 hydrophobe
1 9 hydrophobe

>  <PUBCHEM_HEAVY_ATOM_COUNT>  (1) 
9

>  <PUBCHEM_ATOM_DEF_STEREO_COUNT>  (1) 
0

>  <PUBCHEM_ATOM_UDEF_STEREO_COUNT>  (1) 
1

>  <PUBCHEM_BOND_DEF_STEREO_COUNT>  (1) 
0

>  <PUBCHEM_BOND_UDEF_STEREO_COUNT>  (1) 
0

>  <PUBCHEM_ISOTOPIC_ATOM_COUNT>  (1) 
0

>  <PUBCHEM_COMPONENT_COUNT>  (1) 
1

>  <PUBCHEM_CACTVS_TAUTO_COUNT>  (1) 
1

>  <PUBCHEM_CONFORMER_ID>  (1) 
00002CFB00000002

>  <PUBCHEM_MMFF94_ENERGY>  (1) 
1.4544

>  <PUBCHEM_FEATURE_SELFOVERLAP>  (1) 
20.297

>  <PUBCHEM_SHAPE_FINGERPRINT>  (1) 
10219947 1 17603589620747436396
11062470 55 12107788510070237893
12932764 1 14261058819475033653
14123238 8 17346880065410466093
14325111 11 18410856551297781356
190213 19 18131634473954746877
20211469 26 11458420232756137180
20645477 70 17774729654079047014
20719005 15 18413671318250051349
21293036 1 18202002131273563336
23235685 24 18333446547308672130
23402539 116 17917986174933641509
23402655 69 18342168926472044805
366044 4 18410292527808615186
42788 4 18412262839338499829

>  <PUBCHEM_SHAPE_MULTIPOLES>  (1) 
179.35
8.47
0.94
0.65
0.94
0.17
-0.01
-0.99
0.16
-0.09
0.08
-0.03
0.01
-0.01

>  <PUBCHEM_SHAPE_SELFOVERLAP>  (1) 
314.446

>  <PUBCHEM_SHAPE_VOLUME>  (1) 
118.8

>  <PUBCHEM_COORDINATE_TYPE>  (1) 
2
5
10

$$$$
