11511
     RDKit          3D

  8  7  0  0  1  0  0  0  0  0999 V2000
    0.7027    0.3567   -0.3209 C   0  0  0  0  0  0  0  0  0  0  0  0
   -0.1267   -0.4393    0.7120 C   0  0  0  0  0  0  0  0  0  0  0  0
   -1.6330   -0.5824    0.4093 C   0  0  0  0  0  0  0  0  0  0  0  0
    2.2060    0.3449    0.0324 C   0  0  0  0  0  0  0  0  0  0  0  0
    0.2320    1.8113   -0.4314 C   0  0  0  0  0  0  0  0  0  0  0  0
   -1.8948   -1.2376   -0.9473 C   0  0  0  0  0  0  0  0  0  0  0  0
   -2.3007    0.7956    0.4533 C   0  0  0  0  0  0  0  0  0  0  0  0
    2.8145   -1.0492    0.0926 C   0  0  0  0  0  0  0  0  0  0  0  0
  1  2  1  0
  1  4  1  0
  1  5  1  0
  2  3  1  0
  3  6  1  0
  3  7  1  0
  4  8  1  0
M  END
>  <PUBCHEM_COMPOUND_CID>  (1) 
11511

>  <PUBCHEM_CONFORMER_RMSD>  (1) 
0.6

>  <PUBCHEM_CONFORMER_DIVERSEORDER>  (1) 
2
7
8
3
4
6
1
5

>  <PUBCHEM_MMFF94_PARTIAL_CHARGES>  (1) 
0

>  <PUBCHEM_EFFECTIVE_ROTOR_COUNT>  (1) 
3

>  <PUBCHEM_PHARMACOPHORE_FEATURES>  (1) 
4
1 5 hydrophobe
1 8 hydrophobe
3 3 6 7 hydrophobe
4 1 2 3 4 hydrophobe

>  <PUBCHEM_HEAVY_ATOM_COUNT>  (1) 
8

>  <PUBCHEM_ATOM_DEF_STEREO_COUNT>  (1) 
0

>  <PUBCHEM_ATOM_UDEF_STEREO_COUNT>  (1) 
1

>  <PUBCHEM_BOND_DEF_STEREO_COUNT>  (1) 
0

>  <PUBCHEM_BOND_UDEF_STEREO_COUNT>  (1) 
0

>  <PUBCHEM_ISOTOPIC_ATOM_COUNT>  (1) 
0

>  <PUBCHEM_COMPONENT_COUNT>  (1) 
1

>  <PUBCHEM_CACTVS_TAUTO_COUNT>  (1) 
1

>  <PUBCHEM_CONFORMER_ID>  (1) 
00002CF700000002

>  <PUBCHEM_MMFF94_ENERGY>  (1) 
15.2313

>  <PUBCHEM_FEATURE_SELFOVERLAP>  (1) 
20.554

>  <PUBCHEM_SHAPE_FINGERPRINT>  (1) 
12932764 1 18059865007708109488
16714656 1 18336549291807667385
18185500 45 18339363070954291563
23552423 10 18265336294503727607
24536 1 17898571135848794697
29004967 10 18260552268167072384
369184 2 17275102833926364955

>  <PUBCHEM_SHAPE_MULTIPOLES>  (1) 
164.64
3.73
1.53
0.88
1.26
0.4
-0.05
-1.02
0.1
-0.09
-0.28
-0.3
-0.11
-0.39

>  <PUBCHEM_SHAPE_SELFOVERLAP>  (1) 
290.379

>  <PUBCHEM_SHAPE_VOLUME>  (1) 
110.4

>  <PUBCHEM_COORDINATE_TYPE>  (1) 
2
5
10

$$$$
