1151
     RDKit          3D

 29 30  0  0  1  0  0  0  0  0999 V2000
   -2.7792    2.1358   -0.9014 P   0  0  0  0  0  0  0  0  0  0  0  0
   -4.2166   -0.4236   -1.1239 P   0  0  0  0  0  0  0  0  0  0  0  0
   -3.1570   -2.6562    0.4875 P   0  0  0  0  0  0  0  0  0  0  0  0
    0.7566    0.6538    0.4215 O   0  0  0  0  0  0  0  0  0  0  0  0
    0.9226    2.3393    3.5803 O   0  0  0  0  0  0  0  0  0  0  0  0
   -1.3563    2.4379   -0.1925 O   0  0  0  0  0  0  0  0  0  0  0  0
    3.2822   -2.5504    1.0551 O   0  0  0  0  0  0  0  0  0  0  0  0
   -2.9713    0.5379   -0.7610 O   0  0  0  0  0  0  0  0  0  0  0  0
   -3.8756    2.7320    0.1280 O   0  0  0  0  0  0  0  0  0  0  0  0
   -2.9051    2.6492   -2.3063 O   0  0  0  0  0  0  0  0  0  0  0  0
    6.1198   -0.7678   -2.0944 O   0  0  0  0  0  0  0  0  0  0  0  0
   -3.6318   -1.9069   -0.8634 O   0  0  0  0  0  0  0  0  0  0  0  0
   -4.3167   -0.3358   -2.7349 O   0  0  0  0  0  0  0  0  0  0  0  0
   -5.4927   -0.1187   -0.3962 O   0  0  0  0  0  0  0  0  0  0  0  0
   -2.5500   -4.0501   -0.0613 O   0  0  0  0  0  0  0  0  0  0  0  0
   -1.8459   -1.8269    0.9406 O   0  0  0  0  0  0  0  0  0  0  0  0
   -4.2229   -2.7932    1.5344 O   0  0  0  0  0  0  0  0  0  0  0  0
    2.8544   -0.3841    0.2966 N   0  0  0  0  0  0  0  0  0  0  0  0
    4.6899   -1.6489   -0.5152 N   0  0  0  0  0  0  0  0  0  0  0  0
    0.7284    1.2493    2.7042 C   0  0  0  0  0  0  0  0  0  0  0  0
    0.3612    1.7158    1.3053 C   0  0  0  0  0  0  0  0  0  0  0  0
    2.0073    0.4917    2.4364 C   0  0  0  0  0  0  0  0  0  0  0  0
    1.6937   -0.1866    1.1149 C   0  0  0  0  0  0  0  0  0  0  0  0
   -1.1199    2.0013    1.1350 C   0  0  0  0  0  0  0  0  0  0  0  0
    3.2571    0.6468   -0.5438 C   0  0  0  0  0  0  0  0  0  0  0  0
    3.5803   -1.5948    0.3355 C   0  0  0  0  0  0  0  0  0  0  0  0
    4.3194    0.5918   -1.3567 C   0  0  0  0  0  0  0  0  0  0  0  0
    5.1338   -0.6525   -1.3714 C   0  0  0  0  0  0  0  0  0  0  0  0
    4.7342    1.7140   -2.2529 C   0  0  0  0  0  0  0  0  0  0  0  0
  1  6  1  0
  1  8  1  0
  1  9  1  0
  1 10  2  0
  2  8  1  0
  2 12  1  0
  2 13  1  0
  2 14  2  0
  3 12  1  0
  3 15  1  0
  3 16  1  0
  3 17  2  0
  4 21  1  0
  4 23  1  0
  5 20  1  0
  6 24  1  0
  7 26  2  0
 11 28  2  0
 18 23  1  0
 18 25  1  0
 18 26  1  0
 19 26  1  0
 19 28  1  0
 20 21  1  0
 20 22  1  0
 21 24  1  0
 22 23  1  0
 25 27  2  0
 27 28  1  0
 27 29  1  0
M  END
>  <PUBCHEM_COMPOUND_CID>  (1) 
1151

>  <PUBCHEM_CONFORMER_RMSD>  (1) 
1.4

>  <PUBCHEM_CONFORMER_DIVERSEORDER>  (1) 
1
44
106
180
266
238
276
166
120
42
73
287
170
323
28
182
107
7
27
205
117
54
36
194
65
119
67
213
350
128
105
281
242
33
178
214
296
254
17
152
37
265
227
297
328
58
159
141
332
196
30
230
138
302
53
338
155
63
88
59
95
337
298
284
207
66
181
74
315
245
210
70
216
185
231
171
101
32
139
127
262
103
334
114
321
291
256
49
26
292
329
100
225
304
222
310
220
61
57
351
147
264
10
343
108
218
263
122
174
219
71
14
183
129
134
69
144
77
234
4
282
116
339
16
306
200
113
188
336
244
341
25
64
221
217
92
307
12
43
76
237
41
15
52
96
48
175
142
211
312
226
335
93
258
324
149
18
208
6
261
223
203
246
327
29
47
199
9
233
109
286
189
190
98
215
198
201
290
13
271
148
293
72
195
97
51
34
46
316
115
125
75
192
110
84
50
270
5
209
348
131
202
236
247
345
24
123
259
299
79
301
150
252
118
82
309
81
3
289
347
23
228
179
253
269
22
157
285
240
295
279
191
164
288
124
340
163
294
35
224
251
132
56
235
90
38
330
83
241
154
349
300
137
60
136
311
143
173
158
45
277
317
342
62
274
165
187
20
169
91
283
308
121
89
145
126
257
243
255
68
314
206
146
19
156
313
8
40
172
344
21
111
319
94
305
272
268
140
133
278
162
86
87
249
99
325
151
267
104
11
250
193
280
232
212
177
273
160
167
184
248
186
260
161
176
346
322
318
2
204
168
80
78
39
85
31
197
320
102
112
153
239
229
130
303
55
135
326
331
275
333

>  <PUBCHEM_MMFF94_PARTIAL_CHARGES>  (1) 
35
1 1.51
10 -0.7
11 -0.57
12 -0.54
13 -0.77
14 -0.7
15 -0.77
16 -0.77
17 -0.7
18 -0.47
19 -0.49
2 1.51
20 0.28
21 0.28
23 0.58
24 0.28
25 -0.04
26 0.69
27 -0.12
28 0.62
29 0.14
3 1.51
37 0.4
38 0.15
39 0.37
4 -0.56
43 0.5
44 0.5
45 0.5
46 0.5
5 -0.68
6 -0.55
7 -0.57
8 -0.54
9 -0.77

>  <PUBCHEM_EFFECTIVE_ROTOR_COUNT>  (1) 
9

>  <PUBCHEM_PHARMACOPHORE_FEATURES>  (1) 
16
1 10 acceptor
1 11 acceptor
1 13 acceptor
1 14 acceptor
1 15 acceptor
1 16 acceptor
1 17 acceptor
1 19 donor
1 4 acceptor
1 5 acceptor
1 5 donor
1 7 acceptor
1 9 acceptor
4 3 15 16 17 anion
5 4 20 21 22 23 rings
6 18 19 25 26 27 28 rings

>  <PUBCHEM_HEAVY_ATOM_COUNT>  (1) 
29

>  <PUBCHEM_ATOM_DEF_STEREO_COUNT>  (1) 
0

>  <PUBCHEM_ATOM_UDEF_STEREO_COUNT>  (1) 
3

>  <PUBCHEM_BOND_DEF_STEREO_COUNT>  (1) 
0

>  <PUBCHEM_BOND_UDEF_STEREO_COUNT>  (1) 
0

>  <PUBCHEM_ISOTOPIC_ATOM_COUNT>  (1) 
0

>  <PUBCHEM_COMPONENT_COUNT>  (1) 
1

>  <PUBCHEM_CACTVS_TAUTO_COUNT>  (1) 
3

>  <PUBCHEM_CONFORMER_ID>  (1) 
0000047F00000001

>  <PUBCHEM_MMFF94_ENERGY>  (1) 
-13.4202

>  <PUBCHEM_FEATURE_SELFOVERLAP>  (1) 
81.269

>  <PUBCHEM_SHAPE_FINGERPRINT>  (1) 
10366900 7 18272078410080806071
10928967 22 18060128864729713055
12363563 72 17131539549506942552
12788726 201 17772758160514822832
12892183 10 11023808571064460364
14251757 5 18408888429963639519
14363568 33 17832159585791238803
14395042 70 14288154462275877723
14932701 244 16299531541488901891
1813 80 16128666257975709896
20693207 138 18271791441651090737
21591331 117 17916044484327176731
21591340 35 8713552156178500743
22440779 20 15121024298688871400
23559900 14 18338786922571995201
312425 83 17823415990122524668
5283178 26 17773890859597981583
574716 61 17095235917245546183
633830 44 16227177985650307060
7918774 8 16630253545445190236

>  <PUBCHEM_SHAPE_MULTIPOLES>  (1) 
516.22
12.07
3.68
2.78
4.11
1.64
-1.03
4.58
9.05
-3.96
-0.62
1.13
-1.71
0.9

>  <PUBCHEM_SHAPE_SELFOVERLAP>  (1) 
1021.116

>  <PUBCHEM_SHAPE_VOLUME>  (1) 
308.5

>  <PUBCHEM_COORDINATE_TYPE>  (1) 
2
5
10

$$$$
