11517
     RDKit          3D

 14 13  0  0  0  0  0  0  0  0999 V2000
   -2.3618    0.2643   -0.0563 O   0  0  0  0  0  0  0  0  0  0  0  0
   -1.2395   -1.7495    0.0202 O   0  0  0  0  0  0  0  0  0  0  0  0
    2.5206    0.4726    0.0170 C   0  0  0  0  0  0  0  0  0  0  0  0
    3.8134   -0.3457    0.0303 C   0  0  0  0  0  0  0  0  0  0  0  0
    1.2886   -0.4370   -0.0248 C   0  0  0  0  0  0  0  0  0  0  0  0
    5.0454    0.5610    0.0386 C   0  0  0  0  0  0  0  0  0  0  0  0
   -0.0192    0.3532   -0.0672 C   0  0  0  0  0  0  0  0  0  0  0  0
    6.3370   -0.2558    0.0182 C   0  0  0  0  0  0  0  0  0  0  0  0
   -1.2489   -0.5275   -0.0381 C   0  0  0  0  0  0  0  0  0  0  0  0
    7.5637    0.6419   -0.0078 C   0  0  0  0  0  0  0  0  0  0  0  0
   -4.7422    0.5906   -0.0297 C   0  0  0  0  0  0  0  0  0  0  0  0
   -3.6127   -0.4293   -0.0008 C   0  0  0  0  0  0  0  0  0  0  0  0
   -6.1103   -0.0814    0.0429 C   0  0  0  0  0  0  0  0  0  0  0  0
   -7.2340    0.9425    0.0575 C   0  0  0  0  0  0  0  0  0  0  0  0
  1  9  1  0
  1 12  1  0
  2  9  2  0
  3  4  1  0
  3  5  1  0
  4  6  1  0
  5  7  1  0
  6  8  1  0
  7  9  1  0
  8 10  1  0
 11 12  1  0
 11 13  1  0
 13 14  1  0
M  END
>  <PUBCHEM_COMPOUND_CID>  (1) 
11517

>  <PUBCHEM_CONFORMER_RMSD>  (1) 
1

>  <PUBCHEM_CONFORMER_DIVERSEORDER>  (1) 
1
124
101
39
32
160
142
10
111
30
2
47
18
99
4
150
17
112
61
49
13
139
15
56
26
43
55
83
136
41
20
118
148
51
98
5
74
25
19
23
57
28
52
64
53
100
71
92
75
16
110
156
11
45
108
58
147
68
7
59
161
127
34
50
121
81
76
6
159
72
82
144
77
62
151
131
133
24
96
157
36
91
8
155
104
48
63
137
14
149
105
102
145
46
12
135
123
97
3
94
109
42
89
126
67
153
80
114
44
95
35
152
134
130
103
119
93
85
116
86
21
66
27
69
107
132
37
40
29
87
117
65
129
120
140
84
143
158
106
54
122
154
22
38
31
90
33
115
141
78
73
146
128
138
88
79
113
60
9
125
70

>  <PUBCHEM_MMFF94_PARTIAL_CHARGES>  (1) 
5
1 -0.43
12 0.28
2 -0.57
7 0.06
9 0.66

>  <PUBCHEM_EFFECTIVE_ROTOR_COUNT>  (1) 
10

>  <PUBCHEM_PHARMACOPHORE_FEATURES>  (1) 
5
1 10 hydrophobe
1 14 hydrophobe
1 2 acceptor
3 3 5 7 hydrophobe
3 4 6 8 hydrophobe

>  <PUBCHEM_HEAVY_ATOM_COUNT>  (1) 
14

>  <PUBCHEM_ATOM_DEF_STEREO_COUNT>  (1) 
0

>  <PUBCHEM_ATOM_UDEF_STEREO_COUNT>  (1) 
0

>  <PUBCHEM_BOND_DEF_STEREO_COUNT>  (1) 
0

>  <PUBCHEM_BOND_UDEF_STEREO_COUNT>  (1) 
0

>  <PUBCHEM_ISOTOPIC_ATOM_COUNT>  (1) 
0

>  <PUBCHEM_COMPONENT_COUNT>  (1) 
1

>  <PUBCHEM_CACTVS_TAUTO_COUNT>  (1) 
1

>  <PUBCHEM_CONFORMER_ID>  (1) 
00002CFD00000001

>  <PUBCHEM_MMFF94_ENERGY>  (1) 
-0.5665

>  <PUBCHEM_FEATURE_SELFOVERLAP>  (1) 
25.386

>  <PUBCHEM_SHAPE_FINGERPRINT>  (1) 
11315181 36 16702304585420987907
12091667 2 18272089405623993823
12714333 28 16773796995768890615
13533116 47 17845934027178456398
14123256 10 10375871874552569869
1420 363 10665227047062862128
14251764 18 18334855021698760387
14251764 46 18410855460133449548
14729087 3 18410008815296498005
15048467 5 18410573989673382184
15716309 27 12179846108450664496
17834072 8 17988924478671151144
17834076 25 18202845456881880652
187816 3 16917350337925014083
20281389 69 18187080650779083444
20621476 8 18335702719979326638
20645477 70 16916515744633913774
20735858 18 12901545745656057504
20767249 213 18411138047796872676
21130983 4 18259706709476577860
21150785 3 14692569922780162848
21304253 13 18408322202544996692
22224240 67 14923945669361696056
23035841 295 9079113362880994205
23402539 116 18202558501685136733
23521765 1 18341894090939637060
246663 6 10809344425255722712
28498 318 18201159863292798558
33532 11 8502383226287739520
33684 2 18411135831303558632
3545911 37 18410573989821029774
42788 4 18410855464428423332
57583515 80 12751240315652840823
59567204 34 17774445976322710153
59755656 520 18187358853027904083
8209 1 17632577149586637892

>  <PUBCHEM_SHAPE_MULTIPOLES>  (1) 
276.37
21.24
1
0.6
3.95
0.2
0
-6.09
-0.37
-0.4
-0.01
0.02
-0.01
-0.01

>  <PUBCHEM_SHAPE_SELFOVERLAP>  (1) 
500.77

>  <PUBCHEM_SHAPE_VOLUME>  (1) 
177.5

>  <PUBCHEM_COORDINATE_TYPE>  (1) 
2
5
10

$$$$
