11514
     RDKit          3D

 11 10  0  0  0  0  0  0  0  0999 V2000
   -0.3852    0.2216   -0.5179 O   0  0  0  0  0  0  0  0  0  0  0  0
    0.8059    1.9337    0.4667 O   0  0  0  0  0  0  0  0  0  0  0  0
    2.7153   -0.6580   -0.2347 C   0  0  0  0  0  0  0  0  0  0  0  0
   -2.7552   -0.2235   -0.2522 C   0  0  0  0  0  0  0  0  0  0  0  0
    1.8979    0.3647   -1.0388 C   0  0  0  0  0  0  0  0  0  0  0  0
   -1.5780    0.6788    0.1277 C   0  0  0  0  0  0  0  0  0  0  0  0
    3.2804   -0.0398    1.0466 C   0  0  0  0  0  0  0  0  0  0  0  0
    1.8446   -1.8665    0.1146 C   0  0  0  0  0  0  0  0  0  0  0  0
    0.7410    0.9492   -0.2565 C   0  0  0  0  0  0  0  0  0  0  0  0
   -2.5149   -1.6687    0.1898 C   0  0  0  0  0  0  0  0  0  0  0  0
   -4.0517    0.3084    0.3548 C   0  0  0  0  0  0  0  0  0  0  0  0
  1  6  1  0
  1  9  1  0
  2  9  2  0
  3  5  1  0
  3  7  1  0
  3  8  1  0
  4  6  1  0
  4 10  1  0
  4 11  1  0
  5  9  1  0
M  END
>  <PUBCHEM_COMPOUND_CID>  (1) 
11514

>  <PUBCHEM_CONFORMER_RMSD>  (1) 
0.6

>  <PUBCHEM_CONFORMER_DIVERSEORDER>  (1) 
1
30
5
28
16
27
8
23
10
24
6
3
29
18
22
14
19
21
12
13
25
20
9
26
17
4
15
11
2
7

>  <PUBCHEM_MMFF94_PARTIAL_CHARGES>  (1) 
5
1 -0.43
2 -0.57
5 0.06
6 0.28
9 0.66

>  <PUBCHEM_EFFECTIVE_ROTOR_COUNT>  (1) 
5

>  <PUBCHEM_PHARMACOPHORE_FEATURES>  (1) 
3
1 2 acceptor
3 3 7 8 hydrophobe
3 4 10 11 hydrophobe

>  <PUBCHEM_HEAVY_ATOM_COUNT>  (1) 
11

>  <PUBCHEM_ATOM_DEF_STEREO_COUNT>  (1) 
0

>  <PUBCHEM_ATOM_UDEF_STEREO_COUNT>  (1) 
0

>  <PUBCHEM_BOND_DEF_STEREO_COUNT>  (1) 
0

>  <PUBCHEM_BOND_UDEF_STEREO_COUNT>  (1) 
0

>  <PUBCHEM_ISOTOPIC_ATOM_COUNT>  (1) 
0

>  <PUBCHEM_COMPONENT_COUNT>  (1) 
1

>  <PUBCHEM_CACTVS_TAUTO_COUNT>  (1) 
1

>  <PUBCHEM_CONFORMER_ID>  (1) 
00002CFA00000001

>  <PUBCHEM_MMFF94_ENERGY>  (1) 
10.2615

>  <PUBCHEM_FEATURE_SELFOVERLAP>  (1) 
15.223

>  <PUBCHEM_SHAPE_FINGERPRINT>  (1) 
10130415 120 18410859849906751601
10219947 1 16988843873670464548
10857977 72 18271798012955925504
11062470 55 17418373580192795945
12382932 28 18413103948612038098
12932764 1 18338526347343711133
14144814 61 18341055142414522001
14251717 144 18409162212612251231
14252887 29 17988372502443697086
14350558 41 18261115144958408534
14390081 3 9583519810954139103
18186145 218 11458426812556370382
20201158 50 18334295353121634139
20281407 28 18334861601694029445
20645477 70 18334857242655872959
20653091 64 18270971244531164272
20871998 22 18270404863099067286
21501925 9 18200587115938492215
230 275 9223227408326718502
232386 152 18409451405449819278
23552423 10 18191594257669353461

>  <PUBCHEM_SHAPE_MULTIPOLES>  (1) 
214.64
6.26
1.66
0.88
3.45
0.36
0.01
1.13
1.06
-0.22
0.15
-0.49
-0.07
-0.04

>  <PUBCHEM_SHAPE_SELFOVERLAP>  (1) 
395.238

>  <PUBCHEM_SHAPE_VOLUME>  (1) 
136.9

>  <PUBCHEM_COORDINATE_TYPE>  (1) 
2
5
10

$$$$
