11523
     RDKit          3D

  8  8  0  0  0  0  0  0  0  0999 V2000
    1.4481    0.0001    0.3345 C   0  0  0  0  0  0  0  0  0  0  0  0
   -1.4478   -0.0001   -0.3344 C   0  0  0  0  0  0  0  0  0  0  0  0
    0.7429    1.2628   -0.1769 C   0  0  0  0  0  0  0  0  0  0  0  0
    0.7430   -1.2625   -0.1770 C   0  0  0  0  0  0  0  0  0  0  0  0
   -0.7431    1.2626    0.1775 C   0  0  0  0  0  0  0  0  0  0  0  0
   -0.7429   -1.2625    0.1776 C   0  0  0  0  0  0  0  0  0  0  0  0
    2.9192   -0.0002   -0.0763 C   0  0  0  0  0  0  0  0  0  0  0  0
   -2.9193   -0.0002    0.0750 C   0  0  0  0  0  0  0  0  0  0  0  0
  1  3  1  0
  1  4  1  0
  1  7  1  0
  2  5  1  0
  2  6  1  0
  2  8  1  0
  3  5  1  0
  4  6  1  0
M  END
>  <PUBCHEM_COMPOUND_CID>  (1) 
11523

>  <PUBCHEM_CONFORMER_RMSD>  (1) 
0.4

>  <PUBCHEM_CONFORMER_DIVERSEORDER>  (1) 
1
2
3
4

>  <PUBCHEM_MMFF94_PARTIAL_CHARGES>  (1) 
0

>  <PUBCHEM_EFFECTIVE_ROTOR_COUNT>  (1) 
1.2

>  <PUBCHEM_PHARMACOPHORE_FEATURES>  (1) 
1
6 1 2 3 4 5 6 rings

>  <PUBCHEM_HEAVY_ATOM_COUNT>  (1) 
8

>  <PUBCHEM_ATOM_DEF_STEREO_COUNT>  (1) 
0

>  <PUBCHEM_ATOM_UDEF_STEREO_COUNT>  (1) 
0

>  <PUBCHEM_BOND_DEF_STEREO_COUNT>  (1) 
0

>  <PUBCHEM_BOND_UDEF_STEREO_COUNT>  (1) 
0

>  <PUBCHEM_ISOTOPIC_ATOM_COUNT>  (1) 
0

>  <PUBCHEM_COMPONENT_COUNT>  (1) 
1

>  <PUBCHEM_CACTVS_TAUTO_COUNT>  (1) 
1

>  <PUBCHEM_CONFORMER_ID>  (1) 
00002D0300000001

>  <PUBCHEM_MMFF94_ENERGY>  (1) 
4.9509

>  <PUBCHEM_FEATURE_SELFOVERLAP>  (1) 
5.074

>  <PUBCHEM_SHAPE_FINGERPRINT>  (1) 
10857977 72 18408878564202253691
14325111 11 18410855455838592676
15310529 11 16588013606876740224
16714656 1 18410575089174311094
16945 1 18410851066376617990
18185500 45 18411132549964401263
21040471 1 18338795727233463211
23235685 24 18410852165888310724
23402655 69 18195508322092327061
23552423 10 18045787788560457638
241688 4 17905895777264716040
2748010 2 18122624126204030877
29004967 10 18334861601752006385
5084963 1 18272651242278876977

>  <PUBCHEM_SHAPE_MULTIPOLES>  (1) 
164.64
3.55
1.41
0.66
0
0
0
0
0
0
0
0
0
0

>  <PUBCHEM_SHAPE_SELFOVERLAP>  (1) 
312.051

>  <PUBCHEM_SHAPE_VOLUME>  (1) 
99.9

>  <PUBCHEM_COORDINATE_TYPE>  (1) 
2
5
10

$$$$
