11521
     RDKit          3D

  8  7  0  0  0  0  0  0  0  0999 V2000
   -0.1292   -0.5086   -0.0007 O   0  0  0  0  0  0  0  0  0  0  0  0
    1.1842    1.3761    0.0008 O   0  0  0  0  0  0  0  0  0  0  0  0
    3.3952   -0.1908    0.0007 O   0  0  0  0  0  0  0  0  0  0  0  0
    2.1063   -0.7385   -0.0023 N   0  0  0  0  0  0  0  0  0  0  0  0
   -2.5211   -0.5981    0.0047 C   0  0  0  0  0  0  0  0  0  0  0  0
   -1.2956    0.3027    0.0040 C   0  0  0  0  0  0  0  0  0  0  0  0
   -3.8108    0.2028   -0.0054 C   0  0  0  0  0  0  0  0  0  0  0  0
    1.0710    0.1544   -0.0018 C   0  0  0  0  0  0  0  0  0  0  0  0
  1  6  1  0
  1  8  1  0
  2  8  2  0
  3  4  1  0
  4  8  1  0
  5  6  1  0
  5  7  1  0
M  END
>  <PUBCHEM_COMPOUND_CID>  (1) 
11521

>  <PUBCHEM_CONFORMER_RMSD>  (1) 
0.6

>  <PUBCHEM_CONFORMER_DIVERSEORDER>  (1) 
1
6
3
11
12
9
2
5
8
4
7
10

>  <PUBCHEM_MMFF94_PARTIAL_CHARGES>  (1) 
8
1 -0.43
16 0.37
17 0.4
2 -0.57
3 -0.44
4 -0.39
6 0.28
8 0.78

>  <PUBCHEM_EFFECTIVE_ROTOR_COUNT>  (1) 
4

>  <PUBCHEM_PHARMACOPHORE_FEATURES>  (1) 
3
1 2 acceptor
1 4 donor
1 7 hydrophobe

>  <PUBCHEM_HEAVY_ATOM_COUNT>  (1) 
8

>  <PUBCHEM_ATOM_DEF_STEREO_COUNT>  (1) 
0

>  <PUBCHEM_ATOM_UDEF_STEREO_COUNT>  (1) 
0

>  <PUBCHEM_BOND_DEF_STEREO_COUNT>  (1) 
0

>  <PUBCHEM_BOND_UDEF_STEREO_COUNT>  (1) 
0

>  <PUBCHEM_ISOTOPIC_ATOM_COUNT>  (1) 
0

>  <PUBCHEM_COMPONENT_COUNT>  (1) 
1

>  <PUBCHEM_CACTVS_TAUTO_COUNT>  (1) 
3

>  <PUBCHEM_CONFORMER_ID>  (1) 
00002D0100000001

>  <PUBCHEM_MMFF94_ENERGY>  (1) 
5.7536

>  <PUBCHEM_FEATURE_SELFOVERLAP>  (1) 
15.223

>  <PUBCHEM_SHAPE_FINGERPRINT>  (1) 
11062470 55 17274821350486203235
12932764 1 16805871983608443027
14325111 11 18410575132298109283
14390081 3 18410571821121151105
29004967 10 18411421696058722722
3248919 1 16702034105512900151
5460574 1 9223230745321017987

>  <PUBCHEM_SHAPE_MULTIPOLES>  (1) 
142.05
5.76
0.93
0.57
1.48
0.19
0
-0.39
0.01
-0.2
0
0.09
0
0

>  <PUBCHEM_SHAPE_SELFOVERLAP>  (1) 
257.086

>  <PUBCHEM_SHAPE_VOLUME>  (1) 
91.3

>  <PUBCHEM_COORDINATE_TYPE>  (1) 
2
5
10

$$$$
