11527
     RDKit          3D

  9  8  0  0  1  0  0  0  0  0999 V2000
    2.6985   -1.4471    0.0229 O   0  0  0  0  0  0  0  0  0  0  0  0
    0.3624   -0.8211    0.1413 C   0  0  0  0  0  0  0  0  0  0  0  0
   -0.7376    0.1699   -0.2599 C   0  0  0  0  0  0  0  0  0  0  0  0
    1.7765   -0.4061   -0.2910 C   0  0  0  0  0  0  0  0  0  0  0  0
   -2.1207   -0.3528    0.1397 C   0  0  0  0  0  0  0  0  0  0  0  0
    2.2508    0.8947    0.3643 C   0  0  0  0  0  0  0  0  0  0  0  0
   -3.2578    0.6095   -0.2100 C   0  0  0  0  0  0  0  0  0  0  0  0
    3.6632    1.2707   -0.0683 C   0  0  0  0  0  0  0  0  0  0  0  0
   -4.6354    0.0824    0.1608 C   0  0  0  0  0  0  0  0  0  0  0  0
  1  4  1  0
  2  3  1  0
  2  4  1  0
  3  5  1  0
  4  6  1  0
  5  7  1  0
  6  8  1  0
  7  9  1  0
M  END
>  <PUBCHEM_COMPOUND_CID>  (1) 
11527

>  <PUBCHEM_CONFORMER_RMSD>  (1) 
0.6

>  <PUBCHEM_CONFORMER_DIVERSEORDER>  (1) 
1
57
95
65
108
74
32
109
39
103
93
113
25
81
92
46
51
70
96
53
20
107
17
112
4
28
105
87
5
64
15
44
101
84
106
23
102
12
99
9
6
114
82
10
19
83
94
52
29
49
111
98
34
110
62
24
90
3
89
76
21
67
100
42
37
55
8
45
104
13
97
31
27
63
54
91
35
47
69
66
7
78
58
22
26
79
40
48
72
14
86
56
85
33
2
50
16
30
43
18
88
77
68
36
75
11
61
41
60
73
59
80
38
71

>  <PUBCHEM_MMFF94_PARTIAL_CHARGES>  (1) 
3
1 -0.68
27 0.4
4 0.28

>  <PUBCHEM_EFFECTIVE_ROTOR_COUNT>  (1) 
5

>  <PUBCHEM_PHARMACOPHORE_FEATURES>  (1) 
5
1 1 acceptor
1 1 donor
1 8 hydrophobe
1 9 hydrophobe
4 2 3 5 7 hydrophobe

>  <PUBCHEM_HEAVY_ATOM_COUNT>  (1) 
9

>  <PUBCHEM_ATOM_DEF_STEREO_COUNT>  (1) 
0

>  <PUBCHEM_ATOM_UDEF_STEREO_COUNT>  (1) 
1

>  <PUBCHEM_BOND_DEF_STEREO_COUNT>  (1) 
0

>  <PUBCHEM_BOND_UDEF_STEREO_COUNT>  (1) 
0

>  <PUBCHEM_ISOTOPIC_ATOM_COUNT>  (1) 
0

>  <PUBCHEM_COMPONENT_COUNT>  (1) 
1

>  <PUBCHEM_CACTVS_TAUTO_COUNT>  (1) 
1

>  <PUBCHEM_CONFORMER_ID>  (1) 
00002D0700000001

>  <PUBCHEM_MMFF94_ENERGY>  (1) 
1.4403

>  <PUBCHEM_FEATURE_SELFOVERLAP>  (1) 
25.372

>  <PUBCHEM_SHAPE_FINGERPRINT>  (1) 
11062470 55 18408886243846482197
12932764 1 17676760990194949359
14325111 11 18410855460465862879
14390081 3 18409446981733548973
15775835 57 18272651280938909428
170605 34 18335700559257322778
190213 19 12319732570938303347
20606313 2 18411980273493077312
20645477 70 18342176626810680655
20711983 171 17131280060478382865
21119208 17 16343990229538693060
21293036 1 15913330220915428257
23402655 69 18201434757973533613
3248919 1 17203333286386773495
449060 50 18334579078919495373
449060 62 18413110580173418268

>  <PUBCHEM_SHAPE_MULTIPOLES>  (1) 
179.35
7.96
1.21
0.65
5.35
0.09
0
-2.07
0.22
-1.17
0.02
0.01
-0.03
0.11

>  <PUBCHEM_SHAPE_SELFOVERLAP>  (1) 
314.241

>  <PUBCHEM_SHAPE_VOLUME>  (1) 
118.9

>  <PUBCHEM_COORDINATE_TYPE>  (1) 
2
5
10

$$$$
