11526
     RDKit          3D

  8  8  0  0  0  0  0  0  0  0999 V2000
   -0.7233   -1.1930   -0.0005 N   0  0  0  0  0  0  0  0  0  0  0  0
    1.3834   -0.0070   -0.0002 C   0  0  0  0  0  0  0  0  0  0  0  0
   -1.3453    0.0072   -0.0006 C   0  0  0  0  0  0  0  0  0  0  0  0
    0.7076    1.2082   -0.0002 C   0  0  0  0  0  0  0  0  0  0  0  0
   -0.6829    1.2241   -0.0004 C   0  0  0  0  0  0  0  0  0  0  0  0
    0.6283   -1.1688   -0.0001 C   0  0  0  0  0  0  0  0  0  0  0  0
    2.8697   -0.0576    0.0009 C   0  0  0  0  0  0  0  0  0  0  0  0
   -2.8375   -0.0131    0.0012 C   0  0  0  0  0  0  0  0  0  0  0  0
  1  3  2  0
  1  6  1  0
  2  4  1  0
  2  6  2  0
  2  7  1  0
  3  5  1  0
  3  8  1  0
  4  5  2  0
M  END
>  <PUBCHEM_COMPOUND_CID>  (1) 
11526

>  <PUBCHEM_CONFORMER_RMSD>  (1) 
0.4

>  <PUBCHEM_CONFORMER_DIVERSEORDER>  (1) 
1

>  <PUBCHEM_MMFF94_PARTIAL_CHARGES>  (1) 
11
1 -0.62
10 0.15
11 0.15
2 -0.14
3 0.17
4 -0.15
5 -0.15
6 0.16
7 0.14
8 0.14
9 0.15

>  <PUBCHEM_EFFECTIVE_ROTOR_COUNT>  (1) 
0

>  <PUBCHEM_PHARMACOPHORE_FEATURES>  (1) 
2
1 1 acceptor
6 1 2 3 4 5 6 rings

>  <PUBCHEM_HEAVY_ATOM_COUNT>  (1) 
8

>  <PUBCHEM_ATOM_DEF_STEREO_COUNT>  (1) 
0

>  <PUBCHEM_ATOM_UDEF_STEREO_COUNT>  (1) 
0

>  <PUBCHEM_BOND_DEF_STEREO_COUNT>  (1) 
0

>  <PUBCHEM_BOND_UDEF_STEREO_COUNT>  (1) 
0

>  <PUBCHEM_ISOTOPIC_ATOM_COUNT>  (1) 
0

>  <PUBCHEM_COMPONENT_COUNT>  (1) 
1

>  <PUBCHEM_CACTVS_TAUTO_COUNT>  (1) 
1

>  <PUBCHEM_CONFORMER_ID>  (1) 
00002D0600000001

>  <PUBCHEM_MMFF94_ENERGY>  (1) 
17.7265

>  <PUBCHEM_FEATURE_SELFOVERLAP>  (1) 
10.148

>  <PUBCHEM_SHAPE_FINGERPRINT>  (1) 
15310529 11 16660354874967368924
16714656 1 18410576184380448068
18185500 45 18410571807603090559
21040471 1 18266740366578555173
23235685 24 18411133640870322124
23402655 69 18195508317797392237
23552423 10 18116151267234447070
2748010 2 18122344850250582276
29004967 10 18333737905126489353
5084963 1 18343864415681698712

>  <PUBCHEM_SHAPE_MULTIPOLES>  (1) 
159.66
3.41
1.3
0.61
0.03
0.05
0
-0.13
0
0
0
-0.01
0.01
0

>  <PUBCHEM_SHAPE_SELFOVERLAP>  (1) 
325.369

>  <PUBCHEM_SHAPE_VOLUME>  (1) 
93

>  <PUBCHEM_COORDINATE_TYPE>  (1) 
2
5
10

$$$$
