11531
     RDKit          3D

 10  9  0  0  0  0  0  0  0  0999 V2000
    4.6731    0.0610   -0.0416 F   0  0  0  0  0  0  0  0  0  0  0  0
    2.3566    1.3301   -0.0113 O   0  0  0  0  0  0  0  0  0  0  0  0
   -1.5428   -0.5918    0.0314 C   0  0  0  0  0  0  0  0  0  0  0  0
   -2.7672    0.3256    0.0497 C   0  0  0  0  0  0  0  0  0  0  0  0
   -0.2428    0.2170    0.0818 C   0  0  0  0  0  0  0  0  0  0  0  0
   -4.0645   -0.4769   -0.0469 C   0  0  0  0  0  0  0  0  0  0  0  0
    0.9988   -0.6720    0.0300 C   0  0  0  0  0  0  0  0  0  0  0  0
   -5.2825    0.4330   -0.0615 C   0  0  0  0  0  0  0  0  0  0  0  0
    2.3069    0.1013    0.0043 C   0  0  0  0  0  0  0  0  0  0  0  0
    3.5646   -0.7272   -0.0360 C   0  0  0  0  0  0  0  0  0  0  0  0
  1 10  1  0
  2  9  2  0
  3  4  1  0
  3  5  1  0
  4  6  1  0
  5  7  1  0
  6  8  1  0
  7  9  1  0
  9 10  1  0
M  END
>  <PUBCHEM_COMPOUND_CID>  (1) 
11531

>  <PUBCHEM_CONFORMER_RMSD>  (1) 
0.6

>  <PUBCHEM_CONFORMER_DIVERSEORDER>  (1) 
1
279
238
286
51
184
25
23
276
164
288
4
214
264
77
240
115
290
172
248
274
7
269
70
154
271
106
6
272
263
38
281
59
20
19
179
268
34
36
275
63
135
109
12
227
216
242
30
118
284
123
232
18
69
270
8
283
29
111
267
86
32
254
44
11
234
192
94
251
289
37
100
231
282
130
262
243
87
143
62
40
49
170
108
230
27
127
167
233
207
2
61
229
79
105
221
278
50
26
285
99
97
88
125
147
222
124
261
92
102
291
159
46
137
121
250
156
253
116
117
186
153
258
3
195
226
47
180
157
141
201
33
219
259
85
197
206
213
260
256
196
103
57
266
277
134
112
91
65
225
93
96
257
215
132
211
246
223
210
189
22
245
169
155
17
235
183
208
152
84
273
202
10
55
187
14
168
148
13
287
122
194
133
113
66
64
56
166
185
174
58
5
220
28
136
224
43
237
98
129
175
104
280
101
45
15
247
16
74
75
151
252
191
205
236
163
82
158
178
80
173
9
39
190
218
142
161
255
138
182
73
95
68
90
24
110
52
67
120
249
228
107
171
41
160
140
114
21
209
181
145
146
42
54
83
48
131
31
193
198
144
126
199
241
165
149
203
244
212
81
200
162
176
128
265
150
78
217
71
89
35
177
239
72
76
204
60
119
139
188
53

>  <PUBCHEM_MMFF94_PARTIAL_CHARGES>  (1) 
5
1 -0.34
10 0.4
2 -0.57
7 0.06
9 0.45

>  <PUBCHEM_EFFECTIVE_ROTOR_COUNT>  (1) 
6

>  <PUBCHEM_PHARMACOPHORE_FEATURES>  (1) 
3
1 2 acceptor
1 8 hydrophobe
5 3 4 5 6 7 hydrophobe

>  <PUBCHEM_HEAVY_ATOM_COUNT>  (1) 
10

>  <PUBCHEM_ATOM_DEF_STEREO_COUNT>  (1) 
0

>  <PUBCHEM_ATOM_UDEF_STEREO_COUNT>  (1) 
0

>  <PUBCHEM_BOND_DEF_STEREO_COUNT>  (1) 
0

>  <PUBCHEM_BOND_UDEF_STEREO_COUNT>  (1) 
0

>  <PUBCHEM_ISOTOPIC_ATOM_COUNT>  (1) 
0

>  <PUBCHEM_COMPONENT_COUNT>  (1) 
1

>  <PUBCHEM_CACTVS_TAUTO_COUNT>  (1) 
3

>  <PUBCHEM_CONFORMER_ID>  (1) 
00002D0B00000001

>  <PUBCHEM_MMFF94_ENERGY>  (1) 
-0.9122

>  <PUBCHEM_FEATURE_SELFOVERLAP>  (1) 
15.223

>  <PUBCHEM_SHAPE_FINGERPRINT>  (1) 
11062470 55 18335139791316151211
12932764 1 17023168466189199435
14123238 8 11312054353136950379
14325111 11 18410575115107768571
17834076 25 16370725920510377283
190213 19 17561085808658977539
20645477 70 18200032832997700078
20719005 15 18410856564388495979
20767249 13 11527946751158754485
21119208 17 18272932721756289671
22485316 2 10015866470704367653
23402539 116 17988636389940624981
23402655 69 18341891870736957325
366044 4 18334857221218174075
42788 4 18410292506164635791
449060 50 9295282841806159923

>  <PUBCHEM_SHAPE_MULTIPOLES>  (1) 
192.65
10.32
0.93
0.6
4.27
0.1
0
0.51
0.34
-0.29
0
0.08
-0.01
0

>  <PUBCHEM_SHAPE_SELFOVERLAP>  (1) 
347.506

>  <PUBCHEM_SHAPE_VOLUME>  (1) 
123.8

>  <PUBCHEM_COORDINATE_TYPE>  (1) 
2
5
10

$$$$
