11535
     RDKit          3D

  4  3  0  0  0  0  0  0  0  0999 V2000
   -1.8156    0.3958    0.0000 C   0  0  0  0  0  0  0  0  0  0  0  0
   -0.6365   -0.5182    0.0000 C   0  0  0  0  0  0  0  0  0  0  0  0
    0.6061   -0.1313    0.0000 C   0  0  0  0  0  0  0  0  0  0  0  0
    1.8460    0.2537    0.0000 C   0  0  0  0  0  0  0  0  0  0  0  0
  1  2  1  0
  2  3  2  0
  3  4  2  0
M  END
>  <PUBCHEM_COMPOUND_CID>  (1) 
11535

>  <PUBCHEM_CONFORMER_RMSD>  (1) 
0.4

>  <PUBCHEM_CONFORMER_DIVERSEORDER>  (1) 
1

>  <PUBCHEM_MMFF94_PARTIAL_CHARGES>  (1) 
7
1 0.14
10 0.15
2 -0.22
3 -0.13
4 -0.24
8 0.15
9 0.15

>  <PUBCHEM_EFFECTIVE_ROTOR_COUNT>  (1) 
0

>  <PUBCHEM_PHARMACOPHORE_FEATURES>  (1) 
2
1 1 hydrophobe
1 4 hydrophobe

>  <PUBCHEM_HEAVY_ATOM_COUNT>  (1) 
4

>  <PUBCHEM_ATOM_DEF_STEREO_COUNT>  (1) 
0

>  <PUBCHEM_ATOM_UDEF_STEREO_COUNT>  (1) 
0

>  <PUBCHEM_BOND_DEF_STEREO_COUNT>  (1) 
0

>  <PUBCHEM_BOND_UDEF_STEREO_COUNT>  (1) 
0

>  <PUBCHEM_ISOTOPIC_ATOM_COUNT>  (1) 
0

>  <PUBCHEM_COMPONENT_COUNT>  (1) 
1

>  <PUBCHEM_CACTVS_TAUTO_COUNT>  (1) 
1

>  <PUBCHEM_CONFORMER_ID>  (1) 
00002D0F00000001

>  <PUBCHEM_MMFF94_ENERGY>  (1) 
0.0497

>  <PUBCHEM_FEATURE_SELFOVERLAP>  (1) 
10.149

>  <PUBCHEM_SHAPE_FINGERPRINT>  (1) 
139733 1 18410856546855120967
20096714 4 9583512135831906210
21015797 1 18047193226197203286
5460574 1 18410856551107883748

>  <PUBCHEM_SHAPE_MULTIPOLES>  (1) 
82.32
2.49
0.74
0.62
0.07
0.02
0
-0.48
0
-0.08
0
0
0
0

>  <PUBCHEM_SHAPE_SELFOVERLAP>  (1) 
140.087

>  <PUBCHEM_SHAPE_VOLUME>  (1) 
55.5

>  <PUBCHEM_COORDINATE_TYPE>  (1) 
2
5
10

$$$$
