11542
     RDKit          3D

  7  6  0  0  0  0  0  0  0  0999 V2000
    0.9202    0.0238   -0.0002 C   0  0  0  0  0  0  0  0  0  0  0  0
   -0.5190    0.6026    0.0503 C   0  0  0  0  0  0  0  0  0  0  0  0
   -1.6529   -0.4273    0.0052 C   0  0  0  0  0  0  0  0  0  0  0  0
    1.2033   -0.8714    1.2174 C   0  0  0  0  0  0  0  0  0  0  0  0
    1.1500   -0.7849   -1.2876 C   0  0  0  0  0  0  0  0  0  0  0  0
    1.9128    1.2031    0.0194 C   0  0  0  0  0  0  0  0  0  0  0  0
   -3.0143    0.2540   -0.0046 C   0  0  0  0  0  0  0  0  0  0  0  0
  1  2  1  0
  1  4  1  0
  1  5  1  0
  1  6  1  0
  2  3  1  0
  3  7  1  0
M  END
>  <PUBCHEM_COMPOUND_CID>  (1) 
11542

>  <PUBCHEM_CONFORMER_RMSD>  (1) 
0.4

>  <PUBCHEM_CONFORMER_DIVERSEORDER>  (1) 
1
2

>  <PUBCHEM_MMFF94_PARTIAL_CHARGES>  (1) 
0

>  <PUBCHEM_EFFECTIVE_ROTOR_COUNT>  (1) 
2

>  <PUBCHEM_PHARMACOPHORE_FEATURES>  (1) 
2
1 7 hydrophobe
4 1 4 5 6 hydrophobe

>  <PUBCHEM_HEAVY_ATOM_COUNT>  (1) 
7

>  <PUBCHEM_ATOM_DEF_STEREO_COUNT>  (1) 
0

>  <PUBCHEM_ATOM_UDEF_STEREO_COUNT>  (1) 
0

>  <PUBCHEM_BOND_DEF_STEREO_COUNT>  (1) 
0

>  <PUBCHEM_BOND_UDEF_STEREO_COUNT>  (1) 
0

>  <PUBCHEM_ISOTOPIC_ATOM_COUNT>  (1) 
0

>  <PUBCHEM_COMPONENT_COUNT>  (1) 
1

>  <PUBCHEM_CACTVS_TAUTO_COUNT>  (1) 
1

>  <PUBCHEM_CONFORMER_ID>  (1) 
00002D1600000001

>  <PUBCHEM_MMFF94_ENERGY>  (1) 
10.1439

>  <PUBCHEM_FEATURE_SELFOVERLAP>  (1) 
10.149

>  <PUBCHEM_SHAPE_FINGERPRINT>  (1) 
12932764 1 18113622261931654741
14390081 3 18335983146799712309
21040471 1 17313677056171786010
23552333 60 18409729534578317777
23552449 11 18261945258930929219
24536 1 18060134293572993113
29004967 10 17918000481163580251
3248919 1 18060696174511989937
5460574 1 9223237347144668369
5943 1 14383831864027444622

>  <PUBCHEM_SHAPE_MULTIPOLES>  (1) 
144.06
3.38
1.11
1.07
3
0.11
0.05
0.49
-0.02
-0.53
-0.03
-0.53
-0.37
-0.01

>  <PUBCHEM_SHAPE_SELFOVERLAP>  (1) 
253.121

>  <PUBCHEM_SHAPE_VOLUME>  (1) 
98.2

>  <PUBCHEM_COORDINATE_TYPE>  (1) 
2
5
10

$$$$
