11549
     RDKit          3D

  8  8  0  0  0  0  0  0  0  0999 V2000
    0.9242    0.0000   -0.0158 C   0  0  0  0  0  0  0  0  0  0  0  0
    0.1177   -1.2652   -0.3875 C   0  0  0  0  0  0  0  0  0  0  0  0
    0.1178    1.2652   -0.3874 C   0  0  0  0  0  0  0  0  0  0  0  0
   -1.3064   -1.2630    0.1680 C   0  0  0  0  0  0  0  0  0  0  0  0
   -1.3062    1.2631    0.1682 C   0  0  0  0  0  0  0  0  0  0  0  0
   -2.0633    0.0001   -0.2266 C   0  0  0  0  0  0  0  0  0  0  0  0
    2.2470    0.0001   -0.8049 C   0  0  0  0  0  0  0  0  0  0  0  0
    1.2692   -0.0003    1.4860 C   0  0  0  0  0  0  0  0  0  0  0  0
  1  2  1  0
  1  3  1  0
  1  7  1  0
  1  8  1  0
  2  4  1  0
  3  5  1  0
  4  6  1  0
  5  6  1  0
M  END
>  <PUBCHEM_COMPOUND_CID>  (1) 
11549

>  <PUBCHEM_CONFORMER_RMSD>  (1) 
0.4

>  <PUBCHEM_CONFORMER_DIVERSEORDER>  (1) 
1
2
3

>  <PUBCHEM_MMFF94_PARTIAL_CHARGES>  (1) 
0

>  <PUBCHEM_EFFECTIVE_ROTOR_COUNT>  (1) 
1.2

>  <PUBCHEM_PHARMACOPHORE_FEATURES>  (1) 
2
3 1 7 8 hydrophobe
6 1 2 3 4 5 6 rings

>  <PUBCHEM_HEAVY_ATOM_COUNT>  (1) 
8

>  <PUBCHEM_ATOM_DEF_STEREO_COUNT>  (1) 
0

>  <PUBCHEM_ATOM_UDEF_STEREO_COUNT>  (1) 
0

>  <PUBCHEM_BOND_DEF_STEREO_COUNT>  (1) 
0

>  <PUBCHEM_BOND_UDEF_STEREO_COUNT>  (1) 
0

>  <PUBCHEM_ISOTOPIC_ATOM_COUNT>  (1) 
0

>  <PUBCHEM_COMPONENT_COUNT>  (1) 
1

>  <PUBCHEM_CACTVS_TAUTO_COUNT>  (1) 
1

>  <PUBCHEM_CONFORMER_ID>  (1) 
00002D1D00000001

>  <PUBCHEM_MMFF94_ENERGY>  (1) 
11.3401

>  <PUBCHEM_FEATURE_SELFOVERLAP>  (1) 
10.148

>  <PUBCHEM_SHAPE_FINGERPRINT>  (1) 
137420 1 10958822223597765044
15310529 11 16515680039905112013
16714656 1 18410584980315201876
16945 1 18410580582221217855
18185500 45 18040706000250732627
21040471 1 18267298729649420125
21922407 69 16877942724129898521
23235685 24 18410858720330307317
23552423 10 18188500068592666206
24536 1 18341606066174684389
29004967 10 15913333455294730174
5084963 1 18269269067307882687
5943 1 17387384914321037442

>  <PUBCHEM_SHAPE_MULTIPOLES>  (1) 
164.64
2.52
1.42
1.02
0.12
0
0.33
0
-0.26
-0.47
-0.09
0.51
0
0

>  <PUBCHEM_SHAPE_SELFOVERLAP>  (1) 
315.29

>  <PUBCHEM_SHAPE_VOLUME>  (1) 
101.6

>  <PUBCHEM_COORDINATE_TYPE>  (1) 
2
5
10

$$$$
