11543
     RDKit          3D

  7  6  0  0  0  0  0  0  0  0999 V2000
   -1.0421   -0.2297   -1.3962 O   0  0  0  0  0  0  0  0  0  0  0  0
   -0.9195    0.0209    0.0056 C   0  0  0  0  0  0  0  0  0  0  0  0
    0.4996    0.5581    0.2806 C   0  0  0  0  0  0  0  0  0  0  0  0
    1.6299   -0.3935   -0.1302 C   0  0  0  0  0  0  0  0  0  0  0  0
   -1.9546    1.0851    0.3853 C   0  0  0  0  0  0  0  0  0  0  0  0
   -1.2083   -1.2800    0.7578 C   0  0  0  0  0  0  0  0  0  0  0  0
    2.9951    0.2392    0.0971 C   0  0  0  0  0  0  0  0  0  0  0  0
  1  2  1  0
  2  3  1  0
  2  5  1  0
  2  6  1  0
  3  4  1  0
  4  7  1  0
M  END
>  <PUBCHEM_COMPOUND_CID>  (1) 
11543

>  <PUBCHEM_CONFORMER_RMSD>  (1) 
0.4

>  <PUBCHEM_CONFORMER_DIVERSEORDER>  (1) 
1
4
2
5
3

>  <PUBCHEM_MMFF94_PARTIAL_CHARGES>  (1) 
3
1 -0.68
2 0.28
21 0.4

>  <PUBCHEM_EFFECTIVE_ROTOR_COUNT>  (1) 
2

>  <PUBCHEM_PHARMACOPHORE_FEATURES>  (1) 
4
1 1 acceptor
1 1 donor
1 7 hydrophobe
3 2 5 6 hydrophobe

>  <PUBCHEM_HEAVY_ATOM_COUNT>  (1) 
7

>  <PUBCHEM_ATOM_DEF_STEREO_COUNT>  (1) 
0

>  <PUBCHEM_ATOM_UDEF_STEREO_COUNT>  (1) 
0

>  <PUBCHEM_BOND_DEF_STEREO_COUNT>  (1) 
0

>  <PUBCHEM_BOND_UDEF_STEREO_COUNT>  (1) 
0

>  <PUBCHEM_ISOTOPIC_ATOM_COUNT>  (1) 
0

>  <PUBCHEM_COMPONENT_COUNT>  (1) 
1

>  <PUBCHEM_CACTVS_TAUTO_COUNT>  (1) 
1

>  <PUBCHEM_CONFORMER_ID>  (1) 
00002D1700000001

>  <PUBCHEM_MMFF94_ENERGY>  (1) 
8.8284

>  <PUBCHEM_FEATURE_SELFOVERLAP>  (1) 
20.297

>  <PUBCHEM_SHAPE_FINGERPRINT>  (1) 
14390081 3 18131347510136653568
16714656 1 17095525088766740811
21040471 1 18262807245955915249
23235687 12 17531254980186951870
24536 1 18336537317639280256
29004967 10 18272378593845023106
369184 2 16805316717166956432
5460574 1 7997967972918935040
5943 1 16809019945528320847

>  <PUBCHEM_SHAPE_MULTIPOLES>  (1) 
138.19
3.4
1.11
0.93
2.7
0.17
0.26
-0.47
-0.3
-0.58
-0.23
-0.31
0.07
0.05

>  <PUBCHEM_SHAPE_SELFOVERLAP>  (1) 
244.231

>  <PUBCHEM_SHAPE_VOLUME>  (1) 
92.3

>  <PUBCHEM_COORDINATE_TYPE>  (1) 
2
5
10

$$$$
