11544
     RDKit          3D

  7  6  0  0  0  0  0  0  0  0999 V2000
    2.8077    0.2102   -0.0007 S   0  0  0  0  0  0  0  0  0  0  0  0
    0.2797   -0.9097    0.0029 N   0  0  0  0  0  0  0  0  0  0  0  0
   -0.8343    0.0489   -0.0001 C   0  0  0  0  0  0  0  0  0  0  0  0
   -0.7272    0.9092   -1.2587 C   0  0  0  0  0  0  0  0  0  0  0  0
   -2.1383   -0.7482   -0.0029 C   0  0  0  0  0  0  0  0  0  0  0  0
   -0.7331    0.9106    1.2581 C   0  0  0  0  0  0  0  0  0  0  0  0
    1.3454   -0.4209    0.0013 C   0  0  0  0  0  0  0  0  0  0  0  0
  1  7  2  0
  2  3  1  0
  2  7  2  0
  3  4  1  0
  3  5  1  0
  3  6  1  0
M  END
>  <PUBCHEM_COMPOUND_CID>  (1) 
11544

>  <PUBCHEM_CONFORMER_RMSD>  (1) 
0.4

>  <PUBCHEM_CONFORMER_DIVERSEORDER>  (1) 
1
2

>  <PUBCHEM_MMFF94_PARTIAL_CHARGES>  (1) 
4
1 -0.27
2 -0.55
3 0.25
7 0.57

>  <PUBCHEM_EFFECTIVE_ROTOR_COUNT>  (1) 
1

>  <PUBCHEM_PHARMACOPHORE_FEATURES>  (1) 
3
1 1 acceptor
1 2 acceptor
4 3 4 5 6 hydrophobe

>  <PUBCHEM_HEAVY_ATOM_COUNT>  (1) 
7

>  <PUBCHEM_ATOM_DEF_STEREO_COUNT>  (1) 
0

>  <PUBCHEM_ATOM_UDEF_STEREO_COUNT>  (1) 
0

>  <PUBCHEM_BOND_DEF_STEREO_COUNT>  (1) 
0

>  <PUBCHEM_BOND_UDEF_STEREO_COUNT>  (1) 
0

>  <PUBCHEM_ISOTOPIC_ATOM_COUNT>  (1) 
0

>  <PUBCHEM_COMPONENT_COUNT>  (1) 
1

>  <PUBCHEM_CACTVS_TAUTO_COUNT>  (1) 
1

>  <PUBCHEM_CONFORMER_ID>  (1) 
00002D1800000001

>  <PUBCHEM_MMFF94_ENERGY>  (1) 
15.6789

>  <PUBCHEM_FEATURE_SELFOVERLAP>  (1) 
15.228

>  <PUBCHEM_SHAPE_FINGERPRINT>  (1) 
137420 1 15581456062344647529
14128692 85 18048040958473985263
16714656 1 18260545662270169638
20096714 4 17700987543507028440
23552449 1 17822283557333268708
24536 1 17914606172947073402
29004967 10 17676497167491426027
369184 2 16153423956702285024
5084963 1 18334576837131040170
5460574 1 9295294941087696226
5943 1 15249011497688783777

>  <PUBCHEM_SHAPE_MULTIPOLES>  (1) 
142.93
3.14
1.07
1.06
2.12
0.01
-0.06
0
0.3
-0.33
-0.41
-0.26
0
0

>  <PUBCHEM_SHAPE_SELFOVERLAP>  (1) 
257.545

>  <PUBCHEM_SHAPE_VOLUME>  (1) 
95

>  <PUBCHEM_COORDINATE_TYPE>  (1) 
2
5
10

$$$$
