11550
     RDKit          3D

  8  8  0  0  0  0  0  0  0  0999 V2000
    1.1081    0.0160   -1.4067 O   0  0  0  0  0  0  0  0  0  0  0  0
    0.9205   -0.0054    0.0116 C   0  0  0  0  0  0  0  0  0  0  0  0
    0.1442    1.2606    0.4057 C   0  0  0  0  0  0  0  0  0  0  0  0
    0.1352   -1.2705    0.3939 C   0  0  0  0  0  0  0  0  0  0  0  0
   -1.2810    1.2644   -0.1501 C   0  0  0  0  0  0  0  0  0  0  0  0
   -1.2887   -1.2590   -0.1641 C   0  0  0  0  0  0  0  0  0  0  0  0
   -2.0419    0.0027    0.2445 C   0  0  0  0  0  0  0  0  0  0  0  0
    2.3036   -0.0088    0.6650 C   0  0  0  0  0  0  0  0  0  0  0  0
  1  2  1  0
  2  3  1  0
  2  4  1  0
  2  8  1  0
  3  5  1  0
  4  6  1  0
  5  7  1  0
  6  7  1  0
M  END
>  <PUBCHEM_COMPOUND_CID>  (1) 
11550

>  <PUBCHEM_CONFORMER_RMSD>  (1) 
0.4

>  <PUBCHEM_CONFORMER_DIVERSEORDER>  (1) 
1
2
3
4

>  <PUBCHEM_MMFF94_PARTIAL_CHARGES>  (1) 
3
1 -0.68
2 0.28
22 0.4

>  <PUBCHEM_EFFECTIVE_ROTOR_COUNT>  (1) 
1.2

>  <PUBCHEM_PHARMACOPHORE_FEATURES>  (1) 
3
1 1 acceptor
1 1 donor
6 2 3 4 5 6 7 rings

>  <PUBCHEM_HEAVY_ATOM_COUNT>  (1) 
8

>  <PUBCHEM_ATOM_DEF_STEREO_COUNT>  (1) 
0

>  <PUBCHEM_ATOM_UDEF_STEREO_COUNT>  (1) 
0

>  <PUBCHEM_BOND_DEF_STEREO_COUNT>  (1) 
0

>  <PUBCHEM_BOND_UDEF_STEREO_COUNT>  (1) 
0

>  <PUBCHEM_ISOTOPIC_ATOM_COUNT>  (1) 
0

>  <PUBCHEM_COMPONENT_COUNT>  (1) 
1

>  <PUBCHEM_CACTVS_TAUTO_COUNT>  (1) 
1

>  <PUBCHEM_CONFORMER_ID>  (1) 
00002D1E00000001

>  <PUBCHEM_MMFF94_ENERGY>  (1) 
9.3172

>  <PUBCHEM_FEATURE_SELFOVERLAP>  (1) 
15.223

>  <PUBCHEM_SHAPE_FINGERPRINT>  (1) 
137420 1 17548425159655823694
16714656 1 18410859858190497219
18185500 45 18333728035270628483
21040471 1 18266182725341952753
23552423 10 18260268508320897474
24536 1 17489598886661860225
29004967 10 16702308952959479674
5084963 1 17969514705458847891
5943 1 15902882919300262412

>  <PUBCHEM_SHAPE_MULTIPOLES>  (1) 
158.77
2.49
1.43
0.9
0.38
0
0.23
0
-0.3
-0.45
-0.09
0.28
0
0

>  <PUBCHEM_SHAPE_SELFOVERLAP>  (1) 
306.592

>  <PUBCHEM_SHAPE_VOLUME>  (1) 
96.6

>  <PUBCHEM_COORDINATE_TYPE>  (1) 
2
5
10

$$$$
