11551
     RDKit          3D

  8  7  0  0  0  0  0  0  0  0999 V2000
   -1.4513   -0.0044    0.0147 C   0  0  0  0  0  0  0  0  0  0  0  0
   -0.0671   -0.7062    0.0390 C   0  0  0  0  0  0  0  0  0  0  0  0
    1.1522    0.2201   -0.0502 C   0  0  0  0  0  0  0  0  0  0  0  0
   -2.5940   -1.0213    0.1694 C   0  0  0  0  0  0  0  0  0  0  0  0
   -1.5595    1.0520    1.1265 C   0  0  0  0  0  0  0  0  0  0  0  0
   -1.6070    0.7020   -1.3464 C   0  0  0  0  0  0  0  0  0  0  0  0
    2.4553   -0.5769    0.0482 C   0  0  0  0  0  0  0  0  0  0  0  0
    3.6714    0.3347   -0.0011 C   0  0  0  0  0  0  0  0  0  0  0  0
  1  2  1  0
  1  4  1  0
  1  5  1  0
  1  6  1  0
  2  3  1  0
  3  7  1  0
  7  8  1  0
M  END
>  <PUBCHEM_COMPOUND_CID>  (1) 
11551

>  <PUBCHEM_CONFORMER_RMSD>  (1) 
0.6

>  <PUBCHEM_CONFORMER_DIVERSEORDER>  (1) 
1
4
3
2

>  <PUBCHEM_MMFF94_PARTIAL_CHARGES>  (1) 
0

>  <PUBCHEM_EFFECTIVE_ROTOR_COUNT>  (1) 
3

>  <PUBCHEM_PHARMACOPHORE_FEATURES>  (1) 
3
1 8 hydrophobe
4 1 2 3 7 hydrophobe
4 1 4 5 6 hydrophobe

>  <PUBCHEM_HEAVY_ATOM_COUNT>  (1) 
8

>  <PUBCHEM_ATOM_DEF_STEREO_COUNT>  (1) 
0

>  <PUBCHEM_ATOM_UDEF_STEREO_COUNT>  (1) 
0

>  <PUBCHEM_BOND_DEF_STEREO_COUNT>  (1) 
0

>  <PUBCHEM_BOND_UDEF_STEREO_COUNT>  (1) 
0

>  <PUBCHEM_ISOTOPIC_ATOM_COUNT>  (1) 
0

>  <PUBCHEM_COMPONENT_COUNT>  (1) 
1

>  <PUBCHEM_CACTVS_TAUTO_COUNT>  (1) 
1

>  <PUBCHEM_CONFORMER_ID>  (1) 
00002D1F00000001

>  <PUBCHEM_MMFF94_ENERGY>  (1) 
10.5549

>  <PUBCHEM_FEATURE_SELFOVERLAP>  (1) 
15.26

>  <PUBCHEM_SHAPE_FINGERPRINT>  (1) 
11062470 55 15430031080259439359
12932764 1 17895197658376517818
13024252 1 14851605475260576831
14325111 11 18411139121691761978
14390081 3 18408881828593760612
15310529 11 17346885515813655062
20653085 51 17752195089894409893
29004967 10 17632863026926003946
3248919 1 18200869587474410886
369184 2 18040713645287244683
5084963 1 18260267472985462946
5460574 1 9583522014398994866

>  <PUBCHEM_SHAPE_MULTIPOLES>  (1) 
164.64
4.95
1.07
1.01
4.67
0.01
0.13
0.15
-0.08
-0.5
-0.1
-0.62
-0.32
0

>  <PUBCHEM_SHAPE_SELFOVERLAP>  (1) 
291.141

>  <PUBCHEM_SHAPE_VOLUME>  (1) 
111.1

>  <PUBCHEM_COORDINATE_TYPE>  (1) 
2
5
10

$$$$
