11563
     RDKit          3D

  8  8  0  0  0  0  0  0  0  0999 V2000
    2.9152   -0.9352   -0.0006 Br  0  0  0  0  0  0  0  0  0  0  0  0
   -2.3127   -1.2749    0.0000 O   0  0  0  0  0  0  0  0  0  0  0  0
   -1.2202   -0.4634   -0.0001 C   0  0  0  0  0  0  0  0  0  0  0  0
    0.0600   -1.0174    0.0003 C   0  0  0  0  0  0  0  0  0  0  0  0
   -1.3805    0.9223   -0.0004 C   0  0  0  0  0  0  0  0  0  0  0  0
    1.1798   -0.1856    0.0006 C   0  0  0  0  0  0  0  0  0  0  0  0
   -0.2608    1.7540   -0.0001 C   0  0  0  0  0  0  0  0  0  0  0  0
    1.0193    1.2001    0.0003 C   0  0  0  0  0  0  0  0  0  0  0  0
  1  6  1  0
  2  3  1  0
  3  4  2  0
  3  5  1  0
  4  6  1  0
  5  7  2  0
  6  8  2  0
  7  8  1  0
M  END
>  <PUBCHEM_COMPOUND_CID>  (1) 
11563

>  <PUBCHEM_CONFORMER_RMSD>  (1) 
0.4

>  <PUBCHEM_CONFORMER_DIVERSEORDER>  (1) 
1

>  <PUBCHEM_MMFF94_PARTIAL_CHARGES>  (1) 
13
1 -0.11
10 0.15
11 0.15
12 0.15
13 0.45
2 -0.53
3 0.08
4 -0.15
5 -0.15
6 0.11
7 -0.15
8 -0.15
9 0.15

>  <PUBCHEM_EFFECTIVE_ROTOR_COUNT>  (1) 
0

>  <PUBCHEM_PHARMACOPHORE_FEATURES>  (1) 
3
1 1 hydrophobe
1 2 donor
6 3 4 5 6 7 8 rings

>  <PUBCHEM_HEAVY_ATOM_COUNT>  (1) 
8

>  <PUBCHEM_ATOM_DEF_STEREO_COUNT>  (1) 
0

>  <PUBCHEM_ATOM_UDEF_STEREO_COUNT>  (1) 
0

>  <PUBCHEM_BOND_DEF_STEREO_COUNT>  (1) 
0

>  <PUBCHEM_BOND_UDEF_STEREO_COUNT>  (1) 
0

>  <PUBCHEM_ISOTOPIC_ATOM_COUNT>  (1) 
0

>  <PUBCHEM_COMPONENT_COUNT>  (1) 
1

>  <PUBCHEM_CACTVS_TAUTO_COUNT>  (1) 
3

>  <PUBCHEM_CONFORMER_ID>  (1) 
00002D2B00000001

>  <PUBCHEM_MMFF94_ENERGY>  (1) 
16.2515

>  <PUBCHEM_FEATURE_SELFOVERLAP>  (1) 
15.223

>  <PUBCHEM_SHAPE_FINGERPRINT>  (1) 
10857977 72 18341036463617667122
14128692 85 18409455803638430238
16714656 1 18194404394477995100
16945 1 18266459793682237152
18185500 45 18335701598481230730
20871998 184 18201435831398879150
21040471 1 17834394519031020964
23552423 10 18259989266805944686
241688 4 18409166605994289768
2748010 2 18410567418178338060
29004967 10 18119530083456567993
369184 2 18265892458851984874

>  <PUBCHEM_SHAPE_MULTIPOLES>  (1) 
164.71
3.2
1.71
0.62
2.05
0.32
0
-1.22
0
-0.59
0
0.08
0.01
0

>  <PUBCHEM_SHAPE_SELFOVERLAP>  (1) 
327.025

>  <PUBCHEM_SHAPE_VOLUME>  (1) 
101.2

>  <PUBCHEM_COORDINATE_TYPE>  (1) 
2
5
10

$$$$
