11564
     RDKit          3D

  8  8  0  0  1  0  0  0  0  0999 V2000
    1.1756   -0.2462    0.2978 C   0  0  0  0  0  0  0  0  0  0  0  0
   -1.2447   -0.6657   -0.4427 C   0  0  0  0  0  0  0  0  0  0  0  0
    0.2340   -1.0477   -0.6141 C   0  0  0  0  0  0  0  0  0  0  0  0
    0.9582    1.2614    0.1174 C   0  0  0  0  0  0  0  0  0  0  0  0
   -1.4358    0.8514   -0.5784 C   0  0  0  0  0  0  0  0  0  0  0  0
   -0.5019    1.6545    0.3242 C   0  0  0  0  0  0  0  0  0  0  0  0
    2.6328   -0.6149    0.0205 C   0  0  0  0  0  0  0  0  0  0  0  0
   -1.8181   -1.1929    0.8754 C   0  0  0  0  0  0  0  0  0  0  0  0
  1  3  1  0
  1  4  1  0
  1  7  1  0
  2  3  1  0
  2  5  1  0
  2  8  1  0
  4  6  1  0
  5  6  1  0
M  END
>  <PUBCHEM_COMPOUND_CID>  (1) 
11564

>  <PUBCHEM_CONFORMER_RMSD>  (1) 
0.4

>  <PUBCHEM_CONFORMER_DIVERSEORDER>  (1) 
1
2
4
3
5

>  <PUBCHEM_MMFF94_PARTIAL_CHARGES>  (1) 
0

>  <PUBCHEM_EFFECTIVE_ROTOR_COUNT>  (1) 
1.2

>  <PUBCHEM_PHARMACOPHORE_FEATURES>  (1) 
1
6 1 2 3 4 5 6 rings

>  <PUBCHEM_HEAVY_ATOM_COUNT>  (1) 
8

>  <PUBCHEM_ATOM_DEF_STEREO_COUNT>  (1) 
0

>  <PUBCHEM_ATOM_UDEF_STEREO_COUNT>  (1) 
2

>  <PUBCHEM_BOND_DEF_STEREO_COUNT>  (1) 
0

>  <PUBCHEM_BOND_UDEF_STEREO_COUNT>  (1) 
0

>  <PUBCHEM_ISOTOPIC_ATOM_COUNT>  (1) 
0

>  <PUBCHEM_COMPONENT_COUNT>  (1) 
1

>  <PUBCHEM_CACTVS_TAUTO_COUNT>  (1) 
1

>  <PUBCHEM_CONFORMER_ID>  (1) 
00002D2C00000001

>  <PUBCHEM_MMFF94_ENERGY>  (1) 
6.3759

>  <PUBCHEM_FEATURE_SELFOVERLAP>  (1) 
5.074

>  <PUBCHEM_SHAPE_FINGERPRINT>  (1) 
137420 1 11462958157646164124
16714656 1 18270396088364719940
18185500 45 17623561364639479374
21040471 1 17908421355568890196
23235685 24 18196646289828375757
23552423 10 18261396581639395446
24536 1 17896862438770524140
29004967 10 18263925621169674218

>  <PUBCHEM_SHAPE_MULTIPOLES>  (1) 
164.64
2.67
1.67
0.85
1.22
0.47
0.03
-0.79
0.22
-0.34
0.13
-0.25
-0.12
0.27

>  <PUBCHEM_SHAPE_SELFOVERLAP>  (1) 
312.414

>  <PUBCHEM_SHAPE_VOLUME>  (1) 
100.4

>  <PUBCHEM_COORDINATE_TYPE>  (1) 
2
5
10

$$$$
