11565
     RDKit          3D

  8  8  0  0  0  0  0  0  0  0999 V2000
    0.0000    1.7555    0.0000 N   0  0  0  0  0  0  0  0  0  0  0  0
   -1.2026   -0.3416    0.0000 C   0  0  0  0  0  0  0  0  0  0  0  0
    1.2026   -0.3418    0.0001 C   0  0  0  0  0  0  0  0  0  0  0  0
    0.0001   -1.0397    0.0000 C   0  0  0  0  0  0  0  0  0  0  0  0
   -2.5057   -1.0591    0.0000 C   0  0  0  0  0  0  0  0  0  0  0  0
    2.5057   -1.0590    0.0000 C   0  0  0  0  0  0  0  0  0  0  0  0
   -1.1488    1.0429    0.0001 C   0  0  0  0  0  0  0  0  0  0  0  0
    1.1487    1.0428   -0.0002 C   0  0  0  0  0  0  0  0  0  0  0  0
  1  7  2  0
  1  8  1  0
  2  4  2  0
  2  5  1  0
  2  7  1  0
  3  4  1  0
  3  6  1  0
  3  8  2  0
M  END
>  <PUBCHEM_COMPOUND_CID>  (1) 
11565

>  <PUBCHEM_CONFORMER_RMSD>  (1) 
0.4

>  <PUBCHEM_CONFORMER_DIVERSEORDER>  (1) 
1

>  <PUBCHEM_MMFF94_PARTIAL_CHARGES>  (1) 
11
1 -0.62
16 0.15
17 0.15
2 -0.14
3 -0.14
4 -0.15
5 0.14
6 0.14
7 0.16
8 0.16
9 0.15

>  <PUBCHEM_EFFECTIVE_ROTOR_COUNT>  (1) 
0

>  <PUBCHEM_PHARMACOPHORE_FEATURES>  (1) 
2
1 1 acceptor
6 1 2 3 4 7 8 rings

>  <PUBCHEM_HEAVY_ATOM_COUNT>  (1) 
8

>  <PUBCHEM_ATOM_DEF_STEREO_COUNT>  (1) 
0

>  <PUBCHEM_ATOM_UDEF_STEREO_COUNT>  (1) 
0

>  <PUBCHEM_BOND_DEF_STEREO_COUNT>  (1) 
0

>  <PUBCHEM_BOND_UDEF_STEREO_COUNT>  (1) 
0

>  <PUBCHEM_ISOTOPIC_ATOM_COUNT>  (1) 
0

>  <PUBCHEM_COMPONENT_COUNT>  (1) 
1

>  <PUBCHEM_CACTVS_TAUTO_COUNT>  (1) 
1

>  <PUBCHEM_CONFORMER_ID>  (1) 
00002D2D00000001

>  <PUBCHEM_MMFF94_ENERGY>  (1) 
18.3064

>  <PUBCHEM_FEATURE_SELFOVERLAP>  (1) 
10.148

>  <PUBCHEM_SHAPE_FINGERPRINT>  (1) 
10857977 72 18340190939038802826
14128692 85 18411426124064529422
16714656 1 18194969530501146358
18185500 45 18410011035203492971
21040471 1 17041761461260335429
23552423 10 18188216386108149894
241688 4 18409448055180058680
2748010 2 18410851066382029332
29004967 10 18264208178520419403

>  <PUBCHEM_SHAPE_MULTIPOLES>  (1) 
159.66
2.94
1.64
0.61
0
0.47
0
-1.38
0
0
0
0
-0.02
0

>  <PUBCHEM_SHAPE_SELFOVERLAP>  (1) 
325.749

>  <PUBCHEM_SHAPE_VOLUME>  (1) 
92.9

>  <PUBCHEM_COORDINATE_TYPE>  (1) 
2
5
10

$$$$
