11570
     RDKit          3D

 13 13  0  0  0  0  0  0  0  0999 V2000
    2.7383   -0.6574    0.4341 O   0  0  0  0  0  0  0  0  0  0  0  0
   -3.6736    0.8139   -0.2458 O   0  0  0  0  0  0  0  0  0  0  0  0
   -2.0457   -0.8644    0.0601 N   0  0  0  0  0  0  0  0  0  0  0  0
   -0.8638   -0.1233    0.0807 C   0  0  0  0  0  0  0  0  0  0  0  0
    1.5429   -0.0279    0.2704 C   0  0  0  0  0  0  0  0  0  0  0  0
    0.3613   -0.7690    0.2481 C   0  0  0  0  0  0  0  0  0  0  0  0
   -0.9073    1.2634   -0.0644 C   0  0  0  0  0  0  0  0  0  0  0  0
    1.4992    1.3588    0.1253 C   0  0  0  0  0  0  0  0  0  0  0  0
    0.2742    2.0044   -0.0420 C   0  0  0  0  0  0  0  0  0  0  0  0
    3.8791   -0.0531   -0.1736 C   0  0  0  0  0  0  0  0  0  0  0  0
    4.8787   -1.1331   -0.5291 C   0  0  0  0  0  0  0  0  0  0  0  0
   -3.3285   -0.3534   -0.0965 C   0  0  0  0  0  0  0  0  0  0  0  0
   -4.3550   -1.4588   -0.0673 C   0  0  0  0  0  0  0  0  0  0  0  0
  1  5  1  0
  1 10  1  0
  2 12  2  0
  3  4  1  0
  3 12  1  0
  4  6  2  0
  4  7  1  0
  5  6  1  0
  5  8  2  0
  7  9  2  0
  8  9  1  0
 10 11  1  0
 12 13  1  0
M  END
>  <PUBCHEM_COMPOUND_CID>  (1) 
11570

>  <PUBCHEM_CONFORMER_RMSD>  (1) 
0.6

>  <PUBCHEM_CONFORMER_DIVERSEORDER>  (1) 
2
12
11
8
16
6
13
4
1
14
7
15
5
10
3
9

>  <PUBCHEM_MMFF94_PARTIAL_CHARGES>  (1) 
17
1 -0.36
10 0.28
12 0.57
13 0.06
14 0.15
15 0.15
16 0.15
17 0.15
2 -0.57
20 0.37
3 -0.55
4 0.12
5 0.08
6 -0.15
7 -0.15
8 -0.15
9 -0.15

>  <PUBCHEM_EFFECTIVE_ROTOR_COUNT>  (1) 
4

>  <PUBCHEM_PHARMACOPHORE_FEATURES>  (1) 
4
1 1 acceptor
1 2 acceptor
1 3 donor
6 4 5 6 7 8 9 rings

>  <PUBCHEM_HEAVY_ATOM_COUNT>  (1) 
13

>  <PUBCHEM_ATOM_DEF_STEREO_COUNT>  (1) 
0

>  <PUBCHEM_ATOM_UDEF_STEREO_COUNT>  (1) 
0

>  <PUBCHEM_BOND_DEF_STEREO_COUNT>  (1) 
0

>  <PUBCHEM_BOND_UDEF_STEREO_COUNT>  (1) 
0

>  <PUBCHEM_ISOTOPIC_ATOM_COUNT>  (1) 
0

>  <PUBCHEM_COMPONENT_COUNT>  (1) 
1

>  <PUBCHEM_CACTVS_TAUTO_COUNT>  (1) 
2

>  <PUBCHEM_CONFORMER_ID>  (1) 
00002D3200000002

>  <PUBCHEM_MMFF94_ENERGY>  (1) 
40.2985

>  <PUBCHEM_FEATURE_SELFOVERLAP>  (1) 
20.297

>  <PUBCHEM_SHAPE_FINGERPRINT>  (1) 
11543360 7 15719398368577236890
12032990 46 18411702096998125730
122479 349 9222936080963867622
13288520 33 18342179938462126030
13690532 89 18413389851620864030
13862211 1 18410005542194016266
14115302 16 17822020842863422950
14252887 29 18131638885055211710
14911166 2 18260828206688442679
14943859 89 11674882199323548808
14993402 34 18410571794760516631
15501527 24 18113910368527924246
15536298 74 18342173427228661608
17834072 8 18409161087483449989
18186145 218 17748819748052762149
187816 3 17821732728030660146
20281475 54 18335416829317403682
20374829 77 18410854326758208958
20645477 70 18337946926169831519
20671657 53 18341337755273112660
20871998 22 18200884988905361782
20871999 31 18114178601302933197
21267235 1 18410301328217703683
221490 88 18046913950481521483
22485316 2 18342736312831212038
23402539 116 18410288086801751902
23532345 42 18338505417783448584
23559900 14 18409448090536504040
265663 24 12895067410012126196
2748010 2 18118683467945454426
4463277 17 18410859858375386336
68521 5 18336265639414835332
7364860 26 18197777915195928736
8809292 202 18187367692038678275

>  <PUBCHEM_SHAPE_MULTIPOLES>  (1) 
250.81
8.26
1.66
0.65
1.24
0.57
-0.01
-4.56
-1.23
-0.16
-0.07
0.14
-0.03
0.21

>  <PUBCHEM_SHAPE_SELFOVERLAP>  (1) 
510.134

>  <PUBCHEM_SHAPE_VOLUME>  (1) 
145.8

>  <PUBCHEM_COORDINATE_TYPE>  (1) 
2
5
10

$$$$
