11577
     RDKit          3D

 10  9  0  0  0  0  0  0  0  0999 V2000
    1.8732   -0.2915    0.3700 O   0  0  0  0  0  0  0  0  0  0  0  0
    0.9853    1.3106   -1.0156 O   0  0  0  0  0  0  0  0  0  0  0  0
   -0.2039    0.4699    0.7919 N   0  0  0  0  0  0  0  0  0  0  0  0
   -2.4305    0.5419   -0.2564 C   0  0  0  0  0  0  0  0  0  0  0  0
   -2.8832   -0.8041    0.3141 C   0  0  0  0  0  0  0  0  0  0  0  0
   -1.4061    1.2402    0.6318 C   0  0  0  0  0  0  0  0  0  0  0  0
   -3.9474   -1.4481   -0.5608 C   0  0  0  0  0  0  0  0  0  0  0  0
    0.8941    0.5671   -0.0441 C   0  0  0  0  0  0  0  0  0  0  0  0
    3.0734   -0.2934   -0.4111 C   0  0  0  0  0  0  0  0  0  0  0  0
    4.0450   -1.2925    0.1802 C   0  0  0  0  0  0  0  0  0  0  0  0
  1  8  1  0
  1  9  1  0
  2  8  2  0
  3  6  1  0
  3  8  1  0
  4  5  1  0
  4  6  1  0
  5  7  1  0
  9 10  1  0
M  END
>  <PUBCHEM_COMPOUND_CID>  (1) 
11577

>  <PUBCHEM_CONFORMER_RMSD>  (1) 
0.6

>  <PUBCHEM_CONFORMER_DIVERSEORDER>  (1) 
1
146
13
145
82
140
26
119
112
102
90
22
109
84
62
7
93
61
12
147
121
118
132
125
124
114
51
79
136
6
68
88
92
21
108
130
31
75
53
128
144
9
99
48
72
11
35
107
56
133
135
143
104
98
105
34
89
29
78
18
32
86
123
74
14
139
30
25
3
38
137
15
16
64
117
60
47
81
54
138
23
27
69
126
103
8
85
101
66
4
115
94
111
37
127
44
49
110
83
17
20
80
76
50
122
40
113
91
57
42
63
67
28
43
77
46
10
97
116
58
24
96
36
59
141
2
95
19
65
55
33
134
39
87
106
45
100
120
142
129
71
131
5
73
52
41
70

>  <PUBCHEM_MMFF94_PARTIAL_CHARGES>  (1) 
7
1 -0.43
2 -0.57
20 0.37
3 -0.73
6 0.3
8 0.78
9 0.28

>  <PUBCHEM_EFFECTIVE_ROTOR_COUNT>  (1) 
6

>  <PUBCHEM_PHARMACOPHORE_FEATURES>  (1) 
3
1 2 acceptor
1 3 donor
1 7 hydrophobe

>  <PUBCHEM_HEAVY_ATOM_COUNT>  (1) 
10

>  <PUBCHEM_ATOM_DEF_STEREO_COUNT>  (1) 
0

>  <PUBCHEM_ATOM_UDEF_STEREO_COUNT>  (1) 
0

>  <PUBCHEM_BOND_DEF_STEREO_COUNT>  (1) 
0

>  <PUBCHEM_BOND_UDEF_STEREO_COUNT>  (1) 
0

>  <PUBCHEM_ISOTOPIC_ATOM_COUNT>  (1) 
0

>  <PUBCHEM_COMPONENT_COUNT>  (1) 
1

>  <PUBCHEM_CACTVS_TAUTO_COUNT>  (1) 
2

>  <PUBCHEM_CONFORMER_ID>  (1) 
00002D3900000001

>  <PUBCHEM_MMFF94_ENERGY>  (1) 
-0.6536

>  <PUBCHEM_FEATURE_SELFOVERLAP>  (1) 
15.223

>  <PUBCHEM_SHAPE_FINGERPRINT>  (1) 
10149128 111 11169901776195139719
11769659 78 18411979156811818066
12897270 3 17095516353314892257
14128692 85 18409171029889706145
14251710 61 18341899592692964790
14350558 41 18342745125740145703
14390081 3 8142086450960728177
15477762 27 18260551177044919108
15775835 57 9079119959818885655
177051 138 18272652354802130574
18186145 218 14490768835973556364
201361 129 10231764374599997428
20211469 16 18343584040358982121
20671657 53 18333169483310996957
20711983 171 11025799807732955578
21061003 4 16128654141440016297
21119208 17 17822005419936387471
21293036 1 16732988634509777992
22485316 2 18413103948569625586

>  <PUBCHEM_SHAPE_MULTIPOLES>  (1) 
189.08
7.29
1.47
0.85
1.51
0.15
0.05
4.85
0.5
-0.54
0.08
-0.03
-0.12
-0.51

>  <PUBCHEM_SHAPE_SELFOVERLAP>  (1) 
341.69

>  <PUBCHEM_SHAPE_VOLUME>  (1) 
121.7

>  <PUBCHEM_COORDINATE_TYPE>  (1) 
2
5
10

$$$$
