11588
     RDKit          3D

  5  4  0  0  0  0  0  0  0  0999 V2000
   -1.2812    0.4206    0.4406 C   0  0  0  0  0  0  0  0  0  0  0  0
   -2.0863   -0.7212   -0.1597 C   0  0  0  0  0  0  0  0  0  0  0  0
   -0.0217    0.6702   -0.3328 C   0  0  0  0  0  0  0  0  0  0  0  0
    1.1234    0.0996   -0.0932 C   0  0  0  0  0  0  0  0  0  0  0  0
    2.2658   -0.4692    0.1451 C   0  0  0  0  0  0  0  0  0  0  0  0
  1  2  1  0
  1  3  1  0
  3  4  2  0
  4  5  2  0
M  END
>  <PUBCHEM_COMPOUND_CID>  (1) 
11588

>  <PUBCHEM_CONFORMER_RMSD>  (1) 
0.4

>  <PUBCHEM_CONFORMER_DIVERSEORDER>  (1) 
1
3
4
2

>  <PUBCHEM_MMFF94_PARTIAL_CHARGES>  (1) 
7
1 0.14
11 0.15
12 0.15
13 0.15
3 -0.22
4 -0.13
5 -0.24

>  <PUBCHEM_EFFECTIVE_ROTOR_COUNT>  (1) 
1

>  <PUBCHEM_PHARMACOPHORE_FEATURES>  (1) 
2
1 2 hydrophobe
1 5 hydrophobe

>  <PUBCHEM_HEAVY_ATOM_COUNT>  (1) 
5

>  <PUBCHEM_ATOM_DEF_STEREO_COUNT>  (1) 
0

>  <PUBCHEM_ATOM_UDEF_STEREO_COUNT>  (1) 
0

>  <PUBCHEM_BOND_DEF_STEREO_COUNT>  (1) 
0

>  <PUBCHEM_BOND_UDEF_STEREO_COUNT>  (1) 
0

>  <PUBCHEM_ISOTOPIC_ATOM_COUNT>  (1) 
0

>  <PUBCHEM_COMPONENT_COUNT>  (1) 
1

>  <PUBCHEM_CACTVS_TAUTO_COUNT>  (1) 
1

>  <PUBCHEM_CONFORMER_ID>  (1) 
00002D4400000001

>  <PUBCHEM_MMFF94_ENERGY>  (1) 
-1.0298

>  <PUBCHEM_FEATURE_SELFOVERLAP>  (1) 
10.149

>  <PUBCHEM_SHAPE_FINGERPRINT>  (1) 
139733 1 10375871870162527068
20096714 4 9871750186894802190
29004967 10 17894355496524885768
5460574 1 9151174250963418960

>  <PUBCHEM_SHAPE_MULTIPOLES>  (1) 
102.9
3.09
0.89
0.69
0.37
0.02
-0.01
0.95
-0.13
-0.16
0.02
-0.05
-0.03
-0.13

>  <PUBCHEM_SHAPE_SELFOVERLAP>  (1) 
178.494

>  <PUBCHEM_SHAPE_VOLUME>  (1) 
68.4

>  <PUBCHEM_COORDINATE_TYPE>  (1) 
2
5
10

$$$$
