11581
     RDKit          3D

 16 15  0  0  0  0  0  0  0  0999 V2000
   -7.8158    1.3455    0.5075 F   0  0  0  0  0  0  0  0  0  0  0  0
    6.9818    1.6912    0.4783 F   0  0  0  0  0  0  0  0  0  0  0  0
    4.7302    0.2451   -0.2015 O   0  0  0  0  0  0  0  0  0  0  0  0
    3.7055   -1.7198    0.4387 O   0  0  0  0  0  0  0  0  0  0  0  0
   -2.7169    0.2091   -0.2828 C   0  0  0  0  0  0  0  0  0  0  0  0
   -1.4441   -0.5656    0.0660 C   0  0  0  0  0  0  0  0  0  0  0  0
   -3.9703   -0.5969    0.0702 C   0  0  0  0  0  0  0  0  0  0  0  0
   -0.1565    0.2038   -0.2454 C   0  0  0  0  0  0  0  0  0  0  0  0
   -5.2430    0.1933   -0.2428 C   0  0  0  0  0  0  0  0  0  0  0  0
    1.1166   -0.5844    0.0816 C   0  0  0  0  0  0  0  0  0  0  0  0
   -6.5284   -0.5727    0.0816 C   0  0  0  0  0  0  0  0  0  0  0  0
    2.3858    0.2294   -0.1750 C   0  0  0  0  0  0  0  0  0  0  0  0
   -7.7977    0.2031   -0.2286 C   0  0  0  0  0  0  0  0  0  0  0  0
    3.6564   -0.5529    0.0743 C   0  0  0  0  0  0  0  0  0  0  0  0
    6.0126   -0.3696   -0.0398 C   0  0  0  0  0  0  0  0  0  0  0  0
    7.0840    0.6413   -0.3822 C   0  0  0  0  0  0  0  0  0  0  0  0
  1 13  1  0
  2 16  1  0
  3 14  1  0
  3 15  1  0
  4 14  2  0
  5  6  1  0
  5  7  1  0
  6  8  1  0
  7  9  1  0
  8 10  1  0
  9 11  1  0
 10 12  1  0
 11 13  1  0
 12 14  1  0
 15 16  1  0
M  END
>  <PUBCHEM_COMPOUND_CID>  (1) 
11581

>  <PUBCHEM_CONFORMER_RMSD>  (1) 
1

>  <PUBCHEM_CONFORMER_DIVERSEORDER>  (1) 
1
332
217
362
91
7
27
215
179
250
114
112
151
66
170
351
347
59
132
64
255
258
126
74
355
237
93
104
326
14
297
366
96
352
367
135
185
311
63
363
5
30
13
216
315
84
70
138
307
45
41
209
53
264
186
18
43
299
321
6
75
235
214
336
207
361
16
168
368
119
313
273
289
80
68
87
95
244
71
52
50
210
318
229
48
123
19
82
8
224
252
54
187
329
106
166
184
176
34
305
130
219
113
12
358
198
152
137
86
88
241
334
220
339
44
134
191
99
9
47
121
364
139
83
155
60
37
98
35
226
309
284
55
327
153
359
78
167
42
188
272
173
22
280
26
213
275
97
116
147
279
38
140
65
10
143
77
316
193
171
265
162
62
282
234
338
142
115
159
304
341
292
148
322
17
109
3
314
172
181
360
195
32
39
107
46
251
177
105
161
344
149
340
283
259
247
15
85
293
51
328
163
23
345
117
199
128
122
111
101
233
102
178
205
228
67
356
81
312
204
337
324
124
301
206
24
192
269
202
253
2
189
4
58
333
57
222
317
232
310
320
274
223
160
110
218
20
246
227
354
169
330
238
236
175
221
325
94
154
125
242
212
256
335
268
174
194
261
196
36
287
343
231
239
208
92
306
33
118
190
277
278
145
127
197
158
298
243
29
131
89
296
262
365
79
150
249
225
40
165
285
133
100
136
183
357
182
146
346
302
56
230
141
90
248
120
291
73
342
240
266
201
263
69
331
144
61
129
276
108
211
290
267
31
288
164
103
28
76
294
271
323
270
281
11
295
200
308
260
72
257
353
156
157
49
245
303
348
25
254
300
349
180
286
21
350
319
203

>  <PUBCHEM_MMFF94_PARTIAL_CHARGES>  (1) 
9
1 -0.34
12 0.06
13 0.34
14 0.66
15 0.28
16 0.34
2 -0.34
3 -0.43
4 -0.57

>  <PUBCHEM_EFFECTIVE_ROTOR_COUNT>  (1) 
12

>  <PUBCHEM_PHARMACOPHORE_FEATURES>  (1) 
1
1 4 acceptor

>  <PUBCHEM_HEAVY_ATOM_COUNT>  (1) 
16

>  <PUBCHEM_ATOM_DEF_STEREO_COUNT>  (1) 
0

>  <PUBCHEM_ATOM_UDEF_STEREO_COUNT>  (1) 
0

>  <PUBCHEM_BOND_DEF_STEREO_COUNT>  (1) 
0

>  <PUBCHEM_BOND_UDEF_STEREO_COUNT>  (1) 
0

>  <PUBCHEM_ISOTOPIC_ATOM_COUNT>  (1) 
0

>  <PUBCHEM_COMPONENT_COUNT>  (1) 
1

>  <PUBCHEM_CACTVS_TAUTO_COUNT>  (1) 
1

>  <PUBCHEM_CONFORMER_ID>  (1) 
00002D3D00000001

>  <PUBCHEM_MMFF94_ENERGY>  (1) 
2.9217

>  <PUBCHEM_FEATURE_SELFOVERLAP>  (1) 
5.074

>  <PUBCHEM_SHAPE_FINGERPRINT>  (1) 
10968037 39 18408322194745469071
11315181 36 18343021095871510201
11638347 137 16298379150941286976
12091667 2 18131913763668797191
13073987 5 16515953766518130117
13533116 47 18201153248273568458
14123256 10 18410856559650358580
14251764 18 18335138691767580717
14251764 46 16271927112694763174
14729087 3 18040431071690632013
15048467 5 18411136943694807054
17093844 174 17748547040222589153
17834076 25 15482672381377475823
20281389 69 18187080641967420892
20735858 18 14345792751351179200
21130983 4 18410856568229737165
21150785 3 17418375804774813269
220451 1 17131827660213446207
22224240 67 17821445776659638155
23035841 295 11241972577531542969
23402539 116 18131345311841034519
23521765 1 18341895194962503567
33684 2 18412825780955161670
42788 4 18259984868495773983
4463277 17 18411981360050997621
59567204 34 17988647338541062313
59755656 215 12823304498149800852
67123 10 18413388757290303527
8209 1 18202565081279673814

>  <PUBCHEM_SHAPE_MULTIPOLES>  (1) 
302.99
25
1.11
0.65
11.46
0.03
0.01
7.18
-0.87
-0.86
-0.16
0.02
0.03
-0.14

>  <PUBCHEM_SHAPE_SELFOVERLAP>  (1) 
557.507

>  <PUBCHEM_SHAPE_VOLUME>  (1) 
190.9

>  <PUBCHEM_COORDINATE_TYPE>  (1) 
2
5
10

$$$$
