11597
     RDKit          3D

  6  5  0  0  0  0  0  0  0  0999 V2000
    0.5677    0.2822   -0.1636 C   0  0  0  0  0  0  0  0  0  0  0  0
    1.8557   -0.4639    0.1863 C   0  0  0  0  0  0  0  0  0  0  0  0
   -0.6527   -0.6336   -0.0498 C   0  0  0  0  0  0  0  0  0  0  0  0
    3.0759    0.4307    0.0379 C   0  0  0  0  0  0  0  0  0  0  0  0
   -1.9128    0.0888   -0.4248 C   0  0  0  0  0  0  0  0  0  0  0  0
   -2.9340    0.2958    0.4140 C   0  0  0  0  0  0  0  0  0  0  0  0
  1  2  1  0
  1  3  1  0
  2  4  1  0
  3  5  1  0
  5  6  2  0
M  END
>  <PUBCHEM_COMPOUND_CID>  (1) 
11597

>  <PUBCHEM_CONFORMER_RMSD>  (1) 
0.4

>  <PUBCHEM_CONFORMER_DIVERSEORDER>  (1) 
2
10
17
1
11
12
14
16
8
4
15
6
13
3
9
7
5

>  <PUBCHEM_MMFF94_PARTIAL_CHARGES>  (1) 
6
16 0.15
17 0.15
18 0.15
3 0.14
5 -0.29
6 -0.3

>  <PUBCHEM_EFFECTIVE_ROTOR_COUNT>  (1) 
3

>  <PUBCHEM_PHARMACOPHORE_FEATURES>  (1) 
3
1 4 hydrophobe
1 6 hydrophobe
4 1 2 3 5 hydrophobe

>  <PUBCHEM_HEAVY_ATOM_COUNT>  (1) 
6

>  <PUBCHEM_ATOM_DEF_STEREO_COUNT>  (1) 
0

>  <PUBCHEM_ATOM_UDEF_STEREO_COUNT>  (1) 
0

>  <PUBCHEM_BOND_DEF_STEREO_COUNT>  (1) 
0

>  <PUBCHEM_BOND_UDEF_STEREO_COUNT>  (1) 
0

>  <PUBCHEM_ISOTOPIC_ATOM_COUNT>  (1) 
0

>  <PUBCHEM_COMPONENT_COUNT>  (1) 
1

>  <PUBCHEM_CACTVS_TAUTO_COUNT>  (1) 
1

>  <PUBCHEM_CONFORMER_ID>  (1) 
00002D4D00000002

>  <PUBCHEM_MMFF94_ENERGY>  (1) 
-2.3108

>  <PUBCHEM_FEATURE_SELFOVERLAP>  (1) 
15.225

>  <PUBCHEM_SHAPE_FINGERPRINT>  (1) 
11062470 55 12031789158262066707
12932741 1 14189282811708530182
14325111 11 18413107255757818479
14390081 3 17917987295608810880
29004967 10 16660363662454645256
5460574 1 11240000061559640431

>  <PUBCHEM_SHAPE_MULTIPOLES>  (1) 
123.48
4.94
0.78
0.69
0.52
0.04
0
-0.86
-0.49
0.08
-0.01
-0.13
-0.01
-0.07

>  <PUBCHEM_SHAPE_SELFOVERLAP>  (1) 
211.011

>  <PUBCHEM_SHAPE_VOLUME>  (1) 
83.4

>  <PUBCHEM_COORDINATE_TYPE>  (1) 
2
5
10

$$$$
