11594
     RDKit          3D

  8  7  0  0  0  0  0  0  0  0999 V2000
   -0.9128   -0.1586    0.9078 C   0  0  0  0  0  0  0  0  0  0  0  0
   -2.3420   -0.0162    0.3526 C   0  0  0  0  0  0  0  0  0  0  0  0
    0.1749   -0.0046   -0.1595 C   0  0  0  0  0  0  0  0  0  0  0  0
    1.5728   -0.0834    0.4588 C   0  0  0  0  0  0  0  0  0  0  0  0
    2.6601    0.1076   -0.5984 C   0  0  0  0  0  0  0  0  0  0  0  0
   -2.5646    1.3230   -0.3516 C   0  0  0  0  0  0  0  0  0  0  0  0
   -2.6389   -1.1639   -0.6160 C   0  0  0  0  0  0  0  0  0  0  0  0
    4.0506   -0.0039    0.0062 C   0  0  0  0  0  0  0  0  0  0  0  0
  1  2  1  0
  1  3  1  0
  2  6  1  0
  2  7  1  0
  3  4  1  0
  4  5  1  0
  5  8  1  0
M  END
>  <PUBCHEM_COMPOUND_CID>  (1) 
11594

>  <PUBCHEM_CONFORMER_RMSD>  (1) 
0.6

>  <PUBCHEM_CONFORMER_DIVERSEORDER>  (1) 
1
6
7
4
5
2
3

>  <PUBCHEM_MMFF94_PARTIAL_CHARGES>  (1) 
0

>  <PUBCHEM_EFFECTIVE_ROTOR_COUNT>  (1) 
4

>  <PUBCHEM_PHARMACOPHORE_FEATURES>  (1) 
3
1 8 hydrophobe
3 2 6 7 hydrophobe
5 1 2 3 4 5 hydrophobe

>  <PUBCHEM_HEAVY_ATOM_COUNT>  (1) 
8

>  <PUBCHEM_ATOM_DEF_STEREO_COUNT>  (1) 
0

>  <PUBCHEM_ATOM_UDEF_STEREO_COUNT>  (1) 
0

>  <PUBCHEM_BOND_DEF_STEREO_COUNT>  (1) 
0

>  <PUBCHEM_BOND_UDEF_STEREO_COUNT>  (1) 
0

>  <PUBCHEM_ISOTOPIC_ATOM_COUNT>  (1) 
0

>  <PUBCHEM_COMPONENT_COUNT>  (1) 
1

>  <PUBCHEM_CACTVS_TAUTO_COUNT>  (1) 
1

>  <PUBCHEM_CONFORMER_ID>  (1) 
00002D4A00000001

>  <PUBCHEM_MMFF94_ENERGY>  (1) 
0.9258

>  <PUBCHEM_FEATURE_SELFOVERLAP>  (1) 
15.227

>  <PUBCHEM_SHAPE_FINGERPRINT>  (1) 
11062470 55 18411421700369488232
12932741 1 17489011730251640321
12932764 1 18413386535932290730
14325111 11 18410576180275456242
14390081 3 18040155123508610408
20645464 45 13840265866537833305
3248919 1 17458348550208403082

>  <PUBCHEM_SHAPE_MULTIPOLES>  (1) 
164.64
6.35
1.01
0.87
5.04
0.09
0.05
0.11
-0.86
-1.01
-0.18
-0.13
-0.05
-0.1

>  <PUBCHEM_SHAPE_SELFOVERLAP>  (1) 
286.123

>  <PUBCHEM_SHAPE_VOLUME>  (1) 
111

>  <PUBCHEM_COORDINATE_TYPE>  (1) 
2
5
10

$$$$
