11617
     RDKit          3D

  7  6  0  0  0  0  0  0  0  0999 V2000
    0.0021   -0.6304    0.0019 S   0  0  0  0  0  0  0  0  0  0  0  0
   -1.3538    0.5536    0.2168 C   0  0  0  0  0  0  0  0  0  0  0  0
    1.3526    0.5504   -0.2205 C   0  0  0  0  0  0  0  0  0  0  0  0
   -2.6435   -0.1722    0.4277 C   0  0  0  0  0  0  0  0  0  0  0  0
    2.6432   -0.1753   -0.4265 C   0  0  0  0  0  0  0  0  0  0  0  0
   -3.7012   -0.0650   -0.3847 C   0  0  0  0  0  0  0  0  0  0  0  0
    3.7008   -0.0611    0.3852 C   0  0  0  0  0  0  0  0  0  0  0  0
  1  2  1  0
  1  3  1  0
  2  4  1  0
  3  5  1  0
  4  6  2  0
  5  7  2  0
M  END
>  <PUBCHEM_COMPOUND_CID>  (1) 
11617

>  <PUBCHEM_CONFORMER_RMSD>  (1) 
0.6

>  <PUBCHEM_CONFORMER_DIVERSEORDER>  (1) 
2
14
6
15
12
5
16
1
10
17
8
3
11
13
7
9
4

>  <PUBCHEM_MMFF94_PARTIAL_CHARGES>  (1) 
13
1 -0.46
12 0.15
13 0.15
14 0.15
15 0.15
16 0.15
17 0.15
2 0.37
3 0.37
4 -0.29
5 -0.29
6 -0.3
7 -0.3

>  <PUBCHEM_EFFECTIVE_ROTOR_COUNT>  (1) 
4

>  <PUBCHEM_PHARMACOPHORE_FEATURES>  (1) 
3
1 6 hydrophobe
1 7 hydrophobe
5 1 2 3 4 5 hydrophobe

>  <PUBCHEM_HEAVY_ATOM_COUNT>  (1) 
7

>  <PUBCHEM_ATOM_DEF_STEREO_COUNT>  (1) 
0

>  <PUBCHEM_ATOM_UDEF_STEREO_COUNT>  (1) 
0

>  <PUBCHEM_BOND_DEF_STEREO_COUNT>  (1) 
0

>  <PUBCHEM_BOND_UDEF_STEREO_COUNT>  (1) 
0

>  <PUBCHEM_ISOTOPIC_ATOM_COUNT>  (1) 
0

>  <PUBCHEM_COMPONENT_COUNT>  (1) 
1

>  <PUBCHEM_CACTVS_TAUTO_COUNT>  (1) 
1

>  <PUBCHEM_CONFORMER_ID>  (1) 
00002D6100000002

>  <PUBCHEM_MMFF94_ENERGY>  (1) 
3.6032

>  <PUBCHEM_FEATURE_SELFOVERLAP>  (1) 
15.223

>  <PUBCHEM_SHAPE_FINGERPRINT>  (1) 
11062470 55 18410575088958085189
14325111 11 18060423490774242982
20719005 15 8718826487707424985
3248919 1 18338532883787972323
5460574 1 11674880008784641828

>  <PUBCHEM_SHAPE_MULTIPOLES>  (1) 
147.91
6.89
0.79
0.73
0.01
0.01
0
0.2
0
0
0
0
0.01
-0.02

>  <PUBCHEM_SHAPE_SELFOVERLAP>  (1) 
248.998

>  <PUBCHEM_SHAPE_VOLUME>  (1) 
100.4

>  <PUBCHEM_COORDINATE_TYPE>  (1) 
2
5
10

$$$$
