11610
     RDKit          3D

  7  6  0  0  0  0  0  0  0  0999 V2000
    1.2622   -0.4050   -0.0480 C   0  0  0  0  0  0  0  0  0  0  0  0
   -0.0584    0.3338    0.1902 C   0  0  0  0  0  0  0  0  0  0  0  0
    2.4520    0.5531    0.0191 C   0  0  0  0  0  0  0  0  0  0  0  0
   -1.2784   -0.5924    0.1604 C   0  0  0  0  0  0  0  0  0  0  0  0
    3.7695   -0.1802   -0.1758 C   0  0  0  0  0  0  0  0  0  0  0  0
   -2.5736    0.1353    0.3713 C   0  0  0  0  0  0  0  0  0  0  0  0
   -3.5734    0.1555   -0.5172 C   0  0  0  0  0  0  0  0  0  0  0  0
  1  2  1  0
  1  3  1  0
  2  4  1  0
  3  5  1  0
  4  6  1  0
  6  7  2  0
M  END
>  <PUBCHEM_COMPOUND_CID>  (1) 
11610

>  <PUBCHEM_CONFORMER_RMSD>  (1) 
0.6

>  <PUBCHEM_CONFORMER_DIVERSEORDER>  (1) 
1
17
13
18
15
4
3
11
16
5
14
7
12
6
2
9
8
10

>  <PUBCHEM_MMFF94_PARTIAL_CHARGES>  (1) 
6
19 0.15
20 0.15
21 0.15
4 0.14
6 -0.29
7 -0.3

>  <PUBCHEM_EFFECTIVE_ROTOR_COUNT>  (1) 
4

>  <PUBCHEM_PHARMACOPHORE_FEATURES>  (1) 
3
1 5 hydrophobe
1 7 hydrophobe
5 1 2 3 4 6 hydrophobe

>  <PUBCHEM_HEAVY_ATOM_COUNT>  (1) 
7

>  <PUBCHEM_ATOM_DEF_STEREO_COUNT>  (1) 
0

>  <PUBCHEM_ATOM_UDEF_STEREO_COUNT>  (1) 
0

>  <PUBCHEM_BOND_DEF_STEREO_COUNT>  (1) 
0

>  <PUBCHEM_BOND_UDEF_STEREO_COUNT>  (1) 
0

>  <PUBCHEM_ISOTOPIC_ATOM_COUNT>  (1) 
0

>  <PUBCHEM_COMPONENT_COUNT>  (1) 
1

>  <PUBCHEM_CACTVS_TAUTO_COUNT>  (1) 
1

>  <PUBCHEM_CONFORMER_ID>  (1) 
00002D5A00000001

>  <PUBCHEM_MMFF94_ENERGY>  (1) 
-2.3426

>  <PUBCHEM_FEATURE_SELFOVERLAP>  (1) 
15.223

>  <PUBCHEM_SHAPE_FINGERPRINT>  (1) 
11062470 55 17603304855910172892
12932764 1 13479407331454647018
14325111 11 18408324410199526978
14390081 3 18260264153176352617
20719005 15 18334013899819921139
21293036 1 18060416932506823111
3248919 1 17203342133950604002
5460574 1 11530480038654723739

>  <PUBCHEM_SHAPE_MULTIPOLES>  (1) 
144.06
6.74
0.76
0.69
0.79
0.01
0.01
-0.29
0.91
0.07
-0.01
-0.18
-0.01
0.06

>  <PUBCHEM_SHAPE_SELFOVERLAP>  (1) 
248.391

>  <PUBCHEM_SHAPE_VOLUME>  (1) 
96.4

>  <PUBCHEM_COORDINATE_TYPE>  (1) 
2
5
10

$$$$
