11612
     RDKit          3D

  7  6  0  0  0  0  0  0  0  0999 V2000
    1.2826   -0.6738    0.0264 C   0  0  0  0  0  0  0  0  0  0  0  0
    2.1250    0.5808   -0.2058 C   0  0  0  0  0  0  0  0  0  0  0  0
   -0.1344   -0.4686   -0.4239 C   0  0  0  0  0  0  0  0  0  0  0  0
   -2.6123   -0.3568   -0.0596 C   0  0  0  0  0  0  0  0  0  0  0  0
    3.5683    0.3687    0.2242 C   0  0  0  0  0  0  0  0  0  0  0  0
   -1.1953   -0.5508    0.3924 C   0  0  0  0  0  0  0  0  0  0  0  0
   -3.0339    1.1006    0.0462 C   0  0  0  0  0  0  0  0  0  0  0  0
  1  2  1  0
  1  3  1  0
  2  5  1  0
  3  6  2  0
  4  6  1  0
  4  7  1  0
M  END
>  <PUBCHEM_COMPOUND_CID>  (1) 
11612

>  <PUBCHEM_CONFORMER_RMSD>  (1) 
0.4

>  <PUBCHEM_CONFORMER_DIVERSEORDER>  (1) 
1
13
14
2
17
9
16
7
10
18
5
15
6
3
12
11
4
8

>  <PUBCHEM_MMFF94_PARTIAL_CHARGES>  (1) 
6
1 0.14
12 0.15
15 0.15
3 -0.29
4 0.14
6 -0.29

>  <PUBCHEM_EFFECTIVE_ROTOR_COUNT>  (1) 
3

>  <PUBCHEM_PHARMACOPHORE_FEATURES>  (1) 
2
1 5 hydrophobe
1 7 hydrophobe

>  <PUBCHEM_HEAVY_ATOM_COUNT>  (1) 
7

>  <PUBCHEM_ATOM_DEF_STEREO_COUNT>  (1) 
0

>  <PUBCHEM_ATOM_UDEF_STEREO_COUNT>  (1) 
0

>  <PUBCHEM_BOND_DEF_STEREO_COUNT>  (1) 
0

>  <PUBCHEM_BOND_UDEF_STEREO_COUNT>  (1) 
1

>  <PUBCHEM_ISOTOPIC_ATOM_COUNT>  (1) 
0

>  <PUBCHEM_COMPONENT_COUNT>  (1) 
1

>  <PUBCHEM_CACTVS_TAUTO_COUNT>  (1) 
1

>  <PUBCHEM_CONFORMER_ID>  (1) 
00002D5C00000001

>  <PUBCHEM_MMFF94_ENERGY>  (1) 
-3.3859

>  <PUBCHEM_FEATURE_SELFOVERLAP>  (1) 
10.149

>  <PUBCHEM_SHAPE_FINGERPRINT>  (1) 
12897270 3 14261631720471969379
12932764 1 17561077025176752015
14325111 11 18412263943255897158
14390081 3 18342176661238516281
21293036 1 16200426987836308861
29004967 10 12685090388695076550
3248919 1 17749113317541528638
5460574 1 8790891773873602471

>  <PUBCHEM_SHAPE_MULTIPOLES>  (1) 
144.06
5.81
1.01
0.68
1.38
0.14
0
1.87
0.36
-0.37
0.01
0.01
-0.02
0.01

>  <PUBCHEM_SHAPE_SELFOVERLAP>  (1) 
250.191

>  <PUBCHEM_SHAPE_VOLUME>  (1) 
94.4

>  <PUBCHEM_COORDINATE_TYPE>  (1) 
2
5
10

$$$$
