11619
     RDKit          3D

 10  9  0  0  0  0  0  0  0  0999 V2000
   -5.2972    0.2332   -0.0107 F   0  0  0  0  0  0  0  0  0  0  0  0
    3.4871   -1.3189   -0.0321 O   0  0  0  0  0  0  0  0  0  0  0  0
   -0.4439    0.5399   -0.0365 C   0  0  0  0  0  0  0  0  0  0  0  0
   -1.6546   -0.3947   -0.0003 C   0  0  0  0  0  0  0  0  0  0  0  0
    0.8680   -0.2488    0.0260 C   0  0  0  0  0  0  0  0  0  0  0  0
   -2.9634    0.3908   -0.0282 C   0  0  0  0  0  0  0  0  0  0  0  0
    2.0959    0.6604    0.0192 C   0  0  0  0  0  0  0  0  0  0  0  0
   -4.1707   -0.5267    0.0443 C   0  0  0  0  0  0  0  0  0  0  0  0
    3.4166   -0.0915    0.0072 C   0  0  0  0  0  0  0  0  0  0  0  0
    4.6622    0.7564    0.0113 C   0  0  0  0  0  0  0  0  0  0  0  0
  1  8  1  0
  2  9  2  0
  3  4  1  0
  3  5  1  0
  4  6  1  0
  5  7  1  0
  6  8  1  0
  7  9  1  0
  9 10  1  0
M  END
>  <PUBCHEM_COMPOUND_CID>  (1) 
11619

>  <PUBCHEM_CONFORMER_RMSD>  (1) 
0.6

>  <PUBCHEM_CONFORMER_DIVERSEORDER>  (1) 
1
288
94
9
233
162
13
133
294
124
170
284
104
282
250
52
143
8
279
210
11
256
21
292
251
278
287
285
42
147
268
40
123
266
293
195
205
97
3
220
157
262
14
291
65
283
120
178
175
181
223
67
24
90
227
99
234
79
77
17
199
290
114
180
93
56
225
229
261
4
165
295
136
71
201
22
277
85
276
166
107
92
23
76
134
236
221
286
273
274
270
235
153
193
108
239
164
155
35
32
113
271
55
44
272
34
259
100
238
240
27
216
231
189
64
204
105
74
275
68
103
190
257
214
31
289
2
127
95
209
230
116
245
254
187
191
152
83
38
263
217
111
207
72
149
218
45
200
156
33
142
242
252
267
243
112
78
41
215
183
174
128
57
228
139
169
58
148
241
177
121
173
106
39
196
125
135
118
46
101
168
7
96
129
281
246
89
137
18
62
213
70
172
219
269
28
37
69
185
140
151
161
15
51
244
82
265
182
248
36
61
144
63
253
73
249
91
138
145
122
211
98
154
237
88
194
102
5
146
6
224
206
10
141
203
280
222
132
260
126
117
150
75
86
255
50
84
87
119
12
80
47
188
48
198
81
171
160
53
202
109
176
158
60
59
163
115
264
130
212
20
49
26
184
258
167
29
131
19
192
66
30
186
110
16
247
232
226
25
179
159
208
197
43
54

>  <PUBCHEM_MMFF94_PARTIAL_CHARGES>  (1) 
6
1 -0.34
10 0.06
2 -0.57
7 0.06
8 0.34
9 0.45

>  <PUBCHEM_EFFECTIVE_ROTOR_COUNT>  (1) 
6

>  <PUBCHEM_PHARMACOPHORE_FEATURES>  (1) 
2
1 2 acceptor
5 3 4 5 6 7 hydrophobe

>  <PUBCHEM_HEAVY_ATOM_COUNT>  (1) 
10

>  <PUBCHEM_ATOM_DEF_STEREO_COUNT>  (1) 
0

>  <PUBCHEM_ATOM_UDEF_STEREO_COUNT>  (1) 
0

>  <PUBCHEM_BOND_DEF_STEREO_COUNT>  (1) 
0

>  <PUBCHEM_BOND_UDEF_STEREO_COUNT>  (1) 
0

>  <PUBCHEM_ISOTOPIC_ATOM_COUNT>  (1) 
0

>  <PUBCHEM_COMPONENT_COUNT>  (1) 
1

>  <PUBCHEM_CACTVS_TAUTO_COUNT>  (1) 
3

>  <PUBCHEM_CONFORMER_ID>  (1) 
00002D6300000001

>  <PUBCHEM_MMFF94_ENERGY>  (1) 
1.9205

>  <PUBCHEM_FEATURE_SELFOVERLAP>  (1) 
10.148

>  <PUBCHEM_SHAPE_FINGERPRINT>  (1) 
11062470 55 18272370884088595716
114248 4 18040997358005252537
14123238 8 18131069346352634213
14325111 11 18410573968319728580
15242433 33 18342176682687135054
17834072 33 18341894155300862661
17834076 25 17775567550484451208
18342897 14 17917713508649992273
190213 19 17822013111769016845
20279233 1 17749115491206249010
20645477 70 18339361864580691174
20719005 15 18410573989451699681
22485316 2 18411416224085862135
23402539 116 18060132142232299453
42 15 18411138021816104847
42788 4 18410573994015783269
449060 50 18336263530891510316
522135 26 18341895182283290966

>  <PUBCHEM_SHAPE_MULTIPOLES>  (1) 
192.65
10.69
0.94
0.6
4.66
0.13
0
-0.21
0.04
-0.59
0
-0.03
-0.01
0.03

>  <PUBCHEM_SHAPE_SELFOVERLAP>  (1) 
347.062

>  <PUBCHEM_SHAPE_VOLUME>  (1) 
124.1

>  <PUBCHEM_COORDINATE_TYPE>  (1) 
2
5
10

$$$$
