11614
     RDKit          3D

  7  6  0  0  0  0  0  0  0  0999 V2000
   -1.2515    0.7855    0.0000 O   0  0  0  0  0  0  0  0  0  0  0  0
   -2.9232   -0.8163   -0.0074 O   0  0  0  0  0  0  0  0  0  0  0  0
    1.1174    0.4370    0.0175 C   0  0  0  0  0  0  0  0  0  0  0  0
    2.2420   -0.5946    0.0120 C   0  0  0  0  0  0  0  0  0  0  0  0
   -0.2530   -0.2254    0.0096 C   0  0  0  0  0  0  0  0  0  0  0  0
    3.6083    0.0709   -0.0238 C   0  0  0  0  0  0  0  0  0  0  0  0
   -2.5400    0.3430   -0.0079 C   0  0  0  0  0  0  0  0  0  0  0  0
  1  5  1  0
  1  7  1  0
  2  7  2  0
  3  4  1  0
  3  5  1  0
  4  6  1  0
M  END
>  <PUBCHEM_COMPOUND_CID>  (1) 
11614

>  <PUBCHEM_CONFORMER_RMSD>  (1) 
0.6

>  <PUBCHEM_CONFORMER_DIVERSEORDER>  (1) 
1
22
15
16
21
13
20
19
17
2
3
18
14
4
11
12
10
9
5
6
7
8

>  <PUBCHEM_MMFF94_PARTIAL_CHARGES>  (1) 
5
1 -0.43
17 0.06
2 -0.57
5 0.28
7 0.66

>  <PUBCHEM_EFFECTIVE_ROTOR_COUNT>  (1) 
4

>  <PUBCHEM_PHARMACOPHORE_FEATURES>  (1) 
2
1 2 acceptor
1 6 hydrophobe

>  <PUBCHEM_HEAVY_ATOM_COUNT>  (1) 
7

>  <PUBCHEM_ATOM_DEF_STEREO_COUNT>  (1) 
0

>  <PUBCHEM_ATOM_UDEF_STEREO_COUNT>  (1) 
0

>  <PUBCHEM_BOND_DEF_STEREO_COUNT>  (1) 
0

>  <PUBCHEM_BOND_UDEF_STEREO_COUNT>  (1) 
0

>  <PUBCHEM_ISOTOPIC_ATOM_COUNT>  (1) 
0

>  <PUBCHEM_COMPONENT_COUNT>  (1) 
1

>  <PUBCHEM_CACTVS_TAUTO_COUNT>  (1) 
1

>  <PUBCHEM_CONFORMER_ID>  (1) 
00002D5E00000001

>  <PUBCHEM_MMFF94_ENERGY>  (1) 
2.1818

>  <PUBCHEM_FEATURE_SELFOVERLAP>  (1) 
10.148

>  <PUBCHEM_SHAPE_FINGERPRINT>  (1) 
11062470 55 16081087073646574198
12932764 1 15841541938765181028
14325111 11 18410573963924586466
14390081 3 18411416194205765920
29004967 10 16988565688496154250
5460574 1 9295285045351054024

>  <PUBCHEM_SHAPE_MULTIPOLES>  (1) 
132.32
5.69
0.84
0.59
1.1
0.03
0
0.5
0.05
-0.19
0
0.06
0
0

>  <PUBCHEM_SHAPE_SELFOVERLAP>  (1) 
232.542

>  <PUBCHEM_SHAPE_VOLUME>  (1) 
86.7

>  <PUBCHEM_COORDINATE_TYPE>  (1) 
2
5
10

$$$$
