11625
     RDKit          3D

 10  9  0  0  0  0  0  0  0  0999 V2000
   -5.9755   -0.4644    0.0643 Br  0  0  0  0  0  0  0  0  0  0  0  0
    5.5767    0.2511    0.0246 F   0  0  0  0  0  0  0  0  0  0  0  0
   -0.6105   -0.4006   -0.0577 C   0  0  0  0  0  0  0  0  0  0  0  0
    0.6835    0.4149   -0.0112 C   0  0  0  0  0  0  0  0  0  0  0  0
   -1.8401    0.5104   -0.0300 C   0  0  0  0  0  0  0  0  0  0  0  0
    1.9476   -0.4492   -0.0133 C   0  0  0  0  0  0  0  0  0  0  0  0
   -3.1357   -0.3023   -0.0426 C   0  0  0  0  0  0  0  0  0  0  0  0
    3.2397    0.3650    0.0081 C   0  0  0  0  0  0  0  0  0  0  0  0
   -4.3507    0.6074    0.0258 C   0  0  0  0  0  0  0  0  0  0  0  0
    4.4649   -0.5324    0.0319 C   0  0  0  0  0  0  0  0  0  0  0  0
  1  9  1  0
  2 10  1  0
  3  4  1  0
  3  5  1  0
  4  6  1  0
  5  7  1  0
  6  8  1  0
  7  9  1  0
  8 10  1  0
M  END
>  <PUBCHEM_COMPOUND_CID>  (1) 
11625

>  <PUBCHEM_CONFORMER_RMSD>  (1) 
0.6

>  <PUBCHEM_CONFORMER_DIVERSEORDER>  (1) 
1
79
61
341
155
190
321
277
82
42
109
269
200
80
338
4
96
186
67
11
209
220
175
120
6
289
257
7
45
21
213
133
332
146
69
27
164
274
83
71
147
84
123
24
37
63
178
168
294
278
170
166
211
9
85
252
305
93
210
171
137
196
331
287
194
297
108
201
112
50
121
272
188
74
271
347
340
81
26
94
233
291
14
326
31
158
122
346
218
3
88
334
124
263
339
107
66
130
140
39
105
5
303
221
70
40
309
59
262
345
16
246
284
25
102
219
95
337
127
292
47
192
38
238
148
29
78
91
301
324
330
142
51
2
300
52
231
312
143
322
22
98
265
314
145
173
290
223
235
139
183
230
193
13
41
254
141
106
318
169
10
58
217
275
311
343
159
49
104
151
325
126
229
163
15
288
152
60
208
308
132
264
245
161
243
267
156
260
315
191
247
259
182
12
244
323
125
276
228
113
227
131
198
298
179
64
62
240
225
283
189
90
206
167
99
138
8
204
43
65
205
53
136
36
253
20
299
197
34
176
86
222
319
268
157
46
180
103
72
285
333
187
75
258
212
153
129
165
116
214
174
115
313
55
117
215
195
304
23
144
293
128
77
316
119
114
281
328
199
239
250
307
249
154
248
76
87
216
110
73
282
296
310
241
280
89
35
226
286
54
224
56
336
255
18
149
242
306
335
270
134
317
150
344
207
68
273
251
185
44
97
327
342
19
320
160
302
234
295
237
30
256
57
172
232
329
111
17
100
203
48
118
101
135
184
28
236
32
202
92
181
33
266
177
261
162
279

>  <PUBCHEM_MMFF94_PARTIAL_CHARGES>  (1) 
4
1 -0.23
10 0.34
2 -0.34
9 0.23

>  <PUBCHEM_EFFECTIVE_ROTOR_COUNT>  (1) 
7

>  <PUBCHEM_PHARMACOPHORE_FEATURES>  (1) 
3
1 1 hydrophobe
3 3 5 7 hydrophobe
3 4 6 8 hydrophobe

>  <PUBCHEM_HEAVY_ATOM_COUNT>  (1) 
10

>  <PUBCHEM_ATOM_DEF_STEREO_COUNT>  (1) 
0

>  <PUBCHEM_ATOM_UDEF_STEREO_COUNT>  (1) 
0

>  <PUBCHEM_BOND_DEF_STEREO_COUNT>  (1) 
0

>  <PUBCHEM_BOND_UDEF_STEREO_COUNT>  (1) 
0

>  <PUBCHEM_ISOTOPIC_ATOM_COUNT>  (1) 
0

>  <PUBCHEM_COMPONENT_COUNT>  (1) 
1

>  <PUBCHEM_CACTVS_TAUTO_COUNT>  (1) 
1

>  <PUBCHEM_CONFORMER_ID>  (1) 
00002D6900000001

>  <PUBCHEM_MMFF94_ENERGY>  (1) 
-0.7193

>  <PUBCHEM_FEATURE_SELFOVERLAP>  (1) 
15.223

>  <PUBCHEM_SHAPE_FINGERPRINT>  (1) 
11062470 55 18059856160080734804
12815109 37 11097855194215734879
14123238 8 18186521003480991087
1420 363 18334582347611179707
14251718 22 18259984885949891219
15242439 84 11386369253205189461
17834072 33 18411419552801470333
17834076 25 18410575088958059202
20645477 70 18199752457733051270
20719005 15 18410575080373386373
20767249 13 17749108889767557719
23402539 116 18410851062867686525
366044 4 18335139795389988387
42788 4 18410855455849103204
8209 1 18409448090014303589

>  <PUBCHEM_SHAPE_MULTIPOLES>  (1) 
204.46
13.9
0.82
0.62
0.83
0.01
0
1.15
0.38
0.23
0
0.14
0.01
0.01

>  <PUBCHEM_SHAPE_SELFOVERLAP>  (1) 
348.734

>  <PUBCHEM_SHAPE_VOLUME>  (1) 
138.5

>  <PUBCHEM_COORDINATE_TYPE>  (1) 
2
5
10

$$$$
