11634
     RDKit          3D

 20 19  0  0  0  0  0  0  0  0999 V2000
   -7.5715    3.1964   -1.3240 O   0  0  0  0  0  0  0  0  0  0  0  0
   -7.2322    2.8498    0.8939 O   0  0  0  0  0  0  0  0  0  0  0  0
    3.0213   -1.0013    0.0826 C   0  0  0  0  0  0  0  0  0  0  0  0
    4.3700   -0.6284   -0.5406 C   0  0  0  0  0  0  0  0  0  0  0  0
    2.1789   -2.0123   -0.7038 C   0  0  0  0  0  0  0  0  0  0  0  0
    5.1542    0.4028    0.2725 C   0  0  0  0  0  0  0  0  0  0  0  0
    0.8738   -2.3936   -0.0007 C   0  0  0  0  0  0  0  0  0  0  0  0
    6.4829    0.7456   -0.4039 C   0  0  0  0  0  0  0  0  0  0  0  0
    0.0363   -3.4126   -0.7821 C   0  0  0  0  0  0  0  0  0  0  0  0
    7.2840    1.7504    0.4248 C   0  0  0  0  0  0  0  0  0  0  0  0
   -1.3190   -3.7657   -0.1616 C   0  0  0  0  0  0  0  0  0  0  0  0
    8.5948    2.1224   -0.2666 C   0  0  0  0  0  0  0  0  0  0  0  0
   -2.2594   -2.5971   -0.0602 C   0  0  0  0  0  0  0  0  0  0  0  0
   -3.7078   -0.9999    1.3173 C   0  0  0  0  0  0  0  0  0  0  0  0
   -4.3004   -0.2555    0.1104 C   0  0  0  0  0  0  0  0  0  0  0  0
    9.3751    3.1496    0.5378 C   0  0  0  0  0  0  0  0  0  0  0  0
   -2.7651   -2.1520    1.0994 C   0  0  0  0  0  0  0  0  0  0  0  0
   -5.2999    0.8502    0.4782 C   0  0  0  0  0  0  0  0  0  0  0  0
   -5.9492    1.5618   -0.7016 C   0  0  0  0  0  0  0  0  0  0  0  0
   -6.9669    2.5894   -0.2719 C   0  0  0  0  0  0  0  0  0  0  0  0
  1 20  1  0
  2 20  2  0
  3  4  1  0
  3  5  1  0
  4  6  1  0
  5  7  1  0
  6  8  1  0
  7  9  1  0
  8 10  1  0
  9 11  1  0
 10 12  1  0
 11 13  1  0
 12 16  1  0
 13 17  2  0
 14 15  1  0
 14 17  1  0
 15 18  1  0
 18 19  1  0
 19 20  1  0
M  END
>  <PUBCHEM_COMPOUND_CID>  (1) 
11634

>  <PUBCHEM_CONFORMER_RMSD>  (1) 
1.4

>  <PUBCHEM_CONFORMER_DIVERSEORDER>  (1) 
2
59
32
25
60
58
21
37
9
53
22
57
26
13
51
63
34
31
18
41
15
6
11
39
46
65
40
35
33
42
61
68
1
47
17
29
45
38
12
48
50
23
8
56
62
24
5
19
28
30
55
3
20
67
7
14
54
44
64
4
16
49
36
66
52
27
43
10

>  <PUBCHEM_MMFF94_PARTIAL_CHARGES>  (1) 
11
1 -0.65
11 0.14
13 -0.29
14 0.14
17 -0.29
19 0.06
2 -0.57
20 0.66
41 0.15
49 0.15
54 0.5

>  <PUBCHEM_EFFECTIVE_ROTOR_COUNT>  (1) 
15

>  <PUBCHEM_PHARMACOPHORE_FEATURES>  (1) 
5
1 1 acceptor
1 16 hydrophobe
1 2 acceptor
3 1 2 20 anion
5 14 15 17 18 19 hydrophobe

>  <PUBCHEM_HEAVY_ATOM_COUNT>  (1) 
20

>  <PUBCHEM_ATOM_DEF_STEREO_COUNT>  (1) 
0

>  <PUBCHEM_ATOM_UDEF_STEREO_COUNT>  (1) 
0

>  <PUBCHEM_BOND_DEF_STEREO_COUNT>  (1) 
0

>  <PUBCHEM_BOND_UDEF_STEREO_COUNT>  (1) 
1

>  <PUBCHEM_ISOTOPIC_ATOM_COUNT>  (1) 
0

>  <PUBCHEM_COMPONENT_COUNT>  (1) 
1

>  <PUBCHEM_CACTVS_TAUTO_COUNT>  (1) 
1

>  <PUBCHEM_CONFORMER_ID>  (1) 
00002D7200000002

>  <PUBCHEM_MMFF94_ENERGY>  (1) 
1.4108

>  <PUBCHEM_FEATURE_SELFOVERLAP>  (1) 
25.43

>  <PUBCHEM_SHAPE_FINGERPRINT>  (1) 
11211813 15 18413109450802839321
11476731 99 17030201798225351733
14123256 34 9655284939542244423
14251764 30 9150878478541902359
14647877 103 18262244412731404774
14919807 6 18341631317490140060
14931854 50 17632581513220605234
15685185 35 18201729440254514937
15803439 3 16702582727002437855
16120349 189 18412259536709544839
1768 4 18341906173595362033
20609170 94 18335693959354300077
21095086 4 10159687011075746645
21095123 293 18116158951796779004
21585482 111 18410577310538060156
23516275 100 18263922146822019397
23522609 53 17056967261704037713
270888 7 18410011005518874351
2748736 6 18410851032407360691
393628 179 18131059442343316400
393628 194 18409450301949673357
406291 66 9367343734653563448
5718773 13 9151169848542890838
57307002 19 17895189949258823709
58260988 114 8286211569197015679
6327066 14 18412544305804722167
636775 72 18339078323634682884
636775 8 8934729911786082128

>  <PUBCHEM_SHAPE_MULTIPOLES>  (1) 
399.85
29.11
5.24
1.01
33.84
0.39
-0.06
-48.61
-0.26
-5.43
0.73
-1.06
-0.09
2.59

>  <PUBCHEM_SHAPE_SELFOVERLAP>  (1) 
731.547

>  <PUBCHEM_SHAPE_VOLUME>  (1) 
252.8

>  <PUBCHEM_COORDINATE_TYPE>  (1) 
2
5
10

$$$$
