11630
     RDKit          3D

 11 10  0  0  0  0  0  0  0  0999 V2000
    3.1337    2.1801    0.0790 F   0  0  0  0  0  0  0  0  0  0  0  0
   -0.6061   -0.7041    0.2123 O   0  0  0  0  0  0  0  0  0  0  0  0
    2.1418   -0.3752   -0.2006 O   0  0  0  0  0  0  0  0  0  0  0  0
   -2.7533    0.3555    0.1873 C   0  0  0  0  0  0  0  0  0  0  0  0
   -1.9326   -0.8386   -0.2790 C   0  0  0  0  0  0  0  0  0  0  0  0
   -4.1991    0.2679   -0.2932 C   0  0  0  0  0  0  0  0  0  0  0  0
    0.2130   -1.7932   -0.1911 C   0  0  0  0  0  0  0  0  0  0  0  0
    1.6168   -1.5807    0.3421 C   0  0  0  0  0  0  0  0  0  0  0  0
   -5.0256    1.4401    0.2107 C   0  0  0  0  0  0  0  0  0  0  0  0
    3.4600   -0.1248    0.2666 C   0  0  0  0  0  0  0  0  0  0  0  0
    3.9513    1.1730   -0.3341 C   0  0  0  0  0  0  0  0  0  0  0  0
  1 11  1  0
  2  5  1  0
  2  7  1  0
  3  8  1  0
  3 10  1  0
  4  5  1  0
  4  6  1  0
  6  9  1  0
  7  8  1  0
 10 11  1  0
M  END
>  <PUBCHEM_COMPOUND_CID>  (1) 
11630

>  <PUBCHEM_CONFORMER_RMSD>  (1) 
0.8

>  <PUBCHEM_CONFORMER_DIVERSEORDER>  (1) 
1
100
79
89
26
126
55
2
53
119
86
124
7
80
95
73
68
122
115
78
17
59
105
27
110
107
85
121
16
120
129
72
70
18
91
10
12
31
123
43
97
87
98
37
127
23
96
93
92
50
49
29
34
56
82
83
21
13
42
75
60
116
30
111
106
112
117
8
6
46
77
108
24
41
58
114
40
66
113
101
5
118
90
99
69
84
15
51
63
28
25
81
48
19
14
36
45
128
38
102
3
71
109
22
9
4
104
54
64
35
74
52
67
57
33
103
88
11
39
94
20
32
44
76
125
47
65
61
62

>  <PUBCHEM_MMFF94_PARTIAL_CHARGES>  (1) 
8
1 -0.34
10 0.28
11 0.34
2 -0.56
3 -0.56
5 0.28
7 0.28
8 0.28

>  <PUBCHEM_EFFECTIVE_ROTOR_COUNT>  (1) 
8

>  <PUBCHEM_PHARMACOPHORE_FEATURES>  (1) 
3
1 2 acceptor
1 3 acceptor
1 9 hydrophobe

>  <PUBCHEM_HEAVY_ATOM_COUNT>  (1) 
11

>  <PUBCHEM_ATOM_DEF_STEREO_COUNT>  (1) 
0

>  <PUBCHEM_ATOM_UDEF_STEREO_COUNT>  (1) 
0

>  <PUBCHEM_BOND_DEF_STEREO_COUNT>  (1) 
0

>  <PUBCHEM_BOND_UDEF_STEREO_COUNT>  (1) 
0

>  <PUBCHEM_ISOTOPIC_ATOM_COUNT>  (1) 
0

>  <PUBCHEM_COMPONENT_COUNT>  (1) 
1

>  <PUBCHEM_CACTVS_TAUTO_COUNT>  (1) 
1

>  <PUBCHEM_CONFORMER_ID>  (1) 
00002D6E00000001

>  <PUBCHEM_MMFF94_ENERGY>  (1) 
8.2067

>  <PUBCHEM_FEATURE_SELFOVERLAP>  (1) 
15.227

>  <PUBCHEM_SHAPE_FINGERPRINT>  (1) 
100836 57 18334020505648466612
11159736 12 11386666147378646457
11987891 38 10015575121560900845
122479 349 18334297616648474986
13237642 15 17967544475807447539
14123255 52 18411418427404065567
14123260 362 17774731887477488209
1420 369 8358261449103914193
14251710 61 9006788591606742712
14252887 29 12468634998170962024
14415576 193 18271244915589045959
170605 34 18408886209044080483
177051 138 8574713502786274627
17834072 32 18410858801618181229
17834072 33 18342731928133612367
20432913 95 8862940593514819661
20621476 66 18189902097033577660
20767249 142 9511453425313588389
212847 35 18333734611435186428
21354914 76 8718828690877967769
21499 59 18412258428781925767
22959321 54 18411984628700581553
22959321 60 18114471136142093443
23402655 69 18273496792838574236
23500284 214 18186804715861551474
23532345 1 18337112267984664275
449060 50 18409170978967231567
449060 62 18410575063209386923
8199 26 18411702114167692232
94968 8 10159699097076521340

>  <PUBCHEM_SHAPE_MULTIPOLES>  (1) 
207.36
9.93
1.93
0.65
5.87
0.32
0
6.64
-0.01
-1.27
-0.01
0.03
-0.02
-0.38

>  <PUBCHEM_SHAPE_SELFOVERLAP>  (1) 
369.76

>  <PUBCHEM_SHAPE_VOLUME>  (1) 
135

>  <PUBCHEM_COORDINATE_TYPE>  (1) 
2
5
10

$$$$
