11641
     RDKit          3D

  3  2  0  0  0  0  0  0  0  0999 V2000
   -1.5208   -0.1828    0.0000 Br  0  0  0  0  0  0  0  0  0  0  0  0
    0.2125    0.4719    0.0000 C   0  0  0  0  0  0  0  0  0  0  0  0
    1.3083   -0.2891    0.0000 C   0  0  0  0  0  0  0  0  0  0  0  0
  1  2  1  0
  2  3  2  0
M  END
>  <PUBCHEM_COMPOUND_CID>  (1) 
11641

>  <PUBCHEM_CONFORMER_RMSD>  (1) 
0.4

>  <PUBCHEM_CONFORMER_DIVERSEORDER>  (1) 
1

>  <PUBCHEM_MMFF94_PARTIAL_CHARGES>  (1) 
6
1 -0.11
2 -0.04
3 -0.3
4 0.15
5 0.15
6 0.15

>  <PUBCHEM_EFFECTIVE_ROTOR_COUNT>  (1) 
0

>  <PUBCHEM_PHARMACOPHORE_FEATURES>  (1) 
1
1 1 hydrophobe

>  <PUBCHEM_HEAVY_ATOM_COUNT>  (1) 
3

>  <PUBCHEM_ATOM_DEF_STEREO_COUNT>  (1) 
0

>  <PUBCHEM_ATOM_UDEF_STEREO_COUNT>  (1) 
0

>  <PUBCHEM_BOND_DEF_STEREO_COUNT>  (1) 
0

>  <PUBCHEM_BOND_UDEF_STEREO_COUNT>  (1) 
0

>  <PUBCHEM_ISOTOPIC_ATOM_COUNT>  (1) 
0

>  <PUBCHEM_COMPONENT_COUNT>  (1) 
1

>  <PUBCHEM_CACTVS_TAUTO_COUNT>  (1) 
1

>  <PUBCHEM_CONFORMER_ID>  (1) 
00002D7900000001

>  <PUBCHEM_MMFF94_ENERGY>  (1) 
0.6544

>  <PUBCHEM_FEATURE_SELFOVERLAP>  (1) 
5.074

>  <PUBCHEM_SHAPE_FINGERPRINT>  (1) 
139733 1 18338799017210066949
20096714 4 9007052474260245847
21015797 1 18125155197723702636
5460574 1 18410856546807667687

>  <PUBCHEM_SHAPE_MULTIPOLES>  (1) 
67.68
2.08
0.77
0.66
0.32
0.01
0
-0.28
0
0.01
0
0.06
-0.01
0

>  <PUBCHEM_SHAPE_SELFOVERLAP>  (1) 
98.366

>  <PUBCHEM_SHAPE_VOLUME>  (1) 
51.9

>  <PUBCHEM_COORDINATE_TYPE>  (1) 
2
5
10

$$$$
