11647
     RDKit          3D

  3  2  0  0  0  0  0  0  0  0999 V2000
   -1.1563    0.2934    0.0000 O   0  0  0  0  0  0  0  0  0  0  0  0
   -0.0014   -0.5858    0.0000 N   0  0  0  0  0  0  0  0  0  0  0  0
    1.1577    0.2923    0.0000 C   0  0  0  0  0  0  0  0  0  0  0  0
  1  2  1  0
  2  3  1  0
M  END
>  <PUBCHEM_COMPOUND_CID>  (1) 
11647

>  <PUBCHEM_CONFORMER_RMSD>  (1) 
0.4

>  <PUBCHEM_CONFORMER_DIVERSEORDER>  (1) 
1

>  <PUBCHEM_MMFF94_PARTIAL_CHARGES>  (1) 
5
1 -0.3
2 -0.73
3 0.27
7 0.36
8 0.4

>  <PUBCHEM_EFFECTIVE_ROTOR_COUNT>  (1) 
0

>  <PUBCHEM_PHARMACOPHORE_FEATURES>  (1) 
1
1 1 anion

>  <PUBCHEM_HEAVY_ATOM_COUNT>  (1) 
3

>  <PUBCHEM_ATOM_DEF_STEREO_COUNT>  (1) 
0

>  <PUBCHEM_ATOM_UDEF_STEREO_COUNT>  (1) 
0

>  <PUBCHEM_BOND_DEF_STEREO_COUNT>  (1) 
0

>  <PUBCHEM_BOND_UDEF_STEREO_COUNT>  (1) 
0

>  <PUBCHEM_ISOTOPIC_ATOM_COUNT>  (1) 
0

>  <PUBCHEM_COMPONENT_COUNT>  (1) 
1

>  <PUBCHEM_CACTVS_TAUTO_COUNT>  (1) 
1

>  <PUBCHEM_CONFORMER_ID>  (1) 
00002D7F00000001

>  <PUBCHEM_MMFF94_ENERGY>  (1) 
-1.4252

>  <PUBCHEM_FEATURE_SELFOVERLAP>  (1) 
5.074

>  <PUBCHEM_SHAPE_FINGERPRINT>  (1) 
139733 1 18410856572588118404
21015797 1 18192149519288332390

>  <PUBCHEM_SHAPE_MULTIPOLES>  (1) 
50.89
1.46
0.71
0.55
0
0.03
0
-0.25
0
0.01
0
0.05
-0.01
0

>  <PUBCHEM_SHAPE_SELFOVERLAP>  (1) 
74.989

>  <PUBCHEM_SHAPE_VOLUME>  (1) 
38.8

>  <PUBCHEM_COORDINATE_TYPE>  (1) 
2
5
10

$$$$
