11657
     RDKit          3D

  4  4  0  0  0  0  0  0  0  0999 V2000
   -0.2486    0.0001    0.4755 C   0  0  0  0  0  0  0  0  0  0  0  0
    0.9030    0.7503   -0.1265 C   0  0  0  0  0  0  0  0  0  0  0  0
    0.9032   -0.7503   -0.1264 C   0  0  0  0  0  0  0  0  0  0  0  0
   -1.5575   -0.0001   -0.2225 C   0  0  0  0  0  0  0  0  0  0  0  0
  1  2  1  0
  1  3  1  0
  1  4  1  0
  2  3  1  0
M  END
>  <PUBCHEM_COMPOUND_CID>  (1) 
11657

>  <PUBCHEM_CONFORMER_RMSD>  (1) 
0.4

>  <PUBCHEM_CONFORMER_DIVERSEORDER>  (1) 
1

>  <PUBCHEM_MMFF94_PARTIAL_CHARGES>  (1) 
9
1 -0.19
2 -0.2
3 -0.2
4 0.09
5 0.1
6 0.1
7 0.1
8 0.1
9 0.1

>  <PUBCHEM_EFFECTIVE_ROTOR_COUNT>  (1) 
0.6

>  <PUBCHEM_PHARMACOPHORE_FEATURES>  (1) 
0

>  <PUBCHEM_HEAVY_ATOM_COUNT>  (1) 
4

>  <PUBCHEM_ATOM_DEF_STEREO_COUNT>  (1) 
0

>  <PUBCHEM_ATOM_UDEF_STEREO_COUNT>  (1) 
0

>  <PUBCHEM_BOND_DEF_STEREO_COUNT>  (1) 
0

>  <PUBCHEM_BOND_UDEF_STEREO_COUNT>  (1) 
0

>  <PUBCHEM_ISOTOPIC_ATOM_COUNT>  (1) 
0

>  <PUBCHEM_COMPONENT_COUNT>  (1) 
1

>  <PUBCHEM_CACTVS_TAUTO_COUNT>  (1) 
1

>  <PUBCHEM_CONFORMER_ID>  (1) 
00002D8900000001

>  <PUBCHEM_MMFF94_ENERGY>  (1) 
7.143

>  <PUBCHEM_FEATURE_SELFOVERLAP>  (1) 
0

>  <PUBCHEM_SHAPE_FINGERPRINT>  (1) 
139733 1 8213555814651634598
20096714 4 18262521523267312661
21015797 1 8718242608330800120
5943 1 9923927253635254058

>  <PUBCHEM_SHAPE_MULTIPOLES>  (1) 
82.32
1.65
0.9
0.69
0.58
0
-0.02
0
0.18
-0.25
0.04
0.03
0
0

>  <PUBCHEM_SHAPE_SELFOVERLAP>  (1) 
147.284

>  <PUBCHEM_SHAPE_VOLUME>  (1) 
55.5

>  <PUBCHEM_COORDINATE_TYPE>  (1) 
2
5
10

$$$$
