11659
     RDKit          3D

  5  4  0  0  0  0  0  0  0  0999 V2000
   -1.6125   -1.0639    0.0004 Br  0  0  0  0  0  0  0  0  0  0  0  0
    1.6119   -1.0646    0.0006 Br  0  0  0  0  0  0  0  0  0  0  0  0
    0.0002    1.0482    1.4554 Cl  0  0  0  0  0  0  0  0  0  0  0  0
    0.0004    1.0468   -1.4564 Cl  0  0  0  0  0  0  0  0  0  0  0  0
    0.0000    0.0335    0.0000 C   0  0  0  0  0  0  0  0  0  0  0  0
  1  5  1  0
  2  5  1  0
  3  5  1  0
  4  5  1  0
M  END
>  <PUBCHEM_COMPOUND_CID>  (1) 
11659

>  <PUBCHEM_CONFORMER_RMSD>  (1) 
0.4

>  <PUBCHEM_CONFORMER_DIVERSEORDER>  (1) 
1

>  <PUBCHEM_MMFF94_PARTIAL_CHARGES>  (1) 
5
1 -0.23
2 -0.23
3 -0.29
4 -0.29
5 1.04

>  <PUBCHEM_EFFECTIVE_ROTOR_COUNT>  (1) 
0

>  <PUBCHEM_PHARMACOPHORE_FEATURES>  (1) 
3
1 1 hydrophobe
1 2 hydrophobe
3 1 2 5 hydrophobe

>  <PUBCHEM_HEAVY_ATOM_COUNT>  (1) 
5

>  <PUBCHEM_ATOM_DEF_STEREO_COUNT>  (1) 
0

>  <PUBCHEM_ATOM_UDEF_STEREO_COUNT>  (1) 
0

>  <PUBCHEM_BOND_DEF_STEREO_COUNT>  (1) 
0

>  <PUBCHEM_BOND_UDEF_STEREO_COUNT>  (1) 
0

>  <PUBCHEM_ISOTOPIC_ATOM_COUNT>  (1) 
0

>  <PUBCHEM_COMPONENT_COUNT>  (1) 
1

>  <PUBCHEM_CACTVS_TAUTO_COUNT>  (1) 
1

>  <PUBCHEM_CONFORMER_ID>  (1) 
00002D8B00000001

>  <PUBCHEM_MMFF94_ENERGY>  (1) 
0.0015

>  <PUBCHEM_FEATURE_SELFOVERLAP>  (1) 
16.543

>  <PUBCHEM_SHAPE_FINGERPRINT>  (1) 
16714656 1 17751914714402810399
24536 1 11388014161292412843
5943 1 12524182479755555521

>  <PUBCHEM_SHAPE_MULTIPOLES>  (1) 
118.52
1.84
1.6
1.48
0
0.01
0
1.19
0
0
0
0
-0.87
0

>  <PUBCHEM_SHAPE_SELFOVERLAP>  (1) 
168.339

>  <PUBCHEM_SHAPE_VOLUME>  (1) 
90.9

>  <PUBCHEM_COORDINATE_TYPE>  (1) 
2
5
10

$$$$
