11655
     RDKit          3D

  4  3  0  0  0  0  0  0  0  0999 V2000
   -1.8966    0.0000    0.1323 I   0  0  0  0  0  0  0  0  0  0  0  0
    0.8947    1.4560    0.1684 Cl  0  0  0  0  0  0  0  0  0  0  0  0
    0.8946   -1.4561    0.1683 Cl  0  0  0  0  0  0  0  0  0  0  0  0
    0.1073    0.0002   -0.4691 C   0  0  0  0  0  0  0  0  0  0  0  0
  1  4  1  0
  2  4  1  0
  3  4  1  0
M  END
>  <PUBCHEM_COMPOUND_CID>  (1) 
11655

>  <PUBCHEM_CONFORMER_RMSD>  (1) 
0.4

>  <PUBCHEM_CONFORMER_DIVERSEORDER>  (1) 
1

>  <PUBCHEM_MMFF94_PARTIAL_CHARGES>  (1) 
4
1 -0.19
2 -0.29
3 -0.29
4 0.77

>  <PUBCHEM_EFFECTIVE_ROTOR_COUNT>  (1) 
0

>  <PUBCHEM_PHARMACOPHORE_FEATURES>  (1) 
1
1 1 hydrophobe

>  <PUBCHEM_HEAVY_ATOM_COUNT>  (1) 
4

>  <PUBCHEM_ATOM_DEF_STEREO_COUNT>  (1) 
0

>  <PUBCHEM_ATOM_UDEF_STEREO_COUNT>  (1) 
0

>  <PUBCHEM_BOND_DEF_STEREO_COUNT>  (1) 
0

>  <PUBCHEM_BOND_UDEF_STEREO_COUNT>  (1) 
0

>  <PUBCHEM_ISOTOPIC_ATOM_COUNT>  (1) 
0

>  <PUBCHEM_COMPONENT_COUNT>  (1) 
1

>  <PUBCHEM_CACTVS_TAUTO_COUNT>  (1) 
1

>  <PUBCHEM_CONFORMER_ID>  (1) 
00002D8700000001

>  <PUBCHEM_MMFF94_ENERGY>  (1) 
0.0009

>  <PUBCHEM_FEATURE_SELFOVERLAP>  (1) 
5.074

>  <PUBCHEM_SHAPE_FINGERPRINT>  (1) 
139733 1 9870590197985674431
16714656 1 17404312797584045919
20096714 4 18200317765522829645
21015797 1 8790888471059459261
24536 1 17240491333634717989
5943 1 17270835637857090141

>  <PUBCHEM_SHAPE_MULTIPOLES>  (1) 
97.99
2.23
1.68
0.77
1.35
0
0
0
0.17
-0.95
0.17
0.08
0
0

>  <PUBCHEM_SHAPE_SELFOVERLAP>  (1) 
133.395

>  <PUBCHEM_SHAPE_VOLUME>  (1) 
79.8

>  <PUBCHEM_COORDINATE_TYPE>  (1) 
2
5
10

$$$$
