11663
     RDKit          3D

  6  5  0  0  0  0  0  0  0  0999 V2000
   -2.0960   -1.0086    0.2926 Br  0  0  0  0  0  0  0  0  0  0  0  0
   -0.8501    1.8176   -0.6436 Br  0  0  0  0  0  0  0  0  0  0  0  0
    0.7331   -0.4465    0.3132 C   0  0  0  0  0  0  0  0  0  0  0  0
   -0.6195    0.2571    0.4983 C   0  0  0  0  0  0  0  0  0  0  0  0
    1.9038    0.5058    0.5876 C   0  0  0  0  0  0  0  0  0  0  0  0
    0.9287   -1.1255   -1.0480 C   0  0  0  0  0  0  0  0  0  0  0  0
  1  4  1  0
  2  4  1  0
  3  4  1  0
  3  5  1  0
  3  6  1  0
M  END
>  <PUBCHEM_COMPOUND_CID>  (1) 
11663

>  <PUBCHEM_CONFORMER_RMSD>  (1) 
0.4

>  <PUBCHEM_CONFORMER_DIVERSEORDER>  (1) 
1
2
3

>  <PUBCHEM_MMFF94_PARTIAL_CHARGES>  (1) 
3
1 -0.23
2 -0.23
4 0.46

>  <PUBCHEM_EFFECTIVE_ROTOR_COUNT>  (1) 
1

>  <PUBCHEM_PHARMACOPHORE_FEATURES>  (1) 
4
1 1 hydrophobe
1 2 hydrophobe
3 1 2 4 hydrophobe
3 3 5 6 hydrophobe

>  <PUBCHEM_HEAVY_ATOM_COUNT>  (1) 
6

>  <PUBCHEM_ATOM_DEF_STEREO_COUNT>  (1) 
0

>  <PUBCHEM_ATOM_UDEF_STEREO_COUNT>  (1) 
0

>  <PUBCHEM_BOND_DEF_STEREO_COUNT>  (1) 
0

>  <PUBCHEM_BOND_UDEF_STEREO_COUNT>  (1) 
0

>  <PUBCHEM_ISOTOPIC_ATOM_COUNT>  (1) 
0

>  <PUBCHEM_COMPONENT_COUNT>  (1) 
1

>  <PUBCHEM_CACTVS_TAUTO_COUNT>  (1) 
1

>  <PUBCHEM_CONFORMER_ID>  (1) 
00002D8F00000001

>  <PUBCHEM_MMFF94_ENERGY>  (1) 
7.3631

>  <PUBCHEM_FEATURE_SELFOVERLAP>  (1) 
21.633

>  <PUBCHEM_SHAPE_FINGERPRINT>  (1) 
137420 1 12558477918463780614
16714656 1 18198904910324141296
20711978 78 16988288555763190999
21040471 1 17683241356957244661
23552449 1 18261380140008798537
24536 1 17701813285076208754
29004967 10 18336551637123646299
5943 1 11354077012897792236

>  <PUBCHEM_SHAPE_MULTIPOLES>  (1) 
135.36
2.47
1.78
1.03
0.29
0.9
0.19
-0.62
-0.41
0.61
0.47
-0.21
-0.1
0.43

>  <PUBCHEM_SHAPE_SELFOVERLAP>  (1) 
212.14

>  <PUBCHEM_SHAPE_VOLUME>  (1) 
98.1

>  <PUBCHEM_COORDINATE_TYPE>  (1) 
2
5
10

$$$$
