11667
     RDKit          3D

  6  5  0  0  0  0  0  0  0  0999 V2000
    2.0543    0.9944    0.0136 Cl  0  0  0  0  0  0  0  0  0  0  0  0
    0.3872   -0.1970   -0.0086 S   0  0  0  0  0  0  0  0  0  0  0  0
    0.3663   -0.7835   -1.3357 O   0  0  0  0  0  0  0  0  0  0  0  0
    0.4992   -1.0167    1.1834 O   0  0  0  0  0  0  0  0  0  0  0  0
   -1.0022    0.8749    0.1640 C   0  0  0  0  0  0  0  0  0  0  0  0
   -2.3047    0.1280   -0.0167 C   0  0  0  0  0  0  0  0  0  0  0  0
  1  2  1  0
  2  3  2  0
  2  4  2  0
  2  5  1  0
  5  6  1  0
M  END
>  <PUBCHEM_COMPOUND_CID>  (1) 
11667

>  <PUBCHEM_CONFORMER_RMSD>  (1) 
0.4

>  <PUBCHEM_CONFORMER_DIVERSEORDER>  (1) 
1
2
3

>  <PUBCHEM_MMFF94_PARTIAL_CHARGES>  (1) 
5
1 -0.19
2 1.38
3 -0.65
4 -0.65
5 0.11

>  <PUBCHEM_EFFECTIVE_ROTOR_COUNT>  (1) 
1

>  <PUBCHEM_PHARMACOPHORE_FEATURES>  (1) 
0

>  <PUBCHEM_HEAVY_ATOM_COUNT>  (1) 
6

>  <PUBCHEM_ATOM_DEF_STEREO_COUNT>  (1) 
0

>  <PUBCHEM_ATOM_UDEF_STEREO_COUNT>  (1) 
0

>  <PUBCHEM_BOND_DEF_STEREO_COUNT>  (1) 
0

>  <PUBCHEM_BOND_UDEF_STEREO_COUNT>  (1) 
0

>  <PUBCHEM_ISOTOPIC_ATOM_COUNT>  (1) 
0

>  <PUBCHEM_COMPONENT_COUNT>  (1) 
1

>  <PUBCHEM_CACTVS_TAUTO_COUNT>  (1) 
1

>  <PUBCHEM_CONFORMER_ID>  (1) 
00002D9300000001

>  <PUBCHEM_MMFF94_ENERGY>  (1) 
-0.6425

>  <PUBCHEM_FEATURE_SELFOVERLAP>  (1) 
0

>  <PUBCHEM_SHAPE_FINGERPRINT>  (1) 
16714656 1 17774437320897250429
20096714 4 18412823611922993056
21040471 1 17531262667840788515
23552449 11 17241872199616175849
24536 1 17772182016691016329
29004967 10 17774737388950733835
5943 1 15323107208148131830

>  <PUBCHEM_SHAPE_MULTIPOLES>  (1) 
117.46
2.6
1.14
1.01
0.5
0.02
0.02
0.91
0.04
-0.25
-0.03
-0.16
-0.37
-0.05

>  <PUBCHEM_SHAPE_SELFOVERLAP>  (1) 
189.708

>  <PUBCHEM_SHAPE_VOLUME>  (1) 
83.4

>  <PUBCHEM_COORDINATE_TYPE>  (1) 
2
5
10

$$$$
