11669
     RDKit          3D

  7  6  0  0  0  0  0  0  0  0999 V2000
   -0.6316   -0.0153   -0.0001 C   0  0  0  0  0  0  0  0  0  0  0  0
    0.9066    0.1110   -0.0002 C   0  0  0  0  0  0  0  0  0  0  0  0
   -1.0988   -0.7805    1.2552 C   0  0  0  0  0  0  0  0  0  0  0  0
   -1.3623    1.3486    0.0006 C   0  0  0  0  0  0  0  0  0  0  0  0
   -1.0995   -0.7798   -1.2555 C   0  0  0  0  0  0  0  0  0  0  0  0
    1.7158   -1.1658    0.0000 C   0  0  0  0  0  0  0  0  0  0  0  0
    1.5698    1.2818   -0.0001 C   0  0  0  0  0  0  0  0  0  0  0  0
  1  2  1  0
  1  3  1  0
  1  4  1  0
  1  5  1  0
  2  6  1  0
  2  7  2  0
M  END
>  <PUBCHEM_COMPOUND_CID>  (1) 
11669

>  <PUBCHEM_CONFORMER_RMSD>  (1) 
0.4

>  <PUBCHEM_CONFORMER_DIVERSEORDER>  (1) 
1

>  <PUBCHEM_MMFF94_PARTIAL_CHARGES>  (1) 
6
1 0.14
2 -0.28
20 0.15
21 0.15
6 0.14
7 -0.3

>  <PUBCHEM_EFFECTIVE_ROTOR_COUNT>  (1) 
1

>  <PUBCHEM_PHARMACOPHORE_FEATURES>  (1) 
1
4 1 3 4 5 hydrophobe

>  <PUBCHEM_HEAVY_ATOM_COUNT>  (1) 
7

>  <PUBCHEM_ATOM_DEF_STEREO_COUNT>  (1) 
0

>  <PUBCHEM_ATOM_UDEF_STEREO_COUNT>  (1) 
0

>  <PUBCHEM_BOND_DEF_STEREO_COUNT>  (1) 
0

>  <PUBCHEM_BOND_UDEF_STEREO_COUNT>  (1) 
0

>  <PUBCHEM_ISOTOPIC_ATOM_COUNT>  (1) 
0

>  <PUBCHEM_COMPONENT_COUNT>  (1) 
1

>  <PUBCHEM_CACTVS_TAUTO_COUNT>  (1) 
1

>  <PUBCHEM_CONFORMER_ID>  (1) 
00002D9500000001

>  <PUBCHEM_MMFF94_ENERGY>  (1) 
15.478

>  <PUBCHEM_FEATURE_SELFOVERLAP>  (1) 
5.074

>  <PUBCHEM_SHAPE_FINGERPRINT>  (1) 
137420 1 10197836748443686731
18185500 45 17842824792397925070
20096714 4 18338797797381585956
21040471 1 18266459806461754432
23552333 60 17845078752617245671
24536 1 18040994081029666644
29004967 10 18047473606168308635
5084963 1 18191868920643614897
5943 1 11914135319768753443

>  <PUBCHEM_SHAPE_MULTIPOLES>  (1) 
144.06
2.17
1.48
1.07
0.6
0.29
0
0.06
0
0.16
0
-0.49
-0.35
0

>  <PUBCHEM_SHAPE_SELFOVERLAP>  (1) 
261.535

>  <PUBCHEM_SHAPE_VOLUME>  (1) 
96.1

>  <PUBCHEM_COORDINATE_TYPE>  (1) 
2
5
10

$$$$
