11664
     RDKit          3D

  6  5  0  0  0  0  0  0  0  0999 V2000
   -1.9656    0.9437    0.3667 Cl  0  0  0  0  0  0  0  0  0  0  0  0
   -0.9489   -1.5545   -0.7208 Cl  0  0  0  0  0  0  0  0  0  0  0  0
    0.7355    0.3988    0.3219 C   0  0  0  0  0  0  0  0  0  0  0  0
   -0.6508   -0.2615    0.4719 C   0  0  0  0  0  0  0  0  0  0  0  0
    0.9666    1.0772   -1.0333 C   0  0  0  0  0  0  0  0  0  0  0  0
    1.8632   -0.6037    0.5936 C   0  0  0  0  0  0  0  0  0  0  0  0
  1  4  1  0
  2  4  1  0
  3  4  1  0
  3  5  1  0
  3  6  1  0
M  END
>  <PUBCHEM_COMPOUND_CID>  (1) 
11664

>  <PUBCHEM_CONFORMER_RMSD>  (1) 
0.4

>  <PUBCHEM_CONFORMER_DIVERSEORDER>  (1) 
1
3
2

>  <PUBCHEM_MMFF94_PARTIAL_CHARGES>  (1) 
3
1 -0.29
2 -0.29
4 0.58

>  <PUBCHEM_EFFECTIVE_ROTOR_COUNT>  (1) 
1

>  <PUBCHEM_PHARMACOPHORE_FEATURES>  (1) 
1
3 3 5 6 hydrophobe

>  <PUBCHEM_HEAVY_ATOM_COUNT>  (1) 
6

>  <PUBCHEM_ATOM_DEF_STEREO_COUNT>  (1) 
0

>  <PUBCHEM_ATOM_UDEF_STEREO_COUNT>  (1) 
0

>  <PUBCHEM_BOND_DEF_STEREO_COUNT>  (1) 
0

>  <PUBCHEM_BOND_UDEF_STEREO_COUNT>  (1) 
0

>  <PUBCHEM_ISOTOPIC_ATOM_COUNT>  (1) 
0

>  <PUBCHEM_COMPONENT_COUNT>  (1) 
1

>  <PUBCHEM_CACTVS_TAUTO_COUNT>  (1) 
1

>  <PUBCHEM_CONFORMER_ID>  (1) 
00002D9000000001

>  <PUBCHEM_MMFF94_ENERGY>  (1) 
4.5521

>  <PUBCHEM_FEATURE_SELFOVERLAP>  (1) 
5.074

>  <PUBCHEM_SHAPE_FINGERPRINT>  (1) 
137420 1 15114421735179060923
16714656 1 18118685422445756754
18185500 45 18049998093292164455
20096714 4 18042140867251881833
21040471 1 18201728310070927609
24536 1 17677607751328587344
29004967 10 17095807616205683128
5943 1 12984352465661159326

>  <PUBCHEM_SHAPE_MULTIPOLES>  (1) 
127.22
2.34
1.5
1.03
0.12
0.39
-0.19
-0.27
0.38
0.44
-0.38
-0.18
-0.06
-0.53

>  <PUBCHEM_SHAPE_SELFOVERLAP>  (1) 
206.229

>  <PUBCHEM_SHAPE_VOLUME>  (1) 
88.9

>  <PUBCHEM_COORDINATE_TYPE>  (1) 
2
5
10

$$$$
