11670
     RDKit          3D

  7  6  0  0  0  0  0  0  0  0999 V2000
    1.1871    1.2358    0.5179 O   0  0  0  0  0  0  0  0  0  0  0  0
    0.6326    0.0131    0.0108 C   0  0  0  0  0  0  0  0  0  0  0  0
   -0.8675   -0.0541    0.4239 C   0  0  0  0  0  0  0  0  0  0  0  0
    0.8538    0.0318   -1.5046 C   0  0  0  0  0  0  0  0  0  0  0  0
    1.4467   -1.1316    0.6286 C   0  0  0  0  0  0  0  0  0  0  0  0
   -1.5996   -1.2963   -0.0936 C   0  0  0  0  0  0  0  0  0  0  0  0
   -1.6532    1.2013    0.0171 C   0  0  0  0  0  0  0  0  0  0  0  0
  1  2  1  0
  2  3  1  0
  2  4  1  0
  2  5  1  0
  3  6  1  0
  3  7  1  0
M  END
>  <PUBCHEM_COMPOUND_CID>  (1) 
11670

>  <PUBCHEM_CONFORMER_RMSD>  (1) 
0.4

>  <PUBCHEM_CONFORMER_DIVERSEORDER>  (1) 
1
2
3

>  <PUBCHEM_MMFF94_PARTIAL_CHARGES>  (1) 
3
1 -0.68
2 0.28
21 0.4

>  <PUBCHEM_EFFECTIVE_ROTOR_COUNT>  (1) 
1

>  <PUBCHEM_PHARMACOPHORE_FEATURES>  (1) 
4
1 1 acceptor
1 1 donor
3 2 4 5 hydrophobe
3 3 6 7 hydrophobe

>  <PUBCHEM_HEAVY_ATOM_COUNT>  (1) 
7

>  <PUBCHEM_ATOM_DEF_STEREO_COUNT>  (1) 
0

>  <PUBCHEM_ATOM_UDEF_STEREO_COUNT>  (1) 
0

>  <PUBCHEM_BOND_DEF_STEREO_COUNT>  (1) 
0

>  <PUBCHEM_BOND_UDEF_STEREO_COUNT>  (1) 
0

>  <PUBCHEM_ISOTOPIC_ATOM_COUNT>  (1) 
0

>  <PUBCHEM_COMPONENT_COUNT>  (1) 
1

>  <PUBCHEM_CACTVS_TAUTO_COUNT>  (1) 
1

>  <PUBCHEM_CONFORMER_ID>  (1) 
00002D9600000001

>  <PUBCHEM_MMFF94_ENERGY>  (1) 
15.0809

>  <PUBCHEM_FEATURE_SELFOVERLAP>  (1) 
20.328

>  <PUBCHEM_SHAPE_FINGERPRINT>  (1) 
137420 1 12841789702252077076
20096714 4 18337676308595963113
21040471 1 18195254308365846849
24536 1 17275114902910898353
5084963 1 17913211141831333496
5943 1 13222634623023915062

>  <PUBCHEM_SHAPE_MULTIPOLES>  (1) 
138.19
2.14
1.42
1.05
0.42
0.12
-0.4
0.11
0.14
0.26
0.15
-0.38
-0.07
-0.17

>  <PUBCHEM_SHAPE_SELFOVERLAP>  (1) 
247.453

>  <PUBCHEM_SHAPE_VOLUME>  (1) 
91.7

>  <PUBCHEM_COORDINATE_TYPE>  (1) 
2
5
10

$$$$
