11678
     RDKit          3D

 11 10  0  0  0  0  0  0  0  0999 V2000
   -0.0238    1.6895    1.4633 Cl  0  0  0  0  0  0  0  0  0  0  0  0
    0.0027    1.6859   -1.4490 Cl  0  0  0  0  0  0  0  0  0  0  0  0
    2.8252    0.8638    0.0338 Cl  0  0  0  0  0  0  0  0  0  0  0  0
    1.5864   -1.2602   -1.4661 Cl  0  0  0  0  0  0  0  0  0  0  0  0
    1.5685   -1.3495    1.4126 Cl  0  0  0  0  0  0  0  0  0  0  0  0
   -2.8088    0.8706   -0.0165 Cl  0  0  0  0  0  0  0  0  0  0  0  0
   -1.5735   -1.3002   -1.4505 Cl  0  0  0  0  0  0  0  0  0  0  0  0
   -1.5991   -1.2965    1.4441 Cl  0  0  0  0  0  0  0  0  0  0  0  0
    0.0016    0.5590    0.0089 C   0  0  0  0  0  0  0  0  0  0  0  0
    1.3809   -0.2162    0.0220 C   0  0  0  0  0  0  0  0  0  0  0  0
   -1.3601   -0.2463   -0.0025 C   0  0  0  0  0  0  0  0  0  0  0  0
  1  9  1  0
  2  9  1  0
  3 10  1  0
  4 10  1  0
  5 10  1  0
  6 11  1  0
  7 11  1  0
  8 11  1  0
  9 10  1  0
  9 11  1  0
M  END
>  <PUBCHEM_COMPOUND_CID>  (1) 
11678

>  <PUBCHEM_CONFORMER_RMSD>  (1) 
0.4

>  <PUBCHEM_CONFORMER_DIVERSEORDER>  (1) 
1

>  <PUBCHEM_MMFF94_PARTIAL_CHARGES>  (1) 
11
1 -0.29
10 0.87
11 0.87
2 -0.29
3 -0.29
4 -0.29
5 -0.29
6 -0.29
7 -0.29
8 -0.29
9 0.58

>  <PUBCHEM_EFFECTIVE_ROTOR_COUNT>  (1) 
2

>  <PUBCHEM_PHARMACOPHORE_FEATURES>  (1) 
0

>  <PUBCHEM_HEAVY_ATOM_COUNT>  (1) 
11

>  <PUBCHEM_ATOM_DEF_STEREO_COUNT>  (1) 
0

>  <PUBCHEM_ATOM_UDEF_STEREO_COUNT>  (1) 
0

>  <PUBCHEM_BOND_DEF_STEREO_COUNT>  (1) 
0

>  <PUBCHEM_BOND_UDEF_STEREO_COUNT>  (1) 
0

>  <PUBCHEM_ISOTOPIC_ATOM_COUNT>  (1) 
0

>  <PUBCHEM_COMPONENT_COUNT>  (1) 
1

>  <PUBCHEM_CACTVS_TAUTO_COUNT>  (1) 
1

>  <PUBCHEM_CONFORMER_ID>  (1) 
00002D9E00000001

>  <PUBCHEM_MMFF94_ENERGY>  (1) 
27.5786

>  <PUBCHEM_FEATURE_SELFOVERLAP>  (1) 
0

>  <PUBCHEM_SHAPE_FINGERPRINT>  (1) 
12423570 1 14446492262636725293
12524768 44 18339929216368623565
137420 1 12263488496148165327
16945 1 16588568881929306084
20711985 344 17975710397662738652
21922407 69 17058093461113910667
23235687 12 18270100336769102326
23526114 1 17700121385784500528
23552333 60 18335136432509353240
241688 4 16829257160958682507
29004967 10 17748829626387982624
528886 8 17894907468484012624
54276843 12 17835006044885088567

>  <PUBCHEM_SHAPE_MULTIPOLES>  (1) 
241.33
3.37
1.98
1.81
0.04
0.21
-0.03
0
0.01
-0.01
0.03
-0.01
-0.34
0

>  <PUBCHEM_SHAPE_SELFOVERLAP>  (1) 
388.908

>  <PUBCHEM_SHAPE_VOLUME>  (1) 
166.5

>  <PUBCHEM_COORDINATE_TYPE>  (1) 
2
5
10

$$$$
