11672
     RDKit          3D

  7  6  0  0  0  0  0  0  0  0999 V2000
    1.4424    1.1056    0.0009 O   0  0  0  0  0  0  0  0  0  0  0  0
    1.4447   -1.0977    0.0040 O   0  0  0  0  0  0  0  0  0  0  0  0
    0.8805    0.0034   -0.0050 N   0  0  0  0  0  0  0  0  0  0  0  0
   -0.6058   -0.0011   -0.0006 C   0  0  0  0  0  0  0  0  0  0  0  0
   -1.0646    1.4538    0.0106 C   0  0  0  0  0  0  0  0  0  0  0  0
   -1.0478   -0.7244   -1.2681 C   0  0  0  0  0  0  0  0  0  0  0  0
   -1.0494   -0.7396    1.2582 C   0  0  0  0  0  0  0  0  0  0  0  0
  1  3  1  0
  2  3  2  0
  3  4  1  0
  4  5  1  0
  4  6  1  0
  4  7  1  0
M  CHG  2   1  -1   3   1
M  END
>  <PUBCHEM_COMPOUND_CID>  (1) 
11672

>  <PUBCHEM_CONFORMER_RMSD>  (1) 
0.4

>  <PUBCHEM_CONFORMER_DIVERSEORDER>  (1) 
1

>  <PUBCHEM_MMFF94_PARTIAL_CHARGES>  (1) 
4
1 -0.52
2 -0.52
3 0.8
4 0.24

>  <PUBCHEM_EFFECTIVE_ROTOR_COUNT>  (1) 
1

>  <PUBCHEM_PHARMACOPHORE_FEATURES>  (1) 
4
1 1 acceptor
1 1 anion
1 2 acceptor
4 4 5 6 7 hydrophobe

>  <PUBCHEM_HEAVY_ATOM_COUNT>  (1) 
7

>  <PUBCHEM_ATOM_DEF_STEREO_COUNT>  (1) 
0

>  <PUBCHEM_ATOM_UDEF_STEREO_COUNT>  (1) 
0

>  <PUBCHEM_BOND_DEF_STEREO_COUNT>  (1) 
0

>  <PUBCHEM_BOND_UDEF_STEREO_COUNT>  (1) 
0

>  <PUBCHEM_ISOTOPIC_ATOM_COUNT>  (1) 
0

>  <PUBCHEM_COMPONENT_COUNT>  (1) 
1

>  <PUBCHEM_CACTVS_TAUTO_COUNT>  (1) 
1

>  <PUBCHEM_CONFORMER_ID>  (1) 
00002D9800000001

>  <PUBCHEM_MMFF94_ENERGY>  (1) 
16.6405

>  <PUBCHEM_FEATURE_SELFOVERLAP>  (1) 
20.376

>  <PUBCHEM_SHAPE_FINGERPRINT>  (1) 
137420 1 9068799965155228153
20096714 4 18194398888087516865
21040471 1 17826240587880537673
24536 1 18040994063855046220
29004967 10 18121213444470148155
5943 1 16748404681105921607

>  <PUBCHEM_SHAPE_MULTIPOLES>  (1) 
127.34
1.72
1.37
1.09
0.58
0.37
-0.01
0.01
0
-0.07
0.01
-0.51
-0.38
0

>  <PUBCHEM_SHAPE_SELFOVERLAP>  (1) 
235.993

>  <PUBCHEM_SHAPE_VOLUME>  (1) 
82.1

>  <PUBCHEM_COORDINATE_TYPE>  (1) 
2
5
10

$$$$
