11687
     RDKit          3D

 25 28  0  0  1  0  0  0  0  0999 V2000
   -3.2502    0.0934    1.8427 O   0  0  0  0  0  0  0  0  0  0  0  0
   -4.2027   -2.1941    0.8536 O   0  0  0  0  0  0  0  0  0  0  0  0
   -4.2763    2.1836   -0.1210 O   0  0  0  0  0  0  0  0  0  0  0  0
    6.3754   -0.1252    1.1494 O   0  0  0  0  0  0  0  0  0  0  0  0
   -1.9623    0.4752   -0.2022 C   0  0  0  0  0  0  0  0  0  0  0  0
   -1.1605   -0.8208    0.0707 C   0  0  0  0  0  0  0  0  0  0  0  0
    0.2558   -0.7857   -0.5166 C   0  0  0  0  0  0  0  0  0  0  0  0
    1.0350    0.4119    0.1115 C   0  0  0  0  0  0  0  0  0  0  0  0
   -3.3224    0.0640    0.4213 C   0  0  0  0  0  0  0  0  0  0  0  0
   -1.2155    1.6293    0.4875 C   0  0  0  0  0  0  0  0  0  0  0  0
    2.5231    0.5110   -0.4025 C   0  0  0  0  0  0  0  0  0  0  0  0
   -2.1078   -1.9430   -0.3606 C   0  0  0  0  0  0  0  0  0  0  0  0
    0.2409    1.7418    0.0010 C   0  0  0  0  0  0  0  0  0  0  0  0
   -3.5203   -1.3833   -0.0898 C   0  0  0  0  0  0  0  0  0  0  0  0
    1.0055   -2.0974   -0.2496 C   0  0  0  0  0  0  0  0  0  0  0  0
   -2.1279    0.7933   -1.7136 C   0  0  0  0  0  0  0  0  0  0  0  0
    3.1979   -0.8619   -0.2852 C   0  0  0  0  0  0  0  0  0  0  0  0
    2.4211   -2.0465   -0.8096 C   0  0  0  0  0  0  0  0  0  0  0  0
    3.2763    1.5509    0.4777 C   0  0  0  0  0  0  0  0  0  0  0  0
    2.5960    0.9596   -1.8798 C   0  0  0  0  0  0  0  0  0  0  0  0
   -4.4538    0.9803    0.0625 C   0  0  0  0  0  0  0  0  0  0  0  0
    4.7896    1.4784    0.3467 C   0  0  0  0  0  0  0  0  0  0  0  0
    4.4248   -1.0545    0.2275 C   0  0  0  0  0  0  0  0  0  0  0  0
    5.2750    0.0845    0.6430 C   0  0  0  0  0  0  0  0  0  0  0  0
   -5.8167    0.3553   -0.0646 C   0  0  0  0  0  0  0  0  0  0  0  0
  1  9  1  0
  2 14  1  0
  3 21  2  0
  4 24  2  0
  5  6  1  0
  5  9  1  0
  5 10  1  0
  5 16  1  0
  6  7  1  0
  6 12  1  0
  7  8  1  0
  7 15  1  0
  8 11  1  0
  8 13  1  0
  9 14  1  0
  9 21  1  0
 10 13  1  0
 11 17  1  0
 11 19  1  0
 11 20  1  0
 12 14  1  0
 15 18  1  0
 17 18  1  0
 17 23  2  0
 19 22  1  0
 21 25  1  0
 22 24  1  0
 23 24  1  0
M  END
>  <PUBCHEM_COMPOUND_CID>  (1) 
11687

>  <PUBCHEM_CONFORMER_RMSD>  (1) 
0.6

>  <PUBCHEM_CONFORMER_DIVERSEORDER>  (1) 
1
2

>  <PUBCHEM_MMFF94_PARTIAL_CHARGES>  (1) 
17
1 -0.68
11 0.14
14 0.28
17 -0.28
18 0.14
2 -0.68
21 0.45
22 0.06
23 -0.14
24 0.49
25 0.06
3 -0.57
4 -0.57
48 0.4
51 0.15
52 0.4
9 0.34

>  <PUBCHEM_EFFECTIVE_ROTOR_COUNT>  (1) 
2.8

>  <PUBCHEM_PHARMACOPHORE_FEATURES>  (1) 
10
1 1 acceptor
1 1 donor
1 2 acceptor
1 2 donor
1 3 acceptor
1 4 acceptor
5 5 6 9 12 14 rings
6 11 17 19 22 23 24 rings
6 5 6 7 8 10 13 rings
6 7 8 11 15 17 18 rings

>  <PUBCHEM_HEAVY_ATOM_COUNT>  (1) 
25

>  <PUBCHEM_ATOM_DEF_STEREO_COUNT>  (1) 
7

>  <PUBCHEM_ATOM_UDEF_STEREO_COUNT>  (1) 
0

>  <PUBCHEM_BOND_DEF_STEREO_COUNT>  (1) 
0

>  <PUBCHEM_BOND_UDEF_STEREO_COUNT>  (1) 
0

>  <PUBCHEM_ISOTOPIC_ATOM_COUNT>  (1) 
0

>  <PUBCHEM_COMPONENT_COUNT>  (1) 
1

>  <PUBCHEM_CACTVS_TAUTO_COUNT>  (1) 
10

>  <PUBCHEM_CONFORMER_ID>  (1) 
00002DA700000001

>  <PUBCHEM_MMFF94_ENERGY>  (1) 
84.1906

>  <PUBCHEM_FEATURE_SELFOVERLAP>  (1) 
50.857

>  <PUBCHEM_SHAPE_FINGERPRINT>  (1) 
10 15 18409725192957166832
10062212 137 18408881871237692951
11132069 177 18410017632320687079
11578080 2 16953082120881274478
12236239 1 18113336436316759360
12403259 415 18201717418561645664
12403814 3 17894911832592661981
12507557 5 18343301482950325289
12633257 1 17095243639702206778
12788726 201 17489599939135258896
13140716 1 18268991058412224888
13214271 11 18343299275685236263
13224815 77 18341338859047760470
13583140 156 18060697316651589297
13675066 3 18334018293418393192
14341114 176 18411702050397174242
14790565 3 18050292763126515412
15163728 17 14475580113786179731
15196674 1 18411982481222084678
15375358 24 18341896272756617319
15788980 27 17894632569149620456
17349148 13 18186804703535578192
1813 80 17095245800265903710
19141452 34 18408886252431148695
200 152 18060695096348669735
20715895 44 18191864522766175501
21033648 29 18263060189850675892
21267235 1 18411709789337703191
21421861 104 18042678404379757050
21452121 103 18343018848786248494
21859007 373 17533767205332601005
22182313 1 18116710716546962172
23402539 116 18334570256987967606
23559900 14 18198063582187379390
26918003 58 18410571782012771400
296302 2 17704069599254034334
3004659 81 18260835890875454932
335352 9 18412263900211129692
34797466 226 14764344981021563488
34934 24 18342452612919095255
350125 39 18409730698408868709
3545911 37 18413109441832706276
3633792 109 18200026223781165213
3680242 22 18337391513804731426
392239 28 18272374195677167162
4073 2 18114466742580674858
4214541 1 18410291415037428713
4340502 62 18342740706334732151
5104073 3 18411703175098539674
59755656 215 18341336591922434406
633830 44 17095529516851662229
67856867 119 18188212134169934348
9709674 26 18270968929454082167

>  <PUBCHEM_SHAPE_MULTIPOLES>  (1) 
491.01
11.81
2.19
1.15
2.86
0.49
0.23
-1.34
-3.05
-0.49
0.07
0.11
-0.15
0.42

>  <PUBCHEM_SHAPE_SELFOVERLAP>  (1) 
1058.544

>  <PUBCHEM_SHAPE_VOLUME>  (1) 
266.8

>  <PUBCHEM_COORDINATE_TYPE>  (1) 
2
5
10

$$$$
