11685
     RDKit          3D

  8  7  0  0  1  0  0  0  0  0999 V2000
    0.4596    1.3936    0.9297 O   0  0  0  0  0  0  0  0  0  0  0  0
    0.2294    0.4773   -0.1528 C   0  0  0  0  0  0  0  0  0  0  0  0
   -0.8491   -0.5405    0.3309 C   0  0  0  0  0  0  0  0  0  0  0  0
    1.5878   -0.1791   -0.5045 C   0  0  0  0  0  0  0  0  0  0  0  0
   -0.2382    1.3127   -1.3555 C   0  0  0  0  0  0  0  0  0  0  0  0
   -1.2628   -1.5604   -0.7348 C   0  0  0  0  0  0  0  0  0  0  0  0
   -2.1092    0.1422    0.8869 C   0  0  0  0  0  0  0  0  0  0  0  0
    2.1824   -1.0458    0.6001 C   0  0  0  0  0  0  0  0  0  0  0  0
  1  2  1  0
  2  3  1  0
  2  4  1  0
  2  5  1  0
  3  6  1  0
  3  7  1  0
  4  8  1  0
M  END
>  <PUBCHEM_COMPOUND_CID>  (1) 
11685

>  <PUBCHEM_CONFORMER_RMSD>  (1) 
0.4

>  <PUBCHEM_CONFORMER_DIVERSEORDER>  (1) 
3
1
11
10
12
2
6
8
7
5
9
4

>  <PUBCHEM_MMFF94_PARTIAL_CHARGES>  (1) 
3
1 -0.68
2 0.28
24 0.4

>  <PUBCHEM_EFFECTIVE_ROTOR_COUNT>  (1) 
2

>  <PUBCHEM_PHARMACOPHORE_FEATURES>  (1) 
4
1 1 acceptor
1 1 donor
1 8 hydrophobe
3 3 6 7 hydrophobe

>  <PUBCHEM_HEAVY_ATOM_COUNT>  (1) 
8

>  <PUBCHEM_ATOM_DEF_STEREO_COUNT>  (1) 
0

>  <PUBCHEM_ATOM_UDEF_STEREO_COUNT>  (1) 
1

>  <PUBCHEM_BOND_DEF_STEREO_COUNT>  (1) 
0

>  <PUBCHEM_BOND_UDEF_STEREO_COUNT>  (1) 
0

>  <PUBCHEM_ISOTOPIC_ATOM_COUNT>  (1) 
0

>  <PUBCHEM_COMPONENT_COUNT>  (1) 
1

>  <PUBCHEM_CACTVS_TAUTO_COUNT>  (1) 
1

>  <PUBCHEM_CONFORMER_ID>  (1) 
00002DA500000003

>  <PUBCHEM_MMFF94_ENERGY>  (1) 
16.3949

>  <PUBCHEM_FEATURE_SELFOVERLAP>  (1) 
20.297

>  <PUBCHEM_SHAPE_FINGERPRINT>  (1) 
137420 1 11200999061314950085
18185500 45 18337960102765511606
20653091 64 18119821449674616883
21040471 1 17773343195416835459
24536 1 17608653052408818035
29004967 10 17386301981161613408
5084963 1 18261970638446458883
5943 1 17758163350600077708

>  <PUBCHEM_SHAPE_MULTIPOLES>  (1) 
158.77
2.46
1.54
1.18
0.44
0.11
-0.07
-0.94
0.55
-0.05
-0.33
-0.23
0.2
-0.23

>  <PUBCHEM_SHAPE_SELFOVERLAP>  (1) 
285.85

>  <PUBCHEM_SHAPE_VOLUME>  (1) 
104.5

>  <PUBCHEM_COORDINATE_TYPE>  (1) 
2
5
10

$$$$
