11697
     RDKit          3D

 16 15  0  0  1  0  0  0  0  0999 V2000
   -0.6382   -0.2736    0.6614 P   0  0  0  0  0  0  0  0  0  0  0  0
    2.2648   -0.1431    0.1332 P   0  0  0  0  0  0  0  0  0  0  0  0
    0.6943   -0.0703   -0.2447 O   0  0  0  0  0  0  0  0  0  0  0  0
   -0.5443   -1.8531    1.0407 O   0  0  0  0  0  0  0  0  0  0  0  0
   -0.5954    0.5890    1.8968 O   0  0  0  0  0  0  0  0  0  0  0  0
    2.4678    1.1211    1.1244 O   0  0  0  0  0  0  0  0  0  0  0  0
    2.9958    0.3280   -1.2319 O   0  0  0  0  0  0  0  0  0  0  0  0
    2.7191   -1.4666    0.6774 O   0  0  0  0  0  0  0  0  0  0  0  0
   -1.9491   -0.0633   -0.3456 N   0  0  0  0  0  0  0  0  0  0  0  0
   -3.2727   -0.3142    0.2294 C   0  0  0  0  0  0  0  0  0  0  0  0
   -1.9956    1.1710   -1.1322 C   0  0  0  0  0  0  0  0  0  0  0  0
   -4.3239   -0.4647   -0.8571 C   0  0  0  0  0  0  0  0  0  0  0  0
   -2.3877    2.3580   -0.2687 C   0  0  0  0  0  0  0  0  0  0  0  0
   -0.3767   -2.8240    0.0205 C   0  0  0  0  0  0  0  0  0  0  0  0
    2.0608    2.4018    0.6749 C   0  0  0  0  0  0  0  0  0  0  0  0
    2.8811   -0.4958   -2.3786 C   0  0  0  0  0  0  0  0  0  0  0  0
  1  3  1  0
  1  4  1  0
  1  5  2  0
  1  9  1  0
  2  3  1  0
  2  6  1  0
  2  7  1  0
  2  8  2  0
  4 14  1  0
  6 15  1  0
  7 16  1  0
  9 10  1  0
  9 11  1  0
 10 12  1  0
 11 13  1  0
M  END
>  <PUBCHEM_COMPOUND_CID>  (1) 
11697

>  <PUBCHEM_CONFORMER_RMSD>  (1) 
0.8

>  <PUBCHEM_CONFORMER_DIVERSEORDER>  (1) 
1
121
120
105
93
62
21
10
113
74
97
15
30
6
78
35
27
90
5
85
48
92
103
84
4
80
98
7
23
18
33
114
28
20
72
79
83
16
55
25
68
44
11
76
31
99
50
12
116
95
58
100
65
101
22
107
117
86
43
60
9
89
118
112
64
32
96
57
81
71
94
73
14
66
2
63
51
122
52
110
39
17
37
3
46
77
45
69
119
56
106
67
88
29
41
49
38
8
111
54
108
109
91
115
36
47
61
26
13
102
40
70
59
42
19
75
53
34
82
104
87
24

>  <PUBCHEM_MMFF94_PARTIAL_CHARGES>  (1) 
14
1 1.51
10 0.27
11 0.27
14 0.28
15 0.28
16 0.28
2 1.51
3 -0.54
4 -0.55
5 -0.7
6 -0.55
7 -0.55
8 -0.7
9 -0.81

>  <PUBCHEM_EFFECTIVE_ROTOR_COUNT>  (1) 
8

>  <PUBCHEM_PHARMACOPHORE_FEATURES>  (1) 
2
1 5 acceptor
1 8 acceptor

>  <PUBCHEM_HEAVY_ATOM_COUNT>  (1) 
16

>  <PUBCHEM_ATOM_DEF_STEREO_COUNT>  (1) 
0

>  <PUBCHEM_ATOM_UDEF_STEREO_COUNT>  (1) 
1

>  <PUBCHEM_BOND_DEF_STEREO_COUNT>  (1) 
0

>  <PUBCHEM_BOND_UDEF_STEREO_COUNT>  (1) 
0

>  <PUBCHEM_ISOTOPIC_ATOM_COUNT>  (1) 
0

>  <PUBCHEM_COMPONENT_COUNT>  (1) 
1

>  <PUBCHEM_CACTVS_TAUTO_COUNT>  (1) 
1

>  <PUBCHEM_CONFORMER_ID>  (1) 
00002DB100000001

>  <PUBCHEM_MMFF94_ENERGY>  (1) 
10.1113

>  <PUBCHEM_FEATURE_SELFOVERLAP>  (1) 
10.149

>  <PUBCHEM_SHAPE_FINGERPRINT>  (1) 
12932764 1 18411703175135143785
13538477 17 17023466476921894618
15775835 57 18333454231121228758
16945 1 18335421313321224499
18186145 218 18272090495954875953
20645476 183 16298671697510229867
20671657 53 17988368061811262894
21028194 46 18114736049582401203
21501502 16 18046336445300301491
21524375 3 18114456773655651299
21947302 44 18342164613892538192
23114952 82 18129393738119598436
23402539 116 18194095603403903845
23526113 38 17989210364837926106
23557571 272 17976261553651639880
23598291 2 15193915356615503560
3286 77 18335689508100832830
5084963 1 17313376782212839377
5262128 65 17703805690630416692
58051976 378 18270669995371924948
633830 44 18202286913986891741
81228 2 17903927999396771283

>  <PUBCHEM_SHAPE_MULTIPOLES>  (1) 
296.77
5.99
2.43
1.6
2.14
0.07
-0.55
-0.49
-2.2
-0.01
0.45
-1.1
0.01
0.65

>  <PUBCHEM_SHAPE_SELFOVERLAP>  (1) 
524.647

>  <PUBCHEM_SHAPE_VOLUME>  (1) 
195.5

>  <PUBCHEM_COORDINATE_TYPE>  (1) 
2
5
10

$$$$
