117
     RDKit          3D

  9  9  0  0  0  0  0  0  0  0999 V2000
   -2.2474    1.1991    0.0007 O   0  0  0  0  0  0  0  0  0  0  0  0
   -2.1592   -1.0721   -0.0002 O   0  0  0  0  0  0  0  0  0  0  0  0
    0.5007    1.4086   -0.0003 N   0  0  0  0  0  0  0  0  0  0  0  0
    2.1134   -0.1182    0.0002 N   0  0  0  0  0  0  0  0  0  0  0  0
    0.7394   -2.0732    0.0005 N   0  0  0  0  0  0  0  0  0  0  0  0
   -0.1311    0.1971   -0.0004 C   0  0  0  0  0  0  0  0  0  0  0  0
    0.8846   -0.7297   -0.0003 C   0  0  0  0  0  0  0  0  0  0  0  0
    1.8467    1.1690    0.0001 C   0  0  0  0  0  0  0  0  0  0  0  0
   -1.5471    0.0193   -0.0004 C   0  0  0  0  0  0  0  0  0  0  0  0
  1  9  1  0
  2  9  2  0
  3  6  1  0
  3  8  1  0
  4  7  1  0
  4  8  2  0
  5  7  1  0
  6  7  2  0
  6  9  1  0
M  END
>  <PUBCHEM_COMPOUND_CID>  (1) 
117

>  <PUBCHEM_CONFORMER_RMSD>  (1) 
0.4

>  <PUBCHEM_CONFORMER_DIVERSEORDER>  (1) 
1
2

>  <PUBCHEM_MMFF94_PARTIAL_CHARGES>  (1) 
14
1 -0.65
10 0.27
11 0.15
12 0.4
13 0.4
14 0.5
2 -0.57
3 0.03
4 -0.57
5 -0.88
6 -0.24
7 0.31
8 0.04
9 0.81

>  <PUBCHEM_EFFECTIVE_ROTOR_COUNT>  (1) 
1

>  <PUBCHEM_PHARMACOPHORE_FEATURES>  (1) 
8
1 1 acceptor
1 2 acceptor
1 3 donor
1 5 cation
1 5 donor
3 1 2 9 anion
3 3 4 8 cation
5 3 4 6 7 8 rings

>  <PUBCHEM_HEAVY_ATOM_COUNT>  (1) 
9

>  <PUBCHEM_ATOM_DEF_STEREO_COUNT>  (1) 
0

>  <PUBCHEM_ATOM_UDEF_STEREO_COUNT>  (1) 
0

>  <PUBCHEM_BOND_DEF_STEREO_COUNT>  (1) 
0

>  <PUBCHEM_BOND_UDEF_STEREO_COUNT>  (1) 
0

>  <PUBCHEM_ISOTOPIC_ATOM_COUNT>  (1) 
0

>  <PUBCHEM_COMPONENT_COUNT>  (1) 
1

>  <PUBCHEM_CACTVS_TAUTO_COUNT>  (1) 
5

>  <PUBCHEM_CONFORMER_ID>  (1) 
0000007500000001

>  <PUBCHEM_MMFF94_ENERGY>  (1) 
7.846

>  <PUBCHEM_FEATURE_SELFOVERLAP>  (1) 
40.653

>  <PUBCHEM_SHAPE_FINGERPRINT>  (1) 
12897270 3 18338231682353518943
18185500 45 18341049605843039731
21040471 1 18266458896181778340
23552423 10 18335145249876797118
29004967 10 18335988575295190968
5084963 1 18130231582758535832

>  <PUBCHEM_SHAPE_MULTIPOLES>  (1) 
158.53
2.84
1.67
0.56
0.87
0.47
0
-0.43
0
-0.17
0
-0.02
-0.01
0

>  <PUBCHEM_SHAPE_SELFOVERLAP>  (1) 
334.022

>  <PUBCHEM_SHAPE_VOLUME>  (1) 
91.6

>  <PUBCHEM_COORDINATE_TYPE>  (1) 
2
5
10

$$$$
