11708
     RDKit          3D

  8  7  0  0  1  0  0  0  0  0999 V2000
   -1.5907    0.6682    1.1635 O   0  0  0  0  0  0  0  0  0  0  0  0
   -0.7196    0.4608    0.0417 C   0  0  0  0  0  0  0  0  0  0  0  0
    0.7050    0.2528    0.6011 C   0  0  0  0  0  0  0  0  0  0  0  0
   -1.2711   -0.7433   -0.7494 C   0  0  0  0  0  0  0  0  0  0  0  0
    1.7895   -0.0049   -0.4472 C   0  0  0  0  0  0  0  0  0  0  0  0
   -0.8016    1.7217   -0.8284 C   0  0  0  0  0  0  0  0  0  0  0  0
   -1.2443   -2.0651    0.0102 C   0  0  0  0  0  0  0  0  0  0  0  0
    3.1329   -0.2902    0.2086 C   0  0  0  0  0  0  0  0  0  0  0  0
  1  2  1  0
  2  3  1  0
  2  4  1  0
  2  6  1  0
  3  5  1  0
  4  7  1  0
  5  8  1  0
M  END
>  <PUBCHEM_COMPOUND_CID>  (1) 
11708

>  <PUBCHEM_CONFORMER_RMSD>  (1) 
0.6

>  <PUBCHEM_CONFORMER_DIVERSEORDER>  (1) 
6
13
14
2
19
8
16
12
4
18
3
7
11
17
1
10
9
15
5

>  <PUBCHEM_MMFF94_PARTIAL_CHARGES>  (1) 
3
1 -0.68
2 0.28
21 0.4

>  <PUBCHEM_EFFECTIVE_ROTOR_COUNT>  (1) 
3

>  <PUBCHEM_PHARMACOPHORE_FEATURES>  (1) 
4
1 1 acceptor
1 1 donor
1 7 hydrophobe
1 8 hydrophobe

>  <PUBCHEM_HEAVY_ATOM_COUNT>  (1) 
8

>  <PUBCHEM_ATOM_DEF_STEREO_COUNT>  (1) 
0

>  <PUBCHEM_ATOM_UDEF_STEREO_COUNT>  (1) 
1

>  <PUBCHEM_BOND_DEF_STEREO_COUNT>  (1) 
0

>  <PUBCHEM_BOND_UDEF_STEREO_COUNT>  (1) 
0

>  <PUBCHEM_ISOTOPIC_ATOM_COUNT>  (1) 
0

>  <PUBCHEM_COMPONENT_COUNT>  (1) 
1

>  <PUBCHEM_CACTVS_TAUTO_COUNT>  (1) 
1

>  <PUBCHEM_CONFORMER_ID>  (1) 
00002DBC00000006

>  <PUBCHEM_MMFF94_ENERGY>  (1) 
9.8275

>  <PUBCHEM_FEATURE_SELFOVERLAP>  (1) 
20.297

>  <PUBCHEM_SHAPE_FINGERPRINT>  (1) 
12932764 1 18334295336685167224
13024252 1 16153429432558727600
137420 1 14296436988777807773
15310529 11 17677345909116800450
16714656 1 18408323263422108013
21040471 1 18194108617107331420
23235687 12 18412271644512047660
23552423 10 18188487016234136574
24536 1 17632567245671654280
29004967 10 17905881835785178715
369184 2 18411131412146246976
5943 1 15615505171598340017

>  <PUBCHEM_SHAPE_MULTIPOLES>  (1) 
158.77
3.15
1.7
0.97
3.35
0.31
-0.09
0.71
-0.1
-1.16
0.27
-0.27
-0.18
-0.09

>  <PUBCHEM_SHAPE_SELFOVERLAP>  (1) 
282.708

>  <PUBCHEM_SHAPE_VOLUME>  (1) 
104.8

>  <PUBCHEM_COORDINATE_TYPE>  (1) 
2
5
10

$$$$
