11705
     RDKit          3D

 18 18  0  0  1  0  0  0  0  0999 V2000
    3.8515    1.0245    0.5660 S   0  0  0  0  0  0  0  0  0  0  0  0
    2.0327    0.4422   -0.3172 P   0  0  0  0  0  0  0  0  0  0  0  0
    0.8160    0.8834    0.6587 O   0  0  0  0  0  0  0  0  0  0  0  0
    1.9352   -1.1806   -0.3445 O   0  0  0  0  0  0  0  0  0  0  0  0
    1.9217    1.0488   -1.6925 O   0  0  0  0  0  0  0  0  0  0  0  0
   -4.9338   -0.6977   -1.2985 O   0  0  0  0  0  0  0  0  0  0  0  0
   -5.4325    0.3102    0.5869 O   0  0  0  0  0  0  0  0  0  0  0  0
   -4.5927   -0.0878   -0.2561 N   0  0  0  0  0  0  0  0  0  0  0  0
   -0.5132    0.6447    0.4340 C   0  0  0  0  0  0  0  0  0  0  0  0
    5.1352    0.4007   -0.5371 C   0  0  0  0  0  0  0  0  0  0  0  0
    2.0205   -1.9193    0.8619 C   0  0  0  0  0  0  0  0  0  0  0  0
   -0.9072   -0.0309   -0.7162 C   0  0  0  0  0  0  0  0  0  0  0  0
   -1.4581    1.0794    1.3577 C   0  0  0  0  0  0  0  0  0  0  0  0
   -3.2138    0.1587   -0.0234 C   0  0  0  0  0  0  0  0  0  0  0  0
   -2.2614   -0.2744   -0.9456 C   0  0  0  0  0  0  0  0  0  0  0  0
   -2.8122    0.8356    1.1283 C   0  0  0  0  0  0  0  0  0  0  0  0
    6.5115    0.7576   -0.0086 C   0  0  0  0  0  0  0  0  0  0  0  0
    1.9008   -3.3950    0.5460 C   0  0  0  0  0  0  0  0  0  0  0  0
  1  2  1  0
  1 10  1  0
  2  3  1  0
  2  4  1  0
  2  5  2  0
  3  9  1  0
  4 11  1  0
  6  8  1  0
  7  8  2  0
  8 14  1  0
  9 12  2  0
  9 13  1  0
 10 17  1  0
 11 18  1  0
 12 15  1  0
 13 16  2  0
 14 15  2  0
 14 16  1  0
M  CHG  2   6  -1   8   1
M  END
>  <PUBCHEM_COMPOUND_CID>  (1) 
11705

>  <PUBCHEM_CONFORMER_RMSD>  (1) 
0.8

>  <PUBCHEM_CONFORMER_DIVERSEORDER>  (1) 
1
70
13
10
63
62
47
8
50
7
51
4
25
66
31
73
74
72
57
27
49
20
22
69
61
34
11
32
14
6
33
19
30
40
68
54
5
43
28
16
52
26
17
29
56
21
2
41
46
39
55
18
53
36
71
64
58
35
65
3
12
44
45
37
60
24
48
15
67
9
23
42
38
59

>  <PUBCHEM_MMFF94_PARTIAL_CHARGES>  (1) 
20
1 -0.48
10 0.23
11 0.28
12 -0.15
13 -0.15
14 0.13
15 -0.15
16 -0.15
2 1.49
23 0.15
24 0.15
25 0.15
26 0.15
3 -0.35
4 -0.55
5 -0.7
6 -0.52
7 -0.52
8 0.91
9 0.08

>  <PUBCHEM_EFFECTIVE_ROTOR_COUNT>  (1) 
7

>  <PUBCHEM_PHARMACOPHORE_FEATURES>  (1) 
6
1 17 hydrophobe
1 5 acceptor
1 6 acceptor
1 6 anion
1 7 acceptor
6 9 12 13 14 15 16 rings

>  <PUBCHEM_HEAVY_ATOM_COUNT>  (1) 
18

>  <PUBCHEM_ATOM_DEF_STEREO_COUNT>  (1) 
0

>  <PUBCHEM_ATOM_UDEF_STEREO_COUNT>  (1) 
1

>  <PUBCHEM_BOND_DEF_STEREO_COUNT>  (1) 
0

>  <PUBCHEM_BOND_UDEF_STEREO_COUNT>  (1) 
0

>  <PUBCHEM_ISOTOPIC_ATOM_COUNT>  (1) 
0

>  <PUBCHEM_COMPONENT_COUNT>  (1) 
1

>  <PUBCHEM_CACTVS_TAUTO_COUNT>  (1) 
1

>  <PUBCHEM_CONFORMER_ID>  (1) 
00002DB900000001

>  <PUBCHEM_MMFF94_ENERGY>  (1) 
31.0947

>  <PUBCHEM_FEATURE_SELFOVERLAP>  (1) 
30.527

>  <PUBCHEM_SHAPE_FINGERPRINT>  (1) 
10366900 7 18411700993471340056
12236239 1 18202002127311009460
12788726 201 17560525002052382987
13052359 8 18189621716909413786
13083527 12 17752186315883152322
13631057 29 18268425922764094247
17834072 33 18060419105802479444
18186145 218 16153427208546468269
200 152 18407759235590378225
20279233 1 16877668945797807921
204376 136 18260835934036078754
20645477 70 18114177480390529715
21054139 6 18339636857913695158
21267235 1 17489313026471020085
22224240 67 18334571382691301488
23402539 116 17274819177180406980
23557571 272 17203337684365109392
23559900 14 18335416923875568001
4340502 62 18335145310212223595
474 4 18339364171051891184
59755656 520 18412259571390971886

>  <PUBCHEM_SHAPE_MULTIPOLES>  (1) 
343.8
11.67
1.95
1.22
2.82
2.57
0.1
-2.58
1.27
1.98
-0.6
-0.46
-0.16
-1

>  <PUBCHEM_SHAPE_SELFOVERLAP>  (1) 
662.677

>  <PUBCHEM_SHAPE_VOLUME>  (1) 
211.6

>  <PUBCHEM_COORDINATE_TYPE>  (1) 
2
5
10

$$$$
