11718
     RDKit          3D

  5  4  0  0  0  0  0  0  0  0999 V2000
   -1.0800    1.4584   -0.2906 Cl  0  0  0  0  0  0  0  0  0  0  0  0
   -1.0829   -1.4569   -0.2905 Cl  0  0  0  0  0  0  0  0  0  0  0  0
    1.6400   -0.0012   -0.6246 O   0  0  0  0  0  0  0  0  0  0  0  0
    1.0214   -0.0005    0.6559 C   0  0  0  0  0  0  0  0  0  0  0  0
   -0.4986    0.0002    0.5498 C   0  0  0  0  0  0  0  0  0  0  0  0
  1  5  1  0
  2  5  1  0
  3  4  1  0
  4  5  1  0
M  END
>  <PUBCHEM_COMPOUND_CID>  (1) 
11718

>  <PUBCHEM_CONFORMER_RMSD>  (1) 
0.4

>  <PUBCHEM_CONFORMER_DIVERSEORDER>  (1) 
1
2
3

>  <PUBCHEM_MMFF94_PARTIAL_CHARGES>  (1) 
6
1 -0.29
2 -0.29
3 -0.68
4 0.28
5 0.58
9 0.4

>  <PUBCHEM_EFFECTIVE_ROTOR_COUNT>  (1) 
1

>  <PUBCHEM_PHARMACOPHORE_FEATURES>  (1) 
2
1 3 acceptor
1 3 donor

>  <PUBCHEM_HEAVY_ATOM_COUNT>  (1) 
5

>  <PUBCHEM_ATOM_DEF_STEREO_COUNT>  (1) 
0

>  <PUBCHEM_ATOM_UDEF_STEREO_COUNT>  (1) 
0

>  <PUBCHEM_BOND_DEF_STEREO_COUNT>  (1) 
0

>  <PUBCHEM_BOND_UDEF_STEREO_COUNT>  (1) 
0

>  <PUBCHEM_ISOTOPIC_ATOM_COUNT>  (1) 
0

>  <PUBCHEM_COMPONENT_COUNT>  (1) 
1

>  <PUBCHEM_CACTVS_TAUTO_COUNT>  (1) 
1

>  <PUBCHEM_CONFORMER_ID>  (1) 
00002DC600000001

>  <PUBCHEM_MMFF94_ENERGY>  (1) 
2.1691

>  <PUBCHEM_FEATURE_SELFOVERLAP>  (1) 
10.148

>  <PUBCHEM_SHAPE_FINGERPRINT>  (1) 
139733 1 8140994652915147091
16714656 1 18410586084316962581
20096714 4 17678466259578074796
21015797 1 10663825212381100787
21040471 1 18194672670840987105
5943 1 13483982403521988275

>  <PUBCHEM_SHAPE_MULTIPOLES>  (1) 
100.77
1.78
1.56
0.85
0.54
0
0.02
0
-0.26
-0.96
-0.22
0.14
0
0

>  <PUBCHEM_SHAPE_SELFOVERLAP>  (1) 
157.575

>  <PUBCHEM_SHAPE_VOLUME>  (1) 
73

>  <PUBCHEM_COORDINATE_TYPE>  (1) 
2
5
10

$$$$
