11713
     RDKit          3D

  5  4  0  0  1  0  0  0  0  0999 V2000
    0.6894    1.7220    0.1236 Br  0  0  0  0  0  0  0  0  0  0  0  0
   -1.9570    0.0628   -0.1257 O   0  0  0  0  0  0  0  0  0  0  0  0
    0.4288   -0.1630   -0.3650 C   0  0  0  0  0  0  0  0  0  0  0  0
   -0.8293   -0.6852    0.3151 C   0  0  0  0  0  0  0  0  0  0  0  0
    1.6681   -0.9366    0.0519 C   0  0  0  0  0  0  0  0  0  0  0  0
  1  3  1  0
  2  4  1  0
  3  4  1  0
  3  5  1  0
M  END
>  <PUBCHEM_COMPOUND_CID>  (1) 
11713

>  <PUBCHEM_CONFORMER_RMSD>  (1) 
0.4

>  <PUBCHEM_CONFORMER_DIVERSEORDER>  (1) 
1
3
5
4
6
2

>  <PUBCHEM_MMFF94_PARTIAL_CHARGES>  (1) 
5
1 -0.23
12 0.4
2 -0.68
3 0.23
4 0.28

>  <PUBCHEM_EFFECTIVE_ROTOR_COUNT>  (1) 
1

>  <PUBCHEM_PHARMACOPHORE_FEATURES>  (1) 
4
1 1 hydrophobe
1 2 acceptor
1 2 donor
3 1 3 5 hydrophobe

>  <PUBCHEM_HEAVY_ATOM_COUNT>  (1) 
5

>  <PUBCHEM_ATOM_DEF_STEREO_COUNT>  (1) 
0

>  <PUBCHEM_ATOM_UDEF_STEREO_COUNT>  (1) 
1

>  <PUBCHEM_BOND_DEF_STEREO_COUNT>  (1) 
0

>  <PUBCHEM_BOND_UDEF_STEREO_COUNT>  (1) 
0

>  <PUBCHEM_ISOTOPIC_ATOM_COUNT>  (1) 
0

>  <PUBCHEM_COMPONENT_COUNT>  (1) 
1

>  <PUBCHEM_CACTVS_TAUTO_COUNT>  (1) 
1

>  <PUBCHEM_CONFORMER_ID>  (1) 
00002DC100000001

>  <PUBCHEM_MMFF94_ENERGY>  (1) 
3.2125

>  <PUBCHEM_FEATURE_SELFOVERLAP>  (1) 
21.231

>  <PUBCHEM_SHAPE_FINGERPRINT>  (1) 
139733 1 9439107750354203998
16714656 1 17980491061414378510
20096714 4 18053387883335087496
21015797 1 10012711975675021982
21040471 1 17690563412971899084
24536 1 17096648910036097255
29004967 10 18410578357576118042
5943 1 14302658540979333076

>  <PUBCHEM_SHAPE_MULTIPOLES>  (1) 
102.97
2.02
1.65
0.68
0.78
0.55
-0.01
-0.1
-0.01
-0.86
-0.09
-0.04
0.02
0.07

>  <PUBCHEM_SHAPE_SELFOVERLAP>  (1) 
163.323

>  <PUBCHEM_SHAPE_VOLUME>  (1) 
74.7

>  <PUBCHEM_COORDINATE_TYPE>  (1) 
2
5
10

$$$$
