11712
     RDKit          3D

  5  4  0  0  0  0  0  0  0  0999 V2000
   -2.1447   -0.8479   -0.0002 Br  0  0  0  0  0  0  0  0  0  0  0  0
   -0.4759    1.8409    0.0000 Br  0  0  0  0  0  0  0  0  0  0  0  0
    2.4169   -0.1840   -0.0002 Br  0  0  0  0  0  0  0  0  0  0  0  0
   -0.4542   -0.0309    0.0001 C   0  0  0  0  0  0  0  0  0  0  0  0
    0.6579   -0.7781    0.0003 C   0  0  0  0  0  0  0  0  0  0  0  0
  1  4  1  0
  2  4  1  0
  3  5  1  0
  4  5  2  3
M  END
>  <PUBCHEM_COMPOUND_CID>  (1) 
11712

>  <PUBCHEM_CONFORMER_RMSD>  (1) 
0.4

>  <PUBCHEM_CONFORMER_DIVERSEORDER>  (1) 
1

>  <PUBCHEM_MMFF94_PARTIAL_CHARGES>  (1) 
6
1 -0.11
2 -0.11
3 -0.11
4 0.22
5 -0.04
6 0.15

>  <PUBCHEM_EFFECTIVE_ROTOR_COUNT>  (1) 
0

>  <PUBCHEM_PHARMACOPHORE_FEATURES>  (1) 
4
1 1 hydrophobe
1 2 hydrophobe
1 3 hydrophobe
3 1 2 4 hydrophobe

>  <PUBCHEM_HEAVY_ATOM_COUNT>  (1) 
5

>  <PUBCHEM_ATOM_DEF_STEREO_COUNT>  (1) 
0

>  <PUBCHEM_ATOM_UDEF_STEREO_COUNT>  (1) 
0

>  <PUBCHEM_BOND_DEF_STEREO_COUNT>  (1) 
0

>  <PUBCHEM_BOND_UDEF_STEREO_COUNT>  (1) 
0

>  <PUBCHEM_ISOTOPIC_ATOM_COUNT>  (1) 
0

>  <PUBCHEM_COMPONENT_COUNT>  (1) 
1

>  <PUBCHEM_CACTVS_TAUTO_COUNT>  (1) 
1

>  <PUBCHEM_CONFORMER_ID>  (1) 
00002DC000000001

>  <PUBCHEM_MMFF94_ENERGY>  (1) 
3.1463

>  <PUBCHEM_FEATURE_SELFOVERLAP>  (1) 
21.781

>  <PUBCHEM_SHAPE_FINGERPRINT>  (1) 
139733 1 9223237346844059459
16714656 1 18342740719140616662
20096714 4 17761776161262408424
21040471 1 17834395614258237440
23552449 1 18339638936862235536
29004967 10 18410015480579131483
5460574 1 9295297135552428770
5943 1 11500764405537590817

>  <PUBCHEM_SHAPE_MULTIPOLES>  (1) 
120.72
3.14
1.7
0.69
0.94
1.12
0
-1.18
0
-0.54
0
0
0.02
0

>  <PUBCHEM_SHAPE_SELFOVERLAP>  (1) 
179.549

>  <PUBCHEM_SHAPE_VOLUME>  (1) 
90.9

>  <PUBCHEM_COORDINATE_TYPE>  (1) 
2
5
10

$$$$
