11710
     RDKit          3D

  9  8  0  0  1  0  0  0  0  0999 V2000
   -0.8782    1.5867    0.8422 O   0  0  0  0  0  0  0  0  0  0  0  0
   -1.0773    0.4153    0.0382 C   0  0  0  0  0  0  0  0  0  0  0  0
    0.1650   -0.4865    0.2111 C   0  0  0  0  0  0  0  0  0  0  0  0
   -2.3518   -0.2778    0.5721 C   0  0  0  0  0  0  0  0  0  0  0  0
    1.5007    0.1989   -0.1123 C   0  0  0  0  0  0  0  0  0  0  0  0
   -1.2552    0.8734   -1.4133 C   0  0  0  0  0  0  0  0  0  0  0  0
    2.6807   -0.7349    0.1661 C   0  0  0  0  0  0  0  0  0  0  0  0
   -2.7935   -1.5216   -0.1852 C   0  0  0  0  0  0  0  0  0  0  0  0
    4.0096   -0.0536   -0.1189 C   0  0  0  0  0  0  0  0  0  0  0  0
  1  2  1  0
  2  3  1  0
  2  4  1  0
  2  6  1  0
  3  5  1  0
  4  8  1  0
  5  7  1  0
  7  9  1  0
M  END
>  <PUBCHEM_COMPOUND_CID>  (1) 
11710

>  <PUBCHEM_CONFORMER_RMSD>  (1) 
0.6

>  <PUBCHEM_CONFORMER_DIVERSEORDER>  (1) 
3
45
24
17
39
26
2
38
31
22
13
44
1
23
8
37
15
40
21
35
9
27
32
5
41
12
19
34
43
20
10
36
28
6
25
4
42
11
16
7
29
30
14
33
18

>  <PUBCHEM_MMFF94_PARTIAL_CHARGES>  (1) 
3
1 -0.68
2 0.28
24 0.4

>  <PUBCHEM_EFFECTIVE_ROTOR_COUNT>  (1) 
4

>  <PUBCHEM_PHARMACOPHORE_FEATURES>  (1) 
4
1 1 acceptor
1 1 donor
1 8 hydrophobe
1 9 hydrophobe

>  <PUBCHEM_HEAVY_ATOM_COUNT>  (1) 
9

>  <PUBCHEM_ATOM_DEF_STEREO_COUNT>  (1) 
0

>  <PUBCHEM_ATOM_UDEF_STEREO_COUNT>  (1) 
1

>  <PUBCHEM_BOND_DEF_STEREO_COUNT>  (1) 
0

>  <PUBCHEM_BOND_UDEF_STEREO_COUNT>  (1) 
0

>  <PUBCHEM_ISOTOPIC_ATOM_COUNT>  (1) 
0

>  <PUBCHEM_COMPONENT_COUNT>  (1) 
1

>  <PUBCHEM_CACTVS_TAUTO_COUNT>  (1) 
1

>  <PUBCHEM_CONFORMER_ID>  (1) 
00002DBE00000003

>  <PUBCHEM_MMFF94_ENERGY>  (1) 
9.9035

>  <PUBCHEM_FEATURE_SELFOVERLAP>  (1) 
20.297

>  <PUBCHEM_SHAPE_FINGERPRINT>  (1) 
10857977 72 18060132167432339067
11062470 55 14417850358421903166
12897270 3 17385719218439769931
12932764 1 17822577084378361306
13024252 1 14707215387745015685
14128692 85 18189056558867470271
14325111 11 18334858282116930234
15310529 11 17632017446934415118
18342897 69 18413385423778672354
20645464 45 11887678393923462908
21061003 4 18131633417144781537
21293036 1 15213019383674375587
29004967 10 17775569744896267427
3248919 1 18199177400503666242
369184 2 18411135797028255368
5084963 1 18113901559032944112

>  <PUBCHEM_SHAPE_MULTIPOLES>  (1) 
179.35
5.44
1.29
0.94
5.13
0.03
-0.13
-1.71
-0.24
-0.86
-0.04
-0.42
0.3
-0.05

>  <PUBCHEM_SHAPE_SELFOVERLAP>  (1) 
320.38

>  <PUBCHEM_SHAPE_VOLUME>  (1) 
117.7

>  <PUBCHEM_COORDINATE_TYPE>  (1) 
2
5
10

$$$$
