11719
     RDKit          3D

  5  4  0  0  0  0  0  0  0  0999 V2000
    0.6048    1.3015    0.0000 O   0  0  0  0  0  0  0  0  0  0  0  0
   -0.7003   -0.6238    0.0001 N   0  0  0  0  0  0  0  0  0  0  0  0
    1.5921   -0.7711   -0.0001 N   0  0  0  0  0  0  0  0  0  0  0  0
   -1.9951    0.0172   -0.0001 C   0  0  0  0  0  0  0  0  0  0  0  0
    0.4985    0.0762    0.0001 C   0  0  0  0  0  0  0  0  0  0  0  0
  1  5  2  0
  2  4  1  0
  2  5  1  0
  3  5  1  0
M  END
>  <PUBCHEM_COMPOUND_CID>  (1) 
11719

>  <PUBCHEM_CONFORMER_RMSD>  (1) 
0.4

>  <PUBCHEM_CONFORMER_DIVERSEORDER>  (1) 
1

>  <PUBCHEM_MMFF94_PARTIAL_CHARGES>  (1) 
8
1 -0.57
10 0.37
11 0.37
2 -0.73
3 -0.8
4 0.3
5 0.69
6 0.37

>  <PUBCHEM_EFFECTIVE_ROTOR_COUNT>  (1) 
1

>  <PUBCHEM_PHARMACOPHORE_FEATURES>  (1) 
3
1 1 acceptor
1 2 donor
1 3 donor

>  <PUBCHEM_HEAVY_ATOM_COUNT>  (1) 
5

>  <PUBCHEM_ATOM_DEF_STEREO_COUNT>  (1) 
0

>  <PUBCHEM_ATOM_UDEF_STEREO_COUNT>  (1) 
0

>  <PUBCHEM_BOND_DEF_STEREO_COUNT>  (1) 
0

>  <PUBCHEM_BOND_UDEF_STEREO_COUNT>  (1) 
0

>  <PUBCHEM_ISOTOPIC_ATOM_COUNT>  (1) 
0

>  <PUBCHEM_COMPONENT_COUNT>  (1) 
1

>  <PUBCHEM_CACTVS_TAUTO_COUNT>  (1) 
3

>  <PUBCHEM_CONFORMER_ID>  (1) 
00002DC700000001

>  <PUBCHEM_MMFF94_ENERGY>  (1) 
2.6298

>  <PUBCHEM_FEATURE_SELFOVERLAP>  (1) 
15.275

>  <PUBCHEM_SHAPE_FINGERPRINT>  (1) 
139733 1 9222937175806085570
20096714 4 18267869560894209833
21015797 1 8860462289873623382
29004967 10 18335706018002669434
5460574 1 9223229645999326755
5943 1 8995998199276907420

>  <PUBCHEM_SHAPE_MULTIPOLES>  (1) 
87.07
2.15
1.02
0.56
0.81
0.26
0
-0.31
0
-0.3
0
0.03
0
0

>  <PUBCHEM_SHAPE_SELFOVERLAP>  (1) 
152.576

>  <PUBCHEM_SHAPE_VOLUME>  (1) 
57.7

>  <PUBCHEM_COORDINATE_TYPE>  (1) 
2
5
10

$$$$
