1172
     RDKit          3D

 21 22  0  0  1  0  0  0  0  0999 V2000
    4.5521    1.2890   -0.2340 P   0  0  0  0  0  0  0  0  0  0  0  0
    0.4173   -0.0157   -0.3772 O   0  0  0  0  0  0  0  0  0  0  0  0
    1.1768   -2.8872    1.6225 O   0  0  0  0  0  0  0  0  0  0  0  0
   -1.2692   -3.1481   -0.2760 O   0  0  0  0  0  0  0  0  0  0  0  0
    3.0551    0.8259    0.1704 O   0  0  0  0  0  0  0  0  0  0  0  0
   -3.2944   -0.9877   -1.8421 O   0  0  0  0  0  0  0  0  0  0  0  0
    4.7612    0.6654   -1.7114 O   0  0  0  0  0  0  0  0  0  0  0  0
    5.4832    0.3531    0.6999 O   0  0  0  0  0  0  0  0  0  0  0  0
    4.8139    2.7621   -0.1163 O   0  0  0  0  0  0  0  0  0  0  0  0
   -5.0715    2.3909    0.7409 O   0  0  0  0  0  0  0  0  0  0  0  0
   -1.9167    0.0277   -0.2516 N   0  0  0  0  0  0  0  0  0  0  0  0
   -4.1773    0.6955   -0.5554 N   0  0  0  0  0  0  0  0  0  0  0  0
    0.8201   -2.1842    0.4482 C   0  0  0  0  0  0  0  0  0  0  0  0
   -0.6770   -2.0101    0.3238 C   0  0  0  0  0  0  0  0  0  0  0  0
    1.2832   -0.7398    0.5113 C   0  0  0  0  0  0  0  0  0  0  0  0
   -0.7793   -0.7865   -0.5733 C   0  0  0  0  0  0  0  0  0  0  0  0
    2.7281   -0.5517    0.0859 C   0  0  0  0  0  0  0  0  0  0  0  0
   -3.1338   -0.1528   -0.9494 C   0  0  0  0  0  0  0  0  0  0  0  0
   -1.8199    0.9917    0.7448 C   0  0  0  0  0  0  0  0  0  0  0  0
   -2.8232    1.7929    1.1093 C   0  0  0  0  0  0  0  0  0  0  0  0
   -4.1286    1.6696    0.4298 C   0  0  0  0  0  0  0  0  0  0  0  0
  1  5  1  0
  1  7  1  0
  1  8  1  0
  1  9  2  0
  2 15  1  0
  2 16  1  0
  3 13  1  0
  4 14  1  0
  5 17  1  0
  6 18  2  0
 10 21  2  0
 11 16  1  0
 11 18  1  0
 11 19  1  0
 12 18  1  0
 12 21  1  0
 13 14  1  0
 13 15  1  0
 14 16  1  0
 15 17  1  0
 19 20  2  0
 20 21  1  0
M  END
>  <PUBCHEM_COMPOUND_CID>  (1) 
1172

>  <PUBCHEM_CONFORMER_RMSD>  (1) 
0.8

>  <PUBCHEM_CONFORMER_DIVERSEORDER>  (1) 
1
14
58
183
119
107
137
148
126
132
18
139
165
123
135
122
7
178
100
80
184
168
49
142
17
40
99
106
163
150
54
78
160
147
43
175
42
134
121
2
133
85
88
110
146
19
86
76
116
176
145
73
159
181
151
182
53
167
173
169
34
96
158
112
6
81
115
166
108
37
153
174
25
124
136
59
5
143
156
127
120
74
101
13
70
185
61
98
84
29
68
141
9
186
97
144
105
162
16
179
154
94
91
57
157
128
138
155
102
69
56
28
26
129
130
72
63
75
172
125
87
45
131
52
95
3
33
67
161
4
71
20
170
83
164
113
177
114
46
41
89
10
149
65
39
171
62
103
50
38
90
60
55
152
31
79
111
93
109
118
140
44
66
32
117
11
47
51
22
15
64
180
48
27
21
30
23
82
12
104
35
24
77
8
92
36

>  <PUBCHEM_MMFF94_PARTIAL_CHARGES>  (1) 
28
1 1.51
10 -0.57
11 -0.47
12 -0.49
13 0.28
14 0.28
15 0.28
16 0.58
17 0.28
18 0.69
19 -0.04
2 -0.56
20 -0.14
21 0.62
28 0.4
29 0.4
3 -0.68
30 0.15
31 0.37
32 0.15
33 0.5
34 0.5
4 -0.68
5 -0.55
6 -0.57
7 -0.77
8 -0.77
9 -0.7

>  <PUBCHEM_EFFECTIVE_ROTOR_COUNT>  (1) 
5

>  <PUBCHEM_PHARMACOPHORE_FEATURES>  (1) 
14
1 10 acceptor
1 12 donor
1 2 acceptor
1 3 acceptor
1 3 donor
1 4 acceptor
1 4 donor
1 6 acceptor
1 7 acceptor
1 8 acceptor
1 9 acceptor
4 1 7 8 9 anion
5 2 13 14 15 16 rings
6 11 12 18 19 20 21 rings

>  <PUBCHEM_HEAVY_ATOM_COUNT>  (1) 
21

>  <PUBCHEM_ATOM_DEF_STEREO_COUNT>  (1) 
0

>  <PUBCHEM_ATOM_UDEF_STEREO_COUNT>  (1) 
4

>  <PUBCHEM_BOND_DEF_STEREO_COUNT>  (1) 
0

>  <PUBCHEM_BOND_UDEF_STEREO_COUNT>  (1) 
0

>  <PUBCHEM_ISOTOPIC_ATOM_COUNT>  (1) 
0

>  <PUBCHEM_COMPONENT_COUNT>  (1) 
1

>  <PUBCHEM_CACTVS_TAUTO_COUNT>  (1) 
3

>  <PUBCHEM_CONFORMER_ID>  (1) 
0000049400000001

>  <PUBCHEM_MMFF94_ENERGY>  (1) 
16.3574

>  <PUBCHEM_FEATURE_SELFOVERLAP>  (1) 
71.089

>  <PUBCHEM_SHAPE_FINGERPRINT>  (1) 
12390115 104 18262533592478569398
12644460 14 17822846464701137586
12788726 201 17685230751744718126
12892183 10 13334734643823479028
13583140 156 15791718707344778332
13828863 39 14637153540824701622
14123255 52 18410014312390263920
1420 369 9151175337838629852
14251764 38 18056189426648127648
14790565 3 18411141311788077025
15342168 16 18334019354512906741
15534591 1 18343582945142503535
15842332 3 18197755749096547991
1741750 31 18410857689627930986
17834072 32 18335707190987930256
1813 80 17619346503016855218
18222031 100 9367339323742911656
19784866 240 9223220854491584937
19784866 34 18408041805709740592
200 152 12175625078979670380
20300324 65 17917145103987806757
204376 136 18186241731669671954
20510252 161 18047752882227564282
21524375 3 18409443687625638226
21756936 100 18341895207552025842
22079108 93 18334023795587991273
22182937 141 18263650730541475512
2255824 54 18121778327053942435
22620623 9 16199567183166471349
23175994 123 12823296831611857251
23402539 116 18201993335534099116
23558518 356 18047473606305445640
23559900 14 17273127982320909503
25147074 1 18268973333298777311
283562 15 17973159818550113754
3472631 163 18202004300580850973
38570 142 18127433183984873977
394222 165 18335415708220514650
474 4 18335419049762793608
5104073 3 17968649549613245896
59755656 520 18408325479746870478
6034566 193 17532951603948889972
633830 44 18411419484050520678
9981440 41 18341326777542679834

>  <PUBCHEM_SHAPE_MULTIPOLES>  (1) 
373.23
10.43
2.98
1.2
7.13
1.11
0.22
-9.81
1.15
-0.14
-0.83
-0.19
0.23
-1.69

>  <PUBCHEM_SHAPE_SELFOVERLAP>  (1) 
765.465

>  <PUBCHEM_SHAPE_VOLUME>  (1) 
216.5

>  <PUBCHEM_COORDINATE_TYPE>  (1) 
2
5
10

$$$$
