11733
     RDKit          3D

  6  5  0  0  1  0  0  0  0  0999 V2000
   -2.0697    0.6125    0.5479 Cl  0  0  0  0  0  0  0  0  0  0  0  0
    0.8496    1.5723   -0.7749 Cl  0  0  0  0  0  0  0  0  0  0  0  0
    2.0640   -0.7798    0.4256 Cl  0  0  0  0  0  0  0  0  0  0  0  0
   -0.6618   -0.4813    0.3247 C   0  0  0  0  0  0  0  0  0  0  0  0
    0.6474    0.3092    0.4706 C   0  0  0  0  0  0  0  0  0  0  0  0
   -0.8294   -1.2329   -0.9939 C   0  0  0  0  0  0  0  0  0  0  0  0
  1  4  1  0
  2  5  1  0
  3  5  1  0
  4  5  1  0
  4  6  1  0
M  END
>  <PUBCHEM_COMPOUND_CID>  (1) 
11733

>  <PUBCHEM_CONFORMER_RMSD>  (1) 
0.4

>  <PUBCHEM_CONFORMER_DIVERSEORDER>  (1) 
1
2
5
3
4
6

>  <PUBCHEM_MMFF94_PARTIAL_CHARGES>  (1) 
5
1 -0.29
2 -0.29
3 -0.29
4 0.29
5 0.58

>  <PUBCHEM_EFFECTIVE_ROTOR_COUNT>  (1) 
1

>  <PUBCHEM_PHARMACOPHORE_FEATURES>  (1) 
0

>  <PUBCHEM_HEAVY_ATOM_COUNT>  (1) 
6

>  <PUBCHEM_ATOM_DEF_STEREO_COUNT>  (1) 
0

>  <PUBCHEM_ATOM_UDEF_STEREO_COUNT>  (1) 
1

>  <PUBCHEM_BOND_DEF_STEREO_COUNT>  (1) 
0

>  <PUBCHEM_BOND_UDEF_STEREO_COUNT>  (1) 
0

>  <PUBCHEM_ISOTOPIC_ATOM_COUNT>  (1) 
0

>  <PUBCHEM_COMPONENT_COUNT>  (1) 
1

>  <PUBCHEM_CACTVS_TAUTO_COUNT>  (1) 
1

>  <PUBCHEM_CONFORMER_ID>  (1) 
00002DD500000001

>  <PUBCHEM_MMFF94_ENERGY>  (1) 
4.9142

>  <PUBCHEM_FEATURE_SELFOVERLAP>  (1) 
0

>  <PUBCHEM_SHAPE_FINGERPRINT>  (1) 
137420 1 11510894373705133455
16714656 1 18266458694260189258
18185500 45 18124868212330344486
20096714 4 18263095468426701993
21040471 1 17846227635020397387
24536 1 17971180671654205138
29004967 10 17822013073293640146
5943 1 13562768188277656447

>  <PUBCHEM_SHAPE_MULTIPOLES>  (1) 
129.09
2.49
1.53
1.03
0.06
0.36
0.18
-0.12
-0.59
-0.26
0.48
0.1
-0.06
-0.51

>  <PUBCHEM_SHAPE_SELFOVERLAP>  (1) 
203.047

>  <PUBCHEM_SHAPE_VOLUME>  (1) 
92.5

>  <PUBCHEM_COORDINATE_TYPE>  (1) 
2
5
10

$$$$
