11738
     RDKit          3D

  8  7  0  0  0  0  0  0  0  0999 V2000
   -1.0184   -0.1344   -0.0021 C   0  0  0  0  0  0  0  0  0  0  0  0
    0.4809    0.2641    0.0138 C   0  0  0  0  0  0  0  0  0  0  0  0
   -1.7130    0.4453   -1.2539 C   0  0  0  0  0  0  0  0  0  0  0  0
   -1.8170    0.3749    1.2226 C   0  0  0  0  0  0  0  0  0  0  0  0
   -1.1465   -1.6717   -0.0208 C   0  0  0  0  0  0  0  0  0  0  0  0
    0.7743    1.7492    0.0360 C   0  0  0  0  0  0  0  0  0  0  0  0
    1.4824   -0.6424    0.0002 C   0  0  0  0  0  0  0  0  0  0  0  0
    2.9572   -0.3850    0.0042 C   0  0  0  0  0  0  0  0  0  0  0  0
  1  2  1  0
  1  3  1  0
  1  4  1  0
  1  5  1  0
  2  6  1  0
  2  7  2  0
  7  8  1  0
M  END
>  <PUBCHEM_COMPOUND_CID>  (1) 
11738

>  <PUBCHEM_CONFORMER_RMSD>  (1) 
0.4

>  <PUBCHEM_CONFORMER_DIVERSEORDER>  (1) 
1

>  <PUBCHEM_MMFF94_PARTIAL_CHARGES>  (1) 
6
1 0.14
2 -0.28
21 0.15
6 0.14
7 -0.29
8 0.14

>  <PUBCHEM_EFFECTIVE_ROTOR_COUNT>  (1) 
1

>  <PUBCHEM_PHARMACOPHORE_FEATURES>  (1) 
3
1 6 hydrophobe
1 8 hydrophobe
4 1 3 4 5 hydrophobe

>  <PUBCHEM_HEAVY_ATOM_COUNT>  (1) 
8

>  <PUBCHEM_ATOM_DEF_STEREO_COUNT>  (1) 
0

>  <PUBCHEM_ATOM_UDEF_STEREO_COUNT>  (1) 
0

>  <PUBCHEM_BOND_DEF_STEREO_COUNT>  (1) 
0

>  <PUBCHEM_BOND_UDEF_STEREO_COUNT>  (1) 
1

>  <PUBCHEM_ISOTOPIC_ATOM_COUNT>  (1) 
0

>  <PUBCHEM_COMPONENT_COUNT>  (1) 
1

>  <PUBCHEM_CACTVS_TAUTO_COUNT>  (1) 
1

>  <PUBCHEM_CONFORMER_ID>  (1) 
00002DDA00000001

>  <PUBCHEM_MMFF94_ENERGY>  (1) 
19.3351

>  <PUBCHEM_FEATURE_SELFOVERLAP>  (1) 
15.225

>  <PUBCHEM_SHAPE_FINGERPRINT>  (1) 
12423570 1 17323780636281496495
12932764 1 18040155119735713618
15310529 11 16950291693307885270
16714656 1 18338803303782646174
21040471 1 18265045847414253534
23552423 10 18117840125552854742
24536 1 18130785719417901747
29004967 10 18261120642664169104
369184 2 18334572417404035802
5084963 1 18263078979957393434

>  <PUBCHEM_SHAPE_MULTIPOLES>  (1) 
164.64
3.16
1.47
1
2.01
0.06
-0.02
-0.43
0.05
-0.05
0
-0.68
0.16
0.02

>  <PUBCHEM_SHAPE_SELFOVERLAP>  (1) 
300.29

>  <PUBCHEM_SHAPE_VOLUME>  (1) 
108.8

>  <PUBCHEM_COORDINATE_TYPE>  (1) 
2
5
10

$$$$
