11737
     RDKit          3D

  6  5  0  0  0  0  0  0  0  0999 V2000
    1.3668   -1.1451    0.0020 O   0  0  0  0  0  0  0  0  0  0  0  0
   -0.6582    0.0019    0.0009 N   0  0  0  0  0  0  0  0  0  0  0  0
    1.4118    1.1257   -0.0050 N   0  0  0  0  0  0  0  0  0  0  0  0
   -1.5031   -1.1848   -0.0040 C   0  0  0  0  0  0  0  0  0  0  0  0
   -1.3583    1.2837    0.0027 C   0  0  0  0  0  0  0  0  0  0  0  0
    0.7410   -0.0813    0.0035 C   0  0  0  0  0  0  0  0  0  0  0  0
  1  6  2  0
  2  4  1  0
  2  5  1  0
  2  6  1  0
  3  6  1  0
M  END
>  <PUBCHEM_COMPOUND_CID>  (1) 
11737

>  <PUBCHEM_CONFORMER_RMSD>  (1) 
0.4

>  <PUBCHEM_CONFORMER_DIVERSEORDER>  (1) 
1

>  <PUBCHEM_MMFF94_PARTIAL_CHARGES>  (1) 
8
1 -0.57
13 0.37
14 0.37
2 -0.66
3 -0.8
4 0.3
5 0.3
6 0.69

>  <PUBCHEM_EFFECTIVE_ROTOR_COUNT>  (1) 
1

>  <PUBCHEM_PHARMACOPHORE_FEATURES>  (1) 
2
1 1 acceptor
1 3 donor

>  <PUBCHEM_HEAVY_ATOM_COUNT>  (1) 
6

>  <PUBCHEM_ATOM_DEF_STEREO_COUNT>  (1) 
0

>  <PUBCHEM_ATOM_UDEF_STEREO_COUNT>  (1) 
0

>  <PUBCHEM_BOND_DEF_STEREO_COUNT>  (1) 
0

>  <PUBCHEM_BOND_UDEF_STEREO_COUNT>  (1) 
0

>  <PUBCHEM_ISOTOPIC_ATOM_COUNT>  (1) 
0

>  <PUBCHEM_COMPONENT_COUNT>  (1) 
1

>  <PUBCHEM_CACTVS_TAUTO_COUNT>  (1) 
2

>  <PUBCHEM_CONFORMER_ID>  (1) 
00002DD900000001

>  <PUBCHEM_MMFF94_ENERGY>  (1) 
11.922

>  <PUBCHEM_FEATURE_SELFOVERLAP>  (1) 
10.148

>  <PUBCHEM_SHAPE_FINGERPRINT>  (1) 
139733 1 9222693088693831363
16714656 1 17834684072893982532
20096714 4 18265897960330707001
21015797 1 9295023357061822724
21040471 1 18194682557797641121
24536 1 18338782464358635405
29004967 10 18046069529919956515
5943 1 15326738195106778385

>  <PUBCHEM_SHAPE_MULTIPOLES>  (1) 
107.65
2.05
1.52
0.57
0.03
0.09
0
-0.06
0
-0.26
0
-0.04
0
0

>  <PUBCHEM_SHAPE_SELFOVERLAP>  (1) 
192.419

>  <PUBCHEM_SHAPE_VOLUME>  (1) 
71.1

>  <PUBCHEM_COORDINATE_TYPE>  (1) 
2
5
10

$$$$
