11736
     RDKit          3D

  6  5  0  0  0  0  0  0  0  0999 V2000
   -2.0479   -0.6514   -0.0003 Cl  0  0  0  0  0  0  0  0  0  0  0  0
    2.0479    0.6515   -0.0003 Cl  0  0  0  0  0  0  0  0  0  0  0  0
   -0.7095    1.6356    0.0001 F   0  0  0  0  0  0  0  0  0  0  0  0
    0.7095   -1.6356    0.0001 F   0  0  0  0  0  0  0  0  0  0  0  0
   -0.6029    0.2881    0.0002 C   0  0  0  0  0  0  0  0  0  0  0  0
    0.6028   -0.2882    0.0002 C   0  0  0  0  0  0  0  0  0  0  0  0
  1  5  1  0
  2  6  1  0
  3  5  1  0
  4  6  1  0
  5  6  2  0
M  END
>  <PUBCHEM_COMPOUND_CID>  (1) 
11736

>  <PUBCHEM_CONFORMER_RMSD>  (1) 
0.4

>  <PUBCHEM_CONFORMER_DIVERSEORDER>  (1) 
1

>  <PUBCHEM_MMFF94_PARTIAL_CHARGES>  (1) 
6
1 -0.14
2 -0.14
3 -0.15
4 -0.15
5 0.29
6 0.29

>  <PUBCHEM_EFFECTIVE_ROTOR_COUNT>  (1) 
0

>  <PUBCHEM_PHARMACOPHORE_FEATURES>  (1) 
0

>  <PUBCHEM_HEAVY_ATOM_COUNT>  (1) 
6

>  <PUBCHEM_ATOM_DEF_STEREO_COUNT>  (1) 
0

>  <PUBCHEM_ATOM_UDEF_STEREO_COUNT>  (1) 
0

>  <PUBCHEM_BOND_DEF_STEREO_COUNT>  (1) 
0

>  <PUBCHEM_BOND_UDEF_STEREO_COUNT>  (1) 
1

>  <PUBCHEM_ISOTOPIC_ATOM_COUNT>  (1) 
0

>  <PUBCHEM_COMPONENT_COUNT>  (1) 
1

>  <PUBCHEM_CACTVS_TAUTO_COUNT>  (1) 
1

>  <PUBCHEM_CONFORMER_ID>  (1) 
00002DD800000001

>  <PUBCHEM_MMFF94_ENERGY>  (1) 
1.3706

>  <PUBCHEM_FEATURE_SELFOVERLAP>  (1) 
0

>  <PUBCHEM_SHAPE_FINGERPRINT>  (1) 
139733 1 9223237346991629091
16714656 1 18267589185455409836
20096714 4 18122909720244490248
21015797 1 9223219750199361551
21040471 1 18266741483401894944
24536 1 18193821657335915012
29004967 10 18335146439835874371
5460574 1 9295026659881123843

>  <PUBCHEM_SHAPE_MULTIPOLES>  (1) 
112.67
2.55
1.39
0.59
0
0
0
0
0
0
0
0
0
0

>  <PUBCHEM_SHAPE_SELFOVERLAP>  (1) 
192.806

>  <PUBCHEM_SHAPE_VOLUME>  (1) 
76.9

>  <PUBCHEM_COORDINATE_TYPE>  (1) 
2
5
10

$$$$
