11747
     RDKit          3D

  7  6  0  0  0  0  0  0  0  0999 V2000
   -0.5220   -1.5091    0.0020 O   0  0  0  0  0  0  0  0  0  0  0  0
    2.0320   -0.8225   -0.0030 O   0  0  0  0  0  0  0  0  0  0  0  0
   -1.2962    0.7904    0.0052 C   0  0  0  0  0  0  0  0  0  0  0  0
   -0.2629   -0.3126    0.0026 C   0  0  0  0  0  0  0  0  0  0  0  0
   -2.7138    0.2433   -0.0058 C   0  0  0  0  0  0  0  0  0  0  0  0
    1.2019    0.0774   -0.0001 C   0  0  0  0  0  0  0  0  0  0  0  0
    1.5610    1.5331   -0.0008 C   0  0  0  0  0  0  0  0  0  0  0  0
  1  4  2  0
  2  6  2  0
  3  4  1  0
  3  5  1  0
  4  6  1  0
  6  7  1  0
M  END
>  <PUBCHEM_COMPOUND_CID>  (1) 
11747

>  <PUBCHEM_CONFORMER_RMSD>  (1) 
0.4

>  <PUBCHEM_CONFORMER_DIVERSEORDER>  (1) 
1
16
15
4
12
11
9
5
7
10
21
6
8
2
19
3
20
13
17
18
14

>  <PUBCHEM_MMFF94_PARTIAL_CHARGES>  (1) 
6
1 -0.57
2 -0.57
3 0.06
4 0.51
6 0.51
7 0.06

>  <PUBCHEM_EFFECTIVE_ROTOR_COUNT>  (1) 
2

>  <PUBCHEM_PHARMACOPHORE_FEATURES>  (1) 
3
1 1 acceptor
1 2 acceptor
1 5 hydrophobe

>  <PUBCHEM_HEAVY_ATOM_COUNT>  (1) 
7

>  <PUBCHEM_ATOM_DEF_STEREO_COUNT>  (1) 
0

>  <PUBCHEM_ATOM_UDEF_STEREO_COUNT>  (1) 
0

>  <PUBCHEM_BOND_DEF_STEREO_COUNT>  (1) 
0

>  <PUBCHEM_BOND_UDEF_STEREO_COUNT>  (1) 
0

>  <PUBCHEM_ISOTOPIC_ATOM_COUNT>  (1) 
0

>  <PUBCHEM_COMPONENT_COUNT>  (1) 
1

>  <PUBCHEM_CACTVS_TAUTO_COUNT>  (1) 
8

>  <PUBCHEM_CONFORMER_ID>  (1) 
00002DE300000001

>  <PUBCHEM_MMFF94_ENERGY>  (1) 
3.0729

>  <PUBCHEM_FEATURE_SELFOVERLAP>  (1) 
15.232

>  <PUBCHEM_SHAPE_FINGERPRINT>  (1) 
14390081 3 18200312259195622617
20096714 4 18410012151926579984
21040471 1 18338517546481000224
23552423 10 18262235637422486030
24536 1 18266443485696559084
29004967 10 18337956658122320242
5084963 1 18272930488368073073
5460574 1 9223225252173812993

>  <PUBCHEM_SHAPE_MULTIPOLES>  (1) 
132.32
3.1
1.39
0.59
1.2
0.01
0
0.5
0.01
-0.44
0
0.02
0.04
0

>  <PUBCHEM_SHAPE_SELFOVERLAP>  (1) 
243.533

>  <PUBCHEM_SHAPE_VOLUME>  (1) 
83.9

>  <PUBCHEM_COORDINATE_TYPE>  (1) 
2
5
10

$$$$
