11751
     RDKit          3D

  8  7  0  0  0  0  0  0  0  0999 V2000
   -0.0551   -1.8700    0.8391 Cl  0  0  0  0  0  0  0  0  0  0  0  0
    2.2984   -0.3380   -0.7795 O   0  0  0  0  0  0  0  0  0  0  0  0
   -2.3889   -0.4327   -0.3889 O   0  0  0  0  0  0  0  0  0  0  0  0
    1.4398    1.1628    0.6958 O   0  0  0  0  0  0  0  0  0  0  0  0
   -1.3067    1.4842    0.1487 O   0  0  0  0  0  0  0  0  0  0  0  0
   -0.0063   -0.5173   -0.3137 C   0  0  0  0  0  0  0  0  0  0  0  0
    1.2864    0.2153   -0.0611 C   0  0  0  0  0  0  0  0  0  0  0  0
   -1.2676    0.2957   -0.1403 C   0  0  0  0  0  0  0  0  0  0  0  0
  1  6  1  0
  2  7  1  0
  3  8  1  0
  4  7  2  0
  5  8  2  0
  6  7  1  0
  6  8  1  0
M  END
>  <PUBCHEM_COMPOUND_CID>  (1) 
11751

>  <PUBCHEM_CONFORMER_RMSD>  (1) 
0.4

>  <PUBCHEM_CONFORMER_DIVERSEORDER>  (1) 
1
7
4
2
3
8
9
5
6

>  <PUBCHEM_MMFF94_PARTIAL_CHARGES>  (1) 
10
1 -0.29
10 0.5
11 0.5
2 -0.65
3 -0.65
4 -0.57
5 -0.57
6 0.41
7 0.66
8 0.66

>  <PUBCHEM_EFFECTIVE_ROTOR_COUNT>  (1) 
2

>  <PUBCHEM_PHARMACOPHORE_FEATURES>  (1) 
7
1 2 acceptor
1 3 acceptor
1 4 acceptor
1 5 acceptor
1 6 anion
3 2 4 7 anion
3 3 5 8 anion

>  <PUBCHEM_HEAVY_ATOM_COUNT>  (1) 
8

>  <PUBCHEM_ATOM_DEF_STEREO_COUNT>  (1) 
0

>  <PUBCHEM_ATOM_UDEF_STEREO_COUNT>  (1) 
0

>  <PUBCHEM_BOND_DEF_STEREO_COUNT>  (1) 
0

>  <PUBCHEM_BOND_UDEF_STEREO_COUNT>  (1) 
0

>  <PUBCHEM_ISOTOPIC_ATOM_COUNT>  (1) 
0

>  <PUBCHEM_COMPONENT_COUNT>  (1) 
1

>  <PUBCHEM_CACTVS_TAUTO_COUNT>  (1) 
1

>  <PUBCHEM_CONFORMER_ID>  (1) 
00002DE700000001

>  <PUBCHEM_MMFF94_ENERGY>  (1) 
10.1615

>  <PUBCHEM_FEATURE_SELFOVERLAP>  (1) 
36.163

>  <PUBCHEM_SHAPE_FINGERPRINT>  (1) 
18185500 45 17760922940081057355
20096714 4 18341892931240509845
21040471 1 18260263070596635178
23552423 10 18117563916058622318
24536 1 18191022507132750748
29004967 10 16774081739289631638
5084963 1 18408887325740443068

>  <PUBCHEM_SHAPE_MULTIPOLES>  (1) 
143.03
2.56
1.57
0.82
0.05
0.53
0.04
-0.41
-0.52
0.18
0.51
-0.19
0.09
0.09

>  <PUBCHEM_SHAPE_SELFOVERLAP>  (1) 
266.853

>  <PUBCHEM_SHAPE_VOLUME>  (1) 
89.4

>  <PUBCHEM_COORDINATE_TYPE>  (1) 
2
5
10

$$$$
