11757
     RDKit          3D

  9  8  0  0  0  0  0  0  0  0999 V2000
    2.2118   -0.3367   -0.8373 O   0  0  0  0  0  0  0  0  0  0  0  0
   -1.0129   -1.9286   -0.6067 O   0  0  0  0  0  0  0  0  0  0  0  0
    1.7040    0.9371    0.8828 O   0  0  0  0  0  0  0  0  0  0  0  0
   -0.6065   -1.0731    1.3784 O   0  0  0  0  0  0  0  0  0  0  0  0
    1.4079    0.2751   -0.1206 N   0  0  0  0  0  0  0  0  0  0  0  0
   -0.6032   -1.0305    0.1412 N   0  0  0  0  0  0  0  0  0  0  0  0
   -0.0545    0.2249   -0.4863 C   0  0  0  0  0  0  0  0  0  0  0  0
   -0.7821    1.4743    0.0013 C   0  0  0  0  0  0  0  0  0  0  0  0
   -2.2644    1.4575   -0.3526 C   0  0  0  0  0  0  0  0  0  0  0  0
  1  5  1  0
  2  6  1  0
  3  5  2  0
  4  6  2  0
  5  7  1  0
  6  7  1  0
  7  8  1  0
  8  9  1  0
M  CHG  4   1  -1   2  -1   5   1   6   1
M  END
>  <PUBCHEM_COMPOUND_CID>  (1) 
11757

>  <PUBCHEM_CONFORMER_RMSD>  (1) 
0.6

>  <PUBCHEM_CONFORMER_DIVERSEORDER>  (1) 
1
9
2
6
5
4
3
7
8

>  <PUBCHEM_MMFF94_PARTIAL_CHARGES>  (1) 
7
1 -0.52
2 -0.52
3 -0.52
4 -0.52
5 0.8
6 0.8
7 0.48

>  <PUBCHEM_EFFECTIVE_ROTOR_COUNT>  (1) 
3

>  <PUBCHEM_PHARMACOPHORE_FEATURES>  (1) 
7
1 1 acceptor
1 1 anion
1 2 acceptor
1 2 anion
1 3 acceptor
1 4 acceptor
1 9 hydrophobe

>  <PUBCHEM_HEAVY_ATOM_COUNT>  (1) 
9

>  <PUBCHEM_ATOM_DEF_STEREO_COUNT>  (1) 
0

>  <PUBCHEM_ATOM_UDEF_STEREO_COUNT>  (1) 
0

>  <PUBCHEM_BOND_DEF_STEREO_COUNT>  (1) 
0

>  <PUBCHEM_BOND_UDEF_STEREO_COUNT>  (1) 
0

>  <PUBCHEM_ISOTOPIC_ATOM_COUNT>  (1) 
0

>  <PUBCHEM_COMPONENT_COUNT>  (1) 
1

>  <PUBCHEM_CACTVS_TAUTO_COUNT>  (1) 
2

>  <PUBCHEM_CONFORMER_ID>  (1) 
00002DED00000001

>  <PUBCHEM_MMFF94_ENERGY>  (1) 
11.9119

>  <PUBCHEM_FEATURE_SELFOVERLAP>  (1) 
35.683

>  <PUBCHEM_SHAPE_FINGERPRINT>  (1) 
20653091 64 17036135801606395641
21040471 1 18336261232640947189
24536 1 17822855423823165638
29004967 10 17762615496461200338
5084963 1 17970350308521106565
5943 1 10962387854076270547

>  <PUBCHEM_SHAPE_MULTIPOLES>  (1) 
151.78
2.48
1.77
0.96
0.18
0.84
0.21
-1.23
-0.46
0.46
0.07
-0.17
0.18
0.18

>  <PUBCHEM_SHAPE_SELFOVERLAP>  (1) 
283.393

>  <PUBCHEM_SHAPE_VOLUME>  (1) 
94.5

>  <PUBCHEM_COORDINATE_TYPE>  (1) 
2
5
10

$$$$
