11769
     RDKit          3D

 15 17  0  0  0  0  0  0  0  0999 V2000
    3.7411    0.7114    0.0010 O   0  0  0  0  0  0  0  0  0  0  0  0
    2.9780   -1.3469    0.0005 O   0  0  0  0  0  0  0  0  0  0  0  0
    2.7921   -0.1074    0.0001 N   0  0  0  0  0  0  0  0  0  0  0  0
   -0.9060    0.1161   -0.0002 C   0  0  0  0  0  0  0  0  0  0  0  0
   -2.5923    1.7820    0.0012 C   0  0  0  0  0  0  0  0  0  0  0  0
   -3.2617    0.3804   -0.0001 C   0  0  0  0  0  0  0  0  0  0  0  0
   -1.1257    1.4681   -0.0002 C   0  0  0  0  0  0  0  0  0  0  0  0
   -2.0956   -0.5630    0.0002 C   0  0  0  0  0  0  0  0  0  0  0  0
    0.3542   -0.4856   -0.0004 C   0  0  0  0  0  0  0  0  0  0  0  0
   -0.0404    2.3271   -0.0003 C   0  0  0  0  0  0  0  0  0  0  0  0
   -2.0816   -1.9471    0.0002 C   0  0  0  0  0  0  0  0  0  0  0  0
    1.4580    0.3872   -0.0009 C   0  0  0  0  0  0  0  0  0  0  0  0
    0.3691   -1.8929   -0.0004 C   0  0  0  0  0  0  0  0  0  0  0  0
    1.2540    1.7810   -0.0007 C   0  0  0  0  0  0  0  0  0  0  0  0
   -0.8432   -2.6104   -0.0001 C   0  0  0  0  0  0  0  0  0  0  0  0
  1  3  1  0
  2  3  2  0
  3 12  1  0
  4  7  1  0
  4  8  2  0
  4  9  1  0
  5  6  1  0
  5  7  1  0
  6  8  1  0
  7 10  2  0
  8 11  1  0
  9 12  1  0
  9 13  2  0
 10 14  1  0
 11 15  2  0
 12 14  2  0
 13 15  1  0
M  CHG  2   1  -1   3   1
M  END
>  <PUBCHEM_COMPOUND_CID>  (1) 
11769

>  <PUBCHEM_CONFORMER_RMSD>  (1) 
0.6

>  <PUBCHEM_CONFORMER_DIVERSEORDER>  (1) 
1

>  <PUBCHEM_MMFF94_PARTIAL_CHARGES>  (1) 
18
1 -0.52
10 -0.15
11 -0.15
12 0.13
13 -0.15
14 -0.15
15 -0.15
2 -0.52
20 0.15
21 0.15
22 0.15
23 0.15
24 0.15
3 0.91
5 0.14
6 0.14
7 -0.14
8 -0.14

>  <PUBCHEM_EFFECTIVE_ROTOR_COUNT>  (1) 
1.4

>  <PUBCHEM_PHARMACOPHORE_FEATURES>  (1) 
6
1 1 acceptor
1 1 anion
1 2 acceptor
5 4 5 6 7 8 rings
6 4 7 9 10 12 14 rings
6 4 8 9 11 13 15 rings

>  <PUBCHEM_HEAVY_ATOM_COUNT>  (1) 
15

>  <PUBCHEM_ATOM_DEF_STEREO_COUNT>  (1) 
0

>  <PUBCHEM_ATOM_UDEF_STEREO_COUNT>  (1) 
0

>  <PUBCHEM_BOND_DEF_STEREO_COUNT>  (1) 
0

>  <PUBCHEM_BOND_UDEF_STEREO_COUNT>  (1) 
0

>  <PUBCHEM_ISOTOPIC_ATOM_COUNT>  (1) 
0

>  <PUBCHEM_COMPONENT_COUNT>  (1) 
1

>  <PUBCHEM_CACTVS_TAUTO_COUNT>  (1) 
1

>  <PUBCHEM_CONFORMER_ID>  (1) 
00002DF900000001

>  <PUBCHEM_MMFF94_ENERGY>  (1) 
61.8331

>  <PUBCHEM_FEATURE_SELFOVERLAP>  (1) 
30.734

>  <PUBCHEM_SHAPE_FINGERPRINT>  (1) 
10967382 1 18410575058919655399
11132069 177 18411412891323018456
12382932 28 18412260662106403730
12423570 1 17677622968630020701
13140716 1 18266744769220727377
13380535 76 18338795603017249151
14614273 12 18116428133606079221
14790565 3 18267324056961801785
15001771 113 18122065561623345217
16945 1 17617941769568869509
193761 8 17978229683792253925
19591789 44 18267028258584968467
20510252 161 18272370828149013520
20588541 1 18340208501012259389
20645476 183 17895779347019206782
20871998 184 18200316635851576527
21501502 16 18122347040715766101
22802520 49 18057624082804781214
2334 1 18050287269334978445
23402539 116 18270949176809492287
23419403 2 16111684399441863593
23463225 33 18263361395800973826
23552423 10 17974007554740962981
23559900 14 18343022169412906604
2748010 2 18194680608119761717
43471831 8 18191585255054300427
528886 8 18411131411940544737
53812653 166 18341892948610367769
54173680 148 18337674233947644866
7364860 26 17837774795758501704

>  <PUBCHEM_SHAPE_MULTIPOLES>  (1) 
291.97
4.45
2.76
0.6
2.3
0.5
0
-0.34
0
-0.74
0
-0.06
-0.01
0

>  <PUBCHEM_SHAPE_SELFOVERLAP>  (1) 
664.55

>  <PUBCHEM_SHAPE_VOLUME>  (1) 
156.2

>  <PUBCHEM_COORDINATE_TYPE>  (1) 
2
5
10

$$$$
