11760
     RDKit          3D

 11 11  0  0  0  0  0  0  0  0999 V2000
    0.2303   -2.4025    0.0009 O   0  0  0  0  0  0  0  0  0  0  0  0
    0.2303    2.4023    0.0004 O   0  0  0  0  0  0  0  0  0  0  0  0
    2.2979   -1.0976   -0.0003 O   0  0  0  0  0  0  0  0  0  0  0  0
    2.2978    1.0977   -0.0002 O   0  0  0  0  0  0  0  0  0  0  0  0
    1.6942    0.0000   -0.0001 N   0  0  0  0  0  0  0  0  0  0  0  0
    0.2699   -0.0001   -0.0001 C   0  0  0  0  0  0  0  0  0  0  0  0
   -0.4277   -1.2080   -0.0003 C   0  0  0  0  0  0  0  0  0  0  0  0
   -0.4275    1.2080    0.0001 C   0  0  0  0  0  0  0  0  0  0  0  0
   -1.8226   -1.2079   -0.0004 C   0  0  0  0  0  0  0  0  0  0  0  0
   -1.8225    1.2080    0.0000 C   0  0  0  0  0  0  0  0  0  0  0  0
   -2.5200    0.0001   -0.0001 C   0  0  0  0  0  0  0  0  0  0  0  0
  1  7  1  0
  2  8  1  0
  3  5  1  0
  4  5  2  0
  5  6  1  0
  6  7  2  0
  6  8  1  0
  7  9  1  0
  8 10  2  0
  9 11  2  0
 10 11  1  0
M  CHG  2   3  -1   5   1
M  END
>  <PUBCHEM_COMPOUND_CID>  (1) 
11760

>  <PUBCHEM_CONFORMER_RMSD>  (1) 
0.4

>  <PUBCHEM_CONFORMER_DIVERSEORDER>  (1) 
1

>  <PUBCHEM_MMFF94_PARTIAL_CHARGES>  (1) 
16
1 -0.53
10 -0.15
11 -0.15
12 0.15
13 0.15
14 0.15
15 0.45
16 0.45
2 -0.53
3 -0.52
4 -0.52
5 0.91
6 0.13
7 0.08
8 0.08
9 -0.15

>  <PUBCHEM_EFFECTIVE_ROTOR_COUNT>  (1) 
1

>  <PUBCHEM_PHARMACOPHORE_FEATURES>  (1) 
6
1 1 donor
1 2 donor
1 3 acceptor
1 3 anion
1 4 acceptor
6 6 7 8 9 10 11 rings

>  <PUBCHEM_HEAVY_ATOM_COUNT>  (1) 
11

>  <PUBCHEM_ATOM_DEF_STEREO_COUNT>  (1) 
0

>  <PUBCHEM_ATOM_UDEF_STEREO_COUNT>  (1) 
0

>  <PUBCHEM_BOND_DEF_STEREO_COUNT>  (1) 
0

>  <PUBCHEM_BOND_UDEF_STEREO_COUNT>  (1) 
0

>  <PUBCHEM_ISOTOPIC_ATOM_COUNT>  (1) 
0

>  <PUBCHEM_COMPONENT_COUNT>  (1) 
1

>  <PUBCHEM_CACTVS_TAUTO_COUNT>  (1) 
7

>  <PUBCHEM_CONFORMER_ID>  (1) 
00002DF000000001

>  <PUBCHEM_MMFF94_ENERGY>  (1) 
38.4616

>  <PUBCHEM_FEATURE_SELFOVERLAP>  (1) 
30.527

>  <PUBCHEM_SHAPE_FINGERPRINT>  (1) 
12423570 1 11805010646042912193
12524768 44 18341899592745303110
16945 1 18410575084969014533
18185500 45 18410853239867531063
193761 8 17618221706915587725
21040471 1 18410856602631673536
23552423 10 18333454222536731310
241688 4 18410855417268244417
2748010 2 18410855464438953479
5084963 1 18130222653547940234
528886 8 18411414003656147153
66348 1 18410573967997962267

>  <PUBCHEM_SHAPE_MULTIPOLES>  (1) 
197.92
2.95
2.22
0.57
0.43
0
0
0
0
0.17
0
-0.07
0
0

>  <PUBCHEM_SHAPE_SELFOVERLAP>  (1) 
422.072

>  <PUBCHEM_SHAPE_VOLUME>  (1) 
109.7

>  <PUBCHEM_COORDINATE_TYPE>  (1) 
2
5
10

$$$$
