11779
     RDKit          3D

 14 15  0  0  0  0  0  0  0  0999 V2000
    0.3329    2.4819   -0.0003 O   0  0  0  0  0  0  0  0  0  0  0  0
   -3.5575    0.0011    0.0011 O   0  0  0  0  0  0  0  0  0  0  0  0
    3.4592   -0.3365    0.0017 O   0  0  0  0  0  0  0  0  0  0  0  0
    2.3083    1.5328   -0.0005 O   0  0  0  0  0  0  0  0  0  0  0  0
   -1.8232    1.5789    0.0007 N   0  0  0  0  0  0  0  0  0  0  0  0
    2.3642    0.2783    0.0004 N   0  0  0  0  0  0  0  0  0  0  0  0
   -0.0861    0.1329   -0.0011 C   0  0  0  0  0  0  0  0  0  0  0  0
   -1.2592   -0.6097   -0.0007 C   0  0  0  0  0  0  0  0  0  0  0  0
    1.1568   -0.4651   -0.0006 C   0  0  0  0  0  0  0  0  0  0  0  0
   -0.4486    1.5499   -0.0007 C   0  0  0  0  0  0  0  0  0  0  0  0
   -2.3851    0.3240    0.0006 C   0  0  0  0  0  0  0  0  0  0  0  0
   -1.2504   -1.9891   -0.0005 C   0  0  0  0  0  0  0  0  0  0  0  0
    1.1901   -1.8626   -0.0001 C   0  0  0  0  0  0  0  0  0  0  0  0
   -0.0014   -2.6170   -0.0001 C   0  0  0  0  0  0  0  0  0  0  0  0
  1 10  2  0
  2 11  2  0
  3  6  1  0
  4  6  2  0
  5 10  1  0
  5 11  1  0
  6  9  1  0
  7  8  2  0
  7  9  1  0
  7 10  1  0
  8 11  1  0
  8 12  1  0
  9 13  2  0
 12 14  2  0
 13 14  1  0
M  CHG  2   3  -1   6   1
M  END
>  <PUBCHEM_COMPOUND_CID>  (1) 
11779

>  <PUBCHEM_CONFORMER_RMSD>  (1) 
0.4

>  <PUBCHEM_CONFORMER_DIVERSEORDER>  (1) 
1

>  <PUBCHEM_MMFF94_PARTIAL_CHARGES>  (1) 
18
1 -0.57
10 0.54
11 0.54
12 -0.15
13 -0.15
14 -0.15
15 0.15
16 0.37
17 0.15
18 0.15
2 -0.57
3 -0.52
4 -0.52
5 -0.49
6 0.91
7 0.09
8 0.09
9 0.13

>  <PUBCHEM_EFFECTIVE_ROTOR_COUNT>  (1) 
1.2

>  <PUBCHEM_PHARMACOPHORE_FEATURES>  (1) 
8
1 1 acceptor
1 2 acceptor
1 3 acceptor
1 3 anion
1 4 acceptor
1 5 donor
5 5 7 8 10 11 rings
6 7 8 9 12 13 14 rings

>  <PUBCHEM_HEAVY_ATOM_COUNT>  (1) 
14

>  <PUBCHEM_ATOM_DEF_STEREO_COUNT>  (1) 
0

>  <PUBCHEM_ATOM_UDEF_STEREO_COUNT>  (1) 
0

>  <PUBCHEM_BOND_DEF_STEREO_COUNT>  (1) 
0

>  <PUBCHEM_BOND_UDEF_STEREO_COUNT>  (1) 
0

>  <PUBCHEM_ISOTOPIC_ATOM_COUNT>  (1) 
0

>  <PUBCHEM_COMPONENT_COUNT>  (1) 
1

>  <PUBCHEM_CACTVS_TAUTO_COUNT>  (1) 
3

>  <PUBCHEM_CONFORMER_ID>  (1) 
00002E0300000001

>  <PUBCHEM_MMFF94_ENERGY>  (1) 
53.0085

>  <PUBCHEM_FEATURE_SELFOVERLAP>  (1) 
40.853

>  <PUBCHEM_SHAPE_FINGERPRINT>  (1) 
10967382 1 18410855451554239846
12524768 44 18340492174964980239
13140716 1 18266740366552142915
13380535 76 18410854343474140258
16945 1 18410575076168187303
193761 8 17762338415299090087
20588541 1 18411422799554178763
20645476 183 17750814309564456646
21501502 16 17978228584132764269
22802520 49 18128840619325179806
2334 1 17978511162921240738
23402539 116 18270949194105587894
23419403 2 15592646436299062921
23463225 33 18335136458316132018
23552423 10 18048318834325916071
23559900 14 18342746247945227236
241688 4 16897364214044692283
2748010 2 18050286165443922455
5084963 1 17914892037180030570
528886 8 18411414020640973947
53812653 166 18342173392668132027
66348 1 18410856546776012714
7364860 26 17982168916053337406

>  <PUBCHEM_SHAPE_MULTIPOLES>  (1) 
254.67
3.81
2.62
0.58
0.32
0.37
0
-0.6
0
0.16
0
-0.02
0.04
0

>  <PUBCHEM_SHAPE_SELFOVERLAP>  (1) 
572.17

>  <PUBCHEM_SHAPE_VOLUME>  (1) 
136.2

>  <PUBCHEM_COORDINATE_TYPE>  (1) 
2
5
10

$$$$
