11787
     RDKit          3D

 12 13  0  0  0  0  0  0  0  0999 V2000
   -1.5152   -2.9233   -0.0008 Cl  0  0  0  0  0  0  0  0  0  0  0  0
   -0.6858    2.9036   -0.0003 O   0  0  0  0  0  0  0  0  0  0  0  0
    0.3120    0.7036    0.0000 C   0  0  0  0  0  0  0  0  0  0  0  0
    0.1281   -0.6996    0.0003 C   0  0  0  0  0  0  0  0  0  0  0  0
   -0.8135    1.5438    0.0000 C   0  0  0  0  0  0  0  0  0  0  0  0
   -1.1756   -1.2214    0.0004 C   0  0  0  0  0  0  0  0  0  0  0  0
    1.6159    1.2254   -0.0001 C   0  0  0  0  0  0  0  0  0  0  0  0
    1.2536   -1.5398    0.0003 C   0  0  0  0  0  0  0  0  0  0  0  0
   -2.1016    1.0079    0.0001 C   0  0  0  0  0  0  0  0  0  0  0  0
   -2.2823   -0.3720    0.0003 C   0  0  0  0  0  0  0  0  0  0  0  0
    2.7225    0.3759   -0.0002 C   0  0  0  0  0  0  0  0  0  0  0  0
    2.5418   -1.0041    0.0001 C   0  0  0  0  0  0  0  0  0  0  0  0
  1  6  1  0
  2  5  1  0
  3  4  1  0
  3  5  2  0
  3  7  1  0
  4  6  2  0
  4  8  1  0
  5  9  1  0
  6 10  1  0
  7 11  2  0
  8 12  2  0
  9 10  2  0
 11 12  1  0
M  END
>  <PUBCHEM_COMPOUND_CID>  (1) 
11787

>  <PUBCHEM_CONFORMER_RMSD>  (1) 
0.4

>  <PUBCHEM_CONFORMER_DIVERSEORDER>  (1) 
1

>  <PUBCHEM_MMFF94_PARTIAL_CHARGES>  (1) 
17
1 -0.18
10 -0.15
11 -0.15
12 -0.15
13 0.15
14 0.15
15 0.15
16 0.15
17 0.15
18 0.15
19 0.45
2 -0.53
5 0.08
6 0.18
7 -0.15
8 -0.15
9 -0.15

>  <PUBCHEM_EFFECTIVE_ROTOR_COUNT>  (1) 
0

>  <PUBCHEM_PHARMACOPHORE_FEATURES>  (1) 
3
1 2 donor
6 3 4 5 6 9 10 rings
6 3 4 7 8 11 12 rings

>  <PUBCHEM_HEAVY_ATOM_COUNT>  (1) 
12

>  <PUBCHEM_ATOM_DEF_STEREO_COUNT>  (1) 
0

>  <PUBCHEM_ATOM_UDEF_STEREO_COUNT>  (1) 
0

>  <PUBCHEM_BOND_DEF_STEREO_COUNT>  (1) 
0

>  <PUBCHEM_BOND_UDEF_STEREO_COUNT>  (1) 
0

>  <PUBCHEM_ISOTOPIC_ATOM_COUNT>  (1) 
0

>  <PUBCHEM_COMPONENT_COUNT>  (1) 
1

>  <PUBCHEM_CACTVS_TAUTO_COUNT>  (1) 
3

>  <PUBCHEM_CONFORMER_ID>  (1) 
00002E0B00000001

>  <PUBCHEM_MMFF94_ENERGY>  (1) 
37.7293

>  <PUBCHEM_FEATURE_SELFOVERLAP>  (1) 
15.249

>  <PUBCHEM_SHAPE_FINGERPRINT>  (1) 
10967382 1 18410855494530195619
12524768 44 18342181067674690399
16945 1 18410856534081014854
193761 8 15023868594435230796
20588541 1 18342179968168181323
20871998 184 18201159948290330751
21040471 1 18122344579989480352
2334 1 18122343750939498918
23402539 116 18271229574087255631
23552423 10 18189055459313585942
23559900 14 18271249327527832886
241688 4 18338515377501287202
2748010 2 18196087965723219062
5084963 1 17914889842451456496
528886 8 18411695508497253266
66348 1 18192992608388696237

>  <PUBCHEM_SHAPE_MULTIPOLES>  (1) 
242.95
3.39
2.83
0.61
0.97
0.26
0
-0.94
0
-1.14
0
0
-0.03
0

>  <PUBCHEM_SHAPE_SELFOVERLAP>  (1) 
526.441

>  <PUBCHEM_SHAPE_VOLUME>  (1) 
134

>  <PUBCHEM_COORDINATE_TYPE>  (1) 
2
5
10

$$$$
