11804
     RDKit          3D

 13 14  0  0  0  0  0  0  0  0999 V2000
   -0.3063    2.9101    0.0013 O   0  0  0  0  0  0  0  0  0  0  0  0
   -3.3087   -0.6201   -0.0020 O   0  0  0  0  0  0  0  0  0  0  0  0
    3.7181   -0.5779   -0.0016 O   0  0  0  0  0  0  0  0  0  0  0  0
   -1.0198   -1.1160    0.0008 N   0  0  0  0  0  0  0  0  0  0  0  0
    1.4461   -1.2912    0.0005 N   0  0  0  0  0  0  0  0  0  0  0  0
    1.8677    0.9187   -0.0002 N   0  0  0  0  0  0  0  0  0  0  0  0
   -1.8083    1.1295   -0.0009 N   0  0  0  0  0  0  0  0  0  0  0  0
    0.2549   -0.6064    0.0007 C   0  0  0  0  0  0  0  0  0  0  0  0
    0.5201    0.7021    0.0004 C   0  0  0  0  0  0  0  0  0  0  0  0
   -0.5369    1.7073    0.0002 C   0  0  0  0  0  0  0  0  0  0  0  0
   -2.1336   -0.2464   -0.0005 C   0  0  0  0  0  0  0  0  0  0  0  0
    2.5189   -0.3491   -0.0004 C   0  0  0  0  0  0  0  0  0  0  0  0
   -1.2122   -2.5605    0.0015 C   0  0  0  0  0  0  0  0  0  0  0  0
  1 10  2  0
  2 11  2  0
  3 12  2  0
  4  8  1  0
  4 11  1  0
  4 13  1  0
  5  8  1  0
  5 12  1  0
  6  9  1  0
  6 12  1  0
  7 10  1  0
  7 11  1  0
  8  9  2  0
  9 10  1  0
M  END
>  <PUBCHEM_COMPOUND_CID>  (1) 
11804

>  <PUBCHEM_CONFORMER_RMSD>  (1) 
0.4

>  <PUBCHEM_CONFORMER_DIVERSEORDER>  (1) 
1

>  <PUBCHEM_MMFF94_PARTIAL_CHARGES>  (1) 
16
1 -0.57
10 0.62
11 0.69
12 0.69
13 0.3
14 0.37
15 0.37
16 0.37
2 -0.57
3 -0.57
4 -0.47
5 -0.54
6 -0.54
7 -0.49
8 0.22
9 0.12

>  <PUBCHEM_EFFECTIVE_ROTOR_COUNT>  (1) 
0

>  <PUBCHEM_PHARMACOPHORE_FEATURES>  (1) 
8
1 1 acceptor
1 2 acceptor
1 3 acceptor
1 5 donor
1 6 donor
1 7 donor
5 5 6 8 9 12 rings
6 4 7 8 9 10 11 rings

>  <PUBCHEM_HEAVY_ATOM_COUNT>  (1) 
13

>  <PUBCHEM_ATOM_DEF_STEREO_COUNT>  (1) 
0

>  <PUBCHEM_ATOM_UDEF_STEREO_COUNT>  (1) 
0

>  <PUBCHEM_BOND_DEF_STEREO_COUNT>  (1) 
0

>  <PUBCHEM_BOND_UDEF_STEREO_COUNT>  (1) 
0

>  <PUBCHEM_ISOTOPIC_ATOM_COUNT>  (1) 
0

>  <PUBCHEM_COMPONENT_COUNT>  (1) 
1

>  <PUBCHEM_CACTVS_TAUTO_COUNT>  (1) 
13

>  <PUBCHEM_CONFORMER_ID>  (1) 
00002E1C00000001

>  <PUBCHEM_MMFF94_ENERGY>  (1) 
42.0701

>  <PUBCHEM_FEATURE_SELFOVERLAP>  (1) 
40.763

>  <PUBCHEM_SHAPE_FINGERPRINT>  (1) 
10967382 1 18266741457484456582
11206711 2 18337391526388985284
12032990 46 18410300228352680483
12423570 1 11967390689288033776
12524768 44 18343305898129362598
13380535 76 17832979447603074533
14648413 74 17976257160142799729
16945 1 18410855438874975334
193761 8 17762337320140575303
20510252 161 18271804558560093952
20588541 1 18343025484072974902
20871998 184 18272932682901150246
21040471 1 17978228253800116512
21501502 16 17906175401443162583
2334 1 18050567644784412450
23402539 116 18271795818169810183
23552423 10 17760086611285389719
23559900 14 18342173333535563222
241688 4 18338513152734640617
2748010 2 18195807594574306398
5084963 1 18130504128540442698
528886 8 18339355262988571233
7364860 26 17909269431110460473

>  <PUBCHEM_SHAPE_MULTIPOLES>  (1) 
230
3.99
2.43
0.56
1.55
0.65
0
-1.29
0
-0.83
0
-0.01
-0.01
0

>  <PUBCHEM_SHAPE_SELFOVERLAP>  (1) 
500.226

>  <PUBCHEM_SHAPE_VOLUME>  (1) 
123.8

>  <PUBCHEM_COORDINATE_TYPE>  (1) 
2
5
10

$$$$
