11814
     RDKit          3D

 13 13  0  0  0  0  0  0  0  0999 V2000
    0.0006   -2.1726   -0.0013 Cl  0  0  0  0  0  0  0  0  0  0  0  0
   -3.5139    0.2754    0.0024 O   0  0  0  0  0  0  0  0  0  0  0  0
    3.5138    0.2758    0.0023 O   0  0  0  0  0  0  0  0  0  0  0  0
   -2.4799   -1.6610   -0.0001 O   0  0  0  0  0  0  0  0  0  0  0  0
    2.4801   -1.6608    0.0005 O   0  0  0  0  0  0  0  0  0  0  0  0
   -2.4642   -0.4083    0.0007 N   0  0  0  0  0  0  0  0  0  0  0  0
    2.4642   -0.4081    0.0005 N   0  0  0  0  0  0  0  0  0  0  0  0
   -1.2080    0.2625   -0.0009 C   0  0  0  0  0  0  0  0  0  0  0  0
    1.2079    0.2625   -0.0011 C   0  0  0  0  0  0  0  0  0  0  0  0
   -0.0001   -0.4349   -0.0012 C   0  0  0  0  0  0  0  0  0  0  0  0
   -1.2081    1.6574   -0.0006 C   0  0  0  0  0  0  0  0  0  0  0  0
    1.2079    1.6574   -0.0007 C   0  0  0  0  0  0  0  0  0  0  0  0
   -0.0001    2.3548   -0.0004 C   0  0  0  0  0  0  0  0  0  0  0  0
  1 10  1  0
  2  6  1  0
  3  7  1  0
  4  6  2  0
  5  7  2  0
  6  8  1  0
  7  9  1  0
  8 10  2  0
  8 11  1  0
  9 10  1  0
  9 12  2  0
 11 13  2  0
 12 13  1  0
M  CHG  4   2  -1   3  -1   6   1   7   1
M  END
>  <PUBCHEM_COMPOUND_CID>  (1) 
11814

>  <PUBCHEM_CONFORMER_RMSD>  (1) 
0.6

>  <PUBCHEM_CONFORMER_DIVERSEORDER>  (1) 
1

>  <PUBCHEM_MMFF94_PARTIAL_CHARGES>  (1) 
16
1 -0.18
10 0.18
11 -0.15
12 -0.15
13 -0.15
14 0.15
15 0.15
16 0.15
2 -0.52
3 -0.52
4 -0.52
5 -0.52
6 0.91
7 0.91
8 0.13
9 0.13

>  <PUBCHEM_EFFECTIVE_ROTOR_COUNT>  (1) 
2

>  <PUBCHEM_PHARMACOPHORE_FEATURES>  (1) 
7
1 2 acceptor
1 2 anion
1 3 acceptor
1 3 anion
1 4 acceptor
1 5 acceptor
6 8 9 10 11 12 13 rings

>  <PUBCHEM_HEAVY_ATOM_COUNT>  (1) 
13

>  <PUBCHEM_ATOM_DEF_STEREO_COUNT>  (1) 
0

>  <PUBCHEM_ATOM_UDEF_STEREO_COUNT>  (1) 
0

>  <PUBCHEM_BOND_DEF_STEREO_COUNT>  (1) 
0

>  <PUBCHEM_BOND_UDEF_STEREO_COUNT>  (1) 
0

>  <PUBCHEM_ISOTOPIC_ATOM_COUNT>  (1) 
0

>  <PUBCHEM_COMPONENT_COUNT>  (1) 
1

>  <PUBCHEM_CACTVS_TAUTO_COUNT>  (1) 
1

>  <PUBCHEM_CONFORMER_ID>  (1) 
00002E2600000001

>  <PUBCHEM_MMFF94_ENERGY>  (1) 
59.3256

>  <PUBCHEM_FEATURE_SELFOVERLAP>  (1) 
35.686

>  <PUBCHEM_SHAPE_FINGERPRINT>  (1) 
10219947 1 18412547595849455739
10967382 1 18410575080431473607
11132069 177 18412822486688729074
14128692 85 18339645641116196141
14614273 12 18043806489907864901
16945 1 18410575084663241317
193761 8 17689997834434857799
20201158 50 18409165519483523631
20871998 184 18201153235414325900
2334 1 18050287269176670917
23402539 116 18341319051059609094
23463225 33 18409168774952533558
23552423 10 18191025801304146901
23559900 14 18269551642719497614
241688 4 18410292475820615040
2748010 2 18265893738541268485
5084963 1 18202001031703907008
528886 8 18411414012198647963
66348 1 18410856568229815187
7364860 26 18054227905945087048

>  <PUBCHEM_SHAPE_MULTIPOLES>  (1) 
235.96
4.19
2.39
0.58
0
0.07
0
-0.92
0
0
0
0
0.02
0

>  <PUBCHEM_SHAPE_SELFOVERLAP>  (1) 
494.712

>  <PUBCHEM_SHAPE_VOLUME>  (1) 
134.2

>  <PUBCHEM_COORDINATE_TYPE>  (1) 
2
5
10

$$$$
