11823
     RDKit          3D

 14 15  0  0  0  0  0  0  0  0999 V2000
   -1.1142   -2.4458    0.0001 O   0  0  0  0  0  0  0  0  0  0  0  0
   -2.9421   -1.2302    0.0003 O   0  0  0  0  0  0  0  0  0  0  0  0
   -1.6969   -1.3400    0.0000 N   0  0  0  0  0  0  0  0  0  0  0  0
   -2.9715    1.1654   -0.0003 N   0  0  0  0  0  0  0  0  0  0  0  0
    0.4979   -0.2153    0.0000 C   0  0  0  0  0  0  0  0  0  0  0  0
    1.2471    0.9854    0.0001 C   0  0  0  0  0  0  0  0  0  0  0  0
   -0.9050   -0.1494   -0.0001 C   0  0  0  0  0  0  0  0  0  0  0  0
   -1.5597    1.0826   -0.0001 C   0  0  0  0  0  0  0  0  0  0  0  0
    0.5714    2.2166    0.0001 C   0  0  0  0  0  0  0  0  0  0  0  0
    1.1735   -1.4464   -0.0002 C   0  0  0  0  0  0  0  0  0  0  0  0
   -0.8230    2.2634    0.0001 C   0  0  0  0  0  0  0  0  0  0  0  0
    2.6499    0.9195    0.0001 C   0  0  0  0  0  0  0  0  0  0  0  0
    2.5678   -1.4932   -0.0001 C   0  0  0  0  0  0  0  0  0  0  0  0
    3.3047   -0.3125    0.0001 C   0  0  0  0  0  0  0  0  0  0  0  0
  1  3  1  0
  2  3  2  0
  3  7  1  0
  4  8  1  0
  5  6  1  0
  5  7  2  0
  5 10  1  0
  6  9  2  0
  6 12  1  0
  7  8  1  0
  8 11  2  0
  9 11  1  0
 10 13  2  0
 12 14  2  0
 13 14  1  0
M  CHG  2   1  -1   3   1
M  END
>  <PUBCHEM_COMPOUND_CID>  (1) 
11823

>  <PUBCHEM_CONFORMER_RMSD>  (1) 
0.4

>  <PUBCHEM_CONFORMER_DIVERSEORDER>  (1) 
1

>  <PUBCHEM_MMFF94_PARTIAL_CHARGES>  (1) 
20
1 -0.52
10 -0.15
11 -0.15
12 -0.15
13 -0.15
14 -0.15
15 0.15
16 0.15
17 0.15
18 0.15
19 0.15
2 -0.52
20 0.15
21 0.4
22 0.4
3 0.91
4 -0.9
7 0.13
8 0.1
9 -0.15

>  <PUBCHEM_EFFECTIVE_ROTOR_COUNT>  (1) 
1

>  <PUBCHEM_PHARMACOPHORE_FEATURES>  (1) 
7
1 1 acceptor
1 1 anion
1 2 acceptor
1 4 cation
1 4 donor
6 5 6 10 12 13 14 rings
6 5 6 7 8 9 11 rings

>  <PUBCHEM_HEAVY_ATOM_COUNT>  (1) 
14

>  <PUBCHEM_ATOM_DEF_STEREO_COUNT>  (1) 
0

>  <PUBCHEM_ATOM_UDEF_STEREO_COUNT>  (1) 
0

>  <PUBCHEM_BOND_DEF_STEREO_COUNT>  (1) 
0

>  <PUBCHEM_BOND_UDEF_STEREO_COUNT>  (1) 
0

>  <PUBCHEM_ISOTOPIC_ATOM_COUNT>  (1) 
0

>  <PUBCHEM_COMPONENT_COUNT>  (1) 
1

>  <PUBCHEM_CACTVS_TAUTO_COUNT>  (1) 
1

>  <PUBCHEM_CONFORMER_ID>  (1) 
00002E2F00000001

>  <PUBCHEM_MMFF94_ENERGY>  (1) 
79.2762

>  <PUBCHEM_FEATURE_SELFOVERLAP>  (1) 
35.628

>  <PUBCHEM_SHAPE_FINGERPRINT>  (1) 
10967382 1 18266458698328290214
11132069 177 18411695465938009456
12382932 28 18412540994548071072
12524768 44 18269278967191740766
13140716 1 18338517439117211896
13380535 76 18340764828036627950
14790565 3 15956134535851536417
16945 1 18194402418545080100
193761 8 18266740379463762369
20510252 161 17984417443355287504
20588541 1 18341614750603968020
20871998 184 18201438047406604223
21501502 16 18410294726530956468
22802520 49 17986125006430011190
2334 1 18410855477323874722
23388829 49 18052808436602050028
23402539 116 18198044907268084733
23463225 33 18408604742936398468
23552423 10 18261396688739115340
23559900 14 18342741789742559756
241688 4 18409448102546063696
2748010 2 18411136926536043494
2897 32 17977103453214887204
528886 8 18339355271420315216
53812653 166 18343014497789257616
54173680 148 18410014291042144866
7364860 26 18126004016511308752
8809292 202 18336270041961821138

>  <PUBCHEM_SHAPE_MULTIPOLES>  (1) 
266.41
4.27
2.52
0.59
0.54
0.05
0
0.67
0
-0.73
0
0.06
-0.03
0

>  <PUBCHEM_SHAPE_SELFOVERLAP>  (1) 
591.067

>  <PUBCHEM_SHAPE_VOLUME>  (1) 
142.8

>  <PUBCHEM_COORDINATE_TYPE>  (1) 
2
5
10

$$$$
