11828
     RDKit          3D

 12 13  0  0  0  0  0  0  0  0999 V2000
   -3.4346   -1.2875    0.0151 O   0  0  0  0  0  0  0  0  0  0  0  0
   -2.0685   -1.3712   -0.0085 N   0  0  0  0  0  0  0  0  0  0  0  0
    0.1601   -0.3244   -0.0025 C   0  0  0  0  0  0  0  0  0  0  0  0
    0.9405    0.8561    0.0013 C   0  0  0  0  0  0  0  0  0  0  0  0
   -1.2406   -0.2218   -0.0054 C   0  0  0  0  0  0  0  0  0  0  0  0
    0.2974    2.1046    0.0020 C   0  0  0  0  0  0  0  0  0  0  0  0
    0.8033   -1.5729   -0.0034 C   0  0  0  0  0  0  0  0  0  0  0  0
    2.3412    0.7536    0.0042 C   0  0  0  0  0  0  0  0  0  0  0  0
   -1.8627    1.0269   -0.0047 C   0  0  0  0  0  0  0  0  0  0  0  0
   -1.0953    2.1880   -0.0010 C   0  0  0  0  0  0  0  0  0  0  0  0
    2.1959   -1.6562   -0.0004 C   0  0  0  0  0  0  0  0  0  0  0  0
    2.9634   -0.4952    0.0034 C   0  0  0  0  0  0  0  0  0  0  0  0
  1  2  1  0
  2  5  1  0
  3  4  1  0
  3  5  2  0
  3  7  1  0
  4  6  2  0
  4  8  1  0
  5  9  1  0
  6 10  1  0
  7 11  2  0
  8 12  2  0
  9 10  2  0
 11 12  1  0
M  END
>  <PUBCHEM_COMPOUND_CID>  (1) 
11828

>  <PUBCHEM_CONFORMER_RMSD>  (1) 
0.4

>  <PUBCHEM_CONFORMER_DIVERSEORDER>  (1) 
1
3
2

>  <PUBCHEM_MMFF94_PARTIAL_CHARGES>  (1) 
19
1 -0.38
10 -0.15
11 -0.15
12 -0.15
13 0.15
14 0.15
15 0.15
16 0.15
17 0.15
18 0.15
19 0.15
2 -0.52
20 0.4
21 0.4
5 0.1
6 -0.15
7 -0.15
8 -0.15
9 -0.15

>  <PUBCHEM_EFFECTIVE_ROTOR_COUNT>  (1) 
1

>  <PUBCHEM_PHARMACOPHORE_FEATURES>  (1) 
3
1 1 anion
6 3 4 5 6 9 10 rings
6 3 4 7 8 11 12 rings

>  <PUBCHEM_HEAVY_ATOM_COUNT>  (1) 
12

>  <PUBCHEM_ATOM_DEF_STEREO_COUNT>  (1) 
0

>  <PUBCHEM_ATOM_UDEF_STEREO_COUNT>  (1) 
0

>  <PUBCHEM_BOND_DEF_STEREO_COUNT>  (1) 
0

>  <PUBCHEM_BOND_UDEF_STEREO_COUNT>  (1) 
0

>  <PUBCHEM_ISOTOPIC_ATOM_COUNT>  (1) 
0

>  <PUBCHEM_COMPONENT_COUNT>  (1) 
1

>  <PUBCHEM_CACTVS_TAUTO_COUNT>  (1) 
1

>  <PUBCHEM_CONFORMER_ID>  (1) 
00002E3400000001

>  <PUBCHEM_MMFF94_ENERGY>  (1) 
42.6263

>  <PUBCHEM_FEATURE_SELFOVERLAP>  (1) 
15.249

>  <PUBCHEM_SHAPE_FINGERPRINT>  (1) 
10967382 1 18122625212846613423
11206711 2 18408608049855501540
12524768 44 18052822446664030814
13380535 76 17980472360958005742
161256 15 18341328993550189960
16945 1 18122626042023331812
193761 8 18338516326868576196
19973954 147 18339080372170331940
20201158 50 18334573598504464787
20645477 70 17976530938992498103
20871998 184 18129940079033260751
20871998 22 18342468031688333047
21040471 1 17906170646840395908
21501502 16 18337676308643286328
2334 1 18410855460170366310
23552423 10 18260835856267686068
23559900 14 17550669912399763774
241688 4 18409449159034171984
2748010 2 18411695470011359132
5084963 1 18273500091273224282
528886 8 18339355245687402208

>  <PUBCHEM_SHAPE_MULTIPOLES>  (1) 
236.1
3.97
2.3
0.6
0.16
0.42
0
-1.61
-0.01
0.76
0
-0.04
0.02
0.01

>  <PUBCHEM_SHAPE_SELFOVERLAP>  (1) 
516.144

>  <PUBCHEM_SHAPE_VOLUME>  (1) 
128.9

>  <PUBCHEM_COORDINATE_TYPE>  (1) 
2
5
10

$$$$
