11826
     RDKit          3D

 17 18  0  0  0  0  0  0  0  0999 V2000
    1.3155    3.7856   -0.0001 O   0  0  0  0  0  0  0  0  0  0  0  0
    2.5607    1.8798    0.0005 O   0  0  0  0  0  0  0  0  0  0  0  0
   -0.1316    0.4737   -0.0019 C   0  0  0  0  0  0  0  0  0  0  0  0
   -1.5333    0.0850   -0.0007 C   0  0  0  0  0  0  0  0  0  0  0  0
    0.9725   -0.5275   -0.0005 C   0  0  0  0  0  0  0  0  0  0  0  0
   -2.2049   -0.0993    1.2078 C   0  0  0  0  0  0  0  0  0  0  0  0
    1.4622   -0.9741   -1.2080 C   0  0  0  0  0  0  0  0  0  0  0  0
   -2.2060   -0.1028   -1.2080 C   0  0  0  0  0  0  0  0  0  0  0  0
    1.4635   -0.9696    1.2078 C   0  0  0  0  0  0  0  0  0  0  0  0
    0.1373    1.8075   -0.0034 C   0  0  0  0  0  0  0  0  0  0  0  0
   -3.5493   -0.4714    1.2091 C   0  0  0  0  0  0  0  0  0  0  0  0
    2.4959   -1.9106   -1.2070 C   0  0  0  0  0  0  0  0  0  0  0  0
   -3.5504   -0.4748   -1.2068 C   0  0  0  0  0  0  0  0  0  0  0  0
    2.4973   -1.9061    1.2091 C   0  0  0  0  0  0  0  0  0  0  0  0
   -4.2220   -0.6592    0.0018 C   0  0  0  0  0  0  0  0  0  0  0  0
    3.0134   -2.3766    0.0016 C   0  0  0  0  0  0  0  0  0  0  0  0
    1.4792    2.4404   -0.0014 C   0  0  0  0  0  0  0  0  0  0  0  0
  1 17  1  0
  2 17  2  0
  3  4  1  0
  3  5  1  0
  3 10  2  3
  4  6  2  0
  4  8  1  0
  5  7  2  0
  5  9  1  0
  6 11  1  0
  7 12  1  0
  8 13  2  0
  9 14  2  0
 10 17  1  0
 11 15  2  0
 12 16  2  0
 13 15  1  0
 14 16  1  0
M  END
>  <PUBCHEM_COMPOUND_CID>  (1) 
11826

>  <PUBCHEM_CONFORMER_RMSD>  (1) 
0.6

>  <PUBCHEM_CONFORMER_DIVERSEORDER>  (1) 
1
4
7
6
5
2
3

>  <PUBCHEM_MMFF94_PARTIAL_CHARGES>  (1) 
29
1 -0.65
10 -0.14
11 -0.15
12 -0.15
13 -0.15
14 -0.15
15 -0.15
16 -0.15
17 0.71
18 0.15
19 0.15
2 -0.57
20 0.15
21 0.15
22 0.15
23 0.15
24 0.15
25 0.15
26 0.15
27 0.15
28 0.15
29 0.5
3 -0.06
4 0.03
5 0.03
6 -0.15
7 -0.15
8 -0.15
9 -0.15

>  <PUBCHEM_EFFECTIVE_ROTOR_COUNT>  (1) 
3

>  <PUBCHEM_PHARMACOPHORE_FEATURES>  (1) 
5
1 1 acceptor
1 2 acceptor
3 1 2 17 anion
6 4 6 8 11 13 15 rings
6 5 7 9 12 14 16 rings

>  <PUBCHEM_HEAVY_ATOM_COUNT>  (1) 
17

>  <PUBCHEM_ATOM_DEF_STEREO_COUNT>  (1) 
0

>  <PUBCHEM_ATOM_UDEF_STEREO_COUNT>  (1) 
0

>  <PUBCHEM_BOND_DEF_STEREO_COUNT>  (1) 
0

>  <PUBCHEM_BOND_UDEF_STEREO_COUNT>  (1) 
0

>  <PUBCHEM_ISOTOPIC_ATOM_COUNT>  (1) 
0

>  <PUBCHEM_COMPONENT_COUNT>  (1) 
1

>  <PUBCHEM_CACTVS_TAUTO_COUNT>  (1) 
1

>  <PUBCHEM_CONFORMER_ID>  (1) 
00002E3200000001

>  <PUBCHEM_MMFF94_ENERGY>  (1) 
58.4932

>  <PUBCHEM_FEATURE_SELFOVERLAP>  (1) 
25.428

>  <PUBCHEM_SHAPE_FINGERPRINT>  (1) 
1 1 18193552504789578116
10989021 7 18341614776247099757
11578080 2 17458892735449962356
12251169 10 15625928812354859691
12326174 3 18409729603255498616
12363563 72 18264765467607198363
12553582 1 18267031561135413123
12644460 14 18270414883294646595
12707595 3 18334577906367309571
13140716 1 17978789335284827176
13681431 1 18411698772825625760
14181834 199 18337662113544264853
14787075 74 18113624491162541578
15906896 17 17399239646617525081
16945 1 18338517555213476548
1813 80 18129675079778184758
18186145 218 17749664117739033223
19049666 15 17967522463873507061
20097449 115 18338799996536586968
20339313 130 18342179933819024971
20361792 2 18340767027212922791
20369508 70 18260257534864046555
20559304 39 17346599698857038859
20645477 70 18337943576327436423
20671657 53 18337106761562277691
20711985 344 17833827166672616488
21041028 32 18340216176219518585
21524375 3 17835234928114230496
21731516 1 18338240336464979699
22112679 90 18053688900618788336
2255824 54 18341619255887537622
23402539 116 18194405490032850366
23419403 2 15437844141351497114
23557571 272 17909539568011748170
23559900 14 17167577180872714326
23598291 2 18130519547831711873
2748010 2 18195509429423476140
31174 14 18334864952106072003
3286 77 18186516592892813775
458136 41 17974026216469043373
474 4 18125162881484044473
6049 1 17822010917647468205
6138700 20 18339088176901810876
633830 44 17840891855468150485
7364860 26 18340207487310345676
74978 22 18410294714073549915
7615 1 17775005708964992801
77492 1 17703794755907171653
81228 2 17763458422532233104
81539 233 18189897702448051292

>  <PUBCHEM_SHAPE_MULTIPOLES>  (1) 
338.11
6.09
2.91
1.32
4.94
3.3
0
-3.61
-0.01
-3.46
0
0.26
-0.59
0

>  <PUBCHEM_SHAPE_SELFOVERLAP>  (1) 
731.79

>  <PUBCHEM_SHAPE_VOLUME>  (1) 
184.9

>  <PUBCHEM_COORDINATE_TYPE>  (1) 
2
5
10

$$$$
