11835
     RDKit          3D

 28 30  0  0  0  0  0  0  0  0999 V2000
    2.4647    0.0834    0.3308 O   0  0  0  0  0  0  0  0  0  0  0  0
   -1.5787   -2.3102    1.0103 O   0  0  0  0  0  0  0  0  0  0  0  0
   -4.2651   -2.4301    0.7840 O   0  0  0  0  0  0  0  0  0  0  0  0
    4.1578   -3.0447   -1.6561 O   0  0  0  0  0  0  0  0  0  0  0  0
   -6.3637    2.5727   -0.5671 N   0  0  0  0  0  0  0  0  0  0  0  0
   -4.4936   -0.1238    0.9824 N   0  0  0  0  0  0  0  0  0  0  0  0
   -6.3961    0.0952   -0.5816 C   0  0  0  0  0  0  0  0  0  0  0  0
   -5.9103    1.3763   -1.2658 C   0  0  0  0  0  0  0  0  0  0  0  0
   -5.9326   -0.0619    0.8653 C   0  0  0  0  0  0  0  0  0  0  0  0
    2.2704   -2.1809   -0.5266 C   0  0  0  0  0  0  0  0  0  0  0  0
    1.7529   -1.0744    0.1449 C   0  0  0  0  0  0  0  0  0  0  0  0
   -5.8228    3.7765   -1.2011 C   0  0  0  0  0  0  0  0  0  0  0  0
   -7.8263    2.6291   -0.5365 C   0  0  0  0  0  0  0  0  0  0  0  0
   -3.7806   -1.3113    0.9312 C   0  0  0  0  0  0  0  0  0  0  0  0
   -0.3148   -2.2668    0.5060 C   0  0  0  0  0  0  0  0  0  0  0  0
    0.4582   -1.1161    0.6629 C   0  0  0  0  0  0  0  0  0  0  0  0
   -2.2925   -1.0768    1.0795 C   0  0  0  0  0  0  0  0  0  0  0  0
    3.7518    0.1565   -0.1796 C   0  0  0  0  0  0  0  0  0  0  0  0
    1.4997   -3.3350   -0.6856 C   0  0  0  0  0  0  0  0  0  0  0  0
    3.6389   -2.1104   -1.0609 C   0  0  0  0  0  0  0  0  0  0  0  0
    0.2050   -3.3737   -0.1667 C   0  0  0  0  0  0  0  0  0  0  0  0
    4.3618   -0.8420   -0.8377 C   0  0  0  0  0  0  0  0  0  0  0  0
    4.4284    1.4430    0.0810 C   0  0  0  0  0  0  0  0  0  0  0  0
    5.8159    1.4870    0.2394 C   0  0  0  0  0  0  0  0  0  0  0  0
    3.6842    2.6221    0.1705 C   0  0  0  0  0  0  0  0  0  0  0  0
    6.4550    2.7020    0.4858 C   0  0  0  0  0  0  0  0  0  0  0  0
    4.3235    3.8372    0.4169 C   0  0  0  0  0  0  0  0  0  0  0  0
    5.7089    3.8770    0.5746 C   0  0  0  0  0  0  0  0  0  0  0  0
  1 11  1  0
  1 18  1  0
  2 15  1  0
  2 17  1  0
  3 14  2  0
  4 20  2  0
  5  8  1  0
  5 12  1  0
  5 13  1  0
  6  9  1  0
  6 14  1  0
  7  8  1  0
  7  9  1  0
 10 11  2  0
 10 19  1  0
 10 20  1  0
 11 16  1  0
 14 17  1  0
 15 16  2  0
 15 21  1  0
 18 22  2  0
 18 23  1  0
 19 21  2  0
 20 22  1  0
 23 24  2  0
 23 25  1  0
 24 26  1  0
 25 27  2  0
 26 28  2  0
 27 28  1  0
M  END
>  <PUBCHEM_COMPOUND_CID>  (1) 
11835

>  <PUBCHEM_CONFORMER_RMSD>  (1) 
1

>  <PUBCHEM_CONFORMER_DIVERSEORDER>  (1) 
2
226
48
72
195
56
85
105
47
71
143
75
53
207
127
232
32
65
228
189
129
174
204
137
43
23
179
79
70
17
24
230
1
150
211
145
221
74
120
25
168
78
188
223
39
132
101
89
18
112
159
224
38
123
62
142
199
110
138
103
104
176
84
14
217
99
149
191
169
175
42
219
153
59
33
109
68
198
158
28
151
186
165
64
82
155
193
40
54
69
213
90
111
117
95
135
125
227
178
133
96
97
234
108
184
192
20
67
166
183
209
124
215
206
30
229
136
237
83
236
26
220
106
4
134
3
214
93
37
9
218
19
203
225
122
35
27
66
194
55
5
148
126
12
170
161
205
163
57
81
121
157
160
100
144
201
242
197
164
231
61
119
216
182
92
98
63
87
190
240
172
6
115
181
146
44
107
139
94
152
8
116
180
88
187
10
222
167
244
60
102
239
15
241
141
238
31
200
52
196
156
36
86
162
202
113
58
233
80
21
173
114
185
208
140
154
76
131
51
171
34
91
118
212
49
45
77
22
235
46
147
29
130
41
11
16
50
128
73
243
210
177
7
13

>  <PUBCHEM_MMFF94_PARTIAL_CHARGES>  (1) 
37
1 -0.16
10 0.09
11 0.08
12 0.27
13 0.27
14 0.57
15 0.08
16 -0.15
17 0.34
18 0.05
19 -0.15
2 -0.36
20 0.47
21 -0.15
22 -0.14
23 0.03
24 -0.15
25 -0.15
26 -0.15
27 -0.15
28 -0.15
3 -0.57
35 0.37
4 -0.57
42 0.15
45 0.15
46 0.15
47 0.15
48 0.15
49 0.15
5 -0.81
50 0.15
51 0.15
52 0.15
6 -0.73
8 0.27
9 0.3

>  <PUBCHEM_EFFECTIVE_ROTOR_COUNT>  (1) 
9

>  <PUBCHEM_PHARMACOPHORE_FEATURES>  (1) 
9
1 1 acceptor
1 2 acceptor
1 3 acceptor
1 4 acceptor
1 5 cation
1 6 donor
6 1 10 11 18 20 22 rings
6 10 11 15 16 19 21 rings
6 23 24 25 26 27 28 rings

>  <PUBCHEM_HEAVY_ATOM_COUNT>  (1) 
28

>  <PUBCHEM_ATOM_DEF_STEREO_COUNT>  (1) 
0

>  <PUBCHEM_ATOM_UDEF_STEREO_COUNT>  (1) 
0

>  <PUBCHEM_BOND_DEF_STEREO_COUNT>  (1) 
0

>  <PUBCHEM_BOND_UDEF_STEREO_COUNT>  (1) 
0

>  <PUBCHEM_ISOTOPIC_ATOM_COUNT>  (1) 
0

>  <PUBCHEM_COMPONENT_COUNT>  (1) 
1

>  <PUBCHEM_CACTVS_TAUTO_COUNT>  (1) 
2

>  <PUBCHEM_CONFORMER_ID>  (1) 
00002E3B00000002

>  <PUBCHEM_MMFF94_ENERGY>  (1) 
76.6531

>  <PUBCHEM_FEATURE_SELFOVERLAP>  (1) 
45.707

>  <PUBCHEM_SHAPE_FINGERPRINT>  (1) 
10411042 1 17982186530769896646
10835480 77 18411136927132584153
11297010 23 18060146466301465318
11411753 3 18264226814431931547
11476731 99 18265885861830996733
11479125 193 18272077323248403581
11621639 148 18189907582181159475
12107183 9 18340483496059934962
12422481 6 17823697654162445556
12769317 202 18202003278435987874
13540713 4 18124621879331074490
14251764 30 9583527524699487429
14739800 52 17895465930819005019
15082195 135 18271527472723331675
15530120 55 17773003451246867605
15705408 1 16624927334689631079
19438510 23 17967810540388973833
20058555 10 18409168844078796377
20715895 44 18270969063352130616
21033648 144 18340496646537820291
21033648 29 17967259693468892587
21133410 38 18059028185250686337
21388113 180 18409727374468399277
21859007 373 18187361017653770700
23516275 100 18334005116898028477
23569914 2 17680951246557954773
2748736 6 18409722989264702657
2838139 119 18408599258469299087
437795 171 17835232728986461313
437795 96 18335702797263000705
465052 167 11458688544243700506
60123966 16 18202293472291605838
6327066 14 18197499734769863760
636775 8 8501835704289434216

>  <PUBCHEM_SHAPE_MULTIPOLES>  (1) 
542.79
20.32
5.67
1.16
27.72
2.59
0.15
24.9
2.61
-3.27
0.85
0.71
-0.29
4.99

>  <PUBCHEM_SHAPE_SELFOVERLAP>  (1) 
1154.598

>  <PUBCHEM_SHAPE_VOLUME>  (1) 
301.7

>  <PUBCHEM_COORDINATE_TYPE>  (1) 
2
5
10

$$$$
