11832
     RDKit          3D

 21 23  0  0  0  0  0  0  0  0999 V2000
    5.5553   -0.3525   -0.1621 N   0  0  0  0  0  0  0  0  0  0  0  0
   -0.4921    0.6155   -0.5185 N   0  0  0  0  0  0  0  0  0  0  0  0
    0.0877    0.5847    0.5904 N   0  0  0  0  0  0  0  0  0  0  0  0
   -2.7738   -0.2052   -0.1633 C   0  0  0  0  0  0  0  0  0  0  0  0
   -4.1459    0.0873    0.0237 C   0  0  0  0  0  0  0  0  0  0  0  0
   -1.8631    0.8506   -0.3309 C   0  0  0  0  0  0  0  0  0  0  0  0
    4.1783   -0.1168    0.0291 C   0  0  0  0  0  0  0  0  0  0  0  0
   -2.3531   -1.5451   -0.1772 C   0  0  0  0  0  0  0  0  0  0  0  0
   -4.5666    1.4271    0.0377 C   0  0  0  0  0  0  0  0  0  0  0  0
   -5.0566   -0.9685    0.1915 C   0  0  0  0  0  0  0  0  0  0  0  0
   -2.2988    2.1759   -0.3142 C   0  0  0  0  0  0  0  0  0  0  0  0
    3.6917    1.1901    0.0548 C   0  0  0  0  0  0  0  0  0  0  0  0
    3.3025   -1.1902    0.1910 C   0  0  0  0  0  0  0  0  0  0  0  0
    1.4605    0.3491    0.4030 C   0  0  0  0  0  0  0  0  0  0  0  0
   -3.6480    2.4636   -0.1303 C   0  0  0  0  0  0  0  0  0  0  0  0
   -3.2717   -2.5815   -0.0091 C   0  0  0  0  0  0  0  0  0  0  0  0
    2.3293    1.4237    0.2421 C   0  0  0  0  0  0  0  0  0  0  0  0
    1.9401   -0.9568    0.3783 C   0  0  0  0  0  0  0  0  0  0  0  0
   -4.6209   -2.2938    0.1748 C   0  0  0  0  0  0  0  0  0  0  0  0
    6.5358    0.6124    0.2947 C   0  0  0  0  0  0  0  0  0  0  0  0
    6.0095   -1.5695   -0.8055 C   0  0  0  0  0  0  0  0  0  0  0  0
  1  7  1  0
  1 20  1  0
  1 21  1  0
  2  3  2  0
  2  6  1  0
  3 14  1  0
  4  5  1  0
  4  6  1  0
  4  8  2  0
  5  9  1  0
  5 10  2  0
  6 11  2  0
  7 12  2  0
  7 13  1  0
  8 16  1  0
  9 15  2  0
 10 19  1  0
 11 15  1  0
 12 17  1  0
 13 18  2  0
 14 17  2  0
 14 18  1  0
 16 19  2  0
M  END
>  <PUBCHEM_COMPOUND_CID>  (1) 
11832

>  <PUBCHEM_CONFORMER_RMSD>  (1) 
0.6

>  <PUBCHEM_CONFORMER_DIVERSEORDER>  (1) 
2
4
6
5
3
1

>  <PUBCHEM_MMFF94_PARTIAL_CHARGES>  (1) 
30
1 -0.84
10 -0.15
11 -0.15
12 -0.15
13 -0.15
14 0.18
15 -0.15
16 -0.15
17 -0.15
18 -0.15
19 -0.15
2 -0.18
20 0.37
21 0.37
22 0.15
23 0.15
24 0.15
25 0.15
26 0.15
27 0.15
28 0.15
29 0.15
3 -0.18
30 0.15
31 0.15
32 0.15
6 0.18
7 0.1
8 -0.15
9 -0.15

>  <PUBCHEM_EFFECTIVE_ROTOR_COUNT>  (1) 
3

>  <PUBCHEM_PHARMACOPHORE_FEATURES>  (1) 
4
1 1 cation
6 4 5 6 9 11 15 rings
6 4 5 8 10 16 19 rings
6 7 12 13 14 17 18 rings

>  <PUBCHEM_HEAVY_ATOM_COUNT>  (1) 
21

>  <PUBCHEM_ATOM_DEF_STEREO_COUNT>  (1) 
0

>  <PUBCHEM_ATOM_UDEF_STEREO_COUNT>  (1) 
0

>  <PUBCHEM_BOND_DEF_STEREO_COUNT>  (1) 
0

>  <PUBCHEM_BOND_UDEF_STEREO_COUNT>  (1) 
0

>  <PUBCHEM_ISOTOPIC_ATOM_COUNT>  (1) 
0

>  <PUBCHEM_COMPONENT_COUNT>  (1) 
1

>  <PUBCHEM_CACTVS_TAUTO_COUNT>  (1) 
1

>  <PUBCHEM_CONFORMER_ID>  (1) 
00002E3800000002

>  <PUBCHEM_MMFF94_ENERGY>  (1) 
78.4371

>  <PUBCHEM_FEATURE_SELFOVERLAP>  (1) 
20.324

>  <PUBCHEM_SHAPE_FINGERPRINT>  (1) 
10411042 1 18121500417870589635
10595046 47 18333733546204279636
10616163 171 18410572890293993495
11128504 68 17095529521637162422
11315181 36 18187645825113964477
11524674 6 16988563511206725199
12107183 9 17758952628097115778
12236239 1 17821728329889079924
12821665 9 18116162245376948132
13167823 11 18408321098974888074
13288520 33 18410856581721248575
13631057 29 18410571833652755251
14341114 176 18412267233269528072
14420673 8 18339647711586202358
14461889 52 18341606067140094594
15042514 8 18336551616445206251
15183329 4 18336264553215279906
15196674 1 18410855477624620050
15250474 111 18188758488111495106
15537594 2 17894631418119328699
17804303 29 18413388761342599681
17844677 252 18411987983165251480
1813 80 17313098683112260925
18681886 176 18411415142497863360
18927931 339 18408609179975485391
200 152 18202563981947407280
20681677 155 18336263448944214521
21033648 29 17346018014071676120
21065198 57 18412542106696946968
21236236 1 18410856564045760659
21267235 1 18335426807064645307
21279426 13 18341335475141467990
21623969 137 17346322587868048078
21709351 56 18113896070091360996
221357 26 18412824715534409411
221490 88 18339081604942146560
22393880 68 18408882902462224258
2297311 6 18412269440951108205
23081809 10 17531248340679169568
23402539 116 17022618663457803380
23557571 272 18342181059195564604
23559900 14 18340477950154914169
335352 9 18409726275731946037
350125 39 18411419557191590864
3545911 37 18411135801334155345
4073 2 18260833722059551346
4214541 1 18410855447465091841
4325135 7 18334860554407727324
5104073 3 18342170060158697744
542803 24 17022906731251420404
559249 180 18337950095407244442
67856867 119 18188492501045219076
7062679 117 18408041822778748886
7495541 125 18131068281570270064
77779 3 18410573989515243576
7970288 3 17979633769174866871
9709674 26 18341896260178028007

>  <PUBCHEM_SHAPE_MULTIPOLES>  (1) 
417.23
14.74
2.49
0.7
16.21
0.25
0.02
3.14
0.54
-3.15
0.13
0.2
0.03
0.69

>  <PUBCHEM_SHAPE_SELFOVERLAP>  (1) 
912.398

>  <PUBCHEM_SHAPE_VOLUME>  (1) 
227

>  <PUBCHEM_COORDINATE_TYPE>  (1) 
2
5
10

$$$$
