11845
     RDKit          3D

  9  9  0  0  0  0  0  0  0  0999 V2000
    0.0002   -2.8002    0.0001 I   0  0  0  0  0  0  0  0  0  0  0  0
   -3.1375   -0.8226   -0.0005 I   0  0  0  0  0  0  0  0  0  0  0  0
    3.1374   -0.8223   -0.0001 I   0  0  0  0  0  0  0  0  0  0  0  0
    0.0000   -0.6541    0.0002 C   0  0  0  0  0  0  0  0  0  0  0  0
   -1.2080    0.0435    0.0005 C   0  0  0  0  0  0  0  0  0  0  0  0
    1.2081    0.0433   -0.0001 C   0  0  0  0  0  0  0  0  0  0  0  0
   -1.2080    1.4383    0.0002 C   0  0  0  0  0  0  0  0  0  0  0  0
    1.2080    1.4383   -0.0002 C   0  0  0  0  0  0  0  0  0  0  0  0
   -0.0001    2.1357   -0.0001 C   0  0  0  0  0  0  0  0  0  0  0  0
  1  4  1  0
  2  5  1  0
  3  6  1  0
  4  5  2  0
  4  6  1  0
  5  7  1  0
  6  8  2  0
  7  9  2  0
  8  9  1  0
M  END
>  <PUBCHEM_COMPOUND_CID>  (1) 
11845

>  <PUBCHEM_CONFORMER_RMSD>  (1) 
0.4

>  <PUBCHEM_CONFORMER_DIVERSEORDER>  (1) 
1

>  <PUBCHEM_MMFF94_PARTIAL_CHARGES>  (1) 
12
1 -0.08
10 0.15
11 0.15
12 0.15
2 -0.08
3 -0.08
4 0.08
5 0.08
6 0.08
7 -0.15
8 -0.15
9 -0.15

>  <PUBCHEM_EFFECTIVE_ROTOR_COUNT>  (1) 
0

>  <PUBCHEM_PHARMACOPHORE_FEATURES>  (1) 
4
1 1 hydrophobe
1 2 hydrophobe
1 3 hydrophobe
6 4 5 6 7 8 9 rings

>  <PUBCHEM_HEAVY_ATOM_COUNT>  (1) 
9

>  <PUBCHEM_ATOM_DEF_STEREO_COUNT>  (1) 
0

>  <PUBCHEM_ATOM_UDEF_STEREO_COUNT>  (1) 
0

>  <PUBCHEM_BOND_DEF_STEREO_COUNT>  (1) 
0

>  <PUBCHEM_BOND_UDEF_STEREO_COUNT>  (1) 
0

>  <PUBCHEM_ISOTOPIC_ATOM_COUNT>  (1) 
0

>  <PUBCHEM_COMPONENT_COUNT>  (1) 
1

>  <PUBCHEM_CACTVS_TAUTO_COUNT>  (1) 
1

>  <PUBCHEM_CONFORMER_ID>  (1) 
00002E4500000001

>  <PUBCHEM_MMFF94_ENERGY>  (1) 
27.8927

>  <PUBCHEM_FEATURE_SELFOVERLAP>  (1) 
20.297

>  <PUBCHEM_SHAPE_FINGERPRINT>  (1) 
12032990 46 18410860957686644963
12423570 1 12096168755308173985
15219459 52 18264772240764940247
16945 1 18410575084663234823
193761 8 17762056540890589795
20645477 70 18265043808070198839
20871998 184 18271802363784319718
20871998 22 18270974448508175879
21040471 1 17906171016181255073
23402539 116 18342164562495323110
23526114 1 18337387261850177623
23552423 10 17686910418853899422
241688 4 18411138004551969848
2748010 2 18409438198261873053
43471831 8 18191584143027341202
5084963 1 18202565076874021282
66348 1 18410011026613766354

>  <PUBCHEM_SHAPE_MULTIPOLES>  (1) 
221.02
4.15
2.86
0.71
0
0.76
0
1.27
0
0
0
0
0.12
0

>  <PUBCHEM_SHAPE_SELFOVERLAP>  (1) 
389.775

>  <PUBCHEM_SHAPE_VOLUME>  (1) 
152.8

>  <PUBCHEM_COORDINATE_TYPE>  (1) 
2
5
10

$$$$
