11843
     RDKit          3D

  9  9  0  0  0  0  0  0  0  0999 V2000
   -2.3976   -0.7381    0.0014 O   0  0  0  0  0  0  0  0  0  0  0  0
    2.3977   -0.7378    0.0012 O   0  0  0  0  0  0  0  0  0  0  0  0
    0.0000   -0.7713   -0.0006 C   0  0  0  0  0  0  0  0  0  0  0  0
   -1.2080   -0.0738   -0.0006 C   0  0  0  0  0  0  0  0  0  0  0  0
    1.2080   -0.0737   -0.0003 C   0  0  0  0  0  0  0  0  0  0  0  0
    0.0002   -2.2662   -0.0008 C   0  0  0  0  0  0  0  0  0  0  0  0
   -1.2080    1.3211   -0.0003 C   0  0  0  0  0  0  0  0  0  0  0  0
    1.2078    1.3213   -0.0001 C   0  0  0  0  0  0  0  0  0  0  0  0
   -0.0002    2.0186    0.0000 C   0  0  0  0  0  0  0  0  0  0  0  0
  1  4  1  0
  2  5  1  0
  3  4  2  0
  3  5  1  0
  3  6  1  0
  4  7  1  0
  5  8  2  0
  7  9  2  0
  8  9  1  0
M  END
>  <PUBCHEM_COMPOUND_CID>  (1) 
11843

>  <PUBCHEM_CONFORMER_RMSD>  (1) 
0.4

>  <PUBCHEM_CONFORMER_DIVERSEORDER>  (1) 
1

>  <PUBCHEM_MMFF94_PARTIAL_CHARGES>  (1) 
14
1 -0.53
13 0.15
14 0.15
15 0.15
16 0.45
17 0.45
2 -0.53
3 -0.14
4 0.08
5 0.08
6 0.14
7 -0.15
8 -0.15
9 -0.15

>  <PUBCHEM_EFFECTIVE_ROTOR_COUNT>  (1) 
0

>  <PUBCHEM_PHARMACOPHORE_FEATURES>  (1) 
3
1 1 donor
1 2 donor
6 3 4 5 7 8 9 rings

>  <PUBCHEM_HEAVY_ATOM_COUNT>  (1) 
9

>  <PUBCHEM_ATOM_DEF_STEREO_COUNT>  (1) 
0

>  <PUBCHEM_ATOM_UDEF_STEREO_COUNT>  (1) 
0

>  <PUBCHEM_BOND_DEF_STEREO_COUNT>  (1) 
0

>  <PUBCHEM_BOND_UDEF_STEREO_COUNT>  (1) 
0

>  <PUBCHEM_ISOTOPIC_ATOM_COUNT>  (1) 
0

>  <PUBCHEM_COMPONENT_COUNT>  (1) 
1

>  <PUBCHEM_CACTVS_TAUTO_COUNT>  (1) 
5

>  <PUBCHEM_CONFORMER_ID>  (1) 
00002E4300000001

>  <PUBCHEM_MMFF94_ENERGY>  (1) 
22.9652

>  <PUBCHEM_FEATURE_SELFOVERLAP>  (1) 
15.223

>  <PUBCHEM_SHAPE_FINGERPRINT>  (1) 
12423570 1 12679461988646104699
16945 1 18410573985151477127
18185500 45 18266739078141074927
193761 8 17762336911960335687
21040471 1 17978228588601928229
23552423 10 17973737869739883558
241688 4 18410855430068912673
2748010 2 18410007740968994733
29004967 10 18190745425796905129
5084963 1 18202565081168962547

>  <PUBCHEM_SHAPE_MULTIPOLES>  (1) 
173.48
2.26
2.26
0.6
0.18
0.03
0
-0.02
0
0.35
0
-0.02
0
0

>  <PUBCHEM_SHAPE_SELFOVERLAP>  (1) 
362.714

>  <PUBCHEM_SHAPE_VOLUME>  (1) 
99.4

>  <PUBCHEM_COORDINATE_TYPE>  (1) 
2
5
10

$$$$
