11856
     RDKit          3D

 11 11  0  0  0  0  0  0  0  0999 V2000
    0.0002    3.2903    0.0004 I   0  0  0  0  0  0  0  0  0  0  0  0
    3.1170    1.4391   -0.0006 I   0  0  0  0  0  0  0  0  0  0  0  0
   -3.1168    1.4395   -0.0003 I   0  0  0  0  0  0  0  0  0  0  0  0
   -2.9169   -2.2363   -0.0002 I   0  0  0  0  0  0  0  0  0  0  0  0
    2.9166   -2.2367    0.0001 I   0  0  0  0  0  0  0  0  0  0  0  0
    0.0001    1.1123    0.0001 C   0  0  0  0  0  0  0  0  0  0  0  0
    1.2082    0.4148    0.0001 C   0  0  0  0  0  0  0  0  0  0  0  0
   -1.2079    0.4148    0.0000 C   0  0  0  0  0  0  0  0  0  0  0  0
   -1.2081   -0.9801    0.0001 C   0  0  0  0  0  0  0  0  0  0  0  0
    1.2079   -0.9802    0.0001 C   0  0  0  0  0  0  0  0  0  0  0  0
   -0.0002   -1.6775    0.0001 C   0  0  0  0  0  0  0  0  0  0  0  0
  1  6  1  0
  2  7  1  0
  3  8  1  0
  4  9  1  0
  5 10  1  0
  6  7  2  0
  6  8  1  0
  7 10  1  0
  8  9  2  0
  9 11  1  0
 10 11  2  0
M  END
>  <PUBCHEM_COMPOUND_CID>  (1) 
11856

>  <PUBCHEM_CONFORMER_RMSD>  (1) 
0.4

>  <PUBCHEM_CONFORMER_DIVERSEORDER>  (1) 
1

>  <PUBCHEM_MMFF94_PARTIAL_CHARGES>  (1) 
12
1 -0.08
10 0.08
11 -0.15
12 0.15
2 -0.08
3 -0.08
4 -0.08
5 -0.08
6 0.08
7 0.08
8 0.08
9 0.08

>  <PUBCHEM_EFFECTIVE_ROTOR_COUNT>  (1) 
0

>  <PUBCHEM_PHARMACOPHORE_FEATURES>  (1) 
6
1 1 hydrophobe
1 2 hydrophobe
1 3 hydrophobe
1 4 hydrophobe
1 5 hydrophobe
6 6 7 8 9 10 11 rings

>  <PUBCHEM_HEAVY_ATOM_COUNT>  (1) 
11

>  <PUBCHEM_ATOM_DEF_STEREO_COUNT>  (1) 
0

>  <PUBCHEM_ATOM_UDEF_STEREO_COUNT>  (1) 
0

>  <PUBCHEM_BOND_DEF_STEREO_COUNT>  (1) 
0

>  <PUBCHEM_BOND_UDEF_STEREO_COUNT>  (1) 
0

>  <PUBCHEM_ISOTOPIC_ATOM_COUNT>  (1) 
0

>  <PUBCHEM_COMPONENT_COUNT>  (1) 
1

>  <PUBCHEM_CACTVS_TAUTO_COUNT>  (1) 
1

>  <PUBCHEM_CONFORMER_ID>  (1) 
00002E5000000001

>  <PUBCHEM_MMFF94_ENERGY>  (1) 
44.5421

>  <PUBCHEM_FEATURE_SELFOVERLAP>  (1) 
30.45

>  <PUBCHEM_SHAPE_FINGERPRINT>  (1) 
10967382 1 18410573955129170405
11680986 33 18411418392922839058
12423570 1 11152847431466798512
13140716 1 18410010992248675570
13380535 21 18410862057197999908
16945 1 18411979191076864245
193761 8 18410856559639925990
20510252 161 18055357095907745984
20645477 70 17760355987677617215
20711985 365 18121499059695241740
21501502 16 18410854364911774146
2334 1 18410856589704788006
23402539 116 18126840736369935990
23526114 1 18411419522599717990
23552423 10 18334577940806117230
23559900 14 18269834208486552374
241688 4 18410292475815112922
2748010 2 18412263938823708470
53812653 166 18342737467818978600
54173680 148 18338237050994489291
68250623 7 18410577283686756711
7364860 26 18123752212307268846

>  <PUBCHEM_SHAPE_MULTIPOLES>  (1) 
286.05
5.3
4.03
0.74
0
1.22
0
-1.55
0
0
0
0
0.03
0

>  <PUBCHEM_SHAPE_SELFOVERLAP>  (1) 
480.02

>  <PUBCHEM_SHAPE_VOLUME>  (1) 
206.7

>  <PUBCHEM_COORDINATE_TYPE>  (1) 
2
5
10

$$$$
