11857
     RDKit          3D

 12 11  0  0  0  0  0  0  0  0999 V2000
   -2.3155    0.4384    0.2601 O   0  0  0  0  0  0  0  0  0  0  0  0
    2.3349    0.4284    0.1596 O   0  0  0  0  0  0  0  0  0  0  0  0
   -1.4155   -1.4632   -0.6792 O   0  0  0  0  0  0  0  0  0  0  0  0
    1.2610   -1.6089    0.1385 O   0  0  0  0  0  0  0  0  0  0  0  0
    0.0006    0.4582   -0.1730 C   0  0  0  0  0  0  0  0  0  0  0  0
    0.1534    1.2628   -1.4605 C   0  0  0  0  0  0  0  0  0  0  0  0
   -1.2982   -0.3284   -0.2369 C   0  0  0  0  0  0  0  0  0  0  0  0
    1.2430   -0.3884    0.0539 C   0  0  0  0  0  0  0  0  0  0  0  0
   -3.6109   -0.1697    0.2457 C   0  0  0  0  0  0  0  0  0  0  0  0
    3.5831   -0.2339    0.3878 C   0  0  0  0  0  0  0  0  0  0  0  0
   -4.6179    0.8013    0.8242 C   0  0  0  0  0  0  0  0  0  0  0  0
    4.6819    0.8032    0.4799 C   0  0  0  0  0  0  0  0  0  0  0  0
  1  7  1  0
  1  9  1  0
  2  8  1  0
  2 10  1  0
  3  7  2  0
  4  8  2  0
  5  6  1  0
  5  7  1  0
  5  8  1  0
  9 11  1  0
 10 12  1  0
M  END
>  <PUBCHEM_COMPOUND_CID>  (1) 
11857

>  <PUBCHEM_CONFORMER_RMSD>  (1) 
0.6

>  <PUBCHEM_CONFORMER_DIVERSEORDER>  (1) 
1
155
259
214
263
164
96
211
213
65
178
95
120
23
58
18
125
197
257
44
108
195
186
53
126
158
123
249
189
228
207
209
49
179
79
243
224
45
60
89
97
180
191
144
11
143
52
107
163
47
103
206
254
221
38
5
113
81
152
14
36
252
75
230
212
112
242
170
91
72
183
261
68
166
219
177
239
240
147
234
32
142
145
182
124
205
151
162
260
153
115
85
87
244
70
16
134
150
241
255
41
220
31
172
167
238
46
51
149
201
208
10
222
57
117
200
74
61
156
29
56
141
133
86
94
64
67
4
265
210
84
40
235
7
198
157
192
138
173
50
175
225
204
131
88
28
25
223
106
229
98
245
55
26
202
266
118
168
253
216
139
99
111
132
190
148
13
100
101
39
35
9
78
136
20
137
215
42
63
34
184
176
154
267
59
217
194
262
37
12
256
30
159
218
6
17
24
135
109
69
122
3
232
160
171
82
258
8
77
2
119
48
196
193
93
161
102
248
73
250
187
92
105
22
90
188
130
140
146
127
71
237
76
66
181
116
236
226
104
227
128
110
247
121
33
62
27
129
80
114
251
233
19
54
43
268
246
231
15
199
185
21
83
169
203
165
264
174

>  <PUBCHEM_MMFF94_PARTIAL_CHARGES>  (1) 
9
1 -0.43
10 0.28
2 -0.43
3 -0.57
4 -0.57
5 0.12
7 0.66
8 0.66
9 0.28

>  <PUBCHEM_EFFECTIVE_ROTOR_COUNT>  (1) 
6

>  <PUBCHEM_PHARMACOPHORE_FEATURES>  (1) 
4
1 3 acceptor
1 4 acceptor
1 5 anion
1 6 hydrophobe

>  <PUBCHEM_HEAVY_ATOM_COUNT>  (1) 
12

>  <PUBCHEM_ATOM_DEF_STEREO_COUNT>  (1) 
0

>  <PUBCHEM_ATOM_UDEF_STEREO_COUNT>  (1) 
0

>  <PUBCHEM_BOND_DEF_STEREO_COUNT>  (1) 
0

>  <PUBCHEM_BOND_UDEF_STEREO_COUNT>  (1) 
0

>  <PUBCHEM_ISOTOPIC_ATOM_COUNT>  (1) 
0

>  <PUBCHEM_COMPONENT_COUNT>  (1) 
1

>  <PUBCHEM_CACTVS_TAUTO_COUNT>  (1) 
1

>  <PUBCHEM_CONFORMER_ID>  (1) 
00002E5100000001

>  <PUBCHEM_MMFF94_ENERGY>  (1) 
9.8672

>  <PUBCHEM_FEATURE_SELFOVERLAP>  (1) 
20.301

>  <PUBCHEM_SHAPE_FINGERPRINT>  (1) 
10219947 1 18040998453269320860
10465860 250 16008744714708358709
11062470 55 17704072889082893009
12119455 92 15841550751785170276
12251169 10 18408039632540684696
13214271 11 18040148526523070999
14252887 29 17895202055969387651
14445660 50 18341047505925739930
14911166 2 11455888070383447840
14943859 89 16056876935741490686
15048467 5 18272088314175202536
187816 3 10735877283117531076
20871998 22 17823140038109856759
21293036 1 11743839166223336216
22485316 2 16298382465922699193
22713019 99 9367345942224425672
23402539 116 17385714816261737407
23402655 69 11527679531579523747
449060 50 18342739615318099800
81539 233 15769783420227060628

>  <PUBCHEM_SHAPE_MULTIPOLES>  (1) 
223.48
8.2
1.23
0.93
0.11
0.19
0.18
-1.86
-3.53
0.1
0.26
-0.21
-0.24
-0.26

>  <PUBCHEM_SHAPE_SELFOVERLAP>  (1) 
421.192

>  <PUBCHEM_SHAPE_VOLUME>  (1) 
139.2

>  <PUBCHEM_COORDINATE_TYPE>  (1) 
2
5
10

$$$$
