11869
     RDKit          3D

 10 10  0  0  0  0  0  0  0  0999 V2000
    1.6666    0.3173    0.0358 N   0  0  0  0  0  0  0  0  0  0  0  0
    0.2561    0.2495    0.0314 C   0  0  0  0  0  0  0  0  0  0  0  0
   -0.3996   -0.9714   -0.1276 C   0  0  0  0  0  0  0  0  0  0  0  0
   -0.4823    1.4225    0.1885 C   0  0  0  0  0  0  0  0  0  0  0  0
   -1.7937   -1.0191   -0.1295 C   0  0  0  0  0  0  0  0  0  0  0  0
    2.3646    1.1127   -0.9533 C   0  0  0  0  0  0  0  0  0  0  0  0
    2.4309   -0.3967    1.0381 C   0  0  0  0  0  0  0  0  0  0  0  0
    0.3658   -2.2433   -0.2979 C   0  0  0  0  0  0  0  0  0  0  0  0
   -1.8763    1.3747    0.1867 C   0  0  0  0  0  0  0  0  0  0  0  0
   -2.5320    0.1539    0.0277 C   0  0  0  0  0  0  0  0  0  0  0  0
  1  2  1  0
  1  6  1  0
  1  7  1  0
  2  3  2  0
  2  4  1  0
  3  5  1  0
  3  8  1  0
  4  9  2  0
  5 10  2  0
  9 10  1  0
M  END
>  <PUBCHEM_COMPOUND_CID>  (1) 
11869

>  <PUBCHEM_CONFORMER_RMSD>  (1) 
0.4

>  <PUBCHEM_CONFORMER_DIVERSEORDER>  (1) 
2
1

>  <PUBCHEM_MMFF94_PARTIAL_CHARGES>  (1) 
14
1 -0.84
10 -0.15
11 0.15
12 0.15
2 0.1
22 0.15
23 0.15
3 -0.14
4 -0.15
5 -0.15
6 0.37
7 0.37
8 0.14
9 -0.15

>  <PUBCHEM_EFFECTIVE_ROTOR_COUNT>  (1) 
1

>  <PUBCHEM_PHARMACOPHORE_FEATURES>  (1) 
2
1 1 cation
6 2 3 4 5 9 10 rings

>  <PUBCHEM_HEAVY_ATOM_COUNT>  (1) 
10

>  <PUBCHEM_ATOM_DEF_STEREO_COUNT>  (1) 
0

>  <PUBCHEM_ATOM_UDEF_STEREO_COUNT>  (1) 
0

>  <PUBCHEM_BOND_DEF_STEREO_COUNT>  (1) 
0

>  <PUBCHEM_BOND_UDEF_STEREO_COUNT>  (1) 
0

>  <PUBCHEM_ISOTOPIC_ATOM_COUNT>  (1) 
0

>  <PUBCHEM_COMPONENT_COUNT>  (1) 
1

>  <PUBCHEM_CACTVS_TAUTO_COUNT>  (1) 
1

>  <PUBCHEM_CONFORMER_ID>  (1) 
00002E5D00000002

>  <PUBCHEM_MMFF94_ENERGY>  (1) 
46.4192

>  <PUBCHEM_FEATURE_SELFOVERLAP>  (1) 
10.148

>  <PUBCHEM_SHAPE_FINGERPRINT>  (1) 
12716758 59 18269850872537096156
15310529 11 17313660554991895645
16945 1 18342738516101851633
18185500 45 18047184438878692990
20645464 45 17632285826571606288
20871998 184 17985828361423141062
21040471 1 18341894069369764123
23552423 10 18264493896888122463
241688 4 17256532911435477818
2748010 2 18411983580575301127
369184 2 17703777128818083144
5084963 1 18130514045688448774

>  <PUBCHEM_SHAPE_MULTIPOLES>  (1) 
200.81
3.41
1.89
0.83
0.53
0.64
-0.02
-0.74
-0.14
-0.1
0.22
0.47
-0.05
-0.42

>  <PUBCHEM_SHAPE_SELFOVERLAP>  (1) 
407.562

>  <PUBCHEM_SHAPE_VOLUME>  (1) 
119.2

>  <PUBCHEM_COORDINATE_TYPE>  (1) 
2
5
10

$$$$
