11871
     RDKit          3D

 12 12  0  0  0  0  0  0  0  0999 V2000
    1.8913    2.7740   -0.0008 Cl  0  0  0  0  0  0  0  0  0  0  0  0
    2.5844   -2.5658   -0.0003 Cl  0  0  0  0  0  0  0  0  0  0  0  0
   -1.0143    2.0804    0.0002 O   0  0  0  0  0  0  0  0  0  0  0  0
   -2.5455   -1.6766   -0.0006 O   0  0  0  0  0  0  0  0  0  0  0  0
   -2.8734    0.4941    0.0002 O   0  0  0  0  0  0  0  0  0  0  0  0
   -2.1108   -0.5007   -0.0002 N   0  0  0  0  0  0  0  0  0  0  0  0
   -0.7043   -0.2883    0.0002 C   0  0  0  0  0  0  0  0  0  0  0  0
   -0.1753    1.0024    0.0002 C   0  0  0  0  0  0  0  0  0  0  0  0
    0.1491   -1.3916    0.0002 C   0  0  0  0  0  0  0  0  0  0  0  0
    1.2069    1.1899    0.0002 C   0  0  0  0  0  0  0  0  0  0  0  0
    1.5314   -1.2043    0.0003 C   0  0  0  0  0  0  0  0  0  0  0  0
    2.0604    0.0864    0.0003 C   0  0  0  0  0  0  0  0  0  0  0  0
  1 10  1  0
  2 11  1  0
  3  8  1  0
  4  6  1  0
  5  6  2  0
  6  7  1  0
  7  8  2  0
  7  9  1  0
  8 10  1  0
  9 11  2  0
 10 12  2  0
 11 12  1  0
M  CHG  2   4  -1   6   1
M  END
>  <PUBCHEM_COMPOUND_CID>  (1) 
11871

>  <PUBCHEM_CONFORMER_RMSD>  (1) 
0.4

>  <PUBCHEM_CONFORMER_DIVERSEORDER>  (1) 
1

>  <PUBCHEM_MMFF94_PARTIAL_CHARGES>  (1) 
15
1 -0.18
10 0.18
11 0.18
12 -0.15
13 0.15
14 0.15
15 0.45
2 -0.18
3 -0.53
4 -0.52
5 -0.52
6 0.91
7 0.13
8 0.08
9 -0.15

>  <PUBCHEM_EFFECTIVE_ROTOR_COUNT>  (1) 
1

>  <PUBCHEM_PHARMACOPHORE_FEATURES>  (1) 
5
1 3 donor
1 4 acceptor
1 4 anion
1 5 acceptor
6 7 8 9 10 11 12 rings

>  <PUBCHEM_HEAVY_ATOM_COUNT>  (1) 
12

>  <PUBCHEM_ATOM_DEF_STEREO_COUNT>  (1) 
0

>  <PUBCHEM_ATOM_UDEF_STEREO_COUNT>  (1) 
0

>  <PUBCHEM_BOND_DEF_STEREO_COUNT>  (1) 
0

>  <PUBCHEM_BOND_UDEF_STEREO_COUNT>  (1) 
0

>  <PUBCHEM_ISOTOPIC_ATOM_COUNT>  (1) 
0

>  <PUBCHEM_COMPONENT_COUNT>  (1) 
1

>  <PUBCHEM_CACTVS_TAUTO_COUNT>  (1) 
4

>  <PUBCHEM_CONFORMER_ID>  (1) 
00002E5F00000001

>  <PUBCHEM_MMFF94_ENERGY>  (1) 
35.6212

>  <PUBCHEM_FEATURE_SELFOVERLAP>  (1) 
25.453

>  <PUBCHEM_SHAPE_FINGERPRINT>  (1) 
1 1 18194683889501104300
13380535 76 17904759230308156218
14648413 74 18408604768595426145
16945 1 18410855464544519844
17990270 104 18409727369841077162
193761 8 18410575050477771140
20645476 183 17247808768328190684
20645477 70 18337663239491062087
20871998 184 17696462993050676934
21040471 1 17834394905673101092
2334 1 17762337316040669890
23402539 116 17621862211231806813
23552423 10 18409452521977499895
23559900 14 17693371141328014966
241688 4 18121781621456628880
2748010 2 17905052795723189686
7364860 26 18413108381323976160
81228 2 17691693290229240250

>  <PUBCHEM_SHAPE_MULTIPOLES>  (1) 
228.1
3.64
3.02
0.59
1.37
1.11
0
-1.64
0
-1.82
0
-0.09
0
0

>  <PUBCHEM_SHAPE_SELFOVERLAP>  (1) 
465.125

>  <PUBCHEM_SHAPE_VOLUME>  (1) 
134.4

>  <PUBCHEM_COORDINATE_TYPE>  (1) 
2
5
10

$$$$
