11875
     RDKit          3D

 12 12  0  0  0  0  0  0  0  0999 V2000
    2.3695    1.3401    1.3313 Cl  0  0  0  0  0  0  0  0  0  0  0  0
    0.1197   -2.8703    0.0472 O   0  0  0  0  0  0  0  0  0  0  0  0
    1.7568   -1.4128   -0.0740 O   0  0  0  0  0  0  0  0  0  0  0  0
    1.9450    1.1807   -1.2552 O   0  0  0  0  0  0  0  0  0  0  0  0
    0.5361   -1.6894   -0.0083 N   0  0  0  0  0  0  0  0  0  0  0  0
   -0.4097   -0.6264    0.0031 C   0  0  0  0  0  0  0  0  0  0  0  0
    0.0020    0.7049   -0.0572 C   0  0  0  0  0  0  0  0  0  0  0  0
   -1.7683   -0.9336    0.0758 C   0  0  0  0  0  0  0  0  0  0  0  0
   -0.9449    1.7291   -0.0449 C   0  0  0  0  0  0  0  0  0  0  0  0
   -2.7153    0.0905    0.0880 C   0  0  0  0  0  0  0  0  0  0  0  0
   -2.3036    1.4218    0.0277 C   0  0  0  0  0  0  0  0  0  0  0  0
    1.4129    1.0653   -0.1334 C   0  0  0  0  0  0  0  0  0  0  0  0
  1 12  1  0
  2  5  1  0
  3  5  2  0
  4 12  2  0
  5  6  1  0
  6  7  2  0
  6  8  1  0
  7  9  1  0
  7 12  1  0
  8 10  2  0
  9 11  2  0
 10 11  1  0
M  CHG  2   2  -1   5   1
M  END
>  <PUBCHEM_COMPOUND_CID>  (1) 
11875

>  <PUBCHEM_CONFORMER_RMSD>  (1) 
0.6

>  <PUBCHEM_CONFORMER_DIVERSEORDER>  (1) 
1
2

>  <PUBCHEM_MMFF94_PARTIAL_CHARGES>  (1) 
16
1 -0.21
10 -0.15
11 -0.15
12 0.69
13 0.15
14 0.15
15 0.15
16 0.15
2 -0.52
3 -0.52
4 -0.57
5 0.91
6 0.13
7 0.09
8 -0.15
9 -0.15

>  <PUBCHEM_EFFECTIVE_ROTOR_COUNT>  (1) 
2

>  <PUBCHEM_PHARMACOPHORE_FEATURES>  (1) 
4
1 2 acceptor
1 2 anion
1 3 acceptor
6 6 7 8 9 10 11 rings

>  <PUBCHEM_HEAVY_ATOM_COUNT>  (1) 
12

>  <PUBCHEM_ATOM_DEF_STEREO_COUNT>  (1) 
0

>  <PUBCHEM_ATOM_UDEF_STEREO_COUNT>  (1) 
0

>  <PUBCHEM_BOND_DEF_STEREO_COUNT>  (1) 
0

>  <PUBCHEM_BOND_UDEF_STEREO_COUNT>  (1) 
0

>  <PUBCHEM_ISOTOPIC_ATOM_COUNT>  (1) 
0

>  <PUBCHEM_COMPONENT_COUNT>  (1) 
1

>  <PUBCHEM_CACTVS_TAUTO_COUNT>  (1) 
1

>  <PUBCHEM_CONFORMER_ID>  (1) 
00002E6300000001

>  <PUBCHEM_MMFF94_ENERGY>  (1) 
45.4063

>  <PUBCHEM_FEATURE_SELFOVERLAP>  (1) 
20.379

>  <PUBCHEM_SHAPE_FINGERPRINT>  (1) 
12423570 1 8399770328108571413
12524768 44 17476357202030790871
16945 1 18194404617800554665
193761 8 18266179427065493261
20511035 2 18195807362809706749
20871998 184 17623570161017247158
21040471 1 18338519767031787844
23211744 41 17845647191538975152
2334 1 18410295851970656559
23552423 10 18263087626069328309
241688 4 17111569995699807715
2748010 2 18409735070959882615
5084963 1 18129398135765065717
7364860 26 18128533765017159231

>  <PUBCHEM_SHAPE_MULTIPOLES>  (1) 
226.24
3.33
2.42
0.86
0.07
1.57
0.02
-1.32
0.45
-0.1
0.06
-0.59
-0.3
0.16

>  <PUBCHEM_SHAPE_SELFOVERLAP>  (1) 
469.432

>  <PUBCHEM_SHAPE_VOLUME>  (1) 
128.1

>  <PUBCHEM_COORDINATE_TYPE>  (1) 
2
5
10

$$$$
