11882
     RDKit          3D

 13 13  0  0  0  0  0  0  0  0999 V2000
    3.6633   -0.5912   -0.0101 O   0  0  0  0  0  0  0  0  0  0  0  0
   -1.4614   -1.9418    1.2012 O   0  0  0  0  0  0  0  0  0  0  0  0
   -1.5948   -2.0381   -1.0658 O   0  0  0  0  0  0  0  0  0  0  0  0
   -1.7747    2.5121    0.0099 O   0  0  0  0  0  0  0  0  0  0  0  0
   -2.5386    0.4543   -0.0266 O   0  0  0  0  0  0  0  0  0  0  0  0
   -1.5893    1.2727   -0.0082 N   0  0  0  0  0  0  0  0  0  0  0  0
    0.0048   -0.5927   -0.0285 C   0  0  0  0  0  0  0  0  0  0  0  0
   -0.2554    0.7776   -0.0085 C   0  0  0  0  0  0  0  0  0  0  0  0
    1.3217   -1.0525   -0.0285 C   0  0  0  0  0  0  0  0  0  0  0  0
    0.8012    1.6879    0.0115 C   0  0  0  0  0  0  0  0  0  0  0  0
    2.3783   -0.1423   -0.0086 C   0  0  0  0  0  0  0  0  0  0  0  0
    2.1181    1.2279    0.0113 C   0  0  0  0  0  0  0  0  0  0  0  0
   -1.0734   -1.5740   -0.0491 C   0  0  0  0  0  0  0  0  0  0  0  0
  1 11  1  0
  2 13  1  0
  3 13  2  0
  4  6  1  0
  5  6  2  0
  6  8  1  0
  7  8  2  0
  7  9  1  0
  7 13  1  0
  8 10  1  0
  9 11  2  0
 10 12  2  0
 11 12  1  0
M  CHG  2   4  -1   6   1
M  END
>  <PUBCHEM_COMPOUND_CID>  (1) 
11882

>  <PUBCHEM_CONFORMER_RMSD>  (1) 
0.6

>  <PUBCHEM_CONFORMER_DIVERSEORDER>  (1) 
1

>  <PUBCHEM_MMFF94_PARTIAL_CHARGES>  (1) 
18
1 -0.53
10 -0.15
11 0.08
12 -0.15
13 0.63
14 0.15
15 0.15
16 0.15
17 0.45
18 0.5
2 -0.65
3 -0.57
4 -0.52
5 -0.52
6 0.91
7 0.09
8 0.13
9 -0.15

>  <PUBCHEM_EFFECTIVE_ROTOR_COUNT>  (1) 
2

>  <PUBCHEM_PHARMACOPHORE_FEATURES>  (1) 
8
1 1 donor
1 2 acceptor
1 3 acceptor
1 4 acceptor
1 4 anion
1 5 acceptor
3 2 3 13 anion
6 7 8 9 10 11 12 rings

>  <PUBCHEM_HEAVY_ATOM_COUNT>  (1) 
13

>  <PUBCHEM_ATOM_DEF_STEREO_COUNT>  (1) 
0

>  <PUBCHEM_ATOM_UDEF_STEREO_COUNT>  (1) 
0

>  <PUBCHEM_BOND_DEF_STEREO_COUNT>  (1) 
0

>  <PUBCHEM_BOND_UDEF_STEREO_COUNT>  (1) 
0

>  <PUBCHEM_ISOTOPIC_ATOM_COUNT>  (1) 
0

>  <PUBCHEM_COMPONENT_COUNT>  (1) 
1

>  <PUBCHEM_CACTVS_TAUTO_COUNT>  (1) 
5

>  <PUBCHEM_CONFORMER_ID>  (1) 
00002E6A00000001

>  <PUBCHEM_MMFF94_ENERGY>  (1) 
47.2605

>  <PUBCHEM_FEATURE_SELFOVERLAP>  (1) 
40.739

>  <PUBCHEM_SHAPE_FINGERPRINT>  (1) 
1 1 17832703470057804949
11206711 2 18265618860750369428
12423570 1 18129680693247679722
13380535 76 18339358544217212110
16945 1 18412820266011347340
193761 8 18339079427225233996
19973954 147 18337391668349648476
20645476 183 17534654558534520470
20645477 70 17546719358267167485
20871998 184 18343026600722150590
21040471 1 18338797797608374324
21501502 16 18339641260613525076
2334 1 18122343746639321832
23419403 2 16609339871822053124
23552423 10 18189052169516323748
23559900 14 18199470966541497622
241688 4 15241166434658169753
2748010 2 18195525024312415484
528886 8 18123182403280948704
81228 2 18336819904991616625

>  <PUBCHEM_SHAPE_MULTIPOLES>  (1) 
233.21
3.69
2.39
0.73
2.06
0.51
0.03
-0.37
-0.03
-1.36
0
-0.24
-0.31
0

>  <PUBCHEM_SHAPE_SELFOVERLAP>  (1) 
499.235

>  <PUBCHEM_SHAPE_VOLUME>  (1) 
128.9

>  <PUBCHEM_COORDINATE_TYPE>  (1) 
2
5
10

$$$$
