11885
     RDKit          3D

 15 17  0  0  0  0  0  0  0  0999 V2000
    2.5853    2.3805   -0.0002 N   0  0  0  0  0  0  0  0  0  0  0  0
    1.1034    0.4133    0.0000 C   0  0  0  0  0  0  0  0  0  0  0  0
    0.9657   -0.9921   -0.0001 C   0  0  0  0  0  0  0  0  0  0  0  0
   -1.3351    0.6520    0.0000 C   0  0  0  0  0  0  0  0  0  0  0  0
   -1.4727   -0.7533    0.0000 C   0  0  0  0  0  0  0  0  0  0  0  0
   -0.0489    1.2171    0.0000 C   0  0  0  0  0  0  0  0  0  0  0  0
   -0.3204   -1.5571   -0.0001 C   0  0  0  0  0  0  0  0  0  0  0  0
    2.3899    0.9775    0.0001 C   0  0  0  0  0  0  0  0  0  0  0  0
    2.1185   -1.7951    0.0000 C   0  0  0  0  0  0  0  0  0  0  0  0
   -2.4878    1.4550    0.0001 C   0  0  0  0  0  0  0  0  0  0  0  0
   -2.7592   -1.3176    0.0001 C   0  0  0  0  0  0  0  0  0  0  0  0
    3.5244    0.1657    0.0002 C   0  0  0  0  0  0  0  0  0  0  0  0
    3.3888   -1.2189    0.0000 C   0  0  0  0  0  0  0  0  0  0  0  0
   -3.7582    0.8787    0.0000 C   0  0  0  0  0  0  0  0  0  0  0  0
   -3.8937   -0.5058    0.0000 C   0  0  0  0  0  0  0  0  0  0  0  0
  1  8  1  0
  2  3  1  0
  2  6  2  0
  2  8  1  0
  3  7  2  0
  3  9  1  0
  4  5  2  0
  4  6  1  0
  4 10  1  0
  5  7  1  0
  5 11  1  0
  8 12  2  0
  9 13  2  0
 10 14  2  0
 11 15  2  0
 12 13  1  0
 14 15  1  0
M  END
>  <PUBCHEM_COMPOUND_CID>  (1) 
11885

>  <PUBCHEM_CONFORMER_RMSD>  (1) 
0.4

>  <PUBCHEM_CONFORMER_DIVERSEORDER>  (1) 
1

>  <PUBCHEM_MMFF94_PARTIAL_CHARGES>  (1) 
22
1 -0.9
10 -0.15
11 -0.15
12 -0.15
13 -0.15
14 -0.15
15 -0.15
16 0.15
17 0.15
18 0.15
19 0.15
20 0.15
21 0.15
22 0.15
23 0.15
24 0.15
25 0.4
26 0.4
6 -0.15
7 -0.15
8 0.1
9 -0.15

>  <PUBCHEM_EFFECTIVE_ROTOR_COUNT>  (1) 
0

>  <PUBCHEM_PHARMACOPHORE_FEATURES>  (1) 
5
1 1 cation
1 1 donor
6 2 3 4 5 6 7 rings
6 2 3 8 9 12 13 rings
6 4 5 10 11 14 15 rings

>  <PUBCHEM_HEAVY_ATOM_COUNT>  (1) 
15

>  <PUBCHEM_ATOM_DEF_STEREO_COUNT>  (1) 
0

>  <PUBCHEM_ATOM_UDEF_STEREO_COUNT>  (1) 
0

>  <PUBCHEM_BOND_DEF_STEREO_COUNT>  (1) 
0

>  <PUBCHEM_BOND_UDEF_STEREO_COUNT>  (1) 
0

>  <PUBCHEM_ISOTOPIC_ATOM_COUNT>  (1) 
0

>  <PUBCHEM_COMPONENT_COUNT>  (1) 
1

>  <PUBCHEM_CACTVS_TAUTO_COUNT>  (1) 
1

>  <PUBCHEM_CONFORMER_ID>  (1) 
00002E6D00000001

>  <PUBCHEM_MMFF94_ENERGY>  (1) 
60.1863

>  <PUBCHEM_FEATURE_SELFOVERLAP>  (1) 
25.423

>  <PUBCHEM_SHAPE_FINGERPRINT>  (1) 
10411042 1 15600610002452654315
10608611 8 18409163307622988413
10967382 1 18410575136218517220
10980938 120 18411700997692310746
11132069 177 18411974754412246091
11471102 20 18410570665220943734
12032990 46 18410862035813022607
12251169 10 18410854334857338274
13140716 1 18410575067562344433
13221675 6 18410292488715962127
13380535 76 18410292518802001146
13897977 150 18410571803450665037
14144814 61 18411136905077070275
14325111 11 18410575093374514689
14790565 3 15389805040100161270
15196674 1 18410573972282431975
15219456 202 18410292518796330113
15442244 35 18267585693573190714
15536298 74 18342738520407303466
15775835 57 18410579482709609548
16945 1 18266740186189987206
17802600 8 18408879620574369173
17804303 29 18337959991069747926
18186145 218 18341616979628639221
193761 8 15744724871572224295
200 152 18131622384012017077
20201158 50 18411138004583670027
20645477 70 18413105039834502807
21267235 1 18411146826546885167
21501502 16 18411418431582806359
21501925 9 18410282601949114810
221490 88 18336837467176297282
2255824 54 18040720268696663698
22854114 111 18409730677071188632
2334 1 18410574028111680097
23402539 116 18271796904558970799
23402655 69 18341045229503590893
23463225 33 18409729543046724766
23559900 14 18341889650428853722
2748010 2 18409730672638967479
335352 9 18122626054691826391
474 4 17604436335233098260
5104073 3 18410293605444162459
528886 8 18411132519899753754
53812653 166 18343015610111797816
57096353 35 18339922739726746671
69090 78 18342452634631302127
7364860 26 18342175587802731800
8809292 202 18260835899075376211
9709674 26 18411423920599133103

>  <PUBCHEM_SHAPE_MULTIPOLES>  (1) 
303.71
6.61
2.02
0.61
1.52
0.3
0
0.17
0
-0.74
0
0.01
-0.01
0

>  <PUBCHEM_SHAPE_SELFOVERLAP>  (1) 
688.133

>  <PUBCHEM_SHAPE_VOLUME>  (1) 
157.8

>  <PUBCHEM_COORDINATE_TYPE>  (1) 
2
5
10

$$$$
