11892
     RDKit          3D

 11 11  0  0  0  0  0  0  0  0999 V2000
    1.8458    1.9963   -0.5038 O   0  0  0  0  0  0  0  0  0  0  0  0
    2.8214    0.2108    0.5096 O   0  0  0  0  0  0  0  0  0  0  0  0
    0.2998   -1.2121   -0.0689 C   0  0  0  0  0  0  0  0  0  0  0  0
    0.4799    0.1683    0.0203 C   0  0  0  0  0  0  0  0  0  0  0  0
   -1.9159    0.4783    0.0567 C   0  0  0  0  0  0  0  0  0  0  0  0
   -0.6280    1.0135    0.0831 C   0  0  0  0  0  0  0  0  0  0  0  0
   -0.9882   -1.7471   -0.0953 C   0  0  0  0  0  0  0  0  0  0  0  0
   -2.0960   -0.9019   -0.0326 C   0  0  0  0  0  0  0  0  0  0  0  0
    1.4684   -2.1405   -0.1395 C   0  0  0  0  0  0  0  0  0  0  0  0
   -3.1010    1.3814    0.1227 C   0  0  0  0  0  0  0  0  0  0  0  0
    1.8138    0.7531    0.0478 C   0  0  0  0  0  0  0  0  0  0  0  0
  1 11  1  0
  2 11  2  0
  3  4  2  0
  3  7  1  0
  3  9  1  0
  4  6  1  0
  4 11  1  0
  5  6  2  0
  5  8  1  0
  5 10  1  0
  7  8  2  0
M  END
>  <PUBCHEM_COMPOUND_CID>  (1) 
11892

>  <PUBCHEM_CONFORMER_RMSD>  (1) 
0.4

>  <PUBCHEM_CONFORMER_DIVERSEORDER>  (1) 
2
1
3

>  <PUBCHEM_MMFF94_PARTIAL_CHARGES>  (1) 
15
1 -0.65
10 0.14
11 0.63
12 0.15
13 0.15
14 0.15
2 -0.57
21 0.5
3 -0.14
4 0.09
5 -0.14
6 -0.15
7 -0.15
8 -0.15
9 0.14

>  <PUBCHEM_EFFECTIVE_ROTOR_COUNT>  (1) 
1

>  <PUBCHEM_PHARMACOPHORE_FEATURES>  (1) 
4
1 1 acceptor
1 2 acceptor
3 1 2 11 anion
6 3 4 5 6 7 8 rings

>  <PUBCHEM_HEAVY_ATOM_COUNT>  (1) 
11

>  <PUBCHEM_ATOM_DEF_STEREO_COUNT>  (1) 
0

>  <PUBCHEM_ATOM_UDEF_STEREO_COUNT>  (1) 
0

>  <PUBCHEM_BOND_DEF_STEREO_COUNT>  (1) 
0

>  <PUBCHEM_BOND_UDEF_STEREO_COUNT>  (1) 
0

>  <PUBCHEM_ISOTOPIC_ATOM_COUNT>  (1) 
0

>  <PUBCHEM_COMPONENT_COUNT>  (1) 
1

>  <PUBCHEM_CACTVS_TAUTO_COUNT>  (1) 
1

>  <PUBCHEM_CONFORMER_ID>  (1) 
00002E7400000002

>  <PUBCHEM_MMFF94_ENERGY>  (1) 
32.6603

>  <PUBCHEM_FEATURE_SELFOVERLAP>  (1) 
20.355

>  <PUBCHEM_SHAPE_FINGERPRINT>  (1) 
12423570 1 10576392996896730623
13380535 21 18339096916395055051
13380535 76 18410849954312677043
14325111 11 18410855498857006352
161256 15 18049724014386066796
16945 1 18338801224955307847
193761 8 18411139138687352631
21040471 1 18412545435343710345
21501502 16 18411416198495542839
23235685 24 18411693266535023561
23463225 33 18334850585614702706
23552423 10 18408887342904715239
23559900 14 18202010945702087004
241688 4 17474393473999624674
2748010 2 18339366270963649935
5084963 1 18058173993131645738
528862 383 18263921047061321339
528886 8 18411694361746208025

>  <PUBCHEM_SHAPE_MULTIPOLES>  (1) 
214.64
3.75
2.17
0.64
0.93
0.42
0
-1.32
0.25
-0.58
-0.21
-0.05
-0.03
-0.1

>  <PUBCHEM_SHAPE_SELFOVERLAP>  (1) 
449.776

>  <PUBCHEM_SHAPE_VOLUME>  (1) 
122.6

>  <PUBCHEM_COORDINATE_TYPE>  (1) 
2
5
10

$$$$
