1189
     RDKit          3D

 20 22  0  0  1  0  0  0  0  0999 V2000
    1.7432    0.0624    1.0616 O   0  0  0  0  0  0  0  0  0  0  0  0
    2.9948    2.5183   -0.7083 O   0  0  0  0  0  0  0  0  0  0  0  0
    1.7045   -0.6137   -1.8691 O   0  0  0  0  0  0  0  0  0  0  0  0
    3.1548   -2.2773    1.7163 O   0  0  0  0  0  0  0  0  0  0  0  0
   -4.5436    0.3014   -0.0306 O   0  0  0  0  0  0  0  0  0  0  0  0
   -1.4422   -3.1300   -0.5465 O   0  0  0  0  0  0  0  0  0  0  0  0
   -0.1639    1.3242    0.4360 N   0  0  0  0  0  0  0  0  0  0  0  0
   -0.6377   -1.0215   -0.0696 N   0  0  0  0  0  0  0  0  0  0  0  0
   -2.2585    2.1128    0.4730 N   0  0  0  0  0  0  0  0  0  0  0  0
   -2.9809   -1.4128   -0.2877 N   0  0  0  0  0  0  0  0  0  0  0  0
    1.2980    1.3188    0.5199 C   0  0  0  0  0  0  0  0  0  0  0  0
    1.9883    1.5162   -0.8326 C   0  0  0  0  0  0  0  0  0  0  0  0
    2.6268    0.1713   -1.1243 C   0  0  0  0  0  0  0  0  0  0  0  0
    2.8518   -0.3987    0.2717 C   0  0  0  0  0  0  0  0  0  0  0  0
    2.9342   -1.9112    0.3637 C   0  0  0  0  0  0  0  0  0  0  0  0
   -0.9859    0.2756    0.1742 C   0  0  0  0  0  0  0  0  0  0  0  0
   -0.9807    2.4160    0.6101 C   0  0  0  0  0  0  0  0  0  0  0  0
   -2.2581    0.7742    0.2007 C   0  0  0  0  0  0  0  0  0  0  0  0
   -3.3814   -0.0867   -0.0414 C   0  0  0  0  0  0  0  0  0  0  0  0
   -1.6635   -1.9391   -0.3172 C   0  0  0  0  0  0  0  0  0  0  0  0
  1 11  1  0
  1 14  1  0
  2 12  1  0
  3 13  1  0
  4 15  1  0
  5 19  2  0
  6 20  2  0
  7 11  1  0
  7 16  1  0
  7 17  1  0
  8 16  1  0
  8 20  1  0
  9 17  2  0
  9 18  1  0
 10 19  1  0
 10 20  1  0
 11 12  1  0
 12 13  1  0
 13 14  1  0
 14 15  1  0
 16 18  2  0
 18 19  1  0
M  END
>  <PUBCHEM_COMPOUND_CID>  (1) 
1189

>  <PUBCHEM_CONFORMER_RMSD>  (1) 
0.6

>  <PUBCHEM_CONFORMER_DIVERSEORDER>  (1) 
9
105
28
13
45
30
124
16
89
121
113
102
115
110
52
2
94
127
21
84
81
69
79
49
117
111
74
40
120
106
6
101
62
63
34
97
3
91
64
15
88
26
17
27
31
67
29
68
5
59
11
61
104
4
85
14
55
119
118
18
24
125
53
50
41
90
10
108
35
66
122
8
39
92
42
48
46
95
109
54
1
33
32
96
70
38
20
22
12
107
112
71
123
51
75
19
47
57
86
76
36
73
65
116
43
77
25
37
87
126
80
103
78
98
60
44
114
23
7
82
72
83
99
93
58
100
56

>  <PUBCHEM_MMFF94_PARTIAL_CHARGES>  (1) 
26
1 -0.56
10 -0.49
11 0.54
12 0.28
13 0.28
14 0.28
15 0.28
16 -0.09
17 0.04
18 0.14
19 0.72
2 -0.68
20 0.69
27 0.15
28 0.4
29 0.4
3 -0.68
30 0.37
31 0.4
32 0.37
4 -0.68
5 -0.57
6 -0.57
7 0.05
8 -0.49
9 -0.57

>  <PUBCHEM_EFFECTIVE_ROTOR_COUNT>  (1) 
3

>  <PUBCHEM_PHARMACOPHORE_FEATURES>  (1) 
15
1 1 acceptor
1 10 donor
1 2 acceptor
1 2 donor
1 3 acceptor
1 3 donor
1 4 acceptor
1 4 donor
1 5 acceptor
1 6 acceptor
1 8 donor
3 7 9 17 cation
5 1 11 12 13 14 rings
5 7 9 16 17 18 rings
6 8 10 16 18 19 20 rings

>  <PUBCHEM_HEAVY_ATOM_COUNT>  (1) 
20

>  <PUBCHEM_ATOM_DEF_STEREO_COUNT>  (1) 
0

>  <PUBCHEM_ATOM_UDEF_STEREO_COUNT>  (1) 
4

>  <PUBCHEM_BOND_DEF_STEREO_COUNT>  (1) 
0

>  <PUBCHEM_BOND_UDEF_STEREO_COUNT>  (1) 
0

>  <PUBCHEM_ISOTOPIC_ATOM_COUNT>  (1) 
0

>  <PUBCHEM_COMPONENT_COUNT>  (1) 
1

>  <PUBCHEM_CACTVS_TAUTO_COUNT>  (1) 
6

>  <PUBCHEM_CONFORMER_ID>  (1) 
000004A500000009

>  <PUBCHEM_MMFF94_ENERGY>  (1) 
44.9986

>  <PUBCHEM_FEATURE_SELFOVERLAP>  (1) 
76.287

>  <PUBCHEM_SHAPE_FINGERPRINT>  (1) 
10062212 137 18266452114665613097
10616163 171 18341054137033835990
10759866 29 18261401078211315030
10967382 1 18341333374564382025
11578080 2 17751612426463645436
12553582 1 18126284387897377267
12788726 201 18059587870886362137
13140716 1 18341046406340727147
13538477 17 18408887373037824310
14178342 30 17909532188788409801
14790565 3 18270701800423053417
16752209 62 18341892931615043305
16945 1 18341905060243971541
1813 80 17243020047529288650
18522853 295 18341899575850270387
18619055 16 18409445920818708573
20510252 161 17988083288073342361
20559304 39 18408323259438325154
20600515 1 17697881363593930736
20645476 183 18187938312708523711
20739085 24 16397217252606597241
21197605 99 13221298510687546106
21501502 16 18341897432403100941
21634736 98 18408045121777901378
23184049 29 18413383250430099522
232386 152 18341888555085618590
2334 1 18126002908530864215
23419403 2 16316036314796850770
23463225 33 18410573955250197497
23559900 14 18131078082569387292
23598291 2 17970078746629601812
2748010 2 17551786345543810785
34934 24 18199186376526612925
474 4 17678188298233155740
6992083 37 18047755888725627600
7364860 26 18410855473635828856
74978 22 18409733941262190444
90525 40 18266745688206526345
9981440 41 17827922051025183872

>  <PUBCHEM_SHAPE_MULTIPOLES>  (1) 
356.45
6.08
2.92
1.11
2.04
0.62
-0.08
0.96
0.03
-0.32
0.16
-1.03
0.22
-1.33

>  <PUBCHEM_SHAPE_SELFOVERLAP>  (1) 
776.155

>  <PUBCHEM_SHAPE_VOLUME>  (1) 
192.1

>  <PUBCHEM_COORDINATE_TYPE>  (1) 
2
5
10

$$$$
