11899
     RDKit          3D

 11 11  0  0  0  0  0  0  0  0999 V2000
    0.9406   -2.4421    0.0012 Cl  0  0  0  0  0  0  0  0  0  0  0  0
   -3.8558   -0.0111   -0.0004 Cl  0  0  0  0  0  0  0  0  0  0  0  0
    2.5631    1.5564   -0.0002 O   0  0  0  0  0  0  0  0  0  0  0  0
    2.7668   -0.6293   -0.0005 O   0  0  0  0  0  0  0  0  0  0  0  0
    2.0633    0.4075   -0.0004 N   0  0  0  0  0  0  0  0  0  0  0  0
    0.6457    0.2754    0.0001 C   0  0  0  0  0  0  0  0  0  0  0  0
    0.0267   -0.9747   -0.0005 C   0  0  0  0  0  0  0  0  0  0  0  0
   -0.1273    1.4365    0.0007 C   0  0  0  0  0  0  0  0  0  0  0  0
   -1.3654   -1.0637   -0.0006 C   0  0  0  0  0  0  0  0  0  0  0  0
   -1.5192    1.3475    0.0006 C   0  0  0  0  0  0  0  0  0  0  0  0
   -2.1384    0.0975   -0.0001 C   0  0  0  0  0  0  0  0  0  0  0  0
  1  7  1  0
  2 11  1  0
  3  5  1  0
  4  5  2  0
  5  6  1  0
  6  7  2  0
  6  8  1  0
  7  9  1  0
  8 10  2  0
  9 11  2  0
 10 11  1  0
M  CHG  2   3  -1   5   1
M  END
>  <PUBCHEM_COMPOUND_CID>  (1) 
11899

>  <PUBCHEM_CONFORMER_RMSD>  (1) 
0.4

>  <PUBCHEM_CONFORMER_DIVERSEORDER>  (1) 
1

>  <PUBCHEM_MMFF94_PARTIAL_CHARGES>  (1) 
14
1 -0.18
10 -0.15
11 0.18
12 0.15
13 0.15
14 0.15
2 -0.18
3 -0.52
4 -0.52
5 0.91
6 0.13
7 0.18
8 -0.15
9 -0.15

>  <PUBCHEM_EFFECTIVE_ROTOR_COUNT>  (1) 
1

>  <PUBCHEM_PHARMACOPHORE_FEATURES>  (1) 
4
1 3 acceptor
1 3 anion
1 4 acceptor
6 6 7 8 9 10 11 rings

>  <PUBCHEM_HEAVY_ATOM_COUNT>  (1) 
11

>  <PUBCHEM_ATOM_DEF_STEREO_COUNT>  (1) 
0

>  <PUBCHEM_ATOM_UDEF_STEREO_COUNT>  (1) 
0

>  <PUBCHEM_BOND_DEF_STEREO_COUNT>  (1) 
0

>  <PUBCHEM_BOND_UDEF_STEREO_COUNT>  (1) 
0

>  <PUBCHEM_ISOTOPIC_ATOM_COUNT>  (1) 
0

>  <PUBCHEM_COMPONENT_COUNT>  (1) 
1

>  <PUBCHEM_CACTVS_TAUTO_COUNT>  (1) 
1

>  <PUBCHEM_CONFORMER_ID>  (1) 
00002E7B00000001

>  <PUBCHEM_MMFF94_ENERGY>  (1) 
35.9215

>  <PUBCHEM_FEATURE_SELFOVERLAP>  (1) 
20.379

>  <PUBCHEM_SHAPE_FINGERPRINT>  (1) 
10219947 1 18408325510069844337
11471102 20 18410569587658945085
12032990 46 18410019831671087547
12897270 3 18409729538915339829
13380535 76 18408882953696175539
14325111 11 18410575106433522377
161256 15 18266465308351673655
16945 1 18410575041829547943
19021347 11 18409446947163054395
193761 8 17906453225497094597
20201158 50 18335702711162765923
20645476 183 17751376185776015014
20645477 70 18339918200637735847
21040471 1 18266740362536769476
21501502 16 18122628253963027393
23235685 24 18408880767610250945
23402655 69 18267848503651181821
23463225 33 18335417937408409922
23552423 10 18263930929738890767
241688 4 17545320778711095730
2748010 2 18193842762879164583
369184 2 18412261761317545753
5084963 1 18201719526799542808
528862 383 18335132047242502147
528886 8 18339356469721407083
7364860 26 18270679753748741462

>  <PUBCHEM_SHAPE_MULTIPOLES>  (1) 
213.39
4.39
2.01
0.6
1.96
0.65
0
-0.38
0
-0.99
0
0.07
0.03
0

>  <PUBCHEM_SHAPE_SELFOVERLAP>  (1) 
431.63

>  <PUBCHEM_SHAPE_VOLUME>  (1) 
126.9

>  <PUBCHEM_COORDINATE_TYPE>  (1) 
2
5
10

$$$$
