11905
     RDKit          3D

  9  9  0  0  0  0  0  0  0  0999 V2000
    2.8915   -0.7923   -0.9101 Br  0  0  0  0  0  0  0  0  0  0  0  0
    0.8671    2.3659    0.1285 Cl  0  0  0  0  0  0  0  0  0  0  0  0
    0.4130   -0.3126    0.3458 C   0  0  0  0  0  0  0  0  0  0  0  0
   -0.1157    0.9483    0.0689 C   0  0  0  0  0  0  0  0  0  0  0  0
   -0.4064   -1.4401    0.2894 C   0  0  0  0  0  0  0  0  0  0  0  0
    1.8516   -0.4978    0.7061 C   0  0  0  0  0  0  0  0  0  0  0  0
   -1.4637    1.0814   -0.2643 C   0  0  0  0  0  0  0  0  0  0  0  0
   -1.7544   -1.3067   -0.0437 C   0  0  0  0  0  0  0  0  0  0  0  0
   -2.2831   -0.0461   -0.3205 C   0  0  0  0  0  0  0  0  0  0  0  0
  1  6  1  0
  2  4  1  0
  3  4  2  0
  3  5  1  0
  3  6  1  0
  4  7  1  0
  5  8  2  0
  7  9  2  0
  8  9  1  0
M  END
>  <PUBCHEM_COMPOUND_CID>  (1) 
11905

>  <PUBCHEM_CONFORMER_RMSD>  (1) 
0.4

>  <PUBCHEM_CONFORMER_DIVERSEORDER>  (1) 
1
3
2

>  <PUBCHEM_MMFF94_PARTIAL_CHARGES>  (1) 
13
1 -0.23
10 0.15
13 0.15
14 0.15
15 0.15
2 -0.18
3 -0.14
4 0.18
5 -0.15
6 0.37
7 -0.15
8 -0.15
9 -0.15

>  <PUBCHEM_EFFECTIVE_ROTOR_COUNT>  (1) 
1

>  <PUBCHEM_PHARMACOPHORE_FEATURES>  (1) 
2
1 1 hydrophobe
6 3 4 5 7 8 9 rings

>  <PUBCHEM_HEAVY_ATOM_COUNT>  (1) 
9

>  <PUBCHEM_ATOM_DEF_STEREO_COUNT>  (1) 
0

>  <PUBCHEM_ATOM_UDEF_STEREO_COUNT>  (1) 
0

>  <PUBCHEM_BOND_DEF_STEREO_COUNT>  (1) 
0

>  <PUBCHEM_BOND_UDEF_STEREO_COUNT>  (1) 
0

>  <PUBCHEM_ISOTOPIC_ATOM_COUNT>  (1) 
0

>  <PUBCHEM_COMPONENT_COUNT>  (1) 
1

>  <PUBCHEM_CACTVS_TAUTO_COUNT>  (1) 
1

>  <PUBCHEM_CONFORMER_ID>  (1) 
00002E8100000001

>  <PUBCHEM_MMFF94_ENERGY>  (1) 
19.5369

>  <PUBCHEM_FEATURE_SELFOVERLAP>  (1) 
10.148

>  <PUBCHEM_SHAPE_FINGERPRINT>  (1) 
11206711 2 18262504915018890309
12524768 44 18194116545548297063
12716758 59 18196092132047380358
12897270 3 18340212886501150318
14128692 85 18339647840218358710
15310529 11 16588307137779164995
161256 15 18119818164082501635
16714656 1 18338518525749335518
16945 1 18408877421793797683
18185500 45 18262505988444300243
20653085 51 16806467824294985942
20711978 78 17985821772858627109
21040471 1 17977371746847276265
23211744 25 17968383441285643202
23552423 10 18116710914036264342
2748010 2 18191296289965394015
29004967 10 16630516315607243698
5084963 1 18202559605338945675

>  <PUBCHEM_SHAPE_MULTIPOLES>  (1) 
193.03
3.38
2.03
0.84
1.45
1.14
-0.05
-1.1
-0.92
0.05
0.08
0.36
-0.1
0.22

>  <PUBCHEM_SHAPE_SELFOVERLAP>  (1) 
373.251

>  <PUBCHEM_SHAPE_VOLUME>  (1) 
118.7

>  <PUBCHEM_COORDINATE_TYPE>  (1) 
2
5
10

$$$$
