11908
     RDKit          3D

  9  9  0  0  0  0  0  0  0  0999 V2000
    2.8831    0.7507   -0.0121 O   0  0  0  0  0  0  0  0  0  0  0  0
    1.9375   -0.2420    0.0091 N   0  0  0  0  0  0  0  0  0  0  0  0
   -0.3806   -1.0054    0.0001 C   0  0  0  0  0  0  0  0  0  0  0  0
    0.5523    0.0317    0.0048 C   0  0  0  0  0  0  0  0  0  0  0  0
   -1.7452   -0.7160   -0.0042 C   0  0  0  0  0  0  0  0  0  0  0  0
    0.1204    1.3581    0.0053 C   0  0  0  0  0  0  0  0  0  0  0  0
    0.0534   -2.4351   -0.0006 C   0  0  0  0  0  0  0  0  0  0  0  0
   -2.1768    0.6105   -0.0037 C   0  0  0  0  0  0  0  0  0  0  0  0
   -1.2441    1.6475    0.0011 C   0  0  0  0  0  0  0  0  0  0  0  0
  1  2  1  0
  2  4  1  0
  3  4  2  0
  3  5  1  0
  3  7  1  0
  4  6  1  0
  5  8  2  0
  6  9  2  0
  8  9  1  0
M  END
>  <PUBCHEM_COMPOUND_CID>  (1) 
11908

>  <PUBCHEM_CONFORMER_RMSD>  (1) 
0.4

>  <PUBCHEM_CONFORMER_DIVERSEORDER>  (1) 
1
3
2
4

>  <PUBCHEM_MMFF94_PARTIAL_CHARGES>  (1) 
15
1 -0.38
10 0.15
11 0.15
15 0.15
16 0.15
17 0.4
18 0.4
2 -0.52
3 -0.14
4 0.1
5 -0.15
6 -0.15
7 0.14
8 -0.15
9 -0.15

>  <PUBCHEM_EFFECTIVE_ROTOR_COUNT>  (1) 
1

>  <PUBCHEM_PHARMACOPHORE_FEATURES>  (1) 
2
1 1 anion
6 3 4 5 6 8 9 rings

>  <PUBCHEM_HEAVY_ATOM_COUNT>  (1) 
9

>  <PUBCHEM_ATOM_DEF_STEREO_COUNT>  (1) 
0

>  <PUBCHEM_ATOM_UDEF_STEREO_COUNT>  (1) 
0

>  <PUBCHEM_BOND_DEF_STEREO_COUNT>  (1) 
0

>  <PUBCHEM_BOND_UDEF_STEREO_COUNT>  (1) 
0

>  <PUBCHEM_ISOTOPIC_ATOM_COUNT>  (1) 
0

>  <PUBCHEM_COMPONENT_COUNT>  (1) 
1

>  <PUBCHEM_CACTVS_TAUTO_COUNT>  (1) 
1

>  <PUBCHEM_CONFORMER_ID>  (1) 
00002E8400000001

>  <PUBCHEM_MMFF94_ENERGY>  (1) 
27.8362

>  <PUBCHEM_FEATURE_SELFOVERLAP>  (1) 
10.148

>  <PUBCHEM_SHAPE_FINGERPRINT>  (1) 
16714656 1 18410576218539752292
16945 1 18410855503162295745
18185500 45 17114667873995640023
193761 8 17906453225560300673
20871998 184 18055923331558458942
21040471 1 18410856525311712712
23552423 10 18120377553429108247
241688 4 16321744536696980763
2748010 2 18338238167453475031
5084963 1 18202844344269112264

>  <PUBCHEM_SHAPE_MULTIPOLES>  (1) 
174.37
2.77
2.11
0.6
1.2
0.95
0
-0.98
0.01
0
0
-0.05
0.01
0

>  <PUBCHEM_SHAPE_SELFOVERLAP>  (1) 
357.51

>  <PUBCHEM_SHAPE_VOLUME>  (1) 
101.6

>  <PUBCHEM_COORDINATE_TYPE>  (1) 
2
5
10

$$$$
