11904
     RDKit          3D

  9  9  0  0  0  0  0  0  0  0999 V2000
    0.3432    1.0027   -0.0048 C   0  0  0  0  0  0  0  0  0  0  0  0
   -0.5325   -0.0791   -0.0973 C   0  0  0  0  0  0  0  0  0  0  0  0
    1.7178    0.7818    0.0827 C   0  0  0  0  0  0  0  0  0  0  0  0
   -0.0336   -1.3818   -0.1026 C   0  0  0  0  0  0  0  0  0  0  0  0
   -0.1555    2.4120    0.0037 C   0  0  0  0  0  0  0  0  0  0  0  0
    2.2166   -0.5208    0.0772 C   0  0  0  0  0  0  0  0  0  0  0  0
    1.3410   -1.6025   -0.0153 C   0  0  0  0  0  0  0  0  0  0  0  0
   -1.9731    0.1186   -0.1899 C   0  0  0  0  0  0  0  0  0  0  0  0
   -2.9237   -0.7309    0.2464 C   0  0  0  0  0  0  0  0  0  0  0  0
  1  2  2  0
  1  3  1  0
  1  5  1  0
  2  4  1  0
  2  8  1  0
  3  6  2  0
  4  7  2  0
  6  7  1  0
  8  9  2  0
M  END
>  <PUBCHEM_COMPOUND_CID>  (1) 
11904

>  <PUBCHEM_CONFORMER_RMSD>  (1) 
0.4

>  <PUBCHEM_CONFORMER_DIVERSEORDER>  (1) 
1
3
2

>  <PUBCHEM_MMFF94_PARTIAL_CHARGES>  (1) 
16
1 -0.14
10 0.15
11 0.15
15 0.15
16 0.15
17 0.15
18 0.15
19 0.15
2 0.03
3 -0.15
4 -0.15
5 0.14
6 -0.15
7 -0.15
8 -0.18
9 -0.3

>  <PUBCHEM_EFFECTIVE_ROTOR_COUNT>  (1) 
1

>  <PUBCHEM_PHARMACOPHORE_FEATURES>  (1) 
2
1 9 hydrophobe
6 1 2 3 4 6 7 rings

>  <PUBCHEM_HEAVY_ATOM_COUNT>  (1) 
9

>  <PUBCHEM_ATOM_DEF_STEREO_COUNT>  (1) 
0

>  <PUBCHEM_ATOM_UDEF_STEREO_COUNT>  (1) 
0

>  <PUBCHEM_BOND_DEF_STEREO_COUNT>  (1) 
0

>  <PUBCHEM_BOND_UDEF_STEREO_COUNT>  (1) 
0

>  <PUBCHEM_ISOTOPIC_ATOM_COUNT>  (1) 
0

>  <PUBCHEM_COMPONENT_COUNT>  (1) 
1

>  <PUBCHEM_CACTVS_TAUTO_COUNT>  (1) 
1

>  <PUBCHEM_CONFORMER_ID>  (1) 
00002E8000000001

>  <PUBCHEM_MMFF94_ENERGY>  (1) 
26.3577

>  <PUBCHEM_FEATURE_SELFOVERLAP>  (1) 
10.148

>  <PUBCHEM_SHAPE_FINGERPRINT>  (1) 
10857977 72 18410281510805849659
161256 15 18342741767360374860
16945 1 18411696620914842830
18185500 45 18341608243591319111
193761 8 17906452121690447574
21040471 1 17906733957370584052
23552423 10 18044946675065805286
241688 4 18266182725252256304
2748010 2 18339356366457608180
29004967 10 18408886234882027379
5084963 1 18129664252233871707

>  <PUBCHEM_SHAPE_MULTIPOLES>  (1) 
185.22
3.12
2.03
0.63
1.6
0.91
0
-0.97
-0.21
-0.32
0
0.03
-0.01
0.07

>  <PUBCHEM_SHAPE_SELFOVERLAP>  (1) 
381.155

>  <PUBCHEM_SHAPE_VOLUME>  (1) 
103.2

>  <PUBCHEM_COORDINATE_TYPE>  (1) 
2
5
10

$$$$
