1191
     RDKit          3D

 32 34  0  0  1  0  0  0  0  0999 V2000
    3.8355   -1.5368   -1.2328 P   0  0  0  0  0  0  0  0  0  0  0  0
    4.5644    1.2911   -0.8631 P   0  0  0  0  0  0  0  0  0  0  0  0
    2.8714    2.8402    0.9911 P   0  0  0  0  0  0  0  0  0  0  0  0
   -0.0261   -1.2530   -0.0472 O   0  0  0  0  0  0  0  0  0  0  0  0
   -1.9269   -1.1118    2.9655 O   0  0  0  0  0  0  0  0  0  0  0  0
    0.0306   -3.5121    2.7389 O   0  0  0  0  0  0  0  0  0  0  0  0
    2.5041   -2.3110   -0.7364 O   0  0  0  0  0  0  0  0  0  0  0  0
    3.5954    0.0012   -0.8007 O   0  0  0  0  0  0  0  0  0  0  0  0
    4.9912   -2.0313   -0.2144 O   0  0  0  0  0  0  0  0  0  0  0  0
   -6.1402    0.2925   -2.4378 O   0  0  0  0  0  0  0  0  0  0  0  0
    4.1682   -1.7229   -2.6847 O   0  0  0  0  0  0  0  0  0  0  0  0
   -4.9980    2.8726    1.2633 O   0  0  0  0  0  0  0  0  0  0  0  0
    3.5991    2.5059   -0.4127 O   0  0  0  0  0  0  0  0  0  0  0  0
    4.7725    1.5427   -2.4463 O   0  0  0  0  0  0  0  0  0  0  0  0
    5.8338    1.1759   -0.0717 O   0  0  0  0  0  0  0  0  0  0  0  0
    1.9526    4.1203    0.6309 O   0  0  0  0  0  0  0  0  0  0  0  0
    1.7997    1.6423    1.1578 O   0  0  0  0  0  0  0  0  0  0  0  0
    3.8052    3.0315    2.1497 O   0  0  0  0  0  0  0  0  0  0  0  0
   -2.3289   -0.7438   -0.2338 N   0  0  0  0  0  0  0  0  0  0  0  0
   -3.5790    1.1507    0.6785 N   0  0  0  0  0  0  0  0  0  0  0  0
   -3.6738   -1.2672   -1.9465 N   0  0  0  0  0  0  0  0  0  0  0  0
   -5.5592    1.5805   -0.5804 N   0  0  0  0  0  0  0  0  0  0  0  0
   -1.3907   -1.7818    1.8381 C   0  0  0  0  0  0  0  0  0  0  0  0
    0.0243   -2.2537    2.0923 C   0  0  0  0  0  0  0  0  0  0  0  0
   -1.1900   -0.8134    0.6793 C   0  0  0  0  0  0  0  0  0  0  0  0
    0.5777   -2.3370    0.6792 C   0  0  0  0  0  0  0  0  0  0  0  0
    2.0892   -2.2102    0.6153 C   0  0  0  0  0  0  0  0  0  0  0  0
   -3.3657    0.1339   -0.2069 C   0  0  0  0  0  0  0  0  0  0  0  0
   -2.5604   -1.5731   -1.3061 C   0  0  0  0  0  0  0  0  0  0  0  0
   -4.1744   -0.1995   -1.2567 C   0  0  0  0  0  0  0  0  0  0  0  0
   -5.3762    0.5434   -1.5133 C   0  0  0  0  0  0  0  0  0  0  0  0
   -4.7253    1.9339    0.5118 C   0  0  0  0  0  0  0  0  0  0  0  0
  1  7  1  0
  1  8  1  0
  1  9  1  0
  1 11  2  0
  2  8  1  0
  2 13  1  0
  2 14  1  0
  2 15  2  0
  3 13  1  0
  3 16  1  0
  3 17  1  0
  3 18  2  0
  4 25  1  0
  4 26  1  0
  5 23  1  0
  6 24  1  0
  7 27  1  0
 10 31  2  0
 12 32  2  0
 19 25  1  0
 19 28  1  0
 19 29  1  0
 20 28  1  0
 20 32  1  0
 21 29  2  0
 21 30  1  0
 22 31  1  0
 22 32  1  0
 23 24  1  0
 23 25  1  0
 24 26  1  0
 26 27  1  0
 28 30  2  0
 30 31  1  0
M  END
>  <PUBCHEM_COMPOUND_CID>  (1) 
1191

>  <PUBCHEM_CONFORMER_RMSD>  (1) 
1.6

>  <PUBCHEM_CONFORMER_DIVERSEORDER>  (1) 
1
20
145
130
124
160
123
179
74
28
42
173
125
82
24
102
56
97
152
45
27
175
41
118
9
73
144
17
25
15
116
6
165
26
178
34
146
89
31
181
53
3
162
170
184
50
149
176
168
2
57
92
30
29
113
100
122
93
77
177
182
65
103
55
133
40
86
54
58
21
120
44
10
135
18
81
185
121
104
169
13
119
164
84
39
33
66
68
108
19
63
161
171
70
11
79
131
23
106
62
87
90
186
80
151
99
110
158
48
107
32
36
156
5
61
112
98
91
60
8
59
150
67
12
37
88
163
142
180
159
78
132
94
38
7
105
4
69
155
16
143
138
47
35
85
52
64
154
49
43
115
148
174
111
126
157
46
153
129
51
136
71
14
137
141
166
101
172
83
75
72
128
167
140
139
134
183
96
22
117
114
127
95
147
76
109

>  <PUBCHEM_MMFF94_PARTIAL_CHARGES>  (1) 
41
1 1.51
10 -0.57
11 -0.7
12 -0.57
13 -0.54
14 -0.77
15 -0.7
16 -0.77
17 -0.77
18 -0.7
19 0.05
2 1.51
20 -0.49
21 -0.57
22 -0.49
23 0.28
24 0.28
25 0.54
26 0.28
27 0.28
28 -0.09
29 0.04
3 1.51
30 0.14
31 0.72
32 0.69
39 0.4
4 -0.56
40 0.4
41 0.15
42 0.37
43 0.37
44 0.5
45 0.5
46 0.5
47 0.5
5 -0.68
6 -0.68
7 -0.55
8 -0.54
9 -0.77

>  <PUBCHEM_EFFECTIVE_ROTOR_COUNT>  (1) 
9

>  <PUBCHEM_PHARMACOPHORE_FEATURES>  (1) 
21
1 10 acceptor
1 11 acceptor
1 12 acceptor
1 14 acceptor
1 15 acceptor
1 16 acceptor
1 17 acceptor
1 18 acceptor
1 20 donor
1 22 donor
1 4 acceptor
1 5 acceptor
1 5 donor
1 6 acceptor
1 6 donor
1 9 acceptor
3 19 21 29 cation
4 3 16 17 18 anion
5 19 21 28 29 30 rings
5 4 23 24 25 26 rings
6 20 22 28 30 31 32 rings

>  <PUBCHEM_HEAVY_ATOM_COUNT>  (1) 
32

>  <PUBCHEM_ATOM_DEF_STEREO_COUNT>  (1) 
0

>  <PUBCHEM_ATOM_UDEF_STEREO_COUNT>  (1) 
4

>  <PUBCHEM_BOND_DEF_STEREO_COUNT>  (1) 
0

>  <PUBCHEM_BOND_UDEF_STEREO_COUNT>  (1) 
0

>  <PUBCHEM_ISOTOPIC_ATOM_COUNT>  (1) 
0

>  <PUBCHEM_COMPONENT_COUNT>  (1) 
1

>  <PUBCHEM_CACTVS_TAUTO_COUNT>  (1) 
6

>  <PUBCHEM_CONFORMER_ID>  (1) 
000004A700000001

>  <PUBCHEM_MMFF94_ENERGY>  (1) 
-9.5102

>  <PUBCHEM_FEATURE_SELFOVERLAP>  (1) 
106.804

>  <PUBCHEM_SHAPE_FINGERPRINT>  (1) 
10074138 170 15937273225219846227
10319926 262 13768208229671837235
13761468 95 16895134988843709716
14848178 96 18187366540628363460
14932701 244 18192149519727052943
14950920 106 12252995504576784460
15183329 4 17918274242622016933
21033648 29 18040997405513578418
22122407 14 17755588144825166993
23559900 14 17130687428296154967
238 59 18057608861862566598
2838139 119 18263647264545130615
354706 35 17550374580882505932
4371632 12 17771906301160026824
437795 51 18334587832685194337
474 4 18189313763305634577
9981440 41 17838039765186320456

>  <PUBCHEM_SHAPE_MULTIPOLES>  (1) 
562.13
13.4
4.16
2.55
4.44
1.86
-0.28
8.35
7.9
-3.54
-2.47
0.24
-1.03
0.87

>  <PUBCHEM_SHAPE_SELFOVERLAP>  (1) 
1145.83

>  <PUBCHEM_SHAPE_VOLUME>  (1) 
327.8

>  <PUBCHEM_COORDINATE_TYPE>  (1) 
2
5
10

$$$$
