11927
     RDKit          3D

 11 12  0  0  0  0  0  0  0  0999 V2000
    1.2969    1.4916    0.0000 N   0  0  0  0  0  0  0  0  0  0  0  0
    0.4739   -0.7733    0.0000 C   0  0  0  0  0  0  0  0  0  0  0  0
    0.2686    0.6223   -0.0001 C   0  0  0  0  0  0  0  0  0  0  0  0
   -2.1325    0.2182   -0.0001 C   0  0  0  0  0  0  0  0  0  0  0  0
   -1.0420    1.0915   -0.0001 C   0  0  0  0  0  0  0  0  0  0  0  0
   -0.6228   -1.6519    0.0000 C   0  0  0  0  0  0  0  0  0  0  0  0
   -1.9231   -1.1553    0.0000 C   0  0  0  0  0  0  0  0  0  0  0  0
    1.7931   -1.2461    0.0000 C   0  0  0  0  0  0  0  0  0  0  0  0
   -3.5218    0.7615    0.0002 C   0  0  0  0  0  0  0  0  0  0  0  0
    2.8547   -0.3528    0.0001 C   0  0  0  0  0  0  0  0  0  0  0  0
    2.5549    0.9944    0.0000 C   0  0  0  0  0  0  0  0  0  0  0  0
  1  3  2  0
  1 11  1  0
  2  3  1  0
  2  6  1  0
  2  8  2  0
  3  5  1  0
  4  5  2  0
  4  7  1  0
  4  9  1  0
  6  7  2  0
  8 10  1  0
 10 11  2  0
M  END
>  <PUBCHEM_COMPOUND_CID>  (1) 
11927

>  <PUBCHEM_CONFORMER_RMSD>  (1) 
0.4

>  <PUBCHEM_CONFORMER_DIVERSEORDER>  (1) 
1

>  <PUBCHEM_MMFF94_PARTIAL_CHARGES>  (1) 
16
1 -0.62
10 -0.15
11 0.16
12 0.15
13 0.15
14 0.15
15 0.15
19 0.15
20 0.15
3 0.31
4 -0.14
5 -0.15
6 -0.15
7 -0.15
8 -0.15
9 0.14

>  <PUBCHEM_EFFECTIVE_ROTOR_COUNT>  (1) 
0

>  <PUBCHEM_PHARMACOPHORE_FEATURES>  (1) 
3
1 1 acceptor
6 1 2 3 8 10 11 rings
6 2 3 4 5 6 7 rings

>  <PUBCHEM_HEAVY_ATOM_COUNT>  (1) 
11

>  <PUBCHEM_ATOM_DEF_STEREO_COUNT>  (1) 
0

>  <PUBCHEM_ATOM_UDEF_STEREO_COUNT>  (1) 
0

>  <PUBCHEM_BOND_DEF_STEREO_COUNT>  (1) 
0

>  <PUBCHEM_BOND_UDEF_STEREO_COUNT>  (1) 
0

>  <PUBCHEM_ISOTOPIC_ATOM_COUNT>  (1) 
0

>  <PUBCHEM_COMPONENT_COUNT>  (1) 
1

>  <PUBCHEM_CACTVS_TAUTO_COUNT>  (1) 
1

>  <PUBCHEM_CONFORMER_ID>  (1) 
00002E9700000001

>  <PUBCHEM_MMFF94_ENERGY>  (1) 
31.4522

>  <PUBCHEM_FEATURE_SELFOVERLAP>  (1) 
15.254

>  <PUBCHEM_SHAPE_FINGERPRINT>  (1) 
11471102 20 18338230462683137589
12524768 44 18411986823260045182
12932764 1 17313375725545396007
13380535 76 18411416215406432167
14325111 11 18410855477540282465
15775835 57 18408046216556738004
16945 1 18410575054619439334
17844478 74 17967823730001365441
193761 8 17834394901298791653
19973954 147 18337956812746359010
20201158 50 18412825754979720534
21040471 1 18338799025821081058
21501502 16 18338232785864831726
23235685 24 18411975849713419369
23402655 69 18341600479103007061
23463225 33 18335417916134130962
23552423 10 18189335830457386198
23559900 14 18342747321686811004
241688 4 17260194293819993354
2748010 2 18338800146723194871
369184 2 18410291436485767987
5084963 1 18201997677376581843
528886 8 18411414012040385907
53812653 166 18342733044245075000
63268167 104 18411704257371976593

>  <PUBCHEM_SHAPE_MULTIPOLES>  (1) 
221.39
4.47
1.65
0.61
1.07
0.2
0
-0.85
0
-0.1
0
0.01
0.01
0

>  <PUBCHEM_SHAPE_SELFOVERLAP>  (1) 
484.681

>  <PUBCHEM_SHAPE_VOLUME>  (1) 
120.2

>  <PUBCHEM_COORDINATE_TYPE>  (1) 
2
5
10

$$$$
