1192
     RDKit          3D

 18 17  0  0  1  0  0  0  0  0999 V2000
   -4.6469   -0.8781   -0.0130 P   0  0  0  0  0  0  0  0  0  0  0  0
    4.5587   -0.9695   -0.0167 P   0  0  0  0  0  0  0  0  0  0  0  0
   -0.8789    0.4928   -1.5281 O   0  0  0  0  0  0  0  0  0  0  0  0
   -3.0703   -0.7166   -0.3268 O   0  0  0  0  0  0  0  0  0  0  0  0
   -0.6272    2.6315    0.3546 O   0  0  0  0  0  0  0  0  0  0  0  0
    3.5189    0.2650   -0.1667 O   0  0  0  0  0  0  0  0  0  0  0  0
    1.8876    2.3628   -0.4357 O   0  0  0  0  0  0  0  0  0  0  0  0
   -5.2469    0.5995   -0.2816 O   0  0  0  0  0  0  0  0  0  0  0  0
   -4.6770   -1.0041    1.5989 O   0  0  0  0  0  0  0  0  0  0  0  0
   -5.3318   -1.9923   -0.7489 O   0  0  0  0  0  0  0  0  0  0  0  0
    3.7651   -2.2193   -0.6673 O   0  0  0  0  0  0  0  0  0  0  0  0
    4.5197   -1.2887    1.5682 O   0  0  0  0  0  0  0  0  0  0  0  0
    5.9268   -0.7154   -0.5786 O   0  0  0  0  0  0  0  0  0  0  0  0
   -0.8943    0.2793   -0.1141 C   0  0  0  0  0  0  0  0  0  0  0  0
   -0.0527    1.3531    0.5841 C   0  0  0  0  0  0  0  0  0  0  0  0
   -2.3535    0.3207    0.3357 C   0  0  0  0  0  0  0  0  0  0  0  0
    1.3953    1.3692    0.0999 C   0  0  0  0  0  0  0  0  0  0  0  0
    2.2075    0.1101    0.3362 C   0  0  0  0  0  0  0  0  0  0  0  0
  1  4  1  0
  1  8  1  0
  1  9  1  0
  1 10  2  0
  2  6  1  0
  2 11  1  0
  2 12  1  0
  2 13  2  0
  3 14  1  0
  4 16  1  0
  5 15  1  0
  6 18  1  0
  7 17  2  0
 14 15  1  0
 14 16  1  0
 15 17  1  0
 17 18  1  0
M  END
>  <PUBCHEM_COMPOUND_CID>  (1) 
1192

>  <PUBCHEM_CONFORMER_RMSD>  (1) 
1

>  <PUBCHEM_CONFORMER_DIVERSEORDER>  (1) 
1
691
7
767
444
398
28
434
15
720
58
510
572
34
440
364
107
591
350
655
44
3
5
734
92
305
285
409
759
75
342
20
421
70
580
208
663
152
414
635
332
26
740
299
87
19
411
157
153
270
602
24
10
27
352
125
91
64
216
138
105
33
470
18
711
562
6
446
198
706
273
225
594
438
518
574
2
729
122
194
78
9
321
553
12
109
475
412
480
93
672
53
96
98
237
293
755
530
374
533
257
448
465
94
188
701
40
148
72
246
467
99
278
242
582
169
375
243
400
536
97
145
611
241
449
338
453
476
29
503
393
454
383
197
455
489
233
171
221
80
196
137
86

>  <PUBCHEM_MMFF94_PARTIAL_CHARGES>  (1) 
24
1 1.51
10 -0.7
11 -0.77
12 -0.77
13 -0.7
14 0.28
15 0.34
16 0.28
17 0.45
18 0.34
2 1.51
25 0.4
26 0.4
27 0.5
28 0.5
29 0.5
3 -0.68
30 0.5
4 -0.55
5 -0.68
6 -0.55
7 -0.57
8 -0.77
9 -0.77

>  <PUBCHEM_EFFECTIVE_ROTOR_COUNT>  (1) 
8

>  <PUBCHEM_PHARMACOPHORE_FEATURES>  (1) 
13
1 10 acceptor
1 11 acceptor
1 12 acceptor
1 13 acceptor
1 3 acceptor
1 3 donor
1 5 acceptor
1 5 donor
1 7 acceptor
1 8 acceptor
1 9 acceptor
4 1 8 9 10 anion
4 2 11 12 13 anion

>  <PUBCHEM_HEAVY_ATOM_COUNT>  (1) 
18

>  <PUBCHEM_ATOM_DEF_STEREO_COUNT>  (1) 
0

>  <PUBCHEM_ATOM_UDEF_STEREO_COUNT>  (1) 
2

>  <PUBCHEM_BOND_DEF_STEREO_COUNT>  (1) 
0

>  <PUBCHEM_BOND_UDEF_STEREO_COUNT>  (1) 
0

>  <PUBCHEM_ISOTOPIC_ATOM_COUNT>  (1) 
0

>  <PUBCHEM_COMPONENT_COUNT>  (1) 
1

>  <PUBCHEM_CACTVS_TAUTO_COUNT>  (1) 
4

>  <PUBCHEM_CONFORMER_ID>  (1) 
000004A800000001

>  <PUBCHEM_MMFF94_ENERGY>  (1) 
-42.9095

>  <PUBCHEM_FEATURE_SELFOVERLAP>  (1) 
66.066

>  <PUBCHEM_SHAPE_FINGERPRINT>  (1) 
100836 57 9799688216738984330
11128504 68 14562535084709485911
12596602 18 16702020902341009618
12839892 36 16845294981818366159
13740256 8 18411420639196106927
13955234 65 18122345937020506432
14123256 34 18341059583063105158
1420 369 18343302561113872826
14251731 8 18334854992045394125
14251732 14 15213592255592913139
14251752 14 17096075884057634269
14251758 9 18202280269583132561
14252887 29 18341327872753565216
14528608 73 10737282459315556011
14576447 43 18333450924671683098
15188451 53 16845001433957637423
15342816 4 18187930513527890334
15885798 251 18413107264316247505
17834072 8 18259979358654061693
17959699 21 11169916086651584702
18222031 100 18413385445232091434
193927 3 18335711537025095259
19784866 240 18413114956523293476
20374829 77 18334571330740289187
20388580 30 18333733541656280276
20645477 70 18335697303513876229
20871999 31 16732978708919595453
23016692 55 18341622499083478190
23402539 116 18131911559949797101
23559900 14 18336542819329272049
2767999 5 9367344812611149194
2838139 119 8502374403902472578
3004659 81 18260547831655792102
328317 168 8430596111455389075
351380 3 18412824685865413598
4259306 186 18040711463475844755
465052 167 18271250511746952991
5104073 3 17916311700766624803
59682541 35 18200302343228732784
8863177 126 17897739875363171563

>  <PUBCHEM_SHAPE_MULTIPOLES>  (1) 
313.57
12.9
2.16
1.03
1.71
0.59
-0.18
-9.29
-0.11
-0.49
0.1
0.12
-0.25
-0.17

>  <PUBCHEM_SHAPE_SELFOVERLAP>  (1) 
581.268

>  <PUBCHEM_SHAPE_VOLUME>  (1) 
196.9

>  <PUBCHEM_COORDINATE_TYPE>  (1) 
2
5
10

$$$$
