11922
     RDKit          3D

 11 11  0  0  0  0  0  0  0  0999 V2000
    1.2006   -2.5050    0.0004 O   0  0  0  0  0  0  0  0  0  0  0  0
    2.2552   -0.5796   -0.0008 O   0  0  0  0  0  0  0  0  0  0  0  0
    1.1982   -1.2522   -0.0001 N   0  0  0  0  0  0  0  0  0  0  0  0
    2.0246    2.2823    0.0006 N   0  0  0  0  0  0  0  0  0  0  0  0
   -0.0508   -0.5681   -0.0001 C   0  0  0  0  0  0  0  0  0  0  0  0
   -0.1177    0.8252   -0.0004 C   0  0  0  0  0  0  0  0  0  0  0  0
   -1.2241   -1.3226    0.0002 C   0  0  0  0  0  0  0  0  0  0  0  0
   -1.3579    1.4638   -0.0003 C   0  0  0  0  0  0  0  0  0  0  0  0
   -2.4642   -0.6841    0.0002 C   0  0  0  0  0  0  0  0  0  0  0  0
   -2.5310    0.7091    0.0000 C   0  0  0  0  0  0  0  0  0  0  0  0
    1.0671    1.6311    0.0002 C   0  0  0  0  0  0  0  0  0  0  0  0
  1  3  1  0
  2  3  2  0
  3  5  1  0
  4 11  3  0
  5  6  2  0
  5  7  1  0
  6  8  1  0
  6 11  1  0
  7  9  2  0
  8 10  2  0
  9 10  1  0
M  CHG  2   1  -1   3   1
M  END
>  <PUBCHEM_COMPOUND_CID>  (1) 
11922

>  <PUBCHEM_CONFORMER_RMSD>  (1) 
0.4

>  <PUBCHEM_CONFORMER_DIVERSEORDER>  (1) 
1

>  <PUBCHEM_MMFF94_PARTIAL_CHARGES>  (1) 
15
1 -0.52
10 -0.15
11 0.48
12 0.15
13 0.15
14 0.15
15 0.15
2 -0.52
3 0.91
4 -0.56
5 0.13
6 0.07
7 -0.15
8 -0.15
9 -0.15

>  <PUBCHEM_EFFECTIVE_ROTOR_COUNT>  (1) 
1

>  <PUBCHEM_PHARMACOPHORE_FEATURES>  (1) 
5
1 1 acceptor
1 1 anion
1 2 acceptor
1 4 acceptor
6 5 6 7 8 9 10 rings

>  <PUBCHEM_HEAVY_ATOM_COUNT>  (1) 
11

>  <PUBCHEM_ATOM_DEF_STEREO_COUNT>  (1) 
0

>  <PUBCHEM_ATOM_UDEF_STEREO_COUNT>  (1) 
0

>  <PUBCHEM_BOND_DEF_STEREO_COUNT>  (1) 
0

>  <PUBCHEM_BOND_UDEF_STEREO_COUNT>  (1) 
0

>  <PUBCHEM_ISOTOPIC_ATOM_COUNT>  (1) 
0

>  <PUBCHEM_COMPONENT_COUNT>  (1) 
1

>  <PUBCHEM_CACTVS_TAUTO_COUNT>  (1) 
1

>  <PUBCHEM_CONFORMER_ID>  (1) 
00002E9200000001

>  <PUBCHEM_MMFF94_ENERGY>  (1) 
33.7148

>  <PUBCHEM_FEATURE_SELFOVERLAP>  (1) 
25.456

>  <PUBCHEM_SHAPE_FINGERPRINT>  (1) 
12423570 1 12180661963580330785
16945 1 18410573946718304549
18185500 45 18193559956499547851
193761 8 18410573994094794117
20871998 184 16902444542154785236
21040471 1 17978511167306132160
23552423 10 18409729577675475533
241688 4 17762618386936994763
2748010 2 18193560184106284983
66348 1 18410576171310923341

>  <PUBCHEM_SHAPE_MULTIPOLES>  (1) 
204.67
3.15
2.42
0.58
0.45
0.43
0
-0.53
0
-1.24
0
0.06
-0.03
0

>  <PUBCHEM_SHAPE_SELFOVERLAP>  (1) 
434.246

>  <PUBCHEM_SHAPE_VOLUME>  (1) 
112.5

>  <PUBCHEM_COORDINATE_TYPE>  (1) 
2
5
10

$$$$
