11929
     RDKit          3D

 11 11  0  0  0  0  0  0  0  0999 V2000
    3.1289   -1.1769    0.2656 O   0  0  0  0  0  0  0  0  0  0  0  0
    1.1958   -0.1136    0.1706 N   0  0  0  0  0  0  0  0  0  0  0  0
    1.9003   -1.2924    0.2076 N   0  0  0  0  0  0  0  0  0  0  0  0
    1.8537    1.2148    0.1965 C   0  0  0  0  0  0  0  0  0  0  0  0
   -0.2130   -0.1102    0.1037 C   0  0  0  0  0  0  0  0  0  0  0  0
   -0.9353    0.9402    0.6699 C   0  0  0  0  0  0  0  0  0  0  0  0
   -0.8839   -1.1564   -0.5293 C   0  0  0  0  0  0  0  0  0  0  0  0
    1.5589    2.0046   -1.0619 C   0  0  0  0  0  0  0  0  0  0  0  0
   -2.3286    0.9443    0.6033 C   0  0  0  0  0  0  0  0  0  0  0  0
   -2.2772   -1.1524   -0.5962 C   0  0  0  0  0  0  0  0  0  0  0  0
   -2.9995   -0.1020   -0.0299 C   0  0  0  0  0  0  0  0  0  0  0  0
  1  3  2  0
  2  3  1  0
  2  4  1  0
  2  5  1  0
  4  8  1  0
  5  6  2  0
  5  7  1  0
  6  9  1  0
  7 10  2  0
  9 11  2  0
 10 11  1  0
M  END
>  <PUBCHEM_COMPOUND_CID>  (1) 
11929

>  <PUBCHEM_CONFORMER_RMSD>  (1) 
0.6

>  <PUBCHEM_CONFORMER_DIVERSEORDER>  (1) 
1
7
4
9
8
6
3
5
2

>  <PUBCHEM_MMFF94_PARTIAL_CHARGES>  (1) 
14
1 -0.16
10 -0.15
11 -0.15
14 0.15
15 0.15
19 0.15
2 -0.3
20 0.15
21 0.15
4 0.37
5 0.1
6 -0.15
7 -0.15
9 -0.15

>  <PUBCHEM_EFFECTIVE_ROTOR_COUNT>  (1) 
3

>  <PUBCHEM_PHARMACOPHORE_FEATURES>  (1) 
1
6 5 6 7 9 10 11 rings

>  <PUBCHEM_HEAVY_ATOM_COUNT>  (1) 
11

>  <PUBCHEM_ATOM_DEF_STEREO_COUNT>  (1) 
0

>  <PUBCHEM_ATOM_UDEF_STEREO_COUNT>  (1) 
0

>  <PUBCHEM_BOND_DEF_STEREO_COUNT>  (1) 
0

>  <PUBCHEM_BOND_UDEF_STEREO_COUNT>  (1) 
0

>  <PUBCHEM_ISOTOPIC_ATOM_COUNT>  (1) 
0

>  <PUBCHEM_COMPONENT_COUNT>  (1) 
1

>  <PUBCHEM_CACTVS_TAUTO_COUNT>  (1) 
1

>  <PUBCHEM_CONFORMER_ID>  (1) 
00002E9900000001

>  <PUBCHEM_MMFF94_ENERGY>  (1) 
36.1831

>  <PUBCHEM_FEATURE_SELFOVERLAP>  (1) 
5.074

>  <PUBCHEM_SHAPE_FINGERPRINT>  (1) 
10465860 71 18127716884282002902
12326174 3 17458612458837620448
12423570 1 9105144382246453053
12897270 3 18124879207541782189
12932741 1 16805326625582642417
12932764 1 17916590976187303249
14128692 85 18343018891424503274
14993402 34 18338802204191981790
15775835 57 18270410489216431801
16945 1 18200316498512589671
20645464 45 15482669078595143339
20653085 51 17895183394895733605
207724 885 18337392617236779634
21040471 1 17988368083217579665
23552423 10 18409445925023998543
3248919 1 18115860965999722915
369184 2 18131064952785680835
5084963 1 18411133619653942153
7364860 26 18201438125185611112
8030462 33 18270963578024785085

>  <PUBCHEM_SHAPE_MULTIPOLES>  (1) 
210.54
4.29
1.77
0.86
0.09
0.18
-0.12
-0.5
0.02
0.9
-0.24
0.01
0.22
-0.83

>  <PUBCHEM_SHAPE_SELFOVERLAP>  (1) 
426.713

>  <PUBCHEM_SHAPE_VOLUME>  (1) 
123.5

>  <PUBCHEM_COORDINATE_TYPE>  (1) 
2
5
10

$$$$
