11938
     RDKit          3D

 15 17  0  0  0  0  0  0  0  0999 V2000
   -0.4348    1.4255    0.0000 N   0  0  0  0  0  0  0  0  0  0  0  0
    0.9277   -0.5576    0.0002 C   0  0  0  0  0  0  0  0  0  0  0  0
    0.7781    0.8396    0.0001 C   0  0  0  0  0  0  0  0  0  0  0  0
   -1.4952   -0.7342    0.0001 C   0  0  0  0  0  0  0  0  0  0  0  0
   -0.2333   -1.3373    0.0003 C   0  0  0  0  0  0  0  0  0  0  0  0
   -1.5499    0.6697   -0.0001 C   0  0  0  0  0  0  0  0  0  0  0  0
    2.2086   -1.1369    0.0005 C   0  0  0  0  0  0  0  0  0  0  0  0
    3.3446   -0.3329    0.0006 C   0  0  0  0  0  0  0  0  0  0  0  0
    1.9303    1.6213    0.0001 C   0  0  0  0  0  0  0  0  0  0  0  0
    3.2047    1.0490    0.0004 C   0  0  0  0  0  0  0  0  0  0  0  0
   -2.6784   -1.4934    0.0001 C   0  0  0  0  0  0  0  0  0  0  0  0
   -2.8033    1.2760   -0.0003 C   0  0  0  0  0  0  0  0  0  0  0  0
    4.7012   -0.9508   -0.0015 C   0  0  0  0  0  0  0  0  0  0  0  0
   -3.9191   -0.8628   -0.0001 C   0  0  0  0  0  0  0  0  0  0  0  0
   -3.9813    0.5248   -0.0003 C   0  0  0  0  0  0  0  0  0  0  0  0
  1  3  2  0
  1  6  1  0
  2  3  1  0
  2  5  2  0
  2  7  1  0
  3  9  1  0
  4  5  1  0
  4  6  2  0
  4 11  1  0
  6 12  1  0
  7  8  2  0
  8 10  1  0
  8 13  1  0
  9 10  2  0
 11 14  2  0
 12 15  2  0
 14 15  1  0
M  END
>  <PUBCHEM_COMPOUND_CID>  (1) 
11938

>  <PUBCHEM_CONFORMER_RMSD>  (1) 
0.4

>  <PUBCHEM_CONFORMER_DIVERSEORDER>  (1) 
1

>  <PUBCHEM_MMFF94_PARTIAL_CHARGES>  (1) 
21
1 -0.62
10 -0.15
11 -0.15
12 -0.15
13 0.14
14 -0.15
15 -0.15
16 0.15
17 0.15
18 0.15
19 0.15
20 0.15
21 0.15
25 0.15
26 0.15
3 0.31
5 -0.15
6 0.31
7 -0.15
8 -0.14
9 -0.15

>  <PUBCHEM_EFFECTIVE_ROTOR_COUNT>  (1) 
0

>  <PUBCHEM_PHARMACOPHORE_FEATURES>  (1) 
4
1 1 acceptor
6 1 2 3 4 5 6 rings
6 2 3 7 8 9 10 rings
6 4 6 11 12 14 15 rings

>  <PUBCHEM_HEAVY_ATOM_COUNT>  (1) 
15

>  <PUBCHEM_ATOM_DEF_STEREO_COUNT>  (1) 
0

>  <PUBCHEM_ATOM_UDEF_STEREO_COUNT>  (1) 
0

>  <PUBCHEM_BOND_DEF_STEREO_COUNT>  (1) 
0

>  <PUBCHEM_BOND_UDEF_STEREO_COUNT>  (1) 
0

>  <PUBCHEM_ISOTOPIC_ATOM_COUNT>  (1) 
0

>  <PUBCHEM_COMPONENT_COUNT>  (1) 
1

>  <PUBCHEM_CACTVS_TAUTO_COUNT>  (1) 
1

>  <PUBCHEM_CONFORMER_ID>  (1) 
00002EA200000001

>  <PUBCHEM_MMFF94_ENERGY>  (1) 
46.7698

>  <PUBCHEM_FEATURE_SELFOVERLAP>  (1) 
20.358

>  <PUBCHEM_SHAPE_FINGERPRINT>  (1) 
10062212 137 18412536609249610319
10608611 8 18410852183195144241
10967382 1 18410856538175580551
11132069 177 18411975871103769024
11471102 20 18410570708265523228
12032990 46 18410015454751123395
12251169 10 18411419492418622955
13221675 6 18410009931396884923
13288520 33 18340489976442800214
13296908 3 18410856594004848187
13380535 76 18411700971875346031
13675066 3 18201715167634616642
13690532 89 18409729539115819298
14115302 16 17822303391618887390
14144814 61 18410573989573038617
14325111 11 18410575110512244321
15196674 1 18410574010921313381
15219456 202 18412260670374714616
15375462 189 18041558040432336834
15442244 35 18267022756525789802
15536298 74 18342175600592655720
16945 1 18338797788801960517
17802600 8 18410288112154759077
17804303 29 18411985758155485532
18186145 218 17822284703946949103
18522853 276 18342455941602996376
19422 9 18409171038379238556
200 152 17988636407025483535
20510252 161 18273216387108591817
20645477 70 18413107264363843966
21267235 1 18410582785613696443
21501502 16 18338519745504197413
21501925 9 18411129256135883538
221490 88 18263651825737101938
2255824 54 17967816080838496210
23402539 116 18201711839024302501
23402655 69 18412540994558795965
23463225 33 18408886243477243124
23559900 14 18341891909655640880
2748010 2 18410854403666537837
335352 9 18338516326736538941
4214541 1 18410573963787624801
474 4 16879641599040314020
5104073 3 18411138060402181208
69090 78 18271802441104299991
7364860 26 18269836578960203720
77779 3 18410013255717240372
8809292 202 18260834829554621003
9709674 26 18411705408529284982
9981440 41 17398670589622153128

>  <PUBCHEM_SHAPE_MULTIPOLES>  (1) 
303.71
7.71
1.71
0.61
1.33
0.15
0
-1.13
0
-0.02
0
0
-0.01
0

>  <PUBCHEM_SHAPE_SELFOVERLAP>  (1) 
685.7

>  <PUBCHEM_SHAPE_VOLUME>  (1) 
159.9

>  <PUBCHEM_COORDINATE_TYPE>  (1) 
2
5
10

$$$$
