11947
     RDKit          3D

 18 19  0  0  0  0  0  0  0  0999 V2000
   -1.7607   -1.8109    0.1964 O   0  0  0  0  0  0  0  0  0  0  0  0
    1.7601   -1.8109   -0.1965 O   0  0  0  0  0  0  0  0  0  0  0  0
   -0.3403    0.5860    0.5257 N   0  0  0  0  0  0  0  0  0  0  0  0
    0.3398    0.5859   -0.5267 N   0  0  0  0  0  0  0  0  0  0  0  0
   -1.7047    0.5861    0.2124 C   0  0  0  0  0  0  0  0  0  0  0  0
    1.7094    0.5860   -0.2117 C   0  0  0  0  0  0  0  0  0  0  0  0
   -2.3968   -0.6144    0.0518 C   0  0  0  0  0  0  0  0  0  0  0  0
    2.3961   -0.6145   -0.0519 C   0  0  0  0  0  0  0  0  0  0  0  0
   -2.3719    1.8015    0.0591 C   0  0  0  0  0  0  0  0  0  0  0  0
    2.3713    1.8015   -0.0595 C   0  0  0  0  0  0  0  0  0  0  0  0
   -3.7559   -0.5992   -0.2618 C   0  0  0  0  0  0  0  0  0  0  0  0
    3.7552   -0.5993    0.2622 C   0  0  0  0  0  0  0  0  0  0  0  0
   -3.7310    1.8164   -0.2547 C   0  0  0  0  0  0  0  0  0  0  0  0
    3.7303    1.8163    0.2547 C   0  0  0  0  0  0  0  0  0  0  0  0
   -4.4229    0.6162   -0.4152 C   0  0  0  0  0  0  0  0  0  0  0  0
    4.4221    0.6160    0.4157 C   0  0  0  0  0  0  0  0  0  0  0  0
   -1.7430   -2.3812    1.5033 C   0  0  0  0  0  0  0  0  0  0  0  0
    1.7427   -2.3814   -1.5033 C   0  0  0  0  0  0  0  0  0  0  0  0
  1  7  1  0
  1 17  1  0
  2  8  1  0
  2 18  1  0
  3  4  2  0
  3  5  1  0
  4  6  1  0
  5  7  2  0
  5  9  1  0
  6  8  2  0
  6 10  1  0
  7 11  1  0
  8 12  1  0
  9 13  2  0
 10 14  2  0
 11 15  2  0
 12 16  2  0
 13 15  1  0
 14 16  1  0
M  END
>  <PUBCHEM_COMPOUND_CID>  (1) 
11947

>  <PUBCHEM_CONFORMER_RMSD>  (1) 
0.6

>  <PUBCHEM_CONFORMER_DIVERSEORDER>  (1) 
1
8
19
5
15
16
18
4
6
10
17
13
21
20
9
7
2
14
12
11
3

>  <PUBCHEM_MMFF94_PARTIAL_CHARGES>  (1) 
26
1 -0.36
10 -0.15
11 -0.15
12 -0.15
13 -0.15
14 -0.15
15 -0.15
16 -0.15
17 0.28
18 0.28
19 0.15
2 -0.36
20 0.15
21 0.15
22 0.15
23 0.15
24 0.15
25 0.15
26 0.15
3 -0.18
4 -0.18
5 0.18
6 0.18
7 0.08
8 0.08
9 -0.15

>  <PUBCHEM_EFFECTIVE_ROTOR_COUNT>  (1) 
4

>  <PUBCHEM_PHARMACOPHORE_FEATURES>  (1) 
4
1 1 acceptor
1 2 acceptor
6 5 7 9 11 13 15 rings
6 6 8 10 12 14 16 rings

>  <PUBCHEM_HEAVY_ATOM_COUNT>  (1) 
18

>  <PUBCHEM_ATOM_DEF_STEREO_COUNT>  (1) 
0

>  <PUBCHEM_ATOM_UDEF_STEREO_COUNT>  (1) 
0

>  <PUBCHEM_BOND_DEF_STEREO_COUNT>  (1) 
0

>  <PUBCHEM_BOND_UDEF_STEREO_COUNT>  (1) 
0

>  <PUBCHEM_ISOTOPIC_ATOM_COUNT>  (1) 
0

>  <PUBCHEM_COMPONENT_COUNT>  (1) 
1

>  <PUBCHEM_CACTVS_TAUTO_COUNT>  (1) 
1

>  <PUBCHEM_CONFORMER_ID>  (1) 
00002EAB00000001

>  <PUBCHEM_MMFF94_ENERGY>  (1) 
70.0577

>  <PUBCHEM_FEATURE_SELFOVERLAP>  (1) 
20.297

>  <PUBCHEM_SHAPE_FINGERPRINT>  (1) 
10366900 7 18201999962336457520
10608611 8 18410572889935167429
10616163 171 18339363083791935174
11370993 70 18410288116428562387
12500047 106 18335697256243083105
12633257 1 18187071828910534728
13380535 76 18410854360616637955
138480 1 17762335808117635850
14415576 193 18411139147409052268
15196674 1 18410572885639888327
15375358 24 18410855460128330690
15442244 35 18053384297185146960
15536298 74 18270963436111633191
18186145 218 18264491680996136709
200 152 17846211163889609797
20279233 1 18410860961981280964
20510252 161 18412265013204148017
20645477 56 18334014969589018493
20645477 70 18272088258044923334
21267235 1 18410581681732878051
23402539 116 18336816568229224213
23557571 272 18116728480616457683
23559900 14 18270959034181422978
3545911 37 18410856559645512580
4214541 1 18409164407060893049
495365 180 17916566718075106040
5104073 3 18410009935728860881
57005193 9 18410847759267819247
58051976 378 18342172250148945421
633830 44 18195805172735134045
69090 78 18408317779075944569
7364860 26 18201441320614736854
8272917 22 18130792196218112900
8809292 202 18334297599399715818
9709674 26 18411986857762390255

>  <PUBCHEM_SHAPE_MULTIPOLES>  (1) 
348.73
8.53
2.52
0.93
0.01
0.89
0
-2.74
0
0
0
0
0.61
0.99

>  <PUBCHEM_SHAPE_SELFOVERLAP>  (1) 
742.844

>  <PUBCHEM_SHAPE_VOLUME>  (1) 
195.3

>  <PUBCHEM_COORDINATE_TYPE>  (1) 
2
5
10

$$$$
