11940
     RDKit          3D

 14 16  0  0  0  0  0  0  0  0999 V2000
    0.0000    1.4822   -0.3340 C   0  0  0  0  0  0  0  0  0  0  0  0
    0.0000   -1.4818   -0.3350 C   0  0  0  0  0  0  0  0  0  0  0  0
    1.2711    0.7020   -0.1124 C   0  0  0  0  0  0  0  0  0  0  0  0
   -1.2711    0.7020   -0.1128 C   0  0  0  0  0  0  0  0  0  0  0  0
    1.2711   -0.7020   -0.1126 C   0  0  0  0  0  0  0  0  0  0  0  0
   -1.2710   -0.7020   -0.1126 C   0  0  0  0  0  0  0  0  0  0  0  0
    2.4817    1.3919    0.0527 C   0  0  0  0  0  0  0  0  0  0  0  0
   -2.4818    1.3919    0.0520 C   0  0  0  0  0  0  0  0  0  0  0  0
    2.4816   -1.3920    0.0525 C   0  0  0  0  0  0  0  0  0  0  0  0
   -2.4816   -1.3920    0.0529 C   0  0  0  0  0  0  0  0  0  0  0  0
    3.6772    0.6958    0.2274 C   0  0  0  0  0  0  0  0  0  0  0  0
   -3.6772    0.6958    0.2270 C   0  0  0  0  0  0  0  0  0  0  0  0
    3.6772   -0.6960    0.2272 C   0  0  0  0  0  0  0  0  0  0  0  0
   -3.6771   -0.6960    0.2278 C   0  0  0  0  0  0  0  0  0  0  0  0
  1  3  1  0
  1  4  1  0
  2  5  1  0
  2  6  1  0
  3  5  2  0
  3  7  1  0
  4  6  2  0
  4  8  1  0
  5  9  1  0
  6 10  1  0
  7 11  2  0
  8 12  2  0
  9 13  2  0
 10 14  2  0
 11 13  1  0
 12 14  1  0
M  END
>  <PUBCHEM_COMPOUND_CID>  (1) 
11940

>  <PUBCHEM_CONFORMER_RMSD>  (1) 
0.4

>  <PUBCHEM_CONFORMER_DIVERSEORDER>  (1) 
1

>  <PUBCHEM_MMFF94_PARTIAL_CHARGES>  (1) 
22
1 0.29
10 -0.15
11 -0.15
12 -0.15
13 -0.15
14 -0.15
19 0.15
2 0.29
20 0.15
21 0.15
22 0.15
23 0.15
24 0.15
25 0.15
26 0.15
3 -0.14
4 -0.14
5 -0.14
6 -0.14
7 -0.15
8 -0.15
9 -0.15

>  <PUBCHEM_EFFECTIVE_ROTOR_COUNT>  (1) 
0.4

>  <PUBCHEM_PHARMACOPHORE_FEATURES>  (1) 
3
6 1 2 3 4 5 6 rings
6 3 5 7 9 11 13 rings
6 4 6 8 10 12 14 rings

>  <PUBCHEM_HEAVY_ATOM_COUNT>  (1) 
14

>  <PUBCHEM_ATOM_DEF_STEREO_COUNT>  (1) 
0

>  <PUBCHEM_ATOM_UDEF_STEREO_COUNT>  (1) 
0

>  <PUBCHEM_BOND_DEF_STEREO_COUNT>  (1) 
0

>  <PUBCHEM_BOND_UDEF_STEREO_COUNT>  (1) 
0

>  <PUBCHEM_ISOTOPIC_ATOM_COUNT>  (1) 
0

>  <PUBCHEM_COMPONENT_COUNT>  (1) 
1

>  <PUBCHEM_CACTVS_TAUTO_COUNT>  (1) 
1

>  <PUBCHEM_CONFORMER_ID>  (1) 
00002EA400000001

>  <PUBCHEM_MMFF94_ENERGY>  (1) 
37.8943

>  <PUBCHEM_FEATURE_SELFOVERLAP>  (1) 
15.264

>  <PUBCHEM_SHAPE_FINGERPRINT>  (1) 
10411042 1 15744725194781298965
10608611 8 18411133619422164717
10967382 1 18410856551060430510
10980938 120 18411138034933173754
11132069 177 18411414012045654096
11471102 20 18410851057971319380
12032990 46 18409736144501291934
12251169 10 18410856555344822290
12382932 28 18413109437564262233
12696612 119 18335988639725053164
13221675 6 18409446990138867234
13296908 3 18335421257291496642
13380535 76 18412262826675338967
13581323 91 18407759239689932901
14144814 61 18410855455833194618
14325111 11 18411418414387275308
15196674 1 18410855464423129104
15219456 202 18412263908764127671
15309172 13 18272376377473398411
15375462 189 18040993986682889442
15442244 35 18267304218723158578
15536298 74 18342739615708379486
15775835 57 18343023319398609416
16945 1 18410573989446418574
17802600 8 18411974767334194553
17804303 29 18412268302737204572
17844478 74 18040435473182745253
18186145 218 18271250430195094196
18522853 276 18412824694101608561
19422 9 18333454252643544440
200 152 18130495410453040871
20201158 50 18410856538260100043
20510252 161 18272934890736159417
20528008 55 18412258437250118549
20645477 70 18339636750829487727
21267235 1 18410302414380277330
21501502 16 18410856581114626069
21501925 9 18408880758730094618
2334 1 18410574015216222293
23402539 116 18271795830880430839
23463225 33 18408323284991922500
23559900 14 18340764820032294658
2748010 2 18410855430063391047
335352 9 18122344571072414126
474 4 17024601220699604980
5104073 3 18410575084663079912
528886 8 18411694383263268458
53812653 166 18271803553426976688
69090 78 18342734118192601167
7364860 26 18270683035140886910
84936 31 16270805498785799494
8809292 202 18260554428230037587
9709674 26 18411423924836052127

>  <PUBCHEM_SHAPE_MULTIPOLES>  (1) 
288.11
6.7
1.76
0.65
0
0
0
0
0.92
0
-0.06
0
0
0

>  <PUBCHEM_SHAPE_SELFOVERLAP>  (1) 
638.963

>  <PUBCHEM_SHAPE_VOLUME>  (1) 
141.9

>  <PUBCHEM_COORDINATE_TYPE>  (1) 
2
5
10

$$$$
