11944
     RDKit          3D

 12 13  0  0  0  0  0  0  0  0999 V2000
   -4.2826   -0.6512   -0.0002 N   0  0  0  0  0  0  0  0  0  0  0  0
    0.5666   -0.5855    0.0001 C   0  0  0  0  0  0  0  0  0  0  0  0
    0.9224    0.7843    0.0000 C   0  0  0  0  0  0  0  0  0  0  0  0
   -0.7916   -0.9423    0.0001 C   0  0  0  0  0  0  0  0  0  0  0  0
   -0.0908    1.7570    0.0000 C   0  0  0  0  0  0  0  0  0  0  0  0
    1.5797   -1.5582    0.0001 C   0  0  0  0  0  0  0  0  0  0  0  0
    2.2807    1.1411   -0.0001 C   0  0  0  0  0  0  0  0  0  0  0  0
   -1.7849    0.0372    0.0001 C   0  0  0  0  0  0  0  0  0  0  0  0
   -1.4351    1.3843    0.0000 C   0  0  0  0  0  0  0  0  0  0  0  0
    2.9243   -1.1856   -0.0001 C   0  0  0  0  0  0  0  0  0  0  0  0
    3.2740    0.1614   -0.0001 C   0  0  0  0  0  0  0  0  0  0  0  0
   -3.1628   -0.3426    0.0000 C   0  0  0  0  0  0  0  0  0  0  0  0
  1 12  3  0
  2  3  1  0
  2  4  2  0
  2  6  1  0
  3  5  2  0
  3  7  1  0
  4  8  1  0
  5  9  1  0
  6 10  2  0
  7 11  2  0
  8  9  2  0
  8 12  1  0
 10 11  1  0
M  END
>  <PUBCHEM_COMPOUND_CID>  (1) 
11944

>  <PUBCHEM_CONFORMER_RMSD>  (1) 
0.4

>  <PUBCHEM_CONFORMER_DIVERSEORDER>  (1) 
1

>  <PUBCHEM_MMFF94_PARTIAL_CHARGES>  (1) 
17
1 -0.56
10 -0.15
11 -0.15
12 0.48
13 0.15
14 0.15
15 0.15
16 0.15
17 0.15
18 0.15
19 0.15
4 -0.15
5 -0.15
6 -0.15
7 -0.15
8 0.07
9 -0.15

>  <PUBCHEM_EFFECTIVE_ROTOR_COUNT>  (1) 
0

>  <PUBCHEM_PHARMACOPHORE_FEATURES>  (1) 
3
1 1 acceptor
6 2 3 4 5 8 9 rings
6 2 3 6 7 10 11 rings

>  <PUBCHEM_HEAVY_ATOM_COUNT>  (1) 
12

>  <PUBCHEM_ATOM_DEF_STEREO_COUNT>  (1) 
0

>  <PUBCHEM_ATOM_UDEF_STEREO_COUNT>  (1) 
0

>  <PUBCHEM_BOND_DEF_STEREO_COUNT>  (1) 
0

>  <PUBCHEM_BOND_UDEF_STEREO_COUNT>  (1) 
0

>  <PUBCHEM_ISOTOPIC_ATOM_COUNT>  (1) 
0

>  <PUBCHEM_COMPONENT_COUNT>  (1) 
1

>  <PUBCHEM_CACTVS_TAUTO_COUNT>  (1) 
1

>  <PUBCHEM_CONFORMER_ID>  (1) 
00002EA800000001

>  <PUBCHEM_MMFF94_ENERGY>  (1) 
29.8514

>  <PUBCHEM_FEATURE_SELFOVERLAP>  (1) 
15.249

>  <PUBCHEM_SHAPE_FINGERPRINT>  (1) 
10219947 1 18341897411070734663
10967382 1 18410855507557470342
11471102 20 18410006658895419701
11543360 7 15575008307079386259
11769659 78 18336541612453673394
12032990 46 18410297999253935439
12932764 1 17203314603083668584
14251717 144 18411978096192461295
14252887 29 18130238111177722271
14325111 11 18410855438679939425
14576447 43 18056465378259608751
161256 15 18411133632512665004
16945 1 18410856577088768548
17844478 74 18113621179320464293
193761 8 17834114139207537351
200 152 18201990019929928077
20201158 50 18334296474197645827
20588541 1 18336267941384962867
20645477 70 18411695461843846639
20871998 22 18199476475729023894
21267235 1 18411428305718310375
21501502 16 18265901263271333976
21501925 9 18336817615937402786
23402539 116 18341320141474861151
23402655 69 18411975854377606717
23463225 33 18410293596827866172
23552423 10 18189058611925024190
23559900 14 17190099324693049886
2748010 2 18267018358447708204
5084963 1 18343301427305582984
528886 8 18339919419764564138
53812653 166 18128249180795518888
581208 293 18340200890277489304
7364860 26 18270964652173174104
8809292 202 18187088389993750435

>  <PUBCHEM_SHAPE_MULTIPOLES>  (1) 
241.97
5.53
1.67
0.61
3.14
0.27
0
-1.47
0
-0.42
0
-0.03
0
0

>  <PUBCHEM_SHAPE_SELFOVERLAP>  (1) 
532.271

>  <PUBCHEM_SHAPE_VOLUME>  (1) 
129.1

>  <PUBCHEM_COORDINATE_TYPE>  (1) 
2
5
10

$$$$
