11948
     RDKit          3D

 17 19  0  0  0  0  0  0  0  0999 V2000
   -0.0739    0.6202    0.8859 C   0  0  0  0  0  0  0  0  0  0  0  0
   -1.4278    0.5691    1.5100 C   0  0  0  0  0  0  0  0  0  0  0  0
    2.0300   -0.4717    0.3372 C   0  0  0  0  0  0  0  0  0  0  0  0
    2.4747    0.7161   -0.2905 C   0  0  0  0  0  0  0  0  0  0  0  0
    0.7528   -0.5033    0.9206 C   0  0  0  0  0  0  0  0  0  0  0  0
   -2.5226    0.1142    0.5662 C   0  0  0  0  0  0  0  0  0  0  0  0
    0.3634    1.7882    0.2682 C   0  0  0  0  0  0  0  0  0  0  0  0
    1.6292    1.8373   -0.3166 C   0  0  0  0  0  0  0  0  0  0  0  0
    2.8754   -1.5928    0.3629 C   0  0  0  0  0  0  0  0  0  0  0  0
    3.7516    0.7479   -0.8742 C   0  0  0  0  0  0  0  0  0  0  0  0
   -2.8152   -1.2345    0.4740 C   0  0  0  0  0  0  0  0  0  0  0  0
   -3.2032    1.0583   -0.1810 C   0  0  0  0  0  0  0  0  0  0  0  0
    4.1412   -1.5435   -0.2218 C   0  0  0  0  0  0  0  0  0  0  0  0
    4.5786   -0.3753   -0.8391 C   0  0  0  0  0  0  0  0  0  0  0  0
   -3.8227   -1.6534   -0.3950 C   0  0  0  0  0  0  0  0  0  0  0  0
   -4.2109    0.6395   -1.0499 C   0  0  0  0  0  0  0  0  0  0  0  0
   -4.5205   -0.7164   -1.1569 C   0  0  0  0  0  0  0  0  0  0  0  0
  1  2  1  0
  1  5  2  0
  1  7  1  0
  2  6  1  0
  3  4  2  0
  3  5  1  0
  3  9  1  0
  4  8  1  0
  4 10  1  0
  6 11  2  0
  6 12  1  0
  7  8  2  0
  9 13  2  0
 10 14  2  0
 11 15  1  0
 12 16  2  0
 13 14  1  0
 15 17  2  0
 16 17  1  0
M  END
>  <PUBCHEM_COMPOUND_CID>  (1) 
11948

>  <PUBCHEM_CONFORMER_RMSD>  (1) 
0.6

>  <PUBCHEM_CONFORMER_DIVERSEORDER>  (1) 
1
7
3
2
4
5
6

>  <PUBCHEM_MMFF94_PARTIAL_CHARGES>  (1) 
27
1 -0.14
10 -0.15
11 -0.15
12 -0.15
13 -0.15
14 -0.15
15 -0.15
16 -0.15
17 -0.15
2 0.29
20 0.15
21 0.15
22 0.15
23 0.15
24 0.15
25 0.15
26 0.15
27 0.15
28 0.15
29 0.15
30 0.15
31 0.15
5 -0.15
6 -0.14
7 -0.15
8 -0.15
9 -0.15

>  <PUBCHEM_EFFECTIVE_ROTOR_COUNT>  (1) 
2

>  <PUBCHEM_PHARMACOPHORE_FEATURES>  (1) 
3
6 1 3 4 5 7 8 rings
6 3 4 9 10 13 14 rings
6 6 11 12 15 16 17 rings

>  <PUBCHEM_HEAVY_ATOM_COUNT>  (1) 
17

>  <PUBCHEM_ATOM_DEF_STEREO_COUNT>  (1) 
0

>  <PUBCHEM_ATOM_UDEF_STEREO_COUNT>  (1) 
0

>  <PUBCHEM_BOND_DEF_STEREO_COUNT>  (1) 
0

>  <PUBCHEM_BOND_UDEF_STEREO_COUNT>  (1) 
0

>  <PUBCHEM_ISOTOPIC_ATOM_COUNT>  (1) 
0

>  <PUBCHEM_COMPONENT_COUNT>  (1) 
1

>  <PUBCHEM_CACTVS_TAUTO_COUNT>  (1) 
1

>  <PUBCHEM_CONFORMER_ID>  (1) 
00002EAC00000001

>  <PUBCHEM_MMFF94_ENERGY>  (1) 
49.0886

>  <PUBCHEM_FEATURE_SELFOVERLAP>  (1) 
15.249

>  <PUBCHEM_SHAPE_FINGERPRINT>  (1) 
10465860 228 7997701895505573096
10498660 4 15864339260348133759
11046707 91 17775568619540924355
11543360 7 18261111906510784775
11552529 35 10951179243427563701
11578080 2 17988343902183367872
11796584 16 17632859711474911559
11806522 49 18343585157451444864
12363563 72 16630525159092352515
12390115 104 10733578226644514130
12507560 40 9799425424822337235
12553582 1 18341341019331830282
12644460 14 14548443787207236010
12670546 177 18259985972154624310
12707595 3 17489867171920644521
12892183 10 10879993566531334367
13583140 156 14619949275894078560
13675066 3 10737283558753259128
13705890 14 18412544335974617912
14289901 80 15410901730015205480
14576447 43 18341332266542122926
15188451 53 14261054507623391797
15209294 21 8430311333611924003
15210252 30 16298383543859777772
16752209 62 17917423190704871195
1798214 20 18342454837559095894
1813 80 15554455123157081144
18186145 218 17022906743767037873
18915474 69 18343022202823371470
193927 3 17632306686879772239
19784866 9 8430324527972997276
19862831 5 18333731308051434987
200 152 18412547591654728312
20281475 54 18129948875358384962
20645477 70 18411142445843500854
20671657 53 18202283627920640369
20871999 31 18407759227200630899
21250096 35 18202561769754374042
21503847 285 8502383251771939968
21634736 98 18341049730418112398
21713013 43 18263072366383166583
221357 26 18261385659737892189
221490 88 18264495168140342043
22393880 68 18334007306839549471
22646028 28 17918276458724609287
231179 274 14923941258356390660
23379529 103 18057614354493359591
23402539 116 18410014295737661974
23402655 69 18186804642989584148
23403322 49 18131631192826651103
23559900 14 18201708574559403704
25 1 17312821537567917153
26918003 58 12967125017473026069
27216 239 7925914786002704095
2838139 119 15069771762630361622
3009799 131 17676483918166164298
3082319 5 18334010605722377953
3268164 11 15068911922766938243
339767 52 18201428169251173446
4028521 119 16805315579216862229
4280585 95 17620196430079850582
46194498 28 17749954500135063861
465052 167 17702103776060205831
4921388 177 17023192664610133995
5161694 15 18113332007772785295
5281201 14 17749394797008106349
602551 16 15841550795030002526
633830 44 17022625260184594069
93112 12 18334010614301704569
9709674 26 18191021403521548923
9882013 296 12391504291472987609

>  <PUBCHEM_SHAPE_MULTIPOLES>  (1) 
349.85
9.64
1.8
1.15
1.48
0.01
0.07
3.19
-4.17
-0.33
-0.06
0.48
-0.06
-0.34

>  <PUBCHEM_SHAPE_SELFOVERLAP>  (1) 
774.503

>  <PUBCHEM_SHAPE_VOLUME>  (1) 
173.4

>  <PUBCHEM_COORDINATE_TYPE>  (1) 
2
5
10

$$$$
