11955
     RDKit          3D

 10 10  0  0  0  0  0  0  0  0999 V2000
    1.8075    1.4504   -0.4190 O   0  0  0  0  0  0  0  0  0  0  0  0
    2.1541   -0.7470    0.2398 N   0  0  0  0  0  0  0  0  0  0  0  0
    3.5292   -0.6133    0.2281 N   0  0  0  0  0  0  0  0  0  0  0  0
   -0.0934    0.1301   -0.0444 C   0  0  0  0  0  0  0  0  0  0  0  0
   -0.9473    1.2071    0.1933 C   0  0  0  0  0  0  0  0  0  0  0  0
   -0.6186   -1.1487   -0.2294 C   0  0  0  0  0  0  0  0  0  0  0  0
    1.3445    0.3402   -0.0991 C   0  0  0  0  0  0  0  0  0  0  0  0
   -2.3265    1.0053    0.2462 C   0  0  0  0  0  0  0  0  0  0  0  0
   -1.9978   -1.3506   -0.1767 C   0  0  0  0  0  0  0  0  0  0  0  0
   -2.8517   -0.2735    0.0611 C   0  0  0  0  0  0  0  0  0  0  0  0
  1  7  2  0
  2  3  1  0
  2  7  1  0
  4  5  2  0
  4  6  1  0
  4  7  1  0
  5  8  1  0
  6  9  2  0
  8 10  2  0
  9 10  1  0
M  END
>  <PUBCHEM_COMPOUND_CID>  (1) 
11955

>  <PUBCHEM_CONFORMER_RMSD>  (1) 
0.4

>  <PUBCHEM_CONFORMER_DIVERSEORDER>  (1) 
1
3
2

>  <PUBCHEM_MMFF94_PARTIAL_CHARGES>  (1) 
18
1 -0.57
10 -0.15
11 0.15
12 0.15
13 0.15
14 0.15
15 0.15
16 0.37
17 0.36
18 0.36
2 -0.42
3 -0.73
4 0.09
5 -0.15
6 -0.15
7 0.54
8 -0.15
9 -0.15

>  <PUBCHEM_EFFECTIVE_ROTOR_COUNT>  (1) 
2

>  <PUBCHEM_PHARMACOPHORE_FEATURES>  (1) 
4
1 1 acceptor
1 2 donor
1 3 donor
6 4 5 6 8 9 10 rings

>  <PUBCHEM_HEAVY_ATOM_COUNT>  (1) 
10

>  <PUBCHEM_ATOM_DEF_STEREO_COUNT>  (1) 
0

>  <PUBCHEM_ATOM_UDEF_STEREO_COUNT>  (1) 
0

>  <PUBCHEM_BOND_DEF_STEREO_COUNT>  (1) 
0

>  <PUBCHEM_BOND_UDEF_STEREO_COUNT>  (1) 
0

>  <PUBCHEM_ISOTOPIC_ATOM_COUNT>  (1) 
0

>  <PUBCHEM_COMPONENT_COUNT>  (1) 
1

>  <PUBCHEM_CACTVS_TAUTO_COUNT>  (1) 
2

>  <PUBCHEM_CONFORMER_ID>  (1) 
00002EB300000001

>  <PUBCHEM_MMFF94_ENERGY>  (1) 
25.9651

>  <PUBCHEM_FEATURE_SELFOVERLAP>  (1) 
21.803

>  <PUBCHEM_SHAPE_FINGERPRINT>  (1) 
12932764 1 17845095245206999793
13024252 1 15285360596236183085
14325111 11 18411139134149441385
16945 1 18340213994386207311
20645464 45 17275103929148248058
20653085 51 17095514106931062877
20871998 184 18060138790435771231
21040471 1 18270687471947137313
23402539 116 17988069016366223525
23552423 10 18261392311924678663
29004967 10 16081083813924768933
369184 2 18272367598596843921
5084963 1 18411416202653132857

>  <PUBCHEM_SHAPE_MULTIPOLES>  (1) 
189.96
4.44
1.46
0.63
2.44
0.07
0
-0.61
0.35
-0.3
-0.06
-0.02
0.01
-0.3

>  <PUBCHEM_SHAPE_SELFOVERLAP>  (1) 
394.11

>  <PUBCHEM_SHAPE_VOLUME>  (1) 
108.4

>  <PUBCHEM_COORDINATE_TYPE>  (1) 
2
5
10

$$$$
