11953
     RDKit          3D

 10 10  0  0  0  0  0  0  0  0999 V2000
    1.7157   -1.7888    0.0006 O   0  0  0  0  0  0  0  0  0  0  0  0
    3.1695    1.2457    0.0001 N   0  0  0  0  0  0  0  0  0  0  0  0
   -0.0800   -0.2376    0.0000 C   0  0  0  0  0  0  0  0  0  0  0  0
   -0.4417    1.1096    0.0002 C   0  0  0  0  0  0  0  0  0  0  0  0
   -1.0660   -1.2244   -0.0002 C   0  0  0  0  0  0  0  0  0  0  0  0
   -1.7891    1.4702    0.0003 C   0  0  0  0  0  0  0  0  0  0  0  0
   -2.4135   -0.8638   -0.0002 C   0  0  0  0  0  0  0  0  0  0  0  0
   -2.7750    0.4835    0.0000 C   0  0  0  0  0  0  0  0  0  0  0  0
    1.3248   -0.6133   -0.0003 C   0  0  0  0  0  0  0  0  0  0  0  0
    2.3553    0.4188   -0.0005 C   0  0  0  0  0  0  0  0  0  0  0  0
  1  9  2  0
  2 10  3  0
  3  4  2  0
  3  5  1  0
  3  9  1  0
  4  6  1  0
  5  7  2  0
  6  8  2  0
  7  8  1  0
  9 10  1  0
M  END
>  <PUBCHEM_COMPOUND_CID>  (1) 
11953

>  <PUBCHEM_CONFORMER_RMSD>  (1) 
0.4

>  <PUBCHEM_CONFORMER_DIVERSEORDER>  (1) 
1
2

>  <PUBCHEM_MMFF94_PARTIAL_CHARGES>  (1) 
15
1 -0.57
10 0.45
11 0.15
12 0.15
13 0.15
14 0.15
15 0.15
2 -0.56
3 0.09
4 -0.15
5 -0.15
6 -0.15
7 -0.15
8 -0.15
9 0.59

>  <PUBCHEM_EFFECTIVE_ROTOR_COUNT>  (1) 
1

>  <PUBCHEM_PHARMACOPHORE_FEATURES>  (1) 
3
1 1 acceptor
1 2 acceptor
6 3 4 5 6 7 8 rings

>  <PUBCHEM_HEAVY_ATOM_COUNT>  (1) 
10

>  <PUBCHEM_ATOM_DEF_STEREO_COUNT>  (1) 
0

>  <PUBCHEM_ATOM_UDEF_STEREO_COUNT>  (1) 
0

>  <PUBCHEM_BOND_DEF_STEREO_COUNT>  (1) 
0

>  <PUBCHEM_BOND_UDEF_STEREO_COUNT>  (1) 
0

>  <PUBCHEM_ISOTOPIC_ATOM_COUNT>  (1) 
0

>  <PUBCHEM_COMPONENT_COUNT>  (1) 
1

>  <PUBCHEM_CACTVS_TAUTO_COUNT>  (1) 
1

>  <PUBCHEM_CONFORMER_ID>  (1) 
00002EB100000001

>  <PUBCHEM_MMFF94_ENERGY>  (1) 
22.4159

>  <PUBCHEM_FEATURE_SELFOVERLAP>  (1) 
15.223

>  <PUBCHEM_SHAPE_FINGERPRINT>  (1) 
10857977 72 18337946912957596273
12524768 44 18338803307982726535
12897270 3 18411982481179782780
12932764 1 17604431765055234747
13380535 21 18339939142027585906
13380535 76 18410007741190566730
14325111 11 18410856533949282469
14390081 3 18413107268632190328
16945 1 18410575136408486245
19973954 147 18339644412824023760
20871998 184 18129387162529975575
21040471 1 18338798905577840515
21501502 16 18340765948986025963
23552423 10 18263081037305016835
2748010 2 18337675204799748695
369184 2 16660355991606202865
5084963 1 17984976003688049499
6333449 129 18341328980675694669
7364860 26 18270680853539970118

>  <PUBCHEM_SHAPE_MULTIPOLES>  (1) 
194.94
4.28
1.65
0.6
1.4
0.11
0
-0.9
0
0.11
0
-0.04
-0.01
0

>  <PUBCHEM_SHAPE_SELFOVERLAP>  (1) 
408.617

>  <PUBCHEM_SHAPE_VOLUME>  (1) 
108.1

>  <PUBCHEM_COORDINATE_TYPE>  (1) 
2
5
10

$$$$
