11956
     RDKit          3D

 10 10  0  0  1  0  0  0  0  0999 V2000
    1.3574    0.4798    0.2144 N   0  0  0  0  0  0  0  0  0  0  0  0
    2.3037   -0.5807    0.4986 C   0  0  0  0  0  0  0  0  0  0  0  0
   -0.0202    0.1975    0.1064 C   0  0  0  0  0  0  0  0  0  0  0  0
    1.8433    1.8361    0.0564 C   0  0  0  0  0  0  0  0  0  0  0  0
    2.7921   -1.2441   -0.7725 C   0  0  0  0  0  0  0  0  0  0  0  0
   -0.4779   -1.1111    0.2601 C   0  0  0  0  0  0  0  0  0  0  0  0
   -0.9250    1.2268   -0.1532 C   0  0  0  0  0  0  0  0  0  0  0  0
   -1.8405   -1.3905    0.1542 C   0  0  0  0  0  0  0  0  0  0  0  0
   -2.2875    0.9475   -0.2590 C   0  0  0  0  0  0  0  0  0  0  0  0
   -2.7452   -0.3612   -0.1054 C   0  0  0  0  0  0  0  0  0  0  0  0
  1  2  1  0
  1  3  1  0
  1  4  1  0
  2  5  1  0
  3  6  2  0
  3  7  1  0
  6  8  1  0
  7  9  2  0
  8 10  2  0
  9 10  1  0
M  END
>  <PUBCHEM_COMPOUND_CID>  (1) 
11956

>  <PUBCHEM_CONFORMER_RMSD>  (1) 
0.4

>  <PUBCHEM_CONFORMER_DIVERSEORDER>  (1) 
2
4
3
1

>  <PUBCHEM_MMFF94_PARTIAL_CHARGES>  (1) 
14
1 -0.84
10 -0.15
19 0.15
2 0.37
20 0.15
21 0.15
22 0.15
23 0.15
3 0.1
4 0.37
6 -0.15
7 -0.15
8 -0.15
9 -0.15

>  <PUBCHEM_EFFECTIVE_ROTOR_COUNT>  (1) 
2

>  <PUBCHEM_PHARMACOPHORE_FEATURES>  (1) 
2
1 1 cation
6 3 6 7 8 9 10 rings

>  <PUBCHEM_HEAVY_ATOM_COUNT>  (1) 
10

>  <PUBCHEM_ATOM_DEF_STEREO_COUNT>  (1) 
0

>  <PUBCHEM_ATOM_UDEF_STEREO_COUNT>  (1) 
0

>  <PUBCHEM_BOND_DEF_STEREO_COUNT>  (1) 
0

>  <PUBCHEM_BOND_UDEF_STEREO_COUNT>  (1) 
0

>  <PUBCHEM_ISOTOPIC_ATOM_COUNT>  (1) 
0

>  <PUBCHEM_COMPONENT_COUNT>  (1) 
1

>  <PUBCHEM_CACTVS_TAUTO_COUNT>  (1) 
1

>  <PUBCHEM_CONFORMER_ID>  (1) 
00002EB400000002

>  <PUBCHEM_MMFF94_ENERGY>  (1) 
35.7792

>  <PUBCHEM_FEATURE_SELFOVERLAP>  (1) 
10.148

>  <PUBCHEM_SHAPE_FINGERPRINT>  (1) 
11206711 2 18261668160763192373
12032990 46 18335989739806620347
12524768 44 18336825411054994989
12897270 3 18193559088942592868
12932764 1 17676764301519600673
13380535 21 18265066897022701456
14325111 11 18409726274898606233
16945 1 18336259038139291387
17990270 104 18413107281749142374
19973954 147 18410855490230129009
20201158 50 18342738481647460214
20653085 51 18409173181942602249
20711985 344 17409954439534091486
21040471 1 18263354798710127609
21501502 16 18339643442076940892
23552423 10 18187927325844453210
23559900 14 18124311607067603406
2748010 2 18335697299387707533
29004967 10 17203325606795136322
3248919 1 18272080612971442153
369184 2 15697991920977451171
5084963 1 18271803506081914705
7364860 26 18270963561130083704

>  <PUBCHEM_SHAPE_MULTIPOLES>  (1) 
200.81
4.21
1.75
0.72
0.59
0.32
-0.04
-0.74
-0.46
0.38
-0.06
0.2
-0.09
0.35

>  <PUBCHEM_SHAPE_SELFOVERLAP>  (1) 
403.873

>  <PUBCHEM_SHAPE_VOLUME>  (1) 
118.9

>  <PUBCHEM_COORDINATE_TYPE>  (1) 
2
5
10

$$$$
