11957
     RDKit          3D

 10 10  0  0  0  0  0  0  0  0999 V2000
    3.3735   -0.5826   -0.2173 O   0  0  0  0  0  0  0  0  0  0  0  0
    1.3363    0.2216    0.0641 N   0  0  0  0  0  0  0  0  0  0  0  0
    2.1629   -0.8182   -0.2862 N   0  0  0  0  0  0  0  0  0  0  0  0
   -0.0665    0.0796    0.0276 C   0  0  0  0  0  0  0  0  0  0  0  0
   -0.8727    1.1866   -0.2374 C   0  0  0  0  0  0  0  0  0  0  0  0
   -0.6476   -1.1677    0.2555 C   0  0  0  0  0  0  0  0  0  0  0  0
   -2.2600    1.0463   -0.2744 C   0  0  0  0  0  0  0  0  0  0  0  0
   -2.0349   -1.3081    0.2183 C   0  0  0  0  0  0  0  0  0  0  0  0
   -2.8411   -0.2011   -0.0466 C   0  0  0  0  0  0  0  0  0  0  0  0
    1.8499    1.5435    0.4964 C   0  0  0  0  0  0  0  0  0  0  0  0
  1  3  2  0
  2  3  1  0
  2  4  1  0
  2 10  1  0
  4  5  2  0
  4  6  1  0
  5  7  1  0
  6  8  2  0
  7  9  2  0
  8  9  1  0
M  END
>  <PUBCHEM_COMPOUND_CID>  (1) 
11957

>  <PUBCHEM_CONFORMER_RMSD>  (1) 
0.4

>  <PUBCHEM_CONFORMER_DIVERSEORDER>  (1) 
1
6
7
4
2
3
8
5
10
9

>  <PUBCHEM_MMFF94_PARTIAL_CHARGES>  (1) 
14
1 -0.16
10 0.37
11 0.15
12 0.15
13 0.15
14 0.15
18 0.15
2 -0.3
4 0.1
5 -0.15
6 -0.15
7 -0.15
8 -0.15
9 -0.15

>  <PUBCHEM_EFFECTIVE_ROTOR_COUNT>  (1) 
2

>  <PUBCHEM_PHARMACOPHORE_FEATURES>  (1) 
1
6 4 5 6 7 8 9 rings

>  <PUBCHEM_HEAVY_ATOM_COUNT>  (1) 
10

>  <PUBCHEM_ATOM_DEF_STEREO_COUNT>  (1) 
0

>  <PUBCHEM_ATOM_UDEF_STEREO_COUNT>  (1) 
0

>  <PUBCHEM_BOND_DEF_STEREO_COUNT>  (1) 
0

>  <PUBCHEM_BOND_UDEF_STEREO_COUNT>  (1) 
0

>  <PUBCHEM_ISOTOPIC_ATOM_COUNT>  (1) 
0

>  <PUBCHEM_COMPONENT_COUNT>  (1) 
1

>  <PUBCHEM_CACTVS_TAUTO_COUNT>  (1) 
1

>  <PUBCHEM_CONFORMER_ID>  (1) 
00002EB500000001

>  <PUBCHEM_MMFF94_ENERGY>  (1) 
35.1291

>  <PUBCHEM_FEATURE_SELFOVERLAP>  (1) 
5.074

>  <PUBCHEM_SHAPE_FINGERPRINT>  (1) 
10857977 72 18189890005961414065
12032990 46 18262805180709966915
12524768 44 18265046006428289769
12716758 59 18334289881586142923
12897270 3 18408319990741430967
12932764 1 17603857897300338729
14325111 11 18410291415005767157
15219456 202 18341609373384125784
16945 1 18337665326448840283
19973954 147 18411418453079138161
20201158 50 18343302535317727878
20645464 45 18340472456748876120
21040471 1 18261668165179595413
23552423 10 18114744944269806071
2748010 2 18336824311696348101
29004967 10 17274825735542330334
369184 2 18131631222696067849
5084963 1 18186523193814202277

>  <PUBCHEM_SHAPE_MULTIPOLES>  (1) 
189.96
4.34
1.54
0.65
1.89
0.17
0.02
-0.5
-0.23
-0.05
0.08
0
0.04
0.42

>  <PUBCHEM_SHAPE_SELFOVERLAP>  (1) 
387.475

>  <PUBCHEM_SHAPE_VOLUME>  (1) 
110.8

>  <PUBCHEM_COORDINATE_TYPE>  (1) 
2
5
10

$$$$
