11968
     RDKit          3D

 12 12  0  0  0  0  0  0  0  0999 V2000
   -1.2346   -2.3028   -0.1898 O   0  0  0  0  0  0  0  0  0  0  0  0
    3.9539    1.0258   -0.5024 O   0  0  0  0  0  0  0  0  0  0  0  0
    3.5309   -0.9997    0.4578 O   0  0  0  0  0  0  0  0  0  0  0  0
   -0.6369    0.0025    0.1321 C   0  0  0  0  0  0  0  0  0  0  0  0
   -1.5922   -0.9914   -0.0804 C   0  0  0  0  0  0  0  0  0  0  0  0
   -1.0303    1.3364    0.2401 C   0  0  0  0  0  0  0  0  0  0  0  0
   -2.9409   -0.6514   -0.1849 C   0  0  0  0  0  0  0  0  0  0  0  0
    0.7775   -0.3269    0.2452 C   0  0  0  0  0  0  0  0  0  0  0  0
   -2.3791    1.6763    0.1355 C   0  0  0  0  0  0  0  0  0  0  0  0
   -3.3344    0.6825   -0.0771 C   0  0  0  0  0  0  0  0  0  0  0  0
    1.7411    0.4932   -0.1598 C   0  0  0  0  0  0  0  0  0  0  0  0
    3.1451    0.0554   -0.0164 C   0  0  0  0  0  0  0  0  0  0  0  0
  1  5  1  0
  2 12  1  0
  3 12  2  0
  4  5  2  0
  4  6  1  0
  4  8  1  0
  5  7  1  0
  6  9  2  0
  7 10  2  0
  8 11  2  0
  9 10  1  0
 11 12  1  0
M  END
>  <PUBCHEM_COMPOUND_CID>  (1) 
11968

>  <PUBCHEM_CONFORMER_RMSD>  (1) 
0.6

>  <PUBCHEM_CONFORMER_DIVERSEORDER>  (1) 
1
2
3

>  <PUBCHEM_MMFF94_PARTIAL_CHARGES>  (1) 
20
1 -0.53
10 -0.15
11 -0.14
12 0.71
13 0.15
14 0.15
15 0.15
16 0.15
17 0.15
18 0.15
19 0.45
2 -0.65
20 0.5
3 -0.57
4 0.03
5 0.08
6 -0.15
7 -0.15
8 -0.18
9 -0.15

>  <PUBCHEM_EFFECTIVE_ROTOR_COUNT>  (1) 
2

>  <PUBCHEM_PHARMACOPHORE_FEATURES>  (1) 
5
1 1 donor
1 2 acceptor
1 3 acceptor
3 2 3 12 anion
6 4 5 6 7 9 10 rings

>  <PUBCHEM_HEAVY_ATOM_COUNT>  (1) 
12

>  <PUBCHEM_ATOM_DEF_STEREO_COUNT>  (1) 
0

>  <PUBCHEM_ATOM_UDEF_STEREO_COUNT>  (1) 
0

>  <PUBCHEM_BOND_DEF_STEREO_COUNT>  (1) 
0

>  <PUBCHEM_BOND_UDEF_STEREO_COUNT>  (1) 
1

>  <PUBCHEM_ISOTOPIC_ATOM_COUNT>  (1) 
0

>  <PUBCHEM_COMPONENT_COUNT>  (1) 
1

>  <PUBCHEM_CACTVS_TAUTO_COUNT>  (1) 
4

>  <PUBCHEM_CONFORMER_ID>  (1) 
00002EC000000001

>  <PUBCHEM_MMFF94_ENERGY>  (1) 
31.2288

>  <PUBCHEM_FEATURE_SELFOVERLAP>  (1) 
25.427

>  <PUBCHEM_SHAPE_FINGERPRINT>  (1) 
12716758 59 18341886415928005483
12932764 1 17775280603703555258
13024252 1 14562529583452303221
13380535 76 18342174419170986671
14144814 61 18408886222187010032
14325111 11 18410012104803285024
15669948 3 18341327889828049518
15775835 57 18261396615529557392
16945 1 18340761620012341553
20201158 50 17918276441386471678
20279233 1 17060617798383123718
20510252 161 18273218573347146249
20645477 56 18411700993381811552
20871998 184 18201443639807776287
23402539 116 18271795822723058509
23463225 33 18263922151047387794
23552423 10 18046345498484842901
23559900 14 18273492365275963672
3248919 1 17489596636346994808
6333449 129 18342174475184591077
75552 356 18411420643549044661
93112 12 18411421717691769316

>  <PUBCHEM_SHAPE_MULTIPOLES>  (1) 
229.35
6.32
1.67
0.64
5.23
0.39
0
-0.87
0.38
-0.89
0.03
0.06
-0.02
-0.38

>  <PUBCHEM_SHAPE_SELFOVERLAP>  (1) 
480.648

>  <PUBCHEM_SHAPE_VOLUME>  (1) 
129.5

>  <PUBCHEM_COORDINATE_TYPE>  (1) 
2
5
10

$$$$
