11972
     RDKit          3D

 11 11  0  0  0  0  0  0  0  0999 V2000
   -0.9705    2.3725    0.0000 O   0  0  0  0  0  0  0  0  0  0  0  0
    2.4665   -1.4012   -0.0021 O   0  0  0  0  0  0  0  0  0  0  0  0
    1.1915    0.5816    0.0004 N   0  0  0  0  0  0  0  0  0  0  0  0
   -0.1288    0.1255    0.0007 C   0  0  0  0  0  0  0  0  0  0  0  0
   -1.1928    1.0274   -0.0004 C   0  0  0  0  0  0  0  0  0  0  0  0
   -0.3779   -1.2470    0.0012 C   0  0  0  0  0  0  0  0  0  0  0  0
   -2.5059    0.5569   -0.0010 C   0  0  0  0  0  0  0  0  0  0  0  0
   -1.6910   -1.7175    0.0006 C   0  0  0  0  0  0  0  0  0  0  0  0
   -2.7551   -0.8156   -0.0003 C   0  0  0  0  0  0  0  0  0  0  0  0
    2.3675   -0.1783    0.0006 C   0  0  0  0  0  0  0  0  0  0  0  0
    3.5966    0.6958    0.0002 C   0  0  0  0  0  0  0  0  0  0  0  0
  1  5  1  0
  2 10  2  0
  3  4  1  0
  3 10  1  0
  4  5  2  0
  4  6  1  0
  5  7  1  0
  6  8  2  0
  7  9  2  0
  8  9  1  0
 10 11  1  0
M  END
>  <PUBCHEM_COMPOUND_CID>  (1) 
11972

>  <PUBCHEM_CONFORMER_RMSD>  (1) 
0.4

>  <PUBCHEM_CONFORMER_DIVERSEORDER>  (1) 
1
3
2
4

>  <PUBCHEM_MMFF94_PARTIAL_CHARGES>  (1) 
17
1 -0.53
10 0.57
11 0.06
12 0.15
13 0.37
14 0.15
15 0.15
16 0.15
2 -0.57
20 0.45
3 -0.55
4 0.12
5 0.08
6 -0.15
7 -0.15
8 -0.15
9 -0.15

>  <PUBCHEM_EFFECTIVE_ROTOR_COUNT>  (1) 
2

>  <PUBCHEM_PHARMACOPHORE_FEATURES>  (1) 
4
1 1 donor
1 2 acceptor
1 3 donor
6 4 5 6 7 8 9 rings

>  <PUBCHEM_HEAVY_ATOM_COUNT>  (1) 
11

>  <PUBCHEM_ATOM_DEF_STEREO_COUNT>  (1) 
0

>  <PUBCHEM_ATOM_UDEF_STEREO_COUNT>  (1) 
0

>  <PUBCHEM_BOND_DEF_STEREO_COUNT>  (1) 
0

>  <PUBCHEM_BOND_UDEF_STEREO_COUNT>  (1) 
0

>  <PUBCHEM_ISOTOPIC_ATOM_COUNT>  (1) 
0

>  <PUBCHEM_COMPONENT_COUNT>  (1) 
1

>  <PUBCHEM_CACTVS_TAUTO_COUNT>  (1) 
6

>  <PUBCHEM_CONFORMER_ID>  (1) 
00002EC400000001

>  <PUBCHEM_MMFF94_ENERGY>  (1) 
30.2054

>  <PUBCHEM_FEATURE_SELFOVERLAP>  (1) 
20.301

>  <PUBCHEM_SHAPE_FINGERPRINT>  (1) 
12897270 3 18411419548606625718
12932764 1 17417802959454196702
13024252 1 17530964700485138195
14325111 11 18410855430132020960
16945 1 18410855451627969447
193761 8 17690280409371602115
19973954 147 18339644438868101692
20201158 50 18412543245037204262
20871998 184 18201161048007634911
23402539 116 18272641368750528439
23552423 10 18260268581066108214
2748010 2 18123464148935109197
3312278 4 18334860570880974362
369184 2 18413670201384565499
5084963 1 18201154339030958273
6333449 129 18413103978592127156

>  <PUBCHEM_SHAPE_MULTIPOLES>  (1) 
209.66
4.81
1.83
0.59
3.53
0.38
0
-0.27
0
-0.66
0
-0.02
-0.01
0

>  <PUBCHEM_SHAPE_SELFOVERLAP>  (1) 
433.325

>  <PUBCHEM_SHAPE_VOLUME>  (1) 
119.6

>  <PUBCHEM_COORDINATE_TYPE>  (1) 
2
5
10

$$$$
