11977
     RDKit          3D

 10  9  0  0  0  0  0  0  0  0999 V2000
    1.4038   -0.2503   -0.0212 O   0  0  0  0  0  0  0  0  0  0  0  0
    0.4943    1.8210    0.3296 O   0  0  0  0  0  0  0  0  0  0  0  0
   -2.0430   -2.0049    0.0785 O   0  0  0  0  0  0  0  0  0  0  0  0
   -0.8785   -0.0470    0.2201 N   0  0  0  0  0  0  0  0  0  0  0  0
   -0.9057   -1.5236    0.0331 N   0  0  0  0  0  0  0  0  0  0  0  0
   -2.1289    0.6671    0.4286 C   0  0  0  0  0  0  0  0  0  0  0  0
   -2.7363    1.1170   -0.8840 C   0  0  0  0  0  0  0  0  0  0  0  0
    2.7045    0.3476   -0.0683 C   0  0  0  0  0  0  0  0  0  0  0  0
    0.3534    0.6075    0.1880 C   0  0  0  0  0  0  0  0  0  0  0  0
    3.7365   -0.7345   -0.3045 C   0  0  0  0  0  0  0  0  0  0  0  0
  1  8  1  0
  1  9  1  0
  2  9  2  0
  3  5  2  0
  4  5  1  0
  4  6  1  0
  4  9  1  0
  6  7  1  0
  8 10  1  0
M  END
>  <PUBCHEM_COMPOUND_CID>  (1) 
11977

>  <PUBCHEM_CONFORMER_RMSD>  (1) 
0.6

>  <PUBCHEM_CONFORMER_DIVERSEORDER>  (1) 
1
10
49
24
33
7
26
19
51
31
37
56
12
50
25
58
48
17
36
15
41
28
6
23
21
4
16
22
35
34
27
39
40
20
30
57
3
13
43
14
53
11
29
9
52
2
18
38
47
54
5
45
42
32
55
8
46
44

>  <PUBCHEM_MMFF94_PARTIAL_CHARGES>  (1) 
8
1 -0.43
2 -0.57
3 -0.16
4 -0.18
5 -0.02
6 0.3
8 0.28
9 0.78

>  <PUBCHEM_EFFECTIVE_ROTOR_COUNT>  (1) 
5

>  <PUBCHEM_PHARMACOPHORE_FEATURES>  (1) 
1
1 2 acceptor

>  <PUBCHEM_HEAVY_ATOM_COUNT>  (1) 
10

>  <PUBCHEM_ATOM_DEF_STEREO_COUNT>  (1) 
0

>  <PUBCHEM_ATOM_UDEF_STEREO_COUNT>  (1) 
0

>  <PUBCHEM_BOND_DEF_STEREO_COUNT>  (1) 
0

>  <PUBCHEM_BOND_UDEF_STEREO_COUNT>  (1) 
0

>  <PUBCHEM_ISOTOPIC_ATOM_COUNT>  (1) 
0

>  <PUBCHEM_COMPONENT_COUNT>  (1) 
1

>  <PUBCHEM_CACTVS_TAUTO_COUNT>  (1) 
1

>  <PUBCHEM_CONFORMER_ID>  (1) 
00002EC900000001

>  <PUBCHEM_MMFF94_ENERGY>  (1) 
9.6897

>  <PUBCHEM_FEATURE_SELFOVERLAP>  (1) 
5.074

>  <PUBCHEM_SHAPE_FINGERPRINT>  (1) 
12716758 59 18409725158001238256
12932741 1 18130781300176291560
12932764 1 17894346679278884352
15310529 11 16877942689791311064
20201158 50 18202003171061967558
21040471 1 18336818706811655521
21293036 1 18410288077985009389
23552423 10 18189055459413799648
2748010 2 18268988859399466736
3248919 1 17775012271453416336

>  <PUBCHEM_SHAPE_MULTIPOLES>  (1) 
178.23
5.1
1.68
0.71
3.63
0.6
0.08
0.26
1.01
-0.98
-0.06
-0.23
-0.12
0.32

>  <PUBCHEM_SHAPE_SELFOVERLAP>  (1) 
326.309

>  <PUBCHEM_SHAPE_VOLUME>  (1) 
113

>  <PUBCHEM_COORDINATE_TYPE>  (1) 
2
5
10

$$$$
