1197
     RDKit          3D

 20 19  0  0  1  0  0  0  0  0999 V2000
    0.5693    2.5230   -1.9423 O   0  0  0  0  0  0  0  0  0  0  0  0
    1.8000    3.7167   -0.4688 O   0  0  0  0  0  0  0  0  0  0  0  0
    2.4498   -3.1596    0.7777 O   0  0  0  0  0  0  0  0  0  0  0  0
   -2.2455    1.3460    1.6551 O   0  0  0  0  0  0  0  0  0  0  0  0
    2.9606   -2.6998   -1.3891 O   0  0  0  0  0  0  0  0  0  0  0  0
   -6.1176   -1.6300    0.3289 O   0  0  0  0  0  0  0  0  0  0  0  0
   -4.6926   -1.7715   -1.4340 O   0  0  0  0  0  0  0  0  0  0  0  0
   -0.7437    1.1955   -0.1128 N   0  0  0  0  0  0  0  0  0  0  0  0
    4.7663   -0.8074   -0.6766 N   0  0  0  0  0  0  0  0  0  0  0  0
    1.3148    1.2798    1.2221 C   0  0  0  0  0  0  0  0  0  0  0  0
    2.1537    0.2896    0.4021 C   0  0  0  0  0  0  0  0  0  0  0  0
    0.2703    2.0671    0.4213 C   0  0  0  0  0  0  0  0  0  0  0  0
    3.2181   -0.4373    1.2320 C   0  0  0  0  0  0  0  0  0  0  0  0
    4.0384   -1.4487    0.4174 C   0  0  0  0  0  0  0  0  0  0  0  0
    0.9563    2.8536   -0.6869 C   0  0  0  0  0  0  0  0  0  0  0  0
   -1.9280    0.9045    0.5541 C   0  0  0  0  0  0  0  0  0  0  0  0
    3.1153   -2.4834   -0.1956 C   0  0  0  0  0  0  0  0  0  0  0  0
   -2.8050   -0.0426   -0.2452 C   0  0  0  0  0  0  0  0  0  0  0  0
   -4.1102   -0.3736    0.4713 C   0  0  0  0  0  0  0  0  0  0  0  0
   -4.9703   -1.3220   -0.3308 C   0  0  0  0  0  0  0  0  0  0  0  0
  1 15  1  0
  2 15  2  0
  3 17  1  0
  4 16  2  0
  5 17  2  0
  6 20  1  0
  7 20  2  0
  8 12  1  0
  8 16  1  0
  9 14  1  0
 10 11  1  0
 10 12  1  0
 11 13  1  0
 12 15  1  0
 13 14  1  0
 14 17  1  0
 16 18  1  0
 18 19  1  0
 19 20  1  0
M  END
>  <PUBCHEM_COMPOUND_CID>  (1) 
1197

>  <PUBCHEM_CONFORMER_RMSD>  (1) 
1

>  <PUBCHEM_CONFORMER_DIVERSEORDER>  (1) 
1
43
45
188
14
5
126
199
183
50
12
49
181
130
191
114
104
60
32
134
125
132
23
80
171
159
16
117
92
65
161
79
164
182
148
144
70
106
121
37
74
31
179
76
142
123
146
110
82
112
167
77
81
61
10
193
203
67
129
145
200
187
42
157
26
196
19
20
139
46
150
89
9
176
91
185
162
33
54
156
59
160
56
141
30
140
97
119
7
177
2
127
53
174
94
58
13
41
155
122
96
93
120
165
55
192
109
15
151
163
39
103
87
172
202
108
34
27
47
4
100
204
62
86
116
84
44
98
18
115
154
105
190
36
22
73
99
24
173
133
72
137
138
78
69
205
3
21
35
194
206
8
85
71
90
168
170
178
83
135
6
95
195
131
189
184
102
11
118
38
169
63
75
136
52
66
111
17
113
124
68
101
166
128
152
158
29
64
147
107
57
149
197
48
40
143
186
201
198
175
180
25
153
28
88
51

>  <PUBCHEM_MMFF94_PARTIAL_CHARGES>  (1) 
23
1 -0.65
12 0.36
14 0.33
15 0.66
16 0.57
17 0.66
18 0.06
19 0.06
2 -0.57
20 0.66
29 0.37
3 -0.65
32 0.36
33 0.36
36 0.5
37 0.5
38 0.5
4 -0.57
5 -0.57
6 -0.65
7 -0.57
8 -0.73
9 -0.99

>  <PUBCHEM_EFFECTIVE_ROTOR_COUNT>  (1) 
11

>  <PUBCHEM_PHARMACOPHORE_FEATURES>  (1) 
13
1 1 acceptor
1 2 acceptor
1 3 acceptor
1 4 acceptor
1 5 acceptor
1 6 acceptor
1 7 acceptor
1 8 donor
1 9 cation
1 9 donor
3 1 2 15 anion
3 3 5 17 anion
3 6 7 20 anion

>  <PUBCHEM_HEAVY_ATOM_COUNT>  (1) 
20

>  <PUBCHEM_ATOM_DEF_STEREO_COUNT>  (1) 
0

>  <PUBCHEM_ATOM_UDEF_STEREO_COUNT>  (1) 
2

>  <PUBCHEM_BOND_DEF_STEREO_COUNT>  (1) 
0

>  <PUBCHEM_BOND_UDEF_STEREO_COUNT>  (1) 
0

>  <PUBCHEM_ISOTOPIC_ATOM_COUNT>  (1) 
0

>  <PUBCHEM_COMPONENT_COUNT>  (1) 
1

>  <PUBCHEM_CACTVS_TAUTO_COUNT>  (1) 
2

>  <PUBCHEM_CONFORMER_ID>  (1) 
000004AD00000001

>  <PUBCHEM_MMFF94_ENERGY>  (1) 
20.2365

>  <PUBCHEM_FEATURE_SELFOVERLAP>  (1) 
66.153

>  <PUBCHEM_SHAPE_FINGERPRINT>  (1) 
10042902 136 18129393626344863022
11315621 136 18120654888252894687
12596599 1 17771632251965746194
12596602 18 16630524067780854347
12892183 10 17489580134935107128
13464513 79 18342738520681954434
13533116 47 18270399537872409299
13583140 156 17202461390587776472
13955234 65 18195528327416995457
14178000 29 18409730646980271208
1420 369 18272930535908352859
14251764 30 17632027329976326526
14863182 85 18196365042828005456
15342816 4 18187641354427335210
17492 54 17969521449301411964
17818456 19 18059021566911616513
1813 80 18334581208991133077
19141452 34 18053949454799478417
20388580 30 18408041831411173929
20645477 70 18115865372910579353
20693207 138 16951142797260297081
22620623 9 17824255995247004981
23559900 14 18336540642239327825
3057174 1 17465968346035716796
314173 41 18408323302077197107
4463277 69 18341040870122269797
46194498 28 17677327346215614661
463206 1 18200025295720459315
5207 123 18410285887973506165
6025842 7 18192148420072428621
7164475 11 18410007771857211777

>  <PUBCHEM_SHAPE_MULTIPOLES>  (1) 
360.54
10.49
3.94
1.33
12.55
1.08
0.19
-10.85
0.61
-3.03
1.23
-0.17
0.28
-0.62

>  <PUBCHEM_SHAPE_SELFOVERLAP>  (1) 
704.403

>  <PUBCHEM_SHAPE_VOLUME>  (1) 
213.9

>  <PUBCHEM_COORDINATE_TYPE>  (1) 
2
5
10

$$$$
