11976
     RDKit          3D

 10 10  0  0  0  0  0  0  0  0999 V2000
    2.2882   -0.0569    0.0009 O   0  0  0  0  0  0  0  0  0  0  0  0
    0.7214   -2.3950   -0.0001 N   0  0  0  0  0  0  0  0  0  0  0  0
   -3.2574    0.3836    0.0012 N   0  0  0  0  0  0  0  0  0  0  0  0
    0.1329   -1.1117   -0.0003 C   0  0  0  0  0  0  0  0  0  0  0  0
    0.9282    0.0344   -0.0005 C   0  0  0  0  0  0  0  0  0  0  0  0
   -1.8519    0.2661   -0.0003 C   0  0  0  0  0  0  0  0  0  0  0  0
   -1.2573   -0.9957   -0.0002 C   0  0  0  0  0  0  0  0  0  0  0  0
    0.3333    1.2961   -0.0007 C   0  0  0  0  0  0  0  0  0  0  0  0
   -1.0567    1.4120   -0.0005 C   0  0  0  0  0  0  0  0  0  0  0  0
    3.0192    1.1673    0.0005 C   0  0  0  0  0  0  0  0  0  0  0  0
  1  5  1  0
  1 10  1  0
  2  4  1  0
  3  6  1  0
  4  5  2  0
  4  7  1  0
  5  8  1  0
  6  7  2  0
  6  9  1  0
  8  9  2  0
M  END
>  <PUBCHEM_COMPOUND_CID>  (1) 
11976

>  <PUBCHEM_CONFORMER_RMSD>  (1) 
0.4

>  <PUBCHEM_CONFORMER_DIVERSEORDER>  (1) 
3
1
2

>  <PUBCHEM_MMFF94_PARTIAL_CHARGES>  (1) 
17
1 -0.36
10 0.28
11 0.15
12 0.15
13 0.15
14 0.4
15 0.4
16 0.4
17 0.4
2 -0.9
3 -0.9
4 0.1
5 0.08
6 0.1
7 -0.15
8 -0.15
9 -0.15

>  <PUBCHEM_EFFECTIVE_ROTOR_COUNT>  (1) 
1

>  <PUBCHEM_PHARMACOPHORE_FEATURES>  (1) 
6
1 1 acceptor
1 2 cation
1 2 donor
1 3 cation
1 3 donor
6 4 5 6 7 8 9 rings

>  <PUBCHEM_HEAVY_ATOM_COUNT>  (1) 
10

>  <PUBCHEM_ATOM_DEF_STEREO_COUNT>  (1) 
0

>  <PUBCHEM_ATOM_UDEF_STEREO_COUNT>  (1) 
0

>  <PUBCHEM_BOND_DEF_STEREO_COUNT>  (1) 
0

>  <PUBCHEM_BOND_UDEF_STEREO_COUNT>  (1) 
0

>  <PUBCHEM_ISOTOPIC_ATOM_COUNT>  (1) 
0

>  <PUBCHEM_COMPONENT_COUNT>  (1) 
1

>  <PUBCHEM_CACTVS_TAUTO_COUNT>  (1) 
1

>  <PUBCHEM_CONFORMER_ID>  (1) 
00002EC800000003

>  <PUBCHEM_MMFF94_ENERGY>  (1) 
54.5407

>  <PUBCHEM_FEATURE_SELFOVERLAP>  (1) 
30.446

>  <PUBCHEM_SHAPE_FINGERPRINT>  (1) 
12423570 1 11825674824768060139
12897270 3 18410575050356263605
14325111 11 18410855481640096928
16945 1 18410573959534732101
193761 8 17906452121495463620
20645476 183 17750813210258524662
20871998 184 17911809277433064518
21040471 1 18338517555244871712
23235685 24 18409725179497329417
23402655 69 18268131090945268365
23552423 10 18120096082784184159
241688 4 17329146866994513338
2748010 2 18122062267367624469
29004967 10 18261402109082704105
369184 2 16153697769478640000
5084963 1 18202002092819343840
528886 8 18411132575797586625

>  <PUBCHEM_SHAPE_MULTIPOLES>  (1) 
189.96
3.67
1.86
0.59
0.38
0.86
0
-1.35
0
0.28
0
0
-0.02
0

>  <PUBCHEM_SHAPE_SELFOVERLAP>  (1) 
393.29

>  <PUBCHEM_SHAPE_VOLUME>  (1) 
109.4

>  <PUBCHEM_COORDINATE_TYPE>  (1) 
2
5
10

$$$$
