11982
     RDKit          3D

 11 11  0  0  0  0  0  0  0  0999 V2000
   -1.0302   -0.1990    0.0032 O   0  0  0  0  0  0  0  0  0  0  0  0
    2.3530    0.8678   -0.0023 O   0  0  0  0  0  0  0  0  0  0  0  0
   -0.1650    1.9343    0.0007 O   0  0  0  0  0  0  0  0  0  0  0  0
   -3.3364   -0.8400    0.0053 C   0  0  0  0  0  0  0  0  0  0  0  0
   -2.3528    0.3202    0.0035 C   0  0  0  0  0  0  0  0  0  0  0  0
   -4.7765   -0.3595   -0.0095 C   0  0  0  0  0  0  0  0  0  0  0  0
    1.3004    0.0533    0.0002 C   0  0  0  0  0  0  0  0  0  0  0  0
   -0.0258    0.7210    0.0018 C   0  0  0  0  0  0  0  0  0  0  0  0
    1.5972   -1.2486    0.0011 C   0  0  0  0  0  0  0  0  0  0  0  0
    3.0121   -1.2809   -0.0010 C   0  0  0  0  0  0  0  0  0  0  0  0
    3.4240    0.0314   -0.0029 C   0  0  0  0  0  0  0  0  0  0  0  0
  1  5  1  0
  1  8  1  0
  2  7  1  0
  2 11  1  0
  3  8  2  0
  4  5  1  0
  4  6  1  0
  7  8  1  0
  7  9  2  0
  9 10  1  0
 10 11  2  0
M  END
>  <PUBCHEM_COMPOUND_CID>  (1) 
11982

>  <PUBCHEM_CONFORMER_RMSD>  (1) 
0.6

>  <PUBCHEM_CONFORMER_DIVERSEORDER>  (1) 
1
45
35
38
28
44
29
15
13
34
25
7
33
41
19
8
37
12
21
32
10
3
31
9
30
14
27
46
40
16
22
17
26
20
24
39
36
23
18
4
43
2
11
42
5
6

>  <PUBCHEM_MMFF94_PARTIAL_CHARGES>  (1) 
12
1 -0.43
10 -0.15
11 -0.01
19 0.15
2 -0.28
20 0.15
21 0.15
3 -0.57
5 0.28
7 0.05
8 0.81
9 -0.15

>  <PUBCHEM_EFFECTIVE_ROTOR_COUNT>  (1) 
4

>  <PUBCHEM_PHARMACOPHORE_FEATURES>  (1) 
4
1 2 acceptor
1 3 acceptor
1 6 hydrophobe
5 2 7 9 10 11 rings

>  <PUBCHEM_HEAVY_ATOM_COUNT>  (1) 
11

>  <PUBCHEM_ATOM_DEF_STEREO_COUNT>  (1) 
0

>  <PUBCHEM_ATOM_UDEF_STEREO_COUNT>  (1) 
0

>  <PUBCHEM_BOND_DEF_STEREO_COUNT>  (1) 
0

>  <PUBCHEM_BOND_UDEF_STEREO_COUNT>  (1) 
0

>  <PUBCHEM_ISOTOPIC_ATOM_COUNT>  (1) 
0

>  <PUBCHEM_COMPONENT_COUNT>  (1) 
1

>  <PUBCHEM_CACTVS_TAUTO_COUNT>  (1) 
1

>  <PUBCHEM_CONFORMER_ID>  (1) 
00002ECE00000001

>  <PUBCHEM_MMFF94_ENERGY>  (1) 
8.1345

>  <PUBCHEM_FEATURE_SELFOVERLAP>  (1) 
20.303

>  <PUBCHEM_SHAPE_FINGERPRINT>  (1) 
10219947 1 18272654558225796559
11062470 55 17530684320492966463
12032990 46 18410578366102716511
12932764 1 17275090726482116141
14251717 144 18411135857321594119
14252887 29 18130517374230464239
14325111 11 18410573967987412705
15477762 27 18337390547426409855
20201158 50 18260832596213792547
20279233 1 17749394779881179619
20281407 28 18335423473847971363
20645477 70 18410571756464923039
20871998 22 18200882755543538342
21119208 17 14201397179368206667
21501925 9 18410284800951141458
22485316 2 18410852170615970111
23402539 116 11602822436147892490
23402655 69 18409726253518533685
581208 293 18411133666798439970

>  <PUBCHEM_SHAPE_MULTIPOLES>  (1) 
208.77
7.42
1.36
0.59
6.88
0.24
0
-2.24
0.02
-0.46
0
0.01
-0.02
0

>  <PUBCHEM_SHAPE_SELFOVERLAP>  (1) 
424.332

>  <PUBCHEM_SHAPE_VOLUME>  (1) 
123

>  <PUBCHEM_COORDINATE_TYPE>  (1) 
2
5
10

$$$$
