11993
     RDKit          3D

  8  8  0  0  0  0  0  0  0  0999 V2000
    2.5271   -1.4348   -0.0002 I   0  0  0  0  0  0  0  0  0  0  0  0
    1.6596    1.9626    0.0001 Cl  0  0  0  0  0  0  0  0  0  0  0  0
    0.6071   -0.5810    0.0002 C   0  0  0  0  0  0  0  0  0  0  0  0
    0.3817    0.7956    0.0000 C   0  0  0  0  0  0  0  0  0  0  0  0
   -0.4724   -1.4645    0.0002 C   0  0  0  0  0  0  0  0  0  0  0  0
   -0.9232    1.2886   -0.0001 C   0  0  0  0  0  0  0  0  0  0  0  0
   -1.7772   -0.9715    0.0000 C   0  0  0  0  0  0  0  0  0  0  0  0
   -2.0026    0.4050   -0.0001 C   0  0  0  0  0  0  0  0  0  0  0  0
  1  3  1  0
  2  4  1  0
  3  4  2  0
  3  5  1  0
  4  6  1  0
  5  7  2  0
  6  8  2  0
  7  8  1  0
M  END
>  <PUBCHEM_COMPOUND_CID>  (1) 
11993

>  <PUBCHEM_CONFORMER_RMSD>  (1) 
0.4

>  <PUBCHEM_CONFORMER_DIVERSEORDER>  (1) 
1

>  <PUBCHEM_MMFF94_PARTIAL_CHARGES>  (1) 
12
1 -0.08
10 0.15
11 0.15
12 0.15
2 -0.18
3 0.08
4 0.18
5 -0.15
6 -0.15
7 -0.15
8 -0.15
9 0.15

>  <PUBCHEM_EFFECTIVE_ROTOR_COUNT>  (1) 
0

>  <PUBCHEM_PHARMACOPHORE_FEATURES>  (1) 
2
1 1 hydrophobe
6 3 4 5 6 7 8 rings

>  <PUBCHEM_HEAVY_ATOM_COUNT>  (1) 
8

>  <PUBCHEM_ATOM_DEF_STEREO_COUNT>  (1) 
0

>  <PUBCHEM_ATOM_UDEF_STEREO_COUNT>  (1) 
0

>  <PUBCHEM_BOND_DEF_STEREO_COUNT>  (1) 
0

>  <PUBCHEM_BOND_UDEF_STEREO_COUNT>  (1) 
0

>  <PUBCHEM_ISOTOPIC_ATOM_COUNT>  (1) 
0

>  <PUBCHEM_COMPONENT_COUNT>  (1) 
1

>  <PUBCHEM_CACTVS_TAUTO_COUNT>  (1) 
1

>  <PUBCHEM_CONFORMER_ID>  (1) 
00002ED900000001

>  <PUBCHEM_MMFF94_ENERGY>  (1) 
18.3112

>  <PUBCHEM_FEATURE_SELFOVERLAP>  (1) 
10.148

>  <PUBCHEM_SHAPE_FINGERPRINT>  (1) 
12423570 1 12031778171830955003
16714656 1 18122908625017325742
16945 1 18338516326704954950
18185500 45 18192713332477640554
193761 8 18338517546591685575
21040471 1 18194401319144455969
23552423 10 18262802989880714726
241688 4 18337106761451378048
2748010 2 18409164454384245463
5084963 1 18201712925429612059

>  <PUBCHEM_SHAPE_MULTIPOLES>  (1) 
178.44
3.18
2.16
0.66
1.33
0.92
0
-0.98
0
0.56
0
0.11
-0.02
0

>  <PUBCHEM_SHAPE_SELFOVERLAP>  (1) 
337.299

>  <PUBCHEM_SHAPE_VOLUME>  (1) 
115.1

>  <PUBCHEM_COORDINATE_TYPE>  (1) 
2
5
10

$$$$
