12
     RDKit          3D

 10 10  0  0  0  0  0  0  0  0999 V2000
    2.4848    0.0000    0.0000 O   0  0  0  0  0  0  0  0  0  0  0  0
    1.0928    2.3948    0.0002 O   0  0  0  0  0  0  0  0  0  0  0  0
    1.0929   -2.3947    0.0001 O   0  0  0  0  0  0  0  0  0  0  0  0
   -3.0295   -0.0001    0.0001 O   0  0  0  0  0  0  0  0  0  0  0  0
    1.1213    0.0000   -0.0001 C   0  0  0  0  0  0  0  0  0  0  0  0
    0.4239    1.2079   -0.0002 C   0  0  0  0  0  0  0  0  0  0  0  0
    0.4240   -1.2079    0.0000 C   0  0  0  0  0  0  0  0  0  0  0  0
   -1.6684    0.0000    0.0000 C   0  0  0  0  0  0  0  0  0  0  0  0
   -0.9710    1.2080    0.0000 C   0  0  0  0  0  0  0  0  0  0  0  0
   -0.9709   -1.2080    0.0000 C   0  0  0  0  0  0  0  0  0  0  0  0
  1  5  1  0
  2  6  1  0
  3  7  1  0
  4  8  1  0
  5  6  2  0
  5  7  1  0
  6  9  1  0
  7 10  2  0
  8  9  2  0
  8 10  1  0
M  END
>  <PUBCHEM_COMPOUND_CID>  (1) 
12

>  <PUBCHEM_CONFORMER_RMSD>  (1) 
0.4

>  <PUBCHEM_CONFORMER_DIVERSEORDER>  (1) 
1

>  <PUBCHEM_MMFF94_PARTIAL_CHARGES>  (1) 
16
1 -0.53
10 -0.15
11 0.15
12 0.15
13 0.45
14 0.45
15 0.45
16 0.45
2 -0.53
3 -0.53
4 -0.53
5 0.08
6 0.08
7 0.08
8 0.08
9 -0.15

>  <PUBCHEM_EFFECTIVE_ROTOR_COUNT>  (1) 
0

>  <PUBCHEM_PHARMACOPHORE_FEATURES>  (1) 
5
1 1 donor
1 2 donor
1 3 donor
1 4 donor
6 5 6 7 8 9 10 rings

>  <PUBCHEM_HEAVY_ATOM_COUNT>  (1) 
10

>  <PUBCHEM_ATOM_DEF_STEREO_COUNT>  (1) 
0

>  <PUBCHEM_ATOM_UDEF_STEREO_COUNT>  (1) 
0

>  <PUBCHEM_BOND_DEF_STEREO_COUNT>  (1) 
0

>  <PUBCHEM_BOND_UDEF_STEREO_COUNT>  (1) 
0

>  <PUBCHEM_ISOTOPIC_ATOM_COUNT>  (1) 
0

>  <PUBCHEM_COMPONENT_COUNT>  (1) 
1

>  <PUBCHEM_CACTVS_TAUTO_COUNT>  (1) 
15

>  <PUBCHEM_CONFORMER_ID>  (1) 
0000000C00000001

>  <PUBCHEM_MMFF94_ENERGY>  (1) 
21.7083

>  <PUBCHEM_FEATURE_SELFOVERLAP>  (1) 
25.383

>  <PUBCHEM_SHAPE_FINGERPRINT>  (1) 
12423570 1 10414763211397610212
16945 1 18410855464628844421
18185500 45 18340204098618098415
193761 8 17689997834503462052
21040471 1 17906171007332890113
23552423 10 17973171625330209846
241688 4 17906173953674894969
2748010 2 18121220050003060503
29004967 10 18335708204256937707
5084963 1 18130790130433717339

>  <PUBCHEM_SHAPE_MULTIPOLES>  (1) 
182.32
2.71
2.16
0.58
1.07
0
0
0
0
-0.9
0
0.02
0
0

>  <PUBCHEM_SHAPE_SELFOVERLAP>  (1) 
387.182

>  <PUBCHEM_SHAPE_VOLUME>  (1) 
102.3

>  <PUBCHEM_COORDINATE_TYPE>  (1) 
2
5
10

$$$$
