120
     RDKit          3D

 10 10  0  0  0  0  0  0  0  0999 V2000
    1.2603    1.0471   -0.1588 O   0  0  0  0  0  0  0  0  0  0  0  0
    3.4710    0.4246   -0.0149 O   0  0  0  0  0  0  0  0  0  0  0  0
   -3.3965    0.7279    0.4378 O   0  0  0  0  0  0  0  0  0  0  0  0
   -2.4342   -1.1616   -0.3884 O   0  0  0  0  0  0  0  0  0  0  0  0
    0.1064    0.2832   -0.0554 C   0  0  0  0  0  0  0  0  0  0  0  0
    0.4373   -1.0785    0.1736 C   0  0  0  0  0  0  0  0  0  0  0  0
    1.7559   -1.2042    0.2191 C   0  0  0  0  0  0  0  0  0  0  0  0
   -1.1198    0.8012   -0.1634 C   0  0  0  0  0  0  0  0  0  0  0  0
    2.2825    0.1470    0.0082 C   0  0  0  0  0  0  0  0  0  0  0  0
   -2.3628    0.0132   -0.0579 C   0  0  0  0  0  0  0  0  0  0  0  0
  1  5  1  0
  1  9  1  0
  2  9  2  0
  3 10  1  0
  4 10  2  0
  5  6  1  0
  5  8  2  0
  6  7  2  0
  7  9  1  0
  8 10  1  0
M  END
>  <PUBCHEM_COMPOUND_CID>  (1) 
120

>  <PUBCHEM_CONFORMER_RMSD>  (1) 
0.4

>  <PUBCHEM_CONFORMER_DIVERSEORDER>  (1) 
1

>  <PUBCHEM_MMFF94_PARTIAL_CHARGES>  (1) 
14
1 -0.23
10 0.71
11 0.15
12 0.15
13 0.15
14 0.5
2 -0.57
3 -0.65
4 -0.57
5 0.08
6 -0.15
7 -0.14
8 -0.14
9 0.71

>  <PUBCHEM_EFFECTIVE_ROTOR_COUNT>  (1) 
1.2

>  <PUBCHEM_PHARMACOPHORE_FEATURES>  (1) 
5
1 2 acceptor
1 3 acceptor
1 4 acceptor
3 3 4 10 anion
5 1 5 6 7 9 rings

>  <PUBCHEM_HEAVY_ATOM_COUNT>  (1) 
10

>  <PUBCHEM_ATOM_DEF_STEREO_COUNT>  (1) 
0

>  <PUBCHEM_ATOM_UDEF_STEREO_COUNT>  (1) 
0

>  <PUBCHEM_BOND_DEF_STEREO_COUNT>  (1) 
0

>  <PUBCHEM_BOND_UDEF_STEREO_COUNT>  (1) 
1

>  <PUBCHEM_ISOTOPIC_ATOM_COUNT>  (1) 
0

>  <PUBCHEM_COMPONENT_COUNT>  (1) 
1

>  <PUBCHEM_CACTVS_TAUTO_COUNT>  (1) 
1

>  <PUBCHEM_CONFORMER_ID>  (1) 
0000007800000001

>  <PUBCHEM_MMFF94_ENERGY>  (1) 
18.5411

>  <PUBCHEM_FEATURE_SELFOVERLAP>  (1) 
25.429

>  <PUBCHEM_SHAPE_FINGERPRINT>  (1) 
10219947 1 17748545948261737308
11062470 55 17022902345794399093
12897270 3 18409443695856629917
12932764 1 18040992908371615679
14325111 11 18410855477534897292
21040471 1 18336546118243534522
23235685 24 18334572451563236096
23402655 69 18267569244539810349
23552423 10 18188771630589587746
29004967 10 17895197675092137377
3248919 1 17774997947415678935

>  <PUBCHEM_SHAPE_MULTIPOLES>  (1) 
182.32
4.82
1.21
0.62
0.93
0.24
0.01
-0.54
0.23
-0.06
-0.01
0.08
0.02
-0.23

>  <PUBCHEM_SHAPE_SELFOVERLAP>  (1) 
384.726

>  <PUBCHEM_SHAPE_VOLUME>  (1) 
103.2

>  <PUBCHEM_COORDINATE_TYPE>  (1) 
2
5
10

$$$$
