12003
     RDKit          3D

  9  9  0  0  0  0  0  0  0  0999 V2000
    1.9349   -2.1743   -0.0003 Br  0  0  0  0  0  0  0  0  0  0  0  0
    2.8599    1.1625    0.0005 Br  0  0  0  0  0  0  0  0  0  0  0  0
   -2.9722   -0.4459    0.0003 O   0  0  0  0  0  0  0  0  0  0  0  0
   -1.6543   -0.1062    0.0000 C   0  0  0  0  0  0  0  0  0  0  0  0
   -0.6767   -1.1013    0.0002 C   0  0  0  0  0  0  0  0  0  0  0  0
   -1.2813    1.2380   -0.0003 C   0  0  0  0  0  0  0  0  0  0  0  0
    0.6738   -0.7521    0.0001 C   0  0  0  0  0  0  0  0  0  0  0  0
    1.0466    0.5921   -0.0002 C   0  0  0  0  0  0  0  0  0  0  0  0
    0.0691    1.5871   -0.0003 C   0  0  0  0  0  0  0  0  0  0  0  0
  1  7  1  0
  2  8  1  0
  3  4  1  0
  4  5  2  0
  4  6  1  0
  5  7  1  0
  6  9  2  0
  7  8  2  0
  8  9  1  0
M  END
>  <PUBCHEM_COMPOUND_CID>  (1) 
12003

>  <PUBCHEM_CONFORMER_RMSD>  (1) 
0.4

>  <PUBCHEM_CONFORMER_DIVERSEORDER>  (1) 
1

>  <PUBCHEM_MMFF94_PARTIAL_CHARGES>  (1) 
13
1 -0.11
10 0.15
11 0.15
12 0.15
13 0.45
2 -0.11
3 -0.53
4 0.08
5 -0.15
6 -0.15
7 0.11
8 0.11
9 -0.15

>  <PUBCHEM_EFFECTIVE_ROTOR_COUNT>  (1) 
0

>  <PUBCHEM_PHARMACOPHORE_FEATURES>  (1) 
4
1 1 hydrophobe
1 2 hydrophobe
1 3 donor
6 4 5 6 7 8 9 rings

>  <PUBCHEM_HEAVY_ATOM_COUNT>  (1) 
9

>  <PUBCHEM_ATOM_DEF_STEREO_COUNT>  (1) 
0

>  <PUBCHEM_ATOM_UDEF_STEREO_COUNT>  (1) 
0

>  <PUBCHEM_BOND_DEF_STEREO_COUNT>  (1) 
0

>  <PUBCHEM_BOND_UDEF_STEREO_COUNT>  (1) 
0

>  <PUBCHEM_ISOTOPIC_ATOM_COUNT>  (1) 
0

>  <PUBCHEM_COMPONENT_COUNT>  (1) 
1

>  <PUBCHEM_CACTVS_TAUTO_COUNT>  (1) 
3

>  <PUBCHEM_CONFORMER_ID>  (1) 
00002EE300000001

>  <PUBCHEM_MMFF94_ENERGY>  (1) 
19.5518

>  <PUBCHEM_FEATURE_SELFOVERLAP>  (1) 
20.297

>  <PUBCHEM_SHAPE_FINGERPRINT>  (1) 
12423570 1 12184975222835764650
14128692 85 18195533592956878286
161256 15 18338803316678058718
16945 1 18338516446964117189
19021347 11 18409448107146875342
193761 8 18194682566461623620
20645476 183 17534636103254884292
21040471 1 17762337315650520132
21501502 16 18339925887774399672
23235685 24 18336822116752002784
23402655 69 18340469094797351157
23552423 10 18262523580772795318
241688 4 18120093879450124304
2748010 2 18337388214900543557
29004967 10 18334019427411182769
5084963 1 18128530470777353834
528862 383 18334849524483538898
68250623 7 18268718211871577595

>  <PUBCHEM_SHAPE_MULTIPOLES>  (1) 
191.23
3.6
2.16
0.64
0.22
0.53
0
0
0
-1.32
0
-0.1
0.01
0

>  <PUBCHEM_SHAPE_SELFOVERLAP>  (1) 
368.906

>  <PUBCHEM_SHAPE_VOLUME>  (1) 
121.5

>  <PUBCHEM_COORDINATE_TYPE>  (1) 
2
5
10

$$$$
