12008
     RDKit          3D

  9  9  0  0  0  0  0  0  0  0999 V2000
   -2.8424    0.8193    0.0003 Cl  0  0  0  0  0  0  0  0  0  0  0  0
   -1.5431   -1.8925   -0.0001 O   0  0  0  0  0  0  0  0  0  0  0  0
    1.5929   -0.0237    0.0000 C   0  0  0  0  0  0  0  0  0  0  0  0
    0.6892   -1.0864    0.0000 C   0  0  0  0  0  0  0  0  0  0  0  0
    1.1247    1.2901   -0.0001 C   0  0  0  0  0  0  0  0  0  0  0  0
   -0.6829   -0.8351   -0.0001 C   0  0  0  0  0  0  0  0  0  0  0  0
    3.0599   -0.2921    0.0002 C   0  0  0  0  0  0  0  0  0  0  0  0
   -0.2473    1.5414   -0.0001 C   0  0  0  0  0  0  0  0  0  0  0  0
   -1.1512    0.4789   -0.0001 C   0  0  0  0  0  0  0  0  0  0  0  0
  1  9  1  0
  2  6  1  0
  3  4  2  0
  3  5  1  0
  3  7  1  0
  4  6  1  0
  5  8  2  0
  6  9  2  0
  8  9  1  0
M  END
>  <PUBCHEM_COMPOUND_CID>  (1) 
12008

>  <PUBCHEM_CONFORMER_RMSD>  (1) 
0.4

>  <PUBCHEM_CONFORMER_DIVERSEORDER>  (1) 
1

>  <PUBCHEM_MMFF94_PARTIAL_CHARGES>  (1) 
13
1 -0.18
10 0.15
11 0.15
12 0.15
16 0.45
2 -0.53
3 -0.14
4 -0.15
5 -0.15
6 0.08
7 0.14
8 -0.15
9 0.18

>  <PUBCHEM_EFFECTIVE_ROTOR_COUNT>  (1) 
0

>  <PUBCHEM_PHARMACOPHORE_FEATURES>  (1) 
2
1 2 donor
6 3 4 5 6 8 9 rings

>  <PUBCHEM_HEAVY_ATOM_COUNT>  (1) 
9

>  <PUBCHEM_ATOM_DEF_STEREO_COUNT>  (1) 
0

>  <PUBCHEM_ATOM_UDEF_STEREO_COUNT>  (1) 
0

>  <PUBCHEM_BOND_DEF_STEREO_COUNT>  (1) 
0

>  <PUBCHEM_BOND_UDEF_STEREO_COUNT>  (1) 
0

>  <PUBCHEM_ISOTOPIC_ATOM_COUNT>  (1) 
0

>  <PUBCHEM_COMPONENT_COUNT>  (1) 
1

>  <PUBCHEM_CACTVS_TAUTO_COUNT>  (1) 
9

>  <PUBCHEM_CONFORMER_ID>  (1) 
00002EE800000001

>  <PUBCHEM_MMFF94_ENERGY>  (1) 
19.0422

>  <PUBCHEM_FEATURE_SELFOVERLAP>  (1) 
10.148

>  <PUBCHEM_SHAPE_FINGERPRINT>  (1) 
12423570 1 13661766338442113279
14325111 11 18338516339758817793
15310529 11 16660641804563218428
16945 1 18410856521085460100
18185500 45 18408039619618768626
193761 8 18050567640310123077
21040471 1 18410855417210293253
23235685 24 18340482266385692524
23402655 69 18050548666068334837
23552423 10 18116152349539825396
2748010 2 18267302217067945012
29004967 10 18188218597641722161
5084963 1 18199753707298950163

>  <PUBCHEM_SHAPE_MULTIPOLES>  (1) 
181.22
3.57
1.68
0.61
0.35
0.27
0
-0.21
0
-0.47
0
0
-0.02
0

>  <PUBCHEM_SHAPE_SELFOVERLAP>  (1) 
367.081

>  <PUBCHEM_SHAPE_VOLUME>  (1) 
107.7

>  <PUBCHEM_COORDINATE_TYPE>  (1) 
2
5
10

$$$$
