12000
     RDKit          3D

  9  9  0  0  0  0  0  0  0  0999 V2000
    3.2746   -0.2797    0.0000 Cl  0  0  0  0  0  0  0  0  0  0  0  0
   -2.9281    0.8231    0.0000 S   0  0  0  0  0  0  0  0  0  0  0  0
   -1.5557   -1.9553    0.0000 N   0  0  0  0  0  0  0  0  0  0  0  0
   -0.6863   -0.8405   -0.0001 C   0  0  0  0  0  0  0  0  0  0  0  0
   -1.1740    0.4664    0.0000 C   0  0  0  0  0  0  0  0  0  0  0  0
    0.6894   -1.0716    0.0000 C   0  0  0  0  0  0  0  0  0  0  0  0
   -0.2863    1.5422    0.0000 C   0  0  0  0  0  0  0  0  0  0  0  0
    1.5772    0.0043    0.0000 C   0  0  0  0  0  0  0  0  0  0  0  0
    1.0893    1.3112    0.0000 C   0  0  0  0  0  0  0  0  0  0  0  0
  1  8  1  0
  2  5  1  0
  3  4  1  0
  4  5  2  0
  4  6  1  0
  5  7  1  0
  6  8  2  0
  7  9  2  0
  8  9  1  0
M  END
>  <PUBCHEM_COMPOUND_CID>  (1) 
12000

>  <PUBCHEM_CONFORMER_RMSD>  (1) 
0.4

>  <PUBCHEM_CONFORMER_DIVERSEORDER>  (1) 
1

>  <PUBCHEM_MMFF94_PARTIAL_CHARGES>  (1) 
15
1 -0.18
10 0.15
11 0.15
12 0.15
13 0.4
14 0.4
15 0.18
2 -0.28
3 -0.9
4 0.1
5 0.1
6 -0.15
7 -0.15
8 0.18
9 -0.15

>  <PUBCHEM_EFFECTIVE_ROTOR_COUNT>  (1) 
0

>  <PUBCHEM_PHARMACOPHORE_FEATURES>  (1) 
3
1 3 cation
1 3 donor
6 4 5 6 7 8 9 rings

>  <PUBCHEM_HEAVY_ATOM_COUNT>  (1) 
9

>  <PUBCHEM_ATOM_DEF_STEREO_COUNT>  (1) 
0

>  <PUBCHEM_ATOM_UDEF_STEREO_COUNT>  (1) 
0

>  <PUBCHEM_BOND_DEF_STEREO_COUNT>  (1) 
0

>  <PUBCHEM_BOND_UDEF_STEREO_COUNT>  (1) 
0

>  <PUBCHEM_ISOTOPIC_ATOM_COUNT>  (1) 
0

>  <PUBCHEM_COMPONENT_COUNT>  (1) 
1

>  <PUBCHEM_CACTVS_TAUTO_COUNT>  (1) 
5

>  <PUBCHEM_CONFORMER_ID>  (1) 
00002EE000000001

>  <PUBCHEM_MMFF94_ENERGY>  (1) 
30.5916

>  <PUBCHEM_FEATURE_SELFOVERLAP>  (1) 
15.223

>  <PUBCHEM_SHAPE_FINGERPRINT>  (1) 
14325111 11 18338797814640550433
15310529 11 16588301636042226788
16945 1 18410575050398448484
193761 8 18050567640320679077
20871998 184 18201440319528946662
21040471 1 18410855434469303205
23235685 24 18340481171158482540
23402655 69 18050830141045071469
23552423 10 18116152353855924188
2748010 2 18267302221357644044
29004967 10 18188780443894069433
5084963 1 18200036290335064163

>  <PUBCHEM_SHAPE_MULTIPOLES>  (1) 
185.95
3.93
1.71
0.62
0.84
0.35
0
-0.26
0
-0.54
0
0
-0.02
0

>  <PUBCHEM_SHAPE_SELFOVERLAP>  (1) 
366.28

>  <PUBCHEM_SHAPE_VOLUME>  (1) 
113.9

>  <PUBCHEM_COORDINATE_TYPE>  (1) 
2
5
10

$$$$
