1200
     RDKit          3D

 43 47  0  0  1  0  0  0  0  0999 V2000
   -1.6530   -0.7490    0.0540 S   0  0  0  0  0  0  0  0  0  0  0  0
   -0.6446   -3.1302    3.1392 O   0  0  0  0  0  0  0  0  0  0  0  0
   -0.3187   -5.3751   -0.2810 O   0  0  0  0  0  0  0  0  0  0  0  0
   -2.4966   -4.6111    1.0397 O   0  0  0  0  0  0  0  0  0  0  0  0
   -4.2885    1.2509   -1.7393 O   0  0  0  0  0  0  0  0  0  0  0  0
   -2.5156    3.5854    2.0222 O   0  0  0  0  0  0  0  0  0  0  0  0
    2.0899    5.1778    0.7183 O   0  0  0  0  0  0  0  0  0  0  0  0
    1.6706    5.5327   -1.4815 O   0  0  0  0  0  0  0  0  0  0  0  0
   -4.7039   -2.2855   -1.3044 O   0  0  0  0  0  0  0  0  0  0  0  0
   -6.6376   -2.5084   -2.4699 O   0  0  0  0  0  0  0  0  0  0  0  0
   -2.6178    2.3403    0.0634 N   0  0  0  0  0  0  0  0  0  0  0  0
   -5.3776   -0.0413   -0.1500 N   0  0  0  0  0  0  0  0  0  0  0  0
   -0.5147    6.9980   -1.0124 N   0  0  0  0  0  0  0  0  0  0  0  0
   -0.5838   -1.5707    1.3004 C   0  0  0  0  0  0  0  0  0  0  0  0
    0.7201   -2.0247    0.6542 C   0  0  0  0  0  0  0  0  0  0  0  0
    1.8319   -1.1361    0.5026 C   0  0  0  0  0  0  0  0  0  0  0  0
    3.0176   -1.6083   -0.1239 C   0  0  0  0  0  0  0  0  0  0  0  0
    0.8248   -3.3384    0.1588 C   0  0  0  0  0  0  0  0  0  0  0  0
   -1.3546   -2.7058    1.9819 C   0  0  0  0  0  0  0  0  0  0  0  0
    4.1467   -0.7571   -0.2874 C   0  0  0  0  0  0  0  0  0  0  0  0
    3.0930   -2.9376   -0.6002 C   0  0  0  0  0  0  0  0  0  0  0  0
    1.9942   -3.7873   -0.4579 C   0  0  0  0  0  0  0  0  0  0  0  0
   -0.3046   -4.2845    0.2690 C   0  0  0  0  0  0  0  0  0  0  0  0
   -1.4993   -3.9071    1.0939 C   0  0  0  0  0  0  0  0  0  0  0  0
    4.1024    0.5778    0.1694 C   0  0  0  0  0  0  0  0  0  0  0  0
    1.8315    0.2085    0.9377 C   0  0  0  0  0  0  0  0  0  0  0  0
    5.3251   -1.2369   -0.9101 C   0  0  0  0  0  0  0  0  0  0  0  0
    4.2662   -3.3953   -1.2146 C   0  0  0  0  0  0  0  0  0  0  0  0
    2.9382    1.0459    0.7774 C   0  0  0  0  0  0  0  0  0  0  0  0
   -2.7107    0.1556    1.2024 C   0  0  0  0  0  0  0  0  0  0  0  0
    5.3688   -2.5571   -1.3668 C   0  0  0  0  0  0  0  0  0  0  0  0
   -3.4893    1.3017    0.5516 C   0  0  0  0  0  0  0  0  0  0  0  0
    5.2199    1.4098    0.0049 C   0  0  0  0  0  0  0  0  0  0  0  0
    6.4286   -0.3845   -1.0613 C   0  0  0  0  0  0  0  0  0  0  0  0
    6.3756    0.9303   -0.6059 C   0  0  0  0  0  0  0  0  0  0  0  0
   -4.4041    0.8472   -0.5839 C   0  0  0  0  0  0  0  0  0  0  0  0
   -2.1996    3.4069    0.8491 C   0  0  0  0  0  0  0  0  0  0  0  0
   -1.2965    4.3532    0.0762 C   0  0  0  0  0  0  0  0  0  0  0  0
   -0.8257    5.5351    0.9263 C   0  0  0  0  0  0  0  0  0  0  0  0
    0.1443    6.4569    0.1788 C   0  0  0  0  0  0  0  0  0  0  0  0
   -6.3772   -0.5943   -1.0336 C   0  0  0  0  0  0  0  0  0  0  0  0
    1.3647    5.6961   -0.3070 C   0  0  0  0  0  0  0  0  0  0  0  0
   -5.9402   -1.8834   -1.6804 C   0  0  0  0  0  0  0  0  0  0  0  0
  1 14  1  0
  1 30  1  0
  2 19  1  0
  3 23  2  0
  4 24  2  0
  5 36  2  0
  6 37  2  0
  7 42  1  0
  8 42  2  0
  9 43  1  0
 10 43  2  0
 11 32  1  0
 11 37  1  0
 12 36  1  0
 12 41  1  0
 13 40  1  0
 14 15  1  0
 14 19  1  0
 15 16  1  0
 15 18  2  0
 16 17  2  0
 16 26  1  0
 17 20  1  0
 17 21  1  0
 18 22  1  0
 18 23  1  0
 19 24  1  0
 20 25  2  0
 20 27  1  0
 21 22  2  0
 21 28  1  0
 23 24  1  0
 25 29  1  0
 25 33  1  0
 26 29  2  0
 27 31  1  0
 27 34  2  0
 28 31  2  0
 30 32  1  0
 32 36  1  0
 33 35  2  0
 34 35  1  0
 37 38  1  0
 38 39  1  0
 39 40  1  0
 40 42  1  0
 41 43  1  0
M  END
>  <PUBCHEM_COMPOUND_CID>  (1) 
1200

>  <PUBCHEM_CONFORMER_RMSD>  (1) 
1.2

>  <PUBCHEM_CONFORMER_DIVERSEORDER>  (1) 
1
177
222
121
130
223
203
179
120
100
221
18
59
65
118
39
72
287
63
20
57
38
283
218
261
123
10
4
107
91
103
125
249
152
250
205
277
102
171
192
276
164
215
174
122
94
281
294
99
180
159
278
186
62
170
151
230
178
257
58
114
265
271
182
240
23
290
194
300
88
67
238
115
87
163
48
273
228
176
239
134
246
275
258
52
237
235
168
11
138
296
219
153
45
81
143
208
270
279
225
89
15
269
116
140
255
285
84
31
297
12
147
145
162
7
241
92
109
298
245
149
160
85
259
288
98
37
172
119
236
126
274
56
280
26
253
40
191
64
227
111
9
108
113
251
28
217
43
32
154
13
165
117
214
148
233
75
242
17
93
35
295
27
132
8
212
83
175
77
104
70
76
211
79
137
105
54
68
190
252
82
193
301
196
244
289
173
101
24
199
33
195
22
46
90
267
266
224
157
47
260
284
6
188
264
150
3
254
166
74
53
247
303
181
25
19
291
95
69
129
183
131
226
184
268
71
272
36
80
263
41
161
97
187
198
234
293
30
21
42
220
229
232
16
106
169
144
286
50
86
156
78
133
44
292
204
248
185
209
60
201
299
73
2
158
243
202
55
14
49
112
155
216
29
302
142
5
213
262
135
128
231
141
256
207
127
34
66
282
96
210
167
51
200
136
146
124
189
110
61
206
197
139

>  <PUBCHEM_MMFF94_PARTIAL_CHARGES>  (1) 
51
1 -0.46
10 -0.57
11 -0.73
12 -0.73
13 -0.99
14 0.37
15 -0.14
18 0.09
19 0.34
2 -0.68
22 -0.15
23 0.48
24 0.51
26 -0.15
28 -0.15
29 -0.15
3 -0.57
30 0.23
31 -0.15
32 0.36
33 -0.15
34 -0.15
35 -0.15
36 0.57
37 0.57
38 0.06
4 -0.57
40 0.33
41 0.36
42 0.66
43 0.66
46 0.15
47 0.15
48 0.15
49 0.15
5 -0.57
52 0.15
54 0.15
55 0.15
56 0.4
57 0.15
58 0.37
6 -0.57
63 0.37
67 0.36
68 0.36
69 0.5
7 -0.65
70 0.5
8 -0.57
9 -0.65

>  <PUBCHEM_EFFECTIVE_ROTOR_COUNT>  (1) 
13.4

>  <PUBCHEM_PHARMACOPHORE_FEATURES>  (1) 
21
1 10 acceptor
1 11 donor
1 12 donor
1 13 cation
1 13 donor
1 2 acceptor
1 2 donor
1 3 acceptor
1 4 acceptor
1 5 acceptor
1 6 acceptor
1 7 acceptor
1 8 acceptor
1 9 acceptor
3 7 8 42 anion
3 9 10 43 anion
6 14 15 18 19 23 24 rings
6 15 16 17 18 21 22 rings
6 16 17 20 25 26 29 rings
6 17 20 21 27 28 31 rings
6 20 25 27 33 34 35 rings

>  <PUBCHEM_HEAVY_ATOM_COUNT>  (1) 
43

>  <PUBCHEM_ATOM_DEF_STEREO_COUNT>  (1) 
0

>  <PUBCHEM_ATOM_UDEF_STEREO_COUNT>  (1) 
4

>  <PUBCHEM_BOND_DEF_STEREO_COUNT>  (1) 
0

>  <PUBCHEM_BOND_UDEF_STEREO_COUNT>  (1) 
0

>  <PUBCHEM_ISOTOPIC_ATOM_COUNT>  (1) 
0

>  <PUBCHEM_COMPONENT_COUNT>  (1) 
1

>  <PUBCHEM_CACTVS_TAUTO_COUNT>  (1) 
120

>  <PUBCHEM_CONFORMER_ID>  (1) 
000004B000000001

>  <PUBCHEM_MMFF94_ENERGY>  (1) 
104.4806

>  <PUBCHEM_FEATURE_SELFOVERLAP>  (1) 
106.856

>  <PUBCHEM_SHAPE_FINGERPRINT>  (1) 
10940486 97 17116053804651589683
10974685 15 18052800477959073050
14394314 77 18340492171693152413
14790565 3 17977117755909884554
15082195 135 18052253195903882878
15320467 1 16827005967374261080
15538507 32 18337954618477162701
15968369 26 17836339903499745209
20775438 99 17624105589010140207
3388396 114 18410851036396548655
50677037 204 18413673508462151361
6608658 132 18339928099730160085

>  <PUBCHEM_SHAPE_MULTIPOLES>  (1) 
821
12.92
10.49
1.7
0.52
17.67
0.26
-5.57
-8.64
-4.68
0
-1.71
-1.16
-1.19

>  <PUBCHEM_SHAPE_SELFOVERLAP>  (1) 
1788.847

>  <PUBCHEM_SHAPE_VOLUME>  (1) 
445.9

>  <PUBCHEM_COORDINATE_TYPE>  (1) 
2
5
10

$$$$
