12002
     RDKit          3D

  9  9  0  0  0  0  0  0  0  0999 V2000
    1.9085   -2.2339    0.0003 Br  0  0  0  0  0  0  0  0  0  0  0  0
    2.9595    1.0653   -0.0009 Br  0  0  0  0  0  0  0  0  0  0  0  0
   -3.4466   -0.4323   -0.0009 Br  0  0  0  0  0  0  0  0  0  0  0  0
    0.7021   -0.7647    0.0000 C   0  0  0  0  0  0  0  0  0  0  0  0
    1.1258    0.5643    0.0001 C   0  0  0  0  0  0  0  0  0  0  0  0
   -0.6607   -1.0622    0.0002 C   0  0  0  0  0  0  0  0  0  0  0  0
   -1.5997   -0.0306    0.0004 C   0  0  0  0  0  0  0  0  0  0  0  0
    0.1869    1.5958    0.0004 C   0  0  0  0  0  0  0  0  0  0  0  0
   -1.1758    1.2983    0.0005 C   0  0  0  0  0  0  0  0  0  0  0  0
  1  4  1  0
  2  5  1  0
  3  7  1  0
  4  5  2  0
  4  6  1  0
  5  8  1  0
  6  7  2  0
  7  9  1  0
  8  9  2  0
M  END
>  <PUBCHEM_COMPOUND_CID>  (1) 
12002

>  <PUBCHEM_CONFORMER_RMSD>  (1) 
0.4

>  <PUBCHEM_CONFORMER_DIVERSEORDER>  (1) 
1

>  <PUBCHEM_MMFF94_PARTIAL_CHARGES>  (1) 
12
1 -0.11
10 0.15
11 0.15
12 0.15
2 -0.11
3 -0.11
4 0.11
5 0.11
6 -0.15
7 0.11
8 -0.15
9 -0.15

>  <PUBCHEM_EFFECTIVE_ROTOR_COUNT>  (1) 
0

>  <PUBCHEM_PHARMACOPHORE_FEATURES>  (1) 
4
1 1 hydrophobe
1 2 hydrophobe
1 3 hydrophobe
6 4 5 6 7 8 9 rings

>  <PUBCHEM_HEAVY_ATOM_COUNT>  (1) 
9

>  <PUBCHEM_ATOM_DEF_STEREO_COUNT>  (1) 
0

>  <PUBCHEM_ATOM_UDEF_STEREO_COUNT>  (1) 
0

>  <PUBCHEM_BOND_DEF_STEREO_COUNT>  (1) 
0

>  <PUBCHEM_BOND_UDEF_STEREO_COUNT>  (1) 
0

>  <PUBCHEM_ISOTOPIC_ATOM_COUNT>  (1) 
0

>  <PUBCHEM_COMPONENT_COUNT>  (1) 
1

>  <PUBCHEM_CACTVS_TAUTO_COUNT>  (1) 
1

>  <PUBCHEM_CONFORMER_ID>  (1) 
00002EE200000001

>  <PUBCHEM_MMFF94_ENERGY>  (1) 
18.4229

>  <PUBCHEM_FEATURE_SELFOVERLAP>  (1) 
20.297

>  <PUBCHEM_SHAPE_FINGERPRINT>  (1) 
10219947 1 18335983176532005145
12423570 1 12030913916952434395
13380535 76 18335699502553326450
14128692 85 18195252117874653086
14325111 11 18410856572625191073
161256 15 18338802217118990654
16945 1 18410575136271427141
19021347 11 18409729586218125710
193761 8 18194682557818909028
20201158 50 18334575780474282827
20588541 1 18335423525181909027
20645476 183 17534918677669369724
20645477 70 18411411783717731231
20871998 22 18126571123882426255
21040471 1 17762055849416744353
21501502 16 18267870484111757464
23235685 24 18336822112430642241
23402655 69 18340188723632419365
23552423 10 18262522468323550606
241688 4 18120375354368786728
2748010 2 18265329512787427029
29004967 10 18334581269400165761
5084963 1 18128530466477118291
528862 383 18335414669017587842
528886 8 18339639074116254536
53812653 166 18270960270704892456
68250623 7 18268719302861862065
7364860 26 18343019948308451782

>  <PUBCHEM_SHAPE_MULTIPOLES>  (1) 
203.04
4.46
2.12
0.66
1.9
0.71
0
0.17
0
-1.41
0
-0.02
0.02
0

>  <PUBCHEM_SHAPE_SELFOVERLAP>  (1) 
376.887

>  <PUBCHEM_SHAPE_VOLUME>  (1) 
131

>  <PUBCHEM_COORDINATE_TYPE>  (1) 
2
5
10

$$$$
