12018
     RDKit          3D

  6  5  0  0  1  0  0  0  0  0999 V2000
   -0.2525   -1.7586    0.3240 Cl  0  0  0  0  0  0  0  0  0  0  0  0
    2.2080    0.5166    0.7466 Cl  0  0  0  0  0  0  0  0  0  0  0  0
   -2.2818    0.4409    0.2116 O   0  0  0  0  0  0  0  0  0  0  0  0
   -0.1074   -0.2212   -0.5925 C   0  0  0  0  0  0  0  0  0  0  0  0
   -0.9303    0.8704    0.0901 C   0  0  0  0  0  0  0  0  0  0  0  0
    1.3641    0.1520   -0.7797 C   0  0  0  0  0  0  0  0  0  0  0  0
  1  4  1  0
  2  6  1  0
  3  5  1  0
  4  5  1  0
  4  6  1  0
M  END
>  <PUBCHEM_COMPOUND_CID>  (1) 
12018

>  <PUBCHEM_CONFORMER_RMSD>  (1) 
0.4

>  <PUBCHEM_CONFORMER_DIVERSEORDER>  (1) 
1
4
14
10
7
17
12
3
13
16
9
5
15
6
8
11
2

>  <PUBCHEM_MMFF94_PARTIAL_CHARGES>  (1) 
7
1 -0.29
12 0.4
2 -0.29
3 -0.68
4 0.29
5 0.28
6 0.29

>  <PUBCHEM_EFFECTIVE_ROTOR_COUNT>  (1) 
2

>  <PUBCHEM_PHARMACOPHORE_FEATURES>  (1) 
2
1 3 acceptor
1 3 donor

>  <PUBCHEM_HEAVY_ATOM_COUNT>  (1) 
6

>  <PUBCHEM_ATOM_DEF_STEREO_COUNT>  (1) 
0

>  <PUBCHEM_ATOM_UDEF_STEREO_COUNT>  (1) 
1

>  <PUBCHEM_BOND_DEF_STEREO_COUNT>  (1) 
0

>  <PUBCHEM_BOND_UDEF_STEREO_COUNT>  (1) 
0

>  <PUBCHEM_ISOTOPIC_ATOM_COUNT>  (1) 
0

>  <PUBCHEM_COMPONENT_COUNT>  (1) 
1

>  <PUBCHEM_CACTVS_TAUTO_COUNT>  (1) 
1

>  <PUBCHEM_CONFORMER_ID>  (1) 
00002EF200000001

>  <PUBCHEM_MMFF94_ENERGY>  (1) 
5.1424

>  <PUBCHEM_FEATURE_SELFOVERLAP>  (1) 
10.148

>  <PUBCHEM_SHAPE_FINGERPRINT>  (1) 
20096714 4 17775001258825050996
21040471 1 18409176501603993446
23552449 11 17828476964762062267
24536 1 18267019638606301924
29004967 10 14562526301802000524
5943 1 17169839013877520806

>  <PUBCHEM_SHAPE_MULTIPOLES>  (1) 
121.35
2.61
1.39
0.91
0.37
0.76
0.05
-0.88
-0.6
-0.43
-0.21
0.32
0
0.06

>  <PUBCHEM_SHAPE_SELFOVERLAP>  (1) 
196.24

>  <PUBCHEM_SHAPE_VOLUME>  (1) 
85.3

>  <PUBCHEM_COORDINATE_TYPE>  (1) 
2
5
10

$$$$
