1202
     RDKit          3D

 25 26  0  0  1  0  0  0  0  0999 V2000
    1.5890   -2.7381    2.3413 O   0  0  0  0  0  0  0  0  0  0  0  0
    1.6150    2.5587   -2.1296 O   0  0  0  0  0  0  0  0  0  0  0  0
    2.5814    3.6486   -0.3899 O   0  0  0  0  0  0  0  0  0  0  0  0
   -4.2918   -0.4197   -0.3537 C   0  0  0  0  0  0  0  0  0  0  0  0
   -3.4742   -0.5705   -2.2824 C   0  0  0  0  0  0  0  0  0  0  0  0
   -3.1512   -1.0871    0.4393 C   0  0  0  0  0  0  0  0  0  0  0  0
   -4.6860   -1.2626   -1.6006 C   0  0  0  0  0  0  0  0  0  0  0  0
   -3.8353    0.6561   -1.3896 C   0  0  0  0  0  0  0  0  0  0  0  0
   -1.8541   -1.1099   -0.4165 C   0  0  0  0  0  0  0  0  0  0  0  0
   -2.1580   -1.2674   -1.9224 C   0  0  0  0  0  0  0  0  0  0  0  0
   -2.9424   -0.3312    1.7542 C   0  0  0  0  0  0  0  0  0  0  0  0
   -0.8869   -2.1615    0.0407 C   0  0  0  0  0  0  0  0  0  0  0  0
   -2.5216    1.1046    1.6428 C   0  0  0  0  0  0  0  0  0  0  0  0
    0.3445   -1.8946    0.5000 C   0  0  0  0  0  0  0  0  0  0  0  0
    1.3102   -2.9521    0.9563 C   0  0  0  0  0  0  0  0  0  0  0  0
   -1.4218    1.6748    2.1580 C   0  0  0  0  0  0  0  0  0  0  0  0
    2.6463   -2.9042    0.2027 C   0  0  0  0  0  0  0  0  0  0  0  0
   -1.0779    3.1255    1.9832 C   0  0  0  0  0  0  0  0  0  0  0  0
    3.3456   -1.5449    0.2988 C   0  0  0  0  0  0  0  0  0  0  0  0
    0.2604    3.3600    1.2689 C   0  0  0  0  0  0  0  0  0  0  0  0
    4.6401   -1.4688   -0.5170 C   0  0  0  0  0  0  0  0  0  0  0  0
    0.3160    2.7877   -0.1509 C   0  0  0  0  0  0  0  0  0  0  0  0
    5.3779   -0.1378   -0.3675 C   0  0  0  0  0  0  0  0  0  0  0  0
    6.6475   -0.1110   -1.2050 C   0  0  0  0  0  0  0  0  0  0  0  0
    1.6271    3.0456   -0.8612 C   0  0  0  0  0  0  0  0  0  0  0  0
  1 15  1  0
  2 25  1  0
  3 25  2  0
  4  6  1  0
  4  7  1  0
  4  8  1  0
  5  7  1  0
  5  8  1  0
  5 10  1  0
  6  9  1  0
  6 11  1  0
  9 10  1  0
  9 12  1  0
 11 13  1  0
 12 14  2  0
 13 16  2  0
 14 15  1  0
 15 17  1  0
 16 18  1  0
 17 19  1  0
 18 20  1  0
 19 21  1  0
 20 22  1  0
 21 23  1  0
 22 25  1  0
 23 24  1  0
M  END
>  <PUBCHEM_COMPOUND_CID>  (1) 
1202

>  <PUBCHEM_CONFORMER_RMSD>  (1) 
1.6

>  <PUBCHEM_CONFORMER_DIVERSEORDER>  (1) 
1
4
25
18
15
41
48
8
53
57
35
5
50
19
29
22
38
56
16
43
36
12
44
58
32
9
31
24
26
45
40
11
34
33
28
46
3
47
23
30
17
55
52
42
27
54
14
49
10
6
13
39
2
51
7
20
21
37

>  <PUBCHEM_MMFF94_PARTIAL_CHARGES>  (1) 
19
1 -0.68
11 0.14
12 -0.29
13 -0.29
14 -0.29
15 0.42
16 -0.29
18 0.14
2 -0.65
22 0.06
25 0.66
3 -0.57
38 0.15
39 0.15
40 0.15
42 0.15
49 0.4
61 0.5
9 0.14

>  <PUBCHEM_EFFECTIVE_ROTOR_COUNT>  (1) 
13

>  <PUBCHEM_PHARMACOPHORE_FEATURES>  (1) 
9
1 1 acceptor
1 1 donor
1 2 acceptor
1 24 hydrophobe
1 3 acceptor
3 2 3 25 anion
4 16 18 20 22 hydrophobe
4 17 19 21 23 hydrophobe
7 4 5 6 7 8 9 10 rings

>  <PUBCHEM_HEAVY_ATOM_COUNT>  (1) 
25

>  <PUBCHEM_ATOM_DEF_STEREO_COUNT>  (1) 
0

>  <PUBCHEM_ATOM_UDEF_STEREO_COUNT>  (1) 
3

>  <PUBCHEM_BOND_DEF_STEREO_COUNT>  (1) 
0

>  <PUBCHEM_BOND_UDEF_STEREO_COUNT>  (1) 
2

>  <PUBCHEM_ISOTOPIC_ATOM_COUNT>  (1) 
0

>  <PUBCHEM_COMPONENT_COUNT>  (1) 
1

>  <PUBCHEM_CACTVS_TAUTO_COUNT>  (1) 
1

>  <PUBCHEM_CONFORMER_ID>  (1) 
000004B200000001

>  <PUBCHEM_MMFF94_ENERGY>  (1) 
37.0361

>  <PUBCHEM_FEATURE_SELFOVERLAP>  (1) 
45.729

>  <PUBCHEM_SHAPE_FINGERPRINT>  (1) 
10670039 82 18342182108075011002
10871710 139 18199191693795988691
11513181 2 17843977948658163798
12156800 1 16165747085321071481
13615921 28 18270688674226724764
13761468 95 17126798348288891016
13911987 19 18260270750415463702
14840074 17 18127982897229099089
19026451 147 18130220574842070943
21304303 64 18042128670077725853
21315764 21 18113897216716039629
22907989 373 17770487652076744881
23419403 2 17895493491808753251

>  <PUBCHEM_SHAPE_MULTIPOLES>  (1) 
496.88
10.13
4.68
2.3
12.69
4.05
0.09
-4.07
-5.3
2.67
1.22
-1.53
0.42
-2.59

>  <PUBCHEM_SHAPE_SELFOVERLAP>  (1) 
982.927

>  <PUBCHEM_SHAPE_VOLUME>  (1) 
295.3

>  <PUBCHEM_COORDINATE_TYPE>  (1) 
2
5
10

$$$$
