12024
     RDKit          3D

  6  6  0  0  0  0  0  0  0  0999 V2000
   -1.6741    0.7971    0.0003 S   0  0  0  0  0  0  0  0  0  0  0  0
    0.7787    0.0324   -0.0004 C   0  0  0  0  0  0  0  0  0  0  0  0
   -0.0061   -1.1569   -0.0003 C   0  0  0  0  0  0  0  0  0  0  0  0
    2.2602    0.0456    0.0005 C   0  0  0  0  0  0  0  0  0  0  0  0
   -0.0021    1.1673   -0.0003 C   0  0  0  0  0  0  0  0  0  0  0  0
   -1.3566   -0.8855    0.0002 C   0  0  0  0  0  0  0  0  0  0  0  0
  1  5  1  0
  1  6  1  0
  2  3  1  0
  2  4  1  0
  2  5  2  0
  3  6  2  0
M  END
>  <PUBCHEM_COMPOUND_CID>  (1) 
12024

>  <PUBCHEM_CONFORMER_RMSD>  (1) 
0.4

>  <PUBCHEM_CONFORMER_DIVERSEORDER>  (1) 
1

>  <PUBCHEM_MMFF94_PARTIAL_CHARGES>  (1) 
9
1 -0.08
11 0.15
12 0.15
2 -0.18
3 -0.15
4 0.18
5 -0.11
6 -0.11
7 0.15

>  <PUBCHEM_EFFECTIVE_ROTOR_COUNT>  (1) 
0

>  <PUBCHEM_PHARMACOPHORE_FEATURES>  (1) 
1
5 1 2 3 5 6 rings

>  <PUBCHEM_HEAVY_ATOM_COUNT>  (1) 
6

>  <PUBCHEM_ATOM_DEF_STEREO_COUNT>  (1) 
0

>  <PUBCHEM_ATOM_UDEF_STEREO_COUNT>  (1) 
0

>  <PUBCHEM_BOND_DEF_STEREO_COUNT>  (1) 
0

>  <PUBCHEM_BOND_UDEF_STEREO_COUNT>  (1) 
0

>  <PUBCHEM_ISOTOPIC_ATOM_COUNT>  (1) 
0

>  <PUBCHEM_COMPONENT_COUNT>  (1) 
1

>  <PUBCHEM_CACTVS_TAUTO_COUNT>  (1) 
1

>  <PUBCHEM_CONFORMER_ID>  (1) 
00002EF800000001

>  <PUBCHEM_MMFF94_ENERGY>  (1) 
4.6841

>  <PUBCHEM_FEATURE_SELFOVERLAP>  (1) 
5.074

>  <PUBCHEM_SHAPE_FINGERPRINT>  (1) 
16714656 1 18410016528556218516
20096714 4 18338235968419669817
21040471 1 18266458715529394821
23552423 10 18260553299107280166
29004967 10 18336834198552925018
5943 1 13699584534784916003

>  <PUBCHEM_SHAPE_MULTIPOLES>  (1) 
127.33
2.39
1.31
0.63
0.81
0.06
0
-0.23
0
-0.35
0
-0.02
-0.01
0

>  <PUBCHEM_SHAPE_SELFOVERLAP>  (1) 
244.035

>  <PUBCHEM_SHAPE_VOLUME>  (1) 
80.6

>  <PUBCHEM_COORDINATE_TYPE>  (1) 
2
5
10

$$$$
