12029
     RDKit          3D

 14 14  0  0  0  0  0  0  0  0999 V2000
   -2.3828   -2.1911    0.0003 O   0  0  0  0  0  0  0  0  0  0  0  0
    2.3829   -2.1909   -0.0016 O   0  0  0  0  0  0  0  0  0  0  0  0
   -3.5117   -0.3083   -0.0003 O   0  0  0  0  0  0  0  0  0  0  0  0
    3.5118   -0.3081   -0.0004 O   0  0  0  0  0  0  0  0  0  0  0  0
   -2.4280   -0.9383    0.0000 N   0  0  0  0  0  0  0  0  0  0  0  0
    2.4281   -0.9381   -0.0002 N   0  0  0  0  0  0  0  0  0  0  0  0
   -1.2081    1.1880   -0.0001 C   0  0  0  0  0  0  0  0  0  0  0  0
    1.2078    1.1882    0.0008 C   0  0  0  0  0  0  0  0  0  0  0  0
   -1.2080   -0.2069    0.0004 C   0  0  0  0  0  0  0  0  0  0  0  0
    1.2080   -0.2066    0.0013 C   0  0  0  0  0  0  0  0  0  0  0  0
   -0.0002    1.8856    0.0003 C   0  0  0  0  0  0  0  0  0  0  0  0
    0.0002   -0.9042    0.0012 C   0  0  0  0  0  0  0  0  0  0  0  0
   -2.4846    1.9656   -0.0015 C   0  0  0  0  0  0  0  0  0  0  0  0
    2.4847    1.9652   -0.0002 C   0  0  0  0  0  0  0  0  0  0  0  0
  1  5  1  0
  2  6  1  0
  3  5  2  0
  4  6  2  0
  5  9  1  0
  6 10  1  0
  7  9  2  0
  7 11  1  0
  7 13  1  0
  8 10  1  0
  8 11  2  0
  8 14  1  0
  9 12  1  0
 10 12  2  0
M  CHG  4   1  -1   2  -1   5   1   6   1
M  END
>  <PUBCHEM_COMPOUND_CID>  (1) 
12029

>  <PUBCHEM_CONFORMER_RMSD>  (1) 
0.6

>  <PUBCHEM_CONFORMER_DIVERSEORDER>  (1) 
1

>  <PUBCHEM_MMFF94_PARTIAL_CHARGES>  (1) 
16
1 -0.52
10 0.13
11 -0.15
12 -0.15
13 0.14
14 0.14
15 0.15
16 0.15
2 -0.52
3 -0.52
4 -0.52
5 0.91
6 0.91
7 -0.14
8 -0.14
9 0.13

>  <PUBCHEM_EFFECTIVE_ROTOR_COUNT>  (1) 
2

>  <PUBCHEM_PHARMACOPHORE_FEATURES>  (1) 
7
1 1 acceptor
1 1 anion
1 2 acceptor
1 2 anion
1 3 acceptor
1 4 acceptor
6 7 8 9 10 11 12 rings

>  <PUBCHEM_HEAVY_ATOM_COUNT>  (1) 
14

>  <PUBCHEM_ATOM_DEF_STEREO_COUNT>  (1) 
0

>  <PUBCHEM_ATOM_UDEF_STEREO_COUNT>  (1) 
0

>  <PUBCHEM_BOND_DEF_STEREO_COUNT>  (1) 
0

>  <PUBCHEM_BOND_UDEF_STEREO_COUNT>  (1) 
0

>  <PUBCHEM_ISOTOPIC_ATOM_COUNT>  (1) 
0

>  <PUBCHEM_COMPONENT_COUNT>  (1) 
1

>  <PUBCHEM_CACTVS_TAUTO_COUNT>  (1) 
1

>  <PUBCHEM_CONFORMER_ID>  (1) 
00002EFD00000001

>  <PUBCHEM_MMFF94_ENERGY>  (1) 
59.267

>  <PUBCHEM_FEATURE_SELFOVERLAP>  (1) 
35.686

>  <PUBCHEM_SHAPE_FINGERPRINT>  (1) 
10608611 8 18410569587105498688
10967382 1 18410575110469812453
13380535 21 18410584980268222596
14576447 43 17697302277269082783
15442244 35 18267304227138954856
15536298 74 18343303699660085768
16945 1 18410856559639958468
17990270 104 18410855434717067178
193761 8 18410573989446775712
19973954 147 18410573989446704256
20201158 50 18409164428451171130
20511035 2 18129648725784977220
20645477 70 18340201998833206887
20711985 365 18410572864539702181
20871998 184 18201717302038164687
21501502 16 18410858762958389188
21501925 9 18338222830378494648
2334 1 18410855490203826661
23463225 33 18410576154162800140
23552423 10 18334297582278018108
23559900 14 18197495113839104142
2748010 2 18410853265405479748
7364860 26 18342457079896157560
8809292 202 18260552267914293675

>  <PUBCHEM_SHAPE_MULTIPOLES>  (1) 
254.67
4.85
2.44
0.58
0
0.03
0
0.96
0
0
0
0
-0.05
0

>  <PUBCHEM_SHAPE_SELFOVERLAP>  (1) 
540.16

>  <PUBCHEM_SHAPE_VOLUME>  (1) 
144

>  <PUBCHEM_COORDINATE_TYPE>  (1) 
2
5
10

$$$$
