12030
     RDKit          3D

 14 14  0  0  0  0  0  0  0  0999 V2000
    2.3655   -1.9173   -0.0003 O   0  0  0  0  0  0  0  0  0  0  0  0
   -2.3565    2.2082   -0.0003 O   0  0  0  0  0  0  0  0  0  0  0  0
   -3.5017    0.3354   -0.0007 O   0  0  0  0  0  0  0  0  0  0  0  0
    2.4172    2.1606   -0.0001 O   0  0  0  0  0  0  0  0  0  0  0  0
    3.5218    0.2636   -0.0001 O   0  0  0  0  0  0  0  0  0  0  0  0
   -2.4124    0.9559    0.0000 N   0  0  0  0  0  0  0  0  0  0  0  0
    2.4459    0.9073   -0.0001 N   0  0  0  0  0  0  0  0  0  0  0  0
   -1.2117   -1.1810   -0.0001 C   0  0  0  0  0  0  0  0  0  0  0  0
   -1.1989    0.2139    0.0004 C   0  0  0  0  0  0  0  0  0  0  0  0
    1.2169    0.1917    0.0003 C   0  0  0  0  0  0  0  0  0  0  0  0
   -0.0100   -1.8894   -0.0003 C   0  0  0  0  0  0  0  0  0  0  0  0
    0.0153    0.9002    0.0007 C   0  0  0  0  0  0  0  0  0  0  0  0
    1.2042   -1.2030   -0.0002 C   0  0  0  0  0  0  0  0  0  0  0  0
   -2.4956   -1.9463    0.0006 C   0  0  0  0  0  0  0  0  0  0  0  0
  1 13  1  0
  2  6  1  0
  3  6  2  0
  4  7  1  0
  5  7  2  0
  6  9  1  0
  7 10  1  0
  8  9  2  0
  8 11  1  0
  8 14  1  0
  9 12  1  0
 10 12  2  0
 10 13  1  0
 11 13  2  0
M  CHG  4   2  -1   4  -1   6   1   7   1
M  END
>  <PUBCHEM_COMPOUND_CID>  (1) 
12030

>  <PUBCHEM_CONFORMER_RMSD>  (1) 
0.6

>  <PUBCHEM_CONFORMER_DIVERSEORDER>  (1) 
1

>  <PUBCHEM_MMFF94_PARTIAL_CHARGES>  (1) 
17
1 -0.53
10 0.13
11 -0.15
12 -0.15
13 0.08
14 0.14
15 0.15
16 0.15
2 -0.52
20 0.45
3 -0.52
4 -0.52
5 -0.52
6 0.91
7 0.91
8 -0.14
9 0.13

>  <PUBCHEM_EFFECTIVE_ROTOR_COUNT>  (1) 
2

>  <PUBCHEM_PHARMACOPHORE_FEATURES>  (1) 
8
1 1 donor
1 2 acceptor
1 2 anion
1 3 acceptor
1 4 acceptor
1 4 anion
1 5 acceptor
6 8 9 10 11 12 13 rings

>  <PUBCHEM_HEAVY_ATOM_COUNT>  (1) 
14

>  <PUBCHEM_ATOM_DEF_STEREO_COUNT>  (1) 
0

>  <PUBCHEM_ATOM_UDEF_STEREO_COUNT>  (1) 
0

>  <PUBCHEM_BOND_DEF_STEREO_COUNT>  (1) 
0

>  <PUBCHEM_BOND_UDEF_STEREO_COUNT>  (1) 
0

>  <PUBCHEM_ISOTOPIC_ATOM_COUNT>  (1) 
0

>  <PUBCHEM_COMPONENT_COUNT>  (1) 
1

>  <PUBCHEM_CACTVS_TAUTO_COUNT>  (1) 
15

>  <PUBCHEM_CONFORMER_ID>  (1) 
00002EFE00000001

>  <PUBCHEM_MMFF94_ENERGY>  (1) 
55.7163

>  <PUBCHEM_FEATURE_SELFOVERLAP>  (1) 
40.76

>  <PUBCHEM_SHAPE_FINGERPRINT>  (1) 
10608611 8 18410854369211990216
10967382 1 18338516343884713701
11206711 2 18267304407564485351
13380535 21 18410868654294270247
13380535 76 18410852161619990031
13897977 150 18410853274163933501
14325111 11 18338799030258629056
14648413 74 18339083687706145730
14897335 6 18411412908370992743
15279308 100 18266746779080766470
15442244 35 18266456508042980730
15775835 57 18410862057213824169
16945 1 18410855442995921287
18186145 218 18199191680958832109
193761 8 18410856555382135303
19973954 147 18410856559666325735
20510252 161 18126570243482377864
20511035 2 18129363947999560294
20871998 184 18199755919534369703
21501502 16 18410570690922441907
2334 1 18410575114749267299
23402539 116 18054216897891069215
23402655 69 18270105835065791309
23463225 33 18334852831655634642
23552423 10 18334857229396534862
23559900 14 18272378594747415140
2748010 2 18410859858211908143
528886 8 18410849966933640090
53812653 166 18271803553379387064
6333449 129 18339922714014990591
7364860 26 18342458093450482150

>  <PUBCHEM_SHAPE_MULTIPOLES>  (1) 
248.8
4.77
2.37
0.57
0.47
0.04
0
1.11
0
-0.29
0
-0.02
-0.04
0

>  <PUBCHEM_SHAPE_SELFOVERLAP>  (1) 
530.747

>  <PUBCHEM_SHAPE_VOLUME>  (1) 
139.6

>  <PUBCHEM_COORDINATE_TYPE>  (1) 
2
5
10

$$$$
