12037
     RDKit          3D

 24 24  0  0  0  0  0  0  0  0999 V2000
   -2.4897   -0.9066    0.8963 S   0  0  0  0  0  0  0  0  0  0  0  0
    0.5770   -2.8036   -1.9700 O   0  0  0  0  0  0  0  0  0  0  0  0
    1.0621    2.7231   -2.1012 O   0  0  0  0  0  0  0  0  0  0  0  0
   -5.0548   -0.7196    0.4558 O   0  0  0  0  0  0  0  0  0  0  0  0
   -3.7329    0.5756   -0.8997 O   0  0  0  0  0  0  0  0  0  0  0  0
    0.3633    1.7219   -0.0990 N   0  0  0  0  0  0  0  0  0  0  0  0
    3.5860   -1.2032    1.1271 N   0  0  0  0  0  0  0  0  0  0  0  0
    4.4584   -0.0050   -0.7731 N   0  0  0  0  0  0  0  0  0  0  0  0
    1.7541   -0.3283    2.3531 N   0  0  0  0  0  0  0  0  0  0  0  0
    1.5866    1.9845    0.6447 C   0  0  0  0  0  0  0  0  0  0  0  0
   -0.6558    1.0608    0.5426 C   0  0  0  0  0  0  0  0  0  0  0  0
   -1.1316   -0.1248    0.0924 C   0  0  0  0  0  0  0  0  0  0  0  0
    2.5988    0.8902    0.4658 C   0  0  0  0  0  0  0  0  0  0  0  0
   -0.5846   -0.8386   -1.1333 C   0  0  0  0  0  0  0  0  0  0  0  0
   -1.1722    1.7949    1.7506 C   0  0  0  0  0  0  0  0  0  0  0  0
    0.0348   -2.1961   -0.8052 C   0  0  0  0  0  0  0  0  0  0  0  0
    2.6781   -0.2176    1.2848 C   0  0  0  0  0  0  0  0  0  0  0  0
    3.5238    0.9438   -0.5570 C   0  0  0  0  0  0  0  0  0  0  0  0
    0.2332    2.1293   -1.4197 C   0  0  0  0  0  0  0  0  0  0  0  0
    4.4329   -1.0354    0.0936 C   0  0  0  0  0  0  0  0  0  0  0  0
   -3.8558   -0.2282    0.0175 C   0  0  0  0  0  0  0  0  0  0  0  0
    5.4513   -2.1047   -0.1130 C   0  0  0  0  0  0  0  0  0  0  0  0
   -6.2159   -0.2367   -0.2295 C   0  0  0  0  0  0  0  0  0  0  0  0
   -7.4474   -0.8757    0.3762 C   0  0  0  0  0  0  0  0  0  0  0  0
  1 12  1  0
  1 21  1  0
  2 16  1  0
  3 19  2  0
  4 21  1  0
  4 23  1  0
  5 21  2  0
  6 10  1  0
  6 11  1  0
  6 19  1  0
  7 17  2  0
  7 20  1  0
  8 18  1  0
  8 20  2  0
  9 17  1  0
 10 13  1  0
 11 12  2  0
 11 15  1  0
 12 14  1  0
 13 17  1  0
 13 18  2  0
 14 16  1  0
 20 22  1  0
 23 24  1  0
M  END
>  <PUBCHEM_COMPOUND_CID>  (1) 
12037

>  <PUBCHEM_CONFORMER_RMSD>  (1) 
1

>  <PUBCHEM_CONFORMER_DIVERSEORDER>  (1) 
1
139
215
10
102
2
211
19
109
98
83
154
120
161
147
93
184
199
228
65
209
95
173
169
69
82
214
212
97
185
116
192
7
223
124
118
48
152
127
45
150
130
224
20
80
171
190
218
110
91
162
136
193
34
200
17
189
18
196
96
46
23
89
112
68
168
24
204
138
51
107
208
183
49
76
13
99
148
108
105
155
181
222
53
6
142
12
180
165
135
61
177
140
84
14
122
195
26
151
62
227
133
4
117
77
40
156
85
104
191
72
186
188
167
128
206
131
5
88
170
205
176
70
125
79
3
129
94
163
164
66
106
101
75
166
56
71
30
160
178
41
63
194
50
86
174
111
143
175
197
9
15
47
198
73
21
64
36
134
221
182
121
92
213
100
153
179
132
42
187
37
202
27
59
201
113
226
210
25
144
103
225
159
123
137
60
38
22
114
67
146
217
172
203
149
119
32
31
39
90
35
52
33
216
219
220
44
81
126
145
141
28
78
87
158
29
55
74
16
115
8
207
157
54
11
43
57
58

>  <PUBCHEM_MMFF94_PARTIAL_CHARGES>  (1) 
28
1 -0.24
10 0.44
11 -0.03
12 -0.04
13 -0.14
14 0.14
15 0.14
16 0.28
17 0.41
18 0.16
19 0.57
2 -0.68
20 0.48
21 0.86
22 0.14
23 0.28
3 -0.57
34 0.15
35 0.06
36 0.4
37 0.4
4 -0.43
41 0.4
5 -0.57
6 -0.47
7 -0.62
8 -0.62
9 -0.9

>  <PUBCHEM_EFFECTIVE_ROTOR_COUNT>  (1) 
10

>  <PUBCHEM_PHARMACOPHORE_FEATURES>  (1) 
7
1 2 acceptor
1 2 donor
1 3 acceptor
1 9 donor
3 7 8 20 cation
3 7 9 17 cation
6 7 8 13 17 18 20 rings

>  <PUBCHEM_HEAVY_ATOM_COUNT>  (1) 
24

>  <PUBCHEM_ATOM_DEF_STEREO_COUNT>  (1) 
0

>  <PUBCHEM_ATOM_UDEF_STEREO_COUNT>  (1) 
0

>  <PUBCHEM_BOND_DEF_STEREO_COUNT>  (1) 
0

>  <PUBCHEM_BOND_UDEF_STEREO_COUNT>  (1) 
1

>  <PUBCHEM_ISOTOPIC_ATOM_COUNT>  (1) 
0

>  <PUBCHEM_COMPONENT_COUNT>  (1) 
1

>  <PUBCHEM_CACTVS_TAUTO_COUNT>  (1) 
3

>  <PUBCHEM_CONFORMER_ID>  (1) 
00002F0500000001

>  <PUBCHEM_MMFF94_ENERGY>  (1) 
74.354

>  <PUBCHEM_FEATURE_SELFOVERLAP>  (1) 
35.656

>  <PUBCHEM_SHAPE_FINGERPRINT>  (1) 
11578080 2 18337933641989790872
12011746 2 18411142424194824782
12166972 35 18411420639908594929
12403259 327 16773506759354561642
12592029 89 18202003231270812623
12633257 1 16343698850662647578
12788726 201 17703523154712719736
13533116 47 18273214226597500176
14341114 176 18186522137864157713
14863182 85 17917441925415624391
14955137 171 18273215326615516827
16752209 62 18272644610897104776
17349148 13 18272376386506107089
17492 54 17969807292249196180
20691752 17 18045808709383079762
21304304 249 18273218568815191950
221357 26 17530960298391872213
23559900 14 18041560355662159385
2871803 45 17822011987020439512
3004659 81 17967249780678877938
3472631 163 11242266146693346818
34797466 226 16805328816132112119
34934 24 18266737081366787504
46194498 28 17023467563627924293
465052 167 18408326605197042011
59755656 215 18272370846193552071
70251023 43 18040996177437768832
8509985 295 18060136596039577833
9999458 23 17846212293249510073

>  <PUBCHEM_SHAPE_MULTIPOLES>  (1) 
454.36
12.12
2.51
1.65
17.81
0.07
0.02
-6.4
-1.05
-1.86
1.06
-0.68
0.35
-0.24

>  <PUBCHEM_SHAPE_SELFOVERLAP>  (1) 
906.382

>  <PUBCHEM_SHAPE_VOLUME>  (1) 
270.1

>  <PUBCHEM_COORDINATE_TYPE>  (1) 
2
5
10

$$$$
