12043
     RDKit          3D

  9  8  0  0  0  0  0  0  0  0999 V2000
   -0.4009    1.9944   -0.0005 Cl  0  0  0  0  0  0  0  0  0  0  0  0
   -1.9526   -1.6097    0.0000 O   0  0  0  0  0  0  0  0  0  0  0  0
    2.7585   -1.2137   -0.0008 O   0  0  0  0  0  0  0  0  0  0  0  0
   -2.9052    0.4467   -0.0002 O   0  0  0  0  0  0  0  0  0  0  0  0
    2.3930    1.0324    0.0003 O   0  0  0  0  0  0  0  0  0  0  0  0
   -0.5124    0.2670    0.0005 C   0  0  0  0  0  0  0  0  0  0  0  0
    0.5538   -0.5493    0.0005 C   0  0  0  0  0  0  0  0  0  0  0  0
   -1.9055   -0.2574   -0.0002 C   0  0  0  0  0  0  0  0  0  0  0  0
    1.9714   -0.1104    0.0003 C   0  0  0  0  0  0  0  0  0  0  0  0
  1  6  1  0
  2  8  1  0
  3  9  1  0
  4  8  2  0
  5  9  2  0
  6  7  2  0
  6  8  1  0
  7  9  1  0
M  END
>  <PUBCHEM_COMPOUND_CID>  (1) 
12043

>  <PUBCHEM_CONFORMER_RMSD>  (1) 
0.4

>  <PUBCHEM_CONFORMER_DIVERSEORDER>  (1) 
1
2
4
3

>  <PUBCHEM_MMFF94_PARTIAL_CHARGES>  (1) 
12
1 -0.14
10 0.15
11 0.5
12 0.5
2 -0.65
3 -0.65
4 -0.57
5 -0.57
6 0.15
7 -0.14
8 0.71
9 0.71

>  <PUBCHEM_EFFECTIVE_ROTOR_COUNT>  (1) 
2

>  <PUBCHEM_PHARMACOPHORE_FEATURES>  (1) 
6
1 2 acceptor
1 3 acceptor
1 4 acceptor
1 5 acceptor
3 2 4 8 anion
3 3 5 9 anion

>  <PUBCHEM_HEAVY_ATOM_COUNT>  (1) 
9

>  <PUBCHEM_ATOM_DEF_STEREO_COUNT>  (1) 
0

>  <PUBCHEM_ATOM_UDEF_STEREO_COUNT>  (1) 
0

>  <PUBCHEM_BOND_DEF_STEREO_COUNT>  (1) 
0

>  <PUBCHEM_BOND_UDEF_STEREO_COUNT>  (1) 
1

>  <PUBCHEM_ISOTOPIC_ATOM_COUNT>  (1) 
0

>  <PUBCHEM_COMPONENT_COUNT>  (1) 
1

>  <PUBCHEM_CACTVS_TAUTO_COUNT>  (1) 
1

>  <PUBCHEM_CONFORMER_ID>  (1) 
00002F0B00000001

>  <PUBCHEM_MMFF94_ENERGY>  (1) 
18.7904

>  <PUBCHEM_FEATURE_SELFOVERLAP>  (1) 
30.565

>  <PUBCHEM_SHAPE_FINGERPRINT>  (1) 
10857977 72 18268136729155425296
12897270 3 18411140242482885078
12932764 1 17458337529021660566
14325111 11 18410855481613593251
16714656 1 18411136896719224629
21040471 1 17762336912203247104
22082395 3 18409449154918318625
23552423 10 18260268563986381350
29004967 10 18337675324895328632
3248919 1 17417818326499054671
5084963 1 18129660790421613970

>  <PUBCHEM_SHAPE_MULTIPOLES>  (1) 
163.61
3.92
1.65
0.58
0.52
0.49
0
-0.85
0
-0.15
0
-0.01
0.03
0

>  <PUBCHEM_SHAPE_SELFOVERLAP>  (1) 
311.928

>  <PUBCHEM_SHAPE_VOLUME>  (1) 
100.1

>  <PUBCHEM_COORDINATE_TYPE>  (1) 
2
5
10

$$$$
