12049
     RDKit          3D

  7  6  0  0  0  0  0  0  0  0999 V2000
   -2.5740    0.1393    0.0827 N   0  0  0  0  0  0  0  0  0  0  0  0
   -0.1460   -0.0225   -0.4708 C   0  0  0  0  0  0  0  0  0  0  0  0
    0.1695    1.1926    0.4293 C   0  0  0  0  0  0  0  0  0  0  0  0
    1.0546   -0.9775   -0.6621 C   0  0  0  0  0  0  0  0  0  0  0  0
   -1.4046   -0.7331    0.0732 C   0  0  0  0  0  0  0  0  0  0  0  0
    1.3341    2.0401   -0.0625 C   0  0  0  0  0  0  0  0  0  0  0  0
    1.5665   -1.6389    0.6102 C   0  0  0  0  0  0  0  0  0  0  0  0
  1  5  1  0
  2  3  1  0
  2  4  1  0
  2  5  1  0
  3  6  1  0
  4  7  1  0
M  END
>  <PUBCHEM_COMPOUND_CID>  (1) 
12049

>  <PUBCHEM_CONFORMER_RMSD>  (1) 
0.4

>  <PUBCHEM_CONFORMER_DIVERSEORDER>  (1) 
2
13
14
8
3
5
15
1
12
10
7
6
9
11
4

>  <PUBCHEM_MMFF94_PARTIAL_CHARGES>  (1) 
4
1 -0.99
21 0.36
22 0.36
5 0.27

>  <PUBCHEM_EFFECTIVE_ROTOR_COUNT>  (1) 
3

>  <PUBCHEM_PHARMACOPHORE_FEATURES>  (1) 
4
1 1 cation
1 1 donor
1 6 hydrophobe
1 7 hydrophobe

>  <PUBCHEM_HEAVY_ATOM_COUNT>  (1) 
7

>  <PUBCHEM_ATOM_DEF_STEREO_COUNT>  (1) 
0

>  <PUBCHEM_ATOM_UDEF_STEREO_COUNT>  (1) 
0

>  <PUBCHEM_BOND_DEF_STEREO_COUNT>  (1) 
0

>  <PUBCHEM_BOND_UDEF_STEREO_COUNT>  (1) 
0

>  <PUBCHEM_ISOTOPIC_ATOM_COUNT>  (1) 
0

>  <PUBCHEM_COMPONENT_COUNT>  (1) 
1

>  <PUBCHEM_CACTVS_TAUTO_COUNT>  (1) 
1

>  <PUBCHEM_CONFORMER_ID>  (1) 
00002F1100000002

>  <PUBCHEM_MMFF94_ENERGY>  (1) 
1.3367

>  <PUBCHEM_FEATURE_SELFOVERLAP>  (1) 
20.297

>  <PUBCHEM_SHAPE_FINGERPRINT>  (1) 
137420 1 14788025403366637444
20096714 4 17984143931052355125
20653091 64 18412271635695181995
21040471 1 17836084854907894764
23552449 1 17762894373256698126
23552449 11 18410006633120496971
29004967 10 18338234856044518603
5943 1 10923112624353609870

>  <PUBCHEM_SHAPE_MULTIPOLES>  (1) 
139.08
2.43
2.05
0.79
1.66
0.53
0.02
-0.16
-0.18
-1.45
-0.21
-0.16
-0.13
-0.13

>  <PUBCHEM_SHAPE_SELFOVERLAP>  (1) 
240.343

>  <PUBCHEM_SHAPE_VOLUME>  (1) 
92.3

>  <PUBCHEM_COORDINATE_TYPE>  (1) 
2
5
10

$$$$
