12042
     RDKit          3D

  8  7  0  0  0  0  0  0  0  0999 V2000
   -1.0742    0.2153    0.9452 S   0  0  0  0  0  0  0  0  0  0  0  0
    0.8536    2.2353   -0.0494 S   0  0  0  0  0  0  0  0  0  0  0  0
    1.3829   -0.4736    0.0027 N   0  0  0  0  0  0  0  0  0  0  0  0
   -2.0069   -0.0172   -0.5870 C   0  0  0  0  0  0  0  0  0  0  0  0
    0.5135    0.6073    0.2498 C   0  0  0  0  0  0  0  0  0  0  0  0
    2.7227   -0.2899   -0.5607 C   0  0  0  0  0  0  0  0  0  0  0  0
    1.0505   -1.8737    0.2832 C   0  0  0  0  0  0  0  0  0  0  0  0
   -3.4420   -0.4036   -0.2837 C   0  0  0  0  0  0  0  0  0  0  0  0
  1  4  1  0
  1  5  1  0
  2  5  2  0
  3  5  1  0
  3  6  1  0
  3  7  1  0
  4  8  1  0
M  END
>  <PUBCHEM_COMPOUND_CID>  (1) 
12042

>  <PUBCHEM_CONFORMER_RMSD>  (1) 
0.6

>  <PUBCHEM_CONFORMER_DIVERSEORDER>  (1) 
2
9
10
8
5
4
3
1
6
7

>  <PUBCHEM_MMFF94_PARTIAL_CHARGES>  (1) 
7
1 -0.37
2 -0.38
3 -0.66
4 0.23
5 0.58
6 0.3
7 0.3

>  <PUBCHEM_EFFECTIVE_ROTOR_COUNT>  (1) 
3

>  <PUBCHEM_PHARMACOPHORE_FEATURES>  (1) 
2
1 2 acceptor
1 8 hydrophobe

>  <PUBCHEM_HEAVY_ATOM_COUNT>  (1) 
8

>  <PUBCHEM_ATOM_DEF_STEREO_COUNT>  (1) 
0

>  <PUBCHEM_ATOM_UDEF_STEREO_COUNT>  (1) 
0

>  <PUBCHEM_BOND_DEF_STEREO_COUNT>  (1) 
0

>  <PUBCHEM_BOND_UDEF_STEREO_COUNT>  (1) 
0

>  <PUBCHEM_ISOTOPIC_ATOM_COUNT>  (1) 
0

>  <PUBCHEM_COMPONENT_COUNT>  (1) 
1

>  <PUBCHEM_CACTVS_TAUTO_COUNT>  (1) 
1

>  <PUBCHEM_CONFORMER_ID>  (1) 
00002F0A00000002

>  <PUBCHEM_MMFF94_ENERGY>  (1) 
20.0639

>  <PUBCHEM_FEATURE_SELFOVERLAP>  (1) 
10.148

>  <PUBCHEM_SHAPE_FINGERPRINT>  (1) 
12897270 3 18334010614296475383
14128692 85 17988923400771444837
14390081 3 12685091480044089735
18185500 45 18342178808532299227
20201158 50 18333449837565110659
21040471 1 17834110127703113576
21293036 1 18335990839001399358
23552333 60 17988643033996569065
23552423 10 18341326786327136545
29004967 10 18408604734077406273

>  <PUBCHEM_SHAPE_MULTIPOLES>  (1) 
167.35
4.11
1.89
0.87
2.84
0.56
-0.09
-0.97
1.1
-1.19
-0.09
0.16
0.02
-0.08

>  <PUBCHEM_SHAPE_SELFOVERLAP>  (1) 
276.523

>  <PUBCHEM_SHAPE_VOLUME>  (1) 
117

>  <PUBCHEM_COORDINATE_TYPE>  (1) 
2
5
10

$$$$
