12054
     RDKit          3D

 13 13  0  0  0  0  0  0  0  0999 V2000
    2.8215    0.0847   -0.0010 P   0  0  0  0  0  0  0  0  0  0  0  0
    3.2547   -0.8432    1.2559 O   0  0  0  0  0  0  0  0  0  0  0  0
    3.2498   -0.8457   -1.2577 O   0  0  0  0  0  0  0  0  0  0  0  0
    3.5098    1.4190   -0.0036 O   0  0  0  0  0  0  0  0  0  0  0  0
   -3.6982   -1.2288   -0.0017 O   0  0  0  0  0  0  0  0  0  0  0  0
   -3.9131    1.0341   -0.0026 O   0  0  0  0  0  0  0  0  0  0  0  0
    1.0554    0.0694    0.0020 C   0  0  0  0  0  0  0  0  0  0  0  0
    0.3478    1.2715    0.0020 C   0  0  0  0  0  0  0  0  0  0  0  0
    0.3682   -1.1443    0.0019 C   0  0  0  0  0  0  0  0  0  0  0  0
   -1.7342    0.0460    0.0017 C   0  0  0  0  0  0  0  0  0  0  0  0
   -1.0470    1.2598    0.0019 C   0  0  0  0  0  0  0  0  0  0  0  0
   -1.0266   -1.1561    0.0017 C   0  0  0  0  0  0  0  0  0  0  0  0
   -3.1882    0.0335   -0.0005 C   0  0  0  0  0  0  0  0  0  0  0  0
  1  2  1  0
  1  3  1  0
  1  4  2  0
  1  7  1  0
  5 13  1  0
  6 13  2  0
  7  8  2  0
  7  9  1  0
  8 11  1  0
  9 12  2  0
 10 11  2  0
 10 12  1  0
 10 13  1  0
M  END
>  <PUBCHEM_COMPOUND_CID>  (1) 
12054

>  <PUBCHEM_CONFORMER_RMSD>  (1) 
0.6

>  <PUBCHEM_CONFORMER_DIVERSEORDER>  (1) 
1
2

>  <PUBCHEM_MMFF94_PARTIAL_CHARGES>  (1) 
20
1 1.38
10 0.09
11 -0.15
12 -0.15
13 0.63
14 0.15
15 0.15
16 0.15
17 0.15
18 0.5
19 0.5
2 -0.77
20 0.5
3 -0.77
4 -0.7
5 -0.65
6 -0.57
7 -0.14
8 -0.15
9 -0.15

>  <PUBCHEM_EFFECTIVE_ROTOR_COUNT>  (1) 
2

>  <PUBCHEM_PHARMACOPHORE_FEATURES>  (1) 
8
1 2 acceptor
1 3 acceptor
1 4 acceptor
1 5 acceptor
1 6 acceptor
3 5 6 13 anion
4 1 2 3 4 anion
6 7 8 9 10 11 12 rings

>  <PUBCHEM_HEAVY_ATOM_COUNT>  (1) 
13

>  <PUBCHEM_ATOM_DEF_STEREO_COUNT>  (1) 
0

>  <PUBCHEM_ATOM_UDEF_STEREO_COUNT>  (1) 
0

>  <PUBCHEM_BOND_DEF_STEREO_COUNT>  (1) 
0

>  <PUBCHEM_BOND_UDEF_STEREO_COUNT>  (1) 
0

>  <PUBCHEM_ISOTOPIC_ATOM_COUNT>  (1) 
0

>  <PUBCHEM_COMPONENT_COUNT>  (1) 
1

>  <PUBCHEM_CACTVS_TAUTO_COUNT>  (1) 
1

>  <PUBCHEM_CONFORMER_ID>  (1) 
00002F1600000001

>  <PUBCHEM_MMFF94_ENERGY>  (1) 
-4.7655

>  <PUBCHEM_FEATURE_SELFOVERLAP>  (1) 
40.697

>  <PUBCHEM_SHAPE_FINGERPRINT>  (1) 
10130415 120 18334288764815570256
10219947 1 18411983563474605037
11132069 177 18343015575667507329
12032990 46 18341058475119440983
12932764 1 17894628136727436332
13296908 3 18272374169738661791
14144814 61 18335420170754363731
14325111 11 18410575097637768513
14993402 34 18334296487045377645
16945 1 18338516343963867459
18186145 218 18261110759643883596
19026448 4 16415477147150789147
19026448 5 16370728123411933727
193761 8 17618221706783692929
20645476 183 17604446192046009230
20645477 70 17846783957670775358
23402539 116 18343010095458036364
23463225 33 18334008367833439706
23552423 10 17971474250044064564
23559900 14 18343305834432730134
2748010 2 18193838373601799687
581208 293 18060415811594380982

>  <PUBCHEM_SHAPE_MULTIPOLES>  (1) 
242.04
6.61
1.45
0.78
0.67
0.12
0
-0.02
0.01
0.04
0
-0.63
-0.16
0

>  <PUBCHEM_SHAPE_SELFOVERLAP>  (1) 
491.788

>  <PUBCHEM_SHAPE_VOLUME>  (1) 
141.3

>  <PUBCHEM_COORDINATE_TYPE>  (1) 
2
5
10

$$$$
