12056
     RDKit          3D

  9  9  0  0  0  0  0  0  0  0999 V2000
    2.8826   -1.2787    0.0002 Br  0  0  0  0  0  0  0  0  0  0  0  0
    2.2762    1.3178   -0.0003 O   0  0  0  0  0  0  0  0  0  0  0  0
    0.2465    0.0882    0.0001 C   0  0  0  0  0  0  0  0  0  0  0  0
   -0.5627    1.2245    0.0002 C   0  0  0  0  0  0  0  0  0  0  0  0
   -0.3331   -1.1807   -0.0001 C   0  0  0  0  0  0  0  0  0  0  0  0
   -1.9512    1.0921    0.0002 C   0  0  0  0  0  0  0  0  0  0  0  0
   -1.7217   -1.3130   -0.0002 C   0  0  0  0  0  0  0  0  0  0  0  0
   -2.5307   -0.1766   -0.0001 C   0  0  0  0  0  0  0  0  0  0  0  0
    1.6941    0.2265    0.0000 C   0  0  0  0  0  0  0  0  0  0  0  0
  1  9  1  0
  2  9  2  0
  3  4  2  0
  3  5  1  0
  3  9  1  0
  4  6  1  0
  5  7  2  0
  6  8  2  0
  7  8  1  0
M  END
>  <PUBCHEM_COMPOUND_CID>  (1) 
12056

>  <PUBCHEM_CONFORMER_RMSD>  (1) 
0.4

>  <PUBCHEM_CONFORMER_DIVERSEORDER>  (1) 
1
2

>  <PUBCHEM_MMFF94_PARTIAL_CHARGES>  (1) 
14
1 -0.14
10 0.15
11 0.15
12 0.15
13 0.15
14 0.15
2 -0.57
3 0.09
4 -0.15
5 -0.15
6 -0.15
7 -0.15
8 -0.15
9 0.63

>  <PUBCHEM_EFFECTIVE_ROTOR_COUNT>  (1) 
1

>  <PUBCHEM_PHARMACOPHORE_FEATURES>  (1) 
2
1 1 hydrophobe
6 3 4 5 6 7 8 rings

>  <PUBCHEM_HEAVY_ATOM_COUNT>  (1) 
9

>  <PUBCHEM_ATOM_DEF_STEREO_COUNT>  (1) 
0

>  <PUBCHEM_ATOM_UDEF_STEREO_COUNT>  (1) 
0

>  <PUBCHEM_BOND_DEF_STEREO_COUNT>  (1) 
0

>  <PUBCHEM_BOND_UDEF_STEREO_COUNT>  (1) 
0

>  <PUBCHEM_ISOTOPIC_ATOM_COUNT>  (1) 
0

>  <PUBCHEM_COMPONENT_COUNT>  (1) 
1

>  <PUBCHEM_CACTVS_TAUTO_COUNT>  (1) 
1

>  <PUBCHEM_CONFORMER_ID>  (1) 
00002F1800000001

>  <PUBCHEM_MMFF94_ENERGY>  (1) 
22.3159

>  <PUBCHEM_FEATURE_SELFOVERLAP>  (1) 
10.148

>  <PUBCHEM_SHAPE_FINGERPRINT>  (1) 
12897270 3 18338519767190043516
12932764 1 17703790378918804618
14325111 11 18410575071788908417
16945 1 18410855464423129094
193761 8 15168265248966473484
19973954 147 18411139142892356776
20201158 50 18271526386339575534
21040471 1 18410856521169888609
23552423 10 18260831526861699302
2748010 2 18409728482232039767
29004967 10 18190746529482005467
369184 2 18342737433543194297
5084963 1 18272084955135808272

>  <PUBCHEM_SHAPE_MULTIPOLES>  (1) 
185.29
4.08
1.62
0.62
1.73
0
0
0.6
0
0.11
0
0.03
0.03
0

>  <PUBCHEM_SHAPE_SELFOVERLAP>  (1) 
370.648

>  <PUBCHEM_SHAPE_VOLUME>  (1) 
112.3

>  <PUBCHEM_COORDINATE_TYPE>  (1) 
2
5
10

$$$$
