12053
     RDKit          3D

 10 10  0  0  0  0  0  0  0  0999 V2000
    2.0620   -0.6049    1.2199 O   0  0  0  0  0  0  0  0  0  0  0  0
    1.5612   -0.0023    0.0042 C   0  0  0  0  0  0  0  0  0  0  0  0
    0.0697    0.0034    0.0009 C   0  0  0  0  0  0  0  0  0  0  0  0
    2.2192    1.4006   -0.0413 C   0  0  0  0  0  0  0  0  0  0  0  0
    2.1086   -0.8471   -1.1682 C   0  0  0  0  0  0  0  0  0  0  0  0
   -0.6230    1.2135   -0.0409 C   0  0  0  0  0  0  0  0  0  0  0  0
   -0.6326   -1.2012    0.0394 C   0  0  0  0  0  0  0  0  0  0  0  0
   -2.0178    1.2191   -0.0442 C   0  0  0  0  0  0  0  0  0  0  0  0
   -2.0275   -1.1956    0.0360 C   0  0  0  0  0  0  0  0  0  0  0  0
   -2.7200    0.0145   -0.0058 C   0  0  0  0  0  0  0  0  0  0  0  0
  1  2  1  0
  2  3  1  0
  2  4  1  0
  2  5  1  0
  3  6  2  0
  3  7  1  0
  6  8  1  0
  7  9  2  0
  8 10  2  0
  9 10  1  0
M  END
>  <PUBCHEM_COMPOUND_CID>  (1) 
12053

>  <PUBCHEM_CONFORMER_RMSD>  (1) 
0.4

>  <PUBCHEM_CONFORMER_DIVERSEORDER>  (1) 
1
2

>  <PUBCHEM_MMFF94_PARTIAL_CHARGES>  (1) 
14
1 -0.68
10 -0.15
17 0.15
18 0.15
19 0.4
2 0.42
20 0.15
21 0.15
22 0.15
3 -0.14
6 -0.15
7 -0.15
8 -0.15
9 -0.15

>  <PUBCHEM_EFFECTIVE_ROTOR_COUNT>  (1) 
1

>  <PUBCHEM_PHARMACOPHORE_FEATURES>  (1) 
4
1 1 acceptor
1 1 donor
3 2 4 5 hydrophobe
6 3 6 7 8 9 10 rings

>  <PUBCHEM_HEAVY_ATOM_COUNT>  (1) 
10

>  <PUBCHEM_ATOM_DEF_STEREO_COUNT>  (1) 
0

>  <PUBCHEM_ATOM_UDEF_STEREO_COUNT>  (1) 
0

>  <PUBCHEM_BOND_DEF_STEREO_COUNT>  (1) 
0

>  <PUBCHEM_BOND_UDEF_STEREO_COUNT>  (1) 
0

>  <PUBCHEM_ISOTOPIC_ATOM_COUNT>  (1) 
0

>  <PUBCHEM_COMPONENT_COUNT>  (1) 
1

>  <PUBCHEM_CACTVS_TAUTO_COUNT>  (1) 
1

>  <PUBCHEM_CONFORMER_ID>  (1) 
00002F1500000001

>  <PUBCHEM_MMFF94_ENERGY>  (1) 
32.2106

>  <PUBCHEM_FEATURE_SELFOVERLAP>  (1) 
20.297

>  <PUBCHEM_SHAPE_FINGERPRINT>  (1) 
10857977 72 18341324608509666385
12423570 1 12399165688548123800
12524768 44 18412548746832125917
12897270 3 18341621467943323212
12932764 1 17967255273588614869
14325111 11 18410856555709014045
15310529 11 15051726478430330003
15775835 57 18040720220877114516
16945 1 18337953372730762527
19973954 147 18342463629272884548
20201158 50 18202287961415833670
20645464 45 18130777945643244626
21040471 1 18193838137331223061
23552423 10 18260833725652768375
2748010 2 18410857685190337597
29004967 10 16988842774005777922
3248919 1 18131347501319683461
369184 2 18040708182315678017
5084963 1 18059861610272927115
8030462 33 17822013107453073983

>  <PUBCHEM_SHAPE_MULTIPOLES>  (1) 
199.93
3.82
1.51
0.85
0.16
0.19
-0.02
0.09
0.12
0.09
0.07
-0.49
-0.18
0.15

>  <PUBCHEM_SHAPE_SELFOVERLAP>  (1) 
409.733

>  <PUBCHEM_SHAPE_VOLUME>  (1) 
116.9

>  <PUBCHEM_COORDINATE_TYPE>  (1) 
2
5
10

$$$$
