12050
     RDKit          3D

  7  6  0  0  0  0  0  0  0  0999 V2000
    0.0462    0.0949   -0.1568 N   0  0  0  0  0  0  0  0  0  0  0  0
   -2.1193    1.3163    0.1841 N   0  0  0  0  0  0  0  0  0  0  0  0
    0.0919   -1.3308   -0.5813 C   0  0  0  0  0  0  0  0  0  0  0  0
    1.3110    0.8049   -0.4897 C   0  0  0  0  0  0  0  0  0  0  0  0
   -0.5738   -2.2343    0.4360 C   0  0  0  0  0  0  0  0  0  0  0  0
    2.3622    0.5973    0.5811 C   0  0  0  0  0  0  0  0  0  0  0  0
   -1.1182    0.7518    0.0265 C   0  0  0  0  0  0  0  0  0  0  0  0
  1  3  1  0
  1  4  1  0
  1  7  1  0
  2  7  3  0
  3  5  1  0
  4  6  1  0
M  END
>  <PUBCHEM_COMPOUND_CID>  (1) 
12050

>  <PUBCHEM_CONFORMER_RMSD>  (1) 
0.4

>  <PUBCHEM_CONFORMER_DIVERSEORDER>  (1) 
1
7
5
8
6
10
9
4
2
3

>  <PUBCHEM_MMFF94_PARTIAL_CHARGES>  (1) 
5
1 -0.84
2 -0.56
3 0.36
4 0.36
7 0.68

>  <PUBCHEM_EFFECTIVE_ROTOR_COUNT>  (1) 
2

>  <PUBCHEM_PHARMACOPHORE_FEATURES>  (1) 
3
1 1 cation
1 2 acceptor
3 1 2 7 cation

>  <PUBCHEM_HEAVY_ATOM_COUNT>  (1) 
7

>  <PUBCHEM_ATOM_DEF_STEREO_COUNT>  (1) 
0

>  <PUBCHEM_ATOM_UDEF_STEREO_COUNT>  (1) 
0

>  <PUBCHEM_BOND_DEF_STEREO_COUNT>  (1) 
0

>  <PUBCHEM_BOND_UDEF_STEREO_COUNT>  (1) 
0

>  <PUBCHEM_ISOTOPIC_ATOM_COUNT>  (1) 
0

>  <PUBCHEM_COMPONENT_COUNT>  (1) 
1

>  <PUBCHEM_CACTVS_TAUTO_COUNT>  (1) 
1

>  <PUBCHEM_CONFORMER_ID>  (1) 
00002F1200000001

>  <PUBCHEM_MMFF94_ENERGY>  (1) 
2.1935

>  <PUBCHEM_FEATURE_SELFOVERLAP>  (1) 
17.164

>  <PUBCHEM_SHAPE_FINGERPRINT>  (1) 
137420 1 16596240311789498414
20096714 4 18272089344640169276
21040471 1 18411144627555011924
23552449 1 18053943132512484352
23552449 11 17688866445797200833
29004967 10 17398965877023029635
5943 1 8923387048215478350

>  <PUBCHEM_SHAPE_MULTIPOLES>  (1) 
134.09
2.5
2.04
0.77
1.5
0.56
0.01
-0.63
-0.51
-1.56
-0.19
0.13
0.11
-0.02

>  <PUBCHEM_SHAPE_SELFOVERLAP>  (1) 
236.299

>  <PUBCHEM_SHAPE_VOLUME>  (1) 
87.1

>  <PUBCHEM_COORDINATE_TYPE>  (1) 
2
5
10

$$$$
