12062
     RDKit          3D

 11 11  0  0  0  0  0  0  0  0999 V2000
   -2.7693   -1.1571   -0.0010 O   0  0  0  0  0  0  0  0  0  0  0  0
   -2.9003    1.1121    0.0003 O   0  0  0  0  0  0  0  0  0  0  0  0
    2.1053    2.3942   -0.0007 N   0  0  0  0  0  0  0  0  0  0  0  0
    1.9682   -2.4635   -0.0003 N   0  0  0  0  0  0  0  0  0  0  0  0
   -0.7595    0.0441    0.0003 C   0  0  0  0  0  0  0  0  0  0  0  0
    1.3661    1.1927    0.0001 C   0  0  0  0  0  0  0  0  0  0  0  0
    1.2980   -1.2224    0.0003 C   0  0  0  0  0  0  0  0  0  0  0  0
   -0.0964   -1.1830    0.0004 C   0  0  0  0  0  0  0  0  0  0  0  0
   -0.0283    1.2319    0.0001 C   0  0  0  0  0  0  0  0  0  0  0  0
    2.0293   -0.0345    0.0002 C   0  0  0  0  0  0  0  0  0  0  0  0
   -2.2132    0.0855    0.0003 C   0  0  0  0  0  0  0  0  0  0  0  0
  1 11  1  0
  2 11  2  0
  3  6  1  0
  4  7  1  0
  5  8  2  0
  5  9  1  0
  5 11  1  0
  6  9  2  0
  6 10  1  0
  7  8  1  0
  7 10  2  0
M  END
>  <PUBCHEM_COMPOUND_CID>  (1) 
12062

>  <PUBCHEM_CONFORMER_RMSD>  (1) 
0.4

>  <PUBCHEM_CONFORMER_DIVERSEORDER>  (1) 
1
2

>  <PUBCHEM_MMFF94_PARTIAL_CHARGES>  (1) 
19
1 -0.65
10 -0.15
11 0.63
12 0.15
13 0.15
14 0.15
15 0.4
16 0.4
17 0.4
18 0.4
19 0.5
2 -0.57
3 -0.9
4 -0.9
5 0.09
6 0.1
7 0.1
8 -0.15
9 -0.15

>  <PUBCHEM_EFFECTIVE_ROTOR_COUNT>  (1) 
1

>  <PUBCHEM_PHARMACOPHORE_FEATURES>  (1) 
8
1 1 acceptor
1 2 acceptor
1 3 cation
1 3 donor
1 4 cation
1 4 donor
3 1 2 11 anion
6 5 6 7 8 9 10 rings

>  <PUBCHEM_HEAVY_ATOM_COUNT>  (1) 
11

>  <PUBCHEM_ATOM_DEF_STEREO_COUNT>  (1) 
0

>  <PUBCHEM_ATOM_UDEF_STEREO_COUNT>  (1) 
0

>  <PUBCHEM_BOND_DEF_STEREO_COUNT>  (1) 
0

>  <PUBCHEM_BOND_UDEF_STEREO_COUNT>  (1) 
0

>  <PUBCHEM_ISOTOPIC_ATOM_COUNT>  (1) 
0

>  <PUBCHEM_COMPONENT_COUNT>  (1) 
1

>  <PUBCHEM_CACTVS_TAUTO_COUNT>  (1) 
1

>  <PUBCHEM_CONFORMER_ID>  (1) 
00002F1E00000001

>  <PUBCHEM_MMFF94_ENERGY>  (1) 
50.2839

>  <PUBCHEM_FEATURE_SELFOVERLAP>  (1) 
40.652

>  <PUBCHEM_SHAPE_FINGERPRINT>  (1) 
1 1 18338799030311298852
13380535 76 18192145112720621002
14325111 11 18338797947832126305
14648413 74 18408605833821298497
16945 1 18410575063230498916
17990270 104 18410009909985488475
19973954 147 18410576171653951113
20645477 70 18411131446949610455
20871998 22 17982454797840651550
21040471 1 18050567640589697920
23552423 10 18410013243001169583
241688 4 17906172845847626248
2748010 2 18121224439596780556
29004967 10 18409167671124937083
5084963 1 18129950103502695153
63268167 104 18338804407409977857
7364860 26 18342457036777361190
81228 2 17403181400398587458

>  <PUBCHEM_SHAPE_MULTIPOLES>  (1) 
204.67
3.69
2.25
0.58
2.34
0.1
0
-0.14
0
-1.59
0
-0.02
0
0

>  <PUBCHEM_SHAPE_SELFOVERLAP>  (1) 
431.925

>  <PUBCHEM_SHAPE_VOLUME>  (1) 
115.9

>  <PUBCHEM_COORDINATE_TYPE>  (1) 
2
5
10

$$$$
