12063
     RDKit          3D

 11 11  0  0  0  0  0  0  0  0999 V2000
    2.1380    2.8953   -0.0015 Br  0  0  0  0  0  0  0  0  0  0  0  0
    2.3275   -2.7919    0.0003 Br  0  0  0  0  0  0  0  0  0  0  0  0
   -2.8185    1.1416    0.0015 O   0  0  0  0  0  0  0  0  0  0  0  0
   -2.9384   -1.1282   -0.0016 O   0  0  0  0  0  0  0  0  0  0  0  0
   -0.8029   -0.0497    0.0004 C   0  0  0  0  0  0  0  0  0  0  0  0
   -0.0655   -1.2336    0.0000 C   0  0  0  0  0  0  0  0  0  0  0  0
   -0.1461    1.1809    0.0007 C   0  0  0  0  0  0  0  0  0  0  0  0
    1.2481    1.2275    0.0007 C   0  0  0  0  0  0  0  0  0  0  0  0
    1.3286   -1.1872   -0.0001 C   0  0  0  0  0  0  0  0  0  0  0  0
    1.9855    0.0434    0.0003 C   0  0  0  0  0  0  0  0  0  0  0  0
   -2.2565   -0.0981   -0.0005 C   0  0  0  0  0  0  0  0  0  0  0  0
  1  8  1  0
  2  9  1  0
  3 11  1  0
  4 11  2  0
  5  6  2  0
  5  7  1  0
  5 11  1  0
  6  9  1  0
  7  8  2  0
  8 10  1  0
  9 10  2  0
M  END
>  <PUBCHEM_COMPOUND_CID>  (1) 
12063

>  <PUBCHEM_CONFORMER_RMSD>  (1) 
0.4

>  <PUBCHEM_CONFORMER_DIVERSEORDER>  (1) 
1
2

>  <PUBCHEM_MMFF94_PARTIAL_CHARGES>  (1) 
15
1 -0.11
10 -0.15
11 0.63
12 0.15
13 0.15
14 0.15
15 0.5
2 -0.11
3 -0.65
4 -0.57
5 0.09
6 -0.15
7 -0.15
8 0.11
9 0.11

>  <PUBCHEM_EFFECTIVE_ROTOR_COUNT>  (1) 
1

>  <PUBCHEM_PHARMACOPHORE_FEATURES>  (1) 
6
1 1 hydrophobe
1 2 hydrophobe
1 3 acceptor
1 4 acceptor
3 3 4 11 anion
6 5 6 7 8 9 10 rings

>  <PUBCHEM_HEAVY_ATOM_COUNT>  (1) 
11

>  <PUBCHEM_ATOM_DEF_STEREO_COUNT>  (1) 
0

>  <PUBCHEM_ATOM_UDEF_STEREO_COUNT>  (1) 
0

>  <PUBCHEM_BOND_DEF_STEREO_COUNT>  (1) 
0

>  <PUBCHEM_BOND_UDEF_STEREO_COUNT>  (1) 
0

>  <PUBCHEM_ISOTOPIC_ATOM_COUNT>  (1) 
0

>  <PUBCHEM_COMPONENT_COUNT>  (1) 
1

>  <PUBCHEM_CACTVS_TAUTO_COUNT>  (1) 
1

>  <PUBCHEM_CONFORMER_ID>  (1) 
00002F1F00000001

>  <PUBCHEM_MMFF94_ENERGY>  (1) 
26.3975

>  <PUBCHEM_FEATURE_SELFOVERLAP>  (1) 
30.503

>  <PUBCHEM_SHAPE_FINGERPRINT>  (1) 
1 1 18338799043233104532
12423570 1 9294728589356503558
13380535 76 18050283970910903912
14325111 11 18266740375321801857
14648413 74 18408886213560269153
16945 1 18410575106238200646
17990270 104 18409727339749893355
19021347 4 17905888433218818864
19973954 147 18410575076447866113
20645477 70 18337100250946115183
20711985 344 17472693624939261474
20871998 184 16757768620518432908
20871998 22 18125441912830085422
21040471 1 17978511158911402368
21524375 3 18049438442169161976
23552423 10 18411139151455735799
241688 4 17978230457091790624
2748010 2 18123459489117145694
3071541 12 18411425011810632260
7364860 26 18412545418417042208
81228 2 17547579171579057626

>  <PUBCHEM_SHAPE_MULTIPOLES>  (1) 
226.52
3.99
3.22
0.63
2.85
0.43
0
-0.46
0
-3.45
0
-0.1
0
0

>  <PUBCHEM_SHAPE_SELFOVERLAP>  (1) 
446.794

>  <PUBCHEM_SHAPE_VOLUME>  (1) 
141

>  <PUBCHEM_COORDINATE_TYPE>  (1) 
2
5
10

$$$$
