12073
     RDKit          3D

 11 11  0  0  0  0  0  0  0  0999 V2000
    3.0699   -0.9792    0.0007 O   0  0  0  0  0  0  0  0  0  0  0  0
    2.8982    1.2874   -0.0004 O   0  0  0  0  0  0  0  0  0  0  0  0
   -1.3416    0.7988    0.0002 C   0  0  0  0  0  0  0  0  0  0  0  0
   -1.8347   -0.5061    0.0001 C   0  0  0  0  0  0  0  0  0  0  0  0
    0.0351    1.0240    0.0001 C   0  0  0  0  0  0  0  0  0  0  0  0
    0.9184   -0.0557   -0.0001 C   0  0  0  0  0  0  0  0  0  0  0  0
   -0.9515   -1.5856    0.0000 C   0  0  0  0  0  0  0  0  0  0  0  0
    0.4250   -1.3604   -0.0002 C   0  0  0  0  0  0  0  0  0  0  0  0
   -2.2681    1.9702    0.0002 C   0  0  0  0  0  0  0  0  0  0  0  0
   -3.3044   -0.7720   -0.0003 C   0  0  0  0  0  0  0  0  0  0  0  0
    2.3536    0.1785   -0.0004 C   0  0  0  0  0  0  0  0  0  0  0  0
  1 11  1  0
  2 11  2  0
  3  4  2  0
  3  5  1  0
  3  9  1  0
  4  7  1  0
  4 10  1  0
  5  6  2  0
  6  8  1  0
  6 11  1  0
  7  8  2  0
M  END
>  <PUBCHEM_COMPOUND_CID>  (1) 
12073

>  <PUBCHEM_CONFORMER_RMSD>  (1) 
0.4

>  <PUBCHEM_CONFORMER_DIVERSEORDER>  (1) 
1
2

>  <PUBCHEM_MMFF94_PARTIAL_CHARGES>  (1) 
15
1 -0.65
10 0.14
11 0.63
12 0.15
13 0.15
14 0.15
2 -0.57
21 0.5
3 -0.14
4 -0.14
5 -0.15
6 0.09
7 -0.15
8 -0.15
9 0.14

>  <PUBCHEM_EFFECTIVE_ROTOR_COUNT>  (1) 
1

>  <PUBCHEM_PHARMACOPHORE_FEATURES>  (1) 
4
1 1 acceptor
1 2 acceptor
3 1 2 11 anion
6 3 4 5 6 7 8 rings

>  <PUBCHEM_HEAVY_ATOM_COUNT>  (1) 
11

>  <PUBCHEM_ATOM_DEF_STEREO_COUNT>  (1) 
0

>  <PUBCHEM_ATOM_UDEF_STEREO_COUNT>  (1) 
0

>  <PUBCHEM_BOND_DEF_STEREO_COUNT>  (1) 
0

>  <PUBCHEM_BOND_UDEF_STEREO_COUNT>  (1) 
0

>  <PUBCHEM_ISOTOPIC_ATOM_COUNT>  (1) 
0

>  <PUBCHEM_COMPONENT_COUNT>  (1) 
1

>  <PUBCHEM_CACTVS_TAUTO_COUNT>  (1) 
1

>  <PUBCHEM_CONFORMER_ID>  (1) 
00002F2900000001

>  <PUBCHEM_MMFF94_ENERGY>  (1) 
30.9832

>  <PUBCHEM_FEATURE_SELFOVERLAP>  (1) 
20.355

>  <PUBCHEM_SHAPE_FINGERPRINT>  (1) 
11206711 2 18410289207735410365
12032990 46 18337116777679472731
12897270 3 18410571786228454967
12932764 1 17489299819615130084
13380535 21 18124328116166898007
13380535 76 18194959643744932823
14325111 11 18410575067631104160
16945 1 18338517559381615943
193761 8 17978228258116260775
19973954 147 18410857663720938108
20510252 161 18343865519562355057
20653085 51 18338528438612930664
20871998 184 18128824212428802703
21040471 1 18338798905472364961
21501502 16 18338517439101393698
23402539 116 18342163501527416895
23402655 69 18196635334516888661
23463225 33 18335419011255832874
23552423 10 18333733490005837734
23559900 14 18199754640451832086
241688 4 18051968422730022723
2748010 2 18338801091800590423
369184 2 18342457062309827138
5084963 1 18272652341822153338
6333449 129 18339921524346154773

>  <PUBCHEM_SHAPE_MULTIPOLES>  (1) 
214.64
4.55
1.82
0.6
1.27
0.3
0
0.22
0
-0.63
0
-0.05
0
0

>  <PUBCHEM_SHAPE_SELFOVERLAP>  (1) 
449.003

>  <PUBCHEM_SHAPE_VOLUME>  (1) 
123.4

>  <PUBCHEM_COORDINATE_TYPE>  (1) 
2
5
10

$$$$
