12070
     RDKit          3D

 11 11  0  0  0  0  0  0  0  0999 V2000
    3.5652   -1.5845    0.2932 Br  0  0  0  0  0  0  0  0  0  0  0  0
   -2.4983    0.4556    0.3657 O   0  0  0  0  0  0  0  0  0  0  0  0
   -1.9426   -1.5727   -0.5703 O   0  0  0  0  0  0  0  0  0  0  0  0
   -0.2484    0.0362   -0.0952 C   0  0  0  0  0  0  0  0  0  0  0  0
    0.8145   -0.8550    0.0530 C   0  0  0  0  0  0  0  0  0  0  0  0
   -0.0010    1.4047   -0.2035 C   0  0  0  0  0  0  0  0  0  0  0  0
    2.1244   -0.3778    0.0929 C   0  0  0  0  0  0  0  0  0  0  0  0
    1.3090    1.8820   -0.1635 C   0  0  0  0  0  0  0  0  0  0  0  0
    2.3717    0.9907   -0.0155 C   0  0  0  0  0  0  0  0  0  0  0  0
   -1.6145   -0.4603   -0.1367 C   0  0  0  0  0  0  0  0  0  0  0  0
   -3.8801    0.0812    0.3799 C   0  0  0  0  0  0  0  0  0  0  0  0
  1  7  1  0
  2 10  1  0
  2 11  1  0
  3 10  2  0
  4  5  2  0
  4  6  1  0
  4 10  1  0
  5  7  1  0
  6  8  2  0
  7  9  2  0
  8  9  1  0
M  END
>  <PUBCHEM_COMPOUND_CID>  (1) 
12070

>  <PUBCHEM_CONFORMER_RMSD>  (1) 
0.4

>  <PUBCHEM_CONFORMER_DIVERSEORDER>  (1) 
1
4
5
2
6
3

>  <PUBCHEM_MMFF94_PARTIAL_CHARGES>  (1) 
15
1 -0.11
10 0.63
11 0.28
12 0.15
13 0.15
14 0.15
15 0.15
2 -0.43
3 -0.57
4 0.09
5 -0.15
6 -0.15
7 0.11
8 -0.15
9 -0.15

>  <PUBCHEM_EFFECTIVE_ROTOR_COUNT>  (1) 
2

>  <PUBCHEM_PHARMACOPHORE_FEATURES>  (1) 
3
1 1 hydrophobe
1 3 acceptor
6 4 5 6 7 8 9 rings

>  <PUBCHEM_HEAVY_ATOM_COUNT>  (1) 
11

>  <PUBCHEM_ATOM_DEF_STEREO_COUNT>  (1) 
0

>  <PUBCHEM_ATOM_UDEF_STEREO_COUNT>  (1) 
0

>  <PUBCHEM_BOND_DEF_STEREO_COUNT>  (1) 
0

>  <PUBCHEM_BOND_UDEF_STEREO_COUNT>  (1) 
0

>  <PUBCHEM_ISOTOPIC_ATOM_COUNT>  (1) 
0

>  <PUBCHEM_COMPONENT_COUNT>  (1) 
1

>  <PUBCHEM_CACTVS_TAUTO_COUNT>  (1) 
1

>  <PUBCHEM_CONFORMER_ID>  (1) 
00002F2600000001

>  <PUBCHEM_MMFF94_ENERGY>  (1) 
28.8412

>  <PUBCHEM_FEATURE_SELFOVERLAP>  (1) 
15.223

>  <PUBCHEM_SHAPE_FINGERPRINT>  (1) 
10130415 120 18409166584677481370
10219947 1 18412829066362445995
12032990 46 18335987454477720010
12251169 10 18343580728960399938
12932764 1 18335984250310648645
14128692 85 18410573977104887550
14325111 11 18339363067023334145
15375462 189 18114457864693525738
15442244 35 18412265008439409169
161256 15 18334572426141890852
16945 1 18412540981541875668
17844478 74 17676490540541680045
18511873 20 18341614789353502427
20645477 70 18335697252259566647
207724 885 18410295795972454107
20871998 184 18054499206608172478
20871998 22 18197502822714472398
21040471 1 17905609152896861668
21501502 16 18339642377046572255
23402539 116 17560509613385358453
23463225 33 18411138017668954086
23552423 10 18264771145622048364
2748010 2 18263908965698301268
63268167 104 18410295843080204225
7364860 26 18342458183876773992

>  <PUBCHEM_SHAPE_MULTIPOLES>  (1) 
220.58
5.6
1.79
0.68
2.14
0.37
-0.01
-2.16
-0.87
-1.04
0.13
0.03
-0.05
-0.3

>  <PUBCHEM_SHAPE_SELFOVERLAP>  (1) 
442.845

>  <PUBCHEM_SHAPE_VOLUME>  (1) 
134

>  <PUBCHEM_COORDINATE_TYPE>  (1) 
2
5
10

$$$$
