12082
     RDKit          3D

 11 11  0  0  0  0  0  0  0  0999 V2000
   -2.4041   -0.8408   -0.0003 O   0  0  0  0  0  0  0  0  0  0  0  0
   -2.3260    1.4598    0.0014 O   0  0  0  0  0  0  0  0  0  0  0  0
    3.8614   -0.3130    0.0012 N   0  0  0  0  0  0  0  0  0  0  0  0
   -0.3087    0.1887   -0.0005 C   0  0  0  0  0  0  0  0  0  0  0  0
    2.4610   -0.1443   -0.0004 C   0  0  0  0  0  0  0  0  0  0  0  0
    0.5278    1.3048   -0.0009 C   0  0  0  0  0  0  0  0  0  0  0  0
    0.2395   -1.0939    0.0000 C   0  0  0  0  0  0  0  0  0  0  0  0
    1.9127    1.1383   -0.0009 C   0  0  0  0  0  0  0  0  0  0  0  0
    1.6244   -1.2603    0.0002 C   0  0  0  0  0  0  0  0  0  0  0  0
   -1.7528    0.3624    0.0007 C   0  0  0  0  0  0  0  0  0  0  0  0
   -3.8352   -0.8017   -0.0005 C   0  0  0  0  0  0  0  0  0  0  0  0
  1 10  1  0
  1 11  1  0
  2 10  2  0
  3  5  1  0
  4  6  2  0
  4  7  1  0
  4 10  1  0
  5  8  2  0
  5  9  1  0
  6  8  1  0
  7  9  2  0
M  END
>  <PUBCHEM_COMPOUND_CID>  (1) 
12082

>  <PUBCHEM_CONFORMER_RMSD>  (1) 
0.4

>  <PUBCHEM_CONFORMER_DIVERSEORDER>  (1) 
1
2

>  <PUBCHEM_MMFF94_PARTIAL_CHARGES>  (1) 
17
1 -0.43
10 0.63
11 0.28
12 0.15
13 0.15
14 0.15
15 0.15
16 0.4
17 0.4
2 -0.57
3 -0.9
4 0.09
5 0.1
6 -0.15
7 -0.15
8 -0.15
9 -0.15

>  <PUBCHEM_EFFECTIVE_ROTOR_COUNT>  (1) 
2

>  <PUBCHEM_PHARMACOPHORE_FEATURES>  (1) 
4
1 2 acceptor
1 3 cation
1 3 donor
6 4 5 6 7 8 9 rings

>  <PUBCHEM_HEAVY_ATOM_COUNT>  (1) 
11

>  <PUBCHEM_ATOM_DEF_STEREO_COUNT>  (1) 
0

>  <PUBCHEM_ATOM_UDEF_STEREO_COUNT>  (1) 
0

>  <PUBCHEM_BOND_DEF_STEREO_COUNT>  (1) 
0

>  <PUBCHEM_BOND_UDEF_STEREO_COUNT>  (1) 
0

>  <PUBCHEM_ISOTOPIC_ATOM_COUNT>  (1) 
0

>  <PUBCHEM_COMPONENT_COUNT>  (1) 
1

>  <PUBCHEM_CACTVS_TAUTO_COUNT>  (1) 
2

>  <PUBCHEM_CONFORMER_ID>  (1) 
00002F3200000001

>  <PUBCHEM_MMFF94_ENERGY>  (1) 
40.6364

>  <PUBCHEM_FEATURE_SELFOVERLAP>  (1) 
20.297

>  <PUBCHEM_SHAPE_FINGERPRINT>  (1) 
10857977 72 18411970360771478672
11062470 55 12757145788057567607
12032990 46 18341056237641978838
12897270 3 18408882958048716823
12932764 1 17203316810633490287
14325111 11 18410856559856255776
16945 1 18410575123360067046
20201158 50 18407760343718379467
21040471 1 18338516451654612932
21501925 9 18337098025714686274
23402655 69 18196074570311567245
23552423 10 18261396619782066821
2748010 2 18268148647732006094
5084963 1 18342459265585943072
528886 8 18339073792080084952
8809292 202 18115030826152494891

>  <PUBCHEM_SHAPE_MULTIPOLES>  (1) 
209.66
5.49
1.45
0.59
1.67
0.19
0
-1.09
0
0.07
0
-0.01
0
0

>  <PUBCHEM_SHAPE_SELFOVERLAP>  (1) 
435.763

>  <PUBCHEM_SHAPE_VOLUME>  (1) 
120

>  <PUBCHEM_COORDINATE_TYPE>  (1) 
2
5
10

$$$$
