12094
     RDKit          3D

 14 14  0  0  0  0  0  0  0  0999 V2000
   -2.6343    0.0004   -0.3700 O   0  0  0  0  0  0  0  0  0  0  0  0
    4.2795    1.0980   -0.4011 O   0  0  0  0  0  0  0  0  0  0  0  0
    4.2796   -1.0972   -0.4027 O   0  0  0  0  0  0  0  0  0  0  0  0
   -4.6257   -0.0011    0.8009 O   0  0  0  0  0  0  0  0  0  0  0  0
    3.6834    0.0003   -0.2816 N   0  0  0  0  0  0  0  0  0  0  0  0
   -0.4426   -0.0004    0.5536 C   0  0  0  0  0  0  0  0  0  0  0  0
   -1.9040   -0.0008    0.8506 C   0  0  0  0  0  0  0  0  0  0  0  0
    0.2408    1.2077    0.4159 C   0  0  0  0  0  0  0  0  0  0  0  0
    0.2409   -1.2083    0.4143 C   0  0  0  0  0  0  0  0  0  0  0  0
    2.2915    0.0000   -0.0006 C   0  0  0  0  0  0  0  0  0  0  0  0
    1.6078    1.2078    0.1387 C   0  0  0  0  0  0  0  0  0  0  0  0
    1.6080   -1.2082    0.1372 C   0  0  0  0  0  0  0  0  0  0  0  0
   -3.9960    0.0000   -0.2483 C   0  0  0  0  0  0  0  0  0  0  0  0
   -4.6288    0.0019   -1.6067 C   0  0  0  0  0  0  0  0  0  0  0  0
  1  7  1  0
  1 13  1  0
  2  5  1  0
  3  5  2  0
  4 13  2  0
  5 10  1  0
  6  7  1  0
  6  8  2  0
  6  9  1  0
  8 11  1  0
  9 12  2  0
 10 11  2  0
 10 12  1  0
 13 14  1  0
M  CHG  2   2  -1   5   1
M  END
>  <PUBCHEM_COMPOUND_CID>  (1) 
12094

>  <PUBCHEM_CONFORMER_RMSD>  (1) 
0.6

>  <PUBCHEM_CONFORMER_DIVERSEORDER>  (1) 
1
6
4
2
5
3

>  <PUBCHEM_MMFF94_PARTIAL_CHARGES>  (1) 
18
1 -0.43
10 0.13
11 -0.15
12 -0.15
13 0.66
14 0.06
17 0.15
18 0.15
19 0.15
2 -0.52
20 0.15
3 -0.52
4 -0.57
5 0.91
6 -0.14
7 0.42
8 -0.15
9 -0.15

>  <PUBCHEM_EFFECTIVE_ROTOR_COUNT>  (1) 
4

>  <PUBCHEM_PHARMACOPHORE_FEATURES>  (1) 
5
1 2 acceptor
1 2 anion
1 3 acceptor
1 4 acceptor
6 6 8 9 10 11 12 rings

>  <PUBCHEM_HEAVY_ATOM_COUNT>  (1) 
14

>  <PUBCHEM_ATOM_DEF_STEREO_COUNT>  (1) 
0

>  <PUBCHEM_ATOM_UDEF_STEREO_COUNT>  (1) 
0

>  <PUBCHEM_BOND_DEF_STEREO_COUNT>  (1) 
0

>  <PUBCHEM_BOND_UDEF_STEREO_COUNT>  (1) 
0

>  <PUBCHEM_ISOTOPIC_ATOM_COUNT>  (1) 
0

>  <PUBCHEM_COMPONENT_COUNT>  (1) 
1

>  <PUBCHEM_CACTVS_TAUTO_COUNT>  (1) 
1

>  <PUBCHEM_CONFORMER_ID>  (1) 
00002F3E00000001

>  <PUBCHEM_MMFF94_ENERGY>  (1) 
32.9463

>  <PUBCHEM_FEATURE_SELFOVERLAP>  (1) 
25.453

>  <PUBCHEM_SHAPE_FINGERPRINT>  (1) 
11401426 45 18412258454498501200
11471102 20 18409448094193297704
12236239 1 17775008977413843785
12251169 10 9583514335066008945
12500047 106 16732702778772102963
13675066 3 10807933756137378771
13690532 89 18343022168590188074
13760787 5 18412830174453374474
14251717 144 18342458123420197246
14576447 43 18059844100018634167
14911166 2 18410016546068377510
14943859 89 16877942758547600697
14993402 34 18131632296184736326
18186145 218 18408598189058976105
200 152 18060138734674575001
20645477 70 18409172078057282026
21119208 17 18130785663978946351
21256008 61 17917706924407072633
21293036 1 18409450292973856280
221490 88 18124875922129339979
22485316 2 14692572104660323221
231179 274 17385436622460647389
23402539 116 17561362859587381729
23402655 69 18410849928832978317
23557571 272 16877667842571526407
23559900 14 18339646737282182176
2748010 2 18050861206030949592
4047638 21 17313105258891650904
4072396 5 18187909674093213714
42 15 9871752403261431279

>  <PUBCHEM_SHAPE_MULTIPOLES>  (1) 
259.66
9.17
1.18
0.97
4.32
0
-0.17
0
-3.01
-1.04
0.05
1.05
0
0

>  <PUBCHEM_SHAPE_SELFOVERLAP>  (1) 
536.58

>  <PUBCHEM_SHAPE_VOLUME>  (1) 
149.4

>  <PUBCHEM_COORDINATE_TYPE>  (1) 
2
5
10

$$$$
