12090
     RDKit          3D

 11 11  0  0  0  0  0  0  0  0999 V2000
    3.1640    1.0973    0.0013 O   0  0  0  0  0  0  0  0  0  0  0  0
    3.1636   -1.0979    0.0005 O   0  0  0  0  0  0  0  0  0  0  0  0
    2.5555   -0.0002    0.0002 N   0  0  0  0  0  0  0  0  0  0  0  0
   -4.2449   -0.0007    0.0007 N   0  0  0  0  0  0  0  0  0  0  0  0
    1.1357    0.0000   -0.0012 C   0  0  0  0  0  0  0  0  0  0  0  0
    0.4383    1.2081   -0.0011 C   0  0  0  0  0  0  0  0  0  0  0  0
    0.4381   -1.2080   -0.0007 C   0  0  0  0  0  0  0  0  0  0  0  0
   -1.6541    0.0006    0.0001 C   0  0  0  0  0  0  0  0  0  0  0  0
   -0.9565    1.2084   -0.0004 C   0  0  0  0  0  0  0  0  0  0  0  0
   -0.9569   -1.2076   -0.0001 C   0  0  0  0  0  0  0  0  0  0  0  0
   -3.0829   -0.0001    0.0004 C   0  0  0  0  0  0  0  0  0  0  0  0
  1  3  1  0
  2  3  2  0
  3  5  1  0
  4 11  3  0
  5  6  2  0
  5  7  1  0
  6  9  1  0
  7 10  2  0
  8  9  2  0
  8 10  1  0
  8 11  1  0
M  CHG  2   1  -1   3   1
M  END
>  <PUBCHEM_COMPOUND_CID>  (1) 
12090

>  <PUBCHEM_CONFORMER_RMSD>  (1) 
0.4

>  <PUBCHEM_CONFORMER_DIVERSEORDER>  (1) 
1

>  <PUBCHEM_MMFF94_PARTIAL_CHARGES>  (1) 
15
1 -0.52
10 -0.15
11 0.48
12 0.15
13 0.15
14 0.15
15 0.15
2 -0.52
3 0.91
4 -0.56
5 0.13
6 -0.15
7 -0.15
8 0.07
9 -0.15

>  <PUBCHEM_EFFECTIVE_ROTOR_COUNT>  (1) 
1

>  <PUBCHEM_PHARMACOPHORE_FEATURES>  (1) 
5
1 1 acceptor
1 1 anion
1 2 acceptor
1 4 acceptor
6 5 6 7 8 9 10 rings

>  <PUBCHEM_HEAVY_ATOM_COUNT>  (1) 
11

>  <PUBCHEM_ATOM_DEF_STEREO_COUNT>  (1) 
0

>  <PUBCHEM_ATOM_UDEF_STEREO_COUNT>  (1) 
0

>  <PUBCHEM_BOND_DEF_STEREO_COUNT>  (1) 
0

>  <PUBCHEM_BOND_UDEF_STEREO_COUNT>  (1) 
0

>  <PUBCHEM_ISOTOPIC_ATOM_COUNT>  (1) 
0

>  <PUBCHEM_COMPONENT_COUNT>  (1) 
1

>  <PUBCHEM_CACTVS_TAUTO_COUNT>  (1) 
1

>  <PUBCHEM_CONFORMER_ID>  (1) 
00002F3A00000001

>  <PUBCHEM_MMFF94_ENERGY>  (1) 
26.6864

>  <PUBCHEM_FEATURE_SELFOVERLAP>  (1) 
25.453

>  <PUBCHEM_SHAPE_FINGERPRINT>  (1) 
10219947 1 18410858758953162997
11062470 55 17989207061992056121
11471102 20 18410288108202611829
12032990 46 18409455769199849763
14325111 11 18410575080552864353
14993402 34 18343582966764792909
16945 1 18410575089031892741
193761 8 17617940231928308079
21293036 1 18409165532479078517
23235685 24 18410851079498922697
23402539 116 18201708535941289773
23402655 69 18195509430294051197
23463225 33 18337107869642714826
23552423 10 18260550060696469302
2748010 2 18122345949904628311
369184 2 18411698790047355122
5084963 1 18271242725134418152
528886 8 18411976996464412811

>  <PUBCHEM_SHAPE_MULTIPOLES>  (1) 
204.67
5.46
1.34
0.58
1.51
0
0
0
0
-0.45
0
0.05
0
0

>  <PUBCHEM_SHAPE_SELFOVERLAP>  (1) 
430.976

>  <PUBCHEM_SHAPE_VOLUME>  (1) 
114.2

>  <PUBCHEM_COORDINATE_TYPE>  (1) 
2
5
10

$$$$
