12098
     RDKit          3D

  8  8  0  0  0  0  0  0  0  0999 V2000
    3.1924    0.0004    0.9211 I   0  0  0  0  0  0  0  0  0  0  0  0
    0.4904   -0.0003   -0.3956 C   0  0  0  0  0  0  0  0  0  0  0  0
   -0.1814    1.2078   -0.2084 C   0  0  0  0  0  0  0  0  0  0  0  0
   -0.1816   -1.2082   -0.2080 C   0  0  0  0  0  0  0  0  0  0  0  0
    1.9269   -0.0003   -0.7968 C   0  0  0  0  0  0  0  0  0  0  0  0
   -1.5249    1.2082    0.1666 C   0  0  0  0  0  0  0  0  0  0  0  0
   -1.5252   -1.2079    0.1669 C   0  0  0  0  0  0  0  0  0  0  0  0
   -2.1967    0.0003    0.3542 C   0  0  0  0  0  0  0  0  0  0  0  0
  1  5  1  0
  2  3  2  0
  2  4  1  0
  2  5  1  0
  3  6  1  0
  4  7  2  0
  6  8  2  0
  7  8  1  0
M  END
>  <PUBCHEM_COMPOUND_CID>  (1) 
12098

>  <PUBCHEM_CONFORMER_RMSD>  (1) 
0.4

>  <PUBCHEM_CONFORMER_DIVERSEORDER>  (1) 
1
2

>  <PUBCHEM_MMFF94_PARTIAL_CHARGES>  (1) 
13
1 -0.19
10 0.15
13 0.15
14 0.15
15 0.15
2 -0.14
3 -0.15
4 -0.15
5 0.33
6 -0.15
7 -0.15
8 -0.15
9 0.15

>  <PUBCHEM_EFFECTIVE_ROTOR_COUNT>  (1) 
1

>  <PUBCHEM_PHARMACOPHORE_FEATURES>  (1) 
2
1 1 hydrophobe
6 2 3 4 6 7 8 rings

>  <PUBCHEM_HEAVY_ATOM_COUNT>  (1) 
8

>  <PUBCHEM_ATOM_DEF_STEREO_COUNT>  (1) 
0

>  <PUBCHEM_ATOM_UDEF_STEREO_COUNT>  (1) 
0

>  <PUBCHEM_BOND_DEF_STEREO_COUNT>  (1) 
0

>  <PUBCHEM_BOND_UDEF_STEREO_COUNT>  (1) 
0

>  <PUBCHEM_ISOTOPIC_ATOM_COUNT>  (1) 
0

>  <PUBCHEM_COMPONENT_COUNT>  (1) 
1

>  <PUBCHEM_CACTVS_TAUTO_COUNT>  (1) 
1

>  <PUBCHEM_CONFORMER_ID>  (1) 
00002F4200000001

>  <PUBCHEM_MMFF94_ENERGY>  (1) 
16.893

>  <PUBCHEM_FEATURE_SELFOVERLAP>  (1) 
10.148

>  <PUBCHEM_SHAPE_FINGERPRINT>  (1) 
10857977 72 18342458179117349256
14390081 3 17632576020189574336
15310529 11 16515693276735823108
16945 1 18410582781381617007
20645464 45 17917709093792720994
20653085 51 14261364543525777064
20871998 184 18200877399693212774
21040471 1 18194133927370666893
23552423 10 17754184394081056756
2748010 2 18049456846135303805
29004967 10 16558763290468905134
369184 2 18412252939681358834
5084963 1 18199765673199019638

>  <PUBCHEM_SHAPE_MULTIPOLES>  (1) 
176.57
4.07
1.34
0.92
3.16
0
0.03
0
1.29
-0.61
0.01
0.49
0
0

>  <PUBCHEM_SHAPE_SELFOVERLAP>  (1) 
338.115

>  <PUBCHEM_SHAPE_VOLUME>  (1) 
112.1

>  <PUBCHEM_COORDINATE_TYPE>  (1) 
2
5
10

$$$$
