12099
     RDKit          3D

  9  9  0  0  0  0  0  0  0  0999 V2000
   -3.2118   -0.7045    0.9065 Br  0  0  0  0  0  0  0  0  0  0  0  0
   -0.8250    0.0782   -0.3746 C   0  0  0  0  0  0  0  0  0  0  0  0
    1.4737   -0.5467    0.0288 C   0  0  0  0  0  0  0  0  0  0  0  0
    0.1644   -0.9020   -0.2959 C   0  0  0  0  0  0  0  0  0  0  0  0
   -0.5050    1.4135   -0.1286 C   0  0  0  0  0  0  0  0  0  0  0  0
    1.7935    0.7886    0.2748 C   0  0  0  0  0  0  0  0  0  0  0  0
    0.8042    1.7687    0.1960 C   0  0  0  0  0  0  0  0  0  0  0  0
   -2.2254   -0.3011   -0.7210 C   0  0  0  0  0  0  0  0  0  0  0  0
    2.5316   -1.5947    0.1141 C   0  0  0  0  0  0  0  0  0  0  0  0
  1  8  1  0
  2  4  2  0
  2  5  1  0
  2  8  1  0
  3  4  1  0
  3  6  2  0
  3  9  1  0
  5  7  2  0
  6  7  1  0
M  END
>  <PUBCHEM_COMPOUND_CID>  (1) 
12099

>  <PUBCHEM_CONFORMER_RMSD>  (1) 
0.4

>  <PUBCHEM_CONFORMER_DIVERSEORDER>  (1) 
1
3
4
2

>  <PUBCHEM_MMFF94_PARTIAL_CHARGES>  (1) 
13
1 -0.23
10 0.15
11 0.15
12 0.15
13 0.15
2 -0.14
3 -0.14
4 -0.15
5 -0.15
6 -0.15
7 -0.15
8 0.37
9 0.14

>  <PUBCHEM_EFFECTIVE_ROTOR_COUNT>  (1) 
1

>  <PUBCHEM_PHARMACOPHORE_FEATURES>  (1) 
2
1 1 hydrophobe
6 2 3 4 5 6 7 rings

>  <PUBCHEM_HEAVY_ATOM_COUNT>  (1) 
9

>  <PUBCHEM_ATOM_DEF_STEREO_COUNT>  (1) 
0

>  <PUBCHEM_ATOM_UDEF_STEREO_COUNT>  (1) 
0

>  <PUBCHEM_BOND_DEF_STEREO_COUNT>  (1) 
0

>  <PUBCHEM_BOND_UDEF_STEREO_COUNT>  (1) 
0

>  <PUBCHEM_ISOTOPIC_ATOM_COUNT>  (1) 
0

>  <PUBCHEM_COMPONENT_COUNT>  (1) 
1

>  <PUBCHEM_CACTVS_TAUTO_COUNT>  (1) 
1

>  <PUBCHEM_CONFORMER_ID>  (1) 
00002F4300000001

>  <PUBCHEM_MMFF94_ENERGY>  (1) 
19.2312

>  <PUBCHEM_FEATURE_SELFOVERLAP>  (1) 
10.148

>  <PUBCHEM_SHAPE_FINGERPRINT>  (1) 
16945 1 18339634671811900724
20653091 64 18409174324060940201
20871998 22 18199478674889572358
21040471 1 17618774104108346356
23552423 10 18189896427000772982
2748010 2 18268414764127316236
29004967 10 18334853956689204849

>  <PUBCHEM_SHAPE_MULTIPOLES>  (1) 
191.16
4.03
1.72
0.84
2.46
0.32
-0.04
-1.79
-0.92
-0.97
-0.12
0.45
-0.07
0.22

>  <PUBCHEM_SHAPE_SELFOVERLAP>  (1) 
375.355

>  <PUBCHEM_SHAPE_VOLUME>  (1) 
116.6

>  <PUBCHEM_COORDINATE_TYPE>  (1) 
2
5
10

$$$$
