12108
     RDKit          3D

 11 11  0  0  0  0  0  0  0  0999 V2000
    4.3269    0.0230    0.5793 Cl  0  0  0  0  0  0  0  0  0  0  0  0
    0.7040   -0.0133   -0.9921 O   0  0  0  0  0  0  0  0  0  0  0  0
    1.4801    0.0040    1.2112 O   0  0  0  0  0  0  0  0  0  0  0  0
   -0.5708   -0.0059   -0.5153 C   0  0  0  0  0  0  0  0  0  0  0  0
   -1.2210    1.2057   -0.2815 C   0  0  0  0  0  0  0  0  0  0  0  0
   -1.2267   -1.2100   -0.2597 C   0  0  0  0  0  0  0  0  0  0  0  0
   -2.5272    1.2133    0.2081 C   0  0  0  0  0  0  0  0  0  0  0  0
   -2.5329   -1.2026    0.2298 C   0  0  0  0  0  0  0  0  0  0  0  0
   -3.1831    0.0092    0.4636 C   0  0  0  0  0  0  0  0  0  0  0  0
    1.6981   -0.0072    0.0074 C   0  0  0  0  0  0  0  0  0  0  0  0
    3.0525   -0.0163   -0.6507 C   0  0  0  0  0  0  0  0  0  0  0  0
  1 11  1  0
  2  4  1  0
  2 10  1  0
  3 10  2  0
  4  5  2  0
  4  6  1  0
  5  7  1  0
  6  8  2  0
  7  9  2  0
  8  9  1  0
 10 11  1  0
M  END
>  <PUBCHEM_COMPOUND_CID>  (1) 
12108

>  <PUBCHEM_CONFORMER_RMSD>  (1) 
0.6

>  <PUBCHEM_CONFORMER_DIVERSEORDER>  (1) 
1
16
20
4
5
19
14
17
15
11
10
2
8
9
7
6
21
12
13
18
3

>  <PUBCHEM_MMFF94_PARTIAL_CHARGES>  (1) 
16
1 -0.29
10 0.66
11 0.35
12 0.15
13 0.15
14 0.15
15 0.15
16 0.15
2 -0.23
3 -0.57
4 0.08
5 -0.15
6 -0.15
7 -0.15
8 -0.15
9 -0.15

>  <PUBCHEM_EFFECTIVE_ROTOR_COUNT>  (1) 
3

>  <PUBCHEM_PHARMACOPHORE_FEATURES>  (1) 
2
1 3 acceptor
6 4 5 6 7 8 9 rings

>  <PUBCHEM_HEAVY_ATOM_COUNT>  (1) 
11

>  <PUBCHEM_ATOM_DEF_STEREO_COUNT>  (1) 
0

>  <PUBCHEM_ATOM_UDEF_STEREO_COUNT>  (1) 
0

>  <PUBCHEM_BOND_DEF_STEREO_COUNT>  (1) 
0

>  <PUBCHEM_BOND_UDEF_STEREO_COUNT>  (1) 
0

>  <PUBCHEM_ISOTOPIC_ATOM_COUNT>  (1) 
0

>  <PUBCHEM_COMPONENT_COUNT>  (1) 
1

>  <PUBCHEM_CACTVS_TAUTO_COUNT>  (1) 
1

>  <PUBCHEM_CONFORMER_ID>  (1) 
00002F4C00000001

>  <PUBCHEM_MMFF94_ENERGY>  (1) 
28.6097

>  <PUBCHEM_FEATURE_SELFOVERLAP>  (1) 
10.148

>  <PUBCHEM_SHAPE_FINGERPRINT>  (1) 
10857977 72 18342177795320840001
11062470 55 11384113038101813752
124424 183 17775000155213478842
12932764 1 17632572756077771926
13024252 1 14923943440626901997
14325111 11 18412830153142081382
15219456 202 17988934314230726718
15775835 57 18336830797038930073
190213 19 17894912927650988502
19422 9 17894919537611022726
200 152 16153421774832531451
20279233 1 17775287153497078878
20645464 45 17917994979336860871
20871998 184 18272097148975736463
23402539 116 18272362084396893423
369184 2 17203608185926601647
75552 356 18408044030639813391

>  <PUBCHEM_SHAPE_MULTIPOLES>  (1) 
216.51
6.38
1.16
0.91
5.67
0
0.05
0.03
1.33
-1.03
-0.01
0.36
0
0.02

>  <PUBCHEM_SHAPE_SELFOVERLAP>  (1) 
435.645

>  <PUBCHEM_SHAPE_VOLUME>  (1) 
127.1

>  <PUBCHEM_COORDINATE_TYPE>  (1) 
2
5
10

$$$$
