12103
     RDKit          3D

  9  9  0  0  0  0  0  0  0  0999 V2000
   -3.1311   -0.7886   -0.8419 Cl  0  0  0  0  0  0  0  0  0  0  0  0
    2.7466   -1.6212   -0.1036 Cl  0  0  0  0  0  0  0  0  0  0  0  0
   -0.8602    0.0512    0.3403 C   0  0  0  0  0  0  0  0  0  0  0  0
    0.1725   -0.8840    0.2715 C   0  0  0  0  0  0  0  0  0  0  0  0
   -0.5936    1.4023    0.1180 C   0  0  0  0  0  0  0  0  0  0  0  0
   -2.2498   -0.3928    0.6507 C   0  0  0  0  0  0  0  0  0  0  0  0
    1.4718   -0.4681   -0.0197 C   0  0  0  0  0  0  0  0  0  0  0  0
    0.7056    1.8182   -0.1731 C   0  0  0  0  0  0  0  0  0  0  0  0
    1.7382    0.8830   -0.2420 C   0  0  0  0  0  0  0  0  0  0  0  0
  1  6  1  0
  2  7  1  0
  3  4  2  0
  3  5  1  0
  3  6  1  0
  4  7  1  0
  5  8  2  0
  7  9  2  0
  8  9  1  0
M  END
>  <PUBCHEM_COMPOUND_CID>  (1) 
12103

>  <PUBCHEM_CONFORMER_RMSD>  (1) 
0.4

>  <PUBCHEM_CONFORMER_DIVERSEORDER>  (1) 
1
4
3
2

>  <PUBCHEM_MMFF94_PARTIAL_CHARGES>  (1) 
13
1 -0.29
10 0.15
11 0.15
14 0.15
15 0.15
2 -0.18
3 -0.14
4 -0.15
5 -0.15
6 0.43
7 0.18
8 -0.15
9 -0.15

>  <PUBCHEM_EFFECTIVE_ROTOR_COUNT>  (1) 
1

>  <PUBCHEM_PHARMACOPHORE_FEATURES>  (1) 
1
6 3 4 5 7 8 9 rings

>  <PUBCHEM_HEAVY_ATOM_COUNT>  (1) 
9

>  <PUBCHEM_ATOM_DEF_STEREO_COUNT>  (1) 
0

>  <PUBCHEM_ATOM_UDEF_STEREO_COUNT>  (1) 
0

>  <PUBCHEM_BOND_DEF_STEREO_COUNT>  (1) 
0

>  <PUBCHEM_BOND_UDEF_STEREO_COUNT>  (1) 
0

>  <PUBCHEM_ISOTOPIC_ATOM_COUNT>  (1) 
0

>  <PUBCHEM_COMPONENT_COUNT>  (1) 
1

>  <PUBCHEM_CACTVS_TAUTO_COUNT>  (1) 
1

>  <PUBCHEM_CONFORMER_ID>  (1) 
00002F4700000001

>  <PUBCHEM_MMFF94_ENERGY>  (1) 
17.2219

>  <PUBCHEM_FEATURE_SELFOVERLAP>  (1) 
5.074

>  <PUBCHEM_SHAPE_FINGERPRINT>  (1) 
11206711 2 18115875100615801030
14128692 85 18343304751415195014
16945 1 18265623254201381888
20645477 70 18338508755427250855
20653085 51 13696167149503581294
20711985 344 17825099316354437816
20871998 184 17982454793460937462
21040471 1 17545328934917547408
23552423 10 18115319877535365618
241688 4 18263930934202773864
2748010 2 18336827494230451004
29004967 10 18262525899896886337
5084963 1 18272933791050276218

>  <PUBCHEM_SHAPE_MULTIPOLES>  (1) 
188.96
3.98
1.8
0.79
1.48
0.45
0.03
-2.22
0.72
-0.87
0.13
0.35
-0.08
-0.21

>  <PUBCHEM_SHAPE_SELFOVERLAP>  (1) 
369.293

>  <PUBCHEM_SHAPE_VOLUME>  (1) 
111.7

>  <PUBCHEM_COORDINATE_TYPE>  (1) 
2
5
10

$$$$
