12116
     RDKit          3D

 16 17  0  0  0  0  0  0  0  0999 V2000
    0.0071   -0.0728   -0.0929 S   0  0  0  0  0  0  0  0  0  0  0  0
   -0.0021    1.3407   -0.5842 O   0  0  0  0  0  0  0  0  0  0  0  0
   -1.3433   -0.2258    1.1198 C   0  0  0  0  0  0  0  0  0  0  0  0
    1.3405   -0.2257    1.1182 C   0  0  0  0  0  0  0  0  0  0  0  0
   -2.6851   -0.1442    0.4739 C   0  0  0  0  0  0  0  0  0  0  0  0
    2.6916   -0.1438    0.4691 C   0  0  0  0  0  0  0  0  0  0  0  0
   -3.3126   -1.3047    0.0206 C   0  0  0  0  0  0  0  0  0  0  0  0
    3.3106    1.0923    0.3230 C   0  0  0  0  0  0  0  0  0  0  0  0
   -3.3130    1.0923    0.3235 C   0  0  0  0  0  0  0  0  0  0  0  0
    3.3109   -1.3048    0.0208 C   0  0  0  0  0  0  0  0  0  0  0  0
   -4.5677   -1.2285   -0.5834 C   0  0  0  0  0  0  0  0  0  0  0  0
    4.5661    1.1686   -0.2800 C   0  0  0  0  0  0  0  0  0  0  0  0
   -4.5681    1.1684   -0.2803 C   0  0  0  0  0  0  0  0  0  0  0  0
    4.5665   -1.2284   -0.5821 C   0  0  0  0  0  0  0  0  0  0  0  0
   -5.1955    0.0079   -0.7337 C   0  0  0  0  0  0  0  0  0  0  0  0
    5.1941    0.0084   -0.7324 C   0  0  0  0  0  0  0  0  0  0  0  0
  1  2  2  0
  1  3  1  0
  1  4  1  0
  3  5  1  0
  4  6  1  0
  5  7  2  0
  5  9  1  0
  6  8  2  0
  6 10  1  0
  7 11  1  0
  8 12  1  0
  9 13  2  0
 10 14  2  0
 11 15  2  0
 12 16  2  0
 13 15  1  0
 14 16  1  0
M  END
>  <PUBCHEM_COMPOUND_CID>  (1) 
12116

>  <PUBCHEM_CONFORMER_RMSD>  (1) 
0.6

>  <PUBCHEM_CONFORMER_DIVERSEORDER>  (1) 
1
11
7
14
13
4
2
6
3
5
12
9
10
8

>  <PUBCHEM_MMFF94_PARTIAL_CHARGES>  (1) 
26
1 0.11
10 -0.15
11 -0.15
12 -0.15
13 -0.15
14 -0.15
15 -0.15
16 -0.15
2 -0.5
21 0.15
22 0.15
23 0.15
24 0.15
25 0.15
26 0.15
27 0.15
28 0.15
29 0.15
3 0.34
30 0.15
4 0.34
5 -0.14
6 -0.14
7 -0.15
8 -0.15
9 -0.15

>  <PUBCHEM_EFFECTIVE_ROTOR_COUNT>  (1) 
4

>  <PUBCHEM_PHARMACOPHORE_FEATURES>  (1) 
3
1 2 acceptor
6 5 7 9 11 13 15 rings
6 6 8 10 12 14 16 rings

>  <PUBCHEM_HEAVY_ATOM_COUNT>  (1) 
16

>  <PUBCHEM_ATOM_DEF_STEREO_COUNT>  (1) 
0

>  <PUBCHEM_ATOM_UDEF_STEREO_COUNT>  (1) 
0

>  <PUBCHEM_BOND_DEF_STEREO_COUNT>  (1) 
0

>  <PUBCHEM_BOND_UDEF_STEREO_COUNT>  (1) 
0

>  <PUBCHEM_ISOTOPIC_ATOM_COUNT>  (1) 
0

>  <PUBCHEM_COMPONENT_COUNT>  (1) 
1

>  <PUBCHEM_CACTVS_TAUTO_COUNT>  (1) 
1

>  <PUBCHEM_CONFORMER_ID>  (1) 
00002F5400000001

>  <PUBCHEM_MMFF94_ENERGY>  (1) 
34.1277

>  <PUBCHEM_FEATURE_SELFOVERLAP>  (1) 
15.223

>  <PUBCHEM_SHAPE_FINGERPRINT>  (1) 
10354089 29 10953460730677151238
10680689 15 18335425673066438491
11543360 7 18413388760688413802
12107183 9 17621041958298482819
12596602 18 9655575210131956030
13167823 11 18273213101400503351
13668630 136 16773801410821276191
14123238 8 12540699223395749755
14251718 22 18342738550197800446
14528608 73 18335985345817375028
14573314 32 18412262830737957381
15188451 53 11887659672730965861
15375358 24 17821732749405211482
17349148 13 15123792907057808189
17834072 33 18341612637442966284
17834076 25 16805041821905978970
17844677 252 18202569487906050929
17862501 102 11743836962963155107
17870717 6 18131075922322247423
18186145 218 16805044038140784776
18222031 100 15339114649933841257
18785283 64 9654701081541158286
200 152 17846498123286109657
20369508 70 17060333033603870050
20645477 56 13839984425931592387
20645477 70 18342459197441823582
22289505 5 18407757024099114812
22485316 2 18411418406013573114
22646028 1 15410895158346055267
23402539 116 18408038502753178964
23402655 69 18409733954468722274
23559900 14 18130779092309933177
2871803 45 18260549996445994226
2916195 48 10953745529325624678
29717793 49 17703796890395239156
300161 21 18259979375053130880
3004659 81 18339925918583320006
34797466 226 17988650747615726076
351380 3 15482953856216958575
42 15 10375874077891709954
4214541 1 18341895169171730673
465052 167 16487257711355445630
4990 188 18341898476475844630
542803 24 17603586326523337983
633830 44 17894631456726710602
77779 3 18413389834498763832
960060 61 18334864909298889054
9971528 1 18040716974367168284

>  <PUBCHEM_SHAPE_MULTIPOLES>  (1) 
327.25
13.15
1.43
0.95
0.02
0.02
0.11
0.41
-3.7
0
-0.15
0
0.03
0

>  <PUBCHEM_SHAPE_SELFOVERLAP>  (1) 
675.574

>  <PUBCHEM_SHAPE_VOLUME>  (1) 
187.2

>  <PUBCHEM_COORDINATE_TYPE>  (1) 
2
5
10

$$$$
