12119
     RDKit          3D

 10 10  0  0  0  0  0  0  0  0999 V2000
    3.6152    0.3450   -0.0076 O   0  0  0  0  0  0  0  0  0  0  0  0
   -1.8808   -0.5028    0.0098 N   0  0  0  0  0  0  0  0  0  0  0  0
   -0.4869   -0.2881    0.0057 C   0  0  0  0  0  0  0  0  0  0  0  0
   -2.8313    0.5658    0.0129 C   0  0  0  0  0  0  0  0  0  0  0  0
    0.0180    1.0121    0.0045 C   0  0  0  0  0  0  0  0  0  0  0  0
    0.3867   -1.3756    0.0025 C   0  0  0  0  0  0  0  0  0  0  0  0
   -4.2529    0.0441   -0.0225 C   0  0  0  0  0  0  0  0  0  0  0  0
    1.3966    1.2248   -0.0001 C   0  0  0  0  0  0  0  0  0  0  0  0
    1.7652   -1.1627   -0.0020 C   0  0  0  0  0  0  0  0  0  0  0  0
    2.2702    0.1374   -0.0033 C   0  0  0  0  0  0  0  0  0  0  0  0
  1 10  1  0
  2  3  1  0
  2  4  1  0
  3  5  2  0
  3  6  1  0
  4  7  1  0
  5  8  1  0
  6  9  2  0
  8 10  2  0
  9 10  1  0
M  END
>  <PUBCHEM_COMPOUND_CID>  (1) 
12119

>  <PUBCHEM_CONFORMER_RMSD>  (1) 
0.4

>  <PUBCHEM_CONFORMER_DIVERSEORDER>  (1) 
1
2
3

>  <PUBCHEM_MMFF94_PARTIAL_CHARGES>  (1) 
15
1 -0.53
10 0.08
13 0.4
14 0.15
15 0.15
19 0.15
2 -0.87
20 0.15
21 0.45
3 0.1
4 0.37
5 -0.15
6 -0.15
8 -0.15
9 -0.15

>  <PUBCHEM_EFFECTIVE_ROTOR_COUNT>  (1) 
2

>  <PUBCHEM_PHARMACOPHORE_FEATURES>  (1) 
4
1 1 donor
1 2 cation
1 2 donor
6 3 5 6 8 9 10 rings

>  <PUBCHEM_HEAVY_ATOM_COUNT>  (1) 
10

>  <PUBCHEM_ATOM_DEF_STEREO_COUNT>  (1) 
0

>  <PUBCHEM_ATOM_UDEF_STEREO_COUNT>  (1) 
0

>  <PUBCHEM_BOND_DEF_STEREO_COUNT>  (1) 
0

>  <PUBCHEM_BOND_UDEF_STEREO_COUNT>  (1) 
0

>  <PUBCHEM_ISOTOPIC_ATOM_COUNT>  (1) 
0

>  <PUBCHEM_COMPONENT_COUNT>  (1) 
1

>  <PUBCHEM_CACTVS_TAUTO_COUNT>  (1) 
2

>  <PUBCHEM_CONFORMER_ID>  (1) 
00002F5700000001

>  <PUBCHEM_MMFF94_ENERGY>  (1) 
28.7672

>  <PUBCHEM_FEATURE_SELFOVERLAP>  (1) 
20.297

>  <PUBCHEM_SHAPE_FINGERPRINT>  (1) 
10219947 1 18334860510714287965
11062470 55 15626224623842311441
11471102 20 18410288086685525365
12932764 1 16844995841450917729
13380535 76 18409730677113782955
14325111 11 18410855469097936993
16945 1 18410862061709219072
20201158 50 18334577927905098891
20645477 70 18267016172879404639
20871998 22 17983015540223230198
21040471 1 18266459995703812706
23235685 24 18409725179565732304
23402655 69 18341040831947722789
2748010 2 18050854608781906052
29004967 10 18260835886179476448
528886 8 18411695504249791202
53812653 166 18342170102907864592

>  <PUBCHEM_SHAPE_MULTIPOLES>  (1) 
194.94
5.74
1.28
0.6
4.53
0.11
0
-0.58
-0.04
-0.49
0
0.02
0
0

>  <PUBCHEM_SHAPE_SELFOVERLAP>  (1) 
395.436

>  <PUBCHEM_SHAPE_VOLUME>  (1) 
114.8

>  <PUBCHEM_COORDINATE_TYPE>  (1) 
2
5
10

$$$$
