12112
     RDKit          3D

 13 14  0  0  0  0  0  0  0  0999 V2000
    2.9877   -1.2283    0.4757 N   0  0  0  0  0  0  0  0  0  0  0  0
    0.0060    0.0355   -1.4514 C   0  0  0  0  0  0  0  0  0  0  0  0
   -1.2464    0.0133   -0.6416 C   0  0  0  0  0  0  0  0  0  0  0  0
    1.2743    0.0324   -0.6219 C   0  0  0  0  0  0  0  0  0  0  0  0
   -1.8414    1.2108   -0.2442 C   0  0  0  0  0  0  0  0  0  0  0  0
   -1.8225   -1.2048   -0.2812 C   0  0  0  0  0  0  0  0  0  0  0  0
    1.8414    1.2225   -0.2267 C   0  0  0  0  0  0  0  0  0  0  0  0
    1.8579   -1.1555   -0.2631 C   0  0  0  0  0  0  0  0  0  0  0  0
   -3.0124    1.1901    0.5134 C   0  0  0  0  0  0  0  0  0  0  0  0
   -2.9935   -1.2255    0.4763 C   0  0  0  0  0  0  0  0  0  0  0  0
   -3.5884   -0.0280    0.8736 C   0  0  0  0  0  0  0  0  0  0  0  0
    3.0044    1.1886    0.5346 C   0  0  0  0  0  0  0  0  0  0  0  0
    3.5329   -0.0512    0.8564 C   0  0  0  0  0  0  0  0  0  0  0  0
  1  8  2  0
  1 13  1  0
  2  3  1  0
  2  4  1  0
  3  5  2  0
  3  6  1  0
  4  7  2  0
  4  8  1  0
  5  9  1  0
  6 10  2  0
  7 12  1  0
  9 11  2  0
 10 11  1  0
 12 13  2  0
M  END
>  <PUBCHEM_COMPOUND_CID>  (1) 
12112

>  <PUBCHEM_CONFORMER_RMSD>  (1) 
0.6

>  <PUBCHEM_CONFORMER_DIVERSEORDER>  (1) 
1
4
3
2
5
6

>  <PUBCHEM_MMFF94_PARTIAL_CHARGES>  (1) 
22
1 -0.62
10 -0.15
11 -0.15
12 -0.15
13 0.16
16 0.15
17 0.15
18 0.15
19 0.15
2 0.29
20 0.15
21 0.15
22 0.15
23 0.15
24 0.15
3 -0.14
4 -0.14
5 -0.15
6 -0.15
7 -0.15
8 0.16
9 -0.15

>  <PUBCHEM_EFFECTIVE_ROTOR_COUNT>  (1) 
2

>  <PUBCHEM_PHARMACOPHORE_FEATURES>  (1) 
3
1 1 acceptor
6 1 4 7 8 12 13 rings
6 3 5 6 9 10 11 rings

>  <PUBCHEM_HEAVY_ATOM_COUNT>  (1) 
13

>  <PUBCHEM_ATOM_DEF_STEREO_COUNT>  (1) 
0

>  <PUBCHEM_ATOM_UDEF_STEREO_COUNT>  (1) 
0

>  <PUBCHEM_BOND_DEF_STEREO_COUNT>  (1) 
0

>  <PUBCHEM_BOND_UDEF_STEREO_COUNT>  (1) 
0

>  <PUBCHEM_ISOTOPIC_ATOM_COUNT>  (1) 
0

>  <PUBCHEM_COMPONENT_COUNT>  (1) 
1

>  <PUBCHEM_CACTVS_TAUTO_COUNT>  (1) 
1

>  <PUBCHEM_CONFORMER_ID>  (1) 
00002F5000000001

>  <PUBCHEM_MMFF94_ENERGY>  (1) 
34.048

>  <PUBCHEM_FEATURE_SELFOVERLAP>  (1) 
15.223

>  <PUBCHEM_SHAPE_FINGERPRINT>  (1) 
10498660 4 13038913179438204995
10799339 124 18410856533885816809
11031198 65 14836134251156278229
11127187 94 11891332067268657921
11471102 22 18407759252975664082
12251169 10 18411418422971772845
12382932 28 18413389830219731225
12696612 119 18410576218735217220
12932764 1 18411422816728611180
13296908 3 15719386261064195869
13581323 91 18333454239779696135
13693222 15 18334858350488136937
13705890 14 11458424631113852040
13764800 53 15625948693784677959
14144814 61 18410856563945319365
15375462 189 17822848676646094690
15653759 3 18335139765182461096
15775835 57 17418089948963148248
17804303 29 18264499381477041550
18186145 218 13110970824556621980
19049666 15 17979073786472972133
200 152 18199732774161177783
20279233 1 17603573132373411207
20281407 28 17022617550855415406
20361792 2 15719393944871620655
20528008 55 18411695500355607557
20645464 45 18131074814056979279
20653085 51 11095895873296066879
20671657 53 12757144663124230886
20711985 344 14852427862402368423
20871999 31 9583221818034699457
21065199 12 18411138026037128513
21501925 9 18187648050223281567
22169311 14 18410293566757813921
22445834 79 18260546697394334739
22802520 49 9079113371317707887
230 275 16415487025554535996
23402539 116 18342166757840569077
25 1 12319470908255462764
369184 2 18411983563854348357
5374978 207 18411987983481197601
81228 2 15720213003587759605

>  <PUBCHEM_SHAPE_MULTIPOLES>  (1) 
262.55
6.56
1.49
1.05
0.25
0.01
-0.14
0.07
2.67
-0.07
0.1
0.01
0
0

>  <PUBCHEM_SHAPE_SELFOVERLAP>  (1) 
563.621

>  <PUBCHEM_SHAPE_VOLUME>  (1) 
143.7

>  <PUBCHEM_COORDINATE_TYPE>  (1) 
2
5
10

$$$$
