12111
     RDKit          3D

 15 16  0  0  0  0  0  0  0  0999 V2000
   -4.7307    0.0004    1.4064 O   0  0  0  0  0  0  0  0  0  0  0  0
    4.7280   -0.0003    1.4064 O   0  0  0  0  0  0  0  0  0  0  0  0
   -0.0014    0.0000   -1.6701 C   0  0  0  0  0  0  0  0  0  0  0  0
   -1.2515    0.0001   -0.8573 C   0  0  0  0  0  0  0  0  0  0  0  0
    1.2693   -0.0001   -0.8440 C   0  0  0  0  0  0  0  0  0  0  0  0
   -1.8363    1.2080   -0.4771 C   0  0  0  0  0  0  0  0  0  0  0  0
    1.8336   -1.2080   -0.4770 C   0  0  0  0  0  0  0  0  0  0  0  0
   -1.8357   -1.2080   -0.4766 C   0  0  0  0  0  0  0  0  0  0  0  0
    1.8330    1.2080   -0.4766 C   0  0  0  0  0  0  0  0  0  0  0  0
   -3.0053    1.2077    0.2840 C   0  0  0  0  0  0  0  0  0  0  0  0
    3.0026   -1.2077    0.2841 C   0  0  0  0  0  0  0  0  0  0  0  0
   -3.0047   -1.2082    0.2843 C   0  0  0  0  0  0  0  0  0  0  0  0
    3.0020    1.2083    0.2844 C   0  0  0  0  0  0  0  0  0  0  0  0
   -3.5896   -0.0004    0.6647 C   0  0  0  0  0  0  0  0  0  0  0  0
    3.5868    0.0005    0.6647 C   0  0  0  0  0  0  0  0  0  0  0  0
  1 14  1  0
  2 15  1  0
  3  4  1  0
  3  5  1  0
  4  6  2  0
  4  8  1  0
  5  7  2  0
  5  9  1  0
  6 10  1  0
  7 11  1  0
  8 12  2  0
  9 13  2  0
 10 14  2  0
 11 15  2  0
 12 14  1  0
 13 15  1  0
M  END
>  <PUBCHEM_COMPOUND_CID>  (1) 
12111

>  <PUBCHEM_CONFORMER_RMSD>  (1) 
0.6

>  <PUBCHEM_CONFORMER_DIVERSEORDER>  (1) 
1
2
3

>  <PUBCHEM_MMFF94_PARTIAL_CHARGES>  (1) 
25
1 -0.53
10 -0.15
11 -0.15
12 -0.15
13 -0.15
14 0.08
15 0.08
18 0.15
19 0.15
2 -0.53
20 0.15
21 0.15
22 0.15
23 0.15
24 0.15
25 0.15
26 0.45
27 0.45
3 0.29
4 -0.14
5 -0.14
6 -0.15
7 -0.15
8 -0.15
9 -0.15

>  <PUBCHEM_EFFECTIVE_ROTOR_COUNT>  (1) 
2

>  <PUBCHEM_PHARMACOPHORE_FEATURES>  (1) 
4
1 1 donor
1 2 donor
6 4 6 8 10 12 14 rings
6 5 7 9 11 13 15 rings

>  <PUBCHEM_HEAVY_ATOM_COUNT>  (1) 
15

>  <PUBCHEM_ATOM_DEF_STEREO_COUNT>  (1) 
0

>  <PUBCHEM_ATOM_UDEF_STEREO_COUNT>  (1) 
0

>  <PUBCHEM_BOND_DEF_STEREO_COUNT>  (1) 
0

>  <PUBCHEM_BOND_UDEF_STEREO_COUNT>  (1) 
0

>  <PUBCHEM_ISOTOPIC_ATOM_COUNT>  (1) 
0

>  <PUBCHEM_COMPONENT_COUNT>  (1) 
1

>  <PUBCHEM_CACTVS_TAUTO_COUNT>  (1) 
3

>  <PUBCHEM_CONFORMER_ID>  (1) 
00002F4F00000001

>  <PUBCHEM_MMFF94_ENERGY>  (1) 
37.9396

>  <PUBCHEM_FEATURE_SELFOVERLAP>  (1) 
20.297

>  <PUBCHEM_SHAPE_FINGERPRINT>  (1) 
10366900 7 18339643450666830066
10498660 4 13470688118436858115
10799339 124 18410856533869985881
11046707 91 16153702098779014784
11132069 177 18273219698923619375
12251169 10 18410856568234999159
12363563 72 15502094154617393951
12382932 28 18413388730628923788
12507560 40 18270681965514162484
12633257 1 18410574019511189955
12696612 119 18410013268813418636
12707595 3 14490193829593228756
12892183 10 18338798914062254297
13296908 3 15719105885578014167
13581323 91 18259708886782098607
13693222 15 18187081788570513301
13705890 14 12468357934268186454
13764800 53 16200158728621927615
14576447 43 11746933192302821616
15239191 94 15864073160810919522
15375462 189 17822000991803960986
15653759 3 18334012770048434460
15775835 57 16200428061456820174
17804303 29 18191316982812228671
1813 80 16877950391110862822
18186145 218 13038914338583281421
19050596 39 18411138077571454467
19862831 5 9223229650098985485
200 152 18270098219698509023
20361792 2 15647054880141419511
20523700 14 10231753387857532009
20645476 183 11887949926531373069
20645477 70 13984952873806490811
20671657 53 13334733522884435838
20767249 442 15769779043633974547
20871999 31 8862947173652688547
21065199 12 18410856533869985993
21713013 43 11025807508799306009
21731228 192 18060416928038296110
22646028 28 15719111357366335971
22926399 37 13901911102957200251
231179 274 15195566805889965378
23402539 116 18342729724899883221
23403322 49 14273726335450509808
23500284 214 16559031605618367463
23557571 272 13038609821281367445
23559900 14 17915485855421858199
25 1 12175631701988013700
26918003 58 17894628167119190073
27216 239 17060048306899189467
4028521 119 12679465270264973355
42 15 18041002834310049121
4280585 95 8283161528352986304
465052 167 15068925074130631673
474 4 14476955713958409802
5374978 207 18408893944833704761
7097593 13 18411413986508316174
90316 7 18187654565900303109

>  <PUBCHEM_SHAPE_MULTIPOLES>  (1) 
296.95
8.26
1.41
1.24
0.03
0
-0.06
0
4.79
0
-0.05
0
0
0

>  <PUBCHEM_SHAPE_SELFOVERLAP>  (1) 
641.015

>  <PUBCHEM_SHAPE_VOLUME>  (1) 
163.5

>  <PUBCHEM_COORDINATE_TYPE>  (1) 
2
5
10

$$$$
