12123
     RDKit          3D

 11 11  0  0  0  0  0  0  0  0999 V2000
    3.8373   -1.4574   -0.0007 Br  0  0  0  0  0  0  0  0  0  0  0  0
   -2.8684    1.0559   -0.0021 O   0  0  0  0  0  0  0  0  0  0  0  0
   -1.3862   -0.7775    0.0001 N   0  0  0  0  0  0  0  0  0  0  0  0
   -0.1241   -0.1829    0.0000 C   0  0  0  0  0  0  0  0  0  0  0  0
    1.0226   -0.9771   -0.0001 C   0  0  0  0  0  0  0  0  0  0  0  0
   -0.0095    1.2073    0.0004 C   0  0  0  0  0  0  0  0  0  0  0  0
    2.2837   -0.3812    0.0000 C   0  0  0  0  0  0  0  0  0  0  0  0
    1.2516    1.8032    0.0006 C   0  0  0  0  0  0  0  0  0  0  0  0
    2.3982    1.0089    0.0003 C   0  0  0  0  0  0  0  0  0  0  0  0
   -2.6387   -0.1491    0.0007 C   0  0  0  0  0  0  0  0  0  0  0  0
   -3.7666   -1.1502    0.0007 C   0  0  0  0  0  0  0  0  0  0  0  0
  1  7  1  0
  2 10  2  0
  3  4  1  0
  3 10  1  0
  4  5  2  0
  4  6  1  0
  5  7  1  0
  6  8  2  0
  7  9  2  0
  8  9  1  0
 10 11  1  0
M  END
>  <PUBCHEM_COMPOUND_CID>  (1) 
12123

>  <PUBCHEM_CONFORMER_RMSD>  (1) 
0.4

>  <PUBCHEM_CONFORMER_DIVERSEORDER>  (1) 
1
3
4
2

>  <PUBCHEM_MMFF94_PARTIAL_CHARGES>  (1) 
16
1 -0.11
10 0.57
11 0.06
12 0.15
13 0.15
14 0.37
15 0.15
16 0.15
2 -0.57
3 -0.55
4 0.12
5 -0.15
6 -0.15
7 0.11
8 -0.15
9 -0.15

>  <PUBCHEM_EFFECTIVE_ROTOR_COUNT>  (1) 
2

>  <PUBCHEM_PHARMACOPHORE_FEATURES>  (1) 
4
1 1 hydrophobe
1 2 acceptor
1 3 donor
6 4 5 6 7 8 9 rings

>  <PUBCHEM_HEAVY_ATOM_COUNT>  (1) 
11

>  <PUBCHEM_ATOM_DEF_STEREO_COUNT>  (1) 
0

>  <PUBCHEM_ATOM_UDEF_STEREO_COUNT>  (1) 
0

>  <PUBCHEM_BOND_DEF_STEREO_COUNT>  (1) 
0

>  <PUBCHEM_BOND_UDEF_STEREO_COUNT>  (1) 
0

>  <PUBCHEM_ISOTOPIC_ATOM_COUNT>  (1) 
0

>  <PUBCHEM_COMPONENT_COUNT>  (1) 
1

>  <PUBCHEM_CACTVS_TAUTO_COUNT>  (1) 
2

>  <PUBCHEM_CONFORMER_ID>  (1) 
00002F5B00000001

>  <PUBCHEM_MMFF94_ENERGY>  (1) 
28.2925

>  <PUBCHEM_FEATURE_SELFOVERLAP>  (1) 
20.297

>  <PUBCHEM_SHAPE_FINGERPRINT>  (1) 
10130415 120 18335420136658421506
10219947 1 18272933816994198638
11543360 7 15792028791220395582
11769659 78 18412822490735945278
12032990 46 18411422778385394862
12932764 1 17560798900416807621
14144814 61 18411982481243066867
14252887 29 18202569445515605298
14325111 11 18410855494714863905
15442244 35 18412266103487303601
15477762 27 18338797930578248311
16945 1 18194401319181307780
18186145 218 17748823012196271527
20201158 50 18409166575929589799
20645477 70 18410569617608087487
20871998 22 18200319797322124182
21501925 9 18411408531952338034
23402655 69 18412256264371291525
23463225 33 18411138009179200798
23552423 10 18333733545645025924
2748010 2 18337660949861672836
7364860 26 18270680995310781720
8809292 202 18260272949195736491

>  <PUBCHEM_SHAPE_MULTIPOLES>  (1) 
221.47
6.25
1.74
0.61
2.13
0.39
0
-2.96
0
-0.69
0
-0.09
-0.02
0

>  <PUBCHEM_SHAPE_SELFOVERLAP>  (1) 
440.735

>  <PUBCHEM_SHAPE_VOLUME>  (1) 
134.5

>  <PUBCHEM_COORDINATE_TYPE>  (1) 
2
5
10

$$$$
