12125
     RDKit          3D

 12 12  0  0  0  0  0  0  0  0999 V2000
   -3.5281   -0.3107   -0.4399 O   0  0  0  0  0  0  0  0  0  0  0  0
   -2.3229   -2.0099    0.2525 O   0  0  0  0  0  0  0  0  0  0  0  0
   -2.4364   -0.8003   -0.0617 N   0  0  0  0  0  0  0  0  0  0  0  0
    3.7966   -1.1336   -1.0549 N   0  0  0  0  0  0  0  0  0  0  0  0
    1.0511    0.3446    0.5055 C   0  0  0  0  0  0  0  0  0  0  0  0
   -0.0703   -0.4815    0.4313 C   0  0  0  0  0  0  0  0  0  0  0  0
   -1.2943    0.0400    0.0125 C   0  0  0  0  0  0  0  0  0  0  0  0
    0.9486    1.6923    0.1607 C   0  0  0  0  0  0  0  0  0  0  0  0
    2.3604   -0.2128    0.9523 C   0  0  0  0  0  0  0  0  0  0  0  0
   -1.3968    1.3876   -0.3323 C   0  0  0  0  0  0  0  0  0  0  0  0
   -0.2753    2.2138   -0.2583 C   0  0  0  0  0  0  0  0  0  0  0  0
    3.1674   -0.7295   -0.1677 C   0  0  0  0  0  0  0  0  0  0  0  0
  1  3  1  0
  2  3  2  0
  3  7  1  0
  4 12  3  0
  5  6  2  0
  5  8  1  0
  5  9  1  0
  6  7  1  0
  7 10  2  0
  8 11  2  0
  9 12  1  0
 10 11  1  0
M  CHG  2   1  -1   3   1
M  END
>  <PUBCHEM_COMPOUND_CID>  (1) 
12125

>  <PUBCHEM_CONFORMER_RMSD>  (1) 
0.6

>  <PUBCHEM_CONFORMER_DIVERSEORDER>  (1) 
1
4
3
2

>  <PUBCHEM_MMFF94_PARTIAL_CHARGES>  (1) 
16
1 -0.52
10 -0.15
11 -0.15
12 0.36
13 0.15
14 0.15
17 0.15
18 0.15
2 -0.52
3 0.91
4 -0.56
5 -0.14
6 -0.15
7 0.13
8 -0.15
9 0.34

>  <PUBCHEM_EFFECTIVE_ROTOR_COUNT>  (1) 
2

>  <PUBCHEM_PHARMACOPHORE_FEATURES>  (1) 
5
1 1 acceptor
1 1 anion
1 2 acceptor
1 4 acceptor
6 5 6 7 8 10 11 rings

>  <PUBCHEM_HEAVY_ATOM_COUNT>  (1) 
12

>  <PUBCHEM_ATOM_DEF_STEREO_COUNT>  (1) 
0

>  <PUBCHEM_ATOM_UDEF_STEREO_COUNT>  (1) 
0

>  <PUBCHEM_BOND_DEF_STEREO_COUNT>  (1) 
0

>  <PUBCHEM_BOND_UDEF_STEREO_COUNT>  (1) 
0

>  <PUBCHEM_ISOTOPIC_ATOM_COUNT>  (1) 
0

>  <PUBCHEM_COMPONENT_COUNT>  (1) 
1

>  <PUBCHEM_CACTVS_TAUTO_COUNT>  (1) 
1

>  <PUBCHEM_CONFORMER_ID>  (1) 
00002F5D00000001

>  <PUBCHEM_MMFF94_ENERGY>  (1) 
29.3121

>  <PUBCHEM_FEATURE_SELFOVERLAP>  (1) 
25.453

>  <PUBCHEM_SHAPE_FINGERPRINT>  (1) 
10353120 184 18259978271283517489
10465860 71 18334867103821338596
11127187 94 18335702689360667798
11206711 2 18187354385892164189
12032990 46 18409731785352216091
12138202 97 18046903775534906572
12716758 59 18123183498818998752
14128692 85 18334861636164732476
14252887 29 18341612684740555842
161256 15 18338227275701697168
16945 1 18263068929728912505
17990270 104 18120369019450267555
20281407 28 18342459235785013466
20645477 70 18048868886888667255
20711985 344 18265892462735677520
20871998 22 18411697733448483712
20871999 31 18335703784646127436
21028194 46 8935009195501120992
21061003 4 16917067707770717370
22213442 358 18339081596315145612
228727 97 17749393620276822432
23552423 10 18041555961430814209
23557571 272 18342172225149411224
23559900 14 18268703906411882442
2748010 2 18190730019865245721
449060 23 18413386544538179166
7364860 26 18125720338263932504
8030462 33 17676488294352645808
81228 2 18336825277906215184

>  <PUBCHEM_SHAPE_MULTIPOLES>  (1) 
225.25
5.1
1.95
0.82
1.69
0.6
-0.01
-3.03
-1.24
-0.72
-0.13
0.51
-0.08
0.44

>  <PUBCHEM_SHAPE_SELFOVERLAP>  (1) 
468.922

>  <PUBCHEM_SHAPE_VOLUME>  (1) 
126.5

>  <PUBCHEM_COORDINATE_TYPE>  (1) 
2
5
10

$$$$
