12133
     RDKit          3D

 16 15  0  0  0  0  0  0  0  0999 V2000
   -0.0176    0.0079    0.1937 N   0  0  0  0  0  0  0  0  0  0  0  0
   -1.3498   -0.3479   -0.2803 C   0  0  0  0  0  0  0  0  0  0  0  0
    0.3466    1.3532   -0.2541 C   0  0  0  0  0  0  0  0  0  0  0  0
    0.9717   -0.9666   -0.2698 C   0  0  0  0  0  0  0  0  0  0  0  0
   -2.3853    0.6379    0.2582 C   0  0  0  0  0  0  0  0  0  0  0  0
    1.7430    1.7190    0.2461 C   0  0  0  0  0  0  0  0  0  0  0  0
    0.6286   -2.3605    0.2530 C   0  0  0  0  0  0  0  0  0  0  0  0
   -3.7949    0.2702   -0.2102 C   0  0  0  0  0  0  0  0  0  0  0  0
    2.1357    3.1313   -0.1930 C   0  0  0  0  0  0  0  0  0  0  0  0
    1.6629   -3.3922   -0.2025 C   0  0  0  0  0  0  0  0  0  0  0  0
   -4.8294    1.2746    0.2972 C   0  0  0  0  0  0  0  0  0  0  0  0
    3.5463    3.4877    0.2754 C   0  0  0  0  0  0  0  0  0  0  0  0
    1.3038   -4.7943    0.2889 C   0  0  0  0  0  0  0  0  0  0  0  0
   -6.2355    0.8941   -0.1384 C   0  0  0  0  0  0  0  0  0  0  0  0
    3.9272    4.9024   -0.1305 C   0  0  0  0  0  0  0  0  0  0  0  0
    2.3468   -5.8168   -0.1336 C   0  0  0  0  0  0  0  0  0  0  0  0
  1  2  1  0
  1  3  1  0
  1  4  1  0
  2  5  1  0
  3  6  1  0
  4  7  1  0
  5  8  1  0
  6  9  1  0
  7 10  1  0
  8 11  1  0
  9 12  1  0
 10 13  1  0
 11 14  1  0
 12 15  1  0
 13 16  1  0
M  END
>  <PUBCHEM_COMPOUND_CID>  (1) 
12133

>  <PUBCHEM_CONFORMER_RMSD>  (1) 
1

>  <PUBCHEM_CONFORMER_DIVERSEORDER>  (1) 
1
71
11
63
54
12
59
10
7
36
31
6
73
41
72
50
13
34
76
64
14
18
20
70
40
47
53
26
44
2
29
23
28
4
49
15
19
45
9
58
8
57
67
27
55
38
5
35
60
51
52
42
3
21
48
16
39
32
17
56
74
61
46
25
66
65
43
69
24
33
75
30
37
22
68
62

>  <PUBCHEM_MMFF94_PARTIAL_CHARGES>  (1) 
4
1 -0.81
2 0.27
3 0.27
4 0.27

>  <PUBCHEM_EFFECTIVE_ROTOR_COUNT>  (1) 
12

>  <PUBCHEM_PHARMACOPHORE_FEATURES>  (1) 
4
1 1 cation
1 14 hydrophobe
1 15 hydrophobe
1 16 hydrophobe

>  <PUBCHEM_HEAVY_ATOM_COUNT>  (1) 
16

>  <PUBCHEM_ATOM_DEF_STEREO_COUNT>  (1) 
0

>  <PUBCHEM_ATOM_UDEF_STEREO_COUNT>  (1) 
0

>  <PUBCHEM_BOND_DEF_STEREO_COUNT>  (1) 
0

>  <PUBCHEM_BOND_UDEF_STEREO_COUNT>  (1) 
0

>  <PUBCHEM_ISOTOPIC_ATOM_COUNT>  (1) 
0

>  <PUBCHEM_COMPONENT_COUNT>  (1) 
1

>  <PUBCHEM_CACTVS_TAUTO_COUNT>  (1) 
1

>  <PUBCHEM_CONFORMER_ID>  (1) 
00002F6500000001

>  <PUBCHEM_MMFF94_ENERGY>  (1) 
5.3898

>  <PUBCHEM_FEATURE_SELFOVERLAP>  (1) 
20.297

>  <PUBCHEM_SHAPE_FINGERPRINT>  (1) 
10411042 1 17834395623017373355
11056379 131 17256255264003154380
12532896 13 18196657521246917980
12788726 201 16606585148828644003
13955234 65 18410300177250513971
15042514 8 17185319184124689282
17539 30 17042595423597231223
17980427 26 18341324556759342341
20671657 53 18052539864055405523
21426921 1 17329429957375344764
23559900 14 18265327301754774505
23598288 3 17321275948815125900
3091708 16 9185935310901477512
4409770 3 17543339918594163623
59755656 520 18122620814916797004
77188 2 17978509736986817350
9981440 41 18265331901243028761

>  <PUBCHEM_SHAPE_MULTIPOLES>  (1) 
324.29
8.93
8.78
0.67
18.07
10.06
0
-10.1
0.01
-17.95
0.02
0.01
0
-0.01

>  <PUBCHEM_SHAPE_SELFOVERLAP>  (1) 
582.906

>  <PUBCHEM_SHAPE_VOLUME>  (1) 
211.4

>  <PUBCHEM_COORDINATE_TYPE>  (1) 
2
5
10

$$$$
