12149
     RDKit          3D

 10 10  0  0  0  0  0  0  0  0999 V2000
    3.6711    0.0027    1.2446 S   0  0  0  0  0  0  0  0  0  0  0  0
    1.9140   -0.0018   -0.9025 N   0  0  0  0  0  0  0  0  0  0  0  0
   -2.1241    0.0004    0.2091 C   0  0  0  0  0  0  0  0  0  0  0  0
   -1.4514    1.2080    0.0228 C   0  0  0  0  0  0  0  0  0  0  0  0
   -1.4519   -1.2080    0.0256 C   0  0  0  0  0  0  0  0  0  0  0  0
    0.5659   -0.0011   -0.5306 C   0  0  0  0  0  0  0  0  0  0  0  0
   -0.1065    1.2073   -0.3471 C   0  0  0  0  0  0  0  0  0  0  0  0
   -0.1069   -1.2088   -0.3442 C   0  0  0  0  0  0  0  0  0  0  0  0
   -3.5623    0.0015    0.6036 C   0  0  0  0  0  0  0  0  0  0  0  0
    2.6521   -0.0002    0.0187 C   0  0  0  0  0  0  0  0  0  0  0  0
  1 10  2  0
  2  6  1  0
  2 10  2  0
  3  4  2  0
  3  5  1  0
  3  9  1  0
  4  7  1  0
  5  8  2  0
  6  7  2  0
  6  8  1  0
M  END
>  <PUBCHEM_COMPOUND_CID>  (1) 
12149

>  <PUBCHEM_CONFORMER_RMSD>  (1) 
0.4

>  <PUBCHEM_CONFORMER_DIVERSEORDER>  (1) 
1
2
3

>  <PUBCHEM_MMFF94_PARTIAL_CHARGES>  (1) 
14
1 -0.27
10 0.57
11 0.15
12 0.15
13 0.15
14 0.15
2 -0.48
3 -0.14
4 -0.15
5 -0.15
6 0.18
7 -0.15
8 -0.15
9 0.14

>  <PUBCHEM_EFFECTIVE_ROTOR_COUNT>  (1) 
1

>  <PUBCHEM_PHARMACOPHORE_FEATURES>  (1) 
3
1 1 acceptor
1 2 acceptor
6 3 4 5 6 7 8 rings

>  <PUBCHEM_HEAVY_ATOM_COUNT>  (1) 
10

>  <PUBCHEM_ATOM_DEF_STEREO_COUNT>  (1) 
0

>  <PUBCHEM_ATOM_UDEF_STEREO_COUNT>  (1) 
0

>  <PUBCHEM_BOND_DEF_STEREO_COUNT>  (1) 
0

>  <PUBCHEM_BOND_UDEF_STEREO_COUNT>  (1) 
0

>  <PUBCHEM_ISOTOPIC_ATOM_COUNT>  (1) 
0

>  <PUBCHEM_COMPONENT_COUNT>  (1) 
1

>  <PUBCHEM_CACTVS_TAUTO_COUNT>  (1) 
1

>  <PUBCHEM_CONFORMER_ID>  (1) 
00002F7500000001

>  <PUBCHEM_MMFF94_ENERGY>  (1) 
23.8315

>  <PUBCHEM_FEATURE_SELFOVERLAP>  (1) 
15.227

>  <PUBCHEM_SHAPE_FINGERPRINT>  (1) 
10130415 120 18113341933189167569
10857977 72 18412829100711647889
11769659 78 16226334823308301939
12251169 10 18411130364311454888
12932764 1 17703791388410238366
15310529 11 16588030142421689437
16945 1 18410581686222978951
17846911 113 18272647935275475945
20645464 45 17846495933169358110
20653085 51 14045745954000950858
21040471 1 18266754497084249845
23402539 116 18341599422319194197
23402655 69 18195235634803372133
23552423 10 17681846433152136845
2748010 2 18049453547616251359
369184 2 18272643541592393234

>  <PUBCHEM_SHAPE_MULTIPOLES>  (1) 
204.66
5.4
1.2
0.95
2.15
0
-0.13
-0.01
-2.39
-0.46
0.09
0.54
0
0

>  <PUBCHEM_SHAPE_SELFOVERLAP>  (1) 
415.704

>  <PUBCHEM_SHAPE_VOLUME>  (1) 
121

>  <PUBCHEM_COORDINATE_TYPE>  (1) 
2
5
10

$$$$
