12141
     RDKit          3D

 11 11  0  0  0  0  0  0  0  0999 V2000
    1.5227   -0.2657   -0.0396 O   0  0  0  0  0  0  0  0  0  0  0  0
    3.7494    1.2574    0.7022 O   0  0  0  0  0  0  0  0  0  0  0  0
   -0.8200   -0.2748   -0.4496 C   0  0  0  0  0  0  0  0  0  0  0  0
    0.5249   -0.6384   -0.9822 C   0  0  0  0  0  0  0  0  0  0  0  0
    2.8252   -0.5929   -0.5035 C   0  0  0  0  0  0  0  0  0  0  0  0
   -1.5357   -1.1908    0.3213 C   0  0  0  0  0  0  0  0  0  0  0  0
   -1.3620    0.9814   -0.7220 C   0  0  0  0  0  0  0  0  0  0  0  0
    3.8438   -0.1515    0.5298 C   0  0  0  0  0  0  0  0  0  0  0  0
   -2.7934   -0.8509    0.8197 C   0  0  0  0  0  0  0  0  0  0  0  0
   -2.6196    1.3212   -0.2235 C   0  0  0  0  0  0  0  0  0  0  0  0
   -3.3353    0.4050    0.5473 C   0  0  0  0  0  0  0  0  0  0  0  0
  1  4  1  0
  1  5  1  0
  2  8  1  0
  3  4  1  0
  3  6  2  0
  3  7  1  0
  5  8  1  0
  6  9  1  0
  7 10  2  0
  9 11  2  0
 10 11  1  0
M  END
>  <PUBCHEM_COMPOUND_CID>  (1) 
12141

>  <PUBCHEM_CONFORMER_RMSD>  (1) 
0.6

>  <PUBCHEM_CONFORMER_DIVERSEORDER>  (1) 
1
12
6
3
11
4
10
7
2
5
8
9

>  <PUBCHEM_MMFF94_PARTIAL_CHARGES>  (1) 
17
1 -0.56
10 -0.15
11 -0.15
16 0.15
17 0.15
2 -0.68
20 0.15
21 0.15
22 0.15
23 0.4
3 -0.14
4 0.42
5 0.28
6 -0.15
7 -0.15
8 0.28
9 -0.15

>  <PUBCHEM_EFFECTIVE_ROTOR_COUNT>  (1) 
4

>  <PUBCHEM_PHARMACOPHORE_FEATURES>  (1) 
4
1 1 acceptor
1 2 acceptor
1 2 donor
6 3 6 7 9 10 11 rings

>  <PUBCHEM_HEAVY_ATOM_COUNT>  (1) 
11

>  <PUBCHEM_ATOM_DEF_STEREO_COUNT>  (1) 
0

>  <PUBCHEM_ATOM_UDEF_STEREO_COUNT>  (1) 
0

>  <PUBCHEM_BOND_DEF_STEREO_COUNT>  (1) 
0

>  <PUBCHEM_BOND_UDEF_STEREO_COUNT>  (1) 
0

>  <PUBCHEM_ISOTOPIC_ATOM_COUNT>  (1) 
0

>  <PUBCHEM_COMPONENT_COUNT>  (1) 
1

>  <PUBCHEM_CACTVS_TAUTO_COUNT>  (1) 
1

>  <PUBCHEM_CONFORMER_ID>  (1) 
00002F6D00000001

>  <PUBCHEM_MMFF94_ENERGY>  (1) 
23.3758

>  <PUBCHEM_FEATURE_SELFOVERLAP>  (1) 
20.301

>  <PUBCHEM_SHAPE_FINGERPRINT>  (1) 
10857977 72 18260839197752216461
122479 349 18341894030894828781
12251169 10 18186523219573346180
12897270 3 10879985843990290575
12932764 1 18343023276771040918
13024252 1 12324243854367661623
14993402 34 13758071866440266209
18186145 218 17131840850157952926
20281407 28 11602830094179874796
20361792 2 14707209932962704086
20528008 55 18408319982235827455
20645464 45 18341898463321924031
20871998 184 18338809999890440031
22485316 2 12973608849920501226
23402539 116 18408316684407865127
23403322 49 10737552913480278552
3086196 2 18187931745756425043
3248919 1 17749394766906769278
369184 2 18410858724720194167
90316 7 17386003923258631917
93112 12 10879991367713852586

>  <PUBCHEM_SHAPE_MULTIPOLES>  (1) 
214.64
6.85
1.27
0.95
5.87
0.17
-0.04
1.12
2.21
-0.51
0.07
0.12
-0.01
0.65

>  <PUBCHEM_SHAPE_SELFOVERLAP>  (1) 
429.871

>  <PUBCHEM_SHAPE_VOLUME>  (1) 
126.8

>  <PUBCHEM_COORDINATE_TYPE>  (1) 
2
5
10

$$$$
