12154
     RDKit          3D

 10 10  0  0  0  0  0  0  0  0999 V2000
    3.0996    0.4888   -1.1091 O   0  0  0  0  0  0  0  0  0  0  0  0
    1.0932    0.5034    0.8122 N   0  0  0  0  0  0  0  0  0  0  0  0
    2.0252   -0.4817    0.7238 N   0  0  0  0  0  0  0  0  0  0  0  0
   -0.2268    0.2400    0.3907 C   0  0  0  0  0  0  0  0  0  0  0  0
   -1.1186    1.2939    0.1923 C   0  0  0  0  0  0  0  0  0  0  0  0
   -0.6400   -1.0740    0.1715 C   0  0  0  0  0  0  0  0  0  0  0  0
   -2.4239    1.0338   -0.2253 C   0  0  0  0  0  0  0  0  0  0  0  0
   -1.9452   -1.3342   -0.2462 C   0  0  0  0  0  0  0  0  0  0  0  0
   -2.8371   -0.2802   -0.4446 C   0  0  0  0  0  0  0  0  0  0  0  0
    2.9735   -0.3899   -0.2653 C   0  0  0  0  0  0  0  0  0  0  0  0
  1 10  2  0
  2  3  1  0
  2  4  1  0
  3 10  1  0
  4  5  2  0
  4  6  1  0
  5  7  1  0
  6  8  2  0
  7  9  2  0
  8  9  1  0
M  END
>  <PUBCHEM_COMPOUND_CID>  (1) 
12154

>  <PUBCHEM_CONFORMER_RMSD>  (1) 
0.6

>  <PUBCHEM_CONFORMER_DIVERSEORDER>  (1) 
2
5
6
3
7
1
4

>  <PUBCHEM_MMFF94_PARTIAL_CHARGES>  (1) 
18
1 -0.57
10 0.57
11 0.15
12 0.15
13 0.4
14 0.15
15 0.15
16 0.15
17 0.37
18 0.06
2 -0.52
3 -0.41
4 0.1
5 -0.15
6 -0.15
7 -0.15
8 -0.15
9 -0.15

>  <PUBCHEM_EFFECTIVE_ROTOR_COUNT>  (1) 
3

>  <PUBCHEM_PHARMACOPHORE_FEATURES>  (1) 
4
1 1 acceptor
1 2 donor
1 3 donor
6 4 5 6 7 8 9 rings

>  <PUBCHEM_HEAVY_ATOM_COUNT>  (1) 
10

>  <PUBCHEM_ATOM_DEF_STEREO_COUNT>  (1) 
0

>  <PUBCHEM_ATOM_UDEF_STEREO_COUNT>  (1) 
0

>  <PUBCHEM_BOND_DEF_STEREO_COUNT>  (1) 
0

>  <PUBCHEM_BOND_UDEF_STEREO_COUNT>  (1) 
0

>  <PUBCHEM_ISOTOPIC_ATOM_COUNT>  (1) 
0

>  <PUBCHEM_COMPONENT_COUNT>  (1) 
1

>  <PUBCHEM_CACTVS_TAUTO_COUNT>  (1) 
2

>  <PUBCHEM_CONFORMER_ID>  (1) 
00002F7A00000002

>  <PUBCHEM_MMFF94_ENERGY>  (1) 
30.6069

>  <PUBCHEM_FEATURE_SELFOVERLAP>  (1) 
21.899

>  <PUBCHEM_SHAPE_FINGERPRINT>  (1) 
11206711 2 18339063939820773053
12716758 59 18271239435047142035
12897270 3 18410576214529621654
12932764 1 18412821391224161882
14390081 3 13334728025046630815
15310529 11 17167855336118961649
15775835 57 17822015285122877716
16945 1 18341883087523484259
20201158 50 17703509921970877094
20279233 1 17489298685828302894
20645464 45 17774135994618543370
20645476 183 18040713662562540071
20653085 51 16806434817465852861
21040471 1 18195793094975659865
23552423 10 18262227945183258865
2748010 2 18051675931320310211
29004967 10 16200144413158092587
3248919 1 17603860105034796522
369184 2 12319733665738271459
528716 315 18334868258951328198

>  <PUBCHEM_SHAPE_MULTIPOLES>  (1) 
189.96
4.8
1.29
0.85
2.97
0.04
0.06
0.08
1.33
-0.75
0
0.39
-0.05
-0.16

>  <PUBCHEM_SHAPE_SELFOVERLAP>  (1) 
388.411

>  <PUBCHEM_SHAPE_VOLUME>  (1) 
108.9

>  <PUBCHEM_COORDINATE_TYPE>  (1) 
2
5
10

$$$$
