12153
     RDKit          3D

 10 10  0  0  0  0  0  0  0  0999 V2000
    0.9072   -0.6788    0.0255 N   0  0  0  0  0  0  0  0  0  0  0  0
    1.9969    0.2672    0.0413 C   0  0  0  0  0  0  0  0  0  0  0  0
    3.3394   -0.4546   -0.0088 C   0  0  0  0  0  0  0  0  0  0  0  0
   -0.4297   -0.3130    0.0118 C   0  0  0  0  0  0  0  0  0  0  0  0
    4.5232    0.5022   -0.0397 C   0  0  0  0  0  0  0  0  0  0  0  0
   -0.8069    1.0426    0.0127 C   0  0  0  0  0  0  0  0  0  0  0  0
   -1.4446   -1.2876   -0.0042 C   0  0  0  0  0  0  0  0  0  0  0  0
   -2.1522    1.4110   -0.0019 C   0  0  0  0  0  0  0  0  0  0  0  0
   -2.7899   -0.9192   -0.0190 C   0  0  0  0  0  0  0  0  0  0  0  0
   -3.1436    0.4301   -0.0177 C   0  0  0  0  0  0  0  0  0  0  0  0
  1  2  1  0
  1  4  1  0
  2  3  1  0
  3  5  1  0
  4  6  2  0
  4  7  1  0
  6  8  1  0
  7  9  2  0
  8 10  2  0
  9 10  1  0
M  END
>  <PUBCHEM_COMPOUND_CID>  (1) 
12153

>  <PUBCHEM_CONFORMER_RMSD>  (1) 
0.6

>  <PUBCHEM_CONFORMER_DIVERSEORDER>  (1) 
1
5
6
4
2
7
3

>  <PUBCHEM_MMFF94_PARTIAL_CHARGES>  (1) 
14
1 -0.87
10 -0.15
15 0.4
19 0.15
2 0.37
20 0.15
21 0.15
22 0.15
23 0.15
4 0.1
6 -0.15
7 -0.15
8 -0.15
9 -0.15

>  <PUBCHEM_EFFECTIVE_ROTOR_COUNT>  (1) 
3

>  <PUBCHEM_PHARMACOPHORE_FEATURES>  (1) 
4
1 1 cation
1 1 donor
1 5 hydrophobe
6 4 6 7 8 9 10 rings

>  <PUBCHEM_HEAVY_ATOM_COUNT>  (1) 
10

>  <PUBCHEM_ATOM_DEF_STEREO_COUNT>  (1) 
0

>  <PUBCHEM_ATOM_UDEF_STEREO_COUNT>  (1) 
0

>  <PUBCHEM_BOND_DEF_STEREO_COUNT>  (1) 
0

>  <PUBCHEM_BOND_UDEF_STEREO_COUNT>  (1) 
0

>  <PUBCHEM_ISOTOPIC_ATOM_COUNT>  (1) 
0

>  <PUBCHEM_COMPONENT_COUNT>  (1) 
1

>  <PUBCHEM_CACTVS_TAUTO_COUNT>  (1) 
1

>  <PUBCHEM_CONFORMER_ID>  (1) 
00002F7900000001

>  <PUBCHEM_MMFF94_ENERGY>  (1) 
25.802

>  <PUBCHEM_FEATURE_SELFOVERLAP>  (1) 
20.297

>  <PUBCHEM_SHAPE_FINGERPRINT>  (1) 
11062470 55 15574712495374961750
12932764 1 17346305008308273118
13024252 1 16008750208477640049
14144814 61 18334574620827714770
14325111 11 18410573955466533674
15669948 3 18340477945865123958
15775835 57 18261957353648550976
190213 19 17531248357326301706
20201158 50 18131070420062868198
20645464 45 18060425702877579343
20645477 70 17346043260380260318
20871998 184 18200879577468472263
23402539 116 18342449357681921431
23552423 10 18116150146100354677
369184 2 16225765207665740081
6333449 129 18342173367051256839

>  <PUBCHEM_SHAPE_MULTIPOLES>  (1) 
200.81
6.9
1.3
0.61
7.78
0.08
0
0.63
-0.1
-0.84
0
-0.01
0.01
-0.01

>  <PUBCHEM_SHAPE_SELFOVERLAP>  (1) 
398.788

>  <PUBCHEM_SHAPE_VOLUME>  (1) 
119.4

>  <PUBCHEM_COORDINATE_TYPE>  (1) 
2
5
10

$$$$
