1216
     RDKit          3D

 12 11  0  0  1  0  0  0  0  0999 V2000
    3.2413   -0.0741    0.0767 P   0  0  0  0  0  0  0  0  0  0  0  0
    3.3186    1.4775   -0.3452 O   0  0  0  0  0  0  0  0  0  0  0  0
    4.2294   -0.8093   -0.9602 O   0  0  0  0  0  0  0  0  0  0  0  0
    3.4591   -0.3752    1.5180 O   0  0  0  0  0  0  0  0  0  0  0  0
   -3.5539   -1.5830    0.2488 O   0  0  0  0  0  0  0  0  0  0  0  0
   -4.2810    0.4044   -0.5652 O   0  0  0  0  0  0  0  0  0  0  0  0
   -2.0926    1.7257    0.2127 N   0  0  0  0  0  0  0  0  0  0  0  0
    0.4598    0.1272    0.1976 C   0  0  0  0  0  0  0  0  0  0  0  0
   -0.9073   -0.3551   -0.3003 C   0  0  0  0  0  0  0  0  0  0  0  0
    1.6098   -0.5614   -0.5274 C   0  0  0  0  0  0  0  0  0  0  0  0
   -2.0747    0.2824    0.4630 C   0  0  0  0  0  0  0  0  0  0  0  0
   -3.4087   -0.2590   -0.0185 C   0  0  0  0  0  0  0  0  0  0  0  0
  1  2  1  0
  1  3  1  0
  1  4  2  0
  1 10  1  0
  5 12  1  0
  6 12  2  0
  7 11  1  0
  8  9  1  0
  8 10  1  0
  9 11  1  0
 11 12  1  0
M  END
>  <PUBCHEM_COMPOUND_CID>  (1) 
1216

>  <PUBCHEM_CONFORMER_RMSD>  (1) 
0.6

>  <PUBCHEM_CONFORMER_DIVERSEORDER>  (1) 
1
48
42
2
37
49
3
52
35
9
47
39
41
24
43
44
5
33
51
17
11
50
32
31
19
16
25
36
29
14
30
38
27
23
15
28
6
46
10
7
4
34
40
45
21
18
26
13
8
20
12
22

>  <PUBCHEM_MMFF94_PARTIAL_CHARGES>  (1) 
14
1 1.24
11 0.33
12 0.66
2 -0.77
20 0.36
21 0.36
22 0.5
23 0.5
24 0.5
3 -0.77
4 -0.7
5 -0.65
6 -0.57
7 -0.99

>  <PUBCHEM_EFFECTIVE_ROTOR_COUNT>  (1) 
5

>  <PUBCHEM_PHARMACOPHORE_FEATURES>  (1) 
9
1 2 acceptor
1 3 acceptor
1 4 acceptor
1 5 acceptor
1 6 acceptor
1 7 cation
1 7 donor
3 5 6 12 anion
4 1 2 3 4 anion

>  <PUBCHEM_HEAVY_ATOM_COUNT>  (1) 
12

>  <PUBCHEM_ATOM_DEF_STEREO_COUNT>  (1) 
0

>  <PUBCHEM_ATOM_UDEF_STEREO_COUNT>  (1) 
1

>  <PUBCHEM_BOND_DEF_STEREO_COUNT>  (1) 
0

>  <PUBCHEM_BOND_UDEF_STEREO_COUNT>  (1) 
0

>  <PUBCHEM_ISOTOPIC_ATOM_COUNT>  (1) 
0

>  <PUBCHEM_COMPONENT_COUNT>  (1) 
1

>  <PUBCHEM_CACTVS_TAUTO_COUNT>  (1) 
1

>  <PUBCHEM_CONFORMER_ID>  (1) 
000004C000000001

>  <PUBCHEM_MMFF94_ENERGY>  (1) 
-22.9035

>  <PUBCHEM_FEATURE_SELFOVERLAP>  (1) 
45.767

>  <PUBCHEM_SHAPE_FINGERPRINT>  (1) 
11062470 55 14345797149313346038
11987891 27 17603860122009132051
12162725 195 18409732846103714560
12932764 1 17603583019725548270
14123238 8 12535622773894293542
14325111 11 18411984658601536294
177051 138 18413672409219288710
17834072 33 18334300907226049918
17834076 25 15864074269002211094
18186145 218 18186238433171627444
190213 19 18273777150865337882
1986462 14 18342746165248688972
20645477 70 17131273437422398655
22485316 2 17749103404783214315
23048698 100 17676205766993071744
23402539 116 18409720777066109071
23557571 272 18130234744044870157
23559900 14 18341614789580544078

>  <PUBCHEM_SHAPE_MULTIPOLES>  (1) 
216.48
8.82
1.23
0.89
0.54
0.27
0.18
-0.8
-0.46
-0.38
-0.04
0.71
-0.09
0.14

>  <PUBCHEM_SHAPE_SELFOVERLAP>  (1) 
394.067

>  <PUBCHEM_SHAPE_VOLUME>  (1) 
137.8

>  <PUBCHEM_COORDINATE_TYPE>  (1) 
2
5
10

$$$$
