12165
     RDKit          3D

  9  9  0  0  0  0  0  0  0  0999 V2000
    2.3761   -0.4196    0.1852 N   0  0  0  0  0  0  0  0  0  0  0  0
    0.9787   -0.2435    0.1122 C   0  0  0  0  0  0  0  0  0  0  0  0
   -1.7854    0.1051   -0.0327 C   0  0  0  0  0  0  0  0  0  0  0  0
    0.4347    1.0406    0.1459 C   0  0  0  0  0  0  0  0  0  0  0  0
    0.1404   -1.3534    0.0060 C   0  0  0  0  0  0  0  0  0  0  0  0
   -0.9473    1.2149    0.0735 C   0  0  0  0  0  0  0  0  0  0  0  0
   -1.2417   -1.1790   -0.0664 C   0  0  0  0  0  0  0  0  0  0  0  0
   -3.2631    0.2914   -0.1090 C   0  0  0  0  0  0  0  0  0  0  0  0
    3.3076    0.5436   -0.3147 C   0  0  0  0  0  0  0  0  0  0  0  0
  1  2  1  0
  1  9  1  0
  2  4  2  0
  2  5  1  0
  3  6  2  0
  3  7  1  0
  3  8  1  0
  4  6  1  0
  5  7  2  0
M  END
>  <PUBCHEM_COMPOUND_CID>  (1) 
12165

>  <PUBCHEM_CONFORMER_RMSD>  (1) 
0.4

>  <PUBCHEM_CONFORMER_DIVERSEORDER>  (1) 
1
2

>  <PUBCHEM_MMFF94_PARTIAL_CHARGES>  (1) 
14
1 -0.87
10 0.15
11 0.15
12 0.15
13 0.15
14 0.4
2 0.1
3 -0.14
4 -0.15
5 -0.15
6 -0.15
7 -0.15
8 0.14
9 0.37

>  <PUBCHEM_EFFECTIVE_ROTOR_COUNT>  (1) 
1

>  <PUBCHEM_PHARMACOPHORE_FEATURES>  (1) 
3
1 1 cation
1 1 donor
6 2 3 4 5 6 7 rings

>  <PUBCHEM_HEAVY_ATOM_COUNT>  (1) 
9

>  <PUBCHEM_ATOM_DEF_STEREO_COUNT>  (1) 
0

>  <PUBCHEM_ATOM_UDEF_STEREO_COUNT>  (1) 
0

>  <PUBCHEM_BOND_DEF_STEREO_COUNT>  (1) 
0

>  <PUBCHEM_BOND_UDEF_STEREO_COUNT>  (1) 
0

>  <PUBCHEM_ISOTOPIC_ATOM_COUNT>  (1) 
0

>  <PUBCHEM_COMPONENT_COUNT>  (1) 
1

>  <PUBCHEM_CACTVS_TAUTO_COUNT>  (1) 
1

>  <PUBCHEM_CONFORMER_ID>  (1) 
00002F8500000001

>  <PUBCHEM_MMFF94_ENERGY>  (1) 
32.2151

>  <PUBCHEM_FEATURE_SELFOVERLAP>  (1) 
15.223

>  <PUBCHEM_SHAPE_FINGERPRINT>  (1) 
11062470 55 17458345225803541125
12897270 3 18412265030024905012
14325111 11 18410293592506512069
15310529 11 16950271893223768657
16714656 1 18411699885074118038
16945 1 18413665807669841073
193761 8 17690278639523257849
21040471 1 18411695452699595091
21293036 1 18411133653981993117
23235685 24 18411414003619275693
23402655 69 18196353842307704213
23552423 10 18045217391133446284
2748010 2 18124028202642384521
29004967 10 18187090520460533225
369184 2 15791727516433504608
5084963 1 18272086041836374168
528886 8 18411414024993866043

>  <PUBCHEM_SHAPE_MULTIPOLES>  (1) 
180.23
4.33
1.33
0.63
1.17
0.13
0.01
-0.73
0.42
-0.14
-0.02
0.02
-0.01
-0.08

>  <PUBCHEM_SHAPE_SELFOVERLAP>  (1) 
366.043

>  <PUBCHEM_SHAPE_VOLUME>  (1) 
106.1

>  <PUBCHEM_COORDINATE_TYPE>  (1) 
2
5
10

$$$$
