12166
     RDKit          3D

  9  9  0  0  0  0  0  0  0  0999 V2000
    3.0088    0.0009    0.6891 O   0  0  0  0  0  0  0  0  0  0  0  0
    2.3905   -0.0001   -0.3858 N   0  0  0  0  0  0  0  0  0  0  0  0
   -1.7482    0.0000    0.0620 C   0  0  0  0  0  0  0  0  0  0  0  0
   -1.0547    1.2079   -0.0130 C   0  0  0  0  0  0  0  0  0  0  0  0
   -1.0550   -1.2081   -0.0126 C   0  0  0  0  0  0  0  0  0  0  0  0
    0.3321    1.2076   -0.1627 C   0  0  0  0  0  0  0  0  0  0  0  0
    0.3319   -1.2084   -0.1622 C   0  0  0  0  0  0  0  0  0  0  0  0
    1.0255   -0.0004   -0.2373 C   0  0  0  0  0  0  0  0  0  0  0  0
   -3.2309    0.0007    0.2224 C   0  0  0  0  0  0  0  0  0  0  0  0
  1  2  2  0
  2  8  1  0
  3  4  2  0
  3  5  1  0
  3  9  1  0
  4  6  1  0
  5  7  2  0
  6  8  2  0
  7  8  1  0
M  END
>  <PUBCHEM_COMPOUND_CID>  (1) 
12166

>  <PUBCHEM_CONFORMER_RMSD>  (1) 
0.4

>  <PUBCHEM_CONFORMER_DIVERSEORDER>  (1) 
1
2

>  <PUBCHEM_MMFF94_PARTIAL_CHARGES>  (1) 
13
1 -0.16
10 0.15
11 0.15
12 0.15
13 0.15
2 -0.14
3 -0.14
4 -0.15
5 -0.15
6 -0.15
7 -0.15
8 0.3
9 0.14

>  <PUBCHEM_EFFECTIVE_ROTOR_COUNT>  (1) 
1

>  <PUBCHEM_PHARMACOPHORE_FEATURES>  (1) 
1
6 3 4 5 6 7 8 rings

>  <PUBCHEM_HEAVY_ATOM_COUNT>  (1) 
9

>  <PUBCHEM_ATOM_DEF_STEREO_COUNT>  (1) 
0

>  <PUBCHEM_ATOM_UDEF_STEREO_COUNT>  (1) 
0

>  <PUBCHEM_BOND_DEF_STEREO_COUNT>  (1) 
0

>  <PUBCHEM_BOND_UDEF_STEREO_COUNT>  (1) 
0

>  <PUBCHEM_ISOTOPIC_ATOM_COUNT>  (1) 
0

>  <PUBCHEM_COMPONENT_COUNT>  (1) 
1

>  <PUBCHEM_CACTVS_TAUTO_COUNT>  (1) 
1

>  <PUBCHEM_CONFORMER_ID>  (1) 
00002F8600000001

>  <PUBCHEM_MMFF94_ENERGY>  (1) 
22.2347

>  <PUBCHEM_FEATURE_SELFOVERLAP>  (1) 
5.074

>  <PUBCHEM_SHAPE_FINGERPRINT>  (1) 
10857977 72 18411132558612377825
14325111 11 18411420587672297661
15310529 11 16660362601497503076
16945 1 18410580586674427791
193761 8 17617660951674591485
21040471 1 18339086986114012775
23235685 24 18411980256434170173
23402655 69 18195510512625900757
23552423 10 17899418880662007004
2748010 2 18122068593917592831
29004967 10 18334586728224406169
369184 2 18412255138636055546
5084963 1 18343027653020617520

>  <PUBCHEM_SHAPE_MULTIPOLES>  (1) 
174.37
3.85
1.29
0.67
0.23
0
-0.02
0
-0.61
-0.19
0.06
0.11
0
0

>  <PUBCHEM_SHAPE_SELFOVERLAP>  (1) 
361.479

>  <PUBCHEM_SHAPE_VOLUME>  (1) 
101

>  <PUBCHEM_COORDINATE_TYPE>  (1) 
2
5
10

$$$$
