12167
     RDKit          3D

  9  9  0  0  0  0  0  0  0  0999 V2000
    3.4389   -0.3539    0.0001 Cl  0  0  0  0  0  0  0  0  0  0  0  0
   -2.3725    0.4850    0.0000 O   0  0  0  0  0  0  0  0  0  0  0  0
   -1.0255    0.2906   -0.0001 C   0  0  0  0  0  0  0  0  0  0  0  0
   -0.5079   -1.0046   -0.0001 C   0  0  0  0  0  0  0  0  0  0  0  0
   -0.1626    1.3867    0.0000 C   0  0  0  0  0  0  0  0  0  0  0  0
    0.8727   -1.2038    0.0000 C   0  0  0  0  0  0  0  0  0  0  0  0
    1.2180    1.1875    0.0000 C   0  0  0  0  0  0  0  0  0  0  0  0
    1.7357   -0.1079    0.0000 C   0  0  0  0  0  0  0  0  0  0  0  0
   -3.1968   -0.6796    0.0001 C   0  0  0  0  0  0  0  0  0  0  0  0
  1  8  1  0
  2  3  1  0
  2  9  1  0
  3  4  2  0
  3  5  1  0
  4  6  1  0
  5  7  2  0
  6  8  2  0
  7  8  1  0
M  END
>  <PUBCHEM_COMPOUND_CID>  (1) 
12167

>  <PUBCHEM_CONFORMER_RMSD>  (1) 
0.4

>  <PUBCHEM_CONFORMER_DIVERSEORDER>  (1) 
1

>  <PUBCHEM_MMFF94_PARTIAL_CHARGES>  (1) 
13
1 -0.18
10 0.15
11 0.15
12 0.15
13 0.15
2 -0.36
3 0.08
4 -0.15
5 -0.15
6 -0.15
7 -0.15
8 0.18
9 0.28

>  <PUBCHEM_EFFECTIVE_ROTOR_COUNT>  (1) 
1

>  <PUBCHEM_PHARMACOPHORE_FEATURES>  (1) 
2
1 2 acceptor
6 3 4 5 6 7 8 rings

>  <PUBCHEM_HEAVY_ATOM_COUNT>  (1) 
9

>  <PUBCHEM_ATOM_DEF_STEREO_COUNT>  (1) 
0

>  <PUBCHEM_ATOM_UDEF_STEREO_COUNT>  (1) 
0

>  <PUBCHEM_BOND_DEF_STEREO_COUNT>  (1) 
0

>  <PUBCHEM_BOND_UDEF_STEREO_COUNT>  (1) 
0

>  <PUBCHEM_ISOTOPIC_ATOM_COUNT>  (1) 
0

>  <PUBCHEM_COMPONENT_COUNT>  (1) 
1

>  <PUBCHEM_CACTVS_TAUTO_COUNT>  (1) 
1

>  <PUBCHEM_CONFORMER_ID>  (1) 
00002F8700000001

>  <PUBCHEM_MMFF94_ENERGY>  (1) 
28.3822

>  <PUBCHEM_FEATURE_SELFOVERLAP>  (1) 
10.148

>  <PUBCHEM_SHAPE_FINGERPRINT>  (1) 
10219947 1 18343022198428060326
10857977 72 18411408510192515626
11062470 55 12396298162128042415
12032990 46 18411426106800478390
14128692 85 18343018938663849359
14325111 11 18410856576861999680
16945 1 18410575076110080582
193761 8 17617940227533159462
21040471 1 18194401323333837284
21293036 1 18335426785299366292
23235685 24 18410851057992411712
23402655 69 18195226838441318237
23552423 10 17972606485149241290
2748010 2 18121782991334937638
29004967 10 18409170991250616985
5084963 1 18412825797887085097

>  <PUBCHEM_SHAPE_MULTIPOLES>  (1) 
181.22
4.43
1.37
0.61
0.21
0.17
0
-0.95
0
-0.05
0
-0.04
-0.01
0

>  <PUBCHEM_SHAPE_SELFOVERLAP>  (1) 
363.447

>  <PUBCHEM_SHAPE_VOLUME>  (1) 
108.7

>  <PUBCHEM_COORDINATE_TYPE>  (1) 
2
5
10

$$$$
