12170
     RDKit          3D

 10 10  0  0  0  0  0  0  0  0999 V2000
   -1.4461    0.7698   -0.6789 O   0  0  0  0  0  0  0  0  0  0  0  0
    1.2180    0.2534    0.1812 O   0  0  0  0  0  0  0  0  0  0  0  0
    3.0681   -0.9662   -0.4717 O   0  0  0  0  0  0  0  0  0  0  0  0
   -1.0701   -0.3760   -0.0829 C   0  0  0  0  0  0  0  0  0  0  0  0
    0.3571   -0.7762   -0.3156 C   0  0  0  0  0  0  0  0  0  0  0  0
   -2.0725   -0.9521    0.6225 C   0  0  0  0  0  0  0  0  0  0  0  0
   -3.1837   -0.0914    0.4571 C   0  0  0  0  0  0  0  0  0  0  0  0
   -2.7516    0.9409   -0.3426 C   0  0  0  0  0  0  0  0  0  0  0  0
    2.5537    0.0215    0.0350 C   0  0  0  0  0  0  0  0  0  0  0  0
    3.3271    1.1763    0.5958 C   0  0  0  0  0  0  0  0  0  0  0  0
  1  4  1  0
  1  8  1  0
  2  5  1  0
  2  9  1  0
  3  9  2  0
  4  5  1  0
  4  6  2  0
  6  7  1  0
  7  8  2  0
  9 10  1  0
M  END
>  <PUBCHEM_COMPOUND_CID>  (1) 
12170

>  <PUBCHEM_CONFORMER_RMSD>  (1) 
0.6

>  <PUBCHEM_CONFORMER_DIVERSEORDER>  (1) 
1
8
11
3
10
6
2
9
4
12
7
5

>  <PUBCHEM_MMFF94_PARTIAL_CHARGES>  (1) 
13
1 -0.28
10 0.06
13 0.15
14 0.15
15 0.15
2 -0.43
3 -0.57
4 -0.04
5 0.46
6 -0.15
7 -0.15
8 -0.01
9 0.66

>  <PUBCHEM_EFFECTIVE_ROTOR_COUNT>  (1) 
3

>  <PUBCHEM_PHARMACOPHORE_FEATURES>  (1) 
3
1 1 acceptor
1 3 acceptor
5 1 4 6 7 8 rings

>  <PUBCHEM_HEAVY_ATOM_COUNT>  (1) 
10

>  <PUBCHEM_ATOM_DEF_STEREO_COUNT>  (1) 
0

>  <PUBCHEM_ATOM_UDEF_STEREO_COUNT>  (1) 
0

>  <PUBCHEM_BOND_DEF_STEREO_COUNT>  (1) 
0

>  <PUBCHEM_BOND_UDEF_STEREO_COUNT>  (1) 
0

>  <PUBCHEM_ISOTOPIC_ATOM_COUNT>  (1) 
0

>  <PUBCHEM_COMPONENT_COUNT>  (1) 
1

>  <PUBCHEM_CACTVS_TAUTO_COUNT>  (1) 
1

>  <PUBCHEM_CONFORMER_ID>  (1) 
00002F8A00000001

>  <PUBCHEM_MMFF94_ENERGY>  (1) 
6.3972

>  <PUBCHEM_FEATURE_SELFOVERLAP>  (1) 
15.223

>  <PUBCHEM_SHAPE_FINGERPRINT>  (1) 
10608611 8 18410290294024727084
10857977 72 18040155149431180617
11062470 55 10881404240018472535
12932764 1 18407759226931852358
14325111 11 18413107268600463862
14390081 3 18410570673826708929
20279233 1 18408882940752958954
20645464 45 18409446990096662787
20715346 28 18410013251591117182
20871998 184 18265906924318272611
3248919 1 16877662374556055522
369184 2 18342457045414859515

>  <PUBCHEM_SHAPE_MULTIPOLES>  (1) 
188.19
6.07
1.14
0.77
2.55
0.07
0.03
1.04
0.68
0.17
-0.01
-0.08
0.02
0.66

>  <PUBCHEM_SHAPE_SELFOVERLAP>  (1) 
383.099

>  <PUBCHEM_SHAPE_VOLUME>  (1) 
110.8

>  <PUBCHEM_COORDINATE_TYPE>  (1) 
2
5
10

$$$$
