12189
     RDKit          3D

 11 10  0  0  0  0  0  0  0  0999 V2000
   -0.0001    0.3071   -0.0006 O   0  0  0  0  0  0  0  0  0  0  0  0
    1.3123   -1.6110    0.0017 O   0  0  0  0  0  0  0  0  0  0  0  0
   -1.3121   -1.6113   -0.0014 O   0  0  0  0  0  0  0  0  0  0  0  0
    2.2695    0.5878    0.0005 C   0  0  0  0  0  0  0  0  0  0  0  0
   -2.2695    0.5875   -0.0014 C   0  0  0  0  0  0  0  0  0  0  0  0
    3.5420    0.1700    0.0004 C   0  0  0  0  0  0  0  0  0  0  0  0
   -3.5422    0.1700    0.0006 C   0  0  0  0  0  0  0  0  0  0  0  0
    1.1654   -0.3992    0.0011 C   0  0  0  0  0  0  0  0  0  0  0  0
   -1.1654   -0.3995   -0.0017 C   0  0  0  0  0  0  0  0  0  0  0  0
    4.7116    1.0991   -0.0008 C   0  0  0  0  0  0  0  0  0  0  0  0
   -4.7114    1.0994    0.0015 C   0  0  0  0  0  0  0  0  0  0  0  0
  1  8  1  0
  1  9  1  0
  2  8  2  0
  3  9  2  0
  4  6  2  0
  4  8  1  0
  5  7  2  0
  5  9  1  0
  6 10  1  0
  7 11  1  0
M  END
>  <PUBCHEM_COMPOUND_CID>  (1) 
12189

>  <PUBCHEM_CONFORMER_RMSD>  (1) 
0.6

>  <PUBCHEM_CONFORMER_DIVERSEORDER>  (1) 
1
9
14
6
12
3
7
5
4
11
10
8
13
2

>  <PUBCHEM_MMFF94_PARTIAL_CHARGES>  (1) 
15
1 -0.3
10 0.14
11 0.14
12 0.15
13 0.15
14 0.15
15 0.15
2 -0.57
3 -0.57
4 -0.14
5 -0.14
6 -0.29
7 -0.29
8 0.71
9 0.71

>  <PUBCHEM_EFFECTIVE_ROTOR_COUNT>  (1) 
4

>  <PUBCHEM_PHARMACOPHORE_FEATURES>  (1) 
4
1 10 hydrophobe
1 11 hydrophobe
1 2 acceptor
1 3 acceptor

>  <PUBCHEM_HEAVY_ATOM_COUNT>  (1) 
11

>  <PUBCHEM_ATOM_DEF_STEREO_COUNT>  (1) 
0

>  <PUBCHEM_ATOM_UDEF_STEREO_COUNT>  (1) 
0

>  <PUBCHEM_BOND_DEF_STEREO_COUNT>  (1) 
0

>  <PUBCHEM_BOND_UDEF_STEREO_COUNT>  (1) 
2

>  <PUBCHEM_ISOTOPIC_ATOM_COUNT>  (1) 
0

>  <PUBCHEM_COMPONENT_COUNT>  (1) 
1

>  <PUBCHEM_CACTVS_TAUTO_COUNT>  (1) 
1

>  <PUBCHEM_CONFORMER_ID>  (1) 
00002F9D00000001

>  <PUBCHEM_MMFF94_ENERGY>  (1) 
14.6553

>  <PUBCHEM_FEATURE_SELFOVERLAP>  (1) 
20.307

>  <PUBCHEM_SHAPE_FINGERPRINT>  (1) 
100836 57 18335709351124345708
11062470 55 18412262835027701733
13380535 76 18410575088958539911
14252887 29 12179838373541930336
14325111 11 18410573947113975907
14897335 6 18411980256249794238
14993402 34 15770056137707334372
15477762 27 9583515425934948176
15501527 16 18411422821361487201
170605 34 18334858294606271322
177051 138 8790884081624040108
20605781 2 18410855443455084565
20645477 56 18409730690056427804
20645477 70 18059014969171819735
21119208 17 15770057232934635296
21293036 1 16128655258062921480
23402539 116 18273206504341260341
23402655 69 18131065996579070661
366044 4 18410855464855925155
42 15 12179844991822542397
42788 4 18411138038911727372
449060 50 18335706039646232893
449060 62 18341332210396155729

>  <PUBCHEM_SHAPE_MULTIPOLES>  (1) 
208.77
8.97
1.3
0.59
0
0.39
0
-4.67
0
0
0
0
-0.03
0

>  <PUBCHEM_SHAPE_SELFOVERLAP>  (1) 
401.354

>  <PUBCHEM_SHAPE_VOLUME>  (1) 
126.6

>  <PUBCHEM_COORDINATE_TYPE>  (1) 
2
5
10

$$$$
