1218
     RDKit          3D

 20 22  0  0  1  0  0  0  0  0999 V2000
   -3.0145    1.4416    2.1136 Cl  0  0  0  0  0  0  0  0  0  0  0  0
   -3.4074   -2.2552   -1.3165 O   0  0  0  0  0  0  0  0  0  0  0  0
   -4.3875   -0.7107    0.7278 O   0  0  0  0  0  0  0  0  0  0  0  0
    1.3790    2.5494   -0.8195 N   0  0  0  0  0  0  0  0  0  0  0  0
    0.9003    0.0818   -1.2614 C   0  0  0  0  0  0  0  0  0  0  0  0
   -0.5104   -0.0788   -0.6971 C   0  0  0  0  0  0  0  0  0  0  0  0
    1.0797    1.5198   -1.8162 C   0  0  0  0  0  0  0  0  0  0  0  0
   -1.0060    0.7231    0.3507 C   0  0  0  0  0  0  0  0  0  0  0  0
   -0.1771    1.8088    0.9905 C   0  0  0  0  0  0  0  0  0  0  0  0
    0.2338    2.9083    0.0135 C   0  0  0  0  0  0  0  0  0  0  0  0
    2.0285   -0.4540   -0.3716 C   0  0  0  0  0  0  0  0  0  0  0  0
   -1.3420   -1.0766   -1.2431 C   0  0  0  0  0  0  0  0  0  0  0  0
   -2.3106    0.5008    0.8267 C   0  0  0  0  0  0  0  0  0  0  0  0
   -2.6346   -1.2800   -0.7622 C   0  0  0  0  0  0  0  0  0  0  0  0
   -3.1187   -0.4916    0.2738 C   0  0  0  0  0  0  0  0  0  0  0  0
    1.7417   -1.3746    0.6341 C   0  0  0  0  0  0  0  0  0  0  0  0
    3.3367   -0.0182   -0.5712 C   0  0  0  0  0  0  0  0  0  0  0  0
    2.7678   -1.8616    1.4439 C   0  0  0  0  0  0  0  0  0  0  0  0
    4.3628   -0.5053    0.2383 C   0  0  0  0  0  0  0  0  0  0  0  0
    4.0783   -1.4270    1.2460 C   0  0  0  0  0  0  0  0  0  0  0  0
  1 13  1  0
  2 14  1  0
  3 15  1  0
  4  7  1  0
  4 10  1  0
  5  6  1  0
  5  7  1  0
  5 11  1  0
  6  8  2  0
  6 12  1  0
  8  9  1  0
  8 13  1  0
  9 10  1  0
 11 16  2  0
 11 17  1  0
 12 14  2  0
 13 15  2  0
 14 15  1  0
 16 18  1  0
 17 19  2  0
 18 20  2  0
 19 20  1  0
M  END
>  <PUBCHEM_COMPOUND_CID>  (1) 
1218

>  <PUBCHEM_CONFORMER_RMSD>  (1) 
0.6

>  <PUBCHEM_CONFORMER_DIVERSEORDER>  (1) 
1
4
6
2
3
5

>  <PUBCHEM_MMFF94_PARTIAL_CHARGES>  (1) 
29
1 -0.18
10 0.27
11 -0.14
12 -0.15
13 0.18
14 0.08
15 0.08
16 -0.15
17 -0.15
18 -0.15
19 -0.15
2 -0.53
20 -0.15
28 0.36
29 0.15
3 -0.53
30 0.15
31 0.15
32 0.15
33 0.15
34 0.15
35 0.45
36 0.45
4 -0.9
5 0.29
6 -0.14
7 0.27
8 -0.14
9 0.14

>  <PUBCHEM_EFFECTIVE_ROTOR_COUNT>  (1) 
2

>  <PUBCHEM_PHARMACOPHORE_FEATURES>  (1) 
7
1 2 donor
1 3 donor
1 4 cation
1 4 donor
6 11 16 17 18 19 20 rings
6 6 8 12 13 14 15 rings
7 4 5 6 7 8 9 10 rings

>  <PUBCHEM_HEAVY_ATOM_COUNT>  (1) 
20

>  <PUBCHEM_ATOM_DEF_STEREO_COUNT>  (1) 
0

>  <PUBCHEM_ATOM_UDEF_STEREO_COUNT>  (1) 
1

>  <PUBCHEM_BOND_DEF_STEREO_COUNT>  (1) 
0

>  <PUBCHEM_BOND_UDEF_STEREO_COUNT>  (1) 
0

>  <PUBCHEM_ISOTOPIC_ATOM_COUNT>  (1) 
0

>  <PUBCHEM_COMPONENT_COUNT>  (1) 
1

>  <PUBCHEM_CACTVS_TAUTO_COUNT>  (1) 
31

>  <PUBCHEM_CONFORMER_ID>  (1) 
000004C200000001

>  <PUBCHEM_MMFF94_ENERGY>  (1) 
62.4406

>  <PUBCHEM_FEATURE_SELFOVERLAP>  (1) 
35.535

>  <PUBCHEM_SHAPE_FINGERPRINT>  (1) 
11578080 2 18265307621350467972
11725454 13 15767801980247124825
12202030 40 16661226860866222041
12236239 1 18410017632431528270
12553582 1 18408319977983486942
12633257 1 17845648123841855952
13004483 165 18045203964902103384
13083527 12 17129558384251328869
13132413 78 18410856542476147572
13140716 1 17773602809516678083
13544653 18 17676771976837181322
13583140 156 18043272274055910721
13911987 19 16228903287351343158
13965767 371 17552385192607098001
14178342 30 17917440795749677751
14341114 328 18343017809688935040
14787075 74 18267304416761464280
15309172 13 12391505408370355854
15375462 189 18334857233749355542
16945 1 18129095619964975172
17349148 13 17846490448838973925
17980427 23 17346589803284589353
1813 80 18115602456519346438
200 152 17749664104617079170
20600515 1 17775298144055035041
21452121 71 18340200911652196499
22112679 90 18342189863852173652
2255824 54 18117003380098114468
232386 152 18130792295176375399
23388829 49 18335425642811938572
23402539 116 18409720738981381666
23419403 2 17697834298588024509
23526113 38 15864072082953619020
23557571 272 16917083147924971321
23559900 14 17345490197346283876
23598288 3 18045776784964651312
25147074 1 17915464011698322431
2748010 2 17404891162523531741
34934 24 18263086521936140400
7097593 13 18053097320682676842
77492 1 18410020943851196726
90316 7 18268430139978549032

>  <PUBCHEM_SHAPE_MULTIPOLES>  (1) 
396.74
6.95
2.51
1.69
1.3
1.26
0.16
-3.84
2.45
-0.35
-0.17
-0.36
0.11
-2.12

>  <PUBCHEM_SHAPE_SELFOVERLAP>  (1) 
853.307

>  <PUBCHEM_SHAPE_VOLUME>  (1) 
216.8

>  <PUBCHEM_COORDINATE_TYPE>  (1) 
2
5
10

$$$$
