12197
     RDKit          3D

  8  7  0  0  0  0  0  0  0  0999 V2000
    0.0000   -0.5402   -0.5175 S   0  0  0  0  0  0  0  0  0  0  0  0
   -1.2136    0.4325   -0.0919 O   0  0  0  0  0  0  0  0  0  0  0  0
    1.2135    0.4326   -0.0919 O   0  0  0  0  0  0  0  0  0  0  0  0
    0.0002   -1.7083    0.4253 O   0  0  0  0  0  0  0  0  0  0  0  0
   -2.5016   -0.1651   -0.1419 C   0  0  0  0  0  0  0  0  0  0  0  0
    2.5014   -0.1649   -0.1420 C   0  0  0  0  0  0  0  0  0  0  0  0
   -3.5358    0.8567    0.2799 C   0  0  0  0  0  0  0  0  0  0  0  0
    3.5358    0.8567    0.2800 C   0  0  0  0  0  0  0  0  0  0  0  0
  1  2  1  0
  1  3  1  0
  1  4  2  0
  2  5  1  0
  3  6  1  0
  5  7  1  0
  6  8  1  0
M  END
>  <PUBCHEM_COMPOUND_CID>  (1) 
12197

>  <PUBCHEM_CONFORMER_RMSD>  (1) 
0.6

>  <PUBCHEM_CONFORMER_DIVERSEORDER>  (1) 
1
7
15
18
6
21
10
20
19
17
9
4
11
3
16
12
8
5
2
13
14

>  <PUBCHEM_MMFF94_PARTIAL_CHARGES>  (1) 
6
1 0.6
2 -0.33
3 -0.33
4 -0.5
5 0.28
6 0.28

>  <PUBCHEM_EFFECTIVE_ROTOR_COUNT>  (1) 
4

>  <PUBCHEM_PHARMACOPHORE_FEATURES>  (1) 
1
1 4 acceptor

>  <PUBCHEM_HEAVY_ATOM_COUNT>  (1) 
8

>  <PUBCHEM_ATOM_DEF_STEREO_COUNT>  (1) 
0

>  <PUBCHEM_ATOM_UDEF_STEREO_COUNT>  (1) 
0

>  <PUBCHEM_BOND_DEF_STEREO_COUNT>  (1) 
0

>  <PUBCHEM_BOND_UDEF_STEREO_COUNT>  (1) 
0

>  <PUBCHEM_ISOTOPIC_ATOM_COUNT>  (1) 
0

>  <PUBCHEM_COMPONENT_COUNT>  (1) 
1

>  <PUBCHEM_CACTVS_TAUTO_COUNT>  (1) 
1

>  <PUBCHEM_CONFORMER_ID>  (1) 
00002FA500000001

>  <PUBCHEM_MMFF94_ENERGY>  (1) 
3.3575

>  <PUBCHEM_FEATURE_SELFOVERLAP>  (1) 
5.074

>  <PUBCHEM_SHAPE_FINGERPRINT>  (1) 
11062470 55 14405185075396742200
14325111 11 18411699889353300094
14390081 3 18272370841413359289
170605 34 18271810086003551551
20211469 26 11746928802334444449
21293036 1 12247673881172102952
23235685 24 18410288116502402436
5460574 1 8646773296000367604

>  <PUBCHEM_SHAPE_MULTIPOLES>  (1) 
150.88
6
1.17
0.68
0
0.31
-0.02
-2.72
0.58
0
0.17
0
0.06
0

>  <PUBCHEM_SHAPE_SELFOVERLAP>  (1) 
256.094

>  <PUBCHEM_SHAPE_VOLUME>  (1) 
102.4

>  <PUBCHEM_COORDINATE_TYPE>  (1) 
2
5
10

$$$$
