12199
     RDKit          3D

  9  8  0  0  0  0  0  0  0  0999 V2000
    1.6500    0.4390    0.0467 O   0  0  0  0  0  0  0  0  0  0  0  0
    0.3425   -1.4431    0.1983 O   0  0  0  0  0  0  0  0  0  0  0  0
   -0.5303    0.6889    0.4550 N   0  0  0  0  0  0  0  0  0  0  0  0
   -1.9190    0.3121    0.6903 C   0  0  0  0  0  0  0  0  0  0  0  0
   -2.6796    0.2397   -0.6313 C   0  0  0  0  0  0  0  0  0  0  0  0
   -4.1382   -0.1310   -0.4112 C   0  0  0  0  0  0  0  0  0  0  0  0
    0.4691   -0.2236    0.2313 C   0  0  0  0  0  0  0  0  0  0  0  0
    2.7958   -0.3840   -0.1995 C   0  0  0  0  0  0  0  0  0  0  0  0
    4.0098    0.5020   -0.3798 C   0  0  0  0  0  0  0  0  0  0  0  0
  1  7  1  0
  1  8  1  0
  2  7  2  0
  3  4  1  0
  3  7  1  0
  4  5  1  0
  5  6  1  0
  8  9  1  0
M  END
>  <PUBCHEM_COMPOUND_CID>  (1) 
12199

>  <PUBCHEM_CONFORMER_RMSD>  (1) 
0.6

>  <PUBCHEM_CONFORMER_DIVERSEORDER>  (1) 
1
38
18
7
37
29
39
5
44
26
46
25
31
47
53
2
4
8
45
36
30
32
13
10
28
48
49
6
19
35
22
15
20
27
40
33
41
42
3
23
12
9
21
51
43
24
34
16
52
11
14
17
50

>  <PUBCHEM_MMFF94_PARTIAL_CHARGES>  (1) 
7
1 -0.43
14 0.37
2 -0.57
3 -0.73
4 0.3
7 0.78
8 0.28

>  <PUBCHEM_EFFECTIVE_ROTOR_COUNT>  (1) 
5

>  <PUBCHEM_PHARMACOPHORE_FEATURES>  (1) 
3
1 2 acceptor
1 3 donor
1 6 hydrophobe

>  <PUBCHEM_HEAVY_ATOM_COUNT>  (1) 
9

>  <PUBCHEM_ATOM_DEF_STEREO_COUNT>  (1) 
0

>  <PUBCHEM_ATOM_UDEF_STEREO_COUNT>  (1) 
0

>  <PUBCHEM_BOND_DEF_STEREO_COUNT>  (1) 
0

>  <PUBCHEM_BOND_UDEF_STEREO_COUNT>  (1) 
0

>  <PUBCHEM_ISOTOPIC_ATOM_COUNT>  (1) 
0

>  <PUBCHEM_COMPONENT_COUNT>  (1) 
1

>  <PUBCHEM_CACTVS_TAUTO_COUNT>  (1) 
2

>  <PUBCHEM_CONFORMER_ID>  (1) 
00002FA700000001

>  <PUBCHEM_MMFF94_ENERGY>  (1) 
-0.2574

>  <PUBCHEM_FEATURE_SELFOVERLAP>  (1) 
15.223

>  <PUBCHEM_SHAPE_FINGERPRINT>  (1) 
11062470 55 16443063893833692757
12897270 3 18409725145395936989
12932764 1 17131537358951944993
14325111 11 18410858733162273256
20281407 28 14405182867709673229
21293036 1 18410855473034234212
22485316 2 14549014368906013789
23402655 69 18337101281616511829

>  <PUBCHEM_SHAPE_MULTIPOLES>  (1) 
168.5
7.22
0.9
0.76
0.09
0.21
0.01
-0.7
1.87
0.19
-0.05
-0.26
-0.04
-0.12

>  <PUBCHEM_SHAPE_SELFOVERLAP>  (1) 
303.339

>  <PUBCHEM_SHAPE_VOLUME>  (1) 
109.1

>  <PUBCHEM_COORDINATE_TYPE>  (1) 
2
5
10

$$$$
