122
     RDKit          3D

 14 13  0  0  0  0  0  0  0  0999 V2000
   -1.7664    0.9542    0.8349 O   0  0  0  0  0  0  0  0  0  0  0  0
    0.5654    1.2784   -0.8243 O   0  0  0  0  0  0  0  0  0  0  0  0
   -5.3763   -0.8115   -0.4501 O   0  0  0  0  0  0  0  0  0  0  0  0
   -4.4465    0.9622    0.6149 O   0  0  0  0  0  0  0  0  0  0  0  0
    5.4237    0.7466   -0.1214 O   0  0  0  0  0  0  0  0  0  0  0  0
    4.7055   -1.3002    0.5861 O   0  0  0  0  0  0  0  0  0  0  0  0
   -0.4417   -0.7895   -0.1162 C   0  0  0  0  0  0  0  0  0  0  0  0
   -1.7516   -0.0928    0.1889 C   0  0  0  0  0  0  0  0  0  0  0  0
   -3.0130   -0.7880   -0.2886 C   0  0  0  0  0  0  0  0  0  0  0  0
    0.7171    0.1503   -0.3626 C   0  0  0  0  0  0  0  0  0  0  0  0
    2.0662   -0.3874   -0.0237 C   0  0  0  0  0  0  0  0  0  0  0  0
   -4.3189   -0.1013    0.0255 C   0  0  0  0  0  0  0  0  0  0  0  0
    3.1564    0.3669   -0.2033 C   0  0  0  0  0  0  0  0  0  0  0  0
    4.4801   -0.1879    0.1399 C   0  0  0  0  0  0  0  0  0  0  0  0
  1  8  2  0
  2 10  2  0
  3 12  1  0
  4 12  2  0
  5 14  1  0
  6 14  2  0
  7  8  1  0
  7 10  1  0
  8  9  1  0
  9 12  1  0
 10 11  1  0
 11 13  2  0
 13 14  1  0
M  END
>  <PUBCHEM_COMPOUND_CID>  (1) 
122

>  <PUBCHEM_CONFORMER_RMSD>  (1) 
0.6

>  <PUBCHEM_CONFORMER_DIVERSEORDER>  (1) 
1
203
131
167
83
122
221
177
157
211
41
192
124
24
50
121
126
2
37
38
171
193
138
75
128
26
150
82
186
116
199
213
146
201
228
113
173
45
98
17
110
169
147
230
3
153
88
39
140
104
127
117
19
103
40
210
28
204
137
46
132
212
52
172
27
184
223
105
30
91
163
86
202
34
215
49
190
95
191
206
100
44
109
152
71
79
188
112
156
8
133
59
144
129
114
63
222
224
33
60
218
158
136
93
187
130
80
125
209
174
134
227
13
67
9
35
11
97
168
159
161
54
102
207
208
73
21
64
84
123
29
106
181
178
225
65
176
81
162
214
62
31
78
175
32
108
87
135
76
12
77
90
139
51
195
115
166
14
56
198
229
99
10
194
205
72
155
5
118
92
143
120
42
217
151
182
107
57
164
219
160
231
200
141
36
15
68
196
22
170
43
96
119
89
48
85
6
226
69
74
70
149
180
4
94
66
183
61
185
148
154
58
18
16
111
189
47
216
197
101
25
23
145
20
165
142
7
53
55
220
179

>  <PUBCHEM_MMFF94_PARTIAL_CHARGES>  (1) 
18
1 -0.57
10 0.49
11 -0.14
12 0.66
13 -0.14
14 0.71
19 0.15
2 -0.57
20 0.15
21 0.5
22 0.5
3 -0.65
4 -0.57
5 -0.65
6 -0.57
7 0.12
8 0.45
9 0.12

>  <PUBCHEM_EFFECTIVE_ROTOR_COUNT>  (1) 
6

>  <PUBCHEM_PHARMACOPHORE_FEATURES>  (1) 
10
1 1 acceptor
1 2 acceptor
1 3 acceptor
1 4 acceptor
1 5 acceptor
1 6 acceptor
1 7 anion
1 9 anion
3 3 4 12 anion
3 5 6 14 anion

>  <PUBCHEM_HEAVY_ATOM_COUNT>  (1) 
14

>  <PUBCHEM_ATOM_DEF_STEREO_COUNT>  (1) 
0

>  <PUBCHEM_ATOM_UDEF_STEREO_COUNT>  (1) 
0

>  <PUBCHEM_BOND_DEF_STEREO_COUNT>  (1) 
0

>  <PUBCHEM_BOND_UDEF_STEREO_COUNT>  (1) 
1

>  <PUBCHEM_ISOTOPIC_ATOM_COUNT>  (1) 
0

>  <PUBCHEM_COMPONENT_COUNT>  (1) 
1

>  <PUBCHEM_CACTVS_TAUTO_COUNT>  (1) 
8

>  <PUBCHEM_CONFORMER_ID>  (1) 
0000007A00000001

>  <PUBCHEM_MMFF94_ENERGY>  (1) 
17.8502

>  <PUBCHEM_FEATURE_SELFOVERLAP>  (1) 
51.147

>  <PUBCHEM_SHAPE_FINGERPRINT>  (1) 
11287383 113 12895064145805488550
11401426 45 18410292519070623791
12236239 1 18410572881677340883
124424 183 17168147853667651717
12815109 37 18040714779290479676
13081056 2 12247681565327713618
13533116 47 18412260602251739922
13690532 89 18334012795892045743
14123238 8 18341895198956796991
1420 363 13398632779214399983
17834072 33 18342455980273480724
17834076 25 18131351920740745886
200 152 18412823594916930823
20645477 70 17749664096328071994
20767249 13 18410009940166128655
22485316 2 17967812764870783066
23402539 116 17988920063887915069
23557571 272 16128109883184565888
265663 24 18342175565890136383
366044 4 18410292527386829875
4047638 21 12175618486938119910
42 15 18408886217976529578
42788 4 18343302574093492822
5374978 207 18114455717742361064

>  <PUBCHEM_SHAPE_MULTIPOLES>  (1) 
252.9
11.96
1.07
0.73
1.57
0.03
0.01
-0.91
0.71
0.05
0.02
-0.1
0.06
-0.71

>  <PUBCHEM_SHAPE_SELFOVERLAP>  (1) 
499.31

>  <PUBCHEM_SHAPE_VOLUME>  (1) 
148.2

>  <PUBCHEM_COORDINATE_TYPE>  (1) 
2
5
10

$$$$
