12207
     RDKit          3D

  8  8  0  0  0  0  0  0  0  0999 V2000
   -3.3993   -0.0009    0.0023 I   0  0  0  0  0  0  0  0  0  0  0  0
    1.4681    0.0003   -0.0002 C   0  0  0  0  0  0  0  0  0  0  0  0
    0.7709   -1.2077   -0.0004 C   0  0  0  0  0  0  0  0  0  0  0  0
    0.7707    1.2083   -0.0005 C   0  0  0  0  0  0  0  0  0  0  0  0
    2.9595   -0.0009    0.0020 C   0  0  0  0  0  0  0  0  0  0  0  0
   -0.6240   -1.2077   -0.0010 C   0  0  0  0  0  0  0  0  0  0  0  0
   -0.6243    1.2084   -0.0010 C   0  0  0  0  0  0  0  0  0  0  0  0
   -1.3216    0.0002   -0.0013 C   0  0  0  0  0  0  0  0  0  0  0  0
  1  8  1  0
  2  3  2  0
  2  4  1  0
  2  5  1  0
  3  6  1  0
  4  7  2  0
  6  8  2  0
  7  8  1  0
M  END
>  <PUBCHEM_COMPOUND_CID>  (1) 
12207

>  <PUBCHEM_CONFORMER_RMSD>  (1) 
0.4

>  <PUBCHEM_CONFORMER_DIVERSEORDER>  (1) 
1

>  <PUBCHEM_MMFF94_PARTIAL_CHARGES>  (1) 
12
1 -0.08
10 0.15
14 0.15
15 0.15
2 -0.14
3 -0.15
4 -0.15
5 0.14
6 -0.15
7 -0.15
8 0.08
9 0.15

>  <PUBCHEM_EFFECTIVE_ROTOR_COUNT>  (1) 
0

>  <PUBCHEM_PHARMACOPHORE_FEATURES>  (1) 
2
1 1 hydrophobe
6 2 3 4 6 7 8 rings

>  <PUBCHEM_HEAVY_ATOM_COUNT>  (1) 
8

>  <PUBCHEM_ATOM_DEF_STEREO_COUNT>  (1) 
0

>  <PUBCHEM_ATOM_UDEF_STEREO_COUNT>  (1) 
0

>  <PUBCHEM_BOND_DEF_STEREO_COUNT>  (1) 
0

>  <PUBCHEM_BOND_UDEF_STEREO_COUNT>  (1) 
0

>  <PUBCHEM_ISOTOPIC_ATOM_COUNT>  (1) 
0

>  <PUBCHEM_COMPONENT_COUNT>  (1) 
1

>  <PUBCHEM_CACTVS_TAUTO_COUNT>  (1) 
1

>  <PUBCHEM_CONFORMER_ID>  (1) 
00002FAF00000001

>  <PUBCHEM_MMFF94_ENERGY>  (1) 
17.3039

>  <PUBCHEM_FEATURE_SELFOVERLAP>  (1) 
10.148

>  <PUBCHEM_SHAPE_FINGERPRINT>  (1) 
10219947 1 18410295808973361441
12032990 46 18410864243389360959
14325111 11 18410856581457614849
15310529 11 16588295081816495156
16945 1 18410575084752749703
193761 8 17618222810548096487
21040471 1 18194402414339835557
21293036 1 18408889550538718764
23235685 24 18410570695217077901
23402655 69 18195792004682169317
23552423 10 18044374057214632830
2748010 2 18122628524276902735
29004967 10 18334299751426244401
5084963 1 18272370866887686121

>  <PUBCHEM_SHAPE_MULTIPOLES>  (1) 
176.57
4.44
1.34
0.66
1.83
0
0
0
-0.01
-0.08
0
0.13
0
0

>  <PUBCHEM_SHAPE_SELFOVERLAP>  (1) 
340.388

>  <PUBCHEM_SHAPE_VOLUME>  (1) 
112.2

>  <PUBCHEM_COORDINATE_TYPE>  (1) 
2
5
10

$$$$
