12203
     RDKit          3D

 11 10  0  0  0  0  0  0  0  0999 V2000
    1.7280   -1.4705   -0.0065 O   0  0  0  0  0  0  0  0  0  0  0  0
   -2.0966    0.5859   -0.0417 C   0  0  0  0  0  0  0  0  0  0  0  0
   -0.8259   -0.2696   -0.0306 C   0  0  0  0  0  0  0  0  0  0  0  0
   -3.3525   -0.2875   -0.0105 C   0  0  0  0  0  0  0  0  0  0  0  0
    0.4468    0.5759   -0.0334 C   0  0  0  0  0  0  0  0  0  0  0  0
   -4.6215    0.5642    0.0069 C   0  0  0  0  0  0  0  0  0  0  0  0
    1.7312   -0.2409   -0.0161 C   0  0  0  0  0  0  0  0  0  0  0  0
    3.0200    0.5689   -0.0089 C   0  0  0  0  0  0  0  0  0  0  0  0
    4.2869   -0.2831   -0.0041 C   0  0  0  0  0  0  0  0  0  0  0  0
   -5.8712   -0.2993    0.0720 C   0  0  0  0  0  0  0  0  0  0  0  0
    5.5549    0.5560    0.0729 C   0  0  0  0  0  0  0  0  0  0  0  0
  1  7  2  0
  2  3  1  0
  2  4  1  0
  3  5  1  0
  4  6  1  0
  5  7  1  0
  6 10  1  0
  7  8  1  0
  8  9  1  0
  9 11  1  0
M  END
>  <PUBCHEM_COMPOUND_CID>  (1) 
12203

>  <PUBCHEM_CONFORMER_RMSD>  (1) 
0.8

>  <PUBCHEM_CONFORMER_DIVERSEORDER>  (1) 
1
155
90
122
183
53
109
164
18
5
184
63
59
185
2
174
115
82
133
40
180
125
20
182
105
9
17
186
181
8
146
178
156
68
112
142
108
187
94
158
32
176
12
39
24
74
48
99
177
3
148
83
35
171
70
81
66
160
75
60
135
28
127
65
4
87
179
79
123
6
117
188
27
114
161
10
11
149
25
47
110
19
150
120
97
175
44
13
139
121
52
15
43
107
67
78
73
96
49
102
172
166
16
36
138
167
137
119
152
162
77
144
124
113
111
71
170
23
147
41
76
136
169
30
14
145
50
104
51
34
64
95
22
132
57
37
86
168
69
157
38
141
26
165
131
33
54
56
129
55
29
159
128
116
89
45
62
80
100
84
106
163
151
31
88
91
93
46
7
103
58
173
85
21
98
140
143
42
61
154
118
134
126
153
101
130
92
72

>  <PUBCHEM_MMFF94_PARTIAL_CHARGES>  (1) 
4
1 -0.57
5 0.06
7 0.45
8 0.06

>  <PUBCHEM_EFFECTIVE_ROTOR_COUNT>  (1) 
7

>  <PUBCHEM_PHARMACOPHORE_FEATURES>  (1) 
4
1 1 acceptor
1 10 hydrophobe
1 11 hydrophobe
5 2 3 4 5 6 hydrophobe

>  <PUBCHEM_HEAVY_ATOM_COUNT>  (1) 
11

>  <PUBCHEM_ATOM_DEF_STEREO_COUNT>  (1) 
0

>  <PUBCHEM_ATOM_UDEF_STEREO_COUNT>  (1) 
0

>  <PUBCHEM_BOND_DEF_STEREO_COUNT>  (1) 
0

>  <PUBCHEM_BOND_UDEF_STEREO_COUNT>  (1) 
0

>  <PUBCHEM_ISOTOPIC_ATOM_COUNT>  (1) 
0

>  <PUBCHEM_COMPONENT_COUNT>  (1) 
1

>  <PUBCHEM_CACTVS_TAUTO_COUNT>  (1) 
3

>  <PUBCHEM_CONFORMER_ID>  (1) 
00002FAB00000001

>  <PUBCHEM_MMFF94_ENERGY>  (1) 
-1.6411

>  <PUBCHEM_FEATURE_SELFOVERLAP>  (1) 
20.297

>  <PUBCHEM_SHAPE_FINGERPRINT>  (1) 
11062470 55 18259704492956734025
114248 4 18409730660075844849
12815109 37 17894911828118281197
14123238 8 18113054935116466861
1420 363 18334300872513065307
14251718 22 18060137656785502615
17834072 33 17917708036951230429
17834076 25 18410293613986629801
187816 3 15267345128116567487
20279233 1 17676778603982314195
20645477 70 18341332171678750934
20719005 15 18410293605412551949
20767249 13 18040716969987531617
20767249 213 18259987102126752660
22485316 2 18186518791757670955
23402539 116 12324241689609270435
23402655 69 18342452604503169109
23557571 272 17168422671028361893
366044 4 18333168375288809171
42788 4 18411136935168338368
8209 1 18408885140166474749

>  <PUBCHEM_SHAPE_MULTIPOLES>  (1) 
220.51
13.28
0.94
0.61
4.05
0.14
0
-0.88
0.4
-0.26
0
0.01
-0.01
0.03

>  <PUBCHEM_SHAPE_SELFOVERLAP>  (1) 
394.664

>  <PUBCHEM_SHAPE_VOLUME>  (1) 
143.1

>  <PUBCHEM_COORDINATE_TYPE>  (1) 
2
5
10

$$$$
