12200
     RDKit          3D

 12 11  0  0  0  0  0  0  0  0999 V2000
    0.0240   -1.5574    0.7241 O   0  0  0  0  0  0  0  0  0  0  0  0
    2.4015   -0.4824   -0.2139 O   0  0  0  0  0  0  0  0  0  0  0  0
   -2.4105   -0.4874   -0.2238 O   0  0  0  0  0  0  0  0  0  0  0  0
    3.4762    1.4004    0.2269 O   0  0  0  0  0  0  0  0  0  0  0  0
   -3.4753    1.3921    0.2529 O   0  0  0  0  0  0  0  0  0  0  0  0
    4.6746   -0.4335   -0.1875 O   0  0  0  0  0  0  0  0  0  0  0  0
   -4.6833   -0.4262   -0.2009 O   0  0  0  0  0  0  0  0  0  0  0  0
    3.6321    0.2097   -0.0462 N   0  0  0  0  0  0  0  0  0  0  0  0
   -3.6374    0.2081   -0.0448 N   0  0  0  0  0  0  0  0  0  0  0  0
    0.0028   -0.4964   -0.2335 C   0  0  0  0  0  0  0  0  0  0  0  0
    1.2567    0.3442   -0.0316 C   0  0  0  0  0  0  0  0  0  0  0  0
   -1.2614    0.3287   -0.0218 C   0  0  0  0  0  0  0  0  0  0  0  0
  1 10  1  0
  2  8  1  0
  2 11  1  0
  3  9  1  0
  3 12  1  0
  4  8  1  0
  5  9  1  0
  6  8  2  0
  7  9  2  0
 10 11  1  0
 10 12  1  0
M  CHG  4   4  -1   5  -1   8   1   9   1
M  END
>  <PUBCHEM_COMPOUND_CID>  (1) 
12200

>  <PUBCHEM_CONFORMER_RMSD>  (1) 
0.6

>  <PUBCHEM_CONFORMER_DIVERSEORDER>  (1) 
1
52
57
37
51
79
33
35
7
32
53
30
81
6
75
46
68
65
43
77
60
8
62
54
72
29
63
25
28
39
41
5
67
4
64
71
34
15
44
22
59
78
9
48
21
36
73
55
49
58
23
10
56
24
2
66
80
17
31
11
76
18
50
3
69
12
20
16
13
27
47
74
42
61
45
40
70
26
14
38
19

>  <PUBCHEM_MMFF94_PARTIAL_CHARGES>  (1) 
13
1 -0.68
10 0.28
11 0.28
12 0.28
18 0.4
2 -0.27
3 -0.27
4 -0.52
5 -0.52
6 -0.52
7 -0.52
8 1.03
9 1.03

>  <PUBCHEM_EFFECTIVE_ROTOR_COUNT>  (1) 
6

>  <PUBCHEM_PHARMACOPHORE_FEATURES>  (1) 
6
1 1 acceptor
1 1 donor
1 4 acceptor
1 5 acceptor
1 6 acceptor
1 7 acceptor

>  <PUBCHEM_HEAVY_ATOM_COUNT>  (1) 
12

>  <PUBCHEM_ATOM_DEF_STEREO_COUNT>  (1) 
0

>  <PUBCHEM_ATOM_UDEF_STEREO_COUNT>  (1) 
0

>  <PUBCHEM_BOND_DEF_STEREO_COUNT>  (1) 
0

>  <PUBCHEM_BOND_UDEF_STEREO_COUNT>  (1) 
0

>  <PUBCHEM_ISOTOPIC_ATOM_COUNT>  (1) 
0

>  <PUBCHEM_COMPONENT_COUNT>  (1) 
1

>  <PUBCHEM_CACTVS_TAUTO_COUNT>  (1) 
1

>  <PUBCHEM_CONFORMER_ID>  (1) 
00002FA800000001

>  <PUBCHEM_MMFF94_ENERGY>  (1) 
29.8367

>  <PUBCHEM_FEATURE_SELFOVERLAP>  (1) 
30.59

>  <PUBCHEM_SHAPE_FINGERPRINT>  (1) 
10219947 1 17022904540512111927
11062470 55 8502654809289356087
12346645 44 18336264553019698283
14123238 8 17704353285912016581
14325111 11 18410575084668366679
17834076 25 13840262581193722383
18186145 218 18408316688069874948
20645477 70 17845942831739925758
20719005 15 18413670214200798239
21119208 17 17346599668665634668
22485316 2 9007059049855163012
23402539 116 18131062723328551653
265663 24 18343862216663828430
366044 4 18333731329642725202

>  <PUBCHEM_SHAPE_MULTIPOLES>  (1) 
195.91
8.94
1.13
0.6
0.07
0.09
-0.02
1.19
0.43
-0.01
-0.18
0
-0.06
-0.01

>  <PUBCHEM_SHAPE_SELFOVERLAP>  (1) 
370.111

>  <PUBCHEM_SHAPE_VOLUME>  (1) 
121.7

>  <PUBCHEM_COORDINATE_TYPE>  (1) 
2
5
10

$$$$
