12209
     RDKit          3D

  9  8  0  0  1  0  0  0  0  0999 V2000
   -0.6966   -0.2021    0.2638 O   0  0  0  0  0  0  0  0  0  0  0  0
   -2.4585    0.4003   -1.1037 O   0  0  0  0  0  0  0  0  0  0  0  0
    1.6158   -0.5423   -0.4150 C   0  0  0  0  0  0  0  0  0  0  0  0
    2.2169    0.4492    0.5999 C   0  0  0  0  0  0  0  0  0  0  0  0
    0.1891   -0.1775   -0.8466 C   0  0  0  0  0  0  0  0  0  0  0  0
    1.6480   -1.9553    0.1789 C   0  0  0  0  0  0  0  0  0  0  0  0
    2.2998    1.8768    0.0789 C   0  0  0  0  0  0  0  0  0  0  0  0
   -2.0010    0.1088   -0.0068 C   0  0  0  0  0  0  0  0  0  0  0  0
   -2.8136    0.0422    1.2506 C   0  0  0  0  0  0  0  0  0  0  0  0
  1  5  1  0
  1  8  1  0
  2  8  2  0
  3  4  1  0
  3  5  1  0
  3  6  1  0
  4  7  1  0
  8  9  1  0
M  END
>  <PUBCHEM_COMPOUND_CID>  (1) 
12209

>  <PUBCHEM_CONFORMER_RMSD>  (1) 
0.6

>  <PUBCHEM_CONFORMER_DIVERSEORDER>  (1) 
4
42
14
36
54
48
22
38
31
9
19
1
37
35
10
41
11
39
50
32
34
28
6
21
46
5
47
13
52
16
23
29
33
51
26
12
17
45
53
27
18
25
40
43
3
30
20
7
49
44
8
24
2
15

>  <PUBCHEM_MMFF94_PARTIAL_CHARGES>  (1) 
5
1 -0.43
2 -0.57
5 0.28
8 0.66
9 0.06

>  <PUBCHEM_EFFECTIVE_ROTOR_COUNT>  (1) 
4

>  <PUBCHEM_PHARMACOPHORE_FEATURES>  (1) 
3
1 2 acceptor
1 6 hydrophobe
1 7 hydrophobe

>  <PUBCHEM_HEAVY_ATOM_COUNT>  (1) 
9

>  <PUBCHEM_ATOM_DEF_STEREO_COUNT>  (1) 
0

>  <PUBCHEM_ATOM_UDEF_STEREO_COUNT>  (1) 
1

>  <PUBCHEM_BOND_DEF_STEREO_COUNT>  (1) 
0

>  <PUBCHEM_BOND_UDEF_STEREO_COUNT>  (1) 
0

>  <PUBCHEM_ISOTOPIC_ATOM_COUNT>  (1) 
0

>  <PUBCHEM_COMPONENT_COUNT>  (1) 
1

>  <PUBCHEM_CACTVS_TAUTO_COUNT>  (1) 
1

>  <PUBCHEM_CONFORMER_ID>  (1) 
00002FB100000004

>  <PUBCHEM_MMFF94_ENERGY>  (1) 
7.3672

>  <PUBCHEM_FEATURE_SELFOVERLAP>  (1) 
15.223

>  <PUBCHEM_SHAPE_FINGERPRINT>  (1) 
10857977 72 17168151169224109745
12932741 1 17967532333354743583
12932764 1 18408892810672246887
14390081 3 17131832105135117785
15775835 57 17561086937945544800
19973954 147 18337390435478062069
20653085 51 17129878355020186392
20715346 28 17894632539243020487
21040471 1 18124871511376924196
23552423 10 16845019996157203911
23552449 11 18264198132634358770
29004967 10 18187367592868983382
3248919 1 17346595244933832871
5084963 1 17631721682232304014

>  <PUBCHEM_SHAPE_MULTIPOLES>  (1) 
173.48
4.4
1.55
1.04
2.26
0.13
0
-1.02
0.8
-1.7
0.13
0.6
-0.04
0.1

>  <PUBCHEM_SHAPE_SELFOVERLAP>  (1) 
314.821

>  <PUBCHEM_SHAPE_VOLUME>  (1) 
111.7

>  <PUBCHEM_COORDINATE_TYPE>  (1) 
2
5
10

$$$$
