12213
     RDKit          3D

  9  8  0  0  0  0  0  0  0  0999 V2000
    2.3444   -1.3975    0.1714 O   0  0  0  0  0  0  0  0  0  0  0  0
   -0.1649   -0.2767    0.2204 N   0  0  0  0  0  0  0  0  0  0  0  0
    0.9471    0.4454   -0.0328 N   0  0  0  0  0  0  0  0  0  0  0  0
    3.2140    0.6720   -0.3130 N   0  0  0  0  0  0  0  0  0  0  0  0
   -2.5453   -0.4628    0.5340 C   0  0  0  0  0  0  0  0  0  0  0  0
   -1.3022    0.3507    0.2253 C   0  0  0  0  0  0  0  0  0  0  0  0
   -3.1847   -0.9646   -0.7474 C   0  0  0  0  0  0  0  0  0  0  0  0
   -1.4828    1.8309   -0.0191 C   0  0  0  0  0  0  0  0  0  0  0  0
    2.1744   -0.1974   -0.0387 C   0  0  0  0  0  0  0  0  0  0  0  0
  1  9  2  0
  2  3  1  0
  2  6  2  0
  3  9  1  0
  4  9  1  0
  5  6  1  0
  5  7  1  0
  6  8  1  0
M  END
>  <PUBCHEM_COMPOUND_CID>  (1) 
12213

>  <PUBCHEM_CONFORMER_RMSD>  (1) 
0.6

>  <PUBCHEM_CONFORMER_DIVERSEORDER>  (1) 
1
2

>  <PUBCHEM_MMFF94_PARTIAL_CHARGES>  (1) 
11
1 -0.57
18 0.37
19 0.37
2 -0.51
20 0.37
3 -0.37
4 -0.8
5 0.06
6 0.33
8 0.06
9 0.69

>  <PUBCHEM_EFFECTIVE_ROTOR_COUNT>  (1) 
3

>  <PUBCHEM_PHARMACOPHORE_FEATURES>  (1) 
5
1 1 acceptor
1 2 acceptor
1 3 donor
1 4 donor
1 7 hydrophobe

>  <PUBCHEM_HEAVY_ATOM_COUNT>  (1) 
9

>  <PUBCHEM_ATOM_DEF_STEREO_COUNT>  (1) 
0

>  <PUBCHEM_ATOM_UDEF_STEREO_COUNT>  (1) 
0

>  <PUBCHEM_BOND_DEF_STEREO_COUNT>  (1) 
0

>  <PUBCHEM_BOND_UDEF_STEREO_COUNT>  (1) 
1

>  <PUBCHEM_ISOTOPIC_ATOM_COUNT>  (1) 
0

>  <PUBCHEM_COMPONENT_COUNT>  (1) 
1

>  <PUBCHEM_CACTVS_TAUTO_COUNT>  (1) 
3

>  <PUBCHEM_CONFORMER_ID>  (1) 
00002FB500000001

>  <PUBCHEM_MMFF94_ENERGY>  (1) 
16.1664

>  <PUBCHEM_FEATURE_SELFOVERLAP>  (1) 
25.429

>  <PUBCHEM_SHAPE_FINGERPRINT>  (1) 
10857977 72 15482670204050648315
11062470 55 17676202502685921591
12897270 3 18335984245904813891
12932764 1 18131350799780622984
14325111 11 18410014303805331160
14390081 3 18409170995809646576
15310529 11 18342174453498634716
20645464 45 8502378853583192593
21293036 1 17822285838272041351
23552423 10 18188774929113798306
3248919 1 17603594018978570208
5460574 1 9511464407291418872
8030462 33 18187374198681652526

>  <PUBCHEM_SHAPE_MULTIPOLES>  (1) 
164.4
5.25
1.4
0.7
1.49
0.41
-0.03
-1.26
-0.69
-0.4
-0.06
-0.31
-0.07
-0.31

>  <PUBCHEM_SHAPE_SELFOVERLAP>  (1) 
303.684

>  <PUBCHEM_SHAPE_VOLUME>  (1) 
104.4

>  <PUBCHEM_COORDINATE_TYPE>  (1) 
2
5
10

$$$$
