12216
     RDKit          3D

 10  9  0  0  1  0  0  0  0  0999 V2000
    2.3822    1.3468   -0.4157 O   0  0  0  0  0  0  0  0  0  0  0  0
   -0.2546    0.2029    0.1804 C   0  0  0  0  0  0  0  0  0  0  0  0
    0.9938   -0.6049   -0.1986 C   0  0  0  0  0  0  0  0  0  0  0  0
   -1.5663   -0.4813   -0.2183 C   0  0  0  0  0  0  0  0  0  0  0  0
    2.2890    0.0862    0.2499 C   0  0  0  0  0  0  0  0  0  0  0  0
   -2.8143    0.2881    0.2206 C   0  0  0  0  0  0  0  0  0  0  0  0
    3.5492   -0.7211   -0.0851 C   0  0  0  0  0  0  0  0  0  0  0  0
   -4.0905   -0.4349   -0.2130 C   0  0  0  0  0  0  0  0  0  0  0  0
    4.8461   -0.0214    0.2878 C   0  0  0  0  0  0  0  0  0  0  0  0
   -5.3346    0.3396    0.1919 C   0  0  0  0  0  0  0  0  0  0  0  0
  1  5  1  0
  2  3  1  0
  2  4  1  0
  3  5  1  0
  4  6  1  0
  5  7  1  0
  6  8  1  0
  7  9  1  0
  8 10  1  0
M  END
>  <PUBCHEM_COMPOUND_CID>  (1) 
12216

>  <PUBCHEM_CONFORMER_RMSD>  (1) 
0.6

>  <PUBCHEM_CONFORMER_DIVERSEORDER>  (1) 
1
221
184
193
161
208
16
103
73
199
188
14
71
218
100
4
165
153
81
44
232
172
236
135
50
64
166
7
195
217
111
3
231
67
223
9
85
144
211
132
12
222
200
53
30
216
27
34
159
104
230
15
49
227
138
39
90
108
80
148
219
8
109
75
163
86
137
206
158
215
43
155
23
225
241
22
169
24
229
33
101
212
140
37
127
72
57
204
209
176
202
213
235
113
152
59
143
56
186
79
180
83
77
238
63
11
121
239
190
70
214
196
207
88
38
142
48
136
151
2
82
234
167
55
98
179
203
95
107
58
10
201
170
20
93
84
191
154
45
32
198
182
112
124
228
130
114
160
226
125
76
21
41
224
240
68
40
183
168
237
54
42
99
175
197
106
91
147
110
74
164
178
118
52
5
115
220
133
47
116
150
145
62
194
192
117
210
177
6
185
25
149
66
26
173
89
97
35
105
139
28
17
92
94
87
141
36
102
131
189
13
78
126
162
174
119
46
181
128
233
51
171
18
205
134
96
122
65
31
129
146
60
61
123
156
69
19
29
120
157
187

>  <PUBCHEM_MMFF94_PARTIAL_CHARGES>  (1) 
3
1 -0.68
30 0.4
5 0.28

>  <PUBCHEM_EFFECTIVE_ROTOR_COUNT>  (1) 
6

>  <PUBCHEM_PHARMACOPHORE_FEATURES>  (1) 
5
1 1 acceptor
1 1 donor
1 10 hydrophobe
1 9 hydrophobe
5 2 3 4 6 8 hydrophobe

>  <PUBCHEM_HEAVY_ATOM_COUNT>  (1) 
10

>  <PUBCHEM_ATOM_DEF_STEREO_COUNT>  (1) 
0

>  <PUBCHEM_ATOM_UDEF_STEREO_COUNT>  (1) 
1

>  <PUBCHEM_BOND_DEF_STEREO_COUNT>  (1) 
0

>  <PUBCHEM_BOND_UDEF_STEREO_COUNT>  (1) 
0

>  <PUBCHEM_ISOTOPIC_ATOM_COUNT>  (1) 
0

>  <PUBCHEM_COMPONENT_COUNT>  (1) 
1

>  <PUBCHEM_CACTVS_TAUTO_COUNT>  (1) 
1

>  <PUBCHEM_CONFORMER_ID>  (1) 
00002FB800000001

>  <PUBCHEM_MMFF94_ENERGY>  (1) 
0.886

>  <PUBCHEM_FEATURE_SELFOVERLAP>  (1) 
25.373

>  <PUBCHEM_SHAPE_FINGERPRINT>  (1) 
11062470 55 18412262835032944035
114248 4 10735873971993099455
12932764 1 16733530715143410874
14123238 8 12823294598212909155
17834072 33 18338799021473379470
17834076 25 11384113046538819554
18342897 14 17989486324902315040
18522853 276 18273495662930158409
190213 19 17989490723138742967
20645477 70 18271527477556947310
20719005 15 18411699889690942651
21119208 17 18343021090347609935
22485316 2 10592044648456162229
23402539 116 17989480819107682469
366044 4 18341892991771361887
42788 4 18273495667404155243

>  <PUBCHEM_SHAPE_MULTIPOLES>  (1) 
199.93
11.1
0.9
0.66
4.58
0.1
-0.01
0.31
-0.72
-0.31
0.08
-0.03
0.02
-0.18

>  <PUBCHEM_SHAPE_SELFOVERLAP>  (1) 
352.185

>  <PUBCHEM_SHAPE_VOLUME>  (1) 
131.7

>  <PUBCHEM_COORDINATE_TYPE>  (1) 
2
5
10

$$$$
