12214
     RDKit          3D

 11 10  0  0  1  0  0  0  0  0999 V2000
    0.3948   -0.1962   -0.0949 O   0  0  0  0  0  0  0  0  0  0  0  0
   -2.0534    0.3056   -1.3713 O   0  0  0  0  0  0  0  0  0  0  0  0
   -0.2792    2.0768   -0.1772 O   0  0  0  0  0  0  0  0  0  0  0  0
   -3.6899   -1.2661    0.2843 O   0  0  0  0  0  0  0  0  0  0  0  0
    2.1959    0.9708    0.7515 O   0  0  0  0  0  0  0  0  0  0  0  0
   -1.9505    0.3717    0.0519 C   0  0  0  0  0  0  0  0  0  0  0  0
   -0.5217    0.7990    0.4023 C   0  0  0  0  0  0  0  0  0  0  0  0
   -2.3387   -0.9855    0.6376 C   0  0  0  0  0  0  0  0  0  0  0  0
    2.5157   -1.1228   -0.4418 C   0  0  0  0  0  0  0  0  0  0  0  0
    1.7210    0.0169    0.1510 C   0  0  0  0  0  0  0  0  0  0  0  0
    4.0060   -0.9701   -0.1936 C   0  0  0  0  0  0  0  0  0  0  0  0
  1  7  1  0
  1 10  1  0
  2  6  1  0
  3  7  1  0
  4  8  1  0
  5 10  2  0
  6  7  1  0
  6  8  1  0
  9 10  1  0
  9 11  1  0
M  END
>  <PUBCHEM_COMPOUND_CID>  (1) 
12214

>  <PUBCHEM_CONFORMER_RMSD>  (1) 
0.6

>  <PUBCHEM_CONFORMER_DIVERSEORDER>  (1) 
4
96
213
109
160
189
159
254
9
253
148
176
183
60
129
220
228
95
104
203
2
222
201
113
229
145
32
152
121
208
162
123
150
122
83
10
186
226
231
94
252
144
110
49
167
182
136
93
1
200
62
138
171
143
114
99
24
225
166
204
120
16
107
84
133
194
31
141
184
106
251
192
227
131
117
178
35
190
134
238
170
245
153
175
237
81
20
128
137
7
246
63
57
157
127
197
242
180
48
218
124
39
139
206
52
44
161
68
85
115
185
33
168
58
173
241
209
249
236
64
125
154
135
3
193
244
13
211
221
223
66
22
29
54
78
43
65
132
212
240
140
6
18
108
147
191
235
34
233
59
155
89
177
28
250
126
8
118
165
97
174
92
37
88
26
53
17
247
207
142
198
76
130
205
195
47
163
232
15
87
91
67
239
179
164
172
215
56
243
210
5
82
42
100
73
12
55
102
71
230
40
219
112
187
69
248
217
46
119
151
38
146
45
149
196
41
224
214
202
156
79
103
27
14
70
80
36
30
90
181
188
111
199
86
101
61
23
77
25
11
21
216
98
234
72
51
50
74
75
169
19
158
105
116

>  <PUBCHEM_MMFF94_PARTIAL_CHARGES>  (1) 
13
1 -0.43
10 0.66
18 0.4
19 0.4
2 -0.68
23 0.4
3 -0.68
4 -0.68
5 -0.57
6 0.28
7 0.56
8 0.28
9 0.06

>  <PUBCHEM_EFFECTIVE_ROTOR_COUNT>  (1) 
5

>  <PUBCHEM_PHARMACOPHORE_FEATURES>  (1) 
8
1 11 hydrophobe
1 2 acceptor
1 2 donor
1 3 acceptor
1 3 donor
1 4 acceptor
1 4 donor
1 5 acceptor

>  <PUBCHEM_HEAVY_ATOM_COUNT>  (1) 
11

>  <PUBCHEM_ATOM_DEF_STEREO_COUNT>  (1) 
0

>  <PUBCHEM_ATOM_UDEF_STEREO_COUNT>  (1) 
2

>  <PUBCHEM_BOND_DEF_STEREO_COUNT>  (1) 
0

>  <PUBCHEM_BOND_UDEF_STEREO_COUNT>  (1) 
0

>  <PUBCHEM_ISOTOPIC_ATOM_COUNT>  (1) 
0

>  <PUBCHEM_COMPONENT_COUNT>  (1) 
1

>  <PUBCHEM_CACTVS_TAUTO_COUNT>  (1) 
1

>  <PUBCHEM_CONFORMER_ID>  (1) 
00002FB600000004

>  <PUBCHEM_MMFF94_ENERGY>  (1) 
10.9339

>  <PUBCHEM_FEATURE_SELFOVERLAP>  (1) 
40.615

>  <PUBCHEM_SHAPE_FINGERPRINT>  (1) 
12032990 46 18410578400393922122
12716758 59 18041831814479898809
12897270 3 18335417924634154326
12932741 1 18334564737828450204
12932764 1 17240197703468283288
14390081 3 9511468809754372523
15775835 57 7925914763947742355
20201158 50 18410577266512259802
20281407 28 18341620274106016562
20653085 51 14780663769265475109
20711983 138 18411144636318935619
20711985 344 18192418680552120697
20871998 22 18336550533422351273
20871999 31 17967533458768011679
21028194 46 7853275541243686982
21061003 4 18412269453846501313
23552423 10 18187651284164837392
29004967 10 18340203085063955929

>  <PUBCHEM_SHAPE_MULTIPOLES>  (1) 
197.03
5.92
1.5
0.85
2.01
0.38
-0.15
-3.22
-0.07
-0.27
0.06
-0.26
0.03
0.56

>  <PUBCHEM_SHAPE_SELFOVERLAP>  (1) 
369.328

>  <PUBCHEM_SHAPE_VOLUME>  (1) 
121.8

>  <PUBCHEM_COORDINATE_TYPE>  (1) 
2
5
10

$$$$
