12232
     RDKit          3D

  4  3  0  0  0  0  0  0  0  0999 V2000
   -0.8543   -0.6262    0.5724 S   0  0  0  0  0  0  0  0  0  0  0  0
    0.8542   -0.6263   -0.5724 S   0  0  0  0  0  0  0  0  0  0  0  0
   -1.8570    0.6262   -0.2633 C   0  0  0  0  0  0  0  0  0  0  0  0
    1.8571    0.6262    0.2633 C   0  0  0  0  0  0  0  0  0  0  0  0
  1  2  1  0
  1  3  1  0
  2  4  1  0
M  END
>  <PUBCHEM_COMPOUND_CID>  (1) 
12232

>  <PUBCHEM_CONFORMER_RMSD>  (1) 
0.4

>  <PUBCHEM_CONFORMER_DIVERSEORDER>  (1) 
1
3
5
4
2

>  <PUBCHEM_MMFF94_PARTIAL_CHARGES>  (1) 
4
1 -0.23
2 -0.23
3 0.23
4 0.23

>  <PUBCHEM_EFFECTIVE_ROTOR_COUNT>  (1) 
1

>  <PUBCHEM_PHARMACOPHORE_FEATURES>  (1) 
2
1 3 hydrophobe
1 4 hydrophobe

>  <PUBCHEM_HEAVY_ATOM_COUNT>  (1) 
4

>  <PUBCHEM_ATOM_DEF_STEREO_COUNT>  (1) 
0

>  <PUBCHEM_ATOM_UDEF_STEREO_COUNT>  (1) 
0

>  <PUBCHEM_BOND_DEF_STEREO_COUNT>  (1) 
0

>  <PUBCHEM_BOND_UDEF_STEREO_COUNT>  (1) 
0

>  <PUBCHEM_ISOTOPIC_ATOM_COUNT>  (1) 
0

>  <PUBCHEM_COMPONENT_COUNT>  (1) 
1

>  <PUBCHEM_CACTVS_TAUTO_COUNT>  (1) 
1

>  <PUBCHEM_CONFORMER_ID>  (1) 
00002FC800000001

>  <PUBCHEM_MMFF94_ENERGY>  (1) 
-3.9124

>  <PUBCHEM_FEATURE_SELFOVERLAP>  (1) 
10.149

>  <PUBCHEM_SHAPE_FINGERPRINT>  (1) 
20096714 4 18411138013146938515
5943 1 15013755574188084483

>  <PUBCHEM_SHAPE_MULTIPOLES>  (1) 
90.02
2.63
1.05
0.87
0
0.03
0
-0.81
0
0
0
0
0.09
0.33

>  <PUBCHEM_SHAPE_SELFOVERLAP>  (1) 
123.296

>  <PUBCHEM_SHAPE_VOLUME>  (1) 
72.3

>  <PUBCHEM_COORDINATE_TYPE>  (1) 
2
5
10

$$$$
