12238
     RDKit          3D

  9  8  0  0  0  0  0  0  0  0999 V2000
   -0.3814   -0.1958   -0.7724 O   0  0  0  0  0  0  0  0  0  0  0  0
   -1.5113    0.0568    1.2266 O   0  0  0  0  0  0  0  0  0  0  0  0
    0.8243   -0.4862   -0.0619 C   0  0  0  0  0  0  0  0  0  0  0  0
    1.2233    0.7351    0.7897 C   0  0  0  0  0  0  0  0  0  0  0  0
    0.5651   -1.7300    0.7896 C   0  0  0  0  0  0  0  0  0  0  0  0
    1.9181   -0.7843   -1.0923 C   0  0  0  0  0  0  0  0  0  0  0  0
    1.4934    2.0036   -0.0114 C   0  0  0  0  0  0  0  0  0  0  0  0
   -1.4746    0.0570    0.0036 C   0  0  0  0  0  0  0  0  0  0  0  0
   -2.6570    0.3438   -0.8715 C   0  0  0  0  0  0  0  0  0  0  0  0
  1  3  1  0
  1  8  1  0
  2  8  2  0
  3  4  1  0
  3  5  1  0
  3  6  1  0
  4  7  1  0
  8  9  1  0
M  END
>  <PUBCHEM_COMPOUND_CID>  (1) 
12238

>  <PUBCHEM_CONFORMER_RMSD>  (1) 
0.6

>  <PUBCHEM_CONFORMER_DIVERSEORDER>  (1) 
2
6
4
8
3
1
7
9
5

>  <PUBCHEM_MMFF94_PARTIAL_CHARGES>  (1) 
5
1 -0.43
2 -0.57
3 0.28
8 0.66
9 0.06

>  <PUBCHEM_EFFECTIVE_ROTOR_COUNT>  (1) 
3

>  <PUBCHEM_PHARMACOPHORE_FEATURES>  (1) 
3
1 2 acceptor
1 7 hydrophobe
3 3 5 6 hydrophobe

>  <PUBCHEM_HEAVY_ATOM_COUNT>  (1) 
9

>  <PUBCHEM_ATOM_DEF_STEREO_COUNT>  (1) 
0

>  <PUBCHEM_ATOM_UDEF_STEREO_COUNT>  (1) 
0

>  <PUBCHEM_BOND_DEF_STEREO_COUNT>  (1) 
0

>  <PUBCHEM_BOND_UDEF_STEREO_COUNT>  (1) 
0

>  <PUBCHEM_ISOTOPIC_ATOM_COUNT>  (1) 
0

>  <PUBCHEM_COMPONENT_COUNT>  (1) 
1

>  <PUBCHEM_CACTVS_TAUTO_COUNT>  (1) 
1

>  <PUBCHEM_CONFORMER_ID>  (1) 
00002FCE00000002

>  <PUBCHEM_MMFF94_ENERGY>  (1) 
20.1819

>  <PUBCHEM_FEATURE_SELFOVERLAP>  (1) 
15.224

>  <PUBCHEM_SHAPE_FINGERPRINT>  (1) 
12423570 1 14798784013054611514
12932741 1 18261398866371813495
12932764 1 18262231132623973175
137420 1 16680395428594044082
14128692 85 16415206641525827662
20653091 64 18272086071859064227
21028194 46 18053095413416367384
21040471 1 18116147955624790236
23552423 10 17560799905507759615
24536 1 17704347758384181991
29004967 10 18199202701887118070
5084963 1 18270110365491371136

>  <PUBCHEM_SHAPE_MULTIPOLES>  (1) 
173.48
2.89
1.61
1.15
1.81
0.3
-0.01
0.54
0.73
-1.07
-0.22
0
-0.17
0.26

>  <PUBCHEM_SHAPE_SELFOVERLAP>  (1) 
324.51

>  <PUBCHEM_SHAPE_VOLUME>  (1) 
109.3

>  <PUBCHEM_COORDINATE_TYPE>  (1) 
2
5
10

$$$$
