12234
     RDKit          3D

  7  6  0  0  1  0  0  0  0  0999 V2000
   -1.9472   -1.2007   -0.0292 S   0  0  0  0  0  0  0  0  0  0  0  0
    0.6488   -0.0554   -0.0043 N   0  0  0  0  0  0  0  0  0  0  0  0
   -0.8307    0.1574    0.4630 C   0  0  0  0  0  0  0  0  0  0  0  0
    1.5317    1.0801    0.5367 C   0  0  0  0  0  0  0  0  0  0  0  0
    1.2060   -1.3614    0.5852 C   0  0  0  0  0  0  0  0  0  0  0  0
    0.8130   -0.0993   -1.5227 C   0  0  0  0  0  0  0  0  0  0  0  0
   -1.4215    1.4794   -0.0286 C   0  0  0  0  0  0  0  0  0  0  0  0
  1  3  1  0
  2  3  1  0
  2  4  1  0
  2  5  1  0
  2  6  1  0
  3  7  1  0
M  CHG  1   2   1
M  END
>  <PUBCHEM_COMPOUND_CID>  (1) 
12234

>  <PUBCHEM_CONFORMER_RMSD>  (1) 
0.4

>  <PUBCHEM_CONFORMER_DIVERSEORDER>  (1) 
1
2

>  <PUBCHEM_MMFF94_PARTIAL_CHARGES>  (1) 
7
1 -0.41
2 -1.01
21 0.18
3 0.73
4 0.5
5 0.5
6 0.5

>  <PUBCHEM_EFFECTIVE_ROTOR_COUNT>  (1) 
1

>  <PUBCHEM_PHARMACOPHORE_FEATURES>  (1) 
1
1 2 cation

>  <PUBCHEM_HEAVY_ATOM_COUNT>  (1) 
7

>  <PUBCHEM_ATOM_DEF_STEREO_COUNT>  (1) 
0

>  <PUBCHEM_ATOM_UDEF_STEREO_COUNT>  (1) 
1

>  <PUBCHEM_BOND_DEF_STEREO_COUNT>  (1) 
0

>  <PUBCHEM_BOND_UDEF_STEREO_COUNT>  (1) 
0

>  <PUBCHEM_ISOTOPIC_ATOM_COUNT>  (1) 
0

>  <PUBCHEM_COMPONENT_COUNT>  (1) 
1

>  <PUBCHEM_CACTVS_TAUTO_COUNT>  (1) 
1

>  <PUBCHEM_CONFORMER_ID>  (1) 
00002FCA00000001

>  <PUBCHEM_MMFF94_ENERGY>  (1) 
26.9349

>  <PUBCHEM_FEATURE_SELFOVERLAP>  (1) 
5.074

>  <PUBCHEM_SHAPE_FINGERPRINT>  (1) 
137420 1 14888159460648406886
16714656 1 17485366999540149388
18185500 45 18263926703712792971
21040471 1 18121506747755156441
24536 1 17203052872161256137
29004967 10 18118966029923560891
5084963 1 18129102401771213192
5943 1 10635432991826531015

>  <PUBCHEM_SHAPE_MULTIPOLES>  (1) 
142.93
2.34
1.61
1.07
0.64
0.11
0.44
-0.21
-0.18
0.26
-0.23
-0.36
-0.08
0

>  <PUBCHEM_SHAPE_SELFOVERLAP>  (1) 
237.976

>  <PUBCHEM_SHAPE_VOLUME>  (1) 
102

>  <PUBCHEM_COORDINATE_TYPE>  (1) 
2
5
10

$$$$
