12235
     RDKit          3D

  8  7  0  0  0  0  0  0  0  0999 V2000
   -1.1566    1.2501    0.5623 O   0  0  0  0  0  0  0  0  0  0  0  0
   -1.1535   -0.0654    0.0077 C   0  0  0  0  0  0  0  0  0  0  0  0
    0.2053   -0.7533    0.2743 C   0  0  0  0  0  0  0  0  0  0  0  0
    1.4715   -0.0814   -0.3051 C   0  0  0  0  0  0  0  0  0  0  0  0
   -2.2716   -0.8520    0.7041 C   0  0  0  0  0  0  0  0  0  0  0  0
   -1.4693    0.0590   -1.4830 C   0  0  0  0  0  0  0  0  0  0  0  0
    1.6708    1.3575    0.1698 C   0  0  0  0  0  0  0  0  0  0  0  0
    2.7034   -0.9144    0.0698 C   0  0  0  0  0  0  0  0  0  0  0  0
  1  2  1  0
  2  3  1  0
  2  5  1  0
  2  6  1  0
  3  4  1  0
  4  7  1  0
  4  8  1  0
M  END
>  <PUBCHEM_COMPOUND_CID>  (1) 
12235

>  <PUBCHEM_CONFORMER_RMSD>  (1) 
0.4

>  <PUBCHEM_CONFORMER_DIVERSEORDER>  (1) 
1
2

>  <PUBCHEM_MMFF94_PARTIAL_CHARGES>  (1) 
3
1 -0.68
2 0.28
24 0.4

>  <PUBCHEM_EFFECTIVE_ROTOR_COUNT>  (1) 
2

>  <PUBCHEM_PHARMACOPHORE_FEATURES>  (1) 
4
1 1 acceptor
1 1 donor
3 2 5 6 hydrophobe
3 4 7 8 hydrophobe

>  <PUBCHEM_HEAVY_ATOM_COUNT>  (1) 
8

>  <PUBCHEM_ATOM_DEF_STEREO_COUNT>  (1) 
0

>  <PUBCHEM_ATOM_UDEF_STEREO_COUNT>  (1) 
0

>  <PUBCHEM_BOND_DEF_STEREO_COUNT>  (1) 
0

>  <PUBCHEM_BOND_UDEF_STEREO_COUNT>  (1) 
0

>  <PUBCHEM_ISOTOPIC_ATOM_COUNT>  (1) 
0

>  <PUBCHEM_COMPONENT_COUNT>  (1) 
1

>  <PUBCHEM_CACTVS_TAUTO_COUNT>  (1) 
1

>  <PUBCHEM_CONFORMER_ID>  (1) 
00002FCB00000001

>  <PUBCHEM_MMFF94_ENERGY>  (1) 
15.8807

>  <PUBCHEM_FEATURE_SELFOVERLAP>  (1) 
20.297

>  <PUBCHEM_SHAPE_FINGERPRINT>  (1) 
10857977 72 17387134376004400459
12932741 1 18040707082666958766
15310529 11 18202290224916144500
20711978 78 18271816751755904238
23235687 12 16702020906809465092
23552423 10 18260553350356529482
24536 1 18410565193485330088
29004967 10 18341335573345005626
369184 2 18342454854723056275
5084963 1 17676492756502068530

>  <PUBCHEM_SHAPE_MULTIPOLES>  (1) 
158.77
3.45
1.27
1.01
0.94
0.22
-0.32
-0.72
0.13
0.32
0.23
-0.54
0.09
0.25

>  <PUBCHEM_SHAPE_SELFOVERLAP>  (1) 
285.463

>  <PUBCHEM_SHAPE_VOLUME>  (1) 
104.8

>  <PUBCHEM_COORDINATE_TYPE>  (1) 
2
5
10

$$$$
