12246
     RDKit          3D

  6  5  0  0  1  0  0  0  0  0999 V2000
   -1.3499    1.3306   -0.2199 N   0  0  0  0  0  0  0  0  0  0  0  0
    0.3045   -0.5305   -0.1282 C   0  0  0  0  0  0  0  0  0  0  0  0
   -1.0614    0.0076    0.3337 C   0  0  0  0  0  0  0  0  0  0  0  0
    1.4804    0.3623    0.2788 C   0  0  0  0  0  0  0  0  0  0  0  0
   -2.1804   -0.9451   -0.0854 C   0  0  0  0  0  0  0  0  0  0  0  0
    2.8069   -0.2249   -0.1791 C   0  0  0  0  0  0  0  0  0  0  0  0
  1  3  1  0
  2  3  1  0
  2  4  1  0
  3  5  1  0
  4  6  1  0
M  END
>  <PUBCHEM_COMPOUND_CID>  (1) 
12246

>  <PUBCHEM_CONFORMER_RMSD>  (1) 
0.4

>  <PUBCHEM_CONFORMER_DIVERSEORDER>  (1) 
1
6
12
10
11
7
4
3
8
9
2
5

>  <PUBCHEM_MMFF94_PARTIAL_CHARGES>  (1) 
4
1 -0.99
18 0.36
19 0.36
3 0.27

>  <PUBCHEM_EFFECTIVE_ROTOR_COUNT>  (1) 
2

>  <PUBCHEM_PHARMACOPHORE_FEATURES>  (1) 
3
1 1 cation
1 1 donor
1 6 hydrophobe

>  <PUBCHEM_HEAVY_ATOM_COUNT>  (1) 
6

>  <PUBCHEM_ATOM_DEF_STEREO_COUNT>  (1) 
0

>  <PUBCHEM_ATOM_UDEF_STEREO_COUNT>  (1) 
1

>  <PUBCHEM_BOND_DEF_STEREO_COUNT>  (1) 
0

>  <PUBCHEM_BOND_UDEF_STEREO_COUNT>  (1) 
0

>  <PUBCHEM_ISOTOPIC_ATOM_COUNT>  (1) 
0

>  <PUBCHEM_COMPONENT_COUNT>  (1) 
1

>  <PUBCHEM_CACTVS_TAUTO_COUNT>  (1) 
1

>  <PUBCHEM_CONFORMER_ID>  (1) 
00002FD600000001

>  <PUBCHEM_MMFF94_ENERGY>  (1) 
-5.5574

>  <PUBCHEM_FEATURE_SELFOVERLAP>  (1) 
15.223

>  <PUBCHEM_SHAPE_FINGERPRINT>  (1) 
139733 1 9295025560643861187
14390081 3 18409164415961869144
16714656 1 18412828022748781095
20096714 4 18336546001973507960
21040471 1 18121213173692107577
23552423 10 18188214195632689338
23552449 1 18410852148740460341
29004967 10 16343992411603417602
5460574 1 8646776586129991026

>  <PUBCHEM_SHAPE_MULTIPOLES>  (1) 
118.5
3.63
1.07
0.65
1.57
0.21
0.02
-0.59
-0.19
-0.53
-0.08
0.01
0
0.09

>  <PUBCHEM_SHAPE_SELFOVERLAP>  (1) 
201.215

>  <PUBCHEM_SHAPE_VOLUME>  (1) 
80.2

>  <PUBCHEM_COORDINATE_TYPE>  (1) 
2
5
10

$$$$
