12243
     RDKit          3D

  6  5  0  0  0  0  0  0  0  0999 V2000
    1.5589   -0.1691    0.5927 C   0  0  0  0  0  0  0  0  0  0  0  0
   -0.9330   -0.0384    0.0280 C   0  0  0  0  0  0  0  0  0  0  0  0
    0.2061   -0.7219    0.2477 C   0  0  0  0  0  0  0  0  0  0  0  0
    2.3745    0.1195   -0.6576 C   0  0  0  0  0  0  0  0  0  0  0  0
   -2.2593   -0.6554   -0.3148 C   0  0  0  0  0  0  0  0  0  0  0  0
   -0.9472    1.4652    0.1040 C   0  0  0  0  0  0  0  0  0  0  0  0
  1  3  1  0
  1  4  1  0
  2  3  2  3
  2  5  1  0
  2  6  1  0
M  END
>  <PUBCHEM_COMPOUND_CID>  (1) 
12243

>  <PUBCHEM_CONFORMER_RMSD>  (1) 
0.4

>  <PUBCHEM_CONFORMER_DIVERSEORDER>  (1) 
2
3
1

>  <PUBCHEM_MMFF94_PARTIAL_CHARGES>  (1) 
6
1 0.14
2 -0.28
3 -0.29
5 0.14
6 0.14
9 0.15

>  <PUBCHEM_EFFECTIVE_ROTOR_COUNT>  (1) 
1

>  <PUBCHEM_PHARMACOPHORE_FEATURES>  (1) 
2
1 4 hydrophobe
3 2 5 6 hydrophobe

>  <PUBCHEM_HEAVY_ATOM_COUNT>  (1) 
6

>  <PUBCHEM_ATOM_DEF_STEREO_COUNT>  (1) 
0

>  <PUBCHEM_ATOM_UDEF_STEREO_COUNT>  (1) 
0

>  <PUBCHEM_BOND_DEF_STEREO_COUNT>  (1) 
0

>  <PUBCHEM_BOND_UDEF_STEREO_COUNT>  (1) 
0

>  <PUBCHEM_ISOTOPIC_ATOM_COUNT>  (1) 
0

>  <PUBCHEM_COMPONENT_COUNT>  (1) 
1

>  <PUBCHEM_CACTVS_TAUTO_COUNT>  (1) 
1

>  <PUBCHEM_CONFORMER_ID>  (1) 
00002FD300000002

>  <PUBCHEM_MMFF94_ENERGY>  (1) 
1.7658

>  <PUBCHEM_FEATURE_SELFOVERLAP>  (1) 
10.149

>  <PUBCHEM_SHAPE_FINGERPRINT>  (1) 
139733 1 8502384359710017539
16714656 1 18343867735812770303
20096714 4 18117281358887056216
21040471 1 17908979911665350745
23552423 10 18189616034013371226
24536 1 18041837311911417690
29004967 10 15554447405332867314
5460574 1 9799698103373871994

>  <PUBCHEM_SHAPE_MULTIPOLES>  (1) 
123.48
3.11
1.14
0.78
0.67
0.41
-0.02
-0.31
-0.62
-0.47
0.04
0.23
-0.02
-0.16

>  <PUBCHEM_SHAPE_SELFOVERLAP>  (1) 
215.802

>  <PUBCHEM_SHAPE_VOLUME>  (1) 
81.4

>  <PUBCHEM_COORDINATE_TYPE>  (1) 
2
5
10

$$$$
