12247
     RDKit          3D

  6  5  0  0  1  0  0  0  0  0999 V2000
    1.1919    1.3335    0.0523 O   0  0  0  0  0  0  0  0  0  0  0  0
    0.9495   -0.0159   -0.3414 C   0  0  0  0  0  0  0  0  0  0  0  0
   -0.2484   -0.5534    0.4476 C   0  0  0  0  0  0  0  0  0  0  0  0
    2.2032   -0.8341   -0.0594 C   0  0  0  0  0  0  0  0  0  0  0  0
   -1.4823    0.2728    0.2165 C   0  0  0  0  0  0  0  0  0  0  0  0
   -2.6138   -0.2029   -0.3155 C   0  0  0  0  0  0  0  0  0  0  0  0
  1  2  1  0
  2  3  1  0
  2  4  1  0
  3  5  1  0
  5  6  2  0
M  END
>  <PUBCHEM_COMPOUND_CID>  (1) 
12247

>  <PUBCHEM_CONFORMER_RMSD>  (1) 
0.4

>  <PUBCHEM_CONFORMER_DIVERSEORDER>  (1) 
1
2
12
11
5
8
4
3
6
10
7
9

>  <PUBCHEM_MMFF94_PARTIAL_CHARGES>  (1) 
9
1 -0.68
13 0.15
14 0.4
15 0.15
16 0.15
2 0.28
3 0.14
5 -0.29
6 -0.3

>  <PUBCHEM_EFFECTIVE_ROTOR_COUNT>  (1) 
2

>  <PUBCHEM_PHARMACOPHORE_FEATURES>  (1) 
3
1 1 acceptor
1 1 donor
1 6 hydrophobe

>  <PUBCHEM_HEAVY_ATOM_COUNT>  (1) 
6

>  <PUBCHEM_ATOM_DEF_STEREO_COUNT>  (1) 
0

>  <PUBCHEM_ATOM_UDEF_STEREO_COUNT>  (1) 
1

>  <PUBCHEM_BOND_DEF_STEREO_COUNT>  (1) 
0

>  <PUBCHEM_BOND_UDEF_STEREO_COUNT>  (1) 
0

>  <PUBCHEM_ISOTOPIC_ATOM_COUNT>  (1) 
0

>  <PUBCHEM_COMPONENT_COUNT>  (1) 
1

>  <PUBCHEM_CACTVS_TAUTO_COUNT>  (1) 
1

>  <PUBCHEM_CONFORMER_ID>  (1) 
00002FD700000001

>  <PUBCHEM_MMFF94_ENERGY>  (1) 
3.5042

>  <PUBCHEM_FEATURE_SELFOVERLAP>  (1) 
15.223

>  <PUBCHEM_SHAPE_FINGERPRINT>  (1) 
139733 1 9078819771653640554
16714656 1 16153432722614628167
20096714 4 18335986453634094105
21040471 1 18042128815541727906
23552449 11 18338785767378429346
24536 1 18411138073418925121
29004967 10 18341897350909615506
5460574 1 9295285036555527535

>  <PUBCHEM_SHAPE_MULTIPOLES>  (1) 
117.61
3.38
1.01
0.68
0.97
0.23
0
-0.53
0.38
-0.43
-0.03
0.06
-0.04
-0.01

>  <PUBCHEM_SHAPE_SELFOVERLAP>  (1) 
205.727

>  <PUBCHEM_SHAPE_VOLUME>  (1) 
78.1

>  <PUBCHEM_COORDINATE_TYPE>  (1) 
2
5
10

$$$$
