12245
     RDKit          3D

  6  5  0  0  1  0  0  0  0  0999 V2000
    1.4556    1.5427    0.1962 Cl  0  0  0  0  0  0  0  0  0  0  0  0
   -0.3298   -0.5414    0.1814 C   0  0  0  0  0  0  0  0  0  0  0  0
    1.0412   -0.1090   -0.3549 C   0  0  0  0  0  0  0  0  0  0  0  0
   -1.4793    0.3457   -0.3063 C   0  0  0  0  0  0  0  0  0  0  0  0
    2.1359   -1.0676    0.0991 C   0  0  0  0  0  0  0  0  0  0  0  0
   -2.8236   -0.1704    0.1846 C   0  0  0  0  0  0  0  0  0  0  0  0
  1  3  1  0
  2  3  1  0
  2  4  1  0
  3  5  1  0
  4  6  1  0
M  END
>  <PUBCHEM_COMPOUND_CID>  (1) 
12245

>  <PUBCHEM_CONFORMER_RMSD>  (1) 
0.4

>  <PUBCHEM_CONFORMER_DIVERSEORDER>  (1) 
1
11
6
12
7
9
3
4
5
10
8
2

>  <PUBCHEM_MMFF94_PARTIAL_CHARGES>  (1) 
2
1 -0.29
3 0.29

>  <PUBCHEM_EFFECTIVE_ROTOR_COUNT>  (1) 
2

>  <PUBCHEM_PHARMACOPHORE_FEATURES>  (1) 
1
1 6 hydrophobe

>  <PUBCHEM_HEAVY_ATOM_COUNT>  (1) 
6

>  <PUBCHEM_ATOM_DEF_STEREO_COUNT>  (1) 
0

>  <PUBCHEM_ATOM_UDEF_STEREO_COUNT>  (1) 
1

>  <PUBCHEM_BOND_DEF_STEREO_COUNT>  (1) 
0

>  <PUBCHEM_BOND_UDEF_STEREO_COUNT>  (1) 
0

>  <PUBCHEM_ISOTOPIC_ATOM_COUNT>  (1) 
0

>  <PUBCHEM_COMPONENT_COUNT>  (1) 
1

>  <PUBCHEM_CACTVS_TAUTO_COUNT>  (1) 
1

>  <PUBCHEM_CONFORMER_ID>  (1) 
00002FD500000001

>  <PUBCHEM_MMFF94_ENERGY>  (1) 
-0.0067

>  <PUBCHEM_FEATURE_SELFOVERLAP>  (1) 
5.074

>  <PUBCHEM_SHAPE_FINGERPRINT>  (1) 
12932741 1 17967246512076805695
14390081 3 18200876308871577345
20096714 4 18341894159648635796
21040471 1 18122344837613717116
23552449 11 18336536162208662210
29004967 10 18341611456411576730
5460574 1 10447922862946607807

>  <PUBCHEM_SHAPE_MULTIPOLES>  (1) 
125.35
3.62
1.31
0.68
2.08
0.38
0.01
-0.34
-0.22
-0.97
-0.1
0
0.02
0.09

>  <PUBCHEM_SHAPE_SELFOVERLAP>  (1) 
206.274

>  <PUBCHEM_SHAPE_VOLUME>  (1) 
87.1

>  <PUBCHEM_COORDINATE_TYPE>  (1) 
2
5
10

$$$$
