12267
     RDKit          3D

 13 12  0  0  0  0  0  0  0  0999 V2000
   -2.8739   -1.4845   -0.5431 F   0  0  0  0  0  0  0  0  0  0  0  0
   -1.5596   -1.1508    1.1634 F   0  0  0  0  0  0  0  0  0  0  0  0
   -2.7631    0.4923    0.3690 F   0  0  0  0  0  0  0  0  0  0  0  0
    3.3696   -0.6594   -0.4610 F   0  0  0  0  0  0  0  0  0  0  0  0
    2.2372   -0.0421    1.2963 F   0  0  0  0  0  0  0  0  0  0  0  0
    1.5150   -1.6854    0.0483 F   0  0  0  0  0  0  0  0  0  0  0  0
   -0.0390    2.6494    0.5431 O   0  0  0  0  0  0  0  0  0  0  0  0
    0.0065    0.7201   -0.3032 N   0  0  0  0  0  0  0  0  0  0  0  0
   -0.4222    1.9601   -0.4096 N   0  0  0  0  0  0  0  0  0  0  0  0
   -0.9168   -0.2350   -0.9234 C   0  0  0  0  0  0  0  0  0  0  0  0
    1.3604    0.5069   -0.8336 C   0  0  0  0  0  0  0  0  0  0  0  0
   -2.0346   -0.5925    0.0297 C   0  0  0  0  0  0  0  0  0  0  0  0
    2.1205   -0.4790    0.0242 C   0  0  0  0  0  0  0  0  0  0  0  0
  1 12  1  0
  2 12  1  0
  3 12  1  0
  4 13  1  0
  5 13  1  0
  6 13  1  0
  7  9  2  0
  8  9  1  0
  8 10  1  0
  8 11  1  0
 10 12  1  0
 11 13  1  0
M  END
>  <PUBCHEM_COMPOUND_CID>  (1) 
12267

>  <PUBCHEM_CONFORMER_RMSD>  (1) 
0.6

>  <PUBCHEM_CONFORMER_DIVERSEORDER>  (1) 
1
22
19
6
14
12
21
13
17
11
10
9
18
3
8
20
7
16
5
2
15
4

>  <PUBCHEM_MMFF94_PARTIAL_CHARGES>  (1) 
13
1 -0.34
10 0.27
11 0.27
12 1.02
13 1.02
2 -0.34
3 -0.34
4 -0.34
5 -0.34
6 -0.34
7 -0.16
8 -0.36
9 -0.01

>  <PUBCHEM_EFFECTIVE_ROTOR_COUNT>  (1) 
5

>  <PUBCHEM_PHARMACOPHORE_FEATURES>  (1) 
0

>  <PUBCHEM_HEAVY_ATOM_COUNT>  (1) 
13

>  <PUBCHEM_ATOM_DEF_STEREO_COUNT>  (1) 
0

>  <PUBCHEM_ATOM_UDEF_STEREO_COUNT>  (1) 
0

>  <PUBCHEM_BOND_DEF_STEREO_COUNT>  (1) 
0

>  <PUBCHEM_BOND_UDEF_STEREO_COUNT>  (1) 
0

>  <PUBCHEM_ISOTOPIC_ATOM_COUNT>  (1) 
0

>  <PUBCHEM_COMPONENT_COUNT>  (1) 
1

>  <PUBCHEM_CACTVS_TAUTO_COUNT>  (1) 
1

>  <PUBCHEM_CONFORMER_ID>  (1) 
00002FEB00000001

>  <PUBCHEM_MMFF94_ENERGY>  (1) 
24.4907

>  <PUBCHEM_FEATURE_SELFOVERLAP>  (1) 
0

>  <PUBCHEM_SHAPE_FINGERPRINT>  (1) 
10857977 72 18341321266877436298
12382932 28 18410290306893610019
14128692 85 17895483612729695006
15076042 46 17979072687082708828
15310529 11 14923943431467417479
16945 1 18265886973719896541
18511873 20 18261114028631012349
20201158 50 18040995150318612122
20653091 64 18196659720407251745
20711983 138 18261678056273234354
23552333 60 17603589621027102036
29004967 10 18408885169751184854
528862 383 17977091684909862428
81228 2 18265051336340701601

>  <PUBCHEM_SHAPE_MULTIPOLES>  (1) 
208.06
4.03
1.89
0.96
0.35
1.2
0.11
-1.9
0.13
-0.29
0.21
0.08
-0.04
-0.06

>  <PUBCHEM_SHAPE_SELFOVERLAP>  (1) 
411.199

>  <PUBCHEM_SHAPE_VOLUME>  (1) 
125.9

>  <PUBCHEM_COORDINATE_TYPE>  (1) 
2
5
10

$$$$
