12269
     RDKit          3D

  8  8  0  0  0  0  0  0  0  0999 V2000
    3.0571   -1.1062   -0.0003 I   0  0  0  0  0  0  0  0  0  0  0  0
   -2.6472   -1.3407   -0.0004 Cl  0  0  0  0  0  0  0  0  0  0  0  0
    0.0326   -0.9835    0.0004 C   0  0  0  0  0  0  0  0  0  0  0  0
    1.1870   -0.2005    0.0002 C   0  0  0  0  0  0  0  0  0  0  0  0
   -1.2227   -0.3751    0.0003 C   0  0  0  0  0  0  0  0  0  0  0  0
    1.0860    1.1908   -0.0001 C   0  0  0  0  0  0  0  0  0  0  0  0
   -1.3235    1.0161    0.0001 C   0  0  0  0  0  0  0  0  0  0  0  0
   -0.1692    1.7991   -0.0001 C   0  0  0  0  0  0  0  0  0  0  0  0
  1  4  1  0
  2  5  1  0
  3  4  2  0
  3  5  1  0
  4  6  1  0
  5  7  2  0
  6  8  2  0
  7  8  1  0
M  END
>  <PUBCHEM_COMPOUND_CID>  (1) 
12269

>  <PUBCHEM_CONFORMER_RMSD>  (1) 
0.4

>  <PUBCHEM_CONFORMER_DIVERSEORDER>  (1) 
1

>  <PUBCHEM_MMFF94_PARTIAL_CHARGES>  (1) 
12
1 -0.08
10 0.15
11 0.15
12 0.15
2 -0.18
3 -0.15
4 0.08
5 0.18
6 -0.15
7 -0.15
8 -0.15
9 0.15

>  <PUBCHEM_EFFECTIVE_ROTOR_COUNT>  (1) 
0

>  <PUBCHEM_PHARMACOPHORE_FEATURES>  (1) 
2
1 1 hydrophobe
6 3 4 5 6 7 8 rings

>  <PUBCHEM_HEAVY_ATOM_COUNT>  (1) 
8

>  <PUBCHEM_ATOM_DEF_STEREO_COUNT>  (1) 
0

>  <PUBCHEM_ATOM_UDEF_STEREO_COUNT>  (1) 
0

>  <PUBCHEM_BOND_DEF_STEREO_COUNT>  (1) 
0

>  <PUBCHEM_BOND_UDEF_STEREO_COUNT>  (1) 
0

>  <PUBCHEM_ISOTOPIC_ATOM_COUNT>  (1) 
0

>  <PUBCHEM_COMPONENT_COUNT>  (1) 
1

>  <PUBCHEM_CACTVS_TAUTO_COUNT>  (1) 
1

>  <PUBCHEM_CONFORMER_ID>  (1) 
00002FED00000001

>  <PUBCHEM_MMFF94_ENERGY>  (1) 
15.4933

>  <PUBCHEM_FEATURE_SELFOVERLAP>  (1) 
10.148

>  <PUBCHEM_SHAPE_FINGERPRINT>  (1) 
10857977 72 18341319025210606106
12716758 59 17908425753858124382
14128692 85 18409173220512736382
16714656 1 18194404385935513788
16945 1 18194402186748844832
20871998 184 18201717297827872734
20871998 22 18342749511007587694
21040471 1 17762055441405335776
23552423 10 18259990362012068654
241688 4 18409166597399047944
2748010 2 18410846685547126828
29004967 10 18119528979781828705
369184 2 18266455395962721778
5084963 1 18272370884088732354

>  <PUBCHEM_SHAPE_MULTIPOLES>  (1) 
178.44
3.91
1.88
0.66
1.94
0.42
0
-2.29
0
-0.57
0
0.11
-0.04
0

>  <PUBCHEM_SHAPE_SELFOVERLAP>  (1) 
337.248

>  <PUBCHEM_SHAPE_VOLUME>  (1) 
115.2

>  <PUBCHEM_COORDINATE_TYPE>  (1) 
2
5
10

$$$$
