1227
     RDKit          3D

 13 14  0  0  1  0  0  0  0  0999 V2000
   -3.3613    0.8911    0.6587 O   0  0  0  0  0  0  0  0  0  0  0  0
   -1.5260    0.3044   -0.6949 N   0  0  0  0  0  0  0  0  0  0  0  0
    0.9101    0.7455    0.6103 N   0  0  0  0  0  0  0  0  0  0  0  0
   -0.5045   -0.7312   -0.7212 C   0  0  0  0  0  0  0  0  0  0  0  0
   -1.0925   -1.8051    0.1935 C   0  0  0  0  0  0  0  0  0  0  0  0
   -1.9891   -1.0400    1.1626 C   0  0  0  0  0  0  0  0  0  0  0  0
   -2.4193    0.1689    0.3672 C   0  0  0  0  0  0  0  0  0  0  0  0
    0.8695   -0.2722   -0.2783 C   0  0  0  0  0  0  0  0  0  0  0  0
   -1.5788    1.3531   -1.6945 C   0  0  0  0  0  0  0  0  0  0  0  0
    1.9926   -0.9005   -0.7910 C   0  0  0  0  0  0  0  0  0  0  0  0
    3.2388   -0.4552   -0.3640 C   0  0  0  0  0  0  0  0  0  0  0  0
    2.1387    1.1513    1.0021 C   0  0  0  0  0  0  0  0  0  0  0  0
    3.3218    0.5898    0.5496 C   0  0  0  0  0  0  0  0  0  0  0  0
  1  7  2  0
  2  4  1  0
  2  7  1  0
  2  9  1  0
  3  8  2  0
  3 12  1  0
  4  5  1  0
  4  8  1  0
  5  6  1  0
  6  7  1  0
  8 10  1  0
 10 11  2  0
 11 13  1  0
 12 13  2  0
M  END
>  <PUBCHEM_COMPOUND_CID>  (1) 
1227

>  <PUBCHEM_CONFORMER_RMSD>  (1) 
0.6

>  <PUBCHEM_CONFORMER_DIVERSEORDER>  (1) 
2
8
7
1
5
3
6
4

>  <PUBCHEM_MMFF94_PARTIAL_CHARGES>  (1) 
16
1 -0.57
10 -0.15
11 -0.15
12 0.16
13 -0.15
2 -0.66
22 0.15
23 0.15
24 0.15
25 0.15
3 -0.62
4 0.44
6 0.06
7 0.57
8 0.17
9 0.3

>  <PUBCHEM_EFFECTIVE_ROTOR_COUNT>  (1) 
1.8

>  <PUBCHEM_PHARMACOPHORE_FEATURES>  (1) 
4
1 1 acceptor
1 3 acceptor
5 2 4 5 6 7 rings
6 3 8 10 11 12 13 rings

>  <PUBCHEM_HEAVY_ATOM_COUNT>  (1) 
13

>  <PUBCHEM_ATOM_DEF_STEREO_COUNT>  (1) 
0

>  <PUBCHEM_ATOM_UDEF_STEREO_COUNT>  (1) 
1

>  <PUBCHEM_BOND_DEF_STEREO_COUNT>  (1) 
0

>  <PUBCHEM_BOND_UDEF_STEREO_COUNT>  (1) 
0

>  <PUBCHEM_ISOTOPIC_ATOM_COUNT>  (1) 
0

>  <PUBCHEM_COMPONENT_COUNT>  (1) 
1

>  <PUBCHEM_CACTVS_TAUTO_COUNT>  (1) 
2

>  <PUBCHEM_CONFORMER_ID>  (1) 
000004CB00000002

>  <PUBCHEM_MMFF94_ENERGY>  (1) 
28.0123

>  <PUBCHEM_FEATURE_SELFOVERLAP>  (1) 
20.297

>  <PUBCHEM_SHAPE_FINGERPRINT>  (1) 
10130415 120 18272087141875750058
10857977 72 18040443221509397383
124424 183 18338220588716847762
12696612 119 18265336294788889036
12897270 3 7853583374303006490
12932764 1 18187639211280858602
13024252 1 15574701513497130631
13380536 127 16732979812784232132
13581323 91 17530963587856506498
13764800 53 17750225916166972437
15076042 46 16660635198903426257
15219456 202 18343305898561762282
15775835 57 18260830379883904978
15906896 17 14780920024484595215
16945 1 17603586322286516447
17844478 74 18335146400880533632
19049666 15 18192712237429739726
19422 9 15574715742691971418
20645464 45 18411979169680999666
20653085 51 17275107215009128673
21501502 16 18269272537820922894
25 1 18130229224884813233
2748010 2 18058445572841245070
369184 2 17775567575958992307
528886 8 17561079198551438666
63268167 104 17203612579467116626
74978 22 17274821402289535422
77492 1 15769775740904448302
8030462 33 12463300197590930100
81228 2 18046061820401354323

>  <PUBCHEM_SHAPE_MULTIPOLES>  (1) 
251.7
5.09
1.46
1.25
1.58
0.15
0.14
-0.8
-1.01
-0.59
0.11
-0.23
-0.29
0.84

>  <PUBCHEM_SHAPE_SELFOVERLAP>  (1) 
531.324

>  <PUBCHEM_SHAPE_VOLUME>  (1) 
142.6

>  <PUBCHEM_COORDINATE_TYPE>  (1) 
2
5
10

$$$$
