12272
     RDKit          3D

  8  8  0  0  0  0  0  0  0  0999 V2000
    3.0976   -0.8962    0.0000 I   0  0  0  0  0  0  0  0  0  0  0  0
   -2.2901   -1.3439   -0.0003 O   0  0  0  0  0  0  0  0  0  0  0  0
   -1.2254   -0.4961    0.0002 C   0  0  0  0  0  0  0  0  0  0  0  0
    0.0729   -1.0061    0.0001 C   0  0  0  0  0  0  0  0  0  0  0  0
   -1.4328    0.8834    0.0001 C   0  0  0  0  0  0  0  0  0  0  0  0
    1.1638   -0.1366   -0.0001 C   0  0  0  0  0  0  0  0  0  0  0  0
   -0.3422    1.7528    0.0000 C   0  0  0  0  0  0  0  0  0  0  0  0
    0.9561    1.2428   -0.0002 C   0  0  0  0  0  0  0  0  0  0  0  0
  1  6  1  0
  2  3  1  0
  3  4  2  0
  3  5  1  0
  4  6  1  0
  5  7  2  0
  6  8  2  0
  7  8  1  0
M  END
>  <PUBCHEM_COMPOUND_CID>  (1) 
12272

>  <PUBCHEM_CONFORMER_RMSD>  (1) 
0.4

>  <PUBCHEM_CONFORMER_DIVERSEORDER>  (1) 
1

>  <PUBCHEM_MMFF94_PARTIAL_CHARGES>  (1) 
13
1 -0.08
10 0.15
11 0.15
12 0.15
13 0.45
2 -0.53
3 0.08
4 -0.15
5 -0.15
6 0.08
7 -0.15
8 -0.15
9 0.15

>  <PUBCHEM_EFFECTIVE_ROTOR_COUNT>  (1) 
0

>  <PUBCHEM_PHARMACOPHORE_FEATURES>  (1) 
3
1 1 hydrophobe
1 2 donor
6 3 4 5 6 7 8 rings

>  <PUBCHEM_HEAVY_ATOM_COUNT>  (1) 
8

>  <PUBCHEM_ATOM_DEF_STEREO_COUNT>  (1) 
0

>  <PUBCHEM_ATOM_UDEF_STEREO_COUNT>  (1) 
0

>  <PUBCHEM_BOND_DEF_STEREO_COUNT>  (1) 
0

>  <PUBCHEM_BOND_UDEF_STEREO_COUNT>  (1) 
0

>  <PUBCHEM_ISOTOPIC_ATOM_COUNT>  (1) 
0

>  <PUBCHEM_COMPONENT_COUNT>  (1) 
1

>  <PUBCHEM_CACTVS_TAUTO_COUNT>  (1) 
3

>  <PUBCHEM_CONFORMER_ID>  (1) 
00002FF000000001

>  <PUBCHEM_MMFF94_ENERGY>  (1) 
16.8038

>  <PUBCHEM_FEATURE_SELFOVERLAP>  (1) 
15.223

>  <PUBCHEM_SHAPE_FINGERPRINT>  (1) 
10857977 72 18341317938631301018
12716758 59 18052542058662341998
14128692 85 18408892858011624724
16714656 1 18266461997121701372
16945 1 18266740173437019076
20871998 184 18201718414508794198
21040471 1 17906452121653634724
23552423 10 18259989275422214078
241688 4 18409166614589499112
2748010 2 18410567426789371652
29004967 10 18119530087756836017
369184 2 18266173942444997370

>  <PUBCHEM_SHAPE_MULTIPOLES>  (1) 
170.7
3.6
1.71
0.65
2.9
0.24
0
-1.22
0
-0.73
0
0.15
0
0

>  <PUBCHEM_SHAPE_SELFOVERLAP>  (1) 
331.843

>  <PUBCHEM_SHAPE_VOLUME>  (1) 
106.2

>  <PUBCHEM_COORDINATE_TYPE>  (1) 
2
5
10

$$$$
