12289
     RDKit          3D

  7  7  0  0  0  0  0  0  0  0999 V2000
   -3.0132    0.0000    0.1641 I   0  0  0  0  0  0  0  0  0  0  0  0
   -0.9289    0.0000   -0.3979 C   0  0  0  0  0  0  0  0  0  0  0  0
   -0.2449    1.2655    0.1324 C   0  0  0  0  0  0  0  0  0  0  0  0
   -0.2448   -1.2655    0.1326 C   0  0  0  0  0  0  0  0  0  0  0  0
    1.2499    1.2624   -0.1833 C   0  0  0  0  0  0  0  0  0  0  0  0
    1.2497   -1.2624   -0.1835 C   0  0  0  0  0  0  0  0  0  0  0  0
    1.9321   -0.0001    0.3355 C   0  0  0  0  0  0  0  0  0  0  0  0
  1  2  1  0
  2  3  1  0
  2  4  1  0
  3  5  1  0
  4  6  1  0
  5  7  1  0
  6  7  1  0
M  END
>  <PUBCHEM_COMPOUND_CID>  (1) 
12289

>  <PUBCHEM_CONFORMER_RMSD>  (1) 
0.4

>  <PUBCHEM_CONFORMER_DIVERSEORDER>  (1) 
1
2
3
4

>  <PUBCHEM_MMFF94_PARTIAL_CHARGES>  (1) 
2
1 -0.19
2 0.19

>  <PUBCHEM_EFFECTIVE_ROTOR_COUNT>  (1) 
1.2

>  <PUBCHEM_PHARMACOPHORE_FEATURES>  (1) 
2
1 1 hydrophobe
6 2 3 4 5 6 7 rings

>  <PUBCHEM_HEAVY_ATOM_COUNT>  (1) 
7

>  <PUBCHEM_ATOM_DEF_STEREO_COUNT>  (1) 
0

>  <PUBCHEM_ATOM_UDEF_STEREO_COUNT>  (1) 
0

>  <PUBCHEM_BOND_DEF_STEREO_COUNT>  (1) 
0

>  <PUBCHEM_BOND_UDEF_STEREO_COUNT>  (1) 
0

>  <PUBCHEM_ISOTOPIC_ATOM_COUNT>  (1) 
0

>  <PUBCHEM_COMPONENT_COUNT>  (1) 
1

>  <PUBCHEM_CACTVS_TAUTO_COUNT>  (1) 
1

>  <PUBCHEM_CONFORMER_ID>  (1) 
0000300100000001

>  <PUBCHEM_MMFF94_ENERGY>  (1) 
2.6506

>  <PUBCHEM_FEATURE_SELFOVERLAP>  (1) 
10.148

>  <PUBCHEM_SHAPE_FINGERPRINT>  (1) 
18185500 45 18342450443812716319
20096714 4 18339358690092904934
21040471 1 18194964273292474900
23235685 24 18410852204717219616
23552333 60 18341614789184710593
23552423 10 18190186684869177263
29004967 10 18335140869173523145
5084963 1 18272653415732723921

>  <PUBCHEM_SHAPE_MULTIPOLES>  (1) 
155.99
3.54
1.51
0.72
2.74
0
-0.01
0
-0.28
-0.49
0.02
0.1
0
0

>  <PUBCHEM_SHAPE_SELFOVERLAP>  (1) 
275.236

>  <PUBCHEM_SHAPE_VOLUME>  (1) 
104.6

>  <PUBCHEM_COORDINATE_TYPE>  (1) 
2
5
10

$$$$
