1228
     RDKit          3D

 16 16  0  0  1  0  0  0  0  0999 V2000
    4.6186   -0.0939   -0.0906 P   0  0  0  0  0  0  0  0  0  0  0  0
   -4.4572   -1.8661   -0.3865 O   0  0  0  0  0  0  0  0  0  0  0  0
   -5.1915   -0.0124    0.7183 O   0  0  0  0  0  0  0  0  0  0  0  0
    5.6953   -0.9574    0.7381 O   0  0  0  0  0  0  0  0  0  0  0  0
    4.5696    1.3157    0.6856 O   0  0  0  0  0  0  0  0  0  0  0  0
    4.8232   -0.0263   -1.5632 O   0  0  0  0  0  0  0  0  0  0  0  0
   -0.6216   -0.0750   -0.2521 N   0  0  0  0  0  0  0  0  0  0  0  0
   -3.0848    1.4162    0.0203 N   0  0  0  0  0  0  0  0  0  0  0  0
   -1.8792   -0.7440    0.1064 C   0  0  0  0  0  0  0  0  0  0  0  0
   -0.6227    1.3106    0.2348 C   0  0  0  0  0  0  0  0  0  0  0  0
   -3.0781    0.0317   -0.4489 C   0  0  0  0  0  0  0  0  0  0  0  0
    0.5265   -0.8098    0.2755 C   0  0  0  0  0  0  0  0  0  0  0  0
   -1.8253    2.0794   -0.3175 C   0  0  0  0  0  0  0  0  0  0  0  0
    1.8274   -0.1286   -0.1449 C   0  0  0  0  0  0  0  0  0  0  0  0
    3.0535   -0.8580    0.3898 C   0  0  0  0  0  0  0  0  0  0  0  0
   -4.3537   -0.5819    0.0350 C   0  0  0  0  0  0  0  0  0  0  0  0
  1  4  1  0
  1  5  1  0
  1  6  2  0
  1 15  1  0
  2 16  1  0
  3 16  2  0
  7  9  1  0
  7 10  1  0
  7 12  1  0
  8 11  1  0
  8 13  1  0
  9 11  1  0
 10 13  1  0
 11 16  1  0
 12 14  1  0
 14 15  1  0
M  END
>  <PUBCHEM_COMPOUND_CID>  (1) 
1228

>  <PUBCHEM_CONFORMER_RMSD>  (1) 
0.8

>  <PUBCHEM_CONFORMER_DIVERSEORDER>  (1) 
1
38
26
6
28
27
15
42
33
40
34
11
31
32
25
13
23
8
2
21
3
39
5
9
44
10
17
4
19
24
22
7
41
20
16
30
37
43
18
35
36
12
14
29

>  <PUBCHEM_MMFF94_PARTIAL_CHARGES>  (1) 
18
1 1.24
10 0.27
11 0.33
12 0.27
13 0.27
16 0.66
2 -0.65
28 0.36
3 -0.57
31 0.5
32 0.5
33 0.5
4 -0.77
5 -0.77
6 -0.7
7 -0.81
8 -0.9
9 0.27

>  <PUBCHEM_EFFECTIVE_ROTOR_COUNT>  (1) 
6.2

>  <PUBCHEM_PHARMACOPHORE_FEATURES>  (1) 
11
1 2 acceptor
1 3 acceptor
1 4 acceptor
1 5 acceptor
1 6 acceptor
1 7 cation
1 8 cation
1 8 donor
3 2 3 16 anion
4 1 4 5 6 anion
6 7 8 9 10 11 13 rings

>  <PUBCHEM_HEAVY_ATOM_COUNT>  (1) 
16

>  <PUBCHEM_ATOM_DEF_STEREO_COUNT>  (1) 
0

>  <PUBCHEM_ATOM_UDEF_STEREO_COUNT>  (1) 
1

>  <PUBCHEM_BOND_DEF_STEREO_COUNT>  (1) 
0

>  <PUBCHEM_BOND_UDEF_STEREO_COUNT>  (1) 
0

>  <PUBCHEM_ISOTOPIC_ATOM_COUNT>  (1) 
0

>  <PUBCHEM_COMPONENT_COUNT>  (1) 
1

>  <PUBCHEM_CACTVS_TAUTO_COUNT>  (1) 
1

>  <PUBCHEM_CONFORMER_ID>  (1) 
000004CC00000001

>  <PUBCHEM_MMFF94_ENERGY>  (1) 
-10.5292

>  <PUBCHEM_FEATURE_SELFOVERLAP>  (1) 
55.915

>  <PUBCHEM_SHAPE_FINGERPRINT>  (1) 
11287383 113 18060137665365043594
12236239 1 17749392554813722502
124424 183 11963397331648729951
13081056 2 18342737421117423216
13167823 11 18260823744555337850
13533116 47 18040710334558959362
13862211 1 18409726292004856271
14123238 8 17821729442127444918
1420 363 18260552220732762002
15048467 5 17418098689796485529
17834072 33 18186803582390981974
187816 3 17603585235960380163
18785283 64 17558250279903897768
200 152 17385443215319771327
20300324 65 18409167701268816297
20645477 70 16916797245470202822
21267235 1 18408610240742613186
21652331 79 18411133658477784072
2297311 6 18272663332691014644
23402539 116 18408035217493769663
23557571 272 18130239163465770188
23559900 14 18053092922504355042
4214541 1 18337951190913827896
4463277 17 18410293610488371001
474229 33 18410571794787332079
5104073 3 18336826368853814928
5374978 207 18408880746499262272
542803 24 17346600780909203050
59345606 84 18410290307120346191
7495541 125 17988637536659911498

>  <PUBCHEM_SHAPE_MULTIPOLES>  (1) 
293.81
12.46
1.58
0.83
8.13
0.51
-0.15
-2.54
0.38
-1.11
0.01
0.67
0
-0.17

>  <PUBCHEM_SHAPE_SELFOVERLAP>  (1) 
563.246

>  <PUBCHEM_SHAPE_VOLUME>  (1) 
179.8

>  <PUBCHEM_COORDINATE_TYPE>  (1) 
2
5
10

$$$$
