12285
     RDKit          3D

 10  9  0  0  0  0  0  0  0  0999 V2000
   -0.0533    1.0896    0.6918 O   0  0  0  0  0  0  0  0  0  0  0  0
    2.5470    1.1820   -0.2948 O   0  0  0  0  0  0  0  0  0  0  0  0
   -2.6180    1.1669   -0.3631 O   0  0  0  0  0  0  0  0  0  0  0  0
    1.2996   -0.8338    0.1717 C   0  0  0  0  0  0  0  0  0  0  0  0
   -1.2424   -0.8115   -0.1873 C   0  0  0  0  0  0  0  0  0  0  0  0
   -0.0001   -0.0546    0.2443 C   0  0  0  0  0  0  0  0  0  0  0  0
    2.5577   -0.0294   -0.0833 C   0  0  0  0  0  0  0  0  0  0  0  0
   -2.5476   -0.0435   -0.1567 C   0  0  0  0  0  0  0  0  0  0  0  0
    3.8477   -0.8080   -0.1167 C   0  0  0  0  0  0  0  0  0  0  0  0
   -3.7906   -0.8577    0.0940 C   0  0  0  0  0  0  0  0  0  0  0  0
  1  6  2  0
  2  7  2  0
  3  8  2  0
  4  6  1  0
  4  7  1  0
  5  6  1  0
  5  8  1  0
  7  9  1  0
  8 10  1  0
M  END
>  <PUBCHEM_COMPOUND_CID>  (1) 
12285

>  <PUBCHEM_CONFORMER_RMSD>  (1) 
0.6

>  <PUBCHEM_CONFORMER_DIVERSEORDER>  (1) 
1
99
120
21
113
85
105
24
98
23
48
102
83
66
107
25
94
108
13
5
78
59
124
63
114
29
52
41
95
60
111
129
49
61
18
86
118
40
69
106
84
9
82
16
112
42
14
35
55
2
12
75
80
74
57
117
64
92
97
51
3
62
50
91
65
38
101
127
17
125
89
81
20
37
68
103
126
30
100
93
47
22
104
67
109
32
110
115
27
53
122
123
4
56
128
90
72
31
46
73
26
87
7
119
54
79
8
6
70
10
15
96
116
28
33
34
39
71
88
121
45
11
36
77
58
44
43
76
19

>  <PUBCHEM_MMFF94_PARTIAL_CHARGES>  (1) 
10
1 -0.57
10 0.06
2 -0.57
3 -0.57
4 0.12
5 0.12
6 0.45
7 0.45
8 0.45
9 0.06

>  <PUBCHEM_EFFECTIVE_ROTOR_COUNT>  (1) 
4

>  <PUBCHEM_PHARMACOPHORE_FEATURES>  (1) 
5
1 1 acceptor
1 2 acceptor
1 3 acceptor
1 4 anion
1 5 anion

>  <PUBCHEM_HEAVY_ATOM_COUNT>  (1) 
10

>  <PUBCHEM_ATOM_DEF_STEREO_COUNT>  (1) 
0

>  <PUBCHEM_ATOM_UDEF_STEREO_COUNT>  (1) 
0

>  <PUBCHEM_BOND_DEF_STEREO_COUNT>  (1) 
0

>  <PUBCHEM_BOND_UDEF_STEREO_COUNT>  (1) 
0

>  <PUBCHEM_ISOTOPIC_ATOM_COUNT>  (1) 
0

>  <PUBCHEM_COMPONENT_COUNT>  (1) 
1

>  <PUBCHEM_CACTVS_TAUTO_COUNT>  (1) 
12

>  <PUBCHEM_CONFORMER_ID>  (1) 
00002FFD00000001

>  <PUBCHEM_MMFF94_ENERGY>  (1) 
8.4324

>  <PUBCHEM_FEATURE_SELFOVERLAP>  (1) 
25.395

>  <PUBCHEM_SHAPE_FINGERPRINT>  (1) 
11062470 55 11024109849829307183
12032990 46 18341618117742406923
12897270 3 18410292493142596892
12932764 1 17632285792032603943
14325111 11 18408322189632752710
14390081 3 18260545632231687805
18186145 218 18040713658214331582
190213 19 18273494567729088075
20201158 50 18341614793532762894
21293036 1 18343302595299355906
23552423 10 18265897947525166787
3248919 1 16081092562736195203

>  <PUBCHEM_SHAPE_MULTIPOLES>  (1) 
188.19
6.6
1.18
0.66
0.15
0.19
0.02
-1.17
-0.55
-0.03
-0.01
-0.02
0.02
0.04

>  <PUBCHEM_SHAPE_SELFOVERLAP>  (1) 
355.181

>  <PUBCHEM_SHAPE_VOLUME>  (1) 
116.2

>  <PUBCHEM_COORDINATE_TYPE>  (1) 
2
5
10

$$$$
