12287
     RDKit          3D

  7  7  0  0  0  0  0  0  0  0999 V2000
   -2.6595   -0.0410   -0.0007 Cl  0  0  0  0  0  0  0  0  0  0  0  0
    1.1496   -1.2048   -0.0001 N   0  0  0  0  0  0  0  0  0  0  0  0
   -0.2582    1.2100    0.0004 C   0  0  0  0  0  0  0  0  0  0  0  0
   -0.9456    0.0014    0.0008 C   0  0  0  0  0  0  0  0  0  0  0  0
    1.1324    1.2126   -0.0002 C   0  0  0  0  0  0  0  0  0  0  0  0
   -0.2018   -1.1676    0.0003 C   0  0  0  0  0  0  0  0  0  0  0  0
    1.7831   -0.0106   -0.0004 C   0  0  0  0  0  0  0  0  0  0  0  0
  1  4  1  0
  2  6  2  0
  2  7  1  0
  3  4  2  0
  3  5  1  0
  4  6  1  0
  5  7  2  0
M  END
>  <PUBCHEM_COMPOUND_CID>  (1) 
12287

>  <PUBCHEM_CONFORMER_RMSD>  (1) 
0.4

>  <PUBCHEM_CONFORMER_DIVERSEORDER>  (1) 
1

>  <PUBCHEM_MMFF94_PARTIAL_CHARGES>  (1) 
11
1 -0.18
10 0.15
11 0.15
2 -0.62
3 -0.15
4 0.18
5 -0.15
6 0.16
7 0.16
8 0.15
9 0.15

>  <PUBCHEM_EFFECTIVE_ROTOR_COUNT>  (1) 
0

>  <PUBCHEM_PHARMACOPHORE_FEATURES>  (1) 
2
1 2 acceptor
6 2 3 4 5 6 7 rings

>  <PUBCHEM_HEAVY_ATOM_COUNT>  (1) 
7

>  <PUBCHEM_ATOM_DEF_STEREO_COUNT>  (1) 
0

>  <PUBCHEM_ATOM_UDEF_STEREO_COUNT>  (1) 
0

>  <PUBCHEM_BOND_DEF_STEREO_COUNT>  (1) 
0

>  <PUBCHEM_BOND_UDEF_STEREO_COUNT>  (1) 
0

>  <PUBCHEM_ISOTOPIC_ATOM_COUNT>  (1) 
0

>  <PUBCHEM_COMPONENT_COUNT>  (1) 
1

>  <PUBCHEM_CACTVS_TAUTO_COUNT>  (1) 
1

>  <PUBCHEM_CONFORMER_ID>  (1) 
00002FFF00000001

>  <PUBCHEM_MMFF94_ENERGY>  (1) 
14.2892

>  <PUBCHEM_FEATURE_SELFOVERLAP>  (1) 
10.148

>  <PUBCHEM_SHAPE_FINGERPRINT>  (1) 
18185500 45 18342172267428943719
20096714 4 18339361992869975528
21040471 1 18194402427129863360
23552423 10 17829059718799415134
29004967 10 18334298656114657889

>  <PUBCHEM_SHAPE_MULTIPOLES>  (1) 
140.95
2.68
1.4
0.61
1.53
0.01
0
-0.03
0
-0.36
0
0.03
-0.02
0

>  <PUBCHEM_SHAPE_SELFOVERLAP>  (1) 
280.687

>  <PUBCHEM_SHAPE_VOLUME>  (1) 
84

>  <PUBCHEM_COORDINATE_TYPE>  (1) 
2
5
10

$$$$
