12302
     RDKit          3D

  7  6  0  0  0  0  0  0  0  0999 V2000
    2.1070   -1.1167    0.2572 O   0  0  0  0  0  0  0  0  0  0  0  0
    2.1327    1.0863    0.2791 O   0  0  0  0  0  0  0  0  0  0  0  0
    1.6198   -0.0065   -0.0197 N   0  0  0  0  0  0  0  0  0  0  0  0
   -0.7862    0.0402    0.2279 C   0  0  0  0  0  0  0  0  0  0  0  0
   -2.1389   -0.0004   -0.4820 C   0  0  0  0  0  0  0  0  0  0  0  0
    0.3554    0.0186   -0.7738 C   0  0  0  0  0  0  0  0  0  0  0  0
   -3.2897   -0.0216    0.5113 C   0  0  0  0  0  0  0  0  0  0  0  0
  1  3  1  0
  2  3  2  0
  3  6  1  0
  4  5  1  0
  4  6  1  0
  5  7  1  0
M  CHG  2   1  -1   3   1
M  END
>  <PUBCHEM_COMPOUND_CID>  (1) 
12302

>  <PUBCHEM_CONFORMER_RMSD>  (1) 
0.4

>  <PUBCHEM_CONFORMER_DIVERSEORDER>  (1) 
1
18
17
6
9
15
10
5
19
16
2
8
7
20
14
4
3
12
13
11

>  <PUBCHEM_MMFF94_PARTIAL_CHARGES>  (1) 
4
1 -0.52
2 -0.52
3 0.8
6 0.24

>  <PUBCHEM_EFFECTIVE_ROTOR_COUNT>  (1) 
3

>  <PUBCHEM_PHARMACOPHORE_FEATURES>  (1) 
4
1 1 acceptor
1 1 anion
1 2 acceptor
1 7 hydrophobe

>  <PUBCHEM_HEAVY_ATOM_COUNT>  (1) 
7

>  <PUBCHEM_ATOM_DEF_STEREO_COUNT>  (1) 
0

>  <PUBCHEM_ATOM_UDEF_STEREO_COUNT>  (1) 
0

>  <PUBCHEM_BOND_DEF_STEREO_COUNT>  (1) 
0

>  <PUBCHEM_BOND_UDEF_STEREO_COUNT>  (1) 
0

>  <PUBCHEM_ISOTOPIC_ATOM_COUNT>  (1) 
0

>  <PUBCHEM_COMPONENT_COUNT>  (1) 
1

>  <PUBCHEM_CACTVS_TAUTO_COUNT>  (1) 
2

>  <PUBCHEM_CONFORMER_ID>  (1) 
0000300E00000001

>  <PUBCHEM_MMFF94_ENERGY>  (1) 
0.879

>  <PUBCHEM_FEATURE_SELFOVERLAP>  (1) 
20.376

>  <PUBCHEM_SHAPE_FINGERPRINT>  (1) 
12932764 1 18411136939689964373
14390081 3 13614522931211148051
29004967 10 17894911836491976957
3248919 1 17203609276906265263
5460574 1 15554732165991000093

>  <PUBCHEM_SHAPE_MULTIPOLES>  (1) 
127.34
4.48
0.86
0.78
1.95
0.02
-0.08
0.05
0.85
-0.57
0.08
0.17
-0.01
0.01

>  <PUBCHEM_SHAPE_SELFOVERLAP>  (1) 
225.062

>  <PUBCHEM_SHAPE_VOLUME>  (1) 
84.2

>  <PUBCHEM_COORDINATE_TYPE>  (1) 
2
5
10

$$$$
