12303
     RDKit          3D

  7  6  0  0  0  0  0  0  0  0999 V2000
    1.5953   -1.1007   -0.5495 O   0  0  0  0  0  0  0  0  0  0  0  0
    0.1807    0.3182    0.6321 N   0  0  0  0  0  0  0  0  0  0  0  0
    2.2358    1.0549   -0.0875 N   0  0  0  0  0  0  0  0  0  0  0  0
   -1.9041   -0.5165   -0.3290 C   0  0  0  0  0  0  0  0  0  0  0  0
   -0.9102   -0.6068    0.8242 C   0  0  0  0  0  0  0  0  0  0  0  0
   -2.5479    0.8580   -0.4473 C   0  0  0  0  0  0  0  0  0  0  0  0
    1.3504   -0.0072   -0.0430 C   0  0  0  0  0  0  0  0  0  0  0  0
  1  7  2  0
  2  5  1  0
  2  7  1  0
  3  7  1  0
  4  5  1  0
  4  6  1  0
M  END
>  <PUBCHEM_COMPOUND_CID>  (1) 
12303

>  <PUBCHEM_CONFORMER_RMSD>  (1) 
0.4

>  <PUBCHEM_CONFORMER_DIVERSEORDER>  (1) 
1
4
2
6
8
3
5
9
7

>  <PUBCHEM_MMFF94_PARTIAL_CHARGES>  (1) 
8
1 -0.57
15 0.37
16 0.37
17 0.37
2 -0.73
3 -0.8
5 0.3
7 0.69

>  <PUBCHEM_EFFECTIVE_ROTOR_COUNT>  (1) 
3

>  <PUBCHEM_PHARMACOPHORE_FEATURES>  (1) 
4
1 1 acceptor
1 2 donor
1 3 donor
1 6 hydrophobe

>  <PUBCHEM_HEAVY_ATOM_COUNT>  (1) 
7

>  <PUBCHEM_ATOM_DEF_STEREO_COUNT>  (1) 
0

>  <PUBCHEM_ATOM_UDEF_STEREO_COUNT>  (1) 
0

>  <PUBCHEM_BOND_DEF_STEREO_COUNT>  (1) 
0

>  <PUBCHEM_BOND_UDEF_STEREO_COUNT>  (1) 
0

>  <PUBCHEM_ISOTOPIC_ATOM_COUNT>  (1) 
0

>  <PUBCHEM_COMPONENT_COUNT>  (1) 
1

>  <PUBCHEM_CACTVS_TAUTO_COUNT>  (1) 
3

>  <PUBCHEM_CONFORMER_ID>  (1) 
0000300F00000001

>  <PUBCHEM_MMFF94_ENERGY>  (1) 
0.7381

>  <PUBCHEM_FEATURE_SELFOVERLAP>  (1) 
20.348

>  <PUBCHEM_SHAPE_FINGERPRINT>  (1) 
12897270 3 18201435930077469293
14390081 3 18259699017010802605
15310529 11 18273210919825941007
20096714 4 17312818269108262979
21040471 1 17022621957491867699
23552449 1 17608378161416551155
24536 1 18335706065215479217
29004967 10 18060139863976784171
5460574 1 9223239550235979467

>  <PUBCHEM_SHAPE_MULTIPOLES>  (1) 
128.23
3.5
1.09
0.82
0.43
0.07
-0.06
0.92
0.67
-0.06
0.07
0.08
-0.11
0.27

>  <PUBCHEM_SHAPE_SELFOVERLAP>  (1) 
229.116

>  <PUBCHEM_SHAPE_VOLUME>  (1) 
83.3

>  <PUBCHEM_COORDINATE_TYPE>  (1) 
2
5
10

$$$$
