12316
     RDKit          3D

  5  4  0  0  0  0  0  0  0  0999 V2000
   -2.0398   -0.8606    0.1411 Cl  0  0  0  0  0  0  0  0  0  0  0  0
    0.9137   -0.2710   -0.3565 O   0  0  0  0  0  0  0  0  0  0  0  0
    0.1549    0.7396    0.2936 C   0  0  0  0  0  0  0  0  0  0  0  0
   -1.2758    0.7105   -0.2111 C   0  0  0  0  0  0  0  0  0  0  0  0
    2.2470   -0.3186    0.1329 C   0  0  0  0  0  0  0  0  0  0  0  0
  1  4  1  0
  2  3  1  0
  2  5  1  0
  3  4  1  0
M  END
>  <PUBCHEM_COMPOUND_CID>  (1) 
12316

>  <PUBCHEM_CONFORMER_RMSD>  (1) 
0.4

>  <PUBCHEM_CONFORMER_DIVERSEORDER>  (1) 
1
7
2
5
6
4
3

>  <PUBCHEM_MMFF94_PARTIAL_CHARGES>  (1) 
5
1 -0.29
2 -0.56
3 0.28
4 0.29
5 0.28

>  <PUBCHEM_EFFECTIVE_ROTOR_COUNT>  (1) 
2

>  <PUBCHEM_PHARMACOPHORE_FEATURES>  (1) 
1
1 2 acceptor

>  <PUBCHEM_HEAVY_ATOM_COUNT>  (1) 
5

>  <PUBCHEM_ATOM_DEF_STEREO_COUNT>  (1) 
0

>  <PUBCHEM_ATOM_UDEF_STEREO_COUNT>  (1) 
0

>  <PUBCHEM_BOND_DEF_STEREO_COUNT>  (1) 
0

>  <PUBCHEM_BOND_UDEF_STEREO_COUNT>  (1) 
0

>  <PUBCHEM_ISOTOPIC_ATOM_COUNT>  (1) 
0

>  <PUBCHEM_COMPONENT_COUNT>  (1) 
1

>  <PUBCHEM_CACTVS_TAUTO_COUNT>  (1) 
1

>  <PUBCHEM_CONFORMER_ID>  (1) 
0000301C00000001

>  <PUBCHEM_MMFF94_ENERGY>  (1) 
5.6262

>  <PUBCHEM_FEATURE_SELFOVERLAP>  (1) 
5.074

>  <PUBCHEM_SHAPE_FINGERPRINT>  (1) 
139733 1 9079122150209787593
16714656 1 18260268512583839437
29004967 10 17989489623400248994
5460574 1 9295288343817346092

>  <PUBCHEM_SHAPE_MULTIPOLES>  (1) 
98.9
3.06
1.02
0.66
0.63
0.02
0.02
-0.96
0.09
-0.36
0.03
-0.02
0.01
0.09

>  <PUBCHEM_SHAPE_SELFOVERLAP>  (1) 
157.704

>  <PUBCHEM_SHAPE_VOLUME>  (1) 
71.1

>  <PUBCHEM_COORDINATE_TYPE>  (1) 
2
5
10

$$$$
