12319
     RDKit          3D

  5  4  0  0  0  0  0  0  0  0999 V2000
   -1.3338    0.8333    0.0000 O   0  0  0  0  0  0  0  0  0  0  0  0
    0.0184   -1.0760    0.0000 N   0  0  0  0  0  0  0  0  0  0  0  0
    1.3072   -0.4432    0.0000 C   0  0  0  0  0  0  0  0  0  0  0  0
    1.1841    1.0666    0.0000 C   0  0  0  0  0  0  0  0  0  0  0  0
   -1.1759   -0.3807    0.0000 C   0  0  0  0  0  0  0  0  0  0  0  0
  1  5  2  0
  2  3  1  0
  2  5  1  0
  3  4  1  0
M  END
>  <PUBCHEM_COMPOUND_CID>  (1) 
12319

>  <PUBCHEM_CONFORMER_RMSD>  (1) 
0.4

>  <PUBCHEM_CONFORMER_DIVERSEORDER>  (1) 
1
2

>  <PUBCHEM_MMFF94_PARTIAL_CHARGES>  (1) 
6
1 -0.57
11 0.37
12 0.06
2 -0.73
3 0.3
5 0.57

>  <PUBCHEM_EFFECTIVE_ROTOR_COUNT>  (1) 
2

>  <PUBCHEM_PHARMACOPHORE_FEATURES>  (1) 
2
1 1 acceptor
1 2 donor

>  <PUBCHEM_HEAVY_ATOM_COUNT>  (1) 
5

>  <PUBCHEM_ATOM_DEF_STEREO_COUNT>  (1) 
0

>  <PUBCHEM_ATOM_UDEF_STEREO_COUNT>  (1) 
0

>  <PUBCHEM_BOND_DEF_STEREO_COUNT>  (1) 
0

>  <PUBCHEM_BOND_UDEF_STEREO_COUNT>  (1) 
0

>  <PUBCHEM_ISOTOPIC_ATOM_COUNT>  (1) 
0

>  <PUBCHEM_COMPONENT_COUNT>  (1) 
1

>  <PUBCHEM_CACTVS_TAUTO_COUNT>  (1) 
2

>  <PUBCHEM_CONFORMER_ID>  (1) 
0000301F00000001

>  <PUBCHEM_MMFF94_ENERGY>  (1) 
6.802

>  <PUBCHEM_FEATURE_SELFOVERLAP>  (1) 
10.148

>  <PUBCHEM_SHAPE_FINGERPRINT>  (1) 
139733 1 18410856598378904260
16714656 1 9292527521760075408
20096714 4 9079121071998961990
21015797 1 18410853248272894798
29004967 10 10807926106848052079
5943 1 10969956866288955034

>  <PUBCHEM_SHAPE_MULTIPOLES>  (1) 
92.05
1.87
1.21
0.58
0.01
0.08
0
0.3
0
-0.1
0
-0.03
0
0

>  <PUBCHEM_SHAPE_SELFOVERLAP>  (1) 
160.156

>  <PUBCHEM_SHAPE_VOLUME>  (1) 
60.1

>  <PUBCHEM_COORDINATE_TYPE>  (1) 
2
5
10

$$$$
