1231
     RDKit          3D

 20 21  0  0  1  0  0  0  0  0999 V2000
    8.1648    1.6100    0.1208 Cl  0  0  0  0  0  0  0  0  0  0  0  0
   -6.7724   -0.9947   -0.0410 O   0  0  0  0  0  0  0  0  0  0  0  0
   -5.5316    2.1698   -0.5146 O   0  0  0  0  0  0  0  0  0  0  0  0
   -6.4822    1.4928    1.4512 O   0  0  0  0  0  0  0  0  0  0  0  0
    3.0461   -1.2808   -0.0533 O   0  0  0  0  0  0  0  0  0  0  0  0
   -5.6303   -0.1285   -0.0441 C   0  0  0  0  0  0  0  0  0  0  0  0
   -4.3928   -0.7776    0.4970 C   0  0  0  0  0  0  0  0  0  0  0  0
   -6.2206   -0.6554   -1.3198 C   0  0  0  0  0  0  0  0  0  0  0  0
   -3.1282   -0.2067   -0.1467 C   0  0  0  0  0  0  0  0  0  0  0  0
   -1.8423   -0.8948    0.3187 C   0  0  0  0  0  0  0  0  0  0  0  0
   -5.9322    1.2436    0.3891 C   0  0  0  0  0  0  0  0  0  0  0  0
   -0.5858   -0.3720   -0.3806 C   0  0  0  0  0  0  0  0  0  0  0  0
    0.6628   -1.1078    0.1033 C   0  0  0  0  0  0  0  0  0  0  0  0
    1.9244   -0.5673   -0.5549 C   0  0  0  0  0  0  0  0  0  0  0  0
    4.2397   -0.6079   -0.0130 C   0  0  0  0  0  0  0  0  0  0  0  0
    4.5093    0.3904   -0.9492 C   0  0  0  0  0  0  0  0  0  0  0  0
    5.1837   -0.9201    0.9653 C   0  0  0  0  0  0  0  0  0  0  0  0
    5.7230    1.0765   -0.9070 C   0  0  0  0  0  0  0  0  0  0  0  0
    6.3974   -0.2340    1.0074 C   0  0  0  0  0  0  0  0  0  0  0  0
    6.6671    0.7643    0.0712 C   0  0  0  0  0  0  0  0  0  0  0  0
  1 20  1  0
  2  6  1  0
  2  8  1  0
  3 11  1  0
  4 11  2  0
  5 14  1  0
  5 15  1  0
  6  7  1  0
  6  8  1  0
  6 11  1  0
  7  9  1  0
  9 10  1  0
 10 12  1  0
 12 13  1  0
 13 14  1  0
 15 16  2  0
 15 17  1  0
 16 18  1  0
 17 19  2  0
 18 20  2  0
 19 20  1  0
M  END
>  <PUBCHEM_COMPOUND_CID>  (1) 
1231

>  <PUBCHEM_CONFORMER_RMSD>  (1) 
1

>  <PUBCHEM_CONFORMER_DIVERSEORDER>  (1) 
1
247
32
177
116
40
104
63
123
196
94
16
214
249
226
150
119
125
20
103
218
223
252
174
6
89
111
156
204
3
176
35
210
60
165
59
151
192
5
108
131
251
121
149
237
135
246
72
195
235
48
79
114
170
106
17
37
198
53
227
182
45
112
228
180
31
33
229
70
184
49
189
124
113
183
153
146
7
137
178
42
15
129
132
154
30
75
136
207
23
68
158
73
47
29
118
134
9
215
88
147
27
109
199
105
140
18
138
10
202
83
245
253
41
22
82
102
231
84
250
81
164
52
36
159
71
232
181
191
91
187
221
209
56
66
74
78
211
110
14
169
117
133
197
213
19
243
128
258
77
85
8
186
163
80
99
179
130
46
203
160
143
141
34
86
54
206
225
12
25
44
236
55
107
173
97
38
65
193
98
87
172
64
69
224
21
13
4
201
39
100
50
205
220
90
115
185
208
233
95
157
127
67
92
76
162
142
255
188
190
139
62
57
120
96
155
230
24
240
171
219
28
2
43
26
167
175
168
248
58
238
126
51
222
101
212
216
242
166
61
200
257
93
161
259
144
254
148
145
11
256
152
241
234
244
239
194
122
217

>  <PUBCHEM_MMFF94_PARTIAL_CHARGES>  (1) 
23
1 -0.18
11 0.72
14 0.28
15 0.08
16 -0.15
17 -0.15
18 -0.15
19 -0.15
2 -0.3
20 0.18
23 0.1
24 0.1
3 -0.65
35 0.5
36 0.15
37 0.15
38 0.15
39 0.15
4 -0.57
5 -0.36
6 0.05
7 0.09
8 -0.05

>  <PUBCHEM_EFFECTIVE_ROTOR_COUNT>  (1) 
9.6

>  <PUBCHEM_PHARMACOPHORE_FEATURES>  (1) 
7
1 2 acceptor
1 3 acceptor
1 4 acceptor
1 5 acceptor
3 3 4 11 anion
5 7 9 10 12 13 hydrophobe
6 15 16 17 18 19 20 rings

>  <PUBCHEM_HEAVY_ATOM_COUNT>  (1) 
20

>  <PUBCHEM_ATOM_DEF_STEREO_COUNT>  (1) 
0

>  <PUBCHEM_ATOM_UDEF_STEREO_COUNT>  (1) 
1

>  <PUBCHEM_BOND_DEF_STEREO_COUNT>  (1) 
0

>  <PUBCHEM_BOND_UDEF_STEREO_COUNT>  (1) 
0

>  <PUBCHEM_ISOTOPIC_ATOM_COUNT>  (1) 
0

>  <PUBCHEM_COMPONENT_COUNT>  (1) 
1

>  <PUBCHEM_CACTVS_TAUTO_COUNT>  (1) 
1

>  <PUBCHEM_CONFORMER_ID>  (1) 
000004CF00000001

>  <PUBCHEM_MMFF94_ENERGY>  (1) 
37.1253

>  <PUBCHEM_FEATURE_SELFOVERLAP>  (1) 
35.578

>  <PUBCHEM_SHAPE_FINGERPRINT>  (1) 
10087517 78 18335138653445795341
11315181 36 18409728478971105619
11646440 116 15140962850878303604
117890 112 18408888425415711366
12091667 2 18131632296934069303
125118 31 18408886209392181568
12616971 3 14490479724155298314
13167372 99 18261392209235931628
13533116 47 17313380072843961362
13668630 136 8790892887082483160
13685833 64 10809337850446704702
14251764 18 18186519917118204420
14729087 3 18412543214887985208
15183329 4 18335139799684832097
15348495 7 15502951820942450200
17093844 174 15719105865052762727
1818759 1 11530752688460559432
20157964 124 18260829294154192074
20281389 69 18259703389102796245
21130935 74 18186519882331874290
21150785 3 16702305680410736462
221357 26 13686302374920275578
22224240 67 17749385997084775754
22956985 138 11244175956269959120
23035841 295 9367347037488331639
23081809 10 18343297042244655095
23845131 108 16159867979689219676
328310 630 18335710455163095061
33532 11 8214156148876470536
397830 11 14635450357978276533
4073 2 18334017215546120010
465052 167 7925911487499560426
559249 180 10809346646534400265
5758199 1 18408042913727192826

>  <PUBCHEM_SHAPE_MULTIPOLES>  (1) 
389.98
26.38
1.54
1.03
0.22
0.65
-0.02
10.18
-2.1
0.58
-0.11
0.29
0.09
-1.26

>  <PUBCHEM_SHAPE_SELFOVERLAP>  (1) 
784.312

>  <PUBCHEM_SHAPE_VOLUME>  (1) 
230.2

>  <PUBCHEM_COORDINATE_TYPE>  (1) 
2
5
10

$$$$
