12314
     RDKit          3D

  5  4  0  0  0  0  0  0  0  0999 V2000
   -3.0153    0.5588    0.0065 I   0  0  0  0  0  0  0  0  0  0  0  0
    3.0153    0.5587    0.0064 I   0  0  0  0  0  0  0  0  0  0  0  0
    0.0000    0.2051   -0.0182 C   0  0  0  0  0  0  0  0  0  0  0  0
   -1.2595   -0.6613    0.0025 C   0  0  0  0  0  0  0  0  0  0  0  0
    1.2595   -0.6612    0.0028 C   0  0  0  0  0  0  0  0  0  0  0  0
  1  4  1  0
  2  5  1  0
  3  4  1  0
  3  5  1  0
M  END
>  <PUBCHEM_COMPOUND_CID>  (1) 
12314

>  <PUBCHEM_CONFORMER_RMSD>  (1) 
0.4

>  <PUBCHEM_CONFORMER_DIVERSEORDER>  (1) 
1
5
4
3
2

>  <PUBCHEM_MMFF94_PARTIAL_CHARGES>  (1) 
4
1 -0.19
2 -0.19
4 0.19
5 0.19

>  <PUBCHEM_EFFECTIVE_ROTOR_COUNT>  (1) 
2

>  <PUBCHEM_PHARMACOPHORE_FEATURES>  (1) 
2
1 1 hydrophobe
1 2 hydrophobe

>  <PUBCHEM_HEAVY_ATOM_COUNT>  (1) 
5

>  <PUBCHEM_ATOM_DEF_STEREO_COUNT>  (1) 
0

>  <PUBCHEM_ATOM_UDEF_STEREO_COUNT>  (1) 
0

>  <PUBCHEM_BOND_DEF_STEREO_COUNT>  (1) 
0

>  <PUBCHEM_BOND_UDEF_STEREO_COUNT>  (1) 
0

>  <PUBCHEM_ISOTOPIC_ATOM_COUNT>  (1) 
0

>  <PUBCHEM_COMPONENT_COUNT>  (1) 
1

>  <PUBCHEM_CACTVS_TAUTO_COUNT>  (1) 
1

>  <PUBCHEM_CONFORMER_ID>  (1) 
0000301A00000001

>  <PUBCHEM_MMFF94_ENERGY>  (1) 
1.5835

>  <PUBCHEM_FEATURE_SELFOVERLAP>  (1) 
10.149

>  <PUBCHEM_SHAPE_FINGERPRINT>  (1) 
12932741 1 15697706116526097478
14325111 11 18410855464444273571
14390081 3 18343018899845821225
20211469 26 11458426855928133873
20651381 32 17275110513633702340
20765181 27 18410564089547164933
21293036 1 16056876952847610737
5460574 1 9295287244384852583

>  <PUBCHEM_SHAPE_MULTIPOLES>  (1) 
126.77
5.91
1.03
0.73
0
0.06
0
1.77
-0.02
0
0
0
0.05
0

>  <PUBCHEM_SHAPE_SELFOVERLAP>  (1) 
178.751

>  <PUBCHEM_SHAPE_VOLUME>  (1) 
100.8

>  <PUBCHEM_COORDINATE_TYPE>  (1) 
2
5
10

$$$$
