12317
     RDKit          3D

  5  4  0  0  0  0  0  0  0  0999 V2000
    1.7969   -0.7225   -0.1825 F   0  0  0  0  0  0  0  0  0  0  0  0
   -0.8811   -0.3042    0.3138 O   0  0  0  0  0  0  0  0  0  0  0  0
   -0.0519    0.7028   -0.2502 C   0  0  0  0  0  0  0  0  0  0  0  0
    1.3645    0.4978    0.2384 C   0  0  0  0  0  0  0  0  0  0  0  0
   -2.2284   -0.1739   -0.1194 C   0  0  0  0  0  0  0  0  0  0  0  0
  1  4  1  0
  2  3  1  0
  2  5  1  0
  3  4  1  0
M  END
>  <PUBCHEM_COMPOUND_CID>  (1) 
12317

>  <PUBCHEM_CONFORMER_RMSD>  (1) 
0.4

>  <PUBCHEM_CONFORMER_DIVERSEORDER>  (1) 
1
5
2
8
7
4
3
6

>  <PUBCHEM_MMFF94_PARTIAL_CHARGES>  (1) 
5
1 -0.34
2 -0.56
3 0.28
4 0.34
5 0.28

>  <PUBCHEM_EFFECTIVE_ROTOR_COUNT>  (1) 
2

>  <PUBCHEM_PHARMACOPHORE_FEATURES>  (1) 
1
1 2 acceptor

>  <PUBCHEM_HEAVY_ATOM_COUNT>  (1) 
5

>  <PUBCHEM_ATOM_DEF_STEREO_COUNT>  (1) 
0

>  <PUBCHEM_ATOM_UDEF_STEREO_COUNT>  (1) 
0

>  <PUBCHEM_BOND_DEF_STEREO_COUNT>  (1) 
0

>  <PUBCHEM_BOND_UDEF_STEREO_COUNT>  (1) 
0

>  <PUBCHEM_ISOTOPIC_ATOM_COUNT>  (1) 
0

>  <PUBCHEM_COMPONENT_COUNT>  (1) 
1

>  <PUBCHEM_CACTVS_TAUTO_COUNT>  (1) 
1

>  <PUBCHEM_CONFORMER_ID>  (1) 
0000301D00000001

>  <PUBCHEM_MMFF94_ENERGY>  (1) 
4.627

>  <PUBCHEM_FEATURE_SELFOVERLAP>  (1) 
5.074

>  <PUBCHEM_SHAPE_FINGERPRINT>  (1) 
139733 1 9655575210084424100
20096714 4 18264209282279690905
29004967 10 18409168843661538920
5460574 1 9655585114437218769

>  <PUBCHEM_SHAPE_MULTIPOLES>  (1) 
89.75
2.74
0.83
0.62
0.79
0.04
0
-0.44
0.05
-0.21
0.04
0.01
0.02
0.09

>  <PUBCHEM_SHAPE_SELFOVERLAP>  (1) 
150.727

>  <PUBCHEM_SHAPE_VOLUME>  (1) 
61.8

>  <PUBCHEM_COORDINATE_TYPE>  (1) 
2
5
10

$$$$
