12321
     RDKit          3D

  5  4  0  0  0  0  0  0  0  0999 V2000
   -0.0024    0.7430    0.0000 S   0  0  0  0  0  0  0  0  0  0  0  0
    1.3076   -0.3809    0.0000 C   0  0  0  0  0  0  0  0  0  0  0  0
   -1.3060   -0.3799    0.0000 C   0  0  0  0  0  0  0  0  0  0  0  0
    2.5853    0.0096    0.0000 C   0  0  0  0  0  0  0  0  0  0  0  0
   -2.5846    0.0082    0.0000 C   0  0  0  0  0  0  0  0  0  0  0  0
  1  2  1  0
  1  3  1  0
  2  4  2  0
  3  5  2  0
M  END
>  <PUBCHEM_COMPOUND_CID>  (1) 
12321

>  <PUBCHEM_CONFORMER_RMSD>  (1) 
0.4

>  <PUBCHEM_CONFORMER_DIVERSEORDER>  (1) 
1
8
7
3
6
4
5
2
9

>  <PUBCHEM_MMFF94_PARTIAL_CHARGES>  (1) 
11
1 -0.2
10 0.15
11 0.15
2 -0.05
3 -0.05
4 -0.3
5 -0.3
6 0.15
7 0.15
8 0.15
9 0.15

>  <PUBCHEM_EFFECTIVE_ROTOR_COUNT>  (1) 
2

>  <PUBCHEM_PHARMACOPHORE_FEATURES>  (1) 
2
1 4 hydrophobe
1 5 hydrophobe

>  <PUBCHEM_HEAVY_ATOM_COUNT>  (1) 
5

>  <PUBCHEM_ATOM_DEF_STEREO_COUNT>  (1) 
0

>  <PUBCHEM_ATOM_UDEF_STEREO_COUNT>  (1) 
0

>  <PUBCHEM_BOND_DEF_STEREO_COUNT>  (1) 
0

>  <PUBCHEM_BOND_UDEF_STEREO_COUNT>  (1) 
0

>  <PUBCHEM_ISOTOPIC_ATOM_COUNT>  (1) 
0

>  <PUBCHEM_COMPONENT_COUNT>  (1) 
1

>  <PUBCHEM_CACTVS_TAUTO_COUNT>  (1) 
1

>  <PUBCHEM_CONFORMER_ID>  (1) 
0000302100000001

>  <PUBCHEM_MMFF94_ENERGY>  (1) 
4.7457

>  <PUBCHEM_FEATURE_SELFOVERLAP>  (1) 
10.149

>  <PUBCHEM_SHAPE_FINGERPRINT>  (1) 
14390081 3 10809338957894223823
16714656 1 9223228550640124667
20096714 4 9367339336443099798
29004967 10 9151175376102438876
5460574 1 18410856555387046278

>  <PUBCHEM_SHAPE_MULTIPOLES>  (1) 
106.75
3.87
0.81
0.63
0.01
0.09
0
-0.3
0
0
0
0
0.01
0

>  <PUBCHEM_SHAPE_SELFOVERLAP>  (1) 
175.442

>  <PUBCHEM_SHAPE_VOLUME>  (1) 
73.7

>  <PUBCHEM_COORDINATE_TYPE>  (1) 
2
5
10

$$$$
