12323
     RDKit          3D

  8  7  0  0  1  0  0  0  0  0999 V2000
   -2.2256   -1.1925    0.3122 O   0  0  0  0  0  0  0  0  0  0  0  0
    0.5670   -0.4014    0.7244 C   0  0  0  0  0  0  0  0  0  0  0  0
    2.0361   -0.2628    0.2817 C   0  0  0  0  0  0  0  0  0  0  0  0
   -0.4208    0.3223   -0.2010 C   0  0  0  0  0  0  0  0  0  0  0  0
   -1.8683    0.1865    0.2839 C   0  0  0  0  0  0  0  0  0  0  0  0
    2.2708   -0.7772   -1.1393 C   0  0  0  0  0  0  0  0  0  0  0  0
    2.4704    1.2020    0.3778 C   0  0  0  0  0  0  0  0  0  0  0  0
   -2.8296    0.9231   -0.6397 C   0  0  0  0  0  0  0  0  0  0  0  0
  1  5  1  0
  2  3  1  0
  2  4  1  0
  3  6  1  0
  3  7  1  0
  4  5  1  0
  5  8  1  0
M  END
>  <PUBCHEM_COMPOUND_CID>  (1) 
12323

>  <PUBCHEM_CONFORMER_RMSD>  (1) 
0.6

>  <PUBCHEM_CONFORMER_DIVERSEORDER>  (1) 
2
1
5
3
4
6

>  <PUBCHEM_MMFF94_PARTIAL_CHARGES>  (1) 
3
1 -0.68
24 0.4
5 0.28

>  <PUBCHEM_EFFECTIVE_ROTOR_COUNT>  (1) 
3

>  <PUBCHEM_PHARMACOPHORE_FEATURES>  (1) 
3
1 1 acceptor
1 1 donor
3 3 6 7 hydrophobe

>  <PUBCHEM_HEAVY_ATOM_COUNT>  (1) 
8

>  <PUBCHEM_ATOM_DEF_STEREO_COUNT>  (1) 
0

>  <PUBCHEM_ATOM_UDEF_STEREO_COUNT>  (1) 
1

>  <PUBCHEM_BOND_DEF_STEREO_COUNT>  (1) 
0

>  <PUBCHEM_BOND_UDEF_STEREO_COUNT>  (1) 
0

>  <PUBCHEM_ISOTOPIC_ATOM_COUNT>  (1) 
0

>  <PUBCHEM_COMPONENT_COUNT>  (1) 
1

>  <PUBCHEM_CACTVS_TAUTO_COUNT>  (1) 
1

>  <PUBCHEM_CONFORMER_ID>  (1) 
0000302300000002

>  <PUBCHEM_MMFF94_ENERGY>  (1) 
7.3615

>  <PUBCHEM_FEATURE_SELFOVERLAP>  (1) 
15.223

>  <PUBCHEM_SHAPE_FINGERPRINT>  (1) 
12897270 3 18412829070720645404
12932741 1 18412266129272736663
12932764 1 18187088334163910955
14390081 3 18260260837366758465
15310529 11 17346600780851232585
19973954 147 18413111658046848280
20651381 32 17632294536380244909
20653085 51 17987238829089322793
21040471 1 17530969089788766650
23552423 10 17095802109857383563
29004967 10 17775851215778451514
3248919 1 17917709084743818219
5084963 1 16877939408636620562

>  <PUBCHEM_SHAPE_MULTIPOLES>  (1) 
158.77
4.61
1.16
0.95
1.2
0.08
0.15
0.55
0.71
-0.16
0.01
-0.22
-0.11
0.63

>  <PUBCHEM_SHAPE_SELFOVERLAP>  (1) 
280.7

>  <PUBCHEM_SHAPE_VOLUME>  (1) 
105.1

>  <PUBCHEM_COORDINATE_TYPE>  (1) 
2
5
10

$$$$
