12324
     RDKit          3D

  8  7  0  0  0  0  0  0  0  0999 V2000
   -3.2318   -0.9552    0.0010 Cl  0  0  0  0  0  0  0  0  0  0  0  0
    3.2315    0.9554    0.0011 Cl  0  0  0  0  0  0  0  0  0  0  0  0
   -2.0665    1.4155   -0.0004 O   0  0  0  0  0  0  0  0  0  0  0  0
    2.0668   -1.4153   -0.0003 O   0  0  0  0  0  0  0  0  0  0  0  0
   -0.5396   -0.3958   -0.0004 C   0  0  0  0  0  0  0  0  0  0  0  0
    0.5396    0.3955   -0.0005 C   0  0  0  0  0  0  0  0  0  0  0  0
   -1.9116    0.1965   -0.0002 C   0  0  0  0  0  0  0  0  0  0  0  0
    1.9116   -0.1965   -0.0003 C   0  0  0  0  0  0  0  0  0  0  0  0
  1  7  1  0
  2  8  1  0
  3  7  2  0
  4  8  2  0
  5  6  2  0
  5  7  1  0
  6  8  1  0
M  END
>  <PUBCHEM_COMPOUND_CID>  (1) 
12324

>  <PUBCHEM_CONFORMER_RMSD>  (1) 
0.4

>  <PUBCHEM_CONFORMER_DIVERSEORDER>  (1) 
1
3
6
5
2
4

>  <PUBCHEM_MMFF94_PARTIAL_CHARGES>  (1) 
10
1 -0.21
10 0.15
2 -0.21
3 -0.57
4 -0.57
5 -0.14
6 -0.14
7 0.76
8 0.76
9 0.15

>  <PUBCHEM_EFFECTIVE_ROTOR_COUNT>  (1) 
2

>  <PUBCHEM_PHARMACOPHORE_FEATURES>  (1) 
0

>  <PUBCHEM_HEAVY_ATOM_COUNT>  (1) 
8

>  <PUBCHEM_ATOM_DEF_STEREO_COUNT>  (1) 
0

>  <PUBCHEM_ATOM_UDEF_STEREO_COUNT>  (1) 
0

>  <PUBCHEM_BOND_DEF_STEREO_COUNT>  (1) 
0

>  <PUBCHEM_BOND_UDEF_STEREO_COUNT>  (1) 
1

>  <PUBCHEM_ISOTOPIC_ATOM_COUNT>  (1) 
0

>  <PUBCHEM_COMPONENT_COUNT>  (1) 
1

>  <PUBCHEM_CACTVS_TAUTO_COUNT>  (1) 
1

>  <PUBCHEM_CONFORMER_ID>  (1) 
0000302400000001

>  <PUBCHEM_MMFF94_ENERGY>  (1) 
11.3397

>  <PUBCHEM_FEATURE_SELFOVERLAP>  (1) 
0

>  <PUBCHEM_SHAPE_FINGERPRINT>  (1) 
11062470 55 16950556722807281919
12932764 1 17749672857258982535
14325111 11 18410573967982137953
14390081 3 18413107268811681336
15310529 11 18343580741766057103
19973954 147 18339644438599368624
23552423 10 18262520282005959298
29004967 10 18260834791052512704
3248919 1 18200303321378793767
5460574 1 9223234048145489923

>  <PUBCHEM_SHAPE_MULTIPOLES>  (1) 
156.64
5.46
1.27
0.6
0
0
0
0
0
0
0
0
0
0

>  <PUBCHEM_SHAPE_SELFOVERLAP>  (1) 
279.776

>  <PUBCHEM_SHAPE_VOLUME>  (1) 
100.5

>  <PUBCHEM_COORDINATE_TYPE>  (1) 
2
5
10

$$$$
