12335
     RDKit          3D

  6  5  0  0  0  0  0  0  0  0999 V2000
    3.6350   -0.3463   -0.0223 I   0  0  0  0  0  0  0  0  0  0  0  0
   -0.7508    0.3967    0.0187 C   0  0  0  0  0  0  0  0  0  0  0  0
    0.5993   -0.3253    0.0251 C   0  0  0  0  0  0  0  0  0  0  0  0
   -1.9482   -0.5560    0.0054 C   0  0  0  0  0  0  0  0  0  0  0  0
    1.7561    0.6742    0.0004 C   0  0  0  0  0  0  0  0  0  0  0  0
   -3.2913    0.1567   -0.0273 C   0  0  0  0  0  0  0  0  0  0  0  0
  1  5  1  0
  2  3  1  0
  2  4  1  0
  3  5  1  0
  4  6  1  0
M  END
>  <PUBCHEM_COMPOUND_CID>  (1) 
12335

>  <PUBCHEM_CONFORMER_RMSD>  (1) 
0.4

>  <PUBCHEM_CONFORMER_DIVERSEORDER>  (1) 
1
12
11
16
4
13
17
6
15
10
3
2
14
7
5
8
9

>  <PUBCHEM_MMFF94_PARTIAL_CHARGES>  (1) 
2
1 -0.19
5 0.19

>  <PUBCHEM_EFFECTIVE_ROTOR_COUNT>  (1) 
3

>  <PUBCHEM_PHARMACOPHORE_FEATURES>  (1) 
2
1 1 hydrophobe
1 6 hydrophobe

>  <PUBCHEM_HEAVY_ATOM_COUNT>  (1) 
6

>  <PUBCHEM_ATOM_DEF_STEREO_COUNT>  (1) 
0

>  <PUBCHEM_ATOM_UDEF_STEREO_COUNT>  (1) 
0

>  <PUBCHEM_BOND_DEF_STEREO_COUNT>  (1) 
0

>  <PUBCHEM_BOND_UDEF_STEREO_COUNT>  (1) 
0

>  <PUBCHEM_ISOTOPIC_ATOM_COUNT>  (1) 
0

>  <PUBCHEM_COMPONENT_COUNT>  (1) 
1

>  <PUBCHEM_CACTVS_TAUTO_COUNT>  (1) 
1

>  <PUBCHEM_CONFORMER_ID>  (1) 
0000302F00000001

>  <PUBCHEM_MMFF94_ENERGY>  (1) 
-1.803

>  <PUBCHEM_FEATURE_SELFOVERLAP>  (1) 
10.149

>  <PUBCHEM_SHAPE_FINGERPRINT>  (1) 
11062470 55 15051733088300602474
12932764 1 15647041715992634792
14325111 11 18410575123544637890
14390081 3 18342173392895186545
20719005 15 18410575089390679819
21293036 1 13767931221524145098
5460574 1 9223234043866379376

>  <PUBCHEM_SHAPE_MULTIPOLES>  (1) 
135.41
6.57
0.86
0.67
0.63
0.01
0
0.59
0.09
0.2
0
0.17
0.01
0.01

>  <PUBCHEM_SHAPE_SELFOVERLAP>  (1) 
211.099

>  <PUBCHEM_SHAPE_VOLUME>  (1) 
99.3

>  <PUBCHEM_COORDINATE_TYPE>  (1) 
2
5
10

$$$$
