12332
     RDKit          3D

  8  7  0  0  0  0  0  0  0  0999 V2000
    2.3770   -1.2807    0.0204 O   0  0  0  0  0  0  0  0  0  0  0  0
    3.3117    0.8189    0.0075 N   0  0  0  0  0  0  0  0  0  0  0  0
   -1.6235    0.4552    0.0269 C   0  0  0  0  0  0  0  0  0  0  0  0
   -0.2884   -0.2934   -0.0310 C   0  0  0  0  0  0  0  0  0  0  0  0
   -2.8041   -0.5154   -0.0151 C   0  0  0  0  0  0  0  0  0  0  0  0
    0.9107    0.6533   -0.0189 C   0  0  0  0  0  0  0  0  0  0  0  0
   -4.1333    0.2222    0.0136 C   0  0  0  0  0  0  0  0  0  0  0  0
    2.2498   -0.0600   -0.0033 C   0  0  0  0  0  0  0  0  0  0  0  0
  1  8  2  0
  2  8  1  0
  3  4  1  0
  3  5  1  0
  4  6  1  0
  5  7  1  0
  6  8  1  0
M  END
>  <PUBCHEM_COMPOUND_CID>  (1) 
12332

>  <PUBCHEM_CONFORMER_RMSD>  (1) 
0.6

>  <PUBCHEM_CONFORMER_DIVERSEORDER>  (1) 
1
44
21
39
36
32
4
37
45
6
29
15
11
42
7
12
40
10
5
46
22
35
19
18
23
27
8
20
9
41
31
14
43
24
25
38
26
3
30
2
13
34
16
17
28
33

>  <PUBCHEM_MMFF94_PARTIAL_CHARGES>  (1) 
6
1 -0.57
2 -0.8
20 0.37
21 0.37
6 0.06
8 0.57

>  <PUBCHEM_EFFECTIVE_ROTOR_COUNT>  (1) 
4

>  <PUBCHEM_PHARMACOPHORE_FEATURES>  (1) 
4
1 1 acceptor
1 2 donor
1 7 hydrophobe
4 3 4 5 6 hydrophobe

>  <PUBCHEM_HEAVY_ATOM_COUNT>  (1) 
8

>  <PUBCHEM_ATOM_DEF_STEREO_COUNT>  (1) 
0

>  <PUBCHEM_ATOM_UDEF_STEREO_COUNT>  (1) 
0

>  <PUBCHEM_BOND_DEF_STEREO_COUNT>  (1) 
0

>  <PUBCHEM_BOND_UDEF_STEREO_COUNT>  (1) 
0

>  <PUBCHEM_ISOTOPIC_ATOM_COUNT>  (1) 
0

>  <PUBCHEM_COMPONENT_COUNT>  (1) 
1

>  <PUBCHEM_CACTVS_TAUTO_COUNT>  (1) 
2

>  <PUBCHEM_CONFORMER_ID>  (1) 
0000302C00000001

>  <PUBCHEM_MMFF94_ENERGY>  (1) 
2.4929

>  <PUBCHEM_FEATURE_SELFOVERLAP>  (1) 
20.297

>  <PUBCHEM_SHAPE_FINGERPRINT>  (1) 
11062470 55 18413671322624217833
12932764 1 17346306098929220969
14325111 11 18410856559961607911
190213 19 17603305951506621997
20645477 70 18339357466249337071
3248919 1 17168153333634471273
5460574 1 9223234043850555109

>  <PUBCHEM_SHAPE_MULTIPOLES>  (1) 
153.79
6.7
0.96
0.59
2.95
0.13
0
-0.28
0.04
-0.48
0
0.07
-0.01
-0.01

>  <PUBCHEM_SHAPE_SELFOVERLAP>  (1) 
274.395

>  <PUBCHEM_SHAPE_VOLUME>  (1) 
100

>  <PUBCHEM_COORDINATE_TYPE>  (1) 
2
5
10

$$$$
