12340
     RDKit          3D

  6  5  0  0  0  0  0  0  0  0999 V2000
    0.6312   -0.3112    0.0005 O   0  0  0  0  0  0  0  0  0  0  0  0
   -1.7512   -0.5425    0.0042 C   0  0  0  0  0  0  0  0  0  0  0  0
   -0.5813    0.4295    0.0047 C   0  0  0  0  0  0  0  0  0  0  0  0
    1.7659    0.5448    0.0008 C   0  0  0  0  0  0  0  0  0  0  0  0
   -3.0861    0.1804   -0.0064 C   0  0  0  0  0  0  0  0  0  0  0  0
    3.0215   -0.3009   -0.0038 C   0  0  0  0  0  0  0  0  0  0  0  0
  1  3  1  0
  1  4  1  0
  2  3  1  0
  2  5  1  0
  4  6  1  0
M  END
>  <PUBCHEM_COMPOUND_CID>  (1) 
12340

>  <PUBCHEM_CONFORMER_RMSD>  (1) 
0.4

>  <PUBCHEM_CONFORMER_DIVERSEORDER>  (1) 
1
6
16
11
7
14
17
3
4
15
12
5
2
9
10
8
13

>  <PUBCHEM_MMFF94_PARTIAL_CHARGES>  (1) 
3
1 -0.56
3 0.28
4 0.28

>  <PUBCHEM_EFFECTIVE_ROTOR_COUNT>  (1) 
3

>  <PUBCHEM_PHARMACOPHORE_FEATURES>  (1) 
2
1 1 acceptor
1 5 hydrophobe

>  <PUBCHEM_HEAVY_ATOM_COUNT>  (1) 
6

>  <PUBCHEM_ATOM_DEF_STEREO_COUNT>  (1) 
0

>  <PUBCHEM_ATOM_UDEF_STEREO_COUNT>  (1) 
0

>  <PUBCHEM_BOND_DEF_STEREO_COUNT>  (1) 
0

>  <PUBCHEM_BOND_UDEF_STEREO_COUNT>  (1) 
0

>  <PUBCHEM_ISOTOPIC_ATOM_COUNT>  (1) 
0

>  <PUBCHEM_COMPONENT_COUNT>  (1) 
1

>  <PUBCHEM_CACTVS_TAUTO_COUNT>  (1) 
1

>  <PUBCHEM_CONFORMER_ID>  (1) 
0000303400000001

>  <PUBCHEM_MMFF94_ENERGY>  (1) 
1.3465

>  <PUBCHEM_FEATURE_SELFOVERLAP>  (1) 
10.148

>  <PUBCHEM_SHAPE_FINGERPRINT>  (1) 
11062470 55 15913327987701103017
14325111 11 18410575110432954147
14390081 3 18343861134569472633
16714656 1 18335137596418993045
29004967 10 15913334606235214990
5460574 1 9223234043861098113

>  <PUBCHEM_SHAPE_MULTIPOLES>  (1) 
117.61
5.06
0.77
0.6
0.09
0.01
0
-0.23
-0.01
0.02
0
-0.01
0.01
0

>  <PUBCHEM_SHAPE_SELFOVERLAP>  (1) 
197.647

>  <PUBCHEM_SHAPE_VOLUME>  (1) 
81.1

>  <PUBCHEM_COORDINATE_TYPE>  (1) 
2
5
10

$$$$
