12346
     RDKit          3D

  9  8  0  0  0  0  0  0  0  0999 V2000
    0.0002   -0.1059    0.0001 O   0  0  0  0  0  0  0  0  0  0  0  0
   -2.4028   -0.2029   -0.2533 C   0  0  0  0  0  0  0  0  0  0  0  0
    2.4028   -0.2030    0.2532 C   0  0  0  0  0  0  0  0  0  0  0  0
   -1.1678    0.6937   -0.1315 C   0  0  0  0  0  0  0  0  0  0  0  0
    1.1676    0.6936    0.1315 C   0  0  0  0  0  0  0  0  0  0  0  0
   -2.5799   -1.0794    0.9885 C   0  0  0  0  0  0  0  0  0  0  0  0
   -3.6531    0.6416   -0.4895 C   0  0  0  0  0  0  0  0  0  0  0  0
    2.5800   -1.0793   -0.9885 C   0  0  0  0  0  0  0  0  0  0  0  0
    3.6530    0.6417    0.4895 C   0  0  0  0  0  0  0  0  0  0  0  0
  1  4  1  0
  1  5  1  0
  2  4  1  0
  2  6  1  0
  2  7  1  0
  3  5  1  0
  3  8  1  0
  3  9  1  0
M  END
>  <PUBCHEM_COMPOUND_CID>  (1) 
12346

>  <PUBCHEM_CONFORMER_RMSD>  (1) 
0.6

>  <PUBCHEM_CONFORMER_DIVERSEORDER>  (1) 
1
3
2

>  <PUBCHEM_MMFF94_PARTIAL_CHARGES>  (1) 
3
1 -0.56
4 0.28
5 0.28

>  <PUBCHEM_EFFECTIVE_ROTOR_COUNT>  (1) 
4

>  <PUBCHEM_PHARMACOPHORE_FEATURES>  (1) 
3
1 1 acceptor
3 2 6 7 hydrophobe
3 3 8 9 hydrophobe

>  <PUBCHEM_HEAVY_ATOM_COUNT>  (1) 
9

>  <PUBCHEM_ATOM_DEF_STEREO_COUNT>  (1) 
0

>  <PUBCHEM_ATOM_UDEF_STEREO_COUNT>  (1) 
0

>  <PUBCHEM_BOND_DEF_STEREO_COUNT>  (1) 
0

>  <PUBCHEM_BOND_UDEF_STEREO_COUNT>  (1) 
0

>  <PUBCHEM_ISOTOPIC_ATOM_COUNT>  (1) 
0

>  <PUBCHEM_COMPONENT_COUNT>  (1) 
1

>  <PUBCHEM_CACTVS_TAUTO_COUNT>  (1) 
1

>  <PUBCHEM_CONFORMER_ID>  (1) 
0000303A00000001

>  <PUBCHEM_MMFF94_ENERGY>  (1) 
10.1548

>  <PUBCHEM_FEATURE_SELFOVERLAP>  (1) 
15.223

>  <PUBCHEM_SHAPE_FINGERPRINT>  (1) 
10219947 1 17775284971659006036
11062470 55 18411414012082752661
12932741 1 18408042922416944721
12932764 1 18410857663446521062
14144814 61 15769777948380423278
14325111 11 18411135839888218468
20201158 50 18412825776449230258
20279233 1 18410856559640010435
20645477 70 17987796306806010046
3248919 1 18410859862469796096
581208 293 17846210051598497422

>  <PUBCHEM_SHAPE_MULTIPOLES>  (1) 
179.35
6.83
1.09
0.9
0
0.16
0
-0.24
0
0
0
0
0.21
0.89

>  <PUBCHEM_SHAPE_SELFOVERLAP>  (1) 
317.814

>  <PUBCHEM_SHAPE_VOLUME>  (1) 
119.1

>  <PUBCHEM_COORDINATE_TYPE>  (1) 
2
5
10

$$$$
