12354
     RDKit          3D

  7  6  0  0  0  0  0  0  0  0999 V2000
   -4.2814   -0.6415    0.0126 I   0  0  0  0  0  0  0  0  0  0  0  0
    4.2986   -0.6382   -0.0285 I   0  0  0  0  0  0  0  0  0  0  0  0
   -0.0127    0.6116   -0.0121 C   0  0  0  0  0  0  0  0  0  0  0  0
   -1.2699   -0.2627   -0.0128 C   0  0  0  0  0  0  0  0  0  0  0  0
    1.2576   -0.2446    0.0357 C   0  0  0  0  0  0  0  0  0  0  0  0
   -2.5362    0.5928   -0.0202 C   0  0  0  0  0  0  0  0  0  0  0  0
    2.5441    0.5825    0.0252 C   0  0  0  0  0  0  0  0  0  0  0  0
  1  6  1  0
  2  7  1  0
  3  4  1  0
  3  5  1  0
  4  6  1  0
  5  7  1  0
M  END
>  <PUBCHEM_COMPOUND_CID>  (1) 
12354

>  <PUBCHEM_CONFORMER_RMSD>  (1) 
0.6

>  <PUBCHEM_CONFORMER_DIVERSEORDER>  (1) 
1
20
9
15
21
10
14
3
22
17
4
6
12
16
7
13
2
5
18
19
11
8

>  <PUBCHEM_MMFF94_PARTIAL_CHARGES>  (1) 
4
1 -0.19
2 -0.19
6 0.19
7 0.19

>  <PUBCHEM_EFFECTIVE_ROTOR_COUNT>  (1) 
4

>  <PUBCHEM_PHARMACOPHORE_FEATURES>  (1) 
2
1 1 hydrophobe
1 2 hydrophobe

>  <PUBCHEM_HEAVY_ATOM_COUNT>  (1) 
7

>  <PUBCHEM_ATOM_DEF_STEREO_COUNT>  (1) 
0

>  <PUBCHEM_ATOM_UDEF_STEREO_COUNT>  (1) 
0

>  <PUBCHEM_BOND_DEF_STEREO_COUNT>  (1) 
0

>  <PUBCHEM_BOND_UDEF_STEREO_COUNT>  (1) 
0

>  <PUBCHEM_ISOTOPIC_ATOM_COUNT>  (1) 
0

>  <PUBCHEM_COMPONENT_COUNT>  (1) 
1

>  <PUBCHEM_CACTVS_TAUTO_COUNT>  (1) 
1

>  <PUBCHEM_CONFORMER_ID>  (1) 
0000304200000001

>  <PUBCHEM_MMFF94_ENERGY>  (1) 
1.4351

>  <PUBCHEM_FEATURE_SELFOVERLAP>  (1) 
10.149

>  <PUBCHEM_SHAPE_FINGERPRINT>  (1) 
11062470 55 9007059062713502759
11987891 38 18410577275154896370
14123238 8 17989768908138830406
14325111 11 18410855460128187777
177051 138 18412545401268944978
17834076 25 13334734626754210631
18342897 14 10807934868618518742
20211469 26 18335421274782504763
20719005 15 18410855460217943010
20828058 44 17489869358164701031
21293036 1 15068342315160409910
22485316 2 18411133636591328494
23402539 116 17917423216574869373
5460574 1 9511464424640209953

>  <PUBCHEM_SHAPE_MULTIPOLES>  (1) 
167.93
9.8
1
0.7
0.16
0.09
0
2.95
0.03
-0.01
0
0
0.05
0.02

>  <PUBCHEM_SHAPE_SELFOVERLAP>  (1) 
254.088

>  <PUBCHEM_SHAPE_VOLUME>  (1) 
126.6

>  <PUBCHEM_COORDINATE_TYPE>  (1) 
2
5
10

$$$$
