12352
     RDKit          3D

  7  6  0  0  0  0  0  0  0  0999 V2000
    3.5738    0.4588    0.0237 N   0  0  0  0  0  0  0  0  0  0  0  0
   -1.2691   -0.4216   -0.0167 C   0  0  0  0  0  0  0  0  0  0  0  0
    0.0944    0.2716   -0.0376 C   0  0  0  0  0  0  0  0  0  0  0  0
   -2.4101    0.5954   -0.0138 C   0  0  0  0  0  0  0  0  0  0  0  0
    1.2360   -0.7441   -0.0066 C   0  0  0  0  0  0  0  0  0  0  0  0
   -3.7665   -0.0889    0.0407 C   0  0  0  0  0  0  0  0  0  0  0  0
    2.5416   -0.0711    0.0102 C   0  0  0  0  0  0  0  0  0  0  0  0
  1  7  3  0
  2  3  1  0
  2  4  1  0
  3  5  1  0
  4  6  1  0
  5  7  1  0
M  END
>  <PUBCHEM_COMPOUND_CID>  (1) 
12352

>  <PUBCHEM_CONFORMER_RMSD>  (1) 
0.4

>  <PUBCHEM_CONFORMER_DIVERSEORDER>  (1) 
1
18
7
13
9
16
8
14
17
5
10
4
12
15
11
3
6
2

>  <PUBCHEM_MMFF94_PARTIAL_CHARGES>  (1) 
3
1 -0.56
5 0.2
7 0.36

>  <PUBCHEM_EFFECTIVE_ROTOR_COUNT>  (1) 
3

>  <PUBCHEM_PHARMACOPHORE_FEATURES>  (1) 
3
1 1 acceptor
1 6 hydrophobe
4 2 3 4 5 hydrophobe

>  <PUBCHEM_HEAVY_ATOM_COUNT>  (1) 
7

>  <PUBCHEM_ATOM_DEF_STEREO_COUNT>  (1) 
0

>  <PUBCHEM_ATOM_UDEF_STEREO_COUNT>  (1) 
0

>  <PUBCHEM_BOND_DEF_STEREO_COUNT>  (1) 
0

>  <PUBCHEM_BOND_UDEF_STEREO_COUNT>  (1) 
0

>  <PUBCHEM_ISOTOPIC_ATOM_COUNT>  (1) 
0

>  <PUBCHEM_COMPONENT_COUNT>  (1) 
1

>  <PUBCHEM_CACTVS_TAUTO_COUNT>  (1) 
1

>  <PUBCHEM_CONFORMER_ID>  (1) 
0000304000000001

>  <PUBCHEM_MMFF94_ENERGY>  (1) 
-2.4141

>  <PUBCHEM_FEATURE_SELFOVERLAP>  (1) 
15.223

>  <PUBCHEM_SHAPE_FINGERPRINT>  (1) 
11062470 55 17967251996565374309
12932764 1 15697706018000104655
14325111 11 18410855425968993927
14390081 3 18342455928459689992
20719005 15 18410575088995092907
21293036 1 17060618914626195176
3248919 1 15502669152233700723
5460574 1 9295285041024444719

>  <PUBCHEM_SHAPE_MULTIPOLES>  (1) 
139.08
6.4
0.8
0.61
0.38
0.03
0
-0.72
0.12
-0.02
0
0.04
0.01
0.01

>  <PUBCHEM_SHAPE_SELFOVERLAP>  (1) 
243.1

>  <PUBCHEM_SHAPE_VOLUME>  (1) 
90.1

>  <PUBCHEM_COORDINATE_TYPE>  (1) 
2
5
10

$$$$
