12356
     RDKit          3D

  7  6  0  0  0  0  0  0  0  0999 V2000
   -2.1643    0.5526    0.0119 O   0  0  0  0  0  0  0  0  0  0  0  0
    1.2132   -0.7897    0.0032 O   0  0  0  0  0  0  0  0  0  0  0  0
    2.8713    0.8261   -0.0041 O   0  0  0  0  0  0  0  0  0  0  0  0
   -1.1568   -0.4515   -0.0016 C   0  0  0  0  0  0  0  0  0  0  0  0
    0.2057    0.2145   -0.0038 C   0  0  0  0  0  0  0  0  0  0  0  0
   -3.4662   -0.0159   -0.0078 C   0  0  0  0  0  0  0  0  0  0  0  0
    2.4971   -0.3362    0.0022 C   0  0  0  0  0  0  0  0  0  0  0  0
  1  4  1  0
  1  6  1  0
  2  5  1  0
  2  7  1  0
  3  7  2  0
  4  5  1  0
M  END
>  <PUBCHEM_COMPOUND_CID>  (1) 
12356

>  <PUBCHEM_CONFORMER_RMSD>  (1) 
0.6

>  <PUBCHEM_CONFORMER_DIVERSEORDER>  (1) 
2
8
7
18
16
3
4
17
9
14
1
6
11
12
5
10
13
15

>  <PUBCHEM_MMFF94_PARTIAL_CHARGES>  (1) 
8
1 -0.56
15 0.06
2 -0.43
3 -0.57
4 0.28
5 0.28
6 0.28
7 0.66

>  <PUBCHEM_EFFECTIVE_ROTOR_COUNT>  (1) 
4

>  <PUBCHEM_PHARMACOPHORE_FEATURES>  (1) 
2
1 1 acceptor
1 3 acceptor

>  <PUBCHEM_HEAVY_ATOM_COUNT>  (1) 
7

>  <PUBCHEM_ATOM_DEF_STEREO_COUNT>  (1) 
0

>  <PUBCHEM_ATOM_UDEF_STEREO_COUNT>  (1) 
0

>  <PUBCHEM_BOND_DEF_STEREO_COUNT>  (1) 
0

>  <PUBCHEM_BOND_UDEF_STEREO_COUNT>  (1) 
0

>  <PUBCHEM_ISOTOPIC_ATOM_COUNT>  (1) 
0

>  <PUBCHEM_COMPONENT_COUNT>  (1) 
1

>  <PUBCHEM_CACTVS_TAUTO_COUNT>  (1) 
1

>  <PUBCHEM_CONFORMER_ID>  (1) 
0000304400000002

>  <PUBCHEM_MMFF94_ENERGY>  (1) 
11.2492

>  <PUBCHEM_FEATURE_SELFOVERLAP>  (1) 
10.149

>  <PUBCHEM_SHAPE_FINGERPRINT>  (1) 
11062470 55 17894348878254485237
14325111 11 18410855447533501187
14390081 3 18412824689753958609
29004967 10 16660368056148140816
5460574 1 9223228546508707043

>  <PUBCHEM_SHAPE_MULTIPOLES>  (1) 
126.45
5.44
0.82
0.57
1.51
0
0
0.61
0.01
-0.24
0
0.03
-0.01
0

>  <PUBCHEM_SHAPE_SELFOVERLAP>  (1) 
223.578

>  <PUBCHEM_SHAPE_VOLUME>  (1) 
82.6

>  <PUBCHEM_COORDINATE_TYPE>  (1) 
2
5
10

$$$$
