1235
     RDKit          3D

 19 21  0  0  1  0  0  0  0  0999 V2000
    4.6039    0.9392    1.1244 O   0  0  0  0  0  0  0  0  0  0  0  0
   -2.1850   -0.0800   -0.1458 N   0  0  0  0  0  0  0  0  0  0  0  0
    0.3321   -1.4828    0.3843 C   0  0  0  0  0  0  0  0  0  0  0  0
   -0.5441   -1.7886   -0.8748 C   0  0  0  0  0  0  0  0  0  0  0  0
   -1.3012   -0.4952   -1.2540 C   0  0  0  0  0  0  0  0  0  0  0  0
   -0.5796   -0.9726    1.5310 C   0  0  0  0  0  0  0  0  0  0  0  0
   -0.2725    0.5471   -1.7387 C   0  0  0  0  0  0  0  0  0  0  0  0
    1.3325   -0.3578    0.0392 C   0  0  0  0  0  0  0  0  0  0  0  0
   -1.4846    0.1933    1.1101 C   0  0  0  0  0  0  0  0  0  0  0  0
    1.0144    0.6001   -0.9497 C   0  0  0  0  0  0  0  0  0  0  0  0
    1.0500   -2.7697    0.8489 C   0  0  0  0  0  0  0  0  0  0  0  0
   -1.5227   -2.9662   -0.7292 C   0  0  0  0  0  0  0  0  0  0  0  0
   -3.0828    1.0146   -0.5008 C   0  0  0  0  0  0  0  0  0  0  0  0
    2.5472   -0.2094    0.7350 C   0  0  0  0  0  0  0  0  0  0  0  0
    1.9201    1.6343   -1.2454 C   0  0  0  0  0  0  0  0  0  0  0  0
    3.4348    0.8270    0.4361 C   0  0  0  0  0  0  0  0  0  0  0  0
    3.1242    1.7459   -0.5573 C   0  0  0  0  0  0  0  0  0  0  0  0
   -4.1229    1.2388    0.5532 C   0  0  0  0  0  0  0  0  0  0  0  0
   -4.2639    2.3820    1.2337 C   0  0  0  0  0  0  0  0  0  0  0  0
  1 16  1  0
  2  5  1  0
  2  9  1  0
  2 13  1  0
  3  4  1  0
  3  6  1  0
  3  8  1  0
  3 11  1  0
  4  5  1  0
  4 12  1  0
  5  7  1  0
  6  9  1  0
  7 10  1  0
  8 10  2  0
  8 14  1  0
 10 15  1  0
 13 18  1  0
 14 16  2  0
 15 17  2  0
 16 17  1  0
 18 19  2  0
M  END
>  <PUBCHEM_COMPOUND_CID>  (1) 
1235

>  <PUBCHEM_CONFORMER_RMSD>  (1) 
0.6

>  <PUBCHEM_CONFORMER_DIVERSEORDER>  (1) 
2
10
13
9
20
17
4
15
1
18
14
19
7
3
12
21
16
6
5
11
8

>  <PUBCHEM_MMFF94_PARTIAL_CHARGES>  (1) 
22
1 -0.53
10 -0.14
13 0.41
14 -0.15
15 -0.15
16 0.08
17 -0.15
18 -0.29
19 -0.3
2 -0.81
3 0.14
36 0.15
37 0.15
38 0.15
39 0.15
40 0.45
41 0.15
42 0.15
5 0.27
7 0.14
8 -0.14
9 0.27

>  <PUBCHEM_EFFECTIVE_ROTOR_COUNT>  (1) 
3

>  <PUBCHEM_PHARMACOPHORE_FEATURES>  (1) 
6
1 1 donor
1 19 hydrophobe
1 2 cation
6 2 3 4 5 6 9 rings
6 3 4 5 7 8 10 rings
6 8 10 14 15 16 17 rings

>  <PUBCHEM_HEAVY_ATOM_COUNT>  (1) 
19

>  <PUBCHEM_ATOM_DEF_STEREO_COUNT>  (1) 
0

>  <PUBCHEM_ATOM_UDEF_STEREO_COUNT>  (1) 
3

>  <PUBCHEM_BOND_DEF_STEREO_COUNT>  (1) 
0

>  <PUBCHEM_BOND_UDEF_STEREO_COUNT>  (1) 
0

>  <PUBCHEM_ISOTOPIC_ATOM_COUNT>  (1) 
0

>  <PUBCHEM_COMPONENT_COUNT>  (1) 
1

>  <PUBCHEM_CACTVS_TAUTO_COUNT>  (1) 
3

>  <PUBCHEM_CONFORMER_ID>  (1) 
000004D300000002

>  <PUBCHEM_MMFF94_ENERGY>  (1) 
56.9409

>  <PUBCHEM_FEATURE_SELFOVERLAP>  (1) 
31.95

>  <PUBCHEM_SHAPE_FINGERPRINT>  (1) 
10382601 240 18115019693728710242
10465860 228 18337959965379130297
10498660 4 17059777694327898209
10863032 1 18202560674580171511
10948715 1 18201719535368332767
11640471 11 18272088271140931865
11961588 58 16629373948716855449
12173636 292 18200023091932179686
12251169 10 17458064875902683081
12491281 212 18336826506298068332
12633257 1 17095249124265129257
12788726 201 17905619044043079215
13134695 92 17682957696069085839
13140716 1 18040996301717805644
13583140 156 17059767957757765850
13965767 371 18122070806106032917
14142880 1 18264194979948716572
14617773 55 17974845378359271238
15061688 2 17917711292404851408
15209294 21 18338506526032937688
15309172 13 17968365836378175126
15534591 1 18202278121798511895
15775835 57 18343581836946041161
15906896 17 18193567880788471239
16945 1 17968656021374605855
1741750 31 18272371988011228913
1813 80 10737289030277980497
19765921 60 17917994932540529123
21041028 32 17756981212633892002
212916 134 18201145611916116240
21452121 103 18116997672524882289
21501502 16 17970903599594096372
21524375 3 18408887347547601765
21731228 192 18187086177979565057
21731516 1 7925627748516012793
23184049 59 18186515480163662920
23419403 2 14421189429396663851
23493267 7 17632855334739803583
2748010 2 17537693531258553374
276578 36 18339929224990297493
2838139 119 16844991512298698256
4340502 62 18342185445158630795
474 4 18335426742318551385
49207404 50 17896624867461301121
5104073 3 18043233834283364608
5706482 22 18411415150475835663
6992083 37 17823970333030004366

>  <PUBCHEM_SHAPE_MULTIPOLES>  (1) 
380.16
6.35
2.73
1.52
1.14
1.59
-0.1
-5.94
2.49
0.74
0.04
0.14
-0.1
-1.16

>  <PUBCHEM_SHAPE_SELFOVERLAP>  (1) 
810.009

>  <PUBCHEM_SHAPE_VOLUME>  (1) 
210.3

>  <PUBCHEM_COORDINATE_TYPE>  (1) 
2
5
10

$$$$
