12355
     RDKit          3D

  7  6  0  0  0  0  0  0  0  0999 V2000
   -1.2229   -0.2876   -0.0068 O   0  0  0  0  0  0  0  0  0  0  0  0
    1.1707   -0.3484   -0.0226 C   0  0  0  0  0  0  0  0  0  0  0  0
    2.4548    0.4759   -0.0041 C   0  0  0  0  0  0  0  0  0  0  0  0
   -0.0665    0.5379   -0.0035 C   0  0  0  0  0  0  0  0  0  0  0  0
    3.6875   -0.4135    0.0204 C   0  0  0  0  0  0  0  0  0  0  0  0
   -2.4159    0.4846    0.0105 C   0  0  0  0  0  0  0  0  0  0  0  0
   -3.6077   -0.4488    0.0061 C   0  0  0  0  0  0  0  0  0  0  0  0
  1  4  1  0
  1  6  1  0
  2  3  1  0
  2  4  1  0
  3  5  1  0
  6  7  1  0
M  END
>  <PUBCHEM_COMPOUND_CID>  (1) 
12355

>  <PUBCHEM_CONFORMER_RMSD>  (1) 
0.6

>  <PUBCHEM_CONFORMER_DIVERSEORDER>  (1) 
1
32
7
15
22
28
30
23
31
6
5
29
25
24
4
11
19
27
3
8
26
16
20
17
21
13
2
18
14
10
9
12

>  <PUBCHEM_MMFF94_PARTIAL_CHARGES>  (1) 
3
1 -0.56
4 0.28
6 0.28

>  <PUBCHEM_EFFECTIVE_ROTOR_COUNT>  (1) 
4

>  <PUBCHEM_PHARMACOPHORE_FEATURES>  (1) 
2
1 1 acceptor
1 5 hydrophobe

>  <PUBCHEM_HEAVY_ATOM_COUNT>  (1) 
7

>  <PUBCHEM_ATOM_DEF_STEREO_COUNT>  (1) 
0

>  <PUBCHEM_ATOM_UDEF_STEREO_COUNT>  (1) 
0

>  <PUBCHEM_BOND_DEF_STEREO_COUNT>  (1) 
0

>  <PUBCHEM_BOND_UDEF_STEREO_COUNT>  (1) 
0

>  <PUBCHEM_ISOTOPIC_ATOM_COUNT>  (1) 
0

>  <PUBCHEM_COMPONENT_COUNT>  (1) 
1

>  <PUBCHEM_CACTVS_TAUTO_COUNT>  (1) 
1

>  <PUBCHEM_CONFORMER_ID>  (1) 
0000304300000001

>  <PUBCHEM_MMFF94_ENERGY>  (1) 
1.1389

>  <PUBCHEM_FEATURE_SELFOVERLAP>  (1) 
10.148

>  <PUBCHEM_SHAPE_FINGERPRINT>  (1) 
11062470 55 18408886239113703981
14325111 11 18410575084684177924
5460574 1 9223231844858987045

>  <PUBCHEM_SHAPE_MULTIPOLES>  (1) 
138.19
6.69
0.8
0.6
0.27
0.03
0
-1.05
-0.05
0.01
0
-0.02
0
0

>  <PUBCHEM_SHAPE_SELFOVERLAP>  (1) 
235.54

>  <PUBCHEM_SHAPE_VOLUME>  (1) 
93.9

>  <PUBCHEM_COORDINATE_TYPE>  (1) 
2
5
10

$$$$
