12369
     RDKit          3D

  8  7  0  0  0  0  0  0  0  0999 V2000
    4.7329    0.4250    0.0490 Br  0  0  0  0  0  0  0  0  0  0  0  0
   -0.6609    0.4459   -0.0130 C   0  0  0  0  0  0  0  0  0  0  0  0
    0.5611   -0.4754   -0.0236 C   0  0  0  0  0  0  0  0  0  0  0  0
   -1.9619   -0.3598    0.0102 C   0  0  0  0  0  0  0  0  0  0  0  0
    1.8914    0.2824   -0.0333 C   0  0  0  0  0  0  0  0  0  0  0  0
   -3.1843    0.5576   -0.0181 C   0  0  0  0  0  0  0  0  0  0  0  0
    3.1005   -0.6382   -0.0095 C   0  0  0  0  0  0  0  0  0  0  0  0
   -4.4788   -0.2375    0.0385 C   0  0  0  0  0  0  0  0  0  0  0  0
  1  7  1  0
  2  3  1  0
  2  4  1  0
  3  5  1  0
  4  6  1  0
  5  7  1  0
  6  8  1  0
M  END
>  <PUBCHEM_COMPOUND_CID>  (1) 
12369

>  <PUBCHEM_CONFORMER_RMSD>  (1) 
0.6

>  <PUBCHEM_CONFORMER_DIVERSEORDER>  (1) 
1
54
43
53
72
8
46
23
52
13
48
64
41
2
6
65
28
75
12
26
19
15
24
73
62
21
5
17
63
34
45
9
51
22
40
67
25
3
18
7
70
66
29
74
14
33
11
71
68
4
59
36
31
57
69
55
38
16
56
42
30
44
49
39
50
37
27
20
61
58
32
35
47
10
60

>  <PUBCHEM_MMFF94_PARTIAL_CHARGES>  (1) 
2
1 -0.23
7 0.23

>  <PUBCHEM_EFFECTIVE_ROTOR_COUNT>  (1) 
5

>  <PUBCHEM_PHARMACOPHORE_FEATURES>  (1) 
3
1 1 hydrophobe
1 8 hydrophobe
5 2 3 4 5 6 hydrophobe

>  <PUBCHEM_HEAVY_ATOM_COUNT>  (1) 
8

>  <PUBCHEM_ATOM_DEF_STEREO_COUNT>  (1) 
0

>  <PUBCHEM_ATOM_UDEF_STEREO_COUNT>  (1) 
0

>  <PUBCHEM_BOND_DEF_STEREO_COUNT>  (1) 
0

>  <PUBCHEM_BOND_UDEF_STEREO_COUNT>  (1) 
0

>  <PUBCHEM_ISOTOPIC_ATOM_COUNT>  (1) 
0

>  <PUBCHEM_COMPONENT_COUNT>  (1) 
1

>  <PUBCHEM_CACTVS_TAUTO_COUNT>  (1) 
1

>  <PUBCHEM_CONFORMER_ID>  (1) 
0000305100000001

>  <PUBCHEM_MMFF94_ENERGY>  (1) 
-2.7287

>  <PUBCHEM_FEATURE_SELFOVERLAP>  (1) 
15.223

>  <PUBCHEM_SHAPE_FINGERPRINT>  (1) 
11062470 55 18411138034827503304
12932764 1 15194991700783359900
14123238 8 18410011048109312030
14325111 11 18410856538233641806
17834072 33 18341893051536452684
17834076 25 17418375796327277432
18342897 14 18131634477980818952
190213 19 17168147823223027051
20645477 70 18200315416550661830
20719005 15 18410292514754550890
22485316 2 18186798075894904739
23402539 116 13479128021305243803
42788 4 18410856559645116289

>  <PUBCHEM_SHAPE_MULTIPOLES>  (1) 
170.58
9.88
0.83
0.63
0.92
0
0
0.65
0.2
0.16
0
0.08
0.01
0.02

>  <PUBCHEM_SHAPE_SELFOVERLAP>  (1) 
282.343

>  <PUBCHEM_SHAPE_VOLUME>  (1) 
117.9

>  <PUBCHEM_COORDINATE_TYPE>  (1) 
2
5
10

$$$$
