1236
     RDKit          3D

 45 49  0  0  1  0  0  0  0  0999 V2000
    1.9103   -2.8740    0.8585 O   0  0  0  0  0  0  0  0  0  0  0  0
    3.6459   -2.4232    2.3226 O   0  0  0  0  0  0  0  0  0  0  0  0
    6.5046    1.3880    0.1949 O   0  0  0  0  0  0  0  0  0  0  0  0
    5.5907    2.2882   -1.7322 O   0  0  0  0  0  0  0  0  0  0  0  0
    0.4335    3.6571    2.6349 O   0  0  0  0  0  0  0  0  0  0  0  0
    2.2868    2.8792    3.5176 O   0  0  0  0  0  0  0  0  0  0  0  0
   -2.1222   -1.6201    1.2944 N   0  0  0  0  0  0  0  0  0  0  0  0
    4.7376   -2.0024   -2.1260 N   0  0  0  0  0  0  0  0  0  0  0  0
    1.4519    2.9261    2.5820 N   0  0  0  0  0  0  0  0  0  0  0  0
   -4.5351   -0.3253    0.0132 C   0  0  0  0  0  0  0  0  0  0  0  0
   -3.9255   -1.7073   -0.4110 C   0  0  0  0  0  0  0  0  0  0  0  0
   -4.0873   -0.1524    1.5063 C   0  0  0  0  0  0  0  0  0  0  0  0
   -2.4246   -1.8566   -0.1187 C   0  0  0  0  0  0  0  0  0  0  0  0
   -2.5746   -0.2909    1.7108 C   0  0  0  0  0  0  0  0  0  0  0  0
   -6.0785   -0.4205   -0.1376 C   0  0  0  0  0  0  0  0  0  0  0  0
   -4.0529    0.8840   -0.8294 C   0  0  0  0  0  0  0  0  0  0  0  0
   -0.6919   -1.7831    1.5508 C   0  0  0  0  0  0  0  0  0  0  0  0
   -0.3332   -3.2636    1.6276 C   0  0  0  0  0  0  0  0  0  0  0  0
   -6.6331   -1.1859   -1.1635 C   0  0  0  0  0  0  0  0  0  0  0  0
   -3.9742    2.1506   -0.2502 C   0  0  0  0  0  0  0  0  0  0  0  0
   -6.9097    0.2590    0.7531 C   0  0  0  0  0  0  0  0  0  0  0  0
   -3.6973    0.7052   -2.1664 C   0  0  0  0  0  0  0  0  0  0  0  0
    1.1483   -3.4653    1.9160 C   0  0  0  0  0  0  0  0  0  0  0  0
   -8.0187   -1.2716   -1.2988 C   0  0  0  0  0  0  0  0  0  0  0  0
   -3.5403    3.2383   -1.0080 C   0  0  0  0  0  0  0  0  0  0  0  0
   -8.2953    0.1732    0.6176 C   0  0  0  0  0  0  0  0  0  0  0  0
   -3.2633    1.7931   -2.9240 C   0  0  0  0  0  0  0  0  0  0  0  0
   -8.8498   -0.5921   -0.4084 C   0  0  0  0  0  0  0  0  0  0  0  0
   -3.1848    3.0595   -2.3447 C   0  0  0  0  0  0  0  0  0  0  0  0
    4.2109   -0.3638    0.1246 C   0  0  0  0  0  0  0  0  0  0  0  0
    3.7790   -1.8318    0.0313 C   0  0  0  0  0  0  0  0  0  0  0  0
    3.1282   -2.4040    1.2212 C   0  0  0  0  0  0  0  0  0  0  0  0
    5.0941    0.0739   -1.0482 C   0  0  0  0  0  0  0  0  0  0  0  0
    4.0413   -2.5707   -1.0708 C   0  0  0  0  0  0  0  0  0  0  0  0
    3.0006    0.5211    0.2125 C   0  0  0  0  0  0  0  0  0  0  0  0
    5.2940   -0.7336   -2.1141 C   0  0  0  0  0  0  0  0  0  0  0  0
    3.6296   -4.0030   -1.2790 C   0  0  0  0  0  0  0  0  0  0  0  0
    2.7910    1.3061    1.3464 C   0  0  0  0  0  0  0  0  0  0  0  0
    2.0857    0.5570   -0.8397 C   0  0  0  0  0  0  0  0  0  0  0  0
    5.7455    1.3883   -0.9274 C   0  0  0  0  0  0  0  0  0  0  0  0
    6.0977   -0.3819   -3.3368 C   0  0  0  0  0  0  0  0  0  0  0  0
    1.6660    2.1269    1.4279 C   0  0  0  0  0  0  0  0  0  0  0  0
    0.9609    1.3776   -0.7580 C   0  0  0  0  0  0  0  0  0  0  0  0
    0.7510    2.1627    0.3758 C   0  0  0  0  0  0  0  0  0  0  0  0
    7.2071    2.6081    0.4528 C   0  0  0  0  0  0  0  0  0  0  0  0
  1 23  1  0
  1 32  1  0
  2 32  2  0
  3 40  1  0
  3 45  1  0
  4 40  2  0
  5  9  1  0
  6  9  2  0
  7 13  1  0
  7 14  1  0
  7 17  1  0
  8 34  1  0
  8 36  1  0
  9 42  1  0
 10 11  1  0
 10 12  1  0
 10 15  1  0
 10 16  1  0
 11 13  1  0
 12 14  1  0
 15 19  2  0
 15 21  1  0
 16 20  2  0
 16 22  1  0
 17 18  1  0
 18 23  1  0
 19 24  1  0
 20 25  1  0
 21 26  2  0
 22 27  2  0
 24 28  2  0
 25 29  2  0
 26 28  1  0
 27 29  1  0
 30 31  1  0
 30 33  1  0
 30 35  1  0
 31 32  1  0
 31 34  2  0
 33 36  2  0
 33 40  1  0
 34 37  1  0
 35 38  2  0
 35 39  1  0
 36 41  1  0
 38 42  1  0
 39 43  2  0
 42 44  2  0
 43 44  1  0
M  CHG  2   5  -1   9   1
M  END
>  <PUBCHEM_COMPOUND_CID>  (1) 
1236

>  <PUBCHEM_CONFORMER_RMSD>  (1) 
1.6

>  <PUBCHEM_CONFORMER_DIVERSEORDER>  (1) 
1
41
73
155
83
60
94
69
8
26
145
118
134
24
49
110
33
137
28
135
50
10
44
64
80
113
104
29
129
53
121
112
128
87
34
57
71
39
111
79
146
143
123
140
101
75
91
132
36
43
67
138
46
13
150
151
127
37
89
144
55
27
148
100
81
126
122
25
152
142
48
105
102
97
68
76
147
65
54
62
45
93
32
114
3
96
141
72
108
40
98
56
12
90
77
38
74
124
30
153
139
86
103
125
92
59
120
99
51
16
107
117
22
116
18
85
35
130
21
78
63
149
6
119
15
70
11
61
136
19
17
106
5
115
133
84
52
7
42
23
95
2
88
82
131
9
4
154
58
31
109
20
66
14
47

>  <PUBCHEM_MMFF94_PARTIAL_CHARGES>  (1) 
57
1 -0.43
10 0.29
13 0.27
14 0.27
15 -0.14
16 -0.14
17 0.27
19 -0.15
2 -0.57
20 -0.15
21 -0.15
22 -0.15
23 0.28
24 -0.15
25 -0.15
26 -0.15
27 -0.15
28 -0.15
29 -0.15
3 -0.43
30 0.42
31 -0.12
32 0.71
33 -0.12
34 -0.04
35 -0.14
36 -0.04
37 0.14
38 -0.15
39 -0.15
4 -0.57
40 0.71
41 0.14
42 0.13
43 -0.15
44 -0.15
45 0.28
5 -0.52
58 0.15
59 0.15
6 -0.52
60 0.15
61 0.15
64 0.15
65 0.15
66 0.15
67 0.15
68 0.15
69 0.15
7 -0.81
71 0.4
75 0.15
76 0.15
8 -0.6
80 0.15
81 0.15
9 0.91

>  <PUBCHEM_EFFECTIVE_ROTOR_COUNT>  (1) 
13.6

>  <PUBCHEM_PHARMACOPHORE_FEATURES>  (1) 
13
1 2 acceptor
1 4 acceptor
1 5 acceptor
1 5 anion
1 6 acceptor
1 7 cation
1 8 cation
1 8 donor
6 15 19 21 24 26 28 rings
6 16 20 22 25 27 29 rings
6 35 38 39 42 43 44 rings
6 7 10 11 12 13 14 rings
6 8 30 31 33 34 36 rings

>  <PUBCHEM_HEAVY_ATOM_COUNT>  (1) 
45

>  <PUBCHEM_ATOM_DEF_STEREO_COUNT>  (1) 
0

>  <PUBCHEM_ATOM_UDEF_STEREO_COUNT>  (1) 
1

>  <PUBCHEM_BOND_DEF_STEREO_COUNT>  (1) 
0

>  <PUBCHEM_BOND_UDEF_STEREO_COUNT>  (1) 
0

>  <PUBCHEM_ISOTOPIC_ATOM_COUNT>  (1) 
0

>  <PUBCHEM_COMPONENT_COUNT>  (1) 
1

>  <PUBCHEM_CACTVS_TAUTO_COUNT>  (1) 
3

>  <PUBCHEM_CONFORMER_ID>  (1) 
000004D400000001

>  <PUBCHEM_MMFF94_ENERGY>  (1) 
132.0568

>  <PUBCHEM_FEATURE_SELFOVERLAP>  (1) 
66.055

>  <PUBCHEM_SHAPE_FINGERPRINT>  (1) 
10079526 769 18267030444939932154
11115154 58 17560532741298815371
12107698 1 17704357680312952849
12166972 35 16558755628273746267
13111901 137 17967537865567922377
13617811 41 17675927612215992301
13782708 43 18411975833261427533
14118638 360 18040718030586205701
14537116 161 18343300332437237919
14664723 55 17169013165277459718
15001296 14 18270668874965988851
15082195 135 17458926889604737884
15150948 74 18335137630863426193
15183329 4 18343585144804095147
15351339 4 18410855421684518648
15684393 108 16200439069653400022
18608769 82 18114746040140932451
20764821 26 17896864483190878647
208703 8 17346323665345455213
3918712 181 17604159228211429764
508706 21 17894917274527235291
513532 50 17917987296168279338
5776283 40 18042699458198866876
86090 222 18335126627399599683

>  <PUBCHEM_SHAPE_MULTIPOLES>  (1) 
875.92
20.54
4.41
2.85
21.47
0.6
0.2
-0.63
-8.77
-3.83
1.24
-2.53
-1.23
2.14

>  <PUBCHEM_SHAPE_SELFOVERLAP>  (1) 
1887.979

>  <PUBCHEM_SHAPE_VOLUME>  (1) 
479.1

>  <PUBCHEM_COORDINATE_TYPE>  (1) 
2
5
10

$$$$
