12389
     RDKit          3D

 14 13  0  0  0  0  0  0  0  0999 V2000
    0.6498   -0.4194   -0.0576 C   0  0  0  0  0  0  0  0  0  0  0  0
   -0.6246    0.4264   -0.0049 C   0  0  0  0  0  0  0  0  0  0  0  0
    1.9006    0.4639   -0.0743 C   0  0  0  0  0  0  0  0  0  0  0  0
   -1.9094   -0.4071    0.0014 C   0  0  0  0  0  0  0  0  0  0  0  0
    3.1756   -0.3824   -0.0882 C   0  0  0  0  0  0  0  0  0  0  0  0
   -3.1845    0.4400    0.0294 C   0  0  0  0  0  0  0  0  0  0  0  0
    4.4601    0.4515   -0.0824 C   0  0  0  0  0  0  0  0  0  0  0  0
   -4.4345   -0.4444    0.0227 C   0  0  0  0  0  0  0  0  0  0  0  0
    5.7342   -0.3941   -0.0217 C   0  0  0  0  0  0  0  0  0  0  0  0
   -5.7433    0.3508    0.0196 C   0  0  0  0  0  0  0  0  0  0  0  0
    6.9807    0.4887    0.0550 C   0  0  0  0  0  0  0  0  0  0  0  0
   -6.9916   -0.5316   -0.0124 C   0  0  0  0  0  0  0  0  0  0  0  0
    8.2484   -0.3447    0.1544 C   0  0  0  0  0  0  0  0  0  0  0  0
   -8.2617    0.3025    0.0590 C   0  0  0  0  0  0  0  0  0  0  0  0
  1  2  1  0
  1  3  1  0
  2  4  1  0
  3  5  1  0
  4  6  1  0
  5  7  1  0
  6  8  1  0
  7  9  1  0
  8 10  1  0
  9 11  1  0
 10 12  1  0
 11 13  1  0
 12 14  1  0
M  END
>  <PUBCHEM_COMPOUND_CID>  (1) 
12389

>  <PUBCHEM_CONFORMER_RMSD>  (1) 
1.2

>  <PUBCHEM_CONFORMER_DIVERSEORDER>  (1) 
1
15
14
27
3
21
6
19
2
23
7
24
5
12
4
26
29
22
8
31
17
25
18
13
16
9
11
30
20
10
28

>  <PUBCHEM_MMFF94_PARTIAL_CHARGES>  (1) 
0

>  <PUBCHEM_EFFECTIVE_ROTOR_COUNT>  (1) 
11

>  <PUBCHEM_PHARMACOPHORE_FEATURES>  (1) 
2
1 13 hydrophobe
1 14 hydrophobe

>  <PUBCHEM_HEAVY_ATOM_COUNT>  (1) 
14

>  <PUBCHEM_ATOM_DEF_STEREO_COUNT>  (1) 
0

>  <PUBCHEM_ATOM_UDEF_STEREO_COUNT>  (1) 
0

>  <PUBCHEM_BOND_DEF_STEREO_COUNT>  (1) 
0

>  <PUBCHEM_BOND_UDEF_STEREO_COUNT>  (1) 
0

>  <PUBCHEM_ISOTOPIC_ATOM_COUNT>  (1) 
0

>  <PUBCHEM_COMPONENT_COUNT>  (1) 
1

>  <PUBCHEM_CACTVS_TAUTO_COUNT>  (1) 
1

>  <PUBCHEM_CONFORMER_ID>  (1) 
0000306500000001

>  <PUBCHEM_MMFF94_ENERGY>  (1) 
-6.2863

>  <PUBCHEM_FEATURE_SELFOVERLAP>  (1) 
10.149

>  <PUBCHEM_SHAPE_FINGERPRINT>  (1) 
11315181 36 17917997196368167467
12091667 2 18259985977420048145
14123256 10 18410855455838482259
14251764 18 18411419496729434160
14251764 46 18410856563934776355
17834076 25 18410575088958046215
18006028 8 18060700593574863089
20621476 8 18040996232639457583
22224240 67 16200429174175168582
23521765 1 18341895194640646149
28498 318 18259983752036411598
33684 2 18410573980856496843
42788 4 18410293614413969189
59567204 34 18337106758349570037
8209 1 18410573989451693188

>  <PUBCHEM_SHAPE_MULTIPOLES>  (1) 
288.11
26.88
0.79
0.62
0.29
0
0
-0.38
-1.03
-0.01
0
-0.02
0
-0.04

>  <PUBCHEM_SHAPE_SELFOVERLAP>  (1) 
508.094

>  <PUBCHEM_SHAPE_VOLUME>  (1) 
189.4

>  <PUBCHEM_COORDINATE_TYPE>  (1) 
2
5
10

$$$$
