12394
     RDKit          3D

 16 15  0  0  0  0  0  0  0  0999 V2000
   -9.8322    0.6359   -0.0076 Br  0  0  0  0  0  0  0  0  0  0  0  0
    0.6359    0.3283    0.0725 C   0  0  0  0  0  0  0  0  0  0  0  0
   -0.6553   -0.4927    0.0033 C   0  0  0  0  0  0  0  0  0  0  0  0
    1.9438   -0.4675    0.0001 C   0  0  0  0  0  0  0  0  0  0  0  0
   -1.9232    0.3632   -0.0075 C   0  0  0  0  0  0  0  0  0  0  0  0
    3.1945    0.4147    0.0140 C   0  0  0  0  0  0  0  0  0  0  0  0
   -3.1800   -0.5093   -0.0449 C   0  0  0  0  0  0  0  0  0  0  0  0
    4.5018   -0.3860    0.0320 C   0  0  0  0  0  0  0  0  0  0  0  0
   -4.4501    0.3431   -0.0221 C   0  0  0  0  0  0  0  0  0  0  0  0
    5.7538    0.4931   -0.0292 C   0  0  0  0  0  0  0  0  0  0  0  0
   -5.7066   -0.5306   -0.0255 C   0  0  0  0  0  0  0  0  0  0  0  0
    7.0587   -0.3095   -0.0006 C   0  0  0  0  0  0  0  0  0  0  0  0
   -6.9767    0.3252    0.0254 C   0  0  0  0  0  0  0  0  0  0  0  0
    8.3109    0.5674   -0.0354 C   0  0  0  0  0  0  0  0  0  0  0  0
   -8.2530   -0.5017    0.0172 C   0  0  0  0  0  0  0  0  0  0  0  0
    9.5778   -0.2736    0.0082 C   0  0  0  0  0  0  0  0  0  0  0  0
  1 15  1  0
  2  3  1  0
  2  4  1  0
  3  5  1  0
  4  6  1  0
  5  7  1  0
  6  8  1  0
  7  9  1  0
  8 10  1  0
  9 11  1  0
 10 12  1  0
 11 13  1  0
 12 14  1  0
 13 15  1  0
 14 16  1  0
M  END
>  <PUBCHEM_COMPOUND_CID>  (1) 
12394

>  <PUBCHEM_CONFORMER_RMSD>  (1) 
1.4

>  <PUBCHEM_CONFORMER_DIVERSEORDER>  (1) 
1
36
20
15
13
21
34
11
19
44
2
28
12
26
3
4
42
8
30
27
38
33
9
10
47
17
24
25
5
7
46
23
40
37
16
43
35
32
29
22
31
41
39
14
45
6
18

>  <PUBCHEM_MMFF94_PARTIAL_CHARGES>  (1) 
2
1 -0.23
15 0.23

>  <PUBCHEM_EFFECTIVE_ROTOR_COUNT>  (1) 
13

>  <PUBCHEM_PHARMACOPHORE_FEATURES>  (1) 
2
1 1 hydrophobe
1 16 hydrophobe

>  <PUBCHEM_HEAVY_ATOM_COUNT>  (1) 
16

>  <PUBCHEM_ATOM_DEF_STEREO_COUNT>  (1) 
0

>  <PUBCHEM_ATOM_UDEF_STEREO_COUNT>  (1) 
0

>  <PUBCHEM_BOND_DEF_STEREO_COUNT>  (1) 
0

>  <PUBCHEM_BOND_UDEF_STEREO_COUNT>  (1) 
0

>  <PUBCHEM_ISOTOPIC_ATOM_COUNT>  (1) 
0

>  <PUBCHEM_COMPONENT_COUNT>  (1) 
1

>  <PUBCHEM_CACTVS_TAUTO_COUNT>  (1) 
1

>  <PUBCHEM_CONFORMER_ID>  (1) 
0000306A00000001

>  <PUBCHEM_MMFF94_ENERGY>  (1) 
-3.051

>  <PUBCHEM_FEATURE_SELFOVERLAP>  (1) 
10.149

>  <PUBCHEM_SHAPE_FINGERPRINT>  (1) 
14123256 10 18411138034632331004
14251764 18 18410292497321526322
14251764 46 17967533471710870563
15510794 2 18410016537463307251
22224240 67 15430036573965515160
232437 2 18334294266769110866
23521765 1 18341895194645940390
23581129 1 18409449184756236294
33684 2 18410855460128161794
4325135 7 18412263938844729628
67123 10 18410575097547980807
8209 1 18410856563940031623

>  <PUBCHEM_SHAPE_MULTIPOLES>  (1) 
335.21
36.59
0.83
0.63
0.75
0.02
0
3.01
0.13
0.28
0
0.09
0.01
-0.02

>  <PUBCHEM_SHAPE_SELFOVERLAP>  (1) 
583.576

>  <PUBCHEM_SHAPE_VOLUME>  (1) 
221.7

>  <PUBCHEM_COORDINATE_TYPE>  (1) 
2
5
10

$$$$
