12395
     RDKit          3D

 16 15  0  0  0  0  0  0  0  0999 V2000
   -0.4487   -0.1465   -0.1773 C   0  0  0  0  0  0  0  0  0  0  0  0
   -1.7933    0.5360    0.0933 C   0  0  0  0  0  0  0  0  0  0  0  0
    0.7544    0.7645    0.0787 C   0  0  0  0  0  0  0  0  0  0  0  0
   -2.9974   -0.3663   -0.1861 C   0  0  0  0  0  0  0  0  0  0  0  0
    2.0989    0.0855   -0.2045 C   0  0  0  0  0  0  0  0  0  0  0  0
   -4.3105    0.3354    0.1683 C   0  0  0  0  0  0  0  0  0  0  0  0
    3.3401    0.9566    0.0150 C   0  0  0  0  0  0  0  0  0  0  0  0
   -5.5164   -0.5535   -0.1409 C   0  0  0  0  0  0  0  0  0  0  0  0
    4.6860    0.2621   -0.2161 C   0  0  0  0  0  0  0  0  0  0  0  0
   -6.8308    0.1589    0.1823 C   0  0  0  0  0  0  0  0  0  0  0  0
    5.9291    1.1151    0.0649 C   0  0  0  0  0  0  0  0  0  0  0  0
   -8.0359   -0.7176   -0.1581 C   0  0  0  0  0  0  0  0  0  0  0  0
    7.2766    0.4441   -0.2239 C   0  0  0  0  0  0  0  0  0  0  0  0
   -9.3441   -0.0267    0.1924 C   0  0  0  0  0  0  0  0  0  0  0  0
    7.4847   -0.8295    0.5422 C   0  0  0  0  0  0  0  0  0  0  0  0
    7.7072   -2.0180   -0.0300 C   0  0  0  0  0  0  0  0  0  0  0  0
  1  2  1  0
  1  3  1  0
  2  4  1  0
  3  5  1  0
  4  6  1  0
  5  7  1  0
  6  8  1  0
  7  9  1  0
  8 10  1  0
  9 11  1  0
 10 12  1  0
 11 13  1  0
 12 14  1  0
 13 15  1  0
 15 16  2  0
M  END
>  <PUBCHEM_COMPOUND_CID>  (1) 
12395

>  <PUBCHEM_CONFORMER_RMSD>  (1) 
1.2

>  <PUBCHEM_CONFORMER_DIVERSEORDER>  (1) 
1
42
43
15
65
58
24
10
34
26
2
52
36
38
8
56
50
54
4
9
33
17
40
44
21
11
47
66
61
62
22
19
25
18
5
16
48
45
12
6
51
63
35
64
55
68
28
67
39
59
30
29
41
20
14
37
60
53
32
7
27
46
57
3
23
13
31
49

>  <PUBCHEM_MMFF94_PARTIAL_CHARGES>  (1) 
6
13 0.14
15 -0.29
16 -0.3
46 0.15
47 0.15
48 0.15

>  <PUBCHEM_EFFECTIVE_ROTOR_COUNT>  (1) 
13

>  <PUBCHEM_PHARMACOPHORE_FEATURES>  (1) 
2
1 14 hydrophobe
1 16 hydrophobe

>  <PUBCHEM_HEAVY_ATOM_COUNT>  (1) 
16

>  <PUBCHEM_ATOM_DEF_STEREO_COUNT>  (1) 
0

>  <PUBCHEM_ATOM_UDEF_STEREO_COUNT>  (1) 
0

>  <PUBCHEM_BOND_DEF_STEREO_COUNT>  (1) 
0

>  <PUBCHEM_BOND_UDEF_STEREO_COUNT>  (1) 
0

>  <PUBCHEM_ISOTOPIC_ATOM_COUNT>  (1) 
0

>  <PUBCHEM_COMPONENT_COUNT>  (1) 
1

>  <PUBCHEM_CACTVS_TAUTO_COUNT>  (1) 
1

>  <PUBCHEM_CONFORMER_ID>  (1) 
0000306B00000001

>  <PUBCHEM_MMFF94_ENERGY>  (1) 
-2.0354

>  <PUBCHEM_FEATURE_SELFOVERLAP>  (1) 
10.149

>  <PUBCHEM_SHAPE_FINGERPRINT>  (1) 
10066227 49 18336544915748345306
11638347 137 18411983550706065998
12091667 2 17603584145745535973
13885169 127 18334857191311541517
14123256 10 17632860832709256181
14202775 3 18261117396361016547
14216079 64 18260829272610569298
14251764 18 18202567271639122275
14251764 46 18410856572529972708
14428016 248 11891333124073641391
155225 1 9799401232121508418
15690457 1 18342735225835422447
15716309 27 18342174483547607621
20165401 70 18272086042739572030
20621476 8 18186799175981266197
20735858 18 16988844977445287828
21095086 128 18334574659836049563
21150785 3 12107786306773062050
21315763 28 18411700997887879281
22224240 67 13326854435112612901
232437 2 18411419527738697495
23521765 1 18341895208090128429
246663 6 17530685407288412977
28498 318 18334011683442625742
33532 11 18335417955058154346
33684 2 18410573989451706185
5283156 175 18410856555350103520
59682541 35 12463567396444560527
67123 10 18409449215148301892
8209 1 18409449202331900309

>  <PUBCHEM_SHAPE_MULTIPOLES>  (1) 
329.27
31.96
1.19
0.66
19.6
0.4
0.01
8.74
1.63
-2.61
0.01
-0.11
0.01
-0.34

>  <PUBCHEM_SHAPE_SELFOVERLAP>  (1) 
587.923

>  <PUBCHEM_SHAPE_VOLUME>  (1) 
213.4

>  <PUBCHEM_COORDINATE_TYPE>  (1) 
2
5
10

$$$$
