12397
     RDKit          3D

 16 15  0  0  0  0  0  0  0  0999 V2000
    9.4636    0.3361    0.1205 O   0  0  0  0  0  0  0  0  0  0  0  0
   -0.6311    0.3967   -0.1822 C   0  0  0  0  0  0  0  0  0  0  0  0
    0.6595   -0.4292   -0.1370 C   0  0  0  0  0  0  0  0  0  0  0  0
   -1.9356   -0.4073   -0.1519 C   0  0  0  0  0  0  0  0  0  0  0  0
    1.9254    0.4287   -0.0744 C   0  0  0  0  0  0  0  0  0  0  0  0
   -3.1907    0.4688   -0.1350 C   0  0  0  0  0  0  0  0  0  0  0  0
    3.2161   -0.3973   -0.0369 C   0  0  0  0  0  0  0  0  0  0  0  0
   -4.4615   -0.3832   -0.0955 C   0  0  0  0  0  0  0  0  0  0  0  0
    4.5146    0.4088    0.0853 C   0  0  0  0  0  0  0  0  0  0  0  0
   -5.7486    0.4460   -0.0434 C   0  0  0  0  0  0  0  0  0  0  0  0
    5.7734   -0.4604    0.0279 C   0  0  0  0  0  0  0  0  0  0  0  0
   -7.0548   -0.3527    0.0225 C   0  0  0  0  0  0  0  0  0  0  0  0
    7.0700    0.3471    0.0954 C   0  0  0  0  0  0  0  0  0  0  0  0
   -8.3341    0.4777    0.1452 C   0  0  0  0  0  0  0  0  0  0  0  0
    8.3253   -0.5146    0.0722 C   0  0  0  0  0  0  0  0  0  0  0  0
   -9.5915   -0.3652    0.2874 C   0  0  0  0  0  0  0  0  0  0  0  0
  1 15  1  0
  2  3  1  0
  2  4  1  0
  3  5  1  0
  4  6  1  0
  5  7  1  0
  6  8  1  0
  7  9  1  0
  8 10  1  0
  9 11  1  0
 10 12  1  0
 11 13  1  0
 12 14  1  0
 13 15  1  0
 14 16  1  0
M  END
>  <PUBCHEM_COMPOUND_CID>  (1) 
12397

>  <PUBCHEM_CONFORMER_RMSD>  (1) 
1.4

>  <PUBCHEM_CONFORMER_DIVERSEORDER>  (1) 
1
30
24
22
21
37
2
4
8
14
13
34
25
3
31
7
15
23
17
12
16
32
29
26
5
6
38
33
28
19
11
9
20
36
10
35
18
27

>  <PUBCHEM_MMFF94_PARTIAL_CHARGES>  (1) 
3
1 -0.68
15 0.28
48 0.4

>  <PUBCHEM_EFFECTIVE_ROTOR_COUNT>  (1) 
13

>  <PUBCHEM_PHARMACOPHORE_FEATURES>  (1) 
3
1 1 acceptor
1 1 donor
1 16 hydrophobe

>  <PUBCHEM_HEAVY_ATOM_COUNT>  (1) 
16

>  <PUBCHEM_ATOM_DEF_STEREO_COUNT>  (1) 
0

>  <PUBCHEM_ATOM_UDEF_STEREO_COUNT>  (1) 
0

>  <PUBCHEM_BOND_DEF_STEREO_COUNT>  (1) 
0

>  <PUBCHEM_BOND_UDEF_STEREO_COUNT>  (1) 
0

>  <PUBCHEM_ISOTOPIC_ATOM_COUNT>  (1) 
0

>  <PUBCHEM_COMPONENT_COUNT>  (1) 
1

>  <PUBCHEM_CACTVS_TAUTO_COUNT>  (1) 
1

>  <PUBCHEM_CONFORMER_ID>  (1) 
0000306D00000001

>  <PUBCHEM_MMFF94_ENERGY>  (1) 
-1.2789

>  <PUBCHEM_FEATURE_SELFOVERLAP>  (1) 
15.223

>  <PUBCHEM_SHAPE_FINGERPRINT>  (1) 
12091667 2 18409729561218260421
14123256 10 18410573980856483843
14251764 18 18410572868470529811
14251764 46 17846780706538514310
21150785 3 11602821298023561941
22224240 67 17313103064036911923
232437 2 18334576845531330627
23521765 1 18341894090834051077
23581129 1 18409449189051203591
246663 6 16805324387772721277
33684 2 18410573985151451139
67123 10 18410575097547980805
8209 1 18410855460133436548

>  <PUBCHEM_SHAPE_MULTIPOLES>  (1) 
323.4
34.31
0.79
0.63
0.04
0
0
0.72
-3.35
-0.04
0
-0.1
0
0.06

>  <PUBCHEM_SHAPE_SELFOVERLAP>  (1) 
573.558

>  <PUBCHEM_SHAPE_VOLUME>  (1) 
210.7

>  <PUBCHEM_COORDINATE_TYPE>  (1) 
2
5
10

$$$$
