12390
     RDKit          3D

 14 13  0  0  0  0  0  0  0  0999 V2000
   -7.9558   -0.8134    0.1133 N   0  0  0  0  0  0  0  0  0  0  0  0
    0.6097   -0.2969   -0.2209 C   0  0  0  0  0  0  0  0  0  0  0  0
    1.9255    0.4806   -0.1197 C   0  0  0  0  0  0  0  0  0  0  0  0
   -0.6690    0.5428   -0.1349 C   0  0  0  0  0  0  0  0  0  0  0  0
    3.1662   -0.4151   -0.1622 C   0  0  0  0  0  0  0  0  0  0  0  0
   -1.9841   -0.2409   -0.1799 C   0  0  0  0  0  0  0  0  0  0  0  0
    4.4445    0.4043    0.0341 C   0  0  0  0  0  0  0  0  0  0  0  0
   -3.2249    0.6446   -0.0411 C   0  0  0  0  0  0  0  0  0  0  0  0
    5.7189   -0.4448    0.0287 C   0  0  0  0  0  0  0  0  0  0  0  0
   -4.5042   -0.1999   -0.0010 C   0  0  0  0  0  0  0  0  0  0  0  0
    6.9976    0.3763    0.1994 C   0  0  0  0  0  0  0  0  0  0  0  0
   -5.7680    0.6442    0.1708 C   0  0  0  0  0  0  0  0  0  0  0  0
    8.2332   -0.5107    0.1749 C   0  0  0  0  0  0  0  0  0  0  0  0
   -6.9897   -0.1712    0.1387 C   0  0  0  0  0  0  0  0  0  0  0  0
  1 14  3  0
  2  3  1  0
  2  4  1  0
  3  5  1  0
  4  6  1  0
  5  7  1  0
  6  8  1  0
  7  9  1  0
  8 10  1  0
  9 11  1  0
 10 12  1  0
 11 13  1  0
 12 14  1  0
M  END
>  <PUBCHEM_COMPOUND_CID>  (1) 
12390

>  <PUBCHEM_CONFORMER_RMSD>  (1) 
1

>  <PUBCHEM_CONFORMER_DIVERSEORDER>  (1) 
1
96
13
984
398
1065
105
954
4
963
809
175
2
654
208
730
773
22
947
7
278
562
522
382
294
302
52
1024
61
9
287
725
931
431
1023
885
732
185
5
467
53
497
26
1060
336
536
1078
967
532
664
289
3
942
661
776
459
992
393
844
196
723
33
154
480
1017
115
996
117
107
1036
435
245
383
30
322
966
1026
44
589
440
331
70
424
257
18
36
16
84
54
1008
40
679
861
533
353
779
596
573
221
318
968
192
433
6
886
72
439
112
553
38
1004
78
998
946
21
1038
243
268
1012
312
169
1043
597
363
1073
605
922
603
231
106
416
64
846
236
981
926
1042
12
677
271
32
716
1094
706
928
137
997
743
351
641
879
47
462
658
518
170
611
265
479
1095
619
304
798
972
469
1007
921
35
881
964
388
478
253
51
209
1000
704
285
275
458
1016
934
449
273
914
80
826
925
496
1032
367
756
1052
116
863
347
876
890
698
817
808
757

>  <PUBCHEM_MMFF94_PARTIAL_CHARGES>  (1) 
3
1 -0.56
12 0.2
14 0.36

>  <PUBCHEM_EFFECTIVE_ROTOR_COUNT>  (1) 
10

>  <PUBCHEM_PHARMACOPHORE_FEATURES>  (1) 
2
1 1 acceptor
1 13 hydrophobe

>  <PUBCHEM_HEAVY_ATOM_COUNT>  (1) 
14

>  <PUBCHEM_ATOM_DEF_STEREO_COUNT>  (1) 
0

>  <PUBCHEM_ATOM_UDEF_STEREO_COUNT>  (1) 
0

>  <PUBCHEM_BOND_DEF_STEREO_COUNT>  (1) 
0

>  <PUBCHEM_BOND_UDEF_STEREO_COUNT>  (1) 
0

>  <PUBCHEM_ISOTOPIC_ATOM_COUNT>  (1) 
0

>  <PUBCHEM_COMPONENT_COUNT>  (1) 
1

>  <PUBCHEM_CACTVS_TAUTO_COUNT>  (1) 
1

>  <PUBCHEM_CONFORMER_ID>  (1) 
0000306600000001

>  <PUBCHEM_MMFF94_ENERGY>  (1) 
-2.1329

>  <PUBCHEM_FEATURE_SELFOVERLAP>  (1) 
10.148

>  <PUBCHEM_SHAPE_FINGERPRINT>  (1) 
11315181 36 12396304742603437765
12091667 2 17167863054861072685
13964095 4 10809341144517633611
14123256 10 18410855455849122763
14251764 18 18410856555344828770
14251764 46 16805323292920038211
15690457 1 18187362142550522003
15716309 27 18411417319418502334
17834076 25 18410856559639809068
18006028 8 15574713599297621375
20281389 69 13758355557630911018
20621476 8 10807941461398372160
20735858 18 18202282502543990406
21130983 4 14549017693105095362
21315763 28 18334576841036033196
22224240 67 18333730230273418290
23521765 1 18341894090839345324
246663 6 18410295808709630306
28498 318 11602814697117822616
33532 11 18186798042184389922
33684 2 18113898256166137787
42788 4 18411700985076499157
4325135 7 8574713502934006962
57583515 80 9007056872907987957
59682541 35 18271805756750305610
8209 1 17967251996644489108

>  <PUBCHEM_SHAPE_MULTIPOLES>  (1) 
283.13
25.92
0.83
0.63
1.68
0.02
0
-3.87
2.82
-0.19
0.01
0.06
0
0.02

>  <PUBCHEM_SHAPE_SELFOVERLAP>  (1) 
506.111

>  <PUBCHEM_SHAPE_VOLUME>  (1) 
181.4

>  <PUBCHEM_COORDINATE_TYPE>  (1) 
2
5
10

$$$$
