12396
     RDKit          3D

 16 15  0  0  0  0  0  0  0  0999 V2000
    0.6318   -0.4761    0.0475 C   0  0  0  0  0  0  0  0  0  0  0  0
    1.8826    0.4003    0.1427 C   0  0  0  0  0  0  0  0  0  0  0  0
   -0.6749    0.3129    0.1695 C   0  0  0  0  0  0  0  0  0  0  0  0
    3.1573   -0.4390    0.0270 C   0  0  0  0  0  0  0  0  0  0  0  0
   -1.9256   -0.5660    0.0992 C   0  0  0  0  0  0  0  0  0  0  0  0
    4.4092    0.4398    0.0837 C   0  0  0  0  0  0  0  0  0  0  0  0
   -3.2009    0.2800    0.1532 C   0  0  0  0  0  0  0  0  0  0  0  0
    5.6813   -0.3976   -0.0658 C   0  0  0  0  0  0  0  0  0  0  0  0
   -4.4513   -0.5955    0.0444 C   0  0  0  0  0  0  0  0  0  0  0  0
    6.9656    0.4360   -0.0391 C   0  0  0  0  0  0  0  0  0  0  0  0
   -5.7577    0.2035    0.0706 C   0  0  0  0  0  0  0  0  0  0  0  0
    8.2382   -0.4026   -0.1633 C   0  0  0  0  0  0  0  0  0  0  0  0
   -7.0044   -0.6631   -0.1119 C   0  0  0  0  0  0  0  0  0  0  0  0
    9.4834    0.4699   -0.1182 C   0  0  0  0  0  0  0  0  0  0  0  0
   -8.2199    0.1633   -0.1526 C   0  0  0  0  0  0  0  0  0  0  0  0
   -9.2149    0.8343   -0.1868 C   0  0  0  0  0  0  0  0  0  0  0  0
  1  2  1  0
  1  3  1  0
  2  4  1  0
  3  5  1  0
  4  6  1  0
  5  7  1  0
  6  8  1  0
  7  9  1  0
  8 10  1  0
  9 11  1  0
 10 12  1  0
 11 13  1  0
 12 14  1  0
 13 15  1  0
 15 16  3  0
M  END
>  <PUBCHEM_COMPOUND_CID>  (1) 
12396

>  <PUBCHEM_CONFORMER_RMSD>  (1) 
1.2

>  <PUBCHEM_CONFORMER_DIVERSEORDER>  (1) 
1
10
71
59
15
5
91
23
119
2
44
31
43
55
4
32
19
24
33
93
21
48
17
46
45
16
105
60
11
38
22
121
54
85
92
100
49
65
110
37
41
72
103
13
8
27
62
109
3
18
101
113
40
61
35
83
7
50
47
25
56
97
30
89
108
96
20
99
9
86
29
74
36
67
26
52
114
63
57
68
14
76
78
90
87
112
98
42
6
81
28
12
70
111
115
102
120
79
104
77
88
106
73
64
94
118
95
69
34
39
75
117
84
66
116
58
80
107
53
51
82

>  <PUBCHEM_MMFF94_PARTIAL_CHARGES>  (1) 
4
13 0.2
15 -0.2
16 -0.18
46 0.18

>  <PUBCHEM_EFFECTIVE_ROTOR_COUNT>  (1) 
12

>  <PUBCHEM_PHARMACOPHORE_FEATURES>  (1) 
2
1 14 hydrophobe
1 16 hydrophobe

>  <PUBCHEM_HEAVY_ATOM_COUNT>  (1) 
16

>  <PUBCHEM_ATOM_DEF_STEREO_COUNT>  (1) 
0

>  <PUBCHEM_ATOM_UDEF_STEREO_COUNT>  (1) 
0

>  <PUBCHEM_BOND_DEF_STEREO_COUNT>  (1) 
0

>  <PUBCHEM_BOND_UDEF_STEREO_COUNT>  (1) 
0

>  <PUBCHEM_ISOTOPIC_ATOM_COUNT>  (1) 
0

>  <PUBCHEM_COMPONENT_COUNT>  (1) 
1

>  <PUBCHEM_CACTVS_TAUTO_COUNT>  (1) 
1

>  <PUBCHEM_CONFORMER_ID>  (1) 
0000306C00000001

>  <PUBCHEM_MMFF94_ENERGY>  (1) 
-3.3932

>  <PUBCHEM_FEATURE_SELFOVERLAP>  (1) 
10.149

>  <PUBCHEM_SHAPE_FINGERPRINT>  (1) 
11315181 36 18059860580398719835
11638347 137 9007065664912121788
12091667 2 18334858325799787283
14123256 10 18410573985151451142
14251764 18 17561086890663786234
14251764 46 18410575088958065703
14428016 248 16805329885288909748
18006028 8 17203610388849380904
18335252 98 11169906178367592208
20621476 8 18408321086248163901
21095086 128 12103847851964726788
22224240 67 12463569577750110604
232437 2 18343864429125990663
23521765 1 18341895194661810146
23581129 1 18409449189051203591
246663 6 10519985971801457153
28498 318 18272933804183052414
33684 2 18410855460128168298
4325135 7 18343865515193255165
67123 10 18410856572524691470
8209 1 18412826889098798570

>  <PUBCHEM_SHAPE_MULTIPOLES>  (1) 
329.27
34.42
0.84
0.63
3.54
0
0
-4.62
3.11
-0.31
0.01
-0.02
0
0.08

>  <PUBCHEM_SHAPE_SELFOVERLAP>  (1) 
591.263

>  <PUBCHEM_SHAPE_VOLUME>  (1) 
212

>  <PUBCHEM_COORDINATE_TYPE>  (1) 
2
5
10

$$$$
