1239
     RDKit          3D

 30 32  0  0  1  0  0  0  0  0999 V2000
    1.9229   -3.5243    0.1125 Br  0  0  0  0  0  0  0  0  0  0  0  0
    0.5294    4.6405   -0.0569 O   0  0  0  0  0  0  0  0  0  0  0  0
   -1.0634   -4.5200   -0.1276 O   0  0  0  0  0  0  0  0  0  0  0  0
    2.0895    2.3143   -0.1699 O   0  0  0  0  0  0  0  0  0  0  0  0
   -2.1452    2.2040   -0.8239 N   0  0  0  0  0  0  0  0  0  0  0  0
   -1.5815   -2.2617   -0.2817 N   0  0  0  0  0  0  0  0  0  0  0  0
    5.0551   -1.2177   -0.7761 N   0  0  0  0  0  0  0  0  0  0  0  0
   -3.5022   -0.9422    0.4101 C   0  0  0  0  0  0  0  0  0  0  0  0
   -3.4390    2.0032   -0.1554 C   0  0  0  0  0  0  0  0  0  0  0  0
   -3.7239   -0.3976   -1.0068 C   0  0  0  0  0  0  0  0  0  0  0  0
   -2.6279    0.0095    1.2365 C   0  0  0  0  0  0  0  0  0  0  0  0
   -4.2942    1.0228   -0.9831 C   0  0  0  0  0  0  0  0  0  0  0  0
   -3.2005    1.4291    1.2557 C   0  0  0  0  0  0  0  0  0  0  0  0
   -2.8826   -2.3377    0.3606 C   0  0  0  0  0  0  0  0  0  0  0  0
   -4.1476    3.3616   -0.0559 C   0  0  0  0  0  0  0  0  0  0  0  0
   -3.7857   -3.2833   -0.4427 C   0  0  0  0  0  0  0  0  0  0  0  0
   -2.7098   -2.8845    1.7840 C   0  0  0  0  0  0  0  0  0  0  0  0
   -1.5195    3.4294   -0.3604 C   0  0  0  0  0  0  0  0  0  0  0  0
   -0.0041    3.4182   -0.5747 C   0  0  0  0  0  0  0  0  0  0  0  0
   -0.7832   -3.3722   -0.4686 C   0  0  0  0  0  0  0  0  0  0  0  0
    0.6959    2.2506    0.1172 C   0  0  0  0  0  0  0  0  0  0  0  0
    0.5229   -3.0390   -1.1374 C   0  0  0  0  0  0  0  0  0  0  0  0
    2.8776    1.3435    0.3880 C   0  0  0  0  0  0  0  0  0  0  0  0
    3.6385    0.4666   -0.4103 C   0  0  0  0  0  0  0  0  0  0  0  0
    2.9289    1.2169    1.7809 C   0  0  0  0  0  0  0  0  0  0  0  0
    4.4227   -0.5040    0.2169 C   0  0  0  0  0  0  0  0  0  0  0  0
    3.8232    0.3103   -1.8126 C   0  0  0  0  0  0  0  0  0  0  0  0
    3.7203    0.2386    2.3795 C   0  0  0  0  0  0  0  0  0  0  0  0
    4.4839   -0.6421    1.6080 C   0  0  0  0  0  0  0  0  0  0  0  0
    4.6993   -0.7329   -2.0060 C   0  0  0  0  0  0  0  0  0  0  0  0
  1 22  1  0
  2 19  1  0
  3 20  2  0
  4 21  1  0
  4 23  1  0
  5  9  1  0
  5 18  1  0
  6 14  1  0
  6 20  1  0
  7 26  1  0
  7 30  1  0
  8 10  1  0
  8 11  1  0
  8 14  1  0
  9 12  1  0
  9 13  1  0
  9 15  1  0
 10 12  1  0
 11 13  1  0
 14 16  1  0
 14 17  1  0
 18 19  1  0
 19 21  1  0
 20 22  1  0
 23 24  1  0
 23 25  2  0
 24 26  2  0
 24 27  1  0
 25 28  1  0
 26 29  1  0
 27 30  2  0
 28 29  2  0
M  END
>  <PUBCHEM_COMPOUND_CID>  (1) 
1239

>  <PUBCHEM_CONFORMER_RMSD>  (1) 
1.2

>  <PUBCHEM_CONFORMER_DIVERSEORDER>  (1) 
1
161
43
25
67
45
119
204
76
103
147
11
164
152
9
53
112
110
39
61
188
179
28
154
122
64
193
159
176
150
44
114
138
23
139
104
84
115
19
206
62
111
116
3
169
109
133
79
202
2
86
12
131
87
143
60
186
78
146
205
125
80
168
27
81
190
52
101
108
92
201
165
105
82
198
102
94
77
42
37
118
14
170
96
107
70
155
26
178
50
180
117
172
46
99
187
121
16
10
203
91
126
35
85
156
196
34
183
184
137
129
13
55
5
54
21
89
195
185
48
175
75
200
22
130
57
197
69
24
173
100
181
192
140
136
148
17
149
4
56
47
134
71
32
7
90
58
73
74
128
113
191
30
40
189
182
158
83
15
174
153
171
31
63
59
95
97
167
123
51
194
20
49
36
88
157
141
132
151
29
72
162
177
199
163
41
144
106
66
6
124
68
18
65
166
8
127
38
93
98
145
135
142
160
120
33

>  <PUBCHEM_MMFF94_PARTIAL_CHARGES>  (1) 
30
1 -0.23
14 0.3
18 0.27
19 0.28
2 -0.68
20 0.57
21 0.28
22 0.29
23 0.08
25 -0.15
26 -0.15
27 -0.15
28 -0.15
29 -0.15
3 -0.57
30 -0.3
4 -0.36
43 0.36
5 -0.9
50 0.37
58 0.4
59 0.15
6 -0.73
60 0.15
61 0.15
62 0.15
63 0.27
64 0.15
7 0.03
9 0.27

>  <PUBCHEM_EFFECTIVE_ROTOR_COUNT>  (1) 
11.2

>  <PUBCHEM_PHARMACOPHORE_FEATURES>  (1) 
14
1 1 hydrophobe
1 2 acceptor
1 2 donor
1 3 acceptor
1 4 acceptor
1 5 cation
1 5 donor
1 6 donor
1 7 cation
1 7 donor
3 14 16 17 hydrophobe
5 7 24 26 27 30 rings
6 23 24 25 26 28 29 rings
6 8 9 10 11 12 13 rings

>  <PUBCHEM_HEAVY_ATOM_COUNT>  (1) 
30

>  <PUBCHEM_ATOM_DEF_STEREO_COUNT>  (1) 
0

>  <PUBCHEM_ATOM_UDEF_STEREO_COUNT>  (1) 
1

>  <PUBCHEM_BOND_DEF_STEREO_COUNT>  (1) 
0

>  <PUBCHEM_BOND_UDEF_STEREO_COUNT>  (1) 
0

>  <PUBCHEM_ISOTOPIC_ATOM_COUNT>  (1) 
0

>  <PUBCHEM_COMPONENT_COUNT>  (1) 
1

>  <PUBCHEM_CACTVS_TAUTO_COUNT>  (1) 
2

>  <PUBCHEM_CONFORMER_ID>  (1) 
000004D700000001

>  <PUBCHEM_MMFF94_ENERGY>  (1) 
74.1527

>  <PUBCHEM_FEATURE_SELFOVERLAP>  (1) 
71.141

>  <PUBCHEM_SHAPE_FINGERPRINT>  (1) 
10670039 82 18337120029080635526
10928967 22 18261116283008652522
12553582 1 18335707121730500520
13122387 1 17619632384507925775
13402501 40 18270123405017259414
13617811 41 18190744124881705669
13726171 33 18120123721226580940
14251757 5 18336277772955675684
14279260 333 17676486091567849378
14347329 18 18336840714551323110
15001296 14 18116164426840500436
15320294 125 17606944119408007704
17093844 170 18268709420727630916
17627616 140 17975977557556006959
17977149 70 18340498806953414086
20764821 26 18120649132764226239
20775530 9 17907860957068492919
238918 7 18200019634953342446
3027735 51 18196362620624868001
3052486 1 18409167723376759486
3298306 158 18268144254186138557
338550 245 18046910381621700148
463206 1 18266180530782391816
508706 21 18412266107898400135
5265222 85 18263656086134579268
602551 16 18339636751146037624
6433294 58 17835804097359235478

>  <PUBCHEM_SHAPE_MULTIPOLES>  (1) 
590.78
10.3
6.05
1.68
5.4
1.02
-0.44
-0.22
0.49
-4.6
0.65
1.72
0.21
0.93

>  <PUBCHEM_SHAPE_SELFOVERLAP>  (1) 
1222.077

>  <PUBCHEM_SHAPE_VOLUME>  (1) 
345

>  <PUBCHEM_COORDINATE_TYPE>  (1) 
2
5
10

$$$$
