1240
     RDKit          3D

 23 25  0  0  1  0  0  0  0  0999 V2000
    4.2881   -2.9739   -0.1281 O   0  0  0  0  0  0  0  0  0  0  0  0
   -0.4265    1.4603   -0.7801 N   0  0  0  0  0  0  0  0  0  0  0  0
    0.6479    0.6032   -0.2813 C   0  0  0  0  0  0  0  0  0  0  0  0
    0.8410   -0.5935   -1.2147 C   0  0  0  0  0  0  0  0  0  0  0  0
    1.9570    1.3966   -0.1684 C   0  0  0  0  0  0  0  0  0  0  0  0
    1.8844   -1.5521   -0.6403 C   0  0  0  0  0  0  0  0  0  0  0  0
    3.1575    0.5220    0.1019 C   0  0  0  0  0  0  0  0  0  0  0  0
    3.1350   -0.8600   -0.1600 C   0  0  0  0  0  0  0  0  0  0  0  0
   -1.6745    0.7055   -0.8883 C   0  0  0  0  0  0  0  0  0  0  0  0
   -0.6041    2.6188    0.0949 C   0  0  0  0  0  0  0  0  0  0  0  0
   -2.0741    0.1113    0.4629 C   0  0  0  0  0  0  0  0  0  0  0  0
   -1.7028    3.5291   -0.4479 C   0  0  0  0  0  0  0  0  0  0  0  0
    4.3404    1.1154    0.5689 C   0  0  0  0  0  0  0  0  0  0  0  0
    4.2849   -1.6260    0.0855 C   0  0  0  0  0  0  0  0  0  0  0  0
    5.4794    0.3446    0.7990 C   0  0  0  0  0  0  0  0  0  0  0  0
    5.4509   -1.0260    0.5598 C   0  0  0  0  0  0  0  0  0  0  0  0
   -3.3482   -0.6887    0.3605 C   0  0  0  0  0  0  0  0  0  0  0  0
   -1.8929    4.7540    0.4334 C   0  0  0  0  0  0  0  0  0  0  0  0
   -4.5667   -0.0576    0.5609 C   0  0  0  0  0  0  0  0  0  0  0  0
   -3.2807   -2.0425    0.0679 C   0  0  0  0  0  0  0  0  0  0  0  0
   -5.7453   -0.7977    0.4668 C   0  0  0  0  0  0  0  0  0  0  0  0
   -4.4592   -2.7826   -0.0264 C   0  0  0  0  0  0  0  0  0  0  0  0
   -5.6916   -2.1602    0.1731 C   0  0  0  0  0  0  0  0  0  0  0  0
  1 14  1  0
  2  3  1  0
  2  9  1  0
  2 10  1  0
  3  4  1  0
  3  5  1  0
  4  6  1  0
  5  7  1  0
  6  8  1  0
  7  8  2  0
  7 13  1  0
  8 14  1  0
  9 11  1  0
 10 12  1  0
 11 17  1  0
 12 18  1  0
 13 15  2  0
 14 16  2  0
 15 16  1  0
 17 19  2  0
 17 20  1  0
 19 21  1  0
 20 22  2  0
 21 23  2  0
 22 23  1  0
M  END
>  <PUBCHEM_COMPOUND_CID>  (1) 
1240

>  <PUBCHEM_CONFORMER_RMSD>  (1) 
0.8

>  <PUBCHEM_CONFORMER_DIVERSEORDER>  (1) 
1
22
19
3
21
4
20
33
26
30
14
17
5
29
11
9
2
25
12
13
10
6
27
8
28
31
23
7
16
18
24
15
32

>  <PUBCHEM_MMFF94_PARTIAL_CHARGES>  (1) 
29
1 -0.53
10 0.27
11 0.14
13 -0.15
14 0.08
15 -0.15
16 -0.15
17 -0.14
19 -0.15
2 -0.81
20 -0.15
21 -0.15
22 -0.15
23 -0.15
3 0.27
39 0.15
40 0.15
41 0.15
45 0.45
46 0.15
47 0.15
48 0.15
49 0.15
5 0.14
50 0.15
6 0.14
7 -0.14
8 -0.14
9 0.27

>  <PUBCHEM_EFFECTIVE_ROTOR_COUNT>  (1) 
6.8

>  <PUBCHEM_PHARMACOPHORE_FEATURES>  (1) 
6
1 1 donor
1 18 hydrophobe
1 2 cation
6 17 19 20 21 22 23 rings
6 3 4 5 6 7 8 rings
6 7 8 13 14 15 16 rings

>  <PUBCHEM_HEAVY_ATOM_COUNT>  (1) 
23

>  <PUBCHEM_ATOM_DEF_STEREO_COUNT>  (1) 
0

>  <PUBCHEM_ATOM_UDEF_STEREO_COUNT>  (1) 
1

>  <PUBCHEM_BOND_DEF_STEREO_COUNT>  (1) 
0

>  <PUBCHEM_BOND_UDEF_STEREO_COUNT>  (1) 
0

>  <PUBCHEM_ISOTOPIC_ATOM_COUNT>  (1) 
0

>  <PUBCHEM_COMPONENT_COUNT>  (1) 
1

>  <PUBCHEM_CACTVS_TAUTO_COUNT>  (1) 
9

>  <PUBCHEM_CONFORMER_ID>  (1) 
000004D800000001

>  <PUBCHEM_MMFF94_ENERGY>  (1) 
58.7901

>  <PUBCHEM_FEATURE_SELFOVERLAP>  (1) 
30.467

>  <PUBCHEM_SHAPE_FINGERPRINT>  (1) 
10050765 1 18266460911175457476
10319926 262 18196075652759227482
10688039 33 18334012804666947621
11056379 131 18338809896515312900
11265709 11 18335988644399984237
11646440 116 18188502353805301707
11796584 16 17240478160917637891
12107183 9 17982181023739894051
12516196 113 18338516443106986835
12596602 18 17346321552227243058
12623949 98 18059869337368298486
12788726 201 18263099780600357845
13004483 165 18411695496055443419
13083527 12 18336269036765628212
13140716 1 18051405464587638616
13540713 4 17986392192456378716
13544653 18 18260834825370026949
13955234 65 17619356837345667833
14178342 30 18263646152227891212
14341114 176 18342744005028111338
1454969 45 18264211477736129100
14787075 74 18115306808092334712
14790565 3 17255686820470290716
14866123 147 18122065304436991225
15042514 8 18337956693115613413
15183329 4 10665214947982116922
15352361 1 18408886269468800851
15885798 251 18408889555192544317
17492 89 18338514124025464346
17980427 23 17489038123754550393
1813 80 17675927611730539431
18608769 82 18341891931473219170
20028762 73 18413105087079915902
20261772 1 18131066078104490654
21065198 57 18194682562667627868
21250096 35 18337111263020287059
21478907 32 18408604734473324273
22182313 1 17702389446845145684
23402539 116 18410570712803310859
23557571 272 18334573533868763857
23558518 356 18262246495263366560
23559900 14 18336819806212747332
23845131 108 17618509779390379137
2637199 183 10087652485085255735
2838139 119 10015588289461411395
3004659 81 17895194436887379758
314194 84 18192717962885038763
3421961 26 18267303325417771617
345986 75 18041540486937778731
4409770 3 18189609455041670725
463206 1 18189336942949582779
465052 167 18412267272156387958
5104073 3 18197204868422592072
5283173 99 18114169797142436981
56616090 89 18113893862462560524
59554788 248 17489300820553578940
59755656 520 17899126119218754885
6004065 56 18266734874028027299
653340 110 18339641114283742555
7164475 11 18334019375924875084
77188 2 18337673135006249021
79837 15 17837778824475216657
9709674 26 18126563410384419908
9777508 108 18123751946167619833

>  <PUBCHEM_SHAPE_MULTIPOLES>  (1) 
462.48
13.1
4.13
0.87
0.35
4.74
0.08
-10.31
-3.63
3.26
-0.07
-0.13
0.06
0.37

>  <PUBCHEM_SHAPE_SELFOVERLAP>  (1) 
978.161

>  <PUBCHEM_SHAPE_VOLUME>  (1) 
258.9

>  <PUBCHEM_COORDINATE_TYPE>  (1) 
2
5
10

$$$$
