12415
     RDKit          3D

  6  5  0  0  0  0  0  0  0  0999 V2000
    2.4675    0.0334   -0.0017 Br  0  0  0  0  0  0  0  0  0  0  0  0
   -0.4694    0.0042   -0.0006 C   0  0  0  0  0  0  0  0  0  0  0  0
    0.7659   -0.9146    0.0012 C   0  0  0  0  0  0  0  0  0  0  0  0
   -0.4935    0.9311    1.2273 C   0  0  0  0  0  0  0  0  0  0  0  0
   -0.5527    0.8466   -1.2855 C   0  0  0  0  0  0  0  0  0  0  0  0
   -1.7179   -0.9007    0.0593 C   0  0  0  0  0  0  0  0  0  0  0  0
  1  3  1  0
  2  3  1  0
  2  4  1  0
  2  5  1  0
  2  6  1  0
M  END
>  <PUBCHEM_COMPOUND_CID>  (1) 
12415

>  <PUBCHEM_CONFORMER_RMSD>  (1) 
0.4

>  <PUBCHEM_CONFORMER_DIVERSEORDER>  (1) 
1
2

>  <PUBCHEM_MMFF94_PARTIAL_CHARGES>  (1) 
2
1 -0.23
3 0.23

>  <PUBCHEM_EFFECTIVE_ROTOR_COUNT>  (1) 
1

>  <PUBCHEM_PHARMACOPHORE_FEATURES>  (1) 
2
1 1 hydrophobe
4 2 4 5 6 hydrophobe

>  <PUBCHEM_HEAVY_ATOM_COUNT>  (1) 
6

>  <PUBCHEM_ATOM_DEF_STEREO_COUNT>  (1) 
0

>  <PUBCHEM_ATOM_UDEF_STEREO_COUNT>  (1) 
0

>  <PUBCHEM_BOND_DEF_STEREO_COUNT>  (1) 
0

>  <PUBCHEM_BOND_UDEF_STEREO_COUNT>  (1) 
0

>  <PUBCHEM_ISOTOPIC_ATOM_COUNT>  (1) 
0

>  <PUBCHEM_COMPONENT_COUNT>  (1) 
1

>  <PUBCHEM_CACTVS_TAUTO_COUNT>  (1) 
1

>  <PUBCHEM_CONFORMER_ID>  (1) 
0000307F00000001

>  <PUBCHEM_MMFF94_ENERGY>  (1) 
12.7916

>  <PUBCHEM_FEATURE_SELFOVERLAP>  (1) 
10.149

>  <PUBCHEM_SHAPE_FINGERPRINT>  (1) 
137420 1 16234437240351862055
16714656 1 18114457946044410550
20096714 4 17557436379184420672
24536 1 17986101920985920130
29004967 10 17603877744365267235
5084963 1 18334013887272635850
5943 1 11697194962474496677

>  <PUBCHEM_SHAPE_MULTIPOLES>  (1) 
129.42
2.56
1.15
1.14
1.79
0.01
0.04
0.4
-0.01
-0.25
-0.03
-0.27
-0.45
0.02

>  <PUBCHEM_SHAPE_SELFOVERLAP>  (1) 
215.821

>  <PUBCHEM_SHAPE_VOLUME>  (1) 
91

>  <PUBCHEM_COORDINATE_TYPE>  (1) 
2
5
10

$$$$
