12419
     RDKit          3D

 31 34  0  0  1  0  0  0  0  0999 V2000
   -2.1713   -0.3517   -0.0315 O   0  0  0  0  0  0  0  0  0  0  0  0
   -3.1432   -3.4497   -0.3270 O   0  0  0  0  0  0  0  0  0  0  0  0
    5.5643    3.9148    0.0532 O   0  0  0  0  0  0  0  0  0  0  0  0
   -4.1367   -1.1348    0.8874 O   0  0  0  0  0  0  0  0  0  0  0  0
   -0.1255   -1.6546   -0.4058 C   0  0  0  0  0  0  0  0  0  0  0  0
    0.5227   -1.0588    0.8669 C   0  0  0  0  0  0  0  0  0  0  0  0
    2.0524   -0.9941    0.7867 C   0  0  0  0  0  0  0  0  0  0  0  0
    2.4543   -0.0931   -0.4360 C   0  0  0  0  0  0  0  0  0  0  0  0
   -1.6099   -1.6591    0.0419 C   0  0  0  0  0  0  0  0  0  0  0  0
    0.2332   -0.7337   -1.5836 C   0  0  0  0  0  0  0  0  0  0  0  0
    4.0139    0.0652   -0.5510 C   0  0  0  0  0  0  0  0  0  0  0  0
   -0.1180   -1.8558    1.9998 C   0  0  0  0  0  0  0  0  0  0  0  0
    1.7559   -0.5603   -1.7386 C   0  0  0  0  0  0  0  0  0  0  0  0
   -1.5597   -2.1152    1.5171 C   0  0  0  0  0  0  0  0  0  0  0  0
    2.6695   -0.4752    2.0996 C   0  0  0  0  0  0  0  0  0  0  0  0
    0.3451   -3.1026   -0.7173 C   0  0  0  0  0  0  0  0  0  0  0  0
    4.4780    0.6114    0.8056 C   0  0  0  0  0  0  0  0  0  0  0  0
    4.1820   -0.2686    1.9943 C   0  0  0  0  0  0  0  0  0  0  0  0
    4.4559    1.0245   -1.6928 C   0  0  0  0  0  0  0  0  0  0  0  0
    4.7073   -1.2863   -0.8595 C   0  0  0  0  0  0  0  0  0  0  0  0
   -2.5182   -2.5022   -0.8009 C   0  0  0  0  0  0  0  0  0  0  0  0
    4.2542    2.4926   -1.3649 C   0  0  0  0  0  0  0  0  0  0  0  0
    4.9842    1.8409    0.9980 C   0  0  0  0  0  0  0  0  0  0  0  0
    5.0111    2.8292   -0.1057 C   0  0  0  0  0  0  0  0  0  0  0  0
   -2.6302   -2.1310   -2.2548 C   0  0  0  0  0  0  0  0  0  0  0  0
   -3.4545   -0.2286    0.4293 C   0  0  0  0  0  0  0  0  0  0  0  0
   -3.8877    1.2163    0.3146 C   0  0  0  0  0  0  0  0  0  0  0  0
   -5.4014    1.3822    0.1805 C   0  0  0  0  0  0  0  0  0  0  0  0
   -5.8208    2.8503    0.0564 C   0  0  0  0  0  0  0  0  0  0  0  0
   -7.3404    2.9853   -0.0419 C   0  0  0  0  0  0  0  0  0  0  0  0
   -7.7666    4.4426   -0.1202 C   0  0  0  0  0  0  0  0  0  0  0  0
  1  9  1  0
  1 26  1  0
  2 21  2  0
  3 24  2  0
  4 26  2  0
  5  6  1  0
  5  9  1  0
  5 10  1  0
  5 16  1  0
  6  7  1  0
  6 12  1  0
  7  8  1  0
  7 15  1  0
  8 11  1  0
  8 13  1  0
  9 14  1  0
  9 21  1  0
 10 13  1  0
 11 17  1  0
 11 19  1  0
 11 20  1  0
 12 14  1  0
 15 18  1  0
 17 18  1  0
 17 23  2  0
 19 22  1  0
 21 25  1  0
 22 24  1  0
 23 24  1  0
 26 27  1  0
 27 28  1  0
 28 29  1  0
 29 30  1  0
 30 31  1  0
M  END
>  <PUBCHEM_COMPOUND_CID>  (1) 
12419

>  <PUBCHEM_CONFORMER_RMSD>  (1) 
1

>  <PUBCHEM_CONFORMER_DIVERSEORDER>  (1) 
4
55
108
77
38
171
36
183
88
144
103
130
73
115
106
158
116
145
48
64
13
160
66
184
58
119
122
10
126
177
51
175
178
162
101
41
46
98
136
24
168
60
109
44
134
78
113
139
161
143
74
22
163
2
185
91
142
82
120
149
180
155
159
169
100
14
150
129
154
18
107
47
152
156
39
189
96
192
187
42
137
104
5
165
105
1
90
146
138
186
124
17
166
9
27
164
99
34
181
50
135
191
167
195
72
75
23
190
125
173
148
97
76
49
114
123
52
26
147
53
16
117
176
40
45
127
111
151
86
196
92
71
89
140
62
19
128
65
20
32
81
174
61
179
121
35
59
33
31
11
188
112
133
70
56
170
30
43
84
153
12
8
87
131
54
67
110
182
85
194
6
93
83
28
94
79
68
3
95
132
80
157
172
29
141
69
118
15
21
193
7
57
37
63
25
102

>  <PUBCHEM_MMFF94_PARTIAL_CHARGES>  (1) 
16
1 -0.43
11 0.14
17 -0.28
18 0.14
2 -0.57
21 0.45
22 0.06
23 -0.14
24 0.49
25 0.06
26 0.66
27 0.06
3 -0.57
4 -0.57
57 0.15
9 0.34

>  <PUBCHEM_EFFECTIVE_ROTOR_COUNT>  (1) 
8.8

>  <PUBCHEM_PHARMACOPHORE_FEATURES>  (1) 
9
1 2 acceptor
1 3 acceptor
1 31 hydrophobe
1 4 acceptor
4 27 28 29 30 hydrophobe
5 5 6 9 12 14 rings
6 11 17 19 22 23 24 rings
6 5 6 7 8 10 13 rings
6 7 8 11 15 17 18 rings

>  <PUBCHEM_HEAVY_ATOM_COUNT>  (1) 
31

>  <PUBCHEM_ATOM_DEF_STEREO_COUNT>  (1) 
3

>  <PUBCHEM_ATOM_UDEF_STEREO_COUNT>  (1) 
3

>  <PUBCHEM_BOND_DEF_STEREO_COUNT>  (1) 
0

>  <PUBCHEM_BOND_UDEF_STEREO_COUNT>  (1) 
0

>  <PUBCHEM_ISOTOPIC_ATOM_COUNT>  (1) 
0

>  <PUBCHEM_COMPONENT_COUNT>  (1) 
1

>  <PUBCHEM_CACTVS_TAUTO_COUNT>  (1) 
10

>  <PUBCHEM_CONFORMER_ID>  (1) 
0000308300000004

>  <PUBCHEM_MMFF94_ENERGY>  (1) 
89.2486

>  <PUBCHEM_FEATURE_SELFOVERLAP>  (1) 
45.79

>  <PUBCHEM_SHAPE_FINGERPRINT>  (1) 
10498660 4 17559966579136961368
10674148 151 17822588110208692382
11578080 2 17916888892098623071
11621639 179 18189341160886510284
12047536 79 13551481345690677223
12107183 9 18263915558531220754
12342043 65 14058118595039435131
12422481 6 16443058362100367519
12633257 1 15068633707380072665
12788726 201 17903069280889824938
131258 38 8788584968984172057
13224815 77 16951961967925483746
13944108 23 17837210373175325265
14294032 229 18342464759978236307
14739800 52 18121487210492545424
14848178 5 9727640470612705896
15163728 17 18201169809556165890
15238133 3 18408037421075710904
17909252 39 10231167374098329077
20691028 202 18411418367892345005
20715895 44 18341896242628873985
20775438 99 12607100938379625172
22122407 14 18114187488054765121
22393880 68 16199314359885131710
23559900 14 17703801310376133374
23569914 2 17415244447437036016
249057 3 18199191694150020774
2748736 6 18338793421591139837
2838139 119 18412262796895216333
3388396 114 17117751995923252637
3472631 163 18411980248007993269
3918712 181 18340764841523910609
392239 28 16009298946321138112
4112364 45 17968095262419365217
46194498 28 16484715752373305314
5104073 3 17458338688958191522
5109719 28 18336840693530680521
5219985 13 18339641140834333029
58260988 393 18335707208521500395
59682541 52 16629963214013871469
6036956 94 17758962914988051165
633830 44 18334293193201723954
7808743 9 18412260657874863329
7970288 3 9367049065917452481
9849439 229 18409449159672234765

>  <PUBCHEM_SHAPE_MULTIPOLES>  (1) 
614.49
15.75
4.56
1.83
21.55
3.19
-0.07
24.38
-0.11
4.9
0.69
-1.57
-0.85
-0.72

>  <PUBCHEM_SHAPE_SELFOVERLAP>  (1) 
1296.962

>  <PUBCHEM_SHAPE_VOLUME>  (1) 
342.3

>  <PUBCHEM_COORDINATE_TYPE>  (1) 
2
5
10

$$$$
