12417
     RDKit          3D

  6  5  0  0  0  0  0  0  0  0999 V2000
   -2.0312   -0.0089    0.0000 O   0  0  0  0  0  0  0  0  0  0  0  0
    0.4089   -0.0099   -0.0001 C   0  0  0  0  0  0  0  0  0  0  0  0
    1.1409    0.4606    1.2607 C   0  0  0  0  0  0  0  0  0  0  0  0
    0.3109   -1.5385   -0.0094 C   0  0  0  0  0  0  0  0  0  0  0  0
    1.1486    0.4756   -1.2505 C   0  0  0  0  0  0  0  0  0  0  0  0
   -0.9780    0.6211   -0.0007 C   0  0  0  0  0  0  0  0  0  0  0  0
  1  6  2  0
  2  3  1  0
  2  4  1  0
  2  5  1  0
  2  6  1  0
M  END
>  <PUBCHEM_COMPOUND_CID>  (1) 
12417

>  <PUBCHEM_CONFORMER_RMSD>  (1) 
0.4

>  <PUBCHEM_CONFORMER_DIVERSEORDER>  (1) 
1

>  <PUBCHEM_MMFF94_PARTIAL_CHARGES>  (1) 
4
1 -0.57
16 0.06
2 0.06
6 0.45

>  <PUBCHEM_EFFECTIVE_ROTOR_COUNT>  (1) 
1

>  <PUBCHEM_PHARMACOPHORE_FEATURES>  (1) 
2
1 1 acceptor
4 2 3 4 5 hydrophobe

>  <PUBCHEM_HEAVY_ATOM_COUNT>  (1) 
6

>  <PUBCHEM_ATOM_DEF_STEREO_COUNT>  (1) 
0

>  <PUBCHEM_ATOM_UDEF_STEREO_COUNT>  (1) 
0

>  <PUBCHEM_BOND_DEF_STEREO_COUNT>  (1) 
0

>  <PUBCHEM_BOND_UDEF_STEREO_COUNT>  (1) 
0

>  <PUBCHEM_ISOTOPIC_ATOM_COUNT>  (1) 
0

>  <PUBCHEM_COMPONENT_COUNT>  (1) 
1

>  <PUBCHEM_CACTVS_TAUTO_COUNT>  (1) 
1

>  <PUBCHEM_CONFORMER_ID>  (1) 
0000308100000001

>  <PUBCHEM_MMFF94_ENERGY>  (1) 
10.7909

>  <PUBCHEM_FEATURE_SELFOVERLAP>  (1) 
10.148

>  <PUBCHEM_SHAPE_FINGERPRINT>  (1) 
137420 1 14135461747583051636
20096714 4 17169005528123648724
21040471 1 18410856598479208999
24536 1 18041280950691029437
29004967 10 17391097857534675506
5943 1 13036702138579055046

>  <PUBCHEM_SHAPE_MULTIPOLES>  (1) 
117.61
1.78
1.16
1.15
0.93
0.56
0.01
-0.29
0
-0.13
-0.01
-0.61
-0.26
0

>  <PUBCHEM_SHAPE_SELFOVERLAP>  (1) 
212.088

>  <PUBCHEM_SHAPE_VOLUME>  (1) 
77.3

>  <PUBCHEM_COORDINATE_TYPE>  (1) 
2
5
10

$$$$
