1242
     RDKit          3D

 19 21  0  0  1  0  0  0  0  0999 V2000
   -3.7401   -1.8149   -1.2870 O   0  0  0  0  0  0  0  0  0  0  0  0
   -4.5001   -0.5545    1.0688 O   0  0  0  0  0  0  0  0  0  0  0  0
    1.3048    2.6527   -0.3692 N   0  0  0  0  0  0  0  0  0  0  0  0
    0.6767    0.3091   -1.1607 C   0  0  0  0  0  0  0  0  0  0  0  0
   -0.7034    0.1165   -0.5340 C   0  0  0  0  0  0  0  0  0  0  0  0
    0.8941    1.8091   -1.4929 C   0  0  0  0  0  0  0  0  0  0  0  0
   -1.0933    0.7590    0.6583 C   0  0  0  0  0  0  0  0  0  0  0  0
   -0.1735    1.6939    1.4032 C   0  0  0  0  0  0  0  0  0  0  0  0
    0.2320    2.9187    0.5860 C   0  0  0  0  0  0  0  0  0  0  0  0
    1.8286   -0.4072   -0.4454 C   0  0  0  0  0  0  0  0  0  0  0  0
   -1.6158   -0.7467   -1.1725 C   0  0  0  0  0  0  0  0  0  0  0  0
   -2.3761    0.5154    1.1811 C   0  0  0  0  0  0  0  0  0  0  0  0
   -2.8852   -0.9729   -0.6428 C   0  0  0  0  0  0  0  0  0  0  0  0
   -3.2651   -0.3423    0.5351 C   0  0  0  0  0  0  0  0  0  0  0  0
    1.5575   -1.4650    0.4199 C   0  0  0  0  0  0  0  0  0  0  0  0
    3.1423    0.0024   -0.6625 C   0  0  0  0  0  0  0  0  0  0  0  0
    2.6052   -2.1163    1.0711 C   0  0  0  0  0  0  0  0  0  0  0  0
    4.1900   -0.6488   -0.0115 C   0  0  0  0  0  0  0  0  0  0  0  0
    3.9215   -1.7082    0.8553 C   0  0  0  0  0  0  0  0  0  0  0  0
  1 13  1  0
  2 14  1  0
  3  6  1  0
  3  9  1  0
  4  5  1  0
  4  6  1  0
  4 10  1  0
  5  7  2  0
  5 11  1  0
  7  8  1  0
  7 12  1  0
  8  9  1  0
 10 15  2  0
 10 16  1  0
 11 13  2  0
 12 14  2  0
 13 14  1  0
 15 17  1  0
 16 18  2  0
 17 19  2  0
 18 19  1  0
M  END
>  <PUBCHEM_COMPOUND_CID>  (1) 
1242

>  <PUBCHEM_CONFORMER_RMSD>  (1) 
0.6

>  <PUBCHEM_CONFORMER_DIVERSEORDER>  (1) 
1
4
6
2
3
5

>  <PUBCHEM_MMFF94_PARTIAL_CHARGES>  (1) 
29
1 -0.53
10 -0.14
11 -0.15
12 -0.15
13 0.08
14 0.08
15 -0.15
16 -0.15
17 -0.15
18 -0.15
19 -0.15
2 -0.53
27 0.36
28 0.15
29 0.15
3 -0.9
30 0.15
31 0.15
32 0.15
33 0.15
34 0.15
35 0.45
36 0.45
4 0.29
5 -0.14
6 0.27
7 -0.14
8 0.14
9 0.27

>  <PUBCHEM_EFFECTIVE_ROTOR_COUNT>  (1) 
2

>  <PUBCHEM_PHARMACOPHORE_FEATURES>  (1) 
7
1 1 donor
1 2 donor
1 3 cation
1 3 donor
6 10 15 16 17 18 19 rings
6 5 7 11 12 13 14 rings
7 3 4 5 6 7 8 9 rings

>  <PUBCHEM_HEAVY_ATOM_COUNT>  (1) 
19

>  <PUBCHEM_ATOM_DEF_STEREO_COUNT>  (1) 
0

>  <PUBCHEM_ATOM_UDEF_STEREO_COUNT>  (1) 
1

>  <PUBCHEM_BOND_DEF_STEREO_COUNT>  (1) 
0

>  <PUBCHEM_BOND_UDEF_STEREO_COUNT>  (1) 
0

>  <PUBCHEM_ISOTOPIC_ATOM_COUNT>  (1) 
0

>  <PUBCHEM_COMPONENT_COUNT>  (1) 
1

>  <PUBCHEM_CACTVS_TAUTO_COUNT>  (1) 
31

>  <PUBCHEM_CONFORMER_ID>  (1) 
000004DA00000001

>  <PUBCHEM_MMFF94_ENERGY>  (1) 
56.7563

>  <PUBCHEM_FEATURE_SELFOVERLAP>  (1) 
35.534

>  <PUBCHEM_SHAPE_FINGERPRINT>  (1) 
11578080 2 18267560507769779924
11582403 64 11621213653750343645
12202030 40 17169571785539283905
12236239 1 18412272726416538286
12553582 1 18411700971775138814
12633257 1 16845283900243741770
13004483 165 18119800322661695345
13132413 78 18341614793506402061
13140716 1 17774729783181000251
13544653 18 18261387819600097974
13965767 371 17195483722552226177
14178342 30 17131844170373797511
14181834 199 18338238292118563156
14787075 74 18269557307465148808
14817 1 15731694095668547812
15375462 189 18409732867372725266
16945 1 18113902705636205636
17093844 170 16666296855006056819
17349148 13 17418368113189954437
17980427 23 16702011007226794433
1813 80 18336278842386643470
200 152 17968375650452546394
20291156 8 18410857625008177746
20361792 2 18335135367178089630
20600515 1 17489310818825947604
20671657 53 17458632181163815934
21069387 34 14779823773100759778
21296965 67 18261955154604202820
21452121 71 18342454901936106507
22112679 90 18131083644151329413
2255824 54 18264214792764884620
232386 152 17989211477197233671
23388829 49 18410301280804160964
23402539 116 18341607084467412702
23419403 2 17840829045581466553
23526113 38 17095786759644033662
23557571 272 16558203630703233633
25147074 1 17702387441496077875
2748010 2 17339877100413674901
5902787 121 18200875183579544343
77492 1 18340497715440948822
81228 2 17977104557016454412
90316 7 18200316494038619024

>  <PUBCHEM_SHAPE_MULTIPOLES>  (1) 
374.29
6.72
2.53
1.42
0.47
1.57
0.06
-4.93
-1.01
-0.71
-0.26
0.41
0.1
-1.31

>  <PUBCHEM_SHAPE_SELFOVERLAP>  (1) 
812.98

>  <PUBCHEM_SHAPE_VOLUME>  (1) 
200

>  <PUBCHEM_COORDINATE_TYPE>  (1) 
2
5
10

$$$$
