12436
     RDKit          3D

  8  7  0  0  0  0  0  0  0  0999 V2000
    1.8879    1.5088    0.7981 Cl  0  0  0  0  0  0  0  0  0  0  0  0
    2.4507   -1.0980   -0.3947 Cl  0  0  0  0  0  0  0  0  0  0  0  0
   -1.8877   -1.5106    0.7955 Cl  0  0  0  0  0  0  0  0  0  0  0  0
   -2.4503    1.0986   -0.3927 Cl  0  0  0  0  0  0  0  0  0  0  0  0
   -0.0006    0.0024   -1.5256 O   0  0  0  0  0  0  0  0  0  0  0  0
   -0.0001    0.0002   -0.2931 C   0  0  0  0  0  0  0  0  0  0  0  0
    1.2795   -0.1246    0.5059 C   0  0  0  0  0  0  0  0  0  0  0  0
   -1.2795    0.1233    0.5065 C   0  0  0  0  0  0  0  0  0  0  0  0
  1  7  1  0
  2  7  1  0
  3  8  1  0
  4  8  1  0
  5  6  2  0
  6  7  1  0
  6  8  1  0
M  END
>  <PUBCHEM_COMPOUND_CID>  (1) 
12436

>  <PUBCHEM_CONFORMER_RMSD>  (1) 
0.4

>  <PUBCHEM_CONFORMER_DIVERSEORDER>  (1) 
1
17
9
12
15
2
14
8
5
7
16
3
18
11
6
4
19
13
10

>  <PUBCHEM_MMFF94_PARTIAL_CHARGES>  (1) 
8
1 -0.29
2 -0.29
3 -0.29
4 -0.29
5 -0.57
6 0.45
7 0.64
8 0.64

>  <PUBCHEM_EFFECTIVE_ROTOR_COUNT>  (1) 
2

>  <PUBCHEM_PHARMACOPHORE_FEATURES>  (1) 
1
1 5 acceptor

>  <PUBCHEM_HEAVY_ATOM_COUNT>  (1) 
8

>  <PUBCHEM_ATOM_DEF_STEREO_COUNT>  (1) 
0

>  <PUBCHEM_ATOM_UDEF_STEREO_COUNT>  (1) 
0

>  <PUBCHEM_BOND_DEF_STEREO_COUNT>  (1) 
0

>  <PUBCHEM_BOND_UDEF_STEREO_COUNT>  (1) 
0

>  <PUBCHEM_ISOTOPIC_ATOM_COUNT>  (1) 
0

>  <PUBCHEM_COMPONENT_COUNT>  (1) 
1

>  <PUBCHEM_CACTVS_TAUTO_COUNT>  (1) 
2

>  <PUBCHEM_CONFORMER_ID>  (1) 
0000309400000001

>  <PUBCHEM_MMFF94_ENERGY>  (1) 
8.6652

>  <PUBCHEM_FEATURE_SELFOVERLAP>  (1) 
5.074

>  <PUBCHEM_SHAPE_FINGERPRINT>  (1) 
12932741 1 18410856563934756864
137420 1 15966506618976207215
16714656 1 17096093458947868775
21040471 1 17823132337523508849
24536 1 18266437940899139344
29004967 10 18201160958066386154

>  <PUBCHEM_SHAPE_MULTIPOLES>  (1) 
166.25
3.61
1.57
1.11
0
0
0.2
0
-0.17
0
-0.32
0
0
0.88

>  <PUBCHEM_SHAPE_SELFOVERLAP>  (1) 
277.99

>  <PUBCHEM_SHAPE_VOLUME>  (1) 
114.9

>  <PUBCHEM_COORDINATE_TYPE>  (1) 
2
5
10

$$$$
