12438
     RDKit          3D

 13 13  0  0  0  0  0  0  0  0999 V2000
    1.5506    1.0017    0.0975 S   0  0  0  0  0  0  0  0  0  0  0  0
    2.1201    0.5680   -1.3710 O   0  0  0  0  0  0  0  0  0  0  0  0
    1.6937    2.4451    0.2021 O   0  0  0  0  0  0  0  0  0  0  0  0
    2.1397    0.1204    1.0916 O   0  0  0  0  0  0  0  0  0  0  0  0
    0.6600   -2.2093   -1.1969 O   0  0  0  0  0  0  0  0  0  0  0  0
    0.7209   -2.3681    1.0698 O   0  0  0  0  0  0  0  0  0  0  0  0
   -0.1607    0.6352    0.0483 C   0  0  0  0  0  0  0  0  0  0  0  0
   -0.6207   -0.6814    0.0310 C   0  0  0  0  0  0  0  0  0  0  0  0
   -1.0706    1.6922    0.0264 C   0  0  0  0  0  0  0  0  0  0  0  0
   -1.9907   -0.9412   -0.0084 C   0  0  0  0  0  0  0  0  0  0  0  0
   -2.4406    1.4326   -0.0128 C   0  0  0  0  0  0  0  0  0  0  0  0
   -2.9006    0.1159   -0.0303 C   0  0  0  0  0  0  0  0  0  0  0  0
    0.2989   -1.8113    0.0528 C   0  0  0  0  0  0  0  0  0  0  0  0
  1  2  1  0
  1  3  2  0
  1  4  2  0
  1  7  1  0
  5 13  1  0
  6 13  2  0
  7  8  2  0
  7  9  1  0
  8 10  1  0
  8 13  1  0
  9 11  2  0
 10 12  2  0
 11 12  1  0
M  END
>  <PUBCHEM_COMPOUND_CID>  (1) 
12438

>  <PUBCHEM_CONFORMER_RMSD>  (1) 
0.6

>  <PUBCHEM_CONFORMER_DIVERSEORDER>  (1) 
1
2
3

>  <PUBCHEM_MMFF94_PARTIAL_CHARGES>  (1) 
19
1 1.49
10 -0.15
11 -0.15
12 -0.15
13 0.63
14 0.15
15 0.15
16 0.15
17 0.15
18 0.5
19 0.5
2 -0.68
3 -0.65
4 -0.65
5 -0.65
6 -0.57
7 -0.01
8 0.09
9 -0.15

>  <PUBCHEM_EFFECTIVE_ROTOR_COUNT>  (1) 
2

>  <PUBCHEM_PHARMACOPHORE_FEATURES>  (1) 
8
1 2 acceptor
1 3 acceptor
1 4 acceptor
1 5 acceptor
1 6 acceptor
3 5 6 13 anion
4 1 2 3 4 anion
6 7 8 9 10 11 12 rings

>  <PUBCHEM_HEAVY_ATOM_COUNT>  (1) 
13

>  <PUBCHEM_ATOM_DEF_STEREO_COUNT>  (1) 
0

>  <PUBCHEM_ATOM_UDEF_STEREO_COUNT>  (1) 
0

>  <PUBCHEM_BOND_DEF_STEREO_COUNT>  (1) 
0

>  <PUBCHEM_BOND_UDEF_STEREO_COUNT>  (1) 
0

>  <PUBCHEM_ISOTOPIC_ATOM_COUNT>  (1) 
0

>  <PUBCHEM_COMPONENT_COUNT>  (1) 
1

>  <PUBCHEM_CACTVS_TAUTO_COUNT>  (1) 
1

>  <PUBCHEM_CONFORMER_ID>  (1) 
0000309600000001

>  <PUBCHEM_MMFF94_ENERGY>  (1) 
30.9572

>  <PUBCHEM_FEATURE_SELFOVERLAP>  (1) 
40.715

>  <PUBCHEM_SHAPE_FINGERPRINT>  (1) 
1 1 18410849962654445069
12423570 1 10662666202977873335
12524768 44 17766004178354951892
12696612 119 18264482880333704299
14817 1 15045758427882959702
15775835 57 18334295404703478616
16945 1 18411418397571364033
17990270 104 18197494017931067807
20645476 183 17533221001171303324
20871998 184 17550114000788898974
21040471 1 18265332983105164776
21501502 16 18266177232484956529
22802520 49 17981350067995857420
2334 1 18123185972736336209
23419403 2 13276855325235054373
23552423 10 18190184490446727103
23559900 14 18271255950309504724
241688 4 17546446678654829161
2748010 2 18194401323692650405
430814 3 17532102763702472580
5084963 1 18059866098461179369
7364860 26 18200027322559232043
81228 2 17617941778005765097

>  <PUBCHEM_SHAPE_MULTIPOLES>  (1) 
242.04
3.29
2.55
0.93
1.24
0.54
-0.11
-1.12
-0.04
-0.83
0.07
-0.52
0.26
-0.03

>  <PUBCHEM_SHAPE_SELFOVERLAP>  (1) 
499.766

>  <PUBCHEM_SHAPE_VOLUME>  (1) 
138.6

>  <PUBCHEM_COORDINATE_TYPE>  (1) 
2
5
10

$$$$
