12442
     RDKit          3D

 16 16  0  0  0  0  0  0  0  0999 V2000
    0.6977   -3.1340    0.0485 Cl  0  0  0  0  0  0  0  0  0  0  0  0
    0.6975    3.1339   -0.0491 Cl  0  0  0  0  0  0  0  0  0  0  0  0
    3.4440   -1.5732    0.0255 Cl  0  0  0  0  0  0  0  0  0  0  0  0
    3.4439    1.5734   -0.0248 Cl  0  0  0  0  0  0  0  0  0  0  0  0
   -2.2030   -1.6785   -1.2318 O   0  0  0  0  0  0  0  0  0  0  0  0
   -2.2028    1.6787    1.2320 O   0  0  0  0  0  0  0  0  0  0  0  0
   -2.3729   -1.7399    1.0340 O   0  0  0  0  0  0  0  0  0  0  0  0
   -2.3732    1.7396   -1.0338 O   0  0  0  0  0  0  0  0  0  0  0  0
   -0.4781   -0.6973    0.0110 C   0  0  0  0  0  0  0  0  0  0  0  0
   -0.4781    0.6973   -0.0108 C   0  0  0  0  0  0  0  0  0  0  0  0
    0.7300   -1.3947    0.0217 C   0  0  0  0  0  0  0  0  0  0  0  0
    0.7299    1.3946   -0.0220 C   0  0  0  0  0  0  0  0  0  0  0  0
    1.9379   -0.6973    0.0107 C   0  0  0  0  0  0  0  0  0  0  0  0
    1.9379    0.6973   -0.0112 C   0  0  0  0  0  0  0  0  0  0  0  0
   -1.7554   -1.4107    0.0221 C   0  0  0  0  0  0  0  0  0  0  0  0
   -1.7555    1.4106   -0.0219 C   0  0  0  0  0  0  0  0  0  0  0  0
  1 11  1  0
  2 12  1  0
  3 13  1  0
  4 14  1  0
  5 15  1  0
  6 16  1  0
  7 15  2  0
  8 16  2  0
  9 10  2  0
  9 11  1  0
  9 15  1  0
 10 12  1  0
 10 16  1  0
 11 13  2  0
 12 14  2  0
 13 14  1  0
M  END
>  <PUBCHEM_COMPOUND_CID>  (1) 
12442

>  <PUBCHEM_CONFORMER_RMSD>  (1) 
0.6

>  <PUBCHEM_CONFORMER_DIVERSEORDER>  (1) 
1

>  <PUBCHEM_MMFF94_PARTIAL_CHARGES>  (1) 
18
1 -0.18
10 0.09
11 0.18
12 0.18
13 0.18
14 0.18
15 0.63
16 0.63
17 0.5
18 0.5
2 -0.18
3 -0.18
4 -0.18
5 -0.65
6 -0.65
7 -0.57
8 -0.57
9 0.09

>  <PUBCHEM_EFFECTIVE_ROTOR_COUNT>  (1) 
2

>  <PUBCHEM_PHARMACOPHORE_FEATURES>  (1) 
7
1 5 acceptor
1 6 acceptor
1 7 acceptor
1 8 acceptor
3 5 7 15 anion
3 6 8 16 anion
6 9 10 11 12 13 14 rings

>  <PUBCHEM_HEAVY_ATOM_COUNT>  (1) 
16

>  <PUBCHEM_ATOM_DEF_STEREO_COUNT>  (1) 
0

>  <PUBCHEM_ATOM_UDEF_STEREO_COUNT>  (1) 
0

>  <PUBCHEM_BOND_DEF_STEREO_COUNT>  (1) 
0

>  <PUBCHEM_BOND_UDEF_STEREO_COUNT>  (1) 
0

>  <PUBCHEM_ISOTOPIC_ATOM_COUNT>  (1) 
0

>  <PUBCHEM_COMPONENT_COUNT>  (1) 
1

>  <PUBCHEM_CACTVS_TAUTO_COUNT>  (1) 
1

>  <PUBCHEM_CONFORMER_ID>  (1) 
0000309A00000001

>  <PUBCHEM_MMFF94_ENERGY>  (1) 
54.2313

>  <PUBCHEM_FEATURE_SELFOVERLAP>  (1) 
35.638

>  <PUBCHEM_SHAPE_FINGERPRINT>  (1) 
10967382 1 18122343480519972644
11206711 2 18265334087022711972
11680986 33 18411133649470988249
12423570 1 15322270475588784446
12524768 44 18195529177514070694
13140716 1 18410575042198690072
13380535 21 18338248097766230716
13380535 76 18121773937544345334
14614273 12 18261385663468376493
14790565 3 17904505217268758549
16945 1 18122065295482922976
193761 8 18410293609923732102
20510252 161 18199188567281746104
20588541 1 18122346770422898766
21501502 16 18411419514278509830
2334 1 18410575119471171204
23388829 49 18125436655652516844
23402539 116 18126557053964625486
23419403 2 16323068748075994793
23493267 7 17315615559780713377
23526114 1 18410291415448658036
23559900 14 18198911310786047806
2748010 2 18411136935526859198
353137 74 18192425492469985104

>  <PUBCHEM_SHAPE_MULTIPOLES>  (1) 
313.27
4.31
3.56
0.85
1.69
0
0
0
0
0.19
0
-0.53
0
-0.05

>  <PUBCHEM_SHAPE_SELFOVERLAP>  (1) 
635.186

>  <PUBCHEM_SHAPE_VOLUME>  (1) 
186.3

>  <PUBCHEM_COORDINATE_TYPE>  (1) 
2
5
10

$$$$
