12451
     RDKit          3D

 32 35  0  0  1  0  0  0  0  0999 V2000
    5.2286    0.9021    0.8675 O   0  0  0  0  0  0  0  0  0  0  0  0
    7.3913    1.4035    0.2388 O   0  0  0  0  0  0  0  0  0  0  0  0
   -1.4577   -0.5452    0.0212 C   0  0  0  0  0  0  0  0  0  0  0  0
   -0.5747   -0.1544   -1.1807 C   0  0  0  0  0  0  0  0  0  0  0  0
    0.9252   -0.2028   -0.8719 C   0  0  0  0  0  0  0  0  0  0  0  0
    1.3119   -1.6351   -0.4060 C   0  0  0  0  0  0  0  0  0  0  0  0
   -2.8526   -0.3330   -0.6163 C   0  0  0  0  0  0  0  0  0  0  0  0
   -1.1294   -2.0012    0.3810 C   0  0  0  0  0  0  0  0  0  0  0  0
    2.8521   -1.7538   -0.0582 C   0  0  0  0  0  0  0  0  0  0  0  0
   -1.1855    1.1564   -1.6668 C   0  0  0  0  0  0  0  0  0  0  0  0
    0.3653   -2.1765    0.7013 C   0  0  0  0  0  0  0  0  0  0  0  0
   -2.6946    0.9839   -1.4124 C   0  0  0  0  0  0  0  0  0  0  0  0
    1.7469    0.1759   -2.1126 C   0  0  0  0  0  0  0  0  0  0  0  0
   -4.0399   -0.3107    0.3358 C   0  0  0  0  0  0  0  0  0  0  0  0
   -1.2680    0.3610    1.2631 C   0  0  0  0  0  0  0  0  0  0  0  0
    3.7168   -0.8947   -0.9903 C   0  0  0  0  0  0  0  0  0  0  0  0
    3.1696   -1.2901    1.3905 C   0  0  0  0  0  0  0  0  0  0  0  0
    3.2073   -0.0694   -1.9207 C   0  0  0  0  0  0  0  0  0  0  0  0
    3.2386   -3.2473   -0.2217 C   0  0  0  0  0  0  0  0  0  0  0  0
    5.2085   -0.9122   -0.7342 C   0  0  0  0  0  0  0  0  0  0  0  0
    4.6703   -1.2698    1.7274 C   0  0  0  0  0  0  0  0  0  0  0  0
   -5.2290    0.4276   -0.3167 C   0  0  0  0  0  0  0  0  0  0  0  0
    5.5013   -0.4906    0.7083 C   0  0  0  0  0  0  0  0  0  0  0  0
   -4.4041   -1.7402    0.7509 C   0  0  0  0  0  0  0  0  0  0  0  0
   -6.4959    0.4395    0.5447 C   0  0  0  0  0  0  0  0  0  0  0  0
   -7.6944    1.1113   -0.1387 C   0  0  0  0  0  0  0  0  0  0  0  0
   -8.9819    1.2179    0.7004 C   0  0  0  0  0  0  0  0  0  0  0  0
    6.2722    1.7436    0.5971 C   0  0  0  0  0  0  0  0  0  0  0  0
   -9.4555   -0.1835    1.0977 C   0  0  0  0  0  0  0  0  0  0  0  0
  -10.1018    1.9517   -0.0374 C   0  0  0  0  0  0  0  0  0  0  0  0
    5.8220    3.1697    0.8112 C   0  0  0  0  0  0  0  0  0  0  0  0
    6.9369    4.1667    0.5475 C   0  0  0  0  0  0  0  0  0  0  0  0
  1 23  1  0
  1 28  1  0
  2 28  2  0
  3  4  1  0
  3  7  1  0
  3  8  1  0
  3 15  1  0
  4  5  1  0
  4 10  1  0
  5  6  1  0
  5 13  1  0
  6  9  1  0
  6 11  1  0
  7 12  1  0
  7 14  1  0
  8 11  1  0
  9 16  1  0
  9 17  1  0
  9 19  1  0
 10 12  1  0
 13 18  1  0
 14 22  1  0
 14 24  1  0
 16 18  2  0
 16 20  1  0
 17 21  1  0
 20 23  1  0
 21 23  1  0
 22 25  1  0
 25 26  1  0
 26 27  1  0
 27 29  1  0
 27 30  1  0
 28 31  1  0
 31 32  1  0
M  END
>  <PUBCHEM_COMPOUND_CID>  (1) 
12451

>  <PUBCHEM_CONFORMER_RMSD>  (1) 
1

>  <PUBCHEM_CONFORMER_DIVERSEORDER>  (1) 
1
407
130
154
425
406
411
352
362
205
176
351
419
207
365
127
381
274
8
281
339
99
258
370
155
19
73
16
297
244
333
331
295
75
374
87
47
305
190
267
356
393
317
132
272
139
55
391
138
107
328
378
387
31
316
122
72
95
369
400
191
226
423
57
372
29
228
341
126
368
265
161
345
213
134
24
428
424
375
84
222
240
270
66
353
169
255
200
150
354
76
404
171
142
416
229
288
279
202
128
373
399
219
123
90
232
59
389
211
291
330
380
28
422
89
433
193
386
157
376
141
43
181
320
220
421
246
125
100
367
384
61
196
149
286
83
153
349
392
129
412
358
301
245
340
30
323
103
237
54
382
263
67
236
285
302
13
394
348
62
271
269
81
363
56
215
284
408
239
131
94
319
403
93
230
197
327
253
182
39
252
309
170
249
410
322
195
371
189
241
60
276
395
68
140
247
254
366
329
273
120
179
104
175
401
146
65
160
235
46
347
259
225
287
152
289
78
4
82
290
299
414
429
199
315
298
344
143
321
25
185
6
248
361
172
137
11
350
238
147
135
355
310
20
101
264
167
14
12
343
217
91
115
390
148
165
206
77
27
174
234
63
303
108
383
413
86
74
162
97
335
106
388
432
208
318
201
306
227
111
342
307
164
431
409
79
5
277
243
280
397
52
163
186
36
26
92
260
282
17
293
18
324
256
102
212
426
360
233
192
325
194
183
278
304
121
144
2
71
332
53
23
117
359
178
7
151
402
296
173
427
166
266
313
417
85
204
21
420
35
188
415
3
37
64
105
311
51
418
15
116
216
184
292
314
112
98
145
405
124
42
283
156
44
133
158
203
187
346
119
218
209
337
88
231
96
334
45
159
275
308
379
242
430
338
22
136
221
33
300
250
312
48
41
214
377
110
9
268
262
180
40
224
385
396
294
261
114
210
49
257
168
109
70
118
251
326
58
69
223
38
198
113
32
336
34
10
177
357
364
398
80
50

>  <PUBCHEM_MMFF94_PARTIAL_CHARGES>  (1) 
11
1 -0.43
13 0.14
16 -0.28
18 -0.29
2 -0.57
20 0.14
23 0.28
28 0.66
31 0.06
53 0.15
9 0.14

>  <PUBCHEM_EFFECTIVE_ROTOR_COUNT>  (1) 
10

>  <PUBCHEM_PHARMACOPHORE_FEATURES>  (1) 
9
1 2 acceptor
1 24 hydrophobe
1 32 hydrophobe
3 27 29 30 hydrophobe
5 14 22 25 26 27 hydrophobe
5 3 4 7 10 12 rings
6 3 4 5 6 8 11 rings
6 5 6 9 13 16 18 rings
6 9 16 17 20 21 23 rings

>  <PUBCHEM_HEAVY_ATOM_COUNT>  (1) 
32

>  <PUBCHEM_ATOM_DEF_STEREO_COUNT>  (1) 
4

>  <PUBCHEM_ATOM_UDEF_STEREO_COUNT>  (1) 
4

>  <PUBCHEM_BOND_DEF_STEREO_COUNT>  (1) 
0

>  <PUBCHEM_BOND_UDEF_STEREO_COUNT>  (1) 
0

>  <PUBCHEM_ISOTOPIC_ATOM_COUNT>  (1) 
0

>  <PUBCHEM_COMPONENT_COUNT>  (1) 
1

>  <PUBCHEM_CACTVS_TAUTO_COUNT>  (1) 
1

>  <PUBCHEM_CONFORMER_ID>  (1) 
000030A300000001

>  <PUBCHEM_MMFF94_ENERGY>  (1) 
88.3848

>  <PUBCHEM_FEATURE_SELFOVERLAP>  (1) 
45.783

>  <PUBCHEM_SHAPE_FINGERPRINT>  (1) 
10 15 18187083945134641371
10165383 225 18410293615126327142
10693767 8 9367350323307657380
11181472 205 17630900300735287977
11408170 132 14117250412581698873
11578821 258 18271242730343256041
11719270 70 17967538926831695811
12522641 24 18335135333288402506
12539765 74 17846222133610851799
12633257 1 15213295362005440594
12838862 33 17748818615231091367
13383668 362 17823991228415560497
13617811 41 15195285317727634033
13782708 43 12973604443299932073
14040221 8 15984835774459499105
14114211 68 15554457296674297044
14202775 3 9871451138411167277
14251764 18 18040158401565663383
14849402 71 18271806852616533713
15131766 46 17844798377585108168
15183329 4 17895207558824650943
15475509 35 12901536971460144172
15840311 113 18411421695773918821
16728433 110 18411702072779703449
18393751 57 18114174254880652978
19315958 150 18341335518217851635
2026 5 7925370523020465312
20771845 140 15357693085013161848
20771845 171 16917075416762358334
21057603 130 12324243897729005760
21130935 74 18116154377461384483
21267235 1 17313952904805162118
21344244 78 16153423944181413580
21521721 280 18411698773342532091
21781051 124 10953753183648773641
21792934 111 17675922076272419549
22224240 67 18334295349707673947
23559900 14 17896044248166021870
23576562 1 14116930540866660049
24771293 8 18262233434294096285
27425 322 18060136565822170894
3418910 222 17275112734897310185
34797466 226 18060423482289875311
4258327 124 17274823597366204277
439807 62 8070028873865838617
4625314 4 18201720673466627518
504579 68 12967129406961238105
5104073 3 17823126831317575560
57527293 21 18337938056920382350
59682541 35 18113341921042646833

>  <PUBCHEM_SHAPE_MULTIPOLES>  (1) 
646.81
25.3
3.02
1.55
53.04
1.88
0.41
20.54
-8.96
-6.63
-0.86
-1.01
0.05
1.44

>  <PUBCHEM_SHAPE_SELFOVERLAP>  (1) 
1332.717

>  <PUBCHEM_SHAPE_VOLUME>  (1) 
371.3

>  <PUBCHEM_COORDINATE_TYPE>  (1) 
2
5
10

$$$$
