12459
     RDKit          3D

 12 13  0  0  0  0  0  0  0  0999 V2000
   -1.6479   -2.3908    0.0006 Cl  0  0  0  0  0  0  0  0  0  0  0  0
   -3.3645   -0.0100    0.0008 O   0  0  0  0  0  0  0  0  0  0  0  0
    0.2996   -0.4382   -0.0003 C   0  0  0  0  0  0  0  0  0  0  0  0
    0.7028    0.9184    0.0000 C   0  0  0  0  0  0  0  0  0  0  0  0
   -1.0702   -0.7476   -0.0006 C   0  0  0  0  0  0  0  0  0  0  0  0
   -0.2759    1.9258    0.0001 C   0  0  0  0  0  0  0  0  0  0  0  0
    1.2783   -1.4455   -0.0003 C   0  0  0  0  0  0  0  0  0  0  0  0
    2.0727    1.2278    0.0004 C   0  0  0  0  0  0  0  0  0  0  0  0
   -2.0288    0.2659   -0.0006 C   0  0  0  0  0  0  0  0  0  0  0  0
   -1.6325    1.6000   -0.0003 C   0  0  0  0  0  0  0  0  0  0  0  0
    2.6350   -1.1199    0.0000 C   0  0  0  0  0  0  0  0  0  0  0  0
    3.0313    0.2142    0.0003 C   0  0  0  0  0  0  0  0  0  0  0  0
  1  5  1  0
  2  9  1  0
  3  4  1  0
  3  5  2  0
  3  7  1  0
  4  6  2  0
  4  8  1  0
  5  9  1  0
  6 10  1  0
  7 11  2  0
  8 12  2  0
  9 10  2  0
 11 12  1  0
M  END
>  <PUBCHEM_COMPOUND_CID>  (1) 
12459

>  <PUBCHEM_CONFORMER_RMSD>  (1) 
0.4

>  <PUBCHEM_CONFORMER_DIVERSEORDER>  (1) 
1

>  <PUBCHEM_MMFF94_PARTIAL_CHARGES>  (1) 
17
1 -0.18
10 -0.15
11 -0.15
12 -0.15
13 0.15
14 0.15
15 0.15
16 0.15
17 0.15
18 0.15
19 0.45
2 -0.53
5 0.18
6 -0.15
7 -0.15
8 -0.15
9 0.08

>  <PUBCHEM_EFFECTIVE_ROTOR_COUNT>  (1) 
0

>  <PUBCHEM_PHARMACOPHORE_FEATURES>  (1) 
3
1 2 donor
6 3 4 5 6 9 10 rings
6 3 4 7 8 11 12 rings

>  <PUBCHEM_HEAVY_ATOM_COUNT>  (1) 
12

>  <PUBCHEM_ATOM_DEF_STEREO_COUNT>  (1) 
0

>  <PUBCHEM_ATOM_UDEF_STEREO_COUNT>  (1) 
0

>  <PUBCHEM_BOND_DEF_STEREO_COUNT>  (1) 
0

>  <PUBCHEM_BOND_UDEF_STEREO_COUNT>  (1) 
0

>  <PUBCHEM_ISOTOPIC_ATOM_COUNT>  (1) 
0

>  <PUBCHEM_COMPONENT_COUNT>  (1) 
1

>  <PUBCHEM_CACTVS_TAUTO_COUNT>  (1) 
3

>  <PUBCHEM_CONFORMER_ID>  (1) 
000030AB00000001

>  <PUBCHEM_MMFF94_ENERGY>  (1) 
35.5499

>  <PUBCHEM_FEATURE_SELFOVERLAP>  (1) 
15.249

>  <PUBCHEM_SHAPE_FINGERPRINT>  (1) 
10967382 1 18410856555381842982
11206711 2 18264490581088896388
12032990 46 18410019822849057379
12382932 28 18341047514241439666
12423570 1 10933587220691605216
12524768 44 18413112736046495454
12897270 3 18410856577051806396
13380535 76 18412259532229753046
14325111 11 18338798914067879616
16945 1 18410856551213489220
17844478 74 18040445373398892937
193761 8 17906452486736241997
20201158 50 18410291402126075042
20510252 161 18200873959334705656
20588541 1 18412547617123812655
20871998 184 18201441419082824439
21040471 1 18338516322679071460
21501502 16 18265614462408491222
2334 1 17978229683670661794
23402539 116 18270385127581884991
23463225 33 18408039598270480688
23552423 10 18189336929995316308
23559900 14 18271248202262407486
2748010 2 18123187071909970660
5084963 1 18058444309640831683
528886 8 18411695521556215466
53812653 166 18200026382183246000
8809292 202 18334581256420721114

>  <PUBCHEM_SHAPE_MULTIPOLES>  (1) 
242.95
4.14
2.23
0.61
0.29
0.41
0
0.4
0
-0.62
0
0.02
0.01
0

>  <PUBCHEM_SHAPE_SELFOVERLAP>  (1) 
526.322

>  <PUBCHEM_SHAPE_VOLUME>  (1) 
134

>  <PUBCHEM_COORDINATE_TYPE>  (1) 
2
5
10

$$$$
