12450
     RDKit          3D

 29 31  0  0  0  0  0  0  0  0999 V2000
   -4.5853   -1.9559    0.0763 N   0  0  0  0  0  0  0  0  0  0  0  0
    4.9393   -1.5155   -0.0692 N   0  0  0  0  0  0  0  0  0  0  0  0
   -0.0706    1.1055   -0.0044 C   0  0  0  0  0  0  0  0  0  0  0  0
   -1.1822    0.3517    0.0150 C   0  0  0  0  0  0  0  0  0  0  0  0
    1.2465    0.4165   -0.0214 C   0  0  0  0  0  0  0  0  0  0  0  0
   -3.5227   -1.2352    0.0577 C   0  0  0  0  0  0  0  0  0  0  0  0
    3.6898   -0.8618   -0.0531 C   0  0  0  0  0  0  0  0  0  0  0  0
   -4.5172   -3.4399    0.0793 C   0  0  0  0  0  0  0  0  0  0  0  0
   -5.9386   -1.3436    0.0958 C   0  0  0  0  0  0  0  0  0  0  0  0
    5.5648   -1.8724   -1.3272 C   0  0  0  0  0  0  0  0  0  0  0  0
    5.6080   -1.8516    1.1720 C   0  0  0  0  0  0  0  0  0  0  0  0
   -0.2218    2.5845   -0.0069 C   0  0  0  0  0  0  0  0  0  0  0  0
   -1.0820   -1.1000    0.0182 C   0  0  0  0  0  0  0  0  0  0  0  0
   -2.4936    0.9821    0.0333 C   0  0  0  0  0  0  0  0  0  0  0  0
    1.8535    0.1120    1.1788 C   0  0  0  0  0  0  0  0  0  0  0  0
    1.8183    0.1042   -1.2370 C   0  0  0  0  0  0  0  0  0  0  0  0
   -2.1784   -1.8702    0.0384 C   0  0  0  0  0  0  0  0  0  0  0  0
   -3.6149    0.2487    0.0540 C   0  0  0  0  0  0  0  0  0  0  0  0
    3.0895   -0.5344    1.1628 C   0  0  0  0  0  0  0  0  0  0  0  0
    3.0542   -0.5424   -1.2530 C   0  0  0  0  0  0  0  0  0  0  0  0
   -4.4471   -3.9337    1.5084 C   0  0  0  0  0  0  0  0  0  0  0  0
   -6.4057   -1.1190   -1.3264 C   0  0  0  0  0  0  0  0  0  0  0  0
    4.9890   -3.1656   -1.8792 C   0  0  0  0  0  0  0  0  0  0  0  0
    6.3504   -0.6528    1.7377 C   0  0  0  0  0  0  0  0  0  0  0  0
   -0.3071    3.2424   -1.2160 C   0  0  0  0  0  0  0  0  0  0  0  0
   -0.2719    3.2504    1.1998 C   0  0  0  0  0  0  0  0  0  0  0  0
   -0.4487    4.6301   -1.2186 C   0  0  0  0  0  0  0  0  0  0  0  0
   -0.4135    4.6381    1.1971 C   0  0  0  0  0  0  0  0  0  0  0  0
   -0.5020    5.3278   -0.0122 C   0  0  0  0  0  0  0  0  0  0  0  0
  1  6  2  3
  1  8  1  0
  1  9  1  0
  2  7  1  0
  2 10  1  0
  2 11  1  0
  3  4  2  3
  3  5  1  0
  3 12  1  0
  4 13  1  0
  4 14  1  0
  5 15  2  0
  5 16  1  0
  6 17  1  0
  6 18  1  0
  7 19  2  0
  7 20  1  0
  8 21  1  0
  9 22  1  0
 10 23  1  0
 11 24  1  0
 12 25  2  0
 12 26  1  0
 13 17  2  0
 14 18  2  0
 15 19  1  0
 16 20  2  0
 25 27  1  0
 26 28  2  0
 27 29  2  0
 28 29  1  0
M  CHG  1   1   1
M  END
>  <PUBCHEM_COMPOUND_CID>  (1) 
12450

>  <PUBCHEM_CONFORMER_RMSD>  (1) 
0.8

>  <PUBCHEM_CONFORMER_DIVERSEORDER>  (1) 
1
4
3
2

>  <PUBCHEM_MMFF94_PARTIAL_CHARGES>  (1) 
37
1 -0.09
10 0.37
11 0.37
12 0.03
13 -0.15
14 -0.15
15 -0.15
16 -0.15
17 -0.14
18 -0.14
19 -0.15
2 -0.84
20 -0.15
25 -0.15
26 -0.15
27 -0.15
28 -0.15
29 -0.15
3 -0.06
38 0.15
39 0.15
40 0.15
41 0.15
42 0.15
43 0.15
44 0.15
45 0.15
5 0.03
58 0.15
59 0.15
6 0.37
60 0.15
61 0.15
62 0.15
7 0.1
8 0.35
9 0.35

>  <PUBCHEM_EFFECTIVE_ROTOR_COUNT>  (1) 
7

>  <PUBCHEM_PHARMACOPHORE_FEATURES>  (1) 
4
1 2 cation
6 12 25 26 27 28 29 rings
6 4 6 13 14 17 18 rings
6 5 7 15 16 19 20 rings

>  <PUBCHEM_HEAVY_ATOM_COUNT>  (1) 
29

>  <PUBCHEM_ATOM_DEF_STEREO_COUNT>  (1) 
0

>  <PUBCHEM_ATOM_UDEF_STEREO_COUNT>  (1) 
0

>  <PUBCHEM_BOND_DEF_STEREO_COUNT>  (1) 
0

>  <PUBCHEM_BOND_UDEF_STEREO_COUNT>  (1) 
0

>  <PUBCHEM_ISOTOPIC_ATOM_COUNT>  (1) 
0

>  <PUBCHEM_COMPONENT_COUNT>  (1) 
1

>  <PUBCHEM_CACTVS_TAUTO_COUNT>  (1) 
1

>  <PUBCHEM_CONFORMER_ID>  (1) 
000030A200000001

>  <PUBCHEM_MMFF94_ENERGY>  (1) 
116.3202

>  <PUBCHEM_FEATURE_SELFOVERLAP>  (1) 
20.297

>  <PUBCHEM_SHAPE_FINGERPRINT>  (1) 
10169797 241 17246967632852794035
11056379 131 18194127313400579924
11331351 85 18131350800398002785
12342043 65 17631184000442430382
12516196 113 18411697720468973954
12788726 201 18115300060345408995
13004483 165 18411695500208012060
131258 43 18199490898788399500
13140716 1 18411419509630524152
13540713 4 17826503660035688931
13673619 4 17917717873001578418
13690498 29 18200604588382963526
13782708 43 17560243518454777742
13955234 65 17763192731903057969
14068700 675 18186799167333393868
14347424 109 17979092784311588187
15042514 8 18339931402828951285
15219462 58 17834352841285507690
15927050 60 17621041963099962175
17492 89 18048878795541931299
17686467 74 18410290325260253088
1813 80 18341055197832371877
19315092 285 16663136644377579712
19958102 18 17905886972792931500
20600515 1 18272381849298877761
20775438 99 17399224743424887139
21033648 29 16917079845248290051
21120745 212 18266762245580467220
21304303 172 18272655606710013529
21716022 299 17972062437077995444
21796203 349 17903391360349793106
23366157 5 17902793299439172197
23559900 14 18191860335589169555
24771750 20 17468206981653424372
255183 313 17981058418363884297
283562 15 18263077726053673346
3004659 81 18187089464147057150
3103668 31 18263360284096307757
3380486 145 17771311388091870444
4046055 4 18340207388532087597
437815 12 18412538817363558071
4408954 87 17198567866381845361
4409770 3 18045208359208191365
463206 1 18261393394457833243
59755656 520 17480306664999237224
613672 6 18412543227704945735
6673363 416 18339375145500720796
6697151 62 18266718342735588183
70251023 43 18410582764576365856
7399639 24 18201708566865832288
77188 2 18411701023325653053
9962374 69 18125718144279865023

>  <PUBCHEM_SHAPE_MULTIPOLES>  (1) 
586.84
13.21
6.28
1.5
3.63
8.94
-0.07
-19.78
-0.01
-3.82
0.13
1.58
-0.3
1.59

>  <PUBCHEM_SHAPE_SELFOVERLAP>  (1) 
1246.474

>  <PUBCHEM_SHAPE_VOLUME>  (1) 
326.7

>  <PUBCHEM_COORDINATE_TYPE>  (1) 
2
5
10

$$$$
