12479
     RDKit          3D

 14 14  0  0  0  0  0  0  0  0999 V2000
   -1.1603   -0.6990    0.7661 O   0  0  0  0  0  0  0  0  0  0  0  0
    1.1587   -0.7019   -0.7664 O   0  0  0  0  0  0  0  0  0  0  0  0
   -2.4351   -0.6614   -1.1968 O   0  0  0  0  0  0  0  0  0  0  0  0
    2.4327   -0.6676    1.1971 O   0  0  0  0  0  0  0  0  0  0  0  0
   -0.5816    0.4733    0.3841 C   0  0  0  0  0  0  0  0  0  0  0  0
    0.5826    0.4718   -0.3845 C   0  0  0  0  0  0  0  0  0  0  0  0
   -1.1619    1.6821    0.7685 C   0  0  0  0  0  0  0  0  0  0  0  0
    1.1662    1.6792   -0.7685 C   0  0  0  0  0  0  0  0  0  0  0  0
   -0.5780    2.8894    0.3844 C   0  0  0  0  0  0  0  0  0  0  0  0
    0.5860    2.8879   -0.3841 C   0  0  0  0  0  0  0  0  0  0  0  0
   -2.1109   -1.1916   -0.1425 C   0  0  0  0  0  0  0  0  0  0  0  0
    2.1076   -1.1969    0.1425 C   0  0  0  0  0  0  0  0  0  0  0  0
   -2.6874   -2.4793    0.3665 C   0  0  0  0  0  0  0  0  0  0  0  0
    2.6814   -2.4859   -0.3663 C   0  0  0  0  0  0  0  0  0  0  0  0
  1  5  1  0
  1 11  1  0
  2  6  1  0
  2 12  1  0
  3 11  2  0
  4 12  2  0
  5  6  2  0
  5  7  1  0
  6  8  1  0
  7  9  2  0
  8 10  2  0
  9 10  1  0
 11 13  1  0
 12 14  1  0
M  END
>  <PUBCHEM_COMPOUND_CID>  (1) 
12479

>  <PUBCHEM_CONFORMER_RMSD>  (1) 
0.6

>  <PUBCHEM_CONFORMER_DIVERSEORDER>  (1) 
1
41
9
3
22
17
28
23
47
42
40
26
43
5
49
46
24
2
14
20
27
38
37
39
44
45
19
21
32
15
51
33
6
10
8
16
36
50
30
18
35
29
4
52
31
25
12
7
11
34
13
48

>  <PUBCHEM_MMFF94_PARTIAL_CHARGES>  (1) 
18
1 -0.23
10 -0.15
11 0.66
12 0.66
13 0.06
14 0.06
15 0.15
16 0.15
17 0.15
18 0.15
2 -0.23
3 -0.57
4 -0.57
5 0.08
6 0.08
7 -0.15
8 -0.15
9 -0.15

>  <PUBCHEM_EFFECTIVE_ROTOR_COUNT>  (1) 
4

>  <PUBCHEM_PHARMACOPHORE_FEATURES>  (1) 
3
1 3 acceptor
1 4 acceptor
6 5 6 7 8 9 10 rings

>  <PUBCHEM_HEAVY_ATOM_COUNT>  (1) 
14

>  <PUBCHEM_ATOM_DEF_STEREO_COUNT>  (1) 
0

>  <PUBCHEM_ATOM_UDEF_STEREO_COUNT>  (1) 
0

>  <PUBCHEM_BOND_DEF_STEREO_COUNT>  (1) 
0

>  <PUBCHEM_BOND_UDEF_STEREO_COUNT>  (1) 
0

>  <PUBCHEM_ISOTOPIC_ATOM_COUNT>  (1) 
0

>  <PUBCHEM_COMPONENT_COUNT>  (1) 
1

>  <PUBCHEM_CACTVS_TAUTO_COUNT>  (1) 
1

>  <PUBCHEM_CONFORMER_ID>  (1) 
000030BF00000001

>  <PUBCHEM_MMFF94_ENERGY>  (1) 
41.418

>  <PUBCHEM_FEATURE_SELFOVERLAP>  (1) 
15.223

>  <PUBCHEM_SHAPE_FINGERPRINT>  (1) 
1 1 17688587590497450101
12423570 1 16620745015679311325
15001771 113 18408892836225688151
15490181 7 17186429149581161132
16945 1 18049441740529822597
20524608 308 17765993900693521286
20645476 183 16962430099768136214
20645477 70 17976815712372372623
20711985 344 18122613960048492610
20871998 184 17833568794288165112
23388829 49 18269831076858911300
23419403 2 17400298742729938588
23530152 11 17186163608912376991
23557571 272 18057332674212104798
257057 1 18410848863063871271
2748010 2 18412822473603451558
2871803 45 16757469557646280063
3060560 45 17401200570134839111
54338 74 18263355893657743240
6338986 31 18412819188016975055
7364860 26 18122344850372141891
81228 2 18267012852162315859

>  <PUBCHEM_SHAPE_MULTIPOLES>  (1) 
264.64
3.64
3.53
0.97
1.29
0.02
0
-0.01
0
-3.76
0
0
0
0.3

>  <PUBCHEM_SHAPE_SELFOVERLAP>  (1) 
547.795

>  <PUBCHEM_SHAPE_VOLUME>  (1) 
148.4

>  <PUBCHEM_COORDINATE_TYPE>  (1) 
2
5
10

$$$$
