12481
     RDKit          3D

 10 10  0  0  0  0  0  0  0  0999 V2000
    3.3824   -0.9766    0.0015 Cl  0  0  0  0  0  0  0  0  0  0  0  0
   -1.9614    1.4611    0.0014 O   0  0  0  0  0  0  0  0  0  0  0  0
   -2.9159   -0.9442    0.0003 O   0  0  0  0  0  0  0  0  0  0  0  0
   -0.5904   -0.5079   -0.0006 C   0  0  0  0  0  0  0  0  0  0  0  0
   -0.7285    0.8802   -0.0005 C   0  0  0  0  0  0  0  0  0  0  0  0
    0.6807   -1.0824   -0.0006 C   0  0  0  0  0  0  0  0  0  0  0  0
    0.4044    1.6939   -0.0004 C   0  0  0  0  0  0  0  0  0  0  0  0
    1.8137   -0.2686   -0.0005 C   0  0  0  0  0  0  0  0  0  0  0  0
    1.6754    1.1194   -0.0005 C   0  0  0  0  0  0  0  0  0  0  0  0
   -1.7605   -1.3750   -0.0002 C   0  0  0  0  0  0  0  0  0  0  0  0
  1  8  1  0
  2  5  1  0
  3 10  2  0
  4  5  2  0
  4  6  1  0
  4 10  1  0
  5  7  1  0
  6  8  2  0
  7  9  2  0
  8  9  1  0
M  END
>  <PUBCHEM_COMPOUND_CID>  (1) 
12481

>  <PUBCHEM_CONFORMER_RMSD>  (1) 
0.4

>  <PUBCHEM_CONFORMER_DIVERSEORDER>  (1) 
1
2

>  <PUBCHEM_MMFF94_PARTIAL_CHARGES>  (1) 
15
1 -0.18
10 0.42
11 0.15
12 0.15
13 0.15
14 0.06
15 0.45
2 -0.53
3 -0.57
4 0.09
5 0.08
6 -0.15
7 -0.15
8 0.18
9 -0.15

>  <PUBCHEM_EFFECTIVE_ROTOR_COUNT>  (1) 
1

>  <PUBCHEM_PHARMACOPHORE_FEATURES>  (1) 
3
1 2 donor
1 3 acceptor
6 4 5 6 7 8 9 rings

>  <PUBCHEM_HEAVY_ATOM_COUNT>  (1) 
10

>  <PUBCHEM_ATOM_DEF_STEREO_COUNT>  (1) 
0

>  <PUBCHEM_ATOM_UDEF_STEREO_COUNT>  (1) 
0

>  <PUBCHEM_BOND_DEF_STEREO_COUNT>  (1) 
0

>  <PUBCHEM_BOND_UDEF_STEREO_COUNT>  (1) 
0

>  <PUBCHEM_ISOTOPIC_ATOM_COUNT>  (1) 
0

>  <PUBCHEM_COMPONENT_COUNT>  (1) 
1

>  <PUBCHEM_CACTVS_TAUTO_COUNT>  (1) 
4

>  <PUBCHEM_CONFORMER_ID>  (1) 
000030C100000001

>  <PUBCHEM_MMFF94_ENERGY>  (1) 
23.9867

>  <PUBCHEM_FEATURE_SELFOVERLAP>  (1) 
15.223

>  <PUBCHEM_SHAPE_FINGERPRINT>  (1) 
10857977 72 18341037567366207418
11206711 2 18335701628477384999
12423570 1 17679596540478114684
14128692 85 18410017649790550652
161256 15 18339642372709367884
16945 1 18338517563655601167
20871998 184 18201716206932429878
20871998 22 18271257053161668078
21040471 1 18122344566888495524
21501502 16 18411143558013320004
23552423 10 18260269672203858374
241688 4 18408321073083973144
2748010 2 18411131454948415316
29004967 10 18118967137777053923
369184 2 15267335189604351590
5084963 1 18272654571015766002

>  <PUBCHEM_SHAPE_MULTIPOLES>  (1) 
195.93
3.93
1.81
0.6
0.98
0.42
0
-1.56
0
-0.32
0
0.06
-0.01
0

>  <PUBCHEM_SHAPE_SELFOVERLAP>  (1) 
403.616

>  <PUBCHEM_SHAPE_VOLUME>  (1) 
113.2

>  <PUBCHEM_COORDINATE_TYPE>  (1) 
2
5
10

$$$$
