1248
     RDKit          3D

 28 33  0  0  1  0  0  0  0  0999 V2000
   -0.5561    1.7387   -1.2562 O   0  0  0  0  0  0  0  0  0  0  0  0
    0.6763   -3.2166    1.1641 O   0  0  0  0  0  0  0  0  0  0  0  0
   -0.7348   -4.2580   -0.4875 O   0  0  0  0  0  0  0  0  0  0  0  0
    3.6173    0.2860   -1.4433 O   0  0  0  0  0  0  0  0  0  0  0  0
    4.6975    0.2834    0.7125 O   0  0  0  0  0  0  0  0  0  0  0  0
    0.9170    0.9595   -2.8628 O   0  0  0  0  0  0  0  0  0  0  0  0
   -3.0844    1.7042    0.4932 N   0  0  0  0  0  0  0  0  0  0  0  0
   -1.6645    1.1470    0.8315 C   0  0  0  0  0  0  0  0  0  0  0  0
   -3.4673    1.3137   -0.9364 C   0  0  0  0  0  0  0  0  0  0  0  0
   -0.5515    1.9835    0.1772 C   0  0  0  0  0  0  0  0  0  0  0  0
   -1.4798   -0.3135    0.4524 C   0  0  0  0  0  0  0  0  0  0  0  0
   -3.4781   -0.1983   -1.1274 C   0  0  0  0  0  0  0  0  0  0  0  0
   -2.3083   -0.9270   -0.5194 C   0  0  0  0  0  0  0  0  0  0  0  0
   -4.1054    1.1534    1.5045 C   0  0  0  0  0  0  0  0  0  0  0  0
   -3.1491    3.2316    0.6133 C   0  0  0  0  0  0  0  0  0  0  0  0
    0.8179    1.5756    0.5652 C   0  0  0  0  0  0  0  0  0  0  0  0
   -0.4473   -1.0526    1.0594 C   0  0  0  0  0  0  0  0  0  0  0  0
   -2.0992   -2.2717   -0.8737 C   0  0  0  0  0  0  0  0  0  0  0  0
    1.5064    1.1544   -0.5570 C   0  0  0  0  0  0  0  0  0  0  0  0
   -0.2699   -2.3666    0.6806 C   0  0  0  0  0  0  0  0  0  0  0  0
    0.6385    1.2510   -1.7170 C   0  0  0  0  0  0  0  0  0  0  0  0
   -1.0727   -2.9594   -0.2616 C   0  0  0  0  0  0  0  0  0  0  0  0
    1.4295    1.5829    1.8178 C   0  0  0  0  0  0  0  0  0  0  0  0
    2.8030    0.7302   -0.4559 C   0  0  0  0  0  0  0  0  0  0  0  0
    3.4127    0.7314    0.7773 C   0  0  0  0  0  0  0  0  0  0  0  0
    2.7571    1.1501    1.9280 C   0  0  0  0  0  0  0  0  0  0  0  0
    0.3763   -4.4141    0.4185 C   0  0  0  0  0  0  0  0  0  0  0  0
    4.8191    0.0012   -0.6977 C   0  0  0  0  0  0  0  0  0  0  0  0
  1 10  1  0
  1 21  1  0
  2 20  1  0
  2 27  1  0
  3 22  1  0
  3 27  1  0
  4 24  1  0
  4 28  1  0
  5 25  1  0
  5 28  1  0
  6 21  2  0
  7  8  1  0
  7  9  1  0
  7 14  1  0
  7 15  1  0
  8 10  1  0
  8 11  1  0
  9 12  1  0
 10 16  1  0
 11 13  2  0
 11 17  1  0
 12 13  1  0
 13 18  1  0
 16 19  2  0
 16 23  1  0
 17 20  2  0
 18 22  2  0
 19 21  1  0
 19 24  1  0
 20 22  1  0
 23 26  2  0
 24 25  2  0
 25 26  1  0
M  CHG  1   7   1
M  END
>  <PUBCHEM_COMPOUND_CID>  (1) 
1248

>  <PUBCHEM_CONFORMER_RMSD>  (1) 
0.8

>  <PUBCHEM_CONFORMER_DIVERSEORDER>  (1) 
1
7
4
6
3
5
2

>  <PUBCHEM_MMFF94_PARTIAL_CHARGES>  (1) 
32
1 -0.43
10 0.42
11 -0.14
12 0.14
13 -0.14
14 0.5
15 0.5
16 -0.14
17 -0.15
18 -0.15
19 0.09
2 -0.36
20 0.08
21 0.63
22 0.08
23 -0.15
24 0.08
25 0.08
26 -0.15
27 0.56
28 0.56
3 -0.36
4 -0.36
41 0.15
42 0.15
43 0.15
44 0.15
5 -0.36
6 -0.57
7 -1.01
8 0.65
9 0.5

>  <PUBCHEM_EFFECTIVE_ROTOR_COUNT>  (1) 
3.4

>  <PUBCHEM_PHARMACOPHORE_FEATURES>  (1) 
12
1 2 acceptor
1 3 acceptor
1 4 acceptor
1 5 acceptor
1 6 acceptor
1 7 cation
5 1 10 16 19 21 rings
5 2 3 20 22 27 rings
5 4 5 24 25 28 rings
6 11 13 17 18 20 22 rings
6 16 19 23 24 25 26 rings
6 7 8 9 11 12 13 rings

>  <PUBCHEM_HEAVY_ATOM_COUNT>  (1) 
28

>  <PUBCHEM_ATOM_DEF_STEREO_COUNT>  (1) 
0

>  <PUBCHEM_ATOM_UDEF_STEREO_COUNT>  (1) 
2

>  <PUBCHEM_BOND_DEF_STEREO_COUNT>  (1) 
0

>  <PUBCHEM_BOND_UDEF_STEREO_COUNT>  (1) 
0

>  <PUBCHEM_ISOTOPIC_ATOM_COUNT>  (1) 
0

>  <PUBCHEM_COMPONENT_COUNT>  (1) 
1

>  <PUBCHEM_CACTVS_TAUTO_COUNT>  (1) 
1

>  <PUBCHEM_CONFORMER_ID>  (1) 
000004E000000001

>  <PUBCHEM_MMFF94_ENERGY>  (1) 
95.4492

>  <PUBCHEM_FEATURE_SELFOVERLAP>  (1) 
61.314

>  <PUBCHEM_SHAPE_FINGERPRINT>  (1) 
10190108 129 18339939207618303299
10863032 1 17988638554103040572
11370993 70 18411415099068116284
11582403 64 16481004732841442361
12156800 1 15579558047656684098
12422481 6 17754164298203184456
12553582 1 17328872504441765019
12633257 1 18343577447969500096
12788726 201 17976265951793395263
128993 33 8499615767930457038
13140716 1 17761212515424455099
133893 2 17827061923583308139
14223421 5 17622157288528537184
15209289 33 18342177769329691617
15664445 248 16098550969308587455
16752209 62 18190449640089494771
16945 1 18411410735276160433
19591789 44 18411982421113830235
20028762 73 18200040676367533495
20600515 1 17541621308709924200
20691752 17 17460320953582747555
20775438 99 16038260318715556447
21421861 104 17335643911400169161
22149856 69 8641495589440324043
22956985 138 17971491615104102715
23184049 29 17834391598278978643
23559900 14 18272090526679426208
23728640 28 18337118959158674066
465052 167 17242195607018266521
5265222 85 18265635233740617468
57527452 28 15729736084328427242
5845 1 16105319966552324369
59755656 215 18410290294900004735
6287921 2 17766546963532370867
81228 2 17910393119578443147
90525 40 18040157331127081781
9709674 26 17984976248675395176

>  <PUBCHEM_SHAPE_MULTIPOLES>  (1) 
536.03
6.62
4.27
1.77
3.99
5.93
0.48
-3.48
0.02
-2.26
-0.79
0.54
-0.68
-0.48

>  <PUBCHEM_SHAPE_SELFOVERLAP>  (1) 
1221.507

>  <PUBCHEM_SHAPE_VOLUME>  (1) 
280.5

>  <PUBCHEM_COORDINATE_TYPE>  (1) 
2
5
10

$$$$
