12489
     RDKit          3D

  6  6  0  0  0  0  0  0  0  0999 V2000
   -0.0314   -1.0803    0.0000 N   0  0  0  0  0  0  0  0  0  0  0  0
    0.7356    0.0556    0.0000 C   0  0  0  0  0  0  0  0  0  0  0  0
   -0.1149    1.1391    0.0000 C   0  0  0  0  0  0  0  0  0  0  0  0
    2.2086   -0.0134    0.0000 C   0  0  0  0  0  0  0  0  0  0  0  0
   -1.3584   -0.7381    0.0000 C   0  0  0  0  0  0  0  0  0  0  0  0
   -1.4396    0.6370    0.0000 C   0  0  0  0  0  0  0  0  0  0  0  0
  1  2  1  0
  1  5  1  0
  2  3  2  0
  2  4  1  0
  3  6  1  0
  5  6  2  0
M  END
>  <PUBCHEM_COMPOUND_CID>  (1) 
12489

>  <PUBCHEM_CONFORMER_RMSD>  (1) 
0.4

>  <PUBCHEM_CONFORMER_DIVERSEORDER>  (1) 
1

>  <PUBCHEM_MMFF94_PARTIAL_CHARGES>  (1) 
10
1 0.03
12 0.15
13 0.15
2 -0.33
3 -0.15
4 0.18
5 -0.3
6 -0.15
7 0.27
8 0.15

>  <PUBCHEM_EFFECTIVE_ROTOR_COUNT>  (1) 
0

>  <PUBCHEM_PHARMACOPHORE_FEATURES>  (1) 
3
1 1 cation
1 1 donor
5 1 2 3 5 6 rings

>  <PUBCHEM_HEAVY_ATOM_COUNT>  (1) 
6

>  <PUBCHEM_ATOM_DEF_STEREO_COUNT>  (1) 
0

>  <PUBCHEM_ATOM_UDEF_STEREO_COUNT>  (1) 
0

>  <PUBCHEM_BOND_DEF_STEREO_COUNT>  (1) 
0

>  <PUBCHEM_BOND_UDEF_STEREO_COUNT>  (1) 
0

>  <PUBCHEM_ISOTOPIC_ATOM_COUNT>  (1) 
0

>  <PUBCHEM_COMPONENT_COUNT>  (1) 
1

>  <PUBCHEM_CACTVS_TAUTO_COUNT>  (1) 
1

>  <PUBCHEM_CONFORMER_ID>  (1) 
000030C900000001

>  <PUBCHEM_MMFF94_ENERGY>  (1) 
1.286

>  <PUBCHEM_FEATURE_SELFOVERLAP>  (1) 
15.223

>  <PUBCHEM_SHAPE_FINGERPRINT>  (1) 
16714656 1 9151170978193103728
20096714 4 9295027759461368910
21015797 1 18122627420628595629
21040471 1 9294751782032358023
23552423 10 10735887191987241896
29004967 10 9871455556422838044
5943 1 10142630518805494625

>  <PUBCHEM_SHAPE_MULTIPOLES>  (1) 
118.5
2.23
1.15
0.6
0.98
0.04
0
-0.07
0
-0.26
0
0
0.02
0

>  <PUBCHEM_SHAPE_SELFOVERLAP>  (1) 
240.729

>  <PUBCHEM_SHAPE_VOLUME>  (1) 
71

>  <PUBCHEM_COORDINATE_TYPE>  (1) 
2
5
10

$$$$
