12491
     RDKit          3D

 16 16  0  0  0  0  0  0  0  0999 V2000
   -3.3279   -0.2452    0.0306 O   0  0  0  0  0  0  0  0  0  0  0  0
    2.9231   -0.7617    0.1678 O   0  0  0  0  0  0  0  0  0  0  0  0
   -1.8558   -1.9638   -0.3912 O   0  0  0  0  0  0  0  0  0  0  0  0
    3.5565    1.2910   -0.6594 O   0  0  0  0  0  0  0  0  0  0  0  0
   -1.0472    0.2499   -0.0293 C   0  0  0  0  0  0  0  0  0  0  0  0
    1.2837    0.8844   -0.0641 C   0  0  0  0  0  0  0  0  0  0  0  0
    0.2962   -0.0934   -0.1824 C   0  0  0  0  0  0  0  0  0  0  0  0
   -1.4027    1.5711    0.2423 C   0  0  0  0  0  0  0  0  0  0  0  0
    0.9281    2.2055    0.2074 C   0  0  0  0  0  0  0  0  0  0  0  0
   -0.4151    2.5489    0.3607 C   0  0  0  0  0  0  0  0  0  0  0  0
   -2.0772   -0.7692   -0.1522 C   0  0  0  0  0  0  0  0  0  0  0  0
    2.6843    0.5272   -0.2242 C   0  0  0  0  0  0  0  0  0  0  0  0
   -4.4305   -1.1534   -0.0652 C   0  0  0  0  0  0  0  0  0  0  0  0
    4.2707   -1.2322    0.0585 C   0  0  0  0  0  0  0  0  0  0  0  0
   -5.7183   -0.3916    0.1647 C   0  0  0  0  0  0  0  0  0  0  0  0
    4.3322   -2.6675    0.5360 C   0  0  0  0  0  0  0  0  0  0  0  0
  1 11  1  0
  1 13  1  0
  2 12  1  0
  2 14  1  0
  3 11  2  0
  4 12  2  0
  5  7  2  0
  5  8  1  0
  5 11  1  0
  6  7  1  0
  6  9  2  0
  6 12  1  0
  8 10  2  0
  9 10  1  0
 13 15  1  0
 14 16  1  0
M  END
>  <PUBCHEM_COMPOUND_CID>  (1) 
12491

>  <PUBCHEM_CONFORMER_RMSD>  (1) 
0.8

>  <PUBCHEM_CONFORMER_DIVERSEORDER>  (1) 
2
4
12
13
1
10
3
6
8
26
21
5
28
27
11
9
20
22
18
25
16
31
7
23
24
14
33
17
15
29
32
19
30

>  <PUBCHEM_MMFF94_PARTIAL_CHARGES>  (1) 
18
1 -0.43
10 -0.15
11 0.63
12 0.63
13 0.28
14 0.28
17 0.15
18 0.15
19 0.15
2 -0.43
20 0.15
3 -0.57
4 -0.57
5 0.09
6 0.09
7 -0.15
8 -0.15
9 -0.15

>  <PUBCHEM_EFFECTIVE_ROTOR_COUNT>  (1) 
6

>  <PUBCHEM_PHARMACOPHORE_FEATURES>  (1) 
3
1 3 acceptor
1 4 acceptor
6 5 6 7 8 9 10 rings

>  <PUBCHEM_HEAVY_ATOM_COUNT>  (1) 
16

>  <PUBCHEM_ATOM_DEF_STEREO_COUNT>  (1) 
0

>  <PUBCHEM_ATOM_UDEF_STEREO_COUNT>  (1) 
0

>  <PUBCHEM_BOND_DEF_STEREO_COUNT>  (1) 
0

>  <PUBCHEM_BOND_UDEF_STEREO_COUNT>  (1) 
0

>  <PUBCHEM_ISOTOPIC_ATOM_COUNT>  (1) 
0

>  <PUBCHEM_COMPONENT_COUNT>  (1) 
1

>  <PUBCHEM_CACTVS_TAUTO_COUNT>  (1) 
1

>  <PUBCHEM_CONFORMER_ID>  (1) 
000030CB00000002

>  <PUBCHEM_MMFF94_ENERGY>  (1) 
37.7179

>  <PUBCHEM_FEATURE_SELFOVERLAP>  (1) 
15.223

>  <PUBCHEM_SHAPE_FINGERPRINT>  (1) 
10130415 120 18271528705748301433
12032990 46 18410292506111985709
12507560 14 18201720669492906583
12553582 1 18343014519306253166
13690532 89 18412263943603881363
13862211 1 18341609309313245607
14115302 16 17822019751878387239
15042514 8 18123753058373985584
15196674 1 18410856542755579333
15242433 33 18337394945103688455
15442244 35 18342459296273264721
15885798 251 18411418401634151353
193927 3 18261966149974026162
19784866 135 18341325596183352723
20281475 54 18411136982613295877
204376 136 9079114470945548853
20645477 70 18260546731944054918
20871998 22 18411975888426446352
21267235 1 18411145718614023934
21279426 13 18263639581217812477
21296965 67 18411416202589998176
21478907 32 18337952268850541849
23402539 116 18131626773505594845
23463225 33 18411983546553185878
23559900 14 18337106890807097728
25147074 1 18338535048995367148
3004659 81 18187365420027196222
3091708 16 8921599551631470384
34934 24 18199184177677268340
4072396 5 17918276428955341511
465052 167 18341620347220999311
5104073 3 18343023276654873513
7164475 11 18335139752582857300

>  <PUBCHEM_SHAPE_MULTIPOLES>  (1) 
305.8
9.49
2.61
0.67
4.76
0.28
-0.01
-7.19
-0.45
-1.76
-0.33
-0.13
0.01
-0.72

>  <PUBCHEM_SHAPE_SELFOVERLAP>  (1) 
626.494

>  <PUBCHEM_SHAPE_VOLUME>  (1) 
177.7

>  <PUBCHEM_COORDINATE_TYPE>  (1) 
2
5
10

$$$$
