12495
     RDKit          3D

 10 10  0  0  0  0  0  0  0  0999 V2000
    4.0913   -0.0003    0.0003 I   0  0  0  0  0  0  0  0  0  0  0  0
   -2.8041   -1.0977    0.0001 O   0  0  0  0  0  0  0  0  0  0  0  0
   -2.8041    1.0975    0.0003 O   0  0  0  0  0  0  0  0  0  0  0  0
   -2.1959    0.0000   -0.0001 N   0  0  0  0  0  0  0  0  0  0  0  0
   -0.7760    0.0000   -0.0002 C   0  0  0  0  0  0  0  0  0  0  0  0
   -0.0787   -1.2080   -0.0001 C   0  0  0  0  0  0  0  0  0  0  0  0
   -0.0787    1.2081   -0.0002 C   0  0  0  0  0  0  0  0  0  0  0  0
    1.3161   -1.2079    0.0000 C   0  0  0  0  0  0  0  0  0  0  0  0
    1.3163    1.2082   -0.0001 C   0  0  0  0  0  0  0  0  0  0  0  0
    2.0137    0.0001    0.0000 C   0  0  0  0  0  0  0  0  0  0  0  0
  1 10  1  0
  2  4  1  0
  3  4  2  0
  4  5  1  0
  5  6  2  0
  5  7  1  0
  6  8  1  0
  7  9  2  0
  8 10  2  0
  9 10  1  0
M  CHG  2   2  -1   4   1
M  END
>  <PUBCHEM_COMPOUND_CID>  (1) 
12495

>  <PUBCHEM_CONFORMER_RMSD>  (1) 
0.4

>  <PUBCHEM_CONFORMER_DIVERSEORDER>  (1) 
1

>  <PUBCHEM_MMFF94_PARTIAL_CHARGES>  (1) 
14
1 -0.08
10 0.08
11 0.15
12 0.15
13 0.15
14 0.15
2 -0.52
3 -0.52
4 0.91
5 0.13
6 -0.15
7 -0.15
8 -0.15
9 -0.15

>  <PUBCHEM_EFFECTIVE_ROTOR_COUNT>  (1) 
1

>  <PUBCHEM_PHARMACOPHORE_FEATURES>  (1) 
5
1 1 hydrophobe
1 2 acceptor
1 2 anion
1 3 acceptor
6 5 6 7 8 9 10 rings

>  <PUBCHEM_HEAVY_ATOM_COUNT>  (1) 
10

>  <PUBCHEM_ATOM_DEF_STEREO_COUNT>  (1) 
0

>  <PUBCHEM_ATOM_UDEF_STEREO_COUNT>  (1) 
0

>  <PUBCHEM_BOND_DEF_STEREO_COUNT>  (1) 
0

>  <PUBCHEM_BOND_UDEF_STEREO_COUNT>  (1) 
0

>  <PUBCHEM_ISOTOPIC_ATOM_COUNT>  (1) 
0

>  <PUBCHEM_COMPONENT_COUNT>  (1) 
1

>  <PUBCHEM_CACTVS_TAUTO_COUNT>  (1) 
1

>  <PUBCHEM_CONFORMER_ID>  (1) 
000030CF00000001

>  <PUBCHEM_MMFF94_ENERGY>  (1) 
26.9012

>  <PUBCHEM_FEATURE_SELFOVERLAP>  (1) 
25.453

>  <PUBCHEM_SHAPE_FINGERPRINT>  (1) 
10857977 72 18411409631300338138
11062470 55 17530966869491088932
12032990 46 18411989074244901310
14325111 11 18410856572930964288
14993402 34 18333450967315271148
16945 1 18410573985388814980
193761 8 17618222806601262816
21040471 1 18338799047343442276
21293036 1 18409452509609497812
23235685 24 18410569578926501056
23380061 330 18342171198050704326
23402539 116 18271516542659148396
23402655 69 18196637524628534133
23463225 33 18334573504426420010
23552423 10 18261396628377412599
2748010 2 18122343751060733820
29004967 10 18409169895928448474
5084963 1 18271810176055316601
528886 8 18411412886795864600
53812653 166 18342452625930513424

>  <PUBCHEM_SHAPE_MULTIPOLES>  (1) 
201.01
5.48
1.4
0.63
2.1
0
0
0
0
-0.27
0
0.21
0
0

>  <PUBCHEM_SHAPE_SELFOVERLAP>  (1) 
397.573

>  <PUBCHEM_SHAPE_VOLUME>  (1) 
123.5

>  <PUBCHEM_COORDINATE_TYPE>  (1) 
2
5
10

$$$$
