1250
     RDKit          3D

 16 18  0  0  1  0  0  0  0  0999 V2000
    4.1727   -1.0064    0.5357 O   0  0  0  0  0  0  0  0  0  0  0  0
   -2.4752   -0.0139    0.7476 N   0  0  0  0  0  0  0  0  0  0  0  0
   -0.6822    1.4329   -0.4438 N   0  0  0  0  0  0  0  0  0  0  0  0
   -0.6985   -0.9875   -0.5326 C   0  0  0  0  0  0  0  0  0  0  0  0
   -1.6139    0.2929   -0.4213 C   0  0  0  0  0  0  0  0  0  0  0  0
   -1.2401   -1.9619    0.5177 C   0  0  0  0  0  0  0  0  0  0  0  0
    0.6591   -0.4277   -0.2037 C   0  0  0  0  0  0  0  0  0  0  0  0
   -2.6507   -1.4648    0.7717 C   0  0  0  0  0  0  0  0  0  0  0  0
    0.5931    0.9708   -0.1731 C   0  0  0  0  0  0  0  0  0  0  0  0
   -0.7261   -1.5858   -1.9426 C   0  0  0  0  0  0  0  0  0  0  0  0
   -3.7497    0.6893    0.7168 C   0  0  0  0  0  0  0  0  0  0  0  0
    1.8444   -1.1108    0.0289 C   0  0  0  0  0  0  0  0  0  0  0  0
   -1.1041    2.8047   -0.3295 C   0  0  0  0  0  0  0  0  0  0  0  0
    1.7391    1.7062    0.0932 C   0  0  0  0  0  0  0  0  0  0  0  0
    2.9922   -0.3689    0.3017 C   0  0  0  0  0  0  0  0  0  0  0  0
    2.9400    1.0310    0.3333 C   0  0  0  0  0  0  0  0  0  0  0  0
  1 15  1  0
  2  5  1  0
  2  8  1  0
  2 11  1  0
  3  5  1  0
  3  9  1  0
  3 13  1  0
  4  5  1  0
  4  6  1  0
  4  7  1  0
  4 10  1  0
  6  8  1  0
  7  9  2  0
  7 12  1  0
  9 14  1  0
 12 15  2  0
 14 16  2  0
 15 16  1  0
M  END
>  <PUBCHEM_COMPOUND_CID>  (1) 
1250

>  <PUBCHEM_CONFORMER_RMSD>  (1) 
0.4

>  <PUBCHEM_CONFORMER_DIVERSEORDER>  (1) 
1
2

>  <PUBCHEM_MMFF94_PARTIAL_CHARGES>  (1) 
18
1 -0.53
11 0.27
12 -0.15
13 0.37
14 -0.15
15 0.08
16 -0.15
2 -0.81
28 0.15
3 -0.84
32 0.15
33 0.15
34 0.45
4 0.14
5 0.64
7 -0.14
8 0.27
9 0.1

>  <PUBCHEM_EFFECTIVE_ROTOR_COUNT>  (1) 
0.8

>  <PUBCHEM_PHARMACOPHORE_FEATURES>  (1) 
6
1 1 donor
1 2 cation
1 3 cation
5 2 4 5 6 8 rings
5 3 4 5 7 9 rings
6 7 9 12 14 15 16 rings

>  <PUBCHEM_HEAVY_ATOM_COUNT>  (1) 
16

>  <PUBCHEM_ATOM_DEF_STEREO_COUNT>  (1) 
0

>  <PUBCHEM_ATOM_UDEF_STEREO_COUNT>  (1) 
2

>  <PUBCHEM_BOND_DEF_STEREO_COUNT>  (1) 
0

>  <PUBCHEM_BOND_UDEF_STEREO_COUNT>  (1) 
0

>  <PUBCHEM_ISOTOPIC_ATOM_COUNT>  (1) 
0

>  <PUBCHEM_COMPONENT_COUNT>  (1) 
1

>  <PUBCHEM_CACTVS_TAUTO_COUNT>  (1) 
3

>  <PUBCHEM_CONFORMER_ID>  (1) 
000004E200000001

>  <PUBCHEM_MMFF94_ENERGY>  (1) 
58.7039

>  <PUBCHEM_FEATURE_SELFOVERLAP>  (1) 
30.874

>  <PUBCHEM_SHAPE_FINGERPRINT>  (1) 
10967382 1 18337110072834174793
11132069 177 18272371936487400201
11471102 22 18118133699383873394
11680986 33 17836080066267273118
12011746 2 18337676295647588925
12119455 92 17988638550108682151
12251169 10 18411989056853827971
12382932 28 18337958986089585825
12423570 1 17988073366703896719
12696612 119 18193001632199485188
13024252 1 17748817488921225999
13140716 1 18410012182012359474
13172582 1 18344148098345381086
13214271 11 18337669848975510898
13221675 6 18409446990471124690
13380535 76 18050842222001707789
14817 1 12776407045658962207
15076042 46 18411139121317345536
15309172 13 18060137613450896255
15375462 189 17821726122244462746
15375462 478 18199474448963421819
15775835 57 18201161060918721952
16945 1 18336830796843770478
17804303 29 18410862040445385658
17844478 74 18261114075501086688
20510252 161 18269272361585209544
20511035 2 18197227047032470581
20871998 184 18342453712430482892
21501502 16 18337956821341646346
21524375 3 18201156555714189297
21637258 2 15574720230938103745
22445834 79 18266179624301751106
23184049 59 18413114961240396953
2334 1 18121779688547272070
23388829 49 17550659350019069397
23402539 116 18413101750384997215
23419403 2 13643682052119328337
23463225 33 18336269049549887136
23559900 14 18052249593661386554
2748010 2 18338515364642752444
598444 67 18263366893137735427
6992083 37 18130223877671713455
84936 31 16270535027425532863
8809292 202 18187368726977928146

>  <PUBCHEM_SHAPE_MULTIPOLES>  (1) 
313.44
5.18
2.35
1.04
1.93
0.96
-0.39
-0.42
2.01
-0.56
-0.26
-0.44
-0.43
-0.03

>  <PUBCHEM_SHAPE_SELFOVERLAP>  (1) 
680.655

>  <PUBCHEM_SHAPE_VOLUME>  (1) 
176.3

>  <PUBCHEM_COORDINATE_TYPE>  (1) 
2
5
10

$$$$
