12503
     RDKit          3D

 10 10  0  0  0  0  0  0  0  0999 V2000
    4.6832    0.0393   -0.9868 Br  0  0  0  0  0  0  0  0  0  0  0  0
    0.8831    0.0002    0.9653 C   0  0  0  0  0  0  0  0  0  0  0  0
    1.9698    0.0170   -0.1246 C   0  0  0  0  0  0  0  0  0  0  0  0
   -0.5129    0.0001    0.4397 C   0  0  0  0  0  0  0  0  0  0  0  0
    3.3749   -0.0569    0.4539 C   0  0  0  0  0  0  0  0  0  0  0  0
   -1.1709    1.2079    0.2079 C   0  0  0  0  0  0  0  0  0  0  0  0
   -1.1604   -1.2078    0.1805 C   0  0  0  0  0  0  0  0  0  0  0  0
   -2.4766    1.2079   -0.2830 C   0  0  0  0  0  0  0  0  0  0  0  0
   -2.4660   -1.2079   -0.3106 C   0  0  0  0  0  0  0  0  0  0  0  0
   -3.1240    0.0000   -0.5424 C   0  0  0  0  0  0  0  0  0  0  0  0
  1  5  1  0
  2  3  1  0
  2  4  1  0
  3  5  1  0
  4  6  2  0
  4  7  1  0
  6  8  1  0
  7  9  2  0
  8 10  2  0
  9 10  1  0
M  END
>  <PUBCHEM_COMPOUND_CID>  (1) 
12503

>  <PUBCHEM_CONFORMER_RMSD>  (1) 
0.6

>  <PUBCHEM_CONFORMER_DIVERSEORDER>  (1) 
1
8
7
4
9
3
2
5
6

>  <PUBCHEM_MMFF94_PARTIAL_CHARGES>  (1) 
14
1 -0.23
10 -0.15
17 0.15
18 0.15
19 0.15
2 0.14
20 0.15
21 0.15
4 -0.14
5 0.23
6 -0.15
7 -0.15
8 -0.15
9 -0.15

>  <PUBCHEM_EFFECTIVE_ROTOR_COUNT>  (1) 
3

>  <PUBCHEM_PHARMACOPHORE_FEATURES>  (1) 
2
1 1 hydrophobe
6 4 6 7 8 9 10 rings

>  <PUBCHEM_HEAVY_ATOM_COUNT>  (1) 
10

>  <PUBCHEM_ATOM_DEF_STEREO_COUNT>  (1) 
0

>  <PUBCHEM_ATOM_UDEF_STEREO_COUNT>  (1) 
0

>  <PUBCHEM_BOND_DEF_STEREO_COUNT>  (1) 
0

>  <PUBCHEM_BOND_UDEF_STEREO_COUNT>  (1) 
0

>  <PUBCHEM_ISOTOPIC_ATOM_COUNT>  (1) 
0

>  <PUBCHEM_COMPONENT_COUNT>  (1) 
1

>  <PUBCHEM_CACTVS_TAUTO_COUNT>  (1) 
1

>  <PUBCHEM_CONFORMER_ID>  (1) 
000030D700000001

>  <PUBCHEM_MMFF94_ENERGY>  (1) 
18.0663

>  <PUBCHEM_FEATURE_SELFOVERLAP>  (1) 
10.148

>  <PUBCHEM_SHAPE_FINGERPRINT>  (1) 
12897270 3 18412820300386884018
12932764 1 18411134740766929274
13024252 1 17530685416121031715
14123260 362 17168442518594436908
14993402 34 18040992947063251317
15775835 57 17676486112166569316
1986462 14 18343023285381717046
20201158 50 17775286053874785158
20279233 1 17704068495748197394
20645476 183 17967811665085173347
20671657 53 17489878128894049472
20871999 31 18336256925273929351
21061003 4 16845577547115103378
21119208 17 18334859420172325188
22485316 2 15410892951212815558
23403322 49 17560528309246090574
23552423 10 18188760790292261577
23559900 14 18273209777955315040
528716 315 18335423486474468790
93112 12 18411139156162185756

>  <PUBCHEM_SHAPE_MULTIPOLES>  (1) 
211.74
7.35
1.2
0.93
8.9
0
-0.02
0.05
-2.63
-1.04
-0.05
0.48
0
-0.05

>  <PUBCHEM_SHAPE_SELFOVERLAP>  (1) 
408.667

>  <PUBCHEM_SHAPE_VOLUME>  (1) 
130

>  <PUBCHEM_COORDINATE_TYPE>  (1) 
2
5
10

$$$$
