12509
     RDKit          3D

  8  7  0  0  0  0  0  0  0  0999 V2000
   -1.1509   -0.4440    0.0034 O   0  0  0  0  0  0  0  0  0  0  0  0
    0.0062    1.5507   -0.0014 O   0  0  0  0  0  0  0  0  0  0  0  0
    2.3894    0.2319    0.0016 N   0  0  0  0  0  0  0  0  0  0  0  0
    3.5185   -0.6418   -0.0129 N   0  0  0  0  0  0  0  0  0  0  0  0
    1.1815   -0.5816    0.0146 C   0  0  0  0  0  0  0  0  0  0  0  0
   -2.3890    0.2740   -0.0049 C   0  0  0  0  0  0  0  0  0  0  0  0
   -0.0220    0.3275    0.0043 C   0  0  0  0  0  0  0  0  0  0  0  0
   -3.5336   -0.7167   -0.0047 C   0  0  0  0  0  0  0  0  0  0  0  0
  1  6  1  0
  1  7  1  0
  2  7  2  0
  3  4  1  0
  3  5  1  0
  5  7  1  0
  6  8  1  0
M  END
>  <PUBCHEM_COMPOUND_CID>  (1) 
12509

>  <PUBCHEM_CONFORMER_RMSD>  (1) 
0.6

>  <PUBCHEM_CONFORMER_DIVERSEORDER>  (1) 
1
33
29
17
14
34
23
4
32
27
8
19
11
28
7
22
10
12
21
3
2
6
31
24
30
5
18
15
25
26
13
9
20
16

>  <PUBCHEM_MMFF94_PARTIAL_CHARGES>  (1) 
10
1 -0.43
16 0.36
17 0.36
18 0.36
2 -0.57
3 -0.63
4 -0.72
5 0.33
6 0.28
7 0.66

>  <PUBCHEM_EFFECTIVE_ROTOR_COUNT>  (1) 
4

>  <PUBCHEM_PHARMACOPHORE_FEATURES>  (1) 
3
1 2 acceptor
1 3 donor
1 4 donor

>  <PUBCHEM_HEAVY_ATOM_COUNT>  (1) 
8

>  <PUBCHEM_ATOM_DEF_STEREO_COUNT>  (1) 
0

>  <PUBCHEM_ATOM_UDEF_STEREO_COUNT>  (1) 
0

>  <PUBCHEM_BOND_DEF_STEREO_COUNT>  (1) 
0

>  <PUBCHEM_BOND_UDEF_STEREO_COUNT>  (1) 
0

>  <PUBCHEM_ISOTOPIC_ATOM_COUNT>  (1) 
0

>  <PUBCHEM_COMPONENT_COUNT>  (1) 
1

>  <PUBCHEM_CACTVS_TAUTO_COUNT>  (1) 
1

>  <PUBCHEM_CONFORMER_ID>  (1) 
000030DD00000001

>  <PUBCHEM_MMFF94_ENERGY>  (1) 
4.7332

>  <PUBCHEM_FEATURE_SELFOVERLAP>  (1) 
16.545

>  <PUBCHEM_SHAPE_FINGERPRINT>  (1) 
11062470 55 16950282905551583646
14325111 11 18410855460133449539
23552423 10 18043534897703720970
29004967 10 18410296912663925083
5460574 1 9295290542898662883

>  <PUBCHEM_SHAPE_MULTIPOLES>  (1) 
142.94
5.47
1.03
0.57
0.13
0.29
0
-1.81
-0.03
-0.03
0
-0.06
-0.01
0

>  <PUBCHEM_SHAPE_SELFOVERLAP>  (1) 
257.358

>  <PUBCHEM_SHAPE_VOLUME>  (1) 
92.5

>  <PUBCHEM_COORDINATE_TYPE>  (1) 
2
5
10

$$$$
