12507
     RDKit          3D

 10 10  0  0  0  0  0  0  0  0999 V2000
   -2.7826    0.2867    0.0825 O   0  0  0  0  0  0  0  0  0  0  0  0
    1.3626    0.1920   -0.1047 C   0  0  0  0  0  0  0  0  0  0  0  0
   -1.4236    0.2555    0.0209 C   0  0  0  0  0  0  0  0  0  0  0  0
    0.6968    1.4135   -0.0034 C   0  0  0  0  0  0  0  0  0  0  0  0
    0.6354   -0.9976   -0.1432 C   0  0  0  0  0  0  0  0  0  0  0  0
   -0.6964    1.4452    0.0594 C   0  0  0  0  0  0  0  0  0  0  0  0
   -0.7576   -0.9659   -0.0805 C   0  0  0  0  0  0  0  0  0  0  0  0
    2.8152    0.1586   -0.1695 C   0  0  0  0  0  0  0  0  0  0  0  0
   -3.4639   -0.9662    0.0382 C   0  0  0  0  0  0  0  0  0  0  0  0
    3.6141   -0.8217    0.3003 C   0  0  0  0  0  0  0  0  0  0  0  0
  1  3  1  0
  1  9  1  0
  2  4  2  0
  2  5  1  0
  2  8  1  0
  3  6  2  0
  3  7  1  0
  4  6  1  0
  5  7  2  0
  8 10  2  0
M  END
>  <PUBCHEM_COMPOUND_CID>  (1) 
12507

>  <PUBCHEM_CONFORMER_RMSD>  (1) 
0.4

>  <PUBCHEM_CONFORMER_DIVERSEORDER>  (1) 
1
2

>  <PUBCHEM_MMFF94_PARTIAL_CHARGES>  (1) 
17
1 -0.36
10 -0.3
11 0.15
12 0.15
13 0.15
14 0.15
15 0.15
19 0.15
2 0.03
20 0.15
3 0.08
4 -0.15
5 -0.15
6 -0.15
7 -0.15
8 -0.18
9 0.28

>  <PUBCHEM_EFFECTIVE_ROTOR_COUNT>  (1) 
2

>  <PUBCHEM_PHARMACOPHORE_FEATURES>  (1) 
3
1 1 acceptor
1 10 hydrophobe
6 2 3 4 5 6 7 rings

>  <PUBCHEM_HEAVY_ATOM_COUNT>  (1) 
10

>  <PUBCHEM_ATOM_DEF_STEREO_COUNT>  (1) 
0

>  <PUBCHEM_ATOM_UDEF_STEREO_COUNT>  (1) 
0

>  <PUBCHEM_BOND_DEF_STEREO_COUNT>  (1) 
0

>  <PUBCHEM_BOND_UDEF_STEREO_COUNT>  (1) 
0

>  <PUBCHEM_ISOTOPIC_ATOM_COUNT>  (1) 
0

>  <PUBCHEM_COMPONENT_COUNT>  (1) 
1

>  <PUBCHEM_CACTVS_TAUTO_COUNT>  (1) 
1

>  <PUBCHEM_CONFORMER_ID>  (1) 
000030DB00000001

>  <PUBCHEM_MMFF94_ENERGY>  (1) 
35.6697

>  <PUBCHEM_FEATURE_SELFOVERLAP>  (1) 
15.223

>  <PUBCHEM_SHAPE_FINGERPRINT>  (1) 
10219947 1 18343304781437742111
10857977 72 18341886389999985056
11769659 78 18187077334837308746
12032990 46 18411425007236051158
14325111 11 18410575089042585180
16945 1 18342463629293730268
193761 8 17618505380725662887
20201158 50 18408042909632568507
20871998 22 18200042749960732599
21501925 9 18340197591658171090
23380061 330 18272366494748206855
23402539 116 18272640234267200054
23402655 69 18124297339122969157
23463225 33 18408604725830551246
23552423 10 18046066226989755596
2748010 2 18122907800204010100
369184 2 15339113512041658108
5084963 1 17967814946381782092

>  <PUBCHEM_SHAPE_MULTIPOLES>  (1) 
199.93
5.17
1.41
0.62
0.16
0.28
0
-1.84
0.34
-0.12
0.02
0.07
-0.01
-0.1

>  <PUBCHEM_SHAPE_SELFOVERLAP>  (1) 
410.402

>  <PUBCHEM_SHAPE_VOLUME>  (1) 
116.1

>  <PUBCHEM_COORDINATE_TYPE>  (1) 
2
5
10

$$$$
