12516
     RDKit          3D

  9  8  0  0  0  0  0  0  0  0999 V2000
    1.4481    0.4435   -0.0121 O   0  0  0  0  0  0  0  0  0  0  0  0
    0.3317   -1.5451   -0.3642 O   0  0  0  0  0  0  0  0  0  0  0  0
   -2.0830    0.2323    0.0462 C   0  0  0  0  0  0  0  0  0  0  0  0
    2.6947   -0.2569    0.0560 C   0  0  0  0  0  0  0  0  0  0  0  0
   -0.8235    0.5695   -0.2850 C   0  0  0  0  0  0  0  0  0  0  0  0
   -3.1836    1.2567   -0.0618 C   0  0  0  0  0  0  0  0  0  0  0  0
   -2.5430   -1.1068    0.5507 C   0  0  0  0  0  0  0  0  0  0  0  0
    0.3507   -0.3334   -0.2271 C   0  0  0  0  0  0  0  0  0  0  0  0
    3.8079    0.7402    0.2973 C   0  0  0  0  0  0  0  0  0  0  0  0
  1  4  1  0
  1  8  1  0
  2  8  2  0
  3  5  2  3
  3  6  1  0
  3  7  1  0
  4  9  1  0
  5  8  1  0
M  END
>  <PUBCHEM_COMPOUND_CID>  (1) 
12516

>  <PUBCHEM_CONFORMER_RMSD>  (1) 
0.6

>  <PUBCHEM_CONFORMER_DIVERSEORDER>  (1) 
1
15
10
9
14
3
4
13
2
5
16
7
6
8
11
12

>  <PUBCHEM_MMFF94_PARTIAL_CHARGES>  (1) 
9
1 -0.43
12 0.15
2 -0.57
3 -0.28
4 0.28
5 -0.14
6 0.14
7 0.14
8 0.71

>  <PUBCHEM_EFFECTIVE_ROTOR_COUNT>  (1) 
3

>  <PUBCHEM_PHARMACOPHORE_FEATURES>  (1) 
2
1 2 acceptor
3 3 6 7 hydrophobe

>  <PUBCHEM_HEAVY_ATOM_COUNT>  (1) 
9

>  <PUBCHEM_ATOM_DEF_STEREO_COUNT>  (1) 
0

>  <PUBCHEM_ATOM_UDEF_STEREO_COUNT>  (1) 
0

>  <PUBCHEM_BOND_DEF_STEREO_COUNT>  (1) 
0

>  <PUBCHEM_BOND_UDEF_STEREO_COUNT>  (1) 
0

>  <PUBCHEM_ISOTOPIC_ATOM_COUNT>  (1) 
0

>  <PUBCHEM_COMPONENT_COUNT>  (1) 
1

>  <PUBCHEM_CACTVS_TAUTO_COUNT>  (1) 
1

>  <PUBCHEM_CONFORMER_ID>  (1) 
000030E400000001

>  <PUBCHEM_MMFF94_ENERGY>  (1) 
12.1723

>  <PUBCHEM_FEATURE_SELFOVERLAP>  (1) 
10.148

>  <PUBCHEM_SHAPE_FINGERPRINT>  (1) 
10857977 72 18335980960334005889
11062470 55 17240481399101198637
12932764 1 17418086641980761510
14325111 11 18411699885332587390
14390081 3 18272651208130329993
20645464 45 18337960000013006303
23235685 24 18411412882638203105
23402539 116 18186790388683894149
3248919 1 17095529512699197722

>  <PUBCHEM_SHAPE_MULTIPOLES>  (1) 
173.48
5.94
1.28
0.67
3.13
0.21
-0.02
-1.73
-0.89
-0.64
0.01
-0.05
0.04
0.32

>  <PUBCHEM_SHAPE_SELFOVERLAP>  (1) 
321.244

>  <PUBCHEM_SHAPE_VOLUME>  (1) 
110

>  <PUBCHEM_COORDINATE_TYPE>  (1) 
2
5
10

$$$$
