1252
     RDKit          3D

 24 27  0  0  1  0  0  0  0  0999 V2000
    2.5860   -1.8424    0.4010 O   0  0  0  0  0  0  0  0  0  0  0  0
    2.6621   -0.9476   -1.8019 O   0  0  0  0  0  0  0  0  0  0  0  0
    3.2580    3.2030    1.0219 O   0  0  0  0  0  0  0  0  0  0  0  0
   -3.4222    1.0317    0.1680 C   0  0  0  0  0  0  0  0  0  0  0  0
   -2.1137    0.2636    0.4129 C   0  0  0  0  0  0  0  0  0  0  0  0
   -1.0133    0.4179   -0.3688 C   0  0  0  0  0  0  0  0  0  0  0  0
   -3.4238    1.7364   -1.2153 C   0  0  0  0  0  0  0  0  0  0  0  0
   -2.0761   -0.7189    1.5726 C   0  0  0  0  0  0  0  0  0  0  0  0
   -0.9788    1.3611   -1.5519 C   0  0  0  0  0  0  0  0  0  0  0  0
   -2.0936    2.4000   -1.5330 C   0  0  0  0  0  0  0  0  0  0  0  0
    0.2256   -0.3709   -0.1454 C   0  0  0  0  0  0  0  0  0  0  0  0
   -1.1906   -2.4635   -0.1436 C   0  0  0  0  0  0  0  0  0  0  0  0
   -2.0515   -2.1866    1.1121 C   0  0  0  0  0  0  0  0  0  0  0  0
    0.1529   -1.7299   -0.0633 C   0  0  0  0  0  0  0  0  0  0  0  0
   -3.5954    2.0897    1.2781 C   0  0  0  0  0  0  0  0  0  0  0  0
   -4.6492    0.0935    0.1824 C   0  0  0  0  0  0  0  0  0  0  0  0
    1.5629    0.2461   -0.0384 C   0  0  0  0  0  0  0  0  0  0  0  0
    1.3922   -2.5827    0.1355 C   0  0  0  0  0  0  0  0  0  0  0  0
    2.7164   -0.6614   -0.3988 C   0  0  0  0  0  0  0  0  0  0  0  0
   -1.1114   -3.9751   -0.3949 C   0  0  0  0  0  0  0  0  0  0  0  0
    1.7433    1.4869    0.4462 C   0  0  0  0  0  0  0  0  0  0  0  0
    4.0640   -0.0691   -0.0883 C   0  0  0  0  0  0  0  0  0  0  0  0
    3.1000    2.0489    0.6379 C   0  0  0  0  0  0  0  0  0  0  0  0
    4.2562    1.1693    0.3750 C   0  0  0  0  0  0  0  0  0  0  0  0
  1 18  1  0
  1 19  1  0
  2 19  1  0
  3 23  2  0
  4  5  1  0
  4  7  1  0
  4 15  1  0
  4 16  1  0
  5  6  2  0
  5  8  1  0
  6  9  1  0
  6 11  1  0
  7 10  1  0
  8 13  1  0
  9 10  1  0
 11 14  2  0
 11 17  1  0
 12 13  1  0
 12 14  1  0
 12 20  1  0
 14 18  1  0
 17 19  1  0
 17 21  2  0
 19 22  1  0
 21 23  1  0
 22 24  2  0
 23 24  1  0
M  END
>  <PUBCHEM_COMPOUND_CID>  (1) 
1252

>  <PUBCHEM_CONFORMER_RMSD>  (1) 
0.6

>  <PUBCHEM_CONFORMER_DIVERSEORDER>  (1) 
1
3
4
2

>  <PUBCHEM_MMFF94_PARTIAL_CHARGES>  (1) 
21
1 -0.56
12 0.14
14 -0.28
17 -0.14
18 0.42
19 0.84
2 -0.68
21 -0.14
22 -0.29
23 0.54
24 -0.14
3 -0.57
4 0.14
47 0.15
48 0.15
49 0.4
5 -0.28
50 0.15
6 -0.14
8 0.14
9 0.14

>  <PUBCHEM_EFFECTIVE_ROTOR_COUNT>  (1) 
1.8

>  <PUBCHEM_PHARMACOPHORE_FEATURES>  (1) 
9
1 1 acceptor
1 2 acceptor
1 2 donor
1 3 acceptor
3 4 15 16 hydrophobe
6 1 11 14 17 18 19 rings
6 17 19 21 22 23 24 rings
6 4 5 6 7 9 10 rings
7 5 6 8 11 12 13 14 rings

>  <PUBCHEM_HEAVY_ATOM_COUNT>  (1) 
24

>  <PUBCHEM_ATOM_DEF_STEREO_COUNT>  (1) 
0

>  <PUBCHEM_ATOM_UDEF_STEREO_COUNT>  (1) 
2

>  <PUBCHEM_BOND_DEF_STEREO_COUNT>  (1) 
0

>  <PUBCHEM_BOND_UDEF_STEREO_COUNT>  (1) 
0

>  <PUBCHEM_ISOTOPIC_ATOM_COUNT>  (1) 
0

>  <PUBCHEM_COMPONENT_COUNT>  (1) 
1

>  <PUBCHEM_CACTVS_TAUTO_COUNT>  (1) 
1

>  <PUBCHEM_CONFORMER_ID>  (1) 
000004E400000001

>  <PUBCHEM_MMFF94_ENERGY>  (1) 
62.8398

>  <PUBCHEM_FEATURE_SELFOVERLAP>  (1) 
45.763

>  <PUBCHEM_SHAPE_FINGERPRINT>  (1) 
10165383 225 18336562542072250892
10366900 7 18260836972743067584
10411042 1 16970553214771175355
10670039 82 17687471582681993196
10871710 139 17613167681401766628
10967382 1 18410292471762738410
11370993 70 18413388752235590337
11582403 64 16737718665161368205
11725454 13 17242988208561488989
12390115 104 18124327253211560544
12403259 226 18045499712218909207
12403259 415 18261115115215709221
12422481 6 18045530692551226195
12633257 1 18336532885628851920
12730499 353 18191303772263069733
12969540 114 18115848785884006693
13004483 165 17979620561596251151
13140716 1 18337949090880516296
13224815 77 18114747036240762789
13583140 156 17967532393489509200
14178342 30 18114464581879815290
14223421 5 18126290976324526898
14787075 74 18058722641376890089
14955137 171 17976246942506105154
15309172 13 18337673010187498357
16945 1 17895771607356400071
17357779 13 17909250722533872743
18186145 218 18270683043498323085
18219364 16 18411707577492615720
18981168 100 17773581914067870656
19049666 15 18117556223803856620
19591789 44 18337108968985693582
19930381 70 18340487742848790409
20510252 161 17909827974632943944
21033648 29 18337658755028415608
21041028 32 16826158733170974979
21524375 3 18334578997294303627
22182313 1 18335434490676956075
23227448 37 18269834375119260870
23558518 356 18047186629544213642
23559900 14 17823418201761662926
238 59 17975102402361329725
2748010 2 18335436672267011455
283562 15 17907003333619919178
3187 122 17825110565184860451
3380486 145 17907587174652821875
350125 39 18266463285786035016
3524813 1 18408604751342002624
3886686 26 18051093048677578570
4340502 62 18272092729585731361
474 4 18272368633573614937
495365 180 18121756375618205525
5104073 3 18261960622551187193
6287921 2 17976833304320845460
633830 44 17916309333743960333
69090 78 18408882945253661147
7808743 9 18188501297364860892
81228 2 18044657731156869115
9709674 26 18272093841623909158

>  <PUBCHEM_SHAPE_MULTIPOLES>  (1) 
476.3
7.36
3.71
1.31
1.37
2.02
0.18
-4.34
-1.02
-0.25
-0.01
-0.57
-0.47
1.25

>  <PUBCHEM_SHAPE_SELFOVERLAP>  (1) 
1033.331

>  <PUBCHEM_SHAPE_VOLUME>  (1) 
255.6

>  <PUBCHEM_COORDINATE_TYPE>  (1) 
2
5
10

$$$$
