12536
     RDKit          3D

 30 34  0  0  1  0  0  0  0  0999 V2000
    2.8088    0.4005    1.1867 O   0  0  0  0  0  0  0  0  0  0  0  0
    3.4688    2.2183   -0.1489 O   0  0  0  0  0  0  0  0  0  0  0  0
   -1.3438   -2.4498    1.3403 O   0  0  0  0  0  0  0  0  0  0  0  0
    4.4387   -1.0833   -1.4430 O   0  0  0  0  0  0  0  0  0  0  0  0
    5.2512   -2.7514    0.5004 O   0  0  0  0  0  0  0  0  0  0  0  0
   -6.5412    0.7079    1.6779 O   0  0  0  0  0  0  0  0  0  0  0  0
    1.3222   -0.5777   -0.5313 C   0  0  0  0  0  0  0  0  0  0  0  0
    0.5202    0.7422   -0.5761 C   0  0  0  0  0  0  0  0  0  0  0  0
   -0.9294    0.5440   -1.0303 C   0  0  0  0  0  0  0  0  0  0  0  0
    2.7226   -0.0255   -0.1711 C   0  0  0  0  0  0  0  0  0  0  0  0
   -1.6668   -0.4179   -0.0276 C   0  0  0  0  0  0  0  0  0  0  0  0
    2.8550    1.2535   -0.9985 C   0  0  0  0  0  0  0  0  0  0  0  0
    1.4226    1.6843   -1.3779 C   0  0  0  0  0  0  0  0  0  0  0  0
    0.6570   -1.4677    0.5216 C   0  0  0  0  0  0  0  0  0  0  0  0
   -0.8362   -1.7210    0.2222 C   0  0  0  0  0  0  0  0  0  0  0  0
   -3.1815   -0.6336   -0.4526 C   0  0  0  0  0  0  0  0  0  0  0  0
   -1.6624    1.8894   -1.1462 C   0  0  0  0  0  0  0  0  0  0  0  0
    1.3736   -1.3205   -1.8936 C   0  0  0  0  0  0  0  0  0  0  0  0
   -3.1155    1.7026   -1.5643 C   0  0  0  0  0  0  0  0  0  0  0  0
    3.4401    1.6845    1.1764 C   0  0  0  0  0  0  0  0  0  0  0  0
    3.8399   -1.0068   -0.3712 C   0  0  0  0  0  0  0  0  0  0  0  0
   -3.8126    0.7570   -0.6200 C   0  0  0  0  0  0  0  0  0  0  0  0
   -3.3069   -1.4132   -1.7824 C   0  0  0  0  0  0  0  0  0  0  0  0
   -3.9533   -1.4551    0.5706 C   0  0  0  0  0  0  0  0  0  0  0  0
    4.1801   -1.8862    0.8132 C   0  0  0  0  0  0  0  0  0  0  0  0
    2.6503    2.6282    2.0754 C   0  0  0  0  0  0  0  0  0  0  0  0
    4.8744    1.5478    1.6793 C   0  0  0  0  0  0  0  0  0  0  0  0
   -4.8887    1.1778    0.0639 C   0  0  0  0  0  0  0  0  0  0  0  0
   -5.0236   -1.0414    1.2558 C   0  0  0  0  0  0  0  0  0  0  0  0
   -5.5636    0.3133    1.0515 C   0  0  0  0  0  0  0  0  0  0  0  0
  1 10  1  0
  1 20  1  0
  2 12  1  0
  2 20  1  0
  3 15  1  0
  4 21  2  0
  5 25  1  0
  6 30  2  0
  7  8  1  0
  7 10  1  0
  7 14  1  0
  7 18  1  0
  8  9  1  0
  8 13  1  0
  9 11  1  0
  9 17  1  0
 10 12  1  0
 10 21  1  0
 11 15  1  0
 11 16  1  0
 12 13  1  0
 14 15  1  0
 16 22  1  0
 16 23  1  0
 16 24  1  0
 17 19  1  0
 19 22  1  0
 20 26  1  0
 20 27  1  0
 21 25  1  0
 22 28  2  0
 24 29  2  0
 28 30  1  0
 29 30  1  0
M  END
>  <PUBCHEM_COMPOUND_CID>  (1) 
12536

>  <PUBCHEM_CONFORMER_RMSD>  (1) 
0.8

>  <PUBCHEM_CONFORMER_DIVERSEORDER>  (1) 
1
32
40
9
42
25
7
33
16
17
37
23
28
41
34
36
26
19
31
13
29
39
11
14
8
35
3
15
20
6
38
4
30
5
24
27
2
22
21
10
12
18

>  <PUBCHEM_MMFF94_PARTIAL_CHARGES>  (1) 
24
1 -0.56
10 0.34
12 0.28
15 0.28
16 0.28
19 0.14
2 -0.56
20 0.56
21 0.45
22 -0.28
24 -0.29
25 0.34
28 -0.14
29 -0.14
3 -0.68
30 0.54
4 -0.57
5 -0.68
50 0.15
51 0.4
6 -0.57
60 0.15
61 0.15
62 0.4

>  <PUBCHEM_EFFECTIVE_ROTOR_COUNT>  (1) 
3.6

>  <PUBCHEM_PHARMACOPHORE_FEATURES>  (1) 
14
1 1 acceptor
1 2 acceptor
1 3 acceptor
1 3 donor
1 4 acceptor
1 5 acceptor
1 5 donor
1 6 acceptor
3 20 26 27 hydrophobe
5 1 2 10 12 20 rings
5 7 8 10 12 13 rings
6 16 22 24 28 29 30 rings
6 7 8 9 11 14 15 rings
6 9 11 16 17 19 22 rings

>  <PUBCHEM_HEAVY_ATOM_COUNT>  (1) 
30

>  <PUBCHEM_ATOM_DEF_STEREO_COUNT>  (1) 
4

>  <PUBCHEM_ATOM_UDEF_STEREO_COUNT>  (1) 
4

>  <PUBCHEM_BOND_DEF_STEREO_COUNT>  (1) 
0

>  <PUBCHEM_BOND_UDEF_STEREO_COUNT>  (1) 
0

>  <PUBCHEM_ISOTOPIC_ATOM_COUNT>  (1) 
0

>  <PUBCHEM_COMPONENT_COUNT>  (1) 
1

>  <PUBCHEM_CACTVS_TAUTO_COUNT>  (1) 
9

>  <PUBCHEM_CONFORMER_ID>  (1) 
000030F800000001

>  <PUBCHEM_MMFF94_ENERGY>  (1) 
100.4726

>  <PUBCHEM_FEATURE_SELFOVERLAP>  (1) 
71.82

>  <PUBCHEM_SHAPE_FINGERPRINT>  (1) 
10076449 9 18337680703212884614
10319926 262 18114171987121836585
1100329 8 16821638645005782639
11370993 144 18202567284956618681
11405975 8 18272929418873873407
11578080 2 18128541663688896488
11595378 159 17022893562533791365
12035758 1 18339909430256410754
12236239 1 15195278694803751831
12403259 415 18408039593754298885
12422481 6 18261398828112785609
12553582 1 17822008731203192189
12616971 3 17774999081434822727
12633257 1 17917991663680260615
12925494 130 18046058260490839081
13140716 1 17825933832926613993
13150687 139 11314610671229249994
13224815 77 18334850654049284533
13583140 156 18265316352955034166
13675066 3 18409447003303272725
13782708 43 18412831283172894855
14178342 30 17895750674071058069
14341114 176 18333734589301005828
14950920 106 18343310262417379659
15238133 3 16486978362598536601
15295992 7 18413390951185252659
15475509 84 18057890151760448048
15788980 27 16487255456634862623
17349148 13 16153429441565400185
1813 80 16370729266189707357
18608769 82 18041571320371242338
20511986 3 13757497873952009439
20691752 17 17894901949403493286
21033648 29 18261662714713596765
21267235 1 17968388835543339087
21792934 111 18186803540259239953
21927370 108 17843401779512745290
22122407 14 17346054302925619633
22182313 1 18042666378122986628
23559900 14 18260827099087956094
2838139 119 15552458518148861664
3411729 13 18272086154455343128
350125 39 18261680276628531198
392239 28 18410853291729386265
460360 51 16516785005909505195
495365 180 18060419144721130494
508706 21 17895739726141106213
5104073 3 18343864446189854611
57724786 102 17988925604185120232
9709674 26 18334570295648052174

>  <PUBCHEM_SHAPE_MULTIPOLES>  (1) 
582.17
12.08
2.65
1.81
6.83
0.08
0.07
-0.15
5.12
-2.27
0.5
0.05
-0.41
1.16

>  <PUBCHEM_SHAPE_SELFOVERLAP>  (1) 
1271.165

>  <PUBCHEM_SHAPE_VOLUME>  (1) 
313.3

>  <PUBCHEM_COORDINATE_TYPE>  (1) 
2
5
10

$$$$
