1253
     RDKit          3D

 18 20  0  0  1  0  0  0  0  0999 V2000
    4.5648    0.3149   -0.7119 O   0  0  0  0  0  0  0  0  0  0  0  0
   -0.8325    0.4300    2.5250 N   0  0  0  0  0  0  0  0  0  0  0  0
    2.3029    0.5585   -1.1020 N   0  0  0  0  0  0  0  0  0  0  0  0
   -0.7461   -0.0079    1.1182 C   0  0  0  0  0  0  0  0  0  0  0  0
   -1.4779    0.4131   -1.2491 C   0  0  0  0  0  0  0  0  0  0  0  0
   -1.6543    0.8232    0.1993 C   0  0  0  0  0  0  0  0  0  0  0  0
   -1.2594   -1.4800    1.0284 C   0  0  0  0  0  0  0  0  0  0  0  0
    0.7093    0.0706    0.5918 C   0  0  0  0  0  0  0  0  0  0  0  0
   -0.0638    0.8429   -1.6827 C   0  0  0  0  0  0  0  0  0  0  0  0
    0.9964    0.4793   -0.6663 C   0  0  0  0  0  0  0  0  0  0  0  0
   -1.5726   -1.9490   -0.3828 C   0  0  0  0  0  0  0  0  0  0  0  0
   -1.6573   -1.0829   -1.4106 C   0  0  0  0  0  0  0  0  0  0  0  0
   -2.5032    1.8002    0.5564 C   0  0  0  0  0  0  0  0  0  0  0  0
    1.8189   -0.3295    1.4461 C   0  0  0  0  0  0  0  0  0  0  0  0
   -1.7784   -3.4229   -0.5626 C   0  0  0  0  0  0  0  0  0  0  0  0
    3.0926   -0.2576    1.0399 C   0  0  0  0  0  0  0  0  0  0  0  0
    3.4009    0.2316   -0.3287 C   0  0  0  0  0  0  0  0  0  0  0  0
   -3.3404    2.5654   -0.4083 C   0  0  0  0  0  0  0  0  0  0  0  0
  1 17  2  0
  2  4  1  0
  3 10  1  0
  3 17  1  0
  4  6  1  0
  4  7  1  0
  4  8  1  0
  5  6  1  0
  5  9  1  0
  5 12  1  0
  6 13  2  0
  7 11  1  0
  8 10  2  0
  8 14  1  0
  9 10  1  0
 11 12  2  0
 11 15  1  0
 13 18  1  0
 14 16  2  0
 16 17  1  0
M  END
>  <PUBCHEM_COMPOUND_CID>  (1) 
1253

>  <PUBCHEM_CONFORMER_RMSD>  (1) 
0.6

>  <PUBCHEM_CONFORMER_DIVERSEORDER>  (1) 
1
2

>  <PUBCHEM_MMFF94_PARTIAL_CHARGES>  (1) 
25
1 -0.57
10 -0.03
11 -0.28
12 -0.29
13 -0.29
14 -0.15
15 0.14
16 -0.14
17 0.62
18 0.14
2 -0.99
24 0.15
25 0.36
26 0.36
27 0.15
28 0.15
29 0.37
3 -0.54
33 0.15
4 0.55
5 0.28
6 -0.28
7 0.14
8 -0.14
9 0.14

>  <PUBCHEM_EFFECTIVE_ROTOR_COUNT>  (1) 
0.4

>  <PUBCHEM_PHARMACOPHORE_FEATURES>  (1) 
8
1 1 acceptor
1 18 hydrophobe
1 2 cation
1 2 donor
1 3 donor
6 3 8 10 14 16 17 rings
6 4 5 6 7 11 12 rings
6 4 5 6 8 9 10 rings

>  <PUBCHEM_HEAVY_ATOM_COUNT>  (1) 
18

>  <PUBCHEM_ATOM_DEF_STEREO_COUNT>  (1) 
0

>  <PUBCHEM_ATOM_UDEF_STEREO_COUNT>  (1) 
2

>  <PUBCHEM_BOND_DEF_STEREO_COUNT>  (1) 
0

>  <PUBCHEM_BOND_UDEF_STEREO_COUNT>  (1) 
1

>  <PUBCHEM_ISOTOPIC_ATOM_COUNT>  (1) 
0

>  <PUBCHEM_COMPONENT_COUNT>  (1) 
1

>  <PUBCHEM_CACTVS_TAUTO_COUNT>  (1) 
2

>  <PUBCHEM_CONFORMER_ID>  (1) 
000004E500000001

>  <PUBCHEM_MMFF94_ENERGY>  (1) 
38.0122

>  <PUBCHEM_FEATURE_SELFOVERLAP>  (1) 
41.935

>  <PUBCHEM_SHAPE_FINGERPRINT>  (1) 
10863032 1 18129656379484991119
10948715 1 18264209097738535005
11578080 2 18052812843565959353
12138202 97 17988923340541702061
12173636 292 18339912736600474117
12423570 1 13439848045743772099
12491281 212 18259980453237836080
12500047 106 18342737386646713718
12592029 89 18051135787453541115
13024252 1 15213298646879909991
13299463 15 16227449800944706666
14617773 55 17895744214081009131
14817 1 16373294319248154675
15163728 17 17980217287293840173
15309172 13 16950565419905319753
15534591 1 18187365393872303065
15852999 172 17988086573474929623
15906896 17 18260837003203536267
16752209 62 18339625811774521031
16945 1 18341599460678695271
18534176 82 17775286062232604529
19765921 60 17128471813323391761
19868273 293 18342454803262738968
20645476 183 18271523104731054909
21452121 199 17619048964661302535
21524375 3 18116149978781649161
23419403 2 16915648392957157355
23493267 7 18060703866513600072
23557571 272 17977926197092061018
23559900 14 17988923337285925866
298252 57 18263922151100168009
430814 3 18116707409675461641
74978 22 18412539920964671256
81228 2 18128807715728132155
84936 31 17476616712681795911

>  <PUBCHEM_SHAPE_MULTIPOLES>  (1) 
354.6
5.14
2.41
1.75
5.47
1.67
-0.47
-1.89
0.74
-3.37
0.44
0.01
-0.1
-0.55

>  <PUBCHEM_SHAPE_SELFOVERLAP>  (1) 
768.704

>  <PUBCHEM_SHAPE_VOLUME>  (1) 
193

>  <PUBCHEM_COORDINATE_TYPE>  (1) 
2
5
10

$$$$
