12532
     RDKit          3D

 19 18  0  0  0  0  0  0  0  0999 V2000
   11.1585   -0.8070    0.0188 N   0  0  0  0  0  0  0  0  0  0  0  0
   -1.2589    0.4264   -0.1370 C   0  0  0  0  0  0  0  0  0  0  0  0
    0.0499   -0.3694   -0.0998 C   0  0  0  0  0  0  0  0  0  0  0  0
   -2.5464   -0.4019   -0.0610 C   0  0  0  0  0  0  0  0  0  0  0  0
    1.2988    0.5149   -0.0985 C   0  0  0  0  0  0  0  0  0  0  0  0
   -3.8563    0.3924   -0.0289 C   0  0  0  0  0  0  0  0  0  0  0  0
    2.6082   -0.2813   -0.0511 C   0  0  0  0  0  0  0  0  0  0  0  0
   -5.1077   -0.4880   -0.0111 C   0  0  0  0  0  0  0  0  0  0  0  0
    3.8958    0.5492   -0.0234 C   0  0  0  0  0  0  0  0  0  0  0  0
   -6.4122    0.3141   -0.0716 C   0  0  0  0  0  0  0  0  0  0  0  0
    5.1707   -0.2975   -0.0387 C   0  0  0  0  0  0  0  0  0  0  0  0
   -7.6707   -0.5529    0.0165 C   0  0  0  0  0  0  0  0  0  0  0  0
    6.4197    0.5797    0.0770 C   0  0  0  0  0  0  0  0  0  0  0  0
   -8.9359    0.3097    0.0238 C   0  0  0  0  0  0  0  0  0  0  0  0
    7.7260   -0.2186    0.0327 C   0  0  0  0  0  0  0  0  0  0  0  0
  -10.2249   -0.5069    0.1398 C   0  0  0  0  0  0  0  0  0  0  0  0
    8.9768    0.6574    0.1260 C   0  0  0  0  0  0  0  0  0  0  0  0
  -11.4871    0.3408    0.1208 C   0  0  0  0  0  0  0  0  0  0  0  0
   10.1958   -0.1610    0.0657 C   0  0  0  0  0  0  0  0  0  0  0  0
  1 19  3  0
  2  3  1  0
  2  4  1  0
  3  5  1  0
  4  6  1  0
  5  7  1  0
  6  8  1  0
  7  9  1  0
  8 10  1  0
  9 11  1  0
 10 12  1  0
 11 13  1  0
 12 14  1  0
 13 15  1  0
 14 16  1  0
 15 17  1  0
 16 18  1  0
 17 19  1  0
M  END
>  <PUBCHEM_COMPOUND_CID>  (1) 
12532

>  <PUBCHEM_CONFORMER_RMSD>  (1) 
1.4

>  <PUBCHEM_CONFORMER_DIVERSEORDER>  (1) 
1
77
45
16
9
28
40
23
119
19
79
13
120
6
43
91
73
51
111
64
31
47
65
71
85
123
56
10
109
34
27
76
103
15
2
33
72
3
113
39
75
110
80
84
55
107
92
112
86
54
66
7
38
35
105
32
82
5
98
42
68
46
29
121
62
90
67
69
26
49
106
96
81
117
118
11
114
18
70
8
99
21
37
60
14
104
108
83
53
36
12
63
100
78
88
101
48
4
95
87
24
25
22
58
89
74
116
93
61
59
94
52
44
97
102
115
17
122
50
41
57
20
30
124
126
125

>  <PUBCHEM_MMFF94_PARTIAL_CHARGES>  (1) 
3
1 -0.56
17 0.2
19 0.36

>  <PUBCHEM_EFFECTIVE_ROTOR_COUNT>  (1) 
15

>  <PUBCHEM_PHARMACOPHORE_FEATURES>  (1) 
2
1 1 acceptor
1 18 hydrophobe

>  <PUBCHEM_HEAVY_ATOM_COUNT>  (1) 
19

>  <PUBCHEM_ATOM_DEF_STEREO_COUNT>  (1) 
0

>  <PUBCHEM_ATOM_UDEF_STEREO_COUNT>  (1) 
0

>  <PUBCHEM_BOND_DEF_STEREO_COUNT>  (1) 
0

>  <PUBCHEM_BOND_UDEF_STEREO_COUNT>  (1) 
0

>  <PUBCHEM_ISOTOPIC_ATOM_COUNT>  (1) 
0

>  <PUBCHEM_COMPONENT_COUNT>  (1) 
1

>  <PUBCHEM_CACTVS_TAUTO_COUNT>  (1) 
1

>  <PUBCHEM_CONFORMER_ID>  (1) 
000030F400000001

>  <PUBCHEM_MMFF94_ENERGY>  (1) 
-1.8784

>  <PUBCHEM_FEATURE_SELFOVERLAP>  (1) 
10.148

>  <PUBCHEM_SHAPE_FINGERPRINT>  (1) 
14251764 46 18410856563940038115
14251920 1 18410575080368111619
14344974 52 9223220845611246519
15061470 23 18413669110458117393
15510794 2 18412548712409681646
155225 1 10303807688937399714
232437 2 18260547826907287034
23521765 1 18341894099423992172
23528940 14 17988080120018175327
23581129 1 18409448089539575813
33684 2 18410856563940038117
59521270 166 17603861188601003111
67123 10 18410573993741385733
8209 1 18410855468718102892
9663363 56 14979956969091744443

>  <PUBCHEM_SHAPE_MULTIPOLES>  (1) 
386.03
48.33
0.82
0.62
3.16
0
0
-2.66
-2.74
-0.21
0
0.06
0
0.05

>  <PUBCHEM_SHAPE_SELFOVERLAP>  (1) 
693.927

>  <PUBCHEM_SHAPE_VOLUME>  (1) 
246.6

>  <PUBCHEM_COORDINATE_TYPE>  (1) 
2
5
10

$$$$
