1254
     RDKit          3D

 11 11  0  0  1  0  0  0  0  0999 V2000
    0.4167    2.3656    0.4212 O   0  0  0  0  0  0  0  0  0  0  0  0
    0.7056   -0.0351    0.4283 C   0  0  0  0  0  0  0  0  0  0  0  0
   -0.0704    1.1567   -0.1560 C   0  0  0  0  0  0  0  0  0  0  0  0
    0.1195   -1.3636   -0.0670 C   0  0  0  0  0  0  0  0  0  0  0  0
   -2.1491   -0.2825   -0.3743 C   0  0  0  0  0  0  0  0  0  0  0  0
   -1.5705    1.0447    0.1258 C   0  0  0  0  0  0  0  0  0  0  0  0
   -1.3769   -1.4666    0.2195 C   0  0  0  0  0  0  0  0  0  0  0  0
    2.1959    0.0476    0.0872 C   0  0  0  0  0  0  0  0  0  0  0  0
   -3.6356   -0.3844   -0.0380 C   0  0  0  0  0  0  0  0  0  0  0  0
    2.9640   -1.0757    0.7771 C   0  0  0  0  0  0  0  0  0  0  0  0
    2.4009   -0.0067   -1.4238 C   0  0  0  0  0  0  0  0  0  0  0  0
  1  3  1  0
  2  3  1  0
  2  4  1  0
  2  8  1  0
  3  6  1  0
  4  7  1  0
  5  6  1  0
  5  7  1  0
  5  9  1  0
  8 10  1  0
  8 11  1  0
M  END
>  <PUBCHEM_COMPOUND_CID>  (1) 
1254

>  <PUBCHEM_CONFORMER_RMSD>  (1) 
0.6

>  <PUBCHEM_CONFORMER_DIVERSEORDER>  (1) 
1
6
19
9
13
3
16
17
21
18
5
20
10
11
4
22
15
7
2
14
8
12

>  <PUBCHEM_MMFF94_PARTIAL_CHARGES>  (1) 
3
1 -0.68
3 0.28
31 0.4

>  <PUBCHEM_EFFECTIVE_ROTOR_COUNT>  (1) 
2.2

>  <PUBCHEM_PHARMACOPHORE_FEATURES>  (1) 
4
1 1 acceptor
1 1 donor
3 8 10 11 hydrophobe
6 2 3 4 5 6 7 rings

>  <PUBCHEM_HEAVY_ATOM_COUNT>  (1) 
11

>  <PUBCHEM_ATOM_DEF_STEREO_COUNT>  (1) 
0

>  <PUBCHEM_ATOM_UDEF_STEREO_COUNT>  (1) 
3

>  <PUBCHEM_BOND_DEF_STEREO_COUNT>  (1) 
0

>  <PUBCHEM_BOND_UDEF_STEREO_COUNT>  (1) 
0

>  <PUBCHEM_ISOTOPIC_ATOM_COUNT>  (1) 
0

>  <PUBCHEM_COMPONENT_COUNT>  (1) 
1

>  <PUBCHEM_CACTVS_TAUTO_COUNT>  (1) 
1

>  <PUBCHEM_CONFORMER_ID>  (1) 
000004E600000001

>  <PUBCHEM_MMFF94_ENERGY>  (1) 
20.9969

>  <PUBCHEM_FEATURE_SELFOVERLAP>  (1) 
20.297

>  <PUBCHEM_SHAPE_FINGERPRINT>  (1) 
10130415 120 18333445439191448178
10353120 184 18412270531899129789
10857977 72 18271795813695286792
11206711 2 18409163286475154517
12032990 46 18411140212360533419
14993402 34 18412547630251476767
15310529 11 17094961056581774839
15775835 57 18114186370903890398
161256 15 17616549783416208691
16945 1 18413390947090641139
193761 8 17762615492245295851
20201158 50 18343019999336389046
20645476 183 17822587099773130102
20653085 51 16081370704728568263
20711985 344 18056221088845716428
21040471 1 17907865002774873840
22802520 49 17700707159283309982
23402539 116 18129362865472434774
23402655 69 18123165946068869677
23463225 33 18262796263756480202
23552423 10 17973445695846255015
2748010 2 18049722124801065919
29004967 10 16272204172181368834
5084963 1 17676481718314714110
53812654 25 18411128143518028502

>  <PUBCHEM_SHAPE_MULTIPOLES>  (1) 
220.51
4.55
1.71
0.9
1.11
0.6
0.22
-1.23
0.21
0.02
-0.29
-0.59
-0.01
-0.23

>  <PUBCHEM_SHAPE_SELFOVERLAP>  (1) 
426.915

>  <PUBCHEM_SHAPE_VOLUME>  (1) 
134.3

>  <PUBCHEM_COORDINATE_TYPE>  (1) 
2
5
10

$$$$
