12549
     RDKit          3D

 24 27  0  0  0  0  0  0  0  0999 V2000
   -0.0351    0.7269   -1.3031 C   0  0  0  0  0  0  0  0  0  0  0  0
    0.0404   -0.7224   -1.3049 C   0  0  0  0  0  0  0  0  0  0  0  0
   -0.9157    1.4108   -0.4611 C   0  0  0  0  0  0  0  0  0  0  0  0
    0.9158   -1.4105   -0.4649 C   0  0  0  0  0  0  0  0  0  0  0  0
   -1.7962    0.7128    0.4506 C   0  0  0  0  0  0  0  0  0  0  0  0
    1.7961   -0.7129    0.4541 C   0  0  0  0  0  0  0  0  0  0  0  0
    0.7986    1.4349   -2.1689 C   0  0  0  0  0  0  0  0  0  0  0  0
   -0.7906   -1.4281   -2.1750 C   0  0  0  0  0  0  0  0  0  0  0  0
   -0.9574    2.8068   -0.4906 C   0  0  0  0  0  0  0  0  0  0  0  0
    0.9602   -2.8044   -0.4950 C   0  0  0  0  0  0  0  0  0  0  0  0
    0.7543    2.8288   -2.1955 C   0  0  0  0  0  0  0  0  0  0  0  0
   -0.7463   -2.8220   -2.2052 C   0  0  0  0  0  0  0  0  0  0  0  0
   -0.1237    3.5147   -1.3563 C   0  0  0  0  0  0  0  0  0  0  0  0
    0.1291   -3.5101   -1.3651 C   0  0  0  0  0  0  0  0  0  0  0  0
   -3.0721    0.3328    0.0344 C   0  0  0  0  0  0  0  0  0  0  0  0
    3.0707   -0.3340    0.0400 C   0  0  0  0  0  0  0  0  0  0  0  0
   -1.3689    0.4197    1.7455 C   0  0  0  0  0  0  0  0  0  0  0  0
    1.3623   -0.4252    1.7457 C   0  0  0  0  0  0  0  0  0  0  0  0
   -3.9209   -0.3402    0.9132 C   0  0  0  0  0  0  0  0  0  0  0  0
    3.9167    0.3367    0.9231 C   0  0  0  0  0  0  0  0  0  0  0  0
   -2.2175   -0.2536    2.6244 C   0  0  0  0  0  0  0  0  0  0  0  0
    2.2082    0.2456    2.6289 C   0  0  0  0  0  0  0  0  0  0  0  0
   -3.4936   -0.6333    2.2082 C   0  0  0  0  0  0  0  0  0  0  0  0
    3.4856    0.6265    2.2176 C   0  0  0  0  0  0  0  0  0  0  0  0
  1  2  1  0
  1  3  1  0
  1  7  2  0
  2  4  1  0
  2  8  2  0
  3  5  1  0
  3  9  2  0
  4  6  1  0
  4 10  2  0
  5 15  2  0
  5 17  1  0
  6 16  2  0
  6 18  1  0
  7 11  1  0
  8 12  1  0
  9 13  1  0
 10 14  1  0
 11 13  2  0
 12 14  2  0
 15 19  1  0
 16 20  1  0
 17 21  2  0
 18 22  2  0
 19 23  2  0
 20 24  2  0
 21 23  1  0
 22 24  1  0
M  END
>  <PUBCHEM_COMPOUND_CID>  (1) 
12549

>  <PUBCHEM_CONFORMER_RMSD>  (1) 
0.6

>  <PUBCHEM_CONFORMER_DIVERSEORDER>  (1) 
1
2

>  <PUBCHEM_MMFF94_PARTIAL_CHARGES>  (1) 
36
10 -0.15
11 -0.15
12 -0.15
13 -0.15
14 -0.15
15 -0.15
16 -0.15
17 -0.15
18 -0.15
19 -0.15
20 -0.15
21 -0.15
22 -0.15
23 -0.15
24 -0.15
25 0.15
26 0.15
27 0.15
28 0.15
29 0.15
30 0.15
31 0.15
32 0.15
33 0.15
34 0.15
35 0.15
36 0.15
37 0.15
38 0.15
39 0.15
40 0.15
41 0.15
42 0.15
7 -0.15
8 -0.15
9 -0.15

>  <PUBCHEM_EFFECTIVE_ROTOR_COUNT>  (1) 
3

>  <PUBCHEM_PHARMACOPHORE_FEATURES>  (1) 
4
6 1 3 7 9 11 13 rings
6 2 4 8 10 12 14 rings
6 5 15 17 19 21 23 rings
6 6 16 18 20 22 24 rings

>  <PUBCHEM_HEAVY_ATOM_COUNT>  (1) 
24

>  <PUBCHEM_ATOM_DEF_STEREO_COUNT>  (1) 
0

>  <PUBCHEM_ATOM_UDEF_STEREO_COUNT>  (1) 
0

>  <PUBCHEM_BOND_DEF_STEREO_COUNT>  (1) 
0

>  <PUBCHEM_BOND_UDEF_STEREO_COUNT>  (1) 
0

>  <PUBCHEM_ISOTOPIC_ATOM_COUNT>  (1) 
0

>  <PUBCHEM_COMPONENT_COUNT>  (1) 
1

>  <PUBCHEM_CACTVS_TAUTO_COUNT>  (1) 
1

>  <PUBCHEM_CONFORMER_ID>  (1) 
0000310500000001

>  <PUBCHEM_MMFF94_ENERGY>  (1) 
104.0349

>  <PUBCHEM_FEATURE_SELFOVERLAP>  (1) 
20.3

>  <PUBCHEM_SHAPE_FINGERPRINT>  (1) 
10165383 225 18130787833132778568
10906281 52 18115318756681478813
11112662 9 16271922740354687517
11578080 2 17699309684558519081
11582403 64 16601470370876015164
12035759 4 17474108081959862589
12082328 90 17604985911792880306
12156800 1 16982110674772807256
12507560 18 15528273921601201702
14022347 108 17173245026460599497
14028597 1 16681192046068767608
14142880 1 17698406100674271096
14787075 74 16952842667938141540
14817 1 11725377395166844428
16945 1 18410575054603582686
17980427 23 18334296478883302049
18219364 16 17842536484518435010
19765921 60 16193615435819011856
20600515 1 17386287567304440653
20691752 17 16771862972243695145
20905425 154 17029135631952325739
21421861 104 17388293158471680977
229495 10 17340933769415755997
23419403 2 17550122363385909086
238 59 17481674504555135876
25222932 49 16529231800265951331
25223398 141 13745618565522124717
3027735 51 13191714487555978088
350125 39 17766519549104027078
35225 105 17559936853056525294
392239 28 17203047495290242795
394222 165 17829923123295744153
427121 178 17489044732997003779
469060 322 17974814510613996170
497634 4 17553448747417667928
81228 2 17982704644894491734
9925002 15 17980751959039386708
9981440 41 17333596719807707192
9999458 23 17632307739141387579

>  <PUBCHEM_SHAPE_MULTIPOLES>  (1) 
493.91
4.78
3.46
3.07
0.03
0.02
-0.77
-0.01
-4.62
-0.01
3.55
-0.01
-0.01
0.11

>  <PUBCHEM_SHAPE_SELFOVERLAP>  (1) 
1113.085

>  <PUBCHEM_SHAPE_VOLUME>  (1) 
239.8

>  <PUBCHEM_COORDINATE_TYPE>  (1) 
2
5
10

$$$$
