12545
     RDKit          3D

 21 24  0  0  1  0  0  0  0  0999 V2000
    2.5410   -1.7591    0.6460 O   0  0  0  0  0  0  0  0  0  0  0  0
    4.6020   -0.0334    0.5530 O   0  0  0  0  0  0  0  0  0  0  0  0
   -3.0544    1.6033   -0.1269 N   0  0  0  0  0  0  0  0  0  0  0  0
   -1.6897    1.1221    0.2117 C   0  0  0  0  0  0  0  0  0  0  0  0
   -1.5208   -0.3873    0.0078 C   0  0  0  0  0  0  0  0  0  0  0  0
   -0.6088    1.8592   -0.6115 C   0  0  0  0  0  0  0  0  0  0  0  0
   -2.6526   -1.2251   -0.0340 C   0  0  0  0  0  0  0  0  0  0  0  0
   -4.0606    0.7788    0.5613 C   0  0  0  0  0  0  0  0  0  0  0  0
   -4.0385   -0.6443    0.0115 C   0  0  0  0  0  0  0  0  0  0  0  0
   -0.2162   -0.9376   -0.0737 C   0  0  0  0  0  0  0  0  0  0  0  0
    0.7758    1.3382   -0.2972 C   0  0  0  0  0  0  0  0  0  0  0  0
    0.9585   -0.0367   -0.0343 C   0  0  0  0  0  0  0  0  0  0  0  0
   -3.2553    3.0088    0.2415 C   0  0  0  0  0  0  0  0  0  0  0  0
   -2.4927   -2.6055   -0.1872 C   0  0  0  0  0  0  0  0  0  0  0  0
   -0.0954   -2.3309   -0.2247 C   0  0  0  0  0  0  0  0  0  0  0  0
    1.8698    2.2171   -0.3109 C   0  0  0  0  0  0  0  0  0  0  0  0
    2.2615   -0.4791    0.2564 C   0  0  0  0  0  0  0  0  0  0  0  0
   -1.2200   -3.1551   -0.2788 C   0  0  0  0  0  0  0  0  0  0  0  0
    3.3448    0.4045    0.2577 C   0  0  0  0  0  0  0  0  0  0  0  0
    3.1502    1.7501   -0.0314 C   0  0  0  0  0  0  0  0  0  0  0  0
    5.4012   -0.4879   -0.5365 C   0  0  0  0  0  0  0  0  0  0  0  0
  1 17  1  0
  2 19  1  0
  2 21  1  0
  3  4  1  0
  3  8  1  0
  3 13  1  0
  4  5  1  0
  4  6  1  0
  5  7  2  0
  5 10  1  0
  6 11  1  0
  7  9  1  0
  7 14  1  0
  8  9  1  0
 10 12  1  0
 10 15  2  0
 11 12  2  0
 11 16  1  0
 12 17  1  0
 14 18  2  0
 15 18  1  0
 16 20  2  0
 17 19  2  0
 19 20  1  0
M  END
>  <PUBCHEM_COMPOUND_CID>  (1) 
12545

>  <PUBCHEM_CONFORMER_RMSD>  (1) 
0.6

>  <PUBCHEM_CONFORMER_DIVERSEORDER>  (1) 
1
3
2

>  <PUBCHEM_MMFF94_PARTIAL_CHARGES>  (1) 
25
1 -0.53
11 -0.14
13 0.27
14 -0.15
15 -0.15
16 -0.15
17 0.08
18 -0.15
19 0.08
2 -0.36
20 -0.15
21 0.28
3 -0.81
32 0.15
33 0.15
34 0.15
35 0.15
36 0.15
37 0.45
4 0.41
5 -0.14
6 0.14
7 -0.14
8 0.27
9 0.14

>  <PUBCHEM_EFFECTIVE_ROTOR_COUNT>  (1) 
1.8

>  <PUBCHEM_PHARMACOPHORE_FEATURES>  (1) 
7
1 1 donor
1 2 acceptor
1 3 cation
6 11 12 16 17 19 20 rings
6 3 4 5 7 8 9 rings
6 4 5 6 10 11 12 rings
6 5 7 10 14 15 18 rings

>  <PUBCHEM_HEAVY_ATOM_COUNT>  (1) 
21

>  <PUBCHEM_ATOM_DEF_STEREO_COUNT>  (1) 
1

>  <PUBCHEM_ATOM_UDEF_STEREO_COUNT>  (1) 
0

>  <PUBCHEM_BOND_DEF_STEREO_COUNT>  (1) 
0

>  <PUBCHEM_BOND_UDEF_STEREO_COUNT>  (1) 
0

>  <PUBCHEM_ISOTOPIC_ATOM_COUNT>  (1) 
0

>  <PUBCHEM_COMPONENT_COUNT>  (1) 
1

>  <PUBCHEM_CACTVS_TAUTO_COUNT>  (1) 
9

>  <PUBCHEM_CONFORMER_ID>  (1) 
0000310100000001

>  <PUBCHEM_MMFF94_ENERGY>  (1) 
79.5339

>  <PUBCHEM_FEATURE_SELFOVERLAP>  (1) 
35.608

>  <PUBCHEM_SHAPE_FINGERPRINT>  (1) 
10319926 262 18198880636060470520
10411042 1 17979073013796583903
10493431 412 18341053995637531905
10616163 171 18411138077714379478
10967382 1 18410292501806423471
1100329 8 18411420647860200105
11132069 177 18411412938493825152
11370993 70 18339918208795153401
11578080 2 17273123833302893554
12011746 2 18409727339760183287
12173636 292 18412820309230162781
12251169 10 18409449184835513521
12390115 104 18128551383152752049
12403259 226 18128251392640229753
12553582 1 18334283284695906138
13140716 1 18193844962319262203
13544592 145 18129955455665163430
13583140 156 17240760662454679569
138480 1 17186440140924957863
14081887 123 17983281909530675992
14178342 30 18265595732509632136
14223421 5 18125436655684321368
14790565 3 18051141285233765108
15042514 8 18266182910490211971
15196674 1 18337668732083586344
15256400 18 18412265017008108236
15309172 13 18410015403475377025
15442244 35 18337389456473016124
15536298 74 18340768264453589304
16752209 62 18411972585517220895
16945 1 18266457796569845885
17492 89 18121218942202944978
17804303 29 18341054102874343148
1813 80 17240763974074684812
19591789 44 18122064191645088750
20261772 1 18337681904980359657
20510252 161 18272654549868165713
20739085 24 17760109327278416616
20775438 99 16114255225512014879
21267235 1 18337117855346927419
21279426 13 18126009261093444182
21501502 16 18265052616425299316
22182313 1 18269573653767792751
23175994 123 17131839772110612248
2334 1 18410012147927063853
23402539 116 18272081751855317623
23463225 33 18407477769103187013
23557571 272 18273221893678294412
23558518 356 18190182467322036376
23559900 14 18200592613934883888
238 59 17105051077633298437
2748010 2 17328300247636753829
3091708 16 9126817886886547723
335352 9 18410575093274125982
34934 24 18260259712158913824
350125 39 18410014325618109033
352729 6 18339931506013447183
4214541 1 18411700997708225928
5104073 3 18338796840004553184
54173680 148 18194120943774429067
559249 180 18335979762692569826
59755656 215 18412546475084745903
69090 78 18411416232918253473
6992083 37 18260552242397658469
7097593 13 18188757367309309282
7832392 63 18410289233494553824
90525 40 18411416202832597759
9709674 26 18342461490664111966
9981440 41 17037538228846354008

>  <PUBCHEM_SHAPE_MULTIPOLES>  (1) 
415.45
8.08
3.28
0.71
6.09
0.44
0
-0.9
-0.52
-2.38
0.24
0.1
-0.02
-0.39

>  <PUBCHEM_SHAPE_SELFOVERLAP>  (1) 
921.508

>  <PUBCHEM_SHAPE_VOLUME>  (1) 
221.5

>  <PUBCHEM_COORDINATE_TYPE>  (1) 
2
5
10

$$$$
