12567
     RDKit          3D

 18 18  0  0  1  0  0  0  0  0999 V2000
    3.8341    0.6298   -0.0677 O   0  0  0  0  0  0  0  0  0  0  0  0
    0.1802    0.0352    0.0579 O   0  0  0  0  0  0  0  0  0  0  0  0
   -0.6151   -1.6466    1.4188 O   0  0  0  0  0  0  0  0  0  0  0  0
    1.9399   -1.6423   -0.0045 N   0  0  0  0  0  0  0  0  0  0  0  0
    2.4483    0.8690   -0.3271 C   0  0  0  0  0  0  0  0  0  0  0  0
    1.5770   -0.2480    0.3465 C   0  0  0  0  0  0  0  0  0  0  0  0
    2.0806    2.2686    0.2196 C   0  0  0  0  0  0  0  0  0  0  0  0
    2.2776    0.8111   -1.8564 C   0  0  0  0  0  0  0  0  0  0  0  0
    2.2182    2.4257    1.7310 C   0  0  0  0  0  0  0  0  0  0  0  0
    3.3482   -1.9085    0.3003 C   0  0  0  0  0  0  0  0  0  0  0  0
    1.6600   -1.9996   -1.3947 C   0  0  0  0  0  0  0  0  0  0  0  0
   -0.7824   -0.7183    0.6442 C   0  0  0  0  0  0  0  0  0  0  0  0
   -2.1234   -0.2475    0.2165 C   0  0  0  0  0  0  0  0  0  0  0  0
   -3.1870   -0.3840    1.0853 C   0  0  0  0  0  0  0  0  0  0  0  0
   -2.2658    0.3128   -1.0367 C   0  0  0  0  0  0  0  0  0  0  0  0
   -4.4473    0.0586    0.6836 C   0  0  0  0  0  0  0  0  0  0  0  0
   -3.5262    0.7556   -1.4383 C   0  0  0  0  0  0  0  0  0  0  0  0
   -4.6168    0.6284   -0.5780 C   0  0  0  0  0  0  0  0  0  0  0  0
  1  5  1  0
  2  6  1  0
  2 12  1  0
  3 12  2  0
  4  6  1  0
  4 10  1  0
  4 11  1  0
  5  6  1  0
  5  7  1  0
  5  8  1  0
  7  9  1  0
 12 13  1  0
 13 14  2  0
 13 15  1  0
 14 16  1  0
 15 17  2  0
 16 18  2  0
 17 18  1  0
M  END
>  <PUBCHEM_COMPOUND_CID>  (1) 
12567

>  <PUBCHEM_CONFORMER_RMSD>  (1) 
0.8

>  <PUBCHEM_CONFORMER_DIVERSEORDER>  (1) 
6
32
34
29
19
37
28
21
20
17
2
7
15
23
8
12
24
35
5
11
31
16
10
9
30
13
18
14
26
27
1
36
25
22
33
4
3

>  <PUBCHEM_MMFF94_PARTIAL_CHARGES>  (1) 
21
1 -0.68
10 0.27
11 0.27
12 0.63
13 0.09
14 -0.15
15 -0.15
16 -0.15
17 -0.15
18 -0.15
2 -0.43
28 0.4
3 -0.57
35 0.15
36 0.15
37 0.15
38 0.15
39 0.15
4 -0.81
5 0.28
6 0.55

>  <PUBCHEM_EFFECTIVE_ROTOR_COUNT>  (1) 
6

>  <PUBCHEM_PHARMACOPHORE_FEATURES>  (1) 
6
1 1 acceptor
1 1 donor
1 3 acceptor
1 4 cation
1 9 hydrophobe
6 13 14 15 16 17 18 rings

>  <PUBCHEM_HEAVY_ATOM_COUNT>  (1) 
18

>  <PUBCHEM_ATOM_DEF_STEREO_COUNT>  (1) 
0

>  <PUBCHEM_ATOM_UDEF_STEREO_COUNT>  (1) 
2

>  <PUBCHEM_BOND_DEF_STEREO_COUNT>  (1) 
0

>  <PUBCHEM_BOND_UDEF_STEREO_COUNT>  (1) 
0

>  <PUBCHEM_ISOTOPIC_ATOM_COUNT>  (1) 
0

>  <PUBCHEM_COMPONENT_COUNT>  (1) 
1

>  <PUBCHEM_CACTVS_TAUTO_COUNT>  (1) 
1

>  <PUBCHEM_CONFORMER_ID>  (1) 
0000311700000006

>  <PUBCHEM_MMFF94_ENERGY>  (1) 
65.1885

>  <PUBCHEM_FEATURE_SELFOVERLAP>  (1) 
30.446

>  <PUBCHEM_SHAPE_FINGERPRINT>  (1) 
10608611 8 18040716974229816477
11132069 177 17095244713987317455
11471102 20 18411138021805509866
11543360 7 18059282249982678087
12654215 9 18411140251336868960
13134695 92 18340475665490229702
13296908 3 17967537861309930367
14787075 74 12979581496109700923
15219456 202 18186803573526838135
16752209 62 14620248386339004491
1813 80 17200532718807699886
18186145 218 18343025518733192329
19862831 5 16200157611872154829
20233049 118 16371005148770968598
20645476 183 17275100652573446663
20645477 70 18339924822796986511
21486144 27 18410575128003187501
21639500 275 18272366498932287369
21947302 44 18408041827100161464
2255824 54 17917991711004028504
22854114 111 18412263964656835137
22892500 29 18342167895352988884
22943178 12 18186524315154257067
23419403 2 15367757872783153538
23557571 272 18041286573040681315
23559900 14 17603582998113769531
23598291 2 17130165116827195315
25 1 18412830217498116472
3060560 45 17989492926604633510
3082319 5 17060057081717900081
3286 77 18409448046869536335
474 4 18058158621391517865
495365 180 18271796956156730481
5281201 14 18187369792198135943
5895379 119 17130435575007512497
6049 1 18041287586536710605
633830 44 18114460064075126447
7364860 26 18272088292731572626
7615 1 17418095399519318281
81228 2 17475243401299944250
90316 7 14490460960043842047

>  <PUBCHEM_SHAPE_MULTIPOLES>  (1) 
347.84
7.95
2.15
1.53
6.86
0.32
0.26
1.16
0.58
-2.89
-0.48
0.06
0.2
0.85

>  <PUBCHEM_SHAPE_SELFOVERLAP>  (1) 
706.024

>  <PUBCHEM_SHAPE_VOLUME>  (1) 
202.9

>  <PUBCHEM_COORDINATE_TYPE>  (1) 
2
5
10

$$$$
