12562
     RDKit          3D

 16 16  0  0  0  0  0  0  0  0999 V2000
    0.5328   -0.2530    0.3502 O   0  0  0  0  0  0  0  0  0  0  0  0
   -0.0879    1.9634    0.4456 O   0  0  0  0  0  0  0  0  0  0  0  0
    3.7803   -1.1953    1.1028 O   0  0  0  0  0  0  0  0  0  0  0  0
    2.8975    1.9965   -0.4217 O   0  0  0  0  0  0  0  0  0  0  0  0
    2.2358   -2.1541   -0.1373 O   0  0  0  0  0  0  0  0  0  0  0  0
    2.1934    0.4044   -1.7684 O   0  0  0  0  0  0  0  0  0  0  0  0
    2.7036   -1.1957    0.4924 N   0  0  0  0  0  0  0  0  0  0  0  0
    2.3747    0.8967   -0.6476 N   0  0  0  0  0  0  0  0  0  0  0  0
   -1.7310    0.2636    0.1371 C   0  0  0  0  0  0  0  0  0  0  0  0
    1.9142    0.0806    0.5243 C   0  0  0  0  0  0  0  0  0  0  0  0
   -0.3797    0.7663    0.3261 C   0  0  0  0  0  0  0  0  0  0  0  0
   -2.8150    0.9580    0.6743 C   0  0  0  0  0  0  0  0  0  0  0  0
   -1.9435   -0.9129   -0.5817 C   0  0  0  0  0  0  0  0  0  0  0  0
   -4.1113    0.4761    0.4929 C   0  0  0  0  0  0  0  0  0  0  0  0
   -3.2400   -1.3947   -0.7632 C   0  0  0  0  0  0  0  0  0  0  0  0
   -4.3238   -0.7002   -0.2258 C   0  0  0  0  0  0  0  0  0  0  0  0
  1 10  1  0
  1 11  1  0
  2 11  2  0
  3  7  1  0
  4  8  1  0
  5  7  2  0
  6  8  2  0
  7 10  1  0
  8 10  1  0
  9 11  1  0
  9 12  2  0
  9 13  1  0
 12 14  1  0
 13 15  2  0
 14 16  2  0
 15 16  1  0
M  CHG  4   3  -1   4  -1   7   1   8   1
M  END
>  <PUBCHEM_COMPOUND_CID>  (1) 
12562

>  <PUBCHEM_CONFORMER_RMSD>  (1) 
0.6

>  <PUBCHEM_CONFORMER_DIVERSEORDER>  (1) 
1
32
31
43
21
22
27
35
15
17
37
36
13
28
44
45
20
34
23
25
9
19
39
11
42
14
16
46
38
33
12
29
40
4
26
24
10
41
3
18
2
30
5
7
6
8

>  <PUBCHEM_MMFF94_PARTIAL_CHARGES>  (1) 
21
1 -0.43
10 0.76
11 0.63
12 -0.15
13 -0.15
14 -0.15
15 -0.15
16 -0.15
18 0.15
19 0.15
2 -0.57
20 0.15
21 0.15
22 0.15
3 -0.52
4 -0.52
5 -0.52
6 -0.52
7 0.8
8 0.8
9 0.09

>  <PUBCHEM_EFFECTIVE_ROTOR_COUNT>  (1) 
5

>  <PUBCHEM_PHARMACOPHORE_FEATURES>  (1) 
8
1 2 acceptor
1 3 acceptor
1 3 anion
1 4 acceptor
1 4 anion
1 5 acceptor
1 6 acceptor
6 9 12 13 14 15 16 rings

>  <PUBCHEM_HEAVY_ATOM_COUNT>  (1) 
16

>  <PUBCHEM_ATOM_DEF_STEREO_COUNT>  (1) 
0

>  <PUBCHEM_ATOM_UDEF_STEREO_COUNT>  (1) 
0

>  <PUBCHEM_BOND_DEF_STEREO_COUNT>  (1) 
0

>  <PUBCHEM_BOND_UDEF_STEREO_COUNT>  (1) 
0

>  <PUBCHEM_ISOTOPIC_ATOM_COUNT>  (1) 
0

>  <PUBCHEM_COMPONENT_COUNT>  (1) 
1

>  <PUBCHEM_CACTVS_TAUTO_COUNT>  (1) 
2

>  <PUBCHEM_CONFORMER_ID>  (1) 
0000311200000001

>  <PUBCHEM_MMFF94_ENERGY>  (1) 
39.1999

>  <PUBCHEM_FEATURE_SELFOVERLAP>  (1) 
40.759

>  <PUBCHEM_SHAPE_FINGERPRINT>  (1) 
12616999 72 18114467871639809694
12932764 1 18412270544847620857
13296908 3 15123796180044401289
13760787 5 18409166623912377061
14144814 61 18343866636696593043
14350558 41 18341330002888662074
15375462 189 18341620360068614265
15669948 3 17917428787078835207
18186145 218 16732700541247063657
19026448 4 14117520939549530449
19050596 39 18413106165025971163
19422 9 18410013239001653459
19786989 88 16661219181137668605
20279233 1 15791727533703064265
20281475 54 18411978105056572459
20559304 39 18412826863302660120
20645476 183 18264216966240090495
20645477 70 18333726914553429819
20671657 53 17386562458175147682
21501925 9 18340477907078172938
2255824 54 18336832004056940084
22646028 28 18411695487296931195
232386 152 18272927223992545943
23463225 33 18342457002449531223
23557571 272 17560520595247469592
23559900 14 17346332452869863084
23598291 2 18264500506795201388
474 4 17972321990568325060
58051976 100 18335703776499167845
7364860 26 18411982468738102968
81228 2 16486148188301535985

>  <PUBCHEM_SHAPE_MULTIPOLES>  (1) 
284.09
7.55
1.79
1
1.88
0.04
-0.23
1.54
0.31
-0.88
-0.02
-0.57
0.02
-1.19

>  <PUBCHEM_SHAPE_SELFOVERLAP>  (1) 
592.362

>  <PUBCHEM_SHAPE_VOLUME>  (1) 
157.7

>  <PUBCHEM_COORDINATE_TYPE>  (1) 
2
5
10

$$$$
