12565
     RDKit          3D

 16 17  0  0  0  0  0  0  0  0999 V2000
   -1.8524   -1.0371   -0.2701 O   0  0  0  0  0  0  0  0  0  0  0  0
    2.8478   -1.5298   -0.3675 O   0  0  0  0  0  0  0  0  0  0  0  0
    3.1823    1.1449    0.3048 O   0  0  0  0  0  0  0  0  0  0  0  0
   -3.0520   -0.2559   -0.0808 C   0  0  0  0  0  0  0  0  0  0  0  0
   -2.8461    1.1956    0.2837 C   0  0  0  0  0  0  0  0  0  0  0  0
   -0.6346   -0.4381   -0.1133 C   0  0  0  0  0  0  0  0  0  0  0  0
   -0.4716    0.9070    0.2243 C   0  0  0  0  0  0  0  0  0  0  0  0
   -3.8449   -0.9482    1.0343 C   0  0  0  0  0  0  0  0  0  0  0  0
   -3.8324   -0.3406   -1.3979 C   0  0  0  0  0  0  0  0  0  0  0  0
   -1.6393    1.7468    0.4280 C   0  0  0  0  0  0  0  0  0  0  0  0
    0.4839   -1.2522   -0.3113 C   0  0  0  0  0  0  0  0  0  0  0  0
    0.8188    1.4321    0.3625 C   0  0  0  0  0  0  0  0  0  0  0  0
    1.7668   -0.7244   -0.1723 C   0  0  0  0  0  0  0  0  0  0  0  0
    1.9343    0.6170    0.1643 C   0  0  0  0  0  0  0  0  0  0  0  0
    3.3552   -2.2215    0.7720 C   0  0  0  0  0  0  0  0  0  0  0  0
    3.7843    1.7044   -0.8609 C   0  0  0  0  0  0  0  0  0  0  0  0
  1  4  1  0
  1  6  1  0
  2 13  1  0
  2 15  1  0
  3 14  1  0
  3 16  1  0
  4  5  1  0
  4  8  1  0
  4  9  1  0
  5 10  2  0
  6  7  2  0
  6 11  1  0
  7 10  1  0
  7 12  1  0
 11 13  2  0
 12 14  2  0
 13 14  1  0
M  END
>  <PUBCHEM_COMPOUND_CID>  (1) 
12565

>  <PUBCHEM_CONFORMER_RMSD>  (1) 
0.6

>  <PUBCHEM_CONFORMER_DIVERSEORDER>  (1) 
1
2

>  <PUBCHEM_MMFF94_PARTIAL_CHARGES>  (1) 
18
1 -0.36
10 -0.18
11 -0.15
12 -0.15
13 0.08
14 0.08
15 0.28
16 0.28
17 0.15
2 -0.36
24 0.15
25 0.15
26 0.15
3 -0.36
4 0.42
5 -0.29
6 0.08
7 0.03

>  <PUBCHEM_EFFECTIVE_ROTOR_COUNT>  (1) 
2.4

>  <PUBCHEM_PHARMACOPHORE_FEATURES>  (1) 
6
1 1 acceptor
1 2 acceptor
1 3 acceptor
3 4 8 9 hydrophobe
6 1 4 5 6 7 10 rings
6 6 7 11 12 13 14 rings

>  <PUBCHEM_HEAVY_ATOM_COUNT>  (1) 
16

>  <PUBCHEM_ATOM_DEF_STEREO_COUNT>  (1) 
0

>  <PUBCHEM_ATOM_UDEF_STEREO_COUNT>  (1) 
0

>  <PUBCHEM_BOND_DEF_STEREO_COUNT>  (1) 
0

>  <PUBCHEM_BOND_UDEF_STEREO_COUNT>  (1) 
0

>  <PUBCHEM_ISOTOPIC_ATOM_COUNT>  (1) 
0

>  <PUBCHEM_COMPONENT_COUNT>  (1) 
1

>  <PUBCHEM_CACTVS_TAUTO_COUNT>  (1) 
1

>  <PUBCHEM_CONFORMER_ID>  (1) 
0000311500000001

>  <PUBCHEM_MMFF94_ENERGY>  (1) 
68.5524

>  <PUBCHEM_FEATURE_SELFOVERLAP>  (1) 
30.48

>  <PUBCHEM_SHAPE_FINGERPRINT>  (1) 
10062212 137 18270674251963979771
10608611 8 18411135801355306313
10967382 1 18341331196725767136
10980938 120 18343864437451927758
11471102 20 18412822491194731893
11543360 7 16371306479223590079
11769659 78 18341607079771135427
12932764 1 17632292397655434025
13140716 1 18269276750967744736
13221675 6 18201159956885182636
13296908 3 18260268542632870803
13380535 76 18337953493179841890
13760787 5 18412825785408261231
14144814 61 18343303669167722145
14325111 11 18412827962593001617
14576447 43 17914880170691898415
14787075 74 17899423270372012091
15196674 1 18412546492327762265
15219456 202 18407761434729373041
15375462 189 18130511919795779617
15375462 6 18334859419877257316
15442244 35 18267585702321387344
15536298 74 18272370850256287074
16945 1 18270395126091786937
17844478 74 18334021613960999465
18186145 218 17676489410680301523
19026448 4 17385722500037357767
19422 9 18411985723800937577
200 152 18059839646374561221
20281475 54 18342737438091518563
20559304 39 18341890784247297056
20645477 70 18411131416293963223
21267235 1 18341341015100536382
21501502 16 18341896246907906576
21501925 9 18340474578768766298
221490 88 18336557035945178914
2255824 54 18261115136864638330
22959321 4 18336549330473000595
2334 1 18341614797753727720
23402655 69 18272363162360162933
23463225 33 18339923719053116632
23559900 14 18335133147007246674
25147074 1 18270686367792597192
25610 137 18410300241437834609
2748010 2 18341891840271460933
312423 11 18340779151704957331
5104073 3 18412547583201951161
57096353 35 18343018934242528765
7364860 26 18343582932863977226
81539 233 18114462370446086524
8809292 202 18334583395498934019

>  <PUBCHEM_SHAPE_MULTIPOLES>  (1) 
311.66
7.13
2.07
0.94
0.44
0.13
-0.12
0.84
-0.48
-1.71
0.23
0.47
0.08
-0.57

>  <PUBCHEM_SHAPE_SELFOVERLAP>  (1) 
661.395

>  <PUBCHEM_SHAPE_VOLUME>  (1) 
176.7

>  <PUBCHEM_COORDINATE_TYPE>  (1) 
2
5
10

$$$$
