1257
     RDKit          3D

 16 18  0  0  1  0  0  0  0  0999 V2000
   -1.7727   -0.0785   -0.1876 N   0  0  0  0  0  0  0  0  0  0  0  0
    3.8314   -0.0231    0.1579 N   0  0  0  0  0  0  0  0  0  0  0  0
    4.1536    1.2773    0.0147 N   0  0  0  0  0  0  0  0  0  0  0  0
    0.3475   -1.4299   -0.2821 C   0  0  0  0  0  0  0  0  0  0  0  0
   -0.3519   -0.1221    0.2381 C   0  0  0  0  0  0  0  0  0  0  0  0
   -0.4387   -2.6842    0.1107 C   0  0  0  0  0  0  0  0  0  0  0  0
    1.8105   -1.5589    0.2209 C   0  0  0  0  0  0  0  0  0  0  0  0
    0.4289    1.1391   -0.2571 C   0  0  0  0  0  0  0  0  0  0  0  0
   -1.8936   -2.5534   -0.3080 C   0  0  0  0  0  0  0  0  0  0  0  0
   -2.5070   -1.2754    0.2532 C   0  0  0  0  0  0  0  0  0  0  0  0
    2.4928   -0.2547    0.0849 C   0  0  0  0  0  0  0  0  0  0  0  0
    1.8952    0.9652   -0.1119 C   0  0  0  0  0  0  0  0  0  0  0  0
   -2.4690    1.1159    0.3013 C   0  0  0  0  0  0  0  0  0  0  0  0
   -3.8789    1.1825   -0.2800 C   0  0  0  0  0  0  0  0  0  0  0  0
    2.9675    1.8749   -0.1506 C   0  0  0  0  0  0  0  0  0  0  0  0
   -4.6158    2.4253    0.1953 C   0  0  0  0  0  0  0  0  0  0  0  0
  1  5  1  0
  1 10  1  0
  1 13  1  0
  2  3  1  0
  2 11  1  0
  3 15  2  0
  4  5  1  0
  4  6  1  0
  4  7  1  0
  5  8  1  0
  6  9  1  0
  7 11  1  0
  8 12  1  0
  9 10  1  0
 11 12  2  0
 12 15  1  0
 13 14  1  0
 14 16  1  0
M  END
>  <PUBCHEM_COMPOUND_CID>  (1) 
1257

>  <PUBCHEM_CONFORMER_RMSD>  (1) 
0.6

>  <PUBCHEM_CONFORMER_DIVERSEORDER>  (1) 
3
7
8
9
11
6
4
5
10
2
1
13
12

>  <PUBCHEM_MMFF94_PARTIAL_CHARGES>  (1) 
13
1 -0.81
10 0.27
11 -0.33
12 -0.18
13 0.27
15 0.14
2 0.3
3 -0.71
33 0.27
34 0.15
5 0.27
7 0.18
8 0.18

>  <PUBCHEM_EFFECTIVE_ROTOR_COUNT>  (1) 
3.2

>  <PUBCHEM_PHARMACOPHORE_FEATURES>  (1) 
7
1 1 cation
1 16 hydrophobe
1 2 donor
1 3 acceptor
5 2 3 11 12 15 rings
6 1 4 5 6 9 10 rings
6 4 5 7 8 11 12 rings

>  <PUBCHEM_HEAVY_ATOM_COUNT>  (1) 
16

>  <PUBCHEM_ATOM_DEF_STEREO_COUNT>  (1) 
0

>  <PUBCHEM_ATOM_UDEF_STEREO_COUNT>  (1) 
2

>  <PUBCHEM_BOND_DEF_STEREO_COUNT>  (1) 
0

>  <PUBCHEM_BOND_UDEF_STEREO_COUNT>  (1) 
0

>  <PUBCHEM_ISOTOPIC_ATOM_COUNT>  (1) 
0

>  <PUBCHEM_COMPONENT_COUNT>  (1) 
1

>  <PUBCHEM_CACTVS_TAUTO_COUNT>  (1) 
2

>  <PUBCHEM_CONFORMER_ID>  (1) 
000004E900000003

>  <PUBCHEM_MMFF94_ENERGY>  (1) 
18.1165

>  <PUBCHEM_FEATURE_SELFOVERLAP>  (1) 
35.623

>  <PUBCHEM_SHAPE_FINGERPRINT>  (1) 
10411042 1 17329711436531179530
10493431 412 18410294705235766897
10608611 8 18269272537847407080
10967382 1 18266177240515624492
11471102 20 18266175028866163885
12173636 292 18339919449649941903
122479 349 18334861610447468491
12390115 104 18269294476282139097
12491281 212 18262521502003342938
12500047 106 18341045293685507016
13140716 1 18335698299946692002
13380535 76 18412261710057545623
138480 1 17474107597045756943
14123255 52 18410855421895806577
14178342 30 18264192781252606456
14325111 11 18338236076126213548
14897335 6 18411416194221349773
15196674 1 18410293609696937258
15442244 35 18409162230034525114
15775835 57 18334577940557879072
16945 1 18121784095231528246
1741750 31 18413671313955162177
17834072 32 18410577292435031333
18186145 218 18200889395415109209
20157964 124 18122059794374518453
204376 136 18410860928207241569
20510252 161 18198910394865600827
21499 59 18339355263305192821
21501502 16 18336819870579208450
21524375 3 18410570661300457727
2334 1 18410293648357190510
23402539 116 18272642446180911476
23402655 69 18200304421486936541
23463225 33 18262796393180291022
23558518 356 18044656635881848642
23559900 14 18201720665852261920
25 1 18339357461959098677
2748010 2 18338531767234041335
3060560 45 18196934362022533575
3071541 12 18052261691776728631
3091708 16 9122600134486819123
335352 9 18338516327285353502
474 4 18267867181893979601
474229 33 18410858781108650451
5104073 3 18334570283143004568
6333272 397 18338800009817017377
633830 44 18057043511027714933
69090 78 18408881824282969101
7364860 26 18124878949833318367
7832392 63 18409728473905907612
8272917 22 18053666876448481133
84936 182 17985541157192348369
9709674 26 18342181119362264054

>  <PUBCHEM_SHAPE_MULTIPOLES>  (1) 
314.33
7.23
2.92
0.65
1.59
1.11
0
-5.92
0.22
1.65
-0.06
0.08
0.02
-0.24

>  <PUBCHEM_SHAPE_SELFOVERLAP>  (1) 
658.533

>  <PUBCHEM_SHAPE_VOLUME>  (1) 
175.6

>  <PUBCHEM_COORDINATE_TYPE>  (1) 
2
5
10

$$$$
