12581
     RDKit          3D

 10 10  0  0  0  0  0  0  0  0999 V2000
    4.4788   -0.0636    0.0584 N   0  0  0  0  0  0  0  0  0  0  0  0
    1.0199    0.0553    0.6420 C   0  0  0  0  0  0  0  0  0  0  0  0
   -0.4364    0.0216    0.3207 C   0  0  0  0  0  0  0  0  0  0  0  0
    1.9343    0.0719   -0.5951 C   0  0  0  0  0  0  0  0  0  0  0  0
   -1.1444    1.2135    0.1671 C   0  0  0  0  0  0  0  0  0  0  0  0
   -1.0901   -1.2017    0.1743 C   0  0  0  0  0  0  0  0  0  0  0  0
   -2.5064    1.1820   -0.1329 C   0  0  0  0  0  0  0  0  0  0  0  0
   -2.4519   -1.2333   -0.1259 C   0  0  0  0  0  0  0  0  0  0  0  0
   -3.1600   -0.0414   -0.2795 C   0  0  0  0  0  0  0  0  0  0  0  0
    3.3563   -0.0044   -0.2291 C   0  0  0  0  0  0  0  0  0  0  0  0
  1 10  3  0
  2  3  1  0
  2  4  1  0
  3  5  2  0
  3  6  1  0
  4 10  1  0
  5  7  1  0
  6  8  2  0
  7  9  2  0
  8  9  1  0
M  END
>  <PUBCHEM_COMPOUND_CID>  (1) 
12581

>  <PUBCHEM_CONFORMER_RMSD>  (1) 
0.4

>  <PUBCHEM_CONFORMER_DIVERSEORDER>  (1) 
1
6
5
2
3
4

>  <PUBCHEM_MMFF94_PARTIAL_CHARGES>  (1) 
15
1 -0.56
10 0.36
15 0.15
16 0.15
17 0.15
18 0.15
19 0.15
2 0.14
3 -0.14
4 0.2
5 -0.15
6 -0.15
7 -0.15
8 -0.15
9 -0.15

>  <PUBCHEM_EFFECTIVE_ROTOR_COUNT>  (1) 
2

>  <PUBCHEM_PHARMACOPHORE_FEATURES>  (1) 
2
1 1 acceptor
6 3 5 6 7 8 9 rings

>  <PUBCHEM_HEAVY_ATOM_COUNT>  (1) 
10

>  <PUBCHEM_ATOM_DEF_STEREO_COUNT>  (1) 
0

>  <PUBCHEM_ATOM_UDEF_STEREO_COUNT>  (1) 
0

>  <PUBCHEM_BOND_DEF_STEREO_COUNT>  (1) 
0

>  <PUBCHEM_BOND_UDEF_STEREO_COUNT>  (1) 
0

>  <PUBCHEM_ISOTOPIC_ATOM_COUNT>  (1) 
0

>  <PUBCHEM_COMPONENT_COUNT>  (1) 
1

>  <PUBCHEM_CACTVS_TAUTO_COUNT>  (1) 
1

>  <PUBCHEM_CONFORMER_ID>  (1) 
0000312500000001

>  <PUBCHEM_MMFF94_ENERGY>  (1) 
18.3973

>  <PUBCHEM_FEATURE_SELFOVERLAP>  (1) 
10.148

>  <PUBCHEM_SHAPE_FINGERPRINT>  (1) 
11062470 55 17632579344541643056
13024252 1 17603588538900954899
14325111 11 18410012109272195686
14911166 2 18411125949311824109
15775835 57 18040715818525047565
20201158 50 17917714595355793942
20279233 1 17703794712772999630
21061003 4 16917073290721767842
21119208 17 18040150716887768294
23402539 116 18341603802732363373
23552423 10 18188769594927777929
23559900 14 18272084964654183674
6333449 129 18342737412152825277

>  <PUBCHEM_SHAPE_MULTIPOLES>  (1) 
200.81
6.36
1.21
0.72
6.86
0.01
-0.01
0.11
0.72
-1.04
-0.01
0.06
0
-0.01

>  <PUBCHEM_SHAPE_SELFOVERLAP>  (1) 
407.007

>  <PUBCHEM_SHAPE_VOLUME>  (1) 
115

>  <PUBCHEM_COORDINATE_TYPE>  (1) 
2
5
10

$$$$
