1258
     RDKit          2D

 23 26  0  0  1  0  0  0  0  0999 V2000
    0.0000    0.0000    0.0000 O   0  0  0  0  0  0  0  0  0  0  0  0
    0.0000    0.0000    0.0000 O   0  0  0  0  0  0  0  0  0  0  0  0
    0.0000    0.0000    0.0000 O   0  0  0  0  0  0  0  0  0  0  0  0
    0.0000    0.0000    0.0000 O   0  0  0  0  0  0  0  0  0  0  0  0
    0.0000    0.0000    0.0000 O   0  0  0  0  0  0  0  0  0  0  0  0
    0.0000    0.0000    0.0000 N   0  0  0  0  0  0  0  0  0  0  0  0
    0.0000    0.0000    0.0000 C   0  0  0  0  0  0  0  0  0  0  0  0
    0.0000    0.0000    0.0000 C   0  0  0  0  0  0  0  0  0  0  0  0
    0.0000    0.0000    0.0000 C   0  0  0  0  0  0  0  0  0  0  0  0
    0.0000    0.0000    0.0000 C   0  0  0  0  0  0  0  0  0  0  0  0
    0.0000    0.0000    0.0000 C   0  0  0  0  0  0  0  0  0  0  0  0
    0.0000    0.0000    0.0000 C   0  0  0  0  0  0  0  0  0  0  0  0
    0.0000    0.0000    0.0000 C   0  0  0  0  0  0  0  0  0  0  0  0
    0.0000    0.0000    0.0000 C   0  0  0  0  0  0  0  0  0  0  0  0
    0.0000    0.0000    0.0000 C   0  0  0  0  0  0  0  0  0  0  0  0
    0.0000    0.0000    0.0000 C   0  0  0  0  0  0  0  0  0  0  0  0
    0.0000    0.0000    0.0000 C   0  0  0  0  0  0  0  0  0  0  0  0
    0.0000    0.0000    0.0000 C   0  0  0  0  0  0  0  0  0  0  0  0
    0.0000    0.0000    0.0000 C   0  0  0  0  0  0  0  0  0  0  0  0
    0.0000    0.0000    0.0000 C   0  0  0  0  0  0  0  0  0  0  0  0
    0.0000    0.0000    0.0000 C   0  0  0  0  0  0  0  0  0  0  0  0
    0.0000    0.0000    0.0000 C   0  0  0  0  0  0  0  0  0  0  0  0
    0.0000    0.0000    0.0000 C   0  0  0  0  0  0  0  0  0  0  0  0
  1  7  1  0
  1  8  1  0
  2  6  1  0
  3 13  1  0
  3 15  1  0
  4 15  2  0
  5 17  1  0
  6  9  1  0
  6 10  1  0
  6 14  1  0
  7  8  1  0
  7  9  1  0
  8 10  1  0
  9 11  1  0
 10 12  1  0
 11 13  1  0
 12 13  1  0
 15 16  1  0
 16 17  1  0
 16 18  1  0
 18 19  2  0
 18 20  1  0
 19 21  1  0
 20 22  2  0
 21 23  2  0
 22 23  1  0
M  CHG  2   2  -1   6   1
M  END
>  <PUBCHEM_COMPOUND_CID>  (1) 
1258

>  <PUBCHEM_CONFORMER_RMSD>  (1) 
0.8

>  <PUBCHEM_CONFORMER_DIVERSEORDER>  (1) 
20
54
187
27
149
175
171
44
146
159
30
85
193
155
32
10
189
140
194
129
19
192
147
67
182
22
82
157
70
173
95
97
163
188
11
148
31
57
89
178
184
135
71
91
98
99
139
168
84
76
170
90
122
169
153
150
162
12
80
75
125
104
63
156
123
167
38
132
6
40
185
152
8
74
14
151
42
174
165
164
45
1
53
26
117
79
64
191
72
141
154
18
92
130
183
121
120
48
134
43
73
102
131
113
181
15
87
4
47
124
100
78
111
115
106
180
172
56
7
160
77
69
166
190
25
142
112
34
16
23
105
176
107
35
39
51
109
36
50
93
144
28
103
33
60
136
127
24
133
58
128
49
177
145
9
96
158
186
52
101
114
55
110
137
59
81
118
29
86
46
179
143
108
17
88
3
41
119
126
65
68
116
37
161
5
138
83
13
66
94
62
61
2
21

>  <PUBCHEM_MMFF94_PARTIAL_CHARGES>  (1) 
29
1 -0.3
10 0.35
13 0.28
14 0.26
15 0.66
16 0.2
17 0.28
18 -0.14
19 -0.15
2 -0.75
20 -0.15
21 -0.15
22 -0.15
23 -0.15
24 0.1
25 0.1
3 -0.43
39 0.15
4 -0.57
40 0.15
41 0.4
42 0.15
43 0.15
44 0.15
5 -0.68
6 -0.02
7 -0.05
8 -0.05
9 0.35

>  <PUBCHEM_EFFECTIVE_ROTOR_COUNT>  (1) 
6

>  <PUBCHEM_PHARMACOPHORE_FEATURES>  (1) 
8
1 1 acceptor
1 2 anion
1 4 acceptor
1 5 acceptor
1 5 donor
6 1 6 7 8 9 10 rings
6 18 19 20 21 22 23 rings
8 6 7 8 9 10 11 12 13 rings

>  <PUBCHEM_HEAVY_ATOM_COUNT>  (1) 
23

>  <PUBCHEM_ATOM_DEF_STEREO_COUNT>  (1) 
0

>  <PUBCHEM_ATOM_UDEF_STEREO_COUNT>  (1) 
5

>  <PUBCHEM_BOND_DEF_STEREO_COUNT>  (1) 
0

>  <PUBCHEM_BOND_UDEF_STEREO_COUNT>  (1) 
0

>  <PUBCHEM_ISOTOPIC_ATOM_COUNT>  (1) 
0

>  <PUBCHEM_COMPONENT_COUNT>  (1) 
1

>  <PUBCHEM_CACTVS_TAUTO_COUNT>  (1) 
1

$$$$
