1259
     RDKit          3D

 43 45  0  0  1  0  0  0  0  0999 V2000
   -4.4622    0.8474    1.8203 S   0  0  0  0  0  0  0  0  0  0  0  0
   -1.5602    2.7281    0.1641 O   0  0  0  0  0  0  0  0  0  0  0  0
   -4.2187    2.2514    2.0958 O   0  0  0  0  0  0  0  0  0  0  0  0
   -4.6747   -0.0701    2.9245 O   0  0  0  0  0  0  0  0  0  0  0  0
    2.4428   -0.1020    1.5603 O   0  0  0  0  0  0  0  0  0  0  0  0
    6.5893    2.6372   -0.2462 O   0  0  0  0  0  0  0  0  0  0  0  0
    4.2067   -1.8680   -1.5835 O   0  0  0  0  0  0  0  0  0  0  0  0
   -3.2126    0.2396    0.7968 N   0  0  0  0  0  0  0  0  0  0  0  0
    0.7661   -0.1129   -0.0499 N   0  0  0  0  0  0  0  0  0  0  0  0
    3.4485   -2.4246    0.5394 N   0  0  0  0  0  0  0  0  0  0  0  0
   -9.2812    0.5387   -1.6923 N   0  0  0  0  0  0  0  0  0  0  0  0
    0.3488    1.2823    0.0853 C   0  0  0  0  0  0  0  0  0  0  0  0
   -1.1747    1.3636    0.0252 C   0  0  0  0  0  0  0  0  0  0  0  0
   -1.8092    0.5584    1.1521 C   0  0  0  0  0  0  0  0  0  0  0  0
    0.9791    2.1536   -1.0181 C   0  0  0  0  0  0  0  0  0  0  0  0
   -3.3566   -1.1460    0.2794 C   0  0  0  0  0  0  0  0  0  0  0  0
   -3.3886   -1.1455   -1.2471 C   0  0  0  0  0  0  0  0  0  0  0  0
    2.0424   -2.1331    0.3053 C   0  0  0  0  0  0  0  0  0  0  0  0
   -3.5594   -2.5333   -1.8971 C   0  0  0  0  0  0  0  0  0  0  0  0
    1.1450   -3.0420    1.1320 C   0  0  0  0  0  0  0  0  0  0  0  0
    1.8044   -0.6760    0.6804 C   0  0  0  0  0  0  0  0  0  0  0  0
    2.4752    2.2932   -0.8753 C   0  0  0  0  0  0  0  0  0  0  0  0
   -5.8920    0.7563    0.7790 C   0  0  0  0  0  0  0  0  0  0  0  0
   -2.3968   -3.4418   -1.4873 C   0  0  0  0  0  0  0  0  0  0  0  0
   -3.6406   -2.4576   -3.4224 C   0  0  0  0  0  0  0  0  0  0  0  0
    1.3480   -4.5062    0.7412 C   0  0  0  0  0  0  0  0  0  0  0  0
    1.4059   -2.8490    2.6262 C   0  0  0  0  0  0  0  0  0  0  0  0
    3.0169    3.1583    0.0804 C   0  0  0  0  0  0  0  0  0  0  0  0
    3.3441    1.5351   -1.6688 C   0  0  0  0  0  0  0  0  0  0  0  0
    4.4178   -2.2575   -0.4366 C   0  0  0  0  0  0  0  0  0  0  0  0
    5.8089   -2.6371    0.0345 C   0  0  0  0  0  0  0  0  0  0  0  0
    6.8237   -1.5238   -0.2242 C   0  0  0  0  0  0  0  0  0  0  0  0
   -6.8924   -0.1776    1.0482 C   0  0  0  0  0  0  0  0  0  0  0  0
   -6.0169    1.6179   -0.3108 C   0  0  0  0  0  0  0  0  0  0  0  0
    6.7256   -0.4017    0.8154 C   0  0  0  0  0  0  0  0  0  0  0  0
    4.3993    3.2464    0.2476 C   0  0  0  0  0  0  0  0  0  0  0  0
    4.7302    1.6216   -1.4986 C   0  0  0  0  0  0  0  0  0  0  0  0
    5.2643    2.4643   -0.5253 C   0  0  0  0  0  0  0  0  0  0  0  0
    7.7810    0.6903    0.6052 C   0  0  0  0  0  0  0  0  0  0  0  0
    7.5259    1.6145   -0.5885 C   0  0  0  0  0  0  0  0  0  0  0  0
   -8.0179   -0.2499    0.2275 C   0  0  0  0  0  0  0  0  0  0  0  0
   -7.1424    1.5456   -1.1314 C   0  0  0  0  0  0  0  0  0  0  0  0
   -8.1430    0.6117   -0.8623 C   0  0  0  0  0  0  0  0  0  0  0  0
  1  3  2  0
  1  4  2  0
  1  8  1  0
  1 23  1  0
  2 13  1  0
  5 21  2  0
  6 38  1  0
  6 40  1  0
  7 30  2  0
  8 14  1  0
  8 16  1  0
  9 12  1  0
  9 21  1  0
 10 18  1  0
 10 30  1  0
 11 43  1  0
 12 13  1  0
 12 15  1  0
 13 14  1  0
 15 22  1  0
 16 17  1  0
 17 19  1  0
 18 20  1  0
 18 21  1  0
 19 24  1  0
 19 25  1  0
 20 26  1  0
 20 27  1  0
 22 28  2  0
 22 29  1  0
 23 33  2  0
 23 34  1  0
 28 36  1  0
 29 37  2  0
 30 31  1  0
 31 32  1  0
 32 35  1  0
 33 41  1  0
 34 42  2  0
 35 39  1  0
 36 38  2  0
 37 38  1  0
 39 40  1  0
 41 43  2  0
 42 43  1  0
M  END
>  <PUBCHEM_COMPOUND_CID>  (1) 
1259

>  <PUBCHEM_CONFORMER_RMSD>  (1) 
1.6

>  <PUBCHEM_CONFORMER_DIVERSEORDER>  (1) 
1
69
74
83
93
100
35
16
118
82
95
5
79
84
9
89
14
78
86
27
64
70
91
120
23
85
101
48
63
33
61
56
18
68
122
105
21
96
77
94
108
98
13
99
106
119
57
92
116
117
25
62
8
71
38
115
66
80
58
44
103
107
7
30
67
81
52
111
110
51
42
34
59
97
53
10
28
87
114
72
65
36
31
112
50
17
26
49
43
102
15
32
4
76
3
104
20
54
24
90
47
60
113
22
29
6
73
109
12
39
19
75
88
55
11
2
41
37
46
40
121
45

>  <PUBCHEM_MMFF94_PARTIAL_CHARGES>  (1) 
46
1 1.45
10 -0.73
11 -0.9
12 0.3
13 0.28
14 0.36
15 0.14
16 0.36
18 0.36
2 -0.68
21 0.57
22 -0.14
23 -0.01
28 -0.15
29 -0.15
3 -0.65
30 0.57
31 0.06
33 -0.15
34 -0.15
36 -0.15
37 -0.15
38 0.08
4 -0.65
40 0.28
41 -0.15
42 -0.15
43 0.1
5 -0.57
52 0.37
58 0.4
59 0.37
6 -0.36
7 -0.57
72 0.15
73 0.15
78 0.15
79 0.15
8 -0.85
82 0.15
83 0.15
88 0.15
89 0.15
9 -0.73
90 0.4
91 0.4

>  <PUBCHEM_EFFECTIVE_ROTOR_COUNT>  (1) 
11.2

>  <PUBCHEM_PHARMACOPHORE_FEATURES>  (1) 
15
1 10 donor
1 11 cation
1 11 donor
1 2 acceptor
1 2 donor
1 3 acceptor
1 4 acceptor
1 5 acceptor
1 6 acceptor
1 7 acceptor
1 9 donor
3 19 24 25 hydrophobe
3 20 26 27 hydrophobe
6 22 28 29 36 37 38 rings
6 23 33 34 41 42 43 rings

>  <PUBCHEM_HEAVY_ATOM_COUNT>  (1) 
43

>  <PUBCHEM_ATOM_DEF_STEREO_COUNT>  (1) 
0

>  <PUBCHEM_ATOM_UDEF_STEREO_COUNT>  (1) 
3

>  <PUBCHEM_BOND_DEF_STEREO_COUNT>  (1) 
0

>  <PUBCHEM_BOND_UDEF_STEREO_COUNT>  (1) 
0

>  <PUBCHEM_ISOTOPIC_ATOM_COUNT>  (1) 
0

>  <PUBCHEM_COMPONENT_COUNT>  (1) 
1

>  <PUBCHEM_CACTVS_TAUTO_COUNT>  (1) 
4

>  <PUBCHEM_CONFORMER_ID>  (1) 
000004EB00000001

>  <PUBCHEM_MMFF94_ENERGY>  (1) 
105.4141

>  <PUBCHEM_FEATURE_SELFOVERLAP>  (1) 
76.143

>  <PUBCHEM_SHAPE_FINGERPRINT>  (1) 
11135926 11 18261380178900608663
11719270 70 18260831509798004888
12522641 33 18333735745565489684
13165053 68 18265895946661614503
13383668 40 16371552709909244491
13692114 37 18341048627207928434
13811026 1 18186524315074824153
14415360 78 18113328726555876027
14725015 67 18041275458197894232
15328829 1 18273211993456962711
15351334 14 17894897521951640111
16090146 7 17846508002460879683
16112460 7 18411702088455865290
20511986 3 18343015636155953637
21781055 127 16845025528787289571
3633792 109 18335983069891370793
4440575 13 18271518788663781119
6086070 43 17274820323851863337

>  <PUBCHEM_SHAPE_MULTIPOLES>  (1) 
833.63
23.19
4.56
2.13
17.48
2.54
-0.22
-8.38
-3.26
-5.22
-0.39
2.92
1.18
-2.66

>  <PUBCHEM_SHAPE_SELFOVERLAP>  (1) 
1694.931

>  <PUBCHEM_SHAPE_VOLUME>  (1) 
485.2

>  <PUBCHEM_COORDINATE_TYPE>  (1) 
2
5
10

$$$$
