12619
     RDKit          3D

  8  7  0  0  0  0  0  0  0  0999 V2000
    4.2818   -0.2772    0.0019 F   0  0  0  0  0  0  0  0  0  0  0  0
   -0.6076   -0.4647   -0.0093 C   0  0  0  0  0  0  0  0  0  0  0  0
    0.6331    0.4306    0.0177 C   0  0  0  0  0  0  0  0  0  0  0  0
   -1.8920    0.3674    0.0009 C   0  0  0  0  0  0  0  0  0  0  0  0
    1.9450   -0.3531   -0.0055 C   0  0  0  0  0  0  0  0  0  0  0  0
   -3.1324   -0.5256    0.0126 C   0  0  0  0  0  0  0  0  0  0  0  0
    3.1833    0.5263   -0.0071 C   0  0  0  0  0  0  0  0  0  0  0  0
   -4.4112    0.2965   -0.0112 C   0  0  0  0  0  0  0  0  0  0  0  0
  1  7  1  0
  2  3  1  0
  2  4  1  0
  3  5  1  0
  4  6  1  0
  5  7  1  0
  6  8  1  0
M  END
>  <PUBCHEM_COMPOUND_CID>  (1) 
12619

>  <PUBCHEM_CONFORMER_RMSD>  (1) 
0.6

>  <PUBCHEM_CONFORMER_DIVERSEORDER>  (1) 
1
61
15
66
4
39
69
62
2
58
45
70
53
5
24
73
63
28
40
3
52
74
59
37
21
41
36
23
32
38
31
17
19
67
50
33
64
49
13
60
68
8
35
26
48
57
65
72
7
30
18
71
6
29
16
42
47
12
55
46
27
20
54
51
25
56
22
34
44
43
14
11
10
9

>  <PUBCHEM_MMFF94_PARTIAL_CHARGES>  (1) 
2
1 -0.34
7 0.34

>  <PUBCHEM_EFFECTIVE_ROTOR_COUNT>  (1) 
5

>  <PUBCHEM_PHARMACOPHORE_FEATURES>  (1) 
2
1 8 hydrophobe
5 2 3 4 5 6 hydrophobe

>  <PUBCHEM_HEAVY_ATOM_COUNT>  (1) 
8

>  <PUBCHEM_ATOM_DEF_STEREO_COUNT>  (1) 
0

>  <PUBCHEM_ATOM_UDEF_STEREO_COUNT>  (1) 
0

>  <PUBCHEM_BOND_DEF_STEREO_COUNT>  (1) 
0

>  <PUBCHEM_BOND_UDEF_STEREO_COUNT>  (1) 
0

>  <PUBCHEM_ISOTOPIC_ATOM_COUNT>  (1) 
0

>  <PUBCHEM_COMPONENT_COUNT>  (1) 
1

>  <PUBCHEM_CACTVS_TAUTO_COUNT>  (1) 
1

>  <PUBCHEM_CONFORMER_ID>  (1) 
0000314B00000001

>  <PUBCHEM_MMFF94_ENERGY>  (1) 
-3.2503

>  <PUBCHEM_FEATURE_SELFOVERLAP>  (1) 
10.149

>  <PUBCHEM_SHAPE_FINGERPRINT>  (1) 
11062470 55 18412826893251341065
14325111 11 18410575093474657027
190213 19 14692574333632305117
20645477 70 18200594679234138735
20719005 15 18410575093516829059
22485316 2 18412822495025709271
23402539 116 17346873434382024149
5460574 1 9223234043855803875

>  <PUBCHEM_SHAPE_MULTIPOLES>  (1) 
157.36
8.33
0.78
0.6
0.12
0.01
0
0.27
-0.02
-0.05
0
-0.06
0
0

>  <PUBCHEM_SHAPE_SELFOVERLAP>  (1) 
272.323

>  <PUBCHEM_SHAPE_VOLUME>  (1) 
105.1

>  <PUBCHEM_COORDINATE_TYPE>  (1) 
2
5
10

$$$$
