12615
     RDKit          3D

  8  7  0  0  0  0  0  0  0  0999 V2000
    1.5125    0.1077    0.0451 S   0  0  0  0  0  0  0  0  0  0  0  0
    2.6426   -0.8826   -0.4698 F   0  0  0  0  0  0  0  0  0  0  0  0
    1.5789    1.2573   -0.8368 O   0  0  0  0  0  0  0  0  0  0  0  0
    1.7319    0.2307    1.4735 O   0  0  0  0  0  0  0  0  0  0  0  0
   -1.2032    0.1846    0.0637 C   0  0  0  0  0  0  0  0  0  0  0  0
   -0.0193   -0.7257   -0.2238 C   0  0  0  0  0  0  0  0  0  0  0  0
   -2.5282   -0.5445   -0.1503 C   0  0  0  0  0  0  0  0  0  0  0  0
   -3.7152    0.3724    0.0983 C   0  0  0  0  0  0  0  0  0  0  0  0
  1  2  1  0
  1  3  2  0
  1  4  2  0
  1  6  1  0
  5  6  1  0
  5  7  1  0
  7  8  1  0
M  END
>  <PUBCHEM_COMPOUND_CID>  (1) 
12615

>  <PUBCHEM_CONFORMER_RMSD>  (1) 
0.6

>  <PUBCHEM_CONFORMER_DIVERSEORDER>  (1) 
1
13
18
11
12
2
17
3
19
15
10
21
9
16
7
14
5
20
8
4
6

>  <PUBCHEM_MMFF94_PARTIAL_CHARGES>  (1) 
5
1 1.39
2 -0.2
3 -0.65
4 -0.65
6 0.11

>  <PUBCHEM_EFFECTIVE_ROTOR_COUNT>  (1) 
3

>  <PUBCHEM_PHARMACOPHORE_FEATURES>  (1) 
1
1 8 hydrophobe

>  <PUBCHEM_HEAVY_ATOM_COUNT>  (1) 
8

>  <PUBCHEM_ATOM_DEF_STEREO_COUNT>  (1) 
0

>  <PUBCHEM_ATOM_UDEF_STEREO_COUNT>  (1) 
0

>  <PUBCHEM_BOND_DEF_STEREO_COUNT>  (1) 
0

>  <PUBCHEM_BOND_UDEF_STEREO_COUNT>  (1) 
0

>  <PUBCHEM_ISOTOPIC_ATOM_COUNT>  (1) 
0

>  <PUBCHEM_COMPONENT_COUNT>  (1) 
1

>  <PUBCHEM_CACTVS_TAUTO_COUNT>  (1) 
1

>  <PUBCHEM_CONFORMER_ID>  (1) 
0000314700000001

>  <PUBCHEM_MMFF94_ENERGY>  (1) 
-1.4319

>  <PUBCHEM_FEATURE_SELFOVERLAP>  (1) 
5.074

>  <PUBCHEM_SHAPE_FINGERPRINT>  (1) 
12932764 1 16877937261342986983
14325111 11 18342458166512126111
14390081 3 17632573855895218369
170605 34 17751084810810119988
21040471 1 18201154476475420271
29004967 10 14056715751272440495
3248919 1 18337102462595361359
5084963 1 18342178843002722875
5460574 1 9439406830702443887

>  <PUBCHEM_SHAPE_MULTIPOLES>  (1) 
149.47
5.06
0.96
0.9
3.65
0
0.18
-0.22
0.02
-0.26
-0.14
-0.53
-0.18
-0.02

>  <PUBCHEM_SHAPE_SELFOVERLAP>  (1) 
259.095

>  <PUBCHEM_SHAPE_VOLUME>  (1) 
99.3

>  <PUBCHEM_COORDINATE_TYPE>  (1) 
2
5
10

$$$$
