12614
     RDKit          3D

  8  9  0  0  1  0  0  0  0  0999 V2000
    1.0957    0.7712   -0.3860 C   0  0  0  0  0  0  0  0  0  0  0  0
    1.0907   -0.7326   -0.4584 C   0  0  0  0  0  0  0  0  0  0  0  0
    2.2254   -0.0129    0.2247 C   0  0  0  0  0  0  0  0  0  0  0  0
    0.0852    1.4642    0.4715 C   0  0  0  0  0  0  0  0  0  0  0  0
    0.1013   -1.5228    0.3441 C   0  0  0  0  0  0  0  0  0  0  0  0
   -1.3258    1.3288   -0.1042 C   0  0  0  0  0  0  0  0  0  0  0  0
   -1.3458   -1.2442    0.0569 C   0  0  0  0  0  0  0  0  0  0  0  0
   -1.9267   -0.0516   -0.1486 C   0  0  0  0  0  0  0  0  0  0  0  0
  1  2  1  0
  1  3  1  0
  1  4  1  0
  2  3  1  0
  2  5  1  0
  4  6  1  0
  5  7  1  0
  6  8  1  0
  7  8  2  0
M  END
>  <PUBCHEM_COMPOUND_CID>  (1) 
12614

>  <PUBCHEM_CONFORMER_RMSD>  (1) 
0.4

>  <PUBCHEM_CONFORMER_DIVERSEORDER>  (1) 
1
2
4
3

>  <PUBCHEM_MMFF94_PARTIAL_CHARGES>  (1) 
14
1 -0.19
10 0.1
11 0.1
12 0.1
19 0.15
2 -0.19
20 0.15
3 -0.2
4 0.09
5 0.23
6 0.14
7 -0.29
8 -0.29
9 0.1

>  <PUBCHEM_EFFECTIVE_ROTOR_COUNT>  (1) 
0.8

>  <PUBCHEM_PHARMACOPHORE_FEATURES>  (1) 
1
7 1 2 4 5 6 7 8 rings

>  <PUBCHEM_HEAVY_ATOM_COUNT>  (1) 
8

>  <PUBCHEM_ATOM_DEF_STEREO_COUNT>  (1) 
0

>  <PUBCHEM_ATOM_UDEF_STEREO_COUNT>  (1) 
2

>  <PUBCHEM_BOND_DEF_STEREO_COUNT>  (1) 
0

>  <PUBCHEM_BOND_UDEF_STEREO_COUNT>  (1) 
0

>  <PUBCHEM_ISOTOPIC_ATOM_COUNT>  (1) 
0

>  <PUBCHEM_COMPONENT_COUNT>  (1) 
1

>  <PUBCHEM_CACTVS_TAUTO_COUNT>  (1) 
1

>  <PUBCHEM_CONFORMER_ID>  (1) 
0000314600000001

>  <PUBCHEM_MMFF94_ENERGY>  (1) 
12.7246

>  <PUBCHEM_FEATURE_SELFOVERLAP>  (1) 
5.074

>  <PUBCHEM_SHAPE_FINGERPRINT>  (1) 
12423570 1 9844299869932686052
16945 1 18410012139015180966
18185500 45 18193555567037553675
21040471 1 18265900146426765244
23235685 24 18410291367750583933
23552423 10 18261399905801644782
241688 4 17905333918243550346
29004967 10 16988849379844749212
5084963 1 18342740727730421282

>  <PUBCHEM_SHAPE_MULTIPOLES>  (1) 
164.64
2.45
1.73
0.71
0.21
0.01
0
-0.02
-0.07
-0.35
0.15
0.06
0.01
0.04

>  <PUBCHEM_SHAPE_SELFOVERLAP>  (1) 
330.784

>  <PUBCHEM_SHAPE_VOLUME>  (1) 
95.1

>  <PUBCHEM_COORDINATE_TYPE>  (1) 
2
5
10

$$$$
