12611
     RDKit          3D

 13 13  0  0  0  0  0  0  0  0999 V2000
   -0.0474    3.5784    0.0002 F   0  0  0  0  0  0  0  0  0  0  0  0
    2.3453   -0.3859    0.0108 N   0  0  0  0  0  0  0  0  0  0  0  0
   -2.3437   -0.4428   -0.0109 N   0  0  0  0  0  0  0  0  0  0  0  0
    0.0012   -0.4460    0.0002 N   0  0  0  0  0  0  0  0  0  0  0  0
   -1.2237    1.6174   -0.0055 N   0  0  0  0  0  0  0  0  0  0  0  0
    1.1757    1.6464    0.0053 N   0  0  0  0  0  0  0  0  0  0  0  0
    2.4452   -1.8401    0.0113 C   0  0  0  0  0  0  0  0  0  0  0  0
   -2.3973   -1.8713   -0.0112 C   0  0  0  0  0  0  0  0  0  0  0  0
    1.1436    0.2886    0.0054 C   0  0  0  0  0  0  0  0  0  0  0  0
   -1.1298    0.2779   -0.0051 C   0  0  0  0  0  0  0  0  0  0  0  0
    3.8958   -2.2907   -0.0170 C   0  0  0  0  0  0  0  0  0  0  0  0
   -3.8333   -2.3668    0.0168 C   0  0  0  0  0  0  0  0  0  0  0  0
   -0.0314    2.2348   -0.0003 C   0  0  0  0  0  0  0  0  0  0  0  0
  1 13  1  0
  2  7  1  0
  2  9  1  0
  3  8  1  0
  3 10  1  0
  4  9  2  0
  4 10  1  0
  5 10  2  0
  5 13  1  0
  6  9  1  0
  6 13  2  0
  7 11  1  0
  8 12  1  0
M  END
>  <PUBCHEM_COMPOUND_CID>  (1) 
12611

>  <PUBCHEM_CONFORMER_RMSD>  (1) 
0.6

>  <PUBCHEM_CONFORMER_DIVERSEORDER>  (1) 
1
8
10
2
12
13
15
4
16
14
3
9
11
7
6
5

>  <PUBCHEM_MMFF94_PARTIAL_CHARGES>  (1) 
13
1 -0.19
10 0.72
13 0.81
18 0.4
19 0.4
2 -0.87
3 -0.87
4 -0.62
5 -0.62
6 -0.62
7 0.37
8 0.37
9 0.72

>  <PUBCHEM_EFFECTIVE_ROTOR_COUNT>  (1) 
4

>  <PUBCHEM_PHARMACOPHORE_FEATURES>  (1) 
5
1 2 donor
1 3 donor
4 2 4 6 9 cation
4 3 4 5 10 cation
6 4 5 6 9 10 13 rings

>  <PUBCHEM_HEAVY_ATOM_COUNT>  (1) 
13

>  <PUBCHEM_ATOM_DEF_STEREO_COUNT>  (1) 
0

>  <PUBCHEM_ATOM_UDEF_STEREO_COUNT>  (1) 
0

>  <PUBCHEM_BOND_DEF_STEREO_COUNT>  (1) 
0

>  <PUBCHEM_BOND_UDEF_STEREO_COUNT>  (1) 
0

>  <PUBCHEM_ISOTOPIC_ATOM_COUNT>  (1) 
0

>  <PUBCHEM_COMPONENT_COUNT>  (1) 
1

>  <PUBCHEM_CACTVS_TAUTO_COUNT>  (1) 
5

>  <PUBCHEM_CONFORMER_ID>  (1) 
0000314300000001

>  <PUBCHEM_MMFF94_ENERGY>  (1) 
27.1796

>  <PUBCHEM_FEATURE_SELFOVERLAP>  (1) 
25.414

>  <PUBCHEM_SHAPE_FINGERPRINT>  (1) 
1 1 17762055849432503893
15442244 35 18412550937887861203
19021347 4 17546729253053386057
20524608 308 17907297650532780082
20645476 183 17397575016441925062
20645477 70 18047740792322276983
20871998 184 18057599876390173966
20871998 22 18411416249750164490
21665056 4 17473263176125697358
23402539 116 17981874260101525053
23530152 11 17112696445272812757
23559900 14 17622437243989398466
257057 1 18410851062081663695
2748010 2 18340192055477117948
54173680 148 18266458711186805347
7364860 26 18123469650730238603
81228 2 18195234534104463569

>  <PUBCHEM_SHAPE_MULTIPOLES>  (1) 
235.36
5.36
3.66
0.57
0.23
2.07
0
-7.23
0
-0.12
0
0
-0.05
0.02

>  <PUBCHEM_SHAPE_SELFOVERLAP>  (1) 
466.475

>  <PUBCHEM_SHAPE_VOLUME>  (1) 
139.3

>  <PUBCHEM_COORDINATE_TYPE>  (1) 
2
5
10

$$$$
