12625
     RDKit          3D

 10  9  0  0  1  0  0  0  0  0999 V2000
    2.9617   -0.6312    0.2332 Br  0  0  0  0  0  0  0  0  0  0  0  0
    1.4624    1.9617   -0.1504 Cl  0  0  0  0  0  0  0  0  0  0  0  0
    0.1229   -1.7173    0.3846 F   0  0  0  0  0  0  0  0  0  0  0  0
    0.3425   -0.5836   -1.4637 F   0  0  0  0  0  0  0  0  0  0  0  0
   -1.3278    1.3791   -0.4143 F   0  0  0  0  0  0  0  0  0  0  0  0
   -2.2118   -0.6148   -0.4780 F   0  0  0  0  0  0  0  0  0  0  0  0
   -1.5165    0.2048    1.4140 F   0  0  0  0  0  0  0  0  0  0  0  0
    0.1338   -0.4544   -0.1278 C   0  0  0  0  0  0  0  0  0  0  0  0
   -1.2431    0.1299    0.0918 C   0  0  0  0  0  0  0  0  0  0  0  0
    1.2760    0.3258    0.5104 C   0  0  0  0  0  0  0  0  0  0  0  0
  1 10  1  0
  2 10  1  0
  3  8  1  0
  4  8  1  0
  5  9  1  0
  6  9  1  0
  7  9  1  0
  8  9  1  0
  8 10  1  0
M  END
>  <PUBCHEM_COMPOUND_CID>  (1) 
12625

>  <PUBCHEM_CONFORMER_RMSD>  (1) 
0.4

>  <PUBCHEM_CONFORMER_DIVERSEORDER>  (1) 
1
5
4
2
3
6

>  <PUBCHEM_MMFF94_PARTIAL_CHARGES>  (1) 
10
1 -0.23
10 0.52
2 -0.29
3 -0.34
4 -0.34
5 -0.34
6 -0.34
7 -0.34
8 0.68
9 1.02

>  <PUBCHEM_EFFECTIVE_ROTOR_COUNT>  (1) 
2

>  <PUBCHEM_PHARMACOPHORE_FEATURES>  (1) 
1
1 1 hydrophobe

>  <PUBCHEM_HEAVY_ATOM_COUNT>  (1) 
10

>  <PUBCHEM_ATOM_DEF_STEREO_COUNT>  (1) 
0

>  <PUBCHEM_ATOM_UDEF_STEREO_COUNT>  (1) 
1

>  <PUBCHEM_BOND_DEF_STEREO_COUNT>  (1) 
0

>  <PUBCHEM_BOND_UDEF_STEREO_COUNT>  (1) 
0

>  <PUBCHEM_ISOTOPIC_ATOM_COUNT>  (1) 
0

>  <PUBCHEM_COMPONENT_COUNT>  (1) 
1

>  <PUBCHEM_CACTVS_TAUTO_COUNT>  (1) 
1

>  <PUBCHEM_CONFORMER_ID>  (1) 
0000315100000001

>  <PUBCHEM_MMFF94_ENERGY>  (1) 
5.0165

>  <PUBCHEM_FEATURE_SELFOVERLAP>  (1) 
5.074

>  <PUBCHEM_SHAPE_FINGERPRINT>  (1) 
12423570 1 8558498867514913963
16945 1 18409446990196915570
21040471 1 18266173031585045368
23552423 10 18192423289347097006
24536 1 17130704964230548719
29004967 10 18260831454116144450
369184 2 18341885277909429906
5084963 1 18272644671105482224
68250623 7 18126565862584210558

>  <PUBCHEM_SHAPE_MULTIPOLES>  (1) 
177.24
3.13
1.58
0.97
1.1
0.59
-0.01
-0.37
0.24
0.5
-0.08
-0.18
-0.07
-0.08

>  <PUBCHEM_SHAPE_SELFOVERLAP>  (1) 
328.384

>  <PUBCHEM_SHAPE_VOLUME>  (1) 
115.7

>  <PUBCHEM_COORDINATE_TYPE>  (1) 
2
5
10

$$$$
