12624
     RDKit          3D

  9  8  0  0  0  0  0  0  0  0999 V2000
    2.1153    1.2590    0.0263 Cl  0  0  0  0  0  0  0  0  0  0  0  0
    1.3534   -1.1064   -1.4798 Cl  0  0  0  0  0  0  0  0  0  0  0  0
    1.3638   -1.1843    1.4250 Cl  0  0  0  0  0  0  0  0  0  0  0  0
   -0.6913    1.0787   -1.0731 F   0  0  0  0  0  0  0  0  0  0  0  0
   -0.6936    1.0431    1.1121 F   0  0  0  0  0  0  0  0  0  0  0  0
   -1.3331   -0.8130   -0.0121 O   0  0  0  0  0  0  0  0  0  0  0  0
   -0.4380    0.2957    0.0073 C   0  0  0  0  0  0  0  0  0  0  0  0
    1.0206   -0.1562    0.0014 C   0  0  0  0  0  0  0  0  0  0  0  0
   -2.6971   -0.4167   -0.0070 C   0  0  0  0  0  0  0  0  0  0  0  0
  1  8  1  0
  2  8  1  0
  3  8  1  0
  4  7  1  0
  5  7  1  0
  6  7  1  0
  6  9  1  0
  7  8  1  0
M  END
>  <PUBCHEM_COMPOUND_CID>  (1) 
12624

>  <PUBCHEM_CONFORMER_RMSD>  (1) 
0.4

>  <PUBCHEM_CONFORMER_DIVERSEORDER>  (1) 
1

>  <PUBCHEM_MMFF94_PARTIAL_CHARGES>  (1) 
9
1 -0.29
2 -0.29
3 -0.29
4 -0.34
5 -0.34
6 -0.56
7 0.96
8 0.87
9 0.28

>  <PUBCHEM_EFFECTIVE_ROTOR_COUNT>  (1) 
2

>  <PUBCHEM_PHARMACOPHORE_FEATURES>  (1) 
1
1 6 acceptor

>  <PUBCHEM_HEAVY_ATOM_COUNT>  (1) 
9

>  <PUBCHEM_ATOM_DEF_STEREO_COUNT>  (1) 
0

>  <PUBCHEM_ATOM_UDEF_STEREO_COUNT>  (1) 
0

>  <PUBCHEM_BOND_DEF_STEREO_COUNT>  (1) 
0

>  <PUBCHEM_BOND_UDEF_STEREO_COUNT>  (1) 
0

>  <PUBCHEM_ISOTOPIC_ATOM_COUNT>  (1) 
0

>  <PUBCHEM_COMPONENT_COUNT>  (1) 
1

>  <PUBCHEM_CACTVS_TAUTO_COUNT>  (1) 
1

>  <PUBCHEM_CONFORMER_ID>  (1) 
0000315000000001

>  <PUBCHEM_MMFF94_ENERGY>  (1) 
9.2198

>  <PUBCHEM_FEATURE_SELFOVERLAP>  (1) 
5.074

>  <PUBCHEM_SHAPE_FINGERPRINT>  (1) 
12423570 1 15870816216616388182
137420 1 14371769486931263714
20711978 78 16629959910935970990
21040471 1 17313675973929763090
23552333 60 18408319986398913251
23552423 10 18058746705530023631
23552449 11 18408878525378892171
24536 1 17987791887321234272
29004967 10 17846221093690344411
5084963 1 18335702792925445500
5943 1 8023848793289196302

>  <PUBCHEM_SHAPE_MULTIPOLES>  (1) 
170.41
2.9
1.41
1.34
1.53
0.07
0.05
-0.04
-0.01
-0.59
-0.04
-0.56
-0.42
0

>  <PUBCHEM_SHAPE_SELFOVERLAP>  (1) 
299.184

>  <PUBCHEM_SHAPE_VOLUME>  (1) 
113.8

>  <PUBCHEM_COORDINATE_TYPE>  (1) 
2
5
10

$$$$
