12638
     RDKit          3D

  7  7  0  0  0  0  0  0  0  0999 V2000
   -1.3724    0.7266    0.0607 O   0  0  0  0  0  0  0  0  0  0  0  0
   -0.4743   -1.3818   -0.0897 O   0  0  0  0  0  0  0  0  0  0  0  0
    0.8644    0.5119    0.1003 N   0  0  0  0  0  0  0  0  0  0  0  0
    2.0328   -0.0718    0.6904 C   0  0  0  0  0  0  0  0  0  0  0  0
    1.9748    0.2175   -0.7567 C   0  0  0  0  0  0  0  0  0  0  0  0
   -0.3384   -0.1664    0.0135 C   0  0  0  0  0  0  0  0  0  0  0  0
   -2.6869    0.1640   -0.0185 C   0  0  0  0  0  0  0  0  0  0  0  0
  1  6  1  0
  1  7  1  0
  2  6  2  0
  3  4  1  0
  3  5  1  0
  3  6  1  0
  4  5  1  0
M  END
>  <PUBCHEM_COMPOUND_CID>  (1) 
12638

>  <PUBCHEM_CONFORMER_RMSD>  (1) 
0.4

>  <PUBCHEM_CONFORMER_DIVERSEORDER>  (1) 
1
2
4
3

>  <PUBCHEM_MMFF94_PARTIAL_CHARGES>  (1) 
11
1 -0.43
10 0.1
11 0.1
2 -0.57
3 -0.36
4 -0.05
5 -0.05
6 0.78
7 0.28
8 0.1
9 0.1

>  <PUBCHEM_EFFECTIVE_ROTOR_COUNT>  (1) 
2.6

>  <PUBCHEM_PHARMACOPHORE_FEATURES>  (1) 
1
1 2 acceptor

>  <PUBCHEM_HEAVY_ATOM_COUNT>  (1) 
7

>  <PUBCHEM_ATOM_DEF_STEREO_COUNT>  (1) 
0

>  <PUBCHEM_ATOM_UDEF_STEREO_COUNT>  (1) 
0

>  <PUBCHEM_BOND_DEF_STEREO_COUNT>  (1) 
0

>  <PUBCHEM_BOND_UDEF_STEREO_COUNT>  (1) 
0

>  <PUBCHEM_ISOTOPIC_ATOM_COUNT>  (1) 
0

>  <PUBCHEM_COMPONENT_COUNT>  (1) 
1

>  <PUBCHEM_CACTVS_TAUTO_COUNT>  (1) 
1

>  <PUBCHEM_CONFORMER_ID>  (1) 
0000315E00000001

>  <PUBCHEM_MMFF94_ENERGY>  (1) 
21.5533

>  <PUBCHEM_FEATURE_SELFOVERLAP>  (1) 
5.074

>  <PUBCHEM_SHAPE_FINGERPRINT>  (1) 
14390081 3 17917426484907974545
16714656 1 18409173220322884277
20096714 4 18259989300886212132
21040471 1 18411981347176547754
24536 1 17775290507803272328
29004967 10 15339117956953072742
5460574 1 9223231849196217337

>  <PUBCHEM_SHAPE_MULTIPOLES>  (1) 
127.34
3.39
0.91
0.75
1.15
0.24
-0.02
-0.42
0.01
0.14
-0.03
-0.34
-0.01
-0.11

>  <PUBCHEM_SHAPE_SELFOVERLAP>  (1) 
243.356

>  <PUBCHEM_SHAPE_VOLUME>  (1) 
80

>  <PUBCHEM_COORDINATE_TYPE>  (1) 
2
5
10

$$$$
