12634
     RDKit          3D

 15 15  0  0  0  0  0  0  0  0999 V2000
   -0.0802   -0.0185    0.9425 O   0  0  0  0  0  0  0  0  0  0  0  0
    3.4764    0.0011   -0.1870 N   0  0  0  0  0  0  0  0  0  0  0  0
    2.3157   -0.0303    0.7967 C   0  0  0  0  0  0  0  0  0  0  0  0
    3.3710    1.2456   -1.0567 C   0  0  0  0  0  0  0  0  0  0  0  0
    4.7907    0.0280    0.5800 C   0  0  0  0  0  0  0  0  0  0  0  0
    3.4287   -1.2389   -1.0681 C   0  0  0  0  0  0  0  0  0  0  0  0
    1.0086   -0.0257    0.0288 C   0  0  0  0  0  0  0  0  0  0  0  0
   -1.3399   -0.0053    0.4028 C   0  0  0  0  0  0  0  0  0  0  0  0
   -1.9864   -1.2064    0.1269 C   0  0  0  0  0  0  0  0  0  0  0  0
   -1.9635    1.2095    0.1340 C   0  0  0  0  0  0  0  0  0  0  0  0
   -3.2681   -1.1928   -0.4232 C   0  0  0  0  0  0  0  0  0  0  0  0
   -3.2454    1.2231   -0.4159 C   0  0  0  0  0  0  0  0  0  0  0  0
   -1.3289   -2.5170    0.4096 C   0  0  0  0  0  0  0  0  0  0  0  0
   -1.2813    2.5057    0.4240 C   0  0  0  0  0  0  0  0  0  0  0  0
   -3.8975    0.0219   -0.6945 C   0  0  0  0  0  0  0  0  0  0  0  0
  1  7  1  0
  1  8  1  0
  2  3  1  0
  2  4  1  0
  2  5  1  0
  2  6  1  0
  3  7  1  0
  8  9  2  0
  8 10  1  0
  9 11  1  0
  9 13  1  0
 10 12  2  0
 10 14  1  0
 11 15  2  0
 12 15  1  0
M  CHG  1   2   1
M  END
>  <PUBCHEM_COMPOUND_CID>  (1) 
12634

>  <PUBCHEM_CONFORMER_RMSD>  (1) 
0.6

>  <PUBCHEM_CONFORMER_DIVERSEORDER>  (1) 
1
6
4
7
3
2
5

>  <PUBCHEM_MMFF94_PARTIAL_CHARGES>  (1) 
18
1 -0.36
10 -0.14
11 -0.15
12 -0.15
13 0.14
14 0.14
15 -0.15
2 -1.01
29 0.15
3 0.5
30 0.15
37 0.15
4 0.5
5 0.5
6 0.5
7 0.28
8 0.08
9 -0.14

>  <PUBCHEM_EFFECTIVE_ROTOR_COUNT>  (1) 
4

>  <PUBCHEM_PHARMACOPHORE_FEATURES>  (1) 
3
1 1 acceptor
1 2 cation
6 8 9 10 11 12 15 rings

>  <PUBCHEM_HEAVY_ATOM_COUNT>  (1) 
15

>  <PUBCHEM_ATOM_DEF_STEREO_COUNT>  (1) 
0

>  <PUBCHEM_ATOM_UDEF_STEREO_COUNT>  (1) 
0

>  <PUBCHEM_BOND_DEF_STEREO_COUNT>  (1) 
0

>  <PUBCHEM_BOND_UDEF_STEREO_COUNT>  (1) 
0

>  <PUBCHEM_ISOTOPIC_ATOM_COUNT>  (1) 
0

>  <PUBCHEM_COMPONENT_COUNT>  (1) 
1

>  <PUBCHEM_CACTVS_TAUTO_COUNT>  (1) 
1

>  <PUBCHEM_CONFORMER_ID>  (1) 
0000315A00000001

>  <PUBCHEM_MMFF94_ENERGY>  (1) 
57.9536

>  <PUBCHEM_FEATURE_SELFOVERLAP>  (1) 
15.223

>  <PUBCHEM_SHAPE_FINGERPRINT>  (1) 
12162725 195 18333454248649400516
12173636 292 18338513032686760725
13024252 1 11314026877350614963
15375358 24 18202559601260334074
15775835 57 17603864477158425309
17870717 6 18201453440944063118
18186145 218 18337675196125430990
187816 3 18410847768427238727
200 152 18335414690413010708
20279233 1 17917992793599576674
20300324 65 18413105073888097345
20510252 161 18343021060425381041
20645476 183 17894904140216908163
20645477 56 18410013221426392256
20645477 70 17131837517500831830
20871999 31 18410567427348333151
23402539 116 18339912762312054381
23557571 272 18202284689173188320
23559900 14 18271519824024802842
2748010 2 17905311176993156723
2838139 119 16299486320258258573
4028521 119 18335415738459072525
4175511 318 18040710355711593871
474 4 16951414393754529060
573450 72 18262222349157546178
58051976 100 18186522094519151074
58051976 378 18341894095646126174
67856867 119 18189048871498983228
93112 12 18409455773695036926
9709674 26 18343025484400243654
9971528 1 17822286869660135492

>  <PUBCHEM_SHAPE_MULTIPOLES>  (1) 
297.84
8.27
2.09
0.97
6.99
0
0.09
0
1.62
-1.4
-0.1
0.49
0
0.01

>  <PUBCHEM_SHAPE_SELFOVERLAP>  (1) 
594.607

>  <PUBCHEM_SHAPE_VOLUME>  (1) 
180.7

>  <PUBCHEM_COORDINATE_TYPE>  (1) 
2
5
10

$$$$
