1263
     RDKit          3D

 29 31  0  0  1  0  0  0  0  0999 V2000
   -1.6681   -2.6109   -2.8812 S   0  0  0  0  0  0  0  0  0  0  0  0
    3.1050    0.0384   -1.0608 S   0  0  0  0  0  0  0  0  0  0  0  0
   -1.9965    0.9330   -1.5321 O   0  0  0  0  0  0  0  0  0  0  0  0
   -0.4006    1.8736    1.4898 O   0  0  0  0  0  0  0  0  0  0  0  0
   -0.5034    3.2057   -0.3811 O   0  0  0  0  0  0  0  0  0  0  0  0
    0.1063    0.1310   -1.0386 N   0  0  0  0  0  0  0  0  0  0  0  0
    6.3333   -0.6778    0.1251 N   0  0  0  0  0  0  0  0  0  0  0  0
    7.0892   -0.2492    1.1455 N   0  0  0  0  0  0  0  0  0  0  0  0
    6.7329   -2.4431    1.3194 N   0  0  0  0  0  0  0  0  0  0  0  0
    7.3302   -1.3332    1.8729 N   0  0  0  0  0  0  0  0  0  0  0  0
   -1.8210   -1.2156   -0.4210 C   0  0  0  0  0  0  0  0  0  0  0  0
   -3.3609   -1.2252   -0.3603 C   0  0  0  0  0  0  0  0  0  0  0  0
   -3.9044   -0.3389    0.7685 C   0  0  0  0  0  0  0  0  0  0  0  0
   -1.2526   -2.4663   -1.1140 C   0  0  0  0  0  0  0  0  0  0  0  0
   -5.4115   -0.2965    0.7639 C   0  0  0  0  0  0  0  0  0  0  0  0
   -1.2683    0.0568   -1.0730 C   0  0  0  0  0  0  0  0  0  0  0  0
   -6.0796    0.6795    0.0242 C   0  0  0  0  0  0  0  0  0  0  0  0
   -6.1381   -1.2336    1.4988 C   0  0  0  0  0  0  0  0  0  0  0  0
    0.6712    1.1269   -0.4270 C   0  0  0  0  0  0  0  0  0  0  0  0
    2.1266    1.2453   -0.3411 C   0  0  0  0  0  0  0  0  0  0  0  0
    4.5403    0.8326   -0.5697 C   0  0  0  0  0  0  0  0  0  0  0  0
   -7.4738    0.7187    0.0197 C   0  0  0  0  0  0  0  0  0  0  0  0
   -7.5324   -1.1943    1.4941 C   0  0  0  0  0  0  0  0  0  0  0  0
    5.8524    0.2451   -0.9171 C   0  0  0  0  0  0  0  0  0  0  0  0
   -8.2002   -0.2182    0.7545 C   0  0  0  0  0  0  0  0  0  0  0  0
    2.8790    2.2306    0.2593 C   0  0  0  0  0  0  0  0  0  0  0  0
    4.2774    1.9917    0.1269 C   0  0  0  0  0  0  0  0  0  0  0  0
   -0.1535    2.2083    0.2152 C   0  0  0  0  0  0  0  0  0  0  0  0
    6.1213   -2.0147    0.2393 C   0  0  0  0  0  0  0  0  0  0  0  0
  1 14  1  0
  2 20  1  0
  2 21  1  0
  3 16  2  0
  4 28  1  0
  5 28  2  0
  6 16  1  0
  6 19  2  0
  7  8  1  0
  7 24  1  0
  7 29  1  0
  8 10  2  0
  9 10  1  0
  9 29  2  0
 11 12  1  0
 11 14  1  0
 11 16  1  0
 12 13  1  0
 13 15  1  0
 15 17  2  0
 15 18  1  0
 17 22  1  0
 18 23  2  0
 19 20  1  0
 19 28  1  0
 20 26  2  0
 21 24  1  0
 21 27  2  0
 22 25  2  0
 23 25  1  0
 26 27  1  0
M  END
>  <PUBCHEM_COMPOUND_CID>  (1) 
1263

>  <PUBCHEM_CONFORMER_RMSD>  (1) 
1

>  <PUBCHEM_CONFORMER_DIVERSEORDER>  (1) 
1
201
299
109
261
211
430
325
231
35
127
144
312
47
277
384
38
83
343
275
403
352
153
65
192
392
348
263
168
401
251
147
184
339
332
36
195
250
242
149
315
135
124
434
341
412
254
94
369
243
154
181
239
340
247
110
285
304
66
405
202
207
273
306
309
71
322
319
61
349
413
141
302
170
425
129
60
164
329
303
358
146
354
25
23
252
359
86
189
166
203
137
220
347
75
233
143
272
230
320
281
344
57
382
80
282
265
33
229
279
326
210
194
125
206
408
373
297
228
301
270
217
371
97
417
432
375
435
291
51
58
362
398
346
393
424
308
232
410
418
79
105
106
415
404
103
199
378
159
372
160
43
214
18
368
386
321
351
15
248
394
34
283
208
96
327
249
377
134
409
287
223
59
183
5
76
313
120
246
225
161
383
357
221
136
56
274
284
91
374
280
290
365
314
132
350
108
387
165
117
112
169
113
317
370
396
399
49
389
162
345
316
311
381
3
429
431
226
402
422
24
331
266
114
419
93
420
324
262
21
427
235
212
289
379
227
293
185
190
407
175
276
131
253
338
123
416
12
31
26
74
64
44
107
152
139
52
204
82
269
17
173
397
215
140
133
174
73
6
63
55
142
337
390
100
178
209
414
150
305
367
85
45
222
186
286
198
121
258
28
366
423
138
62
102
77
188
90
380
172
421
156
271
260
245
353
119
84
128
219
237
310
41
187
182
177
95
148
336
67
330
288
167
259
426
240
101
363
335
300
334
323
69
32
428
40
278
122
318
196
193
9
257
10
224
99
92
307
294
391
264
72
292
54
298
205
87
42
328
89
98
218
4
29
14
433
406
37
213
356
200
27
236
385
2
241
48
81
179
118
163
115
216
19
180
104
78
116
295
30
11
39
191
234
8
88
388
176
155
171
50
395
151
364
126
70
376
22
267
53
158
46
238
68
333
7
13
296
256
111
130
255
268
361
16
20
411
400
360
244
355
157
342
145
197

>  <PUBCHEM_MMFF94_PARTIAL_CHARGES>  (1) 
37
1 -0.41
11 0.06
13 0.14
14 0.23
15 -0.14
16 0.72
17 -0.15
18 -0.15
19 0.53
2 -0.08
20 -0.05
21 -0.14
22 -0.15
23 -0.15
24 0.44
25 -0.15
26 -0.15
27 -0.15
28 0.72
29 0.04
3 -0.57
37 0.15
38 0.15
39 0.18
4 -0.65
40 0.15
41 0.15
44 0.15
45 0.15
46 0.15
47 0.15
48 0.5
5 -0.57
6 -0.66
7 0.31
8 -0.42
9 -0.34

>  <PUBCHEM_EFFECTIVE_ROTOR_COUNT>  (1) 
10

>  <PUBCHEM_PHARMACOPHORE_FEATURES>  (1) 
10
1 3 acceptor
1 4 acceptor
1 5 acceptor
1 6 acceptor
1 6 donor
3 4 5 28 anion
3 7 9 29 cation
5 2 20 21 26 27 rings
5 7 8 9 10 29 rings
6 15 17 18 22 23 25 rings

>  <PUBCHEM_HEAVY_ATOM_COUNT>  (1) 
29

>  <PUBCHEM_ATOM_DEF_STEREO_COUNT>  (1) 
0

>  <PUBCHEM_ATOM_UDEF_STEREO_COUNT>  (1) 
1

>  <PUBCHEM_BOND_DEF_STEREO_COUNT>  (1) 
0

>  <PUBCHEM_BOND_UDEF_STEREO_COUNT>  (1) 
0

>  <PUBCHEM_ISOTOPIC_ATOM_COUNT>  (1) 
0

>  <PUBCHEM_COMPONENT_COUNT>  (1) 
1

>  <PUBCHEM_CACTVS_TAUTO_COUNT>  (1) 
1

>  <PUBCHEM_CONFORMER_ID>  (1) 
000004EF00000001

>  <PUBCHEM_MMFF94_ENERGY>  (1) 
55.276

>  <PUBCHEM_FEATURE_SELFOVERLAP>  (1) 
50.849

>  <PUBCHEM_SHAPE_FINGERPRINT>  (1) 
10319688 67 16917345935288441691
11135609 12 18335696144542996208
11387372 6 17531249512974043019
11456790 92 18130519591330109553
12107183 9 18272091634042139949
13673619 4 15791727516212076119
14347424 109 18342175604977729384
14400156 162 17894917296139092465
14767858 380 10953456340640287095
14856354 85 13190346781923598499
15131766 46 17830181559799354692
15183329 4 18060429027092680077
15301273 46 17168142351888567687
15352257 5 17168145645632891363
15684393 108 17822017472264181478
15849732 13 18341058505527194693
16728300 4 18192140500284915366
19841028 212 17676764259514733034
20554085 129 16271927099351575239
21344244 181 16225769623145445928
21403212 168 18273216387646577335
21521721 280 11963392985622134581
21792934 111 18413101745447055977
2838139 119 16917076572958042361
3383291 50 17917715694978529423
3552219 110 10953734470523744743
4258327 124 12103551039870597560
439807 62 17676488324686767002
5104073 3 17915456301562216970
513202 73 18114184107693943789
5207 217 9223232931712644429
54039377 194 18187929444271366490
6058803 2 17625814238263671589

>  <PUBCHEM_SHAPE_MULTIPOLES>  (1) 
561.99
22.62
2.78
1.71
4.79
0.12
-0.2
7
13.82
-1.99
-0.66
-0.14
1.24
-1.57

>  <PUBCHEM_SHAPE_SELFOVERLAP>  (1) 
1167.06

>  <PUBCHEM_SHAPE_VOLUME>  (1) 
321.6

>  <PUBCHEM_COORDINATE_TYPE>  (1) 
2
5
10

$$$$
