12642
     RDKit          3D

  6  5  0  0  1  0  0  0  0  0999 V2000
   -2.6223    0.3859    0.2984 Cl  0  0  0  0  0  0  0  0  0  0  0  0
   -0.2512   -1.5410   -0.0641 O   0  0  0  0  0  0  0  0  0  0  0  0
    0.0441   -0.1732    0.2122 C   0  0  0  0  0  0  0  0  0  0  0  0
   -1.0224    0.7191   -0.4179 C   0  0  0  0  0  0  0  0  0  0  0  0
    1.3934    0.1219   -0.3756 C   0  0  0  0  0  0  0  0  0  0  0  0
    2.4585    0.4873    0.3470 C   0  0  0  0  0  0  0  0  0  0  0  0
  1  4  1  0
  2  3  1  0
  3  4  1  0
  3  5  1  0
  5  6  2  0
M  END
>  <PUBCHEM_COMPOUND_CID>  (1) 
12642

>  <PUBCHEM_CONFORMER_RMSD>  (1) 
0.4

>  <PUBCHEM_CONFORMER_DIVERSEORDER>  (1) 
1
9
12
4
10
2
11
3
8
6
7
5

>  <PUBCHEM_MMFF94_PARTIAL_CHARGES>  (1) 
10
1 -0.29
10 0.15
11 0.4
12 0.15
13 0.15
2 -0.68
3 0.42
4 0.29
5 -0.29
6 -0.3

>  <PUBCHEM_EFFECTIVE_ROTOR_COUNT>  (1) 
2

>  <PUBCHEM_PHARMACOPHORE_FEATURES>  (1) 
3
1 2 acceptor
1 2 donor
1 6 hydrophobe

>  <PUBCHEM_HEAVY_ATOM_COUNT>  (1) 
6

>  <PUBCHEM_ATOM_DEF_STEREO_COUNT>  (1) 
0

>  <PUBCHEM_ATOM_UDEF_STEREO_COUNT>  (1) 
1

>  <PUBCHEM_BOND_DEF_STEREO_COUNT>  (1) 
0

>  <PUBCHEM_BOND_UDEF_STEREO_COUNT>  (1) 
0

>  <PUBCHEM_ISOTOPIC_ATOM_COUNT>  (1) 
0

>  <PUBCHEM_COMPONENT_COUNT>  (1) 
1

>  <PUBCHEM_CACTVS_TAUTO_COUNT>  (1) 
1

>  <PUBCHEM_CONFORMER_ID>  (1) 
0000316200000001

>  <PUBCHEM_MMFF94_ENERGY>  (1) 
3.7741

>  <PUBCHEM_FEATURE_SELFOVERLAP>  (1) 
15.223

>  <PUBCHEM_SHAPE_FINGERPRINT>  (1) 
14390081 3 18130505241222166289
16714656 1 18335422391220891637
20096714 4 18409727357108974084
21040471 1 18410296912642826006
29004967 10 18114472171208184001
5460574 1 9583518715568790373

>  <PUBCHEM_SHAPE_MULTIPOLES>  (1) 
119.48
3.46
1.06
0.71
0.39
0.39
0
-0.95
0.53
0.1
-0.04
0
-0.06
0.07

>  <PUBCHEM_SHAPE_SELFOVERLAP>  (1) 
203.43

>  <PUBCHEM_SHAPE_VOLUME>  (1) 
81.3

>  <PUBCHEM_COORDINATE_TYPE>  (1) 
2
5
10

$$$$
