12645
     RDKit          3D

 18 18  0  0  0  0  0  0  0  0999 V2000
    0.9134    1.0658    0.8562 O   0  0  0  0  0  0  0  0  0  0  0  0
    3.4448    0.2978    0.0722 N   0  0  0  0  0  0  0  0  0  0  0  0
    0.0887   -0.9863    0.0682 N   0  0  0  0  0  0  0  0  0  0  0  0
    2.4466   -0.7307    0.3632 C   0  0  0  0  0  0  0  0  0  0  0  0
    3.1343    0.9690   -1.1894 C   0  0  0  0  0  0  0  0  0  0  0  0
    4.7836   -0.2889    0.0230 C   0  0  0  0  0  0  0  0  0  0  0  0
   -1.3092   -0.7707    0.0224 C   0  0  0  0  0  0  0  0  0  0  0  0
    1.0747   -0.0875    0.4700 C   0  0  0  0  0  0  0  0  0  0  0  0
   -3.1765    0.6961    0.3753 C   0  0  0  0  0  0  0  0  0  0  0  0
   -2.1565   -1.7799   -0.4066 C   0  0  0  0  0  0  0  0  0  0  0  0
   -1.8014    0.4647    0.4140 C   0  0  0  0  0  0  0  0  0  0  0  0
    4.1619    2.0417   -1.5080 C   0  0  0  0  0  0  0  0  0  0  0  0
    5.1475   -0.9381    1.3475 C   0  0  0  0  0  0  0  0  0  0  0  0
   -3.7221    2.0196    0.7933 C   0  0  0  0  0  0  0  0  0  0  0  0
   -4.0414   -0.3104   -0.0544 C   0  0  0  0  0  0  0  0  0  0  0  0
   -3.5314   -1.5483   -0.4453 C   0  0  0  0  0  0  0  0  0  0  0  0
   -1.6386   -3.1158   -0.8304 C   0  0  0  0  0  0  0  0  0  0  0  0
   -3.8185    3.0020   -0.3711 C   0  0  0  0  0  0  0  0  0  0  0  0
  1  8  2  0
  2  4  1  0
  2  5  1  0
  2  6  1  0
  3  7  1  0
  3  8  1  0
  4  8  1  0
  5 12  1  0
  6 13  1  0
  7 10  2  0
  7 11  1  0
  9 11  2  0
  9 14  1  0
  9 15  1  0
 10 16  1  0
 10 17  1  0
 14 18  1  0
 15 16  2  0
M  END
>  <PUBCHEM_COMPOUND_CID>  (1) 
12645

>  <PUBCHEM_CONFORMER_RMSD>  (1) 
0.8

>  <PUBCHEM_CONFORMER_DIVERSEORDER>  (1) 
1
16
6
15
9
2
11
10
14
18
12
4
8
17
13
3
5
7

>  <PUBCHEM_MMFF94_PARTIAL_CHARGES>  (1) 
19
1 -0.57
10 -0.14
11 -0.15
14 0.14
15 -0.15
16 -0.15
17 0.14
2 -0.81
25 0.37
26 0.15
3 -0.55
35 0.15
36 0.15
4 0.33
5 0.27
6 0.27
7 0.12
8 0.57
9 -0.14

>  <PUBCHEM_EFFECTIVE_ROTOR_COUNT>  (1) 
7

>  <PUBCHEM_PHARMACOPHORE_FEATURES>  (1) 
5
1 1 acceptor
1 18 hydrophobe
1 2 cation
1 3 donor
6 7 9 10 11 15 16 rings

>  <PUBCHEM_HEAVY_ATOM_COUNT>  (1) 
18

>  <PUBCHEM_ATOM_DEF_STEREO_COUNT>  (1) 
0

>  <PUBCHEM_ATOM_UDEF_STEREO_COUNT>  (1) 
0

>  <PUBCHEM_BOND_DEF_STEREO_COUNT>  (1) 
0

>  <PUBCHEM_BOND_UDEF_STEREO_COUNT>  (1) 
0

>  <PUBCHEM_ISOTOPIC_ATOM_COUNT>  (1) 
0

>  <PUBCHEM_COMPONENT_COUNT>  (1) 
1

>  <PUBCHEM_CACTVS_TAUTO_COUNT>  (1) 
2

>  <PUBCHEM_CONFORMER_ID>  (1) 
0000316500000001

>  <PUBCHEM_MMFF94_ENERGY>  (1) 
44.0823

>  <PUBCHEM_FEATURE_SELFOVERLAP>  (1) 
25.371

>  <PUBCHEM_SHAPE_FINGERPRINT>  (1) 
10062212 137 18408879655277284906
11552529 35 17024329593423118659
12107183 9 18046620110541586978
12173636 292 18341608231091428959
12236239 1 18187362142592531547
12390115 104 17845391963935553505
12500047 106 18272643524217533779
13167823 11 18334856138917966506
14508225 48 17985244508591513895
14739800 52 18196926898134803296
15042514 8 18269835488297350119
15375358 24 16845569807969118562
16752209 62 18272074012065949411
17818456 19 18196650701324051256
17834072 32 18264774268475378789
18785283 64 17834690301102944443
19422 9 18333731359786435490
19433438 15 18334298664894561320
20279233 1 16773801415559555998
20645477 56 18201723950768890547
23366157 5 18119816803016517799
23402539 116 18202272581042857964
23557571 272 17989492926731298408
23559900 14 17916314844577540982
23598291 2 18259981608842456230
268830 7 17676203585318691716
2838139 119 17387392585771322389
4214541 1 18341611507914059800
474 4 17386855096004164436
5104073 3 18335703862171810584
559249 180 18339355254583850690
573450 72 18410846664383617898
6327066 14 18191579745218317565
633830 44 17603589638370423824
6430166 295 18340204094286233992
67856867 119 18264201599364141040

>  <PUBCHEM_SHAPE_MULTIPOLES>  (1) 
354.6
10.63
2.81
1.1
9.06
0.26
-0.11
3.05
0.35
-3.09
-0.89
1.05
0.21
-2.01

>  <PUBCHEM_SHAPE_SELFOVERLAP>  (1) 
711.703

>  <PUBCHEM_SHAPE_VOLUME>  (1) 
210.8

>  <PUBCHEM_COORDINATE_TYPE>  (1) 
2
5
10

$$$$
