12655
     RDKit          3D

 15 15  0  0  1  0  0  0  0  0999 V2000
    1.8348   -0.5326    0.8632 O   0  0  0  0  0  0  0  0  0  0  0  0
    2.2424    0.6306   -1.1083 O   0  0  0  0  0  0  0  0  0  0  0  0
    3.8413    0.5410    0.5703 N   0  0  0  0  0  0  0  0  0  0  0  0
   -2.9152    0.5179    0.4011 C   0  0  0  0  0  0  0  0  0  0  0  0
   -2.7426    1.9360   -0.1801 C   0  0  0  0  0  0  0  0  0  0  0  0
   -1.7252   -0.3870    0.1313 C   0  0  0  0  0  0  0  0  0  0  0  0
   -3.2043    0.5905    1.9053 C   0  0  0  0  0  0  0  0  0  0  0  0
   -2.6289    1.9501   -1.6997 C   0  0  0  0  0  0  0  0  0  0  0  0
   -0.4873   -0.0320    0.6304 C   0  0  0  0  0  0  0  0  0  0  0  0
   -1.9144   -1.5397   -0.6055 C   0  0  0  0  0  0  0  0  0  0  0  0
    0.6052   -0.8631    0.3827 C   0  0  0  0  0  0  0  0  0  0  0  0
   -0.8219   -2.3707   -0.8533 C   0  0  0  0  0  0  0  0  0  0  0  0
    0.4380   -2.0324   -0.3592 C   0  0  0  0  0  0  0  0  0  0  0  0
    2.6176    0.2578   -0.0006 C   0  0  0  0  0  0  0  0  0  0  0  0
    4.8604    1.3336   -0.0775 C   0  0  0  0  0  0  0  0  0  0  0  0
  1 11  1  0
  1 14  1  0
  2 14  2  0
  3 14  1  0
  3 15  1  0
  4  5  1  0
  4  6  1  0
  4  7  1  0
  5  8  1  0
  6  9  2  0
  6 10  1  0
  9 11  1  0
 10 12  2  0
 11 13  2  0
 12 13  1  0
M  END
>  <PUBCHEM_COMPOUND_CID>  (1) 
12655

>  <PUBCHEM_CONFORMER_RMSD>  (1) 
0.6

>  <PUBCHEM_CONFORMER_DIVERSEORDER>  (1) 
1
221
173
177
137
87
16
289
295
191
25
113
310
273
187
195
147
140
83
268
46
233
158
193
149
260
110
279
144
172
109
56
168
281
267
120
198
215
57
157
290
280
4
313
248
219
30
264
77
263
259
63
61
236
287
23
200
97
15
153
125
60
220
107
115
305
104
251
29
8
101
139
218
138
68
39
189
142
24
283
36
108
131
231
306
258
41
309
210
32
171
145
197
27
11
55
297
100
203
89
243
58
93
201
150
54
135
166
213
37
293
190
127
74
282
246
105
194
126
299
301
265
141
288
38
148
78
103
303
255
185
242
169
6
146
307
49
232
116
214
164
91
170
134
269
180
20
284
50
178
81
33
207
238
229
314
237
19
163
35
245
114
51
106
165
274
129
253
199
186
184
96
122
234
179
276
95
82
176
28
205
300
298
75
133
217
62
102
294
223
192
226
132
123
212
70
183
275
117
308
271
99
285
40
79
111
302
34
216
202
42
182
143
241
312
48
52
88
14
257
76
261
121
174
80
262
204
65
277
84
188
5
3
112
249
18
247
44
152
124
21
167
272
291
43
64
154
17
292
130
94
208
161
250
85
239
196
13
128
119
7
22
98
286
73
71
156
136
10
2
311
47
53
230
266
69
12
9
31
59
45
162
92
278
72
159
222
118
181
175
211
270
90
67
254
227
252
66
296
256
228
209
155
160
86
235
206
151
244
240
225
26
224
304

>  <PUBCHEM_MMFF94_PARTIAL_CHARGES>  (1) 
17
1 -0.23
10 -0.15
11 0.08
12 -0.15
13 -0.15
14 0.78
15 0.3
2 -0.57
25 0.15
26 0.15
27 0.15
28 0.15
29 0.37
3 -0.73
4 0.14
6 -0.14
9 -0.15

>  <PUBCHEM_EFFECTIVE_ROTOR_COUNT>  (1) 
5

>  <PUBCHEM_PHARMACOPHORE_FEATURES>  (1) 
5
1 2 acceptor
1 3 donor
1 7 hydrophobe
1 8 hydrophobe
6 6 9 10 11 12 13 rings

>  <PUBCHEM_HEAVY_ATOM_COUNT>  (1) 
15

>  <PUBCHEM_ATOM_DEF_STEREO_COUNT>  (1) 
0

>  <PUBCHEM_ATOM_UDEF_STEREO_COUNT>  (1) 
1

>  <PUBCHEM_BOND_DEF_STEREO_COUNT>  (1) 
0

>  <PUBCHEM_BOND_UDEF_STEREO_COUNT>  (1) 
0

>  <PUBCHEM_ISOTOPIC_ATOM_COUNT>  (1) 
0

>  <PUBCHEM_COMPONENT_COUNT>  (1) 
1

>  <PUBCHEM_CACTVS_TAUTO_COUNT>  (1) 
2

>  <PUBCHEM_CONFORMER_ID>  (1) 
0000316F00000001

>  <PUBCHEM_MMFF94_ENERGY>  (1) 
34.4499

>  <PUBCHEM_FEATURE_SELFOVERLAP>  (1) 
25.372

>  <PUBCHEM_SHAPE_FINGERPRINT>  (1) 
11206711 2 18058147570793768167
11221954 11 17755294570361074933
11543360 7 14404889328407380576
12138202 97 17775564273329667118
12173636 292 17846226535556443897
12202030 40 11094721565013284437
12403814 3 18261678159663484473
12892183 10 17167863062928911096
13675066 3 18113338600837793568
14614273 12 18412541029034611271
15279308 16 18041282045955208249
15342168 16 18200039421978471105
15375462 478 17530971297407276901
15775835 57 18410856564056154312
16945 1 18040729073073749811
1741750 31 18130791165674044050
17834072 32 18409444778305121668
18186145 218 18131079199266015588
20645477 56 18270969045802989480
21296965 12 18261669277660423853
21524375 3 18411420622027053691
22959321 28 17895487993585949425
23402539 116 18128246998852276191
23419403 2 14957369388638486387
23557571 272 17702675504446218428
25 1 17703516501712984010
27216 239 18186238420471757593
2748010 2 18119257159981283317
305870 269 18261387806799735130
4175511 318 18342737450860330652
6049 1 17755605766706022211
633830 44 17631746949651493792
81228 2 18054785358530448963

>  <PUBCHEM_SHAPE_MULTIPOLES>  (1) 
291.97
6.85
2.27
1.31
8.04
0.64
-0.05
-5.08
-0.69
-1
0.95
-1.16
-0.43
0.1

>  <PUBCHEM_SHAPE_SELFOVERLAP>  (1) 
591.32

>  <PUBCHEM_SHAPE_VOLUME>  (1) 
169.6

>  <PUBCHEM_COORDINATE_TYPE>  (1) 
2
5
10

$$$$
