12653
     RDKit          3D

 14 14  0  0  0  0  0  0  0  0999 V2000
    4.0625   -0.0007    0.5724 Cl  0  0  0  0  0  0  0  0  0  0  0  0
   -1.6161    0.0008   -0.9622 O   0  0  0  0  0  0  0  0  0  0  0  0
   -2.1803   -0.0023    1.2935 O   0  0  0  0  0  0  0  0  0  0  0  0
   -3.8252    0.0006   -0.3425 N   0  0  0  0  0  0  0  0  0  0  0  0
    1.7172    1.2080   -0.0591 C   0  0  0  0  0  0  0  0  0  0  0  0
    1.7172   -1.2078   -0.0609 C   0  0  0  0  0  0  0  0  0  0  0  0
    2.3904   -0.0001    0.1220 C   0  0  0  0  0  0  0  0  0  0  0  0
   -0.3025    0.0006   -0.6061 C   0  0  0  0  0  0  0  0  0  0  0  0
    0.3707    1.2084   -0.4231 C   0  0  0  0  0  0  0  0  0  0  0  0
    0.3707   -1.2076   -0.4250 C   0  0  0  0  0  0  0  0  0  0  0  0
    2.3993    2.5258    0.1241 C   0  0  0  0  0  0  0  0  0  0  0  0
    2.3974   -2.5264    0.1238 C   0  0  0  0  0  0  0  0  0  0  0  0
   -2.5236    0.0004    0.1149 C   0  0  0  0  0  0  0  0  0  0  0  0
   -4.9777    0.0003    0.5282 C   0  0  0  0  0  0  0  0  0  0  0  0
  1  7  1  0
  2  8  1  0
  2 13  1  0
  3 13  2  0
  4 13  1  0
  4 14  1  0
  5  7  2  0
  5  9  1  0
  5 11  1  0
  6  7  1  0
  6 10  2  0
  6 12  1  0
  8  9  2  0
  8 10  1  0
M  END
>  <PUBCHEM_COMPOUND_CID>  (1) 
12653

>  <PUBCHEM_CONFORMER_RMSD>  (1) 
0.6

>  <PUBCHEM_CONFORMER_DIVERSEORDER>  (1) 
1
9
10
8
4
12
5
6
11
7
2
14
3
13

>  <PUBCHEM_MMFF94_PARTIAL_CHARGES>  (1) 
17
1 -0.18
10 -0.15
11 0.14
12 0.14
13 0.78
14 0.3
15 0.15
16 0.15
2 -0.23
23 0.37
3 -0.57
4 -0.73
5 -0.14
6 -0.14
7 0.18
8 0.08
9 -0.15

>  <PUBCHEM_EFFECTIVE_ROTOR_COUNT>  (1) 
3

>  <PUBCHEM_PHARMACOPHORE_FEATURES>  (1) 
3
1 3 acceptor
1 4 donor
6 5 6 7 8 9 10 rings

>  <PUBCHEM_HEAVY_ATOM_COUNT>  (1) 
14

>  <PUBCHEM_ATOM_DEF_STEREO_COUNT>  (1) 
0

>  <PUBCHEM_ATOM_UDEF_STEREO_COUNT>  (1) 
0

>  <PUBCHEM_BOND_DEF_STEREO_COUNT>  (1) 
0

>  <PUBCHEM_BOND_UDEF_STEREO_COUNT>  (1) 
0

>  <PUBCHEM_ISOTOPIC_ATOM_COUNT>  (1) 
0

>  <PUBCHEM_COMPONENT_COUNT>  (1) 
1

>  <PUBCHEM_CACTVS_TAUTO_COUNT>  (1) 
2

>  <PUBCHEM_CONFORMER_ID>  (1) 
0000316D00000001

>  <PUBCHEM_MMFF94_ENERGY>  (1) 
36.2098

>  <PUBCHEM_FEATURE_SELFOVERLAP>  (1) 
15.223

>  <PUBCHEM_SHAPE_FINGERPRINT>  (1) 
10219947 1 18410290311610394862
10980938 120 18413671300938319926
11471102 20 18410007741243035060
11471102 22 18335426754875911960
12251169 10 18412824689922711687
12346645 6 18272089387742699830
13140716 1 18266168625380882730
13380536 305 18338238275503046628
14251717 144 18410572881408438967
14252887 29 18261395511717655362
15219456 202 18188762860482446189
15501101 241 18261110759659682036
15775835 57 18130227184860036029
16945 1 18410845565056261998
19049666 15 17823969044360590781
20201158 50 18186802461019532355
20279233 1 17822015302476839491
20559304 39 18343868796669809312
20645477 70 18337101285922294991
20871998 22 18197216941096054374
21041028 32 18197211447827276592
21501502 16 18193269930401329990
22854114 111 18341894142542769017
2334 1 17905600352745878862
23557571 272 16660358143411095246
2748010 2 18051676760401908004
31174 14 18335416846418041167
7364860 26 18342177765250800854
77492 1 17703782639667273509
81228 2 17258484553713256316
8272917 22 18341057337021549471

>  <PUBCHEM_SHAPE_MULTIPOLES>  (1) 
273.26
7.27
2
0.85
8.48
0
0.07
0
1.84
-2.58
0
0.28
0
0

>  <PUBCHEM_SHAPE_SELFOVERLAP>  (1) 
554.212

>  <PUBCHEM_SHAPE_VOLUME>  (1) 
161.7

>  <PUBCHEM_COORDINATE_TYPE>  (1) 
2
5
10

$$$$
