1265
     RDKit          3D

 35 37  0  0  0  0  0  0  0  0999 V2000
    6.8283   -0.4802    0.5731 O   0  0  0  0  0  0  0  0  0  0  0  0
    0.7042   -4.1873   -0.1468 O   0  0  0  0  0  0  0  0  0  0  0  0
   -5.9322   -1.4648   -0.2931 O   0  0  0  0  0  0  0  0  0  0  0  0
   -3.2902    4.3466    0.4694 O   0  0  0  0  0  0  0  0  0  0  0  0
    7.6378    3.8802   -0.4523 N   0  0  0  0  0  0  0  0  0  0  0  0
    4.6825   -2.4346    0.2634 N   0  0  0  0  0  0  0  0  0  0  0  0
    5.2556    1.1944    0.5309 N   0  0  0  0  0  0  0  0  0  0  0  0
   -2.1316   -3.6150   -0.2761 N   0  0  0  0  0  0  0  0  0  0  0  0
    1.1296   -1.8994    0.0272 N   0  0  0  0  0  0  0  0  0  0  0  0
    3.2545   -0.7339    0.2610 N   0  0  0  0  0  0  0  0  0  0  0  0
   -1.6253   -1.4621   -0.0749 N   0  0  0  0  0  0  0  0  0  0  0  0
   -7.1765    1.1425   -0.0936 N   0  0  0  0  0  0  0  0  0  0  0  0
   -3.8395   -0.4496   -0.1048 N   0  0  0  0  0  0  0  0  0  0  0  0
   -5.1422    2.0097    0.1091 N   0  0  0  0  0  0  0  0  0  0  0  0
   -5.6579    4.3771    0.3507 N   0  0  0  0  0  0  0  0  0  0  0  0
    6.7019    2.7729   -0.6447 C   0  0  0  0  0  0  0  0  0  0  0  0
    6.1993    2.2657    0.6989 C   0  0  0  0  0  0  0  0  0  0  0  0
    4.5616   -1.1277    0.3355 C   0  0  0  0  0  0  0  0  0  0  0  0
    2.4935   -1.8616    0.1334 C   0  0  0  0  0  0  0  0  0  0  0  0
    5.6460   -0.1459    0.4779 C   0  0  0  0  0  0  0  0  0  0  0  0
   -1.1552   -2.7432   -0.1556 C   0  0  0  0  0  0  0  0  0  0  0  0
    3.3969   -2.8983    0.1371 C   0  0  0  0  0  0  0  0  0  0  0  0
   -2.9885   -1.5206   -0.1486 C   0  0  0  0  0  0  0  0  0  0  0  0
   -3.2773   -2.8592   -0.2725 C   0  0  0  0  0  0  0  0  0  0  0  0
    0.2890   -3.0312   -0.1068 C   0  0  0  0  0  0  0  0  0  0  0  0
    8.9574    3.3746   -0.0759 C   0  0  0  0  0  0  0  0  0  0  0  0
    7.7280    4.6900   -1.6667 C   0  0  0  0  0  0  0  0  0  0  0  0
    5.8774   -3.2398    0.3034 C   0  0  0  0  0  0  0  0  0  0  0  0
   -5.8895    0.8772   -0.0577 C   0  0  0  0  0  0  0  0  0  0  0  0
   -2.0593   -5.0500   -0.3899 C   0  0  0  0  0  0  0  0  0  0  0  0
   -5.2539   -0.4466   -0.1762 C   0  0  0  0  0  0  0  0  0  0  0  0
   -7.2571    2.5044    0.0568 C   0  0  0  0  0  0  0  0  0  0  0  0
   -6.0077    3.0644    0.1844 C   0  0  0  0  0  0  0  0  0  0  0  0
   -8.2864    0.2370   -0.2536 C   0  0  0  0  0  0  0  0  0  0  0  0
   -4.3733    4.9144    0.4777 C   0  0  0  0  0  0  0  0  0  0  0  0
  1 20  2  0
  2 25  2  0
  3 31  2  0
  4 35  2  0
  5 16  1  0
  5 26  1  0
  5 27  1  0
  6 18  1  0
  6 22  1  0
  6 28  1  0
  7 17  1  0
  7 20  1  0
  8 21  1  0
  8 24  1  0
  8 30  1  0
  9 19  1  0
  9 25  1  0
 10 18  2  0
 10 19  1  0
 11 21  2  0
 11 23  1  0
 12 29  1  0
 12 32  1  0
 12 34  1  0
 13 23  1  0
 13 31  1  0
 14 29  2  0
 14 33  1  0
 15 33  1  0
 15 35  1  0
 16 17  1  0
 18 20  1  0
 19 22  2  0
 21 25  1  0
 23 24  2  0
 29 31  1  0
 32 33  2  0
M  END
>  <PUBCHEM_COMPOUND_CID>  (1) 
1265

>  <PUBCHEM_CONFORMER_RMSD>  (1) 
1.2

>  <PUBCHEM_CONFORMER_DIVERSEORDER>  (1) 
1
35
10
50
19
51
47
38
32
44
52
46
42
43
16
37
30
5
34
27
41
45
23
11
25
21
48
9
24
26
17
22
3
13
53
29
8
14
18
6
31
2
15
7
28
4
33
49
39
20
40
36
12

>  <PUBCHEM_MMFF94_PARTIAL_CHARGES>  (1) 
43
1 -0.57
10 -0.57
11 -0.57
12 0.05
13 -0.49
14 -0.57
15 -0.49
16 0.27
17 0.3
18 0.1
19 0.29
2 -0.57
20 0.71
21 0.1
22 -0.3
23 0.29
24 -0.3
25 0.71
26 0.27
27 0.27
28 0.26
29 0.1
3 -0.57
30 0.26
31 0.71
32 -0.3
33 0.29
34 0.26
35 0.57
4 -0.57
40 0.37
41 0.15
42 0.15
43 0.37
5 -0.81
53 0.37
57 0.15
6 0.05
61 0.37
62 0.06
7 -0.73
8 0.05
9 -0.49

>  <PUBCHEM_EFFECTIVE_ROTOR_COUNT>  (1) 
13

>  <PUBCHEM_PHARMACOPHORE_FEATURES>  (1) 
15
1 1 acceptor
1 13 donor
1 15 donor
1 2 acceptor
1 3 acceptor
1 4 acceptor
1 5 cation
1 7 donor
1 9 donor
3 12 14 29 cation
3 6 10 18 cation
3 8 11 21 cation
5 12 14 29 32 33 rings
5 6 10 18 19 22 rings
5 8 11 21 23 24 rings

>  <PUBCHEM_HEAVY_ATOM_COUNT>  (1) 
35

>  <PUBCHEM_ATOM_DEF_STEREO_COUNT>  (1) 
0

>  <PUBCHEM_ATOM_UDEF_STEREO_COUNT>  (1) 
0

>  <PUBCHEM_BOND_DEF_STEREO_COUNT>  (1) 
0

>  <PUBCHEM_BOND_UDEF_STEREO_COUNT>  (1) 
0

>  <PUBCHEM_ISOTOPIC_ATOM_COUNT>  (1) 
0

>  <PUBCHEM_COMPONENT_COUNT>  (1) 
1

>  <PUBCHEM_CACTVS_TAUTO_COUNT>  (1) 
16

>  <PUBCHEM_CONFORMER_ID>  (1) 
000004F100000001

>  <PUBCHEM_MMFF94_ENERGY>  (1) 
67.1328

>  <PUBCHEM_FEATURE_SELFOVERLAP>  (1) 
76.123

>  <PUBCHEM_SHAPE_FINGERPRINT>  (1) 
10280341 67 18200018681876941184
10883706 163 18262232227593357061
10939801 23 18409167722744100997
11374522 155 18408887326585156965
11408170 253 18272094880911634336
12013929 29 18342458089113323324
12895837 130 18337672035030046715
13347071 3 18268994356821033680
14790565 3 18268146462095110979
15347591 1 18337390539243833042
15419008 145 17973714784216892930
15781502 237 18410296956494929696
16126227 98 18411136957091522287
16758388 162 18117269268924143770
19053607 189 18339350990123801296
20058555 10 18339922606931289929
20691028 202 18411974741548618547
21585482 111 18335419088987679444
23569914 152 17986977176209577886
23569943 247 9583253750678429637
2838139 119 18269267981172449351
3918712 181 18266732490395102577
4073 2 18187926248288548394
4366758 26 18340492145169962321
437795 171 18189890920447583517
5776283 40 18342454897858002441
6036956 94 18411706490750137697

>  <PUBCHEM_SHAPE_MULTIPOLES>  (1) 
642.02
27.82
8.32
0.77
17.23
4.2
-0.13
37.59
-1.77
2.19
-0.84
0.93
0.49
-3.88

>  <PUBCHEM_SHAPE_SELFOVERLAP>  (1) 
1355.523

>  <PUBCHEM_SHAPE_VOLUME>  (1) 
359.6

>  <PUBCHEM_COORDINATE_TYPE>  (1) 
2
5
10

$$$$
