12651
     RDKit          3D

 10 10  0  0  0  0  0  0  0  0999 V2000
    1.6243   -0.5452   -0.0007 O   0  0  0  0  0  0  0  0  0  0  0  0
   -2.2135    1.0407    0.0000 O   0  0  0  0  0  0  0  0  0  0  0  0
    0.7388   -2.6385    0.0003 O   0  0  0  0  0  0  0  0  0  0  0  0
    1.4064    0.8547   -0.0001 C   0  0  0  0  0  0  0  0  0  0  0  0
   -0.9559    0.4782    0.0001 C   0  0  0  0  0  0  0  0  0  0  0  0
    0.1703    1.3699    0.0003 C   0  0  0  0  0  0  0  0  0  0  0  0
   -0.7862   -0.8471    0.0001 C   0  0  0  0  0  0  0  0  0  0  0  0
    2.6556    1.6710    0.0001 C   0  0  0  0  0  0  0  0  0  0  0  0
    0.5735   -1.4231    0.0001 C   0  0  0  0  0  0  0  0  0  0  0  0
   -3.2134    0.0395   -0.0002 C   0  0  0  0  0  0  0  0  0  0  0  0
  1  4  1  0
  1  9  1  0
  2  5  1  0
  2 10  1  0
  3  9  2  0
  4  6  2  0
  4  8  1  0
  5  6  1  0
  5  7  2  0
  7  9  1  0
M  END
>  <PUBCHEM_COMPOUND_CID>  (1) 
12651

>  <PUBCHEM_CONFORMER_RMSD>  (1) 
0.4

>  <PUBCHEM_CONFORMER_DIVERSEORDER>  (1) 
1
2

>  <PUBCHEM_MMFF94_PARTIAL_CHARGES>  (1) 
12
1 -0.23
10 0.28
11 0.15
12 0.15
2 -0.36
3 -0.57
4 -0.06
5 0.08
6 -0.15
7 -0.14
8 0.14
9 0.71

>  <PUBCHEM_EFFECTIVE_ROTOR_COUNT>  (1) 
1

>  <PUBCHEM_PHARMACOPHORE_FEATURES>  (1) 
3
1 2 acceptor
1 3 acceptor
6 1 4 5 6 7 9 rings

>  <PUBCHEM_HEAVY_ATOM_COUNT>  (1) 
10

>  <PUBCHEM_ATOM_DEF_STEREO_COUNT>  (1) 
0

>  <PUBCHEM_ATOM_UDEF_STEREO_COUNT>  (1) 
0

>  <PUBCHEM_BOND_DEF_STEREO_COUNT>  (1) 
0

>  <PUBCHEM_BOND_UDEF_STEREO_COUNT>  (1) 
0

>  <PUBCHEM_ISOTOPIC_ATOM_COUNT>  (1) 
0

>  <PUBCHEM_COMPONENT_COUNT>  (1) 
1

>  <PUBCHEM_CACTVS_TAUTO_COUNT>  (1) 
1

>  <PUBCHEM_CONFORMER_ID>  (1) 
0000316B00000001

>  <PUBCHEM_MMFF94_ENERGY>  (1) 
31.4042

>  <PUBCHEM_FEATURE_SELFOVERLAP>  (1) 
15.223

>  <PUBCHEM_SHAPE_FINGERPRINT>  (1) 
1 1 18410292505980013198
13380535 76 18337105773561504938
14325111 11 18410574032528330465
16945 1 18266459810735369381
18185500 45 17689720757457321931
19021347 11 18410571794902869975
193761 8 17978510828119929228
20645477 70 18339918213554136839
20871998 184 17623018206211882254
21040471 1 18266741466296060672
23235685 24 18337949107554314253
23552423 10 18266463113797393605
241688 4 17401768519187599818
2748010 2 18337680822537960926
29004967 10 18264491676532169515
528862 383 18334003982634900834

>  <PUBCHEM_SHAPE_MULTIPOLES>  (1) 
188.19
3.56
2.13
0.59
1.28
1.45
0
-1.86
0
-0.71
0
0
-0.02
0

>  <PUBCHEM_SHAPE_SELFOVERLAP>  (1) 
385.311

>  <PUBCHEM_SHAPE_VOLUME>  (1) 
109.8

>  <PUBCHEM_COORDINATE_TYPE>  (1) 
2
5
10

$$$$
