12667
     RDKit          3D

  9  8  0  0  0  0  0  0  0  0999 V2000
    3.8222   -0.7871    0.6254 F   0  0  0  0  0  0  0  0  0  0  0  0
   -2.8969    1.1693    0.3566 O   0  0  0  0  0  0  0  0  0  0  0  0
   -3.7229   -0.9304   -0.0852 N   0  0  0  0  0  0  0  0  0  0  0  0
    1.1524   -0.2264   -0.2602 C   0  0  0  0  0  0  0  0  0  0  0  0
   -0.2185    0.4137   -0.0379 C   0  0  0  0  0  0  0  0  0  0  0  0
    2.2745    0.8058   -0.1376 C   0  0  0  0  0  0  0  0  0  0  0  0
   -1.3418   -0.6083   -0.1953 C   0  0  0  0  0  0  0  0  0  0  0  0
    3.6412    0.1695   -0.3231 C   0  0  0  0  0  0  0  0  0  0  0  0
   -2.7100   -0.0063    0.0574 C   0  0  0  0  0  0  0  0  0  0  0  0
  1  8  1  0
  2  9  2  0
  3  9  1  0
  4  5  1  0
  4  6  1  0
  5  7  1  0
  6  8  1  0
  7  9  1  0
M  END
>  <PUBCHEM_COMPOUND_CID>  (1) 
12667

>  <PUBCHEM_CONFORMER_RMSD>  (1) 
0.6

>  <PUBCHEM_CONFORMER_DIVERSEORDER>  (1) 
1
33
26
4
51
89
62
9
47
13
96
57
2
28
53
84
72
12
82
71
94
60
11
8
45
91
37
86
39
27
5
79
88
38
78
56
93
31
18
10
16
48
34
15
36
24
17
46
52
74
67
92
30
61
95
44
83
73
29
19
23
40
68
21
6
87
69
50
20
77
43
7
70
25
41
59
64
49
85
32
3
76
14
90
80
42
54
58
81
22
35
63
66
55
75
65

>  <PUBCHEM_MMFF94_PARTIAL_CHARGES>  (1) 
8
1 -0.34
2 -0.57
20 0.37
21 0.37
3 -0.8
7 0.06
8 0.34
9 0.57

>  <PUBCHEM_EFFECTIVE_ROTOR_COUNT>  (1) 
5

>  <PUBCHEM_PHARMACOPHORE_FEATURES>  (1) 
3
1 2 acceptor
1 3 donor
4 4 5 6 7 hydrophobe

>  <PUBCHEM_HEAVY_ATOM_COUNT>  (1) 
9

>  <PUBCHEM_ATOM_DEF_STEREO_COUNT>  (1) 
0

>  <PUBCHEM_ATOM_UDEF_STEREO_COUNT>  (1) 
0

>  <PUBCHEM_BOND_DEF_STEREO_COUNT>  (1) 
0

>  <PUBCHEM_BOND_UDEF_STEREO_COUNT>  (1) 
0

>  <PUBCHEM_ISOTOPIC_ATOM_COUNT>  (1) 
0

>  <PUBCHEM_COMPONENT_COUNT>  (1) 
1

>  <PUBCHEM_CACTVS_TAUTO_COUNT>  (1) 
2

>  <PUBCHEM_CONFORMER_ID>  (1) 
0000317B00000001

>  <PUBCHEM_MMFF94_ENERGY>  (1) 
4.5769

>  <PUBCHEM_FEATURE_SELFOVERLAP>  (1) 
15.223

>  <PUBCHEM_SHAPE_FINGERPRINT>  (1) 
10219947 1 16950284013911621982
11062470 55 11167945761751092023
12932764 1 16486968488247163783
14325111 11 18411139147144970220
177051 138 18412545414138068142
190213 19 17312822697108840276
20211469 26 18261107500185627575
23402539 116 18201993340219222949

>  <PUBCHEM_SHAPE_MULTIPOLES>  (1) 
167.09
7.35
0.99
0.65
1.38
0.09
-0.01
-0.82
0.49
-0.3
0.06
0.18
-0.02
-0.35

>  <PUBCHEM_SHAPE_SELFOVERLAP>  (1) 
303.827

>  <PUBCHEM_SHAPE_VOLUME>  (1) 
106.4

>  <PUBCHEM_COORDINATE_TYPE>  (1) 
2
5
10

$$$$
