12669
     RDKit          3D

  2  1  0  0  0  0  0  0  0  0999 V2000
    0.0000    0.0000    0.0000 C   0  0  0  0  0  0  0  0  0  0  0  0
    0.5541    0.7996    0.4965 H   0  0  0  0  0  0  0  0  0  0  0  0
  1  2  1  0
M  ISO  1   2   2
M  END
>  <PUBCHEM_COMPOUND_CID>  (1) 
12669

>  <PUBCHEM_CONFORMER_RMSD>  (1) 
0.4

>  <PUBCHEM_CONFORMER_DIVERSEORDER>  (1) 
1

>  <PUBCHEM_MMFF94_PARTIAL_CHARGES>  (1) 
0

>  <PUBCHEM_EFFECTIVE_ROTOR_COUNT>  (1) 
0

>  <PUBCHEM_PHARMACOPHORE_FEATURES>  (1) 
0

>  <PUBCHEM_HEAVY_ATOM_COUNT>  (1) 
1

>  <PUBCHEM_ATOM_DEF_STEREO_COUNT>  (1) 
0

>  <PUBCHEM_ATOM_UDEF_STEREO_COUNT>  (1) 
0

>  <PUBCHEM_BOND_DEF_STEREO_COUNT>  (1) 
0

>  <PUBCHEM_BOND_UDEF_STEREO_COUNT>  (1) 
0

>  <PUBCHEM_ISOTOPIC_ATOM_COUNT>  (1) 
1

>  <PUBCHEM_COMPONENT_COUNT>  (1) 
1

>  <PUBCHEM_CACTVS_TAUTO_COUNT>  (1) 
1

>  <PUBCHEM_CONFORMER_ID>  (1) 
0000317D00000001

>  <PUBCHEM_MMFF94_ENERGY>  (1) 
0.0264

>  <PUBCHEM_FEATURE_SELFOVERLAP>  (1) 
0

>  <PUBCHEM_SHAPE_FINGERPRINT>  (1) 
260 1 18410856563934756871

>  <PUBCHEM_SHAPE_MULTIPOLES>  (1) 
20.58
0.62
0.62
0.62
0
0
0
0
0
0
0
0
0
0

>  <PUBCHEM_SHAPE_SELFOVERLAP>  (1) 
19.645

>  <PUBCHEM_SHAPE_VOLUME>  (1) 
20.6

>  <PUBCHEM_COORDINATE_TYPE>  (1) 
2
5
10

$$$$
