12665
     RDKit          3D

  7  7  0  0  0  0  0  0  0  0999 V2000
    2.3133   -0.0013    0.0090 O   0  0  0  0  0  0  0  0  0  0  0  0
    0.3517   -1.1794   -0.0053 N   0  0  0  0  0  0  0  0  0  0  0  0
   -1.8141   -0.0197   -0.3080 C   0  0  0  0  0  0  0  0  0  0  0  0
   -1.1462    1.1980    0.3093 C   0  0  0  0  0  0  0  0  0  0  0  0
   -1.0876   -1.2691    0.1532 C   0  0  0  0  0  0  0  0  0  0  0  0
    0.3017    1.2825   -0.1470 C   0  0  0  0  0  0  0  0  0  0  0  0
    1.0811   -0.0110   -0.0112 C   0  0  0  0  0  0  0  0  0  0  0  0
  1  7  2  0
  2  5  1  0
  2  7  1  0
  3  4  1  0
  3  5  1  0
  4  6  1  0
  6  7  1  0
M  END
>  <PUBCHEM_COMPOUND_CID>  (1) 
12665

>  <PUBCHEM_CONFORMER_RMSD>  (1) 
0.4

>  <PUBCHEM_CONFORMER_DIVERSEORDER>  (1) 
1

>  <PUBCHEM_MMFF94_PARTIAL_CHARGES>  (1) 
6
1 -0.57
16 0.37
2 -0.73
5 0.3
6 0.06
7 0.57

>  <PUBCHEM_EFFECTIVE_ROTOR_COUNT>  (1) 
1

>  <PUBCHEM_PHARMACOPHORE_FEATURES>  (1) 
3
1 1 acceptor
1 2 donor
6 2 3 4 5 6 7 rings

>  <PUBCHEM_HEAVY_ATOM_COUNT>  (1) 
7

>  <PUBCHEM_ATOM_DEF_STEREO_COUNT>  (1) 
0

>  <PUBCHEM_ATOM_UDEF_STEREO_COUNT>  (1) 
0

>  <PUBCHEM_BOND_DEF_STEREO_COUNT>  (1) 
0

>  <PUBCHEM_BOND_UDEF_STEREO_COUNT>  (1) 
0

>  <PUBCHEM_ISOTOPIC_ATOM_COUNT>  (1) 
0

>  <PUBCHEM_COMPONENT_COUNT>  (1) 
1

>  <PUBCHEM_CACTVS_TAUTO_COUNT>  (1) 
2

>  <PUBCHEM_CONFORMER_ID>  (1) 
0000317900000001

>  <PUBCHEM_MMFF94_ENERGY>  (1) 
5.8629

>  <PUBCHEM_FEATURE_SELFOVERLAP>  (1) 
15.223

>  <PUBCHEM_SHAPE_FINGERPRINT>  (1) 
16714656 1 18410579474262106300
18185500 45 18408601474223634647
20096714 4 18123754149411339913
21040471 1 18266743471818941097
23552423 10 18260836960206526758
29004967 10 18410579525690983139

>  <PUBCHEM_SHAPE_MULTIPOLES>  (1) 
133.21
2.27
1.48
0.63
0.68
0.04
0
-0.09
-0.07
-0.32
0.07
-0.08
0.03
-0.04

>  <PUBCHEM_SHAPE_SELFOVERLAP>  (1) 
258.661

>  <PUBCHEM_SHAPE_VOLUME>  (1) 
80.1

>  <PUBCHEM_COORDINATE_TYPE>  (1) 
2
5
10

$$$$
