12660
     RDKit          3D

  6  5  0  0  0  0  0  0  0  0999 V2000
   -2.4751    0.2343   -0.0001 O   0  0  0  0  0  0  0  0  0  0  0  0
    2.1207    0.7539    0.0000 N   0  0  0  0  0  0  0  0  0  0  0  0
    1.1037   -1.2887   -0.0001 N   0  0  0  0  0  0  0  0  0  0  0  0
   -0.2804    0.5848   -0.0001 N   0  0  0  0  0  0  0  0  0  0  0  0
   -1.3913   -0.3586    0.0002 N   0  0  0  0  0  0  0  0  0  0  0  0
    0.9224    0.0743    0.0001 C   0  0  0  0  0  0  0  0  0  0  0  0
  1  5  2  0
  2  6  1  0
  3  6  1  0
  4  5  1  0
  4  6  2  3
M  END
>  <PUBCHEM_COMPOUND_CID>  (1) 
12660

>  <PUBCHEM_CONFORMER_RMSD>  (1) 
0.4

>  <PUBCHEM_CONFORMER_DIVERSEORDER>  (1) 
1
2

>  <PUBCHEM_MMFF94_PARTIAL_CHARGES>  (1) 
10
1 -0.16
10 0.4
2 -0.85
3 -0.85
4 -0.33
5 0.04
6 0.55
7 0.4
8 0.4
9 0.4

>  <PUBCHEM_EFFECTIVE_ROTOR_COUNT>  (1) 
1

>  <PUBCHEM_PHARMACOPHORE_FEATURES>  (1) 
3
1 2 donor
1 3 donor
4 2 3 4 6 cation

>  <PUBCHEM_HEAVY_ATOM_COUNT>  (1) 
6

>  <PUBCHEM_ATOM_DEF_STEREO_COUNT>  (1) 
0

>  <PUBCHEM_ATOM_UDEF_STEREO_COUNT>  (1) 
0

>  <PUBCHEM_BOND_DEF_STEREO_COUNT>  (1) 
0

>  <PUBCHEM_BOND_UDEF_STEREO_COUNT>  (1) 
0

>  <PUBCHEM_ISOTOPIC_ATOM_COUNT>  (1) 
0

>  <PUBCHEM_COMPONENT_COUNT>  (1) 
1

>  <PUBCHEM_CACTVS_TAUTO_COUNT>  (1) 
3

>  <PUBCHEM_CONFORMER_ID>  (1) 
0000317400000001

>  <PUBCHEM_MMFF94_ENERGY>  (1) 
16.3034

>  <PUBCHEM_FEATURE_SELFOVERLAP>  (1) 
15.278

>  <PUBCHEM_SHAPE_FINGERPRINT>  (1) 
139733 1 9294988177016434147
14390081 3 18201717383616494185
20096714 4 18341612676139986792
21040471 1 18338799047470023334
29004967 10 18187372029601868329
5460574 1 9223237346970588545

>  <PUBCHEM_SHAPE_MULTIPOLES>  (1) 
97.68
2.86
0.97
0.53
1.22
0.25
0
-0.42
0
-0.41
0
-0.03
0
0

>  <PUBCHEM_SHAPE_SELFOVERLAP>  (1) 
175.466

>  <PUBCHEM_SHAPE_VOLUME>  (1) 
61.7

>  <PUBCHEM_COORDINATE_TYPE>  (1) 
2
5
10

$$$$
