12681
     RDKit          3D

 11 10  0  0  0  0  0  0  0  0999 V2000
   -2.2688    1.5500   -0.6388 O   0  0  0  0  0  0  0  0  0  0  0  0
   -1.6435    1.1425    1.4861 O   0  0  0  0  0  0  0  0  0  0  0  0
    3.4769    0.9519   -0.5270 O   0  0  0  0  0  0  0  0  0  0  0  0
    2.9455   -0.8227    0.7903 O   0  0  0  0  0  0  0  0  0  0  0  0
   -1.2453   -0.6124   -0.1651 C   0  0  0  0  0  0  0  0  0  0  0  0
    0.2616   -0.7714    0.1534 C   0  0  0  0  0  0  0  0  0  0  0  0
   -2.0130   -1.6892    0.6402 C   0  0  0  0  0  0  0  0  0  0  0  0
   -1.5662   -0.8635   -1.6481 C   0  0  0  0  0  0  0  0  0  0  0  0
    1.1860    0.2961   -0.4306 C   0  0  0  0  0  0  0  0  0  0  0  0
   -1.7415    0.7569    0.3255 C   0  0  0  0  0  0  0  0  0  0  0  0
    2.6083    0.0617    0.0141 C   0  0  0  0  0  0  0  0  0  0  0  0
  1 10  1  0
  2 10  2  0
  3 11  1  0
  4 11  2  0
  5  6  1  0
  5  7  1  0
  5  8  1  0
  5 10  1  0
  6  9  1  0
  9 11  1  0
M  END
>  <PUBCHEM_COMPOUND_CID>  (1) 
12681

>  <PUBCHEM_CONFORMER_RMSD>  (1) 
0.6

>  <PUBCHEM_CONFORMER_DIVERSEORDER>  (1) 
1
8
11
3
10
9
5
7
4
2
6

>  <PUBCHEM_MMFF94_PARTIAL_CHARGES>  (1) 
10
1 -0.65
10 0.66
11 0.66
2 -0.57
22 0.5
23 0.5
3 -0.65
4 -0.57
5 0.06
9 0.06

>  <PUBCHEM_EFFECTIVE_ROTOR_COUNT>  (1) 
4

>  <PUBCHEM_PHARMACOPHORE_FEATURES>  (1) 
7
1 1 acceptor
1 2 acceptor
1 3 acceptor
1 4 acceptor
3 1 2 10 anion
3 3 4 11 anion
3 5 7 8 hydrophobe

>  <PUBCHEM_HEAVY_ATOM_COUNT>  (1) 
11

>  <PUBCHEM_ATOM_DEF_STEREO_COUNT>  (1) 
0

>  <PUBCHEM_ATOM_UDEF_STEREO_COUNT>  (1) 
0

>  <PUBCHEM_BOND_DEF_STEREO_COUNT>  (1) 
0

>  <PUBCHEM_BOND_UDEF_STEREO_COUNT>  (1) 
0

>  <PUBCHEM_ISOTOPIC_ATOM_COUNT>  (1) 
0

>  <PUBCHEM_COMPONENT_COUNT>  (1) 
1

>  <PUBCHEM_CACTVS_TAUTO_COUNT>  (1) 
1

>  <PUBCHEM_CONFORMER_ID>  (1) 
0000318900000001

>  <PUBCHEM_MMFF94_ENERGY>  (1) 
19.8683

>  <PUBCHEM_FEATURE_SELFOVERLAP>  (1) 
35.644

>  <PUBCHEM_SHAPE_FINGERPRINT>  (1) 
12716758 59 17131834227017825358
12932741 1 15770053947743310478
12932764 1 17489590095249121918
13024252 1 13045935815970669799
15775835 57 18335988601191887412
19837323 101 17131561518216857745
20653085 51 18265613186908699557
21524375 3 17841998784593760321
3248919 1 18335409180365855594
369184 2 18113898268829552035
5084963 1 17386283315260287574
8030462 33 18340479054140454406

>  <PUBCHEM_SHAPE_MULTIPOLES>  (1) 
202.9
4.62
1.48
1.19
4.63
0.09
-0.15
0.48
0.02
-1.01
0.16
-0.6
-0.05
-0.36

>  <PUBCHEM_SHAPE_SELFOVERLAP>  (1) 
389.475

>  <PUBCHEM_SHAPE_VOLUME>  (1) 
124.2

>  <PUBCHEM_COORDINATE_TYPE>  (1) 
2
5
10

$$$$
