12699
     RDKit          3D

  7  6  0  0  0  0  0  0  0  0999 V2000
    2.0569    0.7102   -0.0001 O   0  0  0  0  0  0  0  0  0  0  0  0
   -2.4307   -0.3186    0.0000 O   0  0  0  0  0  0  0  0  0  0  0  0
   -0.2226    0.2718    0.0000 N   0  0  0  0  0  0  0  0  0  0  0  0
    1.3790   -1.4589    0.0002 N   0  0  0  0  0  0  0  0  0  0  0  0
   -1.2827   -0.7763   -0.0001 N   0  0  0  0  0  0  0  0  0  0  0  0
   -0.6256    1.6719    0.0002 C   0  0  0  0  0  0  0  0  0  0  0  0
    1.1257   -0.1001   -0.0001 C   0  0  0  0  0  0  0  0  0  0  0  0
  1  7  2  0
  2  5  2  0
  3  5  1  0
  3  6  1  0
  3  7  1  0
  4  7  1  0
M  END
>  <PUBCHEM_COMPOUND_CID>  (1) 
12699

>  <PUBCHEM_CONFORMER_RMSD>  (1) 
0.4

>  <PUBCHEM_CONFORMER_DIVERSEORDER>  (1) 
1
3
8
6
9
7
5
2
4

>  <PUBCHEM_MMFF94_PARTIAL_CHARGES>  (1) 
9
1 -0.57
11 0.37
12 0.37
2 -0.16
3 -0.18
4 -0.8
5 -0.02
6 0.3
7 0.69

>  <PUBCHEM_EFFECTIVE_ROTOR_COUNT>  (1) 
2

>  <PUBCHEM_PHARMACOPHORE_FEATURES>  (1) 
2
1 1 acceptor
1 4 donor

>  <PUBCHEM_HEAVY_ATOM_COUNT>  (1) 
7

>  <PUBCHEM_ATOM_DEF_STEREO_COUNT>  (1) 
0

>  <PUBCHEM_ATOM_UDEF_STEREO_COUNT>  (1) 
0

>  <PUBCHEM_BOND_DEF_STEREO_COUNT>  (1) 
0

>  <PUBCHEM_BOND_UDEF_STEREO_COUNT>  (1) 
0

>  <PUBCHEM_ISOTOPIC_ATOM_COUNT>  (1) 
0

>  <PUBCHEM_COMPONENT_COUNT>  (1) 
1

>  <PUBCHEM_CACTVS_TAUTO_COUNT>  (1) 
2

>  <PUBCHEM_CONFORMER_ID>  (1) 
0000319B00000001

>  <PUBCHEM_MMFF94_ENERGY>  (1) 
12.9053

>  <PUBCHEM_FEATURE_SELFOVERLAP>  (1) 
10.148

>  <PUBCHEM_SHAPE_FINGERPRINT>  (1) 
139733 1 9223235143520418945
16714656 1 18341618178066874700
18185500 45 18341048639559898167
20096714 4 18124033687283998988
21040471 1 18050567653426919172
23552423 10 18188778231954172358
24536 1 18194666095325100156
29004967 10 18334582390212478779
5460574 1 9222963568548885571

>  <PUBCHEM_SHAPE_MULTIPOLES>  (1) 
117.38
2.59
1.48
0.54
0.48
0.29
0
-0.44
0
-0.01
0
-0.01
0.03
0

>  <PUBCHEM_SHAPE_SELFOVERLAP>  (1) 
213.063

>  <PUBCHEM_SHAPE_VOLUME>  (1) 
75.2

>  <PUBCHEM_COORDINATE_TYPE>  (1) 
2
5
10

$$$$
