12693
     RDKit          3D

  6  5  0  0  0  0  0  0  0  0999 V2000
   -1.8961   -0.9738    0.0001 Cl  0  0  0  0  0  0  0  0  0  0  0  0
    1.0074   -1.4167    0.0000 O   0  0  0  0  0  0  0  0  0  0  0  0
    0.7425   -0.2140   -0.0001 C   0  0  0  0  0  0  0  0  0  0  0  0
    1.8516    0.8086    0.0001 C   0  0  0  0  0  0  0  0  0  0  0  0
   -0.6773    0.2527   -0.0001 C   0  0  0  0  0  0  0  0  0  0  0  0
   -1.0280    1.5432    0.0000 C   0  0  0  0  0  0  0  0  0  0  0  0
  1  5  1  0
  2  3  2  0
  3  4  1  0
  3  5  1  0
  5  6  2  0
M  END
>  <PUBCHEM_COMPOUND_CID>  (1) 
12693

>  <PUBCHEM_CONFORMER_RMSD>  (1) 
0.4

>  <PUBCHEM_CONFORMER_DIVERSEORDER>  (1) 
1
3
4
2

>  <PUBCHEM_MMFF94_PARTIAL_CHARGES>  (1) 
8
1 -0.14
10 0.15
11 0.15
2 -0.57
3 0.49
4 0.06
5 0.15
6 -0.3

>  <PUBCHEM_EFFECTIVE_ROTOR_COUNT>  (1) 
1

>  <PUBCHEM_PHARMACOPHORE_FEATURES>  (1) 
1
1 2 acceptor

>  <PUBCHEM_HEAVY_ATOM_COUNT>  (1) 
6

>  <PUBCHEM_ATOM_DEF_STEREO_COUNT>  (1) 
0

>  <PUBCHEM_ATOM_UDEF_STEREO_COUNT>  (1) 
0

>  <PUBCHEM_BOND_DEF_STEREO_COUNT>  (1) 
0

>  <PUBCHEM_BOND_UDEF_STEREO_COUNT>  (1) 
0

>  <PUBCHEM_ISOTOPIC_ATOM_COUNT>  (1) 
0

>  <PUBCHEM_COMPONENT_COUNT>  (1) 
1

>  <PUBCHEM_CACTVS_TAUTO_COUNT>  (1) 
2

>  <PUBCHEM_CONFORMER_ID>  (1) 
0000319500000001

>  <PUBCHEM_MMFF94_ENERGY>  (1) 
7.8476

>  <PUBCHEM_FEATURE_SELFOVERLAP>  (1) 
5.074

>  <PUBCHEM_SHAPE_FINGERPRINT>  (1) 
139733 1 9295022262145894563
16714656 1 18196095675231765348
20096714 4 18122346778743898960
21040471 1 18122626041754462372
24536 1 18267287755833840548
29004967 10 18262806309964339651

>  <PUBCHEM_SHAPE_MULTIPOLES>  (1) 
119.48
2.36
1.56
0.61
0.03
0.18
0
-0.21
0
-0.2
0
-0.03
0.02
0

>  <PUBCHEM_SHAPE_SELFOVERLAP>  (1) 
211.319

>  <PUBCHEM_SHAPE_VOLUME>  (1) 
79.1

>  <PUBCHEM_COORDINATE_TYPE>  (1) 
2
5
10

$$$$
