12700
     RDKit          3D

  8  7  0  0  0  0  0  0  0  0999 V2000
    1.8000   -0.3691    1.1612 O   0  0  0  0  0  0  0  0  0  0  0  0
   -1.1652   -0.2753   -0.0153 C   0  0  0  0  0  0  0  0  0  0  0  0
   -0.0854    0.5343    0.0405 C   0  0  0  0  0  0  0  0  0  0  0  0
   -0.1072    2.0341    0.0222 C   0  0  0  0  0  0  0  0  0  0  0  0
   -2.5783    0.2516   -0.0793 C   0  0  0  0  0  0  0  0  0  0  0  0
   -1.1097   -1.7841    0.0086 C   0  0  0  0  0  0  0  0  0  0  0  0
    1.2808   -0.0666    0.0890 C   0  0  0  0  0  0  0  0  0  0  0  0
    1.9649   -0.3250   -1.2270 C   0  0  0  0  0  0  0  0  0  0  0  0
  1  7  2  0
  2  3  2  3
  2  5  1  0
  2  6  1  0
  3  4  1  0
  3  7  1  0
  7  8  1  0
M  END
>  <PUBCHEM_COMPOUND_CID>  (1) 
12700

>  <PUBCHEM_CONFORMER_RMSD>  (1) 
0.4

>  <PUBCHEM_CONFORMER_DIVERSEORDER>  (1) 
1
3
2
5
4

>  <PUBCHEM_MMFF94_PARTIAL_CHARGES>  (1) 
8
1 -0.57
2 -0.28
3 -0.12
4 0.14
5 0.14
6 0.14
7 0.49
8 0.06

>  <PUBCHEM_EFFECTIVE_ROTOR_COUNT>  (1) 
1

>  <PUBCHEM_PHARMACOPHORE_FEATURES>  (1) 
3
1 1 acceptor
1 4 hydrophobe
3 2 5 6 hydrophobe

>  <PUBCHEM_HEAVY_ATOM_COUNT>  (1) 
8

>  <PUBCHEM_ATOM_DEF_STEREO_COUNT>  (1) 
0

>  <PUBCHEM_ATOM_UDEF_STEREO_COUNT>  (1) 
0

>  <PUBCHEM_BOND_DEF_STEREO_COUNT>  (1) 
0

>  <PUBCHEM_BOND_UDEF_STEREO_COUNT>  (1) 
0

>  <PUBCHEM_ISOTOPIC_ATOM_COUNT>  (1) 
0

>  <PUBCHEM_COMPONENT_COUNT>  (1) 
1

>  <PUBCHEM_CACTVS_TAUTO_COUNT>  (1) 
5

>  <PUBCHEM_CONFORMER_ID>  (1) 
0000319C00000001

>  <PUBCHEM_MMFF94_ENERGY>  (1) 
14.9038

>  <PUBCHEM_FEATURE_SELFOVERLAP>  (1) 
15.224

>  <PUBCHEM_SHAPE_FINGERPRINT>  (1) 
15310529 11 16805608070494497495
16714656 1 18339093591831762317
18185500 45 18187075174326262626
21040471 1 18338515231693983811
23211744 25 17536896720151124740
23552333 60 17458345212923907536
23552423 10 17827920942617133151
24536 1 17987804158090291235
29004967 10 17632579378727360130
5084963 1 17987243222313020949

>  <PUBCHEM_SHAPE_MULTIPOLES>  (1) 
158.77
2.82
1.64
0.92
0.42
0.36
0.01
-0.44
0.3
0.43
-0.01
-0.57
-0.12
0.06

>  <PUBCHEM_SHAPE_SELFOVERLAP>  (1) 
295.593

>  <PUBCHEM_SHAPE_VOLUME>  (1) 
101.2

>  <PUBCHEM_COORDINATE_TYPE>  (1) 
2
5
10

$$$$
