12717
     RDKit          3D

  8  7  0  0  0  0  0  0  0  0999 V2000
   -1.0476    1.8855    0.0934 O   0  0  0  0  0  0  0  0  0  0  0  0
    1.1557   -0.0434    1.3113 O   0  0  0  0  0  0  0  0  0  0  0  0
    2.5826   -0.3989   -0.4166 O   0  0  0  0  0  0  0  0  0  0  0  0
   -1.7510   -1.6291   -0.0450 O   0  0  0  0  0  0  0  0  0  0  0  0
   -0.8960    0.5200   -0.1969 N   0  0  0  0  0  0  0  0  0  0  0  0
    0.3050    0.2010   -0.9136 C   0  0  0  0  0  0  0  0  0  0  0  0
    1.4656   -0.1107   -0.0044 C   0  0  0  0  0  0  0  0  0  0  0  0
   -1.8143   -0.4244    0.1719 C   0  0  0  0  0  0  0  0  0  0  0  0
  1  5  1  0
  2  7  1  0
  3  7  2  0
  4  8  2  0
  5  6  1  0
  5  8  1  0
  6  7  1  0
M  END
>  <PUBCHEM_COMPOUND_CID>  (1) 
12717

>  <PUBCHEM_CONFORMER_RMSD>  (1) 
0.6

>  <PUBCHEM_CONFORMER_DIVERSEORDER>  (1) 
1
7
9
12
5
3
11
10
2
8
6
4

>  <PUBCHEM_MMFF94_PARTIAL_CHARGES>  (1) 
11
1 -0.44
11 0.06
12 0.4
13 0.5
2 -0.65
3 -0.57
4 -0.57
5 -0.32
6 0.36
7 0.66
8 0.57

>  <PUBCHEM_EFFECTIVE_ROTOR_COUNT>  (1) 
3

>  <PUBCHEM_PHARMACOPHORE_FEATURES>  (1) 
4
1 2 acceptor
1 3 acceptor
1 4 acceptor
3 2 3 7 anion

>  <PUBCHEM_HEAVY_ATOM_COUNT>  (1) 
8

>  <PUBCHEM_ATOM_DEF_STEREO_COUNT>  (1) 
0

>  <PUBCHEM_ATOM_UDEF_STEREO_COUNT>  (1) 
0

>  <PUBCHEM_BOND_DEF_STEREO_COUNT>  (1) 
0

>  <PUBCHEM_BOND_UDEF_STEREO_COUNT>  (1) 
0

>  <PUBCHEM_ISOTOPIC_ATOM_COUNT>  (1) 
0

>  <PUBCHEM_COMPONENT_COUNT>  (1) 
1

>  <PUBCHEM_CACTVS_TAUTO_COUNT>  (1) 
1

>  <PUBCHEM_CONFORMER_ID>  (1) 
000031AD00000001

>  <PUBCHEM_MMFF94_ENERGY>  (1) 
10.555

>  <PUBCHEM_FEATURE_SELFOVERLAP>  (1) 
20.357

>  <PUBCHEM_SHAPE_FINGERPRINT>  (1) 
16714656 1 18409737244049804015
18185500 45 17749103404751604827
21040471 1 18049999991673010013
23552333 60 17313090964950307169
23552449 11 17831844017364151779
24536 1 18339062809964766644
29004967 10 18270401731746102970
5084963 1 12823027438262060223
5943 1 13206349464141861749

>  <PUBCHEM_SHAPE_MULTIPOLES>  (1) 
136.18
2.79
1.31
0.89
0.82
0.31
0.13
-0.83
-0.02
-0.9
0.02
0.29
0
-0.02

>  <PUBCHEM_SHAPE_SELFOVERLAP>  (1) 
255.649

>  <PUBCHEM_SHAPE_VOLUME>  (1) 
84.2

>  <PUBCHEM_COORDINATE_TYPE>  (1) 
2
5
10

$$$$
