12715
     RDKit          3D

  8  7  0  0  1  0  0  0  0  0999 V2000
    1.8966   -0.4064    1.0981 O   0  0  0  0  0  0  0  0  0  0  0  0
    0.2751    0.1567   -0.4678 N   0  0  0  0  0  0  0  0  0  0  0  0
    2.4166    0.8997   -0.7168 N   0  0  0  0  0  0  0  0  0  0  0  0
   -0.8429   -0.5491    0.1583 C   0  0  0  0  0  0  0  0  0  0  0  0
   -2.1810    0.1448   -0.1418 C   0  0  0  0  0  0  0  0  0  0  0  0
   -0.8627   -1.9897   -0.3508 C   0  0  0  0  0  0  0  0  0  0  0  0
   -2.2482    1.5830    0.3560 C   0  0  0  0  0  0  0  0  0  0  0  0
    1.5464    0.1610    0.0648 C   0  0  0  0  0  0  0  0  0  0  0  0
  1  8  2  0
  2  4  1  0
  2  8  1  0
  3  8  1  0
  4  5  1  0
  4  6  1  0
  5  7  1  0
M  END
>  <PUBCHEM_COMPOUND_CID>  (1) 
12715

>  <PUBCHEM_CONFORMER_RMSD>  (1) 
0.6

>  <PUBCHEM_CONFORMER_DIVERSEORDER>  (1) 
1
11
4
9
3
2
6
7
10
8
5

>  <PUBCHEM_MMFF94_PARTIAL_CHARGES>  (1) 
8
1 -0.57
15 0.37
19 0.37
2 -0.73
20 0.37
3 -0.8
4 0.3
8 0.69

>  <PUBCHEM_EFFECTIVE_ROTOR_COUNT>  (1) 
3

>  <PUBCHEM_PHARMACOPHORE_FEATURES>  (1) 
4
1 1 acceptor
1 2 donor
1 3 donor
1 7 hydrophobe

>  <PUBCHEM_HEAVY_ATOM_COUNT>  (1) 
8

>  <PUBCHEM_ATOM_DEF_STEREO_COUNT>  (1) 
0

>  <PUBCHEM_ATOM_UDEF_STEREO_COUNT>  (1) 
1

>  <PUBCHEM_BOND_DEF_STEREO_COUNT>  (1) 
0

>  <PUBCHEM_BOND_UDEF_STEREO_COUNT>  (1) 
0

>  <PUBCHEM_ISOTOPIC_ATOM_COUNT>  (1) 
0

>  <PUBCHEM_COMPONENT_COUNT>  (1) 
1

>  <PUBCHEM_CACTVS_TAUTO_COUNT>  (1) 
3

>  <PUBCHEM_CONFORMER_ID>  (1) 
000031AB00000001

>  <PUBCHEM_MMFF94_ENERGY>  (1) 
4.9958

>  <PUBCHEM_FEATURE_SELFOVERLAP>  (1) 
20.353

>  <PUBCHEM_SHAPE_FINGERPRINT>  (1) 
100427 49 17405148912026643229
12932741 1 17203330073772049186
14390081 3 18341332287790294376
18185500 45 18043243746112652630
21040471 1 18342455911306142511
23552449 1 18127406984826533335
24536 1 18342167916653466270
29004967 10 15068622686325302812
5084963 1 17988648454181895349

>  <PUBCHEM_SHAPE_MULTIPOLES>  (1) 
148.8
3.42
1.63
0.82
0.6
0.54
-0.09
-1.51
-0.06
-0.89
0.11
0.33
-0.01
-0.4

>  <PUBCHEM_SHAPE_SELFOVERLAP>  (1) 
269.142

>  <PUBCHEM_SHAPE_VOLUME>  (1) 
96.2

>  <PUBCHEM_COORDINATE_TYPE>  (1) 
2
5
10

$$$$
