12729
     RDKit          3D

 15 14  0  0  0  0  0  0  0  0999 V2000
   -5.2432   -0.5044   -0.0119 O   0  0  0  0  0  0  0  0  0  0  0  0
   -4.2165    1.5604   -0.0562 O   0  0  0  0  0  0  0  0  0  0  0  0
    0.8968    0.3974   -0.0178 C   0  0  0  0  0  0  0  0  0  0  0  0
    2.1717   -0.4488    0.0190 C   0  0  0  0  0  0  0  0  0  0  0  0
   -0.3550   -0.4823   -0.0408 C   0  0  0  0  0  0  0  0  0  0  0  0
    3.4203    0.4340    0.0742 C   0  0  0  0  0  0  0  0  0  0  0  0
   -1.6297    0.3671   -0.0441 C   0  0  0  0  0  0  0  0  0  0  0  0
    4.7268   -0.3626    0.1438 C   0  0  0  0  0  0  0  0  0  0  0  0
   -2.8990   -0.4845   -0.0334 C   0  0  0  0  0  0  0  0  0  0  0  0
    5.9737    0.5218    0.2242 C   0  0  0  0  0  0  0  0  0  0  0  0
   -4.1686    0.3381   -0.0452 C   0  0  0  0  0  0  0  0  0  0  0  0
    7.2217   -0.3083    0.3030 C   0  0  0  0  0  0  0  0  0  0  0  0
   -6.5249    0.1321    0.0117 C   0  0  0  0  0  0  0  0  0  0  0  0
    8.2286   -0.2295   -0.5738 C   0  0  0  0  0  0  0  0  0  0  0  0
   -7.6026   -0.9305    0.0473 C   0  0  0  0  0  0  0  0  0  0  0  0
  1 11  1  0
  1 13  1  0
  2 11  2  0
  3  4  1  0
  3  5  1  0
  4  6  1  0
  5  7  1  0
  6  8  1  0
  7  9  1  0
  8 10  1  0
  9 11  1  0
 10 12  1  0
 12 14  2  0
 13 15  1  0
M  END
>  <PUBCHEM_COMPOUND_CID>  (1) 
12729

>  <PUBCHEM_CONFORMER_RMSD>  (1) 
1

>  <PUBCHEM_CONFORMER_DIVERSEORDER>  (1) 
1
61
116
15
136
117
90
100
73
107
83
125
110
29
47
40
41
99
33
124
31
45
69
56
70
32
77
91
92
126
11
111
66
138
23
34
119
121
57
132
103
49
62
130
82
72
133
54
25
27
109
79
48
67
89
53
129
35
51
30
113
26
7
104
39
44
96
36
98
123
58
5
19
102
118
37
114
122
86
10
135
17
134
8
64
112
95
106
80
60
24
76
18
93
97
74
50
75
13
46
127
6
81
108
87
88
42
137
12
52
59
68
131
21
4
128
22
55
65
84
120
94
20
63
14
38
115
2
16
78
71
28
139
85
3
9
101
105
43

>  <PUBCHEM_MMFF94_PARTIAL_CHARGES>  (1) 
11
1 -0.43
10 0.14
11 0.66
12 -0.29
13 0.28
14 -0.3
2 -0.57
32 0.15
35 0.15
36 0.15
9 0.06

>  <PUBCHEM_EFFECTIVE_ROTOR_COUNT>  (1) 
11

>  <PUBCHEM_PHARMACOPHORE_FEATURES>  (1) 
2
1 14 hydrophobe
1 2 acceptor

>  <PUBCHEM_HEAVY_ATOM_COUNT>  (1) 
15

>  <PUBCHEM_ATOM_DEF_STEREO_COUNT>  (1) 
0

>  <PUBCHEM_ATOM_UDEF_STEREO_COUNT>  (1) 
0

>  <PUBCHEM_BOND_DEF_STEREO_COUNT>  (1) 
0

>  <PUBCHEM_BOND_UDEF_STEREO_COUNT>  (1) 
0

>  <PUBCHEM_ISOTOPIC_ATOM_COUNT>  (1) 
0

>  <PUBCHEM_COMPONENT_COUNT>  (1) 
1

>  <PUBCHEM_CACTVS_TAUTO_COUNT>  (1) 
1

>  <PUBCHEM_CONFORMER_ID>  (1) 
000031B900000001

>  <PUBCHEM_MMFF94_ENERGY>  (1) 
2.7558

>  <PUBCHEM_FEATURE_SELFOVERLAP>  (1) 
10.148

>  <PUBCHEM_SHAPE_FINGERPRINT>  (1) 
10968037 39 18260265253162604123
11315181 36 13118004388256152013
12091667 2 17775283864068997117
13533116 47 17241035519392956104
14123256 10 18259984877217590291
14251764 18 18186800270707478754
14251764 46 18410293613981361551
155225 1 9943539505783925299
17834076 25 18335138691804426010
18006028 8 14056717950227449462
20281389 69 18410570695824135744
20621476 8 11743846858736707720
21095086 128 17918273155678786494
21150785 3 17312822684260933106
21267235 1 18411703201147846105
21315763 28 18409729556427784624
220451 1 14692566602722990284
22224240 67 15285639911076472440
23035841 295 12823294602265296405
23402539 116 18131344224576135060
23521765 1 18341894095129024866
246663 6 18272654558020100582
33532 11 18334573513074935762
33684 2 18413670210491445251
3545911 37 18131631188151836558
42788 4 18411417311155589272
4325135 7 18408322189680407639
59755656 520 18334569170198478070
67123 10 18409449207254446188
8209 1 18410573989446424942

>  <PUBCHEM_SHAPE_MULTIPOLES>  (1) 
296.95
25.27
0.92
0.64
9.07
0.13
-0.01
-3.26
-0.69
-0.79
0
0.31
-0.01
0.11

>  <PUBCHEM_SHAPE_SELFOVERLAP>  (1) 
542.59

>  <PUBCHEM_SHAPE_VOLUME>  (1) 
188.7

>  <PUBCHEM_COORDINATE_TYPE>  (1) 
2
5
10

$$$$
