12725
     RDKit          3D

  7  6  0  0  0  0  0  0  0  0999 V2000
    1.5034   -0.9965   -0.7595 O   0  0  0  0  0  0  0  0  0  0  0  0
    0.0344    0.5032    0.2422 N   0  0  0  0  0  0  0  0  0  0  0  0
    2.3050    0.7359    0.5158 N   0  0  0  0  0  0  0  0  0  0  0  0
   -1.1969   -0.0804   -0.2325 C   0  0  0  0  0  0  0  0  0  0  0  0
   -2.2517    0.9998   -0.4337 C   0  0  0  0  0  0  0  0  0  0  0  0
   -1.6847   -1.1560    0.7300 C   0  0  0  0  0  0  0  0  0  0  0  0
    1.2905   -0.0060   -0.0623 C   0  0  0  0  0  0  0  0  0  0  0  0
  1  7  2  0
  2  4  1  0
  2  7  1  0
  3  7  1  0
  4  5  1  0
  4  6  1  0
M  END
>  <PUBCHEM_COMPOUND_CID>  (1) 
12725

>  <PUBCHEM_CONFORMER_RMSD>  (1) 
0.4

>  <PUBCHEM_CONFORMER_DIVERSEORDER>  (1) 
2
1
3

>  <PUBCHEM_MMFF94_PARTIAL_CHARGES>  (1) 
8
1 -0.57
15 0.37
16 0.37
17 0.37
2 -0.73
3 -0.8
4 0.3
7 0.69

>  <PUBCHEM_EFFECTIVE_ROTOR_COUNT>  (1) 
2

>  <PUBCHEM_PHARMACOPHORE_FEATURES>  (1) 
4
1 1 acceptor
1 2 donor
1 3 donor
3 4 5 6 hydrophobe

>  <PUBCHEM_HEAVY_ATOM_COUNT>  (1) 
7

>  <PUBCHEM_ATOM_DEF_STEREO_COUNT>  (1) 
0

>  <PUBCHEM_ATOM_UDEF_STEREO_COUNT>  (1) 
0

>  <PUBCHEM_BOND_DEF_STEREO_COUNT>  (1) 
0

>  <PUBCHEM_BOND_UDEF_STEREO_COUNT>  (1) 
0

>  <PUBCHEM_ISOTOPIC_ATOM_COUNT>  (1) 
0

>  <PUBCHEM_COMPONENT_COUNT>  (1) 
1

>  <PUBCHEM_CACTVS_TAUTO_COUNT>  (1) 
3

>  <PUBCHEM_CONFORMER_ID>  (1) 
000031B500000002

>  <PUBCHEM_MMFF94_ENERGY>  (1) 
5.3466

>  <PUBCHEM_FEATURE_SELFOVERLAP>  (1) 
20.348

>  <PUBCHEM_SHAPE_FINGERPRINT>  (1) 
12932741 1 18341621403429039030
14390081 3 18273205409024541769
16714656 1 17822297838394751349
21040471 1 17896318021864683613
23552449 1 18261389009337694005
24536 1 18409730668359947781
29004967 10 18201164333483172602
5460574 1 8214144074984461829

>  <PUBCHEM_SHAPE_MULTIPOLES>  (1) 
128.23
3.22
1.17
0.8
0.45
0.16
0.03
-0.48
-0.11
-0.53
-0.05
0.1
0.1
0.54

>  <PUBCHEM_SHAPE_SELFOVERLAP>  (1) 
231.255

>  <PUBCHEM_SHAPE_VOLUME>  (1) 
83.2

>  <PUBCHEM_COORDINATE_TYPE>  (1) 
2
5
10

$$$$
