12733
     RDKit          3D

  6  5  0  0  0  0  0  0  0  0999 V2000
    2.7549   -0.9933    0.2711 Cl  0  0  0  0  0  0  0  0  0  0  0  0
   -0.4680   -0.3606   -0.4033 S   0  0  0  0  0  0  0  0  0  0  0  0
    0.7286    0.8568    0.1915 C   0  0  0  0  0  0  0  0  0  0  0  0
   -1.9689    0.3783    0.2968 C   0  0  0  0  0  0  0  0  0  0  0  0
    2.1396    0.5758   -0.3053 C   0  0  0  0  0  0  0  0  0  0  0  0
   -3.1862   -0.4571   -0.0509 C   0  0  0  0  0  0  0  0  0  0  0  0
  1  5  1  0
  2  3  1  0
  2  4  1  0
  3  5  1  0
  4  6  1  0
M  END
>  <PUBCHEM_COMPOUND_CID>  (1) 
12733

>  <PUBCHEM_CONFORMER_RMSD>  (1) 
0.4

>  <PUBCHEM_CONFORMER_DIVERSEORDER>  (1) 
1
10
16
14
17
2
5
3
15
11
6
4
13
9
8
12
7

>  <PUBCHEM_MMFF94_PARTIAL_CHARGES>  (1) 
5
1 -0.29
2 -0.46
3 0.23
4 0.23
5 0.29

>  <PUBCHEM_EFFECTIVE_ROTOR_COUNT>  (1) 
3

>  <PUBCHEM_PHARMACOPHORE_FEATURES>  (1) 
1
1 6 hydrophobe

>  <PUBCHEM_HEAVY_ATOM_COUNT>  (1) 
6

>  <PUBCHEM_ATOM_DEF_STEREO_COUNT>  (1) 
0

>  <PUBCHEM_ATOM_UDEF_STEREO_COUNT>  (1) 
0

>  <PUBCHEM_BOND_DEF_STEREO_COUNT>  (1) 
0

>  <PUBCHEM_BOND_UDEF_STEREO_COUNT>  (1) 
0

>  <PUBCHEM_ISOTOPIC_ATOM_COUNT>  (1) 
0

>  <PUBCHEM_COMPONENT_COUNT>  (1) 
1

>  <PUBCHEM_CACTVS_TAUTO_COUNT>  (1) 
1

>  <PUBCHEM_CONFORMER_ID>  (1) 
000031BD00000001

>  <PUBCHEM_MMFF94_ENERGY>  (1) 
4.1247

>  <PUBCHEM_FEATURE_SELFOVERLAP>  (1) 
5.074

>  <PUBCHEM_SHAPE_FINGERPRINT>  (1) 
12932741 1 16153716465418441065
14325111 11 18411138056376218813
14390081 3 9367341535403233711
20651381 32 18261104162700574541
23552333 60 18413392038307655784
29004967 10 17967535679292600592
5460574 1 7781523602753498133

>  <PUBCHEM_SHAPE_MULTIPOLES>  (1) 
129.2
5.05
1.06
0.72
1.41
0.04
-0.02
1.26
0.28
-0.48
0.04
-0.04
0.01
-0.22

>  <PUBCHEM_SHAPE_SELFOVERLAP>  (1) 
199.632

>  <PUBCHEM_SHAPE_VOLUME>  (1) 
93.6

>  <PUBCHEM_COORDINATE_TYPE>  (1) 
2
5
10

$$$$
