12732
     RDKit          3D

  6  5  0  0  0  0  0  0  0  0999 V2000
    0.5441   -0.2489   -0.0305 C   0  0  0  0  0  0  0  0  0  0  0  0
    1.8978    0.4606    0.0041 C   0  0  0  0  0  0  0  0  0  0  0  0
   -0.6103    0.7525    0.0012 C   0  0  0  0  0  0  0  0  0  0  0  0
    3.0480   -0.5337    0.0132 C   0  0  0  0  0  0  0  0  0  0  0  0
   -1.9086    0.0643    0.0046 C   0  0  0  0  0  0  0  0  0  0  0  0
   -2.9710   -0.4948    0.0074 C   0  0  0  0  0  0  0  0  0  0  0  0
  1  2  1  0
  1  3  1  0
  2  4  1  0
  3  5  1  0
  5  6  3  0
M  END
>  <PUBCHEM_COMPOUND_CID>  (1) 
12732

>  <PUBCHEM_CONFORMER_RMSD>  (1) 
0.4

>  <PUBCHEM_CONFORMER_DIVERSEORDER>  (1) 
1
8
6
7
4
5
3
2

>  <PUBCHEM_MMFF94_PARTIAL_CHARGES>  (1) 
4
16 0.18
3 0.2
5 -0.2
6 -0.18

>  <PUBCHEM_EFFECTIVE_ROTOR_COUNT>  (1) 
2

>  <PUBCHEM_PHARMACOPHORE_FEATURES>  (1) 
3
1 4 hydrophobe
1 6 hydrophobe
4 1 2 3 5 hydrophobe

>  <PUBCHEM_HEAVY_ATOM_COUNT>  (1) 
6

>  <PUBCHEM_ATOM_DEF_STEREO_COUNT>  (1) 
0

>  <PUBCHEM_ATOM_UDEF_STEREO_COUNT>  (1) 
0

>  <PUBCHEM_BOND_DEF_STEREO_COUNT>  (1) 
0

>  <PUBCHEM_BOND_UDEF_STEREO_COUNT>  (1) 
0

>  <PUBCHEM_ISOTOPIC_ATOM_COUNT>  (1) 
0

>  <PUBCHEM_COMPONENT_COUNT>  (1) 
1

>  <PUBCHEM_CACTVS_TAUTO_COUNT>  (1) 
1

>  <PUBCHEM_CONFORMER_ID>  (1) 
000031BC00000001

>  <PUBCHEM_MMFF94_ENERGY>  (1) 
-2.1415

>  <PUBCHEM_FEATURE_SELFOVERLAP>  (1) 
15.224

>  <PUBCHEM_SHAPE_FINGERPRINT>  (1) 
11062470 55 15647051568615982943
14325111 11 18410855464570841632
14390081 3 8358257033803525055
16714656 1 18412262843770513295
29004967 10 16773801389472961634
5460574 1 9223234043861098116

>  <PUBCHEM_SHAPE_MULTIPOLES>  (1) 
123.48
4.95
0.85
0.62
0.32
0.04
0
-1.2
0.04
0.04
0
0
0
0

>  <PUBCHEM_SHAPE_SELFOVERLAP>  (1) 
213.838

>  <PUBCHEM_SHAPE_VOLUME>  (1) 
81.9

>  <PUBCHEM_COORDINATE_TYPE>  (1) 
2
5
10

$$$$
