12737
     RDKit          3D

  7  6  0  0  0  0  0  0  0  0999 V2000
   -3.0413    1.2420    0.1593 Cl  0  0  0  0  0  0  0  0  0  0  0  0
    0.0228    0.0452   -0.4871 S   0  0  0  0  0  0  0  0  0  0  0  0
    2.8389    1.1311    0.1508 O   0  0  0  0  0  0  0  0  0  0  0  0
    1.4265   -0.8192    0.2818 C   0  0  0  0  0  0  0  0  0  0  0  0
   -1.3142   -0.8876    0.2920 C   0  0  0  0  0  0  0  0  0  0  0  0
    2.7550   -0.2471   -0.1869 C   0  0  0  0  0  0  0  0  0  0  0  0
   -2.6876   -0.4644   -0.2099 C   0  0  0  0  0  0  0  0  0  0  0  0
  1  7  1  0
  2  4  1  0
  2  5  1  0
  3  6  1  0
  4  6  1  0
  5  7  1  0
M  END
>  <PUBCHEM_COMPOUND_CID>  (1) 
12737

>  <PUBCHEM_CONFORMER_RMSD>  (1) 
0.6

>  <PUBCHEM_CONFORMER_DIVERSEORDER>  (1) 
1
42
21
6
39
20
16
43
5
4
19
36
30
27
8
40
12
18
13
11
41
34
37
23
35
25
17
22
38
7
14
26
31
10
24
15
9
29
3
33
28
32
2

>  <PUBCHEM_MMFF94_PARTIAL_CHARGES>  (1) 
8
1 -0.29
16 0.4
2 -0.46
3 -0.68
4 0.23
5 0.23
6 0.28
7 0.29

>  <PUBCHEM_EFFECTIVE_ROTOR_COUNT>  (1) 
4

>  <PUBCHEM_PHARMACOPHORE_FEATURES>  (1) 
2
1 3 acceptor
1 3 donor

>  <PUBCHEM_HEAVY_ATOM_COUNT>  (1) 
7

>  <PUBCHEM_ATOM_DEF_STEREO_COUNT>  (1) 
0

>  <PUBCHEM_ATOM_UDEF_STEREO_COUNT>  (1) 
0

>  <PUBCHEM_BOND_DEF_STEREO_COUNT>  (1) 
0

>  <PUBCHEM_BOND_UDEF_STEREO_COUNT>  (1) 
0

>  <PUBCHEM_ISOTOPIC_ATOM_COUNT>  (1) 
0

>  <PUBCHEM_COMPONENT_COUNT>  (1) 
1

>  <PUBCHEM_CACTVS_TAUTO_COUNT>  (1) 
1

>  <PUBCHEM_CONFORMER_ID>  (1) 
000031C100000001

>  <PUBCHEM_MMFF94_ENERGY>  (1) 
6.6502

>  <PUBCHEM_FEATURE_SELFOVERLAP>  (1) 
10.148

>  <PUBCHEM_SHAPE_FINGERPRINT>  (1) 
12932764 1 17603579699341528886
14325111 11 18411418405918647047
14390081 3 18412261744221936209
20651381 32 16988566758096069926
21293036 1 15338828785532072273
29004967 10 14851606561507657055
3248919 1 17530969111116046215
5460574 1 10447932771420400383

>  <PUBCHEM_SHAPE_MULTIPOLES>  (1) 
143.91
5.53
1.23
0.7
0.16
0.24
-0.03
1.64
0.18
-0.27
0.11
-0.05
-0.02
-0.06

>  <PUBCHEM_SHAPE_SELFOVERLAP>  (1) 
229.71

>  <PUBCHEM_SHAPE_VOLUME>  (1) 
102.4

>  <PUBCHEM_COORDINATE_TYPE>  (1) 
2
5
10

$$$$
