1273
     RDKit          3D

 23 23  0  0  1  0  0  0  0  0999 V2000
    0.4879    2.2980    0.2727 S   0  0  0  0  0  0  0  0  0  0  0  0
   -4.5090    1.6335   -0.6895 O   0  0  0  0  0  0  0  0  0  0  0  0
   -3.2107    1.5210    1.1642 O   0  0  0  0  0  0  0  0  0  0  0  0
    0.0489    2.3117    1.6552 O   0  0  0  0  0  0  0  0  0  0  0  0
    0.9169    3.5260   -0.3688 O   0  0  0  0  0  0  0  0  0  0  0  0
   -2.5266   -2.6758    1.4194 O   0  0  0  0  0  0  0  0  0  0  0  0
    5.8329   -1.4182   -1.1091 O   0  0  0  0  0  0  0  0  0  0  0  0
    5.0826   -2.5023    0.6461 O   0  0  0  0  0  0  0  0  0  0  0  0
   -0.7029    1.5615   -0.6903 N   0  0  0  0  0  0  0  0  0  0  0  0
    4.9968   -1.5660   -0.1850 N   0  0  0  0  0  0  0  0  0  0  0  0
   -2.6841    0.0705   -0.7224 C   0  0  0  0  0  0  0  0  0  0  0  0
   -3.2422   -1.3524   -0.4762 C   0  0  0  0  0  0  0  0  0  0  0  0
   -1.1981    0.2096   -0.3467 C   0  0  0  0  0  0  0  0  0  0  0  0
   -4.6873   -1.5664   -0.9601 C   0  0  0  0  0  0  0  0  0  0  0  0
   -3.4699    1.1387    0.0297 C   0  0  0  0  0  0  0  0  0  0  0  0
   -3.1823   -1.7295    0.9932 C   0  0  0  0  0  0  0  0  0  0  0  0
   -5.1640   -3.0047   -0.8187 C   0  0  0  0  0  0  0  0  0  0  0  0
    1.8263    1.1511    0.1371 C   0  0  0  0  0  0  0  0  0  0  0  0
    2.7507    1.3085   -0.8810 C   0  0  0  0  0  0  0  0  0  0  0  0
    1.9250    0.1162    1.0512 C   0  0  0  0  0  0  0  0  0  0  0  0
    3.8066    0.4034   -0.9885 C   0  0  0  0  0  0  0  0  0  0  0  0
    2.9808   -0.7889    0.9438 C   0  0  0  0  0  0  0  0  0  0  0  0
    3.9216   -0.6454   -0.0761 C   0  0  0  0  0  0  0  0  0  0  0  0
  1  4  2  0
  1  5  2  0
  1  9  1  0
  1 18  1  0
  2 15  1  0
  3 15  2  0
  6 16  2  0
  7 10  1  0
  8 10  2  0
  9 13  1  0
 10 23  1  0
 11 12  1  0
 11 13  1  0
 11 15  1  0
 12 14  1  0
 12 16  1  0
 14 17  1  0
 18 19  2  0
 18 20  1  0
 19 21  1  0
 20 22  2  0
 21 23  2  0
 22 23  1  0
M  CHG  2   7  -1  10   1
M  END
>  <PUBCHEM_COMPOUND_CID>  (1) 
1273

>  <PUBCHEM_CONFORMER_RMSD>  (1) 
1

>  <PUBCHEM_CONFORMER_DIVERSEORDER>  (1) 
1
46
42
18
24
50
47
54
53
32
14
26
39
35
12
28
10
48
33
5
19
41
25
45
23
51
9
29
38
6
36
52
7
21
22
15
11
37
40
16
20
3
44
31
13
43
34
4
30
27
2
17
8
49

>  <PUBCHEM_MMFF94_PARTIAL_CHARGES>  (1) 
28
1 1.45
10 0.91
11 0.06
12 0.06
13 0.36
15 0.66
16 0.45
18 -0.01
19 -0.15
2 -0.65
20 -0.15
21 -0.15
22 -0.15
23 0.13
3 -0.57
30 0.42
31 0.06
35 0.15
36 0.15
37 0.5
38 0.15
39 0.15
4 -0.65
5 -0.65
6 -0.57
7 -0.52
8 -0.52
9 -0.91

>  <PUBCHEM_EFFECTIVE_ROTOR_COUNT>  (1) 
9

>  <PUBCHEM_PHARMACOPHORE_FEATURES>  (1) 
12
1 17 hydrophobe
1 2 acceptor
1 3 acceptor
1 4 acceptor
1 5 acceptor
1 6 acceptor
1 7 acceptor
1 7 anion
1 8 acceptor
1 9 donor
3 2 3 15 anion
6 18 19 20 21 22 23 rings

>  <PUBCHEM_HEAVY_ATOM_COUNT>  (1) 
23

>  <PUBCHEM_ATOM_DEF_STEREO_COUNT>  (1) 
0

>  <PUBCHEM_ATOM_UDEF_STEREO_COUNT>  (1) 
0

>  <PUBCHEM_BOND_DEF_STEREO_COUNT>  (1) 
0

>  <PUBCHEM_BOND_UDEF_STEREO_COUNT>  (1) 
0

>  <PUBCHEM_ISOTOPIC_ATOM_COUNT>  (1) 
0

>  <PUBCHEM_COMPONENT_COUNT>  (1) 
1

>  <PUBCHEM_CACTVS_TAUTO_COUNT>  (1) 
2

>  <PUBCHEM_CONFORMER_ID>  (1) 
000004F900000001

>  <PUBCHEM_MMFF94_ENERGY>  (1) 
38.3791

>  <PUBCHEM_FEATURE_SELFOVERLAP>  (1) 
61.06

>  <PUBCHEM_SHAPE_FINGERPRINT>  (1) 
11796584 16 18270964531792413654
12553582 1 18261384503721737504
12596602 18 14117217448259529870
12788726 201 18120088377766161320
13009979 54 18131360703938823696
13533116 47 18196370553708570895
13955234 65 17838334443051079065
14251757 5 18188212004935345068
14251764 30 17775019972477744798
14866123 147 18339925905713742459
15188451 53 16486964151000485287
15352361 1 18411134744861787022
15537594 2 18188215290638197794
17492 89 18268705190100740927
20281475 54 18410292514602012004
20626108 58 18412256259643852632
20645477 70 18121491616743394661
20775438 99 17262969942664617855
21033648 29 15267070215833996081
21279426 13 18262501698758506455
221357 26 18335138743196886299
221490 88 18261682587716705264
22950370 63 18411422791312306548
23379529 103 18339372898473156398
23559900 14 18266728251193465357
238078 22 18335709312664578488
3004659 81 18260265227261022726
312423 11 18269562809207322757
44062 13 18411133624270643557
5104073 3 17917995009760497537
5486654 36 18335714848777086249
559249 180 18338231562221184647
59755656 520 18339637842669085333
7970288 3 18411694353616118966
9709674 26 18191862538633053163

>  <PUBCHEM_SHAPE_MULTIPOLES>  (1) 
426.13
11.84
3.42
1.24
2.3
0.28
0.25
-10.43
-2.93
-0.84
0.31
-0.1
-0.11
-0.38

>  <PUBCHEM_SHAPE_SELFOVERLAP>  (1) 
860.729

>  <PUBCHEM_SHAPE_VOLUME>  (1) 
248.9

>  <PUBCHEM_COORDINATE_TYPE>  (1) 
2
5
10

$$$$
