12744
     RDKit          3D

 12 11  0  0  0  0  0  0  0  0999 V2000
    7.3274   -0.5539    0.1011 Br  0  0  0  0  0  0  0  0  0  0  0  0
   -0.6502   -0.4131   -0.0752 C   0  0  0  0  0  0  0  0  0  0  0  0
    0.5879    0.4857   -0.0421 C   0  0  0  0  0  0  0  0  0  0  0  0
   -1.9679    0.3674   -0.0179 C   0  0  0  0  0  0  0  0  0  0  0  0
    1.9052   -0.2972   -0.0192 C   0  0  0  0  0  0  0  0  0  0  0  0
   -3.2448   -0.4774   -0.0692 C   0  0  0  0  0  0  0  0  0  0  0  0
    3.1850    0.5462   -0.0478 C   0  0  0  0  0  0  0  0  0  0  0  0
   -4.5270    0.3480    0.0547 C   0  0  0  0  0  0  0  0  0  0  0  0
    4.4671   -0.2918    0.0141 C   0  0  0  0  0  0  0  0  0  0  0  0
   -5.7678   -0.5443    0.0058 C   0  0  0  0  0  0  0  0  0  0  0  0
    5.7308    0.5555    0.0044 C   0  0  0  0  0  0  0  0  0  0  0  0
   -7.0457    0.2752    0.0912 C   0  0  0  0  0  0  0  0  0  0  0  0
  1 11  1  0
  2  3  1  0
  2  4  1  0
  3  5  1  0
  4  6  1  0
  5  7  1  0
  6  8  1  0
  7  9  1  0
  8 10  1  0
  9 11  1  0
 10 12  1  0
M  END
>  <PUBCHEM_COMPOUND_CID>  (1) 
12744

>  <PUBCHEM_CONFORMER_RMSD>  (1) 
0.8

>  <PUBCHEM_CONFORMER_DIVERSEORDER>  (1) 
1
388
18
179
379
301
198
106
348
16
102
175
19
138
264
389
105
14
244
341
215
11
190
306
49
103
240
89
364
100
7
99
352
94
110
140
241
122
72
115
60
101
92
375
331
20
54
300
169
282
22
176
286
145
214
31
289
9
278
182
37
230
84
315
174
109
2
381
34
108
86
112
374
231
73
353
129
194
61
177
127
71
260
225
195
180
120
201
41
222
151
135
354
25
121
56
126
358
371
224
134
69
168
266
234
228
45
304
298
336
256
114
207
226
385
181
296
184
95
26
52
251
197
249
46
295
369
77
186
317
383
6
47
28
253
337
360
65
130
144
137
328
27
196
218
3
216
192
199
372
74
23
382
361
288
141
211
131
322
299
311
116
85
210
293
83
166
263
75
24
76
30
254
279
36
133
173
17
320
318
334
143
161
63
185
188
330
90
221
66
38
233
368
163
200
343
4
57
313
213
98
325
119
159
8
326
32
155
97
356
324
310
43
136
70
347
35
284
44
384
104
345
223
272
59
160
359
48
242
238
67
350
329
12
149
167
171
68
191
245
351
111
157
247
212
162
344
237
21
118
154
287
124
309
276
53
373
204
268
164
51
15
281
362
152
285
227
387
58
376
270
262
5
220
219
139
81
156
187
146
165
239
13
271
150
292
273
10
229
274
183
132
297
342
78
202
39
29
107
323
319
208
172
178
153
302
386
252
193
257
366
370
250
314
142
42
206
265
280
232
40
170
307
91
125
283
205
93
123
55
96
303
255
33
316
349
346
333
62
340
64
258
209
267
335
339
308
236
80
50
332
235
290
79
261
357
82
291
365
117
305
189
363
87
248
113
217
243
259
88
380
277
128
378
338
147
294
246
158
269
327
367
148
203
312
275
321
377
355

>  <PUBCHEM_MMFF94_PARTIAL_CHARGES>  (1) 
2
1 -0.23
11 0.23

>  <PUBCHEM_EFFECTIVE_ROTOR_COUNT>  (1) 
9

>  <PUBCHEM_PHARMACOPHORE_FEATURES>  (1) 
2
1 1 hydrophobe
1 12 hydrophobe

>  <PUBCHEM_HEAVY_ATOM_COUNT>  (1) 
12

>  <PUBCHEM_ATOM_DEF_STEREO_COUNT>  (1) 
0

>  <PUBCHEM_ATOM_UDEF_STEREO_COUNT>  (1) 
0

>  <PUBCHEM_BOND_DEF_STEREO_COUNT>  (1) 
0

>  <PUBCHEM_BOND_UDEF_STEREO_COUNT>  (1) 
0

>  <PUBCHEM_ISOTOPIC_ATOM_COUNT>  (1) 
0

>  <PUBCHEM_COMPONENT_COUNT>  (1) 
1

>  <PUBCHEM_CACTVS_TAUTO_COUNT>  (1) 
1

>  <PUBCHEM_CONFORMER_ID>  (1) 
000031C800000001

>  <PUBCHEM_MMFF94_ENERGY>  (1) 
-2.067

>  <PUBCHEM_FEATURE_SELFOVERLAP>  (1) 
10.149

>  <PUBCHEM_SHAPE_FINGERPRINT>  (1) 
12091667 2 18040152921002452503
13533116 47 16878212087905470616
1420 363 17603307050612100426
14251764 18 18411138021742147866
14251764 46 17561365080164439118
14729087 3 14620800371161759155
17834076 25 18410573989451693186
20281389 69 18410571790861500096
20621476 8 18186518778508583887
22224240 67 14979951471950291604
23035841 295 18334293171446870970
23402539 116 17989200464695430005
23521765 1 18341895190345678852
28498 318 18410855426364704502
33684 2 18410572877049895275
42788 4 18410573989741921492
57583515 80 18335422370247065785
8209 1 18410573985156732405

>  <PUBCHEM_SHAPE_MULTIPOLES>  (1) 
252.9
21.3
0.83
0.63
1.59
0.01
0
1.53
-0.9
0.23
0
0.08
0.01
-0.07

>  <PUBCHEM_SHAPE_SELFOVERLAP>  (1) 
432.011

>  <PUBCHEM_SHAPE_VOLUME>  (1) 
169.9

>  <PUBCHEM_COORDINATE_TYPE>  (1) 
2
5
10

$$$$
