12746
     RDKit          3D

  6  6  0  0  0  0  0  0  0  0999 V2000
   -1.4704   -0.7306    0.1541 C   0  0  0  0  0  0  0  0  0  0  0  0
   -0.0479   -1.2139   -0.1287 C   0  0  0  0  0  0  0  0  0  0  0  0
   -1.4653    0.7782   -0.0857 C   0  0  0  0  0  0  0  0  0  0  0  0
    0.7593    0.0393   -0.0043 C   0  0  0  0  0  0  0  0  0  0  0  0
   -0.0191    1.1272    0.0207 C   0  0  0  0  0  0  0  0  0  0  0  0
    2.2433   -0.0002    0.0439 C   0  0  0  0  0  0  0  0  0  0  0  0
  1  2  1  0
  1  3  1  0
  2  4  1  0
  3  5  1  0
  4  5  2  0
  4  6  1  0
M  END
>  <PUBCHEM_COMPOUND_CID>  (1) 
12746

>  <PUBCHEM_CONFORMER_RMSD>  (1) 
0.4

>  <PUBCHEM_CONFORMER_DIVERSEORDER>  (1) 
1

>  <PUBCHEM_MMFF94_PARTIAL_CHARGES>  (1) 
6
13 0.15
2 0.14
3 0.14
4 -0.28
5 -0.29
6 0.14

>  <PUBCHEM_EFFECTIVE_ROTOR_COUNT>  (1) 
0.6

>  <PUBCHEM_PHARMACOPHORE_FEATURES>  (1) 
1
5 1 2 3 4 5 rings

>  <PUBCHEM_HEAVY_ATOM_COUNT>  (1) 
6

>  <PUBCHEM_ATOM_DEF_STEREO_COUNT>  (1) 
0

>  <PUBCHEM_ATOM_UDEF_STEREO_COUNT>  (1) 
0

>  <PUBCHEM_BOND_DEF_STEREO_COUNT>  (1) 
0

>  <PUBCHEM_BOND_UDEF_STEREO_COUNT>  (1) 
0

>  <PUBCHEM_ISOTOPIC_ATOM_COUNT>  (1) 
0

>  <PUBCHEM_COMPONENT_COUNT>  (1) 
1

>  <PUBCHEM_CACTVS_TAUTO_COUNT>  (1) 
1

>  <PUBCHEM_CONFORMER_ID>  (1) 
000031CA00000001

>  <PUBCHEM_MMFF94_ENERGY>  (1) 
2.5774

>  <PUBCHEM_FEATURE_SELFOVERLAP>  (1) 
5.074

>  <PUBCHEM_SHAPE_FINGERPRINT>  (1) 
139733 1 9439140744171496658
16714656 1 18410580595301292110
20096714 4 18338798896940485144
21015797 1 9149442520123310989
21040471 1 18266177223346473717
23552423 10 18260272910762583142
29004967 10 18261399999984684514
5943 1 13874812912645392907

>  <PUBCHEM_SHAPE_MULTIPOLES>  (1) 
123.48
2.27
1.26
0.62
0.9
0.05
0
-0.02
-0.06
-0.29
0.02
-0.01
0.01
0.04

>  <PUBCHEM_SHAPE_SELFOVERLAP>  (1) 
241.011

>  <PUBCHEM_SHAPE_VOLUME>  (1) 
75

>  <PUBCHEM_COORDINATE_TYPE>  (1) 
2
5
10

$$$$
