12745
     RDKit          3D

 20 19  0  0  0  0  0  0  0  0999 V2000
   -6.9957   -0.6958   -0.4535 O   0  0  0  0  0  0  0  0  0  0  0  0
   -5.5430    0.8673    0.3209 O   0  0  0  0  0  0  0  0  0  0  0  0
    0.1998   -2.6694    0.0280 C   0  0  0  0  0  0  0  0  0  0  0  0
    1.6247   -2.2320    0.3850 C   0  0  0  0  0  0  0  0  0  0  0  0
   -0.8519   -1.5929    0.3070 C   0  0  0  0  0  0  0  0  0  0  0  0
    2.7334   -3.2341    0.0473 C   0  0  0  0  0  0  0  0  0  0  0  0
   -2.2689   -2.0071   -0.1038 C   0  0  0  0  0  0  0  0  0  0  0  0
    2.6748    1.8395   -0.3094 C   0  0  0  0  0  0  0  0  0  0  0  0
    1.8252    3.0207    0.1660 C   0  0  0  0  0  0  0  0  0  0  0  0
    4.1705    2.1287   -0.1375 C   0  0  0  0  0  0  0  0  0  0  0  0
    4.1385   -2.7204    0.3707 C   0  0  0  0  0  0  0  0  0  0  0  0
   -3.3075   -0.8997    0.1064 C   0  0  0  0  0  0  0  0  0  0  0  0
    0.3227    2.8140   -0.0475 C   0  0  0  0  0  0  0  0  0  0  0  0
    5.0608    0.9600   -0.5729 C   0  0  0  0  0  0  0  0  0  0  0  0
    4.4382   -1.4626   -0.3926 C   0  0  0  0  0  0  0  0  0  0  0  0
   -0.5215    4.0221    0.3604 C   0  0  0  0  0  0  0  0  0  0  0  0
    4.7767   -0.3022    0.1884 C   0  0  0  0  0  0  0  0  0  0  0  0
   -4.7160   -1.3396   -0.2969 C   0  0  0  0  0  0  0  0  0  0  0  0
   -2.0041    3.7617    0.1410 C   0  0  0  0  0  0  0  0  0  0  0  0
   -5.7567   -0.2583   -0.1068 C   0  0  0  0  0  0  0  0  0  0  0  0
  1 20  1  0
  2 20  2  0
  3  4  1  0
  3  5  1  0
  4  6  1  0
  5  7  1  0
  6 11  1  0
  7 12  1  0
  8  9  1  0
  8 10  1  0
  9 13  1  0
 10 14  1  0
 11 15  1  0
 12 18  1  0
 13 16  1  0
 14 17  1  0
 15 17  2  0
 16 19  1  0
 18 20  1  0
M  END
>  <PUBCHEM_COMPOUND_CID>  (1) 
12745

>  <PUBCHEM_CONFORMER_RMSD>  (1) 
1.4

>  <PUBCHEM_CONFORMER_DIVERSEORDER>  (1) 
1
3
69
67
6
60
68
28
59
43
82
56
2
65
87
85
81
38
32
8
42
19
29
64
14
49
45
83
53
36
10
30
34
35
75
72
47
89
20
76
22
70
13
73
41
77
9
39
27
23
7
80
51
71
21
74
46
11
25
37
15
62
18
24
79
5
12
88
78
48
63
40
54
33
58
17
55
31
66
44
52
84
16
86
26
61
57
4
50

>  <PUBCHEM_MMFF94_PARTIAL_CHARGES>  (1) 
11
1 -0.65
11 0.14
14 0.14
15 -0.29
17 -0.29
18 0.06
2 -0.57
20 0.66
45 0.15
48 0.15
54 0.5

>  <PUBCHEM_EFFECTIVE_ROTOR_COUNT>  (1) 
15

>  <PUBCHEM_PHARMACOPHORE_FEATURES>  (1) 
4
1 1 acceptor
1 19 hydrophobe
1 2 acceptor
3 1 2 20 anion

>  <PUBCHEM_HEAVY_ATOM_COUNT>  (1) 
20

>  <PUBCHEM_ATOM_DEF_STEREO_COUNT>  (1) 
0

>  <PUBCHEM_ATOM_UDEF_STEREO_COUNT>  (1) 
0

>  <PUBCHEM_BOND_DEF_STEREO_COUNT>  (1) 
0

>  <PUBCHEM_BOND_UDEF_STEREO_COUNT>  (1) 
1

>  <PUBCHEM_ISOTOPIC_ATOM_COUNT>  (1) 
0

>  <PUBCHEM_COMPONENT_COUNT>  (1) 
1

>  <PUBCHEM_CACTVS_TAUTO_COUNT>  (1) 
1

>  <PUBCHEM_CONFORMER_ID>  (1) 
000031C900000001

>  <PUBCHEM_MMFF94_ENERGY>  (1) 
-0.5218

>  <PUBCHEM_FEATURE_SELFOVERLAP>  (1) 
20.356

>  <PUBCHEM_SHAPE_FINGERPRINT>  (1) 
12838862 33 18338783633449888272
14464042 87 18273219681226863649
14681490 219 18410289216346541117
14784336 7 17915737785761936897
15483637 11 18120936101310505269
16760501 71 18337678606773192915
17093844 170 18267582584660817096
20621476 13 18122347041116595336
21298829 104 18342742935502127232
21344244 78 17972290977237384786
3014063 31 18410292501906754228
338550 245 18262808367106514068
59755656 215 18409171025710692740
6443956 14 18336830904687633332

>  <PUBCHEM_SHAPE_MULTIPOLES>  (1) 
399.85
13.79
5.68
0.69
17.36
4.28
0.01
-3.88
1.69
-2.5
-0.58
-0.12
0
-0.75

>  <PUBCHEM_SHAPE_SELFOVERLAP>  (1) 
733.336

>  <PUBCHEM_SHAPE_VOLUME>  (1) 
252.6

>  <PUBCHEM_COORDINATE_TYPE>  (1) 
2
5
10

$$$$
