12740
     RDKit          3D

  9  8  0  0  0  0  0  0  0  0999 V2000
   -3.8318   -1.1115   -0.4830 F   0  0  0  0  0  0  0  0  0  0  0  0
    3.8469   -1.1647    0.2332 O   0  0  0  0  0  0  0  0  0  0  0  0
   -0.0108    0.7988   -0.0782 C   0  0  0  0  0  0  0  0  0  0  0  0
   -1.2540   -0.0361    0.2344 C   0  0  0  0  0  0  0  0  0  0  0  0
    1.2678   -0.0226    0.0910 C   0  0  0  0  0  0  0  0  0  0  0  0
   -2.5343    0.7764    0.0339 C   0  0  0  0  0  0  0  0  0  0  0  0
    2.5054    0.7995   -0.2535 C   0  0  0  0  0  0  0  0  0  0  0  0
   -3.7720   -0.0435    0.3561 C   0  0  0  0  0  0  0  0  0  0  0  0
    3.7828    0.0036   -0.1337 C   0  0  0  0  0  0  0  0  0  0  0  0
  1  8  1  0
  2  9  2  0
  3  4  1  0
  3  5  1  0
  4  6  1  0
  5  7  1  0
  6  8  1  0
  7  9  1  0
M  END
>  <PUBCHEM_COMPOUND_CID>  (1) 
12740

>  <PUBCHEM_CONFORMER_RMSD>  (1) 
0.6

>  <PUBCHEM_CONFORMER_DIVERSEORDER>  (1) 
1
58
115
89
122
22
3
28
116
4
123
18
95
37
120
71
114
42
19
35
108
48
88
118
61
117
103
13
59
27
110
70
6
64
91
124
113
45
12
97
72
39
76
82
34
67
126
15
106
47
96
98
94
100
21
93
53
40
90
32
83
77
10
56
68
30
99
36
92
109
20
87
46
119
112
29
11
86
101
14
66
80
8
60
107
51
16
73
57
17
38
102
25
65
111
125
26
63
81
79
52
105
9
44
49
75
104
5
121
43
50
69
74
23
84
78
31
85
2
7
41
62
55
54
33
24

>  <PUBCHEM_MMFF94_PARTIAL_CHARGES>  (1) 
6
1 -0.34
2 -0.57
22 0.06
7 0.06
8 0.34
9 0.45

>  <PUBCHEM_EFFECTIVE_ROTOR_COUNT>  (1) 
6

>  <PUBCHEM_PHARMACOPHORE_FEATURES>  (1) 
2
1 2 acceptor
5 3 4 5 6 7 hydrophobe

>  <PUBCHEM_HEAVY_ATOM_COUNT>  (1) 
9

>  <PUBCHEM_ATOM_DEF_STEREO_COUNT>  (1) 
0

>  <PUBCHEM_ATOM_UDEF_STEREO_COUNT>  (1) 
0

>  <PUBCHEM_BOND_DEF_STEREO_COUNT>  (1) 
0

>  <PUBCHEM_BOND_UDEF_STEREO_COUNT>  (1) 
0

>  <PUBCHEM_ISOTOPIC_ATOM_COUNT>  (1) 
0

>  <PUBCHEM_COMPONENT_COUNT>  (1) 
1

>  <PUBCHEM_CACTVS_TAUTO_COUNT>  (1) 
2

>  <PUBCHEM_CONFORMER_ID>  (1) 
000031C400000001

>  <PUBCHEM_MMFF94_ENERGY>  (1) 
-0.1347

>  <PUBCHEM_FEATURE_SELFOVERLAP>  (1) 
10.148

>  <PUBCHEM_SHAPE_FINGERPRINT>  (1) 
11062470 55 18413111658062425584
11987891 27 18412823594600504342
11987891 38 18410858754405345394
12932764 1 13758076251269851552
14325111 11 18409731759323903888
177051 138 18342177748055094278
190213 19 17240485822732897104
20211469 26 18334294266716174933
20645477 70 17603868871458946482
20828058 44 17704072893293509719
21293036 1 16153429458465733388
22485316 2 18412542110986340656

>  <PUBCHEM_SHAPE_MULTIPOLES>  (1) 
172.07
8.31
1.02
0.65
0.15
0.09
0
2.25
-0.15
-0.09
-0.05
0.11
0.01
-0.32

>  <PUBCHEM_SHAPE_SELFOVERLAP>  (1) 
307.546

>  <PUBCHEM_SHAPE_VOLUME>  (1) 
110.7

>  <PUBCHEM_COORDINATE_TYPE>  (1) 
2
5
10

$$$$
