1275
     RDKit          3D

 38 40  0  0  1  0  0  0  0  0999 V2000
   -6.6491   -2.4300    0.2483 S   0  0  0  0  0  0  0  0  0  0  0  0
    0.5026    1.7896    0.0375 O   0  0  0  0  0  0  0  0  0  0  0  0
   -2.5355    1.5714   -0.8295 O   0  0  0  0  0  0  0  0  0  0  0  0
    2.9656   -1.7576   -1.8502 O   0  0  0  0  0  0  0  0  0  0  0  0
   -4.7806    4.1130    1.8368 O   0  0  0  0  0  0  0  0  0  0  0  0
   -7.5634    0.5576    0.3566 O   0  0  0  0  0  0  0  0  0  0  0  0
   -5.7655   -3.5540    0.4907 O   0  0  0  0  0  0  0  0  0  0  0  0
   -8.0847   -2.5645    0.3963 O   0  0  0  0  0  0  0  0  0  0  0  0
   -0.5724   -0.1272   -0.6885 N   0  0  0  0  0  0  0  0  0  0  0  0
   -3.5417    0.8710    1.1503 N   0  0  0  0  0  0  0  0  0  0  0  0
    2.6457    0.4207   -1.1192 N   0  0  0  0  0  0  0  0  0  0  0  0
   -6.0880   -1.0897    1.1457 N   0  0  0  0  0  0  0  0  0  0  0  0
   -1.5301   -0.2061    0.4067 C   0  0  0  0  0  0  0  0  0  0  0  0
   -2.1026   -1.6160    0.3196 C   0  0  0  0  0  0  0  0  0  0  0  0
   -1.9999   -1.9497   -1.1667 C   0  0  0  0  0  0  0  0  0  0  0  0
   -0.7066   -1.2694   -1.5891 C   0  0  0  0  0  0  0  0  0  0  0  0
    0.4213    0.8379   -0.7409 C   0  0  0  0  0  0  0  0  0  0  0  0
    1.4325    0.6699   -1.8469 C   0  0  0  0  0  0  0  0  0  0  0  0
   -2.5770    0.8366    0.1538 C   0  0  0  0  0  0  0  0  0  0  0  0
    1.5178    1.9158   -2.7345 C   0  0  0  0  0  0  0  0  0  0  0  0
    0.1581    2.2290   -3.3687 C   0  0  0  0  0  0  0  0  0  0  0  0
    2.5615    1.7390   -3.8431 C   0  0  0  0  0  0  0  0  0  0  0  0
   -4.6431    1.7980    1.1540 C   0  0  0  0  0  0  0  0  0  0  0  0
    3.3237   -0.7917   -1.1813 C   0  0  0  0  0  0  0  0  0  0  0  0
   -5.8556    1.2505    1.8975 C   0  0  0  0  0  0  0  0  0  0  0  0
   -4.1265    3.0746    1.7800 C   0  0  0  0  0  0  0  0  0  0  0  0
    4.5494   -0.8999   -0.3488 C   0  0  0  0  0  0  0  0  0  0  0  0
   -6.5993    0.2440    1.0471 C   0  0  0  0  0  0  0  0  0  0  0  0
    5.2768    0.2460   -0.0260 C   0  0  0  0  0  0  0  0  0  0  0  0
    4.9710   -2.1445    0.1094 C   0  0  0  0  0  0  0  0  0  0  0  0
    6.4373    0.1605    0.7603 C   0  0  0  0  0  0  0  0  0  0  0  0
    6.8658   -1.1051    1.2264 C   0  0  0  0  0  0  0  0  0  0  0  0
    6.1213   -2.2481    0.8920 C   0  0  0  0  0  0  0  0  0  0  0  0
    7.1814    1.3036    1.0949 C   0  0  0  0  0  0  0  0  0  0  0  0
    8.0263   -1.1906    2.0128 C   0  0  0  0  0  0  0  0  0  0  0  0
    8.3321    1.2002    1.8771 C   0  0  0  0  0  0  0  0  0  0  0  0
    8.7537   -0.0444    2.3350 C   0  0  0  0  0  0  0  0  0  0  0  0
   -6.3221   -1.8404   -1.3950 C   0  0  0  0  0  0  0  0  0  0  0  0
  1  7  2  0
  1  8  2  0
  1 12  1  0
  1 38  1  0
  2 17  2  0
  3 19  2  0
  4 24  2  0
  5 26  2  0
  6 28  2  0
  9 13  1  0
  9 16  1  0
  9 17  1  0
 10 19  1  0
 10 23  1  0
 11 18  1  0
 11 24  1  0
 12 28  1  0
 13 14  1  0
 13 19  1  0
 14 15  1  0
 15 16  1  0
 17 18  1  0
 18 20  1  0
 20 21  1  0
 20 22  1  0
 23 25  1  0
 23 26  1  0
 24 27  1  0
 25 28  1  0
 27 29  2  0
 27 30  1  0
 29 31  1  0
 30 33  2  0
 31 32  2  0
 31 34  1  0
 32 33  1  0
 32 35  1  0
 34 36  2  0
 35 37  2  0
 36 37  1  0
M  END
>  <PUBCHEM_COMPOUND_CID>  (1) 
1275

>  <PUBCHEM_CONFORMER_RMSD>  (1) 
1.6

>  <PUBCHEM_CONFORMER_DIVERSEORDER>  (1) 
3
182
40
170
30
169
138
171
23
137
78
73
183
123
87
38
66
25
142
18
17
83
176
28
161
120
89
153
152
139
71
85
186
125
39
105
192
159
42
16
57
76
184
160
59
204
157
158
80
84
144
201
143
175
90
8
154
54
199
173
64
141
31
149
69
58
195
191
189
96
91
146
116
12
172
119
6
140
46
60
197
98
35
100
150
37
27
180
53
133
181
106
193
156
75
108
115
162
164
101
22
67
99
24
194
178
82
203
51
81
19
145
62
177
43
121
88
190
118
111
77
55
52
114
34
79
148
44
13
7
65
165
2
113
95
103
129
126
26
29
188
110
41
122
124
33
107
174
14
127
32
130
179
50
185
49
132
202
9
109
56
86
1
74
163
136
135
72
36
63
102
61
198
112
168
97
200
94
104
166
93
155
11
48
134
20
10
128
47
5
15
70
196
167
151
4
92
187
45
68
117
21
131
147

>  <PUBCHEM_MMFF94_PARTIAL_CHARGES>  (1) 
42
1 1.33
10 -0.73
11 -0.73
12 -0.79
13 0.36
16 0.3
17 0.57
18 0.36
19 0.57
2 -0.57
23 0.36
24 0.54
25 0.06
26 0.45
27 0.09
28 0.75
29 -0.15
3 -0.57
30 -0.15
33 -0.15
34 -0.15
35 -0.15
36 -0.15
37 -0.15
38 0.11
4 -0.57
48 0.37
49 0.37
5 -0.57
59 0.06
6 -0.57
60 0.15
61 0.15
62 0.42
63 0.15
64 0.15
65 0.15
66 0.15
67 0.15
7 -0.65
8 -0.65
9 -0.66

>  <PUBCHEM_EFFECTIVE_ROTOR_COUNT>  (1) 
15

>  <PUBCHEM_PHARMACOPHORE_FEATURES>  (1) 
14
1 10 donor
1 11 donor
1 12 donor
1 2 acceptor
1 3 acceptor
1 4 acceptor
1 5 acceptor
1 6 acceptor
1 7 acceptor
1 8 acceptor
3 20 21 22 hydrophobe
5 9 13 14 15 16 rings
6 27 29 30 31 32 33 rings
6 31 32 34 35 36 37 rings

>  <PUBCHEM_HEAVY_ATOM_COUNT>  (1) 
38

>  <PUBCHEM_ATOM_DEF_STEREO_COUNT>  (1) 
0

>  <PUBCHEM_ATOM_UDEF_STEREO_COUNT>  (1) 
3

>  <PUBCHEM_BOND_DEF_STEREO_COUNT>  (1) 
0

>  <PUBCHEM_BOND_UDEF_STEREO_COUNT>  (1) 
0

>  <PUBCHEM_ISOTOPIC_ATOM_COUNT>  (1) 
0

>  <PUBCHEM_COMPONENT_COUNT>  (1) 
1

>  <PUBCHEM_CACTVS_TAUTO_COUNT>  (1) 
16

>  <PUBCHEM_CONFORMER_ID>  (1) 
000004FB00000003

>  <PUBCHEM_MMFF94_ENERGY>  (1) 
84.8045

>  <PUBCHEM_FEATURE_SELFOVERLAP>  (1) 
71.095

>  <PUBCHEM_SHAPE_FINGERPRINT>  (1) 
10 15 17704353268690059970
13165053 103 16300050339305549898
13673619 4 14851613167526165156
13782708 43 15357993281720387281
15021287 119 17676779712258099301
15064981 194 12750371774797840064
15328829 1 18259421919096663299
15510800 12 15357973422551662546
15685185 35 12966834784705208074
16664035 7 18131066061452473673
18603816 31 16298393487294292563
20105231 36 8934706817657838501
21130935 74 18270121202011065306
21772528 278 13110959825283313253
21792965 184 18410296922261395804
249057 25 18261127274410743941
32027 91 16081666559340551960
397830 11 17846502508484778462
3986486 107 10303815415282515122
4112364 45 17131546258636529088
4149490 64 17532388624711360947
439807 62 12468641608352555696
4403749 210 17846213329101558357
504843 32 15697703870691011956
5080951 261 18201431468540073829
6697151 62 16515689969732864012

>  <PUBCHEM_SHAPE_MULTIPOLES>  (1) 
724.86
25.88
3.36
2.87
12.46
0.35
-1.61
-11.26
20.99
-4.98
-0.1
1.64
2.55
-3.64

>  <PUBCHEM_SHAPE_SELFOVERLAP>  (1) 
1512.835

>  <PUBCHEM_SHAPE_VOLUME>  (1) 
412.3

>  <PUBCHEM_COORDINATE_TYPE>  (1) 
2
5
10

$$$$
