12754
     RDKit          3D

  8  8  0  0  0  0  0  0  0  0999 V2000
    2.2486   -1.5429    0.0004 Br  0  0  0  0  0  0  0  0  0  0  0  0
    1.8516    1.7843   -0.0008 Cl  0  0  0  0  0  0  0  0  0  0  0  0
    0.5742   -0.6440    0.0000 C   0  0  0  0  0  0  0  0  0  0  0  0
    0.4683    0.7470    0.0004 C   0  0  0  0  0  0  0  0  0  0  0  0
   -0.5775   -1.4310   -0.0004 C   0  0  0  0  0  0  0  0  0  0  0  0
   -0.7893    1.3506    0.0005 C   0  0  0  0  0  0  0  0  0  0  0  0
   -1.8350   -0.8274   -0.0004 C   0  0  0  0  0  0  0  0  0  0  0  0
   -1.9408    0.5634    0.0001 C   0  0  0  0  0  0  0  0  0  0  0  0
  1  3  1  0
  2  4  1  0
  3  4  2  0
  3  5  1  0
  4  6  1  0
  5  7  2  0
  6  8  2  0
  7  8  1  0
M  END
>  <PUBCHEM_COMPOUND_CID>  (1) 
12754

>  <PUBCHEM_CONFORMER_RMSD>  (1) 
0.4

>  <PUBCHEM_CONFORMER_DIVERSEORDER>  (1) 
1

>  <PUBCHEM_MMFF94_PARTIAL_CHARGES>  (1) 
12
1 -0.11
10 0.15
11 0.15
12 0.15
2 -0.18
3 0.11
4 0.18
5 -0.15
6 -0.15
7 -0.15
8 -0.15
9 0.15

>  <PUBCHEM_EFFECTIVE_ROTOR_COUNT>  (1) 
0

>  <PUBCHEM_PHARMACOPHORE_FEATURES>  (1) 
2
1 1 hydrophobe
6 3 4 5 6 7 8 rings

>  <PUBCHEM_HEAVY_ATOM_COUNT>  (1) 
8

>  <PUBCHEM_ATOM_DEF_STEREO_COUNT>  (1) 
0

>  <PUBCHEM_ATOM_UDEF_STEREO_COUNT>  (1) 
0

>  <PUBCHEM_BOND_DEF_STEREO_COUNT>  (1) 
0

>  <PUBCHEM_BOND_UDEF_STEREO_COUNT>  (1) 
0

>  <PUBCHEM_ISOTOPIC_ATOM_COUNT>  (1) 
0

>  <PUBCHEM_COMPONENT_COUNT>  (1) 
1

>  <PUBCHEM_CACTVS_TAUTO_COUNT>  (1) 
1

>  <PUBCHEM_CONFORMER_ID>  (1) 
000031D200000001

>  <PUBCHEM_MMFF94_ENERGY>  (1) 
16.916

>  <PUBCHEM_FEATURE_SELFOVERLAP>  (1) 
10.148

>  <PUBCHEM_SHAPE_FINGERPRINT>  (1) 
16714656 1 18050851009457088574
16945 1 18266458711303018791
18185500 45 18048316652218844082
21040471 1 18266740362341811525
23552423 10 18334579083145780438
241688 4 18336826368743148440
2748010 2 18409166631959012319
5084963 1 18201711800185077779

>  <PUBCHEM_SHAPE_MULTIPOLES>  (1) 
172.45
2.89
2.11
0.64
0.54
0.48
0
-0.52
0
0.88
0
0.05
-0.01
0

>  <PUBCHEM_SHAPE_SELFOVERLAP>  (1) 
332.809

>  <PUBCHEM_SHAPE_VOLUME>  (1) 
106.8

>  <PUBCHEM_COORDINATE_TYPE>  (1) 
2
5
10

$$$$
