12763
     RDKit          3D

  9  9  0  0  0  0  0  0  0  0999 V2000
   -0.3377    0.0074   -0.2170 C   0  0  0  0  0  0  0  0  0  0  0  0
    0.4123    1.2646    0.2438 C   0  0  0  0  0  0  0  0  0  0  0  0
    0.4038   -1.2626    0.2215 C   0  0  0  0  0  0  0  0  0  0  0  0
   -1.7692    0.0075    0.3162 C   0  0  0  0  0  0  0  0  0  0  0  0
    1.8630    1.2618   -0.2327 C   0  0  0  0  0  0  0  0  0  0  0  0
    1.8546   -1.2612   -0.2548 C   0  0  0  0  0  0  0  0  0  0  0  0
    2.5942   -0.0060    0.1975 C   0  0  0  0  0  0  0  0  0  0  0  0
   -2.5189    1.2494   -0.1603 C   0  0  0  0  0  0  0  0  0  0  0  0
   -2.5022   -1.2609   -0.1144 C   0  0  0  0  0  0  0  0  0  0  0  0
  1  2  1  0
  1  3  1  0
  1  4  1  0
  2  5  1  0
  3  6  1  0
  4  8  1  0
  4  9  1  0
  5  7  1  0
  6  7  1  0
M  END
>  <PUBCHEM_COMPOUND_CID>  (1) 
12763

>  <PUBCHEM_CONFORMER_RMSD>  (1) 
0.4

>  <PUBCHEM_CONFORMER_DIVERSEORDER>  (1) 
1
9
4
10
5
6
2
7
8
3

>  <PUBCHEM_MMFF94_PARTIAL_CHARGES>  (1) 
0

>  <PUBCHEM_EFFECTIVE_ROTOR_COUNT>  (1) 
2.2

>  <PUBCHEM_PHARMACOPHORE_FEATURES>  (1) 
2
3 4 8 9 hydrophobe
6 1 2 3 5 6 7 rings

>  <PUBCHEM_HEAVY_ATOM_COUNT>  (1) 
9

>  <PUBCHEM_ATOM_DEF_STEREO_COUNT>  (1) 
0

>  <PUBCHEM_ATOM_UDEF_STEREO_COUNT>  (1) 
0

>  <PUBCHEM_BOND_DEF_STEREO_COUNT>  (1) 
0

>  <PUBCHEM_BOND_UDEF_STEREO_COUNT>  (1) 
0

>  <PUBCHEM_ISOTOPIC_ATOM_COUNT>  (1) 
0

>  <PUBCHEM_COMPONENT_COUNT>  (1) 
1

>  <PUBCHEM_CACTVS_TAUTO_COUNT>  (1) 
1

>  <PUBCHEM_CONFORMER_ID>  (1) 
000031DB00000001

>  <PUBCHEM_MMFF94_ENERGY>  (1) 
9.0739

>  <PUBCHEM_FEATURE_SELFOVERLAP>  (1) 
10.148

>  <PUBCHEM_SHAPE_FINGERPRINT>  (1) 
10857977 72 18340475742393576298
12897270 3 18338514261094672079
12932764 1 18410019831433483355
14128692 85 18341618122137425710
14325111 11 18410293644157090792
14390081 3 18412823581805370529
16945 1 18410860940527537004
18185500 45 18339362937826214170
19973954 147 18409732863225451013
20201158 50 18410007698024440535
21040471 1 18338517576878009240
23402655 69 18268977710260751661
23552423 10 18334017189543297807
2748010 2 18411139134143965406
29004967 10 18411421691637089978
5084963 1 18271247230386345553

>  <PUBCHEM_SHAPE_MULTIPOLES>  (1) 
185.22
3.93
1.67
0.67
0.75
0
0
-0.01
-0.12
0.08
-0.05
-0.01
0
0.02

>  <PUBCHEM_SHAPE_SELFOVERLAP>  (1) 
352.848

>  <PUBCHEM_SHAPE_VOLUME>  (1) 
114

>  <PUBCHEM_COORDINATE_TYPE>  (1) 
2
5
10

$$$$
