1276
     RDKit          3D

 20 21  0  0  1  0  0  0  0  0999 V2000
   -0.2424   -0.8464   -1.2746 S   0  0  0  0  0  0  0  0  0  0  0  0
    0.1411    2.1986   -0.2192 O   0  0  0  0  0  0  0  0  0  0  0  0
   -0.0598   -2.2855   -1.1453 O   0  0  0  0  0  0  0  0  0  0  0  0
   -0.2007   -0.2278   -2.5924 O   0  0  0  0  0  0  0  0  0  0  0  0
    3.6112   -2.2912    0.0750 O   0  0  0  0  0  0  0  0  0  0  0  0
    2.3905   -1.7001    1.8886 O   0  0  0  0  0  0  0  0  0  0  0  0
    0.8705   -0.0622   -0.2648 N   0  0  0  0  0  0  0  0  0  0  0  0
    2.4116    1.1567    0.5127 C   0  0  0  0  0  0  0  0  0  0  0  0
    2.3320   -0.2442   -0.1309 C   0  0  0  0  0  0  0  0  0  0  0  0
    0.9467    1.3235   -0.0028 C   0  0  0  0  0  0  0  0  0  0  0  0
    3.3818    2.1578   -0.0944 C   0  0  0  0  0  0  0  0  0  0  0  0
    2.7549   -1.4658    0.7389 C   0  0  0  0  0  0  0  0  0  0  0  0
    4.7917    1.9896    0.4548 C   0  0  0  0  0  0  0  0  0  0  0  0
   -1.7472   -0.4105   -0.5045 C   0  0  0  0  0  0  0  0  0  0  0  0
   -2.7116    0.3058   -1.2133 C   0  0  0  0  0  0  0  0  0  0  0  0
   -1.9845   -0.7772    0.8202 C   0  0  0  0  0  0  0  0  0  0  0  0
   -3.9134    0.6552   -0.5975 C   0  0  0  0  0  0  0  0  0  0  0  0
   -3.1863   -0.4279    1.4360 C   0  0  0  0  0  0  0  0  0  0  0  0
   -4.1508    0.2883    0.7272 C   0  0  0  0  0  0  0  0  0  0  0  0
   -5.4354    0.6631    1.3861 C   0  0  0  0  0  0  0  0  0  0  0  0
  1  3  2  0
  1  4  2  0
  1  7  1  0
  1 14  1  0
  2 10  2  0
  5 12  1  0
  6 12  2  0
  7  9  1  0
  7 10  1  0
  8  9  1  0
  8 10  1  0
  8 11  1  0
  9 12  1  0
 11 13  1  0
 14 15  2  0
 14 16  1  0
 15 17  1  0
 16 18  2  0
 17 19  2  0
 18 19  1  0
 19 20  1  0
M  END
>  <PUBCHEM_COMPOUND_CID>  (1) 
1276

>  <PUBCHEM_CONFORMER_RMSD>  (1) 
0.6

>  <PUBCHEM_CONFORMER_DIVERSEORDER>  (1) 
1
60
64
6
57
52
65
69
70
27
42
25
53
36
45
21
20
51
72
7
46
67
47
54
58
71
38
10
56
26
63
41
68
33
43
23
55
37
28
61
24
59
49
31
32
14
35
2
18
29
34
11
22
30
13
17
40
62
12
5
48
44
19
16
39
3
66
9
4
50
15
8

>  <PUBCHEM_MMFF94_PARTIAL_CHARGES>  (1) 
23
1 1.45
10 0.75
12 0.67
14 -0.01
15 -0.15
16 -0.15
17 -0.15
18 -0.15
19 -0.14
2 -0.57
20 0.14
28 0.15
29 0.15
3 -0.65
30 0.5
31 0.15
32 0.15
4 -0.65
5 -0.65
6 -0.57
7 -0.68
8 0.05
9 0.36

>  <PUBCHEM_EFFECTIVE_ROTOR_COUNT>  (1) 
4.6

>  <PUBCHEM_PHARMACOPHORE_FEATURES>  (1) 
9
1 13 hydrophobe
1 2 acceptor
1 3 acceptor
1 4 acceptor
1 5 acceptor
1 6 acceptor
3 5 6 12 anion
4 7 8 9 10 rings
6 14 15 16 17 18 19 rings

>  <PUBCHEM_HEAVY_ATOM_COUNT>  (1) 
20

>  <PUBCHEM_ATOM_DEF_STEREO_COUNT>  (1) 
0

>  <PUBCHEM_ATOM_UDEF_STEREO_COUNT>  (1) 
2

>  <PUBCHEM_BOND_DEF_STEREO_COUNT>  (1) 
0

>  <PUBCHEM_BOND_UDEF_STEREO_COUNT>  (1) 
0

>  <PUBCHEM_ISOTOPIC_ATOM_COUNT>  (1) 
0

>  <PUBCHEM_COMPONENT_COUNT>  (1) 
1

>  <PUBCHEM_CACTVS_TAUTO_COUNT>  (1) 
1

>  <PUBCHEM_CONFORMER_ID>  (1) 
000004FC00000001

>  <PUBCHEM_MMFF94_ENERGY>  (1) 
24.4916

>  <PUBCHEM_FEATURE_SELFOVERLAP>  (1) 
45.75

>  <PUBCHEM_SHAPE_FINGERPRINT>  (1) 
10382601 240 18409444813017813560
10980938 120 18337945787865971164
12236239 1 17775284979911259009
12507560 40 18040713654214932365
12633257 1 18335417929035214827
12644460 14 18410853261563861856
12892183 10 18113337501141718217
13583140 156 18263640826747635507
14178342 30 17910089628541337762
14251764 38 17912934877157018001
15775835 57 17632581582346471145
16945 1 18129943373368193759
17804303 29 17531534174699720883
1813 80 17843410588016117246
19049666 15 17677596588898612437
192875 21 17632283550339361033
19784866 170 18114460162654009460
19784866 9 18335418010824151096
20645477 70 18336814325660196694
20739085 24 18339375066803782772
21065199 12 18040435486489640321
23175994 123 18191864513959761574
23184049 59 18342736291071480519
23559900 14 17096083580649915966
34934 24 18201156663078160000
474 4 17775012249999841415
633830 44 17917437509946319575
81228 2 17113216008284268064
8272917 22 18342182137132057494

>  <PUBCHEM_SHAPE_MULTIPOLES>  (1) 
381.11
8.95
2.19
1.6
3.62
0.22
-0.35
-3.54
3.81
-3
0.13
0.83
0.51
-0.47

>  <PUBCHEM_SHAPE_SELFOVERLAP>  (1) 
781.269

>  <PUBCHEM_SHAPE_VOLUME>  (1) 
220.1

>  <PUBCHEM_COORDINATE_TYPE>  (1) 
2
5
10

$$$$
