12760
     RDKit          3D

  9  9  0  0  0  0  0  0  0  0999 V2000
    2.6713   -0.7524    0.0013 O   0  0  0  0  0  0  0  0  0  0  0  0
    2.1705    1.3850   -0.0007 O   0  0  0  0  0  0  0  0  0  0  0  0
   -0.5361    0.8033   -0.0002 N   0  0  0  0  0  0  0  0  0  0  0  0
   -1.5834   -1.1551   -0.0006 N   0  0  0  0  0  0  0  0  0  0  0  0
    1.8060    0.1723    0.0002 N   0  0  0  0  0  0  0  0  0  0  0  0
   -1.7373    0.1504    0.0000 C   0  0  0  0  0  0  0  0  0  0  0  0
    0.4464   -0.1465   -0.0006 C   0  0  0  0  0  0  0  0  0  0  0  0
   -0.2244   -1.3468   -0.0003 C   0  0  0  0  0  0  0  0  0  0  0  0
   -3.0131    0.8899    0.0010 C   0  0  0  0  0  0  0  0  0  0  0  0
  1  5  1  0
  2  5  2  0
  3  6  1  0
  3  7  1  0
  4  6  2  0
  4  8  1  0
  5  7  1  0
  6  9  1  0
  7  8  2  0
M  CHG  2   1  -1   5   1
M  END
>  <PUBCHEM_COMPOUND_CID>  (1) 
12760

>  <PUBCHEM_CONFORMER_RMSD>  (1) 
0.4

>  <PUBCHEM_CONFORMER_DIVERSEORDER>  (1) 
1

>  <PUBCHEM_MMFF94_PARTIAL_CHARGES>  (1) 
11
1 -0.52
10 0.27
11 0.15
2 -0.52
3 0.03
4 -0.57
5 0.96
6 0.01
7 -0.07
8 0.08
9 0.18

>  <PUBCHEM_EFFECTIVE_ROTOR_COUNT>  (1) 
1

>  <PUBCHEM_PHARMACOPHORE_FEATURES>  (1) 
6
1 1 acceptor
1 1 anion
1 2 acceptor
1 3 donor
3 3 4 6 cation
5 3 4 6 7 8 rings

>  <PUBCHEM_HEAVY_ATOM_COUNT>  (1) 
9

>  <PUBCHEM_ATOM_DEF_STEREO_COUNT>  (1) 
0

>  <PUBCHEM_ATOM_UDEF_STEREO_COUNT>  (1) 
0

>  <PUBCHEM_BOND_DEF_STEREO_COUNT>  (1) 
0

>  <PUBCHEM_BOND_UDEF_STEREO_COUNT>  (1) 
0

>  <PUBCHEM_ISOTOPIC_ATOM_COUNT>  (1) 
0

>  <PUBCHEM_COMPONENT_COUNT>  (1) 
1

>  <PUBCHEM_CACTVS_TAUTO_COUNT>  (1) 
2

>  <PUBCHEM_CONFORMER_ID>  (1) 
000031D800000001

>  <PUBCHEM_MMFF94_ENERGY>  (1) 
10.6312

>  <PUBCHEM_FEATURE_SELFOVERLAP>  (1) 
30.527

>  <PUBCHEM_SHAPE_FINGERPRINT>  (1) 
14325111 11 18410573989763013985
14390081 3 18342454884793322985
21040471 1 18410855468844761895
23552423 10 18261110820005664014
29004967 10 14562525180525242868
369184 2 18411980299257275107
5084963 1 18272928289212883761

>  <PUBCHEM_SHAPE_MULTIPOLES>  (1) 
158.53
3.84
1.33
0.56
0.04
0.09
0
-1.02
0
0.07
0
-0.06
0.01
0

>  <PUBCHEM_SHAPE_SELFOVERLAP>  (1) 
327.11

>  <PUBCHEM_SHAPE_VOLUME>  (1) 
91.9

>  <PUBCHEM_COORDINATE_TYPE>  (1) 
2
5
10

$$$$
