12768
     RDKit          3D

 10 11  0  0  0  0  0  0  0  0999 V2000
    3.1984    0.0000    0.0000 Br  0  0  0  0  0  0  0  0  0  0  0  0
   -1.3516   -0.0001    0.0001 C   0  0  0  0  0  0  0  0  0  0  0  0
    1.2509    0.0000    0.0000 C   0  0  0  0  0  0  0  0  0  0  0  0
   -0.8042   -1.4459    0.0539 C   0  0  0  0  0  0  0  0  0  0  0  0
   -0.8043    0.7697    1.2250 C   0  0  0  0  0  0  0  0  0  0  0  0
   -0.8044    0.6762   -1.2790 C   0  0  0  0  0  0  0  0  0  0  0  0
    0.7321   -1.4435    0.0507 C   0  0  0  0  0  0  0  0  0  0  0  0
    0.7319    0.7657    1.2247 C   0  0  0  0  0  0  0  0  0  0  0  0
    0.7319    0.6780   -1.2755 C   0  0  0  0  0  0  0  0  0  0  0  0
   -2.8807   -0.0001    0.0000 C   0  0  0  0  0  0  0  0  0  0  0  0
  1  3  1  0
  2  4  1  0
  2  5  1  0
  2  6  1  0
  2 10  1  0
  3  7  1  0
  3  8  1  0
  3  9  1  0
  4  7  1  0
  5  8  1  0
  6  9  1  0
M  END
>  <PUBCHEM_COMPOUND_CID>  (1) 
12768

>  <PUBCHEM_CONFORMER_RMSD>  (1) 
0.4

>  <PUBCHEM_CONFORMER_DIVERSEORDER>  (1) 
1

>  <PUBCHEM_MMFF94_PARTIAL_CHARGES>  (1) 
2
1 -0.23
3 0.23

>  <PUBCHEM_EFFECTIVE_ROTOR_COUNT>  (1) 
1.2

>  <PUBCHEM_PHARMACOPHORE_FEATURES>  (1) 
2
1 1 hydrophobe
8 2 3 4 5 6 7 8 9 rings

>  <PUBCHEM_HEAVY_ATOM_COUNT>  (1) 
10

>  <PUBCHEM_ATOM_DEF_STEREO_COUNT>  (1) 
0

>  <PUBCHEM_ATOM_UDEF_STEREO_COUNT>  (1) 
0

>  <PUBCHEM_BOND_DEF_STEREO_COUNT>  (1) 
0

>  <PUBCHEM_BOND_UDEF_STEREO_COUNT>  (1) 
0

>  <PUBCHEM_ISOTOPIC_ATOM_COUNT>  (1) 
0

>  <PUBCHEM_COMPONENT_COUNT>  (1) 
1

>  <PUBCHEM_CACTVS_TAUTO_COUNT>  (1) 
1

>  <PUBCHEM_CONFORMER_ID>  (1) 
000031E000000001

>  <PUBCHEM_MMFF94_ENERGY>  (1) 
31.7924

>  <PUBCHEM_FEATURE_SELFOVERLAP>  (1) 
10.148

>  <PUBCHEM_SHAPE_FINGERPRINT>  (1) 
10219947 1 18040155110639331423
12423570 1 9187387061392544109
13024252 1 14634587177231651330
137420 1 16302653076227282003
14993402 34 18040716999688494542
16945 1 18410012139031102594
21040471 1 18410012182234035115
23235685 24 18410851062092206722
29004967 10 17603877675571807466
369184 2 17988923370965104130
5084963 1 18333731333721057218
528886 8 18040712584440963047
68250623 7 16663484230962449979

>  <PUBCHEM_SHAPE_MULTIPOLES>  (1) 
211.74
3.38
1.24
1.24
1.08
0.43
-0.09
0
0
-0.03
0.09
-0.03
-0.43
0

>  <PUBCHEM_SHAPE_SELFOVERLAP>  (1) 
425.031

>  <PUBCHEM_SHAPE_VOLUME>  (1) 
127.8

>  <PUBCHEM_COORDINATE_TYPE>  (1) 
2
5
10

$$$$
