12774
     RDKit          3D

 10 10  0  0  0  0  0  0  0  0999 V2000
   -0.1411    0.7045    0.0000 O   0  0  0  0  0  0  0  0  0  0  0  0
    3.1269   -0.5405    0.0008 O   0  0  0  0  0  0  0  0  0  0  0  0
    2.3476    1.5118   -0.0004 O   0  0  0  0  0  0  0  0  0  0  0  0
   -3.6728    0.2976    0.0001 O   0  0  0  0  0  0  0  0  0  0  0  0
    2.1465    0.2614    0.0001 N   0  0  0  0  0  0  0  0  0  0  0  0
    0.8413   -0.2342   -0.0004 C   0  0  0  0  0  0  0  0  0  0  0  0
   -1.3217    0.0316    0.0001 C   0  0  0  0  0  0  0  0  0  0  0  0
    0.3009   -1.4992   -0.0004 C   0  0  0  0  0  0  0  0  0  0  0  0
   -1.1039   -1.3265    0.0000 C   0  0  0  0  0  0  0  0  0  0  0  0
   -2.5237    0.7935    0.0003 C   0  0  0  0  0  0  0  0  0  0  0  0
  1  6  1  0
  1  7  1  0
  2  5  1  0
  3  5  2  0
  4 10  2  0
  5  6  1  0
  6  8  2  0
  7  9  2  0
  7 10  1  0
  8  9  1  0
M  CHG  2   2  -1   5   1
M  END
>  <PUBCHEM_COMPOUND_CID>  (1) 
12774

>  <PUBCHEM_CONFORMER_RMSD>  (1) 
0.4

>  <PUBCHEM_CONFORMER_DIVERSEORDER>  (1) 
1
2

>  <PUBCHEM_MMFF94_PARTIAL_CHARGES>  (1) 
13
1 -0.28
10 0.59
11 0.15
12 0.15
13 0.06
2 -0.52
3 -0.52
4 -0.57
5 0.96
6 0.22
7 0.05
8 -0.15
9 -0.15

>  <PUBCHEM_EFFECTIVE_ROTOR_COUNT>  (1) 
2

>  <PUBCHEM_PHARMACOPHORE_FEATURES>  (1) 
6
1 1 acceptor
1 2 acceptor
1 2 anion
1 3 acceptor
1 4 acceptor
5 1 6 7 8 9 rings

>  <PUBCHEM_HEAVY_ATOM_COUNT>  (1) 
10

>  <PUBCHEM_ATOM_DEF_STEREO_COUNT>  (1) 
0

>  <PUBCHEM_ATOM_UDEF_STEREO_COUNT>  (1) 
0

>  <PUBCHEM_BOND_DEF_STEREO_COUNT>  (1) 
0

>  <PUBCHEM_BOND_UDEF_STEREO_COUNT>  (1) 
0

>  <PUBCHEM_ISOTOPIC_ATOM_COUNT>  (1) 
0

>  <PUBCHEM_COMPONENT_COUNT>  (1) 
1

>  <PUBCHEM_CACTVS_TAUTO_COUNT>  (1) 
1

>  <PUBCHEM_CONFORMER_ID>  (1) 
000031E600000001

>  <PUBCHEM_MMFF94_ENERGY>  (1) 
11.6024

>  <PUBCHEM_FEATURE_SELFOVERLAP>  (1) 
30.54

>  <PUBCHEM_SHAPE_FINGERPRINT>  (1) 
10219947 1 18186524289168019341
11062470 55 12607398888507562755
12932764 1 17240470425385884742
14325111 11 18410855477561284033
14390081 3 18413106160710002049
21028194 46 18408043996206306477
21040471 1 18410856581120056710
23235685 24 18411132519889048173
23402655 69 18123734384906138077
23552423 10 18189052152405253646
29004967 10 9655569725368930814
369184 2 18339642342660310658
5084963 1 18201717319054516336

>  <PUBCHEM_SHAPE_MULTIPOLES>  (1) 
177.34
4.52
1.37
0.57
0.66
0.19
0
-1.3
0
-0.26
0
0.04
0.03
0

>  <PUBCHEM_SHAPE_SELFOVERLAP>  (1) 
371.792

>  <PUBCHEM_SHAPE_VOLUME>  (1) 
100.8

>  <PUBCHEM_COORDINATE_TYPE>  (1) 
2
5
10

$$$$
