12776
     RDKit          3D

 10 10  0  0  0  0  0  0  0  0999 V2000
   -1.8172   -2.6013   -0.1476 Cl  0  0  0  0  0  0  0  0  0  0  0  0
   -1.8176    2.6011   -0.1473 Cl  0  0  0  0  0  0  0  0  0  0  0  0
    0.3500    1.1998    0.1981 N   0  0  0  0  0  0  0  0  0  0  0  0
    0.3500   -1.1998    0.1986 N   0  0  0  0  0  0  0  0  0  0  0  0
   -1.7021   -0.0001   -0.1292 N   0  0  0  0  0  0  0  0  0  0  0  0
    2.4176    0.0003    0.5282 C   0  0  0  0  0  0  0  0  0  0  0  0
    0.9455    0.0002    0.2934 C   0  0  0  0  0  0  0  0  0  0  0  0
    3.2214   -0.0001   -0.7680 C   0  0  0  0  0  0  0  0  0  0  0  0
   -0.9738   -1.1222   -0.0128 C   0  0  0  0  0  0  0  0  0  0  0  0
   -0.9738    1.1220   -0.0133 C   0  0  0  0  0  0  0  0  0  0  0  0
  1  9  1  0
  2 10  1  0
  3  7  2  0
  3 10  1  0
  4  7  1  0
  4  9  2  0
  5  9  1  0
  5 10  2  0
  6  7  1  0
  6  8  1  0
M  END
>  <PUBCHEM_COMPOUND_CID>  (1) 
12776

>  <PUBCHEM_CONFORMER_RMSD>  (1) 
0.4

>  <PUBCHEM_CONFORMER_DIVERSEORDER>  (1) 
1
2

>  <PUBCHEM_MMFF94_PARTIAL_CHARGES>  (1) 
9
1 -0.18
10 0.8
2 -0.18
3 -0.62
4 -0.62
5 -0.62
6 0.14
7 0.48
9 0.8

>  <PUBCHEM_EFFECTIVE_ROTOR_COUNT>  (1) 
1

>  <PUBCHEM_PHARMACOPHORE_FEATURES>  (1) 
5
1 8 hydrophobe
3 3 4 7 cation
3 3 5 10 cation
3 4 5 9 cation
6 3 4 5 7 9 10 rings

>  <PUBCHEM_HEAVY_ATOM_COUNT>  (1) 
10

>  <PUBCHEM_ATOM_DEF_STEREO_COUNT>  (1) 
0

>  <PUBCHEM_ATOM_UDEF_STEREO_COUNT>  (1) 
0

>  <PUBCHEM_BOND_DEF_STEREO_COUNT>  (1) 
0

>  <PUBCHEM_BOND_UDEF_STEREO_COUNT>  (1) 
0

>  <PUBCHEM_ISOTOPIC_ATOM_COUNT>  (1) 
0

>  <PUBCHEM_COMPONENT_COUNT>  (1) 
1

>  <PUBCHEM_CACTVS_TAUTO_COUNT>  (1) 
3

>  <PUBCHEM_CONFORMER_ID>  (1) 
000031E800000001

>  <PUBCHEM_MMFF94_ENERGY>  (1) 
11.7176

>  <PUBCHEM_FEATURE_SELFOVERLAP>  (1) 
28.144

>  <PUBCHEM_SHAPE_FINGERPRINT>  (1) 
1 1 17689711961364221957
100427 49 17977667841903322329
12423570 1 17109855874310184777
12716758 59 18341894035379342842
14128692 85 18121505918726189654
161256 15 17981323705265256232
16945 1 18410848867358637291
20645477 70 17042031937185419983
20711985 344 18410287042681658611
20871998 184 18201159952643183894
20871998 22 18052541268061532786
21040471 1 18267012852252122912
23552423 10 18116431629841047222
23559900 14 18128538172898758446
2748010 2 18051681437167651335
81228 2 18410850005714900985

>  <PUBCHEM_SHAPE_MULTIPOLES>  (1) 
194.59
3.62
2.66
0.71
3.22
0
0.04
0
0.6
-3
0.18
0.26
0
0

>  <PUBCHEM_SHAPE_SELFOVERLAP>  (1) 
377.202

>  <PUBCHEM_SHAPE_VOLUME>  (1) 
115.3

>  <PUBCHEM_COORDINATE_TYPE>  (1) 
2
5
10

$$$$
