12778
     RDKit          3D

 10 10  0  0  0  0  0  0  0  0999 V2000
    3.5556   -0.3632    0.0001 O   0  0  0  0  0  0  0  0  0  0  0  0
   -3.9320   -0.1205    0.0000 O   0  0  0  0  0  0  0  0  0  0  0  0
    2.1872   -0.1424   -0.0001 N   0  0  0  0  0  0  0  0  0  0  0  0
   -2.7511   -0.4857    0.0000 N   0  0  0  0  0  0  0  0  0  0  0  0
   -0.5558    0.3003    0.0000 C   0  0  0  0  0  0  0  0  0  0  0  0
    0.3825    1.4321   -0.0001 C   0  0  0  0  0  0  0  0  0  0  0  0
   -0.0212   -1.0692   -0.0001 C   0  0  0  0  0  0  0  0  0  0  0  0
    1.6995    1.1548    0.0001 C   0  0  0  0  0  0  0  0  0  0  0  0
    1.3162   -1.2203    0.0001 C   0  0  0  0  0  0  0  0  0  0  0  0
   -1.8809    0.5141    0.0000 C   0  0  0  0  0  0  0  0  0  0  0  0
  1  3  1  0
  2  4  2  0
  3  8  1  0
  3  9  1  0
  4 10  1  0
  5  6  1  0
  5  7  1  0
  5 10  2  3
  6  8  2  0
  7  9  2  0
M  END
>  <PUBCHEM_COMPOUND_CID>  (1) 
12778

>  <PUBCHEM_CONFORMER_RMSD>  (1) 
0.4

>  <PUBCHEM_CONFORMER_DIVERSEORDER>  (1) 
1
2

>  <PUBCHEM_MMFF94_PARTIAL_CHARGES>  (1) 
15
1 -0.38
10 0.14
11 0.15
12 0.15
13 0.15
14 0.15
15 0.15
16 0.4
2 -0.16
3 -0.22
4 -0.13
6 -0.15
7 -0.15
8 -0.05
9 -0.05

>  <PUBCHEM_EFFECTIVE_ROTOR_COUNT>  (1) 
1.2

>  <PUBCHEM_PHARMACOPHORE_FEATURES>  (1) 
2
1 1 anion
6 3 5 6 7 8 9 rings

>  <PUBCHEM_HEAVY_ATOM_COUNT>  (1) 
10

>  <PUBCHEM_ATOM_DEF_STEREO_COUNT>  (1) 
0

>  <PUBCHEM_ATOM_UDEF_STEREO_COUNT>  (1) 
0

>  <PUBCHEM_BOND_DEF_STEREO_COUNT>  (1) 
0

>  <PUBCHEM_BOND_UDEF_STEREO_COUNT>  (1) 
0

>  <PUBCHEM_ISOTOPIC_ATOM_COUNT>  (1) 
0

>  <PUBCHEM_COMPONENT_COUNT>  (1) 
1

>  <PUBCHEM_CACTVS_TAUTO_COUNT>  (1) 
2

>  <PUBCHEM_CONFORMER_ID>  (1) 
000031EA00000001

>  <PUBCHEM_MMFF94_ENERGY>  (1) 
25.21

>  <PUBCHEM_FEATURE_SELFOVERLAP>  (1) 
10.148

>  <PUBCHEM_SHAPE_FINGERPRINT>  (1) 
10219947 1 18412265042624918208
10857977 72 18411125927140655328
11062470 55 14273456976597659359
12032990 46 18411706452364268582
12932764 1 16805590508631680411
14325111 11 18338799026048051297
16945 1 18410856559750572354
193761 8 17690280830046236580
20201158 50 18334859402834492691
20871998 22 18127698123527555214
21040471 1 18122343742302163012
21293036 1 18335991921475589292
23235685 24 18410851083751724480
23402655 69 18195227950821932685
23552423 10 18044945562679838054
2748010 2 18121786298528346806
29004967 10 18408888412361829185
5084963 1 18411981364340722736

>  <PUBCHEM_SHAPE_MULTIPOLES>  (1) 
184.09
4.83
1.32
0.58
2.41
0.13
0
-0.64
0
-0.47
0
-0.01
0.01
0

>  <PUBCHEM_SHAPE_SELFOVERLAP>  (1) 
379.189

>  <PUBCHEM_SHAPE_VOLUME>  (1) 
104.9

>  <PUBCHEM_COORDINATE_TYPE>  (1) 
2
5
10

$$$$
