12770
     RDKit          3D

 10 10  0  0  0  0  0  0  0  0999 V2000
    3.7104    0.0002    0.0001 I   0  0  0  0  0  0  0  0  0  0  0  0
   -1.2807    2.7292   -0.0004 Cl  0  0  0  0  0  0  0  0  0  0  0  0
   -1.2804   -2.7292   -0.0002 Cl  0  0  0  0  0  0  0  0  0  0  0  0
   -2.5736   -0.0002    0.0006 N   0  0  0  0  0  0  0  0  0  0  0  0
   -1.1574    0.0000   -0.0001 C   0  0  0  0  0  0  0  0  0  0  0  0
   -0.4602    1.2080    0.0001 C   0  0  0  0  0  0  0  0  0  0  0  0
   -0.4600   -1.2080   -0.0002 C   0  0  0  0  0  0  0  0  0  0  0  0
    0.9347    1.2080    0.0001 C   0  0  0  0  0  0  0  0  0  0  0  0
    0.9349   -1.2081   -0.0001 C   0  0  0  0  0  0  0  0  0  0  0  0
    1.6323    0.0001    0.0001 C   0  0  0  0  0  0  0  0  0  0  0  0
  1 10  1  0
  2  6  1  0
  3  7  1  0
  4  5  1  0
  5  6  2  0
  5  7  1  0
  6  8  1  0
  7  9  2  0
  8 10  2  0
  9 10  1  0
M  END
>  <PUBCHEM_COMPOUND_CID>  (1) 
12770

>  <PUBCHEM_CONFORMER_RMSD>  (1) 
0.4

>  <PUBCHEM_CONFORMER_DIVERSEORDER>  (1) 
1

>  <PUBCHEM_MMFF94_PARTIAL_CHARGES>  (1) 
14
1 -0.08
10 0.08
11 0.15
12 0.15
13 0.4
14 0.4
2 -0.18
3 -0.18
4 -0.9
5 0.1
6 0.18
7 0.18
8 -0.15
9 -0.15

>  <PUBCHEM_EFFECTIVE_ROTOR_COUNT>  (1) 
0

>  <PUBCHEM_PHARMACOPHORE_FEATURES>  (1) 
4
1 1 hydrophobe
1 4 cation
1 4 donor
6 5 6 7 8 9 10 rings

>  <PUBCHEM_HEAVY_ATOM_COUNT>  (1) 
10

>  <PUBCHEM_ATOM_DEF_STEREO_COUNT>  (1) 
0

>  <PUBCHEM_ATOM_UDEF_STEREO_COUNT>  (1) 
0

>  <PUBCHEM_BOND_DEF_STEREO_COUNT>  (1) 
0

>  <PUBCHEM_BOND_UDEF_STEREO_COUNT>  (1) 
0

>  <PUBCHEM_ISOTOPIC_ATOM_COUNT>  (1) 
0

>  <PUBCHEM_COMPONENT_COUNT>  (1) 
1

>  <PUBCHEM_CACTVS_TAUTO_COUNT>  (1) 
1

>  <PUBCHEM_CONFORMER_ID>  (1) 
000031E200000001

>  <PUBCHEM_MMFF94_ENERGY>  (1) 
31.5916

>  <PUBCHEM_FEATURE_SELFOVERLAP>  (1) 
20.297

>  <PUBCHEM_SHAPE_FINGERPRINT>  (1) 
12423570 1 11541929395042555297
12716758 59 18341056199129574550
13380535 76 18048311141802196521
14325111 11 18266740191086399648
16945 1 18410855464686866694
193761 8 17762056540932670887
20510252 161 18272088245492603720
20588541 1 18342745121561261742
20645477 70 17041186416743189327
20871998 184 18201161061013849574
21040471 1 18266740177853253700
2334 1 17978510067936649856
23402539 116 18342727525074826255
23402655 69 18123733280967784685
23552423 10 17972036105049733774
2748010 2 18052250984148660820
5084963 1 18131068186616512368

>  <PUBCHEM_SHAPE_MULTIPOLES>  (1) 
216.49
4.06
2.75
0.65
4.29
0
0
0
0
-2.23
0
0.12
0
0

>  <PUBCHEM_SHAPE_SELFOVERLAP>  (1) 
411.263

>  <PUBCHEM_SHAPE_VOLUME>  (1) 
138.8

>  <PUBCHEM_COORDINATE_TYPE>  (1) 
2
5
10

$$$$
