1278
     RDKit          3D

 27 30  0  0  1  0  0  0  0  0999 V2000
    0.9725   -4.0693    0.3491 O   0  0  0  0  0  0  0  0  0  0  0  0
   -0.4155   -2.3071   -0.2682 N   0  0  0  0  0  0  0  0  0  0  0  0
    2.7418   -1.7872   -1.0649 N   0  0  0  0  0  0  0  0  0  0  0  0
    4.4085    3.5131    1.5892 N   0  0  0  0  0  0  0  0  0  0  0  0
    4.3560    3.9296   -0.7187 N   0  0  0  0  0  0  0  0  0  0  0  0
   -3.0316   -1.1110    0.1703 C   0  0  0  0  0  0  0  0  0  0  0  0
   -2.7221   -2.5561    0.5836 C   0  0  0  0  0  0  0  0  0  0  0  0
   -1.7464   -0.2730    0.1960 C   0  0  0  0  0  0  0  0  0  0  0  0
   -1.6156   -3.1476   -0.2845 C   0  0  0  0  0  0  0  0  0  0  0  0
   -0.6430   -0.9061   -0.6525 C   0  0  0  0  0  0  0  0  0  0  0  0
   -4.0967   -0.5018    1.0789 C   0  0  0  0  0  0  0  0  0  0  0  0
    0.8095   -2.8820    0.0621 C   0  0  0  0  0  0  0  0  0  0  0  0
   -4.7799    0.6682    0.4253 C   0  0  0  0  0  0  0  0  0  0  0  0
    2.0014   -2.0104    0.0648 C   0  0  0  0  0  0  0  0  0  0  0  0
    3.6680   -0.6206    0.8106 C   0  0  0  0  0  0  0  0  0  0  0  0
    2.4089   -1.3409    1.1474 C   0  0  0  0  0  0  0  0  0  0  0  0
    3.6319   -0.9244   -0.6791 C   0  0  0  0  0  0  0  0  0  0  0  0
   -4.2638    1.9459    0.5971 C   0  0  0  0  0  0  0  0  0  0  0  0
   -5.9178    0.4558   -0.3418 C   0  0  0  0  0  0  0  0  0  0  0  0
    3.7014    0.8612    0.9883 C   0  0  0  0  0  0  0  0  0  0  0  0
    4.5508   -0.1847   -1.5608 C   0  0  0  0  0  0  0  0  0  0  0  0
    4.2798    1.6619    0.0661 C   0  0  0  0  0  0  0  0  0  0  0  0
   -4.8970    3.0308   -0.0090 C   0  0  0  0  0  0  0  0  0  0  0  0
   -6.5509    1.5409   -0.9479 C   0  0  0  0  0  0  0  0  0  0  0  0
    4.8377    1.0594   -1.1486 C   0  0  0  0  0  0  0  0  0  0  0  0
   -6.0405    2.8283   -0.7815 C   0  0  0  0  0  0  0  0  0  0  0  0
    4.3527    3.1271    0.3287 C   0  0  0  0  0  0  0  0  0  0  0  0
  1 12  2  0
  2  9  1  0
  2 10  1  0
  2 12  1  0
  3 14  1  0
  3 17  2  0
  4 27  2  0
  5 27  1  0
  6  7  1  0
  6  8  1  0
  6 11  1  0
  7  9  1  0
  8 10  1  0
 11 13  1  0
 12 14  1  0
 13 18  2  0
 13 19  1  0
 14 16  2  0
 15 16  1  0
 15 17  1  0
 15 20  1  0
 17 21  1  0
 18 23  1  0
 19 24  2  0
 20 22  2  0
 21 25  2  0
 22 25  1  0
 22 27  1  0
 23 26  2  0
 24 26  1  0
M  CHG  1   4   1
M  END
>  <PUBCHEM_COMPOUND_CID>  (1) 
1278

>  <PUBCHEM_CONFORMER_RMSD>  (1) 
0.8

>  <PUBCHEM_CONFORMER_DIVERSEORDER>  (1) 
1
43
176
219
206
107
224
56
230
189
83
17
109
169
148
149
142
76
16
202
108
28
157
59
225
52
251
147
60
55
122
247
99
166
91
113
22
229
130
47
172
144
48
11
241
179
110
228
118
33
212
207
7
34
141
89
184
190
136
92
248
174
250
129
24
123
81
227
210
173
41
186
103
245
128
78
180
199
221
10
85
126
160
96
218
143
183
170
119
124
215
27
63
139
72
39
32
5
201
165
135
79
44
213
226
192
66
125
74
214
90
26
35
244
100
121
40
3
181
70
57
30
188
246
25
61
131
105
239
243
237
231
167
240
58
220
151
200
88
102
154
13
195
75
132
94
21
204
82
163
177
127
164
84
193
137
19
101
211
15
73
62
140
51
191
249
236
153
233
158
216
196
175
37
29
182
95
93
20
138
50
145
45
65
194
198
146
36
2
12
205
112
197
64
168
159
80
54
234
134
150
120
114
77
115
222
18
185
49
223
4
53
209
232
8
171
46
14
152
86
23
161
87
133
98
97
9
106
178
38
242
42
203
6
117
68
111
69
238
208
156
162
104
155
31
235
71
217
67
116
187

>  <PUBCHEM_MMFF94_PARTIAL_CHARGES>  (1) 
37
1 -0.57
10 0.3
11 0.14
12 0.62
13 -0.14
14 0.19
15 0.34
16 -0.29
17 0.37
18 -0.15
19 -0.15
2 -0.66
20 -0.29
21 -0.14
22 -0.03
23 -0.15
24 -0.15
25 -0.15
26 -0.15
27 0.74
3 -0.62
4 -0.75
40 0.15
41 0.15
42 0.15
43 0.15
44 0.15
45 0.15
46 0.15
47 0.15
48 0.15
49 0.45
5 -0.75
50 0.45
51 0.45
52 0.45
9 0.3

>  <PUBCHEM_EFFECTIVE_ROTOR_COUNT>  (1) 
6.2

>  <PUBCHEM_PHARMACOPHORE_FEATURES>  (1) 
9
1 1 acceptor
1 3 acceptor
1 4 donor
1 5 donor
3 4 5 27 cation
5 3 14 15 16 17 rings
6 13 18 19 23 24 26 rings
6 15 17 20 21 22 25 rings
6 2 6 7 8 9 10 rings

>  <PUBCHEM_HEAVY_ATOM_COUNT>  (1) 
27

>  <PUBCHEM_ATOM_DEF_STEREO_COUNT>  (1) 
0

>  <PUBCHEM_ATOM_UDEF_STEREO_COUNT>  (1) 
1

>  <PUBCHEM_BOND_DEF_STEREO_COUNT>  (1) 
0

>  <PUBCHEM_BOND_UDEF_STEREO_COUNT>  (1) 
0

>  <PUBCHEM_ISOTOPIC_ATOM_COUNT>  (1) 
0

>  <PUBCHEM_COMPONENT_COUNT>  (1) 
1

>  <PUBCHEM_CACTVS_TAUTO_COUNT>  (1) 
2

>  <PUBCHEM_CONFORMER_ID>  (1) 
000004FE00000001

>  <PUBCHEM_MMFF94_ENERGY>  (1) 
75.064

>  <PUBCHEM_FEATURE_SELFOVERLAP>  (1) 
45.851

>  <PUBCHEM_SHAPE_FINGERPRINT>  (1) 
10498660 4 18342745134477987834
10763959 59 18339647715785873374
10937287 8 18410572928742957962
11720765 8 17988093171647424886
12107183 9 18335967724194697410
12422481 6 17168142304538283749
12925494 130 18336268964357897337
1361 2 18409729551917163249
13878862 14 18043512929288816047
13944108 23 18122068602555610796
13965767 371 18040707057266803454
14251764 30 9871454431932645253
14251764 75 18411991273157660345
14528608 73 18342173315865200743
14790565 3 18410576188817866183
14848178 5 9655581777068515715
14848178 96 18342177743506965163
15142526 21 18259421923059275875
15979999 66 17551238363167204575
16988056 13 18125444112122334278
20567600 9 18268721510580553734
20715895 44 18411412878269415672
21049683 118 17895184511244697211
21315764 268 18044369427656827181
21388113 180 18410857663742277453
22950370 63 9871166364223553927
23559900 14 18123751950747670587
245318 6 18114759208131036093
2747138 104 17898589815084325379
2838139 119 18410568470878017575
345986 75 12540702470660480239
3472631 163 18413389855926459231
34797466 226 18059579045187049935
376196 1 18410295808831937067
53794403 172 18410299128968062780
550186 72 18265616675181701515
57091435 61 18410570665363348937
6201320 77 13181622281537344077
6371009 1 18269547239349352153
7808743 9 18267866275413267682

>  <PUBCHEM_SHAPE_MULTIPOLES>  (1) 
529.85
15.61
4.95
1.18
13.73
1.12
0.01
16.53
2.23
-2.19
-0.33
-0.91
0.32
1.32

>  <PUBCHEM_SHAPE_SELFOVERLAP>  (1) 
1151.069

>  <PUBCHEM_SHAPE_VOLUME>  (1) 
288

>  <PUBCHEM_COORDINATE_TYPE>  (1) 
2
5
10

$$$$
