12781
     RDKit          3D

 10 10  0  0  0  0  0  0  0  0999 V2000
    1.5558   -1.0500   -0.0092 O   0  0  0  0  0  0  0  0  0  0  0  0
   -3.5767   -0.9025    0.0131 O   0  0  0  0  0  0  0  0  0  0  0  0
   -2.8789    1.1864   -0.0096 O   0  0  0  0  0  0  0  0  0  0  0  0
   -2.6864   -0.0389    0.0012 N   0  0  0  0  0  0  0  0  0  0  0  0
    1.0444    0.2088   -0.0017 C   0  0  0  0  0  0  0  0  0  0  0  0
    2.0557    1.1411    0.0091 C   0  0  0  0  0  0  0  0  0  0  0  0
   -0.3478    0.4555   -0.0069 C   0  0  0  0  0  0  0  0  0  0  0  0
    3.2663    0.4080    0.0081 C   0  0  0  0  0  0  0  0  0  0  0  0
    2.9085   -0.9200   -0.0034 C   0  0  0  0  0  0  0  0  0  0  0  0
   -1.3408   -0.4884   -0.0007 C   0  0  0  0  0  0  0  0  0  0  0  0
  1  5  1  0
  1  9  1  0
  2  4  1  0
  3  4  2  0
  4 10  1  0
  5  6  2  0
  5  7  1  0
  6  8  1  0
  7 10  2  0
  8  9  2  0
M  CHG  2   2  -1   4   1
M  END
>  <PUBCHEM_COMPOUND_CID>  (1) 
12781

>  <PUBCHEM_CONFORMER_RMSD>  (1) 
0.4

>  <PUBCHEM_CONFORMER_DIVERSEORDER>  (1) 
1
2
3

>  <PUBCHEM_MMFF94_PARTIAL_CHARGES>  (1) 
15
1 -0.28
10 0.05
11 0.15
12 0.15
13 0.15
14 0.15
15 0.15
2 -0.52
3 -0.52
4 0.84
5 0.09
6 -0.15
7 -0.11
8 -0.15
9 -0.01

>  <PUBCHEM_EFFECTIVE_ROTOR_COUNT>  (1) 
2

>  <PUBCHEM_PHARMACOPHORE_FEATURES>  (1) 
5
1 1 acceptor
1 2 acceptor
1 2 anion
1 3 acceptor
5 1 5 6 8 9 rings

>  <PUBCHEM_HEAVY_ATOM_COUNT>  (1) 
10

>  <PUBCHEM_ATOM_DEF_STEREO_COUNT>  (1) 
0

>  <PUBCHEM_ATOM_UDEF_STEREO_COUNT>  (1) 
0

>  <PUBCHEM_BOND_DEF_STEREO_COUNT>  (1) 
0

>  <PUBCHEM_BOND_UDEF_STEREO_COUNT>  (1) 
1

>  <PUBCHEM_ISOTOPIC_ATOM_COUNT>  (1) 
0

>  <PUBCHEM_COMPONENT_COUNT>  (1) 
1

>  <PUBCHEM_CACTVS_TAUTO_COUNT>  (1) 
2

>  <PUBCHEM_CONFORMER_ID>  (1) 
000031ED00000001

>  <PUBCHEM_MMFF94_ENERGY>  (1) 
17.0621

>  <PUBCHEM_FEATURE_SELFOVERLAP>  (1) 
25.451

>  <PUBCHEM_SHAPE_FINGERPRINT>  (1) 
11062470 55 18410855464433717592
12932764 1 17489298715708366669
14144814 61 18411981351497862969
14325111 11 18410573985172576129
14390081 3 18412261752790979713
20201158 50 18335139790978755642
20645477 70 18339074896150918007
20871998 22 17983579607342824230
23402655 69 18411975854245874317
3248919 1 17385730213608652305

>  <PUBCHEM_SHAPE_MULTIPOLES>  (1) 
183.21
5.99
1.16
0.58
2.95
0.05
0
-0.4
-0.02
-0.13
0
-0.08
0.01
0.01

>  <PUBCHEM_SHAPE_SELFOVERLAP>  (1) 
380.038

>  <PUBCHEM_SHAPE_VOLUME>  (1) 
106

>  <PUBCHEM_COORDINATE_TYPE>  (1) 
2
5
10

$$$$
