12795
     RDKit          3D

 11 11  0  0  0  0  0  0  0  0999 V2000
    0.0005    3.2797   -0.3682 Cl  0  0  0  0  0  0  0  0  0  0  0  0
   -0.0001   -1.0310    0.4598 N   0  0  0  0  0  0  0  0  0  0  0  0
   -1.1996    1.0099    0.0679 N   0  0  0  0  0  0  0  0  0  0  0  0
    1.1999    1.0096    0.0678 N   0  0  0  0  0  0  0  0  0  0  0  0
    2.4130   -1.0388    0.4603 C   0  0  0  0  0  0  0  0  0  0  0  0
   -2.4134   -1.0384    0.4603 C   0  0  0  0  0  0  0  0  0  0  0  0
    1.1222   -0.3068    0.3206 C   0  0  0  0  0  0  0  0  0  0  0  0
   -1.1221   -0.3066    0.3207 C   0  0  0  0  0  0  0  0  0  0  0  0
    2.9161   -1.5900   -0.8716 C   0  0  0  0  0  0  0  0  0  0  0  0
   -2.9165   -1.5894   -0.8717 C   0  0  0  0  0  0  0  0  0  0  0  0
    0.0001    1.6019   -0.0460 C   0  0  0  0  0  0  0  0  0  0  0  0
  1 11  1  0
  2  7  2  0
  2  8  1  0
  3  8  2  0
  3 11  1  0
  4  7  1  0
  4 11  2  0
  5  7  1  0
  5  9  1  0
  6  8  1  0
  6 10  1  0
M  END
>  <PUBCHEM_COMPOUND_CID>  (1) 
12795

>  <PUBCHEM_CONFORMER_RMSD>  (1) 
0.4

>  <PUBCHEM_CONFORMER_DIVERSEORDER>  (1) 
1
9
4
5
2
3
7
6
8

>  <PUBCHEM_MMFF94_PARTIAL_CHARGES>  (1) 
9
1 -0.18
11 0.8
2 -0.62
3 -0.62
4 -0.62
5 0.14
6 0.14
7 0.48
8 0.48

>  <PUBCHEM_EFFECTIVE_ROTOR_COUNT>  (1) 
2

>  <PUBCHEM_PHARMACOPHORE_FEATURES>  (1) 
6
1 10 hydrophobe
1 9 hydrophobe
3 2 3 8 cation
3 2 4 7 cation
3 3 4 11 cation
6 2 3 4 7 8 11 rings

>  <PUBCHEM_HEAVY_ATOM_COUNT>  (1) 
11

>  <PUBCHEM_ATOM_DEF_STEREO_COUNT>  (1) 
0

>  <PUBCHEM_ATOM_UDEF_STEREO_COUNT>  (1) 
0

>  <PUBCHEM_BOND_DEF_STEREO_COUNT>  (1) 
0

>  <PUBCHEM_BOND_UDEF_STEREO_COUNT>  (1) 
0

>  <PUBCHEM_ISOTOPIC_ATOM_COUNT>  (1) 
0

>  <PUBCHEM_COMPONENT_COUNT>  (1) 
1

>  <PUBCHEM_CACTVS_TAUTO_COUNT>  (1) 
4

>  <PUBCHEM_CONFORMER_ID>  (1) 
000031FB00000001

>  <PUBCHEM_MMFF94_ENERGY>  (1) 
11.5883

>  <PUBCHEM_FEATURE_SELFOVERLAP>  (1) 
33.219

>  <PUBCHEM_SHAPE_FINGERPRINT>  (1) 
1 1 17688026835261839053
12138202 97 17763469413506336286
12716758 59 17763745391030448138
14128692 85 18342181089196980034
20645477 70 18050275170956269391
20711985 344 18191865626197710898
20871998 184 18124886659204331279
20871998 22 18413109471971700666
21040471 1 17471568833181369600
21524375 3 17107346784544072360
23552423 10 18187936044939371946
23559900 14 17478606807955743902
241688 4 18409166580203361121
2748010 2 18410003338653792561
53812653 217 18049162159475291002
7364860 26 18125442170264002385
81228 2 18264486178736900792

>  <PUBCHEM_SHAPE_MULTIPOLES>  (1) 
213.3
3.82
2.92
0.84
0
3.16
0.11
-3.65
0.78
0
0.67
0
-0.25
0

>  <PUBCHEM_SHAPE_SELFOVERLAP>  (1) 
418.441

>  <PUBCHEM_SHAPE_VOLUME>  (1) 
127

>  <PUBCHEM_COORDINATE_TYPE>  (1) 
2
5
10

$$$$
