12797
     RDKit          3D

 11 12  0  0  1  0  0  0  0  0999 V2000
   -0.6100   -0.8953    0.4929 O   0  0  0  0  0  0  0  0  0  0  0  0
   -3.4184    1.4468   -0.3728 N   0  0  0  0  0  0  0  0  0  0  0  0
   -2.7735    0.3276    0.3174 C   0  0  0  0  0  0  0  0  0  0  0  0
   -1.6630   -0.4354   -0.3528 C   0  0  0  0  0  0  0  0  0  0  0  0
   -3.0087   -1.0780   -0.1525 C   0  0  0  0  0  0  0  0  0  0  0  0
    0.6358   -0.4010    0.2556 C   0  0  0  0  0  0  0  0  0  0  0  0
    0.8692    0.9717    0.3395 C   0  0  0  0  0  0  0  0  0  0  0  0
    1.6788   -1.2669   -0.0727 C   0  0  0  0  0  0  0  0  0  0  0  0
    2.1457    1.4784    0.0953 C   0  0  0  0  0  0  0  0  0  0  0  0
    2.9553   -0.7603   -0.3168 C   0  0  0  0  0  0  0  0  0  0  0  0
    3.1887    0.6124   -0.2329 C   0  0  0  0  0  0  0  0  0  0  0  0
  1  4  1  0
  1  6  1  0
  2  3  1  0
  3  4  1  0
  3  5  1  0
  4  5  1  0
  6  7  2  0
  6  8  1  0
  7  9  1  0
  8 10  2  0
  9 11  2  0
 10 11  1  0
M  END
>  <PUBCHEM_COMPOUND_CID>  (1) 
12797

>  <PUBCHEM_CONFORMER_RMSD>  (1) 
0.6

>  <PUBCHEM_CONFORMER_DIVERSEORDER>  (1) 
1
5
6
3
4
2

>  <PUBCHEM_MMFF94_PARTIAL_CHARGES>  (1) 
22
1 -0.23
10 -0.15
11 -0.15
12 0.1
13 0.1
14 0.1
15 0.1
16 0.36
17 0.36
18 0.15
19 0.15
2 -0.88
20 0.15
21 0.15
22 0.15
3 0.06
4 0.05
5 -0.2
6 0.08
7 -0.15
8 -0.15
9 -0.15

>  <PUBCHEM_EFFECTIVE_ROTOR_COUNT>  (1) 
2.6

>  <PUBCHEM_PHARMACOPHORE_FEATURES>  (1) 
4
1 1 acceptor
1 2 cation
1 2 donor
6 6 7 8 9 10 11 rings

>  <PUBCHEM_HEAVY_ATOM_COUNT>  (1) 
11

>  <PUBCHEM_ATOM_DEF_STEREO_COUNT>  (1) 
2

>  <PUBCHEM_ATOM_UDEF_STEREO_COUNT>  (1) 
0

>  <PUBCHEM_BOND_DEF_STEREO_COUNT>  (1) 
0

>  <PUBCHEM_BOND_UDEF_STEREO_COUNT>  (1) 
0

>  <PUBCHEM_ISOTOPIC_ATOM_COUNT>  (1) 
0

>  <PUBCHEM_COMPONENT_COUNT>  (1) 
1

>  <PUBCHEM_CACTVS_TAUTO_COUNT>  (1) 
1

>  <PUBCHEM_CONFORMER_ID>  (1) 
000031FD00000001

>  <PUBCHEM_MMFF94_ENERGY>  (1) 
29.9739

>  <PUBCHEM_FEATURE_SELFOVERLAP>  (1) 
20.297

>  <PUBCHEM_SHAPE_FINGERPRINT>  (1) 
10130415 120 18261950752647840090
10608611 8 18410008874956398825
11401426 45 18272086102630567418
12897270 3 18341894129557354515
12932764 1 17560516317285780619
14144814 61 18412544318689260195
14325111 11 18410575119033373291
14390081 3 18408320016611377049
15775835 57 18408608037208093013
17844478 74 18114757009260202217
18186145 218 18343591728271340146
19973954 147 18409450331797542337
20201158 50 18412546487700576558
20645477 70 18342738477241983223
20653085 51 18408610253442808009
23402655 69 18342172259071247861
3248919 1 17385725837010727379
63268167 104 18413394215302271416
93112 12 18413670201532258743

>  <PUBCHEM_SHAPE_MULTIPOLES>  (1) 
215.52
5.95
1.5
0.68
2.32
0.23
0
0.78
0.73
-0.05
0.04
0.03
0
0.16

>  <PUBCHEM_SHAPE_SELFOVERLAP>  (1) 
446.384

>  <PUBCHEM_SHAPE_VOLUME>  (1) 
123.4

>  <PUBCHEM_COORDINATE_TYPE>  (1) 
2
5
10

$$$$
