12799
     RDKit          3D

 12 13  0  0  0  0  0  0  0  0999 V2000
    0.8999   -2.4205   -0.0014 O   0  0  0  0  0  0  0  0  0  0  0  0
    2.8397    1.7308   -0.0003 O   0  0  0  0  0  0  0  0  0  0  0  0
    0.6070    1.0401    0.0011 N   0  0  0  0  0  0  0  0  0  0  0  0
    2.2058   -0.5056    0.0005 N   0  0  0  0  0  0  0  0  0  0  0  0
   -0.1403   -0.2043    0.0002 C   0  0  0  0  0  0  0  0  0  0  0  0
   -0.9772   -0.3588   -1.2731 C   0  0  0  0  0  0  0  0  0  0  0  0
   -0.9781   -0.3604    1.2728 C   0  0  0  0  0  0  0  0  0  0  0  0
   -2.2114    0.5429   -1.2635 C   0  0  0  0  0  0  0  0  0  0  0  0
   -2.2121    0.5412    1.2635 C   0  0  0  0  0  0  0  0  0  0  0  0
   -3.0446    0.3453   -0.0004 C   0  0  0  0  0  0  0  0  0  0  0  0
    1.0226   -1.2029    0.0000 C   0  0  0  0  0  0  0  0  0  0  0  0
    1.9885    0.8522    0.0006 C   0  0  0  0  0  0  0  0  0  0  0  0
  1 11  2  0
  2 12  2  0
  3  5  1  0
  3 12  1  0
  4 11  1  0
  4 12  1  0
  5  6  1  0
  5  7  1  0
  5 11  1  0
  6  8  1  0
  7  9  1  0
  8 10  1  0
  9 10  1  0
M  END
>  <PUBCHEM_COMPOUND_CID>  (1) 
12799

>  <PUBCHEM_CONFORMER_RMSD>  (1) 
0.4

>  <PUBCHEM_CONFORMER_DIVERSEORDER>  (1) 
1
2
3
4

>  <PUBCHEM_MMFF94_PARTIAL_CHARGES>  (1) 
9
1 -0.57
11 0.57
12 0.69
2 -0.57
23 0.37
24 0.37
3 -0.73
4 -0.49
5 0.36

>  <PUBCHEM_EFFECTIVE_ROTOR_COUNT>  (1) 
1.4

>  <PUBCHEM_PHARMACOPHORE_FEATURES>  (1) 
6
1 1 acceptor
1 2 acceptor
1 3 donor
1 4 donor
5 3 4 5 11 12 rings
6 5 6 7 8 9 10 rings

>  <PUBCHEM_HEAVY_ATOM_COUNT>  (1) 
12

>  <PUBCHEM_ATOM_DEF_STEREO_COUNT>  (1) 
0

>  <PUBCHEM_ATOM_UDEF_STEREO_COUNT>  (1) 
0

>  <PUBCHEM_BOND_DEF_STEREO_COUNT>  (1) 
0

>  <PUBCHEM_BOND_UDEF_STEREO_COUNT>  (1) 
0

>  <PUBCHEM_ISOTOPIC_ATOM_COUNT>  (1) 
0

>  <PUBCHEM_COMPONENT_COUNT>  (1) 
1

>  <PUBCHEM_CACTVS_TAUTO_COUNT>  (1) 
5

>  <PUBCHEM_CONFORMER_ID>  (1) 
000031FF00000001

>  <PUBCHEM_MMFF94_ENERGY>  (1) 
19.2501

>  <PUBCHEM_FEATURE_SELFOVERLAP>  (1) 
30.524

>  <PUBCHEM_SHAPE_FINGERPRINT>  (1) 
10857977 72 16515694342272840645
11031198 65 18408047303188771325
12326174 3 18188762834602041450
12423570 1 14943456683358360295
12716758 59 14979965735246595885
13024252 1 14491849758486983496
13839132 238 17313658235857255709
13898156 1 17346032260436011187
15219456 202 17967813821021105720
15310529 11 18272367547373825417
15775835 57 17988649609491629601
16945 1 18338798892608620551
19837323 101 16055781856641251153
20645464 45 17531242859504542273
20653085 51 17273717505189277648
21040471 1 18266740371279678372
228727 97 17560799978532720337
23211744 41 17749381568450799171
23552423 10 17130717076059552959
2748010 2 18265064685415256770
29004967 10 18263083219169320387
369184 2 17676480666232381969
5084963 1 17988639649377619307
528886 8 18340197574499465840
63268167 104 18272649051909060888
77492 1 17703788094012007915
81228 2 17543916067071457570

>  <PUBCHEM_SHAPE_MULTIPOLES>  (1) 
225.25
3.88
1.55
1.17
0.31
0.52
0
-1.44
0
-1.26
0
0.9
-0.03
0

>  <PUBCHEM_SHAPE_SELFOVERLAP>  (1) 
473.104

>  <PUBCHEM_SHAPE_VOLUME>  (1) 
127.3

>  <PUBCHEM_COORDINATE_TYPE>  (1) 
2
5
10

$$$$
