12806
     RDKit          3D

 12 12  0  0  0  0  0  0  0  0999 V2000
    2.4779   -1.2551    0.0015 F   0  0  0  0  0  0  0  0  0  0  0  0
    2.4802    0.6278   -1.0856 F   0  0  0  0  0  0  0  0  0  0  0  0
    2.4519    0.6316    1.0946 F   0  0  0  0  0  0  0  0  0  0  0  0
   -0.1394   -1.2003   -0.0014 N   0  0  0  0  0  0  0  0  0  0  0  0
   -0.1394    1.1993   -0.0024 N   0  0  0  0  0  0  0  0  0  0  0  0
   -2.2175   -0.0005   -0.0014 N   0  0  0  0  0  0  0  0  0  0  0  0
   -2.1857   -2.3455    0.0015 N   0  0  0  0  0  0  0  0  0  0  0  0
   -2.1859    2.3443   -0.0008 N   0  0  0  0  0  0  0  0  0  0  0  0
    0.4636   -0.0004   -0.0021 C   0  0  0  0  0  0  0  0  0  0  0  0
    1.9544   -0.0002   -0.0005 C   0  0  0  0  0  0  0  0  0  0  0  0
   -1.4800   -1.1226   -0.0012 C   0  0  0  0  0  0  0  0  0  0  0  0
   -1.4800    1.1216   -0.0022 C   0  0  0  0  0  0  0  0  0  0  0  0
  1 10  1  0
  2 10  1  0
  3 10  1  0
  4  9  2  0
  4 11  1  0
  5  9  1  0
  5 12  2  0
  6 11  2  0
  6 12  1  0
  7 11  1  0
  8 12  1  0
  9 10  1  0
M  END
>  <PUBCHEM_COMPOUND_CID>  (1) 
12806

>  <PUBCHEM_CONFORMER_RMSD>  (1) 
0.4

>  <PUBCHEM_CONFORMER_DIVERSEORDER>  (1) 
1

>  <PUBCHEM_MMFF94_PARTIAL_CHARGES>  (1) 
16
1 -0.34
10 1.16
11 0.72
12 0.72
13 0.4
14 0.4
15 0.4
16 0.4
2 -0.34
3 -0.34
4 -0.62
5 -0.62
6 -0.62
7 -0.9
8 -0.9
9 0.48

>  <PUBCHEM_EFFECTIVE_ROTOR_COUNT>  (1) 
1

>  <PUBCHEM_PHARMACOPHORE_FEATURES>  (1) 
5
1 7 donor
1 8 donor
4 4 6 7 11 cation
4 5 6 8 12 cation
6 4 5 6 9 11 12 rings

>  <PUBCHEM_HEAVY_ATOM_COUNT>  (1) 
12

>  <PUBCHEM_ATOM_DEF_STEREO_COUNT>  (1) 
0

>  <PUBCHEM_ATOM_UDEF_STEREO_COUNT>  (1) 
0

>  <PUBCHEM_BOND_DEF_STEREO_COUNT>  (1) 
0

>  <PUBCHEM_BOND_UDEF_STEREO_COUNT>  (1) 
0

>  <PUBCHEM_ISOTOPIC_ATOM_COUNT>  (1) 
0

>  <PUBCHEM_COMPONENT_COUNT>  (1) 
1

>  <PUBCHEM_CACTVS_TAUTO_COUNT>  (1) 
5

>  <PUBCHEM_CONFORMER_ID>  (1) 
0000320600000001

>  <PUBCHEM_MMFF94_ENERGY>  (1) 
25.4219

>  <PUBCHEM_FEATURE_SELFOVERLAP>  (1) 
25.415

>  <PUBCHEM_SHAPE_FINGERPRINT>  (1) 
1 1 17761769564266410565
10857977 72 18197487639572252682
12716758 59 18341047415383293131
12932764 1 17918275380724825758
16945 1 18410574015422008993
19973954 147 18412261757191448520
20871998 184 18200878473524525735
21040471 1 18338797784544052901
23552423 10 18259705596927203706
23559900 14 18128540354642100070
241688 4 18194682790094971747
2748010 2 18121506752250389045
369184 2 18130499781970170579
5084963 1 18262801748529697016
81228 2 18410007775797945761

>  <PUBCHEM_SHAPE_MULTIPOLES>  (1) 
200.23
3.75
2.04
0.7
1.5
0.1
0
0
0.01
-1.78
0
0.38
-0.1
0

>  <PUBCHEM_SHAPE_SELFOVERLAP>  (1) 
420.328

>  <PUBCHEM_SHAPE_VOLUME>  (1) 
112.7

>  <PUBCHEM_COORDINATE_TYPE>  (1) 
2
5
10

$$$$
