1280
     RDKit          3D

 18 19  0  0  1  0  0  0  0  0999 V2000
   -1.6924    1.7455    0.0704 S   0  0  0  0  0  0  0  0  0  0  0  0
    1.2462    1.4251    0.2137 S   0  0  0  0  0  0  0  0  0  0  0  0
    3.7882   -0.0115    0.0984 S   0  0  0  0  0  0  0  0  0  0  0  0
   -1.8678    2.0484    1.4748 O   0  0  0  0  0  0  0  0  0  0  0  0
   -1.4875    2.7617   -0.9398 O   0  0  0  0  0  0  0  0  0  0  0  0
    4.1004    1.1505    0.9227 O   0  0  0  0  0  0  0  0  0  0  0  0
    4.1966   -1.3472    0.5150 O   0  0  0  0  0  0  0  0  0  0  0  0
   -1.3241   -2.7763    0.2935 N   0  0  0  0  0  0  0  0  0  0  0  0
    4.4129    0.2798   -1.4749 N   0  0  0  0  0  0  0  0  0  0  0  0
   -2.9698    0.5991   -0.4848 C   0  0  0  0  0  0  0  0  0  0  0  0
   -1.4655   -1.4923   -0.3975 C   0  0  0  0  0  0  0  0  0  0  0  0
   -2.7495   -0.7996    0.1217 C   0  0  0  0  0  0  0  0  0  0  0  0
   -0.2245   -0.6615   -0.1878 C   0  0  0  0  0  0  0  0  0  0  0  0
   -0.2740    0.7040    0.0027 C   0  0  0  0  0  0  0  0  0  0  0  0
   -4.3476    1.1483   -0.1328 C   0  0  0  0  0  0  0  0  0  0  0  0
    1.1389   -1.1051   -0.2117 C   0  0  0  0  0  0  0  0  0  0  0  0
    2.0346   -0.0787    0.0037 C   0  0  0  0  0  0  0  0  0  0  0  0
   -2.5152   -3.5903    0.1128 C   0  0  0  0  0  0  0  0  0  0  0  0
  1  4  2  0
  1  5  2  0
  1 10  1  0
  1 14  1  0
  2 14  1  0
  2 17  1  0
  3  6  2  0
  3  7  2  0
  3  9  1  0
  3 17  1  0
  8 11  1  0
  8 18  1  0
 10 12  1  0
 10 15  1  0
 11 12  1  0
 11 13  1  0
 13 14  2  0
 13 16  1  0
 16 17  2  0
M  END
>  <PUBCHEM_COMPOUND_CID>  (1) 
1280

>  <PUBCHEM_CONFORMER_RMSD>  (1) 
0.6

>  <PUBCHEM_CONFORMER_DIVERSEORDER>  (1) 
3
2
9
4
10
8
6
5
7
1

>  <PUBCHEM_MMFF94_PARTIAL_CHARGES>  (1) 
20
1 1.26
10 0.11
11 0.45
13 -0.18
14 -0.02
16 -0.15
17 -0.02
18 0.27
2 -0.08
26 0.15
27 0.36
3 1.5
31 0.42
32 0.42
4 -0.65
5 -0.65
6 -0.65
7 -0.65
8 -0.9
9 -0.98

>  <PUBCHEM_EFFECTIVE_ROTOR_COUNT>  (1) 
2.6

>  <PUBCHEM_PHARMACOPHORE_FEATURES>  (1) 
9
1 4 acceptor
1 5 acceptor
1 6 acceptor
1 7 acceptor
1 8 cation
1 8 donor
1 9 donor
5 2 13 14 16 17 rings
6 1 10 11 12 13 14 rings

>  <PUBCHEM_HEAVY_ATOM_COUNT>  (1) 
18

>  <PUBCHEM_ATOM_DEF_STEREO_COUNT>  (1) 
0

>  <PUBCHEM_ATOM_UDEF_STEREO_COUNT>  (1) 
2

>  <PUBCHEM_BOND_DEF_STEREO_COUNT>  (1) 
0

>  <PUBCHEM_BOND_UDEF_STEREO_COUNT>  (1) 
0

>  <PUBCHEM_ISOTOPIC_ATOM_COUNT>  (1) 
0

>  <PUBCHEM_COMPONENT_COUNT>  (1) 
1

>  <PUBCHEM_CACTVS_TAUTO_COUNT>  (1) 
1

>  <PUBCHEM_CONFORMER_ID>  (1) 
0000050000000003

>  <PUBCHEM_MMFF94_ENERGY>  (1) 
20.8324

>  <PUBCHEM_FEATURE_SELFOVERLAP>  (1) 
45.743

>  <PUBCHEM_SHAPE_FINGERPRINT>  (1) 
10319926 262 18269531963216057264
10616163 171 18411139164736913246
10967382 1 18338795602774513095
11132069 177 18412823603290847504
11680986 33 18126557058059632825
12173636 292 18336819775968557165
12553582 1 17977389656998940534
13140716 1 18268708483807582225
13380535 76 18343017744520815175
13538477 17 18333730234568138614
13760787 19 18187086165659379846
14115302 16 18408889554897281981
14178342 30 18335967758216662834
14614273 12 18118963590503689957
14790565 3 18267027150594637081
15042514 8 18408042927039518451
15196674 1 18412258445570982313
15309172 13 18266182734000647689
16945 1 18411421712943108277
17804303 29 18413109480587846516
18186145 218 18130224840251114536
19591789 44 18193556653569782259
20510252 161 18343018874334298673
20645477 70 16773520976102227662
21524375 3 18269271257693964823
2334 1 17980196714278302407
23402539 116 18342165666512596527
23557571 272 18270694180538484534
23559900 14 18342454846924327936
2748010 2 18053936531131581901
5104073 3 18341045302618242850
54173680 148 18338233872634190259
58051976 100 18411139151898789206
6049 1 17988370364151123440
69090 78 18340480084594852297
81228 2 18338249252822361131
8809292 202 18411980282056417363
9709674 26 18272370858656896142

>  <PUBCHEM_SHAPE_MULTIPOLES>  (1) 
348.54
7.47
3.09
0.91
6.6
1.89
0.02
-0.37
0.27
-3.27
-0.24
0.35
-0.33
0.12

>  <PUBCHEM_SHAPE_SELFOVERLAP>  (1) 
689.078

>  <PUBCHEM_SHAPE_VOLUME>  (1) 
209.2

>  <PUBCHEM_COORDINATE_TYPE>  (1) 
2
5
10

$$$$
