12810
     RDKit          3D

 12 12  0  0  1  0  0  0  0  0999 V2000
    1.0438    0.6398   -0.0081 O   0  0  0  0  0  0  0  0  0  0  0  0
    2.5174    2.3430   -0.0182 O   0  0  0  0  0  0  0  0  0  0  0  0
    0.7532   -0.7322    0.3430 C   0  0  0  0  0  0  0  0  0  0  0  0
   -0.6367   -1.0559   -0.1881 C   0  0  0  0  0  0  0  0  0  0  0  0
    1.7902   -1.7039   -0.1972 C   0  0  0  0  0  0  0  0  0  0  0  0
   -1.6772   -0.0590    0.3216 C   0  0  0  0  0  0  0  0  0  0  0  0
    3.1589   -1.2408    0.2575 C   0  0  0  0  0  0  0  0  0  0  0  0
    3.4240    0.1502   -0.2790 C   0  0  0  0  0  0  0  0  0  0  0  0
   -3.0657   -0.3676   -0.2410 C   0  0  0  0  0  0  0  0  0  0  0  0
    2.3045    1.1330   -0.0495 C   0  0  0  0  0  0  0  0  0  0  0  0
   -4.1125    0.6087    0.2948 C   0  0  0  0  0  0  0  0  0  0  0  0
   -5.4999    0.2846   -0.2360 C   0  0  0  0  0  0  0  0  0  0  0  0
  1  3  1  0
  1 10  1  0
  2 10  2  0
  3  4  1  0
  3  5  1  0
  4  6  1  0
  5  7  1  0
  6  9  1  0
  7  8  1  0
  8 10  1  0
  9 11  1  0
 11 12  1  0
M  END
>  <PUBCHEM_COMPOUND_CID>  (1) 
12810

>  <PUBCHEM_CONFORMER_RMSD>  (1) 
0.6

>  <PUBCHEM_CONFORMER_DIVERSEORDER>  (1) 
1
84
88
52
100
23
94
27
101
4
91
81
17
97
6
76
95
87
25
69
98
24
83
56
89
96
48
22
99
35
82
15
14
86
9
21
93
57
13
92
102
68
53
5
65
54
45
47
74
90
28
63
60
41
37
55
12
78
32
34
30
49
85
51
7
44
33
64
58
29
10
77
67
3
71
40
31
2
70
61
20
46
39
18
38
42
72
43
62
73
80
66
11
79
75
19
16
59
26
36
8
50

>  <PUBCHEM_MMFF94_PARTIAL_CHARGES>  (1) 
5
1 -0.43
10 0.66
2 -0.57
3 0.28
8 0.06

>  <PUBCHEM_EFFECTIVE_ROTOR_COUNT>  (1) 
5

>  <PUBCHEM_PHARMACOPHORE_FEATURES>  (1) 
4
1 12 hydrophobe
1 2 acceptor
4 4 6 9 11 hydrophobe
6 1 3 5 7 8 10 rings

>  <PUBCHEM_HEAVY_ATOM_COUNT>  (1) 
12

>  <PUBCHEM_ATOM_DEF_STEREO_COUNT>  (1) 
0

>  <PUBCHEM_ATOM_UDEF_STEREO_COUNT>  (1) 
1

>  <PUBCHEM_BOND_DEF_STEREO_COUNT>  (1) 
0

>  <PUBCHEM_BOND_UDEF_STEREO_COUNT>  (1) 
0

>  <PUBCHEM_ISOTOPIC_ATOM_COUNT>  (1) 
0

>  <PUBCHEM_COMPONENT_COUNT>  (1) 
1

>  <PUBCHEM_CACTVS_TAUTO_COUNT>  (1) 
1

>  <PUBCHEM_CONFORMER_ID>  (1) 
0000320A00000001

>  <PUBCHEM_MMFF94_ENERGY>  (1) 
9.4846

>  <PUBCHEM_FEATURE_SELFOVERLAP>  (1) 
20.297

>  <PUBCHEM_SHAPE_FINGERPRINT>  (1) 
11471102 20 18410012117667048950
12346645 6 18342458131941495246
12932764 1 17385994066598642411
13081056 2 18333730209093902965
13922767 16 18408884022963339882
14251717 144 18412262809405707999
14325111 11 18410856607169441859
14415576 193 18412266138110649677
14897335 6 18341610464163322563
17802600 8 18336261254437634429
17834072 33 18341609343957612823
18186145 218 18040710364328083727
20606313 2 18410575071994487358
20645477 70 18411700941969032007
21119208 17 17988926660757156567
212847 35 18187086139330238084
23380061 81 18408325496810396185
23402655 69 18342176665596709293
23557571 272 13830137161143878043
3060560 45 18273220776865926846
4047638 21 18410294717803897898
449060 62 18410858788812472133
522135 26 18408604738409485039
77779 3 18410857668464220339

>  <PUBCHEM_SHAPE_MULTIPOLES>  (1) 
235.22
8.99
1.66
0.66
12.62
0.52
-0.01
1.54
0.44
-1.91
0.03
0.06
-0.04
-0.16

>  <PUBCHEM_SHAPE_SELFOVERLAP>  (1) 
451.527

>  <PUBCHEM_SHAPE_VOLUME>  (1) 
143.9

>  <PUBCHEM_COORDINATE_TYPE>  (1) 
2
5
10

$$$$
