12812
     RDKit          3D

 12 12  0  0  0  0  0  0  0  0999 V2000
    1.1340   -0.0004   -0.1090 O   0  0  0  0  0  0  0  0  0  0  0  0
    2.4019   -0.0023   -0.7095 N   0  0  0  0  0  0  0  0  0  0  0  0
    4.6648   -0.0008   -0.1354 N   0  0  0  0  0  0  0  0  0  0  0  0
    3.1411    0.0055    1.5683 N   0  0  0  0  0  0  0  0  0  0  0  0
   -1.2086   -0.0017   -0.5195 C   0  0  0  0  0  0  0  0  0  0  0  0
    0.1579   -0.0037   -1.1394 C   0  0  0  0  0  0  0  0  0  0  0  0
   -1.8359   -1.2088   -0.2316 C   0  0  0  0  0  0  0  0  0  0  0  0
   -1.8356    1.2072   -0.2392 C   0  0  0  0  0  0  0  0  0  0  0  0
   -3.1064   -1.2068    0.3442 C   0  0  0  0  0  0  0  0  0  0  0  0
   -3.1061    1.2091    0.3368 C   0  0  0  0  0  0  0  0  0  0  0  0
   -3.7415    0.0020    0.6283 C   0  0  0  0  0  0  0  0  0  0  0  0
    3.3343    0.0006    0.2060 C   0  0  0  0  0  0  0  0  0  0  0  0
  1  2  1  0
  1  6  1  0
  2 12  2  3
  3 12  1  0
  4 12  1  0
  5  6  1  0
  5  7  2  0
  5  8  1  0
  7  9  1  0
  8 10  2  0
  9 11  2  0
 10 11  1  0
M  END
>  <PUBCHEM_COMPOUND_CID>  (1) 
12812

>  <PUBCHEM_CONFORMER_RMSD>  (1) 
0.6

>  <PUBCHEM_CONFORMER_DIVERSEORDER>  (1) 
1
7
9
2
8
10
6
5
4
3

>  <PUBCHEM_MMFF94_PARTIAL_CHARGES>  (1) 
21
1 -0.22
10 -0.15
11 -0.15
12 0.55
15 0.15
16 0.15
17 0.15
18 0.15
19 0.15
2 -0.51
20 0.4
21 0.4
22 0.4
23 0.4
3 -0.85
4 -0.85
5 -0.14
6 0.42
7 -0.15
8 -0.15
9 -0.15

>  <PUBCHEM_EFFECTIVE_ROTOR_COUNT>  (1) 
3

>  <PUBCHEM_PHARMACOPHORE_FEATURES>  (1) 
4
1 3 donor
1 4 donor
4 2 3 4 12 cation
6 5 7 8 9 10 11 rings

>  <PUBCHEM_HEAVY_ATOM_COUNT>  (1) 
12

>  <PUBCHEM_ATOM_DEF_STEREO_COUNT>  (1) 
0

>  <PUBCHEM_ATOM_UDEF_STEREO_COUNT>  (1) 
0

>  <PUBCHEM_BOND_DEF_STEREO_COUNT>  (1) 
0

>  <PUBCHEM_BOND_UDEF_STEREO_COUNT>  (1) 
0

>  <PUBCHEM_ISOTOPIC_ATOM_COUNT>  (1) 
0

>  <PUBCHEM_COMPONENT_COUNT>  (1) 
1

>  <PUBCHEM_CACTVS_TAUTO_COUNT>  (1) 
2

>  <PUBCHEM_CONFORMER_ID>  (1) 
0000320C00000001

>  <PUBCHEM_MMFF94_ENERGY>  (1) 
30.0883

>  <PUBCHEM_FEATURE_SELFOVERLAP>  (1) 
20.352

>  <PUBCHEM_SHAPE_FINGERPRINT>  (1) 
11127187 94 10737290164655612193
12251169 10 18408889546322924629
12932764 1 17632852027788987822
13024252 1 14634869743578474261
13897977 58 18338243755411999836
14144814 61 18040433287149730502
15219456 202 17917441864869266207
15375462 189 17458061564889008368
18186145 218 15267345128242934316
200 152 15864067693533855319
20279233 1 17775291551248171503
20281407 28 15791729710956019212
20645464 45 17775291560196769583
20645477 70 15502918762853590562
20871999 31 9727349083616178753
21119208 17 11383834857122432560
21650355 55 18337675316869753427
22485316 2 16081084883197441856
23402539 116 18272365387374450135
23403322 49 12901536927908909280
23500284 214 17845382067935179913
90316 7 18114463366557402117

>  <PUBCHEM_SHAPE_MULTIPOLES>  (1) 
226.14
7.98
1.12
1.01
7.39
0
0.14
0
2.08
-1.27
0.02
0.45
0
0

>  <PUBCHEM_SHAPE_SELFOVERLAP>  (1) 
459.973

>  <PUBCHEM_SHAPE_VOLUME>  (1) 
131.6

>  <PUBCHEM_COORDINATE_TYPE>  (1) 
2
5
10

$$$$
