12818
     RDKit          3D

 13 13  0  0  0  0  0  0  0  0999 V2000
    4.5800    0.0884    0.4947 Br  0  0  0  0  0  0  0  0  0  0  0  0
   -1.7180   -0.0870   -0.7684 S   0  0  0  0  0  0  0  0  0  0  0  0
   -2.0421    1.1165   -1.5117 O   0  0  0  0  0  0  0  0  0  0  0  0
   -2.0033   -1.3848   -1.3519 O   0  0  0  0  0  0  0  0  0  0  0  0
   -2.4204    0.0028    0.8040 N   0  0  0  0  0  0  0  0  0  0  0  0
    0.0177   -0.0382   -0.4196 C   0  0  0  0  0  0  0  0  0  0  0  0
    0.6949   -1.2251   -0.2101 C   0  0  0  0  0  0  0  0  0  0  0  0
    0.6586    1.1857   -0.3645 C   0  0  0  0  0  0  0  0  0  0  0  0
   -2.0859   -1.0695    1.7753 C   0  0  0  0  0  0  0  0  0  0  0  0
   -2.4966    1.3364    1.4533 C   0  0  0  0  0  0  0  0  0  0  0  0
    2.0621   -1.1868    0.0644 C   0  0  0  0  0  0  0  0  0  0  0  0
    2.0257    1.2239   -0.0900 C   0  0  0  0  0  0  0  0  0  0  0  0
    2.7274    0.0377    0.1245 C   0  0  0  0  0  0  0  0  0  0  0  0
  1 13  1  0
  2  3  2  0
  2  4  2  0
  2  5  1  0
  2  6  1  0
  5  9  1  0
  5 10  1  0
  6  7  2  0
  6  8  1  0
  7 11  1  0
  8 12  2  0
 11 13  2  0
 12 13  1  0
M  END
>  <PUBCHEM_COMPOUND_CID>  (1) 
12818

>  <PUBCHEM_CONFORMER_RMSD>  (1) 
0.6

>  <PUBCHEM_CONFORMER_DIVERSEORDER>  (1) 
1
3
2

>  <PUBCHEM_MMFF94_PARTIAL_CHARGES>  (1) 
17
1 -0.11
10 0.36
11 -0.15
12 -0.15
13 0.11
14 0.15
15 0.15
2 1.45
22 0.15
23 0.15
3 -0.65
4 -0.65
5 -0.85
6 -0.01
7 -0.15
8 -0.15
9 0.36

>  <PUBCHEM_EFFECTIVE_ROTOR_COUNT>  (1) 
2

>  <PUBCHEM_PHARMACOPHORE_FEATURES>  (1) 
4
1 1 hydrophobe
1 3 acceptor
1 4 acceptor
6 6 7 8 11 12 13 rings

>  <PUBCHEM_HEAVY_ATOM_COUNT>  (1) 
13

>  <PUBCHEM_ATOM_DEF_STEREO_COUNT>  (1) 
0

>  <PUBCHEM_ATOM_UDEF_STEREO_COUNT>  (1) 
0

>  <PUBCHEM_BOND_DEF_STEREO_COUNT>  (1) 
0

>  <PUBCHEM_BOND_UDEF_STEREO_COUNT>  (1) 
0

>  <PUBCHEM_ISOTOPIC_ATOM_COUNT>  (1) 
0

>  <PUBCHEM_COMPONENT_COUNT>  (1) 
1

>  <PUBCHEM_CACTVS_TAUTO_COUNT>  (1) 
1

>  <PUBCHEM_CONFORMER_ID>  (1) 
0000321200000001

>  <PUBCHEM_MMFF94_ENERGY>  (1) 
19.1522

>  <PUBCHEM_FEATURE_SELFOVERLAP>  (1) 
20.316

>  <PUBCHEM_SHAPE_FINGERPRINT>  (1) 
11769659 78 15357687600867081264
12138202 97 16371267983542316959
12251169 10 18261690228226050897
124424 183 17604413133861553668
12491281 212 17989489615074071578
12932764 1 18409163312155014414
13024252 1 17312816070311847935
13296909 8 17561358504469373280
13764800 53 15123524617841907427
13839132 238 14404639665910390473
15309172 13 18412542115698240782
15653759 3 16950281819236152552
15775835 57 17274829008360183865
16945 1 18341891875111000436
17844478 74 17821737138640248164
18186145 218 18131348635824182268
19026448 4 15646764596856521916
19026448 5 16128370481042233398
19837323 101 14045201640074352091
200 152 18200019755143601823
20279233 1 17821444638566910570
20645464 45 17967534540915121195
21061003 4 17822297889691895604
23402539 116 17241030068594374783
2748010 2 18121773925186412390
305870 269 17489035850914796038
5084963 1 18269541905105361302
568465 68 18262816149692171682
63268167 104 18341320124526898926

>  <PUBCHEM_SHAPE_MULTIPOLES>  (1) 
260.61
5.95
1.49
1.41
5.32
0.01
0.23
0.33
1.67
-0.37
0.02
-1.53
-0.05
-0.07

>  <PUBCHEM_SHAPE_SELFOVERLAP>  (1) 
503.268

>  <PUBCHEM_SHAPE_VOLUME>  (1) 
163.1

>  <PUBCHEM_COORDINATE_TYPE>  (1) 
2
5
10

$$$$
