12811
     RDKit          3D

 12 12  0  0  0  0  0  0  0  0999 V2000
   -2.4618   -1.5842    0.3916 S   0  0  0  0  0  0  0  0  0  0  0  0
    0.6405    1.8560    0.0718 O   0  0  0  0  0  0  0  0  0  0  0  0
    2.5760   -0.4053   -1.4067 O   0  0  0  0  0  0  0  0  0  0  0  0
   -0.1809   -0.3009    0.5355 N   0  0  0  0  0  0  0  0  0  0  0  0
   -2.1132    0.8888   -0.2759 N   0  0  0  0  0  0  0  0  0  0  0  0
    2.1478    0.2018    0.8859 C   0  0  0  0  0  0  0  0  0  0  0  0
    0.7798    0.6981    0.4560 C   0  0  0  0  0  0  0  0  0  0  0  0
    2.9982   -0.3150   -0.2549 C   0  0  0  0  0  0  0  0  0  0  0  0
   -1.5275   -0.1743    0.1834 C   0  0  0  0  0  0  0  0  0  0  0  0
    4.4015   -0.7351    0.0957 C   0  0  0  0  0  0  0  0  0  0  0  0
   -3.8186   -0.7107   -0.1892 C   0  0  0  0  0  0  0  0  0  0  0  0
   -3.4418    0.5807   -0.4933 C   0  0  0  0  0  0  0  0  0  0  0  0
  1  9  1  0
  1 11  1  0
  2  7  2  0
  3  8  2  0
  4  7  1  0
  4  9  1  0
  5  9  2  0
  5 12  1  0
  6  7  1  0
  6  8  1  0
  8 10  1  0
 11 12  2  0
M  END
>  <PUBCHEM_COMPOUND_CID>  (1) 
12811

>  <PUBCHEM_CONFORMER_RMSD>  (1) 
0.6

>  <PUBCHEM_CONFORMER_DIVERSEORDER>  (1) 
1
35
19
39
37
22
3
32
10
15
33
38
11
36
7
8
16
21
34
17
23
25
12
9
27
31
18
28
2
24
13
4
14
29
20
30
26
6
5

>  <PUBCHEM_MMFF94_PARTIAL_CHARGES>  (1) 
15
1 -0.08
10 0.06
11 -0.11
12 0.08
15 0.37
19 0.15
2 -0.57
20 0.15
3 -0.57
4 -0.49
5 -0.57
6 0.12
7 0.57
8 0.45
9 0.44

>  <PUBCHEM_EFFECTIVE_ROTOR_COUNT>  (1) 
4

>  <PUBCHEM_PHARMACOPHORE_FEATURES>  (1) 
5
1 2 acceptor
1 3 acceptor
1 4 donor
1 6 anion
5 1 5 9 11 12 rings

>  <PUBCHEM_HEAVY_ATOM_COUNT>  (1) 
12

>  <PUBCHEM_ATOM_DEF_STEREO_COUNT>  (1) 
0

>  <PUBCHEM_ATOM_UDEF_STEREO_COUNT>  (1) 
0

>  <PUBCHEM_BOND_DEF_STEREO_COUNT>  (1) 
0

>  <PUBCHEM_BOND_UDEF_STEREO_COUNT>  (1) 
0

>  <PUBCHEM_ISOTOPIC_ATOM_COUNT>  (1) 
0

>  <PUBCHEM_COMPONENT_COUNT>  (1) 
1

>  <PUBCHEM_CACTVS_TAUTO_COUNT>  (1) 
13

>  <PUBCHEM_CONFORMER_ID>  (1) 
0000320B00000001

>  <PUBCHEM_MMFF94_ENERGY>  (1) 
12.7545

>  <PUBCHEM_FEATURE_SELFOVERLAP>  (1) 
25.371

>  <PUBCHEM_SHAPE_FINGERPRINT>  (1) 
10465860 250 18411411796275033184
10465860 71 18335434464558596820
10751810 167 18040720268221851579
11062470 55 13758354474992995627
12032990 46 18337391642827738731
12251169 10 13470692554869029746
12932764 1 17531232989980848009
13296908 3 18342173401221097808
14252887 29 17275110518129396094
14911166 2 18334568036790523573
14993402 34 16443342096251221103
18186145 218 14418138430642233014
190213 19 16805041826106052667
1986462 14 18335419075959852215
20201158 50 18273498957238652566
20279233 1 18131070437153228982
20281407 28 18201723933742014962
20645476 183 17022901267916260043
20645477 70 17846777403677151982
20671657 53 18343024389051525944
20711983 171 16588575410210998559
21119208 17 16877943823857875438
22485316 2 18411133632702523698
23402539 116 18337663135820399212
23402655 69 15864064351975654230
23559900 14 18408881824857891346
57812782 119 17704068499536606607
581208 293 16845853490622355526
7364860 26 18126564758793732152
81228 2 17985562065045627032
93112 12 18261391186780364647

>  <PUBCHEM_SHAPE_MULTIPOLES>  (1) 
229.1
7.6
1.33
0.88
2.24
0.1
-0.12
-2.12
-1.12
-0.53
0.08
0.41
-0.05
0.4

>  <PUBCHEM_SHAPE_SELFOVERLAP>  (1) 
451.487

>  <PUBCHEM_SHAPE_VOLUME>  (1) 
137.6

>  <PUBCHEM_COORDINATE_TYPE>  (1) 
2
5
10

$$$$
