12816
     RDKit          3D

 13 14  0  0  0  0  0  0  0  0999 V2000
   -0.8326    2.2678    0.0088 O   0  0  0  0  0  0  0  0  0  0  0  0
   -2.3687   -2.0698    0.0083 O   0  0  0  0  0  0  0  0  0  0  0  0
   -0.2276   -1.1504    0.0025 N   0  0  0  0  0  0  0  0  0  0  0  0
   -1.9723    0.2340   -0.0079 N   0  0  0  0  0  0  0  0  0  0  0  0
    0.3950    0.1586    0.0006 C   0  0  0  0  0  0  0  0  0  0  0  0
    1.2156    0.3945    1.2722 C   0  0  0  0  0  0  0  0  0  0  0  0
    1.2128    0.3920   -1.2734 C   0  0  0  0  0  0  0  0  0  0  0  0
    2.5299   -0.3858    1.2623 C   0  0  0  0  0  0  0  0  0  0  0  0
    2.5271   -0.3880   -1.2650 C   0  0  0  0  0  0  0  0  0  0  0  0
    3.3387   -0.1120   -0.0025 C   0  0  0  0  0  0  0  0  0  0  0  0
   -0.8572    1.0431    0.0005 C   0  0  0  0  0  0  0  0  0  0  0  0
   -1.6212   -1.1004    0.0004 C   0  0  0  0  0  0  0  0  0  0  0  0
   -3.3393    0.7163   -0.0067 C   0  0  0  0  0  0  0  0  0  0  0  0
  1 11  2  0
  2 12  2  0
  3  5  1  0
  3 12  1  0
  4 11  1  0
  4 12  1  0
  4 13  1  0
  5  6  1  0
  5  7  1  0
  5 11  1  0
  6  8  1  0
  7  9  1  0
  8 10  1  0
  9 10  1  0
M  END
>  <PUBCHEM_COMPOUND_CID>  (1) 
12816

>  <PUBCHEM_CONFORMER_RMSD>  (1) 
0.4

>  <PUBCHEM_CONFORMER_DIVERSEORDER>  (1) 
1
2
3
4

>  <PUBCHEM_MMFF94_PARTIAL_CHARGES>  (1) 
9
1 -0.57
11 0.57
12 0.69
13 0.3
2 -0.57
24 0.37
3 -0.73
4 -0.42
5 0.36

>  <PUBCHEM_EFFECTIVE_ROTOR_COUNT>  (1) 
1.4

>  <PUBCHEM_PHARMACOPHORE_FEATURES>  (1) 
5
1 1 acceptor
1 2 acceptor
1 3 donor
5 3 4 5 11 12 rings
6 5 6 7 8 9 10 rings

>  <PUBCHEM_HEAVY_ATOM_COUNT>  (1) 
13

>  <PUBCHEM_ATOM_DEF_STEREO_COUNT>  (1) 
0

>  <PUBCHEM_ATOM_UDEF_STEREO_COUNT>  (1) 
0

>  <PUBCHEM_BOND_DEF_STEREO_COUNT>  (1) 
0

>  <PUBCHEM_BOND_UDEF_STEREO_COUNT>  (1) 
0

>  <PUBCHEM_ISOTOPIC_ATOM_COUNT>  (1) 
0

>  <PUBCHEM_COMPONENT_COUNT>  (1) 
1

>  <PUBCHEM_CACTVS_TAUTO_COUNT>  (1) 
2

>  <PUBCHEM_CONFORMER_ID>  (1) 
0000321000000001

>  <PUBCHEM_MMFF94_ENERGY>  (1) 
16.9548

>  <PUBCHEM_FEATURE_SELFOVERLAP>  (1) 
25.377

>  <PUBCHEM_SHAPE_FINGERPRINT>  (1) 
10857977 72 18201153355531024010
12423570 1 12407886250370429343
12716758 59 18198912404957650870
12932764 1 17749387074514658636
13538477 17 18113617880474279571
14128692 85 17822568421054843790
14993402 34 17967814911953368189
15219456 202 17846495980408704312
15310529 11 16443346455537395157
15775835 57 17385734594659969476
16945 1 18410856516700757060
18175812 5 17775562069932108276
20201158 50 17632580418315226198
20645476 183 17821738233946858695
20645477 70 17474381856741778351
20715346 28 17775283919070317082
21061003 4 16414935062391273566
21930827 45 18129105528327978576
23402539 116 18270668780065031093
23552423 10 17969788672758943685
23557571 272 18270970162431215280
23559900 14 18343304735147916622
2748010 2 18268421520137103465
29004967 10 16702310044139674622
369184 2 18342451522002416928
5084963 1 18059018276386035028
53812653 8 18189622657042722293
63268167 104 16805325487664267820
7364860 26 17910676797451798873
77492 1 17676206870609626210

>  <PUBCHEM_SHAPE_MULTIPOLES>  (1) 
245.83
4.68
1.53
1.13
0.05
0.02
0
0.46
-0.01
1.27
0.01
-0.98
-0.02
0

>  <PUBCHEM_SHAPE_SELFOVERLAP>  (1) 
513.598

>  <PUBCHEM_SHAPE_VOLUME>  (1) 
140.7

>  <PUBCHEM_COORDINATE_TYPE>  (1) 
2
5
10

$$$$
