12825
     RDKit          3D

 13 13  0  0  1  0  0  0  0  0999 V2000
   -1.7068    0.3514    0.3650 O   0  0  0  0  0  0  0  0  0  0  0  0
   -3.0806    0.3687   -1.4821 O   0  0  0  0  0  0  0  0  0  0  0  0
   -3.6145    1.5476    0.4186 N   0  0  0  0  0  0  0  0  0  0  0  0
    0.0775   -1.1980    0.9157 C   0  0  0  0  0  0  0  0  0  0  0  0
   -1.1656   -0.9295    0.0464 C   0  0  0  0  0  0  0  0  0  0  0  0
    1.2914   -0.4829    0.4262 C   0  0  0  0  0  0  0  0  0  0  0  0
   -2.2500   -1.9770    0.2647 C   0  0  0  0  0  0  0  0  0  0  0  0
    2.1385   -1.0974   -0.4961 C   0  0  0  0  0  0  0  0  0  0  0  0
    1.5796    0.8007    0.8903 C   0  0  0  0  0  0  0  0  0  0  0  0
    3.2737   -0.4287   -0.9542 C   0  0  0  0  0  0  0  0  0  0  0  0
    2.7148    1.4694    0.4321 C   0  0  0  0  0  0  0  0  0  0  0  0
    3.5618    0.8546   -0.4901 C   0  0  0  0  0  0  0  0  0  0  0  0
   -2.8197    0.7211   -0.3367 C   0  0  0  0  0  0  0  0  0  0  0  0
  1  5  1  0
  1 13  1  0
  2 13  2  0
  3 13  1  0
  4  5  1  0
  4  6  1  0
  5  7  1  0
  6  8  2  0
  6  9  1  0
  8 10  1  0
  9 11  2  0
 10 12  2  0
 11 12  1  0
M  END
>  <PUBCHEM_COMPOUND_CID>  (1) 
12825

>  <PUBCHEM_CONFORMER_RMSD>  (1) 
0.6

>  <PUBCHEM_CONFORMER_DIVERSEORDER>  (1) 
1
43
19
37
40
30
15
28
7
35
36
24
29
39
16
31
17
3
4
6
33
27
11
21
14
5
12
2
38
8
23
25
34
18
22
42
9
13
10
32
41
26
20

>  <PUBCHEM_MMFF94_PARTIAL_CHARGES>  (1) 
19
1 -0.43
10 -0.15
11 -0.15
12 -0.15
13 0.78
2 -0.57
20 0.15
21 0.15
22 0.15
23 0.15
24 0.15
25 0.37
26 0.37
3 -0.8
4 0.14
5 0.28
6 -0.14
8 -0.15
9 -0.15

>  <PUBCHEM_EFFECTIVE_ROTOR_COUNT>  (1) 
4

>  <PUBCHEM_PHARMACOPHORE_FEATURES>  (1) 
3
1 2 acceptor
1 3 donor
6 6 8 9 10 11 12 rings

>  <PUBCHEM_HEAVY_ATOM_COUNT>  (1) 
13

>  <PUBCHEM_ATOM_DEF_STEREO_COUNT>  (1) 
0

>  <PUBCHEM_ATOM_UDEF_STEREO_COUNT>  (1) 
1

>  <PUBCHEM_BOND_DEF_STEREO_COUNT>  (1) 
0

>  <PUBCHEM_BOND_UDEF_STEREO_COUNT>  (1) 
0

>  <PUBCHEM_ISOTOPIC_ATOM_COUNT>  (1) 
0

>  <PUBCHEM_COMPONENT_COUNT>  (1) 
1

>  <PUBCHEM_CACTVS_TAUTO_COUNT>  (1) 
2

>  <PUBCHEM_CONFORMER_ID>  (1) 
0000321900000001

>  <PUBCHEM_MMFF94_ENERGY>  (1) 
30.5463

>  <PUBCHEM_FEATURE_SELFOVERLAP>  (1) 
15.223

>  <PUBCHEM_SHAPE_FINGERPRINT>  (1) 
10498660 4 18040988544980593365
10608611 8 18340769355090374576
12251169 10 12324251567485483344
12932764 1 17894346665998317699
13380535 21 18333736797062214083
13764800 53 18041006145793164161
15219456 202 18343025535881380498
15775835 57 18113336392575698249
17834072 14 9367060005019002171
17844478 74 18193290808031809739
18186145 218 18336265660773094444
20201158 50 18273219677353934686
20361792 2 14189577459244442899
20653085 51 18410019844228779763
20671657 1 18262790749034394123
20671657 53 14045733807633231107
20767249 442 17676196966415048445
21524375 3 18187077326247595123
21730867 7 11386369235940989084
22802520 49 18271813431746054456
22926399 65 18260834817065169420
23402539 116 18260543459690451196
23402655 69 18060421270244937680
23557571 272 18267879439171362734
23559900 14 18412548696337185446
23590187 214 11603121498999803872
25 1 18337678520535781978
251288 83 11097868392634658248
2748010 2 18269838777666474106
276578 36 17240485775751903994
305870 269 17603575327370887538
3248919 1 18130784559898259162
549884 4 18271800203146750920
6333449 129 18336546105142465247
8030462 33 16988851570304665122
81228 2 17825114958905165155
93112 12 18343304768726952630
9882013 296 11314322658283133356

>  <PUBCHEM_SHAPE_MULTIPOLES>  (1) 
250.81
6.53
1.73
1.04
1.11
0.17
-0.15
-2.35
-1.62
0.73
0.22
0.02
-0.02
0.47

>  <PUBCHEM_SHAPE_SELFOVERLAP>  (1) 
511.094

>  <PUBCHEM_SHAPE_VOLUME>  (1) 
145.1

>  <PUBCHEM_COORDINATE_TYPE>  (1) 
2
5
10

$$$$
