12820
     RDKit          3D

 13 13  0  0  0  0  0  0  0  0999 V2000
   -3.0054   -0.5364    0.3323 O   0  0  0  0  0  0  0  0  0  0  0  0
    0.9690    2.1082    0.0746 O   0  0  0  0  0  0  0  0  0  0  0  0
   -1.7702    1.9414    0.3085 O   0  0  0  0  0  0  0  0  0  0  0  0
    3.1367    0.7484   -0.6956 O   0  0  0  0  0  0  0  0  0  0  0  0
    1.1235   -0.2780   -0.0194 C   0  0  0  0  0  0  0  0  0  0  0  0
    0.3625    0.8862    0.0871 C   0  0  0  0  0  0  0  0  0  0  0  0
   -1.0248    0.8041    0.2063 C   0  0  0  0  0  0  0  0  0  0  0  0
   -1.6512   -0.4421    0.2191 C   0  0  0  0  0  0  0  0  0  0  0  0
    0.4970   -1.5242   -0.0065 C   0  0  0  0  0  0  0  0  0  0  0  0
   -0.8902   -1.6063    0.1128 C   0  0  0  0  0  0  0  0  0  0  0  0
    2.5732   -0.2166   -0.1440 C   0  0  0  0  0  0  0  0  0  0  0  0
    3.4382   -1.3450    0.4039 C   0  0  0  0  0  0  0  0  0  0  0  0
   -3.7583   -0.5398   -0.8790 C   0  0  0  0  0  0  0  0  0  0  0  0
  1  8  1  0
  1 13  1  0
  2  6  1  0
  3  7  1  0
  4 11  2  0
  5  6  2  0
  5  9  1  0
  5 11  1  0
  6  7  1  0
  7  8  2  0
  8 10  1  0
  9 10  2  0
 11 12  1  0
M  END
>  <PUBCHEM_COMPOUND_CID>  (1) 
12820

>  <PUBCHEM_CONFORMER_RMSD>  (1) 
0.6

>  <PUBCHEM_CONFORMER_DIVERSEORDER>  (1) 
2
4
5
3
6
1

>  <PUBCHEM_MMFF94_PARTIAL_CHARGES>  (1) 
17
1 -0.36
10 -0.15
11 0.42
12 0.06
13 0.28
14 0.15
15 0.15
19 0.45
2 -0.53
20 0.45
3 -0.53
4 -0.57
5 0.09
6 0.08
7 0.08
8 0.08
9 -0.15

>  <PUBCHEM_EFFECTIVE_ROTOR_COUNT>  (1) 
2

>  <PUBCHEM_PHARMACOPHORE_FEATURES>  (1) 
5
1 1 acceptor
1 2 donor
1 3 donor
1 4 acceptor
6 5 6 7 8 9 10 rings

>  <PUBCHEM_HEAVY_ATOM_COUNT>  (1) 
13

>  <PUBCHEM_ATOM_DEF_STEREO_COUNT>  (1) 
0

>  <PUBCHEM_ATOM_UDEF_STEREO_COUNT>  (1) 
0

>  <PUBCHEM_BOND_DEF_STEREO_COUNT>  (1) 
0

>  <PUBCHEM_BOND_UDEF_STEREO_COUNT>  (1) 
0

>  <PUBCHEM_ISOTOPIC_ATOM_COUNT>  (1) 
0

>  <PUBCHEM_COMPONENT_COUNT>  (1) 
1

>  <PUBCHEM_CACTVS_TAUTO_COUNT>  (1) 
23

>  <PUBCHEM_CONFORMER_ID>  (1) 
0000321400000002

>  <PUBCHEM_MMFF94_ENERGY>  (1) 
45.4523

>  <PUBCHEM_FEATURE_SELFOVERLAP>  (1) 
25.376

>  <PUBCHEM_SHAPE_FINGERPRINT>  (1) 
10130415 120 18333728013991074930
11206711 2 18410294688024087149
11401426 45 18341881992185660287
11471102 20 18409443704863360879
12032990 46 18410862035802713490
12423570 1 17757559555576139480
14325111 11 18410296865593396992
14911166 2 18410856598442389991
14993402 34 18341333370069104294
16945 1 18411986891958325410
18619055 16 18261392282107885982
19026448 4 16298390175288963323
193761 8 17547010088138225707
20201158 50 18410292518960204719
20645476 183 17750533929820561974
21501502 16 18338519616670931296
21501925 9 18336818719976158386
2334 1 17835521904864737723
23402539 116 18271513222006220630
23402655 69 18267569231886952045
23463225 33 18335985251296692722
23552423 10 17975136749030022972
23559900 14 18340209695883612276
2748010 2 18124604080431796039
5084963 1 18131915965931926851
528886 8 18339641247385744939
53812654 25 18201146728597115326
7364860 26 18341614845842120368

>  <PUBCHEM_SHAPE_MULTIPOLES>  (1) 
244.06
5.24
1.86
0.72
0.25
0.54
0.06
-1.24
0.81
-0.13
-0.14
0.11
-0.03
-0.39

>  <PUBCHEM_SHAPE_SELFOVERLAP>  (1) 
511.852

>  <PUBCHEM_SHAPE_VOLUME>  (1) 
138.8

>  <PUBCHEM_COORDINATE_TYPE>  (1) 
2
5
10

$$$$
