1282
     RDKit          3D

 22 25  0  0  0  0  0  0  0  0999 V2000
   -0.9038    0.3602   -1.3255 N   0  0  0  0  0  0  0  0  0  0  0  0
    2.7056   -0.2159   -1.2663 N   0  0  0  0  0  0  0  0  0  0  0  0
   -0.7511    1.8900    0.2796 N   0  0  0  0  0  0  0  0  0  0  0  0
    2.9861    1.2942    0.3401 N   0  0  0  0  0  0  0  0  0  0  0  0
   -6.4260   -1.1370    1.0376 N   0  0  0  0  0  0  0  0  0  0  0  0
   -5.4713   -2.1793   -0.8234 N   0  0  0  0  0  0  0  0  0  0  0  0
    1.1645    1.7237   -1.3091 C   0  0  0  0  0  0  0  0  0  0  0  0
   -0.1532    1.3534   -0.7605 C   0  0  0  0  0  0  0  0  0  0  0  0
    2.3217    0.9393   -0.7013 C   0  0  0  0  0  0  0  0  0  0  0  0
   -2.0632    0.2484   -0.6018 C   0  0  0  0  0  0  0  0  0  0  0  0
   -1.9439    1.2137    0.3941 C   0  0  0  0  0  0  0  0  0  0  0  0
    3.7490   -0.6791   -0.5066 C   0  0  0  0  0  0  0  0  0  0  0  0
    3.9047    0.2808    0.4894 C   0  0  0  0  0  0  0  0  0  0  0  0
   -3.1722   -0.5887   -0.7289 C   0  0  0  0  0  0  0  0  0  0  0  0
   -2.9831    1.3670    1.3272 C   0  0  0  0  0  0  0  0  0  0  0  0
   -4.1970   -0.4225    0.2084 C   0  0  0  0  0  0  0  0  0  0  0  0
   -4.1063    0.5374    1.2189 C   0  0  0  0  0  0  0  0  0  0  0  0
    4.5458   -1.8204   -0.6022 C   0  0  0  0  0  0  0  0  0  0  0  0
    4.9099    0.1080    1.4559 C   0  0  0  0  0  0  0  0  0  0  0  0
    5.5414   -1.9764    0.3678 C   0  0  0  0  0  0  0  0  0  0  0  0
    5.7219   -1.0305    1.3796 C   0  0  0  0  0  0  0  0  0  0  0  0
   -5.3797   -1.2664    0.1267 C   0  0  0  0  0  0  0  0  0  0  0  0
  1  8  1  0
  1 10  1  0
  2  9  1  0
  2 12  1  0
  3  8  2  0
  3 11  1  0
  4  9  2  0
  4 13  1  0
  5 22  1  0
  6 22  2  0
  7  8  1  0
  7  9  1  0
 10 11  2  0
 10 14  1  0
 11 15  1  0
 12 13  2  0
 12 18  1  0
 13 19  1  0
 14 16  2  0
 15 17  2  0
 16 17  1  0
 16 22  1  0
 18 20  2  0
 19 21  2  0
 20 21  1  0
M  END
>  <PUBCHEM_COMPOUND_CID>  (1) 
1282

>  <PUBCHEM_CONFORMER_RMSD>  (1) 
0.6

>  <PUBCHEM_CONFORMER_DIVERSEORDER>  (1) 
1
9
11
2
10
8
6
3
7
4
5

>  <PUBCHEM_MMFF94_PARTIAL_CHARGES>  (1) 
34
1 0.03
10 -0.15
11 0.23
12 -0.15
13 0.23
14 -0.15
15 -0.15
16 0.09
17 -0.15
18 -0.15
19 -0.15
2 0.03
20 -0.15
21 -0.15
22 0.41
25 0.27
26 0.27
27 0.15
28 0.15
29 0.15
3 -0.57
30 0.15
31 0.15
32 0.15
33 0.15
34 0.4
35 0.4
36 0.4
4 -0.57
5 -0.85
6 -0.85
7 0.36
8 0.01
9 0.01

>  <PUBCHEM_EFFECTIVE_ROTOR_COUNT>  (1) 
3

>  <PUBCHEM_PHARMACOPHORE_FEATURES>  (1) 
11
1 1 donor
1 2 donor
1 5 donor
1 6 donor
3 1 3 8 cation
3 2 4 9 cation
3 5 6 22 cation
5 1 3 8 10 11 rings
5 2 4 9 12 13 rings
6 10 11 14 15 16 17 rings
6 12 13 18 19 20 21 rings

>  <PUBCHEM_HEAVY_ATOM_COUNT>  (1) 
22

>  <PUBCHEM_ATOM_DEF_STEREO_COUNT>  (1) 
0

>  <PUBCHEM_ATOM_UDEF_STEREO_COUNT>  (1) 
0

>  <PUBCHEM_BOND_DEF_STEREO_COUNT>  (1) 
0

>  <PUBCHEM_BOND_UDEF_STEREO_COUNT>  (1) 
0

>  <PUBCHEM_ISOTOPIC_ATOM_COUNT>  (1) 
0

>  <PUBCHEM_COMPONENT_COUNT>  (1) 
1

>  <PUBCHEM_CACTVS_TAUTO_COUNT>  (1) 
11

>  <PUBCHEM_CONFORMER_ID>  (1) 
0000050200000001

>  <PUBCHEM_MMFF94_ENERGY>  (1) 
45.8839

>  <PUBCHEM_FEATURE_SELFOVERLAP>  (1) 
56.085

>  <PUBCHEM_SHAPE_FINGERPRINT>  (1) 
10 15 16343981433392605427
10319926 262 17417824880729963756
10378564 45 11602814684464938434
10447042 23 16950562173664125538
10498660 4 8502366741886051366
10753850 27 18040434404057524955
12363563 72 17676775284109945716
12523318 42 17704073997606617491
12555020 224 17240203253019607051
12596602 18 18060136522866807258
12633257 1 16343414094030060434
12670546 177 12757153459238241592
12839892 36 17775008990204209831
12892183 10 17632578197906895756
12954195 1 15791995754848459053
13533116 47 18337956799930366913
13551218 46 18413108346801214399
13583140 156 17489011674364824456
13782708 43 17605282985658111227
13914758 101 18408882907284848717
1420 369 18334295349148121294
14211702 104 18262806305949681395
14251764 75 14259917685419803482
14341114 176 17561082497524009616
14341114 328 16630804434998315122
14420673 8 17626962880450049486
14528608 73 8574713481611988643
14848178 5 18261392282134402651
15183329 4 12901540222138054594
15188451 53 18342451552241404231
15210252 30 10231746800069361710
15342168 16 11959733771900931169
15475509 8 15502369020541542791
15880784 105 18341896273073089912
17349148 13 18335712658370171151
17857418 61 18409167718607038479
17870717 6 15140962850978471729
17959699 21 8502656999701656166
1813 80 18113905944300451780
18222031 100 18040437685449559948
18785283 64 15410039833200305619
19377110 9 17489296551139964084
193927 3 17967822630173239632
19784866 240 18041000648256149989
1979834 28 17346609568433539614
20028762 73 18411698790175001654
20645477 70 17458627864558289636
21033648 29 15051465881553558489
21065198 48 18343872125222270240
21065199 12 17560804273526474508
21637258 2 18187358839736151249
22079108 93 12679464201282347013
23402655 69 7925911482840570044
23522609 53 18048350832344721612
23559900 14 14635158957448124716
25122255 55 17895204345735920659
270888 7 11383820581094629234
2838139 119 10231758864141320554
3004659 81 17458065962982862478
3014063 24 18409442605167532551
312425 54 18059018276227935946
3472631 163 9439396930438875658
34797466 226 14635164459380442991
351380 3 18113337492451530914
3886686 26 17338173909230497467
4028521 119 8934991590778334380
4259306 186 16877944902031622080
465052 167 18041287642012894759
474 4 11312056551970314981
5104073 3 17845934035572582738
559249 180 18334294237273798641
5718773 13 17822844291664145586
5924683 9 17131536323928241295
59682541 52 12324230638769181640
76465 3 18260267447121012621
7970288 3 18113898230476196338
960060 61 15068622699341943478

>  <PUBCHEM_SHAPE_MULTIPOLES>  (1) 
422.86
15.29
2
1.38
1.79
0.31
0.14
11.16
4.98
0.19
-0.2
-0.3
-0.14
-0.73

>  <PUBCHEM_SHAPE_SELFOVERLAP>  (1) 
954.713

>  <PUBCHEM_SHAPE_VOLUME>  (1) 
217.8

>  <PUBCHEM_COORDINATE_TYPE>  (1) 
2
5
10

$$$$
