12827
     RDKit          3D

 13 13  0  0  0  0  0  0  0  0999 V2000
    2.6613    0.5967   -0.1333 S   0  0  0  0  0  0  0  0  0  0  0  0
    2.0318    1.1311   -1.3261 O   0  0  0  0  0  0  0  0  0  0  0  0
    3.3065    1.4813    0.8179 O   0  0  0  0  0  0  0  0  0  0  0  0
    1.5125   -0.3807    0.7012 N   0  0  0  0  0  0  0  0  0  0  0  0
    3.7897   -0.6028   -0.6168 N   0  0  0  0  0  0  0  0  0  0  0  0
   -0.4261   -1.9121    0.5297 C   0  0  0  0  0  0  0  0  0  0  0  0
    0.9860   -1.5675    0.0353 C   0  0  0  0  0  0  0  0  0  0  0  0
   -1.3999   -0.8162    0.2553 C   0  0  0  0  0  0  0  0  0  0  0  0
   -1.6001    0.1912    1.1991 C   0  0  0  0  0  0  0  0  0  0  0  0
   -2.1099   -0.7983   -0.9452 C   0  0  0  0  0  0  0  0  0  0  0  0
   -2.5107    1.2163    0.9426 C   0  0  0  0  0  0  0  0  0  0  0  0
   -3.0203    0.2269   -1.2018 C   0  0  0  0  0  0  0  0  0  0  0  0
   -3.2207    1.2342   -0.2579 C   0  0  0  0  0  0  0  0  0  0  0  0
  1  2  2  0
  1  3  2  0
  1  4  1  0
  1  5  1  0
  4  7  1  0
  6  7  1  0
  6  8  1  0
  8  9  2  0
  8 10  1  0
  9 11  1  0
 10 12  2  0
 11 13  2  0
 12 13  1  0
M  END
>  <PUBCHEM_COMPOUND_CID>  (1) 
12827

>  <PUBCHEM_CONFORMER_RMSD>  (1) 
0.6

>  <PUBCHEM_CONFORMER_DIVERSEORDER>  (1) 
1
18
70
34
63
29
3
71
75
24
8
51
68
42
58
65
48
67
19
12
64
60
40
73
77
45
52
33
30
31
43
20
53
28
9
25
10
21
44
47
22
23
46
4
32
66
56
15
54
57
41
14
62
37
61
11
55
16
13
17
69
35
49
74
72
50
7
39
6
76
59
2
26
36
38
5
27

>  <PUBCHEM_MMFF94_PARTIAL_CHARGES>  (1) 
21
1 1.58
10 -0.15
11 -0.15
12 -0.15
13 -0.15
18 0.42
19 0.15
2 -0.65
20 0.15
21 0.15
22 0.15
23 0.15
24 0.42
25 0.42
3 -0.65
4 -0.91
5 -0.98
6 0.14
7 0.36
8 -0.14
9 -0.15

>  <PUBCHEM_EFFECTIVE_ROTOR_COUNT>  (1) 
4

>  <PUBCHEM_PHARMACOPHORE_FEATURES>  (1) 
3
1 4 donor
1 5 donor
6 8 9 10 11 12 13 rings

>  <PUBCHEM_HEAVY_ATOM_COUNT>  (1) 
13

>  <PUBCHEM_ATOM_DEF_STEREO_COUNT>  (1) 
0

>  <PUBCHEM_ATOM_UDEF_STEREO_COUNT>  (1) 
0

>  <PUBCHEM_BOND_DEF_STEREO_COUNT>  (1) 
0

>  <PUBCHEM_BOND_UDEF_STEREO_COUNT>  (1) 
0

>  <PUBCHEM_ISOTOPIC_ATOM_COUNT>  (1) 
0

>  <PUBCHEM_COMPONENT_COUNT>  (1) 
1

>  <PUBCHEM_CACTVS_TAUTO_COUNT>  (1) 
1

>  <PUBCHEM_CONFORMER_ID>  (1) 
0000321B00000001

>  <PUBCHEM_MMFF94_ENERGY>  (1) 
26.4963

>  <PUBCHEM_FEATURE_SELFOVERLAP>  (1) 
15.232

>  <PUBCHEM_SHAPE_FINGERPRINT>  (1) 
10149128 111 18335141977164374069
10618630 7 10447932775752031064
10857977 72 15358561643949805655
12202030 40 13613367404598727431
12251169 10 12107795089986638995
13618510 140 18260553298685170204
13764800 53 18262247706486173627
15276787 5 15285903750368969088
15775835 57 18342457006633709193
18186145 218 18342179959884084970
19107657 9 18262249862301429532
19766037 51 12031506652403677085
20281407 28 9943809997194052650
20361792 2 10663815278227409139
20442098 301 11025797600135628512
20645464 45 16660649518540682035
20645476 183 17916577636319783559
20653085 51 18342741788761624643
20671657 1 18265044747924277098
20711985 344 13254245900177020331
21028194 46 18409454708163586146
21524375 3 18408042892310398003
22802520 49 17987817266362244042
23557571 272 17842841289472998814
305870 269 18259981548565429002
5262128 65 16916795122970537104
74978 22 18260834847071729774
81228 2 17757000264829892298
9882013 296 7853562479650991462

>  <PUBCHEM_SHAPE_MULTIPOLES>  (1) 
249.68
6.14
1.73
1.21
3.31
0.3
0.1
-2.56
1.09
0.19
-0.2
-0.38
-0.19
-0.13

>  <PUBCHEM_SHAPE_SELFOVERLAP>  (1) 
490.861

>  <PUBCHEM_SHAPE_VOLUME>  (1) 
149.6

>  <PUBCHEM_COORDINATE_TYPE>  (1) 
2
5
10

$$$$
