12822
     RDKit          3D

 13 15  0  0  1  0  0  0  0  0999 V2000
   -2.6164    0.4316   -0.1288 O   0  0  0  0  0  0  0  0  0  0  0  0
   -1.5645   -1.6092   -0.0723 O   0  0  0  0  0  0  0  0  0  0  0  0
   -0.4001    0.3441   -0.5401 N   0  0  0  0  0  0  0  0  0  0  0  0
    1.9713    0.8304   -0.9201 C   0  0  0  0  0  0  0  0  0  0  0  0
    2.5062    1.2304    0.4163 C   0  0  0  0  0  0  0  0  0  0  0  0
    3.2601    0.2582   -0.4262 C   0  0  0  0  0  0  0  0  0  0  0  0
    1.5276   -0.8226    0.5877 C   0  0  0  0  0  0  0  0  0  0  0  0
    0.9043   -0.2213   -0.7175 C   0  0  0  0  0  0  0  0  0  0  0  0
    1.7656    0.4461    1.4741 C   0  0  0  0  0  0  0  0  0  0  0  0
    2.9830   -1.1308    0.1065 C   0  0  0  0  0  0  0  0  0  0  0  0
   -1.5319   -0.3934   -0.2315 C   0  0  0  0  0  0  0  0  0  0  0  0
   -3.8585   -0.2065    0.1883 C   0  0  0  0  0  0  0  0  0  0  0  0
   -4.9470    0.8430    0.2636 C   0  0  0  0  0  0  0  0  0  0  0  0
  1 11  1  0
  1 12  1  0
  2 11  2  0
  3  8  1  0
  3 11  1  0
  4  5  1  0
  4  6  1  0
  4  8  1  0
  5  6  1  0
  5  9  1  0
  6 10  1  0
  7  8  1  0
  7  9  1  0
  7 10  1  0
 12 13  1  0
M  END
>  <PUBCHEM_COMPOUND_CID>  (1) 
12822

>  <PUBCHEM_CONFORMER_RMSD>  (1) 
0.6

>  <PUBCHEM_CONFORMER_DIVERSEORDER>  (1) 
1
25
21
20
22
28
33
19
6
4
35
27
34
36
12
5
26
11
3
18
17
2
31
30
32
13
29
14
15
16
23
24
7
8
9
10

>  <PUBCHEM_MMFF94_PARTIAL_CHARGES>  (1) 
15
1 -0.43
10 0.09
11 0.78
12 0.28
14 0.1
15 0.1
16 0.1
2 -0.57
23 0.37
3 -0.73
4 -0.19
5 -0.19
6 -0.19
8 0.4
9 0.09

>  <PUBCHEM_EFFECTIVE_ROTOR_COUNT>  (1) 
4.6

>  <PUBCHEM_PHARMACOPHORE_FEATURES>  (1) 
3
1 2 acceptor
1 3 donor
7 4 5 6 7 8 9 10 rings

>  <PUBCHEM_HEAVY_ATOM_COUNT>  (1) 
13

>  <PUBCHEM_ATOM_DEF_STEREO_COUNT>  (1) 
0

>  <PUBCHEM_ATOM_UDEF_STEREO_COUNT>  (1) 
3

>  <PUBCHEM_BOND_DEF_STEREO_COUNT>  (1) 
0

>  <PUBCHEM_BOND_UDEF_STEREO_COUNT>  (1) 
0

>  <PUBCHEM_ISOTOPIC_ATOM_COUNT>  (1) 
0

>  <PUBCHEM_COMPONENT_COUNT>  (1) 
1

>  <PUBCHEM_CACTVS_TAUTO_COUNT>  (1) 
2

>  <PUBCHEM_CONFORMER_ID>  (1) 
0000321600000001

>  <PUBCHEM_MMFF94_ENERGY>  (1) 
46.6708

>  <PUBCHEM_FEATURE_SELFOVERLAP>  (1) 
15.223

>  <PUBCHEM_SHAPE_FINGERPRINT>  (1) 
12500047 106 18271804665786745359
12616999 72 12901553407645390746
12932764 1 16805591599189597775
14144814 61 18259983777779737637
14252887 29 16587747512204348929
14344429 50 17489584571910474048
15775835 57 18411982485321827699
16945 1 16298935567880081348
18186145 218 17561365076238717569
200 152 10375872957116209709
20233049 118 17989208122727886696
20279233 1 11887667399002331789
20645477 70 18334571296571033103
212847 35 18272934886657404801
22485316 2 11818994102155579225
23402539 116 17703782601002213053
23402655 69 11527954439145069763
4047638 21 18201722863873106681
42 15 18186803552315622283
522135 26 18335703814747652447
57812782 119 12751240298319938675
581208 293 12685091492623101497

>  <PUBCHEM_SHAPE_MULTIPOLES>  (1) 
250.81
7.51
1.21
0.98
10.59
0.16
0.18
-1.37
0.58
-0.27
0.06
-0.56
-0.14
-0.11

>  <PUBCHEM_SHAPE_SELFOVERLAP>  (1) 
536.711

>  <PUBCHEM_SHAPE_VOLUME>  (1) 
144.2

>  <PUBCHEM_COORDINATE_TYPE>  (1) 
2
5
10

$$$$
