12839
     RDKit          3D

 14 14  0  0  1  0  0  0  0  0999 V2000
   -1.9417   -2.4916    0.5477 Cl  0  0  0  0  0  0  0  0  0  0  0  0
    1.8793    0.4643   -0.3086 O   0  0  0  0  0  0  0  0  0  0  0  0
    3.2053    0.0368    1.5241 O   0  0  0  0  0  0  0  0  0  0  0  0
    3.8666    1.5067   -0.1158 N   0  0  0  0  0  0  0  0  0  0  0  0
    0.0075   -0.8225   -1.1606 C   0  0  0  0  0  0  0  0  0  0  0  0
    1.2424   -0.8104   -0.2418 C   0  0  0  0  0  0  0  0  0  0  0  0
   -1.1678   -0.1237   -0.5575 C   0  0  0  0  0  0  0  0  0  0  0  0
    2.2561   -1.8755   -0.6407 C   0  0  0  0  0  0  0  0  0  0  0  0
   -2.0988   -0.8026    0.2289 C   0  0  0  0  0  0  0  0  0  0  0  0
   -1.3214    1.2418   -0.7974 C   0  0  0  0  0  0  0  0  0  0  0  0
   -3.1830   -0.1158    0.7754 C   0  0  0  0  0  0  0  0  0  0  0  0
   -2.4058    1.9284   -0.2511 C   0  0  0  0  0  0  0  0  0  0  0  0
   -3.3366    1.2496    0.5352 C   0  0  0  0  0  0  0  0  0  0  0  0
    2.9978    0.6145    0.4622 C   0  0  0  0  0  0  0  0  0  0  0  0
  1  9  1  0
  2  6  1  0
  2 14  1  0
  3 14  2  0
  4 14  1  0
  5  6  1  0
  5  7  1  0
  6  8  1  0
  7  9  2  0
  7 10  1  0
  9 11  1  0
 10 12  2  0
 11 13  2  0
 12 13  1  0
M  END
>  <PUBCHEM_COMPOUND_CID>  (1) 
12839

>  <PUBCHEM_CONFORMER_RMSD>  (1) 
0.6

>  <PUBCHEM_CONFORMER_DIVERSEORDER>  (1) 
1
38
61
63
56
33
39
64
23
60
43
12
49
58
31
15
2
54
32
57
48
34
46
40
4
5
26
45
6
25
7
24
3
42
36
30
55
14
62
44
20
27
18
37
35
22
16
9
8
59
10
50
29
41
19
17
21
51
53
52
47
28
13
11

>  <PUBCHEM_MMFF94_PARTIAL_CHARGES>  (1) 
19
1 -0.18
10 -0.15
11 -0.15
12 -0.15
13 -0.15
14 0.78
2 -0.43
21 0.15
22 0.15
23 0.15
24 0.15
25 0.37
26 0.37
3 -0.57
4 -0.8
5 0.14
6 0.28
7 -0.14
9 0.18

>  <PUBCHEM_EFFECTIVE_ROTOR_COUNT>  (1) 
4

>  <PUBCHEM_PHARMACOPHORE_FEATURES>  (1) 
3
1 3 acceptor
1 4 donor
6 7 9 10 11 12 13 rings

>  <PUBCHEM_HEAVY_ATOM_COUNT>  (1) 
14

>  <PUBCHEM_ATOM_DEF_STEREO_COUNT>  (1) 
0

>  <PUBCHEM_ATOM_UDEF_STEREO_COUNT>  (1) 
1

>  <PUBCHEM_BOND_DEF_STEREO_COUNT>  (1) 
0

>  <PUBCHEM_BOND_UDEF_STEREO_COUNT>  (1) 
0

>  <PUBCHEM_ISOTOPIC_ATOM_COUNT>  (1) 
0

>  <PUBCHEM_COMPONENT_COUNT>  (1) 
1

>  <PUBCHEM_CACTVS_TAUTO_COUNT>  (1) 
2

>  <PUBCHEM_CONFORMER_ID>  (1) 
0000322700000001

>  <PUBCHEM_MMFF94_ENERGY>  (1) 
33.4791

>  <PUBCHEM_FEATURE_SELFOVERLAP>  (1) 
15.223

>  <PUBCHEM_SHAPE_FINGERPRINT>  (1) 
10608611 8 18340207384167976613
11265709 11 17906175401696915851
122479 349 18271526395003181065
12251169 10 18260268576676182396
12382932 28 18408608080015178819
12696612 119 18259988192874496260
13380535 21 18341902882874952718
13764800 53 18202568392704824897
13897977 13 18337675346328441213
14648413 74 18270122284189388390
15219456 202 18341898441672975278
15775835 57 17703787024470329180
16945 1 18336558199960080231
17804303 29 18047202859804086902
18186145 218 18127415549086332085
20361792 2 15140684678330763703
20510252 161 18340493279267480217
20525323 117 18410850001451699079
20528008 55 18410856534350007863
20645464 45 18339642244039612695
20645476 183 14117518714540563925
20671657 53 10737282433577238270
20711985 344 9943531791025051567
20871998 184 18341622572161738719
20871999 31 11311762978466539409
21501502 16 18343015575604619663
21947302 44 18129381501340631238
23175994 123 17483415031557312174
23388829 49 17906737260427346871
23402539 116 18339916126094698255
23559900 14 18338242556957816830
27216 239 18058717143159368736
2748010 2 18117570522208609479
7097593 13 17969482863046277498
8030462 33 12823296771244854199
81228 2 18261682562079088507
90316 7 17749105569652941029
9882013 296 18187366579293754724

>  <PUBCHEM_SHAPE_MULTIPOLES>  (1) 
273.26
6.25
2.2
1.05
3.41
0.69
-0.09
-2.26
-1.85
-0.69
0.02
0.26
0.07
0.6

>  <PUBCHEM_SHAPE_SELFOVERLAP>  (1) 
551.07

>  <PUBCHEM_SHAPE_VOLUME>  (1) 
160.5

>  <PUBCHEM_COORDINATE_TYPE>  (1) 
2
5
10

$$$$
