12832
     RDKit          3D

 14 15  0  0  1  0  0  0  0  0999 V2000
    0.0103   -2.6070    0.3422 Cl  0  0  0  0  0  0  0  0  0  0  0  0
   -0.8816    2.2130    0.1668 N   0  0  0  0  0  0  0  0  0  0  0  0
    4.0011   -1.0464   -0.0094 N   0  0  0  0  0  0  0  0  0  0  0  0
    1.8805   -0.0724    0.8237 C   0  0  0  0  0  0  0  0  0  0  0  0
    0.5989    0.5964    0.5158 C   0  0  0  0  0  0  0  0  0  0  0  0
    2.7742   -0.3523   -0.4120 C   0  0  0  0  0  0  0  0  0  0  0  0
   -0.6521   -0.0058    0.2040 C   0  0  0  0  0  0  0  0  0  0  0  0
   -1.5636    1.0303   -0.0103 C   0  0  0  0  0  0  0  0  0  0  0  0
    0.4258    1.9611    0.4849 C   0  0  0  0  0  0  0  0  0  0  0  0
    3.1670    0.9293   -1.1469 C   0  0  0  0  0  0  0  0  0  0  0  0
   -1.0977   -1.3371    0.0831 C   0  0  0  0  0  0  0  0  0  0  0  0
   -2.9040    0.8006   -0.3405 C   0  0  0  0  0  0  0  0  0  0  0  0
   -2.4356   -1.5819   -0.2467 C   0  0  0  0  0  0  0  0  0  0  0  0
   -3.3232   -0.5279   -0.4545 C   0  0  0  0  0  0  0  0  0  0  0  0
  1 11  1  0
  2  8  1  0
  2  9  1  0
  3  6  1  0
  4  5  1  0
  4  6  1  0
  5  7  1  0
  5  9  2  0
  6 10  1  0
  7  8  2  0
  7 11  1  0
  8 12  1  0
 11 13  2  0
 12 14  2  0
 13 14  1  0
M  END
>  <PUBCHEM_COMPOUND_CID>  (1) 
12832

>  <PUBCHEM_CONFORMER_RMSD>  (1) 
0.6

>  <PUBCHEM_CONFORMER_DIVERSEORDER>  (1) 
1
5
6
4
2
7
3

>  <PUBCHEM_MMFF94_PARTIAL_CHARGES>  (1) 
19
1 -0.18
11 0.18
12 -0.15
13 -0.15
14 -0.15
18 0.15
19 0.27
2 0.03
23 0.15
24 0.36
25 0.36
26 0.15
27 0.15
3 -0.99
4 0.18
5 -0.18
6 0.27
8 -0.15
9 -0.3

>  <PUBCHEM_EFFECTIVE_ROTOR_COUNT>  (1) 
2

>  <PUBCHEM_PHARMACOPHORE_FEATURES>  (1) 
6
1 2 cation
1 2 donor
1 3 cation
1 3 donor
5 2 5 7 8 9 rings
6 7 8 11 12 13 14 rings

>  <PUBCHEM_HEAVY_ATOM_COUNT>  (1) 
14

>  <PUBCHEM_ATOM_DEF_STEREO_COUNT>  (1) 
0

>  <PUBCHEM_ATOM_UDEF_STEREO_COUNT>  (1) 
1

>  <PUBCHEM_BOND_DEF_STEREO_COUNT>  (1) 
0

>  <PUBCHEM_BOND_UDEF_STEREO_COUNT>  (1) 
0

>  <PUBCHEM_ISOTOPIC_ATOM_COUNT>  (1) 
0

>  <PUBCHEM_COMPONENT_COUNT>  (1) 
1

>  <PUBCHEM_CACTVS_TAUTO_COUNT>  (1) 
1

>  <PUBCHEM_CONFORMER_ID>  (1) 
0000322000000001

>  <PUBCHEM_MMFF94_ENERGY>  (1) 
18.692

>  <PUBCHEM_FEATURE_SELFOVERLAP>  (1) 
30.538

>  <PUBCHEM_SHAPE_FINGERPRINT>  (1) 
10062212 137 18337097965422048955
10465860 71 18341626948453656788
11206711 2 18337096939240895845
11458722 379 18338802191544911326
12032990 46 18339923818016985363
12524768 44 17834383906340802083
14115302 16 18261112989069435870
14614273 12 18116709608535200109
14911166 2 18411407402644951661
16945 1 18339348691804808793
18186145 218 17167859777109857860
18619055 16 18335142033267889926
193761 8 17689993861722016907
20201158 50 18131071519701259094
20645476 183 17821725048270731034
20871999 31 18338239374413118959
22721475 48 18272375299220030518
22802520 49 18269559492928054954
2334 1 18122615313332183121
23402539 116 18340196415348763606
23463225 33 18263358105803531002
23552423 10 18047471127882566483
23557571 272 18131355194260543824
23559900 14 18343295939091694178
2748010 2 18121483907387952281
353137 74 18265895761265130027
43471831 8 18264201409573463378
7364860 26 17912360136848059569
81228 2 18058465226437973352

>  <PUBCHEM_SHAPE_MULTIPOLES>  (1) 
280.02
5.31
2.32
0.85
2.63
0.42
0.06
0.82
1.54
-0.42
-0.26
0.36
-0.08
-0.2

>  <PUBCHEM_SHAPE_SELFOVERLAP>  (1) 
590.757

>  <PUBCHEM_SHAPE_VOLUME>  (1) 
159.4

>  <PUBCHEM_COORDINATE_TYPE>  (1) 
2
5
10

$$$$
