12847
     RDKit          3D

 15 15  0  0  0  0  0  0  0  0999 V2000
   -0.4573    2.5269    0.1761 O   0  0  0  0  0  0  0  0  0  0  0  0
   -1.2202   -1.8950    0.9263 O   0  0  0  0  0  0  0  0  0  0  0  0
    3.0742   -0.4742   -0.1240 O   0  0  0  0  0  0  0  0  0  0  0  0
    1.3252    1.0565   -0.1181 N   0  0  0  0  0  0  0  0  0  0  0  0
    0.9246   -1.2639    0.2730 N   0  0  0  0  0  0  0  0  0  0  0  0
   -0.9718    0.2068   -0.2278 C   0  0  0  0  0  0  0  0  0  0  0  0
   -1.0974   -0.0279   -1.7445 C   0  0  0  0  0  0  0  0  0  0  0  0
   -2.3633    0.5425    0.3362 C   0  0  0  0  0  0  0  0  0  0  0  0
   -0.0340    1.3860   -0.0142 C   0  0  0  0  0  0  0  0  0  0  0  0
   -0.4597   -1.0797    0.4030 C   0  0  0  0  0  0  0  0  0  0  0  0
   -2.0442   -1.1695   -2.0379 C   0  0  0  0  0  0  0  0  0  0  0  0
   -2.2854    0.8706    1.8106 C   0  0  0  0  0  0  0  0  0  0  0  0
    1.8638   -0.2476   -0.0187 C   0  0  0  0  0  0  0  0  0  0  0  0
    2.2826    2.1531   -0.2198 C   0  0  0  0  0  0  0  0  0  0  0  0
    1.4630   -2.5849    0.5798 C   0  0  0  0  0  0  0  0  0  0  0  0
  1  9  2  0
  2 10  2  0
  3 13  2  0
  4  9  1  0
  4 13  1  0
  4 14  1  0
  5 10  1  0
  5 13  1  0
  5 15  1  0
  6  7  1  0
  6  8  1  0
  6  9  1  0
  6 10  1  0
  7 11  1  0
  8 12  1  0
M  END
>  <PUBCHEM_COMPOUND_CID>  (1) 
12847

>  <PUBCHEM_CONFORMER_RMSD>  (1) 
0.6

>  <PUBCHEM_CONFORMER_DIVERSEORDER>  (1) 
1
3
2

>  <PUBCHEM_MMFF94_PARTIAL_CHARGES>  (1) 
11
1 -0.57
10 0.57
13 0.69
14 0.3
15 0.3
2 -0.57
3 -0.57
4 -0.42
5 -0.42
6 0.12
9 0.57

>  <PUBCHEM_EFFECTIVE_ROTOR_COUNT>  (1) 
2.6

>  <PUBCHEM_PHARMACOPHORE_FEATURES>  (1) 
6
1 1 acceptor
1 11 hydrophobe
1 12 hydrophobe
1 2 acceptor
1 3 acceptor
6 4 5 6 9 10 13 rings

>  <PUBCHEM_HEAVY_ATOM_COUNT>  (1) 
15

>  <PUBCHEM_ATOM_DEF_STEREO_COUNT>  (1) 
0

>  <PUBCHEM_ATOM_UDEF_STEREO_COUNT>  (1) 
0

>  <PUBCHEM_BOND_DEF_STEREO_COUNT>  (1) 
0

>  <PUBCHEM_BOND_UDEF_STEREO_COUNT>  (1) 
0

>  <PUBCHEM_ISOTOPIC_ATOM_COUNT>  (1) 
0

>  <PUBCHEM_COMPONENT_COUNT>  (1) 
1

>  <PUBCHEM_CACTVS_TAUTO_COUNT>  (1) 
1

>  <PUBCHEM_CONFORMER_ID>  (1) 
0000322F00000001

>  <PUBCHEM_MMFF94_ENERGY>  (1) 
36.3499

>  <PUBCHEM_FEATURE_SELFOVERLAP>  (1) 
30.446

>  <PUBCHEM_SHAPE_FINGERPRINT>  (1) 
12138202 97 17247203989197409806
12423570 1 8486724986205497959
13140716 1 18336554914320707040
13898156 1 17917695899426386487
14617773 55 18059292187777501429
14761567 1 18187353333788888678
14817 1 14996548625467112831
15852999 172 17682926097851932886
16945 1 18264787479293043208
19930374 2 13732143664048843457
20871998 184 17333639480296091438
22112679 90 17917418852534616741
23236772 104 17844527923124739609
2334 1 18120946254601987424
23419403 2 17604151402796885179
23559900 14 18339099155085756468
241688 4 17688847766852587810
2748010 2 18191029104307940826
5084963 1 17985543356088424889
528886 8 18409732884789841616
535629 181 18130497634597331605
53812653 217 18054778494929480476
63268167 104 18339633426382018193

>  <PUBCHEM_SHAPE_MULTIPOLES>  (1) 
281.12
3.37
2.51
1.45
1.04
0.02
0.38
-0.21
-0.05
0.95
-0.4
-1.37
0.31
-0.87

>  <PUBCHEM_SHAPE_SELFOVERLAP>  (1) 
575.841

>  <PUBCHEM_SHAPE_VOLUME>  (1) 
162

>  <PUBCHEM_COORDINATE_TYPE>  (1) 
2
5
10

$$$$
