12840
     RDKit          3D

 14 15  0  0  0  0  0  0  0  0999 V2000
    2.7611    1.2748    0.1572 O   0  0  0  0  0  0  0  0  0  0  0  0
    2.9296   -1.1190   -0.0641 O   0  0  0  0  0  0  0  0  0  0  0  0
   -2.1428    2.4261    0.0668 O   0  0  0  0  0  0  0  0  0  0  0  0
   -3.1299    0.4779   -0.1561 O   0  0  0  0  0  0  0  0  0  0  0  0
   -2.5055   -2.1753    0.6587 O   0  0  0  0  0  0  0  0  0  0  0  0
   -2.0970    1.1790   -0.0474 N   0  0  0  0  0  0  0  0  0  0  0  0
    1.5422    0.6782    0.0532 C   0  0  0  0  0  0  0  0  0  0  0  0
    1.6386   -0.6887   -0.0732 C   0  0  0  0  0  0  0  0  0  0  0  0
   -0.8268    0.5364   -0.0547 C   0  0  0  0  0  0  0  0  0  0  0  0
   -0.7283   -0.8603   -0.1839 C   0  0  0  0  0  0  0  0  0  0  0  0
    0.3219    1.3220    0.0661 C   0  0  0  0  0  0  0  0  0  0  0  0
    0.5200   -1.4873   -0.1939 C   0  0  0  0  0  0  0  0  0  0  0  0
    3.6352    0.1301    0.0827 C   0  0  0  0  0  0  0  0  0  0  0  0
   -1.9182   -1.6939   -0.3113 C   0  0  0  0  0  0  0  0  0  0  0  0
  1  7  1  0
  1 13  1  0
  2  8  1  0
  2 13  1  0
  3  6  1  0
  4  6  2  0
  5 14  2  0
  6  9  1  0
  7  8  2  0
  7 11  1  0
  8 12  1  0
  9 10  1  0
  9 11  2  0
 10 12  2  0
 10 14  1  0
M  CHG  2   3  -1   6   1
M  END
>  <PUBCHEM_COMPOUND_CID>  (1) 
12840

>  <PUBCHEM_CONFORMER_RMSD>  (1) 
0.6

>  <PUBCHEM_CONFORMER_DIVERSEORDER>  (1) 
1

>  <PUBCHEM_MMFF94_PARTIAL_CHARGES>  (1) 
17
1 -0.36
10 0.09
11 -0.15
12 -0.15
13 0.56
14 0.42
15 0.15
16 0.15
19 0.06
2 -0.36
3 -0.52
4 -0.52
5 -0.57
6 0.91
7 0.08
8 0.08
9 0.13

>  <PUBCHEM_EFFECTIVE_ROTOR_COUNT>  (1) 
2.6

>  <PUBCHEM_PHARMACOPHORE_FEATURES>  (1) 
8
1 1 acceptor
1 2 acceptor
1 3 acceptor
1 3 anion
1 4 acceptor
1 5 acceptor
5 1 2 7 8 13 rings
6 7 8 9 10 11 12 rings

>  <PUBCHEM_HEAVY_ATOM_COUNT>  (1) 
14

>  <PUBCHEM_ATOM_DEF_STEREO_COUNT>  (1) 
0

>  <PUBCHEM_ATOM_UDEF_STEREO_COUNT>  (1) 
0

>  <PUBCHEM_BOND_DEF_STEREO_COUNT>  (1) 
0

>  <PUBCHEM_BOND_UDEF_STEREO_COUNT>  (1) 
0

>  <PUBCHEM_ISOTOPIC_ATOM_COUNT>  (1) 
0

>  <PUBCHEM_COMPONENT_COUNT>  (1) 
1

>  <PUBCHEM_CACTVS_TAUTO_COUNT>  (1) 
1

>  <PUBCHEM_CONFORMER_ID>  (1) 
0000322800000001

>  <PUBCHEM_MMFF94_ENERGY>  (1) 
50.5186

>  <PUBCHEM_FEATURE_SELFOVERLAP>  (1) 
40.838

>  <PUBCHEM_SHAPE_FINGERPRINT>  (1) 
10608611 8 18341608231044241704
10967382 1 18339360747445530252
11206711 2 18339642355508179260
12730499 353 17539966179377146477
13380535 21 18339936930319914558
13380535 76 18340763732893833535
14325111 11 18340204090107505956
15442244 35 18266455408758141282
16945 1 18338519638145728772
17844478 74 18265340679660328539
193761 8 18194963165201747884
19973954 147 18410856594215864300
20510252 161 18271246135375452640
20588541 1 18341051792018238812
20871998 184 18272654583953545479
21501502 16 18410291428091012206
22802520 49 18129960970060299566
2334 1 18339359781220300470
23402539 116 18341317921525375957
23402655 69 18199454494740615437
23463225 33 18408319965272320478
23552423 10 18261110815779112638
23559900 14 18200033916421078950
2748010 2 18341330067428936822
528886 8 18412256216751961650
53812653 166 18272644671374670144
54173680 148 18409731772182600963
6333449 129 18412542119708163591
69090 78 18342451522166005775
8809292 202 18335424573027640650

>  <PUBCHEM_SHAPE_MULTIPOLES>  (1) 
253.79
4.89
2.17
0.62
1.72
0.16
0
0.07
0.22
-1.51
0.11
-0.06
-0.09
0.21

>  <PUBCHEM_SHAPE_SELFOVERLAP>  (1) 
560.103

>  <PUBCHEM_SHAPE_VOLUME>  (1) 
136.6

>  <PUBCHEM_COORDINATE_TYPE>  (1) 
2
5
10

$$$$
