12843
     RDKit          3D

 14 14  0  0  1  0  0  0  0  0999 V2000
    4.7758    1.2160   -0.5881 Cl  0  0  0  0  0  0  0  0  0  0  0  0
   -2.0521    0.3734    0.3827 O   0  0  0  0  0  0  0  0  0  0  0  0
   -3.3219    0.7469   -1.5009 O   0  0  0  0  0  0  0  0  0  0  0  0
   -3.8443    1.7318    0.5099 N   0  0  0  0  0  0  0  0  0  0  0  0
   -0.4460   -1.3955    0.8048 C   0  0  0  0  0  0  0  0  0  0  0  0
   -1.6132   -0.9053   -0.0727 C   0  0  0  0  0  0  0  0  0  0  0  0
    0.8513   -0.7461    0.4579 C   0  0  0  0  0  0  0  0  0  0  0  0
   -2.7976   -1.8626   -0.0314 C   0  0  0  0  0  0  0  0  0  0  0  0
    1.6863   -1.3232   -0.4986 C   0  0  0  0  0  0  0  0  0  0  0  0
    1.2297    0.4379    1.0910 C   0  0  0  0  0  0  0  0  0  0  0  0
    2.8999   -0.7165   -0.8221 C   0  0  0  0  0  0  0  0  0  0  0  0
    2.4432    1.0447    0.7675 C   0  0  0  0  0  0  0  0  0  0  0  0
    3.2784    0.4676   -0.1892 C   0  0  0  0  0  0  0  0  0  0  0  0
   -3.0896    0.9308   -0.3109 C   0  0  0  0  0  0  0  0  0  0  0  0
  1 13  1  0
  2  6  1  0
  2 14  1  0
  3 14  2  0
  4 14  1  0
  5  6  1  0
  5  7  1  0
  6  8  1  0
  7  9  2  0
  7 10  1  0
  9 11  1  0
 10 12  2  0
 11 13  2  0
 12 13  1  0
M  END
>  <PUBCHEM_COMPOUND_CID>  (1) 
12843

>  <PUBCHEM_CONFORMER_RMSD>  (1) 
0.6

>  <PUBCHEM_CONFORMER_DIVERSEORDER>  (1) 
2
37
19
9
25
38
39
8
6
13
14
34
11
33
31
28
35
3
15
5
24
16
20
41
40
4
10
32
27
18
1
23
22
7
36
29
12
26
30
17
21

>  <PUBCHEM_MMFF94_PARTIAL_CHARGES>  (1) 
19
1 -0.18
10 -0.15
11 -0.15
12 -0.15
13 0.18
14 0.78
2 -0.43
21 0.15
22 0.15
23 0.15
24 0.15
25 0.37
26 0.37
3 -0.57
4 -0.8
5 0.14
6 0.28
7 -0.14
9 -0.15

>  <PUBCHEM_EFFECTIVE_ROTOR_COUNT>  (1) 
4

>  <PUBCHEM_PHARMACOPHORE_FEATURES>  (1) 
3
1 3 acceptor
1 4 donor
6 7 9 10 11 12 13 rings

>  <PUBCHEM_HEAVY_ATOM_COUNT>  (1) 
14

>  <PUBCHEM_ATOM_DEF_STEREO_COUNT>  (1) 
0

>  <PUBCHEM_ATOM_UDEF_STEREO_COUNT>  (1) 
1

>  <PUBCHEM_BOND_DEF_STEREO_COUNT>  (1) 
0

>  <PUBCHEM_BOND_UDEF_STEREO_COUNT>  (1) 
0

>  <PUBCHEM_ISOTOPIC_ATOM_COUNT>  (1) 
0

>  <PUBCHEM_COMPONENT_COUNT>  (1) 
1

>  <PUBCHEM_CACTVS_TAUTO_COUNT>  (1) 
2

>  <PUBCHEM_CONFORMER_ID>  (1) 
0000322B00000002

>  <PUBCHEM_MMFF94_ENERGY>  (1) 
31.3286

>  <PUBCHEM_FEATURE_SELFOVERLAP>  (1) 
15.223

>  <PUBCHEM_SHAPE_FINGERPRINT>  (1) 
10498660 4 18114453501017159645
10608611 8 18342454889088089072
10618630 7 10375863087181143201
11769659 78 11599736051669801524
12251169 10 12252189575480152704
13380535 21 18409169879097122211
13764800 53 18114190717895986891
15775835 57 18040431075120253841
17834072 14 8862652457418307875
17834072 32 18187082875166149580
18186145 218 18335988575479995574
20281475 54 10519718782249963472
20361792 2 13758070818289164363
20645477 56 18409172129506621163
20645477 70 17917442990604716246
20671657 53 14764624209672141714
20711983 171 18260546753550422510
20767249 442 17822283557480695213
20871999 31 18201715202126509855
21501502 16 18408597059113818786
21713013 43 16199856375909314341
22646028 28 12103847860443872004
22802520 49 18202284697219394723
22926399 65 18335423482480279304
231179 274 17895188887953183084
23402539 116 18261667194485487582
23402655 69 17845937329433060417
23500284 214 18187372021001384313
23557571 272 18269848647274583887
23559900 14 18341615872498144306
25 1 18412547578638068082
305870 269 17749381547034453058
3268164 11 18264199378227681015
4028521 119 18335696126861908813
76465 3 10375874035206183916
81228 2 18042974366328850571
9882013 296 11170209656292942086

>  <PUBCHEM_SHAPE_MULTIPOLES>  (1) 
273.26
7.9
1.78
1.05
1.2
0.11
0.07
-3.86
2.04
-1.12
-0.02
-0.03
-0.12
0.28

>  <PUBCHEM_SHAPE_SELFOVERLAP>  (1) 
550.099

>  <PUBCHEM_SHAPE_VOLUME>  (1) 
161.1

>  <PUBCHEM_COORDINATE_TYPE>  (1) 
2
5
10

$$$$
