1284
     RDKit          3D

 20 21  0  0  1  0  0  0  0  0999 V2000
    0.0394    3.4969    0.0322 S   0  0  0  0  0  0  0  0  0  0  0  0
    2.9968   -0.8336    0.4355 O   0  0  0  0  0  0  0  0  0  0  0  0
   -0.1129   -0.9090    1.0017 O   0  0  0  0  0  0  0  0  0  0  0  0
   -2.6622   -0.4905   -0.1985 O   0  0  0  0  0  0  0  0  0  0  0  0
   -3.9532    1.3079    0.4785 O   0  0  0  0  0  0  0  0  0  0  0  0
    4.7723   -1.2314   -0.9882 O   0  0  0  0  0  0  0  0  0  0  0  0
   -0.4907    0.9489   -0.4081 N   0  0  0  0  0  0  0  0  0  0  0  0
    1.4544    1.0001    0.3288 C   0  0  0  0  0  0  0  0  0  0  0  0
    0.6301    1.8840   -0.6238 C   0  0  0  0  0  0  0  0  0  0  0  0
    0.2027    0.0908    0.3969 C   0  0  0  0  0  0  0  0  0  0  0  0
    2.6653    0.3468   -0.2955 C   0  0  0  0  0  0  0  0  0  0  0  0
   -1.6619    1.5697   -0.0684 C   0  0  0  0  0  0  0  0  0  0  0  0
   -1.5871    2.8854    0.1611 C   0  0  0  0  0  0  0  0  0  0  0  0
    3.8637    1.2884   -0.2907 C   0  0  0  0  0  0  0  0  0  0  0  0
   -2.8940    0.8136    0.1093 C   0  0  0  0  0  0  0  0  0  0  0  0
    4.0785   -1.5276   -0.0247 C   0  0  0  0  0  0  0  0  0  0  0  0
   -3.7864   -1.3674   -0.0726 C   0  0  0  0  0  0  0  0  0  0  0  0
    4.3068   -2.7341    0.8346 C   0  0  0  0  0  0  0  0  0  0  0  0
   -3.3560   -2.7761   -0.4518 C   0  0  0  0  0  0  0  0  0  0  0  0
   -4.5058   -3.7629   -0.3560 C   0  0  0  0  0  0  0  0  0  0  0  0
  1  9  1  0
  1 13  1  0
  2 11  1  0
  2 16  1  0
  3 10  2  0
  4 15  1  0
  4 17  1  0
  5 15  2  0
  6 16  2  0
  7  9  1  0
  7 10  1  0
  7 12  1  0
  8  9  1  0
  8 10  1  0
  8 11  1  0
 11 14  1  0
 12 13  2  0
 12 15  1  0
 16 18  1  0
 17 19  1  0
 19 20  1  0
M  END
>  <PUBCHEM_COMPOUND_CID>  (1) 
1284

>  <PUBCHEM_CONFORMER_RMSD>  (1) 
0.8

>  <PUBCHEM_CONFORMER_DIVERSEORDER>  (1) 
2
108
372
50
188
260
290
133
32
353
163
213
388
129
124
215
180
170
385
99
51
193
62
306
45
328
219
375
88
19
110
355
44
178
199
5
360
348
61
297
275
150
80
386
379
109
158
392
176
222
314
304
21
390
240
305
66
362
117
214
350
115
380
239
276
128
368
303
9
201
364
97
323
149
376
391
153
374
258
182
371
22
336
181
60
145
156
46
332
73
298
55
12
122
82
143
244
207
247
17
381
84
174
361
225
177
393
263
39
248
307
11
49
92
226
76
154
287
282
144
261
41
113
285
121
130
14
131
243
295
281
257
274
302
280
266
340
137
271
286
395
179
309
96
346
383
264
85
357
252
242
10
203
123
301
198
147
57
299
29
52
339
272
70
38
119
377
164
251
334
23
236
169
146
245
316
256
58
160
378
217
324
79
366
233
63
365
125
313
349
112
167
300
138
93
43
195
344
13
34
329
331
356
312
320
59
26
65
171
20
292
175
318
209
47
135
100
220
278
95
265
246
359
241
111
208
311
394
370
8
238
283
310
221
228
322
200
107
67
136
319
140
166
291
231
327
37
187
335
190
3
250
293
114
384
232
333
35
120
351
294
326
229
86
325
382
157
194
30
284
104
155
103
68
27
358
81
387
189
152
185
28
223
75
347
16
24
106
363
7
33
218
151
126
141
161
1
321
72
127
216
15
83
148
64
288
132
87
48
31
4
338
162
98
345
105
71
118
279
211
389
237
337
134
94
142
54
91
270
308
330
116
352
269
373
183
197
36
168
289
367
165
53
42
230
343
204
192
342
196
315
255
74
25
273
206
253
317
277
139
234
268
249
224
78
227
341
254
40
89
186
172
259
354
369
191
267
6
210
184
262
235
90
173
18
296
56
202
102
212
159
101
69
205
77

>  <PUBCHEM_MMFF94_PARTIAL_CHARGES>  (1) 
18
1 -0.32
10 0.58
11 0.28
12 0.12
13 -0.05
15 0.71
16 0.66
17 0.28
18 0.06
2 -0.43
24 0.15
3 -0.57
4 -0.43
5 -0.57
6 -0.57
7 -0.39
8 0.05
9 0.44

>  <PUBCHEM_EFFECTIVE_ROTOR_COUNT>  (1) 
7.4

>  <PUBCHEM_PHARMACOPHORE_FEATURES>  (1) 
5
1 20 hydrophobe
1 3 acceptor
1 5 acceptor
1 6 acceptor
7 1 7 8 9 10 12 13 rings

>  <PUBCHEM_HEAVY_ATOM_COUNT>  (1) 
20

>  <PUBCHEM_ATOM_DEF_STEREO_COUNT>  (1) 
0

>  <PUBCHEM_ATOM_UDEF_STEREO_COUNT>  (1) 
3

>  <PUBCHEM_BOND_DEF_STEREO_COUNT>  (1) 
0

>  <PUBCHEM_BOND_UDEF_STEREO_COUNT>  (1) 
0

>  <PUBCHEM_ISOTOPIC_ATOM_COUNT>  (1) 
0

>  <PUBCHEM_COMPONENT_COUNT>  (1) 
1

>  <PUBCHEM_CACTVS_TAUTO_COUNT>  (1) 
1

>  <PUBCHEM_CONFORMER_ID>  (1) 
0000050400000002

>  <PUBCHEM_MMFF94_ENERGY>  (1) 
54.7723

>  <PUBCHEM_FEATURE_SELFOVERLAP>  (1) 
25.373

>  <PUBCHEM_SHAPE_FINGERPRINT>  (1) 
10062212 137 17898851245252674330
10616163 171 18340488876525354382
11806522 49 18192427700167915653
12107183 9 18270134521490413267
12553582 1 18336256865054729291
12555020 224 18337659816496332455
12969540 37 18120647200139492045
13140716 1 18342171154905787664
13955234 65 17621602048547444323
14576447 43 18265897045613339046
14790565 3 17979078184968785385
14863182 85 17399516118353169885
15042514 8 18339362959659818171
15342816 4 18339651134732666214
15352361 1 18339359785573770863
15420108 30 14082086321159789635
17492 89 18339359781036333767
19141452 34 18340772542177647681
20281475 54 18410575097627335988
20291156 8 18339078302027951727
20681677 274 18341323427589248200
21478907 32 18410008853877201227
221490 88 18047473610800814499
23379529 103 18271253729142097230
23557571 272 17843971342903425492
23559900 14 18340481184724236832
3421961 26 18052536861825714867
46194498 28 17243848262893890471
5104073 3 18273214200911891402
556388 4 18193835075109653647
633830 44 16732991890148112644
9709674 26 18334020514386016338

>  <PUBCHEM_SHAPE_MULTIPOLES>  (1) 
381.11
9.16
4.37
0.8
1.71
0.87
-0.01
10.18
0.73
-2.58
0.04
0.3
0.15
-1.06

>  <PUBCHEM_SHAPE_SELFOVERLAP>  (1) 
777.371

>  <PUBCHEM_SHAPE_VOLUME>  (1) 
224.5

>  <PUBCHEM_COORDINATE_TYPE>  (1) 
2
5
10

$$$$
