12844
     RDKit          3D

 14 14  0  0  1  0  0  0  0  0999 V2000
    2.0642   -0.6504    0.0460 O   0  0  0  0  0  0  0  0  0  0  0  0
    3.4337   -2.4384    0.0607 O   0  0  0  0  0  0  0  0  0  0  0  0
    1.8457    0.7276   -0.3324 C   0  0  0  0  0  0  0  0  0  0  0  0
    0.4931    1.1470    0.2271 C   0  0  0  0  0  0  0  0  0  0  0  0
    2.9534    1.6481    0.1546 C   0  0  0  0  0  0  0  0  0  0  0  0
   -0.6299    0.2480   -0.2898 C   0  0  0  0  0  0  0  0  0  0  0  0
   -1.9829    0.6514    0.3010 C   0  0  0  0  0  0  0  0  0  0  0  0
    4.2788    1.0929   -0.3245 C   0  0  0  0  0  0  0  0  0  0  0  0
   -3.1104   -0.2259   -0.2477 C   0  0  0  0  0  0  0  0  0  0  0  0
    4.4760   -0.2982    0.2405 C   0  0  0  0  0  0  0  0  0  0  0  0
   -4.4984    0.1802    0.2559 C   0  0  0  0  0  0  0  0  0  0  0  0
    3.2940   -1.2173    0.0665 C   0  0  0  0  0  0  0  0  0  0  0  0
   -5.6316   -0.6491   -0.3494 C   0  0  0  0  0  0  0  0  0  0  0  0
   -6.9857   -0.2159    0.1914 C   0  0  0  0  0  0  0  0  0  0  0  0
  1  3  1  0
  1 12  1  0
  2 12  2  0
  3  4  1  0
  3  5  1  0
  4  6  1  0
  5  8  1  0
  6  7  1  0
  7  9  1  0
  8 10  1  0
  9 11  1  0
 10 12  1  0
 11 13  1  0
 13 14  1  0
M  END
>  <PUBCHEM_COMPOUND_CID>  (1) 
12844

>  <PUBCHEM_CONFORMER_RMSD>  (1) 
0.8

>  <PUBCHEM_CONFORMER_DIVERSEORDER>  (1) 
1
119
70
64
15
120
84
111
63
113
18
3
130
122
39
13
133
74
104
14
117
132
93
26
123
40
106
49
68
2
114
5
105
128
103
60
8
57
36
125
28
81
44
61
16
115
48
95
107
58
32
87
56
62
41
72
43
7
112
24
17
75
121
6
73
131
50
34
47
78
31
102
19
35
118
12
94
129
10
76
96
110
52
91
116
53
97
51
9
101
25
27
59
127
22
46
42
29
108
30
77
86
37
66
109
55
45
92
65
80
124
4
98
38
90
11
33
20
88
67
126
85
79
82
100
23
54
89
69
21
83
71
99

>  <PUBCHEM_MMFF94_PARTIAL_CHARGES>  (1) 
5
1 -0.43
10 0.06
12 0.66
2 -0.57
3 0.28

>  <PUBCHEM_EFFECTIVE_ROTOR_COUNT>  (1) 
7

>  <PUBCHEM_PHARMACOPHORE_FEATURES>  (1) 
5
1 14 hydrophobe
1 2 acceptor
3 4 6 7 hydrophobe
3 9 11 13 hydrophobe
6 1 3 5 8 10 12 rings

>  <PUBCHEM_HEAVY_ATOM_COUNT>  (1) 
14

>  <PUBCHEM_ATOM_DEF_STEREO_COUNT>  (1) 
0

>  <PUBCHEM_ATOM_UDEF_STEREO_COUNT>  (1) 
1

>  <PUBCHEM_BOND_DEF_STEREO_COUNT>  (1) 
0

>  <PUBCHEM_BOND_UDEF_STEREO_COUNT>  (1) 
0

>  <PUBCHEM_ISOTOPIC_ATOM_COUNT>  (1) 
0

>  <PUBCHEM_COMPONENT_COUNT>  (1) 
1

>  <PUBCHEM_CACTVS_TAUTO_COUNT>  (1) 
1

>  <PUBCHEM_CONFORMER_ID>  (1) 
0000322C00000001

>  <PUBCHEM_MMFF94_ENERGY>  (1) 
9.1996

>  <PUBCHEM_FEATURE_SELFOVERLAP>  (1) 
25.385

>  <PUBCHEM_SHAPE_FINGERPRINT>  (1) 
10912923 1 17917998291384400249
11287383 113 17603588568849837273
11858739 19 18411979131601164239
12107183 9 17766286366739326521
13167823 11 18343300379623868975
13533116 47 18342739602686574643
13836976 161 18334300898699509892
14123238 8 18202003244176534189
1420 363 17385446531794205281
14251717 144 18409166597857931626
14573314 32 17894906305101653373
15242433 33 18412826914937291223
15477762 27 18408323259717932364
17834072 33 18341893017540678493
19427546 62 18190181385280583940
200 152 18343300366786452777
20279233 1 17385448721473295256
20645477 70 18336264561314532494
21267235 1 18341618079683670438
220451 1 18271812354331729439
22224240 67 18339915022372181064
22485316 2 18411698811691022701
23402539 116 17917989491260395117
23532345 1 18335706104055294800
23536379 177 18411138026934050593
23557571 272 17313096441102571645
2871803 45 18040433261227004570
33824 294 18334855013662798306
4214541 1 18410855430702142413
42630746 31 18411136948564787298
42788 4 18410293627657697117
465052 167 18273501169141457647
522135 26 18410293618482174108
5374978 207 17203325615432654417
57483677 66 18341611542848927967
6025842 7 18335987544988356212

>  <PUBCHEM_SHAPE_MULTIPOLES>  (1) 
276.37
14.58
1.56
0.66
23.48
0.6
-0.01
2.73
0.22
-2.47
0.05
0.07
-0.04
-0.3

>  <PUBCHEM_SHAPE_SELFOVERLAP>  (1) 
526.733

>  <PUBCHEM_SHAPE_VOLUME>  (1) 
170

>  <PUBCHEM_COORDINATE_TYPE>  (1) 
2
5
10

$$$$
