12858
     RDKit          3D

 15 16  0  0  0  0  0  0  0  0999 V2000
    2.9893    1.1463    0.1584 O   0  0  0  0  0  0  0  0  0  0  0  0
   -0.8139   -2.2317   -0.3185 O   0  0  0  0  0  0  0  0  0  0  0  0
   -2.0984   -0.2850   -0.0641 C   0  0  0  0  0  0  0  0  0  0  0  0
   -0.8368   -1.0007   -0.1670 C   0  0  0  0  0  0  0  0  0  0  0  0
    2.9351   -0.1709   -0.0018 C   0  0  0  0  0  0  0  0  0  0  0  0
   -2.1832    1.0428   -0.4829 C   0  0  0  0  0  0  0  0  0  0  0  0
   -3.2239   -0.9263    0.4532 C   0  0  0  0  0  0  0  0  0  0  0  0
    0.4441   -0.2223   -0.0543 C   0  0  0  0  0  0  0  0  0  0  0  0
    1.6300   -0.8455   -0.1163 C   0  0  0  0  0  0  0  0  0  0  0  0
   -3.3936    1.7292   -0.3845 C   0  0  0  0  0  0  0  0  0  0  0  0
   -4.4343   -0.2401    0.5513 C   0  0  0  0  0  0  0  0  0  0  0  0
    4.1275   -0.7811   -0.0431 C   0  0  0  0  0  0  0  0  0  0  0  0
   -4.5192    1.0876    0.1325 C   0  0  0  0  0  0  0  0  0  0  0  0
    5.0597    0.2729    0.1090 C   0  0  0  0  0  0  0  0  0  0  0  0
    4.3176    1.4248    0.2279 C   0  0  0  0  0  0  0  0  0  0  0  0
  1  5  1  0
  1 15  1  0
  2  4  2  0
  3  4  1  0
  3  6  2  0
  3  7  1  0
  4  8  1  0
  5  9  1  0
  5 12  2  0
  6 10  1  0
  7 11  2  0
  8  9  2  0
 10 13  2  0
 11 13  1  0
 12 14  1  0
 14 15  2  0
M  END
>  <PUBCHEM_COMPOUND_CID>  (1) 
12858

>  <PUBCHEM_CONFORMER_RMSD>  (1) 
0.6

>  <PUBCHEM_CONFORMER_DIVERSEORDER>  (1) 
1
6
12
11
9
7
13
8
4
3
5
10
2

>  <PUBCHEM_MMFF94_PARTIAL_CHARGES>  (1) 
25
1 -0.28
10 -0.15
11 -0.15
12 -0.15
13 -0.15
14 -0.15
15 -0.01
16 0.15
17 0.15
18 0.15
19 0.15
2 -0.57
20 0.15
21 0.15
22 0.15
23 0.15
24 0.15
25 0.15
3 0.09
4 0.47
5 0.09
6 -0.15
7 -0.15
8 -0.14
9 -0.11

>  <PUBCHEM_EFFECTIVE_ROTOR_COUNT>  (1) 
3

>  <PUBCHEM_PHARMACOPHORE_FEATURES>  (1) 
4
1 1 acceptor
1 2 acceptor
5 1 5 12 14 15 rings
6 3 6 7 10 11 13 rings

>  <PUBCHEM_HEAVY_ATOM_COUNT>  (1) 
15

>  <PUBCHEM_ATOM_DEF_STEREO_COUNT>  (1) 
0

>  <PUBCHEM_ATOM_UDEF_STEREO_COUNT>  (1) 
0

>  <PUBCHEM_BOND_DEF_STEREO_COUNT>  (1) 
0

>  <PUBCHEM_BOND_UDEF_STEREO_COUNT>  (1) 
1

>  <PUBCHEM_ISOTOPIC_ATOM_COUNT>  (1) 
0

>  <PUBCHEM_COMPONENT_COUNT>  (1) 
1

>  <PUBCHEM_CACTVS_TAUTO_COUNT>  (1) 
1

>  <PUBCHEM_CONFORMER_ID>  (1) 
0000323A00000001

>  <PUBCHEM_MMFF94_ENERGY>  (1) 
38.8887

>  <PUBCHEM_FEATURE_SELFOVERLAP>  (1) 
20.297

>  <PUBCHEM_SHAPE_FINGERPRINT>  (1) 
11046707 91 9079114462181365589
11132069 177 18113624456580899925
12107183 9 17539679210360868888
122479 349 18408606984772423834
12596602 18 16443350904944601056
13081056 2 18411702079929149788
13214271 11 18408604760601623031
13533116 47 17385996222640551371
13675066 3 18261397753864617898
13897977 58 18334017219724198013
14123255 52 18410570678137799322
14252887 29 13840261464707966858
15196674 1 18410292514607189140
15501527 16 18412826906294693512
18186145 218 18130798814910564694
19433438 28 18333733524228270408
20432913 95 14056716833609662440
20645477 56 18412544336074734190
20645477 70 17203059499881714230
212847 35 18410293606098503600
21652331 79 18408321090147875468
22854114 59 18408324380113539955
23402539 116 18273207603810475733
23402655 69 18060137639663746620
23559900 14 18202003188553332846
27216 239 18335141990529304513
2916195 48 18201710791089498008
351380 180 18408602560866301753
3545911 37 18342741827801172706
42 15 17967813834296488722
4214541 1 18410292518959866922
5104073 3 18408321086132165618
633830 44 18059297535286105023
6430166 295 18411415103341841610
69090 78 18342173388268039823
77779 3 18408886239388004122
90127 26 18334305270649097890

>  <PUBCHEM_SHAPE_MULTIPOLES>  (1) 
296.95
11.1
1.66
0.68
5.1
0.01
-0.01
-3.53
-1.27
-0.53
0.12
-0.19
-0.01
0.45

>  <PUBCHEM_SHAPE_SELFOVERLAP>  (1) 
641.261

>  <PUBCHEM_SHAPE_VOLUME>  (1) 
163.9

>  <PUBCHEM_COORDINATE_TYPE>  (1) 
2
5
10

$$$$
