1285
     RDKit          3D

 24 25  0  0  1  0  0  0  0  0999 V2000
    3.4568   -1.4719   -0.1576 O   0  0  0  0  0  0  0  0  0  0  0  0
    5.5196   -0.4699   -0.3658 O   0  0  0  0  0  0  0  0  0  0  0  0
   -4.5112   -0.4452    1.0744 O   0  0  0  0  0  0  0  0  0  0  0  0
   -2.3847    0.2057    1.6077 O   0  0  0  0  0  0  0  0  0  0  0  0
    2.0593    0.4194   -0.2607 C   0  0  0  0  0  0  0  0  0  0  0  0
    2.1539   -1.0179    0.2536 C   0  0  0  0  0  0  0  0  0  0  0  0
    0.9584    1.2132    0.4563 C   0  0  0  0  0  0  0  0  0  0  0  0
    3.4871    0.8153   -0.0805 C   0  0  0  0  0  0  0  0  0  0  0  0
    0.5624    2.4911   -0.2920 C   0  0  0  0  0  0  0  0  0  0  0  0
    1.1038   -1.9102   -0.3493 C   0  0  0  0  0  0  0  0  0  0  0  0
    4.3133   -0.4082   -0.2133 C   0  0  0  0  0  0  0  0  0  0  0  0
   -0.7955    2.9898    0.1479 C   0  0  0  0  0  0  0  0  0  0  0  0
    0.1321   -2.5848    0.2963 C   0  0  0  0  0  0  0  0  0  0  0  0
   -0.8890   -3.3850   -0.4895 C   0  0  0  0  0  0  0  0  0  0  0  0
    4.0495    1.9903    0.2097 C   0  0  0  0  0  0  0  0  0  0  0  0
   -1.9473    2.6932   -0.4859 C   0  0  0  0  0  0  0  0  0  0  0  0
   -2.3271   -2.8611   -0.3640 C   0  0  0  0  0  0  0  0  0  0  0  0
   -2.1217    1.8035   -1.6881 C   0  0  0  0  0  0  0  0  0  0  0  0
   -0.7940    3.8787    1.3621 C   0  0  0  0  0  0  0  0  0  0  0  0
   -0.0198   -2.6362    1.7923 C   0  0  0  0  0  0  0  0  0  0  0  0
   -3.2670    0.7913   -1.5392 C   0  0  0  0  0  0  0  0  0  0  0  0
   -2.5566   -1.5651   -1.0968 C   0  0  0  0  0  0  0  0  0  0  0  0
   -2.9617   -0.3722   -0.6247 C   0  0  0  0  0  0  0  0  0  0  0  0
   -3.2205   -0.1636    0.8068 C   0  0  0  0  0  0  0  0  0  0  0  0
  1  6  1  0
  1 11  1  0
  2 11  2  0
  3 24  1  0
  4 24  2  0
  5  6  1  0
  5  7  1  0
  5  8  1  0
  6 10  1  0
  7  9  1  0
  8 11  1  0
  8 15  2  0
  9 12  1  0
 10 13  2  0
 12 16  2  0
 12 19  1  0
 13 14  1  0
 13 20  1  0
 14 17  1  0
 16 18  1  0
 17 22  1  0
 18 21  1  0
 21 23  1  0
 22 23  2  0
 23 24  1  0
M  END
>  <PUBCHEM_COMPOUND_CID>  (1) 
1285

>  <PUBCHEM_CONFORMER_RMSD>  (1) 
0.6

>  <PUBCHEM_CONFORMER_DIVERSEORDER>  (1) 
3
22
23
95
74
28
61
39
64
15
57
88
43
34
40
44
70
82
94
65
16
91
87
68
62
63
84
79
14
36
58
75
26
77
19
33
80
24
20
37
49
4
81
92
66
35
73
47
46
48
97
59
11
8
55
42
18
45
86
60
69
31
12
50
13
89
52
98
67
72
30
93
71
90
41
96
53
85
38
27
32
76
9
54
56
1
78
17
25
83
7
29
10
21
2
51
5
6

>  <PUBCHEM_MMFF94_PARTIAL_CHARGES>  (1) 
29
1 -0.43
10 -0.29
11 0.71
12 -0.28
13 -0.28
14 0.14
15 -0.3
16 -0.29
17 0.14
18 0.14
19 0.14
2 -0.57
20 0.14
21 0.14
22 -0.29
23 -0.12
24 0.71
3 -0.65
31 0.15
34 0.15
35 0.15
36 0.15
4 -0.57
49 0.15
5 0.14
50 0.5
6 0.42
8 -0.12
9 0.14

>  <PUBCHEM_EFFECTIVE_ROTOR_COUNT>  (1) 
2.4

>  <PUBCHEM_PHARMACOPHORE_FEATURES>  (1) 
5
1 2 acceptor
1 3 acceptor
1 4 acceptor
3 3 4 24 anion
5 1 5 6 8 11 rings

>  <PUBCHEM_HEAVY_ATOM_COUNT>  (1) 
24

>  <PUBCHEM_ATOM_DEF_STEREO_COUNT>  (1) 
0

>  <PUBCHEM_ATOM_UDEF_STEREO_COUNT>  (1) 
2

>  <PUBCHEM_BOND_DEF_STEREO_COUNT>  (1) 
0

>  <PUBCHEM_BOND_UDEF_STEREO_COUNT>  (1) 
3

>  <PUBCHEM_ISOTOPIC_ATOM_COUNT>  (1) 
0

>  <PUBCHEM_COMPONENT_COUNT>  (1) 
1

>  <PUBCHEM_CACTVS_TAUTO_COUNT>  (1) 
1

>  <PUBCHEM_CONFORMER_ID>  (1) 
0000050500000003

>  <PUBCHEM_MMFF94_ENERGY>  (1) 
42.0896

>  <PUBCHEM_FEATURE_SELFOVERLAP>  (1) 
25.426

>  <PUBCHEM_SHAPE_FINGERPRINT>  (1) 
10498660 4 18336814355888602111
10616163 171 18265615372873220108
10675989 125 16823035033680524380
10759866 29 17895188845209290330
107951 10 17168698627642158893
12156800 1 13277227741674814469
12403259 226 18048311438160611070
12539773 59 17704069616607879557
12553582 1 18413101783900970029
12596599 1 17917164895371043901
12788726 201 17770766923915412201
13122387 1 18337946904262198964
13140716 1 18338519763217128570
13402501 40 18334579061903007083
138480 1 16466424886644847861
14081887 123 18270100401520964928
14123250 116 18051972511328210065
14251740 79 18410858720620418582
14251751 93 18336262349654255882
14251757 17 17914064105446828070
14251757 5 18190476020237498262
14363568 33 16820259346492469192
14765038 42 18199205042380862544
14790565 3 18340211804154151857
14931854 50 18265598918895350901
19930381 70 18194955254578552463
20775438 99 16831729374569057655
21141583 151 18341325677940841660
2818148 4 17174646138875620663
3524813 1 18187357731877305719
469060 322 17313686866320357545
7226269 152 18336817663656790346

>  <PUBCHEM_SHAPE_MULTIPOLES>  (1) 
470.43
7.59
4.54
1.33
6.67
0.9
0.22
-0.39
-0.89
-1.67
0.71
-1.21
0.15
0.22

>  <PUBCHEM_SHAPE_SELFOVERLAP>  (1) 
963.434

>  <PUBCHEM_SHAPE_VOLUME>  (1) 
270.9

>  <PUBCHEM_COORDINATE_TYPE>  (1) 
2
5
10

$$$$
