12852
     RDKit          3D

 15 17  0  0  0  0  0  0  0  0999 V2000
   -0.4974   -0.9899    0.0213 N   0  0  0  0  0  0  0  0  0  0  0  0
    1.5284   -1.9185    0.0254 N   0  0  0  0  0  0  0  0  0  0  0  0
    0.1196    1.3590   -0.0189 N   0  0  0  0  0  0  0  0  0  0  0  0
    2.5442    1.6374   -0.0367 N   0  0  0  0  0  0  0  0  0  0  0  0
    4.0510   -0.2216   -0.0178 N   0  0  0  0  0  0  0  0  0  0  0  0
   -1.9545   -0.8923    0.0273 C   0  0  0  0  0  0  0  0  0  0  0  0
   -2.5224   -0.1843   -1.2145 C   0  0  0  0  0  0  0  0  0  0  0  0
   -2.5397   -0.1532    1.2473 C   0  0  0  0  0  0  0  0  0  0  0  0
   -3.7267    0.5883   -0.6970 C   0  0  0  0  0  0  0  0  0  0  0  0
   -3.2771    1.0534    0.6776 C   0  0  0  0  0  0  0  0  0  0  0  0
    0.3922    0.0456    0.0002 C   0  0  0  0  0  0  0  0  0  0  0  0
    0.2320   -2.1486    0.0365 C   0  0  0  0  0  0  0  0  0  0  0  0
    1.6428   -0.5512    0.0026 C   0  0  0  0  0  0  0  0  0  0  0  0
    2.7449    0.2977   -0.0170 C   0  0  0  0  0  0  0  0  0  0  0  0
    1.2629    2.0783   -0.0363 C   0  0  0  0  0  0  0  0  0  0  0  0
  1  6  1  0
  1 11  1  0
  1 12  1  0
  2 12  2  0
  2 13  1  0
  3 11  1  0
  3 15  2  0
  4 14  2  0
  4 15  1  0
  5 14  1  0
  6  7  1  0
  6  8  1  0
  7  9  1  0
  8 10  1  0
  9 10  1  0
 11 13  2  0
 13 14  1  0
M  END
>  <PUBCHEM_COMPOUND_CID>  (1) 
12852

>  <PUBCHEM_CONFORMER_RMSD>  (1) 
0.6

>  <PUBCHEM_CONFORMER_DIVERSEORDER>  (1) 
1
2
3
4

>  <PUBCHEM_MMFF94_PARTIAL_CHARGES>  (1) 
15
1 0.05
11 0.11
12 0.04
13 0.23
14 0.41
15 0.47
2 -0.57
25 0.15
26 0.15
27 0.4
28 0.4
3 -0.57
4 -0.62
5 -0.9
6 0.26

>  <PUBCHEM_EFFECTIVE_ROTOR_COUNT>  (1) 
2

>  <PUBCHEM_PHARMACOPHORE_FEATURES>  (1) 
8
1 5 cation
1 5 donor
3 1 2 12 cation
3 1 3 11 cation
3 3 4 15 cation
5 1 2 11 12 13 rings
5 6 7 8 9 10 rings
6 3 4 11 13 14 15 rings

>  <PUBCHEM_HEAVY_ATOM_COUNT>  (1) 
15

>  <PUBCHEM_ATOM_DEF_STEREO_COUNT>  (1) 
0

>  <PUBCHEM_ATOM_UDEF_STEREO_COUNT>  (1) 
0

>  <PUBCHEM_BOND_DEF_STEREO_COUNT>  (1) 
0

>  <PUBCHEM_BOND_UDEF_STEREO_COUNT>  (1) 
0

>  <PUBCHEM_ISOTOPIC_ATOM_COUNT>  (1) 
0

>  <PUBCHEM_COMPONENT_COUNT>  (1) 
1

>  <PUBCHEM_CACTVS_TAUTO_COUNT>  (1) 
3

>  <PUBCHEM_CONFORMER_ID>  (1) 
0000323400000001

>  <PUBCHEM_MMFF94_ENERGY>  (1) 
27.7534

>  <PUBCHEM_FEATURE_SELFOVERLAP>  (1) 
41.203

>  <PUBCHEM_SHAPE_FINGERPRINT>  (1) 
10608611 8 18333447643000281269
10967382 1 18410575050313896544
10980938 120 18410856516832684323
11132069 177 18413100667573294688
11471102 20 18409444748097250231
11543360 7 15697998599873298432
124424 183 17822002099467627834
12491281 212 18341339971380915297
12654215 9 18334851684667381580
13380535 76 18409728469447767323
15309172 13 18409169921914698859
15653759 3 17168146753908162737
15775835 57 18131354094421660481
16945 1 18410576171427065306
17844478 74 17821737113234499725
18186145 218 18342747355070817276
18219364 16 18334300872528720731
19049666 15 17605834712265251867
200 152 18272644697534876919
20201158 50 18334011657873262433
20645464 45 17603305938674500227
21524375 3 18336825393864992063
21639500 275 18339065060617333093
22094290 62 18410575123576396888
231179 274 17967803925495603245
2334 1 18050287260676478564
23402539 116 18273208682485557446
23402655 69 18341038615723518581
23493267 7 17313383400799809632
23557571 272 14692850294261469803
25 1 18335419041257177031
2748010 2 18194407924983297438
528886 8 18411415115862876738
53812653 166 18410572885845538832
63268167 104 18413106134966357753
74978 22 18339360893479732028
77492 1 17775282734107573803
81228 2 16751829547846584314

>  <PUBCHEM_SHAPE_MULTIPOLES>  (1) 
283.79
5.83
1.94
0.88
0.5
0.09
0.01
-1.39
-0.19
-0.87
0.04
0.8
-0.02
-0.09

>  <PUBCHEM_SHAPE_SELFOVERLAP>  (1) 
619.974

>  <PUBCHEM_SHAPE_VOLUME>  (1) 
152.9

>  <PUBCHEM_COORDINATE_TYPE>  (1) 
2
5
10

$$$$
