12851
     RDKit          3D

 15 16  0  0  1  0  0  0  0  0999 V2000
    0.4400    2.6623    0.2715 Cl  0  0  0  0  0  0  0  0  0  0  0  0
    1.0796   -2.1999    0.3487 N   0  0  0  0  0  0  0  0  0  0  0  0
   -3.6199    1.3235    0.5053 N   0  0  0  0  0  0  0  0  0  0  0  0
   -2.5009    0.5190    0.0016 C   0  0  0  0  0  0  0  0  0  0  0  0
   -1.4776    0.2720    1.1445 C   0  0  0  0  0  0  0  0  0  0  0  0
   -0.2733   -0.4850    0.7431 C   0  0  0  0  0  0  0  0  0  0  0  0
    0.9594    0.0255    0.2486 C   0  0  0  0  0  0  0  0  0  0  0  0
   -3.0314   -0.8006   -0.5909 C   0  0  0  0  0  0  0  0  0  0  0  0
    1.7905   -1.0709    0.0090 C   0  0  0  0  0  0  0  0  0  0  0  0
   -0.1687   -1.8560    0.7932 C   0  0  0  0  0  0  0  0  0  0  0  0
    1.4496    1.3193   -0.0190 C   0  0  0  0  0  0  0  0  0  0  0  0
   -4.0466   -0.5941   -1.7092 C   0  0  0  0  0  0  0  0  0  0  0  0
    3.0925   -0.9378   -0.4866 C   0  0  0  0  0  0  0  0  0  0  0  0
    2.7499    1.4676   -0.5152 C   0  0  0  0  0  0  0  0  0  0  0  0
    3.5569    0.3551   -0.7446 C   0  0  0  0  0  0  0  0  0  0  0  0
  1 11  1  0
  2  9  1  0
  2 10  1  0
  3  4  1  0
  4  5  1  0
  4  8  1  0
  5  6  1  0
  6  7  1  0
  6 10  2  0
  7  9  2  0
  7 11  1  0
  8 12  1  0
  9 13  1  0
 11 14  2  0
 13 15  2  0
 14 15  1  0
M  END
>  <PUBCHEM_COMPOUND_CID>  (1) 
12851

>  <PUBCHEM_CONFORMER_RMSD>  (1) 
0.6

>  <PUBCHEM_CONFORMER_DIVERSEORDER>  (1) 
1
19
12
9
5
7
2
6
11
3
18
17
4
8
15
13
10
14
16

>  <PUBCHEM_MMFF94_PARTIAL_CHARGES>  (1) 
19
1 -0.18
10 -0.3
11 0.18
13 -0.15
14 -0.15
15 -0.15
2 0.03
21 0.15
22 0.27
23 0.36
24 0.36
28 0.15
29 0.15
3 -0.99
30 0.15
4 0.27
5 0.18
6 -0.18
9 -0.15

>  <PUBCHEM_EFFECTIVE_ROTOR_COUNT>  (1) 
3

>  <PUBCHEM_PHARMACOPHORE_FEATURES>  (1) 
7
1 12 hydrophobe
1 2 cation
1 2 donor
1 3 cation
1 3 donor
5 2 6 7 9 10 rings
6 7 9 11 13 14 15 rings

>  <PUBCHEM_HEAVY_ATOM_COUNT>  (1) 
15

>  <PUBCHEM_ATOM_DEF_STEREO_COUNT>  (1) 
0

>  <PUBCHEM_ATOM_UDEF_STEREO_COUNT>  (1) 
1

>  <PUBCHEM_BOND_DEF_STEREO_COUNT>  (1) 
0

>  <PUBCHEM_BOND_UDEF_STEREO_COUNT>  (1) 
0

>  <PUBCHEM_ISOTOPIC_ATOM_COUNT>  (1) 
0

>  <PUBCHEM_COMPONENT_COUNT>  (1) 
1

>  <PUBCHEM_CACTVS_TAUTO_COUNT>  (1) 
1

>  <PUBCHEM_CONFORMER_ID>  (1) 
0000323300000001

>  <PUBCHEM_MMFF94_ENERGY>  (1) 
19.6347

>  <PUBCHEM_FEATURE_SELFOVERLAP>  (1) 
35.612

>  <PUBCHEM_SHAPE_FINGERPRINT>  (1) 
12400797 292 18057029418902172631
12730499 353 17894627033738700603
13294875 104 17823955987696837170
13583140 156 16588303963951678312
13705890 14 16486979500859789412
14250199 8 18340484590390358773
14251717 144 18409724079864161703
14576447 43 18201431514766862231
15210252 30 17531519897854682789
15775835 57 18410300189861258421
16945 1 18263944171592517434
18186145 218 18259706687584873623
21524375 3 18115022017016048626
21634736 98 18057030531219743591
21639500 275 18334852848482030533
22959321 8 18113894996344053981
231179 274 17095234834908558372
2334 1 18121517983700702890
23379529 103 17487060213008761006
23382010 3 18339075007571692971
23402539 116 18341613685889720780
23402655 69 18340208492538733213
23557571 272 16917054590708584683
23559900 14 18124621884306115276
23598291 2 18200310992718002623
25 1 18260553302964176731
2748010 2 17833846236596702504
3060560 45 18336531815759917655
3082319 5 18343861117595065439
528886 8 18409456881727982216
63268167 104 18411427197642875168
77492 1 18060425681355231235
7832392 63 18341895130701933761
81228 2 15878389597011383955

>  <PUBCHEM_SHAPE_MULTIPOLES>  (1) 
300.6
6.17
2.23
1.1
3.66
0.55
0.2
0.27
2.92
-0.72
-0.35
0.81
-0.14
-0.55

>  <PUBCHEM_SHAPE_SELFOVERLAP>  (1) 
628.754

>  <PUBCHEM_SHAPE_VOLUME>  (1) 
172.2

>  <PUBCHEM_COORDINATE_TYPE>  (1) 
2
5
10

$$$$
