12868
     RDKit          3D

 16 16  0  0  0  0  0  0  0  0999 V2000
   -1.5847   -2.7028   -0.0788 Cl  0  0  0  0  0  0  0  0  0  0  0  0
    1.5846   -2.7029    0.0785 Cl  0  0  0  0  0  0  0  0  0  0  0  0
   -1.5845    2.7034   -0.0792 Cl  0  0  0  0  0  0  0  0  0  0  0  0
    1.5847    2.7033    0.0792 Cl  0  0  0  0  0  0  0  0  0  0  0  0
   -3.8410   -0.0016    1.3252 Cl  0  0  0  0  0  0  0  0  0  0  0  0
    3.8401   -0.0013   -1.3258 Cl  0  0  0  0  0  0  0  0  0  0  0  0
   -3.3961    0.0003   -1.2629 O   0  0  0  0  0  0  0  0  0  0  0  0
    3.3967   -0.0002    1.2625 O   0  0  0  0  0  0  0  0  0  0  0  0
   -1.3931    0.0002   -0.0693 C   0  0  0  0  0  0  0  0  0  0  0  0
    1.3931    0.0003    0.0700 C   0  0  0  0  0  0  0  0  0  0  0  0
   -0.6966   -1.2077   -0.0345 C   0  0  0  0  0  0  0  0  0  0  0  0
    0.6966   -1.2078    0.0352 C   0  0  0  0  0  0  0  0  0  0  0  0
   -0.6965    1.2082   -0.0347 C   0  0  0  0  0  0  0  0  0  0  0  0
    0.6966    1.2082    0.0350 C   0  0  0  0  0  0  0  0  0  0  0  0
   -2.8553    0.0003   -0.1424 C   0  0  0  0  0  0  0  0  0  0  0  0
    2.8554    0.0002    0.1422 C   0  0  0  0  0  0  0  0  0  0  0  0
  1 11  1  0
  2 12  1  0
  3 13  1  0
  4 14  1  0
  5 15  1  0
  6 16  1  0
  7 15  2  0
  8 16  2  0
  9 11  2  0
  9 13  1  0
  9 15  1  0
 10 12  2  0
 10 14  1  0
 10 16  1  0
 11 12  1  0
 13 14  2  0
M  END
>  <PUBCHEM_COMPOUND_CID>  (1) 
12868

>  <PUBCHEM_CONFORMER_RMSD>  (1) 
0.6

>  <PUBCHEM_CONFORMER_DIVERSEORDER>  (1) 
2
1

>  <PUBCHEM_MMFF94_PARTIAL_CHARGES>  (1) 
16
1 -0.18
10 0.09
11 0.18
12 0.18
13 0.18
14 0.18
15 0.69
16 0.69
2 -0.18
3 -0.18
4 -0.18
5 -0.21
6 -0.21
7 -0.57
8 -0.57
9 0.09

>  <PUBCHEM_EFFECTIVE_ROTOR_COUNT>  (1) 
2

>  <PUBCHEM_PHARMACOPHORE_FEATURES>  (1) 
1
6 9 10 11 12 13 14 rings

>  <PUBCHEM_HEAVY_ATOM_COUNT>  (1) 
16

>  <PUBCHEM_ATOM_DEF_STEREO_COUNT>  (1) 
0

>  <PUBCHEM_ATOM_UDEF_STEREO_COUNT>  (1) 
0

>  <PUBCHEM_BOND_DEF_STEREO_COUNT>  (1) 
0

>  <PUBCHEM_BOND_UDEF_STEREO_COUNT>  (1) 
0

>  <PUBCHEM_ISOTOPIC_ATOM_COUNT>  (1) 
0

>  <PUBCHEM_COMPONENT_COUNT>  (1) 
1

>  <PUBCHEM_CACTVS_TAUTO_COUNT>  (1) 
1

>  <PUBCHEM_CONFORMER_ID>  (1) 
0000324400000002

>  <PUBCHEM_MMFF94_ENERGY>  (1) 
53.3007

>  <PUBCHEM_FEATURE_SELFOVERLAP>  (1) 
5.074

>  <PUBCHEM_SHAPE_FINGERPRINT>  (1) 
10967382 1 18410853265399886538
11132069 177 18411409644338266194
11206711 2 18410008793273061741
11471102 22 18263382359847439563
12382932 28 18411979186940126835
12553582 1 18410576184174713188
13140716 1 18266457796348215746
13172582 1 18411138060470706769
13221675 6 18410577287997288430
13380535 21 18410583885051841446
13538477 17 18186798119314004546
14178342 30 18342447188228071530
14289901 80 15719398355671274889
14790565 3 18266481886820811429
14911166 2 18410855473039437868
15209294 21 17774724156109198153
15309172 13 18411984641748922787
16752209 62 18337381643611266517
16945 1 18410853265399873542
18186145 218 18340487867059969812
193761 8 12718866874767513958
20510252 161 18272087158686679184
20588541 1 18410858758668579734
20645476 183 17604438508539316830
20739085 24 17979100213628440017
20871999 31 18194981853163557598
21501502 16 18122342372091375726
2334 1 17977943819210981383
23402539 116 18270099258763894726
23419403 2 14947775157136958944
23493267 7 17385437696598350705
23526114 1 18122061180566792836
23559900 14 18342466984807985452
2748010 2 18122340452209345870
53812653 8 18335430036394586324
7364860 26 18128539469230139648
74978 22 18339643467873072988

>  <PUBCHEM_SHAPE_MULTIPOLES>  (1) 
328.75
5.75
2.98
1
0
0
0
0
0
0
0
0
0
0

>  <PUBCHEM_SHAPE_SELFOVERLAP>  (1) 
642.48

>  <PUBCHEM_SHAPE_VOLUME>  (1) 
199.8

>  <PUBCHEM_COORDINATE_TYPE>  (1) 
2
5
10

$$$$
