12861
     RDKit          3D

 15 16  0  0  0  0  0  0  0  0999 V2000
    4.1695    1.5184    0.1446 F   0  0  0  0  0  0  0  0  0  0  0  0
    2.2805   -2.6163   -0.3359 F   0  0  0  0  0  0  0  0  0  0  0  0
   -0.4418    1.0988    0.1357 N   0  0  0  0  0  0  0  0  0  0  0  0
    0.8970   -0.8109   -0.1049 N   0  0  0  0  0  0  0  0  0  0  0  0
    1.8886    1.3595    0.1474 N   0  0  0  0  0  0  0  0  0  0  0  0
    3.2850   -0.5762   -0.0983 N   0  0  0  0  0  0  0  0  0  0  0  0
   -1.7403    0.5508    0.0820 C   0  0  0  0  0  0  0  0  0  0  0  0
   -2.7960    1.3077   -0.4263 C   0  0  0  0  0  0  0  0  0  0  0  0
   -1.9687   -0.7480    0.5362 C   0  0  0  0  0  0  0  0  0  0  0  0
    0.8408    0.5224    0.0561 C   0  0  0  0  0  0  0  0  0  0  0  0
   -4.0801    0.7657   -0.4803 C   0  0  0  0  0  0  0  0  0  0  0  0
   -3.2528   -1.2901    0.4821 C   0  0  0  0  0  0  0  0  0  0  0  0
   -4.3085   -0.5332   -0.0262 C   0  0  0  0  0  0  0  0  0  0  0  0
    3.0771    0.7406    0.0620 C   0  0  0  0  0  0  0  0  0  0  0  0
    2.1498   -1.2893   -0.1740 C   0  0  0  0  0  0  0  0  0  0  0  0
  1 14  1  0
  2 15  1  0
  3  7  1  0
  3 10  1  0
  4 10  2  0
  4 15  1  0
  5 10  1  0
  5 14  2  0
  6 14  1  0
  6 15  2  0
  7  8  2  0
  7  9  1  0
  8 11  1  0
  9 12  2  0
 11 13  2  0
 12 13  1  0
M  END
>  <PUBCHEM_COMPOUND_CID>  (1) 
12861

>  <PUBCHEM_CONFORMER_RMSD>  (1) 
0.6

>  <PUBCHEM_CONFORMER_DIVERSEORDER>  (1) 
1
3
2

>  <PUBCHEM_MMFF94_PARTIAL_CHARGES>  (1) 
21
1 -0.19
10 0.72
11 -0.15
12 -0.15
13 -0.15
14 0.81
15 0.81
16 0.4
17 0.15
18 0.15
19 0.15
2 -0.19
20 0.15
21 0.15
3 -0.6
4 -0.62
5 -0.62
6 -0.62
7 0.1
8 -0.15
9 -0.15

>  <PUBCHEM_EFFECTIVE_ROTOR_COUNT>  (1) 
2

>  <PUBCHEM_PHARMACOPHORE_FEATURES>  (1) 
4
1 3 donor
4 3 4 5 10 cation
6 4 5 6 10 14 15 rings
6 7 8 9 11 12 13 rings

>  <PUBCHEM_HEAVY_ATOM_COUNT>  (1) 
15

>  <PUBCHEM_ATOM_DEF_STEREO_COUNT>  (1) 
0

>  <PUBCHEM_ATOM_UDEF_STEREO_COUNT>  (1) 
0

>  <PUBCHEM_BOND_DEF_STEREO_COUNT>  (1) 
0

>  <PUBCHEM_BOND_UDEF_STEREO_COUNT>  (1) 
0

>  <PUBCHEM_ISOTOPIC_ATOM_COUNT>  (1) 
0

>  <PUBCHEM_COMPONENT_COUNT>  (1) 
1

>  <PUBCHEM_CACTVS_TAUTO_COUNT>  (1) 
3

>  <PUBCHEM_CONFORMER_ID>  (1) 
0000323D00000001

>  <PUBCHEM_MMFF94_ENERGY>  (1) 
43.1725

>  <PUBCHEM_FEATURE_SELFOVERLAP>  (1) 
20.297

>  <PUBCHEM_SHAPE_FINGERPRINT>  (1) 
10608611 8 18408318869871342549
10922523 26 18260548901055098223
11471102 20 18413105069730202140
11615757 297 17632581577803428401
12932764 1 17386566847663372641
13296908 3 18410576163000661003
13380535 76 18335420209483162810
14144814 61 18411984637353650721
14325111 11 18409448076871127153
14415576 193 18334017224182929588
15196674 1 18409729560237175923
15219456 202 18409449180725026085
15375358 24 18334292089104413475
15442244 35 18124598569914772360
15536298 74 18413108338010462258
17834074 16 18410013238806493991
18186145 218 17895474718026517455
19107657 46 18411139168757164663
200 152 17988638619134113917
20201158 50 18409731755192415067
20279233 1 18334860523731045763
20645477 56 18114461180788164133
20645477 70 18272368629304911159
221490 88 18409739438942057786
22169311 21 18408599245383482429
22485316 2 18342173380136612295
23402539 116 17677039235234869301
23402655 69 18341890775483568517
23557571 272 17676482826638147965
23559900 14 18337666417433804530
3312278 4 18413110576015510297
33824 294 18410573998216155938
5104073 3 18409166593351929657
58051976 378 18410855494514514564
581208 293 18413385453785154634
69090 78 18410851067062602167
7364860 26 18341895147855214654
77779 3 18410576167406417597
81539 233 18408323315483948606
93112 12 18408604725809283413
9709674 26 18407764746160208011

>  <PUBCHEM_SHAPE_MULTIPOLES>  (1) 
274.22
8.12
1.82
0.66
0.86
0.65
0.01
-0.43
-0.35
-0.94
-0.11
0.21
0.03
0.68

>  <PUBCHEM_SHAPE_SELFOVERLAP>  (1) 
590.145

>  <PUBCHEM_SHAPE_VOLUME>  (1) 
148.9

>  <PUBCHEM_COORDINATE_TYPE>  (1) 
2
5
10

$$$$
