12867
     RDKit          3D

 16 16  0  0  0  0  0  0  0  0999 V2000
   -0.0001    1.8323   -0.0033 O   0  0  0  0  0  0  0  0  0  0  0  0
    0.0000   -3.4925   -0.0017 O   0  0  0  0  0  0  0  0  0  0  0  0
   -2.5493    0.6264   -0.0005 C   0  0  0  0  0  0  0  0  0  0  0  0
    2.5493    0.6265    0.0013 C   0  0  0  0  0  0  0  0  0  0  0  0
   -1.2764   -0.1634   -0.0001 C   0  0  0  0  0  0  0  0  0  0  0  0
    1.2765   -0.1635    0.0008 C   0  0  0  0  0  0  0  0  0  0  0  0
   -0.0001    0.6042   -0.0010 C   0  0  0  0  0  0  0  0  0  0  0  0
   -2.5999    1.5098   -1.2569 C   0  0  0  0  0  0  0  0  0  0  0  0
   -2.6115    1.5167    1.2520 C   0  0  0  0  0  0  0  0  0  0  0  0
   -3.7555   -0.3274    0.0016 C   0  0  0  0  0  0  0  0  0  0  0  0
    2.5983    1.5121    1.2564 C   0  0  0  0  0  0  0  0  0  0  0  0
    2.6129    1.5146   -1.2525 C   0  0  0  0  0  0  0  0  0  0  0  0
    3.7555   -0.3274    0.0025 C   0  0  0  0  0  0  0  0  0  0  0  0
   -1.2604   -1.5011    0.0004 C   0  0  0  0  0  0  0  0  0  0  0  0
    1.2605   -1.5011    0.0011 C   0  0  0  0  0  0  0  0  0  0  0  0
    0.0000   -2.2663    0.0000 C   0  0  0  0  0  0  0  0  0  0  0  0
  1  7  2  0
  2 16  2  0
  3  5  1  0
  3  8  1  0
  3  9  1  0
  3 10  1  0
  4  6  1  0
  4 11  1  0
  4 12  1  0
  4 13  1  0
  5  7  1  0
  5 14  2  0
  6  7  1  0
  6 15  2  0
 14 16  1  0
 15 16  1  0
M  END
>  <PUBCHEM_COMPOUND_CID>  (1) 
12867

>  <PUBCHEM_CONFORMER_RMSD>  (1) 
0.6

>  <PUBCHEM_CONFORMER_DIVERSEORDER>  (1) 
1

>  <PUBCHEM_MMFF94_PARTIAL_CHARGES>  (1) 
12
1 -0.57
14 -0.14
15 -0.14
16 0.54
2 -0.57
3 0.14
35 0.15
36 0.15
4 0.14
5 -0.12
6 -0.12
7 0.54

>  <PUBCHEM_EFFECTIVE_ROTOR_COUNT>  (1) 
2

>  <PUBCHEM_PHARMACOPHORE_FEATURES>  (1) 
5
1 1 acceptor
1 2 acceptor
4 3 8 9 10 hydrophobe
4 4 11 12 13 hydrophobe
6 5 6 7 14 15 16 rings

>  <PUBCHEM_HEAVY_ATOM_COUNT>  (1) 
16

>  <PUBCHEM_ATOM_DEF_STEREO_COUNT>  (1) 
0

>  <PUBCHEM_ATOM_UDEF_STEREO_COUNT>  (1) 
0

>  <PUBCHEM_BOND_DEF_STEREO_COUNT>  (1) 
0

>  <PUBCHEM_BOND_UDEF_STEREO_COUNT>  (1) 
0

>  <PUBCHEM_ISOTOPIC_ATOM_COUNT>  (1) 
0

>  <PUBCHEM_COMPONENT_COUNT>  (1) 
1

>  <PUBCHEM_CACTVS_TAUTO_COUNT>  (1) 
1

>  <PUBCHEM_CONFORMER_ID>  (1) 
0000324300000001

>  <PUBCHEM_MMFF94_ENERGY>  (1) 
51.6861

>  <PUBCHEM_FEATURE_SELFOVERLAP>  (1) 
25.371

>  <PUBCHEM_SHAPE_FINGERPRINT>  (1) 
1 1 18338794507468331414
10967382 1 18410575058993794246
11132069 177 18337387244517379531
12491281 212 18341343231224273816
12500047 106 18339353180246080048
12553582 1 17184474755184861786
13140716 1 18410855417178872571
13172582 1 18334574676298480984
13380535 76 18410575084668853867
13538477 17 18043528532867825118
14614273 12 18333726893262813741
15219456 202 18044093458622383645
15279308 132 18341891909412677626
15309172 13 18409176514784424369
15775835 57 18410578387493059456
15852999 172 18114169805631767427
16945 1 18410855455833408872
18186145 218 18342741793009164596
18219364 16 18336553715871980241
19591789 44 18410579487005278374
200 152 18201708558049232885
20510252 161 18127129894874386195
20511035 2 18199465635869664398
20645476 183 18042416879325442062
21028194 46 18408602560813443785
21041028 32 17334508107124070714
21524375 3 18410575088958559403
2334 1 18410574019511514342
23402539 116 18200865261983232845
23419403 2 16108041364973144073
23463225 33 18334293141429468658
23493267 7 17531249396408006096
23557571 272 17767691916340964564
25 1 18339926991538627798
257057 1 17116903168318974798
2748010 2 18410017632283991119
3071541 236 18192135212705147690
352729 6 18338802332856864806
43471831 8 18337389340250891219
458136 41 18266202568085618099
528886 8 18410852153056111074
53812653 166 18342455958529573576
63268167 104 18268989782949161401
633830 44 18060422395584476045
69090 78 18341324595382353063
7364860 26 18054226531513328279
74978 22 18267026231407754100
81228 2 17905885129988489947

>  <PUBCHEM_SHAPE_MULTIPOLES>  (1) 
317.53
5.45
2.64
1.01
0
2.1
0
-2.11
0
0
0
0
-0.61
0

>  <PUBCHEM_SHAPE_SELFOVERLAP>  (1) 
659.187

>  <PUBCHEM_SHAPE_VOLUME>  (1) 
183

>  <PUBCHEM_COORDINATE_TYPE>  (1) 
2
5
10

$$$$
