12869
     RDKit          3D

 16 16  0  0  0  0  0  0  0  0999 V2000
    2.9154   -2.4418    0.2507 Cl  0  0  0  0  0  0  0  0  0  0  0  0
   -0.0598    2.5253    0.7642 O   0  0  0  0  0  0  0  0  0  0  0  0
   -2.4288    1.3941   -0.4206 O   0  0  0  0  0  0  0  0  0  0  0  0
   -3.3250   -0.5833   -0.0956 O   0  0  0  0  0  0  0  0  0  0  0  0
    0.3446   -2.3728    0.2245 N   0  0  0  0  0  0  0  0  0  0  0  0
   -2.3243    0.1622   -0.2141 N   0  0  0  0  0  0  0  0  0  0  0  0
    3.5212    1.2191   -0.3576 N   0  0  0  0  0  0  0  0  0  0  0  0
    0.1158    0.3748   -0.2360 C   0  0  0  0  0  0  0  0  0  0  0  0
   -1.0256   -0.4095   -0.1114 C   0  0  0  0  0  0  0  0  0  0  0  0
   -0.0124    1.8477   -0.4826 C   0  0  0  0  0  0  0  0  0  0  0  0
   -0.8587   -1.7660    0.1163 C   0  0  0  0  0  0  0  0  0  0  0  0
    1.3715   -0.2131   -0.1308 C   0  0  0  0  0  0  0  0  0  0  0  0
    1.4312   -1.5785    0.0978 C   0  0  0  0  0  0  0  0  0  0  0  0
   -2.0425   -2.6673    0.2600 C   0  0  0  0  0  0  0  0  0  0  0  0
    2.5591    0.5779   -0.2562 C   0  0  0  0  0  0  0  0  0  0  0  0
   -0.1817    3.9313    0.5912 C   0  0  0  0  0  0  0  0  0  0  0  0
  1 13  1  0
  2 10  1  0
  2 16  1  0
  3  6  1  0
  4  6  2  0
  5 11  2  0
  5 13  1  0
  6  9  1  0
  7 15  3  0
  8  9  2  0
  8 10  1  0
  8 12  1  0
  9 11  1  0
 11 14  1  0
 12 13  2  0
 12 15  1  0
M  CHG  2   3  -1   6   1
M  END
>  <PUBCHEM_COMPOUND_CID>  (1) 
12869

>  <PUBCHEM_CONFORMER_RMSD>  (1) 
0.6

>  <PUBCHEM_CONFORMER_DIVERSEORDER>  (1) 
2
1

>  <PUBCHEM_MMFF94_PARTIAL_CHARGES>  (1) 
16
1 -0.18
10 0.42
11 0.17
12 0.07
13 0.49
14 0.14
15 0.48
16 0.28
2 -0.56
3 -0.52
4 -0.52
5 -0.62
6 0.91
7 -0.56
8 -0.14
9 0.13

>  <PUBCHEM_EFFECTIVE_ROTOR_COUNT>  (1) 
3

>  <PUBCHEM_PHARMACOPHORE_FEATURES>  (1) 
7
1 2 acceptor
1 3 acceptor
1 3 anion
1 4 acceptor
1 5 acceptor
1 7 acceptor
6 5 8 9 11 12 13 rings

>  <PUBCHEM_HEAVY_ATOM_COUNT>  (1) 
16

>  <PUBCHEM_ATOM_DEF_STEREO_COUNT>  (1) 
0

>  <PUBCHEM_ATOM_UDEF_STEREO_COUNT>  (1) 
0

>  <PUBCHEM_BOND_DEF_STEREO_COUNT>  (1) 
0

>  <PUBCHEM_BOND_UDEF_STEREO_COUNT>  (1) 
0

>  <PUBCHEM_ISOTOPIC_ATOM_COUNT>  (1) 
0

>  <PUBCHEM_COMPONENT_COUNT>  (1) 
1

>  <PUBCHEM_CACTVS_TAUTO_COUNT>  (1) 
1

>  <PUBCHEM_CONFORMER_ID>  (1) 
0000324500000002

>  <PUBCHEM_MMFF94_ENERGY>  (1) 
64.8166

>  <PUBCHEM_FEATURE_SELFOVERLAP>  (1) 
35.608

>  <PUBCHEM_SHAPE_FINGERPRINT>  (1) 
108231 29 18195536019687188528
10967382 1 18410011065268101686
12382932 28 18410008870793177090
12423570 1 15877832780102170071
13140716 1 18408605833716329890
14617773 55 17986389988426310881
14790565 3 16251675960000918326
16945 1 18194676197030411431
193761 8 18122345675185022404
20510252 161 18054217744289543042
20588541 1 18335984271743254551
21501502 16 18121506756645596076
2334 1 18337109063638738134
23419403 2 15591228207922415575
23559900 14 18269282430059520948
2748010 2 18410014351082159206
350125 39 18049729512160951052
5255222 1 18263074577937584181
53812653 166 18268147737219921322
7364860 26 17477774940528036972

>  <PUBCHEM_SHAPE_MULTIPOLES>  (1) 
298.59
4.15
4.02
0.7
1.63
0.8
0.03
0.59
0.1
-1.58
0.56
-0.06
0.17
-0.66

>  <PUBCHEM_SHAPE_SELFOVERLAP>  (1) 
619.317

>  <PUBCHEM_SHAPE_VOLUME>  (1) 
172.3

>  <PUBCHEM_COORDINATE_TYPE>  (1) 
2
5
10

$$$$
