12863
     RDKit          3D

 16 17  0  0  0  0  0  0  0  0999 V2000
   -0.8352   -2.5689    0.1636 O   0  0  0  0  0  0  0  0  0  0  0  0
    3.3824   -0.8686   -0.0653 O   0  0  0  0  0  0  0  0  0  0  0  0
    0.7949    2.5361   -0.0009 O   0  0  0  0  0  0  0  0  0  0  0  0
    1.2697    0.2435    0.0036 N   0  0  0  0  0  0  0  0  0  0  0  0
    1.3877   -2.0080    0.0102 N   0  0  0  0  0  0  0  0  0  0  0  0
   -0.1567   -0.2060    0.0448 C   0  0  0  0  0  0  0  0  0  0  0  0
   -0.8637    0.2014   -1.2694 C   0  0  0  0  0  0  0  0  0  0  0  0
   -0.8122    0.2219    1.3747 C   0  0  0  0  0  0  0  0  0  0  0  0
   -2.3035   -0.2729   -1.4610 C   0  0  0  0  0  0  0  0  0  0  0  0
   -2.3322    0.0882    1.4812 C   0  0  0  0  0  0  0  0  0  0  0  0
   -3.3638    0.6066   -0.8085 C   0  0  0  0  0  0  0  0  0  0  0  0
   -3.0691    1.0937    0.6043 C   0  0  0  0  0  0  0  0  0  0  0  0
    0.0525   -1.7307    0.0774 C   0  0  0  0  0  0  0  0  0  0  0  0
    2.1587   -0.8720   -0.0244 C   0  0  0  0  0  0  0  0  0  0  0  0
    1.6091    1.6110   -0.0276 C   0  0  0  0  0  0  0  0  0  0  0  0
    3.0815    1.9247   -0.1027 C   0  0  0  0  0  0  0  0  0  0  0  0
  1 13  2  0
  2 14  2  0
  3 15  2  0
  4  6  1  0
  4 14  1  0
  4 15  1  0
  5 13  1  0
  5 14  1  0
  6  7  1  0
  6  8  1  0
  6 13  1  0
  7  9  1  0
  8 10  1  0
  9 11  1  0
 10 12  1  0
 11 12  1  0
 15 16  1  0
M  END
>  <PUBCHEM_COMPOUND_CID>  (1) 
12863

>  <PUBCHEM_CONFORMER_RMSD>  (1) 
0.6

>  <PUBCHEM_CONFORMER_DIVERSEORDER>  (1) 
1
2

>  <PUBCHEM_MMFF94_PARTIAL_CHARGES>  (1) 
11
1 -0.57
13 0.57
14 0.69
15 0.57
16 0.06
2 -0.57
29 0.37
3 -0.57
4 -0.42
5 -0.49
6 0.36

>  <PUBCHEM_EFFECTIVE_ROTOR_COUNT>  (1) 
2.6

>  <PUBCHEM_PHARMACOPHORE_FEATURES>  (1) 
6
1 1 acceptor
1 2 acceptor
1 3 acceptor
1 5 donor
5 4 5 6 13 14 rings
7 6 7 8 9 10 11 12 rings

>  <PUBCHEM_HEAVY_ATOM_COUNT>  (1) 
16

>  <PUBCHEM_ATOM_DEF_STEREO_COUNT>  (1) 
0

>  <PUBCHEM_ATOM_UDEF_STEREO_COUNT>  (1) 
0

>  <PUBCHEM_BOND_DEF_STEREO_COUNT>  (1) 
0

>  <PUBCHEM_BOND_UDEF_STEREO_COUNT>  (1) 
0

>  <PUBCHEM_ISOTOPIC_ATOM_COUNT>  (1) 
0

>  <PUBCHEM_COMPONENT_COUNT>  (1) 
1

>  <PUBCHEM_CACTVS_TAUTO_COUNT>  (1) 
3

>  <PUBCHEM_CONFORMER_ID>  (1) 
0000323F00000001

>  <PUBCHEM_MMFF94_ENERGY>  (1) 
40.5154

>  <PUBCHEM_FEATURE_SELFOVERLAP>  (1) 
30.447

>  <PUBCHEM_SHAPE_FINGERPRINT>  (1) 
13140716 1 18409445925509334634
13380535 21 18263089979748323380
13898156 1 17346314865105074237
14614273 12 17831858327773019932
14817 1 15600094373758070299
14993402 34 18342177709136794038
15219456 202 18040438806098491761
15775835 57 18059861679261955497
16945 1 18338238163158702474
18186145 218 18341611499187027197
18219364 16 18334012821577446952
20510252 161 17404300088987047640
21501502 16 18264201594472899470
21639500 275 18410567396787891101
22112679 90 17346598560548482001
2334 1 18194122043523316746
23388829 49 18200030608230540120
23402539 116 18126557930338875062
23598291 2 18059577932426711501
25 1 18408603647508832556
2748010 2 18266751353563996686
3286 77 18259990353411662475
5084963 1 18131058316960994581
528886 8 18338791208996602155
568465 68 17970086477391341483
63268167 104 18343298175862709673
77492 1 17775001254614336793
81228 2 17256531240835553066

>  <PUBCHEM_SHAPE_MULTIPOLES>  (1) 
301.7
4.77
2.28
1.19
0.04
0.23
-0.03
-1.55
0.33
1.34
-0.06
-1.08
-0.07
-0.15

>  <PUBCHEM_SHAPE_SELFOVERLAP>  (1) 
626.184

>  <PUBCHEM_SHAPE_VOLUME>  (1) 
169.8

>  <PUBCHEM_COORDINATE_TYPE>  (1) 
2
5
10

$$$$
