12872
     RDKit          3D

 16 16  0  0  0  0  0  0  0  0999 V2000
    2.1547    0.1676   -0.0155 O   0  0  0  0  0  0  0  0  0  0  0  0
    5.4997    1.1791    0.0176 O   0  0  0  0  0  0  0  0  0  0  0  0
    3.6235    2.3264   -0.0214 O   0  0  0  0  0  0  0  0  0  0  0  0
   -5.3094    1.7364    0.0223 O   0  0  0  0  0  0  0  0  0  0  0  0
    4.2347    1.2181    0.0004 N   0  0  0  0  0  0  0  0  0  0  0  0
   -3.0457    0.1688   -0.0004 N   0  0  0  0  0  0  0  0  0  0  0  0
   -4.2940   -0.3508   -0.0041 N   0  0  0  0  0  0  0  0  0  0  0  0
   -6.5825   -0.1749    0.0023 N   0  0  0  0  0  0  0  0  0  0  0  0
    1.6526   -1.0841   -0.0079 C   0  0  0  0  0  0  0  0  0  0  0  0
    2.6369   -2.0275    0.0166 C   0  0  0  0  0  0  0  0  0  0  0  0
    3.5061    0.0271    0.0045 C   0  0  0  0  0  0  0  0  0  0  0  0
    3.8532   -1.3038    0.0247 C   0  0  0  0  0  0  0  0  0  0  0  0
    0.2391   -1.3221   -0.0240 C   0  0  0  0  0  0  0  0  0  0  0  0
   -0.6790   -0.3461   -0.0108 C   0  0  0  0  0  0  0  0  0  0  0  0
   -2.1095   -0.7227   -0.0125 C   0  0  0  0  0  0  0  0  0  0  0  0
   -5.3803    0.5083    0.0080 C   0  0  0  0  0  0  0  0  0  0  0  0
  1  9  1  0
  1 11  1  0
  2  5  1  0
  3  5  2  0
  4 16  2  0
  5 11  1  0
  6  7  1  0
  6 15  2  0
  7 16  1  0
  8 16  1  0
  9 10  2  0
  9 13  1  0
 10 12  1  0
 11 12  2  0
 13 14  2  0
 14 15  1  0
M  CHG  2   2  -1   5   1
M  END
>  <PUBCHEM_COMPOUND_CID>  (1) 
12872

>  <PUBCHEM_CONFORMER_RMSD>  (1) 
0.6

>  <PUBCHEM_CONFORMER_DIVERSEORDER>  (1) 
1
2
5
8
3
7
6
4

>  <PUBCHEM_MMFF94_PARTIAL_CHARGES>  (1) 
24
1 -0.28
10 -0.15
11 0.22
12 -0.15
13 -0.11
14 -0.14
15 0.38
16 0.69
17 0.15
18 0.15
19 0.15
2 -0.52
20 0.15
21 0.06
22 0.37
23 0.37
24 0.37
3 -0.52
4 -0.57
5 0.96
6 -0.51
7 -0.37
8 -0.8
9 0.09

>  <PUBCHEM_EFFECTIVE_ROTOR_COUNT>  (1) 
5

>  <PUBCHEM_PHARMACOPHORE_FEATURES>  (1) 
9
1 1 acceptor
1 2 acceptor
1 2 anion
1 3 acceptor
1 4 acceptor
1 6 acceptor
1 7 donor
1 8 donor
5 1 9 10 11 12 rings

>  <PUBCHEM_HEAVY_ATOM_COUNT>  (1) 
16

>  <PUBCHEM_ATOM_DEF_STEREO_COUNT>  (1) 
0

>  <PUBCHEM_ATOM_UDEF_STEREO_COUNT>  (1) 
0

>  <PUBCHEM_BOND_DEF_STEREO_COUNT>  (1) 
0

>  <PUBCHEM_BOND_UDEF_STEREO_COUNT>  (1) 
2

>  <PUBCHEM_ISOTOPIC_ATOM_COUNT>  (1) 
0

>  <PUBCHEM_COMPONENT_COUNT>  (1) 
1

>  <PUBCHEM_CACTVS_TAUTO_COUNT>  (1) 
3

>  <PUBCHEM_CONFORMER_ID>  (1) 
0000324800000001

>  <PUBCHEM_MMFF94_ENERGY>  (1) 
24.6969

>  <PUBCHEM_FEATURE_SELFOVERLAP>  (1) 
45.82

>  <PUBCHEM_SHAPE_FINGERPRINT>  (1) 
10595046 47 18341890788790534855
10912923 1 18130505250212988587
11287383 113 18408887339211089291
12730499 353 18335993007818102154
13081056 2 18334575707343638455
13167372 99 18270121197747278921
13533116 47 17168418242854107707
13955234 65 18261389984253638050
14251732 16 18336829784154960019
14528608 73 18343020003947653167
15342168 16 18189057649847199148
16079462 125 17676476230148266197
17834072 33 18343862225839253951
17844677 252 18339932506893768857
20645477 56 18186238442004395503
20645477 70 18270683065031701710
212847 35 18201434766230964090
21652331 79 18409446973101630861
22896161 15 18410856607939893431
23272321 79 18411138056851017983
23402655 69 18272366486042351158
23532345 1 18409451388375471050
270888 7 18193838374172336916
2916195 48 18186799176039398761
300161 21 18202557393314841055
3060560 45 15913326910070474252
34797466 226 17846506949955664557
3545911 37 18408888451011350958
4047638 21 18334858316450476754
42788 4 18410856534482149351
449060 62 18413107268927550442
5104073 3 18259707783271254123
522135 26 18340769256417156246
5374978 207 18040992917093503626
59682541 52 17489044703660155844
6025842 7 18271808990945770582
77779 3 18411419488651533615
8272917 22 18271528602558752054
90127 26 18336276634973854555

>  <PUBCHEM_SHAPE_MULTIPOLES>  (1) 
285.87
14.44
1.84
0.57
18.73
0.53
0
5.97
-0.1
-2.25
0
-0.02
-0.04
-0.03

>  <PUBCHEM_SHAPE_SELFOVERLAP>  (1) 
591.082

>  <PUBCHEM_SHAPE_VOLUME>  (1) 
163.8

>  <PUBCHEM_COORDINATE_TYPE>  (1) 
2
5
10

$$$$
