12879
     RDKit          3D

 13 13  0  0  0  0  0  0  0  0999 V2000
    1.5348   -0.1225   -0.0003 O   0  0  0  0  0  0  0  0  0  0  0  0
    2.8331   -0.6539   -0.0015 N   0  0  0  0  0  0  0  0  0  0  0  0
    5.0618    0.0411    0.0005 N   0  0  0  0  0  0  0  0  0  0  0  0
    3.4486    1.6603    0.0033 N   0  0  0  0  0  0  0  0  0  0  0  0
   -0.7824   -0.6586   -0.0015 C   0  0  0  0  0  0  0  0  0  0  0  0
   -3.3724    0.3524    0.0008 C   0  0  0  0  0  0  0  0  0  0  0  0
   -1.4234   -0.4114    1.2070 C   0  0  0  0  0  0  0  0  0  0  0  0
   -1.4234   -0.4055   -1.2089 C   0  0  0  0  0  0  0  0  0  0  0  0
    0.6155   -1.2039   -0.0028 C   0  0  0  0  0  0  0  0  0  0  0  0
   -2.7229    0.0958    1.2082 C   0  0  0  0  0  0  0  0  0  0  0  0
   -2.7227    0.1018   -1.2077 C   0  0  0  0  0  0  0  0  0  0  0  0
   -4.7617    0.8940    0.0021 C   0  0  0  0  0  0  0  0  0  0  0  0
    3.7150    0.3105    0.0007 C   0  0  0  0  0  0  0  0  0  0  0  0
  1  2  1  0
  1  9  1  0
  2 13  2  3
  3 13  1  0
  4 13  1  0
  5  7  2  0
  5  8  1  0
  5  9  1  0
  6 10  2  0
  6 11  1  0
  6 12  1  0
  7 10  1  0
  8 11  2  0
M  END
>  <PUBCHEM_COMPOUND_CID>  (1) 
12879

>  <PUBCHEM_CONFORMER_RMSD>  (1) 
0.6

>  <PUBCHEM_CONFORMER_DIVERSEORDER>  (1) 
1
7
6
8
9
2
3
4
5

>  <PUBCHEM_MMFF94_PARTIAL_CHARGES>  (1) 
21
1 -0.22
10 -0.15
11 -0.15
12 0.14
13 0.55
14 0.15
15 0.15
18 0.15
19 0.15
2 -0.51
23 0.4
24 0.4
25 0.4
26 0.4
3 -0.85
4 -0.85
5 -0.14
6 -0.14
7 -0.15
8 -0.15
9 0.42

>  <PUBCHEM_EFFECTIVE_ROTOR_COUNT>  (1) 
3

>  <PUBCHEM_PHARMACOPHORE_FEATURES>  (1) 
4
1 3 donor
1 4 donor
4 2 3 4 13 cation
6 5 6 7 8 10 11 rings

>  <PUBCHEM_HEAVY_ATOM_COUNT>  (1) 
13

>  <PUBCHEM_ATOM_DEF_STEREO_COUNT>  (1) 
0

>  <PUBCHEM_ATOM_UDEF_STEREO_COUNT>  (1) 
0

>  <PUBCHEM_BOND_DEF_STEREO_COUNT>  (1) 
0

>  <PUBCHEM_BOND_UDEF_STEREO_COUNT>  (1) 
0

>  <PUBCHEM_ISOTOPIC_ATOM_COUNT>  (1) 
0

>  <PUBCHEM_COMPONENT_COUNT>  (1) 
1

>  <PUBCHEM_CACTVS_TAUTO_COUNT>  (1) 
2

>  <PUBCHEM_CONFORMER_ID>  (1) 
0000324F00000001

>  <PUBCHEM_MMFF94_ENERGY>  (1) 
32.6923

>  <PUBCHEM_FEATURE_SELFOVERLAP>  (1) 
20.352

>  <PUBCHEM_SHAPE_FINGERPRINT>  (1) 
11132069 177 16660366961374741423
114248 4 14333405653495072874
12119455 92 18186796968036065335
12251169 10 15646775591187011023
13214271 11 18260831505734944567
14252887 29 12179840577028639968
14911166 2 15697991921488959225
14993402 34 17060335206619957577
15775835 57 18131068229539811533
17846911 113 16877942720277886903
17870717 6 14404915720807555364
18186145 218 18411980269604038686
187816 3 15626221308433481475
200 152 9655576301032452151
20300324 65 15769775758063134099
20432913 95 8862944987271761452
20645464 45 17603589620995563987
20645476 183 17561074809353403615
20645477 56 17894351064350757775
20645477 70 18339079272917940222
20871999 31 16630229394975693831
21119208 17 16988842778379846932
22485316 2 9151176445623148444
22926399 37 18202001027778321801
2297311 6 15864357887600489502
23402539 116 15051735248611234377
23403322 49 12031519769502902596
4175511 318 16774076259027653365
42 15 14707206600120504986
449060 50 16588024610904894478

>  <PUBCHEM_SHAPE_MULTIPOLES>  (1) 
246.72
9.19
1.08
1.06
7.13
0
-0.18
-0.03
-3.43
-0.97
0.08
0.46
0
0.01

>  <PUBCHEM_SHAPE_SELFOVERLAP>  (1) 
502.041

>  <PUBCHEM_SHAPE_VOLUME>  (1) 
144

>  <PUBCHEM_COORDINATE_TYPE>  (1) 
2
5
10

$$$$
