12870
     RDKit          3D

 16 17  0  0  0  0  0  0  0  0999 V2000
    3.7881   -2.4056    0.6368 Cl  0  0  0  0  0  0  0  0  0  0  0  0
   -0.4597    1.2216    2.0002 O   0  0  0  0  0  0  0  0  0  0  0  0
    0.7379    2.4196   -0.9456 N   0  0  0  0  0  0  0  0  0  0  0  0
    0.9446    0.3556    0.3423 C   0  0  0  0  0  0  0  0  0  0  0  0
   -1.6226    0.0616    0.3351 C   0  0  0  0  0  0  0  0  0  0  0  0
   -0.4056    0.5747    0.9437 C   0  0  0  0  0  0  0  0  0  0  0  0
    1.4522    1.2639   -0.5583 C   0  0  0  0  0  0  0  0  0  0  0  0
    1.6336   -0.7735    0.7275 C   0  0  0  0  0  0  0  0  0  0  0  0
    2.7151    1.0325   -1.1033 C   0  0  0  0  0  0  0  0  0  0  0  0
   -1.5553   -0.6651   -0.8537 C   0  0  0  0  0  0  0  0  0  0  0  0
   -2.8572    0.2965    0.9400 C   0  0  0  0  0  0  0  0  0  0  0  0
    2.8964   -1.0051    0.1824 C   0  0  0  0  0  0  0  0  0  0  0  0
    3.4372   -0.1022   -0.7330 C   0  0  0  0  0  0  0  0  0  0  0  0
   -2.7228   -1.1569   -1.4375 C   0  0  0  0  0  0  0  0  0  0  0  0
   -4.0247   -0.1955    0.3562 C   0  0  0  0  0  0  0  0  0  0  0  0
   -3.9574   -0.9221   -0.8325 C   0  0  0  0  0  0  0  0  0  0  0  0
  1 12  1  0
  2  6  2  0
  3  7  1  0
  4  6  1  0
  4  7  2  0
  4  8  1  0
  5  6  1  0
  5 10  2  0
  5 11  1  0
  7  9  1  0
  8 12  2  0
  9 13  2  0
 10 14  1  0
 11 15  2  0
 12 13  1  0
 14 16  2  0
 15 16  1  0
M  END
>  <PUBCHEM_COMPOUND_CID>  (1) 
12870

>  <PUBCHEM_CONFORMER_RMSD>  (1) 
0.6

>  <PUBCHEM_CONFORMER_DIVERSEORDER>  (1) 
1
2

>  <PUBCHEM_MMFF94_PARTIAL_CHARGES>  (1) 
26
1 -0.18
10 -0.15
11 -0.15
12 0.18
13 -0.15
14 -0.15
15 -0.15
16 -0.15
17 0.15
18 0.15
19 0.15
2 -0.57
20 0.15
21 0.15
22 0.15
23 0.15
24 0.15
25 0.4
26 0.4
3 -0.9
4 0.09
5 0.09
6 0.4
7 0.1
8 -0.15
9 -0.15

>  <PUBCHEM_EFFECTIVE_ROTOR_COUNT>  (1) 
2

>  <PUBCHEM_PHARMACOPHORE_FEATURES>  (1) 
5
1 2 acceptor
1 3 cation
1 3 donor
6 4 7 8 9 12 13 rings
6 5 10 11 14 15 16 rings

>  <PUBCHEM_HEAVY_ATOM_COUNT>  (1) 
16

>  <PUBCHEM_ATOM_DEF_STEREO_COUNT>  (1) 
0

>  <PUBCHEM_ATOM_UDEF_STEREO_COUNT>  (1) 
0

>  <PUBCHEM_BOND_DEF_STEREO_COUNT>  (1) 
0

>  <PUBCHEM_BOND_UDEF_STEREO_COUNT>  (1) 
0

>  <PUBCHEM_ISOTOPIC_ATOM_COUNT>  (1) 
0

>  <PUBCHEM_COMPONENT_COUNT>  (1) 
1

>  <PUBCHEM_CACTVS_TAUTO_COUNT>  (1) 
3

>  <PUBCHEM_CONFORMER_ID>  (1) 
0000324600000001

>  <PUBCHEM_MMFF94_ENERGY>  (1) 
61.9777

>  <PUBCHEM_FEATURE_SELFOVERLAP>  (1) 
25.371

>  <PUBCHEM_SHAPE_FINGERPRINT>  (1) 
10062212 137 18201999911271668351
10610426 29 18271793589123773640
11578080 2 18198597996220058272
11769659 78 18343578517036379194
12236239 1 18343590637339013002
12346177 29 16486967402295677821
13083527 12 14832984253748995325
13134695 92 18186236238665100092
14115302 16 18202284749107187815
14576447 43 18410012182276447758
15375462 189 18201723980612193539
16752209 62 17703232811023700625
16945 1 18261111936528290968
1813 80 18266748991390272966
18186145 218 16370727002225048433
19422 9 18411985775694167795
200 152 18187647964519172930
20361792 2 18335697213409266318
20600515 1 16916784037696545257
20645476 183 18269279126380136535
20645477 70 17894915117958098994
20671657 53 18334011666378840166
22112679 90 18198357177513962960
2255824 54 18338519771606427668
22646028 28 18272366473083739103
22802520 49 16515957069406055206
23114952 82 16660944235044088998
232386 152 17632572786026413879
23402539 116 17969781883064703106
23419403 2 17769897330318371560
23526113 38 16950292818621167128
23559900 14 16773528672425321092
23598291 2 18339089189442810985
25 1 17531250586150603832
298252 57 12324252632969688832
3323516 105 17458631133202481731
465052 167 17986402294399482311
474 4 18050848020345038592
4990 188 16950279620154900731
5281201 14 17167864153602639055
5902787 121 17346311652385205955
633830 44 16732698346603048095
7364860 26 16413500366999334697
77492 1 18343312460833960217

>  <PUBCHEM_SHAPE_MULTIPOLES>  (1) 
320.29
7.17
1.84
1.39
1.9
0.04
-0.15
-3.62
0.99
-1.78
0.18
0.47
0.19
-1.36

>  <PUBCHEM_SHAPE_SELFOVERLAP>  (1) 
688.475

>  <PUBCHEM_SHAPE_VOLUME>  (1) 
177.8

>  <PUBCHEM_COORDINATE_TYPE>  (1) 
2
5
10

$$$$
