12871
     RDKit          3D

 16 16  0  0  0  0  0  0  0  0999 V2000
   -3.4498    1.2705    0.0054 F   0  0  0  0  0  0  0  0  0  0  0  0
   -3.4632   -0.6044   -1.0846 F   0  0  0  0  0  0  0  0  0  0  0  0
   -3.4388   -0.6142    1.0898 F   0  0  0  0  0  0  0  0  0  0  0  0
    1.2460    2.3321    0.0068 N   0  0  0  0  0  0  0  0  0  0  0  0
    1.2138   -2.3576   -0.0077 N   0  0  0  0  0  0  0  0  0  0  0  0
    1.2616   -0.0131   -0.0021 N   0  0  0  0  0  0  0  0  0  0  0  0
   -0.8247   -1.1987   -0.0057 N   0  0  0  0  0  0  0  0  0  0  0  0
   -0.8082    1.2009    0.0016 N   0  0  0  0  0  0  0  0  0  0  0  0
    2.6859    2.4169    0.0072 C   0  0  0  0  0  0  0  0  0  0  0  0
    2.6409   -2.4386   -0.0079 C   0  0  0  0  0  0  0  0  0  0  0  0
    0.5447    1.1360    0.0013 C   0  0  0  0  0  0  0  0  0  0  0  0
    0.5164   -1.1301   -0.0057 C   0  0  0  0  0  0  0  0  0  0  0  0
   -1.4194    0.0053   -0.0020 C   0  0  0  0  0  0  0  0  0  0  0  0
    3.1234    3.8690   -0.0085 C   0  0  0  0  0  0  0  0  0  0  0  0
    3.0818   -3.8895    0.0122 C   0  0  0  0  0  0  0  0  0  0  0  0
   -2.9102    0.0154    0.0000 C   0  0  0  0  0  0  0  0  0  0  0  0
  1 16  1  0
  2 16  1  0
  3 16  1  0
  4  9  1  0
  4 11  1  0
  5 10  1  0
  5 12  1  0
  6 11  2  0
  6 12  1  0
  7 12  2  0
  7 13  1  0
  8 11  1  0
  8 13  2  0
  9 14  1  0
 10 15  1  0
 13 16  1  0
M  END
>  <PUBCHEM_COMPOUND_CID>  (1) 
12871

>  <PUBCHEM_CONFORMER_RMSD>  (1) 
0.6

>  <PUBCHEM_CONFORMER_DIVERSEORDER>  (1) 
1
19
17
6
7
18
14
15
2
5
16
8
12
13
9
11
3
4
10

>  <PUBCHEM_MMFF94_PARTIAL_CHARGES>  (1) 
16
1 -0.34
10 0.37
11 0.72
12 0.72
13 0.48
16 1.16
2 -0.34
21 0.4
22 0.4
3 -0.34
4 -0.87
5 -0.87
6 -0.62
7 -0.62
8 -0.62
9 0.37

>  <PUBCHEM_EFFECTIVE_ROTOR_COUNT>  (1) 
5

>  <PUBCHEM_PHARMACOPHORE_FEATURES>  (1) 
5
1 4 donor
1 5 donor
4 4 6 8 11 cation
4 5 6 7 12 cation
6 6 7 8 11 12 13 rings

>  <PUBCHEM_HEAVY_ATOM_COUNT>  (1) 
16

>  <PUBCHEM_ATOM_DEF_STEREO_COUNT>  (1) 
0

>  <PUBCHEM_ATOM_UDEF_STEREO_COUNT>  (1) 
0

>  <PUBCHEM_BOND_DEF_STEREO_COUNT>  (1) 
0

>  <PUBCHEM_BOND_UDEF_STEREO_COUNT>  (1) 
0

>  <PUBCHEM_ISOTOPIC_ATOM_COUNT>  (1) 
0

>  <PUBCHEM_COMPONENT_COUNT>  (1) 
1

>  <PUBCHEM_CACTVS_TAUTO_COUNT>  (1) 
5

>  <PUBCHEM_CONFORMER_ID>  (1) 
0000324700000001

>  <PUBCHEM_MMFF94_ENERGY>  (1) 
28.5483

>  <PUBCHEM_FEATURE_SELFOVERLAP>  (1) 
25.414

>  <PUBCHEM_SHAPE_FINGERPRINT>  (1) 
1 1 18338518659077944724
108231 29 18189628132888973050
11357001 24 17400362243905689250
11833330 49 17688025315280993282
12532896 13 17980768460694160668
12788726 201 17325208429329357850
13380535 76 18191579972170231457
136203 1 17257933698234753490
15042514 8 16967736850027313162
16945 1 18410575101969620103
19591789 44 18122352547280733306
204376 136 18049443939526977201
20510252 161 16684845092343670168
20645476 183 17610069232265888124
20645477 70 18335689564616123559
20671657 1 18411986870615357830
21339142 36 17832415406664598414
21426921 1 17329993495934561958
21499 59 18193830681268250845
21524375 3 17985268731394939460
21650355 55 17832420895796534218
21665056 4 17834112322905902156
23366157 5 18259984872811697268
23402539 116 17478313250375134453
23419403 2 17970044683259523012
23557571 272 17692255132276771974
2748010 2 18051394185570729822
305870 269 18338516464144155293
3071541 12 18411140220876446020
3071541 250 18266188235964445662
3091708 16 9183682412035126410
43471831 8 18194400219590532818
458136 41 18266473168057572233
474229 33 17832143101633013987
532947 4 18341055194428857388
68521 5 17690282608268562574
7364860 26 18411419505509279144
81228 2 17477776675604842178
90316 7 17762333613663050434

>  <PUBCHEM_SHAPE_MULTIPOLES>  (1) 
282.55
5.76
4.68
0.68
3.79
0.13
0
-0.21
0
-8.55
0
0.33
0.07
-0.01

>  <PUBCHEM_SHAPE_SELFOVERLAP>  (1) 
569.934

>  <PUBCHEM_SHAPE_VOLUME>  (1) 
165.3

>  <PUBCHEM_COORDINATE_TYPE>  (1) 
2
5
10

$$$$
