12885
     RDKit          3D

 17 19  0  0  0  0  0  0  0  0999 V2000
    2.6024   -3.0074   -0.0009 Br  0  0  0  0  0  0  0  0  0  0  0  0
    3.8929    2.6141   -0.0010 Br  0  0  0  0  0  0  0  0  0  0  0  0
   -5.7054   -0.2678    0.0013 Br  0  0  0  0  0  0  0  0  0  0  0  0
    4.4144   -0.4652    0.0008 N   0  0  0  0  0  0  0  0  0  0  0  0
   -0.4533   -1.7558   -0.0001 C   0  0  0  0  0  0  0  0  0  0  0  0
    0.7486   -0.8344    0.0000 C   0  0  0  0  0  0  0  0  0  0  0  0
    0.3359    0.5170   -0.0001 C   0  0  0  0  0  0  0  0  0  0  0  0
   -1.6003   -0.7668   -0.0004 C   0  0  0  0  0  0  0  0  0  0  0  0
   -1.1106    0.5586   -0.0003 C   0  0  0  0  0  0  0  0  0  0  0  0
    2.0883   -1.1813    0.0005 C   0  0  0  0  0  0  0  0  0  0  0  0
    1.2713    1.5382    0.0003 C   0  0  0  0  0  0  0  0  0  0  0  0
   -2.9577   -1.0362   -0.0005 C   0  0  0  0  0  0  0  0  0  0  0  0
   -1.9858    1.6319   -0.0002 C   0  0  0  0  0  0  0  0  0  0  0  0
    3.0309   -0.1517    0.0007 C   0  0  0  0  0  0  0  0  0  0  0  0
    2.6267    1.1945    0.0005 C   0  0  0  0  0  0  0  0  0  0  0  0
   -3.8396    0.0459   -0.0005 C   0  0  0  0  0  0  0  0  0  0  0  0
   -3.3586    1.3666   -0.0002 C   0  0  0  0  0  0  0  0  0  0  0  0
  1 10  1  0
  2 15  1  0
  3 16  1  0
  4 14  1  0
  5  6  1  0
  5  8  1  0
  6  7  2  0
  6 10  1  0
  7  9  1  0
  7 11  1  0
  8  9  2  0
  8 12  1  0
  9 13  1  0
 10 14  2  0
 11 15  2  0
 12 16  2  0
 13 17  2  0
 14 15  1  0
 16 17  1  0
M  END
>  <PUBCHEM_COMPOUND_CID>  (1) 
12885

>  <PUBCHEM_CONFORMER_RMSD>  (1) 
0.4

>  <PUBCHEM_CONFORMER_DIVERSEORDER>  (1) 
1

>  <PUBCHEM_MMFF94_PARTIAL_CHARGES>  (1) 
21
1 -0.11
10 0.11
11 -0.15
12 -0.15
13 -0.15
14 0.1
15 0.11
16 0.11
17 -0.15
2 -0.11
20 0.15
21 0.15
22 0.15
23 0.15
24 0.4
25 0.4
3 -0.11
4 -0.9
5 0.29
6 -0.14
8 -0.14

>  <PUBCHEM_EFFECTIVE_ROTOR_COUNT>  (1) 
0.2

>  <PUBCHEM_PHARMACOPHORE_FEATURES>  (1) 
8
1 1 hydrophobe
1 2 hydrophobe
1 3 hydrophobe
1 4 cation
1 4 donor
5 5 6 7 8 9 rings
6 6 7 10 11 14 15 rings
6 8 9 12 13 16 17 rings

>  <PUBCHEM_HEAVY_ATOM_COUNT>  (1) 
17

>  <PUBCHEM_ATOM_DEF_STEREO_COUNT>  (1) 
0

>  <PUBCHEM_ATOM_UDEF_STEREO_COUNT>  (1) 
0

>  <PUBCHEM_BOND_DEF_STEREO_COUNT>  (1) 
0

>  <PUBCHEM_BOND_UDEF_STEREO_COUNT>  (1) 
0

>  <PUBCHEM_ISOTOPIC_ATOM_COUNT>  (1) 
0

>  <PUBCHEM_COMPONENT_COUNT>  (1) 
1

>  <PUBCHEM_CACTVS_TAUTO_COUNT>  (1) 
1

>  <PUBCHEM_CONFORMER_ID>  (1) 
0000325500000001

>  <PUBCHEM_MMFF94_ENERGY>  (1) 
63.5846

>  <PUBCHEM_FEATURE_SELFOVERLAP>  (1) 
40.761

>  <PUBCHEM_SHAPE_FINGERPRINT>  (1) 
10411042 1 18050286960319762658
10608611 8 18409164398423472749
10616163 171 18341050804266185135
10967382 1 18410575093258307750
10980938 120 18410855460439411234
11471102 20 18411135861384257972
12107183 9 17765723416843959969
12236239 1 17918276463626095045
12403259 226 18190737522935774197
12403259 415 18187641393166826669
13140716 1 18265890444544095282
13380535 76 18409166644754516210
138480 1 18194401079074894662
14790565 3 18049732016058754629
14866123 147 16685137562162774130
15196674 1 18338516446958673539
15442244 35 18195810656796187802
15536298 74 18341895207826423308
16945 1 18410574019659109926
17492 89 18339923702079807239
17802600 8 18410289203250622997
18186145 218 18270686363523867133
200 152 18130783452287092613
20559304 39 18410854326626177818
20645477 70 18342459231226347814
21267235 1 18411427189058319007
21501502 16 18341051822304594825
221490 88 18408893914252313355
22854114 111 18410294726525811628
2334 1 18410573950823374286
23366157 5 18113902633059741130
23402539 116 18343294882334573751
23402655 69 18342733010333748997
23463225 33 18338516331073833766
23557571 272 13686299050277803043
23559900 14 18339919303573554850
2748010 2 18337388227780040790
335352 9 17978510823956512853
33824 294 18408884048775530066
34934 24 18340200907758064887
350125 39 18410013204172845284
3545911 37 18408324410352488309
474 4 17822858709478909172
5104073 3 18337392643576237953
69090 78 18342454859408498183
7364860 26 18412825764023270734
8272917 22 18412830174522258214
9709674 26 18410016515719360955
9981440 41 18192706976405967752
9999458 23 18335140912550613654

>  <PUBCHEM_SHAPE_MULTIPOLES>  (1) 
362.7
9.17
2.71
0.64
7.36
0.62
0
-1.51
0
-3.32
0
0.01
0
0

>  <PUBCHEM_SHAPE_SELFOVERLAP>  (1) 
764.124

>  <PUBCHEM_SHAPE_VOLUME>  (1) 
212.7

>  <PUBCHEM_COORDINATE_TYPE>  (1) 
2
5
10

$$$$
