12889
     RDKit          3D

 17 17  0  0  0  0  0  0  0  0999 V2000
    3.6328    0.2291   -0.0004 F   0  0  0  0  0  0  0  0  0  0  0  0
    2.7856    1.9068   -1.0829 F   0  0  0  0  0  0  0  0  0  0  0  0
    2.7661    1.8979    1.0916 F   0  0  0  0  0  0  0  0  0  0  0  0
   -3.5545    0.6356   -0.0002 F   0  0  0  0  0  0  0  0  0  0  0  0
   -2.5239    2.2066    1.0832 F   0  0  0  0  0  0  0  0  0  0  0  0
   -2.5048    2.1965   -1.0912 F   0  0  0  0  0  0  0  0  0  0  0  0
   -1.4423   -3.4936    0.0008 O   0  0  0  0  0  0  0  0  0  0  0  0
    0.8078   -3.8163   -0.0001 O   0  0  0  0  0  0  0  0  0  0  0  0
    1.2488    0.4282    0.0001 C   0  0  0  0  0  0  0  0  0  0  0  0
   -1.1633    0.5645    0.0000 C   0  0  0  0  0  0  0  0  0  0  0  0
    0.0821    1.1927    0.0003 C   0  0  0  0  0  0  0  0  0  0  0  0
   -0.0753   -1.5926   -0.0003 C   0  0  0  0  0  0  0  0  0  0  0  0
    1.1701   -0.9645   -0.0002 C   0  0  0  0  0  0  0  0  0  0  0  0
   -1.2420   -0.8281   -0.0003 C   0  0  0  0  0  0  0  0  0  0  0  0
    2.5804    1.0999   -0.0001 C   0  0  0  0  0  0  0  0  0  0  0  0
   -2.4106    1.3822    0.0001 C   0  0  0  0  0  0  0  0  0  0  0  0
   -0.1571   -3.0450   -0.0003 C   0  0  0  0  0  0  0  0  0  0  0  0
  1 15  1  0
  2 15  1  0
  3 15  1  0
  4 16  1  0
  5 16  1  0
  6 16  1  0
  7 17  1  0
  8 17  2  0
  9 11  2  0
  9 13  1  0
  9 15  1  0
 10 11  1  0
 10 14  2  0
 10 16  1  0
 12 13  2  0
 12 14  1  0
 12 17  1  0
M  END
>  <PUBCHEM_COMPOUND_CID>  (1) 
12889

>  <PUBCHEM_CONFORMER_RMSD>  (1) 
0.6

>  <PUBCHEM_CONFORMER_DIVERSEORDER>  (1) 
1

>  <PUBCHEM_MMFF94_PARTIAL_CHARGES>  (1) 
21
1 -0.34
10 -0.14
11 -0.15
12 0.09
13 -0.15
14 -0.15
15 1.16
16 1.16
17 0.63
18 0.15
19 0.15
2 -0.34
20 0.15
21 0.5
3 -0.34
4 -0.34
5 -0.34
6 -0.34
7 -0.65
8 -0.57
9 -0.14

>  <PUBCHEM_EFFECTIVE_ROTOR_COUNT>  (1) 
3

>  <PUBCHEM_PHARMACOPHORE_FEATURES>  (1) 
4
1 7 acceptor
1 8 acceptor
3 7 8 17 anion
6 9 10 11 12 13 14 rings

>  <PUBCHEM_HEAVY_ATOM_COUNT>  (1) 
17

>  <PUBCHEM_ATOM_DEF_STEREO_COUNT>  (1) 
0

>  <PUBCHEM_ATOM_UDEF_STEREO_COUNT>  (1) 
0

>  <PUBCHEM_BOND_DEF_STEREO_COUNT>  (1) 
0

>  <PUBCHEM_BOND_UDEF_STEREO_COUNT>  (1) 
0

>  <PUBCHEM_ISOTOPIC_ATOM_COUNT>  (1) 
0

>  <PUBCHEM_COMPONENT_COUNT>  (1) 
1

>  <PUBCHEM_CACTVS_TAUTO_COUNT>  (1) 
1

>  <PUBCHEM_CONFORMER_ID>  (1) 
0000325900000001

>  <PUBCHEM_MMFF94_ENERGY>  (1) 
30.453

>  <PUBCHEM_FEATURE_SELFOVERLAP>  (1) 
20.355

>  <PUBCHEM_SHAPE_FINGERPRINT>  (1) 
1 1 18266739090967954732
10967382 1 18266459810725073222
12553582 1 17328871405310088054
13140716 1 18338797814571790722
13380535 76 18413106156188207454
14648413 74 17902794055342808289
15042514 8 18192433197525835026
15309172 13 18410022026346810369
15490181 7 18410863148178163607
15490181 8 18410848837331302571
16945 1 18050286165507212896
193761 8 18410856551103369030
19591789 44 18410865338585117287
20510252 161 18198624538884987776
20645476 183 18187941611380349356
20645477 70 18046056065709166869
20871998 184 18190473829482196163
21041028 32 17116084590475539825
21160774 45 18263920111206713911
21524375 3 18410855447243311875
22112679 90 16760865355962489938
2334 1 18410292527365185166
23402539 116 18054779861024934487
23419403 2 17050551743387101167
23530152 11 18410856547003086999
23557571 272 17766009676446328172
257057 1 17259052420987785962
2748010 2 18336838519253140359
305870 269 18267021656834969792
3071541 12 18051697633315264192
3071541 158 17541383440398766582
3071541 236 18193257796891638194
3071541 250 17475808549812559918
3091708 16 9123444571879528571
352729 6 18410574032417515211
458136 41 18194144961210378009
54173680 148 18121780800822833170
7364860 26 18051410665180980955
81228 2 17977665638490134738

>  <PUBCHEM_SHAPE_MULTIPOLES>  (1) 
294.47
4.41
3.97
0.78
0.98
4.47
0
-3.81
0
-0.97
0
0.04
-0.43
0

>  <PUBCHEM_SHAPE_SELFOVERLAP>  (1) 
632.163

>  <PUBCHEM_SHAPE_VOLUME>  (1) 
164.5

>  <PUBCHEM_COORDINATE_TYPE>  (1) 
2
5
10

$$$$
