12894
     RDKit          3D

 18 19  0  0  0  0  0  0  0  0999 V2000
   -0.3144    1.0098    0.0686 S   0  0  0  0  0  0  0  0  0  0  0  0
    2.6770    0.7712    0.0068 O   0  0  0  0  0  0  0  0  0  0  0  0
   -0.2325    2.1312   -0.8590 O   0  0  0  0  0  0  0  0  0  0  0  0
    0.0755    1.1998    1.4603 O   0  0  0  0  0  0  0  0  0  0  0  0
    0.5452   -0.3216   -0.5979 N   0  0  0  0  0  0  0  0  0  0  0  0
    2.6909   -1.4458   -0.4402 N   0  0  0  0  0  0  0  0  0  0  0  0
   -5.8826   -1.0751    0.0197 N   0  0  0  0  0  0  0  0  0  0  0  0
   -1.9492    0.3972    0.0544 C   0  0  0  0  0  0  0  0  0  0  0  0
    2.0017   -0.3449   -0.3409 C   0  0  0  0  0  0  0  0  0  0  0  0
    3.9544    0.3192    0.1449 C   0  0  0  0  0  0  0  0  0  0  0  0
    3.9583   -1.0263   -0.1270 C   0  0  0  0  0  0  0  0  0  0  0  0
   -2.4429   -0.2994    1.1573 C   0  0  0  0  0  0  0  0  0  0  0  0
   -2.7618    0.6047   -1.0602 C   0  0  0  0  0  0  0  0  0  0  0  0
   -3.7492   -0.7886    1.1458 C   0  0  0  0  0  0  0  0  0  0  0  0
   -4.0681    0.1157   -1.0717 C   0  0  0  0  0  0  0  0  0  0  0  0
   -4.5617   -0.5810    0.0313 C   0  0  0  0  0  0  0  0  0  0  0  0
    4.9735    1.3031    0.5249 C   0  0  0  0  0  0  0  0  0  0  0  0
    5.0858   -1.9691   -0.1170 C   0  0  0  0  0  0  0  0  0  0  0  0
  1  3  2  0
  1  4  2  0
  1  5  1  0
  1  8  1  0
  2  9  1  0
  2 10  1  0
  5  9  1  0
  6  9  2  0
  6 11  1  0
  7 16  1  0
  8 12  2  0
  8 13  1  0
 10 11  2  0
 10 17  1  0
 11 18  1  0
 12 14  1  0
 13 15  2  0
 14 16  2  0
 15 16  1  0
M  END
>  <PUBCHEM_COMPOUND_CID>  (1) 
12894

>  <PUBCHEM_CONFORMER_RMSD>  (1) 
0.6

>  <PUBCHEM_CONFORMER_DIVERSEORDER>  (1) 
9
6
4
2
14
16
1
8
15
7
3
19
12
21
5
22
13
18
20
17
10
23
11
24

>  <PUBCHEM_MMFF94_PARTIAL_CHARGES>  (1) 
25
1 1.45
10 -0.04
11 0.05
12 -0.15
13 -0.15
14 -0.15
15 -0.15
16 0.1
17 0.18
18 0.18
19 0.42
2 -0.28
20 0.15
21 0.15
22 0.15
23 0.15
3 -0.65
30 0.4
31 0.4
4 -0.65
5 -0.7
6 -0.57
7 -0.9
8 -0.01
9 0.62

>  <PUBCHEM_EFFECTIVE_ROTOR_COUNT>  (1) 
3

>  <PUBCHEM_PHARMACOPHORE_FEATURES>  (1) 
7
1 3 acceptor
1 4 acceptor
1 5 donor
1 7 cation
1 7 donor
5 2 6 9 10 11 rings
6 8 12 13 14 15 16 rings

>  <PUBCHEM_HEAVY_ATOM_COUNT>  (1) 
18

>  <PUBCHEM_ATOM_DEF_STEREO_COUNT>  (1) 
0

>  <PUBCHEM_ATOM_UDEF_STEREO_COUNT>  (1) 
0

>  <PUBCHEM_BOND_DEF_STEREO_COUNT>  (1) 
0

>  <PUBCHEM_BOND_UDEF_STEREO_COUNT>  (1) 
0

>  <PUBCHEM_ISOTOPIC_ATOM_COUNT>  (1) 
0

>  <PUBCHEM_COMPONENT_COUNT>  (1) 
1

>  <PUBCHEM_CACTVS_TAUTO_COUNT>  (1) 
2

>  <PUBCHEM_CONFORMER_ID>  (1) 
0000325E00000009

>  <PUBCHEM_MMFF94_ENERGY>  (1) 
27.7209

>  <PUBCHEM_FEATURE_SELFOVERLAP>  (1) 
35.538

>  <PUBCHEM_SHAPE_FINGERPRINT>  (1) 
10 15 18262225734415026568
10912923 1 17203608202790057138
12236239 1 17346883364414704807
12251169 10 14979956978093115945
12596602 18 17275386538286774251
12916754 54 18340208471438124648
13544653 18 18413112757568843601
13685833 64 18335987549605356131
13760787 5 17989483017872494588
14251764 18 17988931081169956985
14341114 328 16702305667241043338
14386348 63 18260831513997824995
14848160 23 18260263049174728202
15375358 24 18186801391614763130
15375462 189 17704068486556843690
15880784 105 18201721755793013699
15961568 22 16660932192198878676
17834072 14 18113900459416042300
17844677 252 18412268311237890636
17870717 6 17458350710730245475
1813 80 18130240297216005500
18186145 218 15647342952119344341
193927 3 18340783554120568214
19489759 90 17095237012430545045
200 152 18272086063379840754
20279233 1 18041001747398551618
20374829 77 18260827068775251867
20645477 70 18410855426343852262
21079973 296 18040155136308888882
21267235 1 18201726124502572142
23175994 123 18334017198719022293
23402539 116 16733254708134666279
23403322 49 18187647968587468739
23557571 272 17822002120921937156
23559900 14 18040150695882423520
26918003 58 18412263908816998658
2871803 45 18186802448456481242
312423 11 18201170845292071972
5104073 3 18270113514092867896
5283173 99 17968367936417295005
8272917 22 8213877980254373120

>  <PUBCHEM_SHAPE_MULTIPOLES>  (1) 
341.73
12.15
1.61
1.06
0.53
0.05
0.15
-4.64
0.14
1.53
-0.07
-0.79
0.13
0.89

>  <PUBCHEM_SHAPE_SELFOVERLAP>  (1) 
712.079

>  <PUBCHEM_SHAPE_VOLUME>  (1) 
196.2

>  <PUBCHEM_COORDINATE_TYPE>  (1) 
2
5
10

$$$$
