12899
     RDKit          3D

 19 20  0  0  0  0  0  0  0  0999 V2000
   -3.5469    0.7203    3.5912 Cl  0  0  0  0  0  0  0  0  0  0  0  0
   -2.7740    2.3419   -3.2829 Cl  0  0  0  0  0  0  0  0  0  0  0  0
    2.9051    2.6281    0.4794 O   0  0  0  0  0  0  0  0  0  0  0  0
    4.7120    1.2737    0.3211 O   0  0  0  0  0  0  0  0  0  0  0  0
   -1.8518    0.1317   -0.0288 N   0  0  0  0  0  0  0  0  0  0  0  0
    1.1555    0.5687    0.1171 N   0  0  0  0  0  0  0  0  0  0  0  0
   -0.8849   -0.8814   -0.1591 C   0  0  0  0  0  0  0  0  0  0  0  0
    0.4875   -0.6184   -0.0828 C   0  0  0  0  0  0  0  0  0  0  0  0
    1.4547   -1.6176   -0.2110 C   0  0  0  0  0  0  0  0  0  0  0  0
   -2.8408    0.0756    1.0319 C   0  0  0  0  0  0  0  0  0  0  0  0
   -1.8684    1.2577   -0.9444 C   0  0  0  0  0  0  0  0  0  0  0  0
   -1.2784   -2.2056   -0.3732 C   0  0  0  0  0  0  0  0  0  0  0  0
    2.7246   -0.9888   -0.0808 C   0  0  0  0  0  0  0  0  0  0  0  0
    2.5077    0.3550    0.1197 C   0  0  0  0  0  0  0  0  0  0  0  0
    1.0341   -2.9451   -0.4263 C   0  0  0  0  0  0  0  0  0  0  0  0
   -0.3354   -3.2230   -0.5051 C   0  0  0  0  0  0  0  0  0  0  0  0
   -2.3367    0.7738    2.2851 C   0  0  0  0  0  0  0  0  0  0  0  0
   -2.7376    0.9623   -2.1566 C   0  0  0  0  0  0  0  0  0  0  0  0
    3.4738    1.3912    0.3053 C   0  0  0  0  0  0  0  0  0  0  0  0
  1 17  1  0
  2 18  1  0
  3 19  1  0
  4 19  2  0
  5  7  1  0
  5 10  1  0
  5 11  1  0
  6  8  1  0
  6 14  1  0
  7  8  2  0
  7 12  1  0
  8  9  1  0
  9 13  1  0
  9 15  2  0
 10 17  1  0
 11 18  1  0
 12 16  2  0
 13 14  2  0
 14 19  1  0
 15 16  1  0
M  END
>  <PUBCHEM_COMPOUND_CID>  (1) 
12899

>  <PUBCHEM_CONFORMER_RMSD>  (1) 
0.8

>  <PUBCHEM_CONFORMER_DIVERSEORDER>  (1) 
1
15
26
13
19
2
4
12
21
23
28
14
29
25
27
30
16
10
22
8
24
20
3
18
17
6
9
7
31
11
5

>  <PUBCHEM_MMFF94_PARTIAL_CHARGES>  (1) 
24
1 -0.29
10 0.37
11 0.37
12 -0.15
13 -0.15
14 -0.24
15 -0.15
16 -0.15
17 0.29
18 0.29
19 0.81
2 -0.29
24 0.27
25 0.15
26 0.15
27 0.15
28 0.15
3 -0.65
33 0.5
4 -0.57
5 -0.84
6 0.03
7 0.1
8 -0.15

>  <PUBCHEM_EFFECTIVE_ROTOR_COUNT>  (1) 
6

>  <PUBCHEM_PHARMACOPHORE_FEATURES>  (1) 
8
1 3 acceptor
1 4 acceptor
1 5 cation
1 6 cation
1 6 donor
3 3 4 19 anion
5 6 8 9 13 14 rings
6 7 8 9 12 15 16 rings

>  <PUBCHEM_HEAVY_ATOM_COUNT>  (1) 
19

>  <PUBCHEM_ATOM_DEF_STEREO_COUNT>  (1) 
0

>  <PUBCHEM_ATOM_UDEF_STEREO_COUNT>  (1) 
0

>  <PUBCHEM_BOND_DEF_STEREO_COUNT>  (1) 
0

>  <PUBCHEM_BOND_UDEF_STEREO_COUNT>  (1) 
0

>  <PUBCHEM_ISOTOPIC_ATOM_COUNT>  (1) 
0

>  <PUBCHEM_COMPONENT_COUNT>  (1) 
1

>  <PUBCHEM_CACTVS_TAUTO_COUNT>  (1) 
2

>  <PUBCHEM_CONFORMER_ID>  (1) 
0000326300000001

>  <PUBCHEM_MMFF94_ENERGY>  (1) 
48.1475

>  <PUBCHEM_FEATURE_SELFOVERLAP>  (1) 
40.747

>  <PUBCHEM_SHAPE_FINGERPRINT>  (1) 
10871710 139 17247804374318405388
11582403 64 17027080438698758165
11640471 11 17130711557026395729
11725454 13 17388227110205477725
12077114 3 18041262327670714156
12173636 292 17774731968575509802
12549972 3 17315639486922103027
12730499 353 18118388571850280021
13140716 1 18342185449079779458
13294875 104 16015759354465321797
13583140 156 17676763215214667672
14142880 1 18128824212338761713
14468879 13 17968923228607343229
14614273 12 18337945821888508902
14787075 74 17774163551867420011
14817 1 9796346981290734471
15342168 16 18342190980712579681
15534591 1 17346612867015758963
16945 1 18197497324992926606
18186145 218 18343868822977410542
18219364 16 18409163316133853668
20510252 161 17766837600022230250
20600515 1 17478054220702931487
21041028 32 17261620386334767154
21524375 3 18339641252087134314
21639500 275 18195793081906226335
21756936 100 17560816449748105720
22182937 141 17986685954854488434
23419403 2 17828503383116299867
23557571 272 17241624827159817285
23559900 14 18202291325625212862
238 59 18122600791820772717
2748010 2 18188492354583093318
31174 14 17978537259564927643
474 4 18058461927733986267
57527585 21 16698924828026835152
6049 1 17825408292117410735
621550 5 17107678936040452959
633830 44 17846229830086334748
81228 2 17904489850049469994
9981440 41 18117532098888269529

>  <PUBCHEM_SHAPE_MULTIPOLES>  (1) 
373.05
6.34
3.16
2.73
2.77
0.9
-1.31
-4.56
-2.55
1.11
1.95
-5.46
-1.62
2.54

>  <PUBCHEM_SHAPE_SELFOVERLAP>  (1) 
767.946

>  <PUBCHEM_SHAPE_VOLUME>  (1) 
218.5

>  <PUBCHEM_COORDINATE_TYPE>  (1) 
2
5
10

$$$$
