12892
     RDKit          3D

 18 19  0  0  0  0  0  0  0  0999 V2000
    0.9132   -2.0898    0.0860 S   0  0  0  0  0  0  0  0  0  0  0  0
   -0.5093   -1.3024    1.3527 S   0  0  0  0  0  0  0  0  0  0  0  0
    0.7708   -0.0525   -2.1375 S   0  0  0  0  0  0  0  0  0  0  0  0
   -2.5904   -2.8329   -0.2101 S   0  0  0  0  0  0  0  0  0  0  0  0
    4.9852    1.1133    0.4736 O   0  0  0  0  0  0  0  0  0  0  0  0
   -4.3044    1.9581   -0.0039 O   0  0  0  0  0  0  0  0  0  0  0  0
    2.5099   -0.0464   -0.1286 N   0  0  0  0  0  0  0  0  0  0  0  0
   -2.5257   -0.1988    0.1326 N   0  0  0  0  0  0  0  0  0  0  0  0
    3.5015   -0.7979    0.6283 C   0  0  0  0  0  0  0  0  0  0  0  0
    2.6436    1.4032   -0.0868 C   0  0  0  0  0  0  0  0  0  0  0  0
   -2.4034    0.9061    1.0735 C   0  0  0  0  0  0  0  0  0  0  0  0
   -3.2090    0.1040   -1.1175 C   0  0  0  0  0  0  0  0  0  0  0  0
    4.9008   -0.3040    0.2878 C   0  0  0  0  0  0  0  0  0  0  0  0
    4.0799    1.8037   -0.3951 C   0  0  0  0  0  0  0  0  0  0  0  0
   -3.7548    1.5812    1.2637 C   0  0  0  0  0  0  0  0  0  0  0  0
   -4.5263    0.8119   -0.8329 C   0  0  0  0  0  0  0  0  0  0  0  0
    1.4691   -0.6533   -0.7480 C   0  0  0  0  0  0  0  0  0  0  0  0
   -1.9507   -1.4037    0.3623 C   0  0  0  0  0  0  0  0  0  0  0  0
  1  2  1  0
  1 17  1  0
  2 18  1  0
  3 17  2  0
  4 18  2  0
  5 13  1  0
  5 14  1  0
  6 15  1  0
  6 16  1  0
  7  9  1  0
  7 10  1  0
  7 17  1  0
  8 11  1  0
  8 12  1  0
  8 18  1  0
  9 13  1  0
 10 14  1  0
 11 15  1  0
 12 16  1  0
M  END
>  <PUBCHEM_COMPOUND_CID>  (1) 
12892

>  <PUBCHEM_CONFORMER_RMSD>  (1) 
0.8

>  <PUBCHEM_CONFORMER_DIVERSEORDER>  (1) 
1
81
131
8
136
35
65
79
6
91
15
105
9
114
80
77
31
144
34
16
92
14
109
61
135
129
41
148
57
47
98
5
111
113
29
143
82
7
90
28
3
11
36
94
101
70
132
96
51
78
133
156
142
40
152
50
85
107
13
68
88
155
95
27
128
74
150
58
126
52
117
149
104
138
17
62
110
116
64
43
137
106
22
86
76
158
69
71
73
141
147
89
102
32
97
48
145
139
127
72
103
115
118
49
112
66
154
124
59
83
134
39
108
18
23
37
100
84
33
123
44
151
4
60
63
25
45
30
54
119
157
55
26
122
42
140
121
56
153
67
10
53
20
46
24
87
146
125
12
38
19
21
2
93
75
130
99
120

>  <PUBCHEM_MMFF94_PARTIAL_CHARGES>  (1) 
18
1 -0.14
10 0.3
11 0.3
12 0.3
13 0.28
14 0.28
15 0.28
16 0.28
17 0.58
18 0.58
2 -0.14
3 -0.38
4 -0.38
5 -0.56
6 -0.56
7 -0.66
8 -0.66
9 0.3

>  <PUBCHEM_EFFECTIVE_ROTOR_COUNT>  (1) 
7.4

>  <PUBCHEM_PHARMACOPHORE_FEATURES>  (1) 
6
1 3 acceptor
1 4 acceptor
1 5 acceptor
1 6 acceptor
6 5 7 9 10 13 14 rings
6 6 8 11 12 15 16 rings

>  <PUBCHEM_HEAVY_ATOM_COUNT>  (1) 
18

>  <PUBCHEM_ATOM_DEF_STEREO_COUNT>  (1) 
0

>  <PUBCHEM_ATOM_UDEF_STEREO_COUNT>  (1) 
0

>  <PUBCHEM_BOND_DEF_STEREO_COUNT>  (1) 
0

>  <PUBCHEM_BOND_UDEF_STEREO_COUNT>  (1) 
0

>  <PUBCHEM_ISOTOPIC_ATOM_COUNT>  (1) 
0

>  <PUBCHEM_COMPONENT_COUNT>  (1) 
1

>  <PUBCHEM_CACTVS_TAUTO_COUNT>  (1) 
1

>  <PUBCHEM_CONFORMER_ID>  (1) 
0000325C00000001

>  <PUBCHEM_MMFF94_ENERGY>  (1) 
51.4827

>  <PUBCHEM_FEATURE_SELFOVERLAP>  (1) 
30.449

>  <PUBCHEM_SHAPE_FINGERPRINT>  (1) 
10014705 185 18260544545678710983
10646746 165 18411985797195358502
11370993 70 18410853248310084439
12107183 9 18191860137783745866
12596602 18 13912613753205090564
12633257 1 18260256426730478586
128620 24 14046020797389952680
13103583 49 13190342322982861997
13583140 156 17560793390338160034
13675066 3 17167866339619530098
14123255 352 18335421274529440096
14123255 52 18337111155556245619
14178342 30 17386016125361070074
14251764 30 13045937967992015320
14251764 38 18340207513175614720
15209294 21 18187362142650527806
15375462 189 8214139659868825330
1741750 31 18341336617407498691
17834072 32 18410295817473670824
192875 21 18202279191272112816
20112054 13 17530964678683286603
20645477 56 18410019823091799899
20671657 53 13686006562904776747
20871999 31 11815624051339458019
21033648 29 17676472939365248876
23227448 37 18411419531484798357
23402539 116 18272363165969048341
235170 7 14979960250531648184
23557571 272 18271812392612408311
23559900 14 18201162053541931734
2838139 119 18131345298107378152
328317 168 18343018874387091353
3472631 163 18129662972761496029
351380 180 18342171163728019040
4259306 186 10807933756237664136
449060 23 10952047849223531399
474 4 18409448059538140939
5104073 3 18187640358337736400
6328613 192 18261683644922459444
633830 44 18342459240375334870
9981440 41 18413668015410359803

>  <PUBCHEM_SHAPE_MULTIPOLES>  (1) 
364.13
10.06
2.45
1.4
4.42
0.82
0.41
-5.48
-0.76
-1.48
-0.25
-0.52
-0.09
-0.51

>  <PUBCHEM_SHAPE_SELFOVERLAP>  (1) 
687.524

>  <PUBCHEM_SHAPE_VOLUME>  (1) 
227.2

>  <PUBCHEM_COORDINATE_TYPE>  (1) 
2
5
10

$$$$
