12893
     RDKit          3D

 18 19  0  0  0  0  0  0  0  0999 V2000
   -0.5568   -0.7423   -0.5517 O   0  0  0  0  0  0  0  0  0  0  0  0
    1.0982   -0.6182    1.2146 O   0  0  0  0  0  0  0  0  0  0  0  0
    1.4747   -3.3356    1.0028 O   0  0  0  0  0  0  0  0  0  0  0  0
    0.8800   -3.0361   -1.1690 O   0  0  0  0  0  0  0  0  0  0  0  0
    0.1511   -1.4089    0.4958 C   0  0  0  0  0  0  0  0  0  0  0  0
   -1.7495   -0.1320   -0.3132 C   0  0  0  0  0  0  0  0  0  0  0  0
    1.7062    0.4214    0.5633 C   0  0  0  0  0  0  0  0  0  0  0  0
   -2.0181    0.4072    0.9451 C   0  0  0  0  0  0  0  0  0  0  0  0
    2.4697    0.1715   -0.5720 C   0  0  0  0  0  0  0  0  0  0  0  0
   -2.7038   -0.0460   -1.3269 C   0  0  0  0  0  0  0  0  0  0  0  0
    1.5551    1.7180    1.0434 C   0  0  0  0  0  0  0  0  0  0  0  0
    0.8490   -2.6693   -0.0018 C   0  0  0  0  0  0  0  0  0  0  0  0
   -3.2411    1.0321    1.1895 C   0  0  0  0  0  0  0  0  0  0  0  0
    3.0898    1.2307   -1.2349 C   0  0  0  0  0  0  0  0  0  0  0  0
   -3.9268    0.5790   -1.0823 C   0  0  0  0  0  0  0  0  0  0  0  0
    2.1751    2.7771    0.3803 C   0  0  0  0  0  0  0  0  0  0  0  0
   -4.1952    1.1181    0.1759 C   0  0  0  0  0  0  0  0  0  0  0  0
    2.9424    2.5333   -0.7588 C   0  0  0  0  0  0  0  0  0  0  0  0
  1  5  1  0
  1  6  1  0
  2  5  1  0
  2  7  1  0
  3 12  1  0
  4 12  2  0
  5 12  1  0
  6  8  2  0
  6 10  1  0
  7  9  2  0
  7 11  1  0
  8 13  1  0
  9 14  1  0
 10 15  2  0
 11 16  2  0
 13 17  2  0
 14 18  2  0
 15 17  1  0
 16 18  1  0
M  END
>  <PUBCHEM_COMPOUND_CID>  (1) 
12893

>  <PUBCHEM_CONFORMER_RMSD>  (1) 
0.6

>  <PUBCHEM_CONFORMER_DIVERSEORDER>  (1) 
1
75
42
114
148
17
105
106
16
116
133
158
150
62
85
82
46
73
57
138
40
50
151
155
137
58
103
144
130
112
118
30
7
93
156
53
134
140
125
139
79
99
11
24
35
126
78
127
145
47
89
88
92
70
3
124
67
119
2
97
77
111
109
87
28
60
147
5
110
141
120
4
115
20
81
44
21
84
142
94
100
38
74
136
14
104
131
132
54
76
101
157
107
102
86
83
71
80
96
68
33
56
19
149
43
12
65
128
69
64
117
91
51
122
49
55
13
161
108
143
66
123
90
95
32
29
159
15
31
135
59
63
6
8
45
153
113
37
41
98
39
72
25
22
61
9
26
27
36
146
18
48
154
129
52
34
121
160
23
10
152
162

>  <PUBCHEM_MMFF94_PARTIAL_CHARGES>  (1) 
29
1 -0.36
10 -0.15
11 -0.15
12 0.66
13 -0.15
14 -0.15
15 -0.15
16 -0.15
17 -0.15
18 -0.15
2 -0.36
20 0.15
21 0.15
22 0.15
23 0.15
24 0.15
25 0.15
26 0.15
27 0.15
28 0.15
29 0.15
3 -0.65
30 0.5
4 -0.57
5 0.62
6 0.08
7 0.08
8 -0.15
9 -0.15

>  <PUBCHEM_EFFECTIVE_ROTOR_COUNT>  (1) 
5

>  <PUBCHEM_PHARMACOPHORE_FEATURES>  (1) 
7
1 1 acceptor
1 2 acceptor
1 3 acceptor
1 4 acceptor
3 3 4 12 anion
6 6 8 10 13 15 17 rings
6 7 9 11 14 16 18 rings

>  <PUBCHEM_HEAVY_ATOM_COUNT>  (1) 
18

>  <PUBCHEM_ATOM_DEF_STEREO_COUNT>  (1) 
0

>  <PUBCHEM_ATOM_UDEF_STEREO_COUNT>  (1) 
0

>  <PUBCHEM_BOND_DEF_STEREO_COUNT>  (1) 
0

>  <PUBCHEM_BOND_UDEF_STEREO_COUNT>  (1) 
0

>  <PUBCHEM_ISOTOPIC_ATOM_COUNT>  (1) 
0

>  <PUBCHEM_COMPONENT_COUNT>  (1) 
1

>  <PUBCHEM_CACTVS_TAUTO_COUNT>  (1) 
1

>  <PUBCHEM_CONFORMER_ID>  (1) 
0000325D00000001

>  <PUBCHEM_MMFF94_ENERGY>  (1) 
62.5674

>  <PUBCHEM_FEATURE_SELFOVERLAP>  (1) 
35.617

>  <PUBCHEM_SHAPE_FINGERPRINT>  (1) 
10498660 4 18263075668949675877
11101153 10 17687476668171386182
11221954 11 17388229305013400837
12173636 292 18195815286945318013
12730499 353 18335712645791133625
12788726 201 17545590614484955830
13009979 54 17486777372532642707
13134695 92 17972862688469765038
13681431 1 18121782720778741982
15309172 13 18261675990441450661
17134986 127 18337106868894268540
1741750 31 18194401323692715456
1813 80 17766846022110654558
18186145 218 18341059608896082492
18219364 16 18263093243739274393
19786989 88 18260545619636793385
20510252 161 17907296907434833739
20559304 39 18058157337427800667
20671657 1 18341325617705888783
21041028 32 17905050244212013560
21524375 3 18336259158324645970
21639500 275 18337379474979615373
2255824 54 18267302036964622863
23419403 2 17250111987194957498
23557571 272 17259060126523228748
23558518 356 18121491616770404774
23559900 14 15430313564933233827
23598291 2 17700420178627887659
238 59 18413109476324475775
25 1 18340501027077102644
2637199 183 18342189885321689861
3060560 45 18411414020815105892
350125 39 18263368160337938218
458136 41 18335151894460216427
474 4 18410292523365896309
57210444 14 18195268782674608166
633830 44 18200606872720001861
6442390 28 18119828034028475331
7364860 26 18340201878035675335
81228 2 17472419232215929026
90316 7 8717736897496235949
9981440 41 17126184069076307400

>  <PUBCHEM_SHAPE_MULTIPOLES>  (1) 
346.95
6.31
3.3
1.34
4.98
2.66
-0.08
-4.86
-1.36
-3.03
0.22
0.19
-0.05
-0.53

>  <PUBCHEM_SHAPE_SELFOVERLAP>  (1) 
739.675

>  <PUBCHEM_SHAPE_VOLUME>  (1) 
191.2

>  <PUBCHEM_COORDINATE_TYPE>  (1) 
2
5
10

$$$$
