12900
     RDKit          3D

 19 20  0  0  0  0  0  0  0  0999 V2000
   -0.4795    2.2838   -0.0001 O   0  0  0  0  0  0  0  0  0  0  0  0
    3.5780    2.2781    0.0006 O   0  0  0  0  0  0  0  0  0  0  0  0
    1.6931    3.4035    0.0003 O   0  0  0  0  0  0  0  0  0  0  0  0
    1.6614   -3.6215    0.0011 O   0  0  0  0  0  0  0  0  0  0  0  0
    3.5620   -2.5229    0.0000 O   0  0  0  0  0  0  0  0  0  0  0  0
    2.3251    2.3208    0.0004 N   0  0  0  0  0  0  0  0  0  0  0  0
    2.3076   -2.5459    0.0003 N   0  0  0  0  0  0  0  0  0  0  0  0
   -0.4984   -0.1093   -0.0008 C   0  0  0  0  0  0  0  0  0  0  0  0
   -1.9451   -0.1338   -0.0003 C   0  0  0  0  0  0  0  0  0  0  0  0
    0.2011    1.0991   -0.0004 C   0  0  0  0  0  0  0  0  0  0  0  0
    0.2020   -1.3170   -0.0010 C   0  0  0  0  0  0  0  0  0  0  0  0
    1.5959    1.0996   -0.0001 C   0  0  0  0  0  0  0  0  0  0  0  0
    1.5969   -1.3164   -0.0008 C   0  0  0  0  0  0  0  0  0  0  0  0
    2.2938   -0.1082   -0.0004 C   0  0  0  0  0  0  0  0  0  0  0  0
   -2.6421   -0.1456    1.2079 C   0  0  0  0  0  0  0  0  0  0  0  0
   -2.6428   -0.1456   -1.2081 C   0  0  0  0  0  0  0  0  0  0  0  0
   -4.0368   -0.1691    1.2084 C   0  0  0  0  0  0  0  0  0  0  0  0
   -4.0375   -0.1689   -1.2076 C   0  0  0  0  0  0  0  0  0  0  0  0
   -4.7344   -0.1807    0.0007 C   0  0  0  0  0  0  0  0  0  0  0  0
  1 10  1  0
  2  6  1  0
  3  6  2  0
  4  7  1  0
  5  7  2  0
  6 12  1  0
  7 13  1  0
  8  9  1  0
  8 10  2  0
  8 11  1  0
  9 15  2  0
  9 16  1  0
 10 12  1  0
 11 13  2  0
 12 14  2  0
 13 14  1  0
 15 17  1  0
 16 18  2  0
 17 19  2  0
 18 19  1  0
M  CHG  4   2  -1   4  -1   6   1   7   1
M  END
>  <PUBCHEM_COMPOUND_CID>  (1) 
12900

>  <PUBCHEM_CONFORMER_RMSD>  (1) 
0.6

>  <PUBCHEM_CONFORMER_DIVERSEORDER>  (1) 
1

>  <PUBCHEM_MMFF94_PARTIAL_CHARGES>  (1) 
25
1 -0.53
10 0.08
11 -0.15
12 0.13
13 0.13
14 -0.15
15 -0.15
16 -0.15
17 -0.15
18 -0.15
19 -0.15
2 -0.52
20 0.15
21 0.15
22 0.15
23 0.15
24 0.15
25 0.15
26 0.15
27 0.45
3 -0.52
4 -0.52
5 -0.52
6 0.91
7 0.91

>  <PUBCHEM_EFFECTIVE_ROTOR_COUNT>  (1) 
3

>  <PUBCHEM_PHARMACOPHORE_FEATURES>  (1) 
9
1 1 donor
1 2 acceptor
1 2 anion
1 3 acceptor
1 4 acceptor
1 4 anion
1 5 acceptor
6 8 10 11 12 13 14 rings
6 9 15 16 17 18 19 rings

>  <PUBCHEM_HEAVY_ATOM_COUNT>  (1) 
19

>  <PUBCHEM_ATOM_DEF_STEREO_COUNT>  (1) 
0

>  <PUBCHEM_ATOM_UDEF_STEREO_COUNT>  (1) 
0

>  <PUBCHEM_BOND_DEF_STEREO_COUNT>  (1) 
0

>  <PUBCHEM_BOND_UDEF_STEREO_COUNT>  (1) 
0

>  <PUBCHEM_ISOTOPIC_ATOM_COUNT>  (1) 
0

>  <PUBCHEM_COMPONENT_COUNT>  (1) 
1

>  <PUBCHEM_CACTVS_TAUTO_COUNT>  (1) 
6

>  <PUBCHEM_CONFORMER_ID>  (1) 
0000326400000001

>  <PUBCHEM_MMFF94_ENERGY>  (1) 
70.369

>  <PUBCHEM_FEATURE_SELFOVERLAP>  (1) 
45.835

>  <PUBCHEM_SHAPE_FINGERPRINT>  (1) 
10411042 1 18122626050508407974
10693767 8 18131070441891536326
10967382 1 18410575106475538500
10980938 120 18410571833584020813
10989021 7 18340487751079846754
11471102 20 18410009965820011333
12236239 1 17775569758387668265
12553582 1 18268153045805442982
12644460 14 18409453595740475162
12707595 3 18188769431645707107
12730499 353 18263931097780627019
12895836 83 17391378547208118412
13009979 54 17703233923177903539
13134695 92 18337105661876498798
13140716 1 18266737081392745834
13533116 47 18343581867960378099
14790565 3 18265629855904654900
15219456 202 18113897191299169405
15279307 12 18058166305298630135
15309172 13 18193560201486945449
15442244 35 18269278946060107545
15502722 9 18410011061163122991
15842332 3 17917993893343215663
16945 1 18410855464481157860
1813 80 17986122807301449150
18186145 218 18269562808680029549
19049666 15 17968087574211166093
19591789 44 17977673331124851114
19784866 34 18197777923622339553
204376 136 18121220041376683244
20645477 70 18334846230343823695
21041028 32 18267874882353642417
21499 59 18194962065842984077
21524375 3 17901098938866666776
21639500 275 18339353171355406725
22112679 90 17418372485129090377
221490 88 18335702689529563469
2255824 54 18342178868767628830
22943178 12 17967816059411314475
23175994 123 18191873323138067695
2334 1 17906171003375286086
23419403 2 17606647311561742822
23559900 14 18409442570770598187
23598291 2 18060414725104850943
25 1 18337389473352529789
2748010 2 18051961533702524638
3060560 45 18338234985310262716
3071541 37 18335707182255272292
3091708 16 9216278537888898466
3886686 26 17191190525168614872
458136 41 18263938798103276276
474 4 18268711791112209249
54173680 148 17545603349104965570
58807428 26 18195794379461097088
6049 1 17894633626196742269
633830 44 17985848131189473917
7364860 26 18410855464750215682
7615 1 17846497011469900265
77492 1 17703791431676389543
81228 2 17545590159249726912
81539 233 18261110837190652084
8272917 22 18412266142584919581
84936 182 18058728142771450785

>  <PUBCHEM_SHAPE_MULTIPOLES>  (1) 
351.7
7.2
3.2
0.92
5.66
0.27
0
0.59
0
-5.39
0
1.14
0.04
0

>  <PUBCHEM_SHAPE_SELFOVERLAP>  (1) 
771.716

>  <PUBCHEM_SHAPE_VOLUME>  (1) 
190.4

>  <PUBCHEM_COORDINATE_TYPE>  (1) 
2
5
10

$$$$
