12913
     RDKit          3D

 20 21  0  0  0  0  0  0  0  0999 V2000
   -2.4371    2.6574    1.0550 O   0  0  0  0  0  0  0  0  0  0  0  0
    2.0167    1.7606   -1.1046 O   0  0  0  0  0  0  0  0  0  0  0  0
   -5.4747   -2.0572    0.4968 O   0  0  0  0  0  0  0  0  0  0  0  0
   -0.0783    1.3110    0.5900 N   0  0  0  0  0  0  0  0  0  0  0  0
    1.0774    0.5835    0.6556 N   0  0  0  0  0  0  0  0  0  0  0  0
    5.6313   -1.4191    0.1202 N   0  0  0  0  0  0  0  0  0  0  0  0
   -4.7596   -2.0192   -0.5034 N   0  0  0  0  0  0  0  0  0  0  0  0
   -1.2851    0.7014    0.3702 C   0  0  0  0  0  0  0  0  0  0  0  0
    3.3224    0.0792   -0.1172 C   0  0  0  0  0  0  0  0  0  0  0  0
   -1.4049   -0.6226    0.1861 C   0  0  0  0  0  0  0  0  0  0  0  0
   -2.4498    1.6350    0.3713 C   0  0  0  0  0  0  0  0  0  0  0  0
    2.0800    0.8856   -0.2446 C   0  0  0  0  0  0  0  0  0  0  0  0
   -2.5933   -1.4312    0.0598 C   0  0  0  0  0  0  0  0  0  0  0  0
   -3.5673    1.4104   -0.5734 C   0  0  0  0  0  0  0  0  0  0  0  0
   -3.7982   -1.0873   -0.4311 C   0  0  0  0  0  0  0  0  0  0  0  0
   -4.1076    0.2405   -0.9290 C   0  0  0  0  0  0  0  0  0  0  0  0
    4.5147    0.6246   -0.5292 C   0  0  0  0  0  0  0  0  0  0  0  0
    3.2422   -1.1878    0.4093 C   0  0  0  0  0  0  0  0  0  0  0  0
    5.6434   -0.1668   -0.3892 C   0  0  0  0  0  0  0  0  0  0  0  0
    4.4278   -1.8981    0.5073 C   0  0  0  0  0  0  0  0  0  0  0  0
  1 11  2  0
  2 12  2  0
  3  7  2  0
  4  5  1  0
  4  8  1  0
  5 12  1  0
  6 19  2  0
  6 20  1  0
  7 15  1  0
  8 10  2  0
  8 11  1  0
  9 12  1  0
  9 17  2  0
  9 18  1  0
 10 13  1  0
 11 14  1  0
 13 15  2  0
 14 16  2  0
 15 16  1  0
 17 19  1  0
 18 20  2  0
M  END
>  <PUBCHEM_COMPOUND_CID>  (1) 
12913

>  <PUBCHEM_CONFORMER_RMSD>  (1) 
0.8

>  <PUBCHEM_CONFORMER_DIVERSEORDER>  (1) 
2
30
18
4
28
17
12
21
27
14
23
19
31
22
15
25
24
6
7
11
29
8
16
20
26
3
9
13
5
10
1

>  <PUBCHEM_MMFF94_PARTIAL_CHARGES>  (1) 
30
1 -0.57
10 -0.15
11 0.54
12 0.54
13 -0.15
14 -0.14
15 0.29
16 -0.15
17 -0.15
18 -0.15
19 0.16
2 -0.57
20 0.16
21 0.4
22 0.15
23 0.37
24 0.15
25 0.15
26 0.15
27 0.15
28 0.15
29 0.15
3 -0.16
30 0.15
4 -0.52
5 -0.41
6 -0.62
7 -0.13
8 0.11
9 0.09

>  <PUBCHEM_EFFECTIVE_ROTOR_COUNT>  (1) 
5

>  <PUBCHEM_PHARMACOPHORE_FEATURES>  (1) 
7
1 1 acceptor
1 2 acceptor
1 4 donor
1 5 donor
1 6 acceptor
6 6 9 17 18 19 20 rings
7 8 10 11 13 14 15 16 rings

>  <PUBCHEM_HEAVY_ATOM_COUNT>  (1) 
20

>  <PUBCHEM_ATOM_DEF_STEREO_COUNT>  (1) 
0

>  <PUBCHEM_ATOM_UDEF_STEREO_COUNT>  (1) 
0

>  <PUBCHEM_BOND_DEF_STEREO_COUNT>  (1) 
0

>  <PUBCHEM_BOND_UDEF_STEREO_COUNT>  (1) 
0

>  <PUBCHEM_ISOTOPIC_ATOM_COUNT>  (1) 
0

>  <PUBCHEM_COMPONENT_COUNT>  (1) 
1

>  <PUBCHEM_CACTVS_TAUTO_COUNT>  (1) 
23

>  <PUBCHEM_CONFORMER_ID>  (1) 
0000327100000002

>  <PUBCHEM_MMFF94_ENERGY>  (1) 
71.3421

>  <PUBCHEM_FEATURE_SELFOVERLAP>  (1) 
37.086

>  <PUBCHEM_SHAPE_FINGERPRINT>  (1) 
10595046 47 18408606968098976356
10616163 171 18342458093234230342
11315181 36 18412545397243165544
11796584 16 18271525286943732382
12107183 9 17689716355543027594
12236239 1 18335701629089236326
12760667 363 18341893026505523255
12916754 54 18334295392108746741
13167823 11 18411417293849087118
13288520 33 18341895203752846237
13533116 47 18338518663404644836
14251740 79 17676774266192349099
14251764 30 18044383953426626939
14347332 77 18408879651071819415
14576447 43 18335139800238466638
15183329 4 18040989609868485023
15196674 1 18409448064207868770
17492 89 18412547574370150206
17834072 33 18335421270724998884
17857418 61 18336540539202323450
18681886 176 18413387649399620842
19784866 140 18334007333226668379
200 152 18411698802779302246
204376 136 8213877980813080905
20645477 70 18334858316635093110
21054139 6 18334856122028293010
21267235 1 18410300228278814454
22950370 63 18267027339910217227
23402539 116 18341328916367632749
23403322 49 18413386544770131855
23559900 14 18341882026313790585
2916195 48 11386952011980660774
3004659 81 18261105300740391679
312423 11 18338529619655421665
34797466 226 17489035967723230588
351380 3 18272932760216297502
4214541 1 18410573950981896212
46194498 28 17096084821900506118
463206 1 18198057191212940895
465052 167 18128824225540681351
4921388 177 16515695471643667755
5104073 3 18131630067497767048
559249 180 18336541608164078266
573450 72 18340484457140793152
633830 44 16588314834645844300
67856867 119 18337388340204200884
960060 61 17749114366315240070
9709674 26 18262238935983632842

>  <PUBCHEM_SHAPE_MULTIPOLES>  (1) 
374.06
13.17
2.32
0.87
6.84
0.03
0.03
6.6
1.56
-1.98
-0.31
-0.21
-0.22
-0.82

>  <PUBCHEM_SHAPE_SELFOVERLAP>  (1) 
803.528

>  <PUBCHEM_SHAPE_VOLUME>  (1) 
201.1

>  <PUBCHEM_COORDINATE_TYPE>  (1) 
2
5
10

$$$$
