1291
     RDKit          3D

 22 23  0  0  1  0  0  0  0  0999 V2000
    0.7571    1.7647    0.3286 S   0  0  0  0  0  0  0  0  0  0  0  0
   -2.1240    1.3991   -0.3325 S   0  0  0  0  0  0  0  0  0  0  0  0
   -4.6291   -0.0956   -0.5402 S   0  0  0  0  0  0  0  0  0  0  0  0
    0.5014    2.6212    1.4690 O   0  0  0  0  0  0  0  0  0  0  0  0
    0.9904    2.2916   -0.9997 O   0  0  0  0  0  0  0  0  0  0  0  0
    3.9255    0.9930   -1.2853 O   0  0  0  0  0  0  0  0  0  0  0  0
   -4.7902    0.9661   -1.5272 O   0  0  0  0  0  0  0  0  0  0  0  0
   -4.9407   -1.4781   -0.8808 O   0  0  0  0  0  0  0  0  0  0  0  0
    1.9795    0.6032    0.7237 N   0  0  0  0  0  0  0  0  0  0  0  0
    0.9796   -2.1511   -0.0384 N   0  0  0  0  0  0  0  0  0  0  0  0
   -5.5414    0.3385    0.8491 N   0  0  0  0  0  0  0  0  0  0  0  0
    0.4436   -1.3646    1.0758 C   0  0  0  0  0  0  0  0  0  0  0  0
    1.5478   -0.4683    1.6913 C   0  0  0  0  0  0  0  0  0  0  0  0
   -0.7456   -0.5901    0.5662 C   0  0  0  0  0  0  0  0  0  0  0  0
   -0.6671    0.7399    0.2130 C   0  0  0  0  0  0  0  0  0  0  0  0
    3.3212    1.1517    1.0318 C   0  0  0  0  0  0  0  0  0  0  0  0
   -2.0761   -1.0768    0.3733 C   0  0  0  0  0  0  0  0  0  0  0  0
   -2.9241   -0.1026   -0.1140 C   0  0  0  0  0  0  0  0  0  0  0  0
    2.1401   -2.9175    0.3857 C   0  0  0  0  0  0  0  0  0  0  0  0
    4.3297    0.6246    0.0273 C   0  0  0  0  0  0  0  0  0  0  0  0
    2.6847   -3.7642   -0.7521 C   0  0  0  0  0  0  0  0  0  0  0  0
    4.8375    0.5154   -2.2646 C   0  0  0  0  0  0  0  0  0  0  0  0
  1  4  2  0
  1  5  2  0
  1  9  1  0
  1 15  1  0
  2 15  1  0
  2 18  1  0
  3  7  2  0
  3  8  2  0
  3 11  1  0
  3 18  1  0
  6 20  1  0
  6 22  1  0
  9 13  1  0
  9 16  1  0
 10 12  1  0
 10 19  1  0
 12 13  1  0
 12 14  1  0
 14 15  2  0
 14 17  1  0
 16 20  1  0
 17 18  2  0
 19 21  1  0
M  END
>  <PUBCHEM_COMPOUND_CID>  (1) 
1291

>  <PUBCHEM_CONFORMER_RMSD>  (1) 
0.8

>  <PUBCHEM_CONFORMER_DIVERSEORDER>  (1) 
3
66
44
17
14
1
51
43
67
39
65
19
38
49
62
60
34
31
25
58
5
24
28
18
2
56
64
50
61
11
45
12
20
40
59
57
26
54
7
9
46
53
35
13
55
47
10
23
27
29
33
36
6
41
22
15
63
16
37
8
52
48
30
42
32
21
4

>  <PUBCHEM_MMFF94_PARTIAL_CHARGES>  (1) 
25
1 1.5
10 -0.9
11 -0.98
12 0.45
13 0.36
14 -0.18
15 -0.02
16 0.36
17 -0.15
18 -0.02
19 0.27
2 -0.08
20 0.28
22 0.28
28 0.36
29 0.15
3 1.5
37 0.42
38 0.42
4 -0.65
5 -0.65
6 -0.56
7 -0.65
8 -0.65
9 -0.85

>  <PUBCHEM_EFFECTIVE_ROTOR_COUNT>  (1) 
6.6

>  <PUBCHEM_PHARMACOPHORE_FEATURES>  (1) 
10
1 10 cation
1 10 donor
1 11 donor
1 4 acceptor
1 5 acceptor
1 6 acceptor
1 7 acceptor
1 8 acceptor
5 2 14 15 17 18 rings
6 1 9 12 13 14 15 rings

>  <PUBCHEM_HEAVY_ATOM_COUNT>  (1) 
22

>  <PUBCHEM_ATOM_DEF_STEREO_COUNT>  (1) 
0

>  <PUBCHEM_ATOM_UDEF_STEREO_COUNT>  (1) 
1

>  <PUBCHEM_BOND_DEF_STEREO_COUNT>  (1) 
0

>  <PUBCHEM_BOND_UDEF_STEREO_COUNT>  (1) 
0

>  <PUBCHEM_ISOTOPIC_ATOM_COUNT>  (1) 
0

>  <PUBCHEM_COMPONENT_COUNT>  (1) 
1

>  <PUBCHEM_CACTVS_TAUTO_COUNT>  (1) 
1

>  <PUBCHEM_CONFORMER_ID>  (1) 
0000050B00000003

>  <PUBCHEM_MMFF94_ENERGY>  (1) 
32.3863

>  <PUBCHEM_FEATURE_SELFOVERLAP>  (1) 
50.821

>  <PUBCHEM_SHAPE_FINGERPRINT>  (1) 
10756046 5 18193558861330405724
11796584 16 16917350342124893335
12616999 72 18334571339272311978
12895836 83 17824840059881801596
13140716 1 18120085337034557473
14863182 85 18340476803757283818
15475509 35 13470401175713429725
15664445 248 18343026605560910940
1601671 61 18335696152494523401
16945 1 18270381876154504969
17492 54 17749682886609382700
19784866 140 18060427888826152233
20645477 70 18266721529511741783
20691752 17 17242180049981906048
20905425 154 18268990891135106844
21637258 2 15769780117898032004
22182313 1 18117821227802299429
22713019 99 18272658986563841020
23558518 356 17975980856275344600
23559900 14 18194668281479908443
23566358 2 18263353690418713501
2748010 2 18048012113594606857
2838139 119 16877944992395000916
3060560 45 18341883147679536506
4280585 95 17831009136036643394
463206 1 18343578564445121734
474 4 14851891399834358940
4990 188 18060136582611285288
59755656 215 18411133680300702415
633830 44 18201151173914789869
7364860 26 18341602711905635123
9709674 26 18335411379669017555

>  <PUBCHEM_SHAPE_MULTIPOLES>  (1) 
420.01
9.69
3.06
1.51
7.95
2.41
-0.37
-0.4
-4.52
-2.96
-0.2
-1.21
-0.37
-0.06

>  <PUBCHEM_SHAPE_SELFOVERLAP>  (1) 
819.561

>  <PUBCHEM_SHAPE_VOLUME>  (1) 
254.1

>  <PUBCHEM_COORDINATE_TYPE>  (1) 
2
5
10

$$$$
