12910
     RDKit          3D

 20 20  0  0  0  0  0  0  0  0999 V2000
   -2.9435    2.9688    0.6244 F   0  0  0  0  0  0  0  0  0  0  0  0
   -0.0614   -1.0672   -0.3846 O   0  0  0  0  0  0  0  0  0  0  0  0
    4.9816   -0.2436   -0.1532 N   0  0  0  0  0  0  0  0  0  0  0  0
   -1.0501    0.9979    0.1392 N   0  0  0  0  0  0  0  0  0  0  0  0
    3.8543    0.6531    0.0728 C   0  0  0  0  0  0  0  0  0  0  0  0
    2.5359   -0.0986   -0.0988 C   0  0  0  0  0  0  0  0  0  0  0  0
    4.9548   -1.3555    0.7987 C   0  0  0  0  0  0  0  0  0  0  0  0
    6.2479    0.4837   -0.0487 C   0  0  0  0  0  0  0  0  0  0  0  0
    1.3399    0.8252    0.1258 C   0  0  0  0  0  0  0  0  0  0  0  0
    0.0068    0.1178   -0.0759 C   0  0  0  0  0  0  0  0  0  0  0  0
    6.0866   -2.3336    0.5325 C   0  0  0  0  0  0  0  0  0  0  0  0
    6.2975    1.6434   -1.0289 C   0  0  0  0  0  0  0  0  0  0  0  0
   -2.4350    0.7214    0.0490 C   0  0  0  0  0  0  0  0  0  0  0  0
   -4.2127   -0.8312   -0.3798 C   0  0  0  0  0  0  0  0  0  0  0  0
   -2.8481   -0.5567   -0.2891 C   0  0  0  0  0  0  0  0  0  0  0  0
   -4.6750   -2.2024   -0.7417 C   0  0  0  0  0  0  0  0  0  0  0  0
   -3.3477    1.7329    0.2985 C   0  0  0  0  0  0  0  0  0  0  0  0
   -5.1448    0.1763   -0.1315 C   0  0  0  0  0  0  0  0  0  0  0  0
   -4.7123    1.4584    0.2076 C   0  0  0  0  0  0  0  0  0  0  0  0
   -4.8747   -3.0900    0.4839 C   0  0  0  0  0  0  0  0  0  0  0  0
  1 17  1  0
  2 10  2  0
  3  5  1  0
  3  7  1  0
  3  8  1  0
  4 10  1  0
  4 13  1  0
  5  6  1  0
  6  9  1  0
  7 11  1  0
  8 12  1  0
  9 10  1  0
 13 15  2  0
 13 17  1  0
 14 15  1  0
 14 16  1  0
 14 18  2  0
 16 20  1  0
 17 19  2  0
 18 19  1  0
M  END
>  <PUBCHEM_COMPOUND_CID>  (1) 
12910

>  <PUBCHEM_CONFORMER_RMSD>  (1) 
0.8

>  <PUBCHEM_CONFORMER_DIVERSEORDER>  (1) 
1
150
108
313
260
43
74
277
298
203
282
285
112
278
194
142
304
171
172
239
151
249
254
118
27
247
228
312
197
308
117
140
166
227
56
107
86
289
195
128
75
253
321
97
204
154
36
100
176
116
221
303
250
186
169
61
155
174
68
225
213
175
87
264
288
240
223
187
200
104
121
135
296
316
34
290
181
198
76
130
202
241
191
88
190
217
280
245
158
70
220
183
124
177
30
214
83
284
294
192
185
35
322
11
32
114
261
125
199
42
320
178
2
306
305
147
196
242
272
206
48
184
99
209
129
208
45
10
302
28
69
144
63
139
234
52
207
89
98
165
262
269
258
67
205
238
16
132
291
148
39
73
182
50
309
188
283
15
120
138
311
57
315
179
286
31
226
232
127
248
163
71
257
201
77
38
265
22
7
259
134
82
146
101
44
58
149
237
85
281
235
256
137
18
173
12
115
244
94
40
20
111
53
222
109
54
167
80
168
319
292
33
252
123
212
317
162
193
299
46
170
72
24
210
119
141
13
159
211
14
131
153
273
96
243
65
8
49
293
19
84
156
122
297
157
267
3
295
106
64
279
152
268
103
92
145
216
55
113
318
314
224
23
4
79
160
219
29
126
21
255
266
110
133
301
189
271
59
274
310
251
143
91
229
25
105
51
275
41
218
90
300
287
37
236
307
246
231
215
26
180
17
276
78
93
9
5
47
233
6
263
230
95
164
270
102
62
161
60
66
81
136

>  <PUBCHEM_MMFF94_PARTIAL_CHARGES>  (1) 
20
1 -0.19
10 0.57
13 0.12
14 -0.14
15 -0.15
16 0.14
17 0.19
18 -0.15
19 -0.15
2 -0.57
3 -0.81
37 0.37
38 0.15
4 -0.55
41 0.15
42 0.15
5 0.27
7 0.27
8 0.27
9 0.06

>  <PUBCHEM_EFFECTIVE_ROTOR_COUNT>  (1) 
9

>  <PUBCHEM_PHARMACOPHORE_FEATURES>  (1) 
5
1 2 acceptor
1 20 hydrophobe
1 3 cation
1 4 donor
6 13 14 15 17 18 19 rings

>  <PUBCHEM_HEAVY_ATOM_COUNT>  (1) 
20

>  <PUBCHEM_ATOM_DEF_STEREO_COUNT>  (1) 
0

>  <PUBCHEM_ATOM_UDEF_STEREO_COUNT>  (1) 
0

>  <PUBCHEM_BOND_DEF_STEREO_COUNT>  (1) 
0

>  <PUBCHEM_BOND_UDEF_STEREO_COUNT>  (1) 
0

>  <PUBCHEM_ISOTOPIC_ATOM_COUNT>  (1) 
0

>  <PUBCHEM_COMPONENT_COUNT>  (1) 
1

>  <PUBCHEM_CACTVS_TAUTO_COUNT>  (1) 
2

>  <PUBCHEM_CONFORMER_ID>  (1) 
0000326E00000001

>  <PUBCHEM_MMFF94_ENERGY>  (1) 
38.2036

>  <PUBCHEM_FEATURE_SELFOVERLAP>  (1) 
25.371

>  <PUBCHEM_SHAPE_FINGERPRINT>  (1) 
10411042 1 18125157397865790415
10595046 47 18408887364986206692
10912923 1 18334012774902564648
11315181 36 18334295400545505509
11524674 6 16343702153640322183
12107183 9 17689151210798073040
12236239 1 18333449828874838756
12596602 18 18334011709608217802
12616971 3 17676779716299800693
13073987 5 18412260640984995008
13167823 11 18410288099655089514
13288520 33 18341331184658516887
13533116 47 18335419037774606202
13631057 29 18339077202764529675
14211702 104 18411423899488520774
14251732 16 18339079401829684300
14251740 79 17313948662036896403
14461889 52 18337946926697021530
14528608 73 18335706061675048348
15183329 4 18411138000826642950
15250474 111 18335408054884555554
17834072 33 18407759235911943256
17844677 252 18343024419264113480
17857418 61 18334851697795129986
18927931 339 18202283641264173159
21236236 1 18411982481449074443
21267235 1 18340490084180953415
220451 1 18410299099034439232
2297311 6 18060425737232413117
2303208 19 17132123450495125644
23081809 10 18260831497261002476
23402539 116 18409444800027228453
23522609 53 18195837169920437280
23536379 177 18409448055712756512
23559900 14 18340475764359419433
3004659 81 18339082593480976174
335352 9 18341327869397562253
4073 2 18113904896512924346
4214541 1 18412824651236513393
497634 4 18333729126287423597
5104073 3 18201718470169081888
531348 171 17677882440631594567
559249 180 18338510851244190271
59755656 520 17095525081047264507
67856867 119 18336269058245992828
7062679 117 18410013273102928879
7495541 125 17917705838228675048

>  <PUBCHEM_SHAPE_MULTIPOLES>  (1) 
388.49
17.87
2.7
0.79
19.91
1.01
0.04
4.37
0.68
-2.39
-0.41
0.23
0.03
-1.74

>  <PUBCHEM_SHAPE_SELFOVERLAP>  (1) 
775.727

>  <PUBCHEM_SHAPE_VOLUME>  (1) 
231.6

>  <PUBCHEM_COORDINATE_TYPE>  (1) 
2
5
10

$$$$
