12925
     RDKit          3D

 22 24  0  0  0  0  0  0  0  0999 V2000
   -0.7206    2.3100   -0.1061 O   0  0  0  0  0  0  0  0  0  0  0  0
   -0.7432   -2.3161   -0.1053 O   0  0  0  0  0  0  0  0  0  0  0  0
   -2.7627   -1.1930   -0.2242 N   0  0  0  0  0  0  0  0  0  0  0  0
   -2.7509    1.2066   -0.2247 N   0  0  0  0  0  0  0  0  0  0  0  0
   -0.6823   -0.0035   -0.1049 N   0  0  0  0  0  0  0  0  0  0  0  0
   -4.8476    0.0168   -0.3437 C   0  0  0  0  0  0  0  0  0  0  0  0
   -3.3589    0.0097   -0.2592 C   0  0  0  0  0  0  0  0  0  0  0  0
   -5.5077    0.0195    1.0328 C   0  0  0  0  0  0  0  0  0  0  0  0
   -1.4179    1.1141   -0.1480 C   0  0  0  0  0  0  0  0  0  0  0  0
   -1.4240   -1.1219   -0.1472 C   0  0  0  0  0  0  0  0  0  0  0  0
    0.6366    2.2486   -0.0280 C   0  0  0  0  0  0  0  0  0  0  0  0
    0.6314   -2.2545   -0.0262 C   0  0  0  0  0  0  0  0  0  0  0  0
    1.4019    2.2189   -1.1938 C   0  0  0  0  0  0  0  0  0  0  0  0
    1.2625    2.2149    1.2182 C   0  0  0  0  0  0  0  0  0  0  0  0
    1.2404   -2.2213    1.2188 C   0  0  0  0  0  0  0  0  0  0  0  0
    1.3790   -2.2263   -1.1933 C   0  0  0  0  0  0  0  0  0  0  0  0
    2.7930    2.1553   -1.1136 C   0  0  0  0  0  0  0  0  0  0  0  0
    2.6537    2.1515    1.2983 C   0  0  0  0  0  0  0  0  0  0  0  0
    2.6316   -2.1582    1.2986 C   0  0  0  0  0  0  0  0  0  0  0  0
    2.7703   -2.1633   -1.1133 C   0  0  0  0  0  0  0  0  0  0  0  0
    3.4188    2.1216    0.1324 C   0  0  0  0  0  0  0  0  0  0  0  0
    3.3964   -2.1293    0.1327 C   0  0  0  0  0  0  0  0  0  0  0  0
  1  9  1  0
  1 11  1  0
  2 10  1  0
  2 12  1  0
  3  7  2  0
  3 10  1  0
  4  7  1  0
  4  9  2  0
  5  9  1  0
  5 10  2  0
  6  7  1  0
  6  8  1  0
 11 13  2  0
 11 14  1  0
 12 15  2  0
 12 16  1  0
 13 17  1  0
 14 18  2  0
 15 19  1  0
 16 20  2  0
 17 21  2  0
 18 21  1  0
 19 22  2  0
 20 22  1  0
M  END
>  <PUBCHEM_COMPOUND_CID>  (1) 
12925

>  <PUBCHEM_CONFORMER_RMSD>  (1) 
0.8

>  <PUBCHEM_CONFORMER_DIVERSEORDER>  (1) 
1
8
32
13
30
5
33
16
2
34
17
36
3
29
35
37
15
21
31
19
24
6
20
4
22
14
10
9
11
28
27
23
26
7
18
12
25

>  <PUBCHEM_MMFF94_PARTIAL_CHARGES>  (1) 
31
1 -0.17
10 0.7
11 0.08
12 0.08
13 -0.15
14 -0.15
15 -0.15
16 -0.15
17 -0.15
18 -0.15
19 -0.15
2 -0.17
20 -0.15
21 -0.15
22 -0.15
28 0.15
29 0.15
3 -0.62
30 0.15
31 0.15
32 0.15
33 0.15
34 0.15
35 0.15
36 0.15
37 0.15
4 -0.62
5 -0.62
6 0.14
7 0.48
9 0.7

>  <PUBCHEM_EFFECTIVE_ROTOR_COUNT>  (1) 
5

>  <PUBCHEM_PHARMACOPHORE_FEATURES>  (1) 
7
1 8 hydrophobe
3 3 4 7 cation
3 3 5 10 cation
3 4 5 9 cation
6 11 13 14 17 18 21 rings
6 12 15 16 19 20 22 rings
6 3 4 5 7 9 10 rings

>  <PUBCHEM_HEAVY_ATOM_COUNT>  (1) 
22

>  <PUBCHEM_ATOM_DEF_STEREO_COUNT>  (1) 
0

>  <PUBCHEM_ATOM_UDEF_STEREO_COUNT>  (1) 
0

>  <PUBCHEM_BOND_DEF_STEREO_COUNT>  (1) 
0

>  <PUBCHEM_BOND_UDEF_STEREO_COUNT>  (1) 
0

>  <PUBCHEM_ISOTOPIC_ATOM_COUNT>  (1) 
0

>  <PUBCHEM_COMPONENT_COUNT>  (1) 
1

>  <PUBCHEM_CACTVS_TAUTO_COUNT>  (1) 
3

>  <PUBCHEM_CONFORMER_ID>  (1) 
0000327D00000001

>  <PUBCHEM_MMFF94_ENERGY>  (1) 
66.2385

>  <PUBCHEM_FEATURE_SELFOVERLAP>  (1) 
38.308

>  <PUBCHEM_SHAPE_FINGERPRINT>  (1) 
10989021 7 18339923710457939751
1100329 8 18408884044386059002
11680986 33 18335989756870347619
11963148 33 17974281333902287827
12422481 6 18122029140722682344
12592029 89 18262522618884783193
12644460 14 18410584985153520819
13140716 1 18410855486315372787
133893 2 18263104161440671609
14020679 6 17682424467880424721
14022349 108 18410856564393693073
14178342 30 17980748652046554601
14931854 50 18265635229245132166
14955137 171 17767152829114849529
15006816 218 18339077202342192132
16752209 62 17761488496984421887
17492 54 18188793677400172926
20028762 73 17406843255446439671
20600515 1 17689984644848936568
20691752 17 17676762158484199631
20739085 24 18264789704745888329
20905425 154 18413110580326094164
21421861 104 18270133318034393897
22182313 1 18114728357813335573
23352939 185 18059023774202812338
23419403 2 17825078477120169526
23557571 272 17550093767525385326
25147074 1 18201432619665408815
3411729 13 18409733993018147385
350125 39 18338522911544447661
465052 167 17387131077928752025
5104073 3 18338814360046539675
5265222 85 17905616845832720188
5895379 119 16771850753067129745
5939293 188 18340759352348866922
6287921 2 17917143901402550406
6443956 14 18340484461130155896
7364860 26 18343018891239815510
81228 2 17548419198283362827
90525 40 17829325031692644204
9925002 15 17699249391554215526

>  <PUBCHEM_SHAPE_MULTIPOLES>  (1) 
426.07
7.46
3.97
1.23
10.91
0.03
0.14
-0.09
0.88
-4.48
0.04
-0.78
0
0

>  <PUBCHEM_SHAPE_SELFOVERLAP>  (1) 
924.567

>  <PUBCHEM_SHAPE_VOLUME>  (1) 
228.3

>  <PUBCHEM_COORDINATE_TYPE>  (1) 
2
5
10

$$$$
