12928
     RDKit          3D

 13 13  0  0  1  0  0  0  0  0999 V2000
    1.1064   -0.0375   -0.1114 O   0  0  0  0  0  0  0  0  0  0  0  0
    2.3663    0.5795   -0.1274 N   0  0  0  0  0  0  0  0  0  0  0  0
    4.6360    0.0347   -0.1701 N   0  0  0  0  0  0  0  0  0  0  0  0
    3.1345   -1.6886   -0.1583 N   0  0  0  0  0  0  0  0  0  0  0  0
    0.1174    0.9804   -0.0866 C   0  0  0  0  0  0  0  0  0  0  0  0
   -1.2520    0.3438   -0.0689 C   0  0  0  0  0  0  0  0  0  0  0  0
    0.3461    1.8810    1.1221 C   0  0  0  0  0  0  0  0  0  0  0  0
   -1.4231   -0.8818    0.5545 C   0  0  0  0  0  0  0  0  0  0  0  0
   -2.3122    0.9971   -0.6768 C   0  0  0  0  0  0  0  0  0  0  0  0
   -2.6879   -1.4697    0.5707 C   0  0  0  0  0  0  0  0  0  0  0  0
   -3.5770    0.4093   -0.6606 C   0  0  0  0  0  0  0  0  0  0  0  0
   -3.7650   -0.8241   -0.0368 C   0  0  0  0  0  0  0  0  0  0  0  0
    3.3104   -0.3240   -0.1505 C   0  0  0  0  0  0  0  0  0  0  0  0
  1  2  1  0
  1  5  1  0
  2 13  2  3
  3 13  1  0
  4 13  1  0
  5  6  1  0
  5  7  1  0
  6  8  2  0
  6  9  1  0
  8 10  1  0
  9 11  2  0
 10 12  2  0
 11 12  1  0
M  END
>  <PUBCHEM_COMPOUND_CID>  (1) 
12928

>  <PUBCHEM_CONFORMER_RMSD>  (1) 
0.6

>  <PUBCHEM_CONFORMER_DIVERSEORDER>  (1) 
2
13
5
3
7
15
9
11
10
1
8
6
12
4
14

>  <PUBCHEM_MMFF94_PARTIAL_CHARGES>  (1) 
21
1 -0.22
10 -0.15
11 -0.15
12 -0.15
13 0.55
18 0.15
19 0.15
2 -0.51
20 0.15
21 0.15
22 0.15
23 0.4
24 0.4
25 0.4
26 0.4
3 -0.85
4 -0.85
5 0.42
6 -0.14
8 -0.15
9 -0.15

>  <PUBCHEM_EFFECTIVE_ROTOR_COUNT>  (1) 
3

>  <PUBCHEM_PHARMACOPHORE_FEATURES>  (1) 
4
1 3 donor
1 4 donor
4 2 3 4 13 cation
6 6 8 9 10 11 12 rings

>  <PUBCHEM_HEAVY_ATOM_COUNT>  (1) 
13

>  <PUBCHEM_ATOM_DEF_STEREO_COUNT>  (1) 
0

>  <PUBCHEM_ATOM_UDEF_STEREO_COUNT>  (1) 
1

>  <PUBCHEM_BOND_DEF_STEREO_COUNT>  (1) 
0

>  <PUBCHEM_BOND_UDEF_STEREO_COUNT>  (1) 
0

>  <PUBCHEM_ISOTOPIC_ATOM_COUNT>  (1) 
0

>  <PUBCHEM_COMPONENT_COUNT>  (1) 
1

>  <PUBCHEM_CACTVS_TAUTO_COUNT>  (1) 
2

>  <PUBCHEM_CONFORMER_ID>  (1) 
0000328000000002

>  <PUBCHEM_MMFF94_ENERGY>  (1) 
36.2404

>  <PUBCHEM_FEATURE_SELFOVERLAP>  (1) 
20.352

>  <PUBCHEM_SHAPE_FINGERPRINT>  (1) 
10465860 250 18412819183896016160
11543360 7 17386015004490013380
12032990 46 18412829092126923095
12186901 62 17385435510744561063
12251169 10 12103844574788472835
124424 183 18343299267116536965
13296908 3 18342454854817962800
14252887 29 17561092405902843806
14350558 41 18335427863320411294
15219456 202 18267579285492898409
15375358 24 18410852166252405050
18186145 218 13839988828373050748
200 152 18131067130028196718
20201158 50 18410857650651445894
20279233 1 18409731759635120774
20281407 28 18410858784443405016
20281475 54 18339087089446500339
20645476 183 16226040124480903091
20645477 70 18273493485439566926
20671657 53 18412269428198360892
20711985 327 16343704356520778808
20871999 31 17821721745899374845
21061003 4 17989491839709050809
21119208 17 17167579388538379166
21524375 3 8214139646794259744
22485316 2 18413386544643641766
23402539 116 18040988536253183829
23403322 49 18410856521191254046
23559900 14 18337102389860355864
3312278 4 18410014312490185418
7364860 26 18118407486227296844
81228 2 17843420495830481296
93112 12 18113900480690295428
9709674 26 18334300863818103258

>  <PUBCHEM_SHAPE_MULTIPOLES>  (1) 
246.72
7.47
1.58
0.83
5.29
0.02
0.11
-2.33
-1.22
-0.08
0.34
-0.27
0.19
0.6

>  <PUBCHEM_SHAPE_SELFOVERLAP>  (1) 
503.276

>  <PUBCHEM_SHAPE_VOLUME>  (1) 
143.4

>  <PUBCHEM_COORDINATE_TYPE>  (1) 
2
5
10

$$$$
