12923
     RDKit          3D

 22 22  0  0  0  0  0  0  0  0999 V2000
   -1.2375    3.0310   -0.9610 I   0  0  0  0  0  0  0  0  0  0  0  0
   -1.4773   -3.0420   -0.5246 I   0  0  0  0  0  0  0  0  0  0  0  0
    3.8889   -0.1633   -0.0817 I   0  0  0  0  0  0  0  0  0  0  0  0
    1.7859   -2.9072    1.1542 O   0  0  0  0  0  0  0  0  0  0  0  0
    2.1582   -3.2536   -1.0908 O   0  0  0  0  0  0  0  0  0  0  0  0
   -5.3496    0.0881   -0.4673 O   0  0  0  0  0  0  0  0  0  0  0  0
    1.8882    2.9537    1.7489 O   0  0  0  0  0  0  0  0  0  0  0  0
   -3.1754    0.1447    0.3657 N   0  0  0  0  0  0  0  0  0  0  0  0
    1.8750    2.3140   -0.5185 N   0  0  0  0  0  0  0  0  0  0  0  0
   -0.9894   -0.0174   -0.6970 C   0  0  0  0  0  0  0  0  0  0  0  0
   -2.4774    0.0278   -0.8854 C   0  0  0  0  0  0  0  0  0  0  0  0
    1.1328    1.1239   -0.5198 C   0  0  0  0  0  0  0  0  0  0  0  0
   -0.2505    1.1658   -0.6952 C   0  0  0  0  0  0  0  0  0  0  0  0
   -0.3452   -1.2424   -0.5234 C   0  0  0  0  0  0  0  0  0  0  0  0
    1.0379   -1.2842   -0.3481 C   0  0  0  0  0  0  0  0  0  0  0  0
    1.7769   -0.1012   -0.3463 C   0  0  0  0  0  0  0  0  0  0  0  0
    1.7135   -2.5700   -0.1661 C   0  0  0  0  0  0  0  0  0  0  0  0
   -4.5599    0.1651    0.4703 C   0  0  0  0  0  0  0  0  0  0  0  0
    2.1934    3.1251    0.5731 C   0  0  0  0  0  0  0  0  0  0  0  0
   -5.0285    0.2699    1.8968 C   0  0  0  0  0  0  0  0  0  0  0  0
    3.0113    4.3209    0.1540 C   0  0  0  0  0  0  0  0  0  0  0  0
    2.4289   -4.1486    1.4622 C   0  0  0  0  0  0  0  0  0  0  0  0
  1 13  1  0
  2 14  1  0
  3 16  1  0
  4 17  1  0
  4 22  1  0
  5 17  2  0
  6 18  2  0
  7 19  2  0
  8 11  1  0
  8 18  1  0
  9 12  1  0
  9 19  1  0
 10 11  1  0
 10 13  2  0
 10 14  1  0
 12 13  1  0
 12 16  2  0
 14 15  2  0
 15 16  1  0
 15 17  1  0
 18 20  1  0
 19 21  1  0
M  END
>  <PUBCHEM_COMPOUND_CID>  (1) 
12923

>  <PUBCHEM_CONFORMER_RMSD>  (1) 
0.8

>  <PUBCHEM_CONFORMER_DIVERSEORDER>  (1) 
1
15
10
14
4
11
3
7
9
5
12
13
2
16
8
6

>  <PUBCHEM_MMFF94_PARTIAL_CHARGES>  (1) 
24
1 -0.08
10 -0.14
11 0.44
12 0.12
13 0.08
14 0.08
15 0.09
16 0.08
17 0.63
18 0.57
19 0.57
2 -0.08
20 0.06
21 0.06
22 0.28
25 0.37
26 0.37
3 -0.08
4 -0.43
5 -0.57
6 -0.57
7 -0.57
8 -0.73
9 -0.55

>  <PUBCHEM_EFFECTIVE_ROTOR_COUNT>  (1) 
7

>  <PUBCHEM_PHARMACOPHORE_FEATURES>  (1) 
9
1 1 hydrophobe
1 2 hydrophobe
1 3 hydrophobe
1 5 acceptor
1 6 acceptor
1 7 acceptor
1 8 donor
1 9 donor
6 10 12 13 14 15 16 rings

>  <PUBCHEM_HEAVY_ATOM_COUNT>  (1) 
22

>  <PUBCHEM_ATOM_DEF_STEREO_COUNT>  (1) 
0

>  <PUBCHEM_ATOM_UDEF_STEREO_COUNT>  (1) 
0

>  <PUBCHEM_BOND_DEF_STEREO_COUNT>  (1) 
0

>  <PUBCHEM_BOND_UDEF_STEREO_COUNT>  (1) 
0

>  <PUBCHEM_ISOTOPIC_ATOM_COUNT>  (1) 
0

>  <PUBCHEM_COMPONENT_COUNT>  (1) 
1

>  <PUBCHEM_CACTVS_TAUTO_COUNT>  (1) 
4

>  <PUBCHEM_CONFORMER_ID>  (1) 
0000327B00000001

>  <PUBCHEM_MMFF94_ENERGY>  (1) 
94.3774

>  <PUBCHEM_FEATURE_SELFOVERLAP>  (1) 
45.671

>  <PUBCHEM_SHAPE_FINGERPRINT>  (1) 
10382601 240 18411989091303561609
10411042 1 18051412868457655759
10967382 1 18410009922891288326
1100329 8 18339641239275741194
12390115 104 17837226130734801901
12553582 1 18339069407071677678
12633257 1 18195509597222879464
12788726 201 17398686600869186075
13140716 1 18264765639611105310
13583140 156 16156204707530116613
13878862 14 18339069386420306629
14178342 30 18123185977062653277
14790565 3 18191877922932198948
14955137 171 18341342102059753646
15475509 84 18052834546104713417
16945 1 18338220614154232142
18785283 64 18336270149241129332
19591789 44 18265332987616371262
20510252 161 16542116401325955920
20739085 24 18188496898711824533
21041028 32 18124314895941114814
21796203 349 18121810264509903251
22182313 1 18193830436523485702
2334 1 17977376462921821174
23419403 2 17824801400437811887
23558518 356 17905610260908838046
2748010 2 18120649395052422910
283562 15 16393224904321530972
31174 14 18410014295436910381
3178227 256 18336560377413696800
350125 39 18123472945149626238
352729 6 16896235617014257094
394222 165 18200882867291673075
474 4 18270960270894997697
58807428 26 18193821855289773200
81228 2 16970537821254062366
9999458 23 18409450318833513132

>  <PUBCHEM_SHAPE_MULTIPOLES>  (1) 
455.12
7.44
5.67
1.32
9.69
0.41
0.51
-1.63
2.68
-6.06
0.97
0.49
0.06
-0.02

>  <PUBCHEM_SHAPE_SELFOVERLAP>  (1) 
875.628

>  <PUBCHEM_SHAPE_VOLUME>  (1) 
286.4

>  <PUBCHEM_COORDINATE_TYPE>  (1) 
2
5
10

$$$$
