12920
     RDKit          3D

 21 23  0  0  0  0  0  0  0  0999 V2000
   -0.9783    2.3135    0.0010 O   0  0  0  0  0  0  0  0  0  0  0  0
   -1.0133   -2.3124    0.0010 O   0  0  0  0  0  0  0  0  0  0  0  0
   -0.9462    0.0000   -0.0010 N   0  0  0  0  0  0  0  0  0  0  0  0
   -3.0333   -1.1839   -0.0004 N   0  0  0  0  0  0  0  0  0  0  0  0
   -3.0150    1.2156   -0.0005 N   0  0  0  0  0  0  0  0  0  0  0  0
    0.3810    2.2485    0.0005 C   0  0  0  0  0  0  0  0  0  0  0  0
    0.3638   -2.2545    0.0006 C   0  0  0  0  0  0  0  0  0  0  0  0
   -1.6800    1.1195   -0.0011 C   0  0  0  0  0  0  0  0  0  0  0  0
   -1.6921   -1.1164   -0.0009 C   0  0  0  0  0  0  0  0  0  0  0  0
   -3.6272    0.0204   -0.0004 C   0  0  0  0  0  0  0  0  0  0  0  0
    1.0776    2.2175   -1.2076 C   0  0  0  0  0  0  0  0  0  0  0  0
    1.0778    2.2124    1.2084 C   0  0  0  0  0  0  0  0  0  0  0  0
    1.0438   -2.2237    1.2083 C   0  0  0  0  0  0  0  0  0  0  0  0
    1.0427   -2.2277   -1.2078 C   0  0  0  0  0  0  0  0  0  0  0  0
    2.4708    2.1501   -1.2080 C   0  0  0  0  0  0  0  0  0  0  0  0
    2.4711    2.1452    1.2080 C   0  0  0  0  0  0  0  0  0  0  0  0
    2.4375   -2.1643    1.2076 C   0  0  0  0  0  0  0  0  0  0  0  0
    2.4364   -2.1684   -1.2083 C   0  0  0  0  0  0  0  0  0  0  0  0
    3.1675    2.1140   -0.0003 C   0  0  0  0  0  0  0  0  0  0  0  0
    3.1337   -2.1368   -0.0006 C   0  0  0  0  0  0  0  0  0  0  0  0
   -5.1183    0.0315    0.0014 C   0  0  0  0  0  0  0  0  0  0  0  0
  1  6  1  0
  1  8  1  0
  2  7  1  0
  2  9  1  0
  3  8  2  0
  3  9  1  0
  4  9  2  0
  4 10  1  0
  5  8  1  0
  5 10  2  0
  6 11  2  0
  6 12  1  0
  7 13  2  0
  7 14  1  0
 10 21  1  0
 11 15  1  0
 12 16  2  0
 13 17  1  0
 14 18  2  0
 15 19  2  0
 16 19  1  0
 17 20  2  0
 18 20  1  0
M  END
>  <PUBCHEM_COMPOUND_CID>  (1) 
12920

>  <PUBCHEM_CONFORMER_RMSD>  (1) 
0.6

>  <PUBCHEM_CONFORMER_DIVERSEORDER>  (1) 
1
39
23
27
68
52
28
2
66
55
22
45
56
72
50
62
29
42
48
43
53
37
44
14
69
58
15
61
21
4
16
47
35
41
34
71
60
10
67
5
9
64
32
33
40
12
31
51
38
3
17
13
63
25
36
18
26
65
73
54
20
74
19
57
49
11
24
59
46
30
7
70
6
8

>  <PUBCHEM_MMFF94_PARTIAL_CHARGES>  (1) 
31
1 -0.17
10 0.48
11 -0.15
12 -0.15
13 -0.15
14 -0.15
15 -0.15
16 -0.15
17 -0.15
18 -0.15
19 -0.15
2 -0.17
20 -0.15
21 0.14
22 0.15
23 0.15
24 0.15
25 0.15
26 0.15
27 0.15
28 0.15
29 0.15
3 -0.62
30 0.15
31 0.15
4 -0.62
5 -0.62
6 0.08
7 0.08
8 0.7
9 0.7

>  <PUBCHEM_EFFECTIVE_ROTOR_COUNT>  (1) 
4

>  <PUBCHEM_PHARMACOPHORE_FEATURES>  (1) 
6
3 3 4 9 cation
3 3 5 8 cation
3 4 5 10 cation
6 3 4 5 8 9 10 rings
6 6 11 12 15 16 19 rings
6 7 13 14 17 18 20 rings

>  <PUBCHEM_HEAVY_ATOM_COUNT>  (1) 
21

>  <PUBCHEM_ATOM_DEF_STEREO_COUNT>  (1) 
0

>  <PUBCHEM_ATOM_UDEF_STEREO_COUNT>  (1) 
0

>  <PUBCHEM_BOND_DEF_STEREO_COUNT>  (1) 
0

>  <PUBCHEM_BOND_UDEF_STEREO_COUNT>  (1) 
0

>  <PUBCHEM_ISOTOPIC_ATOM_COUNT>  (1) 
0

>  <PUBCHEM_COMPONENT_COUNT>  (1) 
1

>  <PUBCHEM_CACTVS_TAUTO_COUNT>  (1) 
1

>  <PUBCHEM_CONFORMER_ID>  (1) 
0000327800000001

>  <PUBCHEM_MMFF94_ENERGY>  (1) 
68.0784

>  <PUBCHEM_FEATURE_SELFOVERLAP>  (1) 
33.234

>  <PUBCHEM_SHAPE_FINGERPRINT>  (1) 
10498660 4 17761778364411891478
10989021 7 18339923710563454267
1100329 8 17909841929151156217
11578080 2 17386830743180692631
11680986 33 18336271227604812587
12422481 6 18193807454596564440
12592029 89 18191311678965097819
13140716 1 18410579448977690451
133893 2 18263103062087253929
14022349 108 18410860962482408793
14790565 3 16972246462366941544
14931854 50 18265354853653494190
14955137 171 17695098529417103497
15006816 218 18339361975711361260
16752209 62 17761490696160651711
17093844 170 18337956795957419340
17357779 13 17981304717056383965
17492 54 18188794772506063606
19591789 44 17041479986706189595
20600515 1 17690548702750952560
20645476 183 17318736046710643068
20691752 17 17603868888538231177
20715895 44 15661399843219433484
20905425 154 18413113878660523884
21421861 104 18197517159199450641
23419403 2 17897418645614728870
23557571 272 17622437243134336526
23728640 28 17618775203920252176
2748010 2 18263913376423953269
350125 39 18193845843157381393
5895379 119 16771286695107169561
5939293 188 18340200778835179962
59755656 215 18121216743569884831
6443956 14 18340484448334957297
7364860 26 18342739615312734085
81228 2 17619638981662030187
90525 40 17901667399094486048
9925002 15 17771309184504655151

>  <PUBCHEM_SHAPE_MULTIPOLES>  (1) 
405.49
6.15
4.14
1.19
7.32
0.05
0
-0.11
0
-3.71
0
-1.01
0
0

>  <PUBCHEM_SHAPE_SELFOVERLAP>  (1) 
885.953

>  <PUBCHEM_SHAPE_VOLUME>  (1) 
214.9

>  <PUBCHEM_COORDINATE_TYPE>  (1) 
2
5
10

$$$$
