12926
     RDKit          3D

 22 23  0  0  0  0  0  0  0  0999 V2000
    4.2016    0.3701   -1.7917 O   0  0  0  0  0  0  0  0  0  0  0  0
   -3.8644    0.4848    1.7999 O   0  0  0  0  0  0  0  0  0  0  0  0
    5.2871   -2.7905    0.8217 N   0  0  0  0  0  0  0  0  0  0  0  0
   -5.0932   -2.5516   -0.8959 N   0  0  0  0  0  0  0  0  0  0  0  0
    3.7486    1.7494    0.0198 N   0  0  0  0  0  0  0  0  0  0  0  0
   -3.3441    1.8880    0.0253 N   0  0  0  0  0  0  0  0  0  0  0  0
    5.2202   -4.1411    0.2786 C   0  0  0  0  0  0  0  0  0  0  0  0
    4.1231   -3.6036    1.1503 C   0  0  0  0  0  0  0  0  0  0  0  0
   -6.5190   -2.4630   -1.1838 C   0  0  0  0  0  0  0  0  0  0  0  0
   -5.9642   -3.5935   -0.3674 C   0  0  0  0  0  0  0  0  0  0  0  0
    4.9567   -1.8050   -0.2001 C   0  0  0  0  0  0  0  0  0  0  0  0
   -4.7183   -1.6099    0.1515 C   0  0  0  0  0  0  0  0  0  0  0  0
    4.5172   -0.4961    0.4476 C   0  0  0  0  0  0  0  0  0  0  0  0
   -4.2168   -0.3066   -0.4615 C   0  0  0  0  0  0  0  0  0  0  0  0
    0.9480    2.8915    0.1895 C   0  0  0  0  0  0  0  0  0  0  0  0
   -0.5429    2.9691   -0.1483 C   0  0  0  0  0  0  0  0  0  0  0  0
    1.8552    2.9151   -1.0462 C   0  0  0  0  0  0  0  0  0  0  0  0
   -1.3998    2.9343    1.1218 C   0  0  0  0  0  0  0  0  0  0  0  0
    4.1479    0.5595   -0.5795 C   0  0  0  0  0  0  0  0  0  0  0  0
   -3.7998    0.7033    0.5932 C   0  0  0  0  0  0  0  0  0  0  0  0
    3.3510    2.8987   -0.7453 C   0  0  0  0  0  0  0  0  0  0  0  0
   -2.8939    2.9971    0.8206 C   0  0  0  0  0  0  0  0  0  0  0  0
  1 19  2  0
  2 20  2  0
  3  7  1  0
  3  8  1  0
  3 11  1  0
  4  9  1  0
  4 10  1  0
  4 12  1  0
  5 19  1  0
  5 21  1  0
  6 20  1  0
  6 22  1  0
  7  8  1  0
  9 10  1  0
 11 13  1  0
 12 14  1  0
 13 19  1  0
 14 20  1  0
 15 16  1  0
 15 17  1  0
 16 18  1  0
 17 21  1  0
 18 22  1  0
M  END
>  <PUBCHEM_COMPOUND_CID>  (1) 
12926

>  <PUBCHEM_CONFORMER_RMSD>  (1) 
1.2

>  <PUBCHEM_CONFORMER_DIVERSEORDER>  (1) 
1
78
6
9
142
64
19
76
110
4
91
22
120
58
20
26
141
108
84
94
10
61
29
106
147
88
56
99
36
140
127
145
30
131
54
123
109
63
32
24
87
79
129
115
86
51
48
65
49
83
122
3
31
75
130
96
18
102
77
85
93
97
107
52
46
116
40
117
12
89
59
133
13
80
11
132
16
37
69
148
44
121
105
143
135
45
125
23
95
38
72
90
139
92
124
17
27
113
66
146
21
33
136
25
57
112
43
137
53
5
14
100
42
55
119
138
128
62
101
7
98
8
118
67
144
34
71
28
70
15
114
68
104
126
60
2
134
111
81
82
47
41
35
39
74
73
50
103

>  <PUBCHEM_MMFF94_PARTIAL_CHARGES>  (1) 
28
1 -0.57
10 -0.04
11 0.27
12 0.27
13 0.06
14 0.06
19 0.57
2 -0.57
20 0.57
21 0.3
22 0.3
23 0.1
24 0.1
25 0.1
26 0.1
27 0.1
28 0.1
29 0.1
3 -0.59
30 0.1
4 -0.59
5 -0.73
51 0.37
52 0.37
6 -0.73
7 -0.04
8 -0.04
9 -0.04

>  <PUBCHEM_EFFECTIVE_ROTOR_COUNT>  (1) 
16.2

>  <PUBCHEM_PHARMACOPHORE_FEATURES>  (1) 
7
1 1 acceptor
1 2 acceptor
1 3 cation
1 4 cation
1 5 donor
1 6 donor
4 15 16 17 18 hydrophobe

>  <PUBCHEM_HEAVY_ATOM_COUNT>  (1) 
22

>  <PUBCHEM_ATOM_DEF_STEREO_COUNT>  (1) 
0

>  <PUBCHEM_ATOM_UDEF_STEREO_COUNT>  (1) 
0

>  <PUBCHEM_BOND_DEF_STEREO_COUNT>  (1) 
0

>  <PUBCHEM_BOND_UDEF_STEREO_COUNT>  (1) 
0

>  <PUBCHEM_ISOTOPIC_ATOM_COUNT>  (1) 
0

>  <PUBCHEM_COMPONENT_COUNT>  (1) 
1

>  <PUBCHEM_CACTVS_TAUTO_COUNT>  (1) 
3

>  <PUBCHEM_CONFORMER_ID>  (1) 
0000327E00000001

>  <PUBCHEM_MMFF94_ENERGY>  (1) 
21.9062

>  <PUBCHEM_FEATURE_SELFOVERLAP>  (1) 
35.52

>  <PUBCHEM_SHAPE_FINGERPRINT>  (1) 
10448021 39 18339070605636552439
10622 236 18410852148877259639
11069576 57 18262241148039866940
12174731 88 18120653522347559346
13885169 86 8718561523096612455
14480069 147 18335142046305987011
15728490 83 18408613556605390611
19303781 99 17605564249875248450
20621476 51 18338799996605412216
20843269 155 18412543197829357398
21049683 118 15261471326732591609
21585483 132 17197683111571822783
25222932 49 18411986879933403652
3246872 21 18046625599526154634
325973 47 18335709342540095554
7970288 3 18268708497256953731

>  <PUBCHEM_SHAPE_MULTIPOLES>  (1) 
421.09
17.62
6.65
1.25
8.07
2.94
0.01
23.16
-2.15
-2.37
0.52
0.14
-0.09
-4.64

>  <PUBCHEM_SHAPE_SELFOVERLAP>  (1) 
810.279

>  <PUBCHEM_SHAPE_VOLUME>  (1) 
257.9

>  <PUBCHEM_COORDINATE_TYPE>  (1) 
2
5
10

$$$$
