12931
     RDKit          3D

 23 25  0  0  0  0  0  0  0  0999 V2000
   -3.3490   -0.9485   -0.4719 O   0  0  0  0  0  0  0  0  0  0  0  0
   -0.6844    2.7573   -0.3476 O   0  0  0  0  0  0  0  0  0  0  0  0
   -4.4460    1.2911    1.4163 O   0  0  0  0  0  0  0  0  0  0  0  0
    5.4427    0.6872    0.2016 O   0  0  0  0  0  0  0  0  0  0  0  0
   -0.1367    0.4356   -0.1930 N   0  0  0  0  0  0  0  0  0  0  0  0
   -2.2767    1.1017   -0.4595 N   0  0  0  0  0  0  0  0  0  0  0  0
   -0.9207   -0.8220   -0.1454 C   0  0  0  0  0  0  0  0  0  0  0  0
   -0.6075   -1.7759   -1.3205 C   0  0  0  0  0  0  0  0  0  0  0  0
   -0.9373   -1.4558    1.2658 C   0  0  0  0  0  0  0  0  0  0  0  0
   -1.2014   -3.1753   -1.1642 C   0  0  0  0  0  0  0  0  0  0  0  0
   -1.5168   -2.8693    1.3067 C   0  0  0  0  0  0  0  0  0  0  0  0
   -0.9357   -3.7582    0.2165 C   0  0  0  0  0  0  0  0  0  0  0  0
   -2.3370   -0.2626   -0.3853 C   0  0  0  0  0  0  0  0  0  0  0  0
   -0.9828    1.5691   -0.3367 C   0  0  0  0  0  0  0  0  0  0  0  0
    1.3034    0.5010   -0.0906 C   0  0  0  0  0  0  0  0  0  0  0  0
   -3.4246    1.9696   -0.6465 C   0  0  0  0  0  0  0  0  0  0  0  0
    1.9535    1.7361   -0.1305 C   0  0  0  0  0  0  0  0  0  0  0  0
    2.0493   -0.6715    0.0471 C   0  0  0  0  0  0  0  0  0  0  0  0
   -4.0021    2.4243    0.6814 C   0  0  0  0  0  0  0  0  0  0  0  0
    3.3435    1.7986   -0.0332 C   0  0  0  0  0  0  0  0  0  0  0  0
    3.4395   -0.6090    0.1445 C   0  0  0  0  0  0  0  0  0  0  0  0
    4.0866    0.6262    0.1045 C   0  0  0  0  0  0  0  0  0  0  0  0
    6.1403   -0.5497    0.3404 C   0  0  0  0  0  0  0  0  0  0  0  0
  1 13  2  0
  2 14  2  0
  3 19  1  0
  4 22  1  0
  4 23  1  0
  5  7  1  0
  5 14  1  0
  5 15  1  0
  6 13  1  0
  6 14  1  0
  6 16  1  0
  7  8  1  0
  7  9  1  0
  7 13  1  0
  8 10  1  0
  9 11  1  0
 10 12  1  0
 11 12  1  0
 15 17  2  0
 15 18  1  0
 16 19  1  0
 17 20  1  0
 18 21  2  0
 20 22  2  0
 21 22  1  0
M  END
>  <PUBCHEM_COMPOUND_CID>  (1) 
12931

>  <PUBCHEM_CONFORMER_RMSD>  (1) 
0.8

>  <PUBCHEM_CONFORMER_DIVERSEORDER>  (1) 
1
8
6
7
3
4
5
2

>  <PUBCHEM_MMFF94_PARTIAL_CHARGES>  (1) 
23
1 -0.57
13 0.57
14 0.69
15 0.12
16 0.3
17 -0.15
18 -0.15
19 0.28
2 -0.57
20 -0.15
21 -0.15
22 0.08
23 0.28
3 -0.68
36 0.15
37 0.15
4 -0.36
40 0.15
41 0.15
42 0.4
5 -0.48
6 -0.42
7 0.36

>  <PUBCHEM_EFFECTIVE_ROTOR_COUNT>  (1) 
5.4

>  <PUBCHEM_PHARMACOPHORE_FEATURES>  (1) 
8
1 1 acceptor
1 2 acceptor
1 3 acceptor
1 3 donor
1 4 acceptor
5 5 6 7 13 14 rings
6 15 17 18 20 21 22 rings
6 7 8 9 10 11 12 rings

>  <PUBCHEM_HEAVY_ATOM_COUNT>  (1) 
23

>  <PUBCHEM_ATOM_DEF_STEREO_COUNT>  (1) 
0

>  <PUBCHEM_ATOM_UDEF_STEREO_COUNT>  (1) 
0

>  <PUBCHEM_BOND_DEF_STEREO_COUNT>  (1) 
0

>  <PUBCHEM_BOND_UDEF_STEREO_COUNT>  (1) 
0

>  <PUBCHEM_ISOTOPIC_ATOM_COUNT>  (1) 
0

>  <PUBCHEM_COMPONENT_COUNT>  (1) 
1

>  <PUBCHEM_CACTVS_TAUTO_COUNT>  (1) 
1

>  <PUBCHEM_CONFORMER_ID>  (1) 
0000328300000001

>  <PUBCHEM_MMFF94_ENERGY>  (1) 
67.31

>  <PUBCHEM_FEATURE_SELFOVERLAP>  (1) 
40.603

>  <PUBCHEM_SHAPE_FINGERPRINT>  (1) 
10382601 240 17979930315217283537
10411042 1 17833829748086046862
10493431 412 18340491075685552057
10616163 171 18337669823665136830
10906281 52 18200889396011578572
11405975 8 18410852205387327928
12553582 1 17543919356884608870
12616971 3 17095237043539976972
12788726 201 18267286815574308059
13004483 165 17910105051410941967
13140716 1 18337675338260661736
13257819 101 16589973937868338573
13583140 156 16443336568370049685
138480 1 17257367445135424934
14790565 3 18267309733467305232
14866123 147 18409447011693384051
15042514 8 18335986462250506411
15196674 1 18410570708714325356
15309172 13 18337955588928969777
16945 1 18192998346934443805
19591789 44 18409730634432726035
20028762 73 18271812367417708639
20681677 155 18410006629337096432
20739085 24 17974589999704538632
20905425 154 17115225863330588614
21065198 57 18339357578414150904
21267235 1 18408888472834295150
21524375 3 18410852127703136093
21731228 192 18410300177102846585
221490 88 18192150623912682960
22224240 67 18340493283847453217
2334 1 18410289229278896341
23402539 116 18343010108121580757
23557571 272 18200600306062893132
23558518 356 17970912395734649632
23559900 14 18342731932671718408
23598288 3 18267308810227990086
23728640 28 18410570716813669042
335352 9 18410571748038317652
3411729 13 17980486663927627945
5104073 3 18337947991691019200
559249 180 18336818711597311138
58807428 26 18337955576049050547
6138700 20 17907298746040208350
7226269 152 18131348566783303624
7364860 26 17834956369805091583
81228 2 18047737476253466441
8809292 202 18261670488920439426
9709674 26 18412545435903100702

>  <PUBCHEM_SHAPE_MULTIPOLES>  (1) 
439.89
8.8
3.74
1.05
11.94
2.34
-0.11
-4.22
-1.71
-3.57
-0.02
-0.82
0.48
-0.36

>  <PUBCHEM_SHAPE_SELFOVERLAP>  (1) 
935.733

>  <PUBCHEM_SHAPE_VOLUME>  (1) 
243.7

>  <PUBCHEM_COORDINATE_TYPE>  (1) 
2
5
10

$$$$
