12937
     RDKit          3D

 24 26  0  0  0  0  0  0  0  0999 V2000
    2.1392    2.0397    1.4555 O   0  0  0  0  0  0  0  0  0  0  0  0
   -2.1710    1.5565    1.5881 O   0  0  0  0  0  0  0  0  0  0  0  0
    0.2503   -1.3210   -1.1919 O   0  0  0  0  0  0  0  0  0  0  0  0
    1.3282    0.2254    0.1874 N   0  0  0  0  0  0  0  0  0  0  0  0
   -1.0579   -0.0413    0.2594 N   0  0  0  0  0  0  0  0  0  0  0  0
   -0.0836    2.1574    0.6279 C   0  0  0  0  0  0  0  0  0  0  0  0
    1.2523    1.4859    0.8061 C   0  0  0  0  0  0  0  0  0  0  0  0
   -1.2249    1.2085    0.8819 C   0  0  0  0  0  0  0  0  0  0  0  0
   -0.1967    2.7865   -0.7568 C   0  0  0  0  0  0  0  0  0  0  0  0
    0.1831   -0.4758   -0.2914 C   0  0  0  0  0  0  0  0  0  0  0  0
    2.6290   -0.3830    0.0036 C   0  0  0  0  0  0  0  0  0  0  0  0
   -2.2015   -0.9220    0.1481 C   0  0  0  0  0  0  0  0  0  0  0  0
   -1.4929    3.5187   -0.9159 C   0  0  0  0  0  0  0  0  0  0  0  0
    3.7467    0.4245   -0.1709 C   0  0  0  0  0  0  0  0  0  0  0  0
   -3.4778   -0.3813    0.0459 C   0  0  0  0  0  0  0  0  0  0  0  0
    2.7467   -1.7678    0.0041 C   0  0  0  0  0  0  0  0  0  0  0  0
   -2.0111   -2.2988    0.1440 C   0  0  0  0  0  0  0  0  0  0  0  0
    5.0001   -0.1613   -0.3477 C   0  0  0  0  0  0  0  0  0  0  0  0
   -4.5798   -1.2297   -0.0617 C   0  0  0  0  0  0  0  0  0  0  0  0
    4.0002   -2.3535   -0.1726 C   0  0  0  0  0  0  0  0  0  0  0  0
   -3.1132   -3.1470    0.0361 C   0  0  0  0  0  0  0  0  0  0  0  0
    5.1269   -1.5502   -0.3484 C   0  0  0  0  0  0  0  0  0  0  0  0
   -4.3975   -2.6124   -0.0667 C   0  0  0  0  0  0  0  0  0  0  0  0
   -2.3947    3.2421   -1.8644 C   0  0  0  0  0  0  0  0  0  0  0  0
  1  7  2  0
  2  8  2  0
  3 10  2  0
  4  7  1  0
  4 10  1  0
  4 11  1  0
  5  8  1  0
  5 10  1  0
  5 12  1  0
  6  7  1  0
  6  8  1  0
  6  9  1  0
  9 13  1  0
 11 14  2  0
 11 16  1  0
 12 15  2  0
 12 17  1  0
 13 24  2  0
 14 18  1  0
 15 19  1  0
 16 20  2  0
 17 21  2  0
 18 22  2  0
 19 23  2  0
 20 22  1  0
 21 23  1  0
M  END
>  <PUBCHEM_COMPOUND_CID>  (1) 
12937

>  <PUBCHEM_CONFORMER_RMSD>  (1) 
0.8

>  <PUBCHEM_CONFORMER_DIVERSEORDER>  (1) 
1
10
6
8
11
3
9
5
12
7
4
2

>  <PUBCHEM_MMFF94_PARTIAL_CHARGES>  (1) 
37
1 -0.57
10 0.69
11 0.12
12 0.12
13 -0.29
14 -0.15
15 -0.15
16 -0.15
17 -0.15
18 -0.15
19 -0.15
2 -0.57
20 -0.15
21 -0.15
22 -0.15
23 -0.15
24 -0.3
28 0.15
29 0.15
3 -0.57
30 0.15
31 0.15
32 0.15
33 0.15
34 0.15
35 0.15
36 0.15
37 0.15
38 0.15
39 0.15
4 -0.24
40 0.15
5 -0.24
6 0.12
7 0.57
8 0.57
9 0.14

>  <PUBCHEM_EFFECTIVE_ROTOR_COUNT>  (1) 
4.6

>  <PUBCHEM_PHARMACOPHORE_FEATURES>  (1) 
8
1 1 acceptor
1 2 acceptor
1 24 hydrophobe
1 3 acceptor
1 6 anion
6 11 14 16 18 20 22 rings
6 12 15 17 19 21 23 rings
6 4 5 6 7 8 10 rings

>  <PUBCHEM_HEAVY_ATOM_COUNT>  (1) 
24

>  <PUBCHEM_ATOM_DEF_STEREO_COUNT>  (1) 
0

>  <PUBCHEM_ATOM_UDEF_STEREO_COUNT>  (1) 
0

>  <PUBCHEM_BOND_DEF_STEREO_COUNT>  (1) 
0

>  <PUBCHEM_BOND_UDEF_STEREO_COUNT>  (1) 
0

>  <PUBCHEM_ISOTOPIC_ATOM_COUNT>  (1) 
0

>  <PUBCHEM_COMPONENT_COUNT>  (1) 
1

>  <PUBCHEM_CACTVS_TAUTO_COUNT>  (1) 
1

>  <PUBCHEM_CONFORMER_ID>  (1) 
0000328900000001

>  <PUBCHEM_MMFF94_ENERGY>  (1) 
94.6176

>  <PUBCHEM_FEATURE_SELFOVERLAP>  (1) 
40.597

>  <PUBCHEM_SHAPE_FINGERPRINT>  (1) 
10688039 33 18334016111712403975
11045515 52 18261394489842317525
11578080 2 18339349808665896800
12293681 25 18124843915663798165
12403259 226 18412821408414567323
12403814 3 18191039923004031881
12553582 1 18409157835761125347
12633257 1 17988096499397499995
12788726 201 18186514376093311274
13004483 165 18410285917479621131
13134695 92 17772748506050755233
13140716 1 18131075913320986480
138480 1 15383874256440672965
14790565 3 17764314942227992489
14866123 147 18126291844061148747
15352361 1 18341614849372826874
16752209 62 18191290598791062971
17357779 13 18340753910456628205
17492 89 17979635968134721183
1813 80 18189048866491443785
20600515 1 18128838454677311079
20602899 9 17979627936223728185
20775438 99 17906126855095864893
21049683 271 18118977033255298420
21267235 1 18270411584396363834
221490 88 18049447238062049179
22182313 1 18199163201194554128
22907989 373 18336543820098876500
23402539 116 18343300358117611351
23419403 2 17773853407356410745
23559900 14 18268705185510316083
3004659 81 18260547840330726750
335352 9 18342461443952065623
3421961 26 18198904893049554298
350125 39 18342458183992968080
4409770 3 18191019006913882621
46194498 28 17536299677296038399
5104073 3 18131355210918180890
57262259 84 18408038494522233117
7164475 11 18334018272513334364
7237137 82 18336275548352455764
9709674 26 17903635533999839107

>  <PUBCHEM_SHAPE_MULTIPOLES>  (1) 
466.34
8.84
4.18
1.1
5.78
1.92
-0.01
-7.41
-1.02
-3.54
-1.07
-0.33
0.94
1.04

>  <PUBCHEM_SHAPE_SELFOVERLAP>  (1) 
1015.349

>  <PUBCHEM_SHAPE_VOLUME>  (1) 
250.3

>  <PUBCHEM_COORDINATE_TYPE>  (1) 
2
5
10

$$$$
