12933
     RDKit          3D

 23 25  0  0  1  0  0  0  0  0999 V2000
   -3.9817    2.9401   -0.2506 Cl  0  0  0  0  0  0  0  0  0  0  0  0
    0.3409   -1.5908   -0.4239 S   0  0  0  0  0  0  0  0  0  0  0  0
   -4.8740   -0.1910   -0.7695 S   0  0  0  0  0  0  0  0  0  0  0  0
    0.6842   -1.8001   -1.8163 O   0  0  0  0  0  0  0  0  0  0  0  0
   -0.1516   -2.6686    0.4105 O   0  0  0  0  0  0  0  0  0  0  0  0
   -6.6898   -0.9462    0.8667 O   0  0  0  0  0  0  0  0  0  0  0  0
   -4.4833   -1.5436    1.3544 O   0  0  0  0  0  0  0  0  0  0  0  0
    1.6453   -0.8373    0.3834 N   0  0  0  0  0  0  0  0  0  0  0  0
    0.8538    1.4339    0.0297 N   0  0  0  0  0  0  0  0  0  0  0  0
   -5.3129   -0.4941    0.7952 N   0  0  0  0  0  0  0  0  0  0  0  0
    4.3617    0.1320    0.5849 C   0  0  0  0  0  0  0  0  0  0  0  0
    4.8383   -0.0571   -0.8519 C   0  0  0  0  0  0  0  0  0  0  0  0
    5.6075    0.6840    1.2706 C   0  0  0  0  0  0  0  0  0  0  0  0
    3.1579    1.0506    0.7004 C   0  0  0  0  0  0  0  0  0  0  0  0
    6.2586   -0.5942   -0.7043 C   0  0  0  0  0  0  0  0  0  0  0  0
    6.7493   -0.1272    0.6672 C   0  0  0  0  0  0  0  0  0  0  0  0
    1.9752    0.5222   -0.1016 C   0  0  0  0  0  0  0  0  0  0  0  0
   -0.4579    1.0360   -0.1842 C   0  0  0  0  0  0  0  0  0  0  0  0
   -0.8554   -0.2931   -0.3971 C   0  0  0  0  0  0  0  0  0  0  0  0
   -1.4748    2.0039   -0.1401 C   0  0  0  0  0  0  0  0  0  0  0  0
   -2.1954   -0.6519   -0.5714 C   0  0  0  0  0  0  0  0  0  0  0  0
   -3.1773    0.3327   -0.5343 C   0  0  0  0  0  0  0  0  0  0  0  0
   -2.8184    1.6599   -0.3176 C   0  0  0  0  0  0  0  0  0  0  0  0
  1 23  1  0
  2  4  2  0
  2  5  2  0
  2  8  1  0
  2 19  1  0
  3 10  1  0
  3 22  1  0
  6 10  1  0
  7 10  1  0
  8 17  1  0
  9 17  1  0
  9 18  1  0
 11 12  1  0
 11 13  1  0
 11 14  1  0
 12 15  1  0
 13 16  1  0
 14 17  1  0
 15 16  1  0
 18 19  2  0
 18 20  1  0
 19 21  1  0
 20 23  2  0
 21 22  2  0
 22 23  1  0
M  END
>  <PUBCHEM_COMPOUND_CID>  (1) 
12933

>  <PUBCHEM_CONFORMER_RMSD>  (1) 
0.8

>  <PUBCHEM_CONFORMER_DIVERSEORDER>  (1) 
9
12
3
22
19
20
15
16
7
21
4
11
10
17
23
13
14
18
1
5
2
8
6

>  <PUBCHEM_MMFF94_PARTIAL_CHARGES>  (1) 
23
1 -0.18
10 -0.22
17 0.72
18 0.1
19 -0.01
2 1.45
20 -0.15
21 -0.15
22 0.1
23 0.18
3 -0.08
36 0.42
37 0.4
38 0.15
39 0.15
4 -0.65
40 0.4
41 0.4
5 -0.65
6 -0.3
7 -0.3
8 -0.91
9 -0.87

>  <PUBCHEM_EFFECTIVE_ROTOR_COUNT>  (1) 
5.6

>  <PUBCHEM_PHARMACOPHORE_FEATURES>  (1) 
10
1 4 acceptor
1 5 acceptor
1 6 acceptor
1 7 acceptor
1 8 donor
1 9 cation
1 9 donor
5 11 12 13 15 16 rings
6 18 19 20 21 22 23 rings
6 2 8 9 17 18 19 rings

>  <PUBCHEM_HEAVY_ATOM_COUNT>  (1) 
23

>  <PUBCHEM_ATOM_DEF_STEREO_COUNT>  (1) 
0

>  <PUBCHEM_ATOM_UDEF_STEREO_COUNT>  (1) 
1

>  <PUBCHEM_BOND_DEF_STEREO_COUNT>  (1) 
0

>  <PUBCHEM_BOND_UDEF_STEREO_COUNT>  (1) 
0

>  <PUBCHEM_ISOTOPIC_ATOM_COUNT>  (1) 
0

>  <PUBCHEM_COMPONENT_COUNT>  (1) 
1

>  <PUBCHEM_CACTVS_TAUTO_COUNT>  (1) 
1

>  <PUBCHEM_CONFORMER_ID>  (1) 
0000328500000009

>  <PUBCHEM_MMFF94_ENERGY>  (1) 
40.2996

>  <PUBCHEM_FEATURE_SELFOVERLAP>  (1) 
50.851

>  <PUBCHEM_SHAPE_FINGERPRINT>  (1) 
10 15 18337663218332366872
11315181 36 17749108897999244436
11488393 25 17487346940925549326
11578080 2 17171224123803456687
11646440 116 18060422425907489576
11963148 33 18260261992692889171
12035758 1 18272653484621259218
12166972 35 17095527326423954676
12236239 1 17676204654965891692
12390115 104 18200600185350426945
12403259 415 18131060537633614984
12592029 89 18411135810298558698
12596602 18 17313103077201453248
12916748 109 18411699889960039528
13073987 5 18338509747590394416
13140716 1 18124314072014204257
13533116 47 13758080671803724996
13540713 4 18126294039042228877
13862211 1 18410568522090415239
1420 363 18409449197815302552
14955137 171 18341336685736591785
15042514 8 18266738176499246911
15048467 5 13398633856976982017
15196674 1 18340482249501001716
17844677 252 18343584049260835304
17980427 23 17241058625599830501
18927931 339 18410291428497123015
19141452 34 17703503402474233630
21033648 29 17987779874503923664
21150785 3 17385731318132685476
21236236 1 18411417285164557721
21267235 1 18409171021257567028
21279426 13 18199750229029431998
21781051 124 18189918545703240767
22182313 1 18200887166506346885
22224240 67 18131631214407222859
23402539 116 18341320180134731294
23536379 177 15339121242909035374
23559900 14 17823134699909165029
347723 3 14620797097995960270
350125 39 18410294735063395005
38695281 34 17632292337378349038
465052 167 18114750424658553858
474229 33 18409728469415897919
5104073 3 18267584606898953619
59682541 35 18339923826221688211
59755656 215 18412823560235614895
6138700 20 18199186192681757086
9996256 80 18131064952411433414

>  <PUBCHEM_SHAPE_MULTIPOLES>  (1) 
444.48
15.17
2.22
1.1
9.2
0.36
0
-0.58
3.39
-2.54
-0.05
0.07
-0.35
1.39

>  <PUBCHEM_SHAPE_SELFOVERLAP>  (1) 
900.135

>  <PUBCHEM_SHAPE_VOLUME>  (1) 
261.5

>  <PUBCHEM_COORDINATE_TYPE>  (1) 
2
5
10

$$$$
