12936
     RDKit          3D

 24 26  0  0  0  0  0  0  0  0999 V2000
   -0.2660    1.8460   -1.1366 O   0  0  0  0  0  0  0  0  0  0  0  0
   -2.3322   -1.4962    1.3554 O   0  0  0  0  0  0  0  0  0  0  0  0
    2.2286   -1.1464    1.4097 O   0  0  0  0  0  0  0  0  0  0  0  0
   -1.3468    0.1389    0.0108 N   0  0  0  0  0  0  0  0  0  0  0  0
    1.0332    0.3294    0.0505 N   0  0  0  0  0  0  0  0  0  0  0  0
   -2.6238    0.7296   -0.3096 C   0  0  0  0  0  0  0  0  0  0  0  0
    2.2073    1.1190   -0.2332 C   0  0  0  0  0  0  0  0  0  0  0  0
   -3.4825   -0.2433   -1.1220 C   0  0  0  0  0  0  0  0  0  0  0  0
   -3.3432    1.1765    0.9653 C   0  0  0  0  0  0  0  0  0  0  0  0
    2.8191    1.6643    1.0599 C   0  0  0  0  0  0  0  0  0  0  0  0
    3.2258    0.2990   -1.0287 C   0  0  0  0  0  0  0  0  0  0  0  0
   -4.8594    0.3413   -1.4258 C   0  0  0  0  0  0  0  0  0  0  0  0
   -4.7212    1.7579    0.6595 C   0  0  0  0  0  0  0  0  0  0  0  0
    4.0941    2.4582    0.7874 C   0  0  0  0  0  0  0  0  0  0  0  0
    4.5011    1.0937   -1.2976 C   0  0  0  0  0  0  0  0  0  0  0  0
   -5.5740    0.7881   -0.1535 C   0  0  0  0  0  0  0  0  0  0  0  0
    5.1071    1.6395   -0.0077 C   0  0  0  0  0  0  0  0  0  0  0  0
   -0.0149   -1.7193    0.8697 C   0  0  0  0  0  0  0  0  0  0  0  0
   -0.1978    0.8367   -0.4265 C   0  0  0  0  0  0  0  0  0  0  0  0
   -1.3437   -1.0173    0.7975 C   0  0  0  0  0  0  0  0  0  0  0  0
    1.1908   -0.8198    0.8318 C   0  0  0  0  0  0  0  0  0  0  0  0
    0.0792   -2.7288   -0.2720 C   0  0  0  0  0  0  0  0  0  0  0  0
    1.3554   -3.5070   -0.2014 C   0  0  0  0  0  0  0  0  0  0  0  0
    2.2638   -3.5399   -1.1829 C   0  0  0  0  0  0  0  0  0  0  0  0
  1 19  2  0
  2 20  2  0
  3 21  2  0
  4  6  1  0
  4 19  1  0
  4 20  1  0
  5  7  1  0
  5 19  1  0
  5 21  1  0
  6  8  1  0
  6  9  1  0
  7 10  1  0
  7 11  1  0
  8 12  1  0
  9 13  1  0
 10 14  1  0
 11 15  1  0
 12 16  1  0
 13 16  1  0
 14 17  1  0
 15 17  1  0
 18 20  1  0
 18 21  1  0
 18 22  1  0
 22 23  1  0
 23 24  2  0
M  END
>  <PUBCHEM_COMPOUND_CID>  (1) 
12936

>  <PUBCHEM_CONFORMER_RMSD>  (1) 
0.8

>  <PUBCHEM_CONFORMER_DIVERSEORDER>  (1) 
1
6
10
8
3
2
7
12
5
4
11
9

>  <PUBCHEM_MMFF94_PARTIAL_CHARGES>  (1) 
17
1 -0.57
18 0.12
19 0.69
2 -0.57
20 0.57
21 0.57
22 0.14
23 -0.29
24 -0.3
3 -0.57
4 -0.42
5 -0.42
50 0.15
51 0.15
52 0.15
6 0.3
7 0.3

>  <PUBCHEM_EFFECTIVE_ROTOR_COUNT>  (1) 
7

>  <PUBCHEM_PHARMACOPHORE_FEATURES>  (1) 
8
1 1 acceptor
1 18 anion
1 2 acceptor
1 24 hydrophobe
1 3 acceptor
6 4 5 18 19 20 21 rings
6 6 8 9 12 13 16 rings
6 7 10 11 14 15 17 rings

>  <PUBCHEM_HEAVY_ATOM_COUNT>  (1) 
24

>  <PUBCHEM_ATOM_DEF_STEREO_COUNT>  (1) 
0

>  <PUBCHEM_ATOM_UDEF_STEREO_COUNT>  (1) 
0

>  <PUBCHEM_BOND_DEF_STEREO_COUNT>  (1) 
0

>  <PUBCHEM_BOND_UDEF_STEREO_COUNT>  (1) 
0

>  <PUBCHEM_ISOTOPIC_ATOM_COUNT>  (1) 
0

>  <PUBCHEM_COMPONENT_COUNT>  (1) 
1

>  <PUBCHEM_CACTVS_TAUTO_COUNT>  (1) 
1

>  <PUBCHEM_CONFORMER_ID>  (1) 
0000328800000001

>  <PUBCHEM_MMFF94_ENERGY>  (1) 
43.5484

>  <PUBCHEM_FEATURE_SELFOVERLAP>  (1) 
40.597

>  <PUBCHEM_SHAPE_FINGERPRINT>  (1) 
12236239 1 18343298150921107109
12730499 353 18411992359784113139
12969540 114 18337378435291789381
13140716 1 18260545602082904603
13533116 47 18271242712940528077
13955234 65 18340209570390992931
15081414 286 18188497882649731997
1601671 61 17967813872687814292
167882 2 18411705344568947262
16945 1 17825385181046331059
17980427 23 17386850693330026260
1813 80 17837207078185997683
20554085 129 18130206238562828192
20600515 1 16963483385005127554
20645477 70 18262231110969931423
20739085 24 18042410140195122509
21033648 144 18188196680412853437
21033648 29 18199465652686017936
22182313 1 18188513327246542259
2255824 54 18196368118098682355
23419403 2 17540869015287055866
23558518 356 17541371780053694280
23559900 14 18335996341498343932
23566358 27 18199465476708233975
2748010 2 18187660101727876235
34934 24 17822564010324072888
350125 39 18043244648525672852
474 4 18410009957573221361
495365 180 18272362084064564416
5104073 3 18041843884029584897
5265222 85 17976280229356580972
59755656 215 18187646852259689580
59755656 520 18337945792314036460
633830 44 18202561795645997525
7364860 26 18268430140136570522

>  <PUBCHEM_SHAPE_MULTIPOLES>  (1) 
466.34
10.01
3.36
1.33
5.53
3.5
-0.06
-7.73
-1.81
-3.23
-0.11
0.03
0.06
0.34

>  <PUBCHEM_SHAPE_SELFOVERLAP>  (1) 
972.516

>  <PUBCHEM_SHAPE_VOLUME>  (1) 
258

>  <PUBCHEM_COORDINATE_TYPE>  (1) 
2
5
10

$$$$
