12951
     RDKit          3D

 22 24  0  0  1  0  0  0  0  0999 V2000
    2.9047    1.2966   -0.7741 S   0  0  0  0  0  0  0  0  0  0  0  0
    3.8462    1.1675   -1.9355 O   0  0  0  0  0  0  0  0  0  0  0  0
   -4.5833   -0.9466   -0.3235 N   0  0  0  0  0  0  0  0  0  0  0  0
    0.1491   -0.4632    0.0825 C   0  0  0  0  0  0  0  0  0  0  0  0
   -0.2165    0.9227    0.4316 C   0  0  0  0  0  0  0  0  0  0  0  0
    1.5104   -1.0437    0.2294 C   0  0  0  0  0  0  0  0  0  0  0  0
    0.3088    1.9820   -0.3250 C   0  0  0  0  0  0  0  0  0  0  0  0
    1.2772    1.7005   -1.4365 C   0  0  0  0  0  0  0  0  0  0  0  0
    2.7142   -0.3940   -0.1245 C   0  0  0  0  0  0  0  0  0  0  0  0
   -2.1926   -0.6721   -0.7897 C   0  0  0  0  0  0  0  0  0  0  0  0
   -0.8223   -1.1946   -0.4998 C   0  0  0  0  0  0  0  0  0  0  0  0
   -3.2548   -1.4809   -0.0460 C   0  0  0  0  0  0  0  0  0  0  0  0
   -1.0910    1.1893    1.4950 C   0  0  0  0  0  0  0  0  0  0  0  0
   -0.0469    3.2988   -0.0019 C   0  0  0  0  0  0  0  0  0  0  0  0
    1.5915   -2.3365    0.8005 C   0  0  0  0  0  0  0  0  0  0  0  0
    3.9371   -1.0696    0.0844 C   0  0  0  0  0  0  0  0  0  0  0  0
   -1.4404    2.5036    1.8032 C   0  0  0  0  0  0  0  0  0  0  0  0
   -0.9197    3.5569    1.0553 C   0  0  0  0  0  0  0  0  0  0  0  0
    2.8105   -2.9854    0.9910 C   0  0  0  0  0  0  0  0  0  0  0  0
    3.9863   -2.3518    0.6275 C   0  0  0  0  0  0  0  0  0  0  0  0
   -5.6031   -1.6924    0.4156 C   0  0  0  0  0  0  0  0  0  0  0  0
   -4.8652   -0.9870   -1.7594 C   0  0  0  0  0  0  0  0  0  0  0  0
  1  2  2  0
  1  8  1  0
  1  9  1  0
  3 12  1  0
  3 21  1  0
  3 22  1  0
  4  5  1  0
  4  6  1  0
  4 11  2  0
  5  7  2  0
  5 13  1  0
  6  9  2  0
  6 15  1  0
  7  8  1  0
  7 14  1  0
  9 16  1  0
 10 11  1  0
 10 12  1  0
 13 17  2  0
 14 18  2  0
 15 19  2  0
 16 20  2  0
 17 18  1  0
 19 20  1  0
M  END
>  <PUBCHEM_COMPOUND_CID>  (1) 
12951

>  <PUBCHEM_CONFORMER_RMSD>  (1) 
0.6

>  <PUBCHEM_CONFORMER_DIVERSEORDER>  (1) 
3
7
35
33
38
18
28
32
29
34
13
15
39
6
4
10
17
20
27
8
16
19
24
21
30
5
2
11
40
23
1
12
25
31
37
36
26
9
14
22

>  <PUBCHEM_MMFF94_PARTIAL_CHARGES>  (1) 
31
1 0.24
10 0.14
11 -0.29
12 0.27
13 -0.15
14 -0.15
15 -0.15
16 -0.15
17 -0.15
18 -0.15
19 -0.15
2 -0.5
20 -0.15
21 0.27
22 0.27
27 0.15
3 -0.81
30 0.15
31 0.15
32 0.15
33 0.15
34 0.15
35 0.15
36 0.15
37 0.15
4 -0.06
5 0.03
6 0.03
7 -0.14
8 0.34
9 0.06

>  <PUBCHEM_EFFECTIVE_ROTOR_COUNT>  (1) 
3.2

>  <PUBCHEM_PHARMACOPHORE_FEATURES>  (1) 
5
1 2 acceptor
1 3 cation
6 5 7 13 14 17 18 rings
6 6 9 15 16 19 20 rings
7 1 4 5 6 7 8 9 rings

>  <PUBCHEM_HEAVY_ATOM_COUNT>  (1) 
22

>  <PUBCHEM_ATOM_DEF_STEREO_COUNT>  (1) 
0

>  <PUBCHEM_ATOM_UDEF_STEREO_COUNT>  (1) 
0

>  <PUBCHEM_BOND_DEF_STEREO_COUNT>  (1) 
0

>  <PUBCHEM_BOND_UDEF_STEREO_COUNT>  (1) 
1

>  <PUBCHEM_ISOTOPIC_ATOM_COUNT>  (1) 
0

>  <PUBCHEM_COMPONENT_COUNT>  (1) 
1

>  <PUBCHEM_CACTVS_TAUTO_COUNT>  (1) 
1

>  <PUBCHEM_CONFORMER_ID>  (1) 
0000329700000003

>  <PUBCHEM_MMFF94_ENERGY>  (1) 
77.1769

>  <PUBCHEM_FEATURE_SELFOVERLAP>  (1) 
25.383

>  <PUBCHEM_SHAPE_FINGERPRINT>  (1) 
10165383 225 17684096051692219549
11135609 187 18043259127003100004
11265709 11 18413105043981601435
11578080 2 18199162058411721184
12035759 4 18338250296604870364
12293681 160 17908445867174757964
12553582 1 18201999962679426855
12788726 201 18272381853361197209
13004483 165 18268695148161384179
13009979 54 18268713814152387178
13134695 92 18270662264989688869
13140716 1 18268988700665012129
13540713 5 18191601765562453996
13911987 19 17753636803284484604
14178342 30 18050271580215689722
14251757 17 17459729467977414695
15309172 13 17259338865531691744
17980427 26 17767668817769873205
1813 80 18060138751923243479
19078846 21 18131358535749913643
20600515 1 17059766827691133419
21041028 32 18412822469709326383
22112679 90 18200326445535677497
23419403 2 17981002471845072532
23558518 356 18049732823259119603
25147074 1 18264221235727433788
266924 1 18337966614199514252
266924 78 17245023588778018324
312423 11 18338809900995220926
345986 75 18343015575894464883
34934 24 17986671691268130652
394222 165 17097487846546995432
46194498 28 17313947558171811023
6442390 28 17040074811008831291
6992083 37 17831581977230318120
70251023 43 18341345396331402526
7164475 11 18341332171978917990
7471813 234 18341882000564591975
81228 2 18121210974705931443

>  <PUBCHEM_SHAPE_MULTIPOLES>  (1) 
445.75
8.23
3.98
1.47
7.99
2.27
0.16
-7.75
1.89
-0.56
-1.37
0.21
0.62
-2.31

>  <PUBCHEM_SHAPE_SELFOVERLAP>  (1) 
939.814

>  <PUBCHEM_SHAPE_VOLUME>  (1) 
250.9

>  <PUBCHEM_COORDINATE_TYPE>  (1) 
2
5
10

$$$$
