12969
     RDKit          3D

  6  5  0  0  1  0  0  0  0  0999 V2000
   -0.0363    0.5226    0.2851 C   0  0  0  0  0  0  0  0  0  0  0  0
    1.4111    0.2628   -0.1714 C   0  0  0  0  0  0  0  0  0  0  0  0
   -0.4066    1.9873    0.0380 C   0  0  0  0  0  0  0  0  0  0  0  0
    1.8787   -1.1634    0.0913 C   0  0  0  0  0  0  0  0  0  0  0  0
   -1.0195   -0.3702   -0.4307 C   0  0  0  0  0  0  0  0  0  0  0  0
   -1.8275   -1.2392    0.1877 C   0  0  0  0  0  0  0  0  0  0  0  0
  1  2  1  0
  1  3  1  0
  1  5  1  0
  2  4  1  0
  5  6  2  0
M  END
>  <PUBCHEM_COMPOUND_CID>  (1) 
12969

>  <PUBCHEM_CONFORMER_RMSD>  (1) 
0.4

>  <PUBCHEM_CONFORMER_DIVERSEORDER>  (1) 
3
6
2
7
1
4
5

>  <PUBCHEM_MMFF94_PARTIAL_CHARGES>  (1) 
6
1 0.14
16 0.15
17 0.15
18 0.15
5 -0.29
6 -0.3

>  <PUBCHEM_EFFECTIVE_ROTOR_COUNT>  (1) 
2

>  <PUBCHEM_PHARMACOPHORE_FEATURES>  (1) 
3
1 3 hydrophobe
1 4 hydrophobe
1 6 hydrophobe

>  <PUBCHEM_HEAVY_ATOM_COUNT>  (1) 
6

>  <PUBCHEM_ATOM_DEF_STEREO_COUNT>  (1) 
0

>  <PUBCHEM_ATOM_UDEF_STEREO_COUNT>  (1) 
1

>  <PUBCHEM_BOND_DEF_STEREO_COUNT>  (1) 
0

>  <PUBCHEM_BOND_UDEF_STEREO_COUNT>  (1) 
0

>  <PUBCHEM_ISOTOPIC_ATOM_COUNT>  (1) 
0

>  <PUBCHEM_COMPONENT_COUNT>  (1) 
1

>  <PUBCHEM_CACTVS_TAUTO_COUNT>  (1) 
1

>  <PUBCHEM_CONFORMER_ID>  (1) 
000032A900000003

>  <PUBCHEM_MMFF94_ENERGY>  (1) 
1.8379

>  <PUBCHEM_FEATURE_SELFOVERLAP>  (1) 
15.223

>  <PUBCHEM_SHAPE_FINGERPRINT>  (1) 
139733 1 8935010269074204798
16714656 1 18122348977735421557
18185500 45 18268994352551966022
20096714 4 17261316315592816077
21040471 1 17691125933491653972
23552449 11 17975677691618719883
29004967 10 18265051516681413651
5943 1 8207322876533694341

>  <PUBCHEM_SHAPE_MULTIPOLES>  (1) 
123.48
2.29
1.84
0.67
0.37
0.75
-0.01
-1.3
0.03
-0.32
0.09
-0.03
-0.01
-0.01

>  <PUBCHEM_SHAPE_SELFOVERLAP>  (1) 
214.61

>  <PUBCHEM_SHAPE_VOLUME>  (1) 
83.2

>  <PUBCHEM_COORDINATE_TYPE>  (1) 
2
5
10

$$$$
