12964
     RDKit          3D

  7  6  0  0  1  0  0  0  0  0999 V2000
   -1.7458   -0.3871   -0.8601 O   0  0  0  0  0  0  0  0  0  0  0  0
    0.2911   -0.3953    0.4436 C   0  0  0  0  0  0  0  0  0  0  0  0
    0.2630   -1.9206    0.4495 C   0  0  0  0  0  0  0  0  0  0  0  0
   -1.0470    0.1733   -0.0152 C   0  0  0  0  0  0  0  0  0  0  0  0
    1.3424    0.1286   -0.4921 C   0  0  0  0  0  0  0  0  0  0  0  0
   -1.4641    1.4942    0.5815 C   0  0  0  0  0  0  0  0  0  0  0  0
    2.3605    0.9070   -0.1072 C   0  0  0  0  0  0  0  0  0  0  0  0
  1  4  2  0
  2  3  1  0
  2  4  1  0
  2  5  1  0
  4  6  1  0
  5  7  2  0
M  END
>  <PUBCHEM_COMPOUND_CID>  (1) 
12964

>  <PUBCHEM_CONFORMER_RMSD>  (1) 
0.4

>  <PUBCHEM_CONFORMER_DIVERSEORDER>  (1) 
1
11
8
6
12
9
7
14
13
2
4
5
3
10

>  <PUBCHEM_MMFF94_PARTIAL_CHARGES>  (1) 
9
1 -0.57
12 0.15
16 0.15
17 0.15
2 0.2
4 0.45
5 -0.29
6 0.06
7 -0.3

>  <PUBCHEM_EFFECTIVE_ROTOR_COUNT>  (1) 
2

>  <PUBCHEM_PHARMACOPHORE_FEATURES>  (1) 
3
1 1 acceptor
1 3 hydrophobe
1 7 hydrophobe

>  <PUBCHEM_HEAVY_ATOM_COUNT>  (1) 
7

>  <PUBCHEM_ATOM_DEF_STEREO_COUNT>  (1) 
0

>  <PUBCHEM_ATOM_UDEF_STEREO_COUNT>  (1) 
1

>  <PUBCHEM_BOND_DEF_STEREO_COUNT>  (1) 
0

>  <PUBCHEM_BOND_UDEF_STEREO_COUNT>  (1) 
0

>  <PUBCHEM_ISOTOPIC_ATOM_COUNT>  (1) 
0

>  <PUBCHEM_COMPONENT_COUNT>  (1) 
1

>  <PUBCHEM_CACTVS_TAUTO_COUNT>  (1) 
5

>  <PUBCHEM_CONFORMER_ID>  (1) 
000032A400000001

>  <PUBCHEM_MMFF94_ENERGY>  (1) 
5.8701

>  <PUBCHEM_FEATURE_SELFOVERLAP>  (1) 
15.223

>  <PUBCHEM_SHAPE_FINGERPRINT>  (1) 
137420 1 13632450455079627618
18185500 45 18124587579130242169
20096714 4 18267594502414075112
21040471 1 18335148600209640300
23552449 1 17834962245161966864
24536 1 18115864101273075571
29004967 10 12175620702529321638
5084963 1 17458350766279580962
5943 1 13714519914237151443

>  <PUBCHEM_SHAPE_MULTIPOLES>  (1) 
138.19
2.53
1.65
0.83
0.69
0.53
0.04
-1.18
0.27
-0.04
-0.36
-0.17
0.03
-0.31

>  <PUBCHEM_SHAPE_SELFOVERLAP>  (1) 
252.165

>  <PUBCHEM_SHAPE_VOLUME>  (1) 
89

>  <PUBCHEM_COORDINATE_TYPE>  (1) 
2
5
10

$$$$
