12962
     RDKit          3D

  5  4  0  0  0  0  0  0  0  0999 V2000
   -1.8772    0.0221    0.0000 O   0  0  0  0  0  0  0  0  0  0  0  0
    0.4556   -0.0257    0.0000 N   0  0  0  0  0  0  0  0  0  0  0  0
    1.5874   -0.8306    0.0000 N   0  0  0  0  0  0  0  0  0  0  0  0
    0.6415    1.4116    0.0000 C   0  0  0  0  0  0  0  0  0  0  0  0
   -0.8073   -0.5774    0.0000 C   0  0  0  0  0  0  0  0  0  0  0  0
  1  5  2  0
  2  3  1  0
  2  4  1  0
  2  5  1  0
M  END
>  <PUBCHEM_COMPOUND_CID>  (1) 
12962

>  <PUBCHEM_CONFORMER_RMSD>  (1) 
0.4

>  <PUBCHEM_CONFORMER_DIVERSEORDER>  (1) 
1
2

>  <PUBCHEM_MMFF94_PARTIAL_CHARGES>  (1) 
8
1 -0.57
10 0.36
11 0.06
2 -0.35
3 -0.73
4 0.3
5 0.57
9 0.36

>  <PUBCHEM_EFFECTIVE_ROTOR_COUNT>  (1) 
1

>  <PUBCHEM_PHARMACOPHORE_FEATURES>  (1) 
2
1 1 acceptor
1 3 donor

>  <PUBCHEM_HEAVY_ATOM_COUNT>  (1) 
5

>  <PUBCHEM_ATOM_DEF_STEREO_COUNT>  (1) 
0

>  <PUBCHEM_ATOM_UDEF_STEREO_COUNT>  (1) 
0

>  <PUBCHEM_BOND_DEF_STEREO_COUNT>  (1) 
0

>  <PUBCHEM_BOND_UDEF_STEREO_COUNT>  (1) 
0

>  <PUBCHEM_ISOTOPIC_ATOM_COUNT>  (1) 
0

>  <PUBCHEM_COMPONENT_COUNT>  (1) 
1

>  <PUBCHEM_CACTVS_TAUTO_COUNT>  (1) 
1

>  <PUBCHEM_CONFORMER_ID>  (1) 
000032A200000001

>  <PUBCHEM_MMFF94_ENERGY>  (1) 
4.1108

>  <PUBCHEM_FEATURE_SELFOVERLAP>  (1) 
10.148

>  <PUBCHEM_SHAPE_FINGERPRINT>  (1) 
139733 1 17906453581773729797
20096714 4 8646763400327308118
21015797 1 18340486780390870486
5943 1 12135805260431313932

>  <PUBCHEM_SHAPE_MULTIPOLES>  (1) 
87.07
1.9
1.22
0.56
0.58
0.31
0
-0.19
0
-0.53
0
0
0.02
0

>  <PUBCHEM_SHAPE_SELFOVERLAP>  (1) 
150.692

>  <PUBCHEM_SHAPE_VOLUME>  (1) 
58.4

>  <PUBCHEM_COORDINATE_TYPE>  (1) 
2
5
10

$$$$
