12979
     RDKit          3D

 20 19  0  0  0  0  0  0  0  0999 V2000
    0.5772    0.3734    0.5685 O   0  0  0  0  0  0  0  0  0  0  0  0
   -0.5925   -0.4943    0.4936 O   0  0  0  0  0  0  0  0  0  0  0  0
    1.6291   -1.6272    0.0918 O   0  0  0  0  0  0  0  0  0  0  0  0
   -1.6433    1.5436    0.1944 O   0  0  0  0  0  0  0  0  0  0  0  0
    6.7120   -0.3821   -0.2404 C   0  0  0  0  0  0  0  0  0  0  0  0
   -6.7063    0.4202   -0.2945 C   0  0  0  0  0  0  0  0  0  0  0  0
    5.4542    0.4036    0.1458 C   0  0  0  0  0  0  0  0  0  0  0  0
   -5.4528   -0.4384   -0.1018 C   0  0  0  0  0  0  0  0  0  0  0  0
    7.9929    0.4516   -0.1457 C   0  0  0  0  0  0  0  0  0  0  0  0
   -8.0029   -0.3923   -0.2461 C   0  0  0  0  0  0  0  0  0  0  0  0
    4.1694   -0.4304    0.0735 C   0  0  0  0  0  0  0  0  0  0  0  0
   -4.1538    0.3747   -0.0715 C   0  0  0  0  0  0  0  0  0  0  0  0
    9.2530   -0.3257   -0.5339 C   0  0  0  0  0  0  0  0  0  0  0  0
   -9.2311    0.5106   -0.3644 C   0  0  0  0  0  0  0  0  0  0  0  0
    2.9242    0.3998    0.3913 C   0  0  0  0  0  0  0  0  0  0  0  0
   -2.9270   -0.5008    0.1841 C   0  0  0  0  0  0  0  0  0  0  0  0
   10.5233    0.5088   -0.4759 C   0  0  0  0  0  0  0  0  0  0  0  0
  -10.5205   -0.2903   -0.2757 C   0  0  0  0  0  0  0  0  0  0  0  0
    1.6609   -0.4269    0.3314 C   0  0  0  0  0  0  0  0  0  0  0  0
   -1.6661    0.3220    0.2753 C   0  0  0  0  0  0  0  0  0  0  0  0
  1  2  1  0
  1 19  1  0
  2 20  1  0
  3 19  2  0
  4 20  2  0
  5  7  1  0
  5  9  1  0
  6  8  1  0
  6 10  1  0
  7 11  1  0
  8 12  1  0
  9 13  1  0
 10 14  1  0
 11 15  1  0
 12 16  1  0
 13 17  1  0
 14 18  1  0
 15 19  1  0
 16 20  1  0
M  END
>  <PUBCHEM_COMPOUND_CID>  (1) 
12979

>  <PUBCHEM_CONFORMER_RMSD>  (1) 
1.2

>  <PUBCHEM_CONFORMER_DIVERSEORDER>  (1) 
1
48
18
86
31
66
3
50
10
11
87
98
35
101
13
59
63
70
9
41
7
80
20
78
25
55
85
83
96
56
94
23
49
75
6
30
4
46
14
39
88
90
51
34
33
17
93
72
84
95
53
99
21
76
44
60
100
26
61
47
45
16
81
37
28
79
68
67
38
82
62
77
12
19
89
57
91
69
74
92
58
71
32
52
97
65
64
43
29
2
73
15
24
22
42
36
27
5
54
40
8

>  <PUBCHEM_MMFF94_PARTIAL_CHARGES>  (1) 
8
1 -0.15
15 0.06
16 0.06
19 0.66
2 -0.15
20 0.66
3 -0.57
4 -0.57

>  <PUBCHEM_EFFECTIVE_ROTOR_COUNT>  (1) 
15

>  <PUBCHEM_PHARMACOPHORE_FEATURES>  (1) 
8
1 17 hydrophobe
1 18 hydrophobe
1 3 acceptor
1 4 acceptor
3 5 9 13 hydrophobe
3 6 10 14 hydrophobe
3 7 11 15 hydrophobe
3 8 12 16 hydrophobe

>  <PUBCHEM_HEAVY_ATOM_COUNT>  (1) 
20

>  <PUBCHEM_ATOM_DEF_STEREO_COUNT>  (1) 
0

>  <PUBCHEM_ATOM_UDEF_STEREO_COUNT>  (1) 
0

>  <PUBCHEM_BOND_DEF_STEREO_COUNT>  (1) 
0

>  <PUBCHEM_BOND_UDEF_STEREO_COUNT>  (1) 
0

>  <PUBCHEM_ISOTOPIC_ATOM_COUNT>  (1) 
0

>  <PUBCHEM_COMPONENT_COUNT>  (1) 
1

>  <PUBCHEM_CACTVS_TAUTO_COUNT>  (1) 
1

>  <PUBCHEM_CONFORMER_ID>  (1) 
000032B300000001

>  <PUBCHEM_MMFF94_ENERGY>  (1) 
0.5142

>  <PUBCHEM_FEATURE_SELFOVERLAP>  (1) 
40.624

>  <PUBCHEM_SHAPE_FINGERPRINT>  (1) 
106641 1 11097855194268430454
14123256 10 18410573980856483863
14251764 46 17967532376309600239
14251920 1 18410855455833207495
14344974 52 18187646954684919596
14428016 248 17313391118814044341
15247644 1 15195569008970988076
15510794 2 16805608053125114802
155225 1 16877660158637689781
21095086 128 16559032679745235574
21362267 2 17968929911661671212
22224240 67 12685093700758641672
232437 2 14549018784037409573
23521765 1 18342175565874078331
23581129 1 18409448089539575813
246663 6 15410896266611076414
335352 9 18411136952284741653
33684 2 18410855460128161794
4325135 7 18411418410081609356
59521099 67 16773794831955519528
59521270 166 16487259842730407969
67123 10 18410573993741385751
8209 1 18410573985156732411

>  <PUBCHEM_SHAPE_MULTIPOLES>  (1) 
388.11
39.37
0.95
0.69
0.28
0.02
0.02
-2.17
9.83
0.03
-0.02
0.16
-0.01
0.03

>  <PUBCHEM_SHAPE_SELFOVERLAP>  (1) 
716.032

>  <PUBCHEM_SHAPE_VOLUME>  (1) 
244.7

>  <PUBCHEM_COORDINATE_TYPE>  (1) 
2
5
10

$$$$
