12970
     RDKit          3D

  6  5  0  0  0  0  0  0  0  0999 V2000
   -0.0001    0.3933    0.0001 C   0  0  0  0  0  0  0  0  0  0  0  0
    1.1279   -0.3802    0.6439 C   0  0  0  0  0  0  0  0  0  0  0  0
   -1.1275   -0.3806   -0.6438 C   0  0  0  0  0  0  0  0  0  0  0  0
    2.2658   -0.6847   -0.3204 C   0  0  0  0  0  0  0  0  0  0  0  0
   -2.2661   -0.6844    0.3204 C   0  0  0  0  0  0  0  0  0  0  0  0
    0.0000    1.7367   -0.0002 C   0  0  0  0  0  0  0  0  0  0  0  0
  1  2  1  0
  1  3  1  0
  1  6  2  0
  2  4  1  0
  3  5  1  0
M  END
>  <PUBCHEM_COMPOUND_CID>  (1) 
12970

>  <PUBCHEM_CONFORMER_RMSD>  (1) 
0.4

>  <PUBCHEM_CONFORMER_DIVERSEORDER>  (1) 
2
6
3
1
7
4
9
5
8

>  <PUBCHEM_MMFF94_PARTIAL_CHARGES>  (1) 
6
1 -0.28
17 0.15
18 0.15
2 0.14
3 0.14
6 -0.3

>  <PUBCHEM_EFFECTIVE_ROTOR_COUNT>  (1) 
2

>  <PUBCHEM_PHARMACOPHORE_FEATURES>  (1) 
3
1 4 hydrophobe
1 5 hydrophobe
1 6 hydrophobe

>  <PUBCHEM_HEAVY_ATOM_COUNT>  (1) 
6

>  <PUBCHEM_ATOM_DEF_STEREO_COUNT>  (1) 
0

>  <PUBCHEM_ATOM_UDEF_STEREO_COUNT>  (1) 
0

>  <PUBCHEM_BOND_DEF_STEREO_COUNT>  (1) 
0

>  <PUBCHEM_BOND_UDEF_STEREO_COUNT>  (1) 
0

>  <PUBCHEM_ISOTOPIC_ATOM_COUNT>  (1) 
0

>  <PUBCHEM_COMPONENT_COUNT>  (1) 
1

>  <PUBCHEM_CACTVS_TAUTO_COUNT>  (1) 
1

>  <PUBCHEM_CONFORMER_ID>  (1) 
000032AA00000002

>  <PUBCHEM_MMFF94_ENERGY>  (1) 
1.1201

>  <PUBCHEM_FEATURE_SELFOVERLAP>  (1) 
15.223

>  <PUBCHEM_SHAPE_FINGERPRINT>  (1) 
137420 1 17112482873702879336
139733 1 9295289468930005059
16714656 1 18342178804284739790
20096714 4 17765717206173621097
21040471 1 17546436783145286792
23552449 11 18191287476550097467
29004967 10 18410008870603195058
5943 1 10653203036751280728

>  <PUBCHEM_SHAPE_MULTIPOLES>  (1) 
123.48
2.75
1.35
0.79
0
0.76
0
-1.33
0
0
0
0
-0.08
0.07

>  <PUBCHEM_SHAPE_SELFOVERLAP>  (1) 
214.986

>  <PUBCHEM_SHAPE_VOLUME>  (1) 
83.5

>  <PUBCHEM_COORDINATE_TYPE>  (1) 
2
5
10

$$$$
