12988
     RDKit          3D

  6  5  0  0  0  0  0  0  0  0999 V2000
    1.8850   -0.4246   -0.8150 O   0  0  0  0  0  0  0  0  0  0  0  0
    0.3269   -0.0949    0.9946 C   0  0  0  0  0  0  0  0  0  0  0  0
   -0.8958   -0.0419    0.1063 C   0  0  0  0  0  0  0  0  0  0  0  0
    1.5948    0.4006    0.3055 C   0  0  0  0  0  0  0  0  0  0  0  0
   -1.2965    1.3035   -0.4274 C   0  0  0  0  0  0  0  0  0  0  0  0
   -1.6144   -1.1428   -0.1641 C   0  0  0  0  0  0  0  0  0  0  0  0
  1  4  1  0
  2  3  1  0
  2  4  1  0
  3  5  1  0
  3  6  2  0
M  END
>  <PUBCHEM_COMPOUND_CID>  (1) 
12988

>  <PUBCHEM_CONFORMER_RMSD>  (1) 
0.4

>  <PUBCHEM_CONFORMER_DIVERSEORDER>  (1) 
1
4
7
3
2
5
6
8

>  <PUBCHEM_MMFF94_PARTIAL_CHARGES>  (1) 
9
1 -0.68
14 0.15
15 0.15
16 0.4
2 0.14
3 -0.28
4 0.28
5 0.14
6 -0.3

>  <PUBCHEM_EFFECTIVE_ROTOR_COUNT>  (1) 
2

>  <PUBCHEM_PHARMACOPHORE_FEATURES>  (1) 
2
1 1 acceptor
1 1 donor

>  <PUBCHEM_HEAVY_ATOM_COUNT>  (1) 
6

>  <PUBCHEM_ATOM_DEF_STEREO_COUNT>  (1) 
0

>  <PUBCHEM_ATOM_UDEF_STEREO_COUNT>  (1) 
0

>  <PUBCHEM_BOND_DEF_STEREO_COUNT>  (1) 
0

>  <PUBCHEM_BOND_UDEF_STEREO_COUNT>  (1) 
0

>  <PUBCHEM_ISOTOPIC_ATOM_COUNT>  (1) 
0

>  <PUBCHEM_COMPONENT_COUNT>  (1) 
1

>  <PUBCHEM_CACTVS_TAUTO_COUNT>  (1) 
1

>  <PUBCHEM_CONFORMER_ID>  (1) 
000032BC00000001

>  <PUBCHEM_MMFF94_ENERGY>  (1) 
3.3887

>  <PUBCHEM_FEATURE_SELFOVERLAP>  (1) 
10.148

>  <PUBCHEM_SHAPE_FINGERPRINT>  (1) 
139733 1 8934463829191347211
16714656 1 18408606950618134429
20096714 4 17604707738131528872
21040471 1 18047455751994644233
24536 1 17704062989030340568
29004967 10 17131833217674033242
5943 1 11330371770052525481

>  <PUBCHEM_SHAPE_MULTIPOLES>  (1) 
117.61
2.4
1.18
0.9
0.63
0.21
0.05
-0.19
-0.46
-0.66
-0.14
0.26
-0.06
0.13

>  <PUBCHEM_SHAPE_SELFOVERLAP>  (1) 
207.183

>  <PUBCHEM_SHAPE_VOLUME>  (1) 
77.7

>  <PUBCHEM_COORDINATE_TYPE>  (1) 
2
5
10

$$$$
