12993
     RDKit          3D

  6  5  0  0  0  0  0  0  0  0999 V2000
    2.8444    0.3565    0.1702 O   0  0  0  0  0  0  0  0  0  0  0  0
   -1.9406   -0.4859    0.2907 C   0  0  0  0  0  0  0  0  0  0  0  0
   -2.6879    0.7664   -0.1410 C   0  0  0  0  0  0  0  0  0  0  0  0
   -0.5589   -0.5282   -0.2934 C   0  0  0  0  0  0  0  0  0  0  0  0
    0.5125   -0.0052    0.3146 C   0  0  0  0  0  0  0  0  0  0  0  0
    1.8305   -0.1036   -0.3410 C   0  0  0  0  0  0  0  0  0  0  0  0
  1  6  2  0
  2  3  1  0
  2  4  1  0
  4  5  2  0
  5  6  1  0
M  END
>  <PUBCHEM_COMPOUND_CID>  (1) 
12993

>  <PUBCHEM_CONFORMER_RMSD>  (1) 
0.4

>  <PUBCHEM_CONFORMER_DIVERSEORDER>  (1) 
1
2

>  <PUBCHEM_MMFF94_PARTIAL_CHARGES>  (1) 
8
1 -0.57
12 0.15
13 0.15
14 0.06
2 0.14
4 -0.29
5 -0.14
6 0.5

>  <PUBCHEM_EFFECTIVE_ROTOR_COUNT>  (1) 
2

>  <PUBCHEM_PHARMACOPHORE_FEATURES>  (1) 
2
1 1 acceptor
1 3 hydrophobe

>  <PUBCHEM_HEAVY_ATOM_COUNT>  (1) 
6

>  <PUBCHEM_ATOM_DEF_STEREO_COUNT>  (1) 
0

>  <PUBCHEM_ATOM_UDEF_STEREO_COUNT>  (1) 
0

>  <PUBCHEM_BOND_DEF_STEREO_COUNT>  (1) 
0

>  <PUBCHEM_BOND_UDEF_STEREO_COUNT>  (1) 
1

>  <PUBCHEM_ISOTOPIC_ATOM_COUNT>  (1) 
0

>  <PUBCHEM_COMPONENT_COUNT>  (1) 
1

>  <PUBCHEM_CACTVS_TAUTO_COUNT>  (1) 
1

>  <PUBCHEM_CONFORMER_ID>  (1) 
000032C100000001

>  <PUBCHEM_MMFF94_ENERGY>  (1) 
0.6521

>  <PUBCHEM_FEATURE_SELFOVERLAP>  (1) 
10.148

>  <PUBCHEM_SHAPE_FINGERPRINT>  (1) 
14390081 3 18413668006746045537
16714656 1 18413671309654900493
20096714 4 18408041831511056317
29004967 10 17703517661417496258
5460574 1 12396294867840549607

>  <PUBCHEM_SHAPE_MULTIPOLES>  (1) 
117.61
4.2
0.81
0.68
0.62
0.02
-0.01
0.98
0.03
-0.33
-0.01
-0.02
-0.02
0.11

>  <PUBCHEM_SHAPE_SELFOVERLAP>  (1) 
208.57

>  <PUBCHEM_SHAPE_VOLUME>  (1) 
76.6

>  <PUBCHEM_COORDINATE_TYPE>  (1) 
2
5
10

$$$$
