12992
     RDKit          3D

  8  7  0  0  0  0  0  0  0  0999 V2000
   -1.8703    0.0010   -0.0001 C   0  0  0  0  0  0  0  0  0  0  0  0
    1.8843    0.0438    0.0000 C   0  0  0  0  0  0  0  0  0  0  0  0
   -0.5826   -0.3989    0.0012 C   0  0  0  0  0  0  0  0  0  0  0  0
    0.5967    0.4440   -0.0013 C   0  0  0  0  0  0  0  0  0  0  0  0
   -2.9773   -1.0230   -0.0035 C   0  0  0  0  0  0  0  0  0  0  0  0
   -2.3619    1.4232    0.0032 C   0  0  0  0  0  0  0  0  0  0  0  0
    3.0952    0.9371   -0.0027 C   0  0  0  0  0  0  0  0  0  0  0  0
    2.2159   -1.4273    0.0032 C   0  0  0  0  0  0  0  0  0  0  0  0
  1  3  2  3
  1  5  1  0
  1  6  1  0
  2  4  2  3
  2  7  1  0
  2  8  1  0
  3  4  1  0
M  END
>  <PUBCHEM_COMPOUND_CID>  (1) 
12992

>  <PUBCHEM_CONFORMER_RMSD>  (1) 
0.4

>  <PUBCHEM_CONFORMER_DIVERSEORDER>  (1) 
1

>  <PUBCHEM_MMFF94_PARTIAL_CHARGES>  (1) 
10
1 -0.28
10 0.15
2 -0.28
3 -0.15
4 -0.15
5 0.14
6 0.14
7 0.14
8 0.14
9 0.15

>  <PUBCHEM_EFFECTIVE_ROTOR_COUNT>  (1) 
1

>  <PUBCHEM_PHARMACOPHORE_FEATURES>  (1) 
2
3 1 5 6 hydrophobe
3 2 7 8 hydrophobe

>  <PUBCHEM_HEAVY_ATOM_COUNT>  (1) 
8

>  <PUBCHEM_ATOM_DEF_STEREO_COUNT>  (1) 
0

>  <PUBCHEM_ATOM_UDEF_STEREO_COUNT>  (1) 
0

>  <PUBCHEM_BOND_DEF_STEREO_COUNT>  (1) 
0

>  <PUBCHEM_BOND_UDEF_STEREO_COUNT>  (1) 
0

>  <PUBCHEM_ISOTOPIC_ATOM_COUNT>  (1) 
0

>  <PUBCHEM_COMPONENT_COUNT>  (1) 
1

>  <PUBCHEM_CACTVS_TAUTO_COUNT>  (1) 
1

>  <PUBCHEM_CONFORMER_ID>  (1) 
000032C000000001

>  <PUBCHEM_MMFF94_ENERGY>  (1) 
11.2554

>  <PUBCHEM_FEATURE_SELFOVERLAP>  (1) 
10.149

>  <PUBCHEM_SHAPE_FINGERPRINT>  (1) 
11062470 55 16588296233031280447
12897270 3 18411135882864291245
12932764 1 17489298711276210343
14325111 11 18410575076078419073
14390081 3 18412824698475865928
15310529 11 18343580754666802727
19973954 147 18411139108374538261
23552423 10 18261675878566449090
29004967 10 18334017202691878936
3248919 1 18335692832379068050
5460574 1 9295296040235203714

>  <PUBCHEM_SHAPE_MULTIPOLES>  (1) 
164.64
5.2
1.41
0.62
0.14
0.03
0
-0.13
0
-0.08
0
0
0
0

>  <PUBCHEM_SHAPE_SELFOVERLAP>  (1) 
300.603

>  <PUBCHEM_SHAPE_VOLUME>  (1) 
104.8

>  <PUBCHEM_COORDINATE_TYPE>  (1) 
2
5
10

$$$$
