12995
     RDKit          3D

  6  5  0  0  0  0  0  0  0  0999 V2000
   -0.6100    0.4206    0.1598 O   0  0  0  0  0  0  0  0  0  0  0  0
    2.9445   -0.2864   -0.1140 O   0  0  0  0  0  0  0  0  0  0  0  0
    0.5572   -0.3833    0.0380 C   0  0  0  0  0  0  0  0  0  0  0  0
    1.7759    0.5182   -0.0126 C   0  0  0  0  0  0  0  0  0  0  0  0
   -1.7369   -0.3312    0.1890 C   0  0  0  0  0  0  0  0  0  0  0  0
   -2.9307    0.0621   -0.2602 C   0  0  0  0  0  0  0  0  0  0  0  0
  1  3  1  0
  1  5  1  0
  2  4  1  0
  3  4  1  0
  5  6  2  0
M  END
>  <PUBCHEM_COMPOUND_CID>  (1) 
12995

>  <PUBCHEM_CONFORMER_RMSD>  (1) 
0.4

>  <PUBCHEM_CONFORMER_DIVERSEORDER>  (1) 
3
20
11
17
16
21
2
6
13
19
15
1
18
14
4
8
9
7
10
5
12

>  <PUBCHEM_MMFF94_PARTIAL_CHARGES>  (1) 
10
1 -0.36
11 0.15
12 0.4
13 0.15
14 0.15
2 -0.68
3 0.28
4 0.28
5 -0.07
6 -0.3

>  <PUBCHEM_EFFECTIVE_ROTOR_COUNT>  (1) 
3

>  <PUBCHEM_PHARMACOPHORE_FEATURES>  (1) 
3
1 1 acceptor
1 2 acceptor
1 2 donor

>  <PUBCHEM_HEAVY_ATOM_COUNT>  (1) 
6

>  <PUBCHEM_ATOM_DEF_STEREO_COUNT>  (1) 
0

>  <PUBCHEM_ATOM_UDEF_STEREO_COUNT>  (1) 
0

>  <PUBCHEM_BOND_DEF_STEREO_COUNT>  (1) 
0

>  <PUBCHEM_BOND_UDEF_STEREO_COUNT>  (1) 
0

>  <PUBCHEM_ISOTOPIC_ATOM_COUNT>  (1) 
0

>  <PUBCHEM_COMPONENT_COUNT>  (1) 
1

>  <PUBCHEM_CACTVS_TAUTO_COUNT>  (1) 
1

>  <PUBCHEM_CONFORMER_ID>  (1) 
000032C300000003

>  <PUBCHEM_MMFF94_ENERGY>  (1) 
11.0647

>  <PUBCHEM_FEATURE_SELFOVERLAP>  (1) 
15.223

>  <PUBCHEM_SHAPE_FINGERPRINT>  (1) 
14390081 3 17967246516213712349
16714656 1 18411699898191141567
29004967 10 12103851171805517982
5460574 1 9223234043855797395

>  <PUBCHEM_SHAPE_MULTIPOLES>  (1) 
111.74
4.54
0.71
0.61
0.11
0.01
0
-0.05
-0.42
0.06
0.01
-0.07
0
0.05

>  <PUBCHEM_SHAPE_SELFOVERLAP>  (1) 
194.59

>  <PUBCHEM_SHAPE_VOLUME>  (1) 
74.1

>  <PUBCHEM_COORDINATE_TYPE>  (1) 
2
5
10

$$$$
