12990
     RDKit          3D

  7  6  0  0  0  0  0  0  0  0999 V2000
    1.8139    1.2181    0.2651 O   0  0  0  0  0  0  0  0  0  0  0  0
   -2.2739    0.0502   -0.5595 C   0  0  0  0  0  0  0  0  0  0  0  0
   -0.8559    0.4495   -0.2715 C   0  0  0  0  0  0  0  0  0  0  0  0
   -3.0165   -0.3195    0.7149 C   0  0  0  0  0  0  0  0  0  0  0  0
    0.1629   -0.4202   -0.2504 C   0  0  0  0  0  0  0  0  0  0  0  0
    1.5469    0.0380    0.0506 C   0  0  0  0  0  0  0  0  0  0  0  0
    2.6226   -1.0161    0.0508 C   0  0  0  0  0  0  0  0  0  0  0  0
  1  6  2  0
  2  3  1  0
  2  4  1  0
  3  5  2  0
  5  6  1  0
  6  7  1  0
M  END
>  <PUBCHEM_COMPOUND_CID>  (1) 
12990

>  <PUBCHEM_CONFORMER_RMSD>  (1) 
0.4

>  <PUBCHEM_CONFORMER_DIVERSEORDER>  (1) 
2
1
5
4
3

>  <PUBCHEM_MMFF94_PARTIAL_CHARGES>  (1) 
8
1 -0.57
10 0.15
14 0.15
2 0.14
3 -0.29
5 -0.14
6 0.49
7 0.06

>  <PUBCHEM_EFFECTIVE_ROTOR_COUNT>  (1) 
2

>  <PUBCHEM_PHARMACOPHORE_FEATURES>  (1) 
2
1 1 acceptor
1 4 hydrophobe

>  <PUBCHEM_HEAVY_ATOM_COUNT>  (1) 
7

>  <PUBCHEM_ATOM_DEF_STEREO_COUNT>  (1) 
0

>  <PUBCHEM_ATOM_UDEF_STEREO_COUNT>  (1) 
0

>  <PUBCHEM_BOND_DEF_STEREO_COUNT>  (1) 
0

>  <PUBCHEM_BOND_UDEF_STEREO_COUNT>  (1) 
1

>  <PUBCHEM_ISOTOPIC_ATOM_COUNT>  (1) 
0

>  <PUBCHEM_COMPONENT_COUNT>  (1) 
1

>  <PUBCHEM_CACTVS_TAUTO_COUNT>  (1) 
5

>  <PUBCHEM_CONFORMER_ID>  (1) 
000032BE00000002

>  <PUBCHEM_MMFF94_ENERGY>  (1) 
4.3618

>  <PUBCHEM_FEATURE_SELFOVERLAP>  (1) 
10.148

>  <PUBCHEM_SHAPE_FINGERPRINT>  (1) 
10857977 72 17676484003543329145
12897270 3 7925623419014852998
12932741 1 17894901928123647165
12932764 1 18410853269795126351
14390081 3 12607407672063959675
29004967 10 18259984889933674113
5460574 1 11312056556159787191

>  <PUBCHEM_SHAPE_MULTIPOLES>  (1) 
138.19
4.57
0.98
0.75
1.16
0.08
-0.01
-0.88
-0.64
-0.54
-0.07
0.31
-0.02
0.24

>  <PUBCHEM_SHAPE_SELFOVERLAP>  (1) 
249.43

>  <PUBCHEM_SHAPE_VOLUME>  (1) 
89.2

>  <PUBCHEM_COORDINATE_TYPE>  (1) 
2
5
10

$$$$
