12994
     RDKit          3D

  6  5  0  0  0  0  0  0  0  0999 V2000
    2.9829    0.1524    0.0002 N   0  0  0  0  0  0  0  0  0  0  0  0
   -2.9827   -0.1529    0.0002 N   0  0  0  0  0  0  0  0  0  0  0  0
    0.4774   -0.4690   -0.0002 C   0  0  0  0  0  0  0  0  0  0  0  0
   -0.4775    0.4693   -0.0001 C   0  0  0  0  0  0  0  0  0  0  0  0
    1.8561   -0.1245    0.0000 C   0  0  0  0  0  0  0  0  0  0  0  0
   -1.8560    0.1247   -0.0001 C   0  0  0  0  0  0  0  0  0  0  0  0
  1  5  3  0
  2  6  3  0
  3  4  2  0
  3  5  1  0
  4  6  1  0
M  END
>  <PUBCHEM_COMPOUND_CID>  (1) 
12994

>  <PUBCHEM_CONFORMER_RMSD>  (1) 
0.4

>  <PUBCHEM_CONFORMER_DIVERSEORDER>  (1) 
1

>  <PUBCHEM_MMFF94_PARTIAL_CHARGES>  (1) 
8
1 -0.56
2 -0.56
3 -0.09
4 -0.09
5 0.49
6 0.49
7 0.15
8 0.15

>  <PUBCHEM_EFFECTIVE_ROTOR_COUNT>  (1) 
0

>  <PUBCHEM_PHARMACOPHORE_FEATURES>  (1) 
2
1 1 acceptor
1 2 acceptor

>  <PUBCHEM_HEAVY_ATOM_COUNT>  (1) 
6

>  <PUBCHEM_ATOM_DEF_STEREO_COUNT>  (1) 
0

>  <PUBCHEM_ATOM_UDEF_STEREO_COUNT>  (1) 
0

>  <PUBCHEM_BOND_DEF_STEREO_COUNT>  (1) 
0

>  <PUBCHEM_BOND_UDEF_STEREO_COUNT>  (1) 
1

>  <PUBCHEM_ISOTOPIC_ATOM_COUNT>  (1) 
0

>  <PUBCHEM_COMPONENT_COUNT>  (1) 
1

>  <PUBCHEM_CACTVS_TAUTO_COUNT>  (1) 
1

>  <PUBCHEM_CONFORMER_ID>  (1) 
000032C200000001

>  <PUBCHEM_MMFF94_ENERGY>  (1) 
1.7957

>  <PUBCHEM_FEATURE_SELFOVERLAP>  (1) 
10.149

>  <PUBCHEM_SHAPE_FINGERPRINT>  (1) 
11062470 55 16515402967143246741
14390081 3 18413385427804581720
16714656 1 18060418019022792295
29004967 10 18409735049310862395
5460574 1 9295288343648534530

>  <PUBCHEM_SHAPE_MULTIPOLES>  (1) 
113.52
4.37
0.68
0.59
0
0
0
0
0
0
0
0
0
0

>  <PUBCHEM_SHAPE_SELFOVERLAP>  (1) 
210.968

>  <PUBCHEM_SHAPE_VOLUME>  (1) 
66.7

>  <PUBCHEM_COORDINATE_TYPE>  (1) 
2
5
10

$$$$
