12997
     RDKit          3D

 10  9  0  0  0  0  0  0  0  0999 V2000
    0.6030    0.2785   -0.0034 C   0  0  0  0  0  0  0  0  0  0  0  0
    1.9104   -0.5167   -0.0205 C   0  0  0  0  0  0  0  0  0  0  0  0
   -0.6474   -0.6063   -0.0149 C   0  0  0  0  0  0  0  0  0  0  0  0
    3.1249    0.4146   -0.0201 C   0  0  0  0  0  0  0  0  0  0  0  0
   -1.9562    0.1923   -0.0226 C   0  0  0  0  0  0  0  0  0  0  0  0
    4.4325   -0.3767    0.0012 C   0  0  0  0  0  0  0  0  0  0  0  0
   -3.1960   -0.7034    0.0343 C   0  0  0  0  0  0  0  0  0  0  0  0
    5.6407    0.5455    0.0353 C   0  0  0  0  0  0  0  0  0  0  0  0
   -4.4449    0.0712    0.0131 C   0  0  0  0  0  0  0  0  0  0  0  0
   -5.4669    0.7009   -0.0024 C   0  0  0  0  0  0  0  0  0  0  0  0
  1  2  1  0
  1  3  1  0
  2  4  1  0
  3  5  1  0
  4  6  1  0
  5  7  1  0
  6  8  1  0
  7  9  1  0
  9 10  3  0
M  END
>  <PUBCHEM_COMPOUND_CID>  (1) 
12997

>  <PUBCHEM_CONFORMER_RMSD>  (1) 
0.6

>  <PUBCHEM_CONFORMER_DIVERSEORDER>  (1) 
1
122
133
24
55
67
36
74
113
13
132
88
19
40
111
59
137
5
68
26
109
112
94
50
131
38
58
130
3
110
77
69
12
80
136
121
82
11
84
27
79
15
64
106
25
99
10
83
6
135
98
60
22
65
41
138
118
30
72
16
126
17
107
43
101
134
35
18
39
129
56
115
20
33
103
53
63
128
44
8
96
57
51
49
124
4
114
46
140
9
85
32
102
93
70
2
139
52
14
48
108
119
34
105
7
97
42
92
29
116
71
117
78
90
100
81
127
21
54
123
73
66
86
61
87
95
23
37
125
28
76
89
62
47
31
120
104
45
91
75

>  <PUBCHEM_MMFF94_PARTIAL_CHARGES>  (1) 
4
10 -0.18
28 0.18
7 0.2
9 -0.2

>  <PUBCHEM_EFFECTIVE_ROTOR_COUNT>  (1) 
6

>  <PUBCHEM_PHARMACOPHORE_FEATURES>  (1) 
2
1 10 hydrophobe
1 8 hydrophobe

>  <PUBCHEM_HEAVY_ATOM_COUNT>  (1) 
10

>  <PUBCHEM_ATOM_DEF_STEREO_COUNT>  (1) 
0

>  <PUBCHEM_ATOM_UDEF_STEREO_COUNT>  (1) 
0

>  <PUBCHEM_BOND_DEF_STEREO_COUNT>  (1) 
0

>  <PUBCHEM_BOND_UDEF_STEREO_COUNT>  (1) 
0

>  <PUBCHEM_ISOTOPIC_ATOM_COUNT>  (1) 
0

>  <PUBCHEM_COMPONENT_COUNT>  (1) 
1

>  <PUBCHEM_CACTVS_TAUTO_COUNT>  (1) 
1

>  <PUBCHEM_CONFORMER_ID>  (1) 
000032C500000001

>  <PUBCHEM_MMFF94_ENERGY>  (1) 
-2.6239

>  <PUBCHEM_FEATURE_SELFOVERLAP>  (1) 
10.149

>  <PUBCHEM_SHAPE_FINGERPRINT>  (1) 
11062470 55 18412263934861024423
11401426 45 18272368680833656919
114248 4 10592042457584893959
12815109 37 18411136935131402128
14123238 8 18411136935110147228
1420 363 9079114479319270581
14251718 22 11743835867572460261
15048467 5 18410011035214178892
15242439 84 17418092134964429794
15501527 16 18408323281008269445
17834072 33 16128366120912150989
17834076 25 18410011039508834371
18342897 14 18409166614573531633
187816 3 15410896262421922415
20645477 70 18059579014442245254
20719005 15 18410575084673634918
20767249 13 11455891360275538574
20767249 213 18411981364836497349
20828058 44 16153432770085953107
22485316 2 18413950589713711158
23402539 116 18273208712028030695
23402655 69 18131913741186327183
366044 4 18409729568901457347
42788 4 18410855464428403844
59345606 91 18342175574685675928

>  <PUBCHEM_SHAPE_MULTIPOLES>  (1) 
205.8
13.55
0.85
0.62
1.27
0.02
0
-2.79
-0.13
-0.12
0
0
0
0.02

>  <PUBCHEM_SHAPE_SELFOVERLAP>  (1) 
364.504

>  <PUBCHEM_SHAPE_VOLUME>  (1) 
134

>  <PUBCHEM_COORDINATE_TYPE>  (1) 
2
5
10

$$$$
