130
     RDKit          3D

 15 14  0  0  1  0  0  0  0  0999 V2000
    0.7959   -0.1949   -1.5861 O   0  0  0  0  0  0  0  0  0  0  0  0
    1.3277    2.2693    0.9172 O   0  0  0  0  0  0  0  0  0  0  0  0
    2.3334    1.8436   -1.0707 O   0  0  0  0  0  0  0  0  0  0  0  0
    2.3847   -2.3354   -0.2399 O   0  0  0  0  0  0  0  0  0  0  0  0
   -1.7703   -1.3769   -0.8160 O   0  0  0  0  0  0  0  0  0  0  0  0
    3.3326   -0.8321    1.1725 O   0  0  0  0  0  0  0  0  0  0  0  0
   -4.1104   -1.0061    0.1868 O   0  0  0  0  0  0  0  0  0  0  0  0
   -3.5274    1.1085    0.8327 O   0  0  0  0  0  0  0  0  0  0  0  0
    0.5569    0.3560   -0.2812 C   0  0  0  0  0  0  0  0  0  0  0  0
   -0.9039    0.8332   -0.2545 C   0  0  0  0  0  0  0  0  0  0  0  0
    0.9530   -0.7048    0.7585 C   0  0  0  0  0  0  0  0  0  0  0  0
    1.5031    1.5511   -0.2207 C   0  0  0  0  0  0  0  0  0  0  0  0
   -1.9369   -0.2772   -0.3105 C   0  0  0  0  0  0  0  0  0  0  0  0
    2.3433   -1.2752    0.6035 C   0  0  0  0  0  0  0  0  0  0  0  0
   -3.2816    0.0409    0.3083 C   0  0  0  0  0  0  0  0  0  0  0  0
  1  9  1  0
  2 12  1  0
  3 12  2  0
  4 14  1  0
  5 13  2  0
  6 14  2  0
  7 15  1  0
  8 15  2  0
  9 10  1  0
  9 11  1  0
  9 12  1  0
 10 13  1  0
 11 14  1  0
 13 15  1  0
M  END
>  <PUBCHEM_COMPOUND_CID>  (1) 
130

>  <PUBCHEM_CONFORMER_RMSD>  (1) 
0.6

>  <PUBCHEM_CONFORMER_DIVERSEORDER>  (1) 
5
94
37
92
86
73
3
77
102
17
44
103
80
97
98
78
96
55
47
79
34
54
24
60
67
26
74
99
23
69
4
57
88
68
71
46
95
85
10
36
93
87
43
83
76
21
11
101
41
13
100
29
64
84
63
27
33
81
2
90
49
66
91
59
39
89
42
16
70
72
8
15
75
40
12
20
6
51
52
28
65
38
18
62
82
50
45
19
61
48
7
1
9
30
25
22
56
58
53
32
14
35
31

>  <PUBCHEM_MMFF94_PARTIAL_CHARGES>  (1) 
19
1 -0.68
10 0.06
11 0.06
12 0.66
13 0.51
14 0.66
15 0.72
2 -0.65
20 0.4
21 0.5
22 0.5
23 0.5
3 -0.57
4 -0.65
5 -0.57
6 -0.57
7 -0.65
8 -0.57
9 0.34

>  <PUBCHEM_EFFECTIVE_ROTOR_COUNT>  (1) 
6

>  <PUBCHEM_PHARMACOPHORE_FEATURES>  (1) 
12
1 1 acceptor
1 1 donor
1 2 acceptor
1 3 acceptor
1 4 acceptor
1 5 acceptor
1 6 acceptor
1 7 acceptor
1 8 acceptor
3 2 3 12 anion
3 4 6 14 anion
3 7 8 15 anion

>  <PUBCHEM_HEAVY_ATOM_COUNT>  (1) 
15

>  <PUBCHEM_ATOM_DEF_STEREO_COUNT>  (1) 
0

>  <PUBCHEM_ATOM_UDEF_STEREO_COUNT>  (1) 
1

>  <PUBCHEM_BOND_DEF_STEREO_COUNT>  (1) 
0

>  <PUBCHEM_BOND_UDEF_STEREO_COUNT>  (1) 
0

>  <PUBCHEM_ISOTOPIC_ATOM_COUNT>  (1) 
0

>  <PUBCHEM_COMPONENT_COUNT>  (1) 
1

>  <PUBCHEM_CACTVS_TAUTO_COUNT>  (1) 
2

>  <PUBCHEM_CONFORMER_ID>  (1) 
0000008200000005

>  <PUBCHEM_MMFF94_ENERGY>  (1) 
23.4741

>  <PUBCHEM_FEATURE_SELFOVERLAP>  (1) 
61.103

>  <PUBCHEM_SHAPE_FINGERPRINT>  (1) 
10980938 120 18410016571448077001
12251169 10 18273207612622092523
12932764 1 18270964660667922973
13380535 21 18189346829895095923
15279307 12 18267024040673837495
15375462 189 18041840597561529442
15501101 241 18113051632102019588
15775835 57 18339648965547535773
16945 1 18341036459132717652
17041 49 18341337678164051345
19422 9 18408890641972140739
201361 129 18337399343161119140
20559304 39 18343585157018869649
20645477 70 18261105297142120503
20653091 64 18333732394789151424
20708731 107 18261115192350670278
20871998 22 18265049137580995202
21061003 4 18190721073585570322
21501502 16 18337107985633264067
21501925 9 18412538808546938643
21524375 3 17696753628960956360
21730867 7 17822570611493407077
22445834 79 18411414020915384371
2255824 54 18114185258681518258
23557571 272 14764622011250136313
305870 269 18196643223422310096
3248919 1 17775290448058761085
7364860 26 18413108389750347980
81228 2 17615670853003650792

>  <PUBCHEM_SHAPE_MULTIPOLES>  (1) 
261.74
5.68
2.05
1.07
4.7
0.28
0.12
-1.41
-1.33
-1.64
-0.03
-0.38
0.08
-0.6

>  <PUBCHEM_SHAPE_SELFOVERLAP>  (1) 
525.939

>  <PUBCHEM_SHAPE_VOLUME>  (1) 
150.9

>  <PUBCHEM_COORDINATE_TYPE>  (1) 
2
5
10

$$$$
