13007
     RDKit          3D

  8  8  0  0  0  0  0  0  0  0999 V2000
    0.5822    0.2645    0.2003 N   0  0  0  0  0  0  0  0  0  0  0  0
    0.1555   -1.0400   -0.3249 C   0  0  0  0  0  0  0  0  0  0  0  0
   -0.3512    1.3280   -0.1967 C   0  0  0  0  0  0  0  0  0  0  0  0
   -1.2418   -1.4071    0.1774 C   0  0  0  0  0  0  0  0  0  0  0  0
   -1.7651    1.0384    0.3097 C   0  0  0  0  0  0  0  0  0  0  0  0
   -2.2570   -0.3234   -0.1671 C   0  0  0  0  0  0  0  0  0  0  0  0
    1.9376    0.5791   -0.2505 C   0  0  0  0  0  0  0  0  0  0  0  0
    2.9398   -0.4396    0.2518 C   0  0  0  0  0  0  0  0  0  0  0  0
  1  2  1  0
  1  3  1  0
  1  7  1  0
  2  4  1  0
  3  5  1  0
  4  6  1  0
  5  6  1  0
  7  8  1  0
M  END
>  <PUBCHEM_COMPOUND_CID>  (1) 
13007

>  <PUBCHEM_CONFORMER_RMSD>  (1) 
0.4

>  <PUBCHEM_CONFORMER_DIVERSEORDER>  (1) 
1
5
8
2
3
9
6
7
4

>  <PUBCHEM_MMFF94_PARTIAL_CHARGES>  (1) 
4
1 -0.81
2 0.27
3 0.27
7 0.27

>  <PUBCHEM_EFFECTIVE_ROTOR_COUNT>  (1) 
2.2

>  <PUBCHEM_PHARMACOPHORE_FEATURES>  (1) 
2
1 1 cation
6 1 2 3 4 5 6 rings

>  <PUBCHEM_HEAVY_ATOM_COUNT>  (1) 
8

>  <PUBCHEM_ATOM_DEF_STEREO_COUNT>  (1) 
0

>  <PUBCHEM_ATOM_UDEF_STEREO_COUNT>  (1) 
0

>  <PUBCHEM_BOND_DEF_STEREO_COUNT>  (1) 
0

>  <PUBCHEM_BOND_UDEF_STEREO_COUNT>  (1) 
0

>  <PUBCHEM_ISOTOPIC_ATOM_COUNT>  (1) 
0

>  <PUBCHEM_COMPONENT_COUNT>  (1) 
1

>  <PUBCHEM_CACTVS_TAUTO_COUNT>  (1) 
1

>  <PUBCHEM_CONFORMER_ID>  (1) 
000032CF00000001

>  <PUBCHEM_MMFF94_ENERGY>  (1) 
-1.0389

>  <PUBCHEM_FEATURE_SELFOVERLAP>  (1) 
10.148

>  <PUBCHEM_SHAPE_FINGERPRINT>  (1) 
10857977 72 18341602771934768560
14325111 11 18411981330265788368
16714656 1 18410294713514101373
18185500 45 18192150614410073359
21040471 1 18339930290121126821
23235685 24 18339920424813395441
23552423 10 18115590481907652158
29004967 10 18190463942272275938
369184 2 16128653046297201850
5084963 1 18410290302619715600

>  <PUBCHEM_SHAPE_MULTIPOLES>  (1) 
159.66
3.51
1.46
0.66
1.93
0.04
0.01
0.23
-0.23
-0.48
0.01
0
0
-0.11

>  <PUBCHEM_SHAPE_SELFOVERLAP>  (1) 
300.318

>  <PUBCHEM_SHAPE_VOLUME>  (1) 
100.6

>  <PUBCHEM_COORDINATE_TYPE>  (1) 
2
5
10

$$$$
