13004
     RDKit          3D

  6  6  0  0  0  0  0  0  0  0999 V2000
    0.8913   -1.3182    0.0015 O   0  0  0  0  0  0  0  0  0  0  0  0
   -0.5057    0.6229   -0.0014 C   0  0  0  0  0  0  0  0  0  0  0  0
   -1.6282    0.0042   -0.7503 C   0  0  0  0  0  0  0  0  0  0  0  0
   -1.6290    0.0090    0.7504 C   0  0  0  0  0  0  0  0  0  0  0  0
    0.8194   -0.0903    0.0007 C   0  0  0  0  0  0  0  0  0  0  0  0
    2.0523    0.7725   -0.0009 C   0  0  0  0  0  0  0  0  0  0  0  0
  1  5  2  0
  2  3  1  0
  2  4  1  0
  2  5  1  0
  3  4  1  0
  5  6  1  0
M  END
>  <PUBCHEM_COMPOUND_CID>  (1) 
13004

>  <PUBCHEM_CONFORMER_RMSD>  (1) 
0.4

>  <PUBCHEM_CONFORMER_DIVERSEORDER>  (1) 
1
6
4
2
5
3

>  <PUBCHEM_MMFF94_PARTIAL_CHARGES>  (1) 
11
1 -0.57
10 0.1
11 0.1
2 -0.1
3 -0.2
4 -0.2
5 0.51
6 0.06
7 0.1
8 0.1
9 0.1

>  <PUBCHEM_EFFECTIVE_ROTOR_COUNT>  (1) 
1.6

>  <PUBCHEM_PHARMACOPHORE_FEATURES>  (1) 
1
1 1 acceptor

>  <PUBCHEM_HEAVY_ATOM_COUNT>  (1) 
6

>  <PUBCHEM_ATOM_DEF_STEREO_COUNT>  (1) 
0

>  <PUBCHEM_ATOM_UDEF_STEREO_COUNT>  (1) 
0

>  <PUBCHEM_BOND_DEF_STEREO_COUNT>  (1) 
0

>  <PUBCHEM_BOND_UDEF_STEREO_COUNT>  (1) 
0

>  <PUBCHEM_ISOTOPIC_ATOM_COUNT>  (1) 
0

>  <PUBCHEM_COMPONENT_COUNT>  (1) 
1

>  <PUBCHEM_CACTVS_TAUTO_COUNT>  (1) 
3

>  <PUBCHEM_CONFORMER_ID>  (1) 
000032CC00000001

>  <PUBCHEM_MMFF94_ENERGY>  (1) 
10.1255

>  <PUBCHEM_FEATURE_SELFOVERLAP>  (1) 
5.074

>  <PUBCHEM_SHAPE_FINGERPRINT>  (1) 
20096714 4 18201723963527263144
21040471 1 18338517546712985376
24536 1 17894916187251701789
29004967 10 18260556627442937225
5460574 1 9223239545714340705

>  <PUBCHEM_SHAPE_MULTIPOLES>  (1) 
117.61
2.53
0.99
0.8
0.42
0.22
0
-0.37
0
0.33
0
-0.33
-0.02
0

>  <PUBCHEM_SHAPE_SELFOVERLAP>  (1) 
222.923

>  <PUBCHEM_SHAPE_VOLUME>  (1) 
74.3

>  <PUBCHEM_COORDINATE_TYPE>  (1) 
2
5
10

$$$$
