13002
     RDKit          3D

  5  5  0  0  1  0  0  0  0  0999 V2000
    1.4291    0.6190   -0.1427 O   0  0  0  0  0  0  0  0  0  0  0  0
   -2.0261   -0.2607   -0.0294 O   0  0  0  0  0  0  0  0  0  0  0  0
    0.2927    0.0662    0.5079 C   0  0  0  0  0  0  0  0  0  0  0  0
    1.2989   -0.8085   -0.1475 C   0  0  0  0  0  0  0  0  0  0  0  0
   -0.9947    0.3839   -0.1882 C   0  0  0  0  0  0  0  0  0  0  0  0
  1  3  1  0
  1  4  1  0
  2  5  2  0
  3  4  1  0
  3  5  1  0
M  END
>  <PUBCHEM_COMPOUND_CID>  (1) 
13002

>  <PUBCHEM_CONFORMER_RMSD>  (1) 
0.4

>  <PUBCHEM_CONFORMER_DIVERSEORDER>  (1) 
2
1

>  <PUBCHEM_MMFF94_PARTIAL_CHARGES>  (1) 
9
1 -0.3
2 -0.57
3 0.05
4 -0.05
5 0.51
6 0.1
7 0.1
8 0.1
9 0.06

>  <PUBCHEM_EFFECTIVE_ROTOR_COUNT>  (1) 
1.6

>  <PUBCHEM_PHARMACOPHORE_FEATURES>  (1) 
2
1 1 acceptor
1 2 acceptor

>  <PUBCHEM_HEAVY_ATOM_COUNT>  (1) 
5

>  <PUBCHEM_ATOM_DEF_STEREO_COUNT>  (1) 
0

>  <PUBCHEM_ATOM_UDEF_STEREO_COUNT>  (1) 
1

>  <PUBCHEM_BOND_DEF_STEREO_COUNT>  (1) 
0

>  <PUBCHEM_BOND_UDEF_STEREO_COUNT>  (1) 
0

>  <PUBCHEM_ISOTOPIC_ATOM_COUNT>  (1) 
0

>  <PUBCHEM_COMPONENT_COUNT>  (1) 
1

>  <PUBCHEM_CACTVS_TAUTO_COUNT>  (1) 
2

>  <PUBCHEM_CONFORMER_ID>  (1) 
000032CA00000002

>  <PUBCHEM_MMFF94_ENERGY>  (1) 
4.7233

>  <PUBCHEM_FEATURE_SELFOVERLAP>  (1) 
10.149

>  <PUBCHEM_SHAPE_FINGERPRINT>  (1) 
139733 1 11025812984576561906
20096714 4 18261394485257362148
21015797 1 8645899162865825704
24536 1 18339066108431071529
29004967 10 18413110554202927290
5460574 1 9223232948649692913
5943 1 17340164106933534600

>  <PUBCHEM_SHAPE_MULTIPOLES>  (1) 
91.16
2.2
0.82
0.65
0.7
0.04
0.04
0.23
-0.16
-0.2
-0.03
-0.03
0
0.02

>  <PUBCHEM_SHAPE_SELFOVERLAP>  (1) 
169.424

>  <PUBCHEM_SHAPE_VOLUME>  (1) 
58.2

>  <PUBCHEM_COORDINATE_TYPE>  (1) 
2
5
10

$$$$
