13015
     RDKit          3D

  9  9  0  0  0  0  0  0  0  0999 V2000
   -2.7593    1.6519   -0.0005 Cl  0  0  0  0  0  0  0  0  0  0  0  0
    3.3377    0.7254   -0.0005 N   0  0  0  0  0  0  0  0  0  0  0  0
    0.8639   -0.0444    0.0005 C   0  0  0  0  0  0  0  0  0  0  0  0
   -0.1615    0.9014    0.0006 C   0  0  0  0  0  0  0  0  0  0  0  0
    0.5575   -1.4053    0.0001 C   0  0  0  0  0  0  0  0  0  0  0  0
   -1.4932    0.4861    0.0003 C   0  0  0  0  0  0  0  0  0  0  0  0
   -0.7741   -1.8205   -0.0002 C   0  0  0  0  0  0  0  0  0  0  0  0
   -1.7994   -0.8748   -0.0002 C   0  0  0  0  0  0  0  0  0  0  0  0
    2.2284    0.3802    0.0000 C   0  0  0  0  0  0  0  0  0  0  0  0
  1  6  1  0
  2  9  3  0
  3  4  2  0
  3  5  1  0
  3  9  1  0
  4  6  1  0
  5  7  2  0
  6  8  2  0
  7  8  1  0
M  END
>  <PUBCHEM_COMPOUND_CID>  (1) 
13015

>  <PUBCHEM_CONFORMER_RMSD>  (1) 
0.4

>  <PUBCHEM_CONFORMER_DIVERSEORDER>  (1) 
1

>  <PUBCHEM_MMFF94_PARTIAL_CHARGES>  (1) 
13
1 -0.18
10 0.15
11 0.15
12 0.15
13 0.15
2 -0.56
3 0.07
4 -0.15
5 -0.15
6 0.18
7 -0.15
8 -0.15
9 0.48

>  <PUBCHEM_EFFECTIVE_ROTOR_COUNT>  (1) 
0

>  <PUBCHEM_PHARMACOPHORE_FEATURES>  (1) 
2
1 2 acceptor
6 3 4 5 6 7 8 rings

>  <PUBCHEM_HEAVY_ATOM_COUNT>  (1) 
9

>  <PUBCHEM_ATOM_DEF_STEREO_COUNT>  (1) 
0

>  <PUBCHEM_ATOM_UDEF_STEREO_COUNT>  (1) 
0

>  <PUBCHEM_BOND_DEF_STEREO_COUNT>  (1) 
0

>  <PUBCHEM_BOND_UDEF_STEREO_COUNT>  (1) 
0

>  <PUBCHEM_ISOTOPIC_ATOM_COUNT>  (1) 
0

>  <PUBCHEM_COMPONENT_COUNT>  (1) 
1

>  <PUBCHEM_CACTVS_TAUTO_COUNT>  (1) 
1

>  <PUBCHEM_CONFORMER_ID>  (1) 
000032D700000001

>  <PUBCHEM_MMFF94_ENERGY>  (1) 
15.2803

>  <PUBCHEM_FEATURE_SELFOVERLAP>  (1) 
10.148

>  <PUBCHEM_SHAPE_FINGERPRINT>  (1) 
12716758 59 18341896307369589202
13024252 1 12613016319157397806
13380535 76 18338513045545204095
14325111 11 18410855456139279520
16945 1 18338799051527808679
20653085 51 18335717047752985448
20871998 184 18127700537067125487
21040471 1 18410856529659485987
23235685 24 18411132507109920645
23402655 69 18197200479108966357
23552423 10 18260831518556822166
241688 4 16322594459275117267
2748010 2 18338526231105430431
369184 2 18271525411413290418
5084963 1 18058733648744865818
6333449 129 18341328971959250461

>  <PUBCHEM_SHAPE_MULTIPOLES>  (1) 
182.1
3.87
1.81
0.61
1.53
0.51
0
-2.26
0
-0.75
0
-0.04
0
0

>  <PUBCHEM_SHAPE_SELFOVERLAP>  (1) 
370.612

>  <PUBCHEM_SHAPE_VOLUME>  (1) 
104.7

>  <PUBCHEM_COORDINATE_TYPE>  (1) 
2
5
10

$$$$
