13014
     RDKit          3D

  9  9  0  0  0  0  0  0  0  0999 V2000
    1.9683    0.5097    0.0006 Si  0  0  0  0  0  4  0  0  0  0  0  0
    0.1293    0.2084   -0.0002 C   0  0  0  0  0  0  0  0  0  0  0  0
    2.7588   -0.2028   -1.5340 C   0  0  0  0  0  0  0  0  0  0  0  0
    2.7571   -0.2064    1.5343 C   0  0  0  0  0  0  0  0  0  0  0  0
   -0.7542    1.2879    0.0009 C   0  0  0  0  0  0  0  0  0  0  0  0
   -0.3640   -1.0964   -0.0013 C   0  0  0  0  0  0  0  0  0  0  0  0
   -2.1307    1.0628    0.0010 C   0  0  0  0  0  0  0  0  0  0  0  0
   -1.7406   -1.3215   -0.0013 C   0  0  0  0  0  0  0  0  0  0  0  0
   -2.6239   -0.2419   -0.0001 C   0  0  0  0  0  0  0  0  0  0  0  0
  1  2  1  0
  1  3  1  0
  1  4  1  0
  2  5  2  0
  2  6  1  0
  5  7  1  0
  6  8  2  0
  7  9  2  0
  8  9  1  0
M  END
>  <PUBCHEM_COMPOUND_CID>  (1) 
13014

>  <PUBCHEM_CONFORMER_RMSD>  (1) 
0.4

>  <PUBCHEM_CONFORMER_DIVERSEORDER>  (1) 
1
2
3

>  <PUBCHEM_MMFF94_PARTIAL_CHARGES>  (1) 
15
1 0.58
10 -0.2
17 0.15
18 0.15
19 0.15
2 -0.22
20 0.15
21 0.15
3 -0.08
4 -0.08
5 -0.15
6 -0.15
7 -0.15
8 -0.15
9 -0.15

>  <PUBCHEM_EFFECTIVE_ROTOR_COUNT>  (1) 
1

>  <PUBCHEM_PHARMACOPHORE_FEATURES>  (1) 
1
6 2 5 6 7 8 9 rings

>  <PUBCHEM_HEAVY_ATOM_COUNT>  (1) 
9

>  <PUBCHEM_ATOM_DEF_STEREO_COUNT>  (1) 
0

>  <PUBCHEM_ATOM_UDEF_STEREO_COUNT>  (1) 
0

>  <PUBCHEM_BOND_DEF_STEREO_COUNT>  (1) 
0

>  <PUBCHEM_BOND_UDEF_STEREO_COUNT>  (1) 
0

>  <PUBCHEM_ISOTOPIC_ATOM_COUNT>  (1) 
0

>  <PUBCHEM_COMPONENT_COUNT>  (1) 
1

>  <PUBCHEM_CACTVS_TAUTO_COUNT>  (1) 
1

>  <PUBCHEM_CONFORMER_ID>  (1) 
000032D600000001

>  <PUBCHEM_MMFF94_ENERGY>  (1) 
15.5829

>  <PUBCHEM_FEATURE_SELFOVERLAP>  (1) 
5.074

>  <PUBCHEM_SHAPE_FINGERPRINT>  (1) 
10857977 72 18272646900088020257
12524768 44 18198906001003332364
12716758 59 18272093751234124583
12932741 1 17703793613145307580
12932764 1 17967254212636903212
15310529 11 16732703860987712549
15775835 57 17894916221891132068
16945 1 18410856551282009029
20201158 50 17703239429383726590
20645464 45 17917701409853557610
20645476 183 17603875540984046119
20653085 51 15841279125437358681
20715346 28 17703790348838209318
21040471 1 18266741290065232005
23552423 10 17825672415257440533
2748010 2 18122621923297323141
29004967 10 16845293864667614096
3248919 1 18060416936686025184
369184 2 18335969947974607425
5084963 1 18059586775352676820
8030462 33 17821730567487887292

>  <PUBCHEM_SHAPE_MULTIPOLES>  (1) 
203.43
4.46
1.32
1.15
0.63
0.04
0
-0.19
0
-0.62
0
1.34
-0.13
0

>  <PUBCHEM_SHAPE_SELFOVERLAP>  (1) 
390.891

>  <PUBCHEM_SHAPE_VOLUME>  (1) 
125.5

>  <PUBCHEM_COORDINATE_TYPE>  (1) 
2
5
10

$$$$
