1302
     RDKit          3D

 17 18  0  0  1  0  0  0  0  0999 V2000
   -4.6895   -0.1780    0.2495 O   0  0  0  0  0  0  0  0  0  0  0  0
    5.0777    0.7728    0.4528 O   0  0  0  0  0  0  0  0  0  0  0  0
    3.0866    1.2314    1.4331 O   0  0  0  0  0  0  0  0  0  0  0  0
    3.1405   -0.4059   -0.3789 C   0  0  0  0  0  0  0  0  0  0  0  0
    1.6713   -0.5876   -0.2008 C   0  0  0  0  0  0  0  0  0  0  0  0
   -0.5809    0.3312   -0.2477 C   0  0  0  0  0  0  0  0  0  0  0  0
   -1.0963   -0.9307    0.1337 C   0  0  0  0  0  0  0  0  0  0  0  0
    0.8055    0.4861   -0.4106 C   0  0  0  0  0  0  0  0  0  0  0  0
    1.1643   -1.8284    0.1741 C   0  0  0  0  0  0  0  0  0  0  0  0
   -0.2102   -2.0002    0.3407 C   0  0  0  0  0  0  0  0  0  0  0  0
    3.5518    0.0046   -1.8076 C   0  0  0  0  0  0  0  0  0  0  0  0
   -1.4671    1.4008   -0.4546 C   0  0  0  0  0  0  0  0  0  0  0  0
   -2.4826   -1.0856    0.2968 C   0  0  0  0  0  0  0  0  0  0  0  0
   -3.3484   -0.0119    0.0868 C   0  0  0  0  0  0  0  0  0  0  0  0
    3.7362    0.6114    0.6010 C   0  0  0  0  0  0  0  0  0  0  0  0
   -2.8415    1.2289   -0.2881 C   0  0  0  0  0  0  0  0  0  0  0  0
   -5.5174    0.9610    0.0196 C   0  0  0  0  0  0  0  0  0  0  0  0
  1 14  1  0
  1 17  1  0
  2 15  1  0
  3 15  2  0
  4  5  1  0
  4 11  1  0
  4 15  1  0
  5  8  2  0
  5  9  1  0
  6  7  2  0
  6  8  1  0
  6 12  1  0
  7 10  1  0
  7 13  1  0
  9 10  2  0
 12 16  2  0
 13 14  2  0
 14 16  1  0
M  END
>  <PUBCHEM_COMPOUND_CID>  (1) 
1302

>  <PUBCHEM_CONFORMER_RMSD>  (1) 
0.6

>  <PUBCHEM_CONFORMER_DIVERSEORDER>  (1) 
1
10
7
11
2
9
8
3
5
12
6
4

>  <PUBCHEM_MMFF94_PARTIAL_CHARGES>  (1) 
21
1 -0.36
10 -0.15
12 -0.15
13 -0.15
14 0.08
15 0.66
16 -0.15
17 0.28
19 0.15
2 -0.65
20 0.15
21 0.15
25 0.15
26 0.15
27 0.15
28 0.5
3 -0.57
4 0.2
5 -0.14
8 -0.15
9 -0.15

>  <PUBCHEM_EFFECTIVE_ROTOR_COUNT>  (1) 
3

>  <PUBCHEM_PHARMACOPHORE_FEATURES>  (1) 
7
1 1 acceptor
1 11 hydrophobe
1 2 acceptor
1 3 acceptor
3 2 3 15 anion
6 5 6 7 8 9 10 rings
6 6 7 12 13 14 16 rings

>  <PUBCHEM_HEAVY_ATOM_COUNT>  (1) 
17

>  <PUBCHEM_ATOM_DEF_STEREO_COUNT>  (1) 
0

>  <PUBCHEM_ATOM_UDEF_STEREO_COUNT>  (1) 
1

>  <PUBCHEM_BOND_DEF_STEREO_COUNT>  (1) 
0

>  <PUBCHEM_BOND_UDEF_STEREO_COUNT>  (1) 
0

>  <PUBCHEM_ISOTOPIC_ATOM_COUNT>  (1) 
0

>  <PUBCHEM_COMPONENT_COUNT>  (1) 
1

>  <PUBCHEM_CACTVS_TAUTO_COUNT>  (1) 
1

>  <PUBCHEM_CONFORMER_ID>  (1) 
0000051600000001

>  <PUBCHEM_MMFF94_ENERGY>  (1) 
54.6293

>  <PUBCHEM_FEATURE_SELFOVERLAP>  (1) 
35.606

>  <PUBCHEM_SHAPE_FINGERPRINT>  (1) 
11132069 177 18335142003097740679
11401426 45 18407757041357611485
11543360 7 16487247798686964319
12119455 92 17703788141568060158
12236239 1 17167864183946809188
12251169 10 17821726152388075092
12403259 415 18334570196943062188
12403814 3 17022900164420524543
12670546 56 14706921839578293677
12969540 114 18271509932641339053
13140716 1 18116718615181813913
13214271 11 18408603695291750743
13380535 76 18260552212253843907
13533116 47 14490187185405831665
13538477 17 17386294323662406810
13583140 156 15864617453663777423
13760787 19 16009324196122745234
15196674 1 18335139744214098171
15375358 24 18186241710716990507
15536298 74 18338237050873124575
16945 1 18261115204987931759
17834072 33 17060330851649752557
17846911 113 18335419079748280899
18186145 218 18131075913415593594
19784866 240 14763802827732098676
20279233 1 18272939336248655190
20510252 161 18341049610433776665
20645477 56 18341895211862797918
20645477 70 16917077611896737398
22854114 59 18411700984812670697
23402539 116 18410003373155936535
23557571 272 18058451078525582031
23559900 14 18411708686153288894
2748010 2 18044377132327087351
34934 24 18408597046787767615
350125 39 18117559522533788846
4047638 21 18131353003278265190
4072396 5 17967802830558491555
4340502 62 16081094749533834993
449060 62 18334862675578486095
474 4 17988359368555161944
4990 188 17917718971758676727
5104073 3 18189621532272741137
5374978 207 18334289838356856250
537710 114 18260274035764277685
53812653 166 18411978070343282954
6333272 397 18335701667459391104
633830 44 18130787845574653405
69090 78 18131629010566682927
7364860 26 18268145349545821314

>  <PUBCHEM_SHAPE_MULTIPOLES>  (1) 
332.24
9.38
1.62
0.98
3.19
0.53
-0.15
-3.55
0.66
0.21
0.17
-1.19
-0.2
0.56

>  <PUBCHEM_SHAPE_SELFOVERLAP>  (1) 
715.996

>  <PUBCHEM_SHAPE_VOLUME>  (1) 
183.5

>  <PUBCHEM_COORDINATE_TYPE>  (1) 
2
5
10

$$$$
