13025
     RDKit          3D

 10 11  0  0  0  0  0  0  0  0999 V2000
   -0.3034    0.9140    0.0004 C   0  0  0  0  0  0  0  0  0  0  0  0
    0.1934   -0.3983    0.0000 C   0  0  0  0  0  0  0  0  0  0  0  0
    0.8345    1.8863   -0.0004 C   0  0  0  0  0  0  0  0  0  0  0  0
    1.6538   -0.3472   -0.0002 C   0  0  0  0  0  0  0  0  0  0  0  0
    2.0157    0.9478   -0.0003 C   0  0  0  0  0  0  0  0  0  0  0  0
   -1.6629    1.1725    0.0005 C   0  0  0  0  0  0  0  0  0  0  0  0
   -0.6706   -1.4813   -0.0004 C   0  0  0  0  0  0  0  0  0  0  0  0
    2.5231   -1.5472    0.0007 C   0  0  0  0  0  0  0  0  0  0  0  0
   -2.5377    0.0846    0.0002 C   0  0  0  0  0  0  0  0  0  0  0  0
   -2.0459   -1.2312   -0.0004 C   0  0  0  0  0  0  0  0  0  0  0  0
  1  2  2  0
  1  3  1  0
  1  6  1  0
  2  4  1  0
  2  7  1  0
  3  5  1  0
  4  5  2  0
  4  8  1  0
  6  9  2  0
  7 10  2  0
  9 10  1  0
M  END
>  <PUBCHEM_COMPOUND_CID>  (1) 
13025

>  <PUBCHEM_CONFORMER_RMSD>  (1) 
0.4

>  <PUBCHEM_CONFORMER_DIVERSEORDER>  (1) 
1

>  <PUBCHEM_MMFF94_PARTIAL_CHARGES>  (1) 
15
1 -0.14
10 -0.15
13 0.15
14 0.15
15 0.15
19 0.15
2 0.03
20 0.15
3 0.28
4 -0.17
5 -0.29
6 -0.15
7 -0.15
8 0.14
9 -0.15

>  <PUBCHEM_EFFECTIVE_ROTOR_COUNT>  (1) 
0.2

>  <PUBCHEM_PHARMACOPHORE_FEATURES>  (1) 
2
5 1 2 3 4 5 rings
6 1 2 6 7 9 10 rings

>  <PUBCHEM_HEAVY_ATOM_COUNT>  (1) 
10

>  <PUBCHEM_ATOM_DEF_STEREO_COUNT>  (1) 
0

>  <PUBCHEM_ATOM_UDEF_STEREO_COUNT>  (1) 
0

>  <PUBCHEM_BOND_DEF_STEREO_COUNT>  (1) 
0

>  <PUBCHEM_BOND_UDEF_STEREO_COUNT>  (1) 
0

>  <PUBCHEM_ISOTOPIC_ATOM_COUNT>  (1) 
0

>  <PUBCHEM_COMPONENT_COUNT>  (1) 
1

>  <PUBCHEM_CACTVS_TAUTO_COUNT>  (1) 
1

>  <PUBCHEM_CONFORMER_ID>  (1) 
000032E100000001

>  <PUBCHEM_MMFF94_ENERGY>  (1) 
24.8691

>  <PUBCHEM_FEATURE_SELFOVERLAP>  (1) 
10.234

>  <PUBCHEM_SHAPE_FINGERPRINT>  (1) 
12524768 44 18410574015279662207
12897270 3 18193839477192240485
14128692 85 18410862040324034006
16945 1 18266740370884130437
18185500 45 18124312976127689279
19973954 147 18410576222987745873
21040471 1 18410575123349679937
23552423 10 18261958551886358766
23559900 14 17981604871901646694
241688 4 18336826381675594560
2748010 2 18410571768953620804
29004967 10 18263927798670646448
369184 2 15051440570731047095
5084963 1 18272647922464297075
7364860 26 18271526502503944520

>  <PUBCHEM_SHAPE_MULTIPOLES>  (1) 
205.8
3.4
1.92
0.62
0.05
0.1
0
-0.76
0
-0.39
0
0
0
0

>  <PUBCHEM_SHAPE_SELFOVERLAP>  (1) 
447.639

>  <PUBCHEM_SHAPE_VOLUME>  (1) 
106.5

>  <PUBCHEM_COORDINATE_TYPE>  (1) 
2
5
10

$$$$
