13029
     RDKit          3D

 10 10  0  0  0  0  0  0  0  0999 V2000
    2.2516    0.1285    1.9138 Cl  0  0  0  0  0  0  0  0  0  0  0  0
    1.7631   -0.0048   -0.0800 Si  0  0  0  0  0  4  0  0  0  0  0  0
   -0.1002   -0.0017   -0.0463 C   0  0  0  0  0  0  0  0  0  0  0  0
    2.4944    1.4622   -0.9570 C   0  0  0  0  0  0  0  0  0  0  0  0
    2.4604   -1.5922   -0.7542 C   0  0  0  0  0  0  0  0  0  0  0  0
   -0.7955    1.2076   -0.0433 C   0  0  0  0  0  0  0  0  0  0  0  0
   -0.7997   -1.2084   -0.0234 C   0  0  0  0  0  0  0  0  0  0  0  0
   -2.1901    1.2104   -0.0174 C   0  0  0  0  0  0  0  0  0  0  0  0
   -2.1944   -1.2055    0.0024 C   0  0  0  0  0  0  0  0  0  0  0  0
   -2.8895    0.0039    0.0055 C   0  0  0  0  0  0  0  0  0  0  0  0
  1  2  1  0
  2  3  1  0
  2  4  1  0
  2  5  1  0
  3  6  2  0
  3  7  1  0
  6  8  1  0
  7  9  2  0
  8 10  2  0
  9 10  1  0
M  END
>  <PUBCHEM_COMPOUND_CID>  (1) 
13029

>  <PUBCHEM_CONFORMER_RMSD>  (1) 
0.4

>  <PUBCHEM_CONFORMER_DIVERSEORDER>  (1) 
1
2
3

>  <PUBCHEM_MMFF94_PARTIAL_CHARGES>  (1) 
15
1 -0.37
10 -0.15
17 0.15
18 0.15
19 0.15
2 0.75
20 0.15
21 0.15
3 -0.22
4 -0.08
5 -0.08
6 -0.15
7 -0.15
8 -0.15
9 -0.15

>  <PUBCHEM_EFFECTIVE_ROTOR_COUNT>  (1) 
1

>  <PUBCHEM_PHARMACOPHORE_FEATURES>  (1) 
1
6 3 6 7 8 9 10 rings

>  <PUBCHEM_HEAVY_ATOM_COUNT>  (1) 
10

>  <PUBCHEM_ATOM_DEF_STEREO_COUNT>  (1) 
0

>  <PUBCHEM_ATOM_UDEF_STEREO_COUNT>  (1) 
0

>  <PUBCHEM_BOND_DEF_STEREO_COUNT>  (1) 
0

>  <PUBCHEM_BOND_UDEF_STEREO_COUNT>  (1) 
0

>  <PUBCHEM_ISOTOPIC_ATOM_COUNT>  (1) 
0

>  <PUBCHEM_COMPONENT_COUNT>  (1) 
1

>  <PUBCHEM_CACTVS_TAUTO_COUNT>  (1) 
1

>  <PUBCHEM_CONFORMER_ID>  (1) 
000032E500000001

>  <PUBCHEM_MMFF94_ENERGY>  (1) 
15.8993

>  <PUBCHEM_FEATURE_SELFOVERLAP>  (1) 
5.074

>  <PUBCHEM_SHAPE_FINGERPRINT>  (1) 
10857977 72 18341886446045452499
12524768 44 18334580173898662133
12716758 59 18342173311248382539
12897270 3 18267035018757679332
12932741 1 17132116887273413420
12932764 1 17418376921476918303
14325111 11 18410299090302183853
14648413 74 18336559239305326948
16945 1 18200027481589073037
170605 34 17896046597322721700
19973954 147 18410581660337286484
20082192 1 18334293137097720964
20201158 50 18058734585232781590
20645464 45 17560507495285726938
20653085 51 18262813860485294785
20671657 53 13552587334139892746
21040471 1 18339921507060647585
21501502 16 18342466923517809158
21524375 3 17608379261493181932
23552423 10 18334861601609860814
2748010 2 18412545383973011999
3248919 1 18410004446834268391
369184 2 17131825461042152779
5084963 1 18270403776102972088
7364860 26 18413393150751755500
8030462 33 17989208144075927477

>  <PUBCHEM_SHAPE_MULTIPOLES>  (1) 
225.88
4.56
1.63
1.18
0.95
0.09
0.54
-0.01
-0.06
-0.2
-0.38
-1.18
-0.09
0.02

>  <PUBCHEM_SHAPE_SELFOVERLAP>  (1) 
430.195

>  <PUBCHEM_SHAPE_VOLUME>  (1) 
140.5

>  <PUBCHEM_COORDINATE_TYPE>  (1) 
2
5
10

$$$$
