13037
     RDKit          3D

 11 11  0  0  0  0  0  0  0  0999 V2000
    1.7295   -0.3775    0.2653 O   0  0  0  0  0  0  0  0  0  0  0  0
    1.2631    1.7721   -0.4721 O   0  0  0  0  0  0  0  0  0  0  0  0
   -0.5007    0.2288   -0.0576 C   0  0  0  0  0  0  0  0  0  0  0  0
   -1.4930    1.1664    0.2284 C   0  0  0  0  0  0  0  0  0  0  0  0
   -0.8443   -1.1048   -0.2787 C   0  0  0  0  0  0  0  0  0  0  0  0
   -2.8289    0.7704    0.2935 C   0  0  0  0  0  0  0  0  0  0  0  0
   -2.1802   -1.5009   -0.2139 C   0  0  0  0  0  0  0  0  0  0  0  0
   -3.1725   -0.5632    0.0722 C   0  0  0  0  0  0  0  0  0  0  0  0
    0.8921    0.6413   -0.1250 C   0  0  0  0  0  0  0  0  0  0  0  0
    3.0781   -0.0764    0.2555 C   0  0  0  0  0  0  0  0  0  0  0  0
    4.0568   -0.9562    0.0326 C   0  0  0  0  0  0  0  0  0  0  0  0
  1  9  1  0
  1 10  1  0
  2  9  2  0
  3  4  2  0
  3  5  1  0
  3  9  1  0
  4  6  1  0
  5  7  2  0
  6  8  2  0
  7  8  1  0
 10 11  2  0
M  END
>  <PUBCHEM_COMPOUND_CID>  (1) 
13037

>  <PUBCHEM_CONFORMER_RMSD>  (1) 
0.6

>  <PUBCHEM_CONFORMER_DIVERSEORDER>  (1) 
1
8
2
4
5
6
7
3

>  <PUBCHEM_MMFF94_PARTIAL_CHARGES>  (1) 
19
1 -0.23
10 -0.07
11 -0.3
12 0.15
13 0.15
14 0.15
15 0.15
16 0.15
17 0.15
18 0.15
19 0.15
2 -0.57
3 0.09
4 -0.15
5 -0.15
6 -0.15
7 -0.15
8 -0.15
9 0.63

>  <PUBCHEM_EFFECTIVE_ROTOR_COUNT>  (1) 
3

>  <PUBCHEM_PHARMACOPHORE_FEATURES>  (1) 
2
1 2 acceptor
6 3 4 5 6 7 8 rings

>  <PUBCHEM_HEAVY_ATOM_COUNT>  (1) 
11

>  <PUBCHEM_ATOM_DEF_STEREO_COUNT>  (1) 
0

>  <PUBCHEM_ATOM_UDEF_STEREO_COUNT>  (1) 
0

>  <PUBCHEM_BOND_DEF_STEREO_COUNT>  (1) 
0

>  <PUBCHEM_BOND_UDEF_STEREO_COUNT>  (1) 
0

>  <PUBCHEM_ISOTOPIC_ATOM_COUNT>  (1) 
0

>  <PUBCHEM_COMPONENT_COUNT>  (1) 
1

>  <PUBCHEM_CACTVS_TAUTO_COUNT>  (1) 
1

>  <PUBCHEM_CONFORMER_ID>  (1) 
000032ED00000001

>  <PUBCHEM_MMFF94_ENERGY>  (1) 
34.6974

>  <PUBCHEM_FEATURE_SELFOVERLAP>  (1) 
10.148

>  <PUBCHEM_SHAPE_FINGERPRINT>  (1) 
10465860 71 18266763358108197060
11769659 78 18339636840743998382
12032990 46 18410579465835916314
12932764 1 17313372440006184376
13024252 1 15502376708184757665
13690532 89 18410289207677413679
14128692 85 18409167752935056860
14144814 61 18410011031087782946
14325111 11 18412544318673442328
14577589 140 18409449159213376831
14993402 34 18335135367109426879
16945 1 18340497694271995861
17804303 29 18272655627751689994
18511873 20 18410576171448112473
19422 9 18333456443266853902
20645464 45 17418379081940426639
207724 885 18333733506953390504
20871998 184 18060138794783440583
22485316 2 18335134263877942162
23402539 116 17917421009230782549
23463225 33 18337108965112725846
23552423 10 18189615127869736605
369184 2 16271924921939656219
5084963 1 18411417332371988993
7364860 26 18197780105792688952
75552 356 18342457027928983330

>  <PUBCHEM_SHAPE_MULTIPOLES>  (1) 
214.64
5.96
1.51
0.65
4.43
0.09
0
-1.62
0.53
-0.35
-0.14
-0.01
0.02
-0.27

>  <PUBCHEM_SHAPE_SELFOVERLAP>  (1) 
443.942

>  <PUBCHEM_SHAPE_VOLUME>  (1) 
122.8

>  <PUBCHEM_COORDINATE_TYPE>  (1) 
2
5
10

$$$$
