13045
     RDKit          3D

 13 13  0  0  0  0  0  0  0  0999 V2000
    1.7136    0.1660   -1.3784 F   0  0  0  0  0  0  0  0  0  0  0  0
    1.7221    1.7640    0.1034 F   0  0  0  0  0  0  0  0  0  0  0  0
    2.2285   -0.2748    0.6920 F   0  0  0  0  0  0  0  0  0  0  0  0
    0.3405   -2.0908    0.7815 F   0  0  0  0  0  0  0  0  0  0  0  0
   -0.1769   -1.6623   -1.2916 F   0  0  0  0  0  0  0  0  0  0  0  0
   -1.7006   -1.5308    0.2638 F   0  0  0  0  0  0  0  0  0  0  0  0
   -0.2817    0.4717    1.5871 O   0  0  0  0  0  0  0  0  0  0  0  0
   -0.8915    1.0230   -0.6429 N   0  0  0  0  0  0  0  0  0  0  0  0
   -0.0536    0.1812    0.2093 C   0  0  0  0  0  0  0  0  0  0  0  0
   -2.2997    0.7760   -0.3760 C   0  0  0  0  0  0  0  0  0  0  0  0
   -1.6133    1.9987    0.1587 C   0  0  0  0  0  0  0  0  0  0  0  0
    1.4123    0.4634   -0.0941 C   0  0  0  0  0  0  0  0  0  0  0  0
   -0.3997   -1.2852   -0.0130 C   0  0  0  0  0  0  0  0  0  0  0  0
  1 12  1  0
  2 12  1  0
  3 12  1  0
  4 13  1  0
  5 13  1  0
  6 13  1  0
  7  9  1  0
  8  9  1  0
  8 10  1  0
  8 11  1  0
  9 12  1  0
  9 13  1  0
 10 11  1  0
M  END
>  <PUBCHEM_COMPOUND_CID>  (1) 
13045

>  <PUBCHEM_CONFORMER_RMSD>  (1) 
0.6

>  <PUBCHEM_CONFORMER_DIVERSEORDER>  (1) 
1
3
2

>  <PUBCHEM_MMFF94_PARTIAL_CHARGES>  (1) 
18
1 -0.34
10 -0.04
11 -0.04
12 1.02
13 1.02
14 0.1
15 0.1
16 0.1
17 0.1
18 0.4
2 -0.34
3 -0.34
4 -0.34
5 -0.34
6 -0.34
7 -0.68
8 -0.59
9 0.55

>  <PUBCHEM_EFFECTIVE_ROTOR_COUNT>  (1) 
3.6

>  <PUBCHEM_PHARMACOPHORE_FEATURES>  (1) 
3
1 7 acceptor
1 7 donor
1 8 cation

>  <PUBCHEM_HEAVY_ATOM_COUNT>  (1) 
13

>  <PUBCHEM_ATOM_DEF_STEREO_COUNT>  (1) 
0

>  <PUBCHEM_ATOM_UDEF_STEREO_COUNT>  (1) 
0

>  <PUBCHEM_BOND_DEF_STEREO_COUNT>  (1) 
0

>  <PUBCHEM_BOND_UDEF_STEREO_COUNT>  (1) 
0

>  <PUBCHEM_ISOTOPIC_ATOM_COUNT>  (1) 
0

>  <PUBCHEM_COMPONENT_COUNT>  (1) 
1

>  <PUBCHEM_CACTVS_TAUTO_COUNT>  (1) 
1

>  <PUBCHEM_CONFORMER_ID>  (1) 
000032F500000001

>  <PUBCHEM_MMFF94_ENERGY>  (1) 
36.2732

>  <PUBCHEM_FEATURE_SELFOVERLAP>  (1) 
15.223

>  <PUBCHEM_SHAPE_FINGERPRINT>  (1) 
12423570 1 10998106708932835161
12524768 44 17838629094649291366
13024252 1 17097209673856452568
137420 1 15511889476144659250
14128692 85 17694773026472295271
16945 1 18335979770701878857
18185500 45 17545607115601263190
21040471 1 18337392621537021613
21922407 69 15720258203823659556
241688 4 16255326346461878667
2748010 2 18265894833763294693
29004967 10 15697706073650251589
5084963 1 18341056228656242864
68250623 7 18040722432853811515

>  <PUBCHEM_SHAPE_MULTIPOLES>  (1) 
213.04
2.47
2.01
1.06
0.67
0.52
0
-0.89
-0.13
-0.15
0.03
-0.2
0.08
-0.09

>  <PUBCHEM_SHAPE_SELFOVERLAP>  (1) 
445.344

>  <PUBCHEM_SHAPE_VOLUME>  (1) 
122

>  <PUBCHEM_COORDINATE_TYPE>  (1) 
2
5
10

$$$$
