13056
     RDKit          3D

 14 15  0  0  0  0  0  0  0  0999 V2000
   -2.6735    0.1371    0.0403 N   0  0  0  0  0  0  0  0  0  0  0  0
    0.3045   -0.3349   -0.1863 C   0  0  0  0  0  0  0  0  0  0  0  0
   -0.4472   -0.3058    1.1674 C   0  0  0  0  0  0  0  0  0  0  0  0
   -0.7037   -0.7284   -1.2927 C   0  0  0  0  0  0  0  0  0  0  0  0
    0.9467    1.0383   -0.5209 C   0  0  0  0  0  0  0  0  0  0  0  0
    1.4230   -1.4086   -0.1464 C   0  0  0  0  0  0  0  0  0  0  0  0
   -1.7123    0.5485    1.1568 C   0  0  0  0  0  0  0  0  0  0  0  0
   -1.9635    0.1314   -1.3145 C   0  0  0  0  0  0  0  0  0  0  0  0
    2.1207    1.4082    0.3892 C   0  0  0  0  0  0  0  0  0  0  0  0
    2.5900   -1.0447    0.7731 C   0  0  0  0  0  0  0  0  0  0  0  0
    3.2028    0.3237    0.4523 C   0  0  0  0  0  0  0  0  0  0  0  0
   -3.3164   -1.2187    0.3350 C   0  0  0  0  0  0  0  0  0  0  0  0
   -3.8052    1.1718   -0.0197 C   0  0  0  0  0  0  0  0  0  0  0  0
    4.0343    0.2821   -0.8334 C   0  0  0  0  0  0  0  0  0  0  0  0
  1  7  1  0
  1  8  1  0
  1 12  1  0
  1 13  1  0
  2  3  1  0
  2  4  1  0
  2  5  1  0
  2  6  1  0
  3  7  1  0
  4  8  1  0
  5  9  1  0
  6 10  1  0
  9 11  1  0
 10 11  1  0
 11 14  1  0
M  CHG  1   1   1
M  END
>  <PUBCHEM_COMPOUND_CID>  (1) 
13056

>  <PUBCHEM_CONFORMER_RMSD>  (1) 
0.6

>  <PUBCHEM_CONFORMER_DIVERSEORDER>  (1) 
1
3
2
4

>  <PUBCHEM_MMFF94_PARTIAL_CHARGES>  (1) 
5
1 -1.01
12 0.5
13 0.5
7 0.5
8 0.5

>  <PUBCHEM_EFFECTIVE_ROTOR_COUNT>  (1) 
2

>  <PUBCHEM_PHARMACOPHORE_FEATURES>  (1) 
3
1 1 cation
6 1 2 3 4 7 8 rings
6 2 5 6 9 10 11 rings

>  <PUBCHEM_HEAVY_ATOM_COUNT>  (1) 
14

>  <PUBCHEM_ATOM_DEF_STEREO_COUNT>  (1) 
0

>  <PUBCHEM_ATOM_UDEF_STEREO_COUNT>  (1) 
0

>  <PUBCHEM_BOND_DEF_STEREO_COUNT>  (1) 
0

>  <PUBCHEM_BOND_UDEF_STEREO_COUNT>  (1) 
0

>  <PUBCHEM_ISOTOPIC_ATOM_COUNT>  (1) 
0

>  <PUBCHEM_COMPONENT_COUNT>  (1) 
1

>  <PUBCHEM_CACTVS_TAUTO_COUNT>  (1) 
1

>  <PUBCHEM_CONFORMER_ID>  (1) 
0000330000000001

>  <PUBCHEM_MMFF94_ENERGY>  (1) 
38.6864

>  <PUBCHEM_FEATURE_SELFOVERLAP>  (1) 
15.224

>  <PUBCHEM_SHAPE_FINGERPRINT>  (1) 
10219947 1 18335421257597354290
10980938 120 18408039594049463954
11031198 65 18259987067846038278
12251169 10 18260834808522473677
12491281 212 18412267203030554041
12716758 59 16200429191086083638
12932764 1 18201146724228087076
13538477 17 17703498969572196086
13571099 22 17489588913689822230
13581323 91 16845293864620128318
13760787 19 18409730655749488851
14144814 61 18343580733260473050
14943859 89 16056883550165271423
14993402 34 18060703875103619124
15219456 202 17313658261695565966
15309172 13 17894348895170746778
15775835 57 18272651255264219916
16945 1 17632287978144557902
17844478 74 17313099726710107852
18186145 218 17917991702345444216
200 152 18340196488384572911
20201158 50 17530964683162798954
20528008 55 15647051615976648246
20645476 183 17917705807894995703
20653085 51 18271245031431882524
21119208 17 17704354355290470316
21501502 16 17459197437356367430
23402539 116 16226039020257504879
23493267 7 17917720071602756539
296302 2 17385447626298715508
3286 77 18187357791684983661
369184 2 18186795877008630283
528886 8 18412256242458526906
57812782 119 18186795915710756835
63268167 104 18412822465266685568
74978 22 18059570347329538604
77492 1 17988917873111637582

>  <PUBCHEM_SHAPE_MULTIPOLES>  (1) 
283.13
6.36
1.36
1.21
0.03
0.03
-0.1
-0.83
-0.09
-0.01
0.07
0.17
0.05
-0.1

>  <PUBCHEM_SHAPE_SELFOVERLAP>  (1) 
561.951

>  <PUBCHEM_SHAPE_VOLUME>  (1) 
166.1

>  <PUBCHEM_COORDINATE_TYPE>  (1) 
2
5
10

$$$$
