13052
     RDKit          3D

 13 13  0  0  1  0  0  0  0  0999 V2000
   -1.5908    1.4379    1.2143 O   0  0  0  0  0  0  0  0  0  0  0  0
    2.8497    2.0565   -0.3641 O   0  0  0  0  0  0  0  0  0  0  0  0
   -3.1940    1.3665   -0.3970 O   0  0  0  0  0  0  0  0  0  0  0  0
   -3.2405   -1.3852   -0.0733 N   0  0  0  0  0  0  0  0  0  0  0  0
   -0.9614   -0.9614   -0.8674 C   0  0  0  0  0  0  0  0  0  0  0  0
   -1.9980   -0.6709    0.2264 C   0  0  0  0  0  0  0  0  0  0  0  0
    0.4552   -0.6887   -0.4144 C   0  0  0  0  0  0  0  0  0  0  0  0
    0.9958    0.5720   -0.6030 C   0  0  0  0  0  0  0  0  0  0  0  0
    1.1834   -1.7064    0.1784 C   0  0  0  0  0  0  0  0  0  0  0  0
   -2.3439    0.8039    0.2785 C   0  0  0  0  0  0  0  0  0  0  0  0
    2.3031    0.8227   -0.1861 C   0  0  0  0  0  0  0  0  0  0  0  0
    2.4907   -1.4558    0.5950 C   0  0  0  0  0  0  0  0  0  0  0  0
    3.0507   -0.1912    0.4129 C   0  0  0  0  0  0  0  0  0  0  0  0
  1 10  1  0
  2 11  1  0
  3 10  2  0
  4  6  1  0
  5  6  1  0
  5  7  1  0
  6 10  1  0
  7  8  2  0
  7  9  1  0
  8 11  1  0
  9 12  2  0
 11 13  2  0
 12 13  1  0
M  END
>  <PUBCHEM_COMPOUND_CID>  (1) 
13052

>  <PUBCHEM_CONFORMER_RMSD>  (1) 
0.6

>  <PUBCHEM_CONFORMER_DIVERSEORDER>  (1) 
1
18
9
14
30
16
28
10
12
26
29
24
22
6
8
5
13
25
15
20
3
19
4
17
27
23
7
11
2
31
21

>  <PUBCHEM_MMFF94_PARTIAL_CHARGES>  (1) 
21
1 -0.65
10 0.66
11 0.08
12 -0.15
13 -0.15
17 0.15
18 0.15
19 0.36
2 -0.53
20 0.36
21 0.15
22 0.15
23 0.5
24 0.45
3 -0.57
4 -0.99
5 0.14
6 0.33
7 -0.14
8 -0.15
9 -0.15

>  <PUBCHEM_EFFECTIVE_ROTOR_COUNT>  (1) 
3

>  <PUBCHEM_PHARMACOPHORE_FEATURES>  (1) 
7
1 1 acceptor
1 2 donor
1 3 acceptor
1 4 cation
1 4 donor
3 1 3 10 anion
6 7 8 9 11 12 13 rings

>  <PUBCHEM_HEAVY_ATOM_COUNT>  (1) 
13

>  <PUBCHEM_ATOM_DEF_STEREO_COUNT>  (1) 
0

>  <PUBCHEM_ATOM_UDEF_STEREO_COUNT>  (1) 
1

>  <PUBCHEM_BOND_DEF_STEREO_COUNT>  (1) 
0

>  <PUBCHEM_BOND_UDEF_STEREO_COUNT>  (1) 
0

>  <PUBCHEM_ISOTOPIC_ATOM_COUNT>  (1) 
0

>  <PUBCHEM_COMPONENT_COUNT>  (1) 
1

>  <PUBCHEM_CACTVS_TAUTO_COUNT>  (1) 
9

>  <PUBCHEM_CONFORMER_ID>  (1) 
000032FC00000001

>  <PUBCHEM_MMFF94_ENERGY>  (1) 
24.5791

>  <PUBCHEM_FEATURE_SELFOVERLAP>  (1) 
35.577

>  <PUBCHEM_SHAPE_FINGERPRINT>  (1) 
12162725 195 18410853248362578611
12251169 10 18336546006194570275
12346645 44 18263925617365492668
12696612 119 18335422339918615526
12932764 1 18187658963550544927
13764800 53 17346053177306531939
14144814 61 18408319973503662854
14325111 11 18409730685587159860
15775835 57 18411707594540765144
16945 1 18194689159162329638
19973954 147 18342182115762605635
20559304 39 18341894108319985898
21501502 16 18408321086042500431
21524375 3 18195251246386591204
22802520 49 15337742386460654104
230 275 18202566146568713170
305870 269 18335419097402864720
3248919 1 17917431969338338895
63268167 104 18335985272613059296
74978 22 18338803299276857855

>  <PUBCHEM_SHAPE_MULTIPOLES>  (1) 
244.94
5.34
1.91
0.86
1.38
0.26
-0.05
0.85
-0.44
-0.33
-0.05
0.08
0.06
-0.57

>  <PUBCHEM_SHAPE_SELFOVERLAP>  (1) 
506.434

>  <PUBCHEM_SHAPE_VOLUME>  (1) 
139.7

>  <PUBCHEM_COORDINATE_TYPE>  (1) 
2
5
10

$$$$
