1305
     RDKit          3D

 34 37  0  0  1  0  0  0  0  0999 V2000
  -12.5665    1.9528    1.5026 O   0  0  0  0  0  0  0  0  0  0  0  0
   12.6015    1.8670   -1.5763 O   0  0  0  0  0  0  0  0  0  0  0  0
   -6.9447   -0.2304   -0.1376 N   0  0  0  0  0  0  0  0  0  0  0  0
    6.9467   -0.1785    0.1267 N   0  0  0  0  0  0  0  0  0  0  0  0
  -11.4809    0.1394    0.5728 N   0  0  0  0  0  0  0  0  0  0  0  0
   11.4842    0.0859   -0.6218 N   0  0  0  0  0  0  0  0  0  0  0  0
   -8.0870   -0.1569   -1.0580 C   0  0  0  0  0  0  0  0  0  0  0  0
    8.0974   -0.1218    1.0377 C   0  0  0  0  0  0  0  0  0  0  0  0
   -8.3437   -1.5260   -1.7167 C   0  0  0  0  0  0  0  0  0  0  0  0
    8.3295   -1.4903    1.7067 C   0  0  0  0  0  0  0  0  0  0  0  0
   -9.1063   -2.4727   -0.7928 C   0  0  0  0  0  0  0  0  0  0  0  0
    9.0642   -2.4615    0.7854 C   0  0  0  0  0  0  0  0  0  0  0  0
   -9.3130    0.3673   -0.3437 C   0  0  0  0  0  0  0  0  0  0  0  0
    9.3289    0.3692    0.3092 C   0  0  0  0  0  0  0  0  0  0  0  0
  -10.4516   -1.8722   -0.3783 C   0  0  0  0  0  0  0  0  0  0  0  0
   10.4188   -1.8942    0.3553 C   0  0  0  0  0  0  0  0  0  0  0  0
  -10.3791   -0.4048   -0.0552 C   0  0  0  0  0  0  0  0  0  0  0  0
   10.3757   -0.4286    0.0195 C   0  0  0  0  0  0  0  0  0  0  0  0
   -5.6854   -0.2632   -0.8736 C   0  0  0  0  0  0  0  0  0  0  0  0
    5.6932   -0.1757    0.8710 C   0  0  0  0  0  0  0  0  0  0  0  0
   -4.5072   -0.3082    0.0988 C   0  0  0  0  0  0  0  0  0  0  0  0
    4.4765   -0.2126   -0.0565 C   0  0  0  0  0  0  0  0  0  0  0  0
   -3.1451   -0.3473   -0.6015 C   0  0  0  0  0  0  0  0  0  0  0  0
    3.1450   -0.1913    0.7021 C   0  0  0  0  0  0  0  0  0  0  0  0
   -1.9608   -0.3157    0.3683 C   0  0  0  0  0  0  0  0  0  0  0  0
    1.9224   -0.2147   -0.2221 C   0  0  0  0  0  0  0  0  0  0  0  0
   -0.6297   -0.2834   -0.3877 C   0  0  0  0  0  0  0  0  0  0  0  0
    0.5933   -0.2731    0.5354 C   0  0  0  0  0  0  0  0  0  0  0  0
   -9.3523    1.7763    0.0026 C   0  0  0  0  0  0  0  0  0  0  0  0
    9.3961    1.7739   -0.0500 C   0  0  0  0  0  0  0  0  0  0  0  0
  -10.4124    2.3217    0.6118 C   0  0  0  0  0  0  0  0  0  0  0  0
   10.4630    2.2906   -0.6723 C   0  0  0  0  0  0  0  0  0  0  0  0
  -11.5868    1.4692    0.9417 C   0  0  0  0  0  0  0  0  0  0  0  0
   11.6159    1.4098   -1.0035 C   0  0  0  0  0  0  0  0  0  0  0  0
  1 33  2  0
  2 34  2  0
  3  7  1  0
  3 19  1  0
  4  8  1  0
  4 20  1  0
  5 17  1  0
  5 33  1  0
  6 18  1  0
  6 34  1  0
  7  9  1  0
  7 13  1  0
  8 10  1  0
  8 14  1  0
  9 11  1  0
 10 12  1  0
 11 15  1  0
 12 16  1  0
 13 17  2  0
 13 29  1  0
 14 18  2  0
 14 30  1  0
 15 17  1  0
 16 18  1  0
 19 21  1  0
 20 22  1  0
 21 23  1  0
 22 24  1  0
 23 25  1  0
 24 26  1  0
 25 27  1  0
 26 28  1  0
 27 28  1  0
 29 31  2  0
 30 32  2  0
 31 33  1  0
 32 34  1  0
M  END
>  <PUBCHEM_COMPOUND_CID>  (1) 
1305

>  <PUBCHEM_CONFORMER_RMSD>  (1) 
1.8

>  <PUBCHEM_CONFORMER_DIVERSEORDER>  (1) 
1
52
84
3
81
49
19
47
104
36
21
46
14
15
91
73
22
96
32
43
30
106
99
87
2
86
9
77
45
65
42
71
82
40
41
6
70
11
8
61
90
97
63
10
33
4
88
94
93
23
12
89
35
72
103
102
39
25
101
105
50
16
48
68
75
78
13
54
60
69
7
67
66
5
59
85
28
98
100
38
53
76
17
64
74
80
83
51
55
56
57
58
34
29
31
92
44
26
20
62
24
18
95
27
79
37

>  <PUBCHEM_MMFF94_PARTIAL_CHARGES>  (1) 
30
1 -0.57
13 -0.14
14 -0.14
15 0.14
16 0.14
17 -0.03
18 -0.03
19 0.27
2 -0.57
20 0.27
29 -0.15
3 -0.9
30 -0.15
31 -0.14
32 -0.14
33 0.62
34 0.62
4 -0.9
49 0.36
5 -0.54
50 0.36
6 -0.54
7 0.41
71 0.15
72 0.15
73 0.37
74 0.37
75 0.15
76 0.15
8 0.41

>  <PUBCHEM_EFFECTIVE_ROTOR_COUNT>  (1) 
14.6

>  <PUBCHEM_PHARMACOPHORE_FEATURES>  (1) 
12
1 1 acceptor
1 2 acceptor
1 3 cation
1 3 donor
1 4 cation
1 4 donor
1 5 donor
1 6 donor
6 5 13 17 29 31 33 rings
6 6 14 18 30 32 34 rings
6 7 9 11 13 15 17 rings
6 8 10 12 14 16 18 rings

>  <PUBCHEM_HEAVY_ATOM_COUNT>  (1) 
34

>  <PUBCHEM_ATOM_DEF_STEREO_COUNT>  (1) 
0

>  <PUBCHEM_ATOM_UDEF_STEREO_COUNT>  (1) 
2

>  <PUBCHEM_BOND_DEF_STEREO_COUNT>  (1) 
0

>  <PUBCHEM_BOND_UDEF_STEREO_COUNT>  (1) 
0

>  <PUBCHEM_ISOTOPIC_ATOM_COUNT>  (1) 
0

>  <PUBCHEM_COMPONENT_COUNT>  (1) 
1

>  <PUBCHEM_CACTVS_TAUTO_COUNT>  (1) 
3

>  <PUBCHEM_CONFORMER_ID>  (1) 
0000051900000001

>  <PUBCHEM_MMFF94_ENERGY>  (1) 
36.45

>  <PUBCHEM_FEATURE_SELFOVERLAP>  (1) 
60.94

>  <PUBCHEM_SHAPE_FINGERPRINT>  (1) 
10168742 298 17489598874620997660
12089408 11 18410287016917168491
12522641 33 18342740715690454326
12559415 86 18059581247635055173
14251764 46 18410008840480576907
14344974 52 16515685571807340350
15061470 23 18411416206784894537
15145343 6 18201715188829911505
15510794 2 18410856563956661407
16728433 110 17095240332429910884
21362267 313 18270961224435811906
232437 2 18411133640875934667
42767 2 18411979178445072522
59520647 119 18261674870310471082
67123 10 18333728026939280126

>  <PUBCHEM_SHAPE_MULTIPOLES>  (1) 
668.04
72.61
2.19
1.2
1.05
0.16
-0.02
18.82
-1.48
-0.24
-0.02
0.14
0.02
-6.71

>  <PUBCHEM_SHAPE_SELFOVERLAP>  (1) 
1374.428

>  <PUBCHEM_SHAPE_VOLUME>  (1) 
380.8

>  <PUBCHEM_COORDINATE_TYPE>  (1) 
2
5
10

$$$$
