13051
     RDKit          3D

 13 13  0  0  0  0  0  0  0  0999 V2000
   -0.6247    1.0450    0.3085 O   0  0  0  0  0  0  0  0  0  0  0  0
   -2.5052    2.3090   -0.0561 O   0  0  0  0  0  0  0  0  0  0  0  0
    3.0800   -0.2957   -0.2142 C   0  0  0  0  0  0  0  0  0  0  0  0
    1.9950   -0.0911    0.8450 C   0  0  0  0  0  0  0  0  0  0  0  0
    4.3495    0.4817    0.1346 C   0  0  0  0  0  0  0  0  0  0  0  0
   -0.4348   -0.3312    0.2775 C   0  0  0  0  0  0  0  0  0  0  0  0
    0.7608   -0.8796    0.5203 C   0  0  0  0  0  0  0  0  0  0  0  0
   -1.6637   -0.9922   -0.0390 C   0  0  0  0  0  0  0  0  0  0  0  0
   -2.6121   -0.0720   -0.2068 C   0  0  0  0  0  0  0  0  0  0  0  0
    5.4445    0.2516   -0.8947 C   0  0  0  0  0  0  0  0  0  0  0  0
   -1.9500    1.2238    0.0141 C   0  0  0  0  0  0  0  0  0  0  0  0
   -1.7882   -2.4727   -0.1472 C   0  0  0  0  0  0  0  0  0  0  0  0
   -4.0513   -0.1767   -0.5420 C   0  0  0  0  0  0  0  0  0  0  0  0
  1  6  1  0
  1 11  1  0
  2 11  2  0
  3  4  1  0
  3  5  1  0
  4  7  1  0
  5 10  1  0
  6  7  2  0
  6  8  1  0
  8  9  2  0
  8 12  1  0
  9 11  1  0
  9 13  1  0
M  END
>  <PUBCHEM_COMPOUND_CID>  (1) 
13051

>  <PUBCHEM_CONFORMER_RMSD>  (1) 
0.6

>  <PUBCHEM_CONFORMER_DIVERSEORDER>  (1) 
2
9
3
7
5
6
10
4
1
8

>  <PUBCHEM_MMFF94_PARTIAL_CHARGES>  (1) 
11
1 -0.23
11 0.71
12 0.14
13 0.14
2 -0.57
20 0.15
4 0.14
6 0.08
7 -0.29
8 -0.14
9 -0.12

>  <PUBCHEM_EFFECTIVE_ROTOR_COUNT>  (1) 
3.2

>  <PUBCHEM_PHARMACOPHORE_FEATURES>  (1) 
4
1 10 hydrophobe
1 2 acceptor
4 3 4 5 7 hydrophobe
5 1 6 8 9 11 rings

>  <PUBCHEM_HEAVY_ATOM_COUNT>  (1) 
13

>  <PUBCHEM_ATOM_DEF_STEREO_COUNT>  (1) 
0

>  <PUBCHEM_ATOM_UDEF_STEREO_COUNT>  (1) 
0

>  <PUBCHEM_BOND_DEF_STEREO_COUNT>  (1) 
0

>  <PUBCHEM_BOND_UDEF_STEREO_COUNT>  (1) 
1

>  <PUBCHEM_ISOTOPIC_ATOM_COUNT>  (1) 
0

>  <PUBCHEM_COMPONENT_COUNT>  (1) 
1

>  <PUBCHEM_CACTVS_TAUTO_COUNT>  (1) 
1

>  <PUBCHEM_CONFORMER_ID>  (1) 
000032FB00000002

>  <PUBCHEM_MMFF94_ENERGY>  (1) 
7.1137

>  <PUBCHEM_FEATURE_SELFOVERLAP>  (1) 
20.297

>  <PUBCHEM_SHAPE_FINGERPRINT>  (1) 
10680689 15 18337963371747138554
12119455 92 13840258200068838659
12186901 62 18343021068846347876
12390115 104 18129113221036853865
13024252 1 17385722513133360315
13214271 11 16660365887237239567
14123260 362 17822303391914020188
14911166 2 18340196466835681999
14993402 34 18335130995196696973
15669948 3 18338222838831675418
16945 1 18339624707936089083
17870717 6 18201173104344656494
18186145 218 17989489632628448466
20300324 65 18411982481290572060
20325693 3 18412552028261194518
204376 136 15574719110188977034
20510252 161 18272369724695625433
20645476 183 17967809474741581707
20645477 56 18411422791122480304
20645477 70 16702028552563376622
20871999 31 18272083881578892861
22485316 2 11167943537664829956
23402539 116 18341323457569337535
23557571 272 18130797745843633156
23559900 14 18343579677489750680
2748010 2 17979898734233000675
4175511 318 18130786771948731150
474 4 17240490247245544508
573450 72 18262223466197261202

>  <PUBCHEM_SHAPE_MULTIPOLES>  (1) 
255.8
8.69
1.76
0.79
11.92
0.1
0.01
-1.37
2.64
-2
0.03
0.39
0.03
-0.14

>  <PUBCHEM_SHAPE_SELFOVERLAP>  (1) 
513.667

>  <PUBCHEM_SHAPE_VOLUME>  (1) 
153.7

>  <PUBCHEM_COORDINATE_TYPE>  (1) 
2
5
10

$$$$
