13060
     RDKit          3D

 14 15  0  0  1  0  0  0  0  0999 V2000
   -3.1696   -2.3233    0.0616 F   0  0  0  0  0  0  0  0  0  0  0  0
   -0.2391    2.2795   -0.1245 N   0  0  0  0  0  0  0  0  0  0  0  0
    4.2578   -1.2873   -0.7716 N   0  0  0  0  0  0  0  0  0  0  0  0
    2.1069   -0.4882    0.2890 C   0  0  0  0  0  0  0  0  0  0  0  0
    0.9601    0.4284    0.1254 C   0  0  0  0  0  0  0  0  0  0  0  0
   -0.4134    0.0627    0.0562 C   0  0  0  0  0  0  0  0  0  0  0  0
    3.0800   -0.4384   -0.9268 C   0  0  0  0  0  0  0  0  0  0  0  0
   -1.1442    1.2424   -0.1003 C   0  0  0  0  0  0  0  0  0  0  0  0
    1.0351    1.7975    0.0112 C   0  0  0  0  0  0  0  0  0  0  0  0
    2.8818   -0.2376    1.6083 C   0  0  0  0  0  0  0  0  0  0  0  0
   -1.1070   -1.1625    0.1119 C   0  0  0  0  0  0  0  0  0  0  0  0
   -2.5396    1.2581   -0.2040 C   0  0  0  0  0  0  0  0  0  0  0  0
   -2.5028   -1.1621    0.0094 C   0  0  0  0  0  0  0  0  0  0  0  0
   -3.2060    0.0308   -0.1458 C   0  0  0  0  0  0  0  0  0  0  0  0
  1 13  1  0
  2  8  1  0
  2  9  1  0
  3  7  1  0
  4  5  1  0
  4  7  1  0
  4 10  1  0
  5  6  1  0
  5  9  2  0
  6  8  2  0
  6 11  1  0
  8 12  1  0
 11 13  2  0
 12 14  2  0
 13 14  1  0
M  END
>  <PUBCHEM_COMPOUND_CID>  (1) 
13060

>  <PUBCHEM_CONFORMER_RMSD>  (1) 
0.6

>  <PUBCHEM_CONFORMER_DIVERSEORDER>  (1) 
2
3
8
1
5
6
7
4

>  <PUBCHEM_MMFF94_PARTIAL_CHARGES>  (1) 
19
1 -0.19
11 -0.15
12 -0.15
13 0.19
14 -0.15
18 0.15
2 0.03
22 0.27
23 0.15
24 0.15
25 0.15
26 0.36
27 0.36
3 -0.99
4 0.18
5 -0.18
7 0.27
8 -0.15
9 -0.3

>  <PUBCHEM_EFFECTIVE_ROTOR_COUNT>  (1) 
2

>  <PUBCHEM_PHARMACOPHORE_FEATURES>  (1) 
7
1 10 hydrophobe
1 2 cation
1 2 donor
1 3 cation
1 3 donor
5 2 5 6 8 9 rings
6 6 8 11 12 13 14 rings

>  <PUBCHEM_HEAVY_ATOM_COUNT>  (1) 
14

>  <PUBCHEM_ATOM_DEF_STEREO_COUNT>  (1) 
0

>  <PUBCHEM_ATOM_UDEF_STEREO_COUNT>  (1) 
1

>  <PUBCHEM_BOND_DEF_STEREO_COUNT>  (1) 
0

>  <PUBCHEM_BOND_UDEF_STEREO_COUNT>  (1) 
0

>  <PUBCHEM_ISOTOPIC_ATOM_COUNT>  (1) 
0

>  <PUBCHEM_COMPONENT_COUNT>  (1) 
1

>  <PUBCHEM_CACTVS_TAUTO_COUNT>  (1) 
1

>  <PUBCHEM_CONFORMER_ID>  (1) 
0000330400000002

>  <PUBCHEM_MMFF94_ENERGY>  (1) 
17.9873

>  <PUBCHEM_FEATURE_SELFOVERLAP>  (1) 
35.612

>  <PUBCHEM_SHAPE_FINGERPRINT>  (1) 
10465860 71 18336560351765108460
11543360 7 15213300876047376275
12032990 46 18412267250327948063
12932764 1 17748821903978859500
13296908 3 18342737433664636962
13538477 17 18114458947045902192
14128692 85 18335426793509830421
14252887 29 18269558415039002442
14289901 80 16773218691170229906
14911166 2 18337103471954939253
15219456 202 17989197149513446816
15375462 189 18040434377923705203
16945 1 18336820888554938457
17804303 29 18341896272909708529
17990270 104 18267303312210635432
18175812 5 17917988360945232116
20281407 28 18342461417728568130
20645476 183 17458352905126081483
20645477 70 18049434044434225207
20711983 138 17917431973580506800
20715346 28 17988915687025934082
20871998 22 18340769354947806730
20871999 31 18334862705410947582
21501502 16 18264488558539205025
21501925 9 18266724964978760817
22213442 358 18412267272029547084
232386 152 18187347832025167746
2334 1 18192426583555435985
23552423 10 18042686293965497893
23559900 14 18268989800751561750
2748010 2 18337379565131944829
5902787 121 18335128834606607648
7364860 26 18126286582446746248
77492 1 17458344087811151154
81228 2 18268145366351008016
8809292 202 18408328791124418563

>  <PUBCHEM_SHAPE_MULTIPOLES>  (1) 
270.88
5.93
1.99
0.91
2.62
0.22
0.19
-2.94
-0.65
-1.11
-0.1
0.93
-0.11
0.35

>  <PUBCHEM_SHAPE_SELFOVERLAP>  (1) 
581.51

>  <PUBCHEM_SHAPE_VOLUME>  (1) 
152.2

>  <PUBCHEM_COORDINATE_TYPE>  (1) 
2
5
10

$$$$
