13066
     RDKit          3D

 15 15  0  0  0  0  0  0  0  0999 V2000
    0.2896   -1.3119   -0.0107 S   0  0  0  0  0  0  0  0  0  0  0  0
    1.3980   -0.1114    0.0085 O   0  0  0  0  0  0  0  0  0  0  0  0
    0.3533   -2.0357    1.2439 O   0  0  0  0  0  0  0  0  0  0  0  0
    0.3951   -1.9958   -1.2859 O   0  0  0  0  0  0  0  0  0  0  0  0
    3.6005    0.8276    0.0281 C   0  0  0  0  0  0  0  0  0  0  0  0
    2.7774   -0.4525    0.0089 C   0  0  0  0  0  0  0  0  0  0  0  0
    5.0982    0.5349    0.0135 C   0  0  0  0  0  0  0  0  0  0  0  0
   -1.2601   -0.4669   -0.0052 C   0  0  0  0  0  0  0  0  0  0  0  0
    5.9161    1.8161   -0.0109 C   0  0  0  0  0  0  0  0  0  0  0  0
   -1.8517   -0.1267   -1.2109 C   0  0  0  0  0  0  0  0  0  0  0  0
   -1.8596   -0.1581    1.2048 C   0  0  0  0  0  0  0  0  0  0  0  0
   -3.6929    0.8588    0.0038 C   0  0  0  0  0  0  0  0  0  0  0  0
   -3.0765    0.5409   -1.2063 C   0  0  0  0  0  0  0  0  0  0  0  0
   -3.0845    0.5094    1.2095 C   0  0  0  0  0  0  0  0  0  0  0  0
   -5.0029    1.5713    0.0089 C   0  0  0  0  0  0  0  0  0  0  0  0
  1  2  1  0
  1  3  2  0
  1  4  2  0
  1  8  1  0
  2  6  1  0
  5  6  1  0
  5  7  1  0
  7  9  1  0
  8 10  2  0
  8 11  1  0
 10 13  1  0
 11 14  2  0
 12 13  2  0
 12 14  1  0
 12 15  1  0
M  END
>  <PUBCHEM_COMPOUND_CID>  (1) 
13066

>  <PUBCHEM_CONFORMER_RMSD>  (1) 
0.6

>  <PUBCHEM_CONFORMER_DIVERSEORDER>  (1) 
1
17
18
10
6
12
4
15
16
5
9
7
11
8
14
2
3
13

>  <PUBCHEM_MMFF94_PARTIAL_CHARGES>  (1) 
16
1 1.49
10 -0.15
11 -0.15
12 -0.14
13 -0.15
14 -0.15
15 0.14
2 -0.46
25 0.15
26 0.15
27 0.15
28 0.15
3 -0.65
4 -0.65
6 0.28
8 -0.01

>  <PUBCHEM_EFFECTIVE_ROTOR_COUNT>  (1) 
5

>  <PUBCHEM_PHARMACOPHORE_FEATURES>  (1) 
4
1 3 acceptor
1 4 acceptor
1 9 hydrophobe
6 8 10 11 12 13 14 rings

>  <PUBCHEM_HEAVY_ATOM_COUNT>  (1) 
15

>  <PUBCHEM_ATOM_DEF_STEREO_COUNT>  (1) 
0

>  <PUBCHEM_ATOM_UDEF_STEREO_COUNT>  (1) 
0

>  <PUBCHEM_BOND_DEF_STEREO_COUNT>  (1) 
0

>  <PUBCHEM_BOND_UDEF_STEREO_COUNT>  (1) 
0

>  <PUBCHEM_ISOTOPIC_ATOM_COUNT>  (1) 
0

>  <PUBCHEM_COMPONENT_COUNT>  (1) 
1

>  <PUBCHEM_CACTVS_TAUTO_COUNT>  (1) 
1

>  <PUBCHEM_CONFORMER_ID>  (1) 
0000330A00000001

>  <PUBCHEM_MMFF94_ENERGY>  (1) 
13.9634

>  <PUBCHEM_FEATURE_SELFOVERLAP>  (1) 
20.314

>  <PUBCHEM_SHAPE_FINGERPRINT>  (1) 
10014705 185 18270116946009106992
100836 57 18411140238320156812
10465860 71 14620789392576633699
11046707 91 8358265838881925780
122479 349 18335986475557303970
12251169 10 15647057061884526662
12507560 40 16515957065158631906
12788726 201 18052801835475790790
12892183 10 15719663269507215408
13214271 11 18334860524089696373
14123255 352 18412266155501788120
1420 369 8358266955811273920
15775835 57 18413102853326539470
17834072 32 18335985380409670172
17870717 6 13973970917002947453
1813 80 17339848465556353518
193927 3 9295009115351494712
200 152 9511466610910373976
20112054 13 18260268555486052660
20300324 65 16487256586137486304
20325693 3 15841833356791830525
20374829 77 11095888142075300572
204376 136 18333731316615294538
20645476 183 17417800722150672053
20645477 56 18040714805645833028
20871999 31 14476965570929381531
21499 59 18273496758178447838
21618674 25 17895476921555750195
21637258 2 10737290181466547313
22926399 37 18201719527058246081
23402539 116 17775281677667133284
23402655 69 17632579336041574176
23403322 49 11095891457906286036
23500284 214 18334296495951849282
23559900 14 16516815723547703074
27216 239 17967817188375855105
2916195 48 18411416254472614136
351380 3 8502658103946562144
474 4 18342178860209076304
59682541 52 16844740716151784220
633830 44 18338797819173070190
77188 2 17253702785923712106
83771 10 8646769997571083142

>  <PUBCHEM_SHAPE_MULTIPOLES>  (1) 
294.93
11.03
1.74
1.17
12.5
0.39
0.01
-9.3
-0.05
0.64
0
-0.94
0.26
0.01

>  <PUBCHEM_SHAPE_SELFOVERLAP>  (1) 
579.214

>  <PUBCHEM_SHAPE_VOLUME>  (1) 
177.8

>  <PUBCHEM_COORDINATE_TYPE>  (1) 
2
5
10

$$$$
