1306
     RDKit          3D

 36 39  0  0  1  0  0  0  0  0999 V2000
   13.6867   -2.1508    1.5306 O   0  0  0  0  0  0  0  0  0  0  0  0
  -13.7013   -2.1278   -1.5663 O   0  0  0  0  0  0  0  0  0  0  0  0
    8.1509    0.2234   -0.1365 N   0  0  0  0  0  0  0  0  0  0  0  0
   -8.1568    0.2014    0.1348 N   0  0  0  0  0  0  0  0  0  0  0  0
   12.6635   -0.2840    0.6363 N   0  0  0  0  0  0  0  0  0  0  0  0
  -12.6677   -0.2666   -0.6726 N   0  0  0  0  0  0  0  0  0  0  0  0
    9.3062    0.1467   -1.0401 C   0  0  0  0  0  0  0  0  0  0  0  0
   -9.3202    0.1402    1.0291 C   0  0  0  0  0  0  0  0  0  0  0  0
    9.6088    1.5270   -1.6544 C   0  0  0  0  0  0  0  0  0  0  0  0
   -9.6146    1.5263    1.6344 C   0  0  0  0  0  0  0  0  0  0  0  0
   10.3796    2.4267   -0.6912 C   0  0  0  0  0  0  0  0  0  0  0  0
  -10.3687    2.4287    0.6605 C   0  0  0  0  0  0  0  0  0  0  0  0
   10.5063   -0.4293   -0.3214 C   0  0  0  0  0  0  0  0  0  0  0  0
  -10.5199   -0.4278    0.3035 C   0  0  0  0  0  0  0  0  0  0  0  0
   11.7019    1.7799   -0.2725 C   0  0  0  0  0  0  0  0  0  0  0  0
  -11.6937    1.7925    0.2341 C   0  0  0  0  0  0  0  0  0  0  0  0
   11.5866    0.3064    0.0066 C   0  0  0  0  0  0  0  0  0  0  0  0
  -11.5904    0.3166   -0.0371 C   0  0  0  0  0  0  0  0  0  0  0  0
    6.9057    0.3086   -0.8902 C   0  0  0  0  0  0  0  0  0  0  0  0
   -6.9172    0.2780    0.8981 C   0  0  0  0  0  0  0  0  0  0  0  0
    5.7113    0.3523    0.0614 C   0  0  0  0  0  0  0  0  0  0  0  0
   -5.6873    0.3212   -0.0105 C   0  0  0  0  0  0  0  0  0  0  0  0
    4.3916    0.4200   -0.7101 C   0  0  0  0  0  0  0  0  0  0  0  0
   -4.3681    0.3831    0.7656 C   0  0  0  0  0  0  0  0  0  0  0  0
    3.1917    0.4270    0.2387 C   0  0  0  0  0  0  0  0  0  0  0  0
   -3.1680    0.4095   -0.1834 C   0  0  0  0  0  0  0  0  0  0  0  0
    1.8719    0.4610   -0.5338 C   0  0  0  0  0  0  0  0  0  0  0  0
   -1.8483    0.4420    0.5894 C   0  0  0  0  0  0  0  0  0  0  0  0
    0.6718    0.4343    0.4143 C   0  0  0  0  0  0  0  0  0  0  0  0
   -0.6480    0.4346   -0.3587 C   0  0  0  0  0  0  0  0  0  0  0  0
   10.5038   -1.8483   -0.0156 C   0  0  0  0  0  0  0  0  0  0  0  0
  -10.5285   -1.8482    0.0045 C   0  0  0  0  0  0  0  0  0  0  0  0
   11.5392   -2.4381    0.5945 C   0  0  0  0  0  0  0  0  0  0  0  0
  -11.5645   -2.4311   -0.6113 C   0  0  0  0  0  0  0  0  0  0  0  0
   12.7292   -1.6261    0.9680 C   0  0  0  0  0  0  0  0  0  0  0  0
  -12.7434   -1.6096   -0.9986 C   0  0  0  0  0  0  0  0  0  0  0  0
  1 35  2  0
  2 36  2  0
  3  7  1  0
  3 19  1  0
  4  8  1  0
  4 20  1  0
  5 17  1  0
  5 35  1  0
  6 18  1  0
  6 36  1  0
  7  9  1  0
  7 13  1  0
  8 10  1  0
  8 14  1  0
  9 11  1  0
 10 12  1  0
 11 15  1  0
 12 16  1  0
 13 17  2  0
 13 31  1  0
 14 18  2  0
 14 32  1  0
 15 17  1  0
 16 18  1  0
 19 21  1  0
 20 22  1  0
 21 23  1  0
 22 24  1  0
 23 25  1  0
 24 26  1  0
 25 27  1  0
 26 28  1  0
 27 29  1  0
 28 30  1  0
 29 30  1  0
 31 33  2  0
 32 34  2  0
 33 35  1  0
 34 36  1  0
M  END
>  <PUBCHEM_COMPOUND_CID>  (1) 
1306

>  <PUBCHEM_CONFORMER_RMSD>  (1) 
1.8

>  <PUBCHEM_CONFORMER_DIVERSEORDER>  (1) 
1
83
67
108
12
14
89
3
59
43
17
2
63
73
50
101
25
104
96
75
48
85
103
69
10
78
87
125
84
33
4
117
51
74
18
15
47
119
82
31
109
121
80
20
45
64
56
122
36
32
112
11
28
13
41
92
107
120
21
81
79
61
71
68
77
52
24
62
98
30
124
57
55
35
53
44
106
29
37
46
54
70
86
9
65
102
118
6
38
66
16
116
115
60
93
95
23
100
5
90
27
7
123
113
40
39
97
22
114
105
42
99
34
88
91
126
49
72
8
111
26
76
19
110
58
94

>  <PUBCHEM_MMFF94_PARTIAL_CHARGES>  (1) 
30
1 -0.57
13 -0.14
14 -0.14
15 0.14
16 0.14
17 -0.03
18 -0.03
19 0.27
2 -0.57
20 0.27
3 -0.9
31 -0.15
32 -0.15
33 -0.14
34 -0.14
35 0.62
36 0.62
4 -0.9
5 -0.54
51 0.36
52 0.36
6 -0.54
7 0.41
77 0.15
78 0.15
79 0.37
8 0.41
80 0.37
81 0.15
82 0.15

>  <PUBCHEM_EFFECTIVE_ROTOR_COUNT>  (1) 
16.6

>  <PUBCHEM_PHARMACOPHORE_FEATURES>  (1) 
12
1 1 acceptor
1 2 acceptor
1 3 cation
1 3 donor
1 4 cation
1 4 donor
1 5 donor
1 6 donor
6 5 13 17 31 33 35 rings
6 6 14 18 32 34 36 rings
6 7 9 11 13 15 17 rings
6 8 10 12 14 16 18 rings

>  <PUBCHEM_HEAVY_ATOM_COUNT>  (1) 
36

>  <PUBCHEM_ATOM_DEF_STEREO_COUNT>  (1) 
0

>  <PUBCHEM_ATOM_UDEF_STEREO_COUNT>  (1) 
2

>  <PUBCHEM_BOND_DEF_STEREO_COUNT>  (1) 
0

>  <PUBCHEM_BOND_UDEF_STEREO_COUNT>  (1) 
0

>  <PUBCHEM_ISOTOPIC_ATOM_COUNT>  (1) 
0

>  <PUBCHEM_COMPONENT_COUNT>  (1) 
1

>  <PUBCHEM_CACTVS_TAUTO_COUNT>  (1) 
3

>  <PUBCHEM_CONFORMER_ID>  (1) 
0000051A00000001

>  <PUBCHEM_MMFF94_ENERGY>  (1) 
35.376

>  <PUBCHEM_FEATURE_SELFOVERLAP>  (1) 
60.94

>  <PUBCHEM_SHAPE_FINGERPRINT>  (1) 
12013929 2 15791733009486095360
12559415 90 18335422352514120525
14251920 1 18260550022637849641
15061470 23 18341897372780597521
15219723 13 18260264106676167474
16728433 110 18040720295041961500
21102433 48 18412544301805517622
232437 2 18411139138423225233
3092352 35 18411981364356618343
59521270 166 11314307266328711481
9663363 56 16415478242879211384

>  <PUBCHEM_SHAPE_MULTIPOLES>  (1) 
709.2
87.32
2.22
1.16
1.05
0.61
-0.01
26.79
-0.99
-0.06
-0.01
0.06
0.09
-7.13

>  <PUBCHEM_SHAPE_SELFOVERLAP>  (1) 
1451.643

>  <PUBCHEM_SHAPE_VOLUME>  (1) 
406.3

>  <PUBCHEM_COORDINATE_TYPE>  (1) 
2
5
10

$$$$
