13063
     RDKit          3D

 14 14  0  0  0  0  0  0  0  0999 V2000
   -1.1609    3.5615   -0.1001 F   0  0  0  0  0  0  0  0  0  0  0  0
    2.1726    0.3539    0.1043 N   0  0  0  0  0  0  0  0  0  0  0  0
   -2.3415   -0.9139    0.0336 N   0  0  0  0  0  0  0  0  0  0  0  0
   -0.0759   -0.3104    0.0699 N   0  0  0  0  0  0  0  0  0  0  0  0
    0.5190    2.0131    0.0006 N   0  0  0  0  0  0  0  0  0  0  0  0
   -1.7909    1.3645   -0.0355 N   0  0  0  0  0  0  0  0  0  0  0  0
    2.6493   -1.0107    0.1685 C   0  0  0  0  0  0  0  0  0  0  0  0
    4.0676   -1.0214    0.7233 C   0  0  0  0  0  0  0  0  0  0  0  0
    2.5918   -1.6355   -1.2195 C   0  0  0  0  0  0  0  0  0  0  0  0
    0.8324    0.6957    0.0568 C   0  0  0  0  0  0  0  0  0  0  0  0
   -2.0250   -2.3066    0.0927 C   0  0  0  0  0  0  0  0  0  0  0  0
   -1.3549    0.0958    0.0221 C   0  0  0  0  0  0  0  0  0  0  0  0
   -3.2850   -3.1550    0.1260 C   0  0  0  0  0  0  0  0  0  0  0  0
   -0.7985    2.2690   -0.0426 C   0  0  0  0  0  0  0  0  0  0  0  0
  1 14  1  0
  2  7  1  0
  2 10  1  0
  3 11  1  0
  3 12  1  0
  4 10  2  0
  4 12  1  0
  5 10  1  0
  5 14  2  0
  6 12  2  0
  6 14  1  0
  7  8  1  0
  7  9  1  0
 11 13  1  0
M  END
>  <PUBCHEM_COMPOUND_CID>  (1) 
13063

>  <PUBCHEM_CONFORMER_RMSD>  (1) 
0.6

>  <PUBCHEM_CONFORMER_DIVERSEORDER>  (1) 
1
35
41
9
43
19
21
39
15
40
14
23
30
25
6
29
34
13
4
32
33
3
42
27
37
17
20
7
26
10
18
22
2
38
11
36
8
12
31
16
28
24
5

>  <PUBCHEM_MMFF94_PARTIAL_CHARGES>  (1) 
13
1 -0.19
10 0.72
11 0.37
12 0.72
14 0.81
16 0.4
2 -0.87
25 0.4
3 -0.87
4 -0.62
5 -0.62
6 -0.62
7 0.37

>  <PUBCHEM_EFFECTIVE_ROTOR_COUNT>  (1) 
4

>  <PUBCHEM_PHARMACOPHORE_FEATURES>  (1) 
6
1 2 donor
1 3 donor
3 7 8 9 hydrophobe
4 2 4 5 10 cation
4 3 4 6 12 cation
6 4 5 6 10 12 14 rings

>  <PUBCHEM_HEAVY_ATOM_COUNT>  (1) 
14

>  <PUBCHEM_ATOM_DEF_STEREO_COUNT>  (1) 
0

>  <PUBCHEM_ATOM_UDEF_STEREO_COUNT>  (1) 
0

>  <PUBCHEM_BOND_DEF_STEREO_COUNT>  (1) 
0

>  <PUBCHEM_BOND_UDEF_STEREO_COUNT>  (1) 
0

>  <PUBCHEM_ISOTOPIC_ATOM_COUNT>  (1) 
0

>  <PUBCHEM_COMPONENT_COUNT>  (1) 
1

>  <PUBCHEM_CACTVS_TAUTO_COUNT>  (1) 
9

>  <PUBCHEM_CONFORMER_ID>  (1) 
0000330700000001

>  <PUBCHEM_MMFF94_ENERGY>  (1) 
30.5908

>  <PUBCHEM_FEATURE_SELFOVERLAP>  (1) 
30.489

>  <PUBCHEM_SHAPE_FINGERPRINT>  (1) 
1 1 17040633890526682445
116883 192 18413109459376702479
12500047 106 17977945688170822630
12532896 13 17908698428061762740
12553582 1 18338529654031250655
12716758 59 18052542062788302838
15442244 35 18267592488876253763
16945 1 18266182733916128084
20510252 161 17912077257459280368
20645476 183 17684112200431590350
20645477 70 17688863564228450087
20871998 184 18201433662477265926
20871998 22 18266457796459206147
21452121 199 18263633142629175994
21665056 4 17905612094611881935
2255824 54 17547299255638565015
23402539 116 18196916804438892093
23557571 272 18200877262797071396
23559900 14 17838617757038897822
257057 1 18337946912931137819
2748010 2 18340759459343176293
33824 294 17185313686851705363
43471831 8 17544758928559543249
54173680 148 18409727331170319835
7364860 26 17763467613883260387
81228 2 18339644442973158569
88987 49 18193003617038768230
9709674 26 18199463264900309806

>  <PUBCHEM_SHAPE_MULTIPOLES>  (1) 
255.93
5.37
3.7
0.74
2.23
1.74
-0.11
-5.69
0.63
-3.05
-0.17
0.48
-0.3
0.28

>  <PUBCHEM_SHAPE_SELFOVERLAP>  (1) 
508.414

>  <PUBCHEM_SHAPE_VOLUME>  (1) 
151.6

>  <PUBCHEM_COORDINATE_TYPE>  (1) 
2
5
10

$$$$
