13080
     RDKit          3D

 17 18  0  0  1  0  0  0  0  0999 V2000
    0.0055   -0.7177    0.0529 O   0  0  0  0  0  0  0  0  0  0  0  0
    2.0418   -2.1322    1.3950 O   0  0  0  0  0  0  0  0  0  0  0  0
   -3.4665    0.4619   -0.2477 N   0  0  0  0  0  0  0  0  0  0  0  0
   -4.2656    1.4746    0.4413 C   0  0  0  0  0  0  0  0  0  0  0  0
   -4.2184   -0.7834   -0.0953 C   0  0  0  0  0  0  0  0  0  0  0  0
   -5.6857    1.1385    0.0108 C   0  0  0  0  0  0  0  0  0  0  0  0
   -5.6555   -0.3463   -0.3384 C   0  0  0  0  0  0  0  0  0  0  0  0
   -2.1154    0.3637    0.2842 C   0  0  0  0  0  0  0  0  0  0  0  0
   -1.3082   -0.6677   -0.4878 C   0  0  0  0  0  0  0  0  0  0  0  0
    0.8141   -1.6675   -0.6282 C   0  0  0  0  0  0  0  0  0  0  0  0
    2.1907   -1.7450    0.0306 C   0  0  0  0  0  0  0  0  0  0  0  0
    2.9340   -0.4284   -0.0217 C   0  0  0  0  0  0  0  0  0  0  0  0
    3.7544   -0.1577   -1.1034 C   0  0  0  0  0  0  0  0  0  0  0  0
    2.7779    0.4779    1.0131 C   0  0  0  0  0  0  0  0  0  0  0  0
    4.4397    1.0563   -1.1519 C   0  0  0  0  0  0  0  0  0  0  0  0
    3.4632    1.6920    0.9645 C   0  0  0  0  0  0  0  0  0  0  0  0
    4.2941    1.9811   -0.1180 C   0  0  0  0  0  0  0  0  0  0  0  0
  1  9  1  0
  1 10  1  0
  2 11  1  0
  3  4  1  0
  3  5  1  0
  3  8  1  0
  4  6  1  0
  5  7  1  0
  6  7  1  0
  8  9  1  0
 10 11  1  0
 11 12  1  0
 12 13  2  0
 12 14  1  0
 13 15  1  0
 14 16  2  0
 15 17  2  0
 16 17  1  0
M  END
>  <PUBCHEM_COMPOUND_CID>  (1) 
13080

>  <PUBCHEM_CONFORMER_RMSD>  (1) 
0.8

>  <PUBCHEM_CONFORMER_DIVERSEORDER>  (1) 
1
14
46
4
20
36
35
27
51
10
5
47
52
49
3
2
53
45
38
22
30
37
9
41
7
44
18
50
8
29
6
25
43
17
12
33
28
13
54
26
32
24
39
48
21
16
42
34
31
15
23
19
11
40

>  <PUBCHEM_MMFF94_PARTIAL_CHARGES>  (1) 
21
1 -0.56
10 0.28
11 0.42
12 -0.14
13 -0.15
14 -0.15
15 -0.15
16 -0.15
17 -0.15
2 -0.68
3 -0.81
33 0.15
34 0.15
35 0.4
36 0.15
37 0.15
38 0.15
4 0.27
5 0.27
8 0.27
9 0.28

>  <PUBCHEM_EFFECTIVE_ROTOR_COUNT>  (1) 
7

>  <PUBCHEM_PHARMACOPHORE_FEATURES>  (1) 
6
1 1 acceptor
1 2 acceptor
1 2 donor
1 3 cation
5 3 4 5 6 7 rings
6 12 13 14 15 16 17 rings

>  <PUBCHEM_HEAVY_ATOM_COUNT>  (1) 
17

>  <PUBCHEM_ATOM_DEF_STEREO_COUNT>  (1) 
0

>  <PUBCHEM_ATOM_UDEF_STEREO_COUNT>  (1) 
1

>  <PUBCHEM_BOND_DEF_STEREO_COUNT>  (1) 
0

>  <PUBCHEM_BOND_UDEF_STEREO_COUNT>  (1) 
0

>  <PUBCHEM_ISOTOPIC_ATOM_COUNT>  (1) 
0

>  <PUBCHEM_COMPONENT_COUNT>  (1) 
1

>  <PUBCHEM_CACTVS_TAUTO_COUNT>  (1) 
1

>  <PUBCHEM_CONFORMER_ID>  (1) 
0000331800000001

>  <PUBCHEM_MMFF94_ENERGY>  (1) 
34.1806

>  <PUBCHEM_FEATURE_SELFOVERLAP>  (1) 
30.449

>  <PUBCHEM_SHAPE_FINGERPRINT>  (1) 
10378564 45 17775012232651154532
10498660 4 18272372000817289008
10912923 1 18340765954051282651
11128504 68 16988842800018395685
114674 6 11819536105332862088
11595378 159 16443621294900858445
12596602 18 15502383343661920861
12616999 72 17918275324642571454
12633257 1 16153986966901507460
12730499 353 18342186582513217434
13533116 47 17749667368887319603
13675066 3 11818991902842231711
13955234 65 18187363173611971746
1420 369 8070032172453131373
14251732 16 18409452523006323491
14251764 30 13901904557743403071
14251764 75 17680732597730262988
14341114 328 16805322244863972724
14528608 73 18272367585933572749
146900 427 18341901787985236299
14774955 27 18334856155607160509
14863182 85 11602822376746364008
15142526 21 18115868679750671184
15210252 30 18410859897368494936
15239154 128 18342457024087813537
15342168 16 18261113023281533484
15885798 251 9079122158694636519
17834072 33 18272930527444746015
17868525 174 17538551124262963504
20369508 70 12607403265485549446
20388580 30 10663822988015555986
212847 35 18411981356278146284
21652331 79 18412543202277623837
221357 26 17775573022104449096
22224240 67 11603112729652350132
22289505 5 18060142011840519548
23016692 55 8358268089618999136
23253445 4 13551471514215020172
23402655 69 17989209269721271492
23559900 14 17914613852623425199
23590187 302 17275105028912973192
2637199 183 18201728357568873006
270888 7 18191307285414832412
300161 21 18260261937400385527
3060560 45 17704356554820096142
32948 21 13182749117214273651
34797466 226 17775010102663841317
427121 178 17022904553840184410
449060 62 18408323280797136550
474 4 18114186375230584084
4990 188 17561370582049174638
5104073 3 18334297522786754251
5281201 14 17346046575430179228
5312625 73 18201439229044771739
5374978 207 14562528479075931349
542803 24 18413110546177339087
59682541 52 17417551154681682852
633830 44 18343297071971608671
6442390 28 18262802981465418490
7808743 9 18120373413676967724
8988823 20 13912607203290130983
90127 26 18338246968405986435
960060 61 12463569612246804120

>  <PUBCHEM_SHAPE_MULTIPOLES>  (1) 
333.13
13.24
2.01
1.03
14.96
0.08
0.07
-5.9
-1.61
-1.51
0.33
-1.11
0.06
-0.38

>  <PUBCHEM_SHAPE_SELFOVERLAP>  (1) 
680.837

>  <PUBCHEM_SHAPE_VOLUME>  (1) 
194.3

>  <PUBCHEM_COORDINATE_TYPE>  (1) 
2
5
10

$$$$
