13087
     RDKit          3D

 18 18  0  0  0  0  0  0  0  0999 V2000
   -1.6436   -2.9678   -0.8147 F   0  0  0  0  0  0  0  0  0  0  0  0
    0.9198    1.0574    0.8675 O   0  0  0  0  0  0  0  0  0  0  0  0
    3.4504    0.2957    0.0741 N   0  0  0  0  0  0  0  0  0  0  0  0
    0.0932   -0.9853    0.0576 N   0  0  0  0  0  0  0  0  0  0  0  0
    2.4514   -0.7350    0.3543 C   0  0  0  0  0  0  0  0  0  0  0  0
    3.1399    0.9809   -1.1800 C   0  0  0  0  0  0  0  0  0  0  0  0
    4.7886   -0.2914    0.0182 C   0  0  0  0  0  0  0  0  0  0  0  0
    1.0801   -0.0918    0.4687 C   0  0  0  0  0  0  0  0  0  0  0  0
    4.1683    2.0561   -1.4874 C   0  0  0  0  0  0  0  0  0  0  0  0
    5.1525   -0.9553    1.3354 C   0  0  0  0  0  0  0  0  0  0  0  0
   -1.3047   -0.7680    0.0146 C   0  0  0  0  0  0  0  0  0  0  0  0
   -3.1880    0.6731    0.3764 C   0  0  0  0  0  0  0  0  0  0  0  0
   -1.8104    0.4572    0.4163 C   0  0  0  0  0  0  0  0  0  0  0  0
   -3.7501    1.9865    0.8053 C   0  0  0  0  0  0  0  0  0  0  0  0
   -2.1373   -1.7836   -0.4257 C   0  0  0  0  0  0  0  0  0  0  0  0
   -4.0401   -0.3392   -0.0646 C   0  0  0  0  0  0  0  0  0  0  0  0
   -3.5148   -1.5676   -0.4655 C   0  0  0  0  0  0  0  0  0  0  0  0
   -3.8552    2.9782   -0.3503 C   0  0  0  0  0  0  0  0  0  0  0  0
  1 15  1  0
  2  8  2  0
  3  5  1  0
  3  6  1  0
  3  7  1  0
  4  8  1  0
  4 11  1  0
  5  8  1  0
  6  9  1  0
  7 10  1  0
 11 13  2  0
 11 15  1  0
 12 13  1  0
 12 14  1  0
 12 16  2  0
 14 18  1  0
 15 17  2  0
 16 17  1  0
M  END
>  <PUBCHEM_COMPOUND_CID>  (1) 
13087

>  <PUBCHEM_CONFORMER_RMSD>  (1) 
0.8

>  <PUBCHEM_CONFORMER_DIVERSEORDER>  (1) 
1
18
13
16
8
14
10
20
23
9
21
17
22
3
5
4
12
11
24
7
15
2
19
6

>  <PUBCHEM_MMFF94_PARTIAL_CHARGES>  (1) 
19
1 -0.19
11 0.12
12 -0.14
13 -0.15
14 0.14
15 0.19
16 -0.15
17 -0.15
2 -0.57
3 -0.81
31 0.37
32 0.15
35 0.15
36 0.15
4 -0.55
5 0.33
6 0.27
7 0.27
8 0.57

>  <PUBCHEM_EFFECTIVE_ROTOR_COUNT>  (1) 
7

>  <PUBCHEM_PHARMACOPHORE_FEATURES>  (1) 
5
1 18 hydrophobe
1 2 acceptor
1 3 cation
1 4 donor
6 11 12 13 15 16 17 rings

>  <PUBCHEM_HEAVY_ATOM_COUNT>  (1) 
18

>  <PUBCHEM_ATOM_DEF_STEREO_COUNT>  (1) 
0

>  <PUBCHEM_ATOM_UDEF_STEREO_COUNT>  (1) 
0

>  <PUBCHEM_BOND_DEF_STEREO_COUNT>  (1) 
0

>  <PUBCHEM_BOND_UDEF_STEREO_COUNT>  (1) 
0

>  <PUBCHEM_ISOTOPIC_ATOM_COUNT>  (1) 
0

>  <PUBCHEM_COMPONENT_COUNT>  (1) 
1

>  <PUBCHEM_CACTVS_TAUTO_COUNT>  (1) 
2

>  <PUBCHEM_CONFORMER_ID>  (1) 
0000331F00000001

>  <PUBCHEM_MMFF94_ENERGY>  (1) 
39.5421

>  <PUBCHEM_FEATURE_SELFOVERLAP>  (1) 
25.371

>  <PUBCHEM_SHAPE_FINGERPRINT>  (1) 
10062212 137 18408880750462264394
11552529 35 17096668662464150507
12107183 9 18046621201421056178
12173636 292 18341326764662526335
12236239 1 18186800292330040539
12390115 104 17773615840605781681
12500047 106 18272924999220598691
13167823 11 18334856138896854514
14739800 52 18196926898134809800
15042514 8 18269835488307919143
15239154 128 18333454252680870660
15375358 24 16773792585096005474
16752209 62 18272074012071217667
17818456 19 18196932167694996608
17834072 32 18265055743457370661
19026448 5 18333733554635867694
19422 9 18334012830457603370
19433438 15 18334298664862945288
20279233 1 16702306771480291646
20645477 56 18273500065561462331
23366157 5 18119816807269293583
23402539 116 18201992197014305172
23557571 272 17989492926715474144
23559900 14 17916314844566984974
23598291 2 18260263079508336342
268830 7 17748543753823865580
2838139 119 17459733849514320661
4214541 1 18341892978579998384
474 4 17386856195510536940
5104073 3 18335422387189851152
559249 180 18339355254568013434
573450 72 18411128139333935298
633830 44 17603589634059645272
6430166 295 18340204094275690984
67856867 119 18264483070040616160
9971528 1 18260260846789850666

>  <PUBCHEM_SHAPE_MULTIPOLES>  (1) 
347.33
10.82
2.6
1.08
8.22
0.66
-0.07
2.82
0.41
-2.57
-0.78
0.91
0.2
-2.09

>  <PUBCHEM_SHAPE_SELFOVERLAP>  (1) 
700.364

>  <PUBCHEM_SHAPE_VOLUME>  (1) 
205.8

>  <PUBCHEM_COORDINATE_TYPE>  (1) 
2
5
10

$$$$
