13083
     RDKit          3D

 18 20  0  0  1  0  0  0  0  0999 V2000
    5.0191    2.0826   -0.1454 Cl  0  0  0  0  0  0  0  0  0  0  0  0
   -0.2002    1.6839    0.6048 O   0  0  0  0  0  0  0  0  0  0  0  0
   -4.5973    0.2105    0.8459 N   0  0  0  0  0  0  0  0  0  0  0  0
   -0.9159   -0.6240    0.5097 C   0  0  0  0  0  0  0  0  0  0  0  0
   -0.4954   -1.8185   -0.3527 C   0  0  0  0  0  0  0  0  0  0  0  0
    0.8890   -2.3078    0.0556 C   0  0  0  0  0  0  0  0  0  0  0  0
    1.8982   -1.1941   -0.0057 C   0  0  0  0  0  0  0  0  0  0  0  0
    0.1044    0.5081    0.4204 C   0  0  0  0  0  0  0  0  0  0  0  0
    1.5261    0.1473    0.1720 C   0  0  0  0  0  0  0  0  0  0  0  0
   -2.3178   -0.1610    0.1555 C   0  0  0  0  0  0  0  0  0  0  0  0
    3.2518   -1.5032   -0.2027 C   0  0  0  0  0  0  0  0  0  0  0  0
    2.4924    1.1602    0.1245 C   0  0  0  0  0  0  0  0  0  0  0  0
   -2.6119    0.2954   -1.1200 C   0  0  0  0  0  0  0  0  0  0  0  0
   -3.3293   -0.1860    1.0960 C   0  0  0  0  0  0  0  0  0  0  0  0
    4.2125   -0.4928   -0.2480 C   0  0  0  0  0  0  0  0  0  0  0  0
    3.8323    0.8371   -0.0879 C   0  0  0  0  0  0  0  0  0  0  0  0
   -3.9052    0.7120   -1.4155 C   0  0  0  0  0  0  0  0  0  0  0  0
   -4.8528    0.6503   -0.4067 C   0  0  0  0  0  0  0  0  0  0  0  0
  1 16  1  0
  2  8  2  0
  3 14  2  0
  3 18  1  0
  4  5  1  0
  4  8  1  0
  4 10  1  0
  5  6  1  0
  6  7  1  0
  7  9  2  0
  7 11  1  0
  8  9  1  0
  9 12  1  0
 10 13  2  0
 10 14  1  0
 11 15  2  0
 12 16  2  0
 13 17  1  0
 15 16  1  0
 17 18  2  0
M  END
>  <PUBCHEM_COMPOUND_CID>  (1) 
13083

>  <PUBCHEM_CONFORMER_RMSD>  (1) 
0.6

>  <PUBCHEM_CONFORMER_DIVERSEORDER>  (1) 
2
10
7
14
16
6
11
1
5
3
12
4
9
15
8
13

>  <PUBCHEM_MMFF94_PARTIAL_CHARGES>  (1) 
24
1 -0.18
10 -0.14
11 -0.15
12 -0.15
13 -0.15
14 0.16
15 -0.15
16 0.18
17 -0.15
18 0.16
2 -0.57
24 0.15
25 0.15
26 0.15
27 0.15
28 0.15
29 0.15
3 -0.62
30 0.15
4 0.2
6 0.14
7 -0.14
8 0.42
9 0.09

>  <PUBCHEM_EFFECTIVE_ROTOR_COUNT>  (1) 
1.6

>  <PUBCHEM_PHARMACOPHORE_FEATURES>  (1) 
5
1 2 acceptor
1 3 acceptor
6 3 10 13 14 17 18 rings
6 4 5 6 7 8 9 rings
6 7 9 11 12 15 16 rings

>  <PUBCHEM_HEAVY_ATOM_COUNT>  (1) 
18

>  <PUBCHEM_ATOM_DEF_STEREO_COUNT>  (1) 
0

>  <PUBCHEM_ATOM_UDEF_STEREO_COUNT>  (1) 
1

>  <PUBCHEM_BOND_DEF_STEREO_COUNT>  (1) 
0

>  <PUBCHEM_BOND_UDEF_STEREO_COUNT>  (1) 
0

>  <PUBCHEM_ISOTOPIC_ATOM_COUNT>  (1) 
0

>  <PUBCHEM_COMPONENT_COUNT>  (1) 
1

>  <PUBCHEM_CACTVS_TAUTO_COUNT>  (1) 
2

>  <PUBCHEM_CONFORMER_ID>  (1) 
0000331B00000002

>  <PUBCHEM_MMFF94_ENERGY>  (1) 
45.2963

>  <PUBCHEM_FEATURE_SELFOVERLAP>  (1) 
25.395

>  <PUBCHEM_SHAPE_FINGERPRINT>  (1) 
10411042 1 17762903169519655758
10646746 165 17095518444425941020
11471102 20 18412262818021834418
11543360 7 15338836512357657480
12236239 1 17489588940087249923
12403259 415 18114185211246837764
12730499 353 18260831454332681955
12969540 114 18410565210628263324
13140716 1 18340482361371202922
13583140 156 16516225449064416292
13675066 3 17967819365945249722
13760787 5 18272652324605328278
14289901 80 16443355264256869499
15196674 1 18411983598050907074
15219456 202 18186802452825171431
15375358 24 18259984868374331355
16945 1 18340768131030223194
18186145 218 18412829079400432790
18785283 64 17752221723082110173
19026448 4 17603588504019178499
19784866 34 18411415133179934738
19862831 5 17847059982280927326
200 152 18059852822696006049
204376 136 18410576218687705206
20612939 158 18341894060885344238
20645477 56 18187361086236383100
20645477 70 18341050722592968390
21267235 1 18341624667984323194
231179 274 18113614577734119150
23227448 37 18116436036372030836
23402539 116 17775566420707618312
23402655 69 18201718466026990748
23493267 7 17749387044486759137
23557571 272 17095813109658693903
23559900 14 17023469625259958458
25 1 18411415115878830706
2748010 2 18197504124137042274
293599 30 18338520841280130948
296302 2 18410857680631528598
335352 9 18411983572971894838
34797466 226 14764340591332755104
34934 24 18341326799386163816
4072396 5 18264190470797649618
474 4 18411982494186088472
5104073 3 18333734619371091587
633830 44 18130238059606265015
77492 1 17418089880686926027
8272917 22 18199753540222707983

>  <PUBCHEM_SHAPE_MULTIPOLES>  (1) 
361.45
9.86
1.93
0.96
1.55
0.42
-0.1
-4.46
-0.99
-2.01
-0.09
1
-0.11
0.39

>  <PUBCHEM_SHAPE_SELFOVERLAP>  (1) 
784.793

>  <PUBCHEM_SHAPE_VOLUME>  (1) 
197.9

>  <PUBCHEM_COORDINATE_TYPE>  (1) 
2
5
10

$$$$
