13092
     RDKit          3D

 19 22  0  0  0  0  0  0  0  0999 V2000
    5.7584    0.2147   -0.0003 N   0  0  0  0  0  0  0  0  0  0  0  0
    0.1089   -0.5814    0.0002 C   0  0  0  0  0  0  0  0  0  0  0  0
   -0.7486    0.5575    0.0001 C   0  0  0  0  0  0  0  0  0  0  0  0
    1.5452   -0.4225    0.0002 C   0  0  0  0  0  0  0  0  0  0  0  0
   -2.1849    0.3986    0.0001 C   0  0  0  0  0  0  0  0  0  0  0  0
    2.0973    0.8807   -0.0003 C   0  0  0  0  0  0  0  0  0  0  0  0
   -2.7372   -0.9046   -0.0003 C   0  0  0  0  0  0  0  0  0  0  0  0
   -0.1320    1.8251    0.0000 C   0  0  0  0  0  0  0  0  0  0  0  0
   -0.5078   -1.8491    0.0001 C   0  0  0  0  0  0  0  0  0  0  0  0
    1.2519    1.9852   -0.0003 C   0  0  0  0  0  0  0  0  0  0  0  0
   -1.8917   -2.0091   -0.0003 C   0  0  0  0  0  0  0  0  0  0  0  0
    2.4755   -1.4955    0.0005 C   0  0  0  0  0  0  0  0  0  0  0  0
    3.4895    1.0782   -0.0002 C   0  0  0  0  0  0  0  0  0  0  0  0
   -3.1153    1.4717    0.0006 C   0  0  0  0  0  0  0  0  0  0  0  0
   -4.1294   -1.1020   -0.0005 C   0  0  0  0  0  0  0  0  0  0  0  0
    4.3662   -0.0011    0.0000 C   0  0  0  0  0  0  0  0  0  0  0  0
    3.8586   -1.2900    0.0004 C   0  0  0  0  0  0  0  0  0  0  0  0
   -4.4984    1.2662    0.0003 C   0  0  0  0  0  0  0  0  0  0  0  0
   -5.0060   -0.0227   -0.0002 C   0  0  0  0  0  0  0  0  0  0  0  0
  1 16  1  0
  2  3  1  0
  2  4  2  0
  2  9  1  0
  3  5  1  0
  3  8  2  0
  4  6  1  0
  4 12  1  0
  5  7  2  0
  5 14  1  0
  6 10  2  0
  6 13  1  0
  7 11  1  0
  7 15  1  0
  8 10  1  0
  9 11  2  0
 12 17  2  0
 13 16  2  0
 14 18  2  0
 15 19  2  0
 16 17  1  0
 18 19  1  0
M  END
>  <PUBCHEM_COMPOUND_CID>  (1) 
13092

>  <PUBCHEM_CONFORMER_RMSD>  (1) 
0.4

>  <PUBCHEM_CONFORMER_DIVERSEORDER>  (1) 
1

>  <PUBCHEM_MMFF94_PARTIAL_CHARGES>  (1) 
26
1 -0.9
10 -0.15
11 -0.15
12 -0.15
13 -0.15
14 -0.15
15 -0.15
16 0.1
17 -0.15
18 -0.15
19 -0.15
20 0.15
21 0.15
22 0.15
23 0.15
24 0.15
25 0.15
26 0.15
27 0.15
28 0.15
29 0.15
30 0.15
31 0.4
32 0.4
8 -0.15
9 -0.15

>  <PUBCHEM_EFFECTIVE_ROTOR_COUNT>  (1) 
0

>  <PUBCHEM_PHARMACOPHORE_FEATURES>  (1) 
6
1 1 cation
1 1 donor
6 2 3 4 6 8 10 rings
6 2 3 5 7 9 11 rings
6 4 6 12 13 16 17 rings
6 5 7 14 15 18 19 rings

>  <PUBCHEM_HEAVY_ATOM_COUNT>  (1) 
19

>  <PUBCHEM_ATOM_DEF_STEREO_COUNT>  (1) 
0

>  <PUBCHEM_ATOM_UDEF_STEREO_COUNT>  (1) 
0

>  <PUBCHEM_BOND_DEF_STEREO_COUNT>  (1) 
0

>  <PUBCHEM_BOND_UDEF_STEREO_COUNT>  (1) 
0

>  <PUBCHEM_ISOTOPIC_ATOM_COUNT>  (1) 
0

>  <PUBCHEM_COMPONENT_COUNT>  (1) 
1

>  <PUBCHEM_CACTVS_TAUTO_COUNT>  (1) 
1

>  <PUBCHEM_CONFORMER_ID>  (1) 
0000332400000001

>  <PUBCHEM_MMFF94_ENERGY>  (1) 
80.2678

>  <PUBCHEM_FEATURE_SELFOVERLAP>  (1) 
30.515

>  <PUBCHEM_SHAPE_FINGERPRINT>  (1) 
10062212 137 18342733031523768215
10616163 171 18340488970835319286
10906281 52 18268731483346895990
10967382 1 18410575050308654279
11132069 177 18411697677466228712
11471102 20 18410853261131286614
11578080 2 16914524734591084323
12011746 2 18411699876505321741
12107183 9 17689716359368470600
12236239 1 17822009813714174930
12403259 226 18268705177405853345
12403259 415 18410847764032726689
12403814 3 17603583015219708173
13140716 1 18266741470369339304
13288520 33 18413110554424421292
13862211 1 18410569582852495562
14115302 16 18187093879182929140
14790565 3 18409737239755284908
15042514 8 18193842767897474531
15099037 51 18410573985388899567
15196674 1 18410856538170331782
15375358 24 18343866610605289286
15442244 35 18411136930841579721
15536298 74 18342175574411252352
1601671 61 18411702075882128316
16945 1 18122627420676094375
17804303 29 18411984693103985269
1813 80 17240202127600986420
18186145 218 17967525774934427247
18522853 276 18413671309443942937
19141452 34 18343020021027548895
19591789 44 18265613186824374759
200 152 17989203750561669427
20510252 161 18200313212720489177
20645477 70 18270400486443431942
21029758 11 18343299266995354153
21267235 1 18410583898025959402
21279426 13 18194965145165470759
21421861 104 17823971239416219578
221490 88 18191593149267091227
23402539 116 18271800228868874199
23463225 33 18409449180466543836
23559900 14 18271802479912330896
23622692 118 17914885676771542943
3004659 81 18261115124317398598
335352 9 18410573967992726868
34934 24 18410851066867468794
350125 39 18410858759481125481
3545911 37 18411983559058259979
4214541 1 18410573985431194881
4340502 62 16443353043795564825
474 4 17241616198486500436
495365 180 17417517103684587168
5104073 3 18410573998046910002
69090 78 18413668019768155943
7364860 26 18269554021440705480
77779 3 18410013238532089927
8809292 202 18261395614865552651
9709674 26 18412269457978522863
9981440 41 17253714292125286768

>  <PUBCHEM_SHAPE_MULTIPOLES>  (1) 
386.03
9.91
2.07
0.61
2.13
0.04
0
-0.27
0
-0.37
0
-0.02
0
0

>  <PUBCHEM_SHAPE_SELFOVERLAP>  (1) 
885.628

>  <PUBCHEM_SHAPE_VOLUME>  (1) 
196.7

>  <PUBCHEM_COORDINATE_TYPE>  (1) 
2
5
10

$$$$
