13107
     RDKit          3D

 22 24  0  0  0  0  0  0  0  0999 V2000
   -0.6386    3.0536    0.0014 Br  0  0  0  0  0  0  0  0  0  0  0  0
    5.8934    0.7350   -0.0001 Cl  0  0  0  0  0  0  0  0  0  0  0  0
   -0.9056    0.1866   -0.0004 C   0  0  0  0  0  0  0  0  0  0  0  0
   -2.3478    0.3760   -0.0003 C   0  0  0  0  0  0  0  0  0  0  0  0
   -0.3149   -1.1916   -0.0001 C   0  0  0  0  0  0  0  0  0  0  0  0
   -0.0487    1.2588    0.0000 C   0  0  0  0  0  0  0  0  0  0  0  0
    1.4229    1.1296   -0.0001 C   0  0  0  0  0  0  0  0  0  0  0  0
   -3.0392    0.4671    1.2078 C   0  0  0  0  0  0  0  0  0  0  0  0
   -0.0579   -1.7918   -1.2080 C   0  0  0  0  0  0  0  0  0  0  0  0
   -3.0395    0.4671   -1.2081 C   0  0  0  0  0  0  0  0  0  0  0  0
   -0.0570   -1.7910    1.2079 C   0  0  0  0  0  0  0  0  0  0  0  0
    2.0950    1.0711   -1.2081 C   0  0  0  0  0  0  0  0  0  0  0  0
    2.0950    1.0694    1.2079 C   0  0  0  0  0  0  0  0  0  0  0  0
   -4.4222    0.6493    1.2080 C   0  0  0  0  0  0  0  0  0  0  0  0
    0.4922   -3.0736   -1.2079 C   0  0  0  0  0  0  0  0  0  0  0  0
   -4.4223    0.6494   -1.2080 C   0  0  0  0  0  0  0  0  0  0  0  0
    0.4931   -3.0729    1.2081 C   0  0  0  0  0  0  0  0  0  0  0  0
   -5.1137    0.7405    0.0002 C   0  0  0  0  0  0  0  0  0  0  0  0
    0.7677   -3.7141    0.0001 C   0  0  0  0  0  0  0  0  0  0  0  0
    3.4845    0.9483   -1.2081 C   0  0  0  0  0  0  0  0  0  0  0  0
    3.4845    0.9468    1.2078 C   0  0  0  0  0  0  0  0  0  0  0  0
    4.1792    0.8861   -0.0001 C   0  0  0  0  0  0  0  0  0  0  0  0
  1  6  1  0
  2 22  1  0
  3  4  1  0
  3  5  1  0
  3  6  2  3
  4  8  2  0
  4 10  1  0
  5  9  2  0
  5 11  1  0
  6  7  1  0
  7 12  2  0
  7 13  1  0
  8 14  1  0
  9 15  1  0
 10 16  2  0
 11 17  2  0
 12 20  1  0
 13 21  2  0
 14 18  2  0
 15 19  2  0
 16 18  1  0
 17 19  1  0
 20 22  2  0
 21 22  1  0
M  END
>  <PUBCHEM_COMPOUND_CID>  (1) 
13107

>  <PUBCHEM_CONFORMER_RMSD>  (1) 
0.6

>  <PUBCHEM_CONFORMER_DIVERSEORDER>  (1) 
1

>  <PUBCHEM_MMFF94_PARTIAL_CHARGES>  (1) 
36
1 -0.11
10 -0.15
11 -0.15
12 -0.15
13 -0.15
14 -0.15
15 -0.15
16 -0.15
17 -0.15
18 -0.15
19 -0.15
2 -0.18
20 -0.15
21 -0.15
22 0.18
23 0.15
24 0.15
25 0.15
26 0.15
27 0.15
28 0.15
29 0.15
3 -0.06
30 0.15
31 0.15
32 0.15
33 0.15
34 0.15
35 0.15
36 0.15
4 0.03
5 0.03
6 0.08
7 0.03
8 -0.15
9 -0.15

>  <PUBCHEM_EFFECTIVE_ROTOR_COUNT>  (1) 
3

>  <PUBCHEM_PHARMACOPHORE_FEATURES>  (1) 
4
1 1 hydrophobe
6 4 8 10 14 16 18 rings
6 5 9 11 15 17 19 rings
6 7 12 13 20 21 22 rings

>  <PUBCHEM_HEAVY_ATOM_COUNT>  (1) 
22

>  <PUBCHEM_ATOM_DEF_STEREO_COUNT>  (1) 
0

>  <PUBCHEM_ATOM_UDEF_STEREO_COUNT>  (1) 
0

>  <PUBCHEM_BOND_DEF_STEREO_COUNT>  (1) 
0

>  <PUBCHEM_BOND_UDEF_STEREO_COUNT>  (1) 
0

>  <PUBCHEM_ISOTOPIC_ATOM_COUNT>  (1) 
0

>  <PUBCHEM_COMPONENT_COUNT>  (1) 
1

>  <PUBCHEM_CACTVS_TAUTO_COUNT>  (1) 
1

>  <PUBCHEM_CONFORMER_ID>  (1) 
0000333300000001

>  <PUBCHEM_MMFF94_ENERGY>  (1) 
77.7277

>  <PUBCHEM_FEATURE_SELFOVERLAP>  (1) 
20.297

>  <PUBCHEM_SHAPE_FINGERPRINT>  (1) 
10006869 2 17697891276363217401
10382601 240 18198639747749304721
10764073 3 15360755108869044539
107951 10 17967542302570540858
11578080 2 17099179698024507941
11963148 33 18115019827343169571
12507560 18 17703793626230748104
12592029 89 18260266326187023243
12788726 201 17619899995277671766
12969540 114 18263347222129751172
13083527 12 18121197802262709171
13132413 78 8357993194432283439
13140716 1 18267589194547011313
13149001 5 18054790847282323401
13257819 101 17096064927717453623
133893 2 18045517308588917578
13583140 156 16081357600957375759
13681431 1 17978509728560841767
13911987 19 18334577983671661269
14178342 30 18340784710115253753
14468879 13 16052624183958580050
14790565 3 18410864273460238360
15309172 13 18408886265100000025
15849732 13 17821728351833532084
16752209 62 18120364616929876283
17980427 23 15647055975912156399
1813 80 17554050935707261607
20028762 73 17983865755207354543
20197701 30 18411414037852582450
20567600 347 18411421691484479407
20600515 1 18271537501810376628
20645476 183 17822290253403274778
20681677 155 18263643026013835112
20691752 17 17460897084959832721
20721686 146 16370995265882487807
20905425 154 18053386491881689556
21033648 29 18265030561816590672
21033650 10 17200553742857716488
21054139 6 18199736094418960407
21421861 104 18122352267959997609
21524375 3 18411418440273149703
22956985 138 17969501494077169075
23402539 116 18201997754834218996
23419403 2 17691458166192091027
23559900 14 16734679554882479799
23728640 28 18338516473419976794
266924 87 18266171725767801252
283562 15 18341614772026778344
3084891 72 18411421726107812336
3383291 50 18339924793513450354
3759504 43 18187928438457377622
38695281 34 18201155460313224735
404807 14 14686711544871179670
4340502 62 18410868659580930299
43471831 8 18337954476379251576
465052 167 17459486605115384449
474 4 18411986862273362421
59755656 215 18338517422000776125
59755656 520 18343863337713511927
6138700 20 18339646621133884206
633830 44 18060140963800083305
70251023 43 17980482261638741031
7364860 26 18198340658953730083
81228 2 17617367824425480019
81539 233 18334011662163208391
9953998 17 18265877225579368112

>  <PUBCHEM_SHAPE_MULTIPOLES>  (1) 
460.56
8.77
3.43
1.41
0.77
3.68
0
-5.55
0
1
0
-0.19
0.24
0

>  <PUBCHEM_SHAPE_SELFOVERLAP>  (1) 
988.379

>  <PUBCHEM_SHAPE_VOLUME>  (1) 
255.6

>  <PUBCHEM_COORDINATE_TYPE>  (1) 
2
5
10

$$$$
