13105
     RDKit          3D

 22 25  0  0  0  0  0  0  0  0999 V2000
   -0.6442   -0.2342    2.0153 N   0  0  0  0  0  0  0  0  0  0  0  0
    0.5998   -3.0583   -0.0834 N   0  0  0  0  0  0  0  0  0  0  0  0
    1.1286   -0.6656   -0.1623 C   0  0  0  0  0  0  0  0  0  0  0  0
   -0.2799   -0.3902   -0.3776 C   0  0  0  0  0  0  0  0  0  0  0  0
    2.0767    0.3732   -0.0954 C   0  0  0  0  0  0  0  0  0  0  0  0
   -1.1524   -0.1773    0.6900 C   0  0  0  0  0  0  0  0  0  0  0  0
   -2.5126    0.0877    0.4617 C   0  0  0  0  0  0  0  0  0  0  0  0
    3.4405    0.0598    0.1154 C   0  0  0  0  0  0  0  0  0  0  0  0
    1.5329   -1.9969   -0.0213 C   0  0  0  0  0  0  0  0  0  0  0  0
   -2.9944    0.1374   -0.8680 C   0  0  0  0  0  0  0  0  0  0  0  0
   -0.7536   -0.3414   -1.6853 C   0  0  0  0  0  0  0  0  0  0  0  0
   -2.1018   -0.0793   -1.9305 C   0  0  0  0  0  0  0  0  0  0  0  0
    3.8229   -1.2844    0.2541 C   0  0  0  0  0  0  0  0  0  0  0  0
    2.8741   -2.3050    0.1860 C   0  0  0  0  0  0  0  0  0  0  0  0
    1.6943    1.7174   -0.2339 C   0  0  0  0  0  0  0  0  0  0  0  0
   -3.4051    0.3047    1.5241 C   0  0  0  0  0  0  0  0  0  0  0  0
    4.3819    1.0999    0.1815 C   0  0  0  0  0  0  0  0  0  0  0  0
   -4.3545    0.4025   -1.0963 C   0  0  0  0  0  0  0  0  0  0  0  0
    2.6430    2.7380   -0.1657 C   0  0  0  0  0  0  0  0  0  0  0  0
    3.9843    2.4298    0.0416 C   0  0  0  0  0  0  0  0  0  0  0  0
   -4.7533    0.5667    1.2790 C   0  0  0  0  0  0  0  0  0  0  0  0
   -5.2271    0.6155   -0.0288 C   0  0  0  0  0  0  0  0  0  0  0  0
  1  6  1  0
  2  9  1  0
  3  4  1  0
  3  5  1  0
  3  9  2  0
  4  6  2  0
  4 11  1  0
  5  8  2  0
  5 15  1  0
  6  7  1  0
  7 10  2  0
  7 16  1  0
  8 13  1  0
  8 17  1  0
  9 14  1  0
 10 12  1  0
 10 18  1  0
 11 12  2  0
 13 14  2  0
 15 19  2  0
 16 21  2  0
 17 20  2  0
 18 22  2  0
 19 20  1  0
 21 22  1  0
M  END
>  <PUBCHEM_COMPOUND_CID>  (1) 
13105

>  <PUBCHEM_CONFORMER_RMSD>  (1) 
0.6

>  <PUBCHEM_CONFORMER_DIVERSEORDER>  (1) 
2
1

>  <PUBCHEM_MMFF94_PARTIAL_CHARGES>  (1) 
32
1 -0.9
11 -0.15
12 -0.15
13 -0.15
14 -0.15
15 -0.15
16 -0.15
17 -0.15
18 -0.15
19 -0.15
2 -0.9
20 -0.15
21 -0.15
22 -0.15
23 0.15
24 0.15
25 0.15
26 0.15
27 0.15
28 0.15
29 0.15
30 0.15
31 0.15
32 0.4
33 0.4
34 0.15
35 0.15
36 0.15
37 0.4
38 0.4
6 0.1
9 0.1

>  <PUBCHEM_EFFECTIVE_ROTOR_COUNT>  (1) 
1

>  <PUBCHEM_PHARMACOPHORE_FEATURES>  (1) 
8
1 1 cation
1 1 donor
1 2 cation
1 2 donor
6 3 5 8 9 13 14 rings
6 4 6 7 10 11 12 rings
6 5 8 15 17 19 20 rings
6 7 10 16 18 21 22 rings

>  <PUBCHEM_HEAVY_ATOM_COUNT>  (1) 
22

>  <PUBCHEM_ATOM_DEF_STEREO_COUNT>  (1) 
0

>  <PUBCHEM_ATOM_UDEF_STEREO_COUNT>  (1) 
0

>  <PUBCHEM_BOND_DEF_STEREO_COUNT>  (1) 
0

>  <PUBCHEM_BOND_UDEF_STEREO_COUNT>  (1) 
0

>  <PUBCHEM_ISOTOPIC_ATOM_COUNT>  (1) 
0

>  <PUBCHEM_COMPONENT_COUNT>  (1) 
1

>  <PUBCHEM_CACTVS_TAUTO_COUNT>  (1) 
1

>  <PUBCHEM_CONFORMER_ID>  (1) 
0000333100000002

>  <PUBCHEM_MMFF94_ENERGY>  (1) 
104.879

>  <PUBCHEM_FEATURE_SELFOVERLAP>  (1) 
40.65

>  <PUBCHEM_SHAPE_FINGERPRINT>  (1) 
10165383 225 18116166622001454836
11370993 144 18187651250253615441
11370993 70 18335704966010287531
11582403 64 16087499442597916526
11640471 11 17917717932498013936
11725454 13 16953337366075743223
11796584 16 15195574502824951020
12236239 1 17775280551989965406
12390115 104 17976549630658346540
12403259 327 16660917889678168328
12403259 415 17748825194155761261
12633257 1 17095798953283488520
12644460 14 18408037399368655082
13134695 92 18189607264148764006
13140716 1 18264481974818193976
13583140 156 18339647849304145993
13631057 29 18056187223456356063
13675066 3 17676492748223272877
14739800 52 16844707838403473656
15342168 16 18263648522838926612
16752209 62 16415188001594642527
1813 80 17770510742164456638
18186145 218 18413671326998248230
19049666 15 17604980412830864108
19862831 5 17418379124742523372
20157964 124 18411135806351594973
204376 136 18337955687449285166
20511986 3 17703493450539558569
20600515 1 16008755748748315941
20645476 183 17846493781512069167
20645477 70 18335978688264878590
20715895 44 17483405115000428969
20739085 24 18335991870052454868
21033648 29 17676198070549171901
21033650 10 15625680361233475715
21065201 7 16009030532181712307
21120745 212 16240148241734376836
21503847 285 18201447939074872446
21756936 100 17985553483990905012
22122407 14 18271822181238768993
22956985 138 14058099942382019569
23184049 59 18408885135729011212
23557571 272 16732986375663007167
23559900 14 16443908250076483722
335352 9 18410574012013213468
350125 39 17831864921186161700
38570 142 18127433313293251388
4340502 62 18410865382199331371
474 4 18341048600978987016
495365 180 18408598180120985888
5104073 3 18335699476730658907
602551 16 16008755731278309385
6034566 193 17829054552049002860
633830 44 18130518482268327116
77492 1 17774996877916185246
8272917 22 18341335504604475367
9981440 41 16623180614977616240

>  <PUBCHEM_SHAPE_MULTIPOLES>  (1) 
442.79
9.45
2.35
1.38
5.61
0.31
-0.04
-3.61
1.12
-3.77
0
1.65
0
-0.31

>  <PUBCHEM_SHAPE_SELFOVERLAP>  (1) 
1010.669

>  <PUBCHEM_SHAPE_VOLUME>  (1) 
227.8

>  <PUBCHEM_COORDINATE_TYPE>  (1) 
2
5
10

$$$$
