1310
     RDKit          3D

 12 12  0  0  1  0  0  0  0  0999 V2000
   -3.1286    0.1836    0.6189 O   0  0  0  0  0  0  0  0  0  0  0  0
    3.2313   -1.1724   -0.3543 O   0  0  0  0  0  0  0  0  0  0  0  0
   -2.0199   -1.7588    0.1782 O   0  0  0  0  0  0  0  0  0  0  0  0
    2.9248    1.0566    0.0112 O   0  0  0  0  0  0  0  0  0  0  0  0
   -1.6795    1.0543   -1.5631 N   0  0  0  0  0  0  0  0  0  0  0  0
   -1.0390    0.3664   -0.4532 C   0  0  0  0  0  0  0  0  0  0  0  0
    0.1943   -0.4273   -0.8901 C   0  0  0  0  0  0  0  0  0  0  0  0
    1.0985   -0.4885    0.3510 C   0  0  0  0  0  0  0  0  0  0  0  0
   -0.4927    1.3329    0.5925 C   0  0  0  0  0  0  0  0  0  0  0  0
    0.5019    0.4805    1.3770 C   0  0  0  0  0  0  0  0  0  0  0  0
   -2.0880   -0.5393    0.1371 C   0  0  0  0  0  0  0  0  0  0  0  0
    2.4969   -0.0879   -0.0053 C   0  0  0  0  0  0  0  0  0  0  0  0
  1 11  1  0
  2 12  1  0
  3 11  2  0
  4 12  2  0
  5  6  1  0
  6  7  1  0
  6  9  1  0
  6 11  1  0
  7  8  1  0
  8 10  1  0
  8 12  1  0
  9 10  1  0
M  END
>  <PUBCHEM_COMPOUND_CID>  (1) 
1310

>  <PUBCHEM_CONFORMER_RMSD>  (1) 
0.6

>  <PUBCHEM_CONFORMER_DIVERSEORDER>  (1) 
10
2
20
9
14
24
13
15
11
5
12
6
4
19
3
26
1
8
17
7
16
18
22
21
23
25

>  <PUBCHEM_MMFF94_PARTIAL_CHARGES>  (1) 
13
1 -0.65
11 0.66
12 0.66
2 -0.65
20 0.36
21 0.36
22 0.5
23 0.5
3 -0.57
4 -0.57
5 -0.99
6 0.33
8 0.06

>  <PUBCHEM_EFFECTIVE_ROTOR_COUNT>  (1) 
3

>  <PUBCHEM_PHARMACOPHORE_FEATURES>  (1) 
9
1 1 acceptor
1 2 acceptor
1 3 acceptor
1 4 acceptor
1 5 cation
1 5 donor
3 1 3 11 anion
3 2 4 12 anion
5 6 7 8 9 10 rings

>  <PUBCHEM_HEAVY_ATOM_COUNT>  (1) 
12

>  <PUBCHEM_ATOM_DEF_STEREO_COUNT>  (1) 
0

>  <PUBCHEM_ATOM_UDEF_STEREO_COUNT>  (1) 
2

>  <PUBCHEM_BOND_DEF_STEREO_COUNT>  (1) 
0

>  <PUBCHEM_BOND_UDEF_STEREO_COUNT>  (1) 
0

>  <PUBCHEM_ISOTOPIC_ATOM_COUNT>  (1) 
0

>  <PUBCHEM_COMPONENT_COUNT>  (1) 
1

>  <PUBCHEM_CACTVS_TAUTO_COUNT>  (1) 
1

>  <PUBCHEM_CONFORMER_ID>  (1) 
0000051E0000000A

>  <PUBCHEM_MMFF94_ENERGY>  (1) 
19.7706

>  <PUBCHEM_FEATURE_SELFOVERLAP>  (1) 
45.783

>  <PUBCHEM_SHAPE_FINGERPRINT>  (1) 
10857977 72 18270109244409896594
11769659 78 18408600370675924722
12716758 59 18114453462040329808
12897270 3 17749384871228045110
12932764 1 17894909603325150514
13024252 1 15140973828508776137
14128692 85 18115314512841722679
14993402 34 15554448496312673761
15310529 11 18342737425238219716
16945 1 18335693901857566816
20653085 51 17531815640780607060
23552423 10 18409167697269378042
29004967 10 17989489649249219618
3248919 1 18272359863413465370
369184 2 18260546710289506600
5084963 1 18041005016243132252
528886 8 18060699506868593672

>  <PUBCHEM_SHAPE_MULTIPOLES>  (1) 
218.5
4.25
1.31
1.1
1.53
0.11
0.18
0.68
0.01
-0.07
-0.09
-0.37
-0.23
0.3

>  <PUBCHEM_SHAPE_SELFOVERLAP>  (1) 
450.911

>  <PUBCHEM_SHAPE_VOLUME>  (1) 
126.5

>  <PUBCHEM_COORDINATE_TYPE>  (1) 
2
5
10

$$$$
