13113
     RDKit          3D

 24 26  0  0  0  0  0  0  0  0999 V2000
   -2.1448   -4.7128   -0.7468 Cl  0  0  0  0  0  0  0  0  0  0  0  0
   -3.4006    1.1462    1.1181 S   0  0  0  0  0  0  0  0  0  0  0  0
    0.7169   -0.3465   -2.1290 O   0  0  0  0  0  0  0  0  0  0  0  0
    3.9870   -0.4443    0.4586 N   0  0  0  0  0  0  0  0  0  0  0  0
   -0.7106    0.2414   -0.3697 N   0  0  0  0  0  0  0  0  0  0  0  0
    2.9396   -0.1714   -0.5169 C   0  0  0  0  0  0  0  0  0  0  0  0
    1.5865   -0.4699    0.0954 C   0  0  0  0  0  0  0  0  0  0  0  0
    0.5117   -0.1694   -0.9278 C   0  0  0  0  0  0  0  0  0  0  0  0
    3.9173   -1.8335    0.9164 C   0  0  0  0  0  0  0  0  0  0  0  0
    5.3072   -0.1634   -0.1090 C   0  0  0  0  0  0  0  0  0  0  0  0
   -1.7423   -0.7406   -0.1296 C   0  0  0  0  0  0  0  0  0  0  0  0
   -0.9465    1.6477   -0.1362 C   0  0  0  0  0  0  0  0  0  0  0  0
   -2.9704   -0.4436    0.4785 C   0  0  0  0  0  0  0  0  0  0  0  0
   -2.0853    2.1513    0.5055 C   0  0  0  0  0  0  0  0  0  0  0  0
    4.9618   -2.1130    1.9835 C   0  0  0  0  0  0  0  0  0  0  0  0
    5.4030    1.2742   -0.5911 C   0  0  0  0  0  0  0  0  0  0  0  0
   -1.5149   -2.0926   -0.4799 C   0  0  0  0  0  0  0  0  0  0  0  0
   -0.0074    2.5948   -0.6101 C   0  0  0  0  0  0  0  0  0  0  0  0
   -3.9363   -1.4530    0.6710 C   0  0  0  0  0  0  0  0  0  0  0  0
   -2.2414    3.5397    0.6973 C   0  0  0  0  0  0  0  0  0  0  0  0
   -2.4764   -3.0882   -0.2845 C   0  0  0  0  0  0  0  0  0  0  0  0
   -0.1703    3.9694   -0.4202 C   0  0  0  0  0  0  0  0  0  0  0  0
   -3.6951   -2.7661    0.2847 C   0  0  0  0  0  0  0  0  0  0  0  0
   -1.2883    4.4436    0.2420 C   0  0  0  0  0  0  0  0  0  0  0  0
  1 21  1  0
  2 13  1  0
  2 14  1  0
  3  8  2  0
  4  6  1  0
  4  9  1  0
  4 10  1  0
  5  8  1  0
  5 11  1  0
  5 12  1  0
  6  7  1  0
  7  8  1  0
  9 15  1  0
 10 16  1  0
 11 13  2  0
 11 17  1  0
 12 14  2  0
 12 18  1  0
 13 19  1  0
 14 20  1  0
 17 21  2  0
 18 22  2  0
 19 23  2  0
 20 24  2  0
 21 23  1  0
 22 24  1  0
M  END
>  <PUBCHEM_COMPOUND_CID>  (1) 
13113

>  <PUBCHEM_CONFORMER_RMSD>  (1) 
0.8

>  <PUBCHEM_CONFORMER_DIVERSEORDER>  (1) 
1
28
47
40
26
65
64
85
17
30
52
11
77
68
84
22
36
75
76
61
33
86
82
80
72
16
23
54
9
50
29
42
78
34
31
41
69
12
46
38
20
45
73
62
49
74
21
63
59
7
14
55
81
19
56
10
37
58
24
83
44
48
27
8
4
39
32
57
15
51
66
88
43
25
2
18
87
13
70
53
35
5
79
3
67
60
6
71

>  <PUBCHEM_MMFF94_PARTIAL_CHARGES>  (1) 
29
1 -0.18
10 0.27
11 0.12
12 0.12
13 0.1
14 0.1
17 -0.15
18 -0.15
19 -0.15
2 -0.2
20 -0.15
21 0.18
22 -0.15
23 -0.15
24 -0.15
3 -0.57
39 0.15
4 -0.81
40 0.15
41 0.15
42 0.15
43 0.15
44 0.15
45 0.15
5 -0.29
6 0.27
7 0.06
8 0.57
9 0.27

>  <PUBCHEM_EFFECTIVE_ROTOR_COUNT>  (1) 
6.4

>  <PUBCHEM_PHARMACOPHORE_FEATURES>  (1) 
5
1 3 acceptor
1 4 cation
6 11 13 17 19 21 23 rings
6 12 14 18 20 22 24 rings
6 2 5 11 12 13 14 rings

>  <PUBCHEM_HEAVY_ATOM_COUNT>  (1) 
24

>  <PUBCHEM_ATOM_DEF_STEREO_COUNT>  (1) 
0

>  <PUBCHEM_ATOM_UDEF_STEREO_COUNT>  (1) 
0

>  <PUBCHEM_BOND_DEF_STEREO_COUNT>  (1) 
0

>  <PUBCHEM_BOND_UDEF_STEREO_COUNT>  (1) 
0

>  <PUBCHEM_ISOTOPIC_ATOM_COUNT>  (1) 
0

>  <PUBCHEM_COMPONENT_COUNT>  (1) 
1

>  <PUBCHEM_CACTVS_TAUTO_COUNT>  (1) 
1

>  <PUBCHEM_CONFORMER_ID>  (1) 
0000333900000001

>  <PUBCHEM_MMFF94_ENERGY>  (1) 
88.4089

>  <PUBCHEM_FEATURE_SELFOVERLAP>  (1) 
25.403

>  <PUBCHEM_SHAPE_FINGERPRINT>  (1) 
10074138 170 18267005194367561257
10319926 262 18270108008519911010
10369192 42 16844733187675720912
10411042 1 18195813087869529327
10906281 52 18271257019239929117
10930396 42 17908942700036881842
1100329 8 18267029551728840355
11049842 53 17761241841830248990
11056379 131 18340217318917709062
11265709 11 18338803441279693359
11552529 35 18336538353111578926
11578080 2 17751623580398443485
12107183 9 17758673348561083786
12553582 1 18338793541206496526
12633257 1 18131078090748014945
12788726 201 18335707147953809610
13004483 165 18408595968207657619
13140716 1 18340505442847075113
13540713 5 17410227522556954703
13583140 156 17844504670747013946
138480 1 15960900192154423153
14178342 30 18191851346175724682
14420673 8 17688871935188489850
14787075 74 17972038312837055868
14844126 61 18408317770248913147
15042514 8 18337676321676011339
15230672 131 17616825336509770846
15475509 35 17246136372630524435
16728300 4 17823414882253402483
17780758 139 18190161409641106378
17980427 23 17702958053513049157
19377110 9 18259978302324098800
20600515 1 18129116652572655175
21421861 104 17762638569642647867
21650355 55 18411418419024945579
21796203 349 17686378594254686058
23366157 5 17686905329586373869
23557571 272 18130805429529498588
23559900 14 17908979151925845507
392239 28 18264488567466743776
4409770 3 18334849468796819845
5265222 85 17762936197944646766
7097593 13 18051131690044308015
90316 7 18411423907877189881
9981440 41 17761489188849424561

>  <PUBCHEM_SHAPE_MULTIPOLES>  (1) 
483.8
9.18
5.82
1.22
15.55
1.77
0.08
-5.2
2.98
-5.86
-0.22
0.79
-0.42
-2.14

>  <PUBCHEM_SHAPE_SELFOVERLAP>  (1) 
1005.043

>  <PUBCHEM_SHAPE_VOLUME>  (1) 
277.4

>  <PUBCHEM_COORDINATE_TYPE>  (1) 
2
5
10

$$$$
