13117
     RDKit          3D

 25 27  0  0  0  0  0  0  0  0999 V2000
   -0.9807    2.9239   -0.7794 Br  0  0  0  0  0  0  0  0  0  0  0  0
    5.4416    0.3968    0.5651 F   0  0  0  0  0  0  0  0  0  0  0  0
    4.2693    1.9313    1.5528 F   0  0  0  0  0  0  0  0  0  0  0  0
    3.9163   -0.1653    2.0094 F   0  0  0  0  0  0  0  0  0  0  0  0
   -1.4382    0.1511   -0.1518 C   0  0  0  0  0  0  0  0  0  0  0  0
   -2.8234    0.4991    0.1239 C   0  0  0  0  0  0  0  0  0  0  0  0
   -0.9606   -1.2626   -0.0053 C   0  0  0  0  0  0  0  0  0  0  0  0
    0.8847    0.8103   -0.8455 C   0  0  0  0  0  0  0  0  0  0  0  0
   -0.5331    1.1028   -0.5513 C   0  0  0  0  0  0  0  0  0  0  0  0
    1.8163    0.8910    0.1743 C   0  0  0  0  0  0  0  0  0  0  0  0
    3.1550    0.6143   -0.1039 C   0  0  0  0  0  0  0  0  0  0  0  0
    1.2479    0.4620   -2.1344 C   0  0  0  0  0  0  0  0  0  0  0  0
   -3.2036    0.8815    1.4104 C   0  0  0  0  0  0  0  0  0  0  0  0
   -1.0366   -2.0933   -1.0959 C   0  0  0  0  0  0  0  0  0  0  0  0
   -3.7716    0.4504   -0.8981 C   0  0  0  0  0  0  0  0  0  0  0  0
   -0.4688   -1.6624    1.2126 C   0  0  0  0  0  0  0  0  0  0  0  0
    3.5399    0.2615   -1.3975 C   0  0  0  0  0  0  0  0  0  0  0  0
    2.5863    0.1854   -2.4128 C   0  0  0  0  0  0  0  0  0  0  0  0
    4.1749    0.6942    0.9812 C   0  0  0  0  0  0  0  0  0  0  0  0
   -4.5319    1.2149    1.6750 C   0  0  0  0  0  0  0  0  0  0  0  0
   -0.5926   -3.4086   -0.9597 C   0  0  0  0  0  0  0  0  0  0  0  0
   -5.0999    0.7840   -0.6333 C   0  0  0  0  0  0  0  0  0  0  0  0
   -0.0246   -2.9777    1.3487 C   0  0  0  0  0  0  0  0  0  0  0  0
   -5.4800    1.1662    0.6532 C   0  0  0  0  0  0  0  0  0  0  0  0
   -0.0866   -3.8507    0.2624 C   0  0  0  0  0  0  0  0  0  0  0  0
  1  9  1  0
  2 19  1  0
  3 19  1  0
  4 19  1  0
  5  6  1  0
  5  7  1  0
  5  9  2  3
  6 13  2  0
  6 15  1  0
  7 14  2  0
  7 16  1  0
  8  9  1  0
  8 10  2  0
  8 12  1  0
 10 11  1  0
 11 17  2  0
 11 19  1  0
 12 18  2  0
 13 20  1  0
 14 21  1  0
 15 22  2  0
 16 23  2  0
 17 18  1  0
 20 24  2  0
 21 25  2  0
 22 24  1  0
 23 25  1  0
M  END
>  <PUBCHEM_COMPOUND_CID>  (1) 
13117

>  <PUBCHEM_CONFORMER_RMSD>  (1) 
0.8

>  <PUBCHEM_CONFORMER_DIVERSEORDER>  (1) 
1
2

>  <PUBCHEM_MMFF94_PARTIAL_CHARGES>  (1) 
39
1 -0.11
10 -0.15
11 -0.14
12 -0.15
13 -0.15
14 -0.15
15 -0.15
16 -0.15
17 -0.15
18 -0.15
19 1.16
2 -0.34
20 -0.15
21 -0.15
22 -0.15
23 -0.15
24 -0.15
25 -0.15
26 0.15
27 0.15
28 0.15
29 0.15
3 -0.34
30 0.15
31 0.15
32 0.15
33 0.15
34 0.15
35 0.15
36 0.15
37 0.15
38 0.15
39 0.15
4 -0.34
5 -0.06
6 0.03
7 0.03
8 0.03
9 0.08

>  <PUBCHEM_EFFECTIVE_ROTOR_COUNT>  (1) 
4

>  <PUBCHEM_PHARMACOPHORE_FEATURES>  (1) 
4
1 1 hydrophobe
6 6 13 15 20 22 24 rings
6 7 14 16 21 23 25 rings
6 8 10 11 12 17 18 rings

>  <PUBCHEM_HEAVY_ATOM_COUNT>  (1) 
25

>  <PUBCHEM_ATOM_DEF_STEREO_COUNT>  (1) 
0

>  <PUBCHEM_ATOM_UDEF_STEREO_COUNT>  (1) 
0

>  <PUBCHEM_BOND_DEF_STEREO_COUNT>  (1) 
0

>  <PUBCHEM_BOND_UDEF_STEREO_COUNT>  (1) 
0

>  <PUBCHEM_ISOTOPIC_ATOM_COUNT>  (1) 
0

>  <PUBCHEM_COMPONENT_COUNT>  (1) 
1

>  <PUBCHEM_CACTVS_TAUTO_COUNT>  (1) 
1

>  <PUBCHEM_CONFORMER_ID>  (1) 
0000333D00000001

>  <PUBCHEM_MMFF94_ENERGY>  (1) 
79.8109

>  <PUBCHEM_FEATURE_SELFOVERLAP>  (1) 
20.297

>  <PUBCHEM_SHAPE_FINGERPRINT>  (1) 
10764073 3 15142063376108169111
10906281 52 18059591229508745008
11370993 70 16702303438464273341
11578080 2 16841667769734662546
121448 382 18272931665764365543
12160290 23 18121517996443712639
12403259 327 18342726447655252464
12422481 6 17824246125343040931
12592029 89 18041003912531463355
12633257 1 18340188770476132832
12788726 201 17834402593664898991
12839892 36 18187092780019961339
12930653 34 18192425260600449285
13140716 1 18190747616114428184
133893 2 17682424462909794619
13583140 156 16589451862776105973
13692114 37 18339090397373899707
14022347 108 18189640313811616628
14178342 30 18339377309546325073
14466204 15 18335419002893537565
14468879 13 16987704869966075786
15420108 30 18271520884992579119
15849732 13 17676487246385932812
16752209 62 18188498973175688940
20028762 73 18126301954889410551
20197701 30 18411978070549316555
20567600 347 18338244773535591647
20600515 1 18340491156952788420
20642791 239 12750941286897196594
20715895 44 13755297691318856915
20832881 197 17484831245472627662
20905425 154 17760662373105241023
212916 134 18343299266715448043
22956985 138 17679305161413029667
23559900 14 18270134490992781388
23569917 315 18411140242668748815
23598288 3 17825122646722505794
23728640 28 18263080071116944442
34934 24 17750816513025371004
3493558 16 14906520480315155601
4072396 5 18041280980951232725
427121 178 18342746182439191954
465052 167 16805621273509062041
484985 159 13555643963327247608
5265222 85 18335997385349535278
58807428 26 18408887317303742579
59755656 520 18343579637938467166
633830 44 17988652861103606549
81228 2 17832435567605166815
9862522 239 18114730573736417567

>  <PUBCHEM_SHAPE_MULTIPOLES>  (1) 
498.61
9.18
3.34
1.89
1.38
3.94
-0.08
-6.14
3.39
0.31
-0.04
-1.24
-0.15
-0.07

>  <PUBCHEM_SHAPE_SELFOVERLAP>  (1) 
1083.622

>  <PUBCHEM_SHAPE_VOLUME>  (1) 
277.7

>  <PUBCHEM_COORDINATE_TYPE>  (1) 
2
5
10

$$$$
