13111
     RDKit          3D

 23 24  0  0  1  0  0  0  0  0999 V2000
   -3.0308    0.0954    0.1325 N   0  0  0  0  0  0  0  0  0  0  0  0
   -1.5066   -1.7981    0.5671 C   0  0  0  0  0  0  0  0  0  0  0  0
   -1.7684   -0.6279   -0.3992 C   0  0  0  0  0  0  0  0  0  0  0  0
   -2.0820   -1.2610    1.8822 C   0  0  0  0  0  0  0  0  0  0  0  0
   -3.3671   -0.5683    1.4752 C   0  0  0  0  0  0  0  0  0  0  0  0
   -2.2299   -3.0967    0.1318 C   0  0  0  0  0  0  0  0  0  0  0  0
    0.0012   -2.0843    0.7165 C   0  0  0  0  0  0  0  0  0  0  0  0
   -2.7338    1.5769    0.3403 C   0  0  0  0  0  0  0  0  0  0  0  0
   -1.6109   -3.7487   -1.1060 C   0  0  0  0  0  0  0  0  0  0  0  0
    0.6121   -2.7021   -0.5395 C   0  0  0  0  0  0  0  0  0  0  0  0
   -4.1911   -0.0379   -0.8405 C   0  0  0  0  0  0  0  0  0  0  0  0
   -0.1141   -3.9808   -0.9390 C   0  0  0  0  0  0  0  0  0  0  0  0
   -2.4050    2.2507   -0.9861 C   0  0  0  0  0  0  0  0  0  0  0  0
   -2.0350    3.7364   -0.9059 C   0  0  0  0  0  0  0  0  0  0  0  0
   -0.8460    4.0791   -0.0033 C   0  0  0  0  0  0  0  0  0  0  0  0
    0.4382    3.3356   -0.3797 C   0  0  0  0  0  0  0  0  0  0  0  0
    1.6117    3.7837    0.4957 C   0  0  0  0  0  0  0  0  0  0  0  0
    2.9319    3.0913    0.1451 C   0  0  0  0  0  0  0  0  0  0  0  0
    2.8708    1.5672    0.2686 C   0  0  0  0  0  0  0  0  0  0  0  0
    4.2332    0.9330   -0.0211 C   0  0  0  0  0  0  0  0  0  0  0  0
    4.1844   -0.5874    0.1393 C   0  0  0  0  0  0  0  0  0  0  0  0
    5.5362   -1.2242   -0.1823 C   0  0  0  0  0  0  0  0  0  0  0  0
    5.5008   -2.7321    0.0085 C   0  0  0  0  0  0  0  0  0  0  0  0
  1  3  1  0
  1  5  1  0
  1  8  1  0
  1 11  1  0
  2  3  1  0
  2  4  1  0
  2  6  1  0
  2  7  1  0
  4  5  1  0
  6  9  1  0
  7 10  1  0
  8 13  1  0
  9 12  1  0
 10 12  1  0
 13 14  1  0
 14 15  1  0
 15 16  1  0
 16 17  1  0
 17 18  1  0
 18 19  1  0
 19 20  1  0
 20 21  1  0
 21 22  1  0
 22 23  1  0
M  CHG  1   1   1
M  END
>  <PUBCHEM_COMPOUND_CID>  (1) 
13111

>  <PUBCHEM_CONFORMER_RMSD>  (1) 
1.4

>  <PUBCHEM_CONFORMER_DIVERSEORDER>  (1) 
5
77
6
99
42
31
45
39
57
86
96
21
46
100
22
62
78
18
9
26
74
76
56
4
19
97
87
95
13
11
81
10
53
17
23
3
69
67
75
101
16
94
98
68
49
73
40
25
90
15
44
66
58
33
24
88
65
35
7
80
47
41
50
71
59
30
91
34
83
72
79
43
63
1
12
55
48
61
20
60
8
85
103
27
92
82
93
32
52
89
37
102
29
70
36
28
14
38
84
2
54
64
51

>  <PUBCHEM_MMFF94_PARTIAL_CHARGES>  (1) 
5
1 -1.01
11 0.5
3 0.5
5 0.5
8 0.5

>  <PUBCHEM_EFFECTIVE_ROTOR_COUNT>  (1) 
12.8

>  <PUBCHEM_PHARMACOPHORE_FEATURES>  (1) 
4
1 1 cation
1 23 hydrophobe
5 1 2 3 4 5 rings
6 2 6 7 9 10 12 rings

>  <PUBCHEM_HEAVY_ATOM_COUNT>  (1) 
23

>  <PUBCHEM_ATOM_DEF_STEREO_COUNT>  (1) 
0

>  <PUBCHEM_ATOM_UDEF_STEREO_COUNT>  (1) 
1

>  <PUBCHEM_BOND_DEF_STEREO_COUNT>  (1) 
0

>  <PUBCHEM_BOND_UDEF_STEREO_COUNT>  (1) 
0

>  <PUBCHEM_ISOTOPIC_ATOM_COUNT>  (1) 
0

>  <PUBCHEM_COMPONENT_COUNT>  (1) 
1

>  <PUBCHEM_CACTVS_TAUTO_COUNT>  (1) 
1

>  <PUBCHEM_CONFORMER_ID>  (1) 
0000333700000005

>  <PUBCHEM_MMFF94_ENERGY>  (1) 
36.4214

>  <PUBCHEM_FEATURE_SELFOVERLAP>  (1) 
20.302

>  <PUBCHEM_SHAPE_FINGERPRINT>  (1) 
10693767 8 17984394573192078335
11200772 71 18189923971422485302
12038231 1 17401485949200242400
12422481 6 17829348109390891403
12553582 1 17108195036322057809
12633257 1 18200328709120520924
12645989 146 18342455915965782886
12712778 12 18263071133948806264
13122387 1 17185595720010309288
13402501 40 18338234851965894068
14251757 5 18337687325846421676
14725015 67 18335976476351420585
152267 14 18340481287850508966
15322534 239 17691407413132662478
15927050 60 17764019169521587181
16719943 64 18049156671219360138
19930381 70 17545033166342293194
20531524 4 17981910552865132118
20764821 26 17907023872337657806
20775438 99 17263796706450923479
23559900 14 16899044861045292025
238918 7 17911505507787665142
325973 47 18267023856570096140
463206 1 14883134404578038478
56633871 153 18267030633691054731
6433294 58 18338518651021402972
7097593 13 17979362185121904900

>  <PUBCHEM_SHAPE_MULTIPOLES>  (1) 
468.35
8.86
6.87
1.15
13.68
2.48
0.26
-2.86
0.14
0.03
-1.62
-1.05
-0.41
0.87

>  <PUBCHEM_SHAPE_SELFOVERLAP>  (1) 
902.317

>  <PUBCHEM_SHAPE_VOLUME>  (1) 
284.9

>  <PUBCHEM_COORDINATE_TYPE>  (1) 
2
5
10

$$$$
