13120
     RDKit          3D

 24 27  0  0  1  0  0  0  0  0999 V2000
    0.2778    1.2676   -2.6805 O   0  0  0  0  0  0  0  0  0  0  0  0
   -3.5342   -2.7651   -0.3590 O   0  0  0  0  0  0  0  0  0  0  0  0
    1.5874   -0.0213    0.5748 N   0  0  0  0  0  0  0  0  0  0  0  0
   -2.7180    2.5255    1.0213 N   0  0  0  0  0  0  0  0  0  0  0  0
    3.6056   -0.8739   -0.8279 C   0  0  0  0  0  0  0  0  0  0  0  0
    1.5920    0.6307   -0.7620 C   0  0  0  0  0  0  0  0  0  0  0  0
    2.6818    0.0238   -1.6736 C   0  0  0  0  0  0  0  0  0  0  0  0
    4.0862   -0.0399    0.3832 C   0  0  0  0  0  0  0  0  0  0  0  0
    2.7403   -2.0462   -0.3319 C   0  0  0  0  0  0  0  0  0  0  0  0
    2.8616    0.3140    1.2612 C   0  0  0  0  0  0  0  0  0  0  0  0
    1.5296   -1.4948    0.4375 C   0  0  0  0  0  0  0  0  0  0  0  0
    0.2138    0.5969   -1.4257 C   0  0  0  0  0  0  0  0  0  0  0  0
    5.1534   -0.7340    1.1749 C   0  0  0  0  0  0  0  0  0  0  0  0
   -0.8405    1.2445   -0.5635 C   0  0  0  0  0  0  0  0  0  0  0  0
    6.3889   -0.2526    1.3485 C   0  0  0  0  0  0  0  0  0  0  0  0
   -1.9686    0.5464   -0.1314 C   0  0  0  0  0  0  0  0  0  0  0  0
   -0.6436    2.5670   -0.2134 C   0  0  0  0  0  0  0  0  0  0  0  0
   -2.8983    1.2373    0.6737 C   0  0  0  0  0  0  0  0  0  0  0  0
   -2.1883   -0.7984   -0.4747 C   0  0  0  0  0  0  0  0  0  0  0  0
   -1.6082    3.1586    0.5768 C   0  0  0  0  0  0  0  0  0  0  0  0
   -4.0266    0.5480    1.1096 C   0  0  0  0  0  0  0  0  0  0  0  0
   -3.3254   -1.4633   -0.0248 C   0  0  0  0  0  0  0  0  0  0  0  0
   -4.2454   -0.7890    0.7684 C   0  0  0  0  0  0  0  0  0  0  0  0
   -4.7213   -3.3817    0.1386 C   0  0  0  0  0  0  0  0  0  0  0  0
  1 12  1  0
  2 22  1  0
  2 24  1  0
  3  6  1  0
  3 10  1  0
  3 11  1  0
  4 18  2  0
  4 20  1  0
  5  7  1  0
  5  8  1  0
  5  9  1  0
  6  7  1  0
  6 12  1  0
  8 10  1  0
  8 13  1  0
  9 11  1  0
 12 14  1  0
 13 15  2  0
 14 16  2  0
 14 17  1  0
 16 18  1  0
 16 19  1  0
 17 20  2  0
 18 21  1  0
 19 22  2  0
 21 23  2  0
 22 23  1  0
M  END
>  <PUBCHEM_COMPOUND_CID>  (1) 
13120

>  <PUBCHEM_CONFORMER_RMSD>  (1) 
0.8

>  <PUBCHEM_CONFORMER_DIVERSEORDER>  (1) 
1
5
3
4
6
8
2
7
9

>  <PUBCHEM_MMFF94_PARTIAL_CHARGES>  (1) 
29
1 -0.68
10 0.27
11 0.27
12 0.42
13 -0.29
14 -0.14
15 -0.3
17 -0.15
18 0.31
19 -0.15
2 -0.36
20 0.16
21 -0.15
22 0.08
23 -0.15
24 0.28
3 -0.81
37 0.15
38 0.4
39 0.15
4 -0.62
40 0.15
41 0.15
42 0.15
43 0.15
44 0.15
45 0.15
6 0.27
8 0.14

>  <PUBCHEM_EFFECTIVE_ROTOR_COUNT>  (1) 
5.2

>  <PUBCHEM_PHARMACOPHORE_FEATURES>  (1) 
9
1 1 acceptor
1 1 donor
1 15 hydrophobe
1 2 acceptor
1 3 cation
1 4 acceptor
6 16 18 19 21 22 23 rings
6 4 14 16 17 18 20 rings
8 3 5 6 7 8 9 10 11 rings

>  <PUBCHEM_HEAVY_ATOM_COUNT>  (1) 
24

>  <PUBCHEM_ATOM_DEF_STEREO_COUNT>  (1) 
1

>  <PUBCHEM_ATOM_UDEF_STEREO_COUNT>  (1) 
1

>  <PUBCHEM_BOND_DEF_STEREO_COUNT>  (1) 
0

>  <PUBCHEM_BOND_UDEF_STEREO_COUNT>  (1) 
0

>  <PUBCHEM_ISOTOPIC_ATOM_COUNT>  (1) 
0

>  <PUBCHEM_COMPONENT_COUNT>  (1) 
1

>  <PUBCHEM_CACTVS_TAUTO_COUNT>  (1) 
1

>  <PUBCHEM_CONFORMER_ID>  (1) 
0000334000000001

>  <PUBCHEM_MMFF94_ENERGY>  (1) 
88.1816

>  <PUBCHEM_FEATURE_SELFOVERLAP>  (1) 
45.702

>  <PUBCHEM_SHAPE_FINGERPRINT>  (1) 
10319926 262 18200027314713479410
10366900 7 17916284104884381160
10369192 42 17775279517863293560
11370993 144 17202496510661351643
11552529 35 18342454803157003705
11578080 2 18040985280763945877
12166972 35 17750227178897958599
12173636 292 17979918211625234621
12236239 1 17894636941405293657
12507560 40 17845372155071435196
12553582 1 18339377365170117615
12633257 1 18131355202143493321
12892183 10 18200877258143401510
12930653 34 18199463281916375622
13009979 54 18260558847761577070
13224815 77 17822300054471288372
13583140 156 17846204528154471232
13911987 19 14999142425158294966
13994607 96 12751231549624557151
14081887 123 18341892965584300785
14178342 30 18264770965549887500
14289901 80 18339369573914800360
14341114 176 18272091544164390144
14341114 328 18341621425299936552
14787075 74 18191028009091676644
14844126 61 18411415129317906963
14856354 85 18413673509232174286
15163728 17 9222690911335193323
15415430 10 18261107516970085055
17349148 13 17458347429454073626
17780758 139 18409441466916387506
1813 80 17676500418596975180
19377110 9 18260834808860408548
200 152 15791732966937076200
20291156 8 18337118955327774295
20600515 1 18201734933312126225
20626108 58 17677602232548845479
21033648 29 16343443755760171443
21065199 12 18130225935256317130
21421861 104 17981341298073604619
21650355 55 18413389830694835737
21756936 100 12247677214325278878
22122407 14 15410898461677209915
23366157 5 17831872609347095821
23402539 116 17240761748991546240
23557571 272 18273495654366337761
23559900 14 17914357696235812324
339767 52 18335136501424177367
392239 28 18412263964936443192
463206 1 18121782996142588699
57527295 17 14996820187954735587
602551 16 18413394219971856226
6371380 46 17260189896116061798
7097593 13 18192437363785945614

>  <PUBCHEM_SHAPE_MULTIPOLES>  (1) 
472.21
10.61
3.01
1.51
7.72
0.23
0.62
6.11
-4.98
-4.7
-0.19
1.04
-0.44
-0.58

>  <PUBCHEM_SHAPE_SELFOVERLAP>  (1) 
1030.087

>  <PUBCHEM_SHAPE_VOLUME>  (1) 
252.4

>  <PUBCHEM_COORDINATE_TYPE>  (1) 
2
5
10

$$$$
