13124
     RDKit          3D

 26 27  0  0  1  0  0  0  0  0999 V2000
    4.6811   -1.9562    1.3579 F   0  0  0  0  0  0  0  0  0  0  0  0
    3.7157   -0.0520    1.7396 F   0  0  0  0  0  0  0  0  0  0  0  0
    2.5853   -1.8994    1.9352 F   0  0  0  0  0  0  0  0  0  0  0  0
   -0.2188   -0.5021    0.4545 O   0  0  0  0  0  0  0  0  0  0  0  0
   -2.9989   -0.4443    0.7659 O   0  0  0  0  0  0  0  0  0  0  0  0
   -6.4304   -1.0282   -0.4466 N   0  0  0  0  0  0  0  0  0  0  0  0
    1.0496    0.1340    0.3834 C   0  0  0  0  0  0  0  0  0  0  0  0
    1.9405   -0.5266   -0.6508 C   0  0  0  0  0  0  0  0  0  0  0  0
    0.8784    1.6210    0.1524 C   0  0  0  0  0  0  0  0  0  0  0  0
    3.1076   -1.1911   -0.2736 C   0  0  0  0  0  0  0  0  0  0  0  0
   -0.8141   -0.3359    1.7357 C   0  0  0  0  0  0  0  0  0  0  0  0
    1.5777   -0.4635   -1.9963 C   0  0  0  0  0  0  0  0  0  0  0  0
   -2.1604   -1.0340    1.7501 C   0  0  0  0  0  0  0  0  0  0  0  0
    1.8269    2.5171    0.6456 C   0  0  0  0  0  0  0  0  0  0  0  0
   -0.2273    2.0946   -0.5540 C   0  0  0  0  0  0  0  0  0  0  0  0
    3.9116   -1.7925   -1.2420 C   0  0  0  0  0  0  0  0  0  0  0  0
   -5.1139   -0.3983   -0.3503 C   0  0  0  0  0  0  0  0  0  0  0  0
   -4.2718   -1.0756    0.7190 C   0  0  0  0  0  0  0  0  0  0  0  0
    3.5163   -1.2719    1.1604 C   0  0  0  0  0  0  0  0  0  0  0  0
    2.3820   -1.0648   -2.9645 C   0  0  0  0  0  0  0  0  0  0  0  0
    3.5488   -1.7292   -2.5874 C   0  0  0  0  0  0  0  0  0  0  0  0
    1.6696    3.8867    0.4329 C   0  0  0  0  0  0  0  0  0  0  0  0
   -0.3845    3.4642   -0.7668 C   0  0  0  0  0  0  0  0  0  0  0  0
    0.5639    4.3602   -0.2733 C   0  0  0  0  0  0  0  0  0  0  0  0
   -7.0311   -0.7595   -1.7526 C   0  0  0  0  0  0  0  0  0  0  0  0
   -7.3041   -0.5528    0.6255 C   0  0  0  0  0  0  0  0  0  0  0  0
  1 19  1  0
  2 19  1  0
  3 19  1  0
  4  7  1  0
  4 11  1  0
  5 13  1  0
  5 18  1  0
  6 17  1  0
  6 25  1  0
  6 26  1  0
  7  8  1  0
  7  9  1  0
  8 10  2  0
  8 12  1  0
  9 14  2  0
  9 15  1  0
 10 16  1  0
 10 19  1  0
 11 13  1  0
 12 20  2  0
 14 22  1  0
 15 23  2  0
 16 21  2  0
 17 18  1  0
 20 21  1  0
 22 24  2  0
 23 24  1  0
M  END
>  <PUBCHEM_COMPOUND_CID>  (1) 
13124

>  <PUBCHEM_CONFORMER_RMSD>  (1) 
1

>  <PUBCHEM_CONFORMER_DIVERSEORDER>  (1) 
1
125
52
87
8
95
98
105
7
92
32
76
99
63
107
26
23
72
61
42
41
100
71
29
62
91
47
90
33
44
55
118
25
75
109
96
121
80
94
51
69
36
65
101
70
67
50
117
86
68
11
24
27
53
4
31
114
30
18
84
124
48
111
106
22
15
102
110
37
79
66
34
112
21
103
9
58
19
49
119
6
97
89
116
77
120
83
28
20
93
81
123
16
35
85
115
56
13
104
108
57
17
14
82
46
78
64
74
122
3
39
2
38
88
113
60
10
59
12
5
73
54
45
40
43

>  <PUBCHEM_MMFF94_PARTIAL_CHARGES>  (1) 
35
1 -0.34
10 -0.14
11 0.28
12 -0.15
13 0.28
14 -0.15
15 -0.15
16 -0.15
17 0.27
18 0.28
19 1.16
2 -0.34
20 -0.15
21 -0.15
22 -0.15
23 -0.15
24 -0.15
25 0.27
26 0.27
3 -0.34
30 0.15
33 0.15
34 0.15
35 0.15
4 -0.56
40 0.15
41 0.15
42 0.15
43 0.15
44 0.15
5 -0.56
6 -0.81
7 0.57
8 -0.14
9 -0.14

>  <PUBCHEM_EFFECTIVE_ROTOR_COUNT>  (1) 
10

>  <PUBCHEM_PHARMACOPHORE_FEATURES>  (1) 
5
1 4 acceptor
1 5 acceptor
1 6 cation
6 8 10 12 16 20 21 rings
6 9 14 15 22 23 24 rings

>  <PUBCHEM_HEAVY_ATOM_COUNT>  (1) 
26

>  <PUBCHEM_ATOM_DEF_STEREO_COUNT>  (1) 
0

>  <PUBCHEM_ATOM_UDEF_STEREO_COUNT>  (1) 
1

>  <PUBCHEM_BOND_DEF_STEREO_COUNT>  (1) 
0

>  <PUBCHEM_BOND_UDEF_STEREO_COUNT>  (1) 
0

>  <PUBCHEM_ISOTOPIC_ATOM_COUNT>  (1) 
0

>  <PUBCHEM_COMPONENT_COUNT>  (1) 
1

>  <PUBCHEM_CACTVS_TAUTO_COUNT>  (1) 
1

>  <PUBCHEM_CONFORMER_ID>  (1) 
0000334400000001

>  <PUBCHEM_MMFF94_ENERGY>  (1) 
64.0458

>  <PUBCHEM_FEATURE_SELFOVERLAP>  (1) 
25.376

>  <PUBCHEM_SHAPE_FINGERPRINT>  (1) 
10764073 3 17316450072164346360
11578080 2 17606127418207038606
12160290 23 17613181588506117696
12293681 25 17626660497318756102
12553582 1 18190768382354930587
12788726 201 18043829588463288394
14347329 18 16153701000058788749
14863182 85 16702028603280213695
15420108 30 17698709634814393648
16752209 62 17970647202715343938
17844677 252 18409453622644383163
1813 80 18272377438287797991
18222031 100 18272378550552757463
20369508 70 18333731342559041907
20600515 1 18341903978186578834
2132832 1 18273221893831847537
23419403 2 17678708294408053260
23559900 14 18335983185717974315
3004659 81 17917716833640455479
376196 1 17687460587217198713
46194498 28 18341332284165013309
513532 50 18338520870896645629
5219985 13 17399803095204741757
9841814 1 18408893957169883312

>  <PUBCHEM_SHAPE_MULTIPOLES>  (1) 
496.53
12.54
3.89
2.27
33.64
6.64
0.69
-10.31
2.07
-3.91
0.78
-1.68
-1.63
0.57

>  <PUBCHEM_SHAPE_SELFOVERLAP>  (1) 
1032.959

>  <PUBCHEM_SHAPE_VOLUME>  (1) 
285

>  <PUBCHEM_COORDINATE_TYPE>  (1) 
2
5
10

$$$$
