13121
     RDKit          3D

 29 32  0  0  0  0  0  0  0  0999 V2000
   -1.5310   -0.4236   -1.2247 Si  0  0  0  0  0  4  0  0  0  0  0  0
    1.6053   -0.1503   -1.1054 Si  0  0  0  0  0  4  0  0  0  0  0  0
    0.0673   -0.7556   -0.8837 O   0  0  0  0  0  0  0  0  0  0  0  0
   -1.9119    1.2334   -0.4204 C   0  0  0  0  0  0  0  0  0  0  0  0
   -2.6075   -1.6521   -0.2936 C   0  0  0  0  0  0  0  0  0  0  0  0
    2.8281   -1.3273   -0.2958 C   0  0  0  0  0  0  0  0  0  0  0  0
    1.7300    1.4239   -0.0820 C   0  0  0  0  0  0  0  0  0  0  0  0
   -1.9159   -0.4669   -3.0426 C   0  0  0  0  0  0  0  0  0  0  0  0
    2.0224    0.1077   -2.8995 C   0  0  0  0  0  0  0  0  0  0  0  0
   -2.2759    1.2729    0.9165 C   0  0  0  0  0  0  0  0  0  0  0  0
   -3.9849   -1.4928   -0.3008 C   0  0  0  0  0  0  0  0  0  0  0  0
    2.3976   -2.1585    0.7268 C   0  0  0  0  0  0  0  0  0  0  0  0
    1.4345    1.3797    1.2710 C   0  0  0  0  0  0  0  0  0  0  0  0
   -1.8230    2.3921   -1.1761 C   0  0  0  0  0  0  0  0  0  0  0  0
   -2.0094   -2.7012    0.3877 C   0  0  0  0  0  0  0  0  0  0  0  0
    4.1436   -1.3480   -0.7331 C   0  0  0  0  0  0  0  0  0  0  0  0
    2.1159    2.6044   -0.6967 C   0  0  0  0  0  0  0  0  0  0  0  0
   -2.5583    2.5020    1.5129 C   0  0  0  0  0  0  0  0  0  0  0  0
   -4.7834   -2.4044    0.3898 C   0  0  0  0  0  0  0  0  0  0  0  0
    3.3049   -3.0317    1.3271 C   0  0  0  0  0  0  0  0  0  0  0  0
    1.5271    2.5468    2.0296 C   0  0  0  0  0  0  0  0  0  0  0  0
   -2.1052    3.6211   -0.5797 C   0  0  0  0  0  0  0  0  0  0  0  0
   -2.8079   -3.6129    1.0782 C   0  0  0  0  0  0  0  0  0  0  0  0
    5.0508   -2.2212   -0.1330 C   0  0  0  0  0  0  0  0  0  0  0  0
    2.2087    3.7713    0.0616 C   0  0  0  0  0  0  0  0  0  0  0  0
   -2.4728    3.6760    0.7647 C   0  0  0  0  0  0  0  0  0  0  0  0
   -4.1949   -3.4645    1.0793 C   0  0  0  0  0  0  0  0  0  0  0  0
    4.6315   -3.0629    0.8971 C   0  0  0  0  0  0  0  0  0  0  0  0
    1.9143    3.7425    1.4247 C   0  0  0  0  0  0  0  0  0  0  0  0
  1  3  1  0
  1  4  1  0
  1  5  1  0
  1  8  1  0
  2  3  1  0
  2  6  1  0
  2  7  1  0
  2  9  1  0
  4 10  2  0
  4 14  1  0
  5 11  2  0
  5 15  1  0
  6 12  2  0
  6 16  1  0
  7 13  2  0
  7 17  1  0
 10 18  1  0
 11 19  1  0
 12 20  1  0
 13 21  1  0
 14 22  2  0
 15 23  2  0
 16 24  2  0
 17 25  2  0
 18 26  2  0
 19 27  2  0
 20 28  2  0
 21 29  2  0
 22 26  1  0
 23 27  1  0
 24 28  1  0
 25 29  1  0
M  END
>  <PUBCHEM_COMPOUND_CID>  (1) 
13121

>  <PUBCHEM_CONFORMER_RMSD>  (1) 
0.8

>  <PUBCHEM_CONFORMER_DIVERSEORDER>  (1) 
1
12
14
11
9
5
13
2
4
3
10
6
7
15
8

>  <PUBCHEM_MMFF94_PARTIAL_CHARGES>  (1) 
49
1 0.82
10 -0.15
11 -0.15
12 -0.15
13 -0.15
14 -0.15
15 -0.15
16 -0.15
17 -0.15
18 -0.15
19 -0.15
2 0.82
20 -0.15
21 -0.15
22 -0.15
23 -0.15
24 -0.15
25 -0.15
26 -0.15
27 -0.15
28 -0.15
29 -0.15
3 -0.59
36 0.15
37 0.15
38 0.15
39 0.15
4 -0.22
40 0.15
41 0.15
42 0.15
43 0.15
44 0.15
45 0.15
46 0.15
47 0.15
48 0.15
49 0.15
5 -0.22
50 0.15
51 0.15
52 0.15
53 0.15
54 0.15
55 0.15
6 -0.22
7 -0.22
8 -0.08
9 -0.08

>  <PUBCHEM_EFFECTIVE_ROTOR_COUNT>  (1) 
6

>  <PUBCHEM_PHARMACOPHORE_FEATURES>  (1) 
4
6 4 10 14 18 22 26 rings
6 5 11 15 19 23 27 rings
6 6 12 16 20 24 28 rings
6 7 13 17 21 25 29 rings

>  <PUBCHEM_HEAVY_ATOM_COUNT>  (1) 
29

>  <PUBCHEM_ATOM_DEF_STEREO_COUNT>  (1) 
0

>  <PUBCHEM_ATOM_UDEF_STEREO_COUNT>  (1) 
0

>  <PUBCHEM_BOND_DEF_STEREO_COUNT>  (1) 
0

>  <PUBCHEM_BOND_UDEF_STEREO_COUNT>  (1) 
0

>  <PUBCHEM_ISOTOPIC_ATOM_COUNT>  (1) 
0

>  <PUBCHEM_COMPONENT_COUNT>  (1) 
1

>  <PUBCHEM_CACTVS_TAUTO_COUNT>  (1) 
1

>  <PUBCHEM_CONFORMER_ID>  (1) 
0000334100000001

>  <PUBCHEM_MMFF94_ENERGY>  (1) 
62.1046

>  <PUBCHEM_FEATURE_SELFOVERLAP>  (1) 
20.3

>  <PUBCHEM_SHAPE_FINGERPRINT>  (1) 
10006869 2 18130232657265354729
10290309 65 17759789739057372236
10382601 240 17699571647229174044
1100329 8 18339082575815804049
11578080 2 18113888399237637717
12633257 1 18057347031976331225
12788726 201 18338536178455650319
13004483 165 18340212981243904495
13140716 1 18340495538504537175
13965767 371 17130708477276361728
14068700 675 18054756603766548807
14223421 5 18338228387797247677
14400156 162 18046894155568339184
14866123 147 18192150391594676227
14955137 171 17989220239357779062
15664445 248 17976270354330539941
20028762 73 16756350258787764046
20600515 1 17983863285452992020
20681677 274 18409729603377051855
21703447 108 18339352084512500619
23559900 14 18114738351817150383
2818148 4 18335436671976958828
3178227 256 18051142397994422089
3380486 77 17833565500270366932
35225 105 17762665782286306003
392239 28 18050857915690628314
5486654 36 18334863762099931498
70251023 43 18410013268850731763
7226269 152 17839169715716476648

>  <PUBCHEM_SHAPE_MULTIPOLES>  (1) 
627.36
8.22
6
2.09
1.55
2.24
-1.11
-8.64
1.68
-0.85
3.17
0.1
0.33
0.38

>  <PUBCHEM_SHAPE_SELFOVERLAP>  (1) 
1327.966

>  <PUBCHEM_SHAPE_VOLUME>  (1) 
349.2

>  <PUBCHEM_COORDINATE_TYPE>  (1) 
2
5
10

$$$$
