1312
     RDKit          3D

 29 32  0  0  1  0  0  0  0  0999 V2000
    4.5142   -0.3488   -1.1443 P   0  0  0  0  0  0  0  0  0  0  0  0
    6.9179   -0.8440    0.4776 P   0  0  0  0  0  0  0  0  0  0  0  0
    0.2959    0.3327   -0.5488 O   0  0  0  0  0  0  0  0  0  0  0  0
   -0.6060    3.4055    0.1390 O   0  0  0  0  0  0  0  0  0  0  0  0
    0.5707    0.8613    2.3896 O   0  0  0  0  0  0  0  0  0  0  0  0
    2.9591   -0.5268   -0.7362 O   0  0  0  0  0  0  0  0  0  0  0  0
    5.3359   -0.8656    0.1485 O   0  0  0  0  0  0  0  0  0  0  0  0
    4.7571    1.2505   -1.1229 O   0  0  0  0  0  0  0  0  0  0  0  0
    4.9062   -1.0173   -2.4301 O   0  0  0  0  0  0  0  0  0  0  0  0
    7.3138    0.7096    0.2733 O   0  0  0  0  0  0  0  0  0  0  0  0
    7.5762   -1.5739   -0.8056 O   0  0  0  0  0  0  0  0  0  0  0  0
    7.2886   -1.4291    1.8083 O   0  0  0  0  0  0  0  0  0  0  0  0
   -1.9904    0.1201    0.0423 N   0  0  0  0  0  0  0  0  0  0  0  0
   -2.9708   -1.6833    0.9487 N   0  0  0  0  0  0  0  0  0  0  0  0
   -3.9116    1.2181   -0.9744 N   0  0  0  0  0  0  0  0  0  0  0  0
   -5.8825   -0.0426   -0.5784 N   0  0  0  0  0  0  0  0  0  0  0  0
   -6.0661   -1.9672    0.5483 N   0  0  0  0  0  0  0  0  0  0  0  0
   -0.6517    2.1174    0.7481 C   0  0  0  0  0  0  0  0  0  0  0  0
   -0.9266    1.0576   -0.3229 C   0  0  0  0  0  0  0  0  0  0  0  0
    0.7174    1.7504    1.2895 C   0  0  0  0  0  0  0  0  0  0  0  0
    1.3625    1.0379    0.1068 C   0  0  0  0  0  0  0  0  0  0  0  0
    2.4688    0.0601    0.4585 C   0  0  0  0  0  0  0  0  0  0  0  0
   -3.3176    0.2200   -0.2626 C   0  0  0  0  0  0  0  0  0  0  0  0
   -1.8331   -1.0381    0.7695 C   0  0  0  0  0  0  0  0  0  0  0  0
   -3.8786   -0.9024    0.3108 C   0  0  0  0  0  0  0  0  0  0  0  0
   -5.2434   -1.0343    0.1379 C   0  0  0  0  0  0  0  0  0  0  0  0
   -5.2043    1.0633   -1.1202 C   0  0  0  0  0  0  0  0  0  0  0  0
   -7.2069   -0.3720   -0.6249 C   0  0  0  0  0  0  0  0  0  0  0  0
   -7.2949   -1.5591    0.0748 C   0  0  0  0  0  0  0  0  0  0  0  0
  1  6  1  0
  1  7  1  0
  1  8  1  0
  1  9  2  0
  2  7  1  0
  2 10  1  0
  2 11  1  0
  2 12  2  0
  3 19  1  0
  3 21  1  0
  4 18  1  0
  5 20  1  0
  6 22  1  0
 13 19  1  0
 13 23  1  0
 13 24  1  0
 14 24  2  0
 14 25  1  0
 15 23  1  0
 15 27  2  0
 16 26  1  0
 16 27  1  0
 16 28  1  0
 17 26  2  0
 17 29  1  0
 18 19  1  0
 18 20  1  0
 20 21  1  0
 21 22  1  0
 23 25  2  0
 25 26  1  0
 28 29  2  0
M  END
>  <PUBCHEM_COMPOUND_CID>  (1) 
1312

>  <PUBCHEM_CONFORMER_RMSD>  (1) 
1.2

>  <PUBCHEM_CONFORMER_DIVERSEORDER>  (1) 
1
31
167
208
181
6
90
71
198
61
63
191
144
76
210
19
102
30
128
78
177
13
14
54
158
199
188
28
29
77
215
95
37
93
168
136
142
135
38
4
148
46
120
74
146
44
18
42
88
72
133
34
122
40
58
5
213
166
27
60
86
161
206
25
134
41
50
184
125
139
103
22
124
185
104
165
180
138
115
145
91
36
82
10
169
84
100
202
152
73
3
117
201
8
62
66
131
205
39
98
43
53
16
108
92
32
216
107
172
105
52
121
7
17
101
51
218
47
55
141
20
194
106
162
112
155
212
23
9
196
11
193
85
59
179
65
110
147
33
81
24
26
176
68
200
143
45
21
164
12
83
127
163
174
118
48
204
56
151
2
123
197
214
64
109
173
187
140
160
211
79
116
15
153
183
192
170
159
67
99
70
57
217
119
87
129
207
97
96
114
209
189
157
130
69
132
195
126
89
35
186
149
111
94
203
175
156
137
171
49
182
178
190
150
75
113
80
154

>  <PUBCHEM_MMFF94_PARTIAL_CHARGES>  (1) 
38
1 1.51
10 -0.77
11 -0.77
12 -0.7
13 0.05
14 -0.57
15 -0.58
16 0.29
17 -0.57
18 0.28
19 0.54
2 1.51
20 0.28
21 0.28
22 0.28
23 -0.03
24 0.04
25 0.23
26 0.19
27 0.4
28 -0.3
29 0.08
3 -0.56
36 0.4
37 0.4
38 0.15
39 0.06
4 -0.68
40 0.15
41 0.15
42 0.5
43 0.5
44 0.5
5 -0.68
6 -0.55
7 -0.54
8 -0.77
9 -0.7

>  <PUBCHEM_EFFECTIVE_ROTOR_COUNT>  (1) 
7

>  <PUBCHEM_PHARMACOPHORE_FEATURES>  (1) 
18
1 10 acceptor
1 11 acceptor
1 12 acceptor
1 3 acceptor
1 4 acceptor
1 4 donor
1 5 acceptor
1 5 donor
1 8 acceptor
1 9 acceptor
3 13 14 24 cation
3 15 16 27 cation
3 16 17 26 cation
4 2 10 11 12 anion
5 13 14 23 24 25 rings
5 16 17 26 28 29 rings
5 3 18 19 20 21 rings
6 15 16 23 25 26 27 rings

>  <PUBCHEM_HEAVY_ATOM_COUNT>  (1) 
29

>  <PUBCHEM_ATOM_DEF_STEREO_COUNT>  (1) 
0

>  <PUBCHEM_ATOM_UDEF_STEREO_COUNT>  (1) 
4

>  <PUBCHEM_BOND_DEF_STEREO_COUNT>  (1) 
0

>  <PUBCHEM_BOND_UDEF_STEREO_COUNT>  (1) 
0

>  <PUBCHEM_ISOTOPIC_ATOM_COUNT>  (1) 
0

>  <PUBCHEM_COMPONENT_COUNT>  (1) 
1

>  <PUBCHEM_CACTVS_TAUTO_COUNT>  (1) 
1

>  <PUBCHEM_CONFORMER_ID>  (1) 
0000052000000001

>  <PUBCHEM_MMFF94_ENERGY>  (1) 
8.8725

>  <PUBCHEM_FEATURE_SELFOVERLAP>  (1) 
91.775

>  <PUBCHEM_SHAPE_FINGERPRINT>  (1) 
10 15 11095885973591544071
10369192 42 8430317930945831659
106641 1 15410889686726713470
10670039 82 17604139360252056141
11315181 36 18410295817885296353
11719270 70 18410573977411557382
12166972 35 17821731645894353652
12236239 1 16009020701507921917
12516196 113 17561367279087506888
13177829 20 14333404566726221054
13685833 64 18060421326036944210
13782708 43 18340492291499075667
13914758 101 17095801032363722516
14251752 14 17966967214311046823
14251764 18 13686295781422412446
15119646 104 17458339694307982338
15183329 4 16805324379547004470
15188451 53 18334573509138229346
15510800 12 18201451259264622774
18006028 8 18272650155668092305
1813 80 16988581103192484028
18335252 114 14490469811549900358
18608769 82 18041004003195957451
21267235 1 18041281058872313947
21521239 73 16732699442020266346
22224240 67 15841549682644165222
23198884 109 16660365887548391591
23559900 14 18189896599258699565
2838139 119 14923945634912066183
3004659 81 17967248702610340506
335352 9 18261664923323150221
3383291 50 18272934938155502799
4098825 35 17023174986071056087
437815 12 18272654562884825769
5104073 3 16987444101554440458
5283156 175 17821727217455659450
5758199 1 14764626426234040662
59682541 35 17774995805108090114
59755656 520 11169915012973279017
6138700 20 18409166610890792899

>  <PUBCHEM_SHAPE_MULTIPOLES>  (1) 
520.91
21.6
2.1
1.42
15.67
1.08
0.04
-13.11
-2.63
-0.55
0.39
1.71
-0.05
0.88

>  <PUBCHEM_SHAPE_SELFOVERLAP>  (1) 
1105.38

>  <PUBCHEM_SHAPE_VOLUME>  (1) 
296.1

>  <PUBCHEM_COORDINATE_TYPE>  (1) 
2
5
10

$$$$
