13139
     RDKit          3D

  9  8  0  0  0  0  0  0  0  0999 V2000
    0.6725   -2.0600    1.3981 Cl  0  0  0  0  0  0  0  0  0  0  0  0
   -0.0014   -1.0146   -0.1743 P   0  0  0  0  0  0  0  0  0  0  0  0
    1.1884    0.0167   -0.5493 O   0  0  0  0  0  0  0  0  0  0  0  0
   -1.1779   -0.0943    0.4494 O   0  0  0  0  0  0  0  0  0  0  0  0
   -0.4261   -1.9161   -1.2974 O   0  0  0  0  0  0  0  0  0  0  0  0
    1.6924    0.9286    0.4112 C   0  0  0  0  0  0  0  0  0  0  0  0
   -1.8432    0.8194   -0.4052 C   0  0  0  0  0  0  0  0  0  0  0  0
    2.7894    1.7568   -0.2233 C   0  0  0  0  0  0  0  0  0  0  0  0
   -2.8940    1.5636    0.3908 C   0  0  0  0  0  0  0  0  0  0  0  0
  1  2  1  0
  2  3  1  0
  2  4  1  0
  2  5  2  0
  3  6  1  0
  4  7  1  0
  6  8  1  0
  7  9  1  0
M  END
>  <PUBCHEM_COMPOUND_CID>  (1) 
13139

>  <PUBCHEM_CONFORMER_RMSD>  (1) 
0.6

>  <PUBCHEM_CONFORMER_DIVERSEORDER>  (1) 
1
12
5
10
2
15
17
11
18
8
6
14
7
16
13
4
9
3

>  <PUBCHEM_MMFF94_PARTIAL_CHARGES>  (1) 
7
1 -0.32
2 1.56
3 -0.55
4 -0.55
5 -0.7
6 0.28
7 0.28

>  <PUBCHEM_EFFECTIVE_ROTOR_COUNT>  (1) 
4

>  <PUBCHEM_PHARMACOPHORE_FEATURES>  (1) 
1
1 5 acceptor

>  <PUBCHEM_HEAVY_ATOM_COUNT>  (1) 
9

>  <PUBCHEM_ATOM_DEF_STEREO_COUNT>  (1) 
0

>  <PUBCHEM_ATOM_UDEF_STEREO_COUNT>  (1) 
0

>  <PUBCHEM_BOND_DEF_STEREO_COUNT>  (1) 
0

>  <PUBCHEM_BOND_UDEF_STEREO_COUNT>  (1) 
0

>  <PUBCHEM_ISOTOPIC_ATOM_COUNT>  (1) 
0

>  <PUBCHEM_COMPONENT_COUNT>  (1) 
1

>  <PUBCHEM_CACTVS_TAUTO_COUNT>  (1) 
1

>  <PUBCHEM_CONFORMER_ID>  (1) 
0000335300000001

>  <PUBCHEM_MMFF94_ENERGY>  (1) 
5.1254

>  <PUBCHEM_FEATURE_SELFOVERLAP>  (1) 
5.074

>  <PUBCHEM_SHAPE_FINGERPRINT>  (1) 
170605 34 18339931424303885273
18342897 96 18338517572377443740
20653085 51 18271256009552848956
21040471 1 18272085028282322340
21524375 3 18411136947990190100
23211744 41 18337409195979262843
23552449 1 17767398354909558108
23552449 11 17974569087740123083
54338 74 17611730593818252220

>  <PUBCHEM_SHAPE_MULTIPOLES>  (1) 
173.33
3.58
2.45
1.09
1.06
0.73
-0.03
-3.48
0.4
-0.85
0.3
-0.01
0.67
-0.53

>  <PUBCHEM_SHAPE_SELFOVERLAP>  (1) 
288.953

>  <PUBCHEM_SHAPE_VOLUME>  (1) 
119.8

>  <PUBCHEM_COORDINATE_TYPE>  (1) 
2
5
10

$$$$
