13151
     RDKit          3D

  9  8  0  0  1  0  0  0  0  0999 V2000
    2.4607   -0.7555   -0.8826 Cl  0  0  0  0  0  0  0  0  0  0  0  0
    1.3041    1.8522   -0.4793 Cl  0  0  0  0  0  0  0  0  0  0  0  0
    1.4791   -0.0148    1.7508 Cl  0  0  0  0  0  0  0  0  0  0  0  0
   -0.2251   -1.8651   -0.0485 O   0  0  0  0  0  0  0  0  0  0  0  0
   -1.6842    1.5614   -0.0921 N   0  0  0  0  0  0  0  0  0  0  0  0
   -1.4929    0.1602    0.2712 C   0  0  0  0  0  0  0  0  0  0  0  0
   -0.2304   -0.4667   -0.3824 C   0  0  0  0  0  0  0  0  0  0  0  0
    1.1521    0.1287   -0.0053 C   0  0  0  0  0  0  0  0  0  0  0  0
   -2.7634   -0.6003   -0.1318 C   0  0  0  0  0  0  0  0  0  0  0  0
  1  8  1  0
  2  8  1  0
  3  8  1  0
  4  7  1  0
  5  6  1  0
  6  7  1  0
  6  9  1  0
  7  8  1  0
M  END
>  <PUBCHEM_COMPOUND_CID>  (1) 
13151

>  <PUBCHEM_CONFORMER_RMSD>  (1) 
0.4

>  <PUBCHEM_CONFORMER_DIVERSEORDER>  (1) 
1
12
7
9
10
11
2
6
4
8
5
3

>  <PUBCHEM_MMFF94_PARTIAL_CHARGES>  (1) 
11
1 -0.29
15 0.36
16 0.36
17 0.4
2 -0.29
3 -0.29
4 -0.68
5 -0.99
6 0.27
7 0.28
8 0.87

>  <PUBCHEM_EFFECTIVE_ROTOR_COUNT>  (1) 
2

>  <PUBCHEM_PHARMACOPHORE_FEATURES>  (1) 
4
1 4 acceptor
1 4 donor
1 5 cation
1 5 donor

>  <PUBCHEM_HEAVY_ATOM_COUNT>  (1) 
9

>  <PUBCHEM_ATOM_DEF_STEREO_COUNT>  (1) 
0

>  <PUBCHEM_ATOM_UDEF_STEREO_COUNT>  (1) 
2

>  <PUBCHEM_BOND_DEF_STEREO_COUNT>  (1) 
0

>  <PUBCHEM_BOND_UDEF_STEREO_COUNT>  (1) 
0

>  <PUBCHEM_ISOTOPIC_ATOM_COUNT>  (1) 
0

>  <PUBCHEM_COMPONENT_COUNT>  (1) 
1

>  <PUBCHEM_CACTVS_TAUTO_COUNT>  (1) 
1

>  <PUBCHEM_CONFORMER_ID>  (1) 
0000335F00000001

>  <PUBCHEM_MMFF94_ENERGY>  (1) 
9.4009

>  <PUBCHEM_FEATURE_SELFOVERLAP>  (1) 
20.297

>  <PUBCHEM_SHAPE_FINGERPRINT>  (1) 
10857977 72 18269828869467169995
12932764 1 17458058296524313143
137420 1 8424611474361259528
14128692 85 18059309689990707590
21040471 1 18342735264505653459
23235685 24 18270676596736593988
23552423 10 18410576218682404663
24536 1 18269262633489090862
5084963 1 18202569470789030227

>  <PUBCHEM_SHAPE_MULTIPOLES>  (1) 
179.97
3.38
1.67
1.15
1.3
0.43
-0.57
-0.3
0.39
-0.15
0.32
-0.8
-0.07
0.04

>  <PUBCHEM_SHAPE_SELFOVERLAP>  (1) 
306.997

>  <PUBCHEM_SHAPE_VOLUME>  (1) 
120.1

>  <PUBCHEM_COORDINATE_TYPE>  (1) 
2
5
10

$$$$
