13165
     RDKit          3D

  8  7  0  0  0  0  0  0  0  0999 V2000
    0.3108    0.1824    0.2292 O   0  0  0  0  0  0  0  0  0  0  0  0
    2.8966    0.9560   -0.5292 O   0  0  0  0  0  0  0  0  0  0  0  0
   -1.2434   -1.4349   -0.3262 O   0  0  0  0  0  0  0  0  0  0  0  0
    1.3686   -0.7742    0.1059 C   0  0  0  0  0  0  0  0  0  0  0  0
    2.6894   -0.0931    0.4089 C   0  0  0  0  0  0  0  0  0  0  0  0
   -0.9394   -0.2938   -0.0165 C   0  0  0  0  0  0  0  0  0  0  0  0
   -1.8869    0.8268    0.1561 C   0  0  0  0  0  0  0  0  0  0  0  0
   -3.1956    0.6308   -0.0283 C   0  0  0  0  0  0  0  0  0  0  0  0
  1  4  1  0
  1  6  1  0
  2  5  1  0
  3  6  2  0
  4  5  1  0
  6  7  1  0
  7  8  2  0
M  END
>  <PUBCHEM_COMPOUND_CID>  (1) 
13165

>  <PUBCHEM_CONFORMER_RMSD>  (1) 
0.6

>  <PUBCHEM_CONFORMER_DIVERSEORDER>  (1) 
1
26
14
22
21
18
16
4
3
24
23
6
15
5
20
12
25
13
8
17
10
19
9
7
11
2

>  <PUBCHEM_MMFF94_PARTIAL_CHARGES>  (1) 
12
1 -0.43
13 0.4
14 0.15
15 0.15
16 0.15
2 -0.68
3 -0.57
4 0.28
5 0.28
6 0.71
7 -0.14
8 -0.3

>  <PUBCHEM_EFFECTIVE_ROTOR_COUNT>  (1) 
4

>  <PUBCHEM_PHARMACOPHORE_FEATURES>  (1) 
4
1 2 acceptor
1 2 donor
1 3 acceptor
1 8 hydrophobe

>  <PUBCHEM_HEAVY_ATOM_COUNT>  (1) 
8

>  <PUBCHEM_ATOM_DEF_STEREO_COUNT>  (1) 
0

>  <PUBCHEM_ATOM_UDEF_STEREO_COUNT>  (1) 
0

>  <PUBCHEM_BOND_DEF_STEREO_COUNT>  (1) 
0

>  <PUBCHEM_BOND_UDEF_STEREO_COUNT>  (1) 
0

>  <PUBCHEM_ISOTOPIC_ATOM_COUNT>  (1) 
0

>  <PUBCHEM_COMPONENT_COUNT>  (1) 
1

>  <PUBCHEM_CACTVS_TAUTO_COUNT>  (1) 
1

>  <PUBCHEM_CONFORMER_ID>  (1) 
0000336D00000001

>  <PUBCHEM_MMFF94_ENERGY>  (1) 
10.5983

>  <PUBCHEM_FEATURE_SELFOVERLAP>  (1) 
20.297

>  <PUBCHEM_SHAPE_FINGERPRINT>  (1) 
10857977 72 12901553450542322365
12932741 1 16845286198177455506
12932764 1 16515675646217027634
14325111 11 18339923719132244409
14390081 3 18272928332210191960
16714656 1 18413386519010923033
21040471 1 18271802384979555195
23552423 10 18337669720037386406
29004967 10 15357981131300007162
5460574 1 8790877497602608305

>  <PUBCHEM_SHAPE_MULTIPOLES>  (1) 
147.03
4.91
1.12
0.65
0.41
0.19
-0.01
-1.52
0.09
-0.07
0.12
0.11
-0.03
-0.27

>  <PUBCHEM_SHAPE_SELFOVERLAP>  (1) 
271.413

>  <PUBCHEM_SHAPE_VOLUME>  (1) 
92.4

>  <PUBCHEM_COORDINATE_TYPE>  (1) 
2
5
10

$$$$
