13172
     RDKit          3D

 13 12  0  0  1  0  0  0  0  0999 V2000
    2.7956   -0.4861    0.0966 O   0  0  0  0  0  0  0  0  0  0  0  0
    1.9537    1.6534    0.2540 O   0  0  0  0  0  0  0  0  0  0  0  0
   -2.4835    1.5920   -0.5220 O   0  0  0  0  0  0  0  0  0  0  0  0
   -0.5951    0.7576    0.0362 N   0  0  0  0  0  0  0  0  0  0  0  0
   -3.9877   -0.7537    0.3359 N   0  0  0  0  0  0  0  0  0  0  0  0
   -5.0571   -0.8846    0.2806 N   0  0  0  0  0  0  0  0  0  0  0  0
    0.4592   -0.2513   -0.0479 C   0  0  0  0  0  0  0  0  0  0  0  0
    0.3861   -0.9611   -1.3930 C   0  0  0  0  0  0  0  0  0  0  0  0
    1.7959    0.4470    0.1178 C   0  0  0  0  0  0  0  0  0  0  0  0
    4.1231    0.0269    0.2489 C   0  0  0  0  0  0  0  0  0  0  0  0
   -1.9560    0.5616   -0.0214 C   0  0  0  0  0  0  0  0  0  0  0  0
    5.1049   -1.1245    0.2038 C   0  0  0  0  0  0  0  0  0  0  0  0
   -2.5393   -0.5772    0.4108 C   0  0  0  0  0  0  0  0  0  0  0  0
  1  9  1  0
  1 10  1  0
  2  9  2  0
  3 11  1  0
  4  7  1  0
  4 11  1  0
  5  6  3  0
  5 13  1  0
  7  8  1  0
  7  9  1  0
 10 12  1  0
 11 13  2  0
M  CHG  2   3  -1   5   1
M  END
>  <PUBCHEM_COMPOUND_CID>  (1) 
13172

>  <PUBCHEM_CONFORMER_RMSD>  (1) 
0.6

>  <PUBCHEM_CONFORMER_DIVERSEORDER>  (1) 
2
73
112
72
141
118
19
170
126
165
18
130
116
92
10
174
35
98
162
114
144
32
50
55
70
122
198
56
160
13
40
132
4
6
43
164
190
67
46
204
199
77
91
146
21
87
105
20
86
28
108
143
173
79
136
38
137
8
197
140
57
37
177
1
183
96
36
158
148
117
106
202
110
149
154
172
157
109
82
41
44
24
7
189
12
23
81
113
16
66
69
123
155
84
64
178
194
89
11
15
150
135
3
156
95
182
163
75
203
179
127
161
145
120
63
9
147
129
61
34
90
166
22
195
25
186
134
192
104
97
5
33
45
188
138
47
48
78
171
103
26
39
196
159
184
107
152
60
42
99
17
180
187
128
54
205
176
185
52
201
85
151
131
101
83
27
191
124
168
94
142
71
93
125
100
14
51
76
193
175
65
200
53
153
62
206
133
74
111
181
121
139
49
59
80
31
115
102
167
30
88
68
169
58
29
119

>  <PUBCHEM_MMFF94_PARTIAL_CHARGES>  (1) 
13
1 -0.43
10 0.28
11 -0.05
13 -0.02
18 0.4
2 -0.57
24 0.15
3 -0.85
4 -0.87
5 1.36
6 -0.49
7 0.43
9 0.66

>  <PUBCHEM_EFFECTIVE_ROTOR_COUNT>  (1) 
5

>  <PUBCHEM_PHARMACOPHORE_FEATURES>  (1) 
3
1 2 acceptor
1 4 cation
1 4 donor

>  <PUBCHEM_HEAVY_ATOM_COUNT>  (1) 
13

>  <PUBCHEM_ATOM_DEF_STEREO_COUNT>  (1) 
0

>  <PUBCHEM_ATOM_UDEF_STEREO_COUNT>  (1) 
1

>  <PUBCHEM_BOND_DEF_STEREO_COUNT>  (1) 
0

>  <PUBCHEM_BOND_UDEF_STEREO_COUNT>  (1) 
1

>  <PUBCHEM_ISOTOPIC_ATOM_COUNT>  (1) 
0

>  <PUBCHEM_COMPONENT_COUNT>  (1) 
1

>  <PUBCHEM_CACTVS_TAUTO_COUNT>  (1) 
1

>  <PUBCHEM_CONFORMER_ID>  (1) 
0000337400000002

>  <PUBCHEM_MMFF94_ENERGY>  (1) 
19.2071

>  <PUBCHEM_FEATURE_SELFOVERLAP>  (1) 
15.223

>  <PUBCHEM_SHAPE_FINGERPRINT>  (1) 
11062470 55 9583519819596736714
12032990 46 18341615872091403798
12251169 10 18201439202779271255
12507560 40 18411129256083655640
13690532 89 18411699876911607338
14252887 29 17917436385103055710
14911166 2 12829209979138836426
14943859 89 12175905450286929567
14993402 34 15068342323718722146
177051 138 18333732429032578858
17834072 33 17894635885323159726
1986462 14 18260266309065306036
200 152 17989197149592587533
21119208 17 15502374551942591075
23402539 116 18410004443066873911
23557571 272 18114180792253322989
23559900 14 17895194471173284592
4047638 21 11240004459906844890
42 15 18410857655099231634
449060 50 17632286905151736000

>  <PUBCHEM_SHAPE_MULTIPOLES>  (1) 
234.98
9.43
1.31
0.8
0.65
0.33
-0.22
-3.52
2.03
-0.07
-0.1
-0.03
-0.16
0.35

>  <PUBCHEM_SHAPE_SELFOVERLAP>  (1) 
450.644

>  <PUBCHEM_SHAPE_VOLUME>  (1) 
142.7

>  <PUBCHEM_COORDINATE_TYPE>  (1) 
2
5
10

$$$$
