13181
     RDKit          3D

  6  5  0  0  0  0  0  0  0  0999 V2000
   -2.9720   -0.4348   -0.0455 O   0  0  0  0  0  0  0  0  0  0  0  0
   -0.5904   -0.2827    0.1573 C   0  0  0  0  0  0  0  0  0  0  0  0
    0.6299    0.6303    0.0527 C   0  0  0  0  0  0  0  0  0  0  0  0
   -1.8767    0.4610   -0.1751 C   0  0  0  0  0  0  0  0  0  0  0  0
    1.8885   -0.0977    0.4212 C   0  0  0  0  0  0  0  0  0  0  0  0
    2.9208   -0.2761   -0.4107 C   0  0  0  0  0  0  0  0  0  0  0  0
  1  4  1  0
  2  3  1  0
  2  4  1  0
  3  5  1  0
  5  6  2  0
M  END
>  <PUBCHEM_COMPOUND_CID>  (1) 
13181

>  <PUBCHEM_CONFORMER_RMSD>  (1) 
0.4

>  <PUBCHEM_CONFORMER_DIVERSEORDER>  (1) 
1
24
22
13
2
23
21
14
10
18
15
11
17
20
19
16
5
9
12
6
8
4
3
7

>  <PUBCHEM_MMFF94_PARTIAL_CHARGES>  (1) 
9
1 -0.68
13 0.15
14 0.4
15 0.15
16 0.15
3 0.14
4 0.28
5 -0.29
6 -0.3

>  <PUBCHEM_EFFECTIVE_ROTOR_COUNT>  (1) 
3

>  <PUBCHEM_PHARMACOPHORE_FEATURES>  (1) 
3
1 1 acceptor
1 1 donor
1 6 hydrophobe

>  <PUBCHEM_HEAVY_ATOM_COUNT>  (1) 
6

>  <PUBCHEM_ATOM_DEF_STEREO_COUNT>  (1) 
0

>  <PUBCHEM_ATOM_UDEF_STEREO_COUNT>  (1) 
0

>  <PUBCHEM_BOND_DEF_STEREO_COUNT>  (1) 
0

>  <PUBCHEM_BOND_UDEF_STEREO_COUNT>  (1) 
0

>  <PUBCHEM_ISOTOPIC_ATOM_COUNT>  (1) 
0

>  <PUBCHEM_COMPONENT_COUNT>  (1) 
1

>  <PUBCHEM_CACTVS_TAUTO_COUNT>  (1) 
1

>  <PUBCHEM_CONFORMER_ID>  (1) 
0000337D00000001

>  <PUBCHEM_MMFF94_ENERGY>  (1) 
1.1369

>  <PUBCHEM_FEATURE_SELFOVERLAP>  (1) 
15.223

>  <PUBCHEM_SHAPE_FINGERPRINT>  (1) 
14390081 3 11746932092406058879
16714656 1 18113054926225839005
29004967 10 17561081401901115218
5460574 1 10735877274538113472

>  <PUBCHEM_SHAPE_MULTIPOLES>  (1) 
117.61
4.55
0.76
0.67
0.47
0.05
0
-0.7
0.51
0.06
0
-0.17
0
0.06

>  <PUBCHEM_SHAPE_SELFOVERLAP>  (1) 
202.943

>  <PUBCHEM_SHAPE_VOLUME>  (1) 
78.4

>  <PUBCHEM_COORDINATE_TYPE>  (1) 
2
5
10

$$$$
