13199
     RDKit          3D

  7  7  0  0  0  0  0  0  0  0999 V2000
   -2.7775   -0.0002    0.1321 P   0  0  0  0  0  0  0  0  0  0  0  0
   -0.9801   -0.0001   -0.3559 C   0  0  0  0  0  0  0  0  0  0  0  0
   -0.2796    1.2650    0.1562 C   0  0  0  0  0  0  0  0  0  0  0  0
   -0.2793   -1.2649    0.1562 C   0  0  0  0  0  0  0  0  0  0  0  0
    1.2069    1.2617   -0.1970 C   0  0  0  0  0  0  0  0  0  0  0  0
    1.2073   -1.2616   -0.1969 C   0  0  0  0  0  0  0  0  0  0  0  0
    1.9023    0.0001    0.3053 C   0  0  0  0  0  0  0  0  0  0  0  0
  1  2  1  0
  2  3  1  0
  2  4  1  0
  3  5  1  0
  4  6  1  0
  5  7  1  0
  6  7  1  0
M  END
>  <PUBCHEM_COMPOUND_CID>  (1) 
13199

>  <PUBCHEM_CONFORMER_RMSD>  (1) 
0.4

>  <PUBCHEM_CONFORMER_DIVERSEORDER>  (1) 
1
2
3
4

>  <PUBCHEM_MMFF94_PARTIAL_CHARGES>  (1) 
4
1 -0.36
19 0.1
2 0.17
20 0.1

>  <PUBCHEM_EFFECTIVE_ROTOR_COUNT>  (1) 
1.2

>  <PUBCHEM_PHARMACOPHORE_FEATURES>  (1) 
1
6 2 3 4 5 6 7 rings

>  <PUBCHEM_HEAVY_ATOM_COUNT>  (1) 
7

>  <PUBCHEM_ATOM_DEF_STEREO_COUNT>  (1) 
0

>  <PUBCHEM_ATOM_UDEF_STEREO_COUNT>  (1) 
0

>  <PUBCHEM_BOND_DEF_STEREO_COUNT>  (1) 
0

>  <PUBCHEM_BOND_UDEF_STEREO_COUNT>  (1) 
0

>  <PUBCHEM_ISOTOPIC_ATOM_COUNT>  (1) 
0

>  <PUBCHEM_COMPONENT_COUNT>  (1) 
1

>  <PUBCHEM_CACTVS_TAUTO_COUNT>  (1) 
1

>  <PUBCHEM_CONFORMER_ID>  (1) 
0000338F00000001

>  <PUBCHEM_MMFF94_ENERGY>  (1) 
3.2194

>  <PUBCHEM_FEATURE_SELFOVERLAP>  (1) 
5.074

>  <PUBCHEM_SHAPE_FINGERPRINT>  (1) 
18185500 45 18342170064036841871
20096714 4 18339078314611997790
21040471 1 18194964273313586892
23235685 24 18410852204738325124
23552423 10 18045510715803808726
241688 4 17905894677853308584
29004967 10 18335422344097486297

>  <PUBCHEM_SHAPE_MULTIPOLES>  (1) 
147.91
2.96
1.52
0.68
1.82
0
0
0
-0.18
-0.44
0.02
0.02
0
0

>  <PUBCHEM_SHAPE_SELFOVERLAP>  (1) 
269.337

>  <PUBCHEM_SHAPE_VOLUME>  (1) 
94.7

>  <PUBCHEM_COORDINATE_TYPE>  (1) 
2
5
10

$$$$
