13193
     RDKit          3D

 14 13  0  0  0  0  0  0  0  0999 V2000
   -7.3455   -1.4189   -0.5045 Cl  0  0  0  0  0  0  0  0  0  0  0  0
    0.5733   -0.2864    0.1966 C   0  0  0  0  0  0  0  0  0  0  0  0
   -0.6722    0.5393   -0.1335 C   0  0  0  0  0  0  0  0  0  0  0  0
    1.8517    0.4564   -0.1989 C   0  0  0  0  0  0  0  0  0  0  0  0
   -1.9824   -0.1655    0.2320 C   0  0  0  0  0  0  0  0  0  0  0  0
    3.0989   -0.3509    0.1651 C   0  0  0  0  0  0  0  0  0  0  0  0
   -3.2280    0.6509   -0.1230 C   0  0  0  0  0  0  0  0  0  0  0  0
    4.3769    0.3759   -0.2599 C   0  0  0  0  0  0  0  0  0  0  0  0
   -4.5384   -0.0610    0.2317 C   0  0  0  0  0  0  0  0  0  0  0  0
    5.6232   -0.4192    0.1357 C   0  0  0  0  0  0  0  0  0  0  0  0
   -5.7819    0.7893   -0.0478 C   0  0  0  0  0  0  0  0  0  0  0  0
    6.9324    0.2786   -0.2390 C   0  0  0  0  0  0  0  0  0  0  0  0
   -7.0819    0.1074    0.3697 C   0  0  0  0  0  0  0  0  0  0  0  0
    8.1739   -0.4958    0.1756 C   0  0  0  0  0  0  0  0  0  0  0  0
  1 13  1  0
  2  3  1  0
  2  4  1  0
  3  5  1  0
  4  6  1  0
  5  7  1  0
  6  8  1  0
  7  9  1  0
  8 10  1  0
  9 11  1  0
 10 12  1  0
 11 13  1  0
 12 14  1  0
M  END
>  <PUBCHEM_COMPOUND_CID>  (1) 
13193

>  <PUBCHEM_CONFORMER_RMSD>  (1) 
1.2

>  <PUBCHEM_CONFORMER_DIVERSEORDER>  (1) 
1
64
29
25
54
3
51
9
12
48
58
31
18
57
24
52
36
30
56
14
46
11
21
22
33
53
19
40
4
41
23
39
44
7
42
50
63
17
62
37
2
16
55
6
27
10
35
32
15
34
13
60
8
45
20
28
67
43
66
65
59
61
26
38
5
49
47

>  <PUBCHEM_MMFF94_PARTIAL_CHARGES>  (1) 
2
1 -0.29
13 0.29

>  <PUBCHEM_EFFECTIVE_ROTOR_COUNT>  (1) 
11

>  <PUBCHEM_PHARMACOPHORE_FEATURES>  (1) 
1
1 14 hydrophobe

>  <PUBCHEM_HEAVY_ATOM_COUNT>  (1) 
14

>  <PUBCHEM_ATOM_DEF_STEREO_COUNT>  (1) 
0

>  <PUBCHEM_ATOM_UDEF_STEREO_COUNT>  (1) 
0

>  <PUBCHEM_BOND_DEF_STEREO_COUNT>  (1) 
0

>  <PUBCHEM_BOND_UDEF_STEREO_COUNT>  (1) 
0

>  <PUBCHEM_ISOTOPIC_ATOM_COUNT>  (1) 
0

>  <PUBCHEM_COMPONENT_COUNT>  (1) 
1

>  <PUBCHEM_CACTVS_TAUTO_COUNT>  (1) 
1

>  <PUBCHEM_CONFORMER_ID>  (1) 
0000338900000001

>  <PUBCHEM_MMFF94_ENERGY>  (1) 
-3.5669

>  <PUBCHEM_FEATURE_SELFOVERLAP>  (1) 
5.074

>  <PUBCHEM_SHAPE_FINGERPRINT>  (1) 
10968037 39 18260267447874983675
11315181 36 18272373079703237593
12091667 2 18040718061479073489
13533116 47 17458616775527394080
13964095 4 12324239469042495915
14123256 10 18410575080368111626
14251764 18 18113616781147378730
14251764 46 18410575084663078915
17834076 25 18410293605444245944
18006028 8 17894912927371745324
20621476 8 12179840598281787456
21150785 3 18333731325120534155
21315763 28 18410292506318006348
22224240 67 18411416224513285994
23035841 295 18341894099809178987
23402539 116 18408882937296722957
23521765 1 18341895186050718048
28498 318 13406787814535455808
33532 11 18340205198752764142
33684 2 18410573976561516555
42788 4 18334295362138654629
59682541 35 17561078137942462706
8209 1 18040154011402010188

>  <PUBCHEM_SHAPE_MULTIPOLES>  (1) 
289.98
25.94
0.95
0.68
7.84
0.16
0.01
5.08
0.4
-1.16
0.08
-0.16
0.02
-0.52

>  <PUBCHEM_SHAPE_SELFOVERLAP>  (1) 
505.986

>  <PUBCHEM_SHAPE_VOLUME>  (1) 
190.3

>  <PUBCHEM_COORDINATE_TYPE>  (1) 
2
5
10

$$$$
