13192
     RDKit          3D

 12 11  0  0  0  0  0  0  0  0999 V2000
    5.8902   -0.4591   -0.2608 O   0  0  0  0  0  0  0  0  0  0  0  0
   -5.8892    0.4941    0.1403 O   0  0  0  0  0  0  0  0  0  0  0  0
    3.6433   -0.1566    0.3587 N   0  0  0  0  0  0  0  0  0  0  0  0
   -3.6270    0.1396   -0.3897 N   0  0  0  0  0  0  0  0  0  0  0  0
    0.7253   -0.0812   -0.1798 C   0  0  0  0  0  0  0  0  0  0  0  0
   -0.7347    0.0736    0.2528 C   0  0  0  0  0  0  0  0  0  0  0  0
    1.5624    1.1279    0.2478 C   0  0  0  0  0  0  0  0  0  0  0  0
   -1.5626   -1.1535   -0.1397 C   0  0  0  0  0  0  0  0  0  0  0  0
    3.0104    1.0299   -0.2199 C   0  0  0  0  0  0  0  0  0  0  0  0
   -3.0269   -1.0237    0.2657 C   0  0  0  0  0  0  0  0  0  0  0  0
    4.7656   -0.3063    0.0482 C   0  0  0  0  0  0  0  0  0  0  0  0
   -4.7569    0.3153   -0.1239 C   0  0  0  0  0  0  0  0  0  0  0  0
  1 11  2  0
  2 12  2  0
  3  9  1  0
  3 11  2  0
  4 10  1  0
  4 12  2  0
  5  6  1  0
  5  7  1  0
  6  8  1  0
  7  9  1  0
  8 10  1  0
M  END
>  <PUBCHEM_COMPOUND_CID>  (1) 
13192

>  <PUBCHEM_CONFORMER_RMSD>  (1) 
0.8

>  <PUBCHEM_CONFORMER_DIVERSEORDER>  (1) 
1
118
77
100
2
127
16
67
20
124
119
53
102
11
54
28
123
10
39
47
55
113
35
112
23
27
98
128
83
19
108
9
50
57
97
31
14
12
126
5
69
78
38
109
59
104
64
7
18
58
116
13
110
4
132
46
29
41
106
91
51
95
114
6
15
33
24
36
61
129
45
49
3
84
117
73
107
89
65
131
80
25
96
85
52
63
8
81
120
94
26
111
30
71
74
103
62
101
92
134
44
121
76
115
88
66
17
21
70
42
99
133
48
122
82
43
75
90
68
86
22
105
135
60
93
34
72
87
79
56
130
32
37
40
125

>  <PUBCHEM_MMFF94_PARTIAL_CHARGES>  (1) 
8
1 -0.49
10 0.25
11 0.79
12 0.79
2 -0.49
3 -0.55
4 -0.55
9 0.25

>  <PUBCHEM_EFFECTIVE_ROTOR_COUNT>  (1) 
7

>  <PUBCHEM_PHARMACOPHORE_FEATURES>  (1) 
3
1 3 acceptor
1 4 acceptor
4 5 6 7 8 hydrophobe

>  <PUBCHEM_HEAVY_ATOM_COUNT>  (1) 
12

>  <PUBCHEM_ATOM_DEF_STEREO_COUNT>  (1) 
0

>  <PUBCHEM_ATOM_UDEF_STEREO_COUNT>  (1) 
0

>  <PUBCHEM_BOND_DEF_STEREO_COUNT>  (1) 
0

>  <PUBCHEM_BOND_UDEF_STEREO_COUNT>  (1) 
0

>  <PUBCHEM_ISOTOPIC_ATOM_COUNT>  (1) 
0

>  <PUBCHEM_COMPONENT_COUNT>  (1) 
1

>  <PUBCHEM_CACTVS_TAUTO_COUNT>  (1) 
1

>  <PUBCHEM_CONFORMER_ID>  (1) 
0000338800000001

>  <PUBCHEM_MMFF94_ENERGY>  (1) 
4.1329

>  <PUBCHEM_FEATURE_SELFOVERLAP>  (1) 
15.223

>  <PUBCHEM_SHAPE_FINGERPRINT>  (1) 
11401426 45 16630525141817511573
114248 4 8574713502907522574
124424 183 18273497900760743057
12815109 37 18273214201339119522
14123238 8 8862943878943150696
1420 363 9655577434888188860
14251718 22 9223228546556166877
14251731 8 18334574641986020622
15242439 84 18409448102450858090
15531645 54 18413108346589704469
17834072 8 18409448085265720686
17834076 25 18131913754124028439
18186145 218 17168695452996565516
19489759 90 16056883515853038443
20279233 1 15697725890660789790
20621476 66 18410296895727266001
20645477 70 18413390956049912542
20724930 37 16415479363570230664
20724930 69 18412826876572560425
20767249 13 14692852497263122565
212847 35 18410857689306339940
22485316 2 18341046415225677250
23218964 4 18408039597980356349
23402539 116 17703784825911388381
23590187 130 18040715848721635773
42788 4 18410855468723384133
449060 50 8358261445114583936
474229 33 9367343738811452137

>  <PUBCHEM_SHAPE_MULTIPOLES>  (1) 
225.25
13.3
1.07
0.64
0.08
0
0
-0.08
0.43
-0.02
-0.01
0.01
0
0.06

>  <PUBCHEM_SHAPE_SELFOVERLAP>  (1) 
423.205

>  <PUBCHEM_SHAPE_VOLUME>  (1) 
137.6

>  <PUBCHEM_COORDINATE_TYPE>  (1) 
2
5
10

$$$$
