13201
     RDKit          3D

  8  8  0  0  0  0  0  0  0  0999 V2000
    0.7464    1.1649    0.2708 O   0  0  0  0  0  0  0  0  0  0  0  0
    0.7706   -1.1765    0.0948 O   0  0  0  0  0  0  0  0  0  0  0  0
   -1.2869    0.0026   -0.3239 C   0  0  0  0  0  0  0  0  0  0  0  0
   -0.0057   -0.0369    0.4866 C   0  0  0  0  0  0  0  0  0  0  0  0
    1.9030    0.7438   -0.4519 C   0  0  0  0  0  0  0  0  0  0  0  0
    2.1030   -0.6761    0.0022 C   0  0  0  0  0  0  0  0  0  0  0  0
   -2.1155   -1.2648   -0.0997 C   0  0  0  0  0  0  0  0  0  0  0  0
   -2.1149    1.2431    0.0212 C   0  0  0  0  0  0  0  0  0  0  0  0
  1  4  1  0
  1  5  1  0
  2  4  1  0
  2  6  1  0
  3  4  1  0
  3  7  1  0
  3  8  1  0
  5  6  1  0
M  END
>  <PUBCHEM_COMPOUND_CID>  (1) 
13201

>  <PUBCHEM_CONFORMER_RMSD>  (1) 
0.4

>  <PUBCHEM_CONFORMER_DIVERSEORDER>  (1) 
1
2
3

>  <PUBCHEM_MMFF94_PARTIAL_CHARGES>  (1) 
5
1 -0.56
2 -0.56
4 0.56
5 0.28
6 0.28

>  <PUBCHEM_EFFECTIVE_ROTOR_COUNT>  (1) 
2

>  <PUBCHEM_PHARMACOPHORE_FEATURES>  (1) 
4
1 1 acceptor
1 2 acceptor
3 3 7 8 hydrophobe
5 1 2 4 5 6 rings

>  <PUBCHEM_HEAVY_ATOM_COUNT>  (1) 
8

>  <PUBCHEM_ATOM_DEF_STEREO_COUNT>  (1) 
0

>  <PUBCHEM_ATOM_UDEF_STEREO_COUNT>  (1) 
0

>  <PUBCHEM_BOND_DEF_STEREO_COUNT>  (1) 
0

>  <PUBCHEM_BOND_UDEF_STEREO_COUNT>  (1) 
0

>  <PUBCHEM_ISOTOPIC_ATOM_COUNT>  (1) 
0

>  <PUBCHEM_COMPONENT_COUNT>  (1) 
1

>  <PUBCHEM_CACTVS_TAUTO_COUNT>  (1) 
1

>  <PUBCHEM_CONFORMER_ID>  (1) 
0000339100000001

>  <PUBCHEM_MMFF94_ENERGY>  (1) 
14.4064

>  <PUBCHEM_FEATURE_SELFOVERLAP>  (1) 
20.338

>  <PUBCHEM_SHAPE_FINGERPRINT>  (1) 
12897270 3 18265330784234825263
18185500 45 18338795594100104562
20096714 4 18408323259127173089
21040471 1 18267862787672781321
23552423 10 18333452032071807270
24536 1 18337090333317417661
29004967 10 16200439086780339142
5084963 1 17676478501415793014

>  <PUBCHEM_SHAPE_MULTIPOLES>  (1) 
152.9
3.21
1.42
0.68
0.17
0
-0.01
0.05
-0.29
0.39
0
-0.02
-0.02
-0.12

>  <PUBCHEM_SHAPE_SELFOVERLAP>  (1) 
293.96

>  <PUBCHEM_SHAPE_VOLUME>  (1) 
94.9

>  <PUBCHEM_COORDINATE_TYPE>  (1) 
2
5
10

$$$$
