13203
     RDKit          3D

  8  8  0  0  1  0  0  0  0  0999 V2000
    2.3874    1.0216    0.0969 Cl  0  0  0  0  0  0  0  0  0  0  0  0
    1.3204   -1.6641    0.2704 O   0  0  0  0  0  0  0  0  0  0  0  0
   -1.7051    1.0855   -0.1015 C   0  0  0  0  0  0  0  0  0  0  0  0
   -0.2750    1.5107    0.2291 C   0  0  0  0  0  0  0  0  0  0  0  0
   -1.9577   -0.3572    0.3300 C   0  0  0  0  0  0  0  0  0  0  0  0
    0.7449    0.5872   -0.4294 C   0  0  0  0  0  0  0  0  0  0  0  0
   -0.9703   -1.3204   -0.3141 C   0  0  0  0  0  0  0  0  0  0  0  0
    0.4554   -0.8633   -0.0814 C   0  0  0  0  0  0  0  0  0  0  0  0
  1  6  1  0
  2  8  2  0
  3  4  1  0
  3  5  1  0
  4  6  1  0
  5  7  1  0
  6  8  1  0
  7  8  1  0
M  END
>  <PUBCHEM_COMPOUND_CID>  (1) 
13203

>  <PUBCHEM_CONFORMER_RMSD>  (1) 
0.4

>  <PUBCHEM_CONFORMER_DIVERSEORDER>  (1) 
1
2
4
3

>  <PUBCHEM_MMFF94_PARTIAL_CHARGES>  (1) 
5
1 -0.29
2 -0.57
6 0.35
7 0.06
8 0.45

>  <PUBCHEM_EFFECTIVE_ROTOR_COUNT>  (1) 
1

>  <PUBCHEM_PHARMACOPHORE_FEATURES>  (1) 
2
1 2 acceptor
6 3 4 5 6 7 8 rings

>  <PUBCHEM_HEAVY_ATOM_COUNT>  (1) 
8

>  <PUBCHEM_ATOM_DEF_STEREO_COUNT>  (1) 
0

>  <PUBCHEM_ATOM_UDEF_STEREO_COUNT>  (1) 
1

>  <PUBCHEM_BOND_DEF_STEREO_COUNT>  (1) 
0

>  <PUBCHEM_BOND_UDEF_STEREO_COUNT>  (1) 
0

>  <PUBCHEM_ISOTOPIC_ATOM_COUNT>  (1) 
0

>  <PUBCHEM_COMPONENT_COUNT>  (1) 
1

>  <PUBCHEM_CACTVS_TAUTO_COUNT>  (1) 
3

>  <PUBCHEM_CONFORMER_ID>  (1) 
0000339300000001

>  <PUBCHEM_MMFF94_ENERGY>  (1) 
5.1255

>  <PUBCHEM_FEATURE_SELFOVERLAP>  (1) 
10.148

>  <PUBCHEM_SHAPE_FINGERPRINT>  (1) 
16714656 1 18194969762361035940
18185500 45 18339642355597947095
21040471 1 18411141333167422253
23552423 10 18334018297977221662
2748010 2 18338239254275418741
29004967 10 18113910389348645793
5084963 1 17985833871786794048

>  <PUBCHEM_SHAPE_MULTIPOLES>  (1) 
160.64
2.67
1.81
0.68
0.77
0.25
0.01
-0.47
-0.17
0.01
-0.07
-0.01
-0.01
-0.06

>  <PUBCHEM_SHAPE_SELFOVERLAP>  (1) 
305.793

>  <PUBCHEM_SHAPE_VOLUME>  (1) 
99.8

>  <PUBCHEM_COORDINATE_TYPE>  (1) 
2
5
10

$$$$
