13208
     RDKit          3D

  9  9  0  0  0  0  0  0  0  0999 V2000
    0.4782   -1.3003    0.0001 N   0  0  0  0  0  0  0  0  0  0  0  0
    0.8869    1.0643    0.0001 N   0  0  0  0  0  0  0  0  0  0  0  0
   -1.3651    0.2359    0.0002 N   0  0  0  0  0  0  0  0  0  0  0  0
    1.2768   -0.2206    0.0001 C   0  0  0  0  0  0  0  0  0  0  0  0
   -0.8295   -0.9954    0.0001 C   0  0  0  0  0  0  0  0  0  0  0  0
   -0.4473    1.2160    0.0001 C   0  0  0  0  0  0  0  0  0  0  0  0
    2.7459   -0.4745   -0.0002 C   0  0  0  0  0  0  0  0  0  0  0  0
   -1.7839   -2.1406   -0.0003 C   0  0  0  0  0  0  0  0  0  0  0  0
   -0.9620    2.6152   -0.0002 C   0  0  0  0  0  0  0  0  0  0  0  0
  1  4  2  0
  1  5  1  0
  2  4  1  0
  2  6  2  0
  3  5  2  0
  3  6  1  0
  4  7  1  0
  5  8  1  0
  6  9  1  0
M  END
>  <PUBCHEM_COMPOUND_CID>  (1) 
13208

>  <PUBCHEM_CONFORMER_RMSD>  (1) 
0.4

>  <PUBCHEM_CONFORMER_DIVERSEORDER>  (1) 
1

>  <PUBCHEM_MMFF94_PARTIAL_CHARGES>  (1) 
9
1 -0.62
2 -0.62
3 -0.62
4 0.48
5 0.48
6 0.48
7 0.14
8 0.14
9 0.14

>  <PUBCHEM_EFFECTIVE_ROTOR_COUNT>  (1) 
0

>  <PUBCHEM_PHARMACOPHORE_FEATURES>  (1) 
4
3 1 2 4 cation
3 1 3 5 cation
3 2 3 6 cation
6 1 2 3 4 5 6 rings

>  <PUBCHEM_HEAVY_ATOM_COUNT>  (1) 
9

>  <PUBCHEM_ATOM_DEF_STEREO_COUNT>  (1) 
0

>  <PUBCHEM_ATOM_UDEF_STEREO_COUNT>  (1) 
0

>  <PUBCHEM_BOND_DEF_STEREO_COUNT>  (1) 
0

>  <PUBCHEM_BOND_UDEF_STEREO_COUNT>  (1) 
0

>  <PUBCHEM_ISOTOPIC_ATOM_COUNT>  (1) 
0

>  <PUBCHEM_COMPONENT_COUNT>  (1) 
1

>  <PUBCHEM_CACTVS_TAUTO_COUNT>  (1) 
1

>  <PUBCHEM_CONFORMER_ID>  (1) 
0000339800000001

>  <PUBCHEM_MMFF94_ENERGY>  (1) 
16.9897

>  <PUBCHEM_FEATURE_SELFOVERLAP>  (1) 
23.07

>  <PUBCHEM_SHAPE_FINGERPRINT>  (1) 
16945 1 18410575041855856742
18185500 45 18122911090175462422
21040471 1 18050567339857402784
23552423 10 18259988206017795742
23552449 1 18411415133211485806
241688 4 18338517555049660835
2748010 2 18267861872702173132
29004967 10 17904199582952658955

>  <PUBCHEM_SHAPE_MULTIPOLES>  (1) 
170.27
2.56
2.56
0.59
1.59
1.18
0
-1.18
0
-1.59
0
0
0
0

>  <PUBCHEM_SHAPE_SELFOVERLAP>  (1) 
343.764

>  <PUBCHEM_SHAPE_VOLUME>  (1) 
97.9

>  <PUBCHEM_COORDINATE_TYPE>  (1) 
2
5
10

$$$$
