13202
     RDKit          3D

  8  8  0  0  1  0  0  0  0  0999 V2000
   -2.0307   -1.1318    0.7596 Cl  0  0  0  0  0  0  0  0  0  0  0  0
    2.0316   -1.1305   -0.7594 Cl  0  0  0  0  0  0  0  0  0  0  0  0
   -0.6630   -0.9040   -0.3866 C   0  0  0  0  0  0  0  0  0  0  0  0
    0.6639   -0.9033    0.3867 C   0  0  0  0  0  0  0  0  0  0  0  0
   -0.8767    0.3840   -1.1917 C   0  0  0  0  0  0  0  0  0  0  0  0
    0.8764    0.3849    1.1916 C   0  0  0  0  0  0  0  0  0  0  0  0
   -0.6739    1.6500   -0.3589 C   0  0  0  0  0  0  0  0  0  0  0  0
    0.6724    1.6507    0.3588 C   0  0  0  0  0  0  0  0  0  0  0  0
  1  3  1  0
  2  4  1  0
  3  4  1  0
  3  5  1  0
  4  6  1  0
  5  7  1  0
  6  8  1  0
  7  8  1  0
M  END
>  <PUBCHEM_COMPOUND_CID>  (1) 
13202

>  <PUBCHEM_CONFORMER_RMSD>  (1) 
0.4

>  <PUBCHEM_CONFORMER_DIVERSEORDER>  (1) 
1
5
2
6
3
4

>  <PUBCHEM_MMFF94_PARTIAL_CHARGES>  (1) 
4
1 -0.29
2 -0.29
3 0.29
4 0.29

>  <PUBCHEM_EFFECTIVE_ROTOR_COUNT>  (1) 
1.2

>  <PUBCHEM_PHARMACOPHORE_FEATURES>  (1) 
1
6 3 4 5 6 7 8 rings

>  <PUBCHEM_HEAVY_ATOM_COUNT>  (1) 
8

>  <PUBCHEM_ATOM_DEF_STEREO_COUNT>  (1) 
0

>  <PUBCHEM_ATOM_UDEF_STEREO_COUNT>  (1) 
2

>  <PUBCHEM_BOND_DEF_STEREO_COUNT>  (1) 
0

>  <PUBCHEM_BOND_UDEF_STEREO_COUNT>  (1) 
0

>  <PUBCHEM_ISOTOPIC_ATOM_COUNT>  (1) 
0

>  <PUBCHEM_COMPONENT_COUNT>  (1) 
1

>  <PUBCHEM_CACTVS_TAUTO_COUNT>  (1) 
1

>  <PUBCHEM_CONFORMER_ID>  (1) 
0000339200000001

>  <PUBCHEM_MMFF94_ENERGY>  (1) 
5.663

>  <PUBCHEM_FEATURE_SELFOVERLAP>  (1) 
5.074

>  <PUBCHEM_SHAPE_FINGERPRINT>  (1) 
12423570 1 16765853024105332334
13024252 1 14203977707478457510
137420 1 14730747302911275471
18185500 45 15025547797899161747
21040471 1 17545583574843348244
29004967 10 18343024406194400282
5084963 1 17183881005587599907
5943 1 15097594405252594854
68250623 7 18122377693860525249

>  <PUBCHEM_SHAPE_MULTIPOLES>  (1) 
168.38
2.13
1.87
1.19
0
0.61
0
-1.1
0
0
0
0
0.02
0.56

>  <PUBCHEM_SHAPE_SELFOVERLAP>  (1) 
306.302

>  <PUBCHEM_SHAPE_VOLUME>  (1) 
106.8

>  <PUBCHEM_COORDINATE_TYPE>  (1) 
2
5
10

$$$$
