13216
     RDKit          3D

 11 12  0  0  1  0  0  0  0  0999 V2000
    3.4924    0.7600    0.1679 O   0  0  0  0  0  0  0  0  0  0  0  0
   -0.2500    0.6365   -0.2956 C   0  0  0  0  0  0  0  0  0  0  0  0
   -0.4479   -0.7876    0.2622 C   0  0  0  0  0  0  0  0  0  0  0  0
    1.1182    1.1933    0.1139 C   0  0  0  0  0  0  0  0  0  0  0  0
    0.6861   -1.7144   -0.1960 C   0  0  0  0  0  0  0  0  0  0  0  0
   -1.3840    1.5620    0.1637 C   0  0  0  0  0  0  0  0  0  0  0  0
   -1.8172   -1.3457   -0.1471 C   0  0  0  0  0  0  0  0  0  0  0  0
    2.2521    0.2668   -0.3270 C   0  0  0  0  0  0  0  0  0  0  0  0
    2.0512   -1.1545    0.1932 C   0  0  0  0  0  0  0  0  0  0  0  0
   -2.7510    1.0028   -0.2257 C   0  0  0  0  0  0  0  0  0  0  0  0
   -2.9498   -0.4192    0.2906 C   0  0  0  0  0  0  0  0  0  0  0  0
  1  8  1  0
  2  3  1  0
  2  4  1  0
  2  6  1  0
  3  5  1  0
  3  7  1  0
  4  8  1  0
  5  9  1  0
  6 10  1  0
  7 11  1  0
  8  9  1  0
 10 11  1  0
M  END
>  <PUBCHEM_COMPOUND_CID>  (1) 
13216

>  <PUBCHEM_CONFORMER_RMSD>  (1) 
0.4

>  <PUBCHEM_CONFORMER_DIVERSEORDER>  (1) 
1
10
9
14
6
12
2
13
4
11
8
7
3
5

>  <PUBCHEM_MMFF94_PARTIAL_CHARGES>  (1) 
3
1 -0.68
29 0.4
8 0.28

>  <PUBCHEM_EFFECTIVE_ROTOR_COUNT>  (1) 
1.6

>  <PUBCHEM_PHARMACOPHORE_FEATURES>  (1) 
4
1 1 acceptor
1 1 donor
6 2 3 4 5 8 9 rings
6 2 3 6 7 10 11 rings

>  <PUBCHEM_HEAVY_ATOM_COUNT>  (1) 
11

>  <PUBCHEM_ATOM_DEF_STEREO_COUNT>  (1) 
0

>  <PUBCHEM_ATOM_UDEF_STEREO_COUNT>  (1) 
3

>  <PUBCHEM_BOND_DEF_STEREO_COUNT>  (1) 
0

>  <PUBCHEM_BOND_UDEF_STEREO_COUNT>  (1) 
0

>  <PUBCHEM_ISOTOPIC_ATOM_COUNT>  (1) 
0

>  <PUBCHEM_COMPONENT_COUNT>  (1) 
1

>  <PUBCHEM_CACTVS_TAUTO_COUNT>  (1) 
1

>  <PUBCHEM_CONFORMER_ID>  (1) 
000033A000000001

>  <PUBCHEM_MMFF94_ENERGY>  (1) 
12.0852

>  <PUBCHEM_FEATURE_SELFOVERLAP>  (1) 
20.314

>  <PUBCHEM_SHAPE_FINGERPRINT>  (1) 
11132069 177 18411414025168023784
12524768 44 18266746774849297399
12897270 3 18411700980338264373
12932764 1 17489579069635322539
13380535 76 18410007728089367467
14325111 11 18410012113266684028
15775835 57 18413112757579211225
16945 1 18410294735083883375
17844478 74 18114195133180441145
193761 8 17834114143491922676
19973954 147 18267307538579806471
20201158 50 18410291410858375983
20871998 184 18200881797913719311
21040471 1 18410294674885749982
21501502 16 18338233760875135939
23235685 24 18409724071295494812
23402655 69 18268696252595623109
23463225 33 18334290938301084914
23552423 10 18260552212116349503
23559900 14 18272094916352157300
2748010 2 18337956662412012847
369184 2 18410292493221692147
5084963 1 18130230470367222507
528886 8 18411695508576432979
53812653 166 18343016709528564504
63268167 104 18411140195111670401
6333449 129 18341327868221116749
66348 1 18410575127739358921
7364860 26 18198060283673445478

>  <PUBCHEM_SHAPE_MULTIPOLES>  (1) 
220.51
4.47
1.79
0.66
0.65
0.19
0.01
-0.66
-0.14
-0.11
0.01
-0.03
0.01
0.05

>  <PUBCHEM_SHAPE_SELFOVERLAP>  (1) 
444.182

>  <PUBCHEM_SHAPE_VOLUME>  (1) 
127.4

>  <PUBCHEM_COORDINATE_TYPE>  (1) 
2
5
10

$$$$
