13211
     RDKit          3D

 10 11  0  0  0  0  0  0  0  0999 V2000
   -1.3423   -1.4404    0.1342 C   0  0  0  0  0  0  0  0  0  0  0  0
   -2.5087   -0.5278   -0.2739 C   0  0  0  0  0  0  0  0  0  0  0  0
   -2.1208    0.8991    0.1421 C   0  0  0  0  0  0  0  0  0  0  0  0
   -0.1873   -0.4942    0.0390 C   0  0  0  0  0  0  0  0  0  0  0  0
   -0.6294    0.8340    0.0437 C   0  0  0  0  0  0  0  0  0  0  0  0
    1.1629   -0.7976   -0.0022 C   0  0  0  0  0  0  0  0  0  0  0  0
    0.2698    1.8862    0.0070 C   0  0  0  0  0  0  0  0  0  0  0  0
    2.0768    0.2573   -0.0524 C   0  0  0  0  0  0  0  0  0  0  0  0
    1.6334    1.5896   -0.0476 C   0  0  0  0  0  0  0  0  0  0  0  0
    1.6457   -2.2062    0.0100 C   0  0  0  0  0  0  0  0  0  0  0  0
  1  2  1  0
  1  4  1  0
  2  3  1  0
  3  5  1  0
  4  5  2  0
  4  6  1  0
  5  7  1  0
  6  8  2  0
  6 10  1  0
  7  9  2  0
  8  9  1  0
M  END
>  <PUBCHEM_COMPOUND_CID>  (1) 
13211

>  <PUBCHEM_CONFORMER_RMSD>  (1) 
0.4

>  <PUBCHEM_CONFORMER_DIVERSEORDER>  (1) 
1

>  <PUBCHEM_MMFF94_PARTIAL_CHARGES>  (1) 
12
1 0.14
10 0.14
17 0.15
18 0.15
19 0.15
3 0.14
4 -0.14
5 -0.14
6 -0.14
7 -0.15
8 -0.15
9 -0.15

>  <PUBCHEM_EFFECTIVE_ROTOR_COUNT>  (1) 
0.6

>  <PUBCHEM_PHARMACOPHORE_FEATURES>  (1) 
2
5 1 2 3 4 5 rings
6 4 5 6 7 8 9 rings

>  <PUBCHEM_HEAVY_ATOM_COUNT>  (1) 
10

>  <PUBCHEM_ATOM_DEF_STEREO_COUNT>  (1) 
0

>  <PUBCHEM_ATOM_UDEF_STEREO_COUNT>  (1) 
0

>  <PUBCHEM_BOND_DEF_STEREO_COUNT>  (1) 
0

>  <PUBCHEM_BOND_UDEF_STEREO_COUNT>  (1) 
0

>  <PUBCHEM_ISOTOPIC_ATOM_COUNT>  (1) 
0

>  <PUBCHEM_COMPONENT_COUNT>  (1) 
1

>  <PUBCHEM_CACTVS_TAUTO_COUNT>  (1) 
1

>  <PUBCHEM_CONFORMER_ID>  (1) 
0000339B00000001

>  <PUBCHEM_MMFF94_ENERGY>  (1) 
24.887

>  <PUBCHEM_FEATURE_SELFOVERLAP>  (1) 
10.232

>  <PUBCHEM_SHAPE_FINGERPRINT>  (1) 
12423570 1 11746934299914000840
12524768 44 18269276768147555071
12897270 3 18338516477160575341
16945 1 18410575119138985265
18185500 45 18411700967395346598
193761 8 18266458694271018052
21040471 1 17762055845169243332
23552423 10 18408327687212049159
241688 4 18050004389724581800
2748010 2 18122059810461669421
29004967 10 18408326609217410481
5084963 1 17842287139828153280
528886 8 18267018542999374593
66348 1 18410857702106449534

>  <PUBCHEM_SHAPE_MULTIPOLES>  (1) 
205.8
3.03
2.19
0.63
0.86
0.25
0
0.31
-0.12
-0.83
0.03
0.02
0
-0.06

>  <PUBCHEM_SHAPE_SELFOVERLAP>  (1) 
441.526

>  <PUBCHEM_SHAPE_VOLUME>  (1) 
108.8

>  <PUBCHEM_COORDINATE_TYPE>  (1) 
2
5
10

$$$$
