13218
     RDKit          3D

 11 11  0  0  0  0  0  0  0  0999 V2000
    4.4121   -0.0004    0.0538 I   0  0  0  0  0  0  0  0  0  0  0  0
   -2.1990    0.0002   -0.1002 S   0  0  0  0  0  0  0  0  0  0  0  0
   -2.6456    1.2600   -0.6783 O   0  0  0  0  0  0  0  0  0  0  0  0
   -2.6493   -1.2595   -0.6759 O   0  0  0  0  0  0  0  0  0  0  0  0
   -2.5624    0.0004    1.5695 N   0  0  0  0  0  0  0  0  0  0  0  0
   -0.4537   -0.0001   -0.0610 C   0  0  0  0  0  0  0  0  0  0  0  0
    0.2433   -1.2081   -0.0452 C   0  0  0  0  0  0  0  0  0  0  0  0
    0.2435    1.2080   -0.0440 C   0  0  0  0  0  0  0  0  0  0  0  0
    1.6378   -1.2082   -0.0123 C   0  0  0  0  0  0  0  0  0  0  0  0
    1.6381    1.2079   -0.0112 C   0  0  0  0  0  0  0  0  0  0  0  0
    2.3353   -0.0002    0.0047 C   0  0  0  0  0  0  0  0  0  0  0  0
  1 11  1  0
  2  3  2  0
  2  4  2  0
  2  5  1  0
  2  6  1  0
  6  7  2  0
  6  8  1  0
  7  9  1  0
  8 10  2  0
  9 11  2  0
 10 11  1  0
M  END
>  <PUBCHEM_COMPOUND_CID>  (1) 
13218

>  <PUBCHEM_CONFORMER_RMSD>  (1) 
0.4

>  <PUBCHEM_CONFORMER_DIVERSEORDER>  (1) 
1

>  <PUBCHEM_MMFF94_PARTIAL_CHARGES>  (1) 
17
1 -0.08
10 -0.15
11 0.08
12 0.15
13 0.15
14 0.15
15 0.15
16 0.42
17 0.42
2 1.45
3 -0.65
4 -0.65
5 -0.98
6 -0.01
7 -0.15
8 -0.15
9 -0.15

>  <PUBCHEM_EFFECTIVE_ROTOR_COUNT>  (1) 
1

>  <PUBCHEM_PHARMACOPHORE_FEATURES>  (1) 
5
1 1 hydrophobe
1 3 acceptor
1 4 acceptor
1 5 donor
6 6 7 8 9 10 11 rings

>  <PUBCHEM_HEAVY_ATOM_COUNT>  (1) 
11

>  <PUBCHEM_ATOM_DEF_STEREO_COUNT>  (1) 
0

>  <PUBCHEM_ATOM_UDEF_STEREO_COUNT>  (1) 
0

>  <PUBCHEM_BOND_DEF_STEREO_COUNT>  (1) 
0

>  <PUBCHEM_BOND_UDEF_STEREO_COUNT>  (1) 
0

>  <PUBCHEM_ISOTOPIC_ATOM_COUNT>  (1) 
0

>  <PUBCHEM_COMPONENT_COUNT>  (1) 
1

>  <PUBCHEM_CACTVS_TAUTO_COUNT>  (1) 
1

>  <PUBCHEM_CONFORMER_ID>  (1) 
000033A200000001

>  <PUBCHEM_MMFF94_ENERGY>  (1) 
7.0888

>  <PUBCHEM_FEATURE_SELFOVERLAP>  (1) 
25.389

>  <PUBCHEM_SHAPE_FINGERPRINT>  (1) 
10219947 1 18410293610250779728
11132069 177 18342168960789312034
11401426 45 18411689985686236220
12032990 46 18410860962561718110
124424 183 17821719516552858984
12932764 1 18410857663483307922
14325111 11 18410289229268223260
14993402 34 18341325665208901206
15775835 57 18412545401084205357
16945 1 18410859858522806556
17844478 74 17968673678069503641
18186145 218 18060423529993568072
19026448 4 15719391759207838406
19026448 5 15769775732794405572
193761 8 17618219508192973596
200 152 17988915713159884351
20201158 50 18334290937868555174
23380061 330 18342171193892848134
23402539 116 16877653574616394175
23402655 69 18195790904854023997
2748010 2 18122344571547148182
29004967 10 18260555497713466616
5084963 1 18271240642017250665
528886 8 18411691067622303914
63268167 104 18341894060822073202

>  <PUBCHEM_SHAPE_MULTIPOLES>  (1) 
225.44
6.2
1.37
0.87
3.56
0
-0.23
0
-0.16
-0.16
0.16
-0.51
0
0

>  <PUBCHEM_SHAPE_SELFOVERLAP>  (1) 
432.405

>  <PUBCHEM_SHAPE_VOLUME>  (1) 
141.4

>  <PUBCHEM_COORDINATE_TYPE>  (1) 
2
5
10

$$$$
