13210
     RDKit          3D

 10 11  0  0  0  0  0  0  0  0999 V2000
    2.0560    0.3675   -0.0001 P   0  0  0  0  0  0  0  0  0  0  0  0
    1.6559   -1.2068   -0.0328 O   0  0  0  0  0  0  0  0  0  0  0  0
    1.1434    0.8476    1.2553 O   0  0  0  0  0  0  0  0  0  0  0  0
    1.1295    0.9028   -1.2225 O   0  0  0  0  0  0  0  0  0  0  0  0
   -0.6360   -0.3042    0.0001 C   0  0  0  0  0  0  0  0  0  0  0  0
    0.2661   -1.5501   -0.0330 C   0  0  0  0  0  0  0  0  0  0  0  0
   -0.2452    0.4995    1.2525 C   0  0  0  0  0  0  0  0  0  0  0  0
   -0.2591    0.5546   -1.2195 C   0  0  0  0  0  0  0  0  0  0  0  0
   -2.1145   -0.6731    0.0002 C   0  0  0  0  0  0  0  0  0  0  0  0
   -2.9962    0.5621   -0.0001 C   0  0  0  0  0  0  0  0  0  0  0  0
  1  2  1  0
  1  3  1  0
  1  4  1  0
  2  6  1  0
  3  7  1  0
  4  8  1  0
  5  6  1  0
  5  7  1  0
  5  8  1  0
  5  9  1  0
  9 10  1  0
M  END
>  <PUBCHEM_COMPOUND_CID>  (1) 
13210

>  <PUBCHEM_CONFORMER_RMSD>  (1) 
0.4

>  <PUBCHEM_CONFORMER_DIVERSEORDER>  (1) 
1

>  <PUBCHEM_MMFF94_PARTIAL_CHARGES>  (1) 
7
1 0.3
2 -0.38
3 -0.38
4 -0.38
6 0.28
7 0.28
8 0.28

>  <PUBCHEM_EFFECTIVE_ROTOR_COUNT>  (1) 
2.2

>  <PUBCHEM_PHARMACOPHORE_FEATURES>  (1) 
2
1 10 hydrophobe
8 1 2 3 4 5 6 7 8 rings

>  <PUBCHEM_HEAVY_ATOM_COUNT>  (1) 
10

>  <PUBCHEM_ATOM_DEF_STEREO_COUNT>  (1) 
0

>  <PUBCHEM_ATOM_UDEF_STEREO_COUNT>  (1) 
0

>  <PUBCHEM_BOND_DEF_STEREO_COUNT>  (1) 
0

>  <PUBCHEM_BOND_UDEF_STEREO_COUNT>  (1) 
0

>  <PUBCHEM_ISOTOPIC_ATOM_COUNT>  (1) 
0

>  <PUBCHEM_COMPONENT_COUNT>  (1) 
1

>  <PUBCHEM_CACTVS_TAUTO_COUNT>  (1) 
1

>  <PUBCHEM_CONFORMER_ID>  (1) 
0000339A00000001

>  <PUBCHEM_MMFF94_ENERGY>  (1) 
35.5937

>  <PUBCHEM_FEATURE_SELFOVERLAP>  (1) 
10.148

>  <PUBCHEM_SHAPE_FINGERPRINT>  (1) 
12423570 1 13082061013271960718
137420 1 16912052877737841074
16945 1 18339080389054899439
20653085 51 17536059953311569524
21040471 1 18339079422729559791
29004967 10 17894636937057429515
5084963 1 18334857233860040891
528886 8 18186524310363248543
68250623 7 16881305984402368898

>  <PUBCHEM_SHAPE_MULTIPOLES>  (1) 
192.04
3.04
1.25
1.16
1.72
0.4
0.03
-0.36
0
-0.22
-0.03
-0.21
-0.38
0.01

>  <PUBCHEM_SHAPE_SELFOVERLAP>  (1) 
383.666

>  <PUBCHEM_SHAPE_VOLUME>  (1) 
116.4

>  <PUBCHEM_COORDINATE_TYPE>  (1) 
2
5
10

$$$$
