13222
     RDKit          3D

 12 12  0  0  0  0  0  0  0  0999 V2000
   -3.1326   -0.7650    0.0703 O   0  0  0  0  0  0  0  0  0  0  0  0
   -1.4895   -1.2392   -1.3996 O   0  0  0  0  0  0  0  0  0  0  0  0
   -1.0756    0.5255    0.2542 C   0  0  0  0  0  0  0  0  0  0  0  0
    0.4307    0.2083    0.1344 C   0  0  0  0  0  0  0  0  0  0  0  0
   -1.4338    0.6207    1.7551 C   0  0  0  0  0  0  0  0  0  0  0  0
   -1.4751    1.8572   -0.4172 C   0  0  0  0  0  0  0  0  0  0  0  0
   -1.8878   -0.5855   -0.4415 C   0  0  0  0  0  0  0  0  0  0  0  0
    0.8889   -0.9619    0.6782 C   0  0  0  0  0  0  0  0  0  0  0  0
    1.2313    1.1140   -0.5093 C   0  0  0  0  0  0  0  0  0  0  0  0
    2.2498   -1.2482    0.5703 C   0  0  0  0  0  0  0  0  0  0  0  0
    2.5922    0.8277   -0.6173 C   0  0  0  0  0  0  0  0  0  0  0  0
    3.1015   -0.3535   -0.0775 C   0  0  0  0  0  0  0  0  0  0  0  0
  1  7  1  0
  2  7  2  0
  3  4  1  0
  3  5  1  0
  3  6  1  0
  3  7  1  0
  4  8  2  0
  4  9  1  0
  8 10  1  0
  9 11  2  0
 10 12  2  0
 11 12  1  0
M  END
>  <PUBCHEM_COMPOUND_CID>  (1) 
13222

>  <PUBCHEM_CONFORMER_RMSD>  (1) 
0.6

>  <PUBCHEM_CONFORMER_DIVERSEORDER>  (1) 
1
3
4
2

>  <PUBCHEM_MMFF94_PARTIAL_CHARGES>  (1) 
16
1 -0.65
10 -0.15
11 -0.15
12 -0.15
19 0.15
2 -0.57
20 0.15
21 0.15
22 0.15
23 0.15
24 0.5
3 0.2
4 -0.14
7 0.66
8 -0.15
9 -0.15

>  <PUBCHEM_EFFECTIVE_ROTOR_COUNT>  (1) 
2

>  <PUBCHEM_PHARMACOPHORE_FEATURES>  (1) 
5
1 1 acceptor
1 2 acceptor
3 1 2 7 anion
3 3 5 6 hydrophobe
6 4 8 9 10 11 12 rings

>  <PUBCHEM_HEAVY_ATOM_COUNT>  (1) 
12

>  <PUBCHEM_ATOM_DEF_STEREO_COUNT>  (1) 
0

>  <PUBCHEM_ATOM_UDEF_STEREO_COUNT>  (1) 
0

>  <PUBCHEM_BOND_DEF_STEREO_COUNT>  (1) 
0

>  <PUBCHEM_BOND_UDEF_STEREO_COUNT>  (1) 
0

>  <PUBCHEM_ISOTOPIC_ATOM_COUNT>  (1) 
0

>  <PUBCHEM_COMPONENT_COUNT>  (1) 
1

>  <PUBCHEM_CACTVS_TAUTO_COUNT>  (1) 
1

>  <PUBCHEM_CONFORMER_ID>  (1) 
000033A600000001

>  <PUBCHEM_MMFF94_ENERGY>  (1) 
38.7315

>  <PUBCHEM_FEATURE_SELFOVERLAP>  (1) 
25.434

>  <PUBCHEM_SHAPE_FINGERPRINT>  (1) 
10857977 72 16128655288254221667
12423570 1 13173926618653898153
12897270 3 18259981608457210854
12932764 1 18340775862192687728
13024252 1 17167869638376030961
14128692 85 18270672177294270278
15310529 11 18334011687837826269
15775835 57 18411709767947165240
16945 1 18338223981276716534
20201158 50 17385443236731453962
20653085 51 16660916695444709605
23402539 116 14418401252418124275
23552423 10 18187081707098016306
2748010 2 18114745906780343396
276578 36 16627179194853500683
3248919 1 17203324451860403248
369184 2 18335703818931915000
5084963 1 18412826880429768848
528886 8 18187641435651801473
63268167 104 18334576841315283152
8030462 33 17967823725590256292

>  <PUBCHEM_SHAPE_MULTIPOLES>  (1) 
235.22
4.22
1.52
1.15
0.96
0.31
0.23
-0.61
-0.32
-0.11
-0.18
-0.6
-0.11
-0.56

>  <PUBCHEM_SHAPE_SELFOVERLAP>  (1) 
489.807

>  <PUBCHEM_SHAPE_VOLUME>  (1) 
134.1

>  <PUBCHEM_COORDINATE_TYPE>  (1) 
2
5
10

$$$$
