13238
     RDKit          3D

 13 14  0  0  0  0  0  0  0  0999 V2000
    1.8224   -1.4373    0.0133 O   0  0  0  0  0  0  0  0  0  0  0  0
    3.1210    0.4891    0.0574 N   0  0  0  0  0  0  0  0  0  0  0  0
    0.8401    0.6966    0.0387 N   0  0  0  0  0  0  0  0  0  0  0  0
    4.3007   -0.0504    0.6676 C   0  0  0  0  0  0  0  0  0  0  0  0
    4.2198    0.1406   -0.7948 C   0  0  0  0  0  0  0  0  0  0  0  0
    1.9042   -0.2113    0.0338 C   0  0  0  0  0  0  0  0  0  0  0  0
   -0.5447    0.4141    0.0208 C   0  0  0  0  0  0  0  0  0  0  0  0
   -1.4696    1.4583    0.0297 C   0  0  0  0  0  0  0  0  0  0  0  0
   -0.9867   -0.9087   -0.0059 C   0  0  0  0  0  0  0  0  0  0  0  0
   -3.2781   -0.1429   -0.0147 C   0  0  0  0  0  0  0  0  0  0  0  0
   -2.8363    1.1798    0.0120 C   0  0  0  0  0  0  0  0  0  0  0  0
   -2.3534   -1.1872   -0.0236 C   0  0  0  0  0  0  0  0  0  0  0  0
   -4.7394   -0.4407   -0.0342 C   0  0  0  0  0  0  0  0  0  0  0  0
  1  6  2  0
  2  4  1  0
  2  5  1  0
  2  6  1  0
  3  6  1  0
  3  7  1  0
  4  5  1  0
  7  8  2  0
  7  9  1  0
  8 11  1  0
  9 12  2  0
 10 11  2  0
 10 12  1  0
 10 13  1  0
M  END
>  <PUBCHEM_COMPOUND_CID>  (1) 
13238

>  <PUBCHEM_CONFORMER_RMSD>  (1) 
0.6

>  <PUBCHEM_CONFORMER_DIVERSEORDER>  (1) 
1
4
7
3
5
2
6

>  <PUBCHEM_MMFF94_PARTIAL_CHARGES>  (1) 
22
1 -0.57
10 -0.14
11 -0.15
12 -0.15
13 0.14
14 0.1
15 0.1
16 0.1
17 0.1
18 0.37
19 0.15
2 -0.36
20 0.15
21 0.15
22 0.15
3 -0.55
4 -0.05
5 -0.05
6 0.69
7 0.12
8 -0.15
9 -0.15

>  <PUBCHEM_EFFECTIVE_ROTOR_COUNT>  (1) 
3.6

>  <PUBCHEM_PHARMACOPHORE_FEATURES>  (1) 
3
1 1 acceptor
1 3 donor
6 7 8 9 10 11 12 rings

>  <PUBCHEM_HEAVY_ATOM_COUNT>  (1) 
13

>  <PUBCHEM_ATOM_DEF_STEREO_COUNT>  (1) 
0

>  <PUBCHEM_ATOM_UDEF_STEREO_COUNT>  (1) 
0

>  <PUBCHEM_BOND_DEF_STEREO_COUNT>  (1) 
0

>  <PUBCHEM_BOND_UDEF_STEREO_COUNT>  (1) 
0

>  <PUBCHEM_ISOTOPIC_ATOM_COUNT>  (1) 
0

>  <PUBCHEM_COMPONENT_COUNT>  (1) 
1

>  <PUBCHEM_CACTVS_TAUTO_COUNT>  (1) 
2

>  <PUBCHEM_CONFORMER_ID>  (1) 
000033B600000001

>  <PUBCHEM_MMFF94_ENERGY>  (1) 
44.3696

>  <PUBCHEM_FEATURE_SELFOVERLAP>  (1) 
15.223

>  <PUBCHEM_SHAPE_FINGERPRINT>  (1) 
11062470 55 17168143451004355046
11401426 45 18412821391952122957
12932764 1 17131536272061494382
13380535 76 18408886230624431498
13690532 89 18333448755196155849
14123238 8 17967534588217777175
14144814 61 18410291380682809312
14252887 29 17774735211223187670
14325111 11 18338235964240825001
15219456 202 17988369152305792503
15536298 74 18341613651319498838
1986462 14 18342461413264808900
200 152 17917988386889096077
20201158 50 18412826888798300155
20279233 1 17917997178692523358
20510252 161 18201722795591701057
20528008 55 18342171189355183689
20645477 70 16988572260561132334
21267235 1 18409739464421405866
22485316 2 16845290548952913750
23048698 100 16950281806472530992
23402539 116 18272362084354688869
23402655 69 18341040823315499205
23557571 272 18271536303134238580
23559900 14 18270960138230754030
3312278 4 18408606976356523771
43471831 8 18335136436720476611
474 4 16951701379232465356
5104073 3 18339079289617028234
573450 72 18188478095507967904
69090 78 18131064956975439031
7364860 26 18197217159775766168
9709674 26 18411424990051238598

>  <PUBCHEM_SHAPE_MULTIPOLES>  (1) 
251.7
8.79
1.27
0.69
3.47
0.04
-0.02
-0.48
-0.15
-0.66
0.01
0.34
0.01
-0.07

>  <PUBCHEM_SHAPE_SELFOVERLAP>  (1) 
524.509

>  <PUBCHEM_SHAPE_VOLUME>  (1) 
144.5

>  <PUBCHEM_COORDINATE_TYPE>  (1) 
2
5
10

$$$$
