13230
     RDKit          3D

 12 13  0  0  0  0  0  0  0  0999 V2000
   -0.6172    0.6181   -0.0258 C   0  0  0  0  0  0  0  0  0  0  0  0
   -0.8575   -0.7765   -0.0103 C   0  0  0  0  0  0  0  0  0  0  0  0
    0.7057    1.0864   -0.0781 C   0  0  0  0  0  0  0  0  0  0  0  0
    1.7764    0.1926   -0.1147 C   0  0  0  0  0  0  0  0  0  0  0  0
    0.2322   -1.6617   -0.0477 C   0  0  0  0  0  0  0  0  0  0  0  0
   -1.7069    1.5032    0.0113 C   0  0  0  0  0  0  0  0  0  0  0  0
   -2.1805   -1.2448    0.0418 C   0  0  0  0  0  0  0  0  0  0  0  0
    1.5400   -1.1788   -0.0995 C   0  0  0  0  0  0  0  0  0  0  0  0
   -3.0148    1.0204    0.0631 C   0  0  0  0  0  0  0  0  0  0  0  0
   -3.2512   -0.3510    0.0783 C   0  0  0  0  0  0  0  0  0  0  0  0
    3.1410    0.6939   -0.1700 C   0  0  0  0  0  0  0  0  0  0  0  0
    4.2329    0.0981    0.3515 C   0  0  0  0  0  0  0  0  0  0  0  0
  1  2  1  0
  1  3  2  0
  1  6  1  0
  2  5  2  0
  2  7  1  0
  3  4  1  0
  4  8  2  0
  4 11  1  0
  5  8  1  0
  6  9  2  0
  7 10  2  0
  9 10  1  0
 11 12  2  0
M  END
>  <PUBCHEM_COMPOUND_CID>  (1) 
13230

>  <PUBCHEM_CONFORMER_RMSD>  (1) 
0.4

>  <PUBCHEM_CONFORMER_DIVERSEORDER>  (1) 
1
2

>  <PUBCHEM_MMFF94_PARTIAL_CHARGES>  (1) 
20
10 -0.15
11 -0.18
12 -0.3
13 0.15
14 0.15
15 0.15
16 0.15
17 0.15
18 0.15
19 0.15
20 0.15
21 0.15
22 0.15
3 -0.15
4 0.03
5 -0.15
6 -0.15
7 -0.15
8 -0.15
9 -0.15

>  <PUBCHEM_EFFECTIVE_ROTOR_COUNT>  (1) 
1

>  <PUBCHEM_PHARMACOPHORE_FEATURES>  (1) 
3
1 12 hydrophobe
6 1 2 3 4 5 8 rings
6 1 2 6 7 9 10 rings

>  <PUBCHEM_HEAVY_ATOM_COUNT>  (1) 
12

>  <PUBCHEM_ATOM_DEF_STEREO_COUNT>  (1) 
0

>  <PUBCHEM_ATOM_UDEF_STEREO_COUNT>  (1) 
0

>  <PUBCHEM_BOND_DEF_STEREO_COUNT>  (1) 
0

>  <PUBCHEM_BOND_UDEF_STEREO_COUNT>  (1) 
0

>  <PUBCHEM_ISOTOPIC_ATOM_COUNT>  (1) 
0

>  <PUBCHEM_COMPONENT_COUNT>  (1) 
1

>  <PUBCHEM_CACTVS_TAUTO_COUNT>  (1) 
1

>  <PUBCHEM_CONFORMER_ID>  (1) 
000033AE00000001

>  <PUBCHEM_MMFF94_ENERGY>  (1) 
36.6488

>  <PUBCHEM_FEATURE_SELFOVERLAP>  (1) 
15.249

>  <PUBCHEM_SHAPE_FINGERPRINT>  (1) 
10608611 8 18412260619009453160
11132069 177 18411697690583330072
12032990 46 18411708690052675366
13024252 1 12973598941726355029
13380535 76 18410292497300777879
14144814 61 18408603651967219688
14325111 11 18410856551334834524
14614273 12 18260824848261439885
14897335 6 18339074900213230823
15219456 202 18201727202054008334
15536298 74 18270962337154088134
15775835 57 18412267211646777793
16945 1 18410300237016162815
17846911 113 18413665816333739232
18186145 218 17988652882546580080
193761 8 17834114139218054404
200 152 18130776889571731493
20201158 50 18411982459694416215
20510252 161 18272654545193403336
20645476 183 17678476353167958774
20871998 184 18201163277122113255
21501502 16 18339077069192970187
23235685 24 18410568483335391676
23402539 116 18342164592174641071
23402655 69 18269541759905051365
23463225 33 18333729096496685706
23552423 10 18261960635114497199
23559900 14 18272934925950251324
2748010 2 18266184924333586015
305870 269 18041837303205659578
43471831 8 18334290942417334530
528886 8 18411132537158640259
53812653 166 18343861117368413632
54173680 148 18120375620736451842
6333449 129 18341891904869816245
69090 78 17988638622817353190
7364860 26 18198061365920886038

>  <PUBCHEM_SHAPE_MULTIPOLES>  (1) 
246.95
5.81
1.6
0.63
3.21
0.2
0
-0.88
-0.47
-0.52
0.02
0.05
0
-0.01

>  <PUBCHEM_SHAPE_SELFOVERLAP>  (1) 
538.508

>  <PUBCHEM_SHAPE_VOLUME>  (1) 
126.5

>  <PUBCHEM_COORDINATE_TYPE>  (1) 
2
5
10

$$$$
