13233
     RDKit          3D

 12 12  0  0  0  0  0  0  0  0999 V2000
   -1.1910    0.6965    1.0022 S   0  0  0  0  0  0  0  0  0  0  0  0
   -0.0002   -1.9629    0.0009 S   0  0  0  0  0  0  0  0  0  0  0  0
    1.1908    0.6959   -1.0024 S   0  0  0  0  0  0  0  0  0  0  0  0
   -1.4595   -0.8504    0.0610 C   0  0  0  0  0  0  0  0  0  0  0  0
    0.0001    1.6561    0.0000 C   0  0  0  0  0  0  0  0  0  0  0  0
    1.4593   -0.8506   -0.0609 C   0  0  0  0  0  0  0  0  0  0  0  0
   -2.0239   -0.6364   -1.3481 C   0  0  0  0  0  0  0  0  0  0  0  0
   -2.5223   -1.6233    0.8725 C   0  0  0  0  0  0  0  0  0  0  0  0
   -0.7874    2.5680   -0.9580 C   0  0  0  0  0  0  0  0  0  0  0  0
    0.7881    2.5677    0.9579 C   0  0  0  0  0  0  0  0  0  0  0  0
    2.5212   -1.6244   -0.8729 C   0  0  0  0  0  0  0  0  0  0  0  0
    2.0248   -0.6362    1.3478 C   0  0  0  0  0  0  0  0  0  0  0  0
  1  4  1  0
  1  5  1  0
  2  4  1  0
  2  6  1  0
  3  5  1  0
  3  6  1  0
  4  7  1  0
  4  8  1  0
  5  9  1  0
  5 10  1  0
  6 11  1  0
  6 12  1  0
M  END
>  <PUBCHEM_COMPOUND_CID>  (1) 
13233

>  <PUBCHEM_CONFORMER_RMSD>  (1) 
0.4

>  <PUBCHEM_CONFORMER_DIVERSEORDER>  (1) 
1
2
3

>  <PUBCHEM_MMFF94_PARTIAL_CHARGES>  (1) 
6
1 -0.46
2 -0.46
3 -0.46
4 0.46
5 0.46
6 0.46

>  <PUBCHEM_EFFECTIVE_ROTOR_COUNT>  (1) 
1.2

>  <PUBCHEM_PHARMACOPHORE_FEATURES>  (1) 
4
3 4 7 8 hydrophobe
3 5 9 10 hydrophobe
3 6 11 12 hydrophobe
6 1 2 3 4 5 6 rings

>  <PUBCHEM_HEAVY_ATOM_COUNT>  (1) 
12

>  <PUBCHEM_ATOM_DEF_STEREO_COUNT>  (1) 
0

>  <PUBCHEM_ATOM_UDEF_STEREO_COUNT>  (1) 
0

>  <PUBCHEM_BOND_DEF_STEREO_COUNT>  (1) 
0

>  <PUBCHEM_BOND_UDEF_STEREO_COUNT>  (1) 
0

>  <PUBCHEM_ISOTOPIC_ATOM_COUNT>  (1) 
0

>  <PUBCHEM_COMPONENT_COUNT>  (1) 
1

>  <PUBCHEM_CACTVS_TAUTO_COUNT>  (1) 
1

>  <PUBCHEM_CONFORMER_ID>  (1) 
000033B100000001

>  <PUBCHEM_MMFF94_ENERGY>  (1) 
49.7277

>  <PUBCHEM_FEATURE_SELFOVERLAP>  (1) 
20.297

>  <PUBCHEM_SHAPE_FINGERPRINT>  (1) 
1 1 17691405630140803605
100427 49 18412267267465469831
11129358 1 8571279650742421069
12326174 3 18120931977856375994
12423570 1 14151621604857421389
12524768 44 18268427017410574691
14181834 199 18050825995472539959
14817 1 8131768573542199648
15775835 57 16965193666325170721
15852999 172 16671067150432330137
15881359 60 18046909269035545697
16945 1 17617884375641415650
18185500 45 18339093656208935247
20645476 183 17248106318961152126
20711985 344 18194397797149941083
21061003 4 18409737291294801787
21922407 69 15147216778169071024
21947302 44 17900231368595075839
22802520 49 17912100351704094190
23419403 2 17036061292555682900
23559900 14 17406838385433872894
241688 4 18340498763434198058
2748010 2 18336541720007054487
430814 3 17330853820336952509
5084963 1 16604909492812683220
528862 383 17977950416623945003
54338 74 18116141186603448371
66348 1 18194971956967783971
7364860 26 17983873446770432362
81228 2 18194960747092689592

>  <PUBCHEM_SHAPE_MULTIPOLES>  (1) 
258.5
3.01
2.96
1.38
0
1.63
0
-1.91
0
0
0
0
0.15
0.41

>  <PUBCHEM_SHAPE_SELFOVERLAP>  (1) 
459.992

>  <PUBCHEM_SHAPE_VOLUME>  (1) 
170.3

>  <PUBCHEM_COORDINATE_TYPE>  (1) 
2
5
10

$$$$
