13246
     RDKit          3D

 13 13  0  0  0  0  0  0  0  0999 V2000
   -2.5521    0.4406    1.2373 O   0  0  0  0  0  0  0  0  0  0  0  0
    2.9922   -0.9026   -0.0495 C   0  0  0  0  0  0  0  0  0  0  0  0
    1.7973   -1.6070    0.5954 C   0  0  0  0  0  0  0  0  0  0  0  0
    2.7570    0.5011   -0.6322 C   0  0  0  0  0  0  0  0  0  0  0  0
    0.6029   -1.7809   -0.3471 C   0  0  0  0  0  0  0  0  0  0  0  0
    2.2692    1.5787    0.3477 C   0  0  0  0  0  0  0  0  0  0  0  0
   -0.6811   -2.0911    0.4258 C   0  0  0  0  0  0  0  0  0  0  0  0
    0.7593    1.6524    0.6170 C   0  0  0  0  0  0  0  0  0  0  0  0
   -1.9653   -1.8915   -0.3913 C   0  0  0  0  0  0  0  0  0  0  0  0
   -0.0868    1.9881   -0.6168 C   0  0  0  0  0  0  0  0  0  0  0  0
   -2.1796   -0.4817   -0.9552 C   0  0  0  0  0  0  0  0  0  0  0  0
   -1.5886    1.9766   -0.3265 C   0  0  0  0  0  0  0  0  0  0  0  0
   -2.1243    0.6170    0.0954 C   0  0  0  0  0  0  0  0  0  0  0  0
  1 13  2  0
  2  3  1  0
  2  4  1  0
  3  5  1  0
  4  6  1  0
  5  7  1  0
  6  8  1  0
  7  9  1  0
  8 10  1  0
  9 11  1  0
 10 12  1  0
 11 13  1  0
 12 13  1  0
M  END
>  <PUBCHEM_COMPOUND_CID>  (1) 
13246

>  <PUBCHEM_CONFORMER_RMSD>  (1) 
0.6

>  <PUBCHEM_CONFORMER_DIVERSEORDER>  (1) 
1
14
24
3
20
22
11
19
18
5
21
27
12
9
16
15
25
13
4
10
6
2
17
8
26
23
7

>  <PUBCHEM_MMFF94_PARTIAL_CHARGES>  (1) 
4
1 -0.57
11 0.06
12 0.06
13 0.45

>  <PUBCHEM_EFFECTIVE_ROTOR_COUNT>  (1) 
2.2

>  <PUBCHEM_PHARMACOPHORE_FEATURES>  (1) 
1
1 1 acceptor

>  <PUBCHEM_HEAVY_ATOM_COUNT>  (1) 
13

>  <PUBCHEM_ATOM_DEF_STEREO_COUNT>  (1) 
0

>  <PUBCHEM_ATOM_UDEF_STEREO_COUNT>  (1) 
0

>  <PUBCHEM_BOND_DEF_STEREO_COUNT>  (1) 
0

>  <PUBCHEM_BOND_UDEF_STEREO_COUNT>  (1) 
0

>  <PUBCHEM_ISOTOPIC_ATOM_COUNT>  (1) 
0

>  <PUBCHEM_COMPONENT_COUNT>  (1) 
1

>  <PUBCHEM_CACTVS_TAUTO_COUNT>  (1) 
2

>  <PUBCHEM_CONFORMER_ID>  (1) 
000033BE00000001

>  <PUBCHEM_MMFF94_ENERGY>  (1) 
13.4715

>  <PUBCHEM_FEATURE_SELFOVERLAP>  (1) 
5.074

>  <PUBCHEM_SHAPE_FINGERPRINT>  (1) 
11132069 177 18341887446968147578
1420 336 18410853222661463498
14251711 518 18192987128026608162
14251717 144 18123743163381213373
14251745 187 18197775712083057544
15775835 57 18411707573171157404
16945 1 18410007702540824022
19930374 2 17544994601783749136
20201158 50 17975973159398407592
21249577 28 18335978667259488506
22721475 48 18267024036426102380
22802520 49 18270977816068497582
2334 1 18266456697031941758
23559900 14 18199748052014100350
241688 4 18337948003873988593
2748010 2 18194396929582189654
2897 32 18336827481371695572
63268167 104 18411414012050967770
66348 1 18266737063812060102

>  <PUBCHEM_SHAPE_MULTIPOLES>  (1) 
261.66
4.28
2.86
0.94
1.16
0.1
-0.05
0.14
0.1
-0.17
-0.02
-0.23
-0.06
-0.14

>  <PUBCHEM_SHAPE_SELFOVERLAP>  (1) 
493.071

>  <PUBCHEM_SHAPE_VOLUME>  (1) 
160.5

>  <PUBCHEM_COORDINATE_TYPE>  (1) 
2
5
10

$$$$
