13255
     RDKit          3D

 14 15  0  0  0  0  0  0  0  0999 V2000
    0.4041   -0.0001    1.0571 S   0  0  0  0  0  0  0  0  0  0  0  0
   -2.0015    0.0001   -0.2934 C   0  0  0  0  0  0  0  0  0  0  0  0
   -0.5252    0.0002   -0.5062 C   0  0  0  0  0  0  0  0  0  0  0  0
    2.0914    0.0001    0.4632 C   0  0  0  0  0  0  0  0  0  0  0  0
   -2.6919    1.2080   -0.1937 C   0  0  0  0  0  0  0  0  0  0  0  0
   -2.6917   -1.2080   -0.1938 C   0  0  0  0  0  0  0  0  0  0  0  0
   -4.0726    1.2079    0.0058 C   0  0  0  0  0  0  0  0  0  0  0  0
   -4.0723   -1.2081    0.0055 C   0  0  0  0  0  0  0  0  0  0  0  0
    2.7435    1.2080    0.2339 C   0  0  0  0  0  0  0  0  0  0  0  0
    2.7432   -1.2079    0.2340 C   0  0  0  0  0  0  0  0  0  0  0  0
   -4.7626   -0.0001    0.1053 C   0  0  0  0  0  0  0  0  0  0  0  0
    4.0594    1.2079   -0.2289 C   0  0  0  0  0  0  0  0  0  0  0  0
    4.0591   -1.2081   -0.2287 C   0  0  0  0  0  0  0  0  0  0  0  0
    4.7171   -0.0001   -0.4602 C   0  0  0  0  0  0  0  0  0  0  0  0
  1  3  1  0
  1  4  1  0
  2  3  1  0
  2  5  2  0
  2  6  1  0
  4  9  2  0
  4 10  1  0
  5  7  1  0
  6  8  2  0
  7 11  2  0
  8 11  1  0
  9 12  1  0
 10 13  2  0
 12 14  2  0
 13 14  1  0
M  END
>  <PUBCHEM_COMPOUND_CID>  (1) 
13255

>  <PUBCHEM_CONFORMER_RMSD>  (1) 
0.6

>  <PUBCHEM_CONFORMER_DIVERSEORDER>  (1) 
1
3
2
4
7
8
5
6

>  <PUBCHEM_MMFF94_PARTIAL_CHARGES>  (1) 
24
1 -0.33
10 -0.15
11 -0.15
12 -0.15
13 -0.15
14 -0.15
17 0.15
18 0.15
19 0.15
2 -0.14
20 0.15
21 0.15
22 0.15
23 0.15
24 0.15
25 0.15
26 0.15
3 0.37
4 0.1
5 -0.15
6 -0.15
7 -0.15
8 -0.15
9 -0.15

>  <PUBCHEM_EFFECTIVE_ROTOR_COUNT>  (1) 
3

>  <PUBCHEM_PHARMACOPHORE_FEATURES>  (1) 
2
6 2 5 6 7 8 11 rings
6 4 9 10 12 13 14 rings

>  <PUBCHEM_HEAVY_ATOM_COUNT>  (1) 
14

>  <PUBCHEM_ATOM_DEF_STEREO_COUNT>  (1) 
0

>  <PUBCHEM_ATOM_UDEF_STEREO_COUNT>  (1) 
0

>  <PUBCHEM_BOND_DEF_STEREO_COUNT>  (1) 
0

>  <PUBCHEM_BOND_UDEF_STEREO_COUNT>  (1) 
0

>  <PUBCHEM_ISOTOPIC_ATOM_COUNT>  (1) 
0

>  <PUBCHEM_COMPONENT_COUNT>  (1) 
1

>  <PUBCHEM_CACTVS_TAUTO_COUNT>  (1) 
1

>  <PUBCHEM_CONFORMER_ID>  (1) 
000033C700000001

>  <PUBCHEM_MMFF94_ENERGY>  (1) 
36.0374

>  <PUBCHEM_FEATURE_SELFOVERLAP>  (1) 
10.149

>  <PUBCHEM_SHAPE_FINGERPRINT>  (1) 
10616163 171 18340486767649186111
10680689 15 17894632539501515741
11615757 297 17917715720515750465
12107183 9 17689998933877888497
12346177 29 15266765711295314373
124424 183 17418371389886004201
12616999 72 18411985763104593606
128620 24 16081085978445913219
13167823 11 18411698785578678375
13675066 3 17632569444573564506
13760787 19 18341892995665175303
14123238 8 18410011043787964468
15239154 128 18409449180540767061
15242433 33 18412545413805732766
17834072 33 18410574010958191359
17834074 16 18412263934597592167
18186145 218 18040709260320762272
19422 9 18410855455833194539
1986462 14 18410855451823109453
200 152 18202283597887128010
204376 136 14634871954706053280
20645477 70 18342741771887957558
22485316 2 18272086114845686214
23402539 116 17967245391248571012
23402655 69 18411420609632424332
23557571 272 18408889507647419053
23559900 14 18341888602034872952
3268164 11 16950271902167131711
3545911 37 18410013238537540100
4047638 21 17385726907180147192
42 15 18410857650582607919
4214541 1 18411418388854874357
474 4 17386855078750572180
4921388 177 17385733538177461051
4990 188 18410296891489918270
5104073 3 18410572885655655074
522135 26 18342175553421751494
5281201 14 18408043996438441372
542803 24 17313106349528481620
58051976 100 18271523186499106975
633830 44 17822009808886516218
77779 3 18410856559645064333
9709674 26 18410862070104669958

>  <PUBCHEM_SHAPE_MULTIPOLES>  (1) 
291.96
11.16
1.45
0.79
0.24
0
0.1
0
-1.1
-0.01
-0.04
-0.15
0
0

>  <PUBCHEM_SHAPE_SELFOVERLAP>  (1) 
604.249

>  <PUBCHEM_SHAPE_VOLUME>  (1) 
165.4

>  <PUBCHEM_COORDINATE_TYPE>  (1) 
2
5
10

$$$$
