13259
     RDKit          3D

 15 16  0  0  0  0  0  0  0  0999 V2000
   -3.3454   -2.8446   -0.1287 Br  0  0  0  0  0  0  0  0  0  0  0  0
    3.9346   -1.3414   -0.5146 N   0  0  0  0  0  0  0  0  0  0  0  0
   -0.5492    2.4720    0.0941 N   0  0  0  0  0  0  0  0  0  0  0  0
    2.8118   -0.6377    0.1300 C   0  0  0  0  0  0  0  0  0  0  0  0
    1.8972   -0.0169   -0.9807 C   0  0  0  0  0  0  0  0  0  0  0  0
    0.7282    0.7705   -0.5384 C   0  0  0  0  0  0  0  0  0  0  0  0
   -0.5818    0.2743   -0.2882 C   0  0  0  0  0  0  0  0  0  0  0  0
    3.4154    0.4410    1.0399 C   0  0  0  0  0  0  0  0  0  0  0  0
    2.0573   -1.6706    0.9781 C   0  0  0  0  0  0  0  0  0  0  0  0
   -1.3635    1.3620    0.1070 C   0  0  0  0  0  0  0  0  0  0  0  0
    0.7166    2.1246   -0.2947 C   0  0  0  0  0  0  0  0  0  0  0  0
   -1.1795   -0.9997   -0.3603 C   0  0  0  0  0  0  0  0  0  0  0  0
   -2.7183    1.2389    0.4352 C   0  0  0  0  0  0  0  0  0  0  0  0
   -2.5338   -1.1379   -0.0351 C   0  0  0  0  0  0  0  0  0  0  0  0
   -3.2894   -0.0345    0.3564 C   0  0  0  0  0  0  0  0  0  0  0  0
  1 14  1  0
  2  4  1  0
  3 10  1  0
  3 11  1  0
  4  5  1  0
  4  8  1  0
  4  9  1  0
  5  6  1  0
  6  7  1  0
  6 11  2  0
  7 10  2  0
  7 12  1  0
 10 13  1  0
 12 14  2  0
 13 15  2  0
 14 15  1  0
M  END
>  <PUBCHEM_COMPOUND_CID>  (1) 
13259

>  <PUBCHEM_CONFORMER_RMSD>  (1) 
0.6

>  <PUBCHEM_CONFORMER_DIVERSEORDER>  (1) 
1
9
3
4
6
7
5
8
2

>  <PUBCHEM_MMFF94_PARTIAL_CHARGES>  (1) 
19
1 -0.11
10 -0.15
11 -0.3
12 -0.15
13 -0.15
14 0.11
15 -0.15
2 -0.99
24 0.15
25 0.36
26 0.36
27 0.27
28 0.15
29 0.15
3 0.03
30 0.15
4 0.27
5 0.18
6 -0.18

>  <PUBCHEM_EFFECTIVE_ROTOR_COUNT>  (1) 
2

>  <PUBCHEM_PHARMACOPHORE_FEATURES>  (1) 
8
1 1 hydrophobe
1 2 cation
1 2 donor
1 3 cation
1 3 donor
3 4 8 9 hydrophobe
5 3 6 7 10 11 rings
6 7 10 12 13 14 15 rings

>  <PUBCHEM_HEAVY_ATOM_COUNT>  (1) 
15

>  <PUBCHEM_ATOM_DEF_STEREO_COUNT>  (1) 
0

>  <PUBCHEM_ATOM_UDEF_STEREO_COUNT>  (1) 
0

>  <PUBCHEM_BOND_DEF_STEREO_COUNT>  (1) 
0

>  <PUBCHEM_BOND_UDEF_STEREO_COUNT>  (1) 
0

>  <PUBCHEM_ISOTOPIC_ATOM_COUNT>  (1) 
0

>  <PUBCHEM_COMPONENT_COUNT>  (1) 
1

>  <PUBCHEM_CACTVS_TAUTO_COUNT>  (1) 
1

>  <PUBCHEM_CONFORMER_ID>  (1) 
000033CB00000001

>  <PUBCHEM_MMFF94_ENERGY>  (1) 
19.3489

>  <PUBCHEM_FEATURE_SELFOVERLAP>  (1) 
40.686

>  <PUBCHEM_SHAPE_FINGERPRINT>  (1) 
10618630 7 18335420166586126758
11132069 177 18410570665252514290
11578080 2 17822833373314090388
11769659 78 18336264664736372695
11806522 49 18192146216500803238
12202030 40 16589159418589558369
12251169 10 18342178855850948481
12382932 28 18413103944301012674
12500047 106 18120649132954214676
12553582 1 18335142007324480531
13083527 12 17838034250490210925
13140716 1 18341904034274263265
13296908 3 18412825789497604062
14178342 30 18410001131077461138
14787075 74 18117837922667233064
15375462 189 18187088351212060891
16945 1 18339933619011048629
17804303 29 18127136277544044878
20291156 8 18408324401594086451
20361792 2 17167863045537889332
20442098 301 18410008802021076186
20510252 161 17984984795344199545
20559304 39 18124318460922187157
20645477 70 18049717722739773343
20653085 51 10015579553618971276
20871998 184 18201999906459457431
20871998 22 18341053024573762390
21501502 16 18267031737640165221
21501925 9 18269269239285961559
21650355 55 18339351985654432184
22445834 79 18188773825317694402
23184049 29 18339927133610184791
232386 152 18409456894238428735
23388829 49 18127115596891269415
23402539 116 18201712913309776741
23463225 33 18336551533827945343
23552423 10 18118693355392952901
23559900 14 18341892936247464948
25 1 9655037574615517400
2748010 2 18341047505730840653
34934 24 18335975398420007129
427121 178 16051291245317160361
58807428 26 17836375847922348609
5902787 121 18337673117382371603
6338986 31 18339916147105168055
7364860 26 18125441070705077209
81228 2 18268722610097871989

>  <PUBCHEM_SHAPE_MULTIPOLES>  (1) 
304.67
6.23
2.66
0.9
0.98
0.12
-0.05
3.92
-0.71
-1.34
-0.07
0.46
0.11
-0.34

>  <PUBCHEM_SHAPE_SELFOVERLAP>  (1) 
634.453

>  <PUBCHEM_SHAPE_VOLUME>  (1) 
179.3

>  <PUBCHEM_COORDINATE_TYPE>  (1) 
2
5
10

$$$$
