13261
     RDKit          3D

 15 15  0  0  0  0  0  0  0  0999 V2000
    2.2271   -0.1636    0.3228 O   0  0  0  0  0  0  0  0  0  0  0  0
   -2.8837    1.9659   -0.9300 O   0  0  0  0  0  0  0  0  0  0  0  0
   -1.1846    2.3591    0.4033 O   0  0  0  0  0  0  0  0  0  0  0  0
    3.7682    1.1321   -0.8099 O   0  0  0  0  0  0  0  0  0  0  0  0
   -1.9392    1.5667   -0.2085 N   0  0  0  0  0  0  0  0  0  0  0  0
    0.2357    0.5965    1.4541 C   0  0  0  0  0  0  0  0  0  0  0  0
   -0.6799   -0.3239    0.7133 C   0  0  0  0  0  0  0  0  0  0  0  0
    1.4662    0.9958    0.6364 C   0  0  0  0  0  0  0  0  0  0  0  0
   -1.7168    0.1679   -0.0795 C   0  0  0  0  0  0  0  0  0  0  0  0
   -0.4812   -1.6999    0.8269 C   0  0  0  0  0  0  0  0  0  0  0  0
   -2.5550   -0.7162   -0.7587 C   0  0  0  0  0  0  0  0  0  0  0  0
   -1.3195   -2.5840    0.1477 C   0  0  0  0  0  0  0  0  0  0  0  0
   -2.3565   -2.0922   -0.6450 C   0  0  0  0  0  0  0  0  0  0  0  0
    3.3618    0.0495   -0.4100 C   0  0  0  0  0  0  0  0  0  0  0  0
    4.0575   -1.2536   -0.6629 C   0  0  0  0  0  0  0  0  0  0  0  0
  1  8  1  0
  1 14  1  0
  2  5  1  0
  3  5  2  0
  4 14  2  0
  5  9  1  0
  6  7  1  0
  6  8  1  0
  7  9  2  0
  7 10  1  0
  9 11  1  0
 10 12  2  0
 11 13  2  0
 12 13  1  0
 14 15  1  0
M  CHG  2   2  -1   5   1
M  END
>  <PUBCHEM_COMPOUND_CID>  (1) 
13261

>  <PUBCHEM_CONFORMER_RMSD>  (1) 
0.6

>  <PUBCHEM_CONFORMER_DIVERSEORDER>  (1) 
6
12
27
21
15
35
28
9
5
25
4
34
11
19
38
17
23
14
31
7
10
36
13
39
18
33
1
30
22
8
29
32
24
26
20
16
37
3
2

>  <PUBCHEM_MMFF94_PARTIAL_CHARGES>  (1) 
19
1 -0.43
10 -0.15
11 -0.15
12 -0.15
13 -0.15
14 0.66
15 0.06
2 -0.52
20 0.15
21 0.15
22 0.15
23 0.15
3 -0.52
4 -0.57
5 0.91
6 0.14
7 -0.14
8 0.28
9 0.13

>  <PUBCHEM_EFFECTIVE_ROTOR_COUNT>  (1) 
5

>  <PUBCHEM_PHARMACOPHORE_FEATURES>  (1) 
5
1 2 acceptor
1 2 anion
1 3 acceptor
1 4 acceptor
6 7 9 10 11 12 13 rings

>  <PUBCHEM_HEAVY_ATOM_COUNT>  (1) 
15

>  <PUBCHEM_ATOM_DEF_STEREO_COUNT>  (1) 
0

>  <PUBCHEM_ATOM_UDEF_STEREO_COUNT>  (1) 
0

>  <PUBCHEM_BOND_DEF_STEREO_COUNT>  (1) 
0

>  <PUBCHEM_BOND_UDEF_STEREO_COUNT>  (1) 
0

>  <PUBCHEM_ISOTOPIC_ATOM_COUNT>  (1) 
0

>  <PUBCHEM_COMPONENT_COUNT>  (1) 
1

>  <PUBCHEM_CACTVS_TAUTO_COUNT>  (1) 
1

>  <PUBCHEM_CONFORMER_ID>  (1) 
000033CD00000006

>  <PUBCHEM_MMFF94_ENERGY>  (1) 
45.9995

>  <PUBCHEM_FEATURE_SELFOVERLAP>  (1) 
25.453

>  <PUBCHEM_SHAPE_FINGERPRINT>  (1) 
10764073 3 17472753127395556483
10922049 32 18263653866046949673
11127187 94 18202009815128207708
11206711 2 18339072787015585003
12138202 97 18411980221926771527
12716758 59 18341604906427967690
12824470 246 14619926344979484701
15502708 8 18410292544729683697
15775835 57 17822290120016871004
16945 1 18264752406890927499
17134986 127 17972869272570279653
17834072 14 18130493164243505082
20361792 2 15698005166851693232
20645476 183 18115020792923820123
20645477 56 18409167718696975752
20711985 344 18338508746304040211
20871999 31 18411414050958998213
21524375 3 17970625182222877473
21665056 4 18337115561876751826
22802520 49 18270113655378278307
23557571 272 18269539689224380048
23559900 14 18200867393305142858
27216 239 11819278918374422262
2748010 2 17688287402791465915
81228 2 18264762341176644161
93112 12 18410297986864704564

>  <PUBCHEM_SHAPE_MULTIPOLES>  (1) 
280.23
5.8
2.55
1.07
6.86
0.08
-0.15
0.58
2.64
-1.88
0.17
0
-0.07
0.33

>  <PUBCHEM_SHAPE_SELFOVERLAP>  (1) 
578.917

>  <PUBCHEM_SHAPE_VOLUME>  (1) 
159.8

>  <PUBCHEM_COORDINATE_TYPE>  (1) 
2
5
10

$$$$
