13267
     RDKit          3D

 16 17  0  0  1  0  0  0  0  0999 V2000
    0.0972   -1.8562    0.7507 O   0  0  0  0  0  0  0  0  0  0  0  0
   -0.5102    2.5693   -0.5608 O   0  0  0  0  0  0  0  0  0  0  0  0
   -4.1591    0.0300    0.5447 O   0  0  0  0  0  0  0  0  0  0  0  0
   -0.1447    0.3219   -0.0475 N   0  0  0  0  0  0  0  0  0  0  0  0
   -2.3127    1.2672   -0.0400 N   0  0  0  0  0  0  0  0  0  0  0  0
    1.2841    0.5063   -0.1310 C   0  0  0  0  0  0  0  0  0  0  0  0
    1.9373    0.3055    1.2389 C   0  0  0  0  0  0  0  0  0  0  0  0
    1.8860   -0.4336   -1.1783 C   0  0  0  0  0  0  0  0  0  0  0  0
    3.4556    0.4427    1.1631 C   0  0  0  0  0  0  0  0  0  0  0  0
    3.4046   -0.2971   -1.2503 C   0  0  0  0  0  0  0  0  0  0  0  0
    4.0534   -0.4938    0.1170 C   0  0  0  0  0  0  0  0  0  0  0  0
   -0.6169   -0.9360    0.3467 C   0  0  0  0  0  0  0  0  0  0  0  0
   -2.1047   -1.1461    0.1853 C   0  0  0  0  0  0  0  0  0  0  0  0
   -0.9502    1.4579   -0.2537 C   0  0  0  0  0  0  0  0  0  0  0  0
   -2.9603    0.0880    0.2734 C   0  0  0  0  0  0  0  0  0  0  0  0
   -2.3594   -1.8260   -1.1582 C   0  0  0  0  0  0  0  0  0  0  0  0
  1 12  2  0
  2 14  2  0
  3 15  2  0
  4  6  1  0
  4 12  1  0
  4 14  1  0
  5 14  1  0
  5 15  1  0
  6  7  1  0
  6  8  1  0
  7  9  1  0
  8 10  1  0
  9 11  1  0
 10 11  1  0
 12 13  1  0
 13 15  1  0
 13 16  1  0
M  END
>  <PUBCHEM_COMPOUND_CID>  (1) 
13267

>  <PUBCHEM_CONFORMER_RMSD>  (1) 
0.6

>  <PUBCHEM_CONFORMER_DIVERSEORDER>  (1) 
1
5
6
4
3
2

>  <PUBCHEM_MMFF94_PARTIAL_CHARGES>  (1) 
11
1 -0.57
12 0.57
13 0.12
14 0.69
15 0.57
2 -0.57
29 0.37
3 -0.57
4 -0.42
5 -0.49
6 0.3

>  <PUBCHEM_EFFECTIVE_ROTOR_COUNT>  (1) 
2.8

>  <PUBCHEM_PHARMACOPHORE_FEATURES>  (1) 
7
1 1 acceptor
1 13 anion
1 2 acceptor
1 3 acceptor
1 5 donor
6 4 5 12 13 14 15 rings
6 6 7 8 9 10 11 rings

>  <PUBCHEM_HEAVY_ATOM_COUNT>  (1) 
16

>  <PUBCHEM_ATOM_DEF_STEREO_COUNT>  (1) 
0

>  <PUBCHEM_ATOM_UDEF_STEREO_COUNT>  (1) 
1

>  <PUBCHEM_BOND_DEF_STEREO_COUNT>  (1) 
0

>  <PUBCHEM_BOND_UDEF_STEREO_COUNT>  (1) 
0

>  <PUBCHEM_ISOTOPIC_ATOM_COUNT>  (1) 
0

>  <PUBCHEM_COMPONENT_COUNT>  (1) 
1

>  <PUBCHEM_CACTVS_TAUTO_COUNT>  (1) 
3

>  <PUBCHEM_CONFORMER_ID>  (1) 
000033D300000001

>  <PUBCHEM_MMFF94_ENERGY>  (1) 
30.5676

>  <PUBCHEM_FEATURE_SELFOVERLAP>  (1) 
35.522

>  <PUBCHEM_SHAPE_FINGERPRINT>  (1) 
11132069 177 18342449365760224288
12236239 1 17240767272403904208
12932764 1 18343580724781574506
13538477 17 17603592966743361282
13581323 91 18261109647679779464
14614273 12 17968934172094167293
14993402 34 17458069257085608870
15219456 202 17846777429657750616
15775835 57 18411699850735686866
16752209 62 18114449081310916021
16945 1 18410006624493483229
18175812 5 17775284992996569156
18186145 218 17988645172874406090
19049666 15 17843687656002414604
19141452 34 17988926695375656839
200 152 15574712499717492712
20201158 50 17917998256692469222
20279233 1 17847063281100796822
20510252 161 18340206293389065728
20645476 183 17240778322911995995
21452121 199 17191765586507563263
21501502 16 18127408067089992960
23402539 116 18408878551496758334
23419403 2 17119955292565216205
23557571 272 18130223869166213690
23559900 14 18341333302188131246
2748010 2 18118963839521810217
296302 2 16773797021591506994
3286 77 17274812623191779138
43471831 8 18114458942413877458
474 4 16589732260206506316
53812653 8 17967538951825409108
6333449 129 18201433679583106551
69090 78 17918270957019371791
74978 22 17969786469493604626
77492 1 17240766172786813880
81228 2 18337401452021697144

>  <PUBCHEM_SHAPE_MULTIPOLES>  (1) 
301.7
6.41
1.76
1.15
1.45
0.33
-0.05
-0.74
0.45
-1.09
-0.36
0.7
-0.13
0.21

>  <PUBCHEM_SHAPE_SELFOVERLAP>  (1) 
627.651

>  <PUBCHEM_SHAPE_VOLUME>  (1) 
168.1

>  <PUBCHEM_COORDINATE_TYPE>  (1) 
2
5
10

$$$$
