13265
     RDKit          3D

 15 16  0  0  0  0  0  0  0  0999 V2000
    5.6469    0.3776   -0.0208 N   0  0  0  0  0  0  0  0  0  0  0  0
    1.4812   -0.3034    0.0113 C   0  0  0  0  0  0  0  0  0  0  0  0
   -2.3036    0.2338    0.0085 C   0  0  0  0  0  0  0  0  0  0  0  0
    0.0666   -0.5348    0.0225 C   0  0  0  0  0  0  0  0  0  0  0  0
    2.0041    0.9299   -0.4137 C   0  0  0  0  0  0  0  0  0  0  0  0
    2.3761   -1.3051    0.4251 C   0  0  0  0  0  0  0  0  0  0  0  0
   -0.8651    0.4491    0.0225 C   0  0  0  0  0  0  0  0  0  0  0  0
    4.2550    0.1498   -0.0104 C   0  0  0  0  0  0  0  0  0  0  0  0
    3.3807    1.1548   -0.4244 C   0  0  0  0  0  0  0  0  0  0  0  0
    3.7526   -1.0800    0.4143 C   0  0  0  0  0  0  0  0  0  0  0  0
   -2.8217   -0.9887   -0.4189 C   0  0  0  0  0  0  0  0  0  0  0  0
   -3.1649    1.2495    0.4230 C   0  0  0  0  0  0  0  0  0  0  0  0
   -4.2011   -1.1955   -0.4319 C   0  0  0  0  0  0  0  0  0  0  0  0
   -4.5444    1.0428    0.4102 C   0  0  0  0  0  0  0  0  0  0  0  0
   -5.0624   -0.1797   -0.0173 C   0  0  0  0  0  0  0  0  0  0  0  0
  1  8  1  0
  2  4  1  0
  2  5  2  0
  2  6  1  0
  3  7  1  0
  3 11  2  0
  3 12  1  0
  4  7  2  0
  5  9  1  0
  6 10  2  0
  8  9  2  0
  8 10  1  0
 11 13  1  0
 12 14  2  0
 13 15  2  0
 14 15  1  0
M  END
>  <PUBCHEM_COMPOUND_CID>  (1) 
13265

>  <PUBCHEM_CONFORMER_RMSD>  (1) 
0.6

>  <PUBCHEM_CONFORMER_DIVERSEORDER>  (1) 
2
1

>  <PUBCHEM_MMFF94_PARTIAL_CHARGES>  (1) 
28
1 -0.9
10 -0.15
11 -0.15
12 -0.15
13 -0.15
14 -0.15
15 -0.15
16 0.15
17 0.15
18 0.15
19 0.15
2 0.03
20 0.15
21 0.15
22 0.15
23 0.15
24 0.15
25 0.15
26 0.15
27 0.4
28 0.4
3 0.03
4 -0.18
5 -0.15
6 -0.15
7 -0.18
8 0.1
9 -0.15

>  <PUBCHEM_EFFECTIVE_ROTOR_COUNT>  (1) 
2

>  <PUBCHEM_PHARMACOPHORE_FEATURES>  (1) 
4
1 1 cation
1 1 donor
6 2 5 6 8 9 10 rings
6 3 11 12 13 14 15 rings

>  <PUBCHEM_HEAVY_ATOM_COUNT>  (1) 
15

>  <PUBCHEM_ATOM_DEF_STEREO_COUNT>  (1) 
0

>  <PUBCHEM_ATOM_UDEF_STEREO_COUNT>  (1) 
0

>  <PUBCHEM_BOND_DEF_STEREO_COUNT>  (1) 
0

>  <PUBCHEM_BOND_UDEF_STEREO_COUNT>  (1) 
1

>  <PUBCHEM_ISOTOPIC_ATOM_COUNT>  (1) 
0

>  <PUBCHEM_COMPONENT_COUNT>  (1) 
1

>  <PUBCHEM_CACTVS_TAUTO_COUNT>  (1) 
1

>  <PUBCHEM_CONFORMER_ID>  (1) 
000033D100000002

>  <PUBCHEM_MMFF94_ENERGY>  (1) 
56.4267

>  <PUBCHEM_FEATURE_SELFOVERLAP>  (1) 
20.297

>  <PUBCHEM_SHAPE_FINGERPRINT>  (1) 
10014705 185 18261388911033500741
10354089 29 18334298664889273624
10616163 171 18342175613436054943
10680689 15 15626220213259032009
10912923 1 18409728452183145139
11471102 20 18186802478774167396
12107183 9 17689997834376816777
12236239 1 18411418401496929766
13167823 11 18410572885803704467
13760787 19 18342737412058146127
13897977 58 18343023285503218105
14123238 8 18410573985151451139
15242433 33 18411982446804414991
17834072 33 18410855481639934644
18186145 218 17603583023788556395
18522853 276 18413670209937765305
19050596 39 18410292510391024915
200 152 18411417323755576643
20279233 1 15791734091880729019
20645477 70 18188487974117923394
21065198 48 18410854317920153315
21267235 1 18410582794161251151
22485316 2 18410290298530405107
22646028 1 18409727357093078371
22854114 59 18040152911547504092
2297311 6 17560810934994383257
23402539 116 18343297076292793573
23402655 69 18409165489355410188
23557571 272 17417821603548961488
23559900 14 18271517688951582561
26918003 58 17530686515279400641
300161 21 18410848850384548297
3545911 37 18411139129838435457
42 15 18334858298769174791
4214541 1 18411699868295357357
42788 4 18413671318255339052
474 4 17823421668043331652
4990 188 18060429005971167838
5104073 3 18410011026634541419
542803 24 18411702088381823857
573450 72 18341888567965148539
67856867 119 18338231690822731716
69090 78 18186800292129814571
77779 3 18411700980496552295
9709674 26 18411426102616696735
9971528 1 18186803565480157812
9981440 41 17326615207065244496

>  <PUBCHEM_SHAPE_MULTIPOLES>  (1) 
303.71
11.96
1.35
0.71
0.68
0.05
0
-0.58
-0.17
-0.2
-0.02
-0.06
0
-0.84

>  <PUBCHEM_SHAPE_SELFOVERLAP>  (1) 
652.225

>  <PUBCHEM_SHAPE_VOLUME>  (1) 
167.1

>  <PUBCHEM_COORDINATE_TYPE>  (1) 
2
5
10

$$$$
