13260
     RDKit          3D

 15 16  0  0  0  0  0  0  0  0999 V2000
   -3.2421   -2.7447   -0.1266 Cl  0  0  0  0  0  0  0  0  0  0  0  0
    3.9476   -1.2989   -0.5158 N   0  0  0  0  0  0  0  0  0  0  0  0
   -0.5864    2.4541    0.0975 N   0  0  0  0  0  0  0  0  0  0  0  0
    2.8155   -0.6112    0.1295 C   0  0  0  0  0  0  0  0  0  0  0  0
    1.8927   -0.0004   -0.9802 C   0  0  0  0  0  0  0  0  0  0  0  0
    0.7135    0.7705   -0.5370 C   0  0  0  0  0  0  0  0  0  0  0  0
   -0.5900    0.2568   -0.2885 C   0  0  0  0  0  0  0  0  0  0  0  0
    3.4045    0.4740    1.0413 C   0  0  0  0  0  0  0  0  0  0  0  0
    2.0744   -1.6552    0.9758 C   0  0  0  0  0  0  0  0  0  0  0  0
   -1.3862    1.3335    0.1081 C   0  0  0  0  0  0  0  0  0  0  0  0
    0.6841    2.1239   -0.2911 C   0  0  0  0  0  0  0  0  0  0  0  0
   -1.1709   -1.0248   -0.3631 C   0  0  0  0  0  0  0  0  0  0  0  0
   -2.7394    1.1921    0.4352 C   0  0  0  0  0  0  0  0  0  0  0  0
   -2.5235   -1.1813   -0.0390 C   0  0  0  0  0  0  0  0  0  0  0  0
   -3.2938   -0.0885    0.3538 C   0  0  0  0  0  0  0  0  0  0  0  0
  1 14  1  0
  2  4  1  0
  3 10  1  0
  3 11  1  0
  4  5  1  0
  4  8  1  0
  4  9  1  0
  5  6  1  0
  6  7  1  0
  6 11  2  0
  7 10  2  0
  7 12  1  0
 10 13  1  0
 12 14  2  0
 13 15  2  0
 14 15  1  0
M  END
>  <PUBCHEM_COMPOUND_CID>  (1) 
13260

>  <PUBCHEM_CONFORMER_RMSD>  (1) 
0.6

>  <PUBCHEM_CONFORMER_DIVERSEORDER>  (1) 
1
6
8
5
2
4
9
3
7

>  <PUBCHEM_MMFF94_PARTIAL_CHARGES>  (1) 
19
1 -0.18
10 -0.15
11 -0.3
12 -0.15
13 -0.15
14 0.18
15 -0.15
2 -0.99
24 0.15
25 0.36
26 0.36
27 0.27
28 0.15
29 0.15
3 0.03
30 0.15
4 0.27
5 0.18
6 -0.18

>  <PUBCHEM_EFFECTIVE_ROTOR_COUNT>  (1) 
2

>  <PUBCHEM_PHARMACOPHORE_FEATURES>  (1) 
7
1 2 cation
1 2 donor
1 3 cation
1 3 donor
3 4 8 9 hydrophobe
5 3 6 7 10 11 rings
6 7 10 12 13 14 15 rings

>  <PUBCHEM_HEAVY_ATOM_COUNT>  (1) 
15

>  <PUBCHEM_ATOM_DEF_STEREO_COUNT>  (1) 
0

>  <PUBCHEM_ATOM_UDEF_STEREO_COUNT>  (1) 
0

>  <PUBCHEM_BOND_DEF_STEREO_COUNT>  (1) 
0

>  <PUBCHEM_BOND_UDEF_STEREO_COUNT>  (1) 
0

>  <PUBCHEM_ISOTOPIC_ATOM_COUNT>  (1) 
0

>  <PUBCHEM_COMPONENT_COUNT>  (1) 
1

>  <PUBCHEM_CACTVS_TAUTO_COUNT>  (1) 
1

>  <PUBCHEM_CONFORMER_ID>  (1) 
000033CC00000001

>  <PUBCHEM_MMFF94_ENERGY>  (1) 
19.1977

>  <PUBCHEM_FEATURE_SELFOVERLAP>  (1) 
35.612

>  <PUBCHEM_SHAPE_FINGERPRINT>  (1) 
10618630 7 18335420166591401502
11132069 177 18410569565740886522
11578080 2 17822833369040222116
11769659 78 18335983185427745495
11806522 49 18192427691482801646
12202030 40 16589158323372884897
12251169 10 18342178860172283033
12382932 28 18413105048097051746
12500047 106 18120649137265012724
12553582 1 18335140903480923219
13083527 12 17838596105221710031
13140716 1 18341622559287016105
13296908 3 18412825789502872318
14178342 30 18409719656111286994
14787075 74 18118119397665088200
15375462 189 18187088351201511395
16752209 62 18190456061139383989
16945 1 18339933619016323373
17804303 29 18198912396605268654
20291156 8 18408042917974674211
20361792 2 17167863049832863124
20442098 301 18410290277018879346
20510252 161 17984984799649722841
20559304 39 18124036985940214733
20645477 70 18049716618927897007
20653085 51 10015579553618977772
20871998 184 18201999906448881951
20871998 22 18341054124101194926
21501502 16 18267031741919327757
21501925 9 18269269239280673823
21650355 55 18339351985675550688
22445834 79 18188772725842996386
23184049 29 18339927137894576591
232386 152 18409738369215132895
23388829 49 18055339486404142991
23402539 116 18201712913309776749
23463225 33 18408609132166128319
23552423 10 18118693355398221149
23559900 14 18341894035764367476
25 1 9727095168690375096
2748010 2 18413386561733859925
34934 24 18335975402709706169
427121 178 16123068463889992417
58807428 26 17908151975599789793
5902787 121 18337673117355991355
6338986 31 18339916142794357023
7364860 26 18125722541386846553
81228 2 18268441139416128609

>  <PUBCHEM_SHAPE_MULTIPOLES>  (1) 
300.6
6.11
2.53
0.89
1.47
0.07
-0.05
3.4
-0.76
-1.25
-0.05
0.48
0.08
-0.3

>  <PUBCHEM_SHAPE_SELFOVERLAP>  (1) 
631.971

>  <PUBCHEM_SHAPE_VOLUME>  (1) 
172.2

>  <PUBCHEM_COORDINATE_TYPE>  (1) 
2
5
10

$$$$
