13262
     RDKit          3D

 15 16  0  0  0  0  0  0  0  0999 V2000
   -2.5330    1.1044   -0.0005 O   0  0  0  0  0  0  0  0  0  0  0  0
   -4.7795    0.6588   -0.0003 O   0  0  0  0  0  0  0  0  0  0  0  0
    3.9963    1.2780    0.0026 O   0  0  0  0  0  0  0  0  0  0  0  0
    2.7353   -0.7140   -0.0004 N   0  0  0  0  0  0  0  0  0  0  0  0
   -0.9584   -0.7517    0.0002 C   0  0  0  0  0  0  0  0  0  0  0  0
   -1.2097    0.6178   -0.0001 C   0  0  0  0  0  0  0  0  0  0  0  0
    1.4127   -0.2683   -0.0004 C   0  0  0  0  0  0  0  0  0  0  0  0
    0.3660   -1.1949   -0.0003 C   0  0  0  0  0  0  0  0  0  0  0  0
   -0.1765    1.5527   -0.0006 C   0  0  0  0  0  0  0  0  0  0  0  0
    1.1416    1.1020   -0.0004 C   0  0  0  0  0  0  0  0  0  0  0  0
   -2.0839   -1.6708    0.0008 C   0  0  0  0  0  0  0  0  0  0  0  0
   -3.3342   -1.2018    0.0008 C   0  0  0  0  0  0  0  0  0  0  0  0
   -3.6258    0.2437    0.0001 C   0  0  0  0  0  0  0  0  0  0  0  0
    3.9067    0.0544   -0.0006 C   0  0  0  0  0  0  0  0  0  0  0  0
    5.1422   -0.8103   -0.0008 C   0  0  0  0  0  0  0  0  0  0  0  0
  1  6  1  0
  1 13  1  0
  2 13  2  0
  3 14  2  0
  4  7  1  0
  4 14  1  0
  5  6  2  0
  5  8  1  0
  5 11  1  0
  6  9  1  0
  7  8  2  0
  7 10  1  0
  9 10  2  0
 11 12  2  0
 12 13  1  0
 14 15  1  0
M  END
>  <PUBCHEM_COMPOUND_CID>  (1) 
13262

>  <PUBCHEM_CONFORMER_RMSD>  (1) 
0.6

>  <PUBCHEM_CONFORMER_DIVERSEORDER>  (1) 
1
3
2
4

>  <PUBCHEM_MMFF94_PARTIAL_CHARGES>  (1) 
21
1 -0.23
10 -0.15
11 -0.18
12 -0.14
13 0.71
14 0.57
15 0.06
16 0.15
17 0.15
18 0.15
19 0.15
2 -0.57
20 0.37
21 0.15
3 -0.57
4 -0.55
5 0.03
6 0.08
7 0.12
8 -0.15
9 -0.15

>  <PUBCHEM_EFFECTIVE_ROTOR_COUNT>  (1) 
2

>  <PUBCHEM_PHARMACOPHORE_FEATURES>  (1) 
5
1 2 acceptor
1 3 acceptor
1 4 donor
6 1 5 6 11 12 13 rings
6 5 6 7 8 9 10 rings

>  <PUBCHEM_HEAVY_ATOM_COUNT>  (1) 
15

>  <PUBCHEM_ATOM_DEF_STEREO_COUNT>  (1) 
0

>  <PUBCHEM_ATOM_UDEF_STEREO_COUNT>  (1) 
0

>  <PUBCHEM_BOND_DEF_STEREO_COUNT>  (1) 
0

>  <PUBCHEM_BOND_UDEF_STEREO_COUNT>  (1) 
0

>  <PUBCHEM_ISOTOPIC_ATOM_COUNT>  (1) 
0

>  <PUBCHEM_COMPONENT_COUNT>  (1) 
1

>  <PUBCHEM_CACTVS_TAUTO_COUNT>  (1) 
2

>  <PUBCHEM_CONFORMER_ID>  (1) 
000033CE00000001

>  <PUBCHEM_MMFF94_ENERGY>  (1) 
48.6892

>  <PUBCHEM_FEATURE_SELFOVERLAP>  (1) 
25.399

>  <PUBCHEM_SHAPE_FINGERPRINT>  (1) 
10062212 137 18410569621507285767
11132069 177 18411696599677357272
11401426 45 18413103965781123791
12032990 46 18411141367748628714
12119455 92 17346877840659579078
124424 183 18408040727889246447
13214271 11 18342455963009443071
13288520 33 18412547579133940262
13380535 76 18411983546326806695
13690532 89 18409448085249889764
13862211 1 18410851053576547383
14115302 16 18041571307554567982
14911166 2 18410567380035095077
14943859 89 18407760343654816099
15196674 1 18410574028122229606
15375358 24 18272936015817020295
15536298 74 18341894147196451968
16945 1 18411709759710340207
17804303 29 18341051895055340265
18186145 218 17530958120695480510
200 152 17703787024422849887
20279233 1 17989213637492184022
20510252 161 18200594674844056889
20645477 70 17774445975673460646
21267235 1 18410020935119116426
22485316 2 18411416232860354586
23402539 116 18272362070736622399
23402655 69 18270388396748491973
23463225 33 18408323298024426508
23559900 14 18341611538654135456
2748010 2 18194679491623450037
335352 9 18410573959392249276
34934 24 18410287004121937355
5104073 3 18410855503320513290
53655031 270 18408603638950533434
69090 78 18272085002465078455
77779 3 18410576210371836834
8809292 202 18261396697366148811
9709674 26 18411989061402678318

>  <PUBCHEM_SHAPE_MULTIPOLES>  (1) 
286.1
8.8
1.58
0.59
4.9
0.01
0
-0.41
0
-0.35
0
0.01
-0.02
0

>  <PUBCHEM_SHAPE_SELFOVERLAP>  (1) 
616.018

>  <PUBCHEM_SHAPE_VOLUME>  (1) 
156.6

>  <PUBCHEM_COORDINATE_TYPE>  (1) 
2
5
10

$$$$
