13279
     RDKit          3D

 17 18  0  0  1  0  0  0  0  0999 V2000
    1.6010   -0.1726   -0.9940 O   0  0  0  0  0  0  0  0  0  0  0  0
    3.7820    1.6645    0.1200 O   0  0  0  0  0  0  0  0  0  0  0  0
    2.3692   -2.8378   -0.5935 O   0  0  0  0  0  0  0  0  0  0  0  0
   -1.1752    2.7546   -0.3818 O   0  0  0  0  0  0  0  0  0  0  0  0
   -0.4638    0.5719   -0.1833 N   0  0  0  0  0  0  0  0  0  0  0  0
   -2.7719    1.1727   -0.0801 N   0  0  0  0  0  0  0  0  0  0  0  0
   -4.4282   -0.4090    0.2266 N   0  0  0  0  0  0  0  0  0  0  0  0
    3.0213    0.6236    0.7293 C   0  0  0  0  0  0  0  0  0  0  0  0
    0.9242    0.9015   -0.3257 C   0  0  0  0  0  0  0  0  0  0  0  0
    1.6196    1.1143    1.0091 C   0  0  0  0  0  0  0  0  0  0  0  0
    2.7988   -0.5063   -0.2662 C   0  0  0  0  0  0  0  0  0  0  0  0
    2.5772   -1.8544    0.4072 C   0  0  0  0  0  0  0  0  0  0  0  0
   -0.7950   -0.7510   -0.0048 C   0  0  0  0  0  0  0  0  0  0  0  0
   -1.4544    1.5649   -0.2238 C   0  0  0  0  0  0  0  0  0  0  0  0
   -2.0578   -1.1629    0.1377 C   0  0  0  0  0  0  0  0  0  0  0  0
   -3.0963   -0.0842    0.0900 C   0  0  0  0  0  0  0  0  0  0  0  0
   -2.4505   -2.5898    0.3333 C   0  0  0  0  0  0  0  0  0  0  0  0
  1  9  1  0
  1 11  1  0
  2  8  1  0
  3 12  1  0
  4 14  2  0
  5  9  1  0
  5 13  1  0
  5 14  1  0
  6 14  1  0
  6 16  2  0
  7 16  1  0
  8 10  1  0
  8 11  1  0
  9 10  1  0
 11 12  1  0
 13 15  2  0
 15 16  1  0
 15 17  1  0
M  END
>  <PUBCHEM_COMPOUND_CID>  (1) 
13279

>  <PUBCHEM_CONFORMER_RMSD>  (1) 
0.6

>  <PUBCHEM_CONFORMER_DIVERSEORDER>  (1) 
1
11
18
14
7
12
9
16
13
4
15
2
8
17
5
10
3
6

>  <PUBCHEM_MMFF94_PARTIAL_CHARGES>  (1) 
21
1 -0.56
11 0.28
12 0.28
13 -0.04
14 0.84
15 -0.12
16 0.49
17 0.14
2 -0.68
25 0.4
26 0.15
27 0.4
3 -0.68
31 0.4
32 0.4
4 -0.57
5 -0.47
6 -0.66
7 -0.85
8 0.28
9 0.58

>  <PUBCHEM_EFFECTIVE_ROTOR_COUNT>  (1) 
3

>  <PUBCHEM_PHARMACOPHORE_FEATURES>  (1) 
10
1 1 acceptor
1 2 acceptor
1 2 donor
1 3 acceptor
1 3 donor
1 4 acceptor
1 6 donor
1 7 donor
5 1 8 9 10 11 rings
6 5 6 13 14 15 16 rings

>  <PUBCHEM_HEAVY_ATOM_COUNT>  (1) 
17

>  <PUBCHEM_ATOM_DEF_STEREO_COUNT>  (1) 
2

>  <PUBCHEM_ATOM_UDEF_STEREO_COUNT>  (1) 
1

>  <PUBCHEM_BOND_DEF_STEREO_COUNT>  (1) 
0

>  <PUBCHEM_BOND_UDEF_STEREO_COUNT>  (1) 
0

>  <PUBCHEM_ISOTOPIC_ATOM_COUNT>  (1) 
0

>  <PUBCHEM_COMPONENT_COUNT>  (1) 
1

>  <PUBCHEM_CACTVS_TAUTO_COUNT>  (1) 
3

>  <PUBCHEM_CONFORMER_ID>  (1) 
000033DF00000001

>  <PUBCHEM_MMFF94_ENERGY>  (1) 
47.8617

>  <PUBCHEM_FEATURE_SELFOVERLAP>  (1) 
50.801

>  <PUBCHEM_SHAPE_FINGERPRINT>  (1) 
10366900 7 18130217271959355641
10608611 8 18411413977833991944
10616163 171 18337954613855407546
10618630 7 18334013904083220391
10922523 26 18260266309123269903
10967382 1 18410292535997343751
12382932 28 18337953501353188155
12500047 106 18263358097176517300
12553582 1 17975429219361135259
12932764 1 17632002117995844468
13140716 1 18122903393610145929
13380535 21 18411987948805032376
14144814 61 18410011013812903265
14178342 30 18267579302746542867
14252887 29 18335711571622100283
15219456 202 18341889671471153932
15375358 24 18336258045922653275
15375462 6 18411417315107840668
15442244 35 18195245520862707362
16945 1 18409168813617990213
17804303 29 18267028245499489742
17834074 16 18411700967574824642
19049666 15 18198054790151460344
19784866 170 18339360893622436320
20510252 161 18341048528228729121
20645477 70 18343579616585177455
21501502 16 18341329998567184544
23184049 29 18337384929440472594
23402539 116 18263913500687588172
23463225 33 18408606967729522847
23559900 14 18411132511810991916
2748010 2 18191020097640403461
34934 24 18337666520518437247
5104073 3 18410012100597995953
58051976 378 18410855495036779964
69090 78 18343295985914594575
7364860 26 18341613690190105590
81228 2 18260271828341277233
8809292 202 18408325479836547730
9709674 26 18411700954600622302

>  <PUBCHEM_SHAPE_MULTIPOLES>  (1) 
311.43
6.37
2.67
0.79
1.15
0.84
0.04
0.78
0.65
-0.12
-0.16
-0.33
0
0.6

>  <PUBCHEM_SHAPE_SELFOVERLAP>  (1) 
653.575

>  <PUBCHEM_SHAPE_VOLUME>  (1) 
176.8

>  <PUBCHEM_COORDINATE_TYPE>  (1) 
2
5
10

$$$$
