13270
     RDKit          3D

 16 16  0  0  1  0  0  0  0  0999 V2000
   -0.7637    3.1870    0.6852 S   0  0  0  0  0  0  0  0  0  0  0  0
    1.7694   -1.0281   -0.2840 N   0  0  0  0  0  0  0  0  0  0  0  0
   -0.5706   -1.1768   -0.2249 N   0  0  0  0  0  0  0  0  0  0  0  0
    0.5372    0.9156    0.1646 N   0  0  0  0  0  0  0  0  0  0  0  0
   -2.9132   -1.2632   -0.1512 N   0  0  0  0  0  0  0  0  0  0  0  0
   -1.8583    0.7955    0.2327 N   0  0  0  0  0  0  0  0  0  0  0  0
    3.0356   -0.3318   -0.1908 C   0  0  0  0  0  0  0  0  0  0  0  0
    4.1725   -1.3293    0.0613 C   0  0  0  0  0  0  0  0  0  0  0  0
    3.2642    0.4394   -1.4867 C   0  0  0  0  0  0  0  0  0  0  0  0
    3.9833   -2.1227    1.3480 C   0  0  0  0  0  0  0  0  0  0  0  0
    0.5432   -0.4121   -0.1099 C   0  0  0  0  0  0  0  0  0  0  0  0
   -1.7229   -0.5117   -0.0428 C   0  0  0  0  0  0  0  0  0  0  0  0
   -4.2110   -0.6883    0.0180 C   0  0  0  0  0  0  0  0  0  0  0  0
   -0.6867    1.4454    0.3217 C   0  0  0  0  0  0  0  0  0  0  0  0
   -5.3019   -1.7253   -0.1888 C   0  0  0  0  0  0  0  0  0  0  0  0
    0.7230    3.8065   -0.1524 C   0  0  0  0  0  0  0  0  0  0  0  0
  1 14  1  0
  1 16  1  0
  2  7  1  0
  2 11  1  0
  3 11  2  0
  3 12  1  0
  4 11  1  0
  4 14  2  0
  5 12  1  0
  5 13  1  0
  6 12  2  0
  6 14  1  0
  7  8  1  0
  7  9  1  0
  8 10  1  0
 13 15  1  0
M  END
>  <PUBCHEM_COMPOUND_CID>  (1) 
13270

>  <PUBCHEM_CONFORMER_RMSD>  (1) 
0.8

>  <PUBCHEM_CONFORMER_DIVERSEORDER>  (1) 
1
116
145
107
43
115
110
72
150
73
44
11
105
141
76
49
98
111
32
75
80
65
102
89
139
56
45
51
121
125
147
35
38
126
144
83
112
135
84
90
155
106
108
6
148
34
143
93
124
130
119
17
117
104
81
66
114
50
132
26
133
46
128
136
54
77
103
57
91
134
21
60
137
23
118
63
92
122
4
95
31
113
47
101
2
40
22
153
70
78
120
86
28
55
5
131
25
138
64
29
99
68
88
3
36
129
59
151
154
52
127
53
100
140
7
67
87
39
94
48
149
74
142
14
33
69
12
82
24
146
30
13
71
10
41
19
61
27
20
123
152
8
15
62
96
18
109
9
58
16
85
79
42
97
37

>  <PUBCHEM_MMFF94_PARTIAL_CHARGES>  (1) 
14
1 -0.33
11 0.72
12 0.72
13 0.37
14 0.72
16 0.23
2 -0.87
23 0.4
29 0.4
3 -0.62
4 -0.62
5 -0.87
6 -0.62
7 0.37

>  <PUBCHEM_EFFECTIVE_ROTOR_COUNT>  (1) 
6

>  <PUBCHEM_PHARMACOPHORE_FEATURES>  (1) 
7
1 10 hydrophobe
1 16 hydrophobe
1 2 donor
1 5 donor
4 2 3 4 11 cation
4 3 5 6 12 cation
6 3 4 6 11 12 14 rings

>  <PUBCHEM_HEAVY_ATOM_COUNT>  (1) 
16

>  <PUBCHEM_ATOM_DEF_STEREO_COUNT>  (1) 
0

>  <PUBCHEM_ATOM_UDEF_STEREO_COUNT>  (1) 
1

>  <PUBCHEM_BOND_DEF_STEREO_COUNT>  (1) 
0

>  <PUBCHEM_BOND_UDEF_STEREO_COUNT>  (1) 
0

>  <PUBCHEM_ISOTOPIC_ATOM_COUNT>  (1) 
0

>  <PUBCHEM_COMPONENT_COUNT>  (1) 
1

>  <PUBCHEM_CACTVS_TAUTO_COUNT>  (1) 
9

>  <PUBCHEM_CONFORMER_ID>  (1) 
000033D600000001

>  <PUBCHEM_MMFF94_ENERGY>  (1) 
32.8111

>  <PUBCHEM_FEATURE_SELFOVERLAP>  (1) 
35.562

>  <PUBCHEM_SHAPE_FINGERPRINT>  (1) 
10989021 7 18341897428087346393
11265709 11 18411702079802419353
12553582 1 18271804648443495647
13955234 65 17980201112963247465
14178342 30 17976530616701042082
15042514 8 18195529181925141145
17492 89 18265613178662435794
18222031 100 18131353042043981319
200 152 18260264131406409358
20510252 161 18200593588565042378
20671657 1 17912649296101147473
20671657 53 18412263965036669245
21296965 67 18413388743687996281
21524375 3 17469615009540668224
221490 88 17977670028601325931
2297311 6 18201166460120024014
2306618 200 17824816746282353980
23366157 5 17974562799807969821
23402539 116 18342732979799583415
23557571 272 17843970247565257348
23558518 356 17976268940927362955
23598288 3 17973747795129872720
23598291 2 17970363516268241502
2748010 2 18271228482960100137
3071541 12 18053387883762654257
3071541 250 18269566085903561181
3071541 37 17978231883158615357
3091708 16 8993937512449276225
312423 11 18189071814892141822
5374978 207 18341608226780916626
58734987 36 18340207491863775957
633830 44 12396301495313288595
68521 5 18340209592008020005
7164475 11 18265618689009758110
7364860 26 18054511571608339117
7615 1 18115317653074758852
81228 2 18198643050257421417
90316 7 18339362937921400320

>  <PUBCHEM_SHAPE_MULTIPOLES>  (1) 
308.22
8.33
3.48
0.93
3.91
4.61
0.02
-8.64
0.09
0.05
-0.7
-0.94
-0.06
-1.24

>  <PUBCHEM_SHAPE_SELFOVERLAP>  (1) 
590.991

>  <PUBCHEM_SHAPE_VOLUME>  (1) 
190

>  <PUBCHEM_COORDINATE_TYPE>  (1) 
2
5
10

$$$$
