13273
     RDKit          3D

 16 17  0  0  0  0  0  0  0  0999 V2000
   -1.8493    0.2416   -0.0153 O   0  0  0  0  0  0  0  0  0  0  0  0
    3.1905    1.0632    0.0176 O   0  0  0  0  0  0  0  0  0  0  0  0
    5.4687    1.3722    0.0322 O   0  0  0  0  0  0  0  0  0  0  0  0
   -5.2978    0.8075    0.0140 O   0  0  0  0  0  0  0  0  0  0  0  0
   -3.5875    2.1900   -0.0266 O   0  0  0  0  0  0  0  0  0  0  0  0
    3.1669   -1.1797   -0.0299 N   0  0  0  0  0  0  0  0  0  0  0  0
    4.4444   -0.7289   -0.0164 N   0  0  0  0  0  0  0  0  0  0  0  0
   -4.0486    1.0113   -0.0033 N   0  0  0  0  0  0  0  0  0  0  0  0
   -1.1881   -0.9337   -0.0036 C   0  0  0  0  0  0  0  0  0  0  0  0
   -2.0407   -1.9976    0.0227 C   0  0  0  0  0  0  0  0  0  0  0  0
    0.2447   -0.9851   -0.0188 C   0  0  0  0  0  0  0  0  0  0  0  0
   -3.1707   -0.0742    0.0042 C   0  0  0  0  0  0  0  0  0  0  0  0
   -3.3409   -1.4390    0.0280 C   0  0  0  0  0  0  0  0  0  0  0  0
    1.0393    0.0999   -0.0086 C   0  0  0  0  0  0  0  0  0  0  0  0
    2.4783   -0.0907   -0.0089 C   0  0  0  0  0  0  0  0  0  0  0  0
    4.4907    0.6433    0.0127 C   0  0  0  0  0  0  0  0  0  0  0  0
  1  9  1  0
  1 12  1  0
  2 15  1  0
  2 16  1  0
  3 16  2  0
  4  8  1  0
  5  8  2  0
  6  7  1  0
  6 15  2  0
  7 16  1  0
  8 12  1  0
  9 10  2  0
  9 11  1  0
 10 13  1  0
 11 14  2  0
 12 13  2  0
 14 15  1  0
M  CHG  2   4  -1   8   1
M  END
>  <PUBCHEM_COMPOUND_CID>  (1) 
13273

>  <PUBCHEM_CONFORMER_RMSD>  (1) 
0.6

>  <PUBCHEM_CONFORMER_DIVERSEORDER>  (1) 
1
6
5
2
3
4

>  <PUBCHEM_MMFF94_PARTIAL_CHARGES>  (1) 
21
1 -0.28
10 -0.15
11 -0.11
12 0.22
13 -0.15
14 -0.14
15 0.59
16 0.78
17 0.15
18 0.15
19 0.15
2 -0.3
20 0.15
21 0.37
3 -0.57
4 -0.52
5 -0.52
6 -0.51
7 -0.37
8 0.96
9 0.09

>  <PUBCHEM_EFFECTIVE_ROTOR_COUNT>  (1) 
3

>  <PUBCHEM_PHARMACOPHORE_FEATURES>  (1) 
8
1 1 acceptor
1 3 acceptor
1 4 acceptor
1 4 anion
1 5 acceptor
1 7 donor
5 1 9 10 12 13 rings
5 2 6 7 15 16 rings

>  <PUBCHEM_HEAVY_ATOM_COUNT>  (1) 
16

>  <PUBCHEM_ATOM_DEF_STEREO_COUNT>  (1) 
0

>  <PUBCHEM_ATOM_UDEF_STEREO_COUNT>  (1) 
0

>  <PUBCHEM_BOND_DEF_STEREO_COUNT>  (1) 
0

>  <PUBCHEM_BOND_UDEF_STEREO_COUNT>  (1) 
1

>  <PUBCHEM_ISOTOPIC_ATOM_COUNT>  (1) 
0

>  <PUBCHEM_COMPONENT_COUNT>  (1) 
1

>  <PUBCHEM_CACTVS_TAUTO_COUNT>  (1) 
2

>  <PUBCHEM_CONFORMER_ID>  (1) 
000033D900000001

>  <PUBCHEM_MMFF94_ENERGY>  (1) 
29.1617

>  <PUBCHEM_FEATURE_SELFOVERLAP>  (1) 
40.688

>  <PUBCHEM_SHAPE_FINGERPRINT>  (1) 
10014705 185 18409165519689070125
10608611 8 18341328980538460240
10680689 15 18340212993421866202
10912923 1 17604142740111534922
12107183 9 17831574284590691130
12500047 106 18271522091330100782
12916748 109 18409736140485730649
13675066 3 18040442078800241818
14123255 352 18335979775234528541
14252887 29 14345787228608727562
14508225 48 18053929930590151583
15196674 1 18410856572883660426
15375358 24 18272373066064156430
15501527 16 18412266155084862001
17834072 32 18264768753742612981
17834072 8 18272095959406633702
18186145 218 17894906330723958446
20281389 69 18260545619515928748
20300324 65 18131627894528936725
20645477 56 18411139143124231523
20645477 70 17203337658900981838
212847 35 18342454820685123504
21426921 1 18341330114906237759
21652331 79 18334575720207785453
23402539 116 18341887511609006655
23402655 69 18342175587850107270
23557571 272 18200602508769173255
23559900 14 18272370846135808858
245318 6 16593384945082184076
300161 21 18410849980134994514
3545911 37 18412548712593674212
4214541 1 18410574002336608066
5104073 3 18407758149142975354
542803 24 17675926525573285462
573450 72 18334563668555972514
633830 44 18187081771844766390
6430166 295 18410008810415559002
77779 3 18410013260408106382
90127 26 18335713757982142698
9709674 26 18412552032583100734

>  <PUBCHEM_SHAPE_MULTIPOLES>  (1) 
284.98
11.38
1.76
0.57
5.58
0.16
0
4.68
0.07
-1.38
0
-0.01
-0.04
0.05

>  <PUBCHEM_SHAPE_SELFOVERLAP>  (1) 
618.383

>  <PUBCHEM_SHAPE_VOLUME>  (1) 
157.1

>  <PUBCHEM_COORDINATE_TYPE>  (1) 
2
5
10

$$$$
