13287
     RDKit          3D

 18 20  0  0  0  0  0  0  0  0999 V2000
    5.1534   -2.1729   -0.0052 Cl  0  0  0  0  0  0  0  0  0  0  0  0
    0.9426    1.9539    0.0088 O   0  0  0  0  0  0  0  0  0  0  0  0
   -1.2600    2.5457   -0.0309 O   0  0  0  0  0  0  0  0  0  0  0  0
   -4.8983   -0.9496    0.0161 N   0  0  0  0  0  0  0  0  0  0  0  0
    1.5673   -0.3917   -0.0045 C   0  0  0  0  0  0  0  0  0  0  0  0
   -0.7905    0.2132   -0.0148 C   0  0  0  0  0  0  0  0  0  0  0  0
    1.9286    0.9500    0.0072 C   0  0  0  0  0  0  0  0  0  0  0  0
    0.1555   -0.7384   -0.0100 C   0  0  0  0  0  0  0  0  0  0  0  0
   -2.2094   -0.1891   -0.0041 C   0  0  0  0  0  0  0  0  0  0  0  0
   -0.4172    1.6543   -0.0108 C   0  0  0  0  0  0  0  0  0  0  0  0
    2.5733   -1.3611   -0.0070 C   0  0  0  0  0  0  0  0  0  0  0  0
    3.2630    1.3510    0.0162 C   0  0  0  0  0  0  0  0  0  0  0  0
    3.9167   -0.9749    0.0017 C   0  0  0  0  0  0  0  0  0  0  0  0
    4.2606    0.3786    0.0133 C   0  0  0  0  0  0  0  0  0  0  0  0
   -2.8743   -0.3675    1.2034 C   0  0  0  0  0  0  0  0  0  0  0  0
   -2.8862   -0.3901   -1.2016 C   0  0  0  0  0  0  0  0  0  0  0  0
   -4.2069   -0.7448    1.1597 C   0  0  0  0  0  0  0  0  0  0  0  0
   -4.2181   -0.7665   -1.1378 C   0  0  0  0  0  0  0  0  0  0  0  0
  1 13  1  0
  2  7  1  0
  2 10  1  0
  3 10  2  0
  4 17  2  0
  4 18  1  0
  5  7  2  0
  5  8  1  0
  5 11  1  0
  6  8  2  0
  6  9  1  0
  6 10  1  0
  7 12  1  0
  9 15  2  0
  9 16  1  0
 11 13  2  0
 12 14  2  0
 13 14  1  0
 15 17  1  0
 16 18  2  0
M  END
>  <PUBCHEM_COMPOUND_CID>  (1) 
13287

>  <PUBCHEM_CONFORMER_RMSD>  (1) 
0.6

>  <PUBCHEM_CONFORMER_DIVERSEORDER>  (1) 
1
2

>  <PUBCHEM_MMFF94_PARTIAL_CHARGES>  (1) 
26
1 -0.18
10 0.71
11 -0.15
12 -0.15
13 0.18
14 -0.15
15 -0.15
16 -0.15
17 0.16
18 0.16
19 0.15
2 -0.23
20 0.15
21 0.15
22 0.15
23 0.15
24 0.15
25 0.15
26 0.15
3 -0.57
4 -0.62
5 0.03
6 -0.01
7 0.08
8 -0.18
9 0.03

>  <PUBCHEM_EFFECTIVE_ROTOR_COUNT>  (1) 
1

>  <PUBCHEM_PHARMACOPHORE_FEATURES>  (1) 
5
1 3 acceptor
1 4 acceptor
6 2 5 6 7 8 10 rings
6 4 9 15 16 17 18 rings
6 5 7 11 12 13 14 rings

>  <PUBCHEM_HEAVY_ATOM_COUNT>  (1) 
18

>  <PUBCHEM_ATOM_DEF_STEREO_COUNT>  (1) 
0

>  <PUBCHEM_ATOM_UDEF_STEREO_COUNT>  (1) 
0

>  <PUBCHEM_BOND_DEF_STEREO_COUNT>  (1) 
0

>  <PUBCHEM_BOND_UDEF_STEREO_COUNT>  (1) 
0

>  <PUBCHEM_ISOTOPIC_ATOM_COUNT>  (1) 
0

>  <PUBCHEM_COMPONENT_COUNT>  (1) 
1

>  <PUBCHEM_CACTVS_TAUTO_COUNT>  (1) 
1

>  <PUBCHEM_CONFORMER_ID>  (1) 
000033E700000001

>  <PUBCHEM_MMFF94_ENERGY>  (1) 
60.0733

>  <PUBCHEM_FEATURE_SELFOVERLAP>  (1) 
25.399

>  <PUBCHEM_SHAPE_FINGERPRINT>  (1) 
10014705 185 10159683682275528106
11471102 20 18336826489265950580
11796584 16 17095233722522838650
12032990 46 18407762525635241962
12236239 1 17846782940433315027
12553582 1 18342175583222817670
13134695 92 18341610472906634309
13140716 1 17907576179389000248
13544653 18 18408042913679336716
13760787 5 18411420630621879862
13862211 1 18410851041087531214
14115302 16 17604158111198360302
14289901 80 15123513648168080420
14386348 63 18040436628734656739
14739800 52 16199576034935761352
15196674 1 18410855430454001708
15375462 189 18131071562413457784
16945 1 18338799030258862924
17357779 13 18261098686807533853
1813 80 18270977785650207996
18186145 218 17385722495578873137
18222031 100 18272078409611216166
193927 3 18337117765653774070
19784866 140 18187081719830178082
200 152 18413384332624597583
20281475 54 18272930552623783926
20645477 70 18408036321173926438
21267235 1 18411426085768779606
221490 88 18408887300577320036
22646028 1 18060136552615176935
23175994 123 18113902680293890573
23402539 116 18412540977099299735
23559900 14 17894630366226984626
25147074 1 18339378370140009512
26918003 58 18113616806706120987
2748010 2 18339353055518215164
2871803 45 18259982652450911306
312423 11 18337403651540519476
3286 77 17346589794477870626
34797466 226 16371018432957401430
465052 167 18342182193019750439
474 4 17628061614377606024
5104073 3 18268706122366906256
5281201 14 17821728346900151108
573450 72 17132116848993481531
602551 16 15194996214778281471
77492 1 17703515505781594573
83771 10 18342457036545363088
9709674 26 18408325475657377986

>  <PUBCHEM_SHAPE_MULTIPOLES>  (1) 
355.58
10.07
1.98
0.92
0.39
0.76
0.01
-5.71
0.05
1.49
-0.01
-1.12
-0.19
0.01

>  <PUBCHEM_SHAPE_SELFOVERLAP>  (1) 
780.867

>  <PUBCHEM_SHAPE_VOLUME>  (1) 
191.4

>  <PUBCHEM_COORDINATE_TYPE>  (1) 
2
5
10

$$$$
