13283
     RDKit          3D

 17 18  0  0  0  0  0  0  0  0999 V2000
   -4.7740   -0.0081   -1.3868 N   0  0  0  0  0  0  0  0  0  0  0  0
    4.7718   -0.0086   -1.3866 N   0  0  0  0  0  0  0  0  0  0  0  0
   -0.0011    0.6920    1.6366 C   0  0  0  0  0  0  0  0  0  0  0  0
   -1.2514    0.5034    0.8458 C   0  0  0  0  0  0  0  0  0  0  0  0
    1.2694    0.5003    0.8332 C   0  0  0  0  0  0  0  0  0  0  0  0
   -1.8365   -0.7596    0.7563 C   0  0  0  0  0  0  0  0  0  0  0  0
    1.8340   -0.7599    0.7562 C   0  0  0  0  0  0  0  0  0  0  0  0
   -3.0060   -0.9356    0.0166 C   0  0  0  0  0  0  0  0  0  0  0  0
    3.0034   -0.9360    0.0165 C   0  0  0  0  0  0  0  0  0  0  0  0
   -1.8357    1.5904    0.1958 C   0  0  0  0  0  0  0  0  0  0  0  0
    1.8336    1.5903    0.1961 C   0  0  0  0  0  0  0  0  0  0  0  0
   -3.5904    0.1513   -0.6333 C   0  0  0  0  0  0  0  0  0  0  0  0
    3.5878    0.1509   -0.6336 C   0  0  0  0  0  0  0  0  0  0  0  0
   -3.0052    1.4144   -0.5437 C   0  0  0  0  0  0  0  0  0  0  0  0
    3.0030    1.4141   -0.5438 C   0  0  0  0  0  0  0  0  0  0  0  0
   -3.6114   -2.2994   -0.0625 C   0  0  0  0  0  0  0  0  0  0  0  0
    3.6086   -2.2998   -0.0627 C   0  0  0  0  0  0  0  0  0  0  0  0
  1 12  1  0
  2 13  1  0
  3  4  1  0
  3  5  1  0
  4  6  2  0
  4 10  1  0
  5  7  2  0
  5 11  1  0
  6  8  1  0
  7  9  1  0
  8 12  2  0
  8 16  1  0
  9 13  2  0
  9 17  1  0
 10 14  2  0
 11 15  2  0
 12 14  1  0
 13 15  1  0
M  END
>  <PUBCHEM_COMPOUND_CID>  (1) 
13283

>  <PUBCHEM_CONFORMER_RMSD>  (1) 
0.6

>  <PUBCHEM_CONFORMER_DIVERSEORDER>  (1) 
1
4
7
10
8
5
11
6
9
2
3

>  <PUBCHEM_MMFF94_PARTIAL_CHARGES>  (1) 
27
1 -0.9
10 -0.15
11 -0.15
12 0.1
13 0.1
14 -0.15
15 -0.15
16 0.14
17 0.14
2 -0.9
20 0.15
21 0.15
22 0.15
23 0.15
24 0.15
25 0.15
3 0.29
32 0.4
33 0.4
34 0.4
35 0.4
4 -0.14
5 -0.14
6 -0.15
7 -0.15
8 -0.14
9 -0.14

>  <PUBCHEM_EFFECTIVE_ROTOR_COUNT>  (1) 
2

>  <PUBCHEM_PHARMACOPHORE_FEATURES>  (1) 
6
1 1 cation
1 1 donor
1 2 cation
1 2 donor
6 4 6 8 10 12 14 rings
6 5 7 9 11 13 15 rings

>  <PUBCHEM_HEAVY_ATOM_COUNT>  (1) 
17

>  <PUBCHEM_ATOM_DEF_STEREO_COUNT>  (1) 
0

>  <PUBCHEM_ATOM_UDEF_STEREO_COUNT>  (1) 
0

>  <PUBCHEM_BOND_DEF_STEREO_COUNT>  (1) 
0

>  <PUBCHEM_BOND_UDEF_STEREO_COUNT>  (1) 
0

>  <PUBCHEM_ISOTOPIC_ATOM_COUNT>  (1) 
0

>  <PUBCHEM_COMPONENT_COUNT>  (1) 
1

>  <PUBCHEM_CACTVS_TAUTO_COUNT>  (1) 
1

>  <PUBCHEM_CONFORMER_ID>  (1) 
000033E300000001

>  <PUBCHEM_MMFF94_ENERGY>  (1) 
67.6076

>  <PUBCHEM_FEATURE_SELFOVERLAP>  (1) 
30.446

>  <PUBCHEM_SHAPE_FINGERPRINT>  (1) 
10498660 4 16732695052210287893
11543360 7 18261114101223346244
12363563 72 16773792584674083969
12507560 40 8790616908920190752
12553582 1 18060147526219688906
12670546 177 18259984885543644684
12707595 3 17489585688169311544
12892183 10 11095881583765611271
13296908 3 16702297940605570728
13675066 3 12607407710882117601
13705890 14 18272091604288696296
14250199 8 17968385635787532924
14576447 43 18413393150735950694
15209289 33 13758364362224229740
15239191 94 16845296063532588165
15342168 16 13335014955201558575
16752209 62 17988917830473175187
1798214 20 18202279191087164910
1813 80 15123522431751150224
18186145 218 18409167727091458905
193927 3 17346052107833171366
19862831 5 18186801374371597016
200 152 18060139838196443776
20281475 54 18272371988190765707
20361792 2 16559029402369074129
20645477 70 17489579108343003197
20671657 53 18202563956172699112
20871999 31 18187359982835963275
21503847 285 8718826509709743234
21713013 43 18339643442346057439
21864079 5 15430314707077972061
221490 88 18337960090123118618
22393880 68 18409735045511825950
22646028 28 17561367270476408308
231179 274 13840264810281917892
23402539 116 17022901264027143020
23402655 69 18113618958622107108
23557571 272 17168720754844079011
23559900 14 18339915008828214376
27216 239 10737290160228671967
2838139 119 16371868412150465092
2871803 45 18338234989230741707
3082319 5 18334576832403601760
4028521 119 17313098636057537453
4280585 95 17692259539114171614
465052 167 17131270306945017231
4921388 177 17386014991768960347
5161694 15 18041277677556730231
5281201 14 17967257498202241823
58051976 100 18412830191897072221
633830 44 16732989678223910128
90316 7 12967141527185387947
93112 12 18335419071242813793
9709674 26 18334296517026142546

>  <PUBCHEM_SHAPE_MULTIPOLES>  (1) 
339.89
9.03
2.03
1.19
0.03
0.76
0.07
2.45
-4.34
0
-0.03
0
-0.17
0

>  <PUBCHEM_SHAPE_SELFOVERLAP>  (1) 
727.736

>  <PUBCHEM_SHAPE_VOLUME>  (1) 
189.8

>  <PUBCHEM_COORDINATE_TYPE>  (1) 
2
5
10

$$$$
