13284
     RDKit          3D

 17 18  0  0  0  0  0  0  0  0999 V2000
    4.9076    0.2014   -0.0176 N   0  0  0  0  0  0  0  0  0  0  0  0
    3.5098    0.0128   -0.0043 C   0  0  0  0  0  0  0  0  0  0  0  0
    0.7641   -0.3570    0.0248 C   0  0  0  0  0  0  0  0  0  0  0  0
    2.6648    1.0256   -0.4582 C   0  0  0  0  0  0  0  0  0  0  0  0
    2.9724   -1.1859    0.4644 C   0  0  0  0  0  0  0  0  0  0  0  0
    1.2825    0.8394   -0.4434 C   0  0  0  0  0  0  0  0  0  0  0  0
    1.5901   -1.3723    0.4790 C   0  0  0  0  0  0  0  0  0  0  0  0
   -0.6962   -0.5533    0.0399 C   0  0  0  0  0  0  0  0  0  0  0  0
    5.4707    1.5275    0.1405 C   0  0  0  0  0  0  0  0  0  0  0  0
    5.7992   -0.9302   -0.1756 C   0  0  0  0  0  0  0  0  0  0  0  0
   -3.0588    0.2448   -0.0040 C   0  0  0  0  0  0  0  0  0  0  0  0
   -1.6173    0.4386    0.0006 C   0  0  0  0  0  0  0  0  0  0  0  0
   -3.5959   -0.9861   -0.3812 C   0  0  0  0  0  0  0  0  0  0  0  0
   -3.9042    1.2897    0.3688 C   0  0  0  0  0  0  0  0  0  0  0  0
   -4.9783   -1.1719   -0.3856 C   0  0  0  0  0  0  0  0  0  0  0  0
   -5.2866    1.1039    0.3646 C   0  0  0  0  0  0  0  0  0  0  0  0
   -5.8238   -0.1269   -0.0126 C   0  0  0  0  0  0  0  0  0  0  0  0
  1  2  1  0
  1  9  1  0
  1 10  1  0
  2  4  2  0
  2  5  1  0
  3  6  2  0
  3  7  1  0
  3  8  1  0
  4  6  1  0
  5  7  2  0
  8 12  2  0
 11 12  1  0
 11 13  2  0
 11 14  1  0
 13 15  1  0
 14 16  2  0
 15 17  2  0
 16 17  1  0
M  END
>  <PUBCHEM_COMPOUND_CID>  (1) 
13284

>  <PUBCHEM_CONFORMER_RMSD>  (1) 
0.6

>  <PUBCHEM_CONFORMER_DIVERSEORDER>  (1) 
2
1

>  <PUBCHEM_MMFF94_PARTIAL_CHARGES>  (1) 
28
1 -0.84
10 0.37
11 0.03
12 -0.18
13 -0.15
14 -0.15
15 -0.15
16 -0.15
17 -0.15
18 0.15
19 0.15
2 0.1
20 0.15
21 0.15
22 0.15
29 0.15
3 0.03
30 0.15
31 0.15
32 0.15
33 0.15
34 0.15
4 -0.15
5 -0.15
6 -0.15
7 -0.15
8 -0.18
9 0.37

>  <PUBCHEM_EFFECTIVE_ROTOR_COUNT>  (1) 
3

>  <PUBCHEM_PHARMACOPHORE_FEATURES>  (1) 
3
1 1 cation
6 11 13 14 15 16 17 rings
6 2 3 4 5 6 7 rings

>  <PUBCHEM_HEAVY_ATOM_COUNT>  (1) 
17

>  <PUBCHEM_ATOM_DEF_STEREO_COUNT>  (1) 
0

>  <PUBCHEM_ATOM_UDEF_STEREO_COUNT>  (1) 
0

>  <PUBCHEM_BOND_DEF_STEREO_COUNT>  (1) 
0

>  <PUBCHEM_BOND_UDEF_STEREO_COUNT>  (1) 
1

>  <PUBCHEM_ISOTOPIC_ATOM_COUNT>  (1) 
0

>  <PUBCHEM_COMPONENT_COUNT>  (1) 
1

>  <PUBCHEM_CACTVS_TAUTO_COUNT>  (1) 
1

>  <PUBCHEM_CONFORMER_ID>  (1) 
000033E400000002

>  <PUBCHEM_MMFF94_ENERGY>  (1) 
67.1504

>  <PUBCHEM_FEATURE_SELFOVERLAP>  (1) 
15.223

>  <PUBCHEM_SHAPE_FINGERPRINT>  (1) 
10354089 29 18187367623033955320
10595046 47 18412824694286153299
10912923 1 18411133615422363115
10968037 39 18411417332952198703
11287383 113 17988925591373492878
11315181 36 18202284714958530577
12107183 9 17618221706989422001
12236239 1 18342457045119382511
13167823 11 18411135836041975415
13533116 47 17240756234570179954
13862211 1 18187079530045638442
14123238 8 18113617880563885345
1420 363 18113904866015532307
14251718 22 18272651268286031523
14251732 16 18339360876262874715
14251764 18 18334572452512678632
14528608 73 18410856585763086300
15196674 1 18410292501590087136
17834072 33 18341894099624491270
17834076 25 18408604755547052322
17844677 252 18273221880345402272
18681886 176 18272083933350394762
200 152 18412544319037315859
20279233 1 15791734087939183107
20281389 69 18409166597473186537
20645477 70 18337108952201774950
21033648 29 15936956544248386949
21054139 6 18336821000335338775
21065198 48 18338232666117346603
21267235 1 18409455790843419823
21641784 216 16806180847670833388
21709351 56 18333445452424490549
220451 1 17676207957173393234
23035841 295 18343021073072970642
23402539 116 18273492377527862965
23402655 69 18411979152585461615
23536379 177 18201720639370178202
23557571 272 17346323652592753753
23559900 14 18269546290842269385
26918003 58 17240488013651579913
2916195 48 18201994482343283848
29717793 49 18202566159374487740
300161 21 18335133181472161533
34797466 226 17203055187481399276
3545911 37 18410013226127209987
4073 2 18113624524820764274
4214541 1 18411699872801282269
42788 4 18413108359500967084
4463277 17 18411418410145133516
5104073 3 18408040693223469467
542803 24 17703792513602024809
67856867 119 18337391672655678693
7495541 125 17060052709045443730
77779 3 18411419492962019843
9971528 1 18113902654450175516
9981440 41 17255120571697260000

>  <PUBCHEM_SHAPE_MULTIPOLES>  (1) 
344.87
15.05
1.46
0.7
0.85
0.06
0
1.25
-0.01
-0.33
-0.06
0.04
-0.01
-0.59

>  <PUBCHEM_SHAPE_SELFOVERLAP>  (1) 
731.066

>  <PUBCHEM_SHAPE_VOLUME>  (1) 
193.2

>  <PUBCHEM_COORDINATE_TYPE>  (1) 
2
5
10

$$$$
