1328
     RDKit          3D

 21 23  0  0  0  0  0  0  0  0999 V2000
    4.0317    1.2983   -0.4594 O   0  0  0  0  0  0  0  0  0  0  0  0
    1.8121   -2.8002    0.1085 O   0  0  0  0  0  0  0  0  0  0  0  0
    1.7067    1.3107   -0.3606 N   0  0  0  0  0  0  0  0  0  0  0  0
    2.9500   -0.7596   -0.1754 N   0  0  0  0  0  0  0  0  0  0  0  0
   -0.7051   -1.1990    0.0321 N   0  0  0  0  0  0  0  0  0  0  0  0
   -0.7326    1.0157   -0.2220 N   0  0  0  0  0  0  0  0  0  0  0  0
    0.5544    0.5489   -0.2239 C   0  0  0  0  0  0  0  0  0  0  0  0
    0.5998   -0.8098   -0.0695 C   0  0  0  0  0  0  0  0  0  0  0  0
    2.9722    0.6723   -0.3419 C   0  0  0  0  0  0  0  0  0  0  0  0
    1.7999   -1.5807   -0.0317 C   0  0  0  0  0  0  0  0  0  0  0  0
    1.6161    2.7566   -0.5224 C   0  0  0  0  0  0  0  0  0  0  0  0
   -1.4692   -0.0649   -0.0655 C   0  0  0  0  0  0  0  0  0  0  0  0
    4.2429   -1.4353   -0.1523 C   0  0  0  0  0  0  0  0  0  0  0  0
   -2.9101   -0.1075    0.0023 C   0  0  0  0  0  0  0  0  0  0  0  0
    1.6418    3.4672    0.8151 C   0  0  0  0  0  0  0  0  0  0  0  0
    4.7941   -1.5307    1.2554 C   0  0  0  0  0  0  0  0  0  0  0  0
   -3.6155    0.9802    0.5165 C   0  0  0  0  0  0  0  0  0  0  0  0
   -3.5966   -1.2360   -0.4455 C   0  0  0  0  0  0  0  0  0  0  0  0
   -5.0082    0.9393    0.5833 C   0  0  0  0  0  0  0  0  0  0  0  0
   -4.9893   -1.2767   -0.3789 C   0  0  0  0  0  0  0  0  0  0  0  0
   -5.6950   -0.1890    0.1356 C   0  0  0  0  0  0  0  0  0  0  0  0
  1  9  2  0
  2 10  2  0
  3  7  1  0
  3  9  1  0
  3 11  1  0
  4  9  1  0
  4 10  1  0
  4 13  1  0
  5  8  1  0
  5 12  1  0
  6  7  1  0
  6 12  2  0
  7  8  2  0
  8 10  1  0
 11 15  1  0
 12 14  1  0
 13 16  1  0
 14 17  2  0
 14 18  1  0
 17 19  1  0
 18 20  2  0
 19 21  2  0
 20 21  1  0
M  END
>  <PUBCHEM_COMPOUND_CID>  (1) 
1328

>  <PUBCHEM_CONFORMER_RMSD>  (1) 
0.6

>  <PUBCHEM_CONFORMER_DIVERSEORDER>  (1) 
2
1
3
6
4
5

>  <PUBCHEM_MMFF94_PARTIAL_CHARGES>  (1) 
25
1 -0.57
10 0.71
11 0.3
12 0.13
13 0.3
14 0.05
17 -0.15
18 -0.15
19 -0.15
2 -0.57
20 -0.15
21 -0.15
24 0.27
3 -0.42
33 0.15
34 0.15
35 0.15
36 0.15
37 0.15
4 -0.42
5 0.03
6 -0.57
7 0.29
8 -0.24
9 0.69

>  <PUBCHEM_EFFECTIVE_ROTOR_COUNT>  (1) 
3

>  <PUBCHEM_PHARMACOPHORE_FEATURES>  (1) 
7
1 1 acceptor
1 2 acceptor
1 5 donor
3 5 6 12 cation
5 5 6 7 8 12 rings
6 14 17 18 19 20 21 rings
6 3 4 7 8 9 10 rings

>  <PUBCHEM_HEAVY_ATOM_COUNT>  (1) 
21

>  <PUBCHEM_ATOM_DEF_STEREO_COUNT>  (1) 
0

>  <PUBCHEM_ATOM_UDEF_STEREO_COUNT>  (1) 
0

>  <PUBCHEM_BOND_DEF_STEREO_COUNT>  (1) 
0

>  <PUBCHEM_BOND_UDEF_STEREO_COUNT>  (1) 
0

>  <PUBCHEM_ISOTOPIC_ATOM_COUNT>  (1) 
0

>  <PUBCHEM_COMPONENT_COUNT>  (1) 
1

>  <PUBCHEM_CACTVS_TAUTO_COUNT>  (1) 
3

>  <PUBCHEM_CONFORMER_ID>  (1) 
0000053000000002

>  <PUBCHEM_MMFF94_ENERGY>  (1) 
35.3355

>  <PUBCHEM_FEATURE_SELFOVERLAP>  (1) 
35.635

>  <PUBCHEM_SHAPE_FINGERPRINT>  (1) 
10616163 171 18270965768954628111
10688039 33 17822292340552295948
1100329 8 18409726296379198378
11405975 8 18411422843194727691
11471102 20 18408605876538706983
12107183 9 17692538814950562291
12236239 1 18131070420026061799
12403259 226 18335695057552520405
12616971 3 18201442506453010791
13140716 1 18265329684654716674
13167823 11 18342739646026618199
13533116 47 18338800130302987315
13862211 1 18334854974829036802
14790565 3 18047481298814348132
15196674 1 18410294718046439055
15442244 35 18340210666039877377
15536298 74 18341896302921582671
15927050 60 17981042235269100772
17492 89 18267022941563564847
17834072 33 18413108377240200487
18186145 218 17749103418216709883
18222031 100 18340491071601594206
18681886 176 18202279225552813994
19050596 39 18412827984516062043
200 152 18343582958533710095
20028762 73 18343577456148789943
20612939 158 18334017202602279821
20645477 70 18335422356856203390
21033648 29 17385990802718799709
21267235 1 18338807727335632774
21641784 216 17750818557609028988
21709351 56 18412820279402677911
221490 88 18264214767185211971
2255824 54 18337114565438694268
23402539 116 18340480067383646543
23558518 356 17686616157980964630
23559900 14 18412820309398779473
3004659 81 18187932746815997470
3286 77 18335419079869775949
335352 9 18410013204309722967
345986 75 17971455335329808248
34797466 226 16630530682067048937
350125 39 18410858750722476749
3886686 26 16532259288489943098
4214541 1 18411420588458268221
474 4 18189618426631889109
5104073 3 18339930411097513267
543358 83 18411990143517522289
602551 16 15625649631138261631
6443956 14 18410860927975172116
67856867 119 18270955860243042713
7364860 26 18340768233982655776
8272917 22 18410863169641996191
84936 182 18057043729538634833
9709674 26 18411145757575022591
9971528 1 18343584019110933966
9981440 41 17547282762664085880

>  <PUBCHEM_SHAPE_MULTIPOLES>  (1) 
400.51
10.94
2.82
0.8
9.3
1.79
-0.12
-3.05
-1.33
-2.98
-0.31
-0.31
0.06
-0.92

>  <PUBCHEM_SHAPE_SELFOVERLAP>  (1) 
870.664

>  <PUBCHEM_SHAPE_VOLUME>  (1) 
218.9

>  <PUBCHEM_COORDINATE_TYPE>  (1) 
2
5
10

$$$$
