13299
     RDKit          3D

 19 20  0  0  0  0  0  0  0  0999 V2000
   -7.1586    0.0887    0.0595 O   0  0  0  0  0  0  0  0  0  0  0  0
    5.3769    1.8070    0.3830 O   0  0  0  0  0  0  0  0  0  0  0  0
    4.9042   -0.4409   -0.1472 N   0  0  0  0  0  0  0  0  0  0  0  0
    0.7258   -0.6360   -0.0080 C   0  0  0  0  0  0  0  0  0  0  0  0
    3.5109   -0.5058   -0.1019 C   0  0  0  0  0  0  0  0  0  0  0  0
    1.3768    0.5691    0.2555 C   0  0  0  0  0  0  0  0  0  0  0  0
    1.4672   -1.7760   -0.3184 C   0  0  0  0  0  0  0  0  0  0  0  0
   -3.0327    0.2864   -0.0241 C   0  0  0  0  0  0  0  0  0  0  0  0
   -0.7262   -0.7039    0.0406 C   0  0  0  0  0  0  0  0  0  0  0  0
    2.7693    0.6342    0.2085 C   0  0  0  0  0  0  0  0  0  0  0  0
    2.8598   -1.7110   -0.3654 C   0  0  0  0  0  0  0  0  0  0  0  0
   -1.5612    0.3579   -0.0539 C   0  0  0  0  0  0  0  0  0  0  0  0
   -3.6475   -0.8325    0.5135 C   0  0  0  0  0  0  0  0  0  0  0  0
   -3.7726    1.3407   -0.5344 C   0  0  0  0  0  0  0  0  0  0  0  0
   -5.0404   -0.8992    0.5414 C   0  0  0  0  0  0  0  0  0  0  0  0
   -5.1657    1.2742   -0.5064 C   0  0  0  0  0  0  0  0  0  0  0  0
   -5.7997    0.1542    0.0316 C   0  0  0  0  0  0  0  0  0  0  0  0
    5.7264    0.6690    0.0871 C   0  0  0  0  0  0  0  0  0  0  0  0
    7.1871    0.3239   -0.0610 C   0  0  0  0  0  0  0  0  0  0  0  0
  1 17  1  0
  2 18  2  0
  3  5  1  0
  3 18  1  0
  4  6  2  0
  4  7  1  0
  4  9  1  0
  5 10  2  0
  5 11  1  0
  6 10  1  0
  7 11  2  0
  8 12  1  0
  8 13  2  0
  8 14  1  0
  9 12  2  0
 13 15  1  0
 14 16  2  0
 15 17  2  0
 16 17  1  0
 18 19  1  0
M  END
>  <PUBCHEM_COMPOUND_CID>  (1) 
13299

>  <PUBCHEM_CONFORMER_RMSD>  (1) 
0.6

>  <PUBCHEM_CONFORMER_DIVERSEORDER>  (1) 
1
3
2
4

>  <PUBCHEM_MMFF94_PARTIAL_CHARGES>  (1) 
31
1 -0.53
10 -0.15
11 -0.15
12 -0.18
13 -0.15
14 -0.15
15 -0.15
16 -0.15
17 0.08
18 0.57
19 0.06
2 -0.57
20 0.15
21 0.15
22 0.15
23 0.15
24 0.15
25 0.15
26 0.15
27 0.15
28 0.37
29 0.15
3 -0.55
30 0.15
34 0.45
4 0.03
5 0.12
6 -0.15
7 -0.15
8 0.03
9 -0.18

>  <PUBCHEM_EFFECTIVE_ROTOR_COUNT>  (1) 
4

>  <PUBCHEM_PHARMACOPHORE_FEATURES>  (1) 
5
1 1 donor
1 2 acceptor
1 3 donor
6 4 5 6 7 10 11 rings
6 8 13 14 15 16 17 rings

>  <PUBCHEM_HEAVY_ATOM_COUNT>  (1) 
19

>  <PUBCHEM_ATOM_DEF_STEREO_COUNT>  (1) 
0

>  <PUBCHEM_ATOM_UDEF_STEREO_COUNT>  (1) 
0

>  <PUBCHEM_BOND_DEF_STEREO_COUNT>  (1) 
0

>  <PUBCHEM_BOND_UDEF_STEREO_COUNT>  (1) 
1

>  <PUBCHEM_ISOTOPIC_ATOM_COUNT>  (1) 
0

>  <PUBCHEM_COMPONENT_COUNT>  (1) 
1

>  <PUBCHEM_CACTVS_TAUTO_COUNT>  (1) 
4

>  <PUBCHEM_CONFORMER_ID>  (1) 
000033F300000001

>  <PUBCHEM_MMFF94_ENERGY>  (1) 
59.5099

>  <PUBCHEM_FEATURE_SELFOVERLAP>  (1) 
25.371

>  <PUBCHEM_SHAPE_FINGERPRINT>  (1) 
10 15 18261107517645292640
10638233 991 16343702166155893832
10835480 77 18336823083705408573
10968037 39 18410855465325189767
11287383 113 18408324393156697466
11315181 36 18334861623907571681
11719270 70 18342452604830853178
12091667 2 18334858329335164283
12236239 1 16988566779581481819
12730499 353 18342179955721480134
13073987 5 17895755089360124619
13533116 47 16486696861805127710
14123256 10 17703790319063673200
14251718 22 18408604755916252435
14251732 16 18409167744361018075
14341114 176 18410017611156989383
14933364 13 18409168818255835772
16079462 125 18187917366174165661
17844677 252 18270408178492046757
18335252 98 18410578405712542155
19489759 90 17240483606999225401
200 152 17989485191653382547
20281389 69 18260544528947591956
20645477 70 18200595769960730935
21150785 3 16415476068945244965
21641784 216 17987817245152016224
21709351 56 18337665412158347565
220451 1 16487252154169080543
22224240 67 18334009519037857242
23198884 109 15410898465581746839
23402539 116 17894628171013419119
23402655 69 18202280277624291447
23559900 14 18410006680776756553
2916195 48 18333166171870157928
300161 21 17676201351914442971
335352 9 18342178878422706294
34797466 226 17988931067161565492
3545911 37 18413388739297966531
4073 2 18040722497315614762
4214541 1 18335984173686993885
42788 4 18408323280681039920
4325135 7 18413105083000161335
4340502 62 17530682109117949322
5104073 3 18188214178536879219
542803 24 16630808798685172387
59682541 35 18334862766241993035
59755656 215 18411985741555923742
59755656 520 17894625985107758970
67856867 119 17895202172292441333

>  <PUBCHEM_SHAPE_MULTIPOLES>  (1) 
374.29
18.09
1.49
0.69
1.6
0.12
0
-4.81
-0.39
0.58
0.1
-0.17
0
0.93

>  <PUBCHEM_SHAPE_SELFOVERLAP>  (1) 
799.153

>  <PUBCHEM_SHAPE_VOLUME>  (1) 
207.5

>  <PUBCHEM_COORDINATE_TYPE>  (1) 
2
5
10

$$$$
