13298
     RDKit          3D

 19 20  0  0  0  0  0  0  0  0999 V2000
    4.7611   -1.8086   -0.1398 O   0  0  0  0  0  0  0  0  0  0  0  0
    4.9163    1.7121    0.1985 O   0  0  0  0  0  0  0  0  0  0  0  0
    4.2008   -0.5061   -0.0284 N   0  0  0  0  0  0  0  0  0  0  0  0
    0.0986    0.2200   -0.0594 C   0  0  0  0  0  0  0  0  0  0  0  0
    2.8268   -0.2624   -0.0378 C   0  0  0  0  0  0  0  0  0  0  0  0
    0.5710   -0.9806    0.4450 C   0  0  0  0  0  0  0  0  0  0  0  0
    0.9618    1.1845   -0.5533 C   0  0  0  0  0  0  0  0  0  0  0  0
    1.9445   -1.2235    0.4560 C   0  0  0  0  0  0  0  0  0  0  0  0
    2.3354    0.9416   -0.5424 C   0  0  0  0  0  0  0  0  0  0  0  0
   -1.3524    0.4768   -0.0707 C   0  0  0  0  0  0  0  0  0  0  0  0
   -3.7458   -0.2192    0.0168 C   0  0  0  0  0  0  0  0  0  0  0  0
   -2.3137   -0.4735    0.0085 C   0  0  0  0  0  0  0  0  0  0  0  0
   -4.2276    1.0452    0.3561 C   0  0  0  0  0  0  0  0  0  0  0  0
   -4.6374   -1.2393   -0.3147 C   0  0  0  0  0  0  0  0  0  0  0  0
    5.1598    0.5100    0.0918 C   0  0  0  0  0  0  0  0  0  0  0  0
   -5.6009    1.2893    0.3643 C   0  0  0  0  0  0  0  0  0  0  0  0
   -6.0108   -0.9952   -0.3067 C   0  0  0  0  0  0  0  0  0  0  0  0
   -6.4925    0.2692    0.0329 C   0  0  0  0  0  0  0  0  0  0  0  0
    6.6049    0.0598    0.0832 C   0  0  0  0  0  0  0  0  0  0  0  0
  1  3  1  0
  2 15  2  0
  3  5  1  0
  3 15  1  0
  4  6  2  0
  4  7  1  0
  4 10  1  0
  5  8  2  0
  5  9  1  0
  6  8  1  0
  7  9  2  0
 10 12  2  0
 11 12  1  0
 11 13  2  0
 11 14  1  0
 13 16  1  0
 14 17  2  0
 15 19  1  0
 16 18  2  0
 17 18  1  0
M  END
>  <PUBCHEM_COMPOUND_CID>  (1) 
13298

>  <PUBCHEM_CONFORMER_RMSD>  (1) 
0.6

>  <PUBCHEM_CONFORMER_DIVERSEORDER>  (1) 
3
6
5
13
9
10
15
2
7
14
11
12
4
8
1

>  <PUBCHEM_MMFF94_PARTIAL_CHARGES>  (1) 
31
1 -0.44
10 -0.18
11 0.03
12 -0.18
13 -0.15
14 -0.15
15 0.57
16 -0.15
17 -0.15
18 -0.15
19 0.06
2 -0.57
20 0.15
21 0.15
22 0.15
23 0.15
24 0.15
25 0.15
26 0.15
27 0.15
28 0.15
29 0.15
3 -0.14
30 0.15
34 0.4
4 0.03
5 0.12
6 -0.15
7 -0.15
8 -0.15
9 -0.15

>  <PUBCHEM_EFFECTIVE_ROTOR_COUNT>  (1) 
4

>  <PUBCHEM_PHARMACOPHORE_FEATURES>  (1) 
3
1 2 acceptor
6 11 13 14 16 17 18 rings
6 4 5 6 7 8 9 rings

>  <PUBCHEM_HEAVY_ATOM_COUNT>  (1) 
19

>  <PUBCHEM_ATOM_DEF_STEREO_COUNT>  (1) 
0

>  <PUBCHEM_ATOM_UDEF_STEREO_COUNT>  (1) 
0

>  <PUBCHEM_BOND_DEF_STEREO_COUNT>  (1) 
0

>  <PUBCHEM_BOND_UDEF_STEREO_COUNT>  (1) 
1

>  <PUBCHEM_ISOTOPIC_ATOM_COUNT>  (1) 
0

>  <PUBCHEM_COMPONENT_COUNT>  (1) 
1

>  <PUBCHEM_CACTVS_TAUTO_COUNT>  (1) 
1

>  <PUBCHEM_CONFORMER_ID>  (1) 
000033F200000003

>  <PUBCHEM_MMFF94_ENERGY>  (1) 
69.9597

>  <PUBCHEM_FEATURE_SELFOVERLAP>  (1) 
15.223

>  <PUBCHEM_SHAPE_FINGERPRINT>  (1) 
10595046 47 18413388748193791299
10968037 39 18410855469541022719
11315181 36 18202284715206443961
12091667 2 18272652359708936563
12107183 9 17619350909995147091
12236239 1 18342176657175592579
12516196 113 18273213105764126897
13167372 99 18341334392266299377
13167823 11 18411135853522460039
13533116 47 17241034419675736466
13862211 1 18113614573776905082
1420 363 17022906739777921563
14251718 22 18273215309440714387
14251732 16 18341893047368137697
14251764 18 18333729131199406520
14251764 46 18411135839893493232
14849402 71 18265900335659534256
14933364 13 18343022194080430017
15048467 5 18343019986477802465
17834072 33 18272087214483791133
17834076 25 18343019995051776264
17844677 252 18342746190918629593
18681886 176 18342733061245440243
19489759 90 17846499223599558201
200 152 18413670214754640753
20281389 69 18408604734642298305
20612939 158 17749677379917964381
20645477 70 18340488868262473918
21054139 6 18336822095768251055
21267235 1 18408611374840787115
21315763 28 18413669119031668921
21641784 216 16661220134873577940
21709351 56 18261105297009966373
22224240 67 18335414695478157026
23035841 295 18410855447317398842
23402539 116 18343299275753879517
23536379 177 18343021077568099331
23559900 14 18342167921597481641
300161 21 18334289856217220115
3004659 81 18410295774972754526
335352 9 18334579062514943510
34797466 226 17131559435179240156
3545911 37 18410012139009899665
4073 2 18114186396716217298
4214541 1 18410856547635966181
42630746 31 18408323285535364838
42788 4 18413108363922554409
4325135 7 18411418418935294596
4340502 62 15068620487718688360
4463277 17 18410573980914668549
5104073 3 18409449185109697555
542803 24 17989205941174319009
59755656 520 17967809478962871699
67856867 119 18339643464027141773
7495541 125 17274818094827185681
9971528 1 18186803586385516004

>  <PUBCHEM_SHAPE_MULTIPOLES>  (1) 
374.29
17.37
1.46
0.69
1.93
0.04
-0.01
-0.54
0.37
-0.24
0.01
0.09
-0.02
-0.47

>  <PUBCHEM_SHAPE_SELFOVERLAP>  (1) 
797.641

>  <PUBCHEM_SHAPE_VOLUME>  (1) 
207.6

>  <PUBCHEM_COORDINATE_TYPE>  (1) 
2
5
10

$$$$
