13293
     RDKit          3D

 18 19  0  0  0  0  0  0  0  0999 V2000
    4.9756    1.8050   -0.3841 O   0  0  0  0  0  0  0  0  0  0  0  0
    4.5040   -0.4451    0.1386 N   0  0  0  0  0  0  0  0  0  0  0  0
    0.3437   -0.6342    0.0268 C   0  0  0  0  0  0  0  0  0  0  0  0
    3.1105   -0.5087    0.1001 C   0  0  0  0  0  0  0  0  0  0  0  0
    0.9753    0.5691   -0.2413 C   0  0  0  0  0  0  0  0  0  0  0  0
    1.0666   -1.7763    0.3308 C   0  0  0  0  0  0  0  0  0  0  0  0
    2.3682    0.6324   -0.2046 C   0  0  0  0  0  0  0  0  0  0  0  0
    2.4596   -1.7132    0.3677 C   0  0  0  0  0  0  0  0  0  0  0  0
   -1.1278   -0.7011   -0.0125 C   0  0  0  0  0  0  0  0  0  0  0  0
   -3.4123    0.2987    0.0301 C   0  0  0  0  0  0  0  0  0  0  0  0
   -1.9602    0.3620    0.0880 C   0  0  0  0  0  0  0  0  0  0  0  0
   -4.0398   -0.8077   -0.5425 C   0  0  0  0  0  0  0  0  0  0  0  0
   -4.1773    1.3443    0.5471 C   0  0  0  0  0  0  0  0  0  0  0  0
   -5.4322   -0.8685   -0.5984 C   0  0  0  0  0  0  0  0  0  0  0  0
   -5.5698    1.2834    0.4913 C   0  0  0  0  0  0  0  0  0  0  0  0
    5.3260    0.6646   -0.0980 C   0  0  0  0  0  0  0  0  0  0  0  0
   -6.1971    0.1770   -0.0814 C   0  0  0  0  0  0  0  0  0  0  0  0
    6.7870    0.3181    0.0423 C   0  0  0  0  0  0  0  0  0  0  0  0
  1 16  2  0
  2  4  1  0
  2 16  1  0
  3  5  2  0
  3  6  1  0
  3  9  1  0
  4  7  2  0
  4  8  1  0
  5  7  1  0
  6  8  2  0
  9 11  2  0
 10 11  1  0
 10 12  2  0
 10 13  1  0
 12 14  1  0
 13 15  2  0
 14 17  2  0
 15 17  1  0
 16 18  1  0
M  END
>  <PUBCHEM_COMPOUND_CID>  (1) 
13293

>  <PUBCHEM_CONFORMER_RMSD>  (1) 
0.6

>  <PUBCHEM_CONFORMER_DIVERSEORDER>  (1) 
3
5
2
4
1

>  <PUBCHEM_MMFF94_PARTIAL_CHARGES>  (1) 
30
1 -0.57
10 0.03
11 -0.18
12 -0.15
13 -0.15
14 -0.15
15 -0.15
16 0.57
17 -0.15
18 0.06
19 0.15
2 -0.55
20 0.15
21 0.15
22 0.15
23 0.15
24 0.15
25 0.37
26 0.15
27 0.15
28 0.15
29 0.15
3 0.03
30 0.15
4 0.12
5 -0.15
6 -0.15
7 -0.15
8 -0.15
9 -0.18

>  <PUBCHEM_EFFECTIVE_ROTOR_COUNT>  (1) 
4

>  <PUBCHEM_PHARMACOPHORE_FEATURES>  (1) 
4
1 1 acceptor
1 2 donor
6 10 12 13 14 15 17 rings
6 3 4 5 6 7 8 rings

>  <PUBCHEM_HEAVY_ATOM_COUNT>  (1) 
18

>  <PUBCHEM_ATOM_DEF_STEREO_COUNT>  (1) 
0

>  <PUBCHEM_ATOM_UDEF_STEREO_COUNT>  (1) 
0

>  <PUBCHEM_BOND_DEF_STEREO_COUNT>  (1) 
0

>  <PUBCHEM_BOND_UDEF_STEREO_COUNT>  (1) 
1

>  <PUBCHEM_ISOTOPIC_ATOM_COUNT>  (1) 
0

>  <PUBCHEM_COMPONENT_COUNT>  (1) 
1

>  <PUBCHEM_CACTVS_TAUTO_COUNT>  (1) 
2

>  <PUBCHEM_CONFORMER_ID>  (1) 
000033ED00000003

>  <PUBCHEM_MMFF94_ENERGY>  (1) 
57.4347

>  <PUBCHEM_FEATURE_SELFOVERLAP>  (1) 
20.297

>  <PUBCHEM_SHAPE_FINGERPRINT>  (1) 
10595046 47 18413106143788582731
10912923 1 18341046329242104555
10968037 39 18413668016158770071
11089746 13 18412825806951851296
11315181 36 18410856586258945385
12091667 2 18202002140364657871
12107183 9 17548137732191927979
12236239 1 18343581824261456367
13167372 99 18338517439444629528
13167823 11 18341047433238772207
13533116 47 17095512956185620602
13631057 29 18340483495622584659
14251718 22 18202846560704364991
14251732 16 18334859458853631939
14251764 18 18335134302875363880
14251764 46 18413669111006106802
14350574 20 11743838062406282698
14528608 73 18341612637443024740
15048467 5 18411699876500170153
17834072 33 18343581849820120671
17834076 25 18342457045414788080
18681886 176 17989198287099583546
200 152 18342454838181490603
20281389 69 18187079559999782556
20645477 70 18269556044180612310
21054139 6 18338791320893144511
21065198 48 18341329986156971515
21267235 1 18272091634712163399
220451 1 17131833157987843215
22224240 67 17821726161189091010
2297311 6 16271928221033611585
23272321 79 18410293627167002249
23402539 116 18131628993465733573
23402655 69 18342736308362281919
23536379 177 17989489602178698014
23559900 14 18271235119264483713
300161 21 18335135367684446215
335352 9 18408044027241619278
34797466 226 16845297189173105508
3545911 37 18410575089343207107
397830 11 15141824953899639548
4073 2 18113905995497304338
4214541 1 18341892957827854729
42630746 31 18409167688980299246
42788 4 18411136935104878957
4325135 7 18413669123854079263
4340502 62 16225764112676018074
474 4 18186804715919567045
5104073 3 18188495666456553091
542803 24 18131068225540197739
5758199 1 18408324397736475544
59755656 520 18040992968681246602
67856867 119 18337673130594906013
7062679 117 18343299301824701407

>  <PUBCHEM_SHAPE_MULTIPOLES>  (1) 
359.58
16.64
1.53
0.7
2.23
0.12
0
-4.94
0.55
0.32
-0.1
-0.26
0.01
-0.99

>  <PUBCHEM_SHAPE_SELFOVERLAP>  (1) 
765.601

>  <PUBCHEM_SHAPE_VOLUME>  (1) 
199.5

>  <PUBCHEM_COORDINATE_TYPE>  (1) 
2
5
10

$$$$
