13294
     RDKit          3D

 19 20  0  0  1  0  0  0  0  0999 V2000
    0.1253   -1.5335   -0.3459 O   0  0  0  0  0  0  0  0  0  0  0  0
    1.0409    2.9369    0.5512 O   0  0  0  0  0  0  0  0  0  0  0  0
   -3.3047    1.5342    0.2086 O   0  0  0  0  0  0  0  0  0  0  0  0
    0.6651    0.7150   -0.0595 N   0  0  0  0  0  0  0  0  0  0  0  0
   -1.1175    2.2226    0.3201 N   0  0  0  0  0  0  0  0  0  0  0  0
    2.0741    0.4202    0.0420 C   0  0  0  0  0  0  0  0  0  0  0  0
    2.3416   -0.5588    1.1883 C   0  0  0  0  0  0  0  0  0  0  0  0
    2.6063   -0.1200   -1.2875 C   0  0  0  0  0  0  0  0  0  0  0  0
    3.8201   -0.9267    1.2796 C   0  0  0  0  0  0  0  0  0  0  0  0
    4.0842   -0.4902   -1.1931 C   0  0  0  0  0  0  0  0  0  0  0  0
    4.3493   -1.4630   -0.0475 C   0  0  0  0  0  0  0  0  0  0  0  0
   -1.6095    0.0890   -0.7251 C   0  0  0  0  0  0  0  0  0  0  0  0
   -2.6040   -1.0637   -0.5953 C   0  0  0  0  0  0  0  0  0  0  0  0
   -0.2074   -0.3478   -0.3417 C   0  0  0  0  0  0  0  0  0  0  0  0
    0.2604    2.0233    0.2705 C   0  0  0  0  0  0  0  0  0  0  0  0
   -2.1135    1.3178   -0.0056 C   0  0  0  0  0  0  0  0  0  0  0  0
   -2.7763   -1.4438    0.8866 C   0  0  0  0  0  0  0  0  0  0  0  0
   -3.9309   -0.6816   -1.2548 C   0  0  0  0  0  0  0  0  0  0  0  0
   -3.7035   -2.6300    1.1093 C   0  0  0  0  0  0  0  0  0  0  0  0
  1 14  2  0
  2 15  2  0
  3 16  2  0
  4  6  1  0
  4 14  1  0
  4 15  1  0
  5 15  1  0
  5 16  1  0
  6  7  1  0
  6  8  1  0
  7  9  1  0
  8 10  1  0
  9 11  1  0
 10 11  1  0
 12 13  1  0
 12 14  1  0
 12 16  1  0
 13 17  1  0
 13 18  1  0
 17 19  1  0
M  END
>  <PUBCHEM_COMPOUND_CID>  (1) 
13294

>  <PUBCHEM_CONFORMER_RMSD>  (1) 
0.6

>  <PUBCHEM_CONFORMER_DIVERSEORDER>  (1) 
4
32
45
37
41
39
54
18
51
48
35
46
25
7
44
43
33
53
3
34
20
47
26
2
15
36
38
11
30
49
5
50
19
9
21
1
28
22
52
27
23
40
24
42
8
13
29
10
12
31
16
6
14
17

>  <PUBCHEM_MMFF94_PARTIAL_CHARGES>  (1) 
11
1 -0.57
12 0.12
14 0.57
15 0.69
16 0.57
2 -0.57
3 -0.57
38 0.37
4 -0.42
5 -0.49
6 0.3

>  <PUBCHEM_EFFECTIVE_ROTOR_COUNT>  (1) 
4.8

>  <PUBCHEM_PHARMACOPHORE_FEATURES>  (1) 
9
1 1 acceptor
1 12 anion
1 18 hydrophobe
1 19 hydrophobe
1 2 acceptor
1 3 acceptor
1 5 donor
6 4 5 12 14 15 16 rings
6 6 7 8 9 10 11 rings

>  <PUBCHEM_HEAVY_ATOM_COUNT>  (1) 
19

>  <PUBCHEM_ATOM_DEF_STEREO_COUNT>  (1) 
0

>  <PUBCHEM_ATOM_UDEF_STEREO_COUNT>  (1) 
2

>  <PUBCHEM_BOND_DEF_STEREO_COUNT>  (1) 
0

>  <PUBCHEM_BOND_UDEF_STEREO_COUNT>  (1) 
0

>  <PUBCHEM_ISOTOPIC_ATOM_COUNT>  (1) 
0

>  <PUBCHEM_COMPONENT_COUNT>  (1) 
1

>  <PUBCHEM_CACTVS_TAUTO_COUNT>  (1) 
3

>  <PUBCHEM_CONFORMER_ID>  (1) 
000033EE00000004

>  <PUBCHEM_MMFF94_ENERGY>  (1) 
39.7951

>  <PUBCHEM_FEATURE_SELFOVERLAP>  (1) 
45.671

>  <PUBCHEM_SHAPE_FINGERPRINT>  (1) 
10062212 137 18336544928173785183
11132069 177 18271802359257295572
11543360 7 16443346515450886950
11578080 2 17678708242884842204
11680986 33 18266730458326789537
12032990 46 18412829100833136166
12236239 1 17968663696987377420
12363563 72 18341893021514042015
12553582 1 18409731742228236051
12633257 1 18268737003123820147
12707595 3 18338799021484188670
12824470 246 17894630374379309682
13103583 49 17975733685703750115
13140716 1 18341897402607849265
13296908 3 18201994426418667548
13538477 17 18261114011371917836
13760787 19 17822016380281515518
14115302 16 18040432174837558165
15848700 24 18202272619803000542
16752209 62 18337662040614534879
16945 1 18269272374638857669
17804303 29 18409169926415225535
18186145 218 17603308137602849286
18222031 100 18059012899192709695
19422 9 18113060428464313878
20281475 54 18113617884758950786
20645477 70 18125709326257488079
21041028 32 18129961068997586673
232386 152 18409728435087782204
2334 1 18269270338835045221
23366157 5 18261670501621439532
23402539 116 18271517599147328254
23557571 272 18129379311524592628
23559900 14 18188481483999897636
2748010 2 18268981141533477805
31174 14 18051981612616611331
5104073 3 18341610391802799242
5902787 121 18409728469584696584
7364860 26 18057880453866607376
77492 1 17896043152922266084
81228 2 18128263272372473680
8809292 202 18408603647788296865

>  <PUBCHEM_SHAPE_MULTIPOLES>  (1) 
363.44
7.81
2.51
1.23
2.13
0.96
-0.07
-4.75
-0.4
-1.47
0.9
0.3
-0.37
0.32

>  <PUBCHEM_SHAPE_SELFOVERLAP>  (1) 
749.455

>  <PUBCHEM_SHAPE_VOLUME>  (1) 
204.4

>  <PUBCHEM_COORDINATE_TYPE>  (1) 
2
5
10

$$$$
