13304
     RDKit          3D

 20 22  0  0  0  0  0  0  0  0999 V2000
    2.6803   -1.5968    1.0586 S   0  0  0  0  0  0  0  0  0  0  0  0
   -4.4795    1.5436    0.5425 N   0  0  0  0  0  0  0  0  0  0  0  0
    0.1470    0.4428    0.1191 C   0  0  0  0  0  0  0  0  0  0  0  0
   -0.3862   -0.8885   -0.2294 C   0  0  0  0  0  0  0  0  0  0  0  0
    0.0107   -2.0074    0.5212 C   0  0  0  0  0  0  0  0  0  0  0  0
    1.5679    0.8430   -0.0538 C   0  0  0  0  0  0  0  0  0  0  0  0
    0.9839   -1.8473    1.6552 C   0  0  0  0  0  0  0  0  0  0  0  0
   -0.7171    1.2964    0.7026 C   0  0  0  0  0  0  0  0  0  0  0  0
    2.6754    0.0427    0.3072 C   0  0  0  0  0  0  0  0  0  0  0  0
   -2.1433    0.9593    0.9998 C   0  0  0  0  0  0  0  0  0  0  0  0
   -1.2795   -1.0447   -1.2992 C   0  0  0  0  0  0  0  0  0  0  0  0
   -0.4921   -3.2721    0.1846 C   0  0  0  0  0  0  0  0  0  0  0  0
   -3.0935    1.8982    0.2576 C   0  0  0  0  0  0  0  0  0  0  0  0
    1.8111    2.0907   -0.6743 C   0  0  0  0  0  0  0  0  0  0  0  0
    3.9756    0.5328    0.0526 C   0  0  0  0  0  0  0  0  0  0  0  0
   -1.7750   -2.3078   -1.6205 C   0  0  0  0  0  0  0  0  0  0  0  0
   -1.3820   -3.4198   -0.8798 C   0  0  0  0  0  0  0  0  0  0  0  0
    3.1041    2.5538   -0.9114 C   0  0  0  0  0  0  0  0  0  0  0  0
    4.1885    1.7745   -0.5444 C   0  0  0  0  0  0  0  0  0  0  0  0
   -5.3965    2.4066   -0.1883 C   0  0  0  0  0  0  0  0  0  0  0  0
  1  7  1  0
  1  9  1  0
  2 13  1  0
  2 20  1  0
  3  4  1  0
  3  6  1  0
  3  8  2  0
  4  5  2  0
  4 11  1  0
  5  7  1  0
  5 12  1  0
  6  9  2  0
  6 14  1  0
  8 10  1  0
  9 15  1  0
 10 13  1  0
 11 16  2  0
 12 17  2  0
 14 18  2  0
 15 19  2  0
 16 17  1  0
 18 19  1  0
M  END
>  <PUBCHEM_COMPOUND_CID>  (1) 
13304

>  <PUBCHEM_CONFORMER_RMSD>  (1) 
0.6

>  <PUBCHEM_CONFORMER_DIVERSEORDER>  (1) 
3
5
13
16
18
17
6
12
19
14
4
11
15
20
1
9
8
7
2
10

>  <PUBCHEM_MMFF94_PARTIAL_CHARGES>  (1) 
30
1 -0.33
10 0.14
11 -0.15
12 -0.15
13 0.27
14 -0.15
15 -0.15
16 -0.15
17 -0.15
18 -0.15
19 -0.15
2 -0.9
20 0.27
23 0.15
26 0.15
29 0.15
3 -0.06
30 0.15
31 0.15
32 0.15
33 0.15
34 0.15
35 0.15
36 0.36
4 0.03
5 -0.14
6 0.03
7 0.37
8 -0.29
9 0.1

>  <PUBCHEM_EFFECTIVE_ROTOR_COUNT>  (1) 
3.4

>  <PUBCHEM_PHARMACOPHORE_FEATURES>  (1) 
5
1 2 cation
1 2 donor
6 4 5 11 12 16 17 rings
6 6 9 14 15 18 19 rings
7 1 3 4 5 6 7 9 rings

>  <PUBCHEM_HEAVY_ATOM_COUNT>  (1) 
20

>  <PUBCHEM_ATOM_DEF_STEREO_COUNT>  (1) 
0

>  <PUBCHEM_ATOM_UDEF_STEREO_COUNT>  (1) 
0

>  <PUBCHEM_BOND_DEF_STEREO_COUNT>  (1) 
0

>  <PUBCHEM_BOND_UDEF_STEREO_COUNT>  (1) 
1

>  <PUBCHEM_ISOTOPIC_ATOM_COUNT>  (1) 
0

>  <PUBCHEM_COMPONENT_COUNT>  (1) 
1

>  <PUBCHEM_CACTVS_TAUTO_COUNT>  (1) 
1

>  <PUBCHEM_CONFORMER_ID>  (1) 
000033F800000003

>  <PUBCHEM_MMFF94_ENERGY>  (1) 
64.3182

>  <PUBCHEM_FEATURE_SELFOVERLAP>  (1) 
25.384

>  <PUBCHEM_SHAPE_FINGERPRINT>  (1) 
104564 63 18196935693362220055
10756046 70 18265601113634505914
1100329 8 18410569548877742994
12173636 292 17899992817469007316
12788726 201 18198335363312029031
13140716 1 18261107522019407336
13149001 5 17560233751488143417
13836976 161 18268987597037855805
14178342 30 18193824054603185688
14955137 171 18120090581284889498
15849732 13 18265609871637312098
15906896 17 18268158723767603755
16752209 62 18129652123267586743
16945 1 18122334946457190738
17138139 8 17772440561475378077
17980427 23 18126817539868787856
17980427 26 17240752944145124601
19591789 44 17834961867484705630
200 152 17835802276699381334
20645476 183 18411983585123703341
20645477 70 18191589645143801737
20739085 24 17836633133532900127
21285901 2 17414738728143749743
21524375 3 18410583867998371609
22620623 9 17631457941186050014
23419403 2 17187071487921533314
23557571 272 17774435126738531760
23558518 356 18046909561209496248
25147074 1 18261944241735804202
266924 87 17403174188859210965
298252 57 18341899571323162529
3060560 45 18267028241151450110
3380486 145 16534553488130401466
394222 165 18262803960448625729
53917941 68 18339070618126107580
6034566 193 17170408569628118932
7164475 11 18197217168612899790
7832392 63 18410293627488742680
81228 2 17907011034385446353
81539 233 18336834065794151421
8272917 22 18191873314632529281
9999458 23 18188497847941249078

>  <PUBCHEM_SHAPE_MULTIPOLES>  (1) 
410.46
7.2
4.08
1.27
3.97
2.07
-0.05
-8.11
-0.26
2.04
-0.71
0.1
0.6
-2.06

>  <PUBCHEM_SHAPE_SELFOVERLAP>  (1) 
866.821

>  <PUBCHEM_SHAPE_VOLUME>  (1) 
229.4

>  <PUBCHEM_COORDINATE_TYPE>  (1) 
2
5
10

$$$$
