13306
     RDKit          3D

 21 23  0  0  1  0  0  0  0  0999 V2000
    0.8580   -0.3068   -1.9568 O   0  0  0  0  0  0  0  0  0  0  0  0
   -2.6132    2.4693   -0.5586 O   0  0  0  0  0  0  0  0  0  0  0  0
    1.0308    1.8738    2.1530 O   0  0  0  0  0  0  0  0  0  0  0  0
    0.9477    0.6426    0.1718 N   0  0  0  0  0  0  0  0  0  0  0  0
   -0.7894    2.1216    0.7960 N   0  0  0  0  0  0  0  0  0  0  0  0
   -1.9766   -0.5580   -0.6977 C   0  0  0  0  0  0  0  0  0  0  0  0
   -1.1495    0.6573   -1.1130 C   0  0  0  0  0  0  0  0  0  0  0  0
    2.2757    0.1280    0.4039 C   0  0  0  0  0  0  0  0  0  0  0  0
   -1.7430   -0.8926    0.7818 C   0  0  0  0  0  0  0  0  0  0  0  0
   -3.4670   -0.3197   -0.9751 C   0  0  0  0  0  0  0  0  0  0  0  0
   -2.5999   -2.0723    1.2351 C   0  0  0  0  0  0  0  0  0  0  0  0
   -4.3213   -1.5004   -0.5187 C   0  0  0  0  0  0  0  0  0  0  0  0
    2.2639   -1.4023    0.4479 C   0  0  0  0  0  0  0  0  0  0  0  0
    3.2457    0.6472   -0.6602 C   0  0  0  0  0  0  0  0  0  0  0  0
   -4.0797   -1.8355    0.9498 C   0  0  0  0  0  0  0  0  0  0  0  0
    0.3155    0.2968   -1.0288 C   0  0  0  0  0  0  0  0  0  0  0  0
    3.6681   -1.9698    0.6386 C   0  0  0  0  0  0  0  0  0  0  0  0
    4.6484    0.0760   -0.4694 C   0  0  0  0  0  0  0  0  0  0  0  0
    4.6339   -1.4492   -0.4220 C   0  0  0  0  0  0  0  0  0  0  0  0
   -1.5870    1.8429   -0.2970 C   0  0  0  0  0  0  0  0  0  0  0  0
    0.4388    1.5511    1.1195 C   0  0  0  0  0  0  0  0  0  0  0  0
  1 16  2  0
  2 20  2  0
  3 21  2  0
  4  8  1  0
  4 16  1  0
  4 21  1  0
  5 20  1  0
  5 21  1  0
  6  7  1  0
  6  9  1  0
  6 10  1  0
  7 16  1  0
  7 20  1  0
  8 13  1  0
  8 14  1  0
  9 11  1  0
 10 12  1  0
 11 15  1  0
 12 15  1  0
 13 17  1  0
 14 18  1  0
 17 19  1  0
 18 19  1  0
M  END
>  <PUBCHEM_COMPOUND_CID>  (1) 
13306

>  <PUBCHEM_CONFORMER_RMSD>  (1) 
0.8

>  <PUBCHEM_CONFORMER_DIVERSEORDER>  (1) 
1
9
14
15
4
8
10
2
7
16
6
3
5
12
13
11

>  <PUBCHEM_MMFF94_PARTIAL_CHARGES>  (1) 
11
1 -0.57
16 0.57
2 -0.57
20 0.57
21 0.69
3 -0.57
4 -0.42
45 0.37
5 -0.49
7 0.12
8 0.3

>  <PUBCHEM_EFFECTIVE_ROTOR_COUNT>  (1) 
5

>  <PUBCHEM_PHARMACOPHORE_FEATURES>  (1) 
8
1 1 acceptor
1 2 acceptor
1 3 acceptor
1 5 donor
1 7 anion
6 4 5 7 16 20 21 rings
6 6 9 10 11 12 15 rings
6 8 13 14 17 18 19 rings

>  <PUBCHEM_HEAVY_ATOM_COUNT>  (1) 
21

>  <PUBCHEM_ATOM_DEF_STEREO_COUNT>  (1) 
0

>  <PUBCHEM_ATOM_UDEF_STEREO_COUNT>  (1) 
1

>  <PUBCHEM_BOND_DEF_STEREO_COUNT>  (1) 
0

>  <PUBCHEM_BOND_UDEF_STEREO_COUNT>  (1) 
0

>  <PUBCHEM_ISOTOPIC_ATOM_COUNT>  (1) 
0

>  <PUBCHEM_COMPONENT_COUNT>  (1) 
1

>  <PUBCHEM_CACTVS_TAUTO_COUNT>  (1) 
3

>  <PUBCHEM_CONFORMER_ID>  (1) 
000033FA00000001

>  <PUBCHEM_MMFF94_ENERGY>  (1) 
40.643

>  <PUBCHEM_FEATURE_SELFOVERLAP>  (1) 
40.597

>  <PUBCHEM_SHAPE_FINGERPRINT>  (1) 
10366900 7 18411414046490165171
10616163 171 18335421223106416254
10863032 1 18262233322587990388
11543360 7 17603305964206901484
121448 382 14562820996651196904
12293681 4 17774163384263865281
12506688 2 18410578430596005778
12553582 1 18130497617507529494
12633257 1 17560530598316134779
12714826 92 18342740701934295828
12760667 363 18411983533336611138
12824470 246 18187923941658319402
13103583 49 18057907877507092963
13134695 92 18129943519661014137
13544653 18 18335986449233950110
13631057 29 18261396676229097610
13965767 371 14042140604035086363
14251740 79 17968382260191262450
14787075 74 18197780106092921136
14957384 54 12247408843151610083
15209294 21 13973970891254008926
15375462 189 18272089447935590710
16752209 62 18338222782949497691
16945 1 18266168603426309900
17349148 13 12180384860838103420
1813 80 17274838973101301500
18222031 100 17274818086179248327
19784866 135 18333454235790762347
200 152 18409166614969268022
20871999 31 17822285773657452845
23175994 123 18335706087196802319
23419403 2 17702925016334660137
23559900 14 18261102015264750068
2748010 2 17844501435924846913
2871803 45 18113335323414210938
31174 14 17916013740977632673
3286 77 17774722086256564793
3759504 43 18046063757700597733
463206 1 18044661042756840715
465052 167 17988082308831380855
5104073 3 18339918217669464130
9709674 26 18337111146808659742

>  <PUBCHEM_SHAPE_MULTIPOLES>  (1) 
404.6
8.22
2.45
1.44
3.12
0.33
0.2
-5.27
-1.03
-1.1
0.81
-0.15
0.3
0.58

>  <PUBCHEM_SHAPE_SELFOVERLAP>  (1) 
850.113

>  <PUBCHEM_SHAPE_VOLUME>  (1) 
221.6

>  <PUBCHEM_COORDINATE_TYPE>  (1) 
2
5
10

$$$$
