13308
     RDKit          3D

 21 24  0  0  1  0  0  0  0  0999 V2000
    5.1132   -1.0758    0.5165 O   0  0  0  0  0  0  0  0  0  0  0  0
   -5.4056    0.0544    1.2588 O   0  0  0  0  0  0  0  0  0  0  0  0
    1.9307    0.7219    0.3739 C   0  0  0  0  0  0  0  0  0  0  0  0
    2.7355   -0.5476    0.0356 C   0  0  0  0  0  0  0  0  0  0  0  0
    0.5889    0.7831   -0.3622 C   0  0  0  0  0  0  0  0  0  0  0  0
   -0.2707   -0.4602    0.0538 C   0  0  0  0  0  0  0  0  0  0  0  0
    1.9240   -1.7624    0.5009 C   0  0  0  0  0  0  0  0  0  0  0  0
    4.0058   -0.2661    0.8611 C   0  0  0  0  0  0  0  0  0  0  0  0
    0.5219   -1.7855   -0.1354 C   0  0  0  0  0  0  0  0  0  0  0  0
    2.9423    1.8478    0.1747 C   0  0  0  0  0  0  0  0  0  0  0  0
   -1.6942   -0.4501   -0.6201 C   0  0  0  0  0  0  0  0  0  0  0  0
   -0.1566    2.0922   -0.0622 C   0  0  0  0  0  0  0  0  0  0  0  0
    4.2791    1.2324    0.6267 C   0  0  0  0  0  0  0  0  0  0  0  0
    3.0846   -0.7079   -1.4661 C   0  0  0  0  0  0  0  0  0  0  0  0
   -1.5267    2.1260   -0.7313 C   0  0  0  0  0  0  0  0  0  0  0  0
   -2.3348    0.9137   -0.3402 C   0  0  0  0  0  0  0  0  0  0  0  0
   -1.6260   -0.6727   -2.1480 C   0  0  0  0  0  0  0  0  0  0  0  0
   -2.5485   -1.5830   -0.0684 C   0  0  0  0  0  0  0  0  0  0  0  0
   -3.5224    1.0680    0.2666 C   0  0  0  0  0  0  0  0  0  0  0  0
   -3.7304   -1.4348    0.5377 C   0  0  0  0  0  0  0  0  0  0  0  0
   -4.3102   -0.0931    0.7277 C   0  0  0  0  0  0  0  0  0  0  0  0
  1  8  1  0
  2 21  2  0
  3  4  1  0
  3  5  1  0
  3 10  1  0
  4  7  1  0
  4  8  1  0
  4 14  1  0
  5  6  1  0
  5 12  1  0
  6  9  1  0
  6 11  1  0
  7  9  1  0
  8 13  1  0
 10 13  1  0
 11 16  1  0
 11 17  1  0
 11 18  1  0
 12 15  1  0
 15 16  1  0
 16 19  2  0
 18 20  2  0
 19 21  1  0
 20 21  1  0
M  END
>  <PUBCHEM_COMPOUND_CID>  (1) 
13308

>  <PUBCHEM_CONFORMER_RMSD>  (1) 
0.6

>  <PUBCHEM_CONFORMER_DIVERSEORDER>  (1) 
1

>  <PUBCHEM_MMFF94_PARTIAL_CHARGES>  (1) 
14
1 -0.68
11 0.28
15 0.14
16 -0.28
18 -0.29
19 -0.14
2 -0.57
20 -0.14
21 0.54
44 0.15
45 0.4
46 0.15
47 0.15
8 0.28

>  <PUBCHEM_EFFECTIVE_ROTOR_COUNT>  (1) 
1.4

>  <PUBCHEM_PHARMACOPHORE_FEATURES>  (1) 
7
1 1 acceptor
1 1 donor
1 2 acceptor
5 3 4 8 10 13 rings
6 11 16 18 19 20 21 rings
6 3 4 5 6 7 9 rings
6 5 6 11 12 15 16 rings

>  <PUBCHEM_HEAVY_ATOM_COUNT>  (1) 
21

>  <PUBCHEM_ATOM_DEF_STEREO_COUNT>  (1) 
6

>  <PUBCHEM_ATOM_UDEF_STEREO_COUNT>  (1) 
0

>  <PUBCHEM_BOND_DEF_STEREO_COUNT>  (1) 
0

>  <PUBCHEM_BOND_UDEF_STEREO_COUNT>  (1) 
0

>  <PUBCHEM_ISOTOPIC_ATOM_COUNT>  (1) 
0

>  <PUBCHEM_COMPONENT_COUNT>  (1) 
1

>  <PUBCHEM_CACTVS_TAUTO_COUNT>  (1) 
3

>  <PUBCHEM_CONFORMER_ID>  (1) 
000033FC00000001

>  <PUBCHEM_MMFF94_ENERGY>  (1) 
67.8018

>  <PUBCHEM_FEATURE_SELFOVERLAP>  (1) 
35.626

>  <PUBCHEM_SHAPE_FINGERPRINT>  (1) 
10618630 7 18334575762946299485
10967382 1 18410288095164748492
11132069 177 18409731772488185741
11578080 2 17313927723353988316
12011746 2 18409166589594856429
12236239 1 17989483052670102303
12251169 10 18412267246560339105
12403259 415 18411410714202263520
12403814 3 18342730828226475453
12553582 1 18335697243321024149
12596599 1 18129964354236221635
12633257 1 18335427876337442019
13140716 1 18338236088710422323
13214271 11 18410849962992042287
13221675 6 18411979130962841199
13224815 77 18409725179476016196
13571099 22 8862946086798979482
13583140 156 18189321403593576509
13675066 3 18201716262740429376
14178342 30 18191299378057877768
14223421 5 18263924345506371399
14289901 80 15936402317320652614
14341114 176 18407761426271352952
14787075 74 18336828722480263017
14790565 3 17831308559259944428
15163728 17 14978577014038986545
15196674 1 18410008861986847648
15209289 33 18113900450704814666
15209294 21 18060423529761290897
15309172 13 18410852161862641655
15375462 189 18412537708750416024
15536298 74 18343587351678521044
16945 1 18338229345574876845
17349148 13 16950282888740869482
1813 80 17095248033633079695
18186145 218 18408879646813580558
19050596 39 18408884052970121162
19141452 34 18201720678178183095
19784866 170 18410860962239808795
19862831 5 9151177557967092989
200 152 18270947060071292359
20028762 73 18126009501723473407
20261772 1 18342174487779264730
20739085 24 18334866047101712596
21267235 1 18408611348311484139
21421861 104 18042118761187111458
21637258 2 15719678766403081371
22182313 1 18198342853497084332
22854114 59 18410576193086407873
23184049 59 18272375278067005917
23402539 116 18340194271722551214
23559900 14 18266454304978023826
2748010 2 18339067237991886820
2838139 119 14907066925278516145
296302 2 13470684858361351706
335352 9 18337950082580235268
34934 24 18410003326269842701
350125 39 18409731759962441272
5104073 3 18411979204024797778
6786 2 11579842342896590541
9709674 26 18340482244963603910

>  <PUBCHEM_SHAPE_MULTIPOLES>  (1) 
420.43
9.05
2.09
1.18
0.17
0.42
0.49
-0.64
-3.39
-0.19
0.05
0.34
-0.2
0.21

>  <PUBCHEM_SHAPE_SELFOVERLAP>  (1) 
908.951

>  <PUBCHEM_SHAPE_VOLUME>  (1) 
228.7

>  <PUBCHEM_COORDINATE_TYPE>  (1) 
2
5
10

$$$$
