13305
     RDKit          3D

 20 20  0  0  0  0  0  0  0  0999 V2000
    0.0098   -3.6083   -0.0007 S   0  0  0  0  0  0  0  0  0  0  0  0
    7.2238    1.4493    0.0226 O   0  0  0  0  0  0  0  0  0  0  0  0
   -6.9870    1.7217   -0.0200 O   0  0  0  0  0  0  0  0  0  0  0  0
    2.4335    0.7540   -0.0065 N   0  0  0  0  0  0  0  0  0  0  0  0
   -2.2329    0.8745    0.0052 N   0  0  0  0  0  0  0  0  0  0  0  0
    0.1125    0.8525   -0.0014 N   0  0  0  0  0  0  0  0  0  0  0  0
   -1.1347   -1.1974    0.0015 N   0  0  0  0  0  0  0  0  0  0  0  0
    1.2642   -1.2526   -0.0044 N   0  0  0  0  0  0  0  0  0  0  0  0
    4.8551    1.0937    0.0003 C   0  0  0  0  0  0  0  0  0  0  0  0
   -4.6303    1.2939    0.0003 C   0  0  0  0  0  0  0  0  0  0  0  0
    3.7125    0.0849   -0.0095 C   0  0  0  0  0  0  0  0  0  0  0  0
   -3.5189    0.2508    0.0086 C   0  0  0  0  0  0  0  0  0  0  0  0
    6.2292    0.4342   -0.0045 C   0  0  0  0  0  0  0  0  0  0  0  0
   -6.0238    0.6766    0.0057 C   0  0  0  0  0  0  0  0  0  0  0  0
    1.2174    0.0892   -0.0042 C   0  0  0  0  0  0  0  0  0  0  0  0
   -1.0263    0.1411    0.0015 C   0  0  0  0  0  0  0  0  0  0  0  0
    0.0508   -1.8279   -0.0013 C   0  0  0  0  0  0  0  0  0  0  0  0
    8.5331    0.8975   -0.0061 C   0  0  0  0  0  0  0  0  0  0  0  0
   -8.3125    1.2101    0.0092 C   0  0  0  0  0  0  0  0  0  0  0  0
   -1.7754   -3.9378    0.0037 C   0  0  0  0  0  0  0  0  0  0  0  0
  1 17  1  0
  1 20  1  0
  2 13  1  0
  2 18  1  0
  3 14  1  0
  3 19  1  0
  4 11  1  0
  4 15  1  0
  5 12  1  0
  5 16  1  0
  6 15  2  0
  6 16  1  0
  7 16  2  0
  7 17  1  0
  8 15  1  0
  8 17  2  0
  9 11  1  0
  9 13  1  0
 10 12  1  0
 10 14  1  0
M  END
>  <PUBCHEM_COMPOUND_CID>  (1) 
13305

>  <PUBCHEM_CONFORMER_RMSD>  (1) 
1.2

>  <PUBCHEM_CONFORMER_DIVERSEORDER>  (1) 
1
28
9
18
32
23
34
19
30
38
24
13
4
16
41
10
8
11
21
2
36
20
26
31
39
15
37
40
12
6
3
7
29
35
27
33
25
17
5
22
14

>  <PUBCHEM_MMFF94_PARTIAL_CHARGES>  (1) 
20
1 -0.33
11 0.37
12 0.37
13 0.28
14 0.28
15 0.72
16 0.72
17 0.72
18 0.28
19 0.28
2 -0.56
20 0.23
3 -0.56
33 0.4
34 0.4
4 -0.87
5 -0.87
6 -0.62
7 -0.62
8 -0.62

>  <PUBCHEM_EFFECTIVE_ROTOR_COUNT>  (1) 
11

>  <PUBCHEM_PHARMACOPHORE_FEATURES>  (1) 
8
1 2 acceptor
1 20 hydrophobe
1 3 acceptor
1 4 donor
1 5 donor
4 4 6 8 15 cation
4 5 6 7 16 cation
6 6 7 8 15 16 17 rings

>  <PUBCHEM_HEAVY_ATOM_COUNT>  (1) 
20

>  <PUBCHEM_ATOM_DEF_STEREO_COUNT>  (1) 
0

>  <PUBCHEM_ATOM_UDEF_STEREO_COUNT>  (1) 
0

>  <PUBCHEM_BOND_DEF_STEREO_COUNT>  (1) 
0

>  <PUBCHEM_BOND_UDEF_STEREO_COUNT>  (1) 
0

>  <PUBCHEM_ISOTOPIC_ATOM_COUNT>  (1) 
0

>  <PUBCHEM_COMPONENT_COUNT>  (1) 
1

>  <PUBCHEM_CACTVS_TAUTO_COUNT>  (1) 
5

>  <PUBCHEM_CONFORMER_ID>  (1) 
000033F900000001

>  <PUBCHEM_MMFF94_ENERGY>  (1) 
46.915

>  <PUBCHEM_FEATURE_SELFOVERLAP>  (1) 
40.639

>  <PUBCHEM_SHAPE_FINGERPRINT>  (1) 
10 15 18113337501104814649
10050765 1 18050286165935058968
10165383 225 18410291402221241461
10411042 1 17689999355128821411
14251764 46 18410293605402450672
15927050 60 18411134740504425566
18006028 8 9295287239847376680
20554085 129 17988629788687018586
20621476 66 18409449215327669572
20645477 70 18191023397045770075
21150785 3 16056879126206934357
21236236 1 18341049738940066383
22224240 67 18408884036307223021
23402539 116 18271802458125874812
23559900 14 18272365434793481896
246663 6 9079114470761348240
293599 30 18410572890182833944
335352 9 18411419536091469980
33824 294 18264489491085288987
5486654 2 18341894086855841913
559249 180 18337388344736291674
5758199 1 18342459218984959081
59755656 520 18335976540881568006
6669772 16 18272657805147960622
8209 1 18060137634952535052

>  <PUBCHEM_SHAPE_MULTIPOLES>  (1) 
378.8
21.05
3.17
0.59
6.99
5.52
0
-20.95
-0.02
-2.22
0
0
0.03
0.01

>  <PUBCHEM_SHAPE_SELFOVERLAP>  (1) 
722.42

>  <PUBCHEM_SHAPE_VOLUME>  (1) 
235

>  <PUBCHEM_COORDINATE_TYPE>  (1) 
2
5
10

$$$$
