1331
     RDKit          3D

 18 18  0  0  0  0  0  0  0  0999 V2000
    4.6484   -0.6010   -0.8286 S   0  0  0  0  0  0  0  0  0  0  0  0
   -4.6263   -0.6235   -0.8585 S   0  0  0  0  0  0  0  0  0  0  0  0
    6.1752   -2.6421   -0.1670 N   0  0  0  0  0  0  0  0  0  0  0  0
   -6.1696   -2.6463   -0.1789 N   0  0  0  0  0  0  0  0  0  0  0  0
    4.1953   -2.3894    1.0953 N   0  0  0  0  0  0  0  0  0  0  0  0
   -4.2277   -2.3509    1.1321 N   0  0  0  0  0  0  0  0  0  0  0  0
    1.2091    1.6950   -0.2801 C   0  0  0  0  0  0  0  0  0  0  0  0
   -1.2068    1.6948   -0.2815 C   0  0  0  0  0  0  0  0  0  0  0  0
    2.5012    1.1896   -0.8269 C   0  0  0  0  0  0  0  0  0  0  0  0
   -2.4981    1.1893   -0.8299 C   0  0  0  0  0  0  0  0  0  0  0  0
    0.0016    1.2218   -0.7932 C   0  0  0  0  0  0  0  0  0  0  0  0
    1.2085    2.6411    0.7448 C   0  0  0  0  0  0  0  0  0  0  0  0
   -1.2074    2.6409    0.7435 C   0  0  0  0  0  0  0  0  0  0  0  0
    3.0642   -0.0548   -0.1198 C   0  0  0  0  0  0  0  0  0  0  0  0
   -3.0617   -0.0553   -0.1238 C   0  0  0  0  0  0  0  0  0  0  0  0
    0.0002    3.1140    1.2567 C   0  0  0  0  0  0  0  0  0  0  0  0
    5.0045   -2.0161    0.1560 C   0  0  0  0  0  0  0  0  0  0  0  0
   -5.0104   -2.0072    0.1597 C   0  0  0  0  0  0  0  0  0  0  0  0
  1 14  1  0
  1 17  1  0
  2 15  1  0
  2 18  1  0
  3 17  1  0
  4 18  1  0
  5 17  2  0
  6 18  2  0
  7  9  1  0
  7 11  2  0
  7 12  1  0
  8 10  1  0
  8 11  1  0
  8 13  2  0
  9 14  1  0
 10 15  1  0
 12 16  2  0
 13 16  1  0
M  END
>  <PUBCHEM_COMPOUND_CID>  (1) 
1331

>  <PUBCHEM_CONFORMER_RMSD>  (1) 
0.8

>  <PUBCHEM_CONFORMER_DIVERSEORDER>  (1) 
1
56
67
99
326
47
276
176
309
36
2
137
58
62
35
244
184
181
33
23
125
107
95
256
3
327
296
88
165
19
160
105
138
89
51
230
143
305
10
111
179
163
170
180
8
120
312
90
132
219
91
331
251
257
290
93
150
213
328
321
337
153
142
116
32
115
214
27
274
308
146
221
262
193
20
220
281
80
34
42
315
130
242
226
338
237
307
110
61
310
206
139
329
335
300
311
131
229
44
177
11
238
234
258
31
38
204
57
212
112
75
103
207
26
286
4
50
318
60
7
289
122
158
169
285
148
199
106
186
325
215
301
266
22
288
13
85
183
241
252
253
128
82
29
275
294
224
49
341
280
201
228
173
171
119
217
260
239
272
66
121
140
330
218
232
222
203
5
332
94
83
123
208
72
277
81
340
101
190
287
314
63
192
185
194
12
270
87
18
174
316
216
210
317
334
303
45
52
14
30
231
164
78
298
124
236
191
161
64
182
144
6
167
96
323
195
157
306
154
293
292
15
187
133
100
265
41
98
118
108
152
37
151
225
271
54
155
92
254
240
261
267
9
322
339
126
114
134
168
264
243
319
77
259
24
59
246
127
102
129
227
145
172
71
70
302
255
76
333
196
84
273
198
263
113
46
278
299
53
48
202
336
69
141
205
279
17
104
291
245
162
40
269
250
86
249
209
21
65
136
283
117
304
39
295
135
74
233
235
166
223
188
197
149
211
43
189
175
156
178
282
55
73
79
247
297
16
284
109
97
248
159
28
25
147
320
200
268
68
313
324

>  <PUBCHEM_MMFF94_PARTIAL_CHARGES>  (1) 
28
1 -0.37
10 0.14
11 -0.15
12 -0.15
13 -0.15
14 0.23
15 0.23
16 -0.15
17 0.64
18 0.64
2 -0.37
23 0.15
24 0.15
25 0.15
3 -0.85
30 0.15
31 0.4
32 0.4
33 0.4
34 0.4
35 0.4
36 0.4
4 -0.85
5 -0.85
6 -0.85
7 -0.14
8 -0.14
9 0.14

>  <PUBCHEM_EFFECTIVE_ROTOR_COUNT>  (1) 
8

>  <PUBCHEM_PHARMACOPHORE_FEATURES>  (1) 
7
1 3 donor
1 4 donor
1 5 donor
1 6 donor
3 3 5 17 cation
3 4 6 18 cation
6 7 8 11 12 13 16 rings

>  <PUBCHEM_HEAVY_ATOM_COUNT>  (1) 
18

>  <PUBCHEM_ATOM_DEF_STEREO_COUNT>  (1) 
0

>  <PUBCHEM_ATOM_UDEF_STEREO_COUNT>  (1) 
0

>  <PUBCHEM_BOND_DEF_STEREO_COUNT>  (1) 
0

>  <PUBCHEM_BOND_UDEF_STEREO_COUNT>  (1) 
0

>  <PUBCHEM_ISOTOPIC_ATOM_COUNT>  (1) 
0

>  <PUBCHEM_COMPONENT_COUNT>  (1) 
1

>  <PUBCHEM_CACTVS_TAUTO_COUNT>  (1) 
1

>  <PUBCHEM_CONFORMER_ID>  (1) 
0000053300000001

>  <PUBCHEM_MMFF94_ENERGY>  (1) 
37.1256

>  <PUBCHEM_FEATURE_SELFOVERLAP>  (1) 
35.599

>  <PUBCHEM_SHAPE_FINGERPRINT>  (1) 
10074138 170 17629488479791204321
11796584 16 18041542703125312329
12107183 9 18200892729333260889
12403259 118 10159689166880271708
12760667 363 18412261705894362791
12824470 246 18336264544446003676
13103583 49 18059874856416383129
13533116 47 18126850636950171547
13631057 29 18408608029172104754
13911852 28 18341610464664573687
13955234 65 17982450704726626473
14774955 27 9223242827570358851
14848178 5 18408035208661001354
14866123 147 18340210675030875369
15019793 15 17761777664686825667
15163728 17 10809340005802908105
15352361 1 18409730655459403566
17834072 32 9439402428065546866
193927 3 18271530814556021788
20621476 21 17915471493510896798
20843269 155 18263918857156118890
23559900 14 18261947557403506349
270888 7 9223229641604412222
2838139 119 9727640479292148704
3057174 1 12685083778725331713
314194 84 18271521013066047413
316301 35 18267302208741845479
3421961 26 18270961379017711081
345986 75 17703801365793496545
5104073 3 18060139833896676505
5486654 36 18411145714556349377
7062679 13 18408884048791328375
76465 3 18411420609131485389
7970288 3 18412543193403242582
88748 71 18408888459938811287

>  <PUBCHEM_SHAPE_MULTIPOLES>  (1) 
358.21
13.42
4.15
1.1
0
0.13
0.1
20.1
-0.46
-0.03
1.61
0.03
-0.18
0

>  <PUBCHEM_SHAPE_SELFOVERLAP>  (1) 
692.052

>  <PUBCHEM_SHAPE_VOLUME>  (1) 
218.7

>  <PUBCHEM_COORDINATE_TYPE>  (1) 
2
5
10

$$$$
