13313
     RDKit          3D

 22 25  0  0  1  0  0  0  0  0999 V2000
    4.7646    0.5380    0.5848 O   0  0  0  0  0  0  0  0  0  0  0  0
   -5.9261    0.5845   -0.7734 O   0  0  0  0  0  0  0  0  0  0  0  0
    1.4632   -0.7662   -0.2966 C   0  0  0  0  0  0  0  0  0  0  0  0
    2.3352    0.0588    0.6843 C   0  0  0  0  0  0  0  0  0  0  0  0
    0.1128   -1.1357    0.3205 C   0  0  0  0  0  0  0  0  0  0  0  0
    3.6081    0.2495   -0.1902 C   0  0  0  0  0  0  0  0  0  0  0  0
    2.4113   -1.8525   -0.7853 C   0  0  0  0  0  0  0  0  0  0  0  0
    3.7808   -1.1422   -0.8612 C   0  0  0  0  0  0  0  0  0  0  0  0
   -0.6498    0.1651    0.6511 C   0  0  0  0  0  0  0  0  0  0  0  0
   -0.6902   -2.0769   -0.5833 C   0  0  0  0  0  0  0  0  0  0  0  0
    1.5396    1.2718    1.0996 C   0  0  0  0  0  0  0  0  0  0  0  0
    2.6940   -0.6829    2.0016 C   0  0  0  0  0  0  0  0  0  0  0  0
    0.1934    1.2880    1.0928 C   0  0  0  0  0  0  0  0  0  0  0  0
   -1.9984    0.2481    0.5103 C   0  0  0  0  0  0  0  0  0  0  0  0
   -2.0973   -2.2395   -0.0233 C   0  0  0  0  0  0  0  0  0  0  0  0
   -2.7885   -0.9005    0.0325 C   0  0  0  0  0  0  0  0  0  0  0  0
    3.4591    1.3007   -1.2166 C   0  0  0  0  0  0  0  0  0  0  0  0
   -2.8360    1.4709    0.8392 C   0  0  0  0  0  0  0  0  0  0  0  0
   -4.0645   -0.7983   -0.3768 C   0  0  0  0  0  0  0  0  0  0  0  0
   -3.9067    1.7465   -0.2082 C   0  0  0  0  0  0  0  0  0  0  0  0
   -4.7424    0.5171   -0.4511 C   0  0  0  0  0  0  0  0  0  0  0  0
    3.3378    2.1556   -2.0506 C   0  0  0  0  0  0  0  0  0  0  0  0
  1  6  1  0
  2 21  2  0
  3  4  1  0
  3  5  1  0
  3  7  1  0
  4  6  1  0
  4 11  1  0
  4 12  1  0
  5  9  1  0
  5 10  1  0
  6  8  1  0
  6 17  1  0
  7  8  1  0
  9 13  1  0
  9 14  2  0
 10 15  1  0
 11 13  2  0
 14 16  1  0
 14 18  1  0
 15 16  1  0
 16 19  2  0
 17 22  3  0
 18 20  1  0
 19 21  1  0
 20 21  1  0
M  END
>  <PUBCHEM_COMPOUND_CID>  (1) 
13313

>  <PUBCHEM_CONFORMER_RMSD>  (1) 
0.6

>  <PUBCHEM_CONFORMER_DIVERSEORDER>  (1) 
1

>  <PUBCHEM_MMFF94_PARTIAL_CHARGES>  (1) 
22
1 -0.68
11 -0.29
13 -0.15
14 -0.14
15 0.14
16 -0.14
17 -0.2
18 0.14
19 -0.14
2 -0.57
20 0.06
21 0.49
22 -0.18
31 0.15
35 0.15
38 0.4
4 0.14
41 0.15
44 0.18
5 0.14
6 0.48
9 -0.14

>  <PUBCHEM_EFFECTIVE_ROTOR_COUNT>  (1) 
1.4

>  <PUBCHEM_PHARMACOPHORE_FEATURES>  (1) 
8
1 1 acceptor
1 1 donor
1 2 acceptor
1 22 hydrophobe
5 3 4 6 7 8 rings
6 14 16 18 19 20 21 rings
6 3 4 5 9 11 13 rings
6 5 9 10 14 15 16 rings

>  <PUBCHEM_HEAVY_ATOM_COUNT>  (1) 
22

>  <PUBCHEM_ATOM_DEF_STEREO_COUNT>  (1) 
4

>  <PUBCHEM_ATOM_UDEF_STEREO_COUNT>  (1) 
0

>  <PUBCHEM_BOND_DEF_STEREO_COUNT>  (1) 
0

>  <PUBCHEM_BOND_UDEF_STEREO_COUNT>  (1) 
0

>  <PUBCHEM_ISOTOPIC_ATOM_COUNT>  (1) 
0

>  <PUBCHEM_COMPONENT_COUNT>  (1) 
1

>  <PUBCHEM_CACTVS_TAUTO_COUNT>  (1) 
5

>  <PUBCHEM_CONFORMER_ID>  (1) 
0000340100000001

>  <PUBCHEM_MMFF94_ENERGY>  (1) 
60.5334

>  <PUBCHEM_FEATURE_SELFOVERLAP>  (1) 
40.704

>  <PUBCHEM_SHAPE_FINGERPRINT>  (1) 
10498660 4 18341900739459373037
10759866 29 18260550043147387138
11089746 13 17022614282411729013
11640471 11 17968391155078458116
12011746 2 18060701688785891462
12236239 1 18186514432476538098
12553582 1 17987817287636705448
12670546 177 18409171017157830837
13224815 77 18202003218026954947
14115302 16 18413112762259150924
14790565 3 18128269895855817649
15163728 17 16662923454953486772
15196674 1 18201438034817127187
15375358 24 17918267679916958106
1601671 61 18341894090844860512
16752209 62 18202283572149024921
16945 1 18130507547318768106
17349148 13 18201147767836626891
17959699 21 18187088381298073909
17980427 23 18193532671289955624
1813 80 17462269241523516570
18186145 218 18336270028749709199
19862831 5 18343303660635887739
200 152 16487251067510569411
20233049 118 18341891913750102760
20645477 70 15985103028789066352
20715895 44 18190454970312974341
21069387 34 14405192797700461199
21503847 285 17748832916812862676
221357 26 17988917839416810289
22854114 59 12973884797543372865
23227448 37 18042131001980723359
23366157 5 18046913680220646851
23559900 14 18343022155858643838
2748010 2 17481701270617432803
2838139 119 16879606226074455213
3004659 81 18340206289383995118
3060560 45 16917350337935512054
34934 24 18201992257471096386
3759504 43 18040999561872608587
4280585 95 16908640865429472486
4340502 62 16877947122735592371
474 4 17096376209857148220
495365 180 16988264452596837970
633830 44 18113618975955021911
9709674 26 18130217272344535739
9981440 41 17469047017992058240

>  <PUBCHEM_SHAPE_MULTIPOLES>  (1) 
441.01
9.67
2.17
1.4
6.57
0.24
0.04
-2.77
-2.8
-0.05
-0.58
-1.41
-0.46
-0.64

>  <PUBCHEM_SHAPE_SELFOVERLAP>  (1) 
965.122

>  <PUBCHEM_SHAPE_VOLUME>  (1) 
237.5

>  <PUBCHEM_COORDINATE_TYPE>  (1) 
2
5
10

$$$$
