13328
     RDKit          3D

 25 28  0  0  1  0  0  0  0  0999 V2000
    4.0799    0.6062    0.1148 O   0  0  0  0  0  0  0  0  0  0  0  0
   -6.7894    0.3181   -1.0533 O   0  0  0  0  0  0  0  0  0  0  0  0
    5.5521   -0.6091   -1.1812 O   0  0  0  0  0  0  0  0  0  0  0  0
   -0.6291   -0.9133    0.3370 C   0  0  0  0  0  0  0  0  0  0  0  0
   -1.3246    0.3743   -0.2130 C   0  0  0  0  0  0  0  0  0  0  0  0
    0.8044   -0.9627   -0.2019 C   0  0  0  0  0  0  0  0  0  0  0  0
    1.6410    0.2605    0.2207 C   0  0  0  0  0  0  0  0  0  0  0  0
   -2.8253    0.4785    0.2547 C   0  0  0  0  0  0  0  0  0  0  0  0
   -3.5498   -0.8346   -0.1883 C   0  0  0  0  0  0  0  0  0  0  0  0
   -0.4801    1.6502    0.0506 C   0  0  0  0  0  0  0  0  0  0  0  0
    0.9914    1.5126   -0.3817 C   0  0  0  0  0  0  0  0  0  0  0  0
   -1.4148   -2.1746   -0.0459 C   0  0  0  0  0  0  0  0  0  0  0  0
    2.9918   -0.1307   -0.4087 C   0  0  0  0  0  0  0  0  0  0  0  0
    1.6961   -2.1471    0.1623 C   0  0  0  0  0  0  0  0  0  0  0  0
   -2.8797   -2.0939    0.3730 C   0  0  0  0  0  0  0  0  0  0  0  0
    3.1232   -1.6362   -0.1061 C   0  0  0  0  0  0  0  0  0  0  0  0
   -3.5362    1.6603   -0.4657 C   0  0  0  0  0  0  0  0  0  0  0  0
    1.7930    0.4429    1.7524 C   0  0  0  0  0  0  0  0  0  0  0  0
   -2.9131    0.7045    1.7846 C   0  0  0  0  0  0  0  0  0  0  0  0
   -5.0488   -0.8304    0.1238 C   0  0  0  0  0  0  0  0  0  0  0  0
   -5.0417    1.7237   -0.2178 C   0  0  0  0  0  0  0  0  0  0  0  0
   -5.7052    0.3918   -0.4754 C   0  0  0  0  0  0  0  0  0  0  0  0
    5.3240    0.2664   -0.3578 C   0  0  0  0  0  0  0  0  0  0  0  0
    6.3682    1.1412    0.2954 C   0  0  0  0  0  0  0  0  0  0  0  0
    7.7726    0.8016   -0.1725 C   0  0  0  0  0  0  0  0  0  0  0  0
  1 13  1  0
  1 23  1  0
  2 22  2  0
  3 23  2  0
  4  5  1  0
  4  6  1  0
  4 12  1  0
  5  8  1  0
  5 10  1  0
  6  7  1  0
  6 14  1  0
  7 11  1  0
  7 13  1  0
  7 18  1  0
  8  9  1  0
  8 17  1  0
  8 19  1  0
  9 15  1  0
  9 20  1  0
 10 11  1  0
 12 15  1  0
 13 16  1  0
 14 16  1  0
 17 21  1  0
 20 22  1  0
 21 22  1  0
 23 24  1  0
 24 25  1  0
M  END
>  <PUBCHEM_COMPOUND_CID>  (1) 
13328

>  <PUBCHEM_CONFORMER_RMSD>  (1) 
0.8

>  <PUBCHEM_CONFORMER_DIVERSEORDER>  (1) 
1
2
4
3

>  <PUBCHEM_MMFF94_PARTIAL_CHARGES>  (1) 
9
1 -0.43
13 0.28
2 -0.57
20 0.06
21 0.06
22 0.45
23 0.66
24 0.06
3 -0.57

>  <PUBCHEM_EFFECTIVE_ROTOR_COUNT>  (1) 
5

>  <PUBCHEM_PHARMACOPHORE_FEATURES>  (1) 
7
1 2 acceptor
1 25 hydrophobe
1 3 acceptor
5 6 7 13 14 16 rings
6 4 5 6 7 10 11 rings
6 4 5 8 9 12 15 rings
6 8 9 17 20 21 22 rings

>  <PUBCHEM_HEAVY_ATOM_COUNT>  (1) 
25

>  <PUBCHEM_ATOM_DEF_STEREO_COUNT>  (1) 
7

>  <PUBCHEM_ATOM_UDEF_STEREO_COUNT>  (1) 
0

>  <PUBCHEM_BOND_DEF_STEREO_COUNT>  (1) 
0

>  <PUBCHEM_BOND_UDEF_STEREO_COUNT>  (1) 
0

>  <PUBCHEM_ISOTOPIC_ATOM_COUNT>  (1) 
0

>  <PUBCHEM_COMPONENT_COUNT>  (1) 
1

>  <PUBCHEM_CACTVS_TAUTO_COUNT>  (1) 
3

>  <PUBCHEM_CONFORMER_ID>  (1) 
0000341000000001

>  <PUBCHEM_MMFF94_ENERGY>  (1) 
75.7734

>  <PUBCHEM_FEATURE_SELFOVERLAP>  (1) 
35.613

>  <PUBCHEM_SHAPE_FINGERPRINT>  (1) 
10 15 18186522137785211952
10366900 7 17561080293810297627
10411042 1 17760651764901127083
10906281 52 18263098676661543163
10968037 39 18342458153658749389
11315181 36 18060423542256055896
11719270 70 18273210868999152566
12011746 2 18342738516038509247
12236239 1 17846781775906379605
12403259 415 18271798017652151073
12516196 113 18202844357397133432
12788726 201 17774442659684180729
12838862 33 18337091432671049885
13533116 47 17988922215313498511
13631057 29 18269835470906250483
15048467 5 18259984881617909918
15183329 4 18272657810038356890
15196674 1 18409730616936579599
1601671 61 18335137583476263804
18335252 98 18334861636908862507
18608769 82 18336832000279184587
18681886 176 18340481274253613097
200 152 17846212246774970441
20681677 155 18260266356220217259
21033648 29 18060126669921556473
21150785 3 15482669100560538328
21236236 1 18412265073006453758
21267235 1 18338241561284929123
21279426 13 18340492158270460022
21521721 280 17989208183368806968
21792961 116 18059584577184041514
221357 26 17704069581794785441
23402539 116 18113898290905645308
23559900 14 18272081751375438601
300161 21 18333447634078037166
3004659 81 18262521382298627182
335352 9 18409447020108660773
34797466 226 17418098736883181708
34934 24 18335417954625410266
350125 39 18412263943646092505
3545911 37 18411982468484771923
3633792 109 18341890775895284853
4073 2 18040722510949544354
4325135 7 18187082858639920780
484989 97 18195803193177716887
5104073 3 18261961738683716299
5486654 2 18411702101931403076
59755656 215 18410855447544089926
59755656 520 16732980950977245218

>  <PUBCHEM_SHAPE_MULTIPOLES>  (1) 
496.88
15.64
2.02
1
13.61
0.65
-0.36
-5.03
3.33
-0.81
0.02
-0.18
-0.15
0.44

>  <PUBCHEM_SHAPE_SELFOVERLAP>  (1) 
1048.528

>  <PUBCHEM_SHAPE_VOLUME>  (1) 
275.6

>  <PUBCHEM_COORDINATE_TYPE>  (1) 
2
5
10

$$$$
