13325
     RDKit          3D

 23 25  0  0  0  0  0  0  0  0999 V2000
    0.1034    1.8400   -0.9578 O   0  0  0  0  0  0  0  0  0  0  0  0
   -2.2746   -1.5625    1.1441 O   0  0  0  0  0  0  0  0  0  0  0  0
    2.2976   -1.7047    1.1113 O   0  0  0  0  0  0  0  0  0  0  0  0
   -1.1384    0.1211   -0.0078 N   0  0  0  0  0  0  0  0  0  0  0  0
    1.2487    0.0533   -0.0126 N   0  0  0  0  0  0  0  0  0  0  0  0
   -2.3487    0.8797   -0.2130 C   0  0  0  0  0  0  0  0  0  0  0  0
    2.4968    0.7451   -0.2266 C   0  0  0  0  0  0  0  0  0  0  0  0
   -3.3195    0.1169   -1.1183 C   0  0  0  0  0  0  0  0  0  0  0  0
   -2.9965    1.2297    1.1288 C   0  0  0  0  0  0  0  0  0  0  0  0
    3.1832    1.0497    1.1075 C   0  0  0  0  0  0  0  0  0  0  0  0
    3.4087   -0.0667   -1.1496 C   0  0  0  0  0  0  0  0  0  0  0  0
   -4.6296    0.8778   -1.3049 C   0  0  0  0  0  0  0  0  0  0  0  0
   -4.3079    1.9878    0.9398 C   0  0  0  0  0  0  0  0  0  0  0  0
    4.5323    1.7337    0.9023 C   0  0  0  0  0  0  0  0  0  0  0  0
    4.7583    0.6176   -1.3511 C   0  0  0  0  0  0  0  0  0  0  0  0
   -5.2726    1.2274    0.0342 C   0  0  0  0  0  0  0  0  0  0  0  0
    5.4390    0.9237   -0.0200 C   0  0  0  0  0  0  0  0  0  0  0  0
   -0.0025   -1.9629    0.5673 C   0  0  0  0  0  0  0  0  0  0  0  0
    0.0727    0.7452   -0.3850 C   0  0  0  0  0  0  0  0  0  0  0  0
   -1.2485   -1.1216    0.6240 C   0  0  0  0  0  0  0  0  0  0  0  0
    1.2927   -1.1982    0.6102 C   0  0  0  0  0  0  0  0  0  0  0  0
   -0.0351   -2.8192   -0.6965 C   0  0  0  0  0  0  0  0  0  0  0  0
   -1.2597   -3.7126   -0.7265 C   0  0  0  0  0  0  0  0  0  0  0  0
  1 19  2  0
  2 20  2  0
  3 21  2  0
  4  6  1  0
  4 19  1  0
  4 20  1  0
  5  7  1  0
  5 19  1  0
  5 21  1  0
  6  8  1  0
  6  9  1  0
  7 10  1  0
  7 11  1  0
  8 12  1  0
  9 13  1  0
 10 14  1  0
 11 15  1  0
 12 16  1  0
 13 16  1  0
 14 17  1  0
 15 17  1  0
 18 20  1  0
 18 21  1  0
 18 22  1  0
 22 23  1  0
M  END
>  <PUBCHEM_COMPOUND_CID>  (1) 
13325

>  <PUBCHEM_CONFORMER_RMSD>  (1) 
0.8

>  <PUBCHEM_CONFORMER_DIVERSEORDER>  (1) 
1
3
4
5
2

>  <PUBCHEM_MMFF94_PARTIAL_CHARGES>  (1) 
11
1 -0.57
18 0.12
19 0.69
2 -0.57
20 0.57
21 0.57
3 -0.57
4 -0.42
5 -0.42
6 0.3
7 0.3

>  <PUBCHEM_EFFECTIVE_ROTOR_COUNT>  (1) 
6

>  <PUBCHEM_PHARMACOPHORE_FEATURES>  (1) 
8
1 1 acceptor
1 18 anion
1 2 acceptor
1 23 hydrophobe
1 3 acceptor
6 4 5 18 19 20 21 rings
6 6 8 9 12 13 16 rings
6 7 10 11 14 15 17 rings

>  <PUBCHEM_HEAVY_ATOM_COUNT>  (1) 
23

>  <PUBCHEM_ATOM_DEF_STEREO_COUNT>  (1) 
0

>  <PUBCHEM_ATOM_UDEF_STEREO_COUNT>  (1) 
0

>  <PUBCHEM_BOND_DEF_STEREO_COUNT>  (1) 
0

>  <PUBCHEM_BOND_UDEF_STEREO_COUNT>  (1) 
0

>  <PUBCHEM_ISOTOPIC_ATOM_COUNT>  (1) 
0

>  <PUBCHEM_COMPONENT_COUNT>  (1) 
1

>  <PUBCHEM_CACTVS_TAUTO_COUNT>  (1) 
1

>  <PUBCHEM_CONFORMER_ID>  (1) 
0000340D00000001

>  <PUBCHEM_MMFF94_ENERGY>  (1) 
40.8243

>  <PUBCHEM_FEATURE_SELFOVERLAP>  (1) 
40.597

>  <PUBCHEM_SHAPE_FINGERPRINT>  (1) 
11543360 7 16845569833332954844
12236239 1 18201154361323868469
12403814 3 16732977643831048693
12788726 201 17759806235815434758
12892183 10 14345793829456834357
12969540 114 18410564076815095021
13140716 1 18262518095873212267
13544592 145 18200609029252007478
13583140 156 15430029980900896509
14790565 3 18340210682708589281
1601671 61 18113340803760760852
16752209 62 18191582154109043950
16945 1 17894351068339789541
17492 54 18116411765986802927
18186145 218 18343297041975558285
19784866 170 17748829605139992992
200 152 11455891347317069509
204376 136 18261111867945834393
20602899 9 17489872656452112951
20739085 24 17972331624237712701
21033648 29 18201435925698282104
21033650 10 17058401148587758896
21524375 3 18335417932987024091
22182313 1 18266765565300017127
23402539 116 18201434796185140724
23419403 2 16267411628793184395
23557571 272 18057034942093231370
23558518 356 17902229254110828236
23559900 14 18341342162874702036
23566358 27 17984988085948505271
23569917 315 18407755928345196315
25147074 1 18188754124572246362
2748010 2 18335435546721972179
34934 24 18113332024905168672
350125 39 18116727402975032361
474 4 18410293592934215273
495365 180 17703784817521666850
5104073 3 18259984859742316507
53917941 68 18338499950195141791
59755656 520 18411697690578010142
633830 44 17988641852907209197
7495541 125 14117505575919107165
8863177 126 12462415155688642605
9862522 239 17968082123401886733

>  <PUBCHEM_SHAPE_MULTIPOLES>  (1) 
445.76
10.22
2.89
1.29
2.21
3.1
0.09
-7.96
1.12
-1.23
-0.07
0.03
-0.1
-0.11

>  <PUBCHEM_SHAPE_SELFOVERLAP>  (1) 
929.383

>  <PUBCHEM_SHAPE_VOLUME>  (1) 
247.1

>  <PUBCHEM_COORDINATE_TYPE>  (1) 
2
5
10

$$$$
