13349
     RDKit          3D

 15 14  0  0  1  0  0  0  0  0999 V2000
   -3.6369    0.1733    0.8388 O   0  0  0  0  0  0  0  0  0  0  0  0
   -2.0609   -1.9082    0.4975 O   0  0  0  0  0  0  0  0  0  0  0  0
    0.5045   -2.4939    0.7260 O   0  0  0  0  0  0  0  0  0  0  0  0
    3.7047    1.8724    1.0867 O   0  0  0  0  0  0  0  0  0  0  0  0
    2.5499    1.6810   -0.8587 O   0  0  0  0  0  0  0  0  0  0  0  0
    1.1564   -0.8896   -0.8182 N   0  0  0  0  0  0  0  0  0  0  0  0
   -2.7700    0.9441    0.0022 C   0  0  0  0  0  0  0  0  0  0  0  0
   -1.3419    0.3661    0.1292 C   0  0  0  0  0  0  0  0  0  0  0  0
   -1.1964   -1.1050   -0.2908 C   0  0  0  0  0  0  0  0  0  0  0  0
   -2.7839    2.3874    0.5191 C   0  0  0  0  0  0  0  0  0  0  0  0
   -3.3144    0.8998   -1.4263 C   0  0  0  0  0  0  0  0  0  0  0  0
    0.2298   -1.5902   -0.0607 C   0  0  0  0  0  0  0  0  0  0  0  0
    2.5715   -1.1661   -0.7497 C   0  0  0  0  0  0  0  0  0  0  0  0
    3.2670   -0.3301    0.3167 C   0  0  0  0  0  0  0  0  0  0  0  0
    3.1206    1.1588    0.0885 C   0  0  0  0  0  0  0  0  0  0  0  0
  1  7  1  0
  2  9  1  0
  3 12  2  0
  4 15  1  0
  5 15  2  0
  6 12  1  0
  6 13  1  0
  7  8  1  0
  7 10  1  0
  7 11  1  0
  8  9  1  0
  9 12  1  0
 13 14  1  0
 14 15  1  0
M  END
>  <PUBCHEM_COMPOUND_CID>  (1) 
13349

>  <PUBCHEM_CONFORMER_RMSD>  (1) 
0.8

>  <PUBCHEM_CONFORMER_DIVERSEORDER>  (1) 
1
61
130
68
116
24
93
98
71
75
4
132
49
108
137
149
126
48
25
154
67
12
83
109
10
144
34
103
21
142
94
26
115
146
59
125
136
42
46
145
86
112
99
152
6
101
128
153
111
120
2
43
11
91
129
155
29
62
23
45
77
64
50
124
84
117
138
60
13
44
141
31
123
7
17
89
82
58
87
92
107
95
76
35
143
139
118
148
19
113
105
81
38
156
32
119
104
78
127
69
33
135
3
121
150
16
79
85
147
37
53
72
151
110
51
66
47
102
5
27
28
122
100
131
157
52
57
140
90
133
65
20
41
134
22
55
96
63
36
73
70
9
88
106
54
15
97
40
39
30
14
18
8
74
114
56
80

>  <PUBCHEM_MMFF94_PARTIAL_CHARGES>  (1) 
16
1 -0.68
12 0.57
13 0.3
14 0.06
15 0.66
2 -0.68
25 0.4
26 0.37
29 0.4
3 -0.57
32 0.5
4 -0.65
5 -0.57
6 -0.73
7 0.28
9 0.34

>  <PUBCHEM_EFFECTIVE_ROTOR_COUNT>  (1) 
7

>  <PUBCHEM_PHARMACOPHORE_FEATURES>  (1) 
10
1 1 acceptor
1 1 donor
1 2 acceptor
1 2 donor
1 3 acceptor
1 4 acceptor
1 5 acceptor
1 6 donor
3 4 5 15 anion
3 7 10 11 hydrophobe

>  <PUBCHEM_HEAVY_ATOM_COUNT>  (1) 
15

>  <PUBCHEM_ATOM_DEF_STEREO_COUNT>  (1) 
0

>  <PUBCHEM_ATOM_UDEF_STEREO_COUNT>  (1) 
1

>  <PUBCHEM_BOND_DEF_STEREO_COUNT>  (1) 
0

>  <PUBCHEM_BOND_UDEF_STEREO_COUNT>  (1) 
0

>  <PUBCHEM_ISOTOPIC_ATOM_COUNT>  (1) 
0

>  <PUBCHEM_COMPONENT_COUNT>  (1) 
1

>  <PUBCHEM_CACTVS_TAUTO_COUNT>  (1) 
2

>  <PUBCHEM_CONFORMER_ID>  (1) 
0000342500000001

>  <PUBCHEM_MMFF94_ENERGY>  (1) 
19.7902

>  <PUBCHEM_FEATURE_SELFOVERLAP>  (1) 
50.835

>  <PUBCHEM_SHAPE_FINGERPRINT>  (1) 
10608611 8 18413393111516606094
11137873 295 9727343615885563777
11615756 256 18340218417976104056
11615756 56 18261668160499831500
12162725 195 18271522018162234406
122479 349 18411985745344417171
12824470 246 14203395125445778867
13618510 140 18410014346881981596
13764800 53 18336275616665665803
14250199 8 18129664080160957901
15775835 57 18272090526019848296
18186145 218 18411424968586451550
18219364 16 18261111842186801045
20281407 28 8718534017567054879
20304884 271 18342461413085304760
20510252 161 18266463289696140531
20671657 1 18267020561845318442
21041028 32 16535960209789093731
21524375 3 18410572864270871870
21639500 275 18119797032996457967
22749437 52 18411695482817639788
22959321 54 18341608213753453261
23557571 272 18197510720737414847
2748010 2 18337404806443786046
305870 269 18259979362543171706
474 4 18408604729930567237
526903 126 18342451569363348617
6333272 397 18408044009075351667
7364860 26 18122908624901755462
8050 44 18409163277595017309
81228 2 17970932143757452099
83771 10 9007052487271657518
94968 8 9223221966798352564

>  <PUBCHEM_SHAPE_MULTIPOLES>  (1) 
274.37
6.96
2.53
1.03
0.67
0.01
-0.17
4
0.27
0.43
0.52
-0.24
0.14
0.41

>  <PUBCHEM_SHAPE_SELFOVERLAP>  (1) 
527.839

>  <PUBCHEM_SHAPE_VOLUME>  (1) 
166.8

>  <PUBCHEM_COORDINATE_TYPE>  (1) 
2
5
10

$$$$
