13346
     RDKit          3D

 12 11  0  0  0  0  0  0  0  0999 V2000
    2.7696    0.1112   -0.4116 S   0  0  0  0  0  0  0  0  0  0  0  0
   -2.1811    0.3697   -2.1566 S   0  0  0  0  0  0  0  0  0  0  0  0
   -1.8125    0.0983   -0.2629 P   0  0  0  0  0  0  0  0  0  0  0  0
   -0.2566   -0.1338    0.1519 O   0  0  0  0  0  0  0  0  0  0  0  0
   -2.5284   -1.1801    0.4444 O   0  0  0  0  0  0  0  0  0  0  0  0
   -2.2376    1.3035    0.7440 O   0  0  0  0  0  0  0  0  0  0  0  0
    0.4098   -1.3191   -0.2493 C   0  0  0  0  0  0  0  0  0  0  0  0
    1.8447   -1.3067    0.2540 C   0  0  0  0  0  0  0  0  0  0  0  0
    4.3573   -0.2180    0.3858 C   0  0  0  0  0  0  0  0  0  0  0  0
    5.3744    0.8410    0.0050 C   0  0  0  0  0  0  0  0  0  0  0  0
   -3.9357   -1.1932    0.6153 C   0  0  0  0  0  0  0  0  0  0  0  0
   -1.8041    2.6272    0.4800 C   0  0  0  0  0  0  0  0  0  0  0  0
  1  8  1  0
  1  9  1  0
  2  3  2  0
  3  4  1  0
  3  5  1  0
  3  6  1  0
  4  7  1  0
  5 11  1  0
  6 12  1  0
  7  8  1  0
  9 10  1  0
M  END
>  <PUBCHEM_COMPOUND_CID>  (1) 
13346

>  <PUBCHEM_CONFORMER_RMSD>  (1) 
0.8

>  <PUBCHEM_CONFORMER_DIVERSEORDER>  (1) 
2
69
76
7
74
71
15
81
65
5
4
12
49
55
61
19
59
16
66
24
62
26
10
57
30
73
37
47
17
13
8
80
79
31
67
14
54
34
64
75
28
21
42
29
3
41
60
9
1
22
58
39
23
11
53
44
72
6
77
68
46
50
32
25
20
78
27
56
70
40
45
43
48
63
38
33
35
52
18
36
51

>  <PUBCHEM_MMFF94_PARTIAL_CHARGES>  (1) 
11
1 -0.46
11 0.28
12 0.28
2 -0.68
3 1.49
4 -0.55
5 -0.55
6 -0.55
7 0.28
8 0.23
9 0.23

>  <PUBCHEM_EFFECTIVE_ROTOR_COUNT>  (1) 
7

>  <PUBCHEM_PHARMACOPHORE_FEATURES>  (1) 
1
1 10 hydrophobe

>  <PUBCHEM_HEAVY_ATOM_COUNT>  (1) 
12

>  <PUBCHEM_ATOM_DEF_STEREO_COUNT>  (1) 
0

>  <PUBCHEM_ATOM_UDEF_STEREO_COUNT>  (1) 
0

>  <PUBCHEM_BOND_DEF_STEREO_COUNT>  (1) 
0

>  <PUBCHEM_BOND_UDEF_STEREO_COUNT>  (1) 
0

>  <PUBCHEM_ISOTOPIC_ATOM_COUNT>  (1) 
0

>  <PUBCHEM_COMPONENT_COUNT>  (1) 
1

>  <PUBCHEM_CACTVS_TAUTO_COUNT>  (1) 
1

>  <PUBCHEM_CONFORMER_ID>  (1) 
0000342200000002

>  <PUBCHEM_MMFF94_ENERGY>  (1) 
10.4054

>  <PUBCHEM_FEATURE_SELFOVERLAP>  (1) 
5.074

>  <PUBCHEM_SHAPE_FINGERPRINT>  (1) 
124424 183 13334735743366755278
12932764 1 17060044922417701674
13214271 11 18272653441729367925
18186145 218 18187930513401471758
18522853 276 18408606984930458488
200 152 18336256925168609615
20112054 60 18411136922573502540
20279233 1 11241963768316209858
20871999 31 16415466151902798949
21061003 4 18341048639923791217
22485316 2 9151173143484348782
2306618 200 17894624829739983077
23402539 116 18342170106934053398
23557571 272 18408328778181338790
3248919 1 18267008462801093842

>  <PUBCHEM_SHAPE_MULTIPOLES>  (1) 
240.89
8.9
1.89
1.23
11.57
1.02
-0.82
0.64
0.96
-1.44
0.56
-1.26
0.26
0.09

>  <PUBCHEM_SHAPE_SELFOVERLAP>  (1) 
398.339

>  <PUBCHEM_SHAPE_VOLUME>  (1) 
167.4

>  <PUBCHEM_COORDINATE_TYPE>  (1) 
2
5
10

$$$$
