13362
     RDKit          3D

 10  9  0  0  0  0  0  0  0  0999 V2000
   -1.3516    2.0514    0.2837 O   0  0  0  0  0  0  0  0  0  0  0  0
   -0.5731   -2.4802    0.0502 O   0  0  0  0  0  0  0  0  0  0  0  0
   -0.8871   -0.2213    0.2008 N   0  0  0  0  0  0  0  0  0  0  0  0
   -1.3726   -1.5718   -0.2004 N   0  0  0  0  0  0  0  0  0  0  0  0
   -2.9108    0.6663   -0.6188 N   0  0  0  0  0  0  0  0  0  0  0  0
    1.5019    0.1011   -0.2423 C   0  0  0  0  0  0  0  0  0  0  0  0
    0.4269   -0.1089    0.8227 C   0  0  0  0  0  0  0  0  0  0  0  0
    2.8866    0.2431    0.3908 C   0  0  0  0  0  0  0  0  0  0  0  0
    3.9670    0.4170   -0.6649 C   0  0  0  0  0  0  0  0  0  0  0  0
   -1.6872    0.9034   -0.0216 C   0  0  0  0  0  0  0  0  0  0  0  0
  1 10  2  0
  2  4  2  0
  3  4  1  0
  3  7  1  0
  3 10  1  0
  5 10  1  0
  6  7  1  0
  6  8  1  0
  8  9  1  0
M  END
>  <PUBCHEM_COMPOUND_CID>  (1) 
13362

>  <PUBCHEM_CONFORMER_RMSD>  (1) 
0.6

>  <PUBCHEM_CONFORMER_DIVERSEORDER>  (1) 
1
67
63
17
6
70
71
25
54
22
50
35
40
64
41
11
69
65
14
36
43
55
13
72
57
66
12
68
56
29
49
34
9
61
33
62
44
26
58
48
32
60
23
21
24
47
53
30
31
42
39
73
2
51
45
7
38
46
5
8
52
15
10
37
18
16
4
19
20
59
3
27
28

>  <PUBCHEM_MMFF94_PARTIAL_CHARGES>  (1) 
9
1 -0.57
10 0.69
2 -0.16
20 0.37
21 0.37
3 -0.18
4 -0.02
5 -0.8
7 0.3

>  <PUBCHEM_EFFECTIVE_ROTOR_COUNT>  (1) 
5

>  <PUBCHEM_PHARMACOPHORE_FEATURES>  (1) 
3
1 1 acceptor
1 5 donor
1 9 hydrophobe

>  <PUBCHEM_HEAVY_ATOM_COUNT>  (1) 
10

>  <PUBCHEM_ATOM_DEF_STEREO_COUNT>  (1) 
0

>  <PUBCHEM_ATOM_UDEF_STEREO_COUNT>  (1) 
0

>  <PUBCHEM_BOND_DEF_STEREO_COUNT>  (1) 
0

>  <PUBCHEM_BOND_UDEF_STEREO_COUNT>  (1) 
0

>  <PUBCHEM_ISOTOPIC_ATOM_COUNT>  (1) 
0

>  <PUBCHEM_COMPONENT_COUNT>  (1) 
1

>  <PUBCHEM_CACTVS_TAUTO_COUNT>  (1) 
2

>  <PUBCHEM_CONFORMER_ID>  (1) 
0000343200000001

>  <PUBCHEM_MMFF94_ENERGY>  (1) 
11.1569

>  <PUBCHEM_FEATURE_SELFOVERLAP>  (1) 
15.223

>  <PUBCHEM_SHAPE_FINGERPRINT>  (1) 
12716758 59 18342455941692634762
12932741 1 17846778555150243864
12932764 1 18338242660638048352
14325111 11 18337671906191161584
15775835 57 17894629232107835084
18534176 82 18342742952713417302
20645477 56 18410859871645481600
20828058 34 18409729556179618084
20871998 184 18271533116257929303
21040471 1 18339633439108625754
23235685 24 18411130303833856917
23402539 116 18342727512074061693
23552449 1 18268146637824403008
6333449 129 18412545444033910704
93112 12 18411426120328685940

>  <PUBCHEM_SHAPE_MULTIPOLES>  (1) 
179.11
5.05
1.8
0.77
4.64
0.85
-0.03
-1.53
1.27
-1.43
-0.02
0.19
-0.05
-0.08

>  <PUBCHEM_SHAPE_SELFOVERLAP>  (1) 
327.419

>  <PUBCHEM_SHAPE_VOLUME>  (1) 
113.7

>  <PUBCHEM_COORDINATE_TYPE>  (1) 
2
5
10

$$$$
