13365
     RDKit          3D

 12 11  0  0  1  0  0  0  0  0999 V2000
    0.0051    0.0004   -1.7328 O   0  0  0  0  0  0  0  0  0  0  0  0
   -1.1324    0.1801    0.2829 N   0  0  0  0  0  0  0  0  0  0  0  0
    1.1343   -0.1808    0.2860 N   0  0  0  0  0  0  0  0  0  0  0  0
   -2.4531    0.3905   -0.2726 C   0  0  0  0  0  0  0  0  0  0  0  0
    2.4500   -0.3900   -0.2714 C   0  0  0  0  0  0  0  0  0  0  0  0
   -3.5221   -0.1664    0.6750 C   0  0  0  0  0  0  0  0  0  0  0  0
    3.5213    0.1660    0.6743 C   0  0  0  0  0  0  0  0  0  0  0  0
   -2.6529    1.8851   -0.5018 C   0  0  0  0  0  0  0  0  0  0  0  0
    2.6491   -1.8843   -0.5025 C   0  0  0  0  0  0  0  0  0  0  0  0
    0.0008   -0.0001   -0.5024 C   0  0  0  0  0  0  0  0  0  0  0  0
   -3.3591   -1.6592    0.9320 C   0  0  0  0  0  0  0  0  0  0  0  0
    3.3590    1.6585    0.9333 C   0  0  0  0  0  0  0  0  0  0  0  0
  1 10  2  0
  2  4  1  0
  2 10  1  0
  3  5  1  0
  3 10  1  0
  4  6  1  0
  4  8  1  0
  5  7  1  0
  5  9  1  0
  6 11  1  0
  7 12  1  0
M  END
>  <PUBCHEM_COMPOUND_CID>  (1) 
13365

>  <PUBCHEM_CONFORMER_RMSD>  (1) 
0.6

>  <PUBCHEM_CONFORMER_DIVERSEORDER>  (1) 
1
137
50
86
33
57
128
89
20
39
136
131
56
24
59
52
69
54
107
134
41
19
140
2
124
88
38
43
132
55
114
18
129
9
93
51
60
138
11
118
25
120
10
68
104
47
21
77
91
53
143
42
44
85
48
76
28
142
144
26
111
115
35
34
64
141
49
45
72
97
23
113
5
108
16
139
46
81
84
29
61
32
123
30
126
3
96
66
127
4
106
15
74
14
92
40
103
37
109
62
17
102
6
82
121
8
58
27
133
7
122
100
12
65
117
36
78
31
112
110
73
119
125
98
22
94
105
135
63
13
71
130
95
116
99
75
70
101
83
80
67
90
79
87

>  <PUBCHEM_MMFF94_PARTIAL_CHARGES>  (1) 
8
1 -0.57
10 0.69
19 0.37
2 -0.73
20 0.37
3 -0.73
4 0.3
5 0.3

>  <PUBCHEM_EFFECTIVE_ROTOR_COUNT>  (1) 
6

>  <PUBCHEM_PHARMACOPHORE_FEATURES>  (1) 
5
1 1 acceptor
1 11 hydrophobe
1 12 hydrophobe
1 2 donor
1 3 donor

>  <PUBCHEM_HEAVY_ATOM_COUNT>  (1) 
12

>  <PUBCHEM_ATOM_DEF_STEREO_COUNT>  (1) 
0

>  <PUBCHEM_ATOM_UDEF_STEREO_COUNT>  (1) 
2

>  <PUBCHEM_BOND_DEF_STEREO_COUNT>  (1) 
0

>  <PUBCHEM_BOND_UDEF_STEREO_COUNT>  (1) 
0

>  <PUBCHEM_ISOTOPIC_ATOM_COUNT>  (1) 
0

>  <PUBCHEM_COMPONENT_COUNT>  (1) 
1

>  <PUBCHEM_CACTVS_TAUTO_COUNT>  (1) 
2

>  <PUBCHEM_CONFORMER_ID>  (1) 
0000343500000001

>  <PUBCHEM_MMFF94_ENERGY>  (1) 
5.2344

>  <PUBCHEM_FEATURE_SELFOVERLAP>  (1) 
25.424

>  <PUBCHEM_SHAPE_FINGERPRINT>  (1) 
10608611 8 18411696547911227632
10980938 120 17988634216676753448
12500047 106 18044092354536038375
12932764 1 18202847642835657350
13296908 3 18335986376224507991
14026960 21 18267861872940082672
14289901 80 18410855481602998531
14325111 11 18411136900750421838
15219456 202 18341894056479613453
18186145 218 17418095403772028836
19026448 4 18410855425768423452
20279233 1 18408601440038112491
20645477 56 18188771639654412565
20645477 70 17917142776147363198
20711985 327 16805040731121546676
20715346 28 18411418380022093540
21501925 9 17749389320814066365
22169311 21 18334572408724560271
22943178 12 18410291367734668750
22959321 60 18410848893355593376
23559900 14 18334295323320301830
3086196 2 18186802517423630929
3248919 1 18040435477408978463
6049 1 18340495469257546412
9882013 296 18338799042916547979

>  <PUBCHEM_SHAPE_MULTIPOLES>  (1) 
231.12
7.31
1.75
1.11
0.01
0
0.18
0
-2.3
0
-0.11
0
0
1.48

>  <PUBCHEM_SHAPE_SELFOVERLAP>  (1) 
423.822

>  <PUBCHEM_SHAPE_VOLUME>  (1) 
147.7

>  <PUBCHEM_COORDINATE_TYPE>  (1) 
2
5
10

$$$$
