13369
     RDKit          3D

  4  3  0  0  0  0  0  0  0  0999 V2000
    2.0808    0.1736    0.0039 Cl  0  0  0  0  0  0  0  0  0  0  0  0
   -1.9333   -0.1098    0.0048 N   0  0  0  0  0  0  0  0  0  0  0  0
   -0.6113    0.5060   -0.0048 C   0  0  0  0  0  0  0  0  0  0  0  0
    0.4637   -0.5698   -0.0040 C   0  0  0  0  0  0  0  0  0  0  0  0
  1  4  1  0
  2  3  1  0
  3  4  1  0
M  END
>  <PUBCHEM_COMPOUND_CID>  (1) 
13369

>  <PUBCHEM_CONFORMER_RMSD>  (1) 
0.4

>  <PUBCHEM_CONFORMER_DIVERSEORDER>  (1) 
1
3
2

>  <PUBCHEM_MMFF94_PARTIAL_CHARGES>  (1) 
6
1 -0.29
10 0.36
2 -0.99
3 0.27
4 0.29
9 0.36

>  <PUBCHEM_EFFECTIVE_ROTOR_COUNT>  (1) 
1

>  <PUBCHEM_PHARMACOPHORE_FEATURES>  (1) 
2
1 2 cation
1 2 donor

>  <PUBCHEM_HEAVY_ATOM_COUNT>  (1) 
4

>  <PUBCHEM_ATOM_DEF_STEREO_COUNT>  (1) 
0

>  <PUBCHEM_ATOM_UDEF_STEREO_COUNT>  (1) 
0

>  <PUBCHEM_BOND_DEF_STEREO_COUNT>  (1) 
0

>  <PUBCHEM_BOND_UDEF_STEREO_COUNT>  (1) 
0

>  <PUBCHEM_ISOTOPIC_ATOM_COUNT>  (1) 
0

>  <PUBCHEM_COMPONENT_COUNT>  (1) 
1

>  <PUBCHEM_CACTVS_TAUTO_COUNT>  (1) 
1

>  <PUBCHEM_CONFORMER_ID>  (1) 
0000343900000001

>  <PUBCHEM_MMFF94_ENERGY>  (1) 
-3.6224

>  <PUBCHEM_FEATURE_SELFOVERLAP>  (1) 
10.148

>  <PUBCHEM_SHAPE_FINGERPRINT>  (1) 
139733 1 9367345937786754213
16714656 1 18272371992200675286
20096714 4 18411418431909990392
21015797 1 9150297944343355747
5460574 1 9223234048351224736

>  <PUBCHEM_SHAPE_MULTIPOLES>  (1) 
79.21
2.69
0.77
0.61
0.21
0.01
0
-0.13
-0.01
0.05
0
0.06
0
0

>  <PUBCHEM_SHAPE_SELFOVERLAP>  (1) 
120.738

>  <PUBCHEM_SHAPE_VOLUME>  (1) 
57.7

>  <PUBCHEM_COORDINATE_TYPE>  (1) 
2
5
10

$$$$
