1338
     RDKit          2D

 30 31  0  0  0  0  0  0  0  0999 V2000
    0.0000    0.0000    0.0000 O   0  0  0  0  0  0  0  0  0  0  0  0
    0.0000    0.0000    0.0000 N   0  0  0  0  0  0  0  0  0  0  0  0
    0.0000    0.0000    0.0000 N   0  0  0  0  0  0  0  0  0  0  0  0
    0.0000    0.0000    0.0000 C   0  0  0  0  0  0  0  0  0  0  0  0
    0.0000    0.0000    0.0000 C   0  0  0  0  0  0  0  0  0  0  0  0
    0.0000    0.0000    0.0000 C   0  0  0  0  0  0  0  0  0  0  0  0
    0.0000    0.0000    0.0000 C   0  0  0  0  0  0  0  0  0  0  0  0
    0.0000    0.0000    0.0000 C   0  0  0  0  0  0  0  0  0  0  0  0
    0.0000    0.0000    0.0000 C   0  0  0  0  0  0  0  0  0  0  0  0
    0.0000    0.0000    0.0000 C   0  0  0  0  0  0  0  0  0  0  0  0
    0.0000    0.0000    0.0000 C   0  0  0  0  0  0  0  0  0  0  0  0
    0.0000    0.0000    0.0000 C   0  0  0  0  0  0  0  0  0  0  0  0
    0.0000    0.0000    0.0000 C   0  0  0  0  0  0  0  0  0  0  0  0
    0.0000    0.0000    0.0000 C   0  0  0  0  0  0  0  0  0  0  0  0
    0.0000    0.0000    0.0000 C   0  0  0  0  0  0  0  0  0  0  0  0
    0.0000    0.0000    0.0000 C   0  0  0  0  0  0  0  0  0  0  0  0
    0.0000    0.0000    0.0000 C   0  0  0  0  0  0  0  0  0  0  0  0
    0.0000    0.0000    0.0000 C   0  0  0  0  0  0  0  0  0  0  0  0
    0.0000    0.0000    0.0000 C   0  0  0  0  0  0  0  0  0  0  0  0
    0.0000    0.0000    0.0000 C   0  0  0  0  0  0  0  0  0  0  0  0
    0.0000    0.0000    0.0000 C   0  0  0  0  0  0  0  0  0  0  0  0
    0.0000    0.0000    0.0000 C   0  0  0  0  0  0  0  0  0  0  0  0
    0.0000    0.0000    0.0000 C   0  0  0  0  0  0  0  0  0  0  0  0
    0.0000    0.0000    0.0000 C   0  0  0  0  0  0  0  0  0  0  0  0
    0.0000    0.0000    0.0000 C   0  0  0  0  0  0  0  0  0  0  0  0
    0.0000    0.0000    0.0000 C   0  0  0  0  0  0  0  0  0  0  0  0
    0.0000    0.0000    0.0000 C   0  0  0  0  0  0  0  0  0  0  0  0
    0.0000    0.0000    0.0000 C   0  0  0  0  0  0  0  0  0  0  0  0
    0.0000    0.0000    0.0000 C   0  0  0  0  0  0  0  0  0  0  0  0
    0.0000    0.0000    0.0000 C   0  0  0  0  0  0  0  0  0  0  0  0
  1 28  2  0
  2  4  1  0
  2  6  1  0
  2  8  1  0
  2  9  1  0
  3  5  1  0
  3  7  1  0
  3 10  1  0
  3 11  1  0
  4 12  2  0
  4 14  1  0
  5 13  2  0
  5 15  1  0
  6 26  1  0
  7 27  1  0
 12 22  1  0
 13 23  1  0
 14 24  2  0
 15 25  2  0
 16 18  1  0
 16 22  2  0
 16 24  1  0
 17 19  1  0
 17 23  2  0
 17 25  1  0
 18 20  1  0
 19 21  1  0
 20 28  1  0
 21 28  1  0
 26 29  2  0
 27 30  2  0
M  CHG  2   2   1   3   1
M  END
>  <PUBCHEM_COMPOUND_CID>  (1) 
1338

>  <PUBCHEM_CONFORMER_RMSD>  (1) 
1.2

>  <PUBCHEM_CONFORMER_DIVERSEORDER>  (1) 
24
173
155
80
169
191
41
2
94
153
11
87
98
22
186
141
136
1
146
110
48
108
51
103
104
178
29
198
63
91
19
139
55
12
5
46
175
147
192
163
121
150
149
31
52
53
73
197
60
123
50
17
167
124
75
65
160
49
57
81
189
113
6
43
168
165
101
166
190
177
8
133
144
143
159
35
131
71
14
7
88
195
128
84
39
109
158
36
154
170
122
134
114
176
95
96
174
118
76
45
184
132
38
20
105
185
182
32
157
26
193
10
180
33
28
67
99
25
194
74
156
54
142
59
44
15
129
27
171
82
42
148
100
188
47
119
4
112
135
37
58
140
137
21
40
151
62
183
69
130
66
102
164
3
179
72
68
93
107
64
125
187
70
13
116
115
34
117
56
23
161
9
127
145
90
111
83
77
79
138
172
30
181
78
106
126
196
86
120
97
61
152
162
89
18
16
92
85

>  <PUBCHEM_MMFF94_PARTIAL_CHARGES>  (1) 
44
1 -0.57
10 0.5
11 0.5
12 -0.15
13 -0.15
14 -0.15
15 -0.15
16 -0.14
17 -0.14
18 0.14
19 0.14
2 -0.87
20 0.06
21 0.06
22 -0.15
23 -0.15
24 -0.15
25 -0.15
26 -0.29
27 -0.29
28 0.45
29 -0.3
3 -0.87
30 -0.3
4 0.36
47 0.15
48 0.15
49 0.15
5 0.36
50 0.15
59 0.15
6 0.64
60 0.15
61 0.15
62 0.15
63 0.15
64 0.15
65 0.15
66 0.15
67 0.15
68 0.15
7 0.64
8 0.5
9 0.5

>  <PUBCHEM_EFFECTIVE_ROTOR_COUNT>  (1) 
12

>  <PUBCHEM_PHARMACOPHORE_FEATURES>  (1) 
7
1 1 acceptor
1 2 cation
1 29 hydrophobe
1 3 cation
1 30 hydrophobe
6 4 12 14 16 22 24 rings
6 5 13 15 17 23 25 rings

>  <PUBCHEM_HEAVY_ATOM_COUNT>  (1) 
30

>  <PUBCHEM_ATOM_DEF_STEREO_COUNT>  (1) 
0

>  <PUBCHEM_ATOM_UDEF_STEREO_COUNT>  (1) 
0

>  <PUBCHEM_BOND_DEF_STEREO_COUNT>  (1) 
0

>  <PUBCHEM_BOND_UDEF_STEREO_COUNT>  (1) 
0

>  <PUBCHEM_ISOTOPIC_ATOM_COUNT>  (1) 
0

>  <PUBCHEM_COMPONENT_COUNT>  (1) 
1

>  <PUBCHEM_CACTVS_TAUTO_COUNT>  (1) 
2

$$$$
