13383
     RDKit          3D

  6  6  0  0  0  0  0  0  0  0999 V2000
    2.5936    0.0394    0.0001 Br  0  0  0  0  0  0  0  0  0  0  0  0
   -1.7494    0.7850    0.0001 S   0  0  0  0  0  0  0  0  0  0  0  0
    0.7115    0.0470   -0.0001 C   0  0  0  0  0  0  0  0  0  0  0  0
   -0.0604   -1.1507   -0.0001 C   0  0  0  0  0  0  0  0  0  0  0  0
   -0.0815    1.1734   -0.0001 C   0  0  0  0  0  0  0  0  0  0  0  0
   -1.4137   -0.8940    0.0001 C   0  0  0  0  0  0  0  0  0  0  0  0
  1  3  1  0
  2  5  1  0
  2  6  1  0
  3  4  1  0
  3  5  2  0
  4  6  2  0
M  END
>  <PUBCHEM_COMPOUND_CID>  (1) 
13383

>  <PUBCHEM_CONFORMER_RMSD>  (1) 
0.4

>  <PUBCHEM_CONFORMER_DIVERSEORDER>  (1) 
1

>  <PUBCHEM_MMFF94_PARTIAL_CHARGES>  (1) 
9
1 -0.06
2 -0.08
3 0.06
4 -0.15
5 -0.11
6 -0.11
7 0.15
8 0.15
9 0.15

>  <PUBCHEM_EFFECTIVE_ROTOR_COUNT>  (1) 
0

>  <PUBCHEM_PHARMACOPHORE_FEATURES>  (1) 
2
1 1 hydrophobe
5 2 3 4 5 6 rings

>  <PUBCHEM_HEAVY_ATOM_COUNT>  (1) 
6

>  <PUBCHEM_ATOM_DEF_STEREO_COUNT>  (1) 
0

>  <PUBCHEM_ATOM_UDEF_STEREO_COUNT>  (1) 
0

>  <PUBCHEM_BOND_DEF_STEREO_COUNT>  (1) 
0

>  <PUBCHEM_BOND_UDEF_STEREO_COUNT>  (1) 
0

>  <PUBCHEM_ISOTOPIC_ATOM_COUNT>  (1) 
0

>  <PUBCHEM_COMPONENT_COUNT>  (1) 
1

>  <PUBCHEM_CACTVS_TAUTO_COUNT>  (1) 
1

>  <PUBCHEM_CONFORMER_ID>  (1) 
0000344700000001

>  <PUBCHEM_MMFF94_ENERGY>  (1) 
2.8121

>  <PUBCHEM_FEATURE_SELFOVERLAP>  (1) 
10.148

>  <PUBCHEM_SHAPE_FINGERPRINT>  (1) 
16714656 1 18410014329580442172
20096714 4 18337954484842468561
21040471 1 18266459815019917089
23552423 10 18260552208206640486
29004967 10 18342462590154341770
5460574 1 9295291642473548704

>  <PUBCHEM_SHAPE_MULTIPOLES>  (1) 
133.27
2.94
1.31
0.65
1.75
0.05
0
-0.24
0
-0.4
0
0.03
-0.01
0

>  <PUBCHEM_SHAPE_SELFOVERLAP>  (1) 
243.541

>  <PUBCHEM_SHAPE_VOLUME>  (1) 
88.6

>  <PUBCHEM_COORDINATE_TYPE>  (1) 
2
5
10

$$$$
