13398
     RDKit          3D

 10 10  0  0  1  0  0  0  0  0999 V2000
    0.6674   -2.6167    0.2454 O   0  0  0  0  0  0  0  0  0  0  0  0
   -1.2593    0.3613   -0.0099 C   0  0  0  0  0  0  0  0  0  0  0  0
   -0.1031    1.3685   -0.2247 C   0  0  0  0  0  0  0  0  0  0  0  0
    1.2525    0.8618    0.2967 C   0  0  0  0  0  0  0  0  0  0  0  0
   -0.8914   -1.0072   -0.6116 C   0  0  0  0  0  0  0  0  0  0  0  0
    1.6099   -0.4880   -0.3259 C   0  0  0  0  0  0  0  0  0  0  0  0
    0.4748   -1.4697   -0.1545 C   0  0  0  0  0  0  0  0  0  0  0  0
   -1.5841    0.2098    1.4892 C   0  0  0  0  0  0  0  0  0  0  0  0
   -2.5186    0.8948   -0.7182 C   0  0  0  0  0  0  0  0  0  0  0  0
    2.3519    1.8854    0.0136 C   0  0  0  0  0  0  0  0  0  0  0  0
  1  7  2  0
  2  3  1  0
  2  5  1  0
  2  8  1  0
  2  9  1  0
  3  4  1  0
  4  6  1  0
  4 10  1  0
  5  7  1  0
  6  7  1  0
M  END
>  <PUBCHEM_COMPOUND_CID>  (1) 
13398

>  <PUBCHEM_CONFORMER_RMSD>  (1) 
0.4

>  <PUBCHEM_CONFORMER_DIVERSEORDER>  (1) 
1
2
3
4
5
6

>  <PUBCHEM_MMFF94_PARTIAL_CHARGES>  (1) 
4
1 -0.57
5 0.06
6 0.06
7 0.45

>  <PUBCHEM_EFFECTIVE_ROTOR_COUNT>  (1) 
1

>  <PUBCHEM_PHARMACOPHORE_FEATURES>  (1) 
3
1 1 acceptor
3 2 8 9 hydrophobe
6 2 3 4 5 6 7 rings

>  <PUBCHEM_HEAVY_ATOM_COUNT>  (1) 
10

>  <PUBCHEM_ATOM_DEF_STEREO_COUNT>  (1) 
0

>  <PUBCHEM_ATOM_UDEF_STEREO_COUNT>  (1) 
1

>  <PUBCHEM_BOND_DEF_STEREO_COUNT>  (1) 
0

>  <PUBCHEM_BOND_UDEF_STEREO_COUNT>  (1) 
0

>  <PUBCHEM_ISOTOPIC_ATOM_COUNT>  (1) 
0

>  <PUBCHEM_COMPONENT_COUNT>  (1) 
1

>  <PUBCHEM_CACTVS_TAUTO_COUNT>  (1) 
3

>  <PUBCHEM_CONFORMER_ID>  (1) 
0000345600000001

>  <PUBCHEM_MMFF94_ENERGY>  (1) 
19.1225

>  <PUBCHEM_FEATURE_SELFOVERLAP>  (1) 
15.223

>  <PUBCHEM_SHAPE_FINGERPRINT>  (1) 
100427 49 17908434554061257230
12423570 1 12829473819138182833
13024252 1 14781762404746400136
14817 1 8355494064177898954
16945 1 18266179430964782709
18185500 45 18126561211076437815
21040471 1 18267017439409174228
21922407 69 16557326151477931755
23211744 41 17604410930422414501
23552423 10 18340478968124940661
241688 4 17257925996999793064
2748010 2 18337676415864462158
29004967 10 18119259371599381259
5084963 1 18201155546032897292

>  <PUBCHEM_SHAPE_MULTIPOLES>  (1) 
199.93
2.82
2.19
0.96
0.16
1.19
-0.27
-1.59
0.15
0.77
0.04
-0.5
-0.1
0.1

>  <PUBCHEM_SHAPE_SELFOVERLAP>  (1) 
392.925

>  <PUBCHEM_SHAPE_VOLUME>  (1) 
120.7

>  <PUBCHEM_COORDINATE_TYPE>  (1) 
2
5
10

$$$$
