13396
     RDKit          3D

  9  9  0  0  0  0  0  0  0  0999 V2000
    3.2502   -0.0001    0.0000 N   0  0  0  0  0  0  0  0  0  0  0  0
   -3.5408    0.0001    0.0000 N   0  0  0  0  0  0  0  0  0  0  0  0
    1.8398    0.0000    0.0000 C   0  0  0  0  0  0  0  0  0  0  0  0
    1.1422   -1.2080    0.0000 C   0  0  0  0  0  0  0  0  0  0  0  0
    1.1424    1.2081    0.0000 C   0  0  0  0  0  0  0  0  0  0  0  0
   -0.9499   -0.0001    0.0000 C   0  0  0  0  0  0  0  0  0  0  0  0
   -0.2526   -1.2080    0.0000 C   0  0  0  0  0  0  0  0  0  0  0  0
   -0.2525    1.2080    0.0000 C   0  0  0  0  0  0  0  0  0  0  0  0
   -2.3788    0.0000    0.0000 C   0  0  0  0  0  0  0  0  0  0  0  0
  1  3  1  0
  2  9  3  0
  3  4  2  0
  3  5  1  0
  4  7  1  0
  5  8  2  0
  6  7  2  0
  6  8  1  0
  6  9  1  0
M  END
>  <PUBCHEM_COMPOUND_CID>  (1) 
13396

>  <PUBCHEM_CONFORMER_RMSD>  (1) 
0.4

>  <PUBCHEM_CONFORMER_DIVERSEORDER>  (1) 
1

>  <PUBCHEM_MMFF94_PARTIAL_CHARGES>  (1) 
15
1 -0.9
10 0.15
11 0.15
12 0.15
13 0.15
14 0.4
15 0.4
2 -0.56
3 0.1
4 -0.15
5 -0.15
6 0.07
7 -0.15
8 -0.15
9 0.48

>  <PUBCHEM_EFFECTIVE_ROTOR_COUNT>  (1) 
0

>  <PUBCHEM_PHARMACOPHORE_FEATURES>  (1) 
4
1 1 cation
1 1 donor
1 2 acceptor
6 3 4 5 6 7 8 rings

>  <PUBCHEM_HEAVY_ATOM_COUNT>  (1) 
9

>  <PUBCHEM_ATOM_DEF_STEREO_COUNT>  (1) 
0

>  <PUBCHEM_ATOM_UDEF_STEREO_COUNT>  (1) 
0

>  <PUBCHEM_BOND_DEF_STEREO_COUNT>  (1) 
0

>  <PUBCHEM_BOND_UDEF_STEREO_COUNT>  (1) 
0

>  <PUBCHEM_ISOTOPIC_ATOM_COUNT>  (1) 
0

>  <PUBCHEM_COMPONENT_COUNT>  (1) 
1

>  <PUBCHEM_CACTVS_TAUTO_COUNT>  (1) 
1

>  <PUBCHEM_CONFORMER_ID>  (1) 
0000345400000001

>  <PUBCHEM_MMFF94_ENERGY>  (1) 
27.375

>  <PUBCHEM_FEATURE_SELFOVERLAP>  (1) 
20.297

>  <PUBCHEM_SHAPE_FINGERPRINT>  (1) 
10219947 1 9367347041508881805
11062470 55 14261635036192009715
14325111 11 9223219750484308583
16945 1 9295289443223459328
193761 8 9220191699624453508
21040471 1 9294414227657042530
23235685 24 9295285023791821510
23402655 69 9078293059104687515
23552423 10 10518895277752427168
2748010 2 9294127268054489770
29004967 10 10375875194609574183
5084963 1 8358258141899799703
528886 8 8934997053491509621

>  <PUBCHEM_SHAPE_MULTIPOLES>  (1) 
175.25
4.14
1.28
0.6
1.58
0
0
0
0
-0.3
0
0
0
0

>  <PUBCHEM_SHAPE_SELFOVERLAP>  (1) 
365.799

>  <PUBCHEM_SHAPE_VOLUME>  (1) 
98.3

>  <PUBCHEM_COORDINATE_TYPE>  (1) 
2
5
10

$$$$
