13407
     RDKit          3D

 10 10  0  0  0  0  0  0  0  0999 V2000
    1.0269   -0.0037   -1.2700 S   0  0  0  0  0  0  0  0  0  0  0  0
    3.5683   -0.0021   -0.2218 C   0  0  0  0  0  0  0  0  0  0  0  0
    2.1012   -0.0006    0.1929 C   0  0  0  0  0  0  0  0  0  0  0  0
   -0.5942   -0.0012   -0.5290 C   0  0  0  0  0  0  0  0  0  0  0  0
    4.4816    0.0045    0.9955 C   0  0  0  0  0  0  0  0  0  0  0  0
   -1.2283    1.2075   -0.2418 C   0  0  0  0  0  0  0  0  0  0  0  0
   -1.2288   -1.2084   -0.2366 C   0  0  0  0  0  0  0  0  0  0  0  0
   -2.4971    1.2091    0.3379 C   0  0  0  0  0  0  0  0  0  0  0  0
   -2.4977   -1.2069    0.3429 C   0  0  0  0  0  0  0  0  0  0  0  0
   -3.1318    0.0019    0.6301 C   0  0  0  0  0  0  0  0  0  0  0  0
  1  3  1  0
  1  4  1  0
  2  3  1  0
  2  5  1  0
  4  6  2  0
  4  7  1  0
  6  8  1  0
  7  9  2  0
  8 10  2  0
  9 10  1  0
M  END
>  <PUBCHEM_COMPOUND_CID>  (1) 
13407

>  <PUBCHEM_CONFORMER_RMSD>  (1) 
0.6

>  <PUBCHEM_CONFORMER_DIVERSEORDER>  (1) 
1
13
6
5
12
2
9
11
3
10
7
4
8

>  <PUBCHEM_MMFF94_PARTIAL_CHARGES>  (1) 
13
1 -0.33
10 -0.15
18 0.15
19 0.15
20 0.15
21 0.15
22 0.15
3 0.23
4 0.1
6 -0.15
7 -0.15
8 -0.15
9 -0.15

>  <PUBCHEM_EFFECTIVE_ROTOR_COUNT>  (1) 
3

>  <PUBCHEM_PHARMACOPHORE_FEATURES>  (1) 
2
1 5 hydrophobe
6 4 6 7 8 9 10 rings

>  <PUBCHEM_HEAVY_ATOM_COUNT>  (1) 
10

>  <PUBCHEM_ATOM_DEF_STEREO_COUNT>  (1) 
0

>  <PUBCHEM_ATOM_UDEF_STEREO_COUNT>  (1) 
0

>  <PUBCHEM_BOND_DEF_STEREO_COUNT>  (1) 
0

>  <PUBCHEM_BOND_UDEF_STEREO_COUNT>  (1) 
0

>  <PUBCHEM_ISOTOPIC_ATOM_COUNT>  (1) 
0

>  <PUBCHEM_COMPONENT_COUNT>  (1) 
1

>  <PUBCHEM_CACTVS_TAUTO_COUNT>  (1) 
1

>  <PUBCHEM_CONFORMER_ID>  (1) 
0000345F00000001

>  <PUBCHEM_MMFF94_ENERGY>  (1) 
18.4134

>  <PUBCHEM_FEATURE_SELFOVERLAP>  (1) 
10.148

>  <PUBCHEM_SHAPE_FINGERPRINT>  (1) 
10857977 72 18270975616960501613
11127187 94 11241972585546516833
12251169 10 18410575102164818508
12932764 1 17530963583941367108
13024252 1 14418132903172342893
14123260 362 13901623108304387602
15219456 202 17846226501138637934
18186145 218 15051737504001768956
20361792 2 16225765233435700166
20645464 45 17917436414581965591
20671657 53 13118280344189513078
20711985 327 17167584890813478854
20711985 344 13768743739020929670
20871998 184 18201165454770817647
21119208 17 10519988166724917944
21650355 55 18337107964189835849
22485316 2 15647051577596255592
22926399 37 14620792695495966819
23402539 116 18343293774217193669
23403322 49 13046212858694229080
23552423 10 17610924647948498885
3086196 2 18341329015088518327
369184 2 18130792235220958431
75552 356 18408889550543967295

>  <PUBCHEM_SHAPE_MULTIPOLES>  (1) 
209.64
6.92
1.2
1.02
7.51
0
-0.13
0.01
2.71
-1.07
0.03
0.47
0
0.01

>  <PUBCHEM_SHAPE_SELFOVERLAP>  (1) 
402.114

>  <PUBCHEM_SHAPE_VOLUME>  (1) 
128

>  <PUBCHEM_COORDINATE_TYPE>  (1) 
2
5
10

$$$$
