13404
     RDKit          3D

 10 10  0  0  0  0  0  0  0  0999 V2000
   -1.1342    2.4800   -0.0147 Cl  0  0  0  0  0  0  0  0  0  0  0  0
    3.5942   -0.0808    0.1760 Cl  0  0  0  0  0  0  0  0  0  0  0  0
   -3.0460   -0.9510    0.5181 O   0  0  0  0  0  0  0  0  0  0  0  0
   -0.9004   -0.2330   -0.1741 C   0  0  0  0  0  0  0  0  0  0  0  0
   -0.2521    0.9954   -0.0450 C   0  0  0  0  0  0  0  0  0  0  0  0
   -0.1590   -1.4143   -0.1941 C   0  0  0  0  0  0  0  0  0  0  0  0
    1.1379    1.0424    0.0640 C   0  0  0  0  0  0  0  0  0  0  0  0
    1.2307   -1.3673   -0.0851 C   0  0  0  0  0  0  0  0  0  0  0  0
    1.8792   -0.1391    0.0439 C   0  0  0  0  0  0  0  0  0  0  0  0
   -2.3503   -0.3322   -0.2891 C   0  0  0  0  0  0  0  0  0  0  0  0
  1  5  1  0
  2  9  1  0
  3 10  2  0
  4  5  2  0
  4  6  1  0
  4 10  1  0
  5  7  1  0
  6  8  2  0
  7  9  2  0
  8  9  1  0
M  END
>  <PUBCHEM_COMPOUND_CID>  (1) 
13404

>  <PUBCHEM_CONFORMER_RMSD>  (1) 
0.4

>  <PUBCHEM_CONFORMER_DIVERSEORDER>  (1) 
1
2

>  <PUBCHEM_MMFF94_PARTIAL_CHARGES>  (1) 
14
1 -0.18
10 0.42
11 0.15
12 0.15
13 0.15
14 0.06
2 -0.18
3 -0.57
4 0.09
5 0.18
6 -0.15
7 -0.15
8 -0.15
9 0.18

>  <PUBCHEM_EFFECTIVE_ROTOR_COUNT>  (1) 
1

>  <PUBCHEM_PHARMACOPHORE_FEATURES>  (1) 
2
1 3 acceptor
6 4 5 6 7 8 9 rings

>  <PUBCHEM_HEAVY_ATOM_COUNT>  (1) 
10

>  <PUBCHEM_ATOM_DEF_STEREO_COUNT>  (1) 
0

>  <PUBCHEM_ATOM_UDEF_STEREO_COUNT>  (1) 
0

>  <PUBCHEM_BOND_DEF_STEREO_COUNT>  (1) 
0

>  <PUBCHEM_BOND_UDEF_STEREO_COUNT>  (1) 
0

>  <PUBCHEM_ISOTOPIC_ATOM_COUNT>  (1) 
0

>  <PUBCHEM_COMPONENT_COUNT>  (1) 
1

>  <PUBCHEM_CACTVS_TAUTO_COUNT>  (1) 
1

>  <PUBCHEM_CONFORMER_ID>  (1) 
0000345C00000001

>  <PUBCHEM_MMFF94_ENERGY>  (1) 
26.0717

>  <PUBCHEM_FEATURE_SELFOVERLAP>  (1) 
10.148

>  <PUBCHEM_SHAPE_FINGERPRINT>  (1) 
10219947 1 18340770445938201555
10857977 72 18410003364412943107
11206711 2 18411134697585472604
12032990 46 18410299146057884126
12423570 1 10321662554289991638
13380535 21 18053394201437578372
13380535 76 17979343171137999293
14325111 11 18339358561818853480
16945 1 18412538829831851638
193761 8 17979072678408547126
20871998 184 18272367538335485204
21040471 1 17979353388854484484
21501502 16 18122621656692885082
23402655 69 18196633130982414053
23552423 10 18117563920612065406
2748010 2 18125439713743078382
29004967 10 18408605885308138995
5084963 1 18202565072853243570
68250623 7 18046908182335012298

>  <PUBCHEM_SHAPE_MULTIPOLES>  (1) 
203.67
4.14
1.97
0.65
1.63
1
0
-0.67
0.43
-0.93
-0.01
-0.05
-0.02
0.14

>  <PUBCHEM_SHAPE_SELFOVERLAP>  (1) 
407.969

>  <PUBCHEM_SHAPE_VOLUME>  (1) 
122

>  <PUBCHEM_COORDINATE_TYPE>  (1) 
2
5
10

$$$$
