13400
     RDKit          3D

 10 10  0  0  1  0  0  0  0  0999 V2000
   -0.1579   -2.0549   -0.2252 O   0  0  0  0  0  0  0  0  0  0  0  0
   -2.0555    0.0805   -1.2403 O   0  0  0  0  0  0  0  0  0  0  0  0
   -0.3342    0.2712    0.3990 C   0  0  0  0  0  0  0  0  0  0  0  0
    0.3839    1.4395   -0.2769 C   0  0  0  0  0  0  0  0  0  0  0  0
    1.8641    1.4907    0.0979 C   0  0  0  0  0  0  0  0  0  0  0  0
    2.5637    0.1797   -0.2524 C   0  0  0  0  0  0  0  0  0  0  0  0
    1.8969   -1.0111    0.4212 C   0  0  0  0  0  0  0  0  0  0  0  0
    0.4128   -1.0237    0.1268 C   0  0  0  0  0  0  0  0  0  0  0  0
   -1.7600    0.2347   -0.0562 C   0  0  0  0  0  0  0  0  0  0  0  0
   -2.8138    0.3934    1.0061 C   0  0  0  0  0  0  0  0  0  0  0  0
  1  8  2  0
  2  9  2  0
  3  4  1  0
  3  8  1  0
  3  9  1  0
  4  5  1  0
  5  6  1  0
  6  7  1  0
  7  8  1  0
  9 10  1  0
M  END
>  <PUBCHEM_COMPOUND_CID>  (1) 
13400

>  <PUBCHEM_CONFORMER_RMSD>  (1) 
0.4

>  <PUBCHEM_CONFORMER_DIVERSEORDER>  (1) 
1
17
20
18
4
8
10
3
16
14
5
22
2
12
13
9
11
6
7
19
21
15

>  <PUBCHEM_MMFF94_PARTIAL_CHARGES>  (1) 
7
1 -0.57
10 0.06
2 -0.57
3 0.12
7 0.06
8 0.45
9 0.45

>  <PUBCHEM_EFFECTIVE_ROTOR_COUNT>  (1) 
2

>  <PUBCHEM_PHARMACOPHORE_FEATURES>  (1) 
4
1 1 acceptor
1 2 acceptor
1 3 anion
6 3 4 5 6 7 8 rings

>  <PUBCHEM_HEAVY_ATOM_COUNT>  (1) 
10

>  <PUBCHEM_ATOM_DEF_STEREO_COUNT>  (1) 
0

>  <PUBCHEM_ATOM_UDEF_STEREO_COUNT>  (1) 
1

>  <PUBCHEM_BOND_DEF_STEREO_COUNT>  (1) 
0

>  <PUBCHEM_BOND_UDEF_STEREO_COUNT>  (1) 
0

>  <PUBCHEM_ISOTOPIC_ATOM_COUNT>  (1) 
0

>  <PUBCHEM_COMPONENT_COUNT>  (1) 
1

>  <PUBCHEM_CACTVS_TAUTO_COUNT>  (1) 
8

>  <PUBCHEM_CONFORMER_ID>  (1) 
0000345800000001

>  <PUBCHEM_MMFF94_ENERGY>  (1) 
8.8174

>  <PUBCHEM_FEATURE_SELFOVERLAP>  (1) 
20.298

>  <PUBCHEM_SHAPE_FINGERPRINT>  (1) 
10219947 1 18337116682904894489
10857977 72 16878234142288215225
15310529 11 16877943849696185948
16945 1 18409162208221857600
18185500 45 18199459974506591119
21040471 1 18338234989441523896
23235685 24 18411705399954739392
23552423 10 18045498874879400622
2748010 2 18121784086894405022
29004967 10 18261398784551144201
5084963 1 18201424896279975597
528862 383 18334860519267267051
528886 8 18411700967400706057

>  <PUBCHEM_SHAPE_MULTIPOLES>  (1) 
194.06
3.58
1.62
0.87
0.96
0.32
-0.06
-0.56
0.36
-0.64
-0.05
0.46
-0.03
-0.16

>  <PUBCHEM_SHAPE_SELFOVERLAP>  (1) 
385.712

>  <PUBCHEM_SHAPE_VOLUME>  (1) 
114

>  <PUBCHEM_COORDINATE_TYPE>  (1) 
2
5
10

$$$$
