13403
     RDKit          3D

 10 10  0  0  0  0  0  0  0  0999 V2000
   -0.8546    0.3064   -0.2725 C   0  0  0  0  0  0  0  0  0  0  0  0
   -0.2743   -0.9507   -0.1028 C   0  0  0  0  0  0  0  0  0  0  0  0
   -2.3281    0.4522   -0.4689 C   0  0  0  0  0  0  0  0  0  0  0  0
    1.9022    0.0803    0.0901 C   0  0  0  0  0  0  0  0  0  0  0  0
    1.1042   -1.0638    0.0785 C   0  0  0  0  0  0  0  0  0  0  0  0
   -0.0566    1.4504   -0.2610 C   0  0  0  0  0  0  0  0  0  0  0  0
    1.3217    1.3373   -0.0797 C   0  0  0  0  0  0  0  0  0  0  0  0
   -1.1087   -2.1895   -0.1135 C   0  0  0  0  0  0  0  0  0  0  0  0
   -3.0817    0.6174    0.8456 C   0  0  0  0  0  0  0  0  0  0  0  0
    3.3759   -0.0399    0.2843 C   0  0  0  0  0  0  0  0  0  0  0  0
  1  2  2  0
  1  3  1  0
  1  6  1  0
  2  5  1  0
  2  8  1  0
  3  9  1  0
  4  5  2  0
  4  7  1  0
  4 10  1  0
  6  7  2  0
M  END
>  <PUBCHEM_COMPOUND_CID>  (1) 
13403

>  <PUBCHEM_CONFORMER_RMSD>  (1) 
0.4

>  <PUBCHEM_CONFORMER_DIVERSEORDER>  (1) 
1
3
2

>  <PUBCHEM_MMFF94_PARTIAL_CHARGES>  (1) 
12
1 -0.14
10 0.14
13 0.15
14 0.15
15 0.15
2 -0.14
3 0.14
4 -0.14
5 -0.15
6 -0.15
7 -0.15
8 0.14

>  <PUBCHEM_EFFECTIVE_ROTOR_COUNT>  (1) 
1

>  <PUBCHEM_PHARMACOPHORE_FEATURES>  (1) 
2
1 9 hydrophobe
6 1 2 4 5 6 7 rings

>  <PUBCHEM_HEAVY_ATOM_COUNT>  (1) 
10

>  <PUBCHEM_ATOM_DEF_STEREO_COUNT>  (1) 
0

>  <PUBCHEM_ATOM_UDEF_STEREO_COUNT>  (1) 
0

>  <PUBCHEM_BOND_DEF_STEREO_COUNT>  (1) 
0

>  <PUBCHEM_BOND_UDEF_STEREO_COUNT>  (1) 
0

>  <PUBCHEM_ISOTOPIC_ATOM_COUNT>  (1) 
0

>  <PUBCHEM_COMPONENT_COUNT>  (1) 
1

>  <PUBCHEM_CACTVS_TAUTO_COUNT>  (1) 
1

>  <PUBCHEM_CONFORMER_ID>  (1) 
0000345B00000001

>  <PUBCHEM_MMFF94_ENERGY>  (1) 
22.7845

>  <PUBCHEM_FEATURE_SELFOVERLAP>  (1) 
10.148

>  <PUBCHEM_SHAPE_FINGERPRINT>  (1) 
10219947 1 18336830792791584625
12423570 1 18113900459331568364
13380535 21 18193004926719209940
14325111 11 18410854347816216565
14993402 34 18410007732463209453
15310529 11 16660638527619196708
161256 15 17909841933013002647
16945 1 18409443674492660644
193761 8 17905325478606628212
20871998 184 18200594833699779062
21040471 1 18410855477313377316
21501502 16 18193557998121016036
23235685 24 18341608196457442064
23402655 69 18050545384671031845
23552423 10 17971186169586851334
2748010 2 18194115450532096844
29004967 10 18114467760071094657
5084963 1 18272077310363196053
528886 8 18411693270824482305
68250623 7 18119255209881579350

>  <PUBCHEM_SHAPE_MULTIPOLES>  (1) 
205.8
4.11
1.76
0.74
0.51
0.68
-0.05
-0.67
-0.87
-0.38
0.1
-0.25
-0.06
-0.16

>  <PUBCHEM_SHAPE_SELFOVERLAP>  (1) 
418.414

>  <PUBCHEM_SHAPE_VOLUME>  (1) 
116.4

>  <PUBCHEM_COORDINATE_TYPE>  (1) 
2
5
10

$$$$
