13406
     RDKit          3D

 10 10  0  0  0  0  0  0  0  0999 V2000
   -2.9660    0.0887   -0.9005 O   0  0  0  0  0  0  0  0  0  0  0  0
    2.7898   -0.6678   -0.0109 C   0  0  0  0  0  0  0  0  0  0  0  0
    2.5086    0.7011    0.6107 C   0  0  0  0  0  0  0  0  0  0  0  0
    1.5233   -1.5224   -0.0847 C   0  0  0  0  0  0  0  0  0  0  0  0
    1.3815    1.4355   -0.1167 C   0  0  0  0  0  0  0  0  0  0  0  0
    0.3909   -0.7992   -0.8153 C   0  0  0  0  0  0  0  0  0  0  0  0
    0.1567    0.5648   -0.2200 C   0  0  0  0  0  0  0  0  0  0  0  0
   -1.0496    0.9664    0.2056 C   0  0  0  0  0  0  0  0  0  0  0  0
   -2.2301    0.0737    0.0837 C   0  0  0  0  0  0  0  0  0  0  0  0
   -2.5051   -0.8407    1.2481 C   0  0  0  0  0  0  0  0  0  0  0  0
  1  9  2  0
  2  3  1  0
  2  4  1  0
  3  5  1  0
  4  6  1  0
  5  7  1  0
  6  7  1  0
  7  8  2  3
  8  9  1  0
  9 10  1  0
M  END
>  <PUBCHEM_COMPOUND_CID>  (1) 
13406

>  <PUBCHEM_CONFORMER_RMSD>  (1) 
0.4

>  <PUBCHEM_CONFORMER_DIVERSEORDER>  (1) 
1
10
3
16
2
4
12
7
14
8
9
5
13
6
11
15

>  <PUBCHEM_MMFF94_PARTIAL_CHARGES>  (1) 
8
1 -0.57
10 0.06
21 0.15
5 0.14
6 0.14
7 -0.28
8 -0.14
9 0.49

>  <PUBCHEM_EFFECTIVE_ROTOR_COUNT>  (1) 
2

>  <PUBCHEM_PHARMACOPHORE_FEATURES>  (1) 
2
1 1 acceptor
6 2 3 4 5 6 7 rings

>  <PUBCHEM_HEAVY_ATOM_COUNT>  (1) 
10

>  <PUBCHEM_ATOM_DEF_STEREO_COUNT>  (1) 
0

>  <PUBCHEM_ATOM_UDEF_STEREO_COUNT>  (1) 
0

>  <PUBCHEM_BOND_DEF_STEREO_COUNT>  (1) 
0

>  <PUBCHEM_BOND_UDEF_STEREO_COUNT>  (1) 
0

>  <PUBCHEM_ISOTOPIC_ATOM_COUNT>  (1) 
0

>  <PUBCHEM_COMPONENT_COUNT>  (1) 
1

>  <PUBCHEM_CACTVS_TAUTO_COUNT>  (1) 
5

>  <PUBCHEM_CONFORMER_ID>  (1) 
0000345E00000001

>  <PUBCHEM_MMFF94_ENERGY>  (1) 
12.1864

>  <PUBCHEM_FEATURE_SELFOVERLAP>  (1) 
10.148

>  <PUBCHEM_SHAPE_FINGERPRINT>  (1) 
10219947 1 18413668019725821452
10857977 72 18335136496838780602
12716758 59 17531523183688369993
12932741 1 18113337513694011847
12932764 1 17846503638103557169
14325111 11 18343861138727296212
15775835 57 17632858654575359369
16945 1 18413392055165686836
20201158 50 18334573516831371483
20711985 344 17753605737574879460
21040471 1 18198902702885109012
23552423 10 18335707100302759868
2748010 2 18126563414811242812
29004967 10 18408325471114451912
3248919 1 18259984877027835597
5084963 1 17632570535421274666

>  <PUBCHEM_SHAPE_MULTIPOLES>  (1) 
199.93
4.42
1.42
0.94
1.25
0.06
0.08
0.51
0.54
-0.62
0.03
0.44
0.13
0.38

>  <PUBCHEM_SHAPE_SELFOVERLAP>  (1) 
392.344

>  <PUBCHEM_SHAPE_VOLUME>  (1) 
119

>  <PUBCHEM_COORDINATE_TYPE>  (1) 
2
5
10

$$$$
