13419
     RDKit          3D

 12 12  0  0  0  0  0  0  0  0999 V2000
    2.7160   -0.8846   -0.0002 O   0  0  0  0  0  0  0  0  0  0  0  0
   -1.7714   -2.0103   -0.0001 O   0  0  0  0  0  0  0  0  0  0  0  0
   -0.5027    2.4386   -0.0001 O   0  0  0  0  0  0  0  0  0  0  0  0
    0.4843   -1.4959    0.0001 N   0  0  0  0  0  0  0  0  0  0  0  0
    1.1425    0.8117    0.0002 N   0  0  0  0  0  0  0  0  0  0  0  0
   -1.1849    0.2279    0.0003 N   0  0  0  0  0  0  0  0  0  0  0  0
    1.3934   -0.5074    0.0001 C   0  0  0  0  0  0  0  0  0  0  0  0
   -0.7835   -1.0535    0.0002 C   0  0  0  0  0  0  0  0  0  0  0  0
   -0.1680    1.1046    0.0001 C   0  0  0  0  0  0  0  0  0  0  0  0
    3.6751    0.1630   -0.0002 C   0  0  0  0  0  0  0  0  0  0  0  0
   -3.1114   -1.5395   -0.0002 C   0  0  0  0  0  0  0  0  0  0  0  0
   -1.8895    2.7454   -0.0001 C   0  0  0  0  0  0  0  0  0  0  0  0
  1  7  1  0
  1 10  1  0
  2  8  1  0
  2 11  1  0
  3  9  1  0
  3 12  1  0
  4  7  2  0
  4  8  1  0
  5  7  1  0
  5  9  2  0
  6  8  2  0
  6  9  1  0
M  END
>  <PUBCHEM_COMPOUND_CID>  (1) 
13419

>  <PUBCHEM_CONFORMER_RMSD>  (1) 
0.6

>  <PUBCHEM_CONFORMER_DIVERSEORDER>  (1) 
1
2

>  <PUBCHEM_MMFF94_PARTIAL_CHARGES>  (1) 
12
1 -0.36
10 0.28
11 0.28
12 0.28
2 -0.36
3 -0.36
4 -0.62
5 -0.62
6 -0.62
7 0.7
8 0.7
9 0.7

>  <PUBCHEM_EFFECTIVE_ROTOR_COUNT>  (1) 
3

>  <PUBCHEM_PHARMACOPHORE_FEATURES>  (1) 
4
3 4 5 7 cation
3 4 6 8 cation
3 5 6 9 cation
6 4 5 6 7 8 9 rings

>  <PUBCHEM_HEAVY_ATOM_COUNT>  (1) 
12

>  <PUBCHEM_ATOM_DEF_STEREO_COUNT>  (1) 
0

>  <PUBCHEM_ATOM_UDEF_STEREO_COUNT>  (1) 
0

>  <PUBCHEM_BOND_DEF_STEREO_COUNT>  (1) 
0

>  <PUBCHEM_BOND_UDEF_STEREO_COUNT>  (1) 
0

>  <PUBCHEM_ISOTOPIC_ATOM_COUNT>  (1) 
0

>  <PUBCHEM_COMPONENT_COUNT>  (1) 
1

>  <PUBCHEM_CACTVS_TAUTO_COUNT>  (1) 
1

>  <PUBCHEM_CONFORMER_ID>  (1) 
0000346B00000001

>  <PUBCHEM_MMFF94_ENERGY>  (1) 
40.1808

>  <PUBCHEM_FEATURE_SELFOVERLAP>  (1) 
23.07

>  <PUBCHEM_SHAPE_FINGERPRINT>  (1) 
1 1 17328867595394099629
13380535 76 17981035323954642934
14648413 74 17543067231146563699
16945 1 18410575041760911206
193761 8 18122344575389012678
20871998 184 18273215287528151766
21040471 1 18050567335562390016
23526114 1 17834676376101533158
23530152 11 17834677089451193621
23552423 10 18260553269169239494
23559900 14 17911806770116896758
241688 4 18338799025826401729
2748010 2 18267857470466319653
3071541 12 17762342813461977053
3071541 158 18044369663341906525
6333449 129 18339921502691996136
68521 5 18410014355213122021
7364860 26 17619912094337220403
81228 2 18336837419699191281

>  <PUBCHEM_SHAPE_MULTIPOLES>  (1) 
214.4
4.34
2.72
0.57
2.64
1.72
0
-1.29
0
-2.51
0
-0.01
0.01
0

>  <PUBCHEM_SHAPE_SELFOVERLAP>  (1) 
433.523

>  <PUBCHEM_SHAPE_VOLUME>  (1) 
122.9

>  <PUBCHEM_COORDINATE_TYPE>  (1) 
2
5
10

$$$$
