13415
     RDKit          3D

 12 12  0  0  0  0  0  0  0  0999 V2000
    0.5809   -0.6073    0.2531 C   0  0  0  0  0  0  0  0  0  0  0  0
    1.0350    0.6108   -0.2524 C   0  0  0  0  0  0  0  0  0  0  0  0
   -1.6765    0.2524    0.2966 C   0  0  0  0  0  0  0  0  0  0  0  0
    1.5273   -1.7340    0.5080 C   0  0  0  0  0  0  0  0  0  0  0  0
   -0.7748   -0.7865    0.5276 C   0  0  0  0  0  0  0  0  0  0  0  0
    2.4815    0.8264   -0.5544 C   0  0  0  0  0  0  0  0  0  0  0  0
    0.1334    1.6498   -0.4833 C   0  0  0  0  0  0  0  0  0  0  0  0
   -3.1261    0.0613    0.5900 C   0  0  0  0  0  0  0  0  0  0  0  0
   -1.2223    1.4705   -0.2089 C   0  0  0  0  0  0  0  0  0  0  0  0
    1.6897   -2.6399   -0.7090 C   0  0  0  0  0  0  0  0  0  0  0  0
    3.2467    1.3799    0.6440 C   0  0  0  0  0  0  0  0  0  0  0  0
   -3.8949   -0.4831   -0.6112 C   0  0  0  0  0  0  0  0  0  0  0  0
  1  2  2  0
  1  4  1  0
  1  5  1  0
  2  6  1  0
  2  7  1  0
  3  5  2  0
  3  8  1  0
  3  9  1  0
  4 10  1  0
  6 11  1  0
  7  9  2  0
  8 12  1  0
M  END
>  <PUBCHEM_COMPOUND_CID>  (1) 
13415

>  <PUBCHEM_CONFORMER_RMSD>  (1) 
0.6

>  <PUBCHEM_CONFORMER_DIVERSEORDER>  (1) 
1
5
10
4
9
11
7
3
6
2
8

>  <PUBCHEM_MMFF94_PARTIAL_CHARGES>  (1) 
12
1 -0.14
15 0.15
18 0.15
2 -0.14
21 0.15
3 -0.14
4 0.14
5 -0.15
6 0.14
7 -0.15
8 0.14
9 -0.15

>  <PUBCHEM_EFFECTIVE_ROTOR_COUNT>  (1) 
3

>  <PUBCHEM_PHARMACOPHORE_FEATURES>  (1) 
4
1 10 hydrophobe
1 11 hydrophobe
1 12 hydrophobe
6 1 2 3 5 7 9 rings

>  <PUBCHEM_HEAVY_ATOM_COUNT>  (1) 
12

>  <PUBCHEM_ATOM_DEF_STEREO_COUNT>  (1) 
0

>  <PUBCHEM_ATOM_UDEF_STEREO_COUNT>  (1) 
0

>  <PUBCHEM_BOND_DEF_STEREO_COUNT>  (1) 
0

>  <PUBCHEM_BOND_UDEF_STEREO_COUNT>  (1) 
0

>  <PUBCHEM_ISOTOPIC_ATOM_COUNT>  (1) 
0

>  <PUBCHEM_COMPONENT_COUNT>  (1) 
1

>  <PUBCHEM_CACTVS_TAUTO_COUNT>  (1) 
1

>  <PUBCHEM_CONFORMER_ID>  (1) 
0000346700000001

>  <PUBCHEM_MMFF94_ENERGY>  (1) 
23.0217

>  <PUBCHEM_FEATURE_SELFOVERLAP>  (1) 
20.297

>  <PUBCHEM_SHAPE_FINGERPRINT>  (1) 
10219947 1 18260829349144624592
11132069 177 18335697312135621896
11206711 2 17753055990398223655
12524768 44 18335147453258394963
12932764 1 17704068491331852537
13380535 76 18334856168460433266
14128692 85 18122634859359185934
14251717 144 18411133653887229335
14576447 43 18127395955947045439
15207287 21 18040989700136573385
161256 15 18263933146084251982
16945 1 18335151928661829001
17990270 104 18194121815599958178
193761 8 18119810201144900860
20201158 50 18187083983609966353
20588541 1 18261680362633495585
20645476 183 16880491547197661244
20645477 70 18338230475932283327
20871998 184 17905902718364532282
20871998 22 18122910828267184738
21501502 16 18265338296011462400
22213442 358 18052260587912364822
2334 1 17615136911043101221
23402655 69 18262784221696681437
23552423 10 18042976367260805411
23559900 14 17041475017793375790
241688 4 17899705556881270232
2748010 2 18116433639696045741
4072396 5 18115566245133134865
528886 8 18336825415244538872
581208 293 18410574006694989380
68250623 7 18197224645982293269
7364860 26 18270964540240013994
81539 233 18259983803417770158

>  <PUBCHEM_SHAPE_MULTIPOLES>  (1) 
246.95
5.05
2.21
0.86
3.12
1.11
-0.01
-0.35
-0.03
-1.75
-0.34
-0.04
0.07
0.21

>  <PUBCHEM_SHAPE_SELFOVERLAP>  (1) 
496.347

>  <PUBCHEM_SHAPE_VOLUME>  (1) 
142.1

>  <PUBCHEM_COORDINATE_TYPE>  (1) 
2
5
10

$$$$
