13435
     RDKit          3D

 14 14  0  0  0  0  0  0  0  0999 V2000
    5.1581   -0.0007   -0.7864 Cl  0  0  0  0  0  0  0  0  0  0  0  0
   -0.4794    0.0012    0.9848 N   0  0  0  0  0  0  0  0  0  0  0  0
   -1.2398    0.0007   -0.0092 N   0  0  0  0  0  0  0  0  0  0  0  0
   -3.7123    2.2025   -0.5742 N   0  0  0  0  0  0  0  0  0  0  0  0
   -3.7096   -2.2041   -0.5742 N   0  0  0  0  0  0  0  0  0  0  0  0
    0.8549    0.0007    0.5657 C   0  0  0  0  0  0  0  0  0  0  0  0
    1.5204    1.2085    0.3561 C   0  0  0  0  0  0  0  0  0  0  0  0
    1.5201   -1.2075    0.3574 C   0  0  0  0  0  0  0  0  0  0  0  0
    2.8511    1.2080   -0.0622 C   0  0  0  0  0  0  0  0  0  0  0  0
    2.8509   -1.2078   -0.0606 C   0  0  0  0  0  0  0  0  0  0  0  0
    3.5163   -0.0001   -0.2704 C   0  0  0  0  0  0  0  0  0  0  0  0
   -2.6492   -0.0001    0.3810 C   0  0  0  0  0  0  0  0  0  0  0  0
   -3.2415    1.2284   -0.1539 C   0  0  0  0  0  0  0  0  0  0  0  0
   -3.2401   -1.2296   -0.1538 C   0  0  0  0  0  0  0  0  0  0  0  0
  1 11  1  0
  2  3  2  0
  2  6  1  0
  3 12  1  0
  4 13  3  0
  5 14  3  0
  6  7  2  0
  6  8  1  0
  7  9  1  0
  8 10  2  0
  9 11  2  0
 10 11  1  0
 12 13  1  0
 12 14  1  0
M  END
>  <PUBCHEM_COMPOUND_CID>  (1) 
13435

>  <PUBCHEM_CONFORMER_RMSD>  (1) 
0.6

>  <PUBCHEM_CONFORMER_DIVERSEORDER>  (1) 
1
4
2
3

>  <PUBCHEM_MMFF94_PARTIAL_CHARGES>  (1) 
18
1 -0.18
10 -0.15
11 0.18
12 0.65
13 0.36
14 0.36
15 0.15
16 0.15
17 0.15
18 0.15
2 -0.18
3 -0.25
4 -0.56
5 -0.56
6 0.18
7 -0.15
8 -0.15
9 -0.15

>  <PUBCHEM_EFFECTIVE_ROTOR_COUNT>  (1) 
2

>  <PUBCHEM_PHARMACOPHORE_FEATURES>  (1) 
3
1 4 acceptor
1 5 acceptor
6 6 7 8 9 10 11 rings

>  <PUBCHEM_HEAVY_ATOM_COUNT>  (1) 
14

>  <PUBCHEM_ATOM_DEF_STEREO_COUNT>  (1) 
0

>  <PUBCHEM_ATOM_UDEF_STEREO_COUNT>  (1) 
0

>  <PUBCHEM_BOND_DEF_STEREO_COUNT>  (1) 
0

>  <PUBCHEM_BOND_UDEF_STEREO_COUNT>  (1) 
0

>  <PUBCHEM_ISOTOPIC_ATOM_COUNT>  (1) 
0

>  <PUBCHEM_COMPONENT_COUNT>  (1) 
1

>  <PUBCHEM_CACTVS_TAUTO_COUNT>  (1) 
1

>  <PUBCHEM_CONFORMER_ID>  (1) 
0000347B00000001

>  <PUBCHEM_MMFF94_ENERGY>  (1) 
22.1045

>  <PUBCHEM_FEATURE_SELFOVERLAP>  (1) 
15.223

>  <PUBCHEM_SHAPE_FINGERPRINT>  (1) 
10608611 8 18409726287546313345
10680689 15 18409174324203261011
11401426 45 18412825768587140096
12500047 106 18339073800939018917
12670543 26 18263939761125237494
12932764 1 18410857663773419675
13296908 3 17561358513043353817
13705890 14 17917997200267437024
13760787 19 18408886204759415778
14576447 43 18341610468806793886
18186145 218 18202285809674005272
1986462 14 18341897402459623181
20645477 56 18336828602754136385
20645477 70 18270402659654659622
20871999 31 18411414016915660335
21709351 56 18335420184082546580
221490 88 18196940078766435562
22485316 2 18412262805390166098
23402539 116 17821728325868451772
23402655 69 18335703793346863916
23557571 272 18341338842057899485
2871803 45 18339352093440402431
3312278 4 18272371949277369731
4028521 119 17895183351988486109
4990 188 18272379667913907870
58051976 100 18342175583486561783
6049 1 17916855941515567345
633830 44 17167869621222464210
93112 12 18411696569654927017

>  <PUBCHEM_SHAPE_MULTIPOLES>  (1) 
270.06
9.18
1.83
0.8
1.26
0
-0.02
0
2.79
-2.03
0.31
0.09
0
0

>  <PUBCHEM_SHAPE_SELFOVERLAP>  (1) 
549.491

>  <PUBCHEM_SHAPE_VOLUME>  (1) 
153.7

>  <PUBCHEM_COORDINATE_TYPE>  (1) 
2
5
10

$$$$
