13432
     RDKit          3D

 14 15  0  0  0  0  0  0  0  0999 V2000
   -1.1023   -2.4524    0.0014 O   0  0  0  0  0  0  0  0  0  0  0  0
   -2.9324   -1.2403    0.0000 O   0  0  0  0  0  0  0  0  0  0  0  0
   -1.6865   -1.3468    0.0001 N   0  0  0  0  0  0  0  0  0  0  0  0
    0.5058   -0.2144   -0.0004 C   0  0  0  0  0  0  0  0  0  0  0  0
    1.2489    0.9901    0.0002 C   0  0  0  0  0  0  0  0  0  0  0  0
   -0.8975   -0.1556   -0.0008 C   0  0  0  0  0  0  0  0  0  0  0  0
   -1.5584    1.0730   -0.0006 C   0  0  0  0  0  0  0  0  0  0  0  0
    0.5669    2.2178    0.0004 C   0  0  0  0  0  0  0  0  0  0  0  0
   -0.8277    2.2575    0.0001 C   0  0  0  0  0  0  0  0  0  0  0  0
    1.1877   -1.4420   -0.0008 C   0  0  0  0  0  0  0  0  0  0  0  0
    2.6520    0.9314    0.0005 C   0  0  0  0  0  0  0  0  0  0  0  0
   -3.0518    1.1608    0.0002 C   0  0  0  0  0  0  0  0  0  0  0  0
    2.5822   -1.4817   -0.0004 C   0  0  0  0  0  0  0  0  0  0  0  0
    3.3131   -0.2972    0.0003 C   0  0  0  0  0  0  0  0  0  0  0  0
  1  3  1  0
  2  3  2  0
  3  6  1  0
  4  5  1  0
  4  6  2  0
  4 10  1  0
  5  8  2  0
  5 11  1  0
  6  7  1  0
  7  9  2  0
  7 12  1  0
  8  9  1  0
 10 13  2  0
 11 14  2  0
 13 14  1  0
M  CHG  2   1  -1   3   1
M  END
>  <PUBCHEM_COMPOUND_CID>  (1) 
13432

>  <PUBCHEM_CONFORMER_RMSD>  (1) 
0.4

>  <PUBCHEM_CONFORMER_DIVERSEORDER>  (1) 
1

>  <PUBCHEM_MMFF94_PARTIAL_CHARGES>  (1) 
18
1 -0.52
10 -0.15
11 -0.15
12 0.14
13 -0.15
14 -0.15
15 0.15
16 0.15
17 0.15
18 0.15
2 -0.52
22 0.15
23 0.15
3 0.91
6 0.13
7 -0.14
8 -0.15
9 -0.15

>  <PUBCHEM_EFFECTIVE_ROTOR_COUNT>  (1) 
1

>  <PUBCHEM_PHARMACOPHORE_FEATURES>  (1) 
5
1 1 acceptor
1 1 anion
1 2 acceptor
6 4 5 10 11 13 14 rings
6 4 5 6 7 8 9 rings

>  <PUBCHEM_HEAVY_ATOM_COUNT>  (1) 
14

>  <PUBCHEM_ATOM_DEF_STEREO_COUNT>  (1) 
0

>  <PUBCHEM_ATOM_UDEF_STEREO_COUNT>  (1) 
0

>  <PUBCHEM_BOND_DEF_STEREO_COUNT>  (1) 
0

>  <PUBCHEM_BOND_UDEF_STEREO_COUNT>  (1) 
0

>  <PUBCHEM_ISOTOPIC_ATOM_COUNT>  (1) 
0

>  <PUBCHEM_COMPONENT_COUNT>  (1) 
1

>  <PUBCHEM_CACTVS_TAUTO_COUNT>  (1) 
1

>  <PUBCHEM_CONFORMER_ID>  (1) 
0000347800000001

>  <PUBCHEM_MMFF94_ENERGY>  (1) 
71.7824

>  <PUBCHEM_FEATURE_SELFOVERLAP>  (1) 
25.48

>  <PUBCHEM_SHAPE_FINGERPRINT>  (1) 
10967382 1 18266740181857999204
11132069 177 18411975837039559744
12382932 28 18412540994521697312
12423570 1 11224906112289766344
12524768 44 18269560442136789926
13140716 1 18410573942222897136
13380535 76 18340764832299940238
14790565 3 16172588780067860385
16945 1 18194401319017660549
193761 8 18194682789768261509
20510252 161 17984698918347828912
20588541 1 18341333279890582644
20871998 184 18273495650045035743
21267235 1 18410583880772295651
21501502 16 18410575106159040412
22802520 49 17986125010698578742
2334 1 18410855485903253314
23388829 49 18053089915852628980
23402539 116 18197763432296583860
23463225 33 18408604738609828140
23552423 10 18261395589206401548
23559900 14 18342741794021696300
241688 4 18409448106814663728
2748010 2 18411136926520212734
2897 32 17976821986812280412
528886 8 18339355275694215976
53812653 166 18343015597263962128
54173680 148 18410014299584593698
7364860 26 18126004012205804944
8809292 202 18335988571248416282

>  <PUBCHEM_SHAPE_MULTIPOLES>  (1) 
271.39
4.44
2.51
0.6
0.45
0.16
0
0.48
0
-0.68
0
0.04
-0.04
0

>  <PUBCHEM_SHAPE_SELFOVERLAP>  (1) 
600.06

>  <PUBCHEM_SHAPE_VOLUME>  (1) 
146.7

>  <PUBCHEM_COORDINATE_TYPE>  (1) 
2
5
10

$$$$
