1343
     RDKit          3D

 16 18  0  0  1  0  0  0  0  0999 V2000
    1.6222    0.1177    1.6301 O   0  0  0  0  0  0  0  0  0  0  0  0
    1.3997   -0.0147   -1.1354 O   0  0  0  0  0  0  0  0  0  0  0  0
    4.6881   -1.1235    0.0043 O   0  0  0  0  0  0  0  0  0  0  0  0
   -1.8781    2.3731   -0.4036 O   0  0  0  0  0  0  0  0  0  0  0  0
   -4.3602   -1.4463    0.3014 O   0  0  0  0  0  0  0  0  0  0  0  0
   -0.7464    0.3341   -0.2586 N   0  0  0  0  0  0  0  0  0  0  0  0
   -3.1124    0.4701   -0.0518 N   0  0  0  0  0  0  0  0  0  0  0  0
    1.2048    1.2388    0.8425 C   0  0  0  0  0  0  0  0  0  0  0  0
    2.5820    0.7250    0.7588 C   0  0  0  0  0  0  0  0  0  0  0  0
    0.5463    0.9241   -0.4522 C   0  0  0  0  0  0  0  0  0  0  0  0
    2.7326    0.1127   -0.5914 C   0  0  0  0  0  0  0  0  0  0  0  0
    3.3901   -1.2525   -0.5545 C   0  0  0  0  0  0  0  0  0  0  0  0
   -1.9033    1.1502   -0.2497 C   0  0  0  0  0  0  0  0  0  0  0  0
   -0.8643   -1.0403   -0.0793 C   0  0  0  0  0  0  0  0  0  0  0  0
   -2.0238   -1.6743    0.1082 C   0  0  0  0  0  0  0  0  0  0  0  0
   -3.2774   -0.8941    0.1310 C   0  0  0  0  0  0  0  0  0  0  0  0
  1  8  1  0
  1  9  1  0
  2 10  1  0
  2 11  1  0
  3 12  1  0
  4 13  2  0
  5 16  2  0
  6 10  1  0
  6 13  1  0
  6 14  1  0
  7 13  1  0
  7 16  1  0
  8  9  1  0
  8 10  1  0
  9 11  1  0
 11 12  1  0
 14 15  2  0
 15 16  1  0
M  END
>  <PUBCHEM_COMPOUND_CID>  (1) 
1343

>  <PUBCHEM_CONFORMER_RMSD>  (1) 
0.6

>  <PUBCHEM_CONFORMER_DIVERSEORDER>  (1) 
1
43
7
36
42
40
26
37
49
21
31
24
34
20
18
41
39
23
48
33
30
29
44
3
38
8
47
32
15
6
51
27
4
28
35
12
19
11
50
5
17
22
9
46
16
13
45
10
25
14
2

>  <PUBCHEM_MMFF94_PARTIAL_CHARGES>  (1) 
22
1 -0.3
10 0.68
11 0.38
12 0.28
13 0.69
14 -0.04
15 -0.14
16 0.62
17 0.1
18 0.1
2 -0.56
23 0.15
24 0.4
25 0.37
26 0.15
3 -0.68
4 -0.57
5 -0.57
6 -0.47
7 -0.49
8 -0.05
9 -0.05

>  <PUBCHEM_EFFECTIVE_ROTOR_COUNT>  (1) 
2.8

>  <PUBCHEM_PHARMACOPHORE_FEATURES>  (1) 
9
1 1 acceptor
1 2 acceptor
1 3 acceptor
1 3 donor
1 4 acceptor
1 5 acceptor
1 7 donor
6 1 2 8 9 10 11 rings
6 6 7 13 14 15 16 rings

>  <PUBCHEM_HEAVY_ATOM_COUNT>  (1) 
16

>  <PUBCHEM_ATOM_DEF_STEREO_COUNT>  (1) 
0

>  <PUBCHEM_ATOM_UDEF_STEREO_COUNT>  (1) 
4

>  <PUBCHEM_BOND_DEF_STEREO_COUNT>  (1) 
0

>  <PUBCHEM_BOND_UDEF_STEREO_COUNT>  (1) 
0

>  <PUBCHEM_ISOTOPIC_ATOM_COUNT>  (1) 
0

>  <PUBCHEM_COMPONENT_COUNT>  (1) 
1

>  <PUBCHEM_CACTVS_TAUTO_COUNT>  (1) 
3

>  <PUBCHEM_CONFORMER_ID>  (1) 
0000053F00000001

>  <PUBCHEM_MMFF94_ENERGY>  (1) 
40.3867

>  <PUBCHEM_FEATURE_SELFOVERLAP>  (1) 
45.678

>  <PUBCHEM_SHAPE_FINGERPRINT>  (1) 
10465860 250 18201433628512919426
10618630 7 18335703892189030127
12032990 46 18336269050082780035
12186901 62 18113616746940439407
124424 183 17988074491953614628
12500047 106 18192424178073180532
12932764 1 17561078154721424668
13296908 3 18410007766828254853
13581323 91 18409728482253119260
14252887 29 18193279813163029571
14993402 34 16588023528256611719
15219456 202 18202557397804928760
15653759 3 18344144787020554352
15848700 24 18267578182150150351
16752209 62 18041827464005010607
16945 1 18335973225277331625
17804303 29 18413112748952353422
18186145 218 16805318946281304983
19049666 15 18058450898210431836
19422 9 18040722446002288420
200 152 17060046043725705285
20510252 161 18412824698797769001
20871999 31 18259988145608614132
23175994 123 17489309633868784528
23402539 116 18272364287704683719
23526113 38 17700688463554304158
23559900 14 18411696582845920524
31174 14 17845931960771263961
3286 77 17418092165451096699
474 4 16590008258857366972
53748568 43 17095803209379391528
568465 68 17489871531460363718
69090 78 17846213410379259943
7364860 26 18193842771638411076
76465 3 18130779101090109543
77492 1 17168142321317426773
8030462 33 16877938338973732817
83771 10 18413674621201292698
8809292 202 18412547587090709602

>  <PUBCHEM_SHAPE_MULTIPOLES>  (1) 
289.96
6.92
1.79
0.95
0.51
0.26
0.18
-3.33
0.17
-0.79
-0.08
0.54
0.12
0.66

>  <PUBCHEM_SHAPE_SELFOVERLAP>  (1) 
623.405

>  <PUBCHEM_SHAPE_VOLUME>  (1) 
160.4

>  <PUBCHEM_COORDINATE_TYPE>  (1) 
2
5
10

$$$$
