13437
     RDKit          3D

 15 15  0  0  0  0  0  0  0  0999 V2000
    0.1353    0.4834    0.9081 S   0  0  0  0  0  0  0  0  0  0  0  0
    2.6969    1.6260   -1.1541 F   0  0  0  0  0  0  0  0  0  0  0  0
    2.8701   -2.4654   -0.6043 F   0  0  0  0  0  0  0  0  0  0  0  0
    1.1684   -0.3503   -0.0540 O   0  0  0  0  0  0  0  0  0  0  0  0
    0.3692    1.9066    0.7137 O   0  0  0  0  0  0  0  0  0  0  0  0
    0.2074   -0.1073    2.2374 O   0  0  0  0  0  0  0  0  0  0  0  0
    2.5635   -0.2909    0.2007 C   0  0  0  0  0  0  0  0  0  0  0  0
   -1.4501    0.1431    0.2608 C   0  0  0  0  0  0  0  0  0  0  0  0
    2.9982    1.1601    0.0886 C   0  0  0  0  0  0  0  0  0  0  0  0
    3.2878   -1.1828   -0.7931 C   0  0  0  0  0  0  0  0  0  0  0  0
   -2.1759   -0.9506    0.7328 C   0  0  0  0  0  0  0  0  0  0  0  0
   -1.9904    0.9638   -0.7292 C   0  0  0  0  0  0  0  0  0  0  0  0
   -3.4420   -1.2236    0.2149 C   0  0  0  0  0  0  0  0  0  0  0  0
   -3.2564    0.6908   -1.2472 C   0  0  0  0  0  0  0  0  0  0  0  0
   -3.9821   -0.4029   -0.7752 C   0  0  0  0  0  0  0  0  0  0  0  0
  1  4  1  0
  1  5  2  0
  1  6  2  0
  1  8  1  0
  2  9  1  0
  3 10  1  0
  4  7  1  0
  7  9  1  0
  7 10  1  0
  8 11  2  0
  8 12  1  0
 11 13  1  0
 12 14  2  0
 13 15  2  0
 14 15  1  0
M  END
>  <PUBCHEM_COMPOUND_CID>  (1) 
13437

>  <PUBCHEM_CONFORMER_RMSD>  (1) 
0.6

>  <PUBCHEM_CONFORMER_DIVERSEORDER>  (1) 
2
8
6
10
9
7
5
11
12
3
4
1

>  <PUBCHEM_MMFF94_PARTIAL_CHARGES>  (1) 
20
1 1.49
10 0.34
11 -0.15
12 -0.15
13 -0.15
14 -0.15
15 -0.15
2 -0.34
21 0.15
22 0.15
23 0.15
24 0.15
25 0.15
3 -0.34
4 -0.46
5 -0.65
6 -0.65
7 0.28
8 -0.01
9 0.34

>  <PUBCHEM_EFFECTIVE_ROTOR_COUNT>  (1) 
5

>  <PUBCHEM_PHARMACOPHORE_FEATURES>  (1) 
3
1 5 acceptor
1 6 acceptor
6 8 11 12 13 14 15 rings

>  <PUBCHEM_HEAVY_ATOM_COUNT>  (1) 
15

>  <PUBCHEM_ATOM_DEF_STEREO_COUNT>  (1) 
0

>  <PUBCHEM_ATOM_UDEF_STEREO_COUNT>  (1) 
0

>  <PUBCHEM_BOND_DEF_STEREO_COUNT>  (1) 
0

>  <PUBCHEM_BOND_UDEF_STEREO_COUNT>  (1) 
0

>  <PUBCHEM_ISOTOPIC_ATOM_COUNT>  (1) 
0

>  <PUBCHEM_COMPONENT_COUNT>  (1) 
1

>  <PUBCHEM_CACTVS_TAUTO_COUNT>  (1) 
1

>  <PUBCHEM_CONFORMER_ID>  (1) 
0000347D00000002

>  <PUBCHEM_MMFF94_ENERGY>  (1) 
21.2389

>  <PUBCHEM_FEATURE_SELFOVERLAP>  (1) 
15.24

>  <PUBCHEM_SHAPE_FINGERPRINT>  (1) 
10498660 4 17095507492829178741
10799339 124 12103854474804134813
11137873 295 18342182111641900031
11715629 250 17095791179418595373
12251169 10 11672058661984685515
12616999 72 18338801225145043188
12932764 1 17458345199933478137
13296908 3 18412826875929131543
13705890 14 18412260653405712106
15375462 189 16917066689293879490
16945 1 18059293282941486129
17834069 15 12103579579706940793
17834072 14 18340477864666602650
18186145 218 17894916208705413337
18522851 268 18334576866758104687
19107657 9 15068622652081557151
200 152 18131352986246069574
20201158 50 18410573993841826946
20281407 28 17774999111488894723
20281475 54 18201721781979379771
20361792 2 16845287246112643433
20645477 70 18272087184250657135
20671657 53 18268434538320309870
21524375 3 13406799934173587777
21947302 44 17604150436471708076
22485316 2 17846492656067093767
2255824 54 16844436309943493176
22802520 49 18113625577140128465
23402539 116 17459175447324336916
23526113 38 18334298707506618346
23557571 272 17314807401454111163
23559900 14 18335693910975132642
4990 188 18260820510650237343
5262128 65 18260559900255639204
90316 7 14117524225036521419
93112 12 18260266326160733791

>  <PUBCHEM_SHAPE_MULTIPOLES>  (1) 
280.39
6.92
1.72
1.32
0.74
0.28
0.4
1.59
-2.66
-1.22
-0.31
0.05
-0.07
0.72

>  <PUBCHEM_SHAPE_SELFOVERLAP>  (1) 
561.768

>  <PUBCHEM_SHAPE_VOLUME>  (1) 
165.3

>  <PUBCHEM_COORDINATE_TYPE>  (1) 
2
5
10

$$$$
