13434
     RDKit          3D

 14 14  0  0  0  0  0  0  0  0999 V2000
   -3.4801    0.0687    1.4650 Cl  0  0  0  0  0  0  0  0  0  0  0  0
   -2.3654    2.2834   -0.0044 Cl  0  0  0  0  0  0  0  0  0  0  0  0
   -3.4794    0.0558   -1.4617 Cl  0  0  0  0  0  0  0  0  0  0  0  0
    3.4800    0.0686   -1.4650 Cl  0  0  0  0  0  0  0  0  0  0  0  0
    2.3655    2.2835    0.0045 Cl  0  0  0  0  0  0  0  0  0  0  0  0
    3.4794    0.0557    1.4616 Cl  0  0  0  0  0  0  0  0  0  0  0  0
   -1.2080   -0.2652   -0.0003 C   0  0  0  0  0  0  0  0  0  0  0  0
    1.2080   -0.2652    0.0003 C   0  0  0  0  0  0  0  0  0  0  0  0
    0.0000    0.4322    0.0000 C   0  0  0  0  0  0  0  0  0  0  0  0
   -1.2080   -1.6601   -0.0003 C   0  0  0  0  0  0  0  0  0  0  0  0
    1.2080   -1.6600    0.0004 C   0  0  0  0  0  0  0  0  0  0  0  0
    0.0000   -2.3575   -0.0001 C   0  0  0  0  0  0  0  0  0  0  0  0
   -2.4997    0.4800   -0.0004 C   0  0  0  0  0  0  0  0  0  0  0  0
    2.4997    0.4800    0.0005 C   0  0  0  0  0  0  0  0  0  0  0  0
  1 13  1  0
  2 13  1  0
  3 13  1  0
  4 14  1  0
  5 14  1  0
  6 14  1  0
  7  9  2  0
  7 10  1  0
  7 13  1  0
  8  9  1  0
  8 11  2  0
  8 14  1  0
 10 12  2  0
 11 12  1  0
M  END
>  <PUBCHEM_COMPOUND_CID>  (1) 
13434

>  <PUBCHEM_CONFORMER_RMSD>  (1) 
0.6

>  <PUBCHEM_CONFORMER_DIVERSEORDER>  (1) 
1
3
2

>  <PUBCHEM_MMFF94_PARTIAL_CHARGES>  (1) 
18
1 -0.29
10 -0.15
11 -0.15
12 -0.15
13 1.01
14 1.01
15 0.15
16 0.15
17 0.15
18 0.15
2 -0.29
3 -0.29
4 -0.29
5 -0.29
6 -0.29
7 -0.14
8 -0.14
9 -0.15

>  <PUBCHEM_EFFECTIVE_ROTOR_COUNT>  (1) 
2

>  <PUBCHEM_PHARMACOPHORE_FEATURES>  (1) 
1
6 7 8 9 10 11 12 rings

>  <PUBCHEM_HEAVY_ATOM_COUNT>  (1) 
14

>  <PUBCHEM_ATOM_DEF_STEREO_COUNT>  (1) 
0

>  <PUBCHEM_ATOM_UDEF_STEREO_COUNT>  (1) 
0

>  <PUBCHEM_BOND_DEF_STEREO_COUNT>  (1) 
0

>  <PUBCHEM_BOND_UDEF_STEREO_COUNT>  (1) 
0

>  <PUBCHEM_ISOTOPIC_ATOM_COUNT>  (1) 
0

>  <PUBCHEM_COMPONENT_COUNT>  (1) 
1

>  <PUBCHEM_CACTVS_TAUTO_COUNT>  (1) 
1

>  <PUBCHEM_CONFORMER_ID>  (1) 
0000347A00000001

>  <PUBCHEM_MMFF94_ENERGY>  (1) 
36.7075

>  <PUBCHEM_FEATURE_SELFOVERLAP>  (1) 
5.074

>  <PUBCHEM_SHAPE_FINGERPRINT>  (1) 
11132069 177 18201437004019584513
11543360 7 15697710497413604555
11615756 56 18410566288570524417
12251169 10 18261382373797578472
124424 183 17458611281699946600
12932764 1 18411140233639762277
13140716 1 18266178520394793144
13380535 21 18338532883788576455
13380535 76 18410562990035680067
13538477 17 18114739455713194954
13583140 156 17240754129419136225
13705890 14 15698276720485572582
14144814 61 18408885131159932280
14289901 80 15647341865439851073
14648413 74 17904767678698627657
15309172 13 18409454691257887243
16945 1 18410575088958202118
18186145 218 18060143119651567680
18219364 16 18335419097192244969
192875 21 18266998670191269501
20233049 118 18333737897090735188
20510252 161 18124881415028320074
20645476 183 17604436318053241870
20645477 56 18338807830984410692
20653085 51 18201452414161970802
21501502 16 18120652435984233045
21524375 3 18334006177257940735
230 275 18341609300406332168
2334 1 17978227493216241828
23402539 116 18198880643532085445
23493267 7 17677345925990740792
23526113 38 17561361816247939250
23557571 272 17486476376834723158
23559900 14 18271259291904739900
25 1 18339373976029360550
2748010 2 18051414259931399206
305870 269 18265324015255713938
3071541 236 18262506117235758171
3248919 1 18059857328375181796
6333272 397 18410288155109654905
633830 44 18201447981861300909
7364860 26 17984696719129257670
74978 22 18337389452315146940
7832392 63 17981603767303507301
81228 2 17908704282097302211

>  <PUBCHEM_SHAPE_MULTIPOLES>  (1) 
299.33
6.37
2.23
1.28
0
0.17
0
2.01
0
0
0
0
0.03
-0.01

>  <PUBCHEM_SHAPE_SELFOVERLAP>  (1) 
561.422

>  <PUBCHEM_SHAPE_VOLUME>  (1) 
181

>  <PUBCHEM_COORDINATE_TYPE>  (1) 
2
5
10

$$$$
