13448
     RDKit          3D

 16 17  0  0  0  0  0  0  0  0999 V2000
    6.1158    0.5838   -0.0004 Br  0  0  0  0  0  0  0  0  0  0  0  0
   -2.4523    2.3610   -0.0025 O   0  0  0  0  0  0  0  0  0  0  0  0
    0.2030   -0.8248    0.0023 N   0  0  0  0  0  0  0  0  0  0  0  0
   -2.0792   -0.0088   -0.0002 C   0  0  0  0  0  0  0  0  0  0  0  0
   -2.9402    1.0885   -0.0016 C   0  0  0  0  0  0  0  0  0  0  0  0
    1.5699   -0.4987    0.0008 C   0  0  0  0  0  0  0  0  0  0  0  0
   -2.5989   -1.3033    0.0014 C   0  0  0  0  0  0  0  0  0  0  0  0
   -0.6344    0.1745   -0.0003 C   0  0  0  0  0  0  0  0  0  0  0  0
   -4.3211    0.8913   -0.0014 C   0  0  0  0  0  0  0  0  0  0  0  0
   -3.9798   -1.5004    0.0018 C   0  0  0  0  0  0  0  0  0  0  0  0
    2.2415   -0.3351    1.2084 C   0  0  0  0  0  0  0  0  0  0  0  0
    2.2421   -0.3419   -1.2076 C   0  0  0  0  0  0  0  0  0  0  0  0
   -4.8409   -0.4032    0.0004 C   0  0  0  0  0  0  0  0  0  0  0  0
    3.5984   -0.0114    1.2077 C   0  0  0  0  0  0  0  0  0  0  0  0
    3.5989   -0.0184   -1.2082 C   0  0  0  0  0  0  0  0  0  0  0  0
    4.2771    0.1469   -0.0006 C   0  0  0  0  0  0  0  0  0  0  0  0
  1 16  1  0
  2  5  1  0
  3  6  1  0
  3  8  2  0
  4  5  2  0
  4  7  1  0
  4  8  1  0
  5  9  1  0
  6 11  2  0
  6 12  1  0
  7 10  2  0
  9 13  2  0
 10 13  1  0
 11 14  1  0
 12 15  2  0
 14 16  2  0
 15 16  1  0
M  END
>  <PUBCHEM_COMPOUND_CID>  (1) 
13448

>  <PUBCHEM_CONFORMER_RMSD>  (1) 
0.6

>  <PUBCHEM_CONFORMER_DIVERSEORDER>  (1) 
1
3
2
4

>  <PUBCHEM_MMFF94_PARTIAL_CHARGES>  (1) 
26
1 -0.11
10 -0.15
11 -0.15
12 -0.15
13 -0.15
14 -0.15
15 -0.15
16 0.11
17 0.15
18 0.06
19 0.15
2 -0.53
20 0.15
21 0.15
22 0.15
23 0.15
24 0.15
25 0.15
26 0.45
3 -0.63
4 0.09
5 0.08
6 0.18
7 -0.15
8 0.3
9 -0.15

>  <PUBCHEM_EFFECTIVE_ROTOR_COUNT>  (1) 
2

>  <PUBCHEM_PHARMACOPHORE_FEATURES>  (1) 
5
1 1 hydrophobe
1 2 donor
1 3 acceptor
6 4 5 7 9 10 13 rings
6 6 11 12 14 15 16 rings

>  <PUBCHEM_HEAVY_ATOM_COUNT>  (1) 
16

>  <PUBCHEM_ATOM_DEF_STEREO_COUNT>  (1) 
0

>  <PUBCHEM_ATOM_UDEF_STEREO_COUNT>  (1) 
0

>  <PUBCHEM_BOND_DEF_STEREO_COUNT>  (1) 
0

>  <PUBCHEM_BOND_UDEF_STEREO_COUNT>  (1) 
0

>  <PUBCHEM_ISOTOPIC_ATOM_COUNT>  (1) 
0

>  <PUBCHEM_COMPONENT_COUNT>  (1) 
1

>  <PUBCHEM_CACTVS_TAUTO_COUNT>  (1) 
4

>  <PUBCHEM_CONFORMER_ID>  (1) 
0000348800000001

>  <PUBCHEM_MMFF94_ENERGY>  (1) 
43.2693

>  <PUBCHEM_FEATURE_SELFOVERLAP>  (1) 
25.371

>  <PUBCHEM_SHAPE_FINGERPRINT>  (1) 
10366900 7 18202555190228662043
10498660 4 18339923706021067341
10680689 15 17775563160991016543
11287383 113 18060139873146850354
11315181 36 17822293521609642862
11471102 20 15913328000981780154
12107183 9 17467619413279076664
12236239 1 17749387070536130826
12390115 104 17986685757919710065
12507557 5 17822009826124674381
12916748 109 18408892832289339018
13167823 11 18260824869731339354
13897977 58 18407760335217953105
14386348 63 17632579361468434578
15961568 22 18337949125346847228
17834072 33 18113617911013732822
18186145 218 15769768061740338726
19050596 39 17894631452484321923
19489759 90 18334293171362273522
200 152 16370720439736611743
20279233 1 17846782909682936799
20645477 56 18202562882330362215
20645477 70 16630254606418150574
21033648 29 17203315689763279088
21065198 48 18040709225945245482
22646028 1 17676203576285431115
2297311 6 18272097105862123581
23048698 100 16877943832199708258
23402539 116 18335978744162698702
23402655 69 15769780126234739160
23536379 177 18410575072712029130
23557571 272 18201725037174336424
23559900 14 18271248205534059902
2916195 48 18342731966730640128
300161 21 17822003211843116767
3268164 11 18340759386766641045
3545911 37 18412265021155415015
441001 317 18411419501051093424
474 4 16951982858366863372
5104073 3 18339367348931935067
5281201 14 17489878115655862348
542803 24 17967253104719723206
573450 72 18187355507010393331
67856867 119 17969507180871831340
7495541 125 17917991724263308122
9971528 1 17458346313005351654

>  <PUBCHEM_SHAPE_MULTIPOLES>  (1) 
324.36
12.48
1.35
0.99
5.78
0.46
0
1.29
0
-1.79
0
1.09
-0.08
0.01

>  <PUBCHEM_SHAPE_SELFOVERLAP>  (1) 
683.372

>  <PUBCHEM_SHAPE_VOLUME>  (1) 
187.2

>  <PUBCHEM_COORDINATE_TYPE>  (1) 
2
5
10

$$$$
