13444
     RDKit          3D

 16 17  0  0  1  0  0  0  0  0999 V2000
    2.2187    0.1638    1.0104 N   0  0  0  0  0  0  0  0  0  0  0  0
    2.2816    1.2749   -2.2362 N   0  0  0  0  0  0  0  0  0  0  0  0
    0.3212   -0.8216   -0.2366 C   0  0  0  0  0  0  0  0  0  0  0  0
    1.7603   -0.4079   -0.2670 C   0  0  0  0  0  0  0  0  0  0  0  0
   -0.7153    0.1034   -0.0302 C   0  0  0  0  0  0  0  0  0  0  0  0
   -2.0553   -0.3516   -0.0125 C   0  0  0  0  0  0  0  0  0  0  0  0
    0.0407   -2.1757   -0.4226 C   0  0  0  0  0  0  0  0  0  0  0  0
   -0.4515    1.4697    0.1589 C   0  0  0  0  0  0  0  0  0  0  0  0
   -2.3194   -1.7180   -0.2020 C   0  0  0  0  0  0  0  0  0  0  0  0
   -1.2772   -2.6230   -0.4056 C   0  0  0  0  0  0  0  0  0  0  0  0
   -3.0919    0.5731    0.1936 C   0  0  0  0  0  0  0  0  0  0  0  0
    3.6569    0.4048    0.9637 C   0  0  0  0  0  0  0  0  0  0  0  0
    1.8774   -0.7309    2.1110 C   0  0  0  0  0  0  0  0  0  0  0  0
   -1.4937    2.3744    0.3628 C   0  0  0  0  0  0  0  0  0  0  0  0
   -2.8115    1.9270    0.3802 C   0  0  0  0  0  0  0  0  0  0  0  0
    2.0590    0.5375   -1.3680 C   0  0  0  0  0  0  0  0  0  0  0  0
  1  4  1  0
  1 12  1  0
  1 13  1  0
  2 16  3  0
  3  4  1  0
  3  5  2  0
  3  7  1  0
  4 16  1  0
  5  6  1  0
  5  8  1  0
  6  9  2  0
  6 11  1  0
  7 10  2  0
  8 14  2  0
  9 10  1  0
 11 15  2  0
 14 15  1  0
M  END
>  <PUBCHEM_COMPOUND_CID>  (1) 
13444

>  <PUBCHEM_CONFORMER_RMSD>  (1) 
0.6

>  <PUBCHEM_CONFORMER_DIVERSEORDER>  (1) 
1
4
6
2
3
5

>  <PUBCHEM_MMFF94_PARTIAL_CHARGES>  (1) 
21
1 -0.81
10 -0.15
11 -0.15
12 0.27
13 0.27
14 -0.15
15 -0.15
16 0.36
18 0.15
19 0.15
2 -0.56
20 0.15
21 0.15
22 0.15
29 0.15
3 -0.14
30 0.15
4 0.61
7 -0.15
8 -0.15
9 -0.15

>  <PUBCHEM_EFFECTIVE_ROTOR_COUNT>  (1) 
2

>  <PUBCHEM_PHARMACOPHORE_FEATURES>  (1) 
4
1 1 cation
1 2 acceptor
6 3 5 6 7 9 10 rings
6 5 6 8 11 14 15 rings

>  <PUBCHEM_HEAVY_ATOM_COUNT>  (1) 
16

>  <PUBCHEM_ATOM_DEF_STEREO_COUNT>  (1) 
0

>  <PUBCHEM_ATOM_UDEF_STEREO_COUNT>  (1) 
1

>  <PUBCHEM_BOND_DEF_STEREO_COUNT>  (1) 
0

>  <PUBCHEM_BOND_UDEF_STEREO_COUNT>  (1) 
0

>  <PUBCHEM_ISOTOPIC_ATOM_COUNT>  (1) 
0

>  <PUBCHEM_COMPONENT_COUNT>  (1) 
1

>  <PUBCHEM_CACTVS_TAUTO_COUNT>  (1) 
1

>  <PUBCHEM_CONFORMER_ID>  (1) 
0000348400000001

>  <PUBCHEM_MMFF94_ENERGY>  (1) 
54.7516

>  <PUBCHEM_FEATURE_SELFOVERLAP>  (1) 
20.324

>  <PUBCHEM_SHAPE_FINGERPRINT>  (1) 
11640471 11 17968107463877881100
12423570 1 8885587096841339030
13140716 1 18125159583518386435
13538477 17 18261393398604145630
13583140 156 16805328760672213093
13898156 1 18259983811949617430
13965767 371 17829327990967894080
14787075 74 16597912754885487899
14817 1 13427315051790296930
15375462 175 18270696323700570163
15775835 57 18339918229900361480
15852999 172 17904171782009023621
16945 1 18341619264809742519
17357990 137 18114474391711440572
17804303 29 18197497312313765930
1813 80 17242169055704684186
19765921 60 17462301427512111804
20510252 161 18201716275630632363
20511035 2 18053102822377403879
20645476 183 18040722471682590231
22112679 90 18260548973911475148
22149856 69 17908155279248565329
22802520 49 17845113829630892214
2334 1 17765152057376064959
23402539 116 17986651844324859479
23419403 2 15888472599579019534
23493267 7 17969810517231623595
23526113 38 17203613666172963618
23557571 272 17986961932447223884
23559900 14 18059305267013234502
23598291 2 17894635850673251588
2748010 2 18123761846446376159
53812653 8 18264224636819247477
6992083 37 18042952208391616282
7364860 26 17552919529546310943
77492 1 17968094269864584126
81228 2 18200597028828928651

>  <PUBCHEM_SHAPE_MULTIPOLES>  (1) 
319.31
4.71
2.52
1.42
1.25
0.62
0.13
-1.54
-0.75
-1.87
0.23
1.68
-0.27
-0.71

>  <PUBCHEM_SHAPE_SELFOVERLAP>  (1) 
687.429

>  <PUBCHEM_SHAPE_VOLUME>  (1) 
174.6

>  <PUBCHEM_COORDINATE_TYPE>  (1) 
2
5
10

$$$$
