13443
     RDKit          3D

 16 17  0  0  1  0  0  0  0  0999 V2000
   -0.7068    2.1648    0.4604 O   0  0  0  0  0  0  0  0  0  0  0  0
   -3.6141    1.4994   -1.0837 O   0  0  0  0  0  0  0  0  0  0  0  0
   -0.6882   -1.2928    0.1263 N   0  0  0  0  0  0  0  0  0  0  0  0
    0.0270   -0.0903    0.2784 N   0  0  0  0  0  0  0  0  0  0  0  0
   -3.3310    1.0895    0.0498 N   0  0  0  0  0  0  0  0  0  0  0  0
   -2.0360   -0.9619   -0.0306 C   0  0  0  0  0  0  0  0  0  0  0  0
   -0.8931    0.9649    0.3353 C   0  0  0  0  0  0  0  0  0  0  0  0
   -2.2328    0.3577    0.0992 C   0  0  0  0  0  0  0  0  0  0  0  0
    1.4237    0.0171    0.0621 C   0  0  0  0  0  0  0  0  0  0  0  0
   -0.2892   -2.4425    0.9328 C   0  0  0  0  0  0  0  0  0  0  0  0
   -3.0597   -2.0246   -0.2623 C   0  0  0  0  0  0  0  0  0  0  0  0
    2.1165    1.1559    0.4844 C   0  0  0  0  0  0  0  0  0  0  0  0
    2.1190   -1.0156   -0.5746 C   0  0  0  0  0  0  0  0  0  0  0  0
    3.4912    1.2610    0.2722 C   0  0  0  0  0  0  0  0  0  0  0  0
    3.4937   -0.9106   -0.7866 C   0  0  0  0  0  0  0  0  0  0  0  0
    4.1797    0.2278   -0.3632 C   0  0  0  0  0  0  0  0  0  0  0  0
  1  7  2  0
  2  5  2  0
  3  4  1  0
  3  6  1  0
  3 10  1  0
  4  7  1  0
  4  9  1  0
  5  8  1  0
  6  8  2  0
  6 11  1  0
  7  8  1  0
  9 12  2  0
  9 13  1  0
 12 14  1  0
 13 15  2  0
 14 16  2  0
 15 16  1  0
M  END
>  <PUBCHEM_COMPOUND_CID>  (1) 
13443

>  <PUBCHEM_CONFORMER_RMSD>  (1) 
0.6

>  <PUBCHEM_CONFORMER_DIVERSEORDER>  (1) 
2
5
4
1
6
3

>  <PUBCHEM_MMFF94_PARTIAL_CHARGES>  (1) 
21
1 -0.57
10 0.37
11 0.14
12 -0.15
13 -0.15
14 -0.15
15 -0.15
16 -0.15
2 -0.16
23 0.15
24 0.15
25 0.15
26 0.15
27 0.15
3 -0.49
4 -0.16
5 -0.13
6 -0.04
7 0.62
8 0.31
9 0.12

>  <PUBCHEM_EFFECTIVE_ROTOR_COUNT>  (1) 
2

>  <PUBCHEM_PHARMACOPHORE_FEATURES>  (1) 
3
1 1 acceptor
5 3 4 6 7 8 rings
6 9 12 13 14 15 16 rings

>  <PUBCHEM_HEAVY_ATOM_COUNT>  (1) 
16

>  <PUBCHEM_ATOM_DEF_STEREO_COUNT>  (1) 
0

>  <PUBCHEM_ATOM_UDEF_STEREO_COUNT>  (1) 
0

>  <PUBCHEM_BOND_DEF_STEREO_COUNT>  (1) 
0

>  <PUBCHEM_BOND_UDEF_STEREO_COUNT>  (1) 
0

>  <PUBCHEM_ISOTOPIC_ATOM_COUNT>  (1) 
0

>  <PUBCHEM_COMPONENT_COUNT>  (1) 
1

>  <PUBCHEM_CACTVS_TAUTO_COUNT>  (1) 
1

>  <PUBCHEM_CONFORMER_ID>  (1) 
0000348300000002

>  <PUBCHEM_MMFF94_ENERGY>  (1) 
62.4289

>  <PUBCHEM_FEATURE_SELFOVERLAP>  (1) 
15.223

>  <PUBCHEM_SHAPE_FINGERPRINT>  (1) 
10608611 8 18341048618306731192
10967382 1 18339926995976019962
11132069 177 18413102875044287440
12032990 46 18269280216937780411
12500047 106 18335138709021413462
13296908 3 18272654579616204470
13380535 76 18413389813430310550
13897977 150 18342739598117060149
14325111 11 18411983580791585328
15196674 1 18413390964534105028
15219456 202 18272934955244700688
15375358 24 18343298189227471200
15775835 57 18040435456155707266
16945 1 18198910205776282699
18186145 218 18411421678673086140
200 152 16988842757094927596
20201158 50 18130511855540049006
20510252 161 18340491165752907761
20645476 183 17749116594691291850
20645477 56 18335421287456793301
20645477 70 17917716764588773854
20871999 31 18409166653460222711
21501502 16 18341901792243240786
22802520 49 18201445765615770162
2334 1 18339642351276632099
23402539 116 18409721872825958468
23402655 69 18272652316358584060
23493267 7 17603591785558880825
23557571 272 18271537484360650902
23559900 14 18343019961594150338
25 1 18338800000699587983
2748010 2 18341050812760517955
2871803 45 18339635758671079631
3312278 4 18413392042059225994
353137 74 18268430135762560081
4028521 119 18410291376335321941
5104073 3 18341896311880913162
6333449 129 18341896307137454563
69090 78 18273211989125156615
7364860 26 18194398879793338810
81228 2 18045786946815381363
8809292 202 18411145740294426418
93112 12 18342178851782587660
9709674 26 18341338885250509782

>  <PUBCHEM_SHAPE_MULTIPOLES>  (1) 
302.59
6.74
2.21
0.83
2.26
0.39
0.03
-0.9
1.59
-1.32
-0.25
-0.01
0.08
0.65

>  <PUBCHEM_SHAPE_SELFOVERLAP>  (1) 
647.974

>  <PUBCHEM_SHAPE_VOLUME>  (1) 
168.4

>  <PUBCHEM_COORDINATE_TYPE>  (1) 
2
5
10

$$$$
