13441
     RDKit          3D

 15 16  0  0  1  0  0  0  0  0999 V2000
   -3.7359   -0.5067    0.3190 S   0  0  0  0  0  0  0  0  0  0  0  0
   -4.3146   -0.2206    1.6152 O   0  0  0  0  0  0  0  0  0  0  0  0
   -4.1633   -1.6300   -0.4888 O   0  0  0  0  0  0  0  0  0  0  0  0
   -0.0700    0.8290   -0.2852 N   0  0  0  0  0  0  0  0  0  0  0  0
    0.7552   -0.2824   -0.3402 N   0  0  0  0  0  0  0  0  0  0  0  0
   -1.4307    0.4059   -0.5756 C   0  0  0  0  0  0  0  0  0  0  0  0
   -1.9558   -0.5609    0.4867 C   0  0  0  0  0  0  0  0  0  0  0  0
   -2.4072    1.5875   -0.5803 C   0  0  0  0  0  0  0  0  0  0  0  0
   -3.8006    0.9736   -0.6813 C   0  0  0  0  0  0  0  0  0  0  0  0
    2.1398   -0.1906   -0.1259 C   0  0  0  0  0  0  0  0  0  0  0  0
    2.9755   -1.2626   -0.4537 C   0  0  0  0  0  0  0  0  0  0  0  0
    2.6922    0.9732    0.4172 C   0  0  0  0  0  0  0  0  0  0  0  0
    4.3509   -1.1715   -0.2400 C   0  0  0  0  0  0  0  0  0  0  0  0
    4.0676    1.0642    0.6308 C   0  0  0  0  0  0  0  0  0  0  0  0
    4.8970   -0.0082    0.3021 C   0  0  0  0  0  0  0  0  0  0  0  0
  1  2  2  0
  1  3  2  0
  1  7  1  0
  1  9  1  0
  4  5  1  0
  4  6  1  0
  5 10  1  0
  6  7  1  0
  6  8  1  0
  8  9  1  0
 10 11  2  0
 10 12  1  0
 11 13  1  0
 12 14  2  0
 13 15  2  0
 14 15  1  0
M  END
>  <PUBCHEM_COMPOUND_CID>  (1) 
13441

>  <PUBCHEM_CONFORMER_RMSD>  (1) 
0.6

>  <PUBCHEM_CONFORMER_DIVERSEORDER>  (1) 
1
22
11
2
15
16
12
20
8
17
14
7
4
3
18
9
13
21
6
10
5
19

>  <PUBCHEM_MMFF94_PARTIAL_CHARGES>  (1) 
21
1 1.09
10 0.1
11 -0.15
12 -0.15
13 -0.15
14 -0.15
15 -0.15
2 -0.65
23 0.36
24 0.4
25 0.15
26 0.15
27 0.15
28 0.15
29 0.15
3 -0.65
4 -0.62
5 -0.51
6 0.27
7 0.11
9 0.11

>  <PUBCHEM_EFFECTIVE_ROTOR_COUNT>  (1) 
3.8

>  <PUBCHEM_PHARMACOPHORE_FEATURES>  (1) 
6
1 2 acceptor
1 3 acceptor
1 4 donor
1 5 donor
5 1 6 7 8 9 rings
6 10 11 12 13 14 15 rings

>  <PUBCHEM_HEAVY_ATOM_COUNT>  (1) 
15

>  <PUBCHEM_ATOM_DEF_STEREO_COUNT>  (1) 
0

>  <PUBCHEM_ATOM_UDEF_STEREO_COUNT>  (1) 
1

>  <PUBCHEM_BOND_DEF_STEREO_COUNT>  (1) 
0

>  <PUBCHEM_BOND_UDEF_STEREO_COUNT>  (1) 
0

>  <PUBCHEM_ISOTOPIC_ATOM_COUNT>  (1) 
0

>  <PUBCHEM_COMPONENT_COUNT>  (1) 
1

>  <PUBCHEM_CACTVS_TAUTO_COUNT>  (1) 
1

>  <PUBCHEM_CONFORMER_ID>  (1) 
0000348100000001

>  <PUBCHEM_MMFF94_ENERGY>  (1) 
32.6327

>  <PUBCHEM_FEATURE_SELFOVERLAP>  (1) 
31.95

>  <PUBCHEM_SHAPE_FINGERPRINT>  (1) 
10680689 15 18334014977972679061
10912923 1 16702295758856843654
11552529 35 17560233768768258567
11615757 297 17632856438562119112
13237642 15 18409164441615537680
13296908 3 18409445869104917388
13675066 3 18334577944784209668
14123238 8 18411136952606527526
14252887 29 18342742888674016558
17834074 16 18409728439446020462
17844677 252 18411704270473701780
18186145 218 18060423495343562414
19141452 34 18412830213878538215
1986462 14 18114180800341882973
200 152 17917702505386768205
20279233 1 18409167692721066854
20432913 95 18413110562771886251
20645477 70 18058722495089578862
21065198 57 18339640049232287612
21065201 7 17749665191053738512
22485316 2 18409445869057483510
22646028 1 15936408931507036840
22854114 59 18342457049688623898
23402539 116 18113328713211089999
23557571 272 17895752889878349421
23559900 14 18263075544489874438
26918003 58 18272929401609413464
3268164 11 17313374613454737679
42 15 18411700976296478654
4214541 1 18410571751784567405
5104073 3 18338231570790046856
542803 24 16128656357906852256
573450 72 16733254673337434952
69090 78 18413105086783873502
77779 3 18412261722889628524
9709674 26 18408045108571668314

>  <PUBCHEM_SHAPE_MULTIPOLES>  (1) 
290.84
11.13
1.44
0.92
1.87
0
-0.2
1.54
-1.38
-0.25
0.18
-0.66
0
0.88

>  <PUBCHEM_SHAPE_SELFOVERLAP>  (1) 
591.033

>  <PUBCHEM_SHAPE_VOLUME>  (1) 
169.6

>  <PUBCHEM_COORDINATE_TYPE>  (1) 
2
5
10

$$$$
