13455
     RDKit          3D

 17 17  0  0  0  0  0  0  0  0999 V2000
    1.2966   -2.7036   -0.1969 Cl  0  0  0  0  0  0  0  0  0  0  0  0
    1.2983    2.7026   -0.1964 Cl  0  0  0  0  0  0  0  0  0  0  0  0
   -1.8698   -2.7027    0.0092 Cl  0  0  0  0  0  0  0  0  0  0  0  0
   -1.8683    2.7035    0.0085 Cl  0  0  0  0  0  0  0  0  0  0  0  0
    3.1424   -0.0002    0.9586 O   0  0  0  0  0  0  0  0  0  0  0  0
   -3.5672   -0.0002    1.3794 O   0  0  0  0  0  0  0  0  0  0  0  0
    3.1896   -0.0008   -1.3430 O   0  0  0  0  0  0  0  0  0  0  0  0
   -3.9087    0.0009   -0.8678 O   0  0  0  0  0  0  0  0  0  0  0  0
    1.1062   -0.0004   -0.1836 C   0  0  0  0  0  0  0  0  0  0  0  0
   -1.6778    0.0003   -0.0034 C   0  0  0  0  0  0  0  0  0  0  0  0
    0.4099   -1.2082   -0.1384 C   0  0  0  0  0  0  0  0  0  0  0  0
    0.4105    1.2077   -0.1387 C   0  0  0  0  0  0  0  0  0  0  0  0
   -0.9821   -1.2078   -0.0484 C   0  0  0  0  0  0  0  0  0  0  0  0
   -0.9814    1.2081   -0.0487 C   0  0  0  0  0  0  0  0  0  0  0  0
    2.5671   -0.0008   -0.2790 C   0  0  0  0  0  0  0  0  0  0  0  0
   -3.1387    0.0008    0.0911 C   0  0  0  0  0  0  0  0  0  0  0  0
    4.5735    0.0009    0.9974 C   0  0  0  0  0  0  0  0  0  0  0  0
  1 11  1  0
  2 12  1  0
  3 13  1  0
  4 14  1  0
  5 15  1  0
  5 17  1  0
  6 16  1  0
  7 15  2  0
  8 16  2  0
  9 11  2  0
  9 12  1  0
  9 15  1  0
 10 13  2  0
 10 14  1  0
 10 16  1  0
 11 13  1  0
 12 14  2  0
M  END
>  <PUBCHEM_COMPOUND_CID>  (1) 
13455

>  <PUBCHEM_CONFORMER_RMSD>  (1) 
0.6

>  <PUBCHEM_CONFORMER_DIVERSEORDER>  (1) 
1

>  <PUBCHEM_MMFF94_PARTIAL_CHARGES>  (1) 
18
1 -0.18
10 0.09
11 0.18
12 0.18
13 0.18
14 0.18
15 0.63
16 0.63
17 0.28
2 -0.18
21 0.5
3 -0.18
4 -0.18
5 -0.43
6 -0.65
7 -0.57
8 -0.57
9 0.09

>  <PUBCHEM_EFFECTIVE_ROTOR_COUNT>  (1) 
3

>  <PUBCHEM_PHARMACOPHORE_FEATURES>  (1) 
5
1 6 acceptor
1 7 acceptor
1 8 acceptor
3 6 8 16 anion
6 9 10 11 12 13 14 rings

>  <PUBCHEM_HEAVY_ATOM_COUNT>  (1) 
17

>  <PUBCHEM_ATOM_DEF_STEREO_COUNT>  (1) 
0

>  <PUBCHEM_ATOM_UDEF_STEREO_COUNT>  (1) 
0

>  <PUBCHEM_BOND_DEF_STEREO_COUNT>  (1) 
0

>  <PUBCHEM_BOND_UDEF_STEREO_COUNT>  (1) 
0

>  <PUBCHEM_ISOTOPIC_ATOM_COUNT>  (1) 
0

>  <PUBCHEM_COMPONENT_COUNT>  (1) 
1

>  <PUBCHEM_CACTVS_TAUTO_COUNT>  (1) 
1

>  <PUBCHEM_CONFORMER_ID>  (1) 
0000348F00000001

>  <PUBCHEM_MMFF94_ENERGY>  (1) 
56.5877

>  <PUBCHEM_FEATURE_SELFOVERLAP>  (1) 
25.429

>  <PUBCHEM_SHAPE_FINGERPRINT>  (1) 
10967382 1 18410858763016067295
11132069 177 18411134749167173754
11206711 2 18337394846641597069
12236239 1 17675926500177956556
12251169 10 18408599279827701440
12382932 28 18411982481074612683
124424 183 17749381577183191003
12553582 1 18410302414506533701
13140716 1 18266743669571878017
13172582 1 18410293639788069218
13221675 6 18410015437639923431
13380535 76 18410851062193076655
13538477 17 18187085104654595790
14614273 12 18188765029198467517
14787075 74 17774707779441330056
14790565 3 18266767760007576573
15042514 8 18337672026350629834
15209294 21 17845942818569920889
15309172 13 18411705374385408739
15375462 189 17968087655757380026
16945 1 18410860957844543367
1813 80 16951685780370129690
193761 8 17761776161188373597
20510252 161 18272367521192916192
20588541 1 18411422803954693143
20645476 183 17532388632483740974
20739085 24 17906764434717051169
21501502 16 18122628528587739749
22182313 1 18193843630610147789
2334 1 17978513366424060517
23402539 116 18341314639632109653
23419403 2 15307507861001136984
23463225 33 18335420226594200164
23557571 272 18273218565369160556
23559900 14 18270976725758331772
2748010 2 18050010995495020271
34934 24 18410846655561619871
350125 39 17979083686372582626
4072396 5 18263064566110445267
43471831 8 18263359188251496626
53812653 166 18272085011213242666
7364860 26 18056477253733574310
74978 22 18265334082658873711
81228 2 18341343192659505040

>  <PUBCHEM_SHAPE_MULTIPOLES>  (1) 
333.85
6.11
2.93
0.92
2.12
0
-0.07
0
-1.18
-0.69
0.2
0.23
0
0

>  <PUBCHEM_SHAPE_SELFOVERLAP>  (1) 
672.848

>  <PUBCHEM_SHAPE_VOLUME>  (1) 
199.5

>  <PUBCHEM_COORDINATE_TYPE>  (1) 
2
5
10

$$$$
