1345
     RDKit          3D

 25 27  0  0  1  0  0  0  0  0999 V2000
   -1.6877   -1.3600    2.4724 Cl  0  0  0  0  0  0  0  0  0  0  0  0
    2.8618    0.2662   -1.7630 O   0  0  0  0  0  0  0  0  0  0  0  0
    3.2286    0.0672    0.5370 N   0  0  0  0  0  0  0  0  0  0  0  0
    0.1718   -0.3265   -0.4071 N   0  0  0  0  0  0  0  0  0  0  0  0
    4.6336   -0.3219    0.4370 C   0  0  0  0  0  0  0  0  0  0  0  0
    4.7972   -1.6285   -0.3499 C   0  0  0  0  0  0  0  0  0  0  0  0
    5.4341    0.8039   -0.2095 C   0  0  0  0  0  0  0  0  0  0  0  0
    2.4423    0.3349   -0.5994 C   0  0  0  0  0  0  0  0  0  0  0  0
    1.0477    0.7006   -0.4207 C   0  0  0  0  0  0  0  0  0  0  0  0
    2.6947    0.1601    1.8886 C   0  0  0  0  0  0  0  0  0  0  0  0
    4.0136   -2.7839    0.2597 C   0  0  0  0  0  0  0  0  0  0  0  0
   -1.6089    1.2989   -0.0878 C   0  0  0  0  0  0  0  0  0  0  0  0
   -0.6637    2.3453   -0.1073 C   0  0  0  0  0  0  0  0  0  0  0  0
   -1.1309   -0.0040   -0.2418 C   0  0  0  0  0  0  0  0  0  0  0  0
    0.6900    2.0325   -0.2777 C   0  0  0  0  0  0  0  0  0  0  0  0
   -1.9944   -1.1682   -0.2409 C   0  0  0  0  0  0  0  0  0  0  0  0
   -2.9720    1.5920    0.0824 C   0  0  0  0  0  0  0  0  0  0  0  0
   -1.1068    3.6693    0.0447 C   0  0  0  0  0  0  0  0  0  0  0  0
   -3.3945    2.9127    0.2318 C   0  0  0  0  0  0  0  0  0  0  0  0
   -2.4640    3.9491    0.2130 C   0  0  0  0  0  0  0  0  0  0  0  0
   -2.3081   -1.8518    0.9346 C   0  0  0  0  0  0  0  0  0  0  0  0
   -2.5183   -1.6023   -1.4592 C   0  0  0  0  0  0  0  0  0  0  0  0
   -3.1442   -2.9675    0.8917 C   0  0  0  0  0  0  0  0  0  0  0  0
   -3.3545   -2.7179   -1.5022 C   0  0  0  0  0  0  0  0  0  0  0  0
   -3.6674   -3.4005   -0.3266 C   0  0  0  0  0  0  0  0  0  0  0  0
  1 21  1  0
  2  8  2  0
  3  5  1  0
  3  8  1  0
  3 10  1  0
  4  9  2  0
  4 14  1  0
  5  6  1  0
  5  7  1  0
  6 11  1  0
  8  9  1  0
  9 15  1  0
 12 13  1  0
 12 14  2  0
 12 17  1  0
 13 15  2  0
 13 18  1  0
 14 16  1  0
 16 21  2  0
 16 22  1  0
 17 19  2  0
 18 20  2  0
 19 20  1  0
 21 23  1  0
 22 24  2  0
 23 25  2  0
 24 25  1  0
M  END
>  <PUBCHEM_COMPOUND_CID>  (1) 
1345

>  <PUBCHEM_CONFORMER_RMSD>  (1) 
0.8

>  <PUBCHEM_CONFORMER_DIVERSEORDER>  (1) 
1
44
23
53
19
59
57
46
48
15
13
50
16
29
32
21
36
27
17
52
55
63
45
51
26
11
8
14
24
30
64
10
28
58
22
37
20
12
43
39
47
7
38
18
5
35
33
56
25
31
54
9
34
60
62
40
49
61
6
42
2
41
4
3

>  <PUBCHEM_MMFF94_PARTIAL_CHARGES>  (1) 
28
1 -0.18
10 0.3
14 0.31
15 -0.15
17 -0.15
18 -0.15
19 -0.15
2 -0.57
20 -0.15
21 0.18
22 -0.15
23 -0.15
24 -0.15
25 -0.15
3 -0.66
38 0.15
39 0.15
4 -0.62
40 0.15
41 0.15
42 0.15
43 0.15
44 0.15
45 0.15
46 0.15
5 0.3
8 0.54
9 0.4

>  <PUBCHEM_EFFECTIVE_ROTOR_COUNT>  (1) 
5

>  <PUBCHEM_PHARMACOPHORE_FEATURES>  (1) 
6
1 11 hydrophobe
1 2 acceptor
1 4 acceptor
6 12 13 17 18 19 20 rings
6 16 21 22 23 24 25 rings
6 4 9 12 13 14 15 rings

>  <PUBCHEM_HEAVY_ATOM_COUNT>  (1) 
25

>  <PUBCHEM_ATOM_DEF_STEREO_COUNT>  (1) 
0

>  <PUBCHEM_ATOM_UDEF_STEREO_COUNT>  (1) 
1

>  <PUBCHEM_BOND_DEF_STEREO_COUNT>  (1) 
0

>  <PUBCHEM_BOND_UDEF_STEREO_COUNT>  (1) 
0

>  <PUBCHEM_ISOTOPIC_ATOM_COUNT>  (1) 
0

>  <PUBCHEM_COMPONENT_COUNT>  (1) 
1

>  <PUBCHEM_CACTVS_TAUTO_COUNT>  (1) 
1

>  <PUBCHEM_CONFORMER_ID>  (1) 
0000054100000001

>  <PUBCHEM_MMFF94_ENERGY>  (1) 
79.3117

>  <PUBCHEM_FEATURE_SELFOVERLAP>  (1) 
30.474

>  <PUBCHEM_SHAPE_FINGERPRINT>  (1) 
10254770 206 17110996051148599994
10319926 262 18270382912201524506
10411042 1 18195808694223337719
10616163 171 18411419480109091462
11265709 11 18267303321148664837
11552529 35 18131353020421107672
11578080 2 17703779366644062993
12160290 23 18193863490660795853
12363563 72 18265615570452258814
12422481 6 18054543286195330499
12549972 3 17630581480632947298
12553582 1 18194134133381767831
12633257 1 15912772828766252142
12788726 201 18335128796199964899
13004483 165 18270949271573410599
13134695 92 17906731754511128717
13135754 10 17170996632096798123
13140716 1 18340773744637063561
13544653 18 18336264668978696550
13583140 156 17703211971916246290
138480 1 16177633742435978471
13911987 19 17178294370091479668
14178342 30 18336816516584095434
14790565 3 17834959667855152328
14844126 61 18411974763060566858
14866123 147 18266172821237558843
15042514 8 18410860941129086133
15250474 111 18262789663162308370
1813 80 18056493973729553847
19591789 44 17761773966396788263
20101258 96 18339931527103772408
20197701 30 17974567992476535549
20832881 197 18044656632257411683
21478907 32 18411416250282985951
21781051 124 17973475146959555041
23419403 2 16916202507925649617
23558518 356 18259992552545726970
23559900 14 18199183993710911036
23598288 3 18191048792253656509
23728640 28 18338519612597627163
3091708 16 9059537666555655801
38695281 34 17689993440905126421
44062 13 18269839705833681766
5104073 3 18411973647270708736
5309563 4 18122627411854902194
532947 4 17261875447099032015
5364581 5 18270097099324254096
59025328 239 17555700516649461567
5924683 9 18412818080115807606
59755656 520 18194957435974039781
6004065 56 17762887067359780211
613672 6 18123168358706528051
70251023 43 18193554704087120779
7399639 24 17914312814233698760
7970288 3 18194964264999030942
81228 2 18409158918367014853
9709674 26 18198906916332559214

>  <PUBCHEM_SHAPE_MULTIPOLES>  (1) 
500.53
8.99
4.74
1.44
12.71
1.61
0.54
-4.57
-0.42
-6.29
0.01
-0.37
-0.88
-0.55

>  <PUBCHEM_SHAPE_SELFOVERLAP>  (1) 
1076.096

>  <PUBCHEM_SHAPE_VOLUME>  (1) 
277.7

>  <PUBCHEM_COORDINATE_TYPE>  (1) 
2
5
10

$$$$
