13459
     RDKit          3D

 18 19  0  0  1  0  0  0  0  0999 V2000
   -0.0081   -1.5705   -0.4420 O   0  0  0  0  0  0  0  0  0  0  0  0
    0.7066    2.9088    0.5839 O   0  0  0  0  0  0  0  0  0  0  0  0
   -3.5665    1.3639    0.0165 O   0  0  0  0  0  0  0  0  0  0  0  0
    0.4379    0.6888   -0.0870 N   0  0  0  0  0  0  0  0  0  0  0  0
   -1.4124    2.1252    0.2409 N   0  0  0  0  0  0  0  0  0  0  0  0
    1.8506    0.4410    0.0727 C   0  0  0  0  0  0  0  0  0  0  0  0
    2.1012   -0.5524    1.2104 C   0  0  0  0  0  0  0  0  0  0  0  0
    2.4606   -0.0520   -1.2416 C   0  0  0  0  0  0  0  0  0  0  0  0
    3.5864   -0.8707    1.3615 C   0  0  0  0  0  0  0  0  0  0  0  0
    3.9451   -0.3727   -1.0875 C   0  0  0  0  0  0  0  0  0  0  0  0
    4.1931   -1.3599    0.0495 C   0  0  0  0  0  0  0  0  0  0  0  0
   -1.7808   -0.0014   -0.8675 C   0  0  0  0  0  0  0  0  0  0  0  0
   -0.3826   -0.3974   -0.4294 C   0  0  0  0  0  0  0  0  0  0  0  0
   -0.0275    1.9749    0.2501 C   0  0  0  0  0  0  0  0  0  0  0  0
   -2.7385   -1.1904   -0.8058 C   0  0  0  0  0  0  0  0  0  0  0  0
   -2.3600    1.1936   -0.1475 C   0  0  0  0  0  0  0  0  0  0  0  0
   -3.0369   -1.5646    0.6333 C   0  0  0  0  0  0  0  0  0  0  0  0
   -3.9681   -2.7643    0.6894 C   0  0  0  0  0  0  0  0  0  0  0  0
  1 13  2  0
  2 14  2  0
  3 16  2  0
  4  6  1  0
  4 13  1  0
  4 14  1  0
  5 14  1  0
  5 16  1  0
  6  7  1  0
  6  8  1  0
  7  9  1  0
  8 10  1  0
  9 11  1  0
 10 11  1  0
 12 13  1  0
 12 15  1  0
 12 16  1  0
 15 17  1  0
 17 18  1  0
M  END
>  <PUBCHEM_COMPOUND_CID>  (1) 
13459

>  <PUBCHEM_CONFORMER_RMSD>  (1) 
0.6

>  <PUBCHEM_CONFORMER_DIVERSEORDER>  (1) 
1
23
22
29
6
13
31
14
27
28
34
21
15
12
25
16
19
5
24
30
7
4
26
18
10
32
20
3
2
33
17
9
8
11

>  <PUBCHEM_MMFF94_PARTIAL_CHARGES>  (1) 
11
1 -0.57
12 0.12
13 0.57
14 0.69
16 0.57
2 -0.57
3 -0.57
33 0.37
4 -0.42
5 -0.49
6 0.3

>  <PUBCHEM_EFFECTIVE_ROTOR_COUNT>  (1) 
4.8

>  <PUBCHEM_PHARMACOPHORE_FEATURES>  (1) 
8
1 1 acceptor
1 12 anion
1 18 hydrophobe
1 2 acceptor
1 3 acceptor
1 5 donor
6 4 5 12 13 14 16 rings
6 6 7 8 9 10 11 rings

>  <PUBCHEM_HEAVY_ATOM_COUNT>  (1) 
18

>  <PUBCHEM_ATOM_DEF_STEREO_COUNT>  (1) 
0

>  <PUBCHEM_ATOM_UDEF_STEREO_COUNT>  (1) 
1

>  <PUBCHEM_BOND_DEF_STEREO_COUNT>  (1) 
0

>  <PUBCHEM_BOND_UDEF_STEREO_COUNT>  (1) 
0

>  <PUBCHEM_ISOTOPIC_ATOM_COUNT>  (1) 
0

>  <PUBCHEM_COMPONENT_COUNT>  (1) 
1

>  <PUBCHEM_CACTVS_TAUTO_COUNT>  (1) 
3

>  <PUBCHEM_CONFORMER_ID>  (1) 
0000349300000001

>  <PUBCHEM_MMFF94_ENERGY>  (1) 
31.0741

>  <PUBCHEM_FEATURE_SELFOVERLAP>  (1) 
40.596

>  <PUBCHEM_SHAPE_FINGERPRINT>  (1) 
11132069 177 18271517594388344736
11543360 7 16370722672866710070
11680986 33 18270105933259714793
12032990 46 18413110584378721422
12236239 1 17968662601717988908
12553582 1 18269836578427551566
12633257 1 18269859608864580187
12824470 246 17894907451283174387
13103583 49 17974887066113934123
13140716 1 18341894112736688513
13296908 3 18343575257287959838
13538477 17 18261673666974627388
13760787 19 17895198770335249566
14115302 16 18187926136339141509
14787075 74 17971474246149842088
15219456 202 17203032020575029872
15375462 189 18113900433477173930
16752209 62 18336533967654862943
16945 1 18268707216829562221
17804303 29 18410014360024975919
18186145 218 17676486129720926454
18222031 100 18129663144354440311
19422 9 18113339708617810270
200 152 16515686585762286184
20281475 54 18040991830498731554
20645477 70 18052522559679805639
21041028 32 18130238154522969489
22802520 49 17844820191459663102
232386 152 18410006620093124900
2334 1 18269267048932223133
23402539 116 17986656100468527860
23557571 272 17987233327489385136
23559900 14 18129098932086192294
2748010 2 18269540797294423421
31174 14 18052539060738012339
474 4 17677062368751977252
5104073 3 18341888576787127370
5902787 121 18410007753996197952
7364860 26 17984418809149482448
77492 1 17968380031445535468
81228 2 17985834730870372416
8809292 202 18409166593430907123

>  <PUBCHEM_SHAPE_MULTIPOLES>  (1) 
342.86
7.33
2.57
1.13
1.37
0.71
0.01
-4.73
0.32
-2.21
0.71
0.71
-0.25
0.17

>  <PUBCHEM_SHAPE_SELFOVERLAP>  (1) 
706.517

>  <PUBCHEM_SHAPE_VOLUME>  (1) 
192.9

>  <PUBCHEM_COORDINATE_TYPE>  (1) 
2
5
10

$$$$
