13470
     RDKit          3D

 20 21  0  0  0  0  0  0  0  0999 V2000
    3.9674   -1.8180    2.2023 Cl  0  0  0  0  0  0  0  0  0  0  0  0
   -2.6729   -2.5916    0.2171 N   0  0  0  0  0  0  0  0  0  0  0  0
   -2.2610   -0.6748   -1.2534 C   0  0  0  0  0  0  0  0  0  0  0  0
   -3.0146   -1.1954   -0.0303 C   0  0  0  0  0  0  0  0  0  0  0  0
    0.0532    0.1747   -0.5232 C   0  0  0  0  0  0  0  0  0  0  0  0
   -0.7703   -0.7605   -1.0466 C   0  0  0  0  0  0  0  0  0  0  0  0
    1.5006   -0.1528   -0.4357 C   0  0  0  0  0  0  0  0  0  0  0  0
   -0.4870    1.4759   -0.0692 C   0  0  0  0  0  0  0  0  0  0  0  0
   -3.0027   -3.4162   -0.9465 C   0  0  0  0  0  0  0  0  0  0  0  0
   -3.3675   -3.0891    1.4056 C   0  0  0  0  0  0  0  0  0  0  0  0
    1.9792   -0.7568    0.7081 C   0  0  0  0  0  0  0  0  0  0  0  0
    2.3178    0.1574   -1.5025 C   0  0  0  0  0  0  0  0  0  0  0  0
   -0.5620    2.5229   -0.9684 C   0  0  0  0  0  0  0  0  0  0  0  0
   -0.9019    1.6099    1.2424 C   0  0  0  0  0  0  0  0  0  0  0  0
    3.3372   -1.0647    0.7888 C   0  0  0  0  0  0  0  0  0  0  0  0
    3.6759   -0.1503   -1.4217 C   0  0  0  0  0  0  0  0  0  0  0  0
   -1.0708    3.7490   -0.5403 C   0  0  0  0  0  0  0  0  0  0  0  0
   -1.4108    2.8361    1.6705 C   0  0  0  0  0  0  0  0  0  0  0  0
    4.1856   -0.7614   -0.2761 C   0  0  0  0  0  0  0  0  0  0  0  0
   -1.4953    3.9056    0.7791 C   0  0  0  0  0  0  0  0  0  0  0  0
  1 15  1  0
  2  4  1  0
  2  9  1  0
  2 10  1  0
  3  4  1  0
  3  6  1  0
  5  6  2  0
  5  7  1  0
  5  8  1  0
  7 11  2  0
  7 12  1  0
  8 13  2  0
  8 14  1  0
 11 15  1  0
 12 16  2  0
 13 17  1  0
 14 18  2  0
 15 19  2  0
 16 19  1  0
 17 20  2  0
 18 20  1  0
M  END
>  <PUBCHEM_COMPOUND_CID>  (1) 
13470

>  <PUBCHEM_CONFORMER_RMSD>  (1) 
0.8

>  <PUBCHEM_CONFORMER_DIVERSEORDER>  (1) 
7
19
11
16
20
22
12
21
15
14
18
17
8
4
10
13
6
9
1
3
5
2

>  <PUBCHEM_MMFF94_PARTIAL_CHARGES>  (1) 
30
1 -0.18
10 0.27
11 -0.15
12 -0.15
13 -0.15
14 -0.15
15 0.18
16 -0.15
17 -0.15
18 -0.15
19 -0.15
2 -0.81
20 -0.15
25 0.15
3 0.14
32 0.15
33 0.15
34 0.15
35 0.15
36 0.15
37 0.15
38 0.15
39 0.15
4 0.27
40 0.15
5 -0.06
6 -0.29
7 0.03
8 0.03
9 0.27

>  <PUBCHEM_EFFECTIVE_ROTOR_COUNT>  (1) 
5

>  <PUBCHEM_PHARMACOPHORE_FEATURES>  (1) 
3
1 2 cation
6 7 11 12 15 16 19 rings
6 8 13 14 17 18 20 rings

>  <PUBCHEM_HEAVY_ATOM_COUNT>  (1) 
20

>  <PUBCHEM_ATOM_DEF_STEREO_COUNT>  (1) 
0

>  <PUBCHEM_ATOM_UDEF_STEREO_COUNT>  (1) 
0

>  <PUBCHEM_BOND_DEF_STEREO_COUNT>  (1) 
0

>  <PUBCHEM_BOND_UDEF_STEREO_COUNT>  (1) 
1

>  <PUBCHEM_ISOTOPIC_ATOM_COUNT>  (1) 
0

>  <PUBCHEM_COMPONENT_COUNT>  (1) 
1

>  <PUBCHEM_CACTVS_TAUTO_COUNT>  (1) 
1

>  <PUBCHEM_CONFORMER_ID>  (1) 
0000349E00000007

>  <PUBCHEM_MMFF94_ENERGY>  (1) 
62.8111

>  <PUBCHEM_FEATURE_SELFOVERLAP>  (1) 
15.223

>  <PUBCHEM_SHAPE_FINGERPRINT>  (1) 
11070050 100 17123695470292962809
11578080 2 17898262095614249756
121448 382 17910651190999374053
12160290 23 18200029517314173813
12549972 3 17753319070731963403
12553582 1 18339646762203433047
12707595 3 18193836174621450615
12788726 201 18409166571776898123
12839892 36 17831584176291114497
13004483 165 18408885131349752203
13140716 1 18341612650459873321
133893 2 17479147105422458135
136203 1 18341334388108137577
13681431 1 18054501684535328869
13955234 65 17474111376886022563
14178342 30 18192420880171559738
14251757 17 15213296486427458555
14787075 74 17831020491860842524
14955137 171 17409656883920489856
15163728 17 9582418207546077539
15295992 7 16413791471482373306
15309172 13 17763755286403515788
15375462 189 18188779490406373027
15842332 3 17968667004159824166
17868525 174 18265618874247356883
1813 80 18057620951599523223
19734167 9 17053634709877632083
20600515 1 18267560529428570133
21041028 32 18126303045372467685
21452121 199 18196083567550211373
21524375 3 17337866028510105597
21731228 192 17762618386900305176
22112679 90 18124908821314972941
22956985 138 17470982136485943274
23419403 2 17696424724834397925
23557571 272 18059571326962091532
23558518 356 17979630135368127831
238078 22 18262528099094507518
3071541 236 18125432012650653012
3084891 72 18267572530057636983
35225 105 18198634228410485299
5845 1 13808728149390652445
58807428 26 17546158602202673080
6049 1 17131829833777711596
7364860 26 17550955123173984695
7615 1 18114180771005053556
81228 2 18271807865589992069
9841814 1 18051973915956679979
9981440 41 16697475384360025882

>  <PUBCHEM_SHAPE_MULTIPOLES>  (1) 
408.48
6.57
4.8
1.77
6.71
1.62
0.5
-5.6
1.21
-7.26
1.18
0.78
-0.22
-1.28

>  <PUBCHEM_SHAPE_SELFOVERLAP>  (1) 
850.598

>  <PUBCHEM_SHAPE_VOLUME>  (1) 
234.3

>  <PUBCHEM_COORDINATE_TYPE>  (1) 
2
5
10

$$$$
