1347
     RDKit          3D

 20 21  0  0  0  0  0  0  0  0999 V2000
   -3.2619   -2.3802    1.0859 O   0  0  0  0  0  0  0  0  0  0  0  0
    5.1168   -1.3026   -0.5567 O   0  0  0  0  0  0  0  0  0  0  0  0
   -4.8804    2.5119   -0.8770 O   0  0  0  0  0  0  0  0  0  0  0  0
    4.1024    2.5307    0.4506 O   0  0  0  0  0  0  0  0  0  0  0  0
    5.5874    0.9078    1.0231 O   0  0  0  0  0  0  0  0  0  0  0  0
    1.1251   -0.2048   -0.2317 C   0  0  0  0  0  0  0  0  0  0  0  0
   -2.7373   -0.3081   -0.0118 C   0  0  0  0  0  0  0  0  0  0  0  0
    2.1201    0.6677    0.2090 C   0  0  0  0  0  0  0  0  0  0  0  0
   -0.2753    0.1724   -0.1213 C   0  0  0  0  0  0  0  0  0  0  0  0
    3.4629    0.3053    0.1027 C   0  0  0  0  0  0  0  0  0  0  0  0
   -1.3199   -0.6889   -0.1432 C   0  0  0  0  0  0  0  0  0  0  0  0
    1.4731   -1.4399   -0.7789 C   0  0  0  0  0  0  0  0  0  0  0  0
   -3.6417   -1.1666    0.5940 C   0  0  0  0  0  0  0  0  0  0  0  0
    3.8107   -0.9299   -0.4442 C   0  0  0  0  0  0  0  0  0  0  0  0
   -3.1372    0.9237   -0.5076 C   0  0  0  0  0  0  0  0  0  0  0  0
    2.8158   -1.8025   -0.8851 C   0  0  0  0  0  0  0  0  0  0  0  0
   -4.4739    1.3059   -0.3950 C   0  0  0  0  0  0  0  0  0  0  0  0
   -4.9785   -0.7844    0.7067 C   0  0  0  0  0  0  0  0  0  0  0  0
   -5.3946    0.4517    0.2121 C   0  0  0  0  0  0  0  0  0  0  0  0
    4.4864    1.2307    0.5686 C   0  0  0  0  0  0  0  0  0  0  0  0
  1 13  1  0
  2 14  1  0
  3 17  1  0
  4 20  1  0
  5 20  2  0
  6  8  2  0
  6  9  1  0
  6 12  1  0
  7 11  1  0
  7 13  2  0
  7 15  1  0
  8 10  1  0
  9 11  2  0
 10 14  2  0
 10 20  1  0
 12 16  2  0
 13 18  1  0
 14 16  1  0
 15 17  2  0
 17 19  1  0
 18 19  2  0
M  END
>  <PUBCHEM_COMPOUND_CID>  (1) 
1347

>  <PUBCHEM_CONFORMER_RMSD>  (1) 
0.6

>  <PUBCHEM_CONFORMER_DIVERSEORDER>  (1) 
2
6
3
10
4
7
8
5
1
9

>  <PUBCHEM_MMFF94_PARTIAL_CHARGES>  (1) 
32
1 -0.53
10 0.09
11 -0.18
12 -0.15
13 0.08
14 0.08
15 -0.15
16 -0.15
17 0.08
18 -0.15
19 -0.15
2 -0.53
20 0.63
21 0.15
22 0.15
23 0.15
24 0.15
25 0.15
26 0.15
27 0.15
28 0.15
29 0.45
3 -0.53
30 0.45
31 0.45
32 0.5
4 -0.65
5 -0.57
6 0.03
7 0.03
8 -0.15
9 -0.18

>  <PUBCHEM_EFFECTIVE_ROTOR_COUNT>  (1) 
3

>  <PUBCHEM_PHARMACOPHORE_FEATURES>  (1) 
8
1 1 donor
1 2 donor
1 3 donor
1 4 acceptor
1 5 acceptor
3 4 5 20 anion
6 6 8 10 12 14 16 rings
6 7 13 15 17 18 19 rings

>  <PUBCHEM_HEAVY_ATOM_COUNT>  (1) 
20

>  <PUBCHEM_ATOM_DEF_STEREO_COUNT>  (1) 
0

>  <PUBCHEM_ATOM_UDEF_STEREO_COUNT>  (1) 
0

>  <PUBCHEM_BOND_DEF_STEREO_COUNT>  (1) 
0

>  <PUBCHEM_BOND_UDEF_STEREO_COUNT>  (1) 
1

>  <PUBCHEM_ISOTOPIC_ATOM_COUNT>  (1) 
0

>  <PUBCHEM_COMPONENT_COUNT>  (1) 
1

>  <PUBCHEM_CACTVS_TAUTO_COUNT>  (1) 
47

>  <PUBCHEM_CONFORMER_ID>  (1) 
0000054300000002

>  <PUBCHEM_MMFF94_ENERGY>  (1) 
63.246

>  <PUBCHEM_FEATURE_SELFOVERLAP>  (1) 
40.654

>  <PUBCHEM_SHAPE_FINGERPRINT>  (1) 
10 15 18261673769806111400
11045977 3 18410015437861612454
11287383 113 18411983576296236027
11405975 8 18408886209080698642
11595378 159 17095792240064923421
12236239 1 16200152079806714519
12403259 118 18264477554922748032
12403259 415 18411142424104770918
12507560 40 18411420613631979735
12616971 3 16988843856337556247
13583140 156 18130222769786428631
13631057 29 17201341104883639391
13675066 3 18409733979837748887
13760787 5 17060340703766672214
14341114 176 18410018740443374401
15042514 8 18042700567033788787
15196674 1 18413389843083488647
15375358 24 18411138030575052359
15788980 27 18201719548163732991
15961568 22 17822859796269607932
16079462 125 18340476803314029017
17844677 252 18411708672804370773
19433438 28 18334299755805581571
19489759 90 17967531272946077913
200 152 17203326668037186707
20645477 56 18260833653371514933
20645477 70 17775008946837766318
21033648 29 18272076206535729769
21065198 57 18408887334372731431
21065199 12 18409172121038343579
21065201 7 18040157296883492083
21315763 129 18408600387607757096
21452121 103 18341325644024098050
23402539 116 18114737230793502527
23557571 272 18188219718807255511
23559900 14 18339644425920240606
239999 70 18341336630603630478
26918003 58 18341897376484376978
2916195 48 18409162221101686217
29717793 49 16486978341123823500
300161 21 17346591993574907398
3545911 37 18411423899276653773
4073 2 18187088386031008170
4214541 1 18335424539184457613
5104073 3 18335424517678129251
5283173 99 18336827481467219257
542803 24 16660651743012053047
5924683 9 18340204223789978095
633830 44 18336256907967654382
77779 3 18410577283960771055
90127 26 18409453591403322571
9995097 60 18412263926012555636

>  <PUBCHEM_SHAPE_MULTIPOLES>  (1) 
382.24
13.85
2.13
0.91
0.78
0.42
-0.03
3.74
-1.57
-0.08
0.04
0.07
-0.09
2.36

>  <PUBCHEM_SHAPE_SELFOVERLAP>  (1) 
832.483

>  <PUBCHEM_SHAPE_VOLUME>  (1) 
207.5

>  <PUBCHEM_COORDINATE_TYPE>  (1) 
2
5
10

$$$$
