13478
     RDKit          3D

 21 21  0  0  0  0  0  0  0  0999 V2000
   -1.7093   -2.5471   -0.0002 O   0  0  0  0  0  0  0  0  0  0  0  0
   -2.9323    1.6405    0.0008 O   0  0  0  0  0  0  0  0  0  0  0  0
    3.7778    0.0031    0.0007 O   0  0  0  0  0  0  0  0  0  0  0  0
    0.4721   -3.2822   -0.0031 O   0  0  0  0  0  0  0  0  0  0  0  0
   -1.4898    3.4344    0.0013 O   0  0  0  0  0  0  0  0  0  0  0  0
    3.3233    2.2597   -0.0006 O   0  0  0  0  0  0  0  0  0  0  0  0
   -1.0317   -0.0765   -0.0021 N   0  0  0  0  0  0  0  0  0  0  0  0
    1.2994   -0.6458   -0.0029 N   0  0  0  0  0  0  0  0  0  0  0  0
    0.6268    1.6575   -0.0017 N   0  0  0  0  0  0  0  0  0  0  0  0
   -0.0092   -0.9470   -0.0028 C   0  0  0  0  0  0  0  0  0  0  0  0
   -0.6383    1.2073   -0.0017 C   0  0  0  0  0  0  0  0  0  0  0  0
    1.5419    0.6749   -0.0025 C   0  0  0  0  0  0  0  0  0  0  0  0
   -2.1754   -3.9007    0.0016 C   0  0  0  0  0  0  0  0  0  0  0  0
   -4.0539    2.5302    0.0018 C   0  0  0  0  0  0  0  0  0  0  0  0
    5.1831    0.2764    0.0035 C   0  0  0  0  0  0  0  0  0  0  0  0
   -0.3528   -2.3552   -0.0025 C   0  0  0  0  0  0  0  0  0  0  0  0
   -1.6859    2.2090    0.0006 C   0  0  0  0  0  0  0  0  0  0  0  0
    2.9329    1.0817   -0.0012 C   0  0  0  0  0  0  0  0  0  0  0  0
   -3.6892   -3.9009    0.0041 C   0  0  0  0  0  0  0  0  0  0  0  0
   -5.3298    1.7154    0.0018 C   0  0  0  0  0  0  0  0  0  0  0  0
    5.9404   -1.0344    0.0052 C   0  0  0  0  0  0  0  0  0  0  0  0
  1 13  1  0
  1 16  1  0
  2 14  1  0
  2 17  1  0
  3 15  1  0
  3 18  1  0
  4 16  2  0
  5 17  2  0
  6 18  2  0
  7 10  2  0
  7 11  1  0
  8 10  1  0
  8 12  2  0
  9 11  2  0
  9 12  1  0
 10 16  1  0
 11 17  1  0
 12 18  1  0
 13 19  1  0
 14 20  1  0
 15 21  1  0
M  END
>  <PUBCHEM_COMPOUND_CID>  (1) 
13478

>  <PUBCHEM_CONFORMER_RMSD>  (1) 
0.8

>  <PUBCHEM_CONFORMER_DIVERSEORDER>  (1) 
1
11
10
8
2
5
7
9
6
4
3

>  <PUBCHEM_MMFF94_PARTIAL_CHARGES>  (1) 
18
1 -0.43
10 0.71
11 0.71
12 0.71
13 0.28
14 0.28
15 0.28
16 0.63
17 0.63
18 0.63
2 -0.43
3 -0.43
4 -0.57
5 -0.57
6 -0.57
7 -0.62
8 -0.62
9 -0.62

>  <PUBCHEM_EFFECTIVE_ROTOR_COUNT>  (1) 
9

>  <PUBCHEM_PHARMACOPHORE_FEATURES>  (1) 
7
1 4 acceptor
1 5 acceptor
1 6 acceptor
3 7 8 10 cation
3 7 9 11 cation
3 8 9 12 cation
6 7 8 9 10 11 12 rings

>  <PUBCHEM_HEAVY_ATOM_COUNT>  (1) 
21

>  <PUBCHEM_ATOM_DEF_STEREO_COUNT>  (1) 
0

>  <PUBCHEM_ATOM_UDEF_STEREO_COUNT>  (1) 
0

>  <PUBCHEM_BOND_DEF_STEREO_COUNT>  (1) 
0

>  <PUBCHEM_BOND_UDEF_STEREO_COUNT>  (1) 
0

>  <PUBCHEM_ISOTOPIC_ATOM_COUNT>  (1) 
0

>  <PUBCHEM_COMPONENT_COUNT>  (1) 
1

>  <PUBCHEM_CACTVS_TAUTO_COUNT>  (1) 
1

>  <PUBCHEM_CONFORMER_ID>  (1) 
000034A600000001

>  <PUBCHEM_MMFF94_ENERGY>  (1) 
37.1783

>  <PUBCHEM_FEATURE_SELFOVERLAP>  (1) 
38.293

>  <PUBCHEM_SHAPE_FINGERPRINT>  (1) 
10050765 1 18338517564637088308
10411042 1 18050287269203902147
1100329 8 18411418423025117984
12293681 25 17702125624057395222
12553582 1 17691681603829131486
12592029 89 18193276295664019904
12788726 201 17974000945166031626
13004483 165 18124307474638924194
13052359 8 18409730664297043531
13140716 1 18340764944159189000
138480 1 17041760890335438791
14178342 30 18264466504467443338
14790565 3 18050853217460772808
14866123 147 18410009935708274443
14931854 50 18195496347881580103
15042514 8 18410294739315592675
15927050 60 18339642213717164871
19427546 20 18263092179093605492
19591789 44 17978230457034079862
20645477 70 17974000645025274685
21236236 1 18341331175583460943
21307412 95 17913794747015964998
21478907 32 18266458883149540714
21524375 3 18115875109353811616
21781051 124 18044124313240196275
23402539 116 18343012268437753308
23419403 2 17202195429290732753
23558518 356 18189336943186199248
23559900 14 18412258416730376016
25147074 1 17968375771197089788
3091708 16 9200562118512741256
335352 9 18338798919195985332
352729 6 18411986857762195236
474229 33 18337111168346611169
5104073 3 18342166813669837152
532947 4 17908990907272388422
54173680 148 18338516459848856672
5486654 2 18411421670405431245
58779409 8 18409173185957780581
59755656 215 18339926987502136742
59755656 520 18335135354277357199
6138700 20 17979640027247503142
7164475 11 18192713569143914740
7364860 26 17834395618500541673
81228 2 18044932626206765720

>  <PUBCHEM_SHAPE_MULTIPOLES>  (1) 
382.01
9.74
5.1
0.58
8.21
4.56
0
-2.21
-0.02
-7.37
0
-0.01
0.01
0

>  <PUBCHEM_SHAPE_SELFOVERLAP>  (1) 
778.307

>  <PUBCHEM_SHAPE_VOLUME>  (1) 
217.3

>  <PUBCHEM_COORDINATE_TYPE>  (1) 
2
5
10

$$$$
