13489
     RDKit          3D

 16 17  0  0  0  0  0  0  0  0999 V2000
   -0.6122   -1.5848    0.0583 O   0  0  0  0  0  0  0  0  0  0  0  0
    4.8394    0.1750   -0.1969 N   0  0  0  0  0  0  0  0  0  0  0  0
    0.7530   -1.7430    0.2636 N   0  0  0  0  0  0  0  0  0  0  0  0
    2.6376   -0.3051    0.8035 C   0  0  0  0  0  0  0  0  0  0  0  0
    3.4163   -0.0100   -0.4790 C   0  0  0  0  0  0  0  0  0  0  0  0
    1.1716   -0.5203    0.5236 C   0  0  0  0  0  0  0  0  0  0  0  0
    0.1841    0.4487    0.5075 C   0  0  0  0  0  0  0  0  0  0  0  0
   -0.9389   -0.2754    0.2062 C   0  0  0  0  0  0  0  0  0  0  0  0
    5.0400    1.3216    0.6885 C   0  0  0  0  0  0  0  0  0  0  0  0
    5.5882    0.3524   -1.4404 C   0  0  0  0  0  0  0  0  0  0  0  0
   -2.3251    0.0439    0.0226 C   0  0  0  0  0  0  0  0  0  0  0  0
   -2.7676    1.3648    0.1532 C   0  0  0  0  0  0  0  0  0  0  0  0
   -3.2467   -0.9619   -0.2878 C   0  0  0  0  0  0  0  0  0  0  0  0
   -4.1157    1.6760   -0.0242 C   0  0  0  0  0  0  0  0  0  0  0  0
   -4.5948   -0.6505   -0.4653 C   0  0  0  0  0  0  0  0  0  0  0  0
   -5.0291    0.6685   -0.3335 C   0  0  0  0  0  0  0  0  0  0  0  0
  1  3  1  0
  1  8  1  0
  2  5  1  0
  2  9  1  0
  2 10  1  0
  3  6  2  0
  4  5  1  0
  4  6  1  0
  6  7  1  0
  7  8  2  0
  8 11  1  0
 11 12  2  0
 11 13  1  0
 12 14  1  0
 13 15  2  0
 14 16  2  0
 15 16  1  0
M  END
>  <PUBCHEM_COMPOUND_CID>  (1) 
13489

>  <PUBCHEM_CONFORMER_RMSD>  (1) 
0.6

>  <PUBCHEM_CONFORMER_DIVERSEORDER>  (1) 
1
25
16
6
12
5
15
3
20
14
24
23
19
11
9
22
10
18
21
7
8
2
13
17
4

>  <PUBCHEM_MMFF94_PARTIAL_CHARGES>  (1) 
22
1 -0.02
10 0.27
11 0.05
12 -0.15
13 -0.15
14 -0.15
15 -0.15
16 -0.15
2 -0.81
21 0.15
28 0.15
29 0.15
3 -0.41
30 0.15
31 0.15
32 0.15
4 0.18
5 0.27
6 0.11
7 -0.15
8 0.09
9 0.27

>  <PUBCHEM_EFFECTIVE_ROTOR_COUNT>  (1) 
4

>  <PUBCHEM_PHARMACOPHORE_FEATURES>  (1) 
4
1 2 cation
1 3 acceptor
5 1 3 6 7 8 rings
6 11 12 13 14 15 16 rings

>  <PUBCHEM_HEAVY_ATOM_COUNT>  (1) 
16

>  <PUBCHEM_ATOM_DEF_STEREO_COUNT>  (1) 
0

>  <PUBCHEM_ATOM_UDEF_STEREO_COUNT>  (1) 
0

>  <PUBCHEM_BOND_DEF_STEREO_COUNT>  (1) 
0

>  <PUBCHEM_BOND_UDEF_STEREO_COUNT>  (1) 
0

>  <PUBCHEM_ISOTOPIC_ATOM_COUNT>  (1) 
0

>  <PUBCHEM_COMPONENT_COUNT>  (1) 
1

>  <PUBCHEM_CACTVS_TAUTO_COUNT>  (1) 
1

>  <PUBCHEM_CONFORMER_ID>  (1) 
000034B100000001

>  <PUBCHEM_MMFF94_ENERGY>  (1) 
30.5621

>  <PUBCHEM_FEATURE_SELFOVERLAP>  (1) 
20.297

>  <PUBCHEM_SHAPE_FINGERPRINT>  (1) 
100836 57 18186526496812851492
10498660 4 18339074895781659105
10670039 82 18187655648453471732
10912923 1 17822003203221488667
11287383 113 17632574985292281912
114248 4 17561082522935110600
12236239 1 17894909628815489786
12390115 104 18058458612710628913
124424 183 10231752293241998523
12507557 5 16588032337392856709
12596602 18 14345798249031332436
12670543 26 18130232566801899478
12916748 109 18411702101467257440
13288520 33 10303814289267944481
13533116 47 14345781726782528040
13631057 29 17096656594155058139
13897977 58 18408040698119887525
14251718 22 18202280333453494021
14251764 18 18113893859053349026
14528608 73 18410009953267288956
14573314 32 18059860541063570988
14911166 2 18202565090006771498
15048467 5 18187081728889591469
15183329 4 18339654335116375734
17834072 33 18342453738079058062
18186145 218 17346590889610258603
18222031 100 11743844677273025746
18785283 64 12036600694756336558
19784866 140 16487260941186936026
200 152 14692576507181292506
20300324 65 18272368681160789001
204376 136 16587744239360239514
20645477 56 18409169917392735274
20645477 70 16773807987291854094
21267235 1 18342739672181569751
212847 35 18186801379589834144
2297311 6 17989210356606570477
23253445 4 12829494765994184006
23366157 5 17972035834050952930
23402539 116 18341608230774904828
23402655 69 18342732971436235557
23557571 272 18131077021401423397
23559900 14 18131913772021166640
23590187 198 10664102259368114717
26918003 58 11602820198617481351
2767999 5 18040149630535667380
2916195 48 18271516602651988864
293599 30 18410293601101714929
3004659 81 18339364064089178390
34797466 226 17703512189692685580
351380 3 12247682660502208628
3545911 37 18409450271757476081
441001 317 18411981360304296265
474 4 17530971293117506292
49783359 22 11602823505784796225
4990 188 17918276441697688470
5104073 3 18262518091962815067
542803 24 17749389264889859676

>  <PUBCHEM_SHAPE_MULTIPOLES>  (1) 
313.44
12.61
1.46
0.9
8.32
0.04
-0.15
4.26
-3.36
-0.82
0.11
1
0.06
-0.04

>  <PUBCHEM_SHAPE_SELFOVERLAP>  (1) 
658.109

>  <PUBCHEM_SHAPE_VOLUME>  (1) 
179.7

>  <PUBCHEM_COORDINATE_TYPE>  (1) 
2
5
10

$$$$
