13492
     RDKit          3D

 29 31  0  0  0  0  0  0  0  0999 V2000
    4.4834    0.6946    0.8906 O   0  0  0  0  0  0  0  0  0  0  0  0
    3.2780    1.1360   -1.5709 O   0  0  0  0  0  0  0  0  0  0  0  0
   -2.5894    2.2103   -0.4803 O   0  0  0  0  0  0  0  0  0  0  0  0
   -4.9336    0.9975    0.3914 O   0  0  0  0  0  0  0  0  0  0  0  0
   -0.0487   -3.7111   -0.1299 N   0  0  0  0  0  0  0  0  0  0  0  0
    1.9438   -1.9377    0.8895 C   0  0  0  0  0  0  0  0  0  0  0  0
    1.3265   -1.6979   -0.3447 C   0  0  0  0  0  0  0  0  0  0  0  0
    1.4113   -3.0370    1.7598 C   0  0  0  0  0  0  0  0  0  0  0  0
    0.1842   -2.5769   -0.7035 C   0  0  0  0  0  0  0  0  0  0  0  0
    0.9070   -4.1746    0.8817 C   0  0  0  0  0  0  0  0  0  0  0  0
   -0.7652   -2.1289   -1.7884 C   0  0  0  0  0  0  0  0  0  0  0  0
    2.9983   -1.1194    1.3040 C   0  0  0  0  0  0  0  0  0  0  0  0
    1.7738   -0.6656   -1.1716 C   0  0  0  0  0  0  0  0  0  0  0  0
   -1.8673   -1.2978   -1.2113 C   0  0  0  0  0  0  0  0  0  0  0  0
    3.4467   -0.0879    0.4789 C   0  0  0  0  0  0  0  0  0  0  0  0
    2.8379    0.1359   -0.7562 C   0  0  0  0  0  0  0  0  0  0  0  0
   -1.7186    0.0855   -1.1108 C   0  0  0  0  0  0  0  0  0  0  0  0
   -3.0436   -1.9063   -0.7737 C   0  0  0  0  0  0  0  0  0  0  0  0
   -2.7463    0.8603   -0.5730 C   0  0  0  0  0  0  0  0  0  0  0  0
   -3.9227    0.2517   -0.1355 C   0  0  0  0  0  0  0  0  0  0  0  0
   -4.0712   -1.1315   -0.2358 C   0  0  0  0  0  0  0  0  0  0  0  0
    4.3031    1.4238    2.1029 C   0  0  0  0  0  0  0  0  0  0  0  0
    2.3378    2.1510   -1.9162 C   0  0  0  0  0  0  0  0  0  0  0  0
    5.1231    2.6948    2.0404 C   0  0  0  0  0  0  0  0  0  0  0  0
    3.0758    3.4559   -2.1264 C   0  0  0  0  0  0  0  0  0  0  0  0
   -1.2608    2.6976   -0.3017 C   0  0  0  0  0  0  0  0  0  0  0  0
   -5.3236    0.7057    1.7320 C   0  0  0  0  0  0  0  0  0  0  0  0
   -1.3123    3.9974    0.4726 C   0  0  0  0  0  0  0  0  0  0  0  0
   -5.8273    1.9744    2.3862 C   0  0  0  0  0  0  0  0  0  0  0  0
  1 15  1  0
  1 22  1  0
  2 16  1  0
  2 23  1  0
  3 19  1  0
  3 26  1  0
  4 20  1  0
  4 27  1  0
  5  9  2  0
  5 10  1  0
  6  7  2  0
  6  8  1  0
  6 12  1  0
  7  9  1  0
  7 13  1  0
  8 10  1  0
  9 11  1  0
 11 14  1  0
 12 15  2  0
 13 16  2  0
 14 17  2  0
 14 18  1  0
 15 16  1  0
 17 19  1  0
 18 21  2  0
 19 20  2  0
 20 21  1  0
 22 24  1  0
 23 25  1  0
 26 28  1  0
 27 29  1  0
M  END
>  <PUBCHEM_COMPOUND_CID>  (1) 
13492

>  <PUBCHEM_CONFORMER_RMSD>  (1) 
1

>  <PUBCHEM_CONFORMER_DIVERSEORDER>  (1) 
2
15
19
8
14
1
3
7
20
11
9
10
5
18
4
17
13
6
12
16

>  <PUBCHEM_MMFF94_PARTIAL_CHARGES>  (1) 
30
1 -0.36
10 0.25
11 0.2
12 -0.15
13 -0.15
14 -0.14
15 0.08
16 0.08
17 -0.15
18 -0.15
19 0.08
2 -0.36
20 0.08
21 -0.15
22 0.28
23 0.28
26 0.28
27 0.28
3 -0.36
36 0.15
37 0.15
38 0.15
39 0.15
4 -0.36
40 0.15
5 -0.7
6 -0.14
7 0.09
8 0.14
9 0.3

>  <PUBCHEM_EFFECTIVE_ROTOR_COUNT>  (1) 
10.4

>  <PUBCHEM_PHARMACOPHORE_FEATURES>  (1) 
8
1 1 acceptor
1 2 acceptor
1 3 acceptor
1 4 acceptor
1 5 acceptor
6 14 17 18 19 20 21 rings
6 5 6 7 8 9 10 rings
6 6 7 12 13 15 16 rings

>  <PUBCHEM_HEAVY_ATOM_COUNT>  (1) 
29

>  <PUBCHEM_ATOM_DEF_STEREO_COUNT>  (1) 
0

>  <PUBCHEM_ATOM_UDEF_STEREO_COUNT>  (1) 
0

>  <PUBCHEM_BOND_DEF_STEREO_COUNT>  (1) 
0

>  <PUBCHEM_BOND_UDEF_STEREO_COUNT>  (1) 
0

>  <PUBCHEM_ISOTOPIC_ATOM_COUNT>  (1) 
0

>  <PUBCHEM_COMPONENT_COUNT>  (1) 
1

>  <PUBCHEM_CACTVS_TAUTO_COUNT>  (1) 
1

>  <PUBCHEM_CONFORMER_ID>  (1) 
000034B400000002

>  <PUBCHEM_MMFF94_ENERGY>  (1) 
100.6249

>  <PUBCHEM_FEATURE_SELFOVERLAP>  (1) 
40.633

>  <PUBCHEM_SHAPE_FINGERPRINT>  (1) 
1100329 8 17903059372299208086
12633257 1 17095519625563325762
12788726 201 17614847743764698158
13140716 1 18410293657316189069
13583140 156 17604429566691492583
13965767 371 18341328881733185047
14004853 49 18409454712380309233
14341114 328 18260556653455509423
14765038 42 18201723997813688312
14790565 3 18265916807154078701
15297060 5 18126878046941091492
20715895 44 17758101611184163917
20739085 24 17969204674015161138
20764821 26 17686892135109470952
21421861 104 18118422669458427117
23559900 14 18045797684729669007
2838139 119 17058350721645320768
392239 28 18340468041860411472
469060 322 18114169887172855709
5081480 168 16339489700839463127
57307002 182 17968656146023706681
6287921 2 18337107852505225774
7064713 232 18342740740731712237
7097593 13 17899129421584199447
7808743 9 17846487175583731987

>  <PUBCHEM_SHAPE_MULTIPOLES>  (1) 
568.35
10.23
5.05
2.21
6.41
0.33
0.48
-8.35
6.6
-1.68
0.48
-0.98
-1.13
-2.04

>  <PUBCHEM_SHAPE_SELFOVERLAP>  (1) 
1193.531

>  <PUBCHEM_SHAPE_VOLUME>  (1) 
321.6

>  <PUBCHEM_COORDINATE_TYPE>  (1) 
2
5
10

$$$$
