13497
     RDKit          3D

 24 26  0  0  1  0  0  0  0  0999 V2000
   -0.2164    1.0321   -2.3996 O   0  0  0  0  0  0  0  0  0  0  0  0
    2.6074    0.4131    1.3257 N   0  0  0  0  0  0  0  0  0  0  0  0
   -0.6442    2.7086   -0.8915 N   0  0  0  0  0  0  0  0  0  0  0  0
    0.3157    0.8969    1.1974 C   0  0  0  0  0  0  0  0  0  0  0  0
   -0.2892    0.2846   -0.0643 C   0  0  0  0  0  0  0  0  0  0  0  0
    0.5524   -0.1696    2.2761 C   0  0  0  0  0  0  0  0  0  0  0  0
    1.7002    1.4964    0.9429 C   0  0  0  0  0  0  0  0  0  0  0  0
    2.0474   -0.1246    2.5648 C   0  0  0  0  0  0  0  0  0  0  0  0
    0.7153   -0.8232   -0.5753 C   0  0  0  0  0  0  0  0  0  0  0  0
   -1.6996   -0.3395    0.1792 C   0  0  0  0  0  0  0  0  0  0  0  0
   -0.3862    1.3728   -1.2191 C   0  0  0  0  0  0  0  0  0  0  0  0
    3.9797    0.8694    1.4892 C   0  0  0  0  0  0  0  0  0  0  0  0
    0.4929   -2.0884   -0.1515 C   0  0  0  0  0  0  0  0  0  0  0  0
   -2.3234   -0.9148   -0.8852 C   0  0  0  0  0  0  0  0  0  0  0  0
    1.7111   -0.4116   -1.3932 C   0  0  0  0  0  0  0  0  0  0  0  0
   -2.2093   -0.2663    1.4395 C   0  0  0  0  0  0  0  0  0  0  0  0
    1.3794   -3.0664   -0.6026 C   0  0  0  0  0  0  0  0  0  0  0  0
   -3.5832   -1.4726   -0.6677 C   0  0  0  0  0  0  0  0  0  0  0  0
    2.5973   -1.3897   -1.8443 C   0  0  0  0  0  0  0  0  0  0  0  0
   -3.4691   -0.8242    1.6568 C   0  0  0  0  0  0  0  0  0  0  0  0
   -0.0898    3.7585   -1.7414 C   0  0  0  0  0  0  0  0  0  0  0  0
   -1.4638    3.2028    0.2101 C   0  0  0  0  0  0  0  0  0  0  0  0
    2.4314   -2.7171   -1.4490 C   0  0  0  0  0  0  0  0  0  0  0  0
   -4.1560   -1.4274    0.6032 C   0  0  0  0  0  0  0  0  0  0  0  0
  1 11  2  0
  2  7  1  0
  2  8  1  0
  2 12  1  0
  3 11  1  0
  3 21  1  0
  3 22  1  0
  4  5  1  0
  4  6  1  0
  4  7  1  0
  5  9  1  0
  5 10  1  0
  5 11  1  0
  6  8  1  0
  9 13  2  0
  9 15  1  0
 10 14  2  0
 10 16  1  0
 13 17  1  0
 14 18  1  0
 15 19  2  0
 16 20  2  0
 17 23  2  0
 18 24  2  0
 19 23  1  0
 20 24  1  0
M  END
>  <PUBCHEM_COMPOUND_CID>  (1) 
13497

>  <PUBCHEM_CONFORMER_RMSD>  (1) 
0.8

>  <PUBCHEM_CONFORMER_DIVERSEORDER>  (1) 
1
14
12
4
2
15
5
11
9
3
6
13
10
7
8

>  <PUBCHEM_MMFF94_PARTIAL_CHARGES>  (1) 
32
1 -0.57
10 -0.14
11 0.57
12 0.27
13 -0.15
14 -0.15
15 -0.15
16 -0.15
17 -0.15
18 -0.15
19 -0.15
2 -0.81
20 -0.15
21 0.3
22 0.3
23 -0.15
24 -0.15
3 -0.66
35 0.15
36 0.15
37 0.15
38 0.15
39 0.15
40 0.15
41 0.15
42 0.15
49 0.15
5 0.35
50 0.15
7 0.27
8 0.27
9 -0.14

>  <PUBCHEM_EFFECTIVE_ROTOR_COUNT>  (1) 
6

>  <PUBCHEM_PHARMACOPHORE_FEATURES>  (1) 
5
1 1 acceptor
1 2 cation
5 2 4 6 7 8 rings
6 10 14 16 18 20 24 rings
6 9 13 15 17 19 23 rings

>  <PUBCHEM_HEAVY_ATOM_COUNT>  (1) 
24

>  <PUBCHEM_ATOM_DEF_STEREO_COUNT>  (1) 
0

>  <PUBCHEM_ATOM_UDEF_STEREO_COUNT>  (1) 
1

>  <PUBCHEM_BOND_DEF_STEREO_COUNT>  (1) 
0

>  <PUBCHEM_BOND_UDEF_STEREO_COUNT>  (1) 
0

>  <PUBCHEM_ISOTOPIC_ATOM_COUNT>  (1) 
0

>  <PUBCHEM_COMPONENT_COUNT>  (1) 
1

>  <PUBCHEM_CACTVS_TAUTO_COUNT>  (1) 
1

>  <PUBCHEM_CONFORMER_ID>  (1) 
000034B900000001

>  <PUBCHEM_MMFF94_ENERGY>  (1) 
125.0649

>  <PUBCHEM_FEATURE_SELFOVERLAP>  (1) 
25.373

>  <PUBCHEM_SHAPE_FINGERPRINT>  (1) 
10863032 1 17979940219058180284
10948715 1 15697436783664448186
11578080 2 18128545872604255176
12714826 92 17909851850098173238
13134695 92 17751899549137214125
13149001 5 17551781530616199700
13681431 1 18188500201884306581
13911987 19 17248982921913120798
14178342 30 18056765544949958251
14181834 199 17826792843766189037
14713325 29 18267011770522037104
14787075 74 17845670208854277142
14817 1 11105651916967394280
14863182 85 17628920316048068031
14955137 171 18049173446654658841
15209289 33 17130696370138308826
15238133 3 17386002824559061917
15664445 248 18260557739755226693
16945 1 16700610327817018595
17980427 26 16270779295306072088
1813 80 18335148617278765801
18981168 100 18057029212627834224
20600515 1 17531241781530950533
20691752 17 18410862061635866523
21330990 113 18201158849189782728
22112679 90 17096658594992294317
229495 10 17632283541432915029
23419403 2 17844242922127396778
23557571 272 18115017515816170411
25222932 49 15660572607012690843
2748010 2 17985533469079048938
3250762 1 18125709093933595216
68419 9 16662057898130077892
81228 2 18189617133925847733
9981440 41 16907433777971559040
9999458 23 17416684854670416745

>  <PUBCHEM_SHAPE_MULTIPOLES>  (1) 
478.08
5.12
3.47
2.39
2.53
1.77
-0.45
-2.62
-1.78
-0.45
2.18
-1.12
0.57
1.43

>  <PUBCHEM_SHAPE_SELFOVERLAP>  (1) 
1036.33

>  <PUBCHEM_SHAPE_VOLUME>  (1) 
261.4

>  <PUBCHEM_COORDINATE_TYPE>  (1) 
2
5
10

$$$$
