13499
     RDKit          3D

 19 21  0  0  0  0  0  0  0  0999 V2000
   -0.4683   -1.8708   -0.0305 O   0  0  0  0  0  0  0  0  0  0  0  0
    3.7164   -0.2402   -0.1741 N   0  0  0  0  0  0  0  0  0  0  0  0
   -1.8315   -1.7251   -0.2575 N   0  0  0  0  0  0  0  0  0  0  0  0
    4.0196    0.7136    0.9022 C   0  0  0  0  0  0  0  0  0  0  0  0
    4.4919    0.0617   -1.3854 C   0  0  0  0  0  0  0  0  0  0  0  0
    5.5068    0.6893    1.2584 C   0  0  0  0  0  0  0  0  0  0  0  0
    5.9946    0.0164   -1.1041 C   0  0  0  0  0  0  0  0  0  0  0  0
    6.3745    0.9569    0.0340 C   0  0  0  0  0  0  0  0  0  0  0  0
    2.2840   -0.2392   -0.4703 C   0  0  0  0  0  0  0  0  0  0  0  0
    1.4708   -0.6817    0.7478 C   0  0  0  0  0  0  0  0  0  0  0  0
   -0.0067   -0.7054    0.4434 C   0  0  0  0  0  0  0  0  0  0  0  0
   -0.9709    0.2219    0.5520 C   0  0  0  0  0  0  0  0  0  0  0  0
   -2.1086   -0.4672    0.0977 C   0  0  0  0  0  0  0  0  0  0  0  0
   -3.4482    0.0470   -0.0038 C   0  0  0  0  0  0  0  0  0  0  0  0
   -3.6556    1.4032   -0.2489 C   0  0  0  0  0  0  0  0  0  0  0  0
   -4.5357   -0.8122    0.1431 C   0  0  0  0  0  0  0  0  0  0  0  0
   -4.9545    1.9019   -0.3475 C   0  0  0  0  0  0  0  0  0  0  0  0
   -5.8346   -0.3137    0.0444 C   0  0  0  0  0  0  0  0  0  0  0  0
   -6.0440    1.0435   -0.2008 C   0  0  0  0  0  0  0  0  0  0  0  0
  1  3  1  0
  1 11  1  0
  2  4  1  0
  2  5  1  0
  2  9  1  0
  3 13  2  0
  4  6  1  0
  5  7  1  0
  6  8  1  0
  7  8  1  0
  9 10  1  0
 10 11  1  0
 11 12  2  0
 12 13  1  0
 13 14  1  0
 14 15  2  0
 14 16  1  0
 15 17  1  0
 16 18  2  0
 17 19  2  0
 18 19  1  0
M  END
>  <PUBCHEM_COMPOUND_CID>  (1) 
13499

>  <PUBCHEM_CONFORMER_RMSD>  (1) 
0.8

>  <PUBCHEM_CONFORMER_DIVERSEORDER>  (1) 
1
20
18
22
17
10
21
16
4
3
13
2
19
9
8
5
12
15
6
14
7
11

>  <PUBCHEM_MMFF94_PARTIAL_CHARGES>  (1) 
22
1 -0.02
10 0.18
11 -0.04
12 -0.15
13 0.23
14 0.05
15 -0.15
16 -0.15
17 -0.15
18 -0.15
19 -0.15
2 -0.81
3 -0.41
34 0.15
35 0.15
36 0.15
37 0.15
38 0.15
39 0.15
4 0.27
5 0.27
9 0.27

>  <PUBCHEM_EFFECTIVE_ROTOR_COUNT>  (1) 
5.2

>  <PUBCHEM_PHARMACOPHORE_FEATURES>  (1) 
5
1 2 cation
1 3 acceptor
5 1 3 11 12 13 rings
6 14 15 16 17 18 19 rings
6 2 4 5 6 7 8 rings

>  <PUBCHEM_HEAVY_ATOM_COUNT>  (1) 
19

>  <PUBCHEM_ATOM_DEF_STEREO_COUNT>  (1) 
0

>  <PUBCHEM_ATOM_UDEF_STEREO_COUNT>  (1) 
0

>  <PUBCHEM_BOND_DEF_STEREO_COUNT>  (1) 
0

>  <PUBCHEM_BOND_UDEF_STEREO_COUNT>  (1) 
0

>  <PUBCHEM_ISOTOPIC_ATOM_COUNT>  (1) 
0

>  <PUBCHEM_COMPONENT_COUNT>  (1) 
1

>  <PUBCHEM_CACTVS_TAUTO_COUNT>  (1) 
1

>  <PUBCHEM_CONFORMER_ID>  (1) 
000034BB00000001

>  <PUBCHEM_MMFF94_ENERGY>  (1) 
25.841

>  <PUBCHEM_FEATURE_SELFOVERLAP>  (1) 
25.373

>  <PUBCHEM_SHAPE_FINGERPRINT>  (1) 
10354089 29 16153428355307893996
10411042 1 17832426772019423931
106641 1 14635163343047628729
10670039 82 18340209579260690384
10688039 33 14129053708275958158
10730089 173 18408605846484797181
10912923 1 16950281844921554002
11128504 68 15697995245202880744
11646440 116 18342748424475905185
12236239 1 17821444664510716458
12390115 104 18271532979589167697
12516196 113 7853852784663893542
12596602 18 15502381131516425609
12670543 26 17703794682412712240
12730499 353 18131356301903254742
12916748 109 18412547604270630920
13167372 99 17313381193429433660
13288520 33 10375868580955991723
13533116 47 18272370816008026638
13631057 29 17386573600032925611
13668630 136 14117801323214638860
13685833 64 9799683814360563269
14251752 14 18412545379920754574
14251764 18 17022625298833927652
14341114 176 13334737929731806430
15048467 5 18187082837006783061
15183329 4 17703795786425191762
15348495 7 12540992814285636485
15716309 27 11458425743125467848
16079462 125 17917702535488501720
17834072 8 18131915957595258072
17857418 61 12103846748052513196
18006028 8 8070026658137259331
19489759 90 18259985981113706905
200 152 15123797275203208546
20281389 69 18186516596871289420
20374829 77 10735875071430939143
20645477 56 18412261752843662195
20645477 70 16773807969996089806
21150785 3 17489860558187960469
22061861 79 17060344006907779060
221357 26 17132113528799308520
2215653 11 17489871544482246664
22224240 67 14562532898845426297
23016692 55 11024108754828690792
23035841 295 10952053355292405757
23198884 109 16415480450355108345
23402539 116 18342451560425040271
23559900 14 17418087763035830570
2767999 5 18113897156406843724
2916195 48 18341607139779533952
293599 30 18411699872474189267
29717793 49 14692579818922941472
300161 21 18343579651340476302
3004659 81 11671777187282340130
312425 54 13045944573351522733
3472631 163 18335143141702028292
34797466 226 17917715733437893692
3545911 37 18343586248178023946
465052 167 8574710221932427280
5104073 3 18188211975503551547
5283173 99 17989210296129285032
542803 24 17530965791480567466
54446538 1 18041000660867044373
59682541 35 18114190765636707497
59682541 52 17489315131632509470
59755656 215 18341337700113771470
59755656 520 17749104512932867098
7062679 6 18187086135051283485

>  <PUBCHEM_SHAPE_MULTIPOLES>  (1) 
375.18
17.61
1.45
0.99
6.96
0.04
-0.04
6.71
-1.68
-1.6
-0.05
1.55
0.08
0.63

>  <PUBCHEM_SHAPE_SELFOVERLAP>  (1) 
795.129

>  <PUBCHEM_SHAPE_VOLUME>  (1) 
211.3

>  <PUBCHEM_COORDINATE_TYPE>  (1) 
2
5
10

$$$$
