13505
     RDKit          3D

 34 37  0  0  0  0  0  0  0  0999 V2000
    5.1064    1.6417    0.9234 O   0  0  0  0  0  0  0  0  0  0  0  0
    4.8454    2.4900   -1.2093 O   0  0  0  0  0  0  0  0  0  0  0  0
    0.4891    0.5672   -0.9424 N   0  0  0  0  0  0  0  0  0  0  0  0
   -3.8944   -0.0848   -3.1695 N   0  0  0  0  0  0  0  0  0  0  0  0
    3.4247    0.6946   -0.4206 C   0  0  0  0  0  0  0  0  0  0  0  0
    2.7769    0.8425   -1.8233 C   0  0  0  0  0  0  0  0  0  0  0  0
    2.3428    1.1153    0.6102 C   0  0  0  0  0  0  0  0  0  0  0  0
    1.4505    0.0860   -1.9403 C   0  0  0  0  0  0  0  0  0  0  0  0
    1.0045    0.3892    0.4196 C   0  0  0  0  0  0  0  0  0  0  0  0
   -0.7974   -0.1106   -1.0983 C   0  0  0  0  0  0  0  0  0  0  0  0
    4.0550   -0.6899   -0.2090 C   0  0  0  0  0  0  0  0  0  0  0  0
    4.5329    1.7204   -0.3110 C   0  0  0  0  0  0  0  0  0  0  0  0
   -1.9185    0.7398   -0.4739 C   0  0  0  0  0  0  0  0  0  0  0  0
   -3.3638    0.1239   -0.5753 C   0  0  0  0  0  0  0  0  0  0  0  0
    3.6262   -1.4981    0.8440 C   0  0  0  0  0  0  0  0  0  0  0  0
    5.0567   -1.1389   -1.0697 C   0  0  0  0  0  0  0  0  0  0  0  0
   -3.3728   -1.2296    0.1764 C   0  0  0  0  0  0  0  0  0  0  0  0
   -4.4623    1.0467    0.0167 C   0  0  0  0  0  0  0  0  0  0  0  0
    4.1991   -2.7553    1.0360 C   0  0  0  0  0  0  0  0  0  0  0  0
    5.6294   -2.3962   -0.8776 C   0  0  0  0  0  0  0  0  0  0  0  0
   -3.6627   -0.0025   -2.0348 C   0  0  0  0  0  0  0  0  0  0  0  0
    5.2007   -3.2043    0.1753 C   0  0  0  0  0  0  0  0  0  0  0  0
    6.1762    2.5613    1.1642 C   0  0  0  0  0  0  0  0  0  0  0  0
   -3.6433   -2.4100   -0.5159 C   0  0  0  0  0  0  0  0  0  0  0  0
   -4.1075    2.2456    0.6353 C   0  0  0  0  0  0  0  0  0  0  0  0
   -3.1100   -1.2688    1.5458 C   0  0  0  0  0  0  0  0  0  0  0  0
   -5.8046    0.6769   -0.0694 C   0  0  0  0  0  0  0  0  0  0  0  0
    6.7025    2.3491    2.5676 C   0  0  0  0  0  0  0  0  0  0  0  0
   -3.6512   -3.6296    0.1611 C   0  0  0  0  0  0  0  0  0  0  0  0
   -5.0951    3.0746    1.1676 C   0  0  0  0  0  0  0  0  0  0  0  0
   -3.1178   -2.4884    2.2227 C   0  0  0  0  0  0  0  0  0  0  0  0
   -6.7920    1.5060    0.4628 C   0  0  0  0  0  0  0  0  0  0  0  0
   -3.3884   -3.6687    1.5302 C   0  0  0  0  0  0  0  0  0  0  0  0
   -6.4372    2.7047    1.0813 C   0  0  0  0  0  0  0  0  0  0  0  0
  1 12  1  0
  1 23  1  0
  2 12  2  0
  3  8  1  0
  3  9  1  0
  3 10  1  0
  4 21  3  0
  5  6  1  0
  5  7  1  0
  5 11  1  0
  5 12  1  0
  6  8  1  0
  7  9  1  0
 10 13  1  0
 11 15  2  0
 11 16  1  0
 13 14  1  0
 14 17  1  0
 14 18  1  0
 14 21  1  0
 15 19  1  0
 16 20  2  0
 17 24  2  0
 17 26  1  0
 18 25  2  0
 18 27  1  0
 19 22  2  0
 20 22  1  0
 23 28  1  0
 24 29  1  0
 25 30  1  0
 26 31  2  0
 27 32  2  0
 29 33  2  0
 30 34  2  0
 31 33  1  0
 32 34  1  0
M  END
>  <PUBCHEM_COMPOUND_CID>  (1) 
13505

>  <PUBCHEM_CONFORMER_RMSD>  (1) 
1

>  <PUBCHEM_CONFORMER_DIVERSEORDER>  (1) 
1
35
61
32
50
13
20
17
78
45
79
65
90
74
88
9
58
77
71
76
57
52
21
64
66
56
82
31
89
91
5
87
42
60
80
92
73
34
62
63
29
94
49
85
37
16
41
22
23
30
12
86
43
70
40
25
53
44
48
54
15
55
81
33
28
6
27
69
36
59
7
19
10
46
26
38
47
72
67
11
84
75
18
39
83
24
2
95
3
14
68
93
4
8
51

>  <PUBCHEM_MMFF94_PARTIAL_CHARGES>  (1) 
45
1 -0.43
10 0.27
11 -0.14
12 0.66
14 0.49
15 -0.15
16 -0.15
17 -0.14
18 -0.14
19 -0.15
2 -0.57
20 -0.15
21 0.36
22 -0.15
23 0.28
24 -0.15
25 -0.15
26 -0.15
27 -0.15
29 -0.15
3 -0.81
30 -0.15
31 -0.15
32 -0.15
33 -0.15
34 -0.15
4 -0.56
47 0.15
48 0.15
49 0.15
5 0.2
50 0.15
51 0.15
54 0.15
55 0.15
56 0.15
57 0.15
61 0.15
62 0.15
63 0.15
64 0.15
65 0.15
66 0.15
8 0.27
9 0.27

>  <PUBCHEM_EFFECTIVE_ROTOR_COUNT>  (1) 
10.2

>  <PUBCHEM_PHARMACOPHORE_FEATURES>  (1) 
7
1 2 acceptor
1 3 cation
1 4 acceptor
6 11 15 16 19 20 22 rings
6 17 24 26 29 31 33 rings
6 18 25 27 30 32 34 rings
6 3 5 6 7 8 9 rings

>  <PUBCHEM_HEAVY_ATOM_COUNT>  (1) 
34

>  <PUBCHEM_ATOM_DEF_STEREO_COUNT>  (1) 
0

>  <PUBCHEM_ATOM_UDEF_STEREO_COUNT>  (1) 
0

>  <PUBCHEM_BOND_DEF_STEREO_COUNT>  (1) 
0

>  <PUBCHEM_BOND_UDEF_STEREO_COUNT>  (1) 
0

>  <PUBCHEM_ISOTOPIC_ATOM_COUNT>  (1) 
0

>  <PUBCHEM_COMPONENT_COUNT>  (1) 
1

>  <PUBCHEM_CACTVS_TAUTO_COUNT>  (1) 
1

>  <PUBCHEM_CONFORMER_ID>  (1) 
000034C100000001

>  <PUBCHEM_MMFF94_ENERGY>  (1) 
98.2856

>  <PUBCHEM_FEATURE_SELFOVERLAP>  (1) 
35.523

>  <PUBCHEM_SHAPE_FINGERPRINT>  (1) 
10692045 39 18195257615923558163
11007060 377 18186794778319799053
11093857 5 18042419078634327218
11370993 144 18408044004864787039
11405975 8 18408327670127222886
11552529 35 18264490770552948743
11796584 16 18340219513641235902
12107183 9 18265616476679711458
12373685 5 18268972310880159658
12633046 712 18408605889898577197
13073987 5 18342455971504211151
13583140 156 18129660936286978256
13782708 43 12179848320712821665
14118638 360 18340201998326564399
15361156 5 17531828916466509774
15392192 29 18196096543390997206
15537594 2 16877948204497865722
15799311 1 18041861531258646702
19301679 30 17899438625381989747
19303781 99 14635689927792303728
19958102 18 18040427811636835679
21033648 144 18334285466122360340
23559900 14 18333169458158345502
312425 54 18407759227110999138
32027 91 17970610914858861650
3552219 110 15551066592425760303
3633792 109 18114450164602647565
4073 2 18337393837503312048
5080951 261 18042951246603869695
508706 21 17458349679516511026
5104073 3 18408601470192606786
5912855 24 17897750848998869719
59755656 520 18335705988802834143
6086070 43 16486963012459566024

>  <PUBCHEM_SHAPE_MULTIPOLES>  (1) 
678
18.58
4.24
2.08
5.34
2.19
0.39
-7.88
-5.13
-0.21
-2.39
0.06
-0.11
1.29

>  <PUBCHEM_SHAPE_SELFOVERLAP>  (1) 
1454.03

>  <PUBCHEM_SHAPE_VOLUME>  (1) 
369.7

>  <PUBCHEM_COORDINATE_TYPE>  (1) 
2
5
10

$$$$
