13501
     RDKit          3D

 30 34  0  0  1  0  0  0  0  0999 V2000
    0.2381    1.0517    0.7310 O   0  0  0  0  0  0  0  0  0  0  0  0
   -1.6714    1.7573   -0.7113 O   0  0  0  0  0  0  0  0  0  0  0  0
   -4.3749    2.2662   -0.0202 O   0  0  0  0  0  0  0  0  0  0  0  0
   -5.9140    0.5472    0.6727 O   0  0  0  0  0  0  0  0  0  0  0  0
    4.3981    1.9275    0.0975 O   0  0  0  0  0  0  0  0  0  0  0  0
    1.6595    2.8651    0.5586 O   0  0  0  0  0  0  0  0  0  0  0  0
    5.8558   -0.4216   -0.2145 O   0  0  0  0  0  0  0  0  0  0  0  0
   -0.3130   -2.3469   -0.6859 N   0  0  0  0  0  0  0  0  0  0  0  0
   -0.5812   -0.9105   -0.4553 C   0  0  0  0  0  0  0  0  0  0  0  0
    0.3310   -0.3970    0.6706 C   0  0  0  0  0  0  0  0  0  0  0  0
   -2.0342   -0.5751   -0.1543 C   0  0  0  0  0  0  0  0  0  0  0  0
   -0.9874   -3.1953    0.3039 C   0  0  0  0  0  0  0  0  0  0  0  0
   -2.9416   -1.5833    0.2603 C   0  0  0  0  0  0  0  0  0  0  0  0
   -2.5077   -3.0249    0.3269 C   0  0  0  0  0  0  0  0  0  0  0  0
    1.7742   -0.6121    0.4250 C   0  0  0  0  0  0  0  0  0  0  0  0
   -2.4735    0.7564   -0.2649 C   0  0  0  0  0  0  0  0  0  0  0  0
   -0.6208   -2.7500   -2.0585 C   0  0  0  0  0  0  0  0  0  0  0  0
    2.4223    0.6057    0.3667 C   0  0  0  0  0  0  0  0  0  0  0  0
   -4.2771   -1.2582    0.5496 C   0  0  0  0  0  0  0  0  0  0  0  0
   -3.7898    1.0388    0.0349 C   0  0  0  0  0  0  0  0  0  0  0  0
   -4.6669    0.0592    0.4314 C   0  0  0  0  0  0  0  0  0  0  0  0
    1.4484    1.6687    0.5557 C   0  0  0  0  0  0  0  0  0  0  0  0
    2.4857   -1.7894    0.2744 C   0  0  0  0  0  0  0  0  0  0  0  0
    3.7840    0.7191    0.1538 C   0  0  0  0  0  0  0  0  0  0  0  0
    3.8647   -1.7091    0.0577 C   0  0  0  0  0  0  0  0  0  0  0  0
    4.5096   -0.4622   -0.0024 C   0  0  0  0  0  0  0  0  0  0  0  0
   -5.7209    1.9478    0.3879 C   0  0  0  0  0  0  0  0  0  0  0  0
   -1.6691    2.0118   -2.1158 C   0  0  0  0  0  0  0  0  0  0  0  0
    5.0787    2.2592   -1.1142 C   0  0  0  0  0  0  0  0  0  0  0  0
    6.6935   -0.4460    0.9389 C   0  0  0  0  0  0  0  0  0  0  0  0
  1 10  1  0
  1 22  1  0
  2 16  1  0
  2 28  1  0
  3 20  1  0
  3 27  1  0
  4 21  1  0
  4 27  1  0
  5 24  1  0
  5 29  1  0
  6 22  2  0
  7 26  1  0
  7 30  1  0
  8  9  1  0
  8 12  1  0
  8 17  1  0
  9 10  1  0
  9 11  1  0
 10 15  1  0
 11 13  2  0
 11 16  1  0
 12 14  1  0
 13 14  1  0
 13 19  1  0
 15 18  2  0
 15 23  1  0
 16 20  2  0
 18 22  1  0
 18 24  1  0
 19 21  2  0
 20 21  1  0
 23 25  2  0
 24 26  2  0
 25 26  1  0
M  END
>  <PUBCHEM_COMPOUND_CID>  (1) 
13501

>  <PUBCHEM_CONFORMER_RMSD>  (1) 
0.8

>  <PUBCHEM_CONFORMER_DIVERSEORDER>  (1) 
1
6
4
10
7
2
9
8
3
5

>  <PUBCHEM_MMFF94_PARTIAL_CHARGES>  (1) 
33
1 -0.43
10 0.42
11 -0.14
12 0.27
13 -0.14
14 0.14
15 -0.14
16 0.08
17 0.27
18 0.09
19 -0.15
2 -0.36
20 0.08
21 0.08
22 0.63
23 -0.15
24 0.08
25 -0.15
26 0.08
27 0.56
28 0.28
29 0.28
3 -0.36
30 0.28
4 -0.36
40 0.15
41 0.15
42 0.15
5 -0.36
6 -0.57
7 -0.36
8 -0.81
9 0.41

>  <PUBCHEM_EFFECTIVE_ROTOR_COUNT>  (1) 
5.8

>  <PUBCHEM_PHARMACOPHORE_FEATURES>  (1) 
12
1 2 acceptor
1 3 acceptor
1 4 acceptor
1 5 acceptor
1 6 acceptor
1 7 acceptor
1 8 cation
5 1 10 15 18 22 rings
5 3 4 20 21 27 rings
6 11 13 16 19 20 21 rings
6 15 18 23 24 25 26 rings
6 8 9 11 12 13 14 rings

>  <PUBCHEM_HEAVY_ATOM_COUNT>  (1) 
30

>  <PUBCHEM_ATOM_DEF_STEREO_COUNT>  (1) 
1

>  <PUBCHEM_ATOM_UDEF_STEREO_COUNT>  (1) 
1

>  <PUBCHEM_BOND_DEF_STEREO_COUNT>  (1) 
0

>  <PUBCHEM_BOND_UDEF_STEREO_COUNT>  (1) 
0

>  <PUBCHEM_ISOTOPIC_ATOM_COUNT>  (1) 
0

>  <PUBCHEM_COMPONENT_COUNT>  (1) 
1

>  <PUBCHEM_CACTVS_TAUTO_COUNT>  (1) 
1

>  <PUBCHEM_CONFORMER_ID>  (1) 
000034BD00000001

>  <PUBCHEM_MMFF94_ENERGY>  (1) 
123.2356

>  <PUBCHEM_FEATURE_SELFOVERLAP>  (1) 
61.175

>  <PUBCHEM_SHAPE_FINGERPRINT>  (1) 
10165383 225 18339361868959859641
10411042 1 17905891732213833459
10675989 125 16460495237548667085
11014199 57 17545602717613514862
11524674 6 17846495928637410870
11578080 2 17273118323165820906
12422481 6 18260551112652272740
12633257 1 18264199232409769947
12788726 201 17632027363824589352
13140716 1 18267296710888119370
13402501 40 18411702041263933583
13533116 47 10735883846292205644
14341114 176 18409455778074796617
14790565 3 18338804420437798137
15196674 1 18410856589730954058
15238133 3 18408610266654861390
1601671 61 18341332214833450552
16087824 20 18268151963558295033
16110190 28 18335701676107380548
17349148 13 10231765491243865456
1813 80 16660646267039384453
19319366 153 17894909603462937778
19591789 44 18337388236549511747
21033648 29 17631715149961853826
21133410 171 17188911134337910366
21236236 1 18341611551360007527
21267235 1 18411144610907886226
21279426 13 18197221347373745535
21421861 104 17968364655584260714
23227448 37 18338517542344483670
23559900 14 18342734131262106680
238 59 17614520828296915605
3004659 81 18408326580012573192
3298306 158 18272939297288456022
335352 9 18412262826959883390
34934 24 18412820275229497338
350125 39 18408323259143224728
3680242 22 18335419007335627010
4073 2 18040722519465431210
5104073 3 18336260249589036546
5265222 85 18268721674512218878
59755656 215 18340774732801171742
6287921 2 17901105544453080340
7226269 152 17917710184424336048

>  <PUBCHEM_SHAPE_MULTIPOLES>  (1) 
571.32
12.68
3.37
1.13
6.43
0.8
0.63
-4.68
-2.39
-1.19
0.66
-0.1
-0.01
-0.26

>  <PUBCHEM_SHAPE_SELFOVERLAP>  (1) 
1273.86

>  <PUBCHEM_SHAPE_VOLUME>  (1) 
306.2

>  <PUBCHEM_COORDINATE_TYPE>  (1) 
2
5
10

$$$$
