1350
     RDKit          3D

 22 23  0  0  1  0  0  0  0  0999 V2000
    4.5621    1.3993   -0.0929 P   0  0  0  0  0  0  0  0  0  0  0  0
    0.4662    0.0061   -0.4116 O   0  0  0  0  0  0  0  0  0  0  0  0
   -1.1296   -3.1600   -0.7204 O   0  0  0  0  0  0  0  0  0  0  0  0
    1.3114   -3.0775    1.2003 O   0  0  0  0  0  0  0  0  0  0  0  0
    3.0797    0.8449    0.2453 O   0  0  0  0  0  0  0  0  0  0  0  0
   -1.2207   -0.0627    1.9542 O   0  0  0  0  0  0  0  0  0  0  0  0
   -2.6288    0.0830   -2.4866 O   0  0  0  0  0  0  0  0  0  0  0  0
   -5.2498    2.0701    0.6921 O   0  0  0  0  0  0  0  0  0  0  0  0
    4.7862    0.9787   -1.6382 O   0  0  0  0  0  0  0  0  0  0  0  0
    5.5214    0.3773    0.7135 O   0  0  0  0  0  0  0  0  0  0  0  0
    4.7818    2.8515    0.2153 O   0  0  0  0  0  0  0  0  0  0  0  0
   -1.8679   -0.0341   -0.2857 N   0  0  0  0  0  0  0  0  0  0  0  0
   -3.9054    1.0605   -0.8683 N   0  0  0  0  0  0  0  0  0  0  0  0
   -0.5692   -2.0929    0.0229 C   0  0  0  0  0  0  0  0  0  0  0  0
    0.9325   -2.2386    0.1265 C   0  0  0  0  0  0  0  0  0  0  0  0
   -0.7082   -0.7668   -0.7082 C   0  0  0  0  0  0  0  0  0  0  0  0
    1.3541   -0.8020    0.3771 C   0  0  0  0  0  0  0  0  0  0  0  0
    2.7922   -0.5189   -0.0176 C   0  0  0  0  0  0  0  0  0  0  0  0
   -2.0283    0.2659    1.0814 C   0  0  0  0  0  0  0  0  0  0  0  0
   -2.7889    0.3505   -1.2923 C   0  0  0  0  0  0  0  0  0  0  0  0
   -3.2606    1.0278    1.4769 C   0  0  0  0  0  0  0  0  0  0  0  0
   -4.2303    1.4379    0.4164 C   0  0  0  0  0  0  0  0  0  0  0  0
  1  5  1  0
  1  9  1  0
  1 10  1  0
  1 11  2  0
  2 16  1  0
  2 17  1  0
  3 14  1  0
  4 15  1  0
  5 18  1  0
  6 19  2  0
  7 20  2  0
  8 22  2  0
 12 16  1  0
 12 19  1  0
 12 20  1  0
 13 20  1  0
 13 22  1  0
 14 15  1  0
 14 16  1  0
 15 17  1  0
 17 18  1  0
 19 21  1  0
 21 22  1  0
M  END
>  <PUBCHEM_COMPOUND_CID>  (1) 
1350

>  <PUBCHEM_CONFORMER_RMSD>  (1) 
0.8

>  <PUBCHEM_CONFORMER_DIVERSEORDER>  (1) 
1
50
64
75
140
51
157
39
68
161
44
10
32
4
113
80
136
153
129
94
150
90
81
171
63
143
141
26
154
11
30
170
138
21
139
49
134
145
116
41
74
167
40
100
99
159
15
124
102
47
88
111
109
93
87
117
97
3
6
156
72
83
110
7
76
95
163
69
56
149
118
45
165
133
120
137
164
135
57
43
160
121
34
66
103
151
60
52
122
38
152
106
169
147
29
5
70
127
24
77
101
86
96
132
20
112
105
115
28
142
119
13
98
144
48
9
123
65
2
128
162
18
22
12
108
78
73
46
155
166
31
27
125
67
58
91
71
35
114
146
16
59
8
131
92
82
36
104
168
85
55
37
79
148
107
130
62
84
54
42
53
158
126
61
23
89
33
14
25
19
17

>  <PUBCHEM_MMFF94_PARTIAL_CHARGES>  (1) 
27
1 1.51
10 -0.77
11 -0.7
12 -0.42
13 -0.49
14 0.28
15 0.28
16 0.58
17 0.28
18 0.28
19 0.57
2 -0.56
20 0.69
21 0.12
22 0.57
29 0.4
3 -0.68
30 0.4
33 0.37
34 0.5
35 0.5
4 -0.68
5 -0.55
6 -0.57
7 -0.57
8 -0.57
9 -0.77

>  <PUBCHEM_EFFECTIVE_ROTOR_COUNT>  (1) 
5.6

>  <PUBCHEM_PHARMACOPHORE_FEATURES>  (1) 
16
1 10 acceptor
1 11 acceptor
1 13 donor
1 2 acceptor
1 21 anion
1 3 acceptor
1 3 donor
1 4 acceptor
1 4 donor
1 6 acceptor
1 7 acceptor
1 8 acceptor
1 9 acceptor
4 1 9 10 11 anion
5 2 14 15 16 17 rings
6 12 13 19 20 21 22 rings

>  <PUBCHEM_HEAVY_ATOM_COUNT>  (1) 
22

>  <PUBCHEM_ATOM_DEF_STEREO_COUNT>  (1) 
0

>  <PUBCHEM_ATOM_UDEF_STEREO_COUNT>  (1) 
4

>  <PUBCHEM_BOND_DEF_STEREO_COUNT>  (1) 
0

>  <PUBCHEM_BOND_UDEF_STEREO_COUNT>  (1) 
0

>  <PUBCHEM_ISOTOPIC_ATOM_COUNT>  (1) 
0

>  <PUBCHEM_COMPONENT_COUNT>  (1) 
1

>  <PUBCHEM_CACTVS_TAUTO_COUNT>  (1) 
3

>  <PUBCHEM_CONFORMER_ID>  (1) 
0000054600000001

>  <PUBCHEM_MMFF94_ENERGY>  (1) 
19.6685

>  <PUBCHEM_FEATURE_SELFOVERLAP>  (1) 
81.244

>  <PUBCHEM_SHAPE_FINGERPRINT>  (1) 
11582403 64 15940579349231505023
11640471 11 18130507431581296377
11725454 13 16662858437295571535
12236239 1 17845645937693068919
12390115 104 18336839696411588238
12633257 1 16226342485414153293
12788726 201 18053646247146403102
12892183 10 14851881430840646744
13134695 92 17538830391643035714
13544653 18 10231758898732810224
13583140 156 16371272373056675388
14123255 52 18411703179551599448
14142880 1 18263360455103006751
1420 369 8430320125821935784
14251764 38 17699270368675850560
15342168 16 18410577253938282573
15475509 8 14189578495239014041
15534591 1 18202846569141559231
17834072 32 18337112371153770772
17980427 23 17531825644254993543
1813 80 17409373871325077294
18222031 100 8574708001313022052
193927 3 10303816496981673228
19784866 240 8214133067263013201
19784866 34 18411417315055015232
200 152 10807935963777007612
204376 136 18335422369804174810
21120745 212 16960448118532046046
21756936 100 18201718474442897402
22079108 93 18411990178003783435
22182937 141 18266462190353083712
23419403 2 15650438262652623987
27216 239 18041281079165586497
283562 15 17975687604467289618
2838139 119 18410286991263792544
350125 39 18121503711213180809
394222 165 18338230458029949019
474 4 18413106139071570440
5104073 3 18115013238988970208
56616090 89 9223231802289421462
59755656 520 18412827984141743382
633830 44 18342739602781325478

>  <PUBCHEM_SHAPE_MULTIPOLES>  (1) 
387.94
10.11
2.77
1.51
7.3
1.6
0.37
-10.24
0.11
1.04
-0.38
-1.08
-0.08
-0.91

>  <PUBCHEM_SHAPE_SELFOVERLAP>  (1) 
797.322

>  <PUBCHEM_SHAPE_VOLUME>  (1) 
223.9

>  <PUBCHEM_COORDINATE_TYPE>  (1) 
2
5
10

$$$$
