13514
     RDKit          3D

  7  6  0  0  0  0  0  0  0  0999 V2000
    1.0835   -0.9316   -1.4580 Cl  0  0  0  0  0  0  0  0  0  0  0  0
    0.9914   -1.0170    1.4430 Cl  0  0  0  0  0  0  0  0  0  0  0  0
    1.4486    1.5139    0.0473 Cl  0  0  0  0  0  0  0  0  0  0  0  0
   -1.3996    1.3142   -0.0010 O   0  0  0  0  0  0  0  0  0  0  0  0
    0.6006   -0.0439    0.0101 C   0  0  0  0  0  0  0  0  0  0  0  0
   -0.9038    0.1843   -0.0023 C   0  0  0  0  0  0  0  0  0  0  0  0
   -1.8208   -1.0199   -0.0391 C   0  0  0  0  0  0  0  0  0  0  0  0
  1  5  1  0
  2  5  1  0
  3  5  1  0
  4  6  2  0
  5  6  1  0
  6  7  1  0
M  END
>  <PUBCHEM_COMPOUND_CID>  (1) 
13514

>  <PUBCHEM_CONFORMER_RMSD>  (1) 
0.4

>  <PUBCHEM_CONFORMER_DIVERSEORDER>  (1) 
1
2

>  <PUBCHEM_MMFF94_PARTIAL_CHARGES>  (1) 
7
1 -0.29
2 -0.29
3 -0.29
4 -0.57
5 0.93
6 0.45
7 0.06

>  <PUBCHEM_EFFECTIVE_ROTOR_COUNT>  (1) 
1

>  <PUBCHEM_PHARMACOPHORE_FEATURES>  (1) 
1
1 4 acceptor

>  <PUBCHEM_HEAVY_ATOM_COUNT>  (1) 
7

>  <PUBCHEM_ATOM_DEF_STEREO_COUNT>  (1) 
0

>  <PUBCHEM_ATOM_UDEF_STEREO_COUNT>  (1) 
0

>  <PUBCHEM_BOND_DEF_STEREO_COUNT>  (1) 
0

>  <PUBCHEM_BOND_UDEF_STEREO_COUNT>  (1) 
0

>  <PUBCHEM_ISOTOPIC_ATOM_COUNT>  (1) 
0

>  <PUBCHEM_COMPONENT_COUNT>  (1) 
1

>  <PUBCHEM_CACTVS_TAUTO_COUNT>  (1) 
2

>  <PUBCHEM_CONFORMER_ID>  (1) 
000034CA00000001

>  <PUBCHEM_MMFF94_ENERGY>  (1) 
9.3048

>  <PUBCHEM_FEATURE_SELFOVERLAP>  (1) 
5.074

>  <PUBCHEM_SHAPE_FINGERPRINT>  (1) 
16714656 1 17626387088143050724
18185500 45 17824813443257285467
21040471 1 17834394519104822021
24536 1 18059850619557209129
29004967 10 17983314895084990267
5084963 1 18264204901587304192
5943 1 13356528115342320842

>  <PUBCHEM_SHAPE_MULTIPOLES>  (1) 
143.8
2.13
1.59
1.28
0.69
0.33
0.01
0.22
0.05
-0.27
-0.04
-0.55
-0.71
0.02

>  <PUBCHEM_SHAPE_SELFOVERLAP>  (1) 
242.396

>  <PUBCHEM_SHAPE_VOLUME>  (1) 
98.6

>  <PUBCHEM_COORDINATE_TYPE>  (1) 
2
5
10

$$$$
