13512
     RDKit          3D

  6  5  0  0  0  0  0  0  0  0999 V2000
   -0.4385    0.0000    0.0000 C   0  0  0  0  0  0  0  0  0  0  0  0
   -0.9485    1.4458    0.0808 C   0  0  0  0  0  0  0  0  0  0  0  0
   -0.9492   -0.7929    1.2113 C   0  0  0  0  0  0  0  0  0  0  0  0
   -0.9482   -0.6526   -1.2926 C   0  0  0  0  0  0  0  0  0  0  0  0
    1.0417   -0.0003    0.0004 C   0  0  0  0  0  0  0  0  0  0  0  0
    2.2427    0.0001    0.0001 C   0  0  0  0  0  0  0  0  0  0  0  0
  1  2  1  0
  1  3  1  0
  1  4  1  0
  1  5  1  0
  5  6  3  0
M  END
>  <PUBCHEM_COMPOUND_CID>  (1) 
13512

>  <PUBCHEM_CONFORMER_RMSD>  (1) 
0.4

>  <PUBCHEM_CONFORMER_DIVERSEORDER>  (1) 
1

>  <PUBCHEM_MMFF94_PARTIAL_CHARGES>  (1) 
4
1 0.2
16 0.18
5 -0.2
6 -0.18

>  <PUBCHEM_EFFECTIVE_ROTOR_COUNT>  (1) 
0

>  <PUBCHEM_PHARMACOPHORE_FEATURES>  (1) 
2
1 6 hydrophobe
4 1 2 3 4 hydrophobe

>  <PUBCHEM_HEAVY_ATOM_COUNT>  (1) 
6

>  <PUBCHEM_ATOM_DEF_STEREO_COUNT>  (1) 
0

>  <PUBCHEM_ATOM_UDEF_STEREO_COUNT>  (1) 
0

>  <PUBCHEM_BOND_DEF_STEREO_COUNT>  (1) 
0

>  <PUBCHEM_BOND_UDEF_STEREO_COUNT>  (1) 
0

>  <PUBCHEM_ISOTOPIC_ATOM_COUNT>  (1) 
0

>  <PUBCHEM_COMPONENT_COUNT>  (1) 
1

>  <PUBCHEM_CACTVS_TAUTO_COUNT>  (1) 
1

>  <PUBCHEM_CONFORMER_ID>  (1) 
000034C800000001

>  <PUBCHEM_MMFF94_ENERGY>  (1) 
8.1027

>  <PUBCHEM_FEATURE_SELFOVERLAP>  (1) 
10.149

>  <PUBCHEM_SHAPE_FINGERPRINT>  (1) 
137420 1 14803859315646825269
16714656 1 17988634190595629005
20096714 4 18122342376523752872
21040471 1 17898299303005176104
24536 1 18113897169692392652
29004967 10 18053650653760872599
5943 1 12113906291667397895

>  <PUBCHEM_SHAPE_MULTIPOLES>  (1) 
123.48
2.12
1.14
1.14
1.63
0.27
-0.26
0
0
-0.5
0.26
-0.5
-0.27
0

>  <PUBCHEM_SHAPE_SELFOVERLAP>  (1) 
223.455

>  <PUBCHEM_SHAPE_VOLUME>  (1) 
81.7

>  <PUBCHEM_COORDINATE_TYPE>  (1) 
2
5
10

$$$$
