13519
     RDKit          3D

  7  6  0  0  1  0  0  0  0  0999 V2000
    0.3257   -1.7263    0.6311 O   0  0  0  0  0  0  0  0  0  0  0  0
    0.0109   -0.4674    0.0129 C   0  0  0  0  0  0  0  0  0  0  0  0
   -1.4329   -0.1079    0.4324 C   0  0  0  0  0  0  0  0  0  0  0  0
    0.1143   -0.6831   -1.5034 C   0  0  0  0  0  0  0  0  0  0  0  0
   -1.9442    1.2328   -0.0791 C   0  0  0  0  0  0  0  0  0  0  0  0
    0.9971    0.5277    0.5842 C   0  0  0  0  0  0  0  0  0  0  0  0
    1.9291    1.2241   -0.0781 C   0  0  0  0  0  0  0  0  0  0  0  0
  1  2  1  0
  2  3  1  0
  2  4  1  0
  2  6  1  0
  3  5  1  0
  6  7  2  0
M  END
>  <PUBCHEM_COMPOUND_CID>  (1) 
13519

>  <PUBCHEM_CONFORMER_RMSD>  (1) 
0.4

>  <PUBCHEM_CONFORMER_DIVERSEORDER>  (1) 
1
6
7
3
2
4
5

>  <PUBCHEM_MMFF94_PARTIAL_CHARGES>  (1) 
8
1 -0.68
16 0.15
17 0.4
18 0.15
19 0.15
2 0.42
6 -0.29
7 -0.3

>  <PUBCHEM_EFFECTIVE_ROTOR_COUNT>  (1) 
2

>  <PUBCHEM_PHARMACOPHORE_FEATURES>  (1) 
4
1 1 acceptor
1 1 donor
1 5 hydrophobe
1 7 hydrophobe

>  <PUBCHEM_HEAVY_ATOM_COUNT>  (1) 
7

>  <PUBCHEM_ATOM_DEF_STEREO_COUNT>  (1) 
0

>  <PUBCHEM_ATOM_UDEF_STEREO_COUNT>  (1) 
1

>  <PUBCHEM_BOND_DEF_STEREO_COUNT>  (1) 
0

>  <PUBCHEM_BOND_UDEF_STEREO_COUNT>  (1) 
0

>  <PUBCHEM_ISOTOPIC_ATOM_COUNT>  (1) 
0

>  <PUBCHEM_COMPONENT_COUNT>  (1) 
1

>  <PUBCHEM_CACTVS_TAUTO_COUNT>  (1) 
1

>  <PUBCHEM_CONFORMER_ID>  (1) 
000034CF00000001

>  <PUBCHEM_MMFF94_ENERGY>  (1) 
10.2142

>  <PUBCHEM_FEATURE_SELFOVERLAP>  (1) 
20.297

>  <PUBCHEM_SHAPE_FINGERPRINT>  (1) 
137420 1 15448392108336111467
16714656 1 17984427609241780525
20096714 4 18412822490736010361
21040471 1 18410571829215239648
24536 1 17831842922184498968
5084963 1 18271247217459401561
5943 1 15037959871006145774

>  <PUBCHEM_SHAPE_MULTIPOLES>  (1) 
138.19
2.19
1.51
1.06
0.12
0.15
-0.32
-1.33
0.03
-0.05
0.04
-0.05
0.34
0.05

>  <PUBCHEM_SHAPE_SELFOVERLAP>  (1) 
249.357

>  <PUBCHEM_SHAPE_VOLUME>  (1) 
90.1

>  <PUBCHEM_COORDINATE_TYPE>  (1) 
2
5
10

$$$$
