13524
     RDKit          3D

 15 14  0  0  0  0  0  0  0  0999 V2000
    0.2915    0.1598   -1.4208 S   0  0  0  0  0  0  0  0  0  0  0  0
    3.7861   -0.2206   -1.5622 S   0  0  0  0  0  0  0  0  0  0  0  0
    2.1733   -0.0700   -0.4550 P   0  0  0  0  0  0  0  0  0  0  0  0
    2.2899    1.1300    0.6498 O   0  0  0  0  0  0  0  0  0  0  0  0
    2.0252   -1.3221    0.5863 O   0  0  0  0  0  0  0  0  0  0  0  0
   -3.2191    0.0406    0.3875 O   0  0  0  0  0  0  0  0  0  0  0  0
   -2.6466    0.3534   -1.8224 O   0  0  0  0  0  0  0  0  0  0  0  0
    2.4407    2.4766    0.2323 C   0  0  0  0  0  0  0  0  0  0  0  0
    1.8876   -2.6470    0.0997 C   0  0  0  0  0  0  0  0  0  0  0  0
   -0.9405    0.0174   -0.1104 C   0  0  0  0  0  0  0  0  0  0  0  0
    2.5223    3.3656    1.4548 C   0  0  0  0  0  0  0  0  0  0  0  0
    1.7709   -3.5942    1.2748 C   0  0  0  0  0  0  0  0  0  0  0  0
   -2.3396    0.1620   -0.6541 C   0  0  0  0  0  0  0  0  0  0  0  0
   -4.6040    0.1521    0.0430 C   0  0  0  0  0  0  0  0  0  0  0  0
   -5.4379   -0.0037    1.2968 C   0  0  0  0  0  0  0  0  0  0  0  0
  1  3  1  0
  1 10  1  0
  2  3  2  0
  3  4  1  0
  3  5  1  0
  4  8  1  0
  5  9  1  0
  6 13  1  0
  6 14  1  0
  7 13  2  0
  8 11  1  0
  9 12  1  0
 10 13  1  0
 14 15  1  0
M  END
>  <PUBCHEM_COMPOUND_CID>  (1) 
13524

>  <PUBCHEM_CONFORMER_RMSD>  (1) 
0.8

>  <PUBCHEM_CONFORMER_DIVERSEORDER>  (1) 
1
69
125
83
6
105
154
139
11
81
170
72
27
115
23
26
93
119
89
123
3
19
171
68
8
103
138
5
163
108
97
48
140
82
96
149
107
73
77
147
71
110
134
111
15
127
168
152
148
84
36
12
104
31
21
7
146
156
167
112
37
63
40
164
42
46
47
99
25
165
116
4
161
95
76
61
34
91
2
94
173
39
141
22
45
90
135
88
9
65
130
172
32
66
85
142
49
38
52
56
118
145
128
114
55
160
101
60
151
62
166
79
158
122
109
14
87
121
64
70
50
100
117
133
24
20
131
137
41
150
126
51
43
157
144
74
98
35
143
54
92
159
16
30
10
17
53
44
18
153
28
33
129
59
13
106
120
113
155
136
58
86
78
29
80
102
132
169
162
75
57
124
67

>  <PUBCHEM_MMFF94_PARTIAL_CHARGES>  (1) 
12
1 -0.48
10 0.29
13 0.66
14 0.28
2 -0.68
3 1.47
4 -0.55
5 -0.55
6 -0.43
7 -0.57
8 0.28
9 0.28

>  <PUBCHEM_EFFECTIVE_ROTOR_COUNT>  (1) 
9

>  <PUBCHEM_PHARMACOPHORE_FEATURES>  (1) 
1
1 7 acceptor

>  <PUBCHEM_HEAVY_ATOM_COUNT>  (1) 
15

>  <PUBCHEM_ATOM_DEF_STEREO_COUNT>  (1) 
0

>  <PUBCHEM_ATOM_UDEF_STEREO_COUNT>  (1) 
0

>  <PUBCHEM_BOND_DEF_STEREO_COUNT>  (1) 
0

>  <PUBCHEM_BOND_UDEF_STEREO_COUNT>  (1) 
0

>  <PUBCHEM_ISOTOPIC_ATOM_COUNT>  (1) 
0

>  <PUBCHEM_COMPONENT_COUNT>  (1) 
1

>  <PUBCHEM_CACTVS_TAUTO_COUNT>  (1) 
1

>  <PUBCHEM_CONFORMER_ID>  (1) 
000034D400000001

>  <PUBCHEM_MMFF94_ENERGY>  (1) 
3.4508

>  <PUBCHEM_FEATURE_SELFOVERLAP>  (1) 
5.074

>  <PUBCHEM_SHAPE_FINGERPRINT>  (1) 
10366900 7 18261968391904327833
12596602 18 17844268391974988003
12616999 72 17530978968155668238
12932764 1 18410847750899230023
13533116 47 18334861563894002835
13583140 156 18410288078496699525
14252887 29 17313681372998936335
15142526 21 17984134044227921217
15342816 4 14707218746731240023
18186145 218 18272083911764827621
20539784 86 18411697690525288436
21503847 285 18060429018328886449
21524375 3 17769068470597516380
2255824 54 18272085011307993286
22943178 12 17749942263994763895
23526113 38 17313679139346923800
23557571 272 17023174986540236821
23558518 356 17836358625061274046
23559900 14 17459184093214927391
23598291 2 17774713259998889549
31174 14 18409727318496440575
57003041 12 18124027090240820551
633830 44 18201156679793812293
81228 2 17396981735519214198
9999458 23 18410862091826868060

>  <PUBCHEM_SHAPE_MULTIPOLES>  (1) 
296.76
8.78
3.37
1.61
14.86
0.77
-0.26
-1.3
1.22
-5.5
2.77
-0.35
-0.13
0.56

>  <PUBCHEM_SHAPE_SELFOVERLAP>  (1) 
509.13

>  <PUBCHEM_SHAPE_VOLUME>  (1) 
200

>  <PUBCHEM_COORDINATE_TYPE>  (1) 
2
5
10

$$$$
