13527
     RDKit          3D

  8  7  0  0  0  0  0  0  0  0999 V2000
    0.6161    0.2476    0.6012 O   0  0  0  0  0  0  0  0  0  0  0  0
   -0.6696    0.4665    0.0168 C   0  0  0  0  0  0  0  0  0  0  0  0
   -1.0865   -0.7821   -0.7852 C   0  0  0  0  0  0  0  0  0  0  0  0
   -1.6423    0.7788    1.1549 C   0  0  0  0  0  0  0  0  0  0  0  0
   -0.5626    1.6757   -0.9178 C   0  0  0  0  0  0  0  0  0  0  0  0
   -1.1668   -2.0638    0.0363 C   0  0  0  0  0  0  0  0  0  0  0  0
    1.5867   -0.0505   -0.3891 C   0  0  0  0  0  0  0  0  0  0  0  0
    2.9249   -0.2722    0.2830 C   0  0  0  0  0  0  0  0  0  0  0  0
  1  2  1  0
  1  7  1  0
  2  3  1  0
  2  4  1  0
  2  5  1  0
  3  6  1  0
  7  8  1  0
M  END
>  <PUBCHEM_COMPOUND_CID>  (1) 
13527

>  <PUBCHEM_CONFORMER_RMSD>  (1) 
0.6

>  <PUBCHEM_CONFORMER_DIVERSEORDER>  (1) 
1
5
3
2
4

>  <PUBCHEM_MMFF94_PARTIAL_CHARGES>  (1) 
3
1 -0.56
2 0.28
7 0.28

>  <PUBCHEM_EFFECTIVE_ROTOR_COUNT>  (1) 
3

>  <PUBCHEM_PHARMACOPHORE_FEATURES>  (1) 
3
1 1 acceptor
1 6 hydrophobe
3 2 4 5 hydrophobe

>  <PUBCHEM_HEAVY_ATOM_COUNT>  (1) 
8

>  <PUBCHEM_ATOM_DEF_STEREO_COUNT>  (1) 
0

>  <PUBCHEM_ATOM_UDEF_STEREO_COUNT>  (1) 
0

>  <PUBCHEM_BOND_DEF_STEREO_COUNT>  (1) 
0

>  <PUBCHEM_BOND_UDEF_STEREO_COUNT>  (1) 
0

>  <PUBCHEM_ISOTOPIC_ATOM_COUNT>  (1) 
0

>  <PUBCHEM_COMPONENT_COUNT>  (1) 
1

>  <PUBCHEM_CACTVS_TAUTO_COUNT>  (1) 
1

>  <PUBCHEM_CONFORMER_ID>  (1) 
000034D700000001

>  <PUBCHEM_MMFF94_ENERGY>  (1) 
20.6824

>  <PUBCHEM_FEATURE_SELFOVERLAP>  (1) 
15.224

>  <PUBCHEM_SHAPE_FINGERPRINT>  (1) 
12932764 1 18261672589401942928
13024252 1 15936410017927982448
137420 1 9864933008781635789
16714656 1 18336266755968714445
18185500 45 18190462855614122350
21040471 1 18129115423842795192
24536 1 17704060785997006088
29004967 10 17831852817356456867
369184 2 18337944615376894080
5943 1 13506362181206170781

>  <PUBCHEM_SHAPE_MULTIPOLES>  (1) 
158.77
2.85
1.72
1.03
2.9
0.51
-0.06
0.38
-0.53
-1.03
0.28
-0.35
-0.25
-0.18

>  <PUBCHEM_SHAPE_SELFOVERLAP>  (1) 
285.238

>  <PUBCHEM_SHAPE_VOLUME>  (1) 
104.5

>  <PUBCHEM_COORDINATE_TYPE>  (1) 
2
5
10

$$$$
