13541
     RDKit          3D

 17 16  0  0  0  0  0  0  0  0999 V2000
    0.0662    1.4846   -0.1290 O   0  0  0  0  0  0  0  0  0  0  0  0
   -1.3544    3.1339    1.6270 O   0  0  0  0  0  0  0  0  0  0  0  0
    0.1386    0.6055   -1.2532 C   0  0  0  0  0  0  0  0  0  0  0  0
   -1.2856    0.1272   -1.5666 C   0  0  0  0  0  0  0  0  0  0  0  0
    1.1133   -0.5401   -0.9442 C   0  0  0  0  0  0  0  0  0  0  0  0
   -2.0877   -0.2730   -0.3276 C   0  0  0  0  0  0  0  0  0  0  0  0
    2.5104   -0.0263   -0.5727 C   0  0  0  0  0  0  0  0  0  0  0  0
   -3.4659   -0.8164   -0.7123 C   0  0  0  0  0  0  0  0  0  0  0  0
    3.4951   -1.1466   -0.2191 C   0  0  0  0  0  0  0  0  0  0  0  0
   -4.2562   -1.2536    0.5223 C   0  0  0  0  0  0  0  0  0  0  0  0
    4.8689   -0.6315    0.2186 C   0  0  0  0  0  0  0  0  0  0  0  0
   -5.6194   -1.8266    0.1355 C   0  0  0  0  0  0  0  0  0  0  0  0
    5.8285   -1.7510    0.6309 C   0  0  0  0  0  0  0  0  0  0  0  0
   -0.3509    2.7834   -0.5180 C   0  0  0  0  0  0  0  0  0  0  0  0
   -6.3946   -2.2931    1.3574 C   0  0  0  0  0  0  0  0  0  0  0  0
    7.2042   -1.2489    1.0419 C   0  0  0  0  0  0  0  0  0  0  0  0
   -0.4104    3.6723    0.7092 C   0  0  0  0  0  0  0  0  0  0  0  0
  1  3  1  0
  1 14  1  0
  2 17  1  0
  3  4  1  0
  3  5  1  0
  4  6  1  0
  5  7  1  0
  6  8  1  0
  7  9  1  0
  8 10  1  0
  9 11  1  0
 10 12  1  0
 11 13  1  0
 12 15  1  0
 13 16  1  0
 14 17  1  0
M  END
>  <PUBCHEM_COMPOUND_CID>  (1) 
13541

>  <PUBCHEM_CONFORMER_RMSD>  (1) 
1.2

>  <PUBCHEM_CONFORMER_DIVERSEORDER>  (1) 
1
26
2
25
42
22
33
28
37
38
23
24
39
21
44
32
14
36
9
29
27
7
43
5
35
34
19
17
6
10
30
18
45
41
31
4
15
12
8
16
20
40
13
11
3

>  <PUBCHEM_MMFF94_PARTIAL_CHARGES>  (1) 
6
1 -0.56
14 0.28
17 0.28
2 -0.68
3 0.28
49 0.4

>  <PUBCHEM_EFFECTIVE_ROTOR_COUNT>  (1) 
13

>  <PUBCHEM_PHARMACOPHORE_FEATURES>  (1) 
7
1 1 acceptor
1 15 hydrophobe
1 16 hydrophobe
1 2 acceptor
1 2 donor
5 4 6 8 10 12 hydrophobe
5 5 7 9 11 13 hydrophobe

>  <PUBCHEM_HEAVY_ATOM_COUNT>  (1) 
17

>  <PUBCHEM_ATOM_DEF_STEREO_COUNT>  (1) 
0

>  <PUBCHEM_ATOM_UDEF_STEREO_COUNT>  (1) 
0

>  <PUBCHEM_BOND_DEF_STEREO_COUNT>  (1) 
0

>  <PUBCHEM_BOND_UDEF_STEREO_COUNT>  (1) 
0

>  <PUBCHEM_ISOTOPIC_ATOM_COUNT>  (1) 
0

>  <PUBCHEM_COMPONENT_COUNT>  (1) 
1

>  <PUBCHEM_CACTVS_TAUTO_COUNT>  (1) 
1

>  <PUBCHEM_CONFORMER_ID>  (1) 
000034E500000001

>  <PUBCHEM_MMFF94_ENERGY>  (1) 
9.6175

>  <PUBCHEM_FEATURE_SELFOVERLAP>  (1) 
35.527

>  <PUBCHEM_SHAPE_FINGERPRINT>  (1) 
11823591 26 9943529561562491291
12555020 224 11675153714814614032
13257819 101 12823027382817811059
13955234 65 17682694157171391061
14123256 34 17967255312201759251
14251764 30 18334852844213983099
17980427 23 13326567484701030665
18006028 8 18411693288215569215
20526848 3 12967132726512847146
21041028 32 18272091621453111525
21344244 78 17631749273882844819
21637258 2 17531240681850992070
23845131 108 17480029592311322825
2838139 119 11959727161856897491
6327066 14 10664101146813596107
77188 2 18335422408517578765

>  <PUBCHEM_SHAPE_MULTIPOLES>  (1) 
338.11
15.19
3.51
1.35
9.49
4.45
0.07
-19.6
7.59
-2.4
1.89
-0.56
0.31
0.04

>  <PUBCHEM_SHAPE_SELFOVERLAP>  (1) 
610.752

>  <PUBCHEM_SHAPE_VOLUME>  (1) 
217.4

>  <PUBCHEM_COORDINATE_TYPE>  (1) 
2
5
10

$$$$
