13549
     RDKit          3D

 14 13  0  0  0  0  0  0  0  0999 V2000
   -2.9874    0.3484   -0.0073 O   0  0  0  0  0  0  0  0  0  0  0  0
    2.9878   -0.3483    0.0067 O   0  0  0  0  0  0  0  0  0  0  0  0
   -1.8958   -1.6831   -0.0687 O   0  0  0  0  0  0  0  0  0  0  0  0
    1.8938    1.6812   -0.0634 O   0  0  0  0  0  0  0  0  0  0  0  0
   -0.6454    0.4062   -0.0778 C   0  0  0  0  0  0  0  0  0  0  0  0
    0.6454   -0.4092   -0.0468 C   0  0  0  0  0  0  0  0  0  0  0  0
   -4.2478   -0.3293    0.0150 C   0  0  0  0  0  0  0  0  0  0  0  0
    4.2479    0.3302    0.0146 C   0  0  0  0  0  0  0  0  0  0  0  0
   -5.3617    0.7055    0.0610 C   0  0  0  0  0  0  0  0  0  0  0  0
    5.3628   -0.7034    0.0611 C   0  0  0  0  0  0  0  0  0  0  0  0
   -1.8864   -0.4599   -0.0493 C   0  0  0  0  0  0  0  0  0  0  0  0
    1.8857    0.4584   -0.0339 C   0  0  0  0  0  0  0  0  0  0  0  0
   -6.7337    0.0570    0.1019 C   0  0  0  0  0  0  0  0  0  0  0  0
    6.7346   -0.0537    0.0869 C   0  0  0  0  0  0  0  0  0  0  0  0
  1  7  1  0
  1 11  1  0
  2  8  1  0
  2 12  1  0
  3 11  2  0
  4 12  2  0
  5  6  1  0
  5 11  1  0
  6 12  1  0
  7  9  1  0
  8 10  1  0
  9 13  1  0
 10 14  1  0
M  END
>  <PUBCHEM_COMPOUND_CID>  (1) 
13549

>  <PUBCHEM_CONFORMER_RMSD>  (1) 
0.8

>  <PUBCHEM_CONFORMER_DIVERSEORDER>  (1) 
1
101
23
37
92
4
128
35
24
3
27
71
123
50
75
122
109
10
110
40
21
19
32
111
57
14
88
94
93
16
114
81
22
33
17
65
58
121
124
117
25
105
12
2
97
8
13
9
87
76
72
112
38
29
64
118
133
126
59
86
82
74
18
134
62
127
7
36
51
45
95
53
26
107
113
91
80
100
15
6
68
108
103
102
132
90
60
5
130
48
131
83
39
49
66
125
55
98
84
52
41
96
42
54
31
116
44
73
115
119
67
47
43
46
28
99
104
11
34
20
79
63
30
120
69
56
129
89
106
78
61
77
70
85

>  <PUBCHEM_MMFF94_PARTIAL_CHARGES>  (1) 
10
1 -0.43
11 0.66
12 0.66
2 -0.43
3 -0.57
4 -0.57
5 0.06
6 0.06
7 0.28
8 0.28

>  <PUBCHEM_EFFECTIVE_ROTOR_COUNT>  (1) 
9

>  <PUBCHEM_PHARMACOPHORE_FEATURES>  (1) 
4
1 13 hydrophobe
1 14 hydrophobe
1 3 acceptor
1 4 acceptor

>  <PUBCHEM_HEAVY_ATOM_COUNT>  (1) 
14

>  <PUBCHEM_ATOM_DEF_STEREO_COUNT>  (1) 
0

>  <PUBCHEM_ATOM_UDEF_STEREO_COUNT>  (1) 
0

>  <PUBCHEM_BOND_DEF_STEREO_COUNT>  (1) 
0

>  <PUBCHEM_BOND_UDEF_STEREO_COUNT>  (1) 
0

>  <PUBCHEM_ISOTOPIC_ATOM_COUNT>  (1) 
0

>  <PUBCHEM_COMPONENT_COUNT>  (1) 
1

>  <PUBCHEM_CACTVS_TAUTO_COUNT>  (1) 
1

>  <PUBCHEM_CONFORMER_ID>  (1) 
000034ED00000001

>  <PUBCHEM_MMFF94_ENERGY>  (1) 
5.8403

>  <PUBCHEM_FEATURE_SELFOVERLAP>  (1) 
20.298

>  <PUBCHEM_SHAPE_FINGERPRINT>  (1) 
12091667 2 18343582941606847133
12714333 28 13758355566109802659
12815109 37 18342457041272788562
13533116 47 13973692676695371422
1420 363 9079114479234816040
14251764 18 18410855481608279671
14251764 46 18410573985183151651
17834072 8 18410573985151451150
17834076 25 17775003483470222362
187816 3 13254796841681060391
20279233 1 15698007361237031644
20281389 69 18334574641939047912
20645477 70 16773243877407236246
20767249 213 12751233714319709802
22224240 67 16988836186359603830
23035841 295 13262397765004791128
23218964 4 18407759226873563789
23402539 116 18060413625740837997
23521765 1 18341894086539083793
23559900 14 18130498734082683176
3545911 37 18413388730845311891
366044 4 18411982464585800755
42788 4 18410575084979674469
4463277 17 18334576845747608436
57583515 80 12175621785072063743
59755656 520 18040712589517204403
8209 1 18410855455838475756

>  <PUBCHEM_SHAPE_MULTIPOLES>  (1) 
264.64
16.93
1.07
0.59
0.01
0
0
-0.01
-0.88
0
0.02
0
0
-0.06

>  <PUBCHEM_SHAPE_SELFOVERLAP>  (1) 
492.386

>  <PUBCHEM_SHAPE_VOLUME>  (1) 
165.7

>  <PUBCHEM_COORDINATE_TYPE>  (1) 
2
5
10

$$$$
