13553
     RDKit          3D

  9  8  0  0  0  0  0  0  0  0999 V2000
   -0.7813   -0.4546    0.0003 O   0  0  0  0  0  0  0  0  0  0  0  0
   -2.1897    1.2534    0.0063 O   0  0  0  0  0  0  0  0  0  0  0  0
   -3.0264   -0.8133    0.0001 O   0  0  0  0  0  0  0  0  0  0  0  0
   -2.1209    0.0237    0.0023 N   0  0  0  0  0  0  0  0  0  0  0  0
    1.6199    0.0015    0.0011 C   0  0  0  0  0  0  0  0  0  0  0  0
    0.1917    0.5823    0.0034 C   0  0  0  0  0  0  0  0  0  0  0  0
    2.6570    1.1372    0.0054 C   0  0  0  0  0  0  0  0  0  0  0  0
    1.8100   -0.8522   -1.2627 C   0  0  0  0  0  0  0  0  0  0  0  0
    1.8396   -0.8780    1.2436 C   0  0  0  0  0  0  0  0  0  0  0  0
  1  4  1  0
  1  6  1  0
  2  4  1  0
  3  4  2  0
  5  6  1  0
  5  7  1  0
  5  8  1  0
  5  9  1  0
M  CHG  2   2  -1   4   1
M  END
>  <PUBCHEM_COMPOUND_CID>  (1) 
13553

>  <PUBCHEM_CONFORMER_RMSD>  (1) 
0.6

>  <PUBCHEM_CONFORMER_DIVERSEORDER>  (1) 
1
2

>  <PUBCHEM_MMFF94_PARTIAL_CHARGES>  (1) 
5
1 -0.27
2 -0.52
3 -0.52
4 1.03
6 0.28

>  <PUBCHEM_EFFECTIVE_ROTOR_COUNT>  (1) 
3

>  <PUBCHEM_PHARMACOPHORE_FEATURES>  (1) 
3
1 2 acceptor
1 3 acceptor
4 5 7 8 9 hydrophobe

>  <PUBCHEM_HEAVY_ATOM_COUNT>  (1) 
9

>  <PUBCHEM_ATOM_DEF_STEREO_COUNT>  (1) 
0

>  <PUBCHEM_ATOM_UDEF_STEREO_COUNT>  (1) 
0

>  <PUBCHEM_BOND_DEF_STEREO_COUNT>  (1) 
0

>  <PUBCHEM_BOND_UDEF_STEREO_COUNT>  (1) 
0

>  <PUBCHEM_ISOTOPIC_ATOM_COUNT>  (1) 
0

>  <PUBCHEM_COMPONENT_COUNT>  (1) 
1

>  <PUBCHEM_CACTVS_TAUTO_COUNT>  (1) 
1

>  <PUBCHEM_CONFORMER_ID>  (1) 
000034F100000001

>  <PUBCHEM_MMFF94_ENERGY>  (1) 
23.0616

>  <PUBCHEM_FEATURE_SELFOVERLAP>  (1) 
15.293

>  <PUBCHEM_SHAPE_FINGERPRINT>  (1) 
10857977 72 18131343146349329107
12897270 3 18131075952012523892
12932764 1 18041285365769742661
14390081 3 18408604781306546864
170605 34 18338237184333446356
19973954 147 18201163152362333041
21040471 1 17458918123054168418
23552423 10 18339367357337064223
24536 1 18059851706141782488
29004967 10 17489305269838983986
3248919 1 18059569153239037337
5084963 1 17775573004718442278
5460574 1 9223238446302848769
8030462 33 17749394741115541391

>  <PUBCHEM_SHAPE_MULTIPOLES>  (1) 
162.63
4.32
1.19
0.97
2.85
0.17
0.01
0.14
-0.02
-0.21
-0.01
-0.71
-0.34
-0.01

>  <PUBCHEM_SHAPE_SELFOVERLAP>  (1) 
299.997

>  <PUBCHEM_SHAPE_VOLUME>  (1) 
104.9

>  <PUBCHEM_COORDINATE_TYPE>  (1) 
2
5
10

$$$$
