13550
     RDKit          3D

  8  7  0  0  0  0  0  0  0  0999 V2000
    0.1273    0.4680    0.0026 O   0  0  0  0  0  0  0  0  0  0  0  0
   -1.1636   -1.4488    0.0012 O   0  0  0  0  0  0  0  0  0  0  0  0
    2.5158    0.6252    0.0052 C   0  0  0  0  0  0  0  0  0  0  0  0
    1.3162   -0.3100    0.0039 C   0  0  0  0  0  0  0  0  0  0  0  0
    3.8275   -0.1388   -0.0086 C   0  0  0  0  0  0  0  0  0  0  0  0
   -1.0433   -0.2339    0.0013 C   0  0  0  0  0  0  0  0  0  0  0  0
   -2.1580    0.7359   -0.0017 C   0  0  0  0  0  0  0  0  0  0  0  0
   -3.4218    0.3024   -0.0039 C   0  0  0  0  0  0  0  0  0  0  0  0
  1  4  1  0
  1  6  1  0
  2  6  2  0
  3  4  1  0
  3  5  1  0
  6  7  1  0
  7  8  2  0
M  END
>  <PUBCHEM_COMPOUND_CID>  (1) 
13550

>  <PUBCHEM_CONFORMER_RMSD>  (1) 
0.6

>  <PUBCHEM_CONFORMER_DIVERSEORDER>  (1) 
1
26
18
28
23
24
22
31
27
13
11
19
4
5
8
30
32
25
9
17
7
21
15
12
16
2
29
10
20
14
3
6

>  <PUBCHEM_MMFF94_PARTIAL_CHARGES>  (1) 
9
1 -0.43
16 0.15
17 0.15
18 0.15
2 -0.57
4 0.28
6 0.71
7 -0.14
8 -0.3

>  <PUBCHEM_EFFECTIVE_ROTOR_COUNT>  (1) 
4

>  <PUBCHEM_PHARMACOPHORE_FEATURES>  (1) 
3
1 2 acceptor
1 5 hydrophobe
1 8 hydrophobe

>  <PUBCHEM_HEAVY_ATOM_COUNT>  (1) 
8

>  <PUBCHEM_ATOM_DEF_STEREO_COUNT>  (1) 
0

>  <PUBCHEM_ATOM_UDEF_STEREO_COUNT>  (1) 
0

>  <PUBCHEM_BOND_DEF_STEREO_COUNT>  (1) 
0

>  <PUBCHEM_BOND_UDEF_STEREO_COUNT>  (1) 
0

>  <PUBCHEM_ISOTOPIC_ATOM_COUNT>  (1) 
0

>  <PUBCHEM_COMPONENT_COUNT>  (1) 
1

>  <PUBCHEM_CACTVS_TAUTO_COUNT>  (1) 
1

>  <PUBCHEM_CONFORMER_ID>  (1) 
000034EE00000001

>  <PUBCHEM_MMFF94_ENERGY>  (1) 
7.1127

>  <PUBCHEM_FEATURE_SELFOVERLAP>  (1) 
15.223

>  <PUBCHEM_SHAPE_FINGERPRINT>  (1) 
11062470 55 14045740417503367000
12932764 1 16950550117316392156
14325111 11 18410856534096852097
14390081 3 18272367576895407552
23235685 24 18341889675665738557
29004967 10 14851603267294088732
3248919 1 16630257986393660512
5460574 1 9295287244231988705

>  <PUBCHEM_SHAPE_MULTIPOLES>  (1) 
152.9
6.13
0.97
0.59
2.3
0.21
0
-0.75
0.02
-0.25
0
0.01
-0.01
0

>  <PUBCHEM_SHAPE_SELFOVERLAP>  (1) 
279.259

>  <PUBCHEM_SHAPE_VOLUME>  (1) 
97.5

>  <PUBCHEM_COORDINATE_TYPE>  (1) 
2
5
10

$$$$
