13552
     RDKit          3D

  9  8  0  0  0  0  0  0  0  0999 V2000
   -0.7731   -0.3498    0.0009 O   0  0  0  0  0  0  0  0  0  0  0  0
   -2.3982    1.2923    0.0064 O   0  0  0  0  0  0  0  0  0  0  0  0
    1.6461   -0.0015    0.0011 C   0  0  0  0  0  0  0  0  0  0  0  0
    0.2453    0.6426    0.0035 C   0  0  0  0  0  0  0  0  0  0  0  0
    2.7329    1.0866    0.0048 C   0  0  0  0  0  0  0  0  0  0  0  0
    1.7975   -0.8633   -1.2624 C   0  0  0  0  0  0  0  0  0  0  0  0
    1.8265   -0.8896    1.2439 C   0  0  0  0  0  0  0  0  0  0  0  0
   -2.0585    0.1168    0.0027 C   0  0  0  0  0  0  0  0  0  0  0  0
   -3.0185   -1.0341   -0.0009 C   0  0  0  0  0  0  0  0  0  0  0  0
  1  4  1  0
  1  8  1  0
  2  8  2  0
  3  4  1  0
  3  5  1  0
  3  6  1  0
  3  7  1  0
  8  9  1  0
M  END
>  <PUBCHEM_COMPOUND_CID>  (1) 
13552

>  <PUBCHEM_CONFORMER_RMSD>  (1) 
0.6

>  <PUBCHEM_CONFORMER_DIVERSEORDER>  (1) 
1
7
2
6
5
4
3

>  <PUBCHEM_MMFF94_PARTIAL_CHARGES>  (1) 
5
1 -0.43
2 -0.57
4 0.28
8 0.66
9 0.06

>  <PUBCHEM_EFFECTIVE_ROTOR_COUNT>  (1) 
3

>  <PUBCHEM_PHARMACOPHORE_FEATURES>  (1) 
2
1 2 acceptor
4 3 5 6 7 hydrophobe

>  <PUBCHEM_HEAVY_ATOM_COUNT>  (1) 
9

>  <PUBCHEM_ATOM_DEF_STEREO_COUNT>  (1) 
0

>  <PUBCHEM_ATOM_UDEF_STEREO_COUNT>  (1) 
0

>  <PUBCHEM_BOND_DEF_STEREO_COUNT>  (1) 
0

>  <PUBCHEM_BOND_UDEF_STEREO_COUNT>  (1) 
0

>  <PUBCHEM_ISOTOPIC_ATOM_COUNT>  (1) 
0

>  <PUBCHEM_COMPONENT_COUNT>  (1) 
1

>  <PUBCHEM_CACTVS_TAUTO_COUNT>  (1) 
1

>  <PUBCHEM_CONFORMER_ID>  (1) 
000034F000000001

>  <PUBCHEM_MMFF94_ENERGY>  (1) 
15.7112

>  <PUBCHEM_FEATURE_SELFOVERLAP>  (1) 
10.148

>  <PUBCHEM_SHAPE_FINGERPRINT>  (1) 
10857977 72 18131344250177068651
12897270 3 18131357422683704748
12932764 1 18041284270553056197
14325111 11 18410573993778367465
14390081 3 18408603673247176017
15310529 11 17917715707720558205
170605 34 18338237184333433364
19973954 147 18200881690328520553
23552423 10 18261396611297770159
29004967 10 17632577141028247986
3248919 1 18059569153239011353
5084963 1 17775574121473275255
8030462 33 17821452343769823147

>  <PUBCHEM_SHAPE_MULTIPOLES>  (1) 
173.48
4.7
1.24
0.97
2.36
0.11
0.01
0
-0.02
0.03
-0.01
-0.66
-0.34
-0.01

>  <PUBCHEM_SHAPE_SELFOVERLAP>  (1) 
320.308

>  <PUBCHEM_SHAPE_VOLUME>  (1) 
111.3

>  <PUBCHEM_COORDINATE_TYPE>  (1) 
2
5
10

$$$$
