13551
     RDKit          3D

  8  7  0  0  0  0  0  0  0  0999 V2000
    1.1555    0.0779    0.0976 S   0  0  0  0  0  0  0  0  0  0  0  0
   -0.2729   -0.6319   -0.2562 O   0  0  0  0  0  0  0  0  0  0  0  0
    1.4606   -0.1275    1.4989 O   0  0  0  0  0  0  0  0  0  0  0  0
    1.2057    1.3898   -0.5152 O   0  0  0  0  0  0  0  0  0  0  0  0
   -1.4605   -0.0908    0.3017 C   0  0  0  0  0  0  0  0  0  0  0  0
   -1.6179    1.3506   -0.1580 C   0  0  0  0  0  0  0  0  0  0  0  0
   -2.6452   -0.9504   -0.1123 C   0  0  0  0  0  0  0  0  0  0  0  0
    2.1747   -1.0177   -0.8565 C   0  0  0  0  0  0  0  0  0  0  0  0
  1  2  1  0
  1  3  2  0
  1  4  2  0
  1  8  1  0
  2  5  1  0
  5  6  1  0
  5  7  1  0
M  END
>  <PUBCHEM_COMPOUND_CID>  (1) 
13551

>  <PUBCHEM_CONFORMER_RMSD>  (1) 
0.4

>  <PUBCHEM_CONFORMER_DIVERSEORDER>  (1) 
1
2
4
5
3

>  <PUBCHEM_MMFF94_PARTIAL_CHARGES>  (1) 
6
1 1.38
2 -0.46
3 -0.65
4 -0.65
5 0.28
8 0.11

>  <PUBCHEM_EFFECTIVE_ROTOR_COUNT>  (1) 
2

>  <PUBCHEM_PHARMACOPHORE_FEATURES>  (1) 
3
1 3 acceptor
1 4 acceptor
3 5 6 7 hydrophobe

>  <PUBCHEM_HEAVY_ATOM_COUNT>  (1) 
8

>  <PUBCHEM_ATOM_DEF_STEREO_COUNT>  (1) 
0

>  <PUBCHEM_ATOM_UDEF_STEREO_COUNT>  (1) 
0

>  <PUBCHEM_BOND_DEF_STEREO_COUNT>  (1) 
0

>  <PUBCHEM_BOND_UDEF_STEREO_COUNT>  (1) 
0

>  <PUBCHEM_ISOTOPIC_ATOM_COUNT>  (1) 
0

>  <PUBCHEM_COMPONENT_COUNT>  (1) 
1

>  <PUBCHEM_CACTVS_TAUTO_COUNT>  (1) 
1

>  <PUBCHEM_CONFORMER_ID>  (1) 
000034EF00000001

>  <PUBCHEM_MMFF94_ENERGY>  (1) 
7.9854

>  <PUBCHEM_FEATURE_SELFOVERLAP>  (1) 
15.239

>  <PUBCHEM_SHAPE_FINGERPRINT>  (1) 
12932741 1 17988351577347011693
12932764 1 17385721417974657015
14390081 3 11025800920198355783
16714656 1 18047764701766267332
21040471 1 17976251336056603717
23552423 10 18408046212409561239
23552449 11 18041828627471610449
24536 1 18412536609244062821
29004967 10 16486696853241202654
5084963 1 18201726141096794155

>  <PUBCHEM_SHAPE_MULTIPOLES>  (1) 
150.88
3.41
1.34
0.96
0.8
0.26
-0.28
-0.92
0.31
0.21
0.29
-0.5
-0.01
0.19

>  <PUBCHEM_SHAPE_SELFOVERLAP>  (1) 
263.606

>  <PUBCHEM_SHAPE_VOLUME>  (1) 
101.1

>  <PUBCHEM_COORDINATE_TYPE>  (1) 
2
5
10

$$$$
