13558
     RDKit          3D

  9  8  0  0  1  0  0  0  0  0999 V2000
    0.2637    0.5553    0.4398 C   0  0  0  0  0  0  0  0  0  0  0  0
   -1.2387    0.1865    0.4859 C   0  0  0  0  0  0  0  0  0  0  0  0
    1.2326   -0.5509   -0.0358 C   0  0  0  0  0  0  0  0  0  0  0  0
   -1.7660   -0.2384   -0.8987 C   0  0  0  0  0  0  0  0  0  0  0  0
    2.6973   -0.0602   -0.0332 C   0  0  0  0  0  0  0  0  0  0  0  0
   -2.0222    1.3806    1.0477 C   0  0  0  0  0  0  0  0  0  0  0  0
    1.1315   -1.8104    0.8315 C   0  0  0  0  0  0  0  0  0  0  0  0
   -3.2435   -0.6079   -0.9083 C   0  0  0  0  0  0  0  0  0  0  0  0
    2.9454    1.1454   -0.9289 C   0  0  0  0  0  0  0  0  0  0  0  0
  1  2  1  0
  1  3  1  0
  2  4  1  0
  2  6  1  0
  3  5  1  0
  3  7  1  0
  4  8  1  0
  5  9  1  0
M  END
>  <PUBCHEM_COMPOUND_CID>  (1) 
13558

>  <PUBCHEM_CONFORMER_RMSD>  (1) 
0.6

>  <PUBCHEM_CONFORMER_DIVERSEORDER>  (1) 
1
22
16
9
8
3
2
18
21
19
10
24
12
4
17
13
5
15
11
7
23
6
20
14

>  <PUBCHEM_MMFF94_PARTIAL_CHARGES>  (1) 
0

>  <PUBCHEM_EFFECTIVE_ROTOR_COUNT>  (1) 
4

>  <PUBCHEM_PHARMACOPHORE_FEATURES>  (1) 
5
1 6 hydrophobe
1 7 hydrophobe
1 8 hydrophobe
1 9 hydrophobe
5 1 2 3 4 5 hydrophobe

>  <PUBCHEM_HEAVY_ATOM_COUNT>  (1) 
9

>  <PUBCHEM_ATOM_DEF_STEREO_COUNT>  (1) 
0

>  <PUBCHEM_ATOM_UDEF_STEREO_COUNT>  (1) 
2

>  <PUBCHEM_BOND_DEF_STEREO_COUNT>  (1) 
0

>  <PUBCHEM_BOND_UDEF_STEREO_COUNT>  (1) 
0

>  <PUBCHEM_ISOTOPIC_ATOM_COUNT>  (1) 
0

>  <PUBCHEM_COMPONENT_COUNT>  (1) 
1

>  <PUBCHEM_CACTVS_TAUTO_COUNT>  (1) 
1

>  <PUBCHEM_CONFORMER_ID>  (1) 
000034F600000001

>  <PUBCHEM_MMFF94_ENERGY>  (1) 
7.6426

>  <PUBCHEM_FEATURE_SELFOVERLAP>  (1) 
25.47

>  <PUBCHEM_SHAPE_FINGERPRINT>  (1) 
124424 183 15791720889589188688
12897270 3 18259979392285773711
12932741 1 16226054335989452682
12932764 1 18060422382641155921
15310529 11 18188478108566988399
18342897 55 18114179782524194172
20645464 45 15864073148105540945
20711985 344 17489586732321293361
21040471 1 17129020456608634097
21293036 1 18337106885952571604
228727 97 18343586265141518001
23211744 25 18272652389240841168
23211744 41 16515413983797755656
23552423 10 18197216949374758951
29004967 10 17458920223018830592
3248919 1 18334296452785892082
5084963 1 18408877430473286062
528716 315 18131077072898566685
8030462 33 18342453725146592491

>  <PUBCHEM_SHAPE_MULTIPOLES>  (1) 
185.22
4.85
1.46
1.14
0.14
0.23
-0.04
-0.58
-1.62
-0.32
0.36
0.36
-0.08
-1.11

>  <PUBCHEM_SHAPE_SELFOVERLAP>  (1) 
326.347

>  <PUBCHEM_SHAPE_VOLUME>  (1) 
124

>  <PUBCHEM_COORDINATE_TYPE>  (1) 
2
5
10

$$$$
