13569
     RDKit          3D

  6  5  0  0  0  0  0  0  0  0999 V2000
   -2.5414   -1.0688    0.2066 Cl  0  0  0  0  0  0  0  0  0  0  0  0
    2.8181   -0.6036   -0.1482 O   0  0  0  0  0  0  0  0  0  0  0  0
    0.4797   -0.0889   -0.2247 C   0  0  0  0  0  0  0  0  0  0  0  0
   -0.6137    0.8839    0.2182 C   0  0  0  0  0  0  0  0  0  0  0  0
    1.8495    0.3431    0.2815 C   0  0  0  0  0  0  0  0  0  0  0  0
   -1.9922    0.5344   -0.3332 C   0  0  0  0  0  0  0  0  0  0  0  0
  1  6  1  0
  2  5  1  0
  3  4  1  0
  3  5  1  0
  4  6  1  0
M  END
>  <PUBCHEM_COMPOUND_CID>  (1) 
13569

>  <PUBCHEM_CONFORMER_RMSD>  (1) 
0.4

>  <PUBCHEM_CONFORMER_DIVERSEORDER>  (1) 
1
21
16
19
15
2
17
18
3
20
13
7
14
6
12
10
8
4
9
11
5

>  <PUBCHEM_MMFF94_PARTIAL_CHARGES>  (1) 
5
1 -0.29
15 0.4
2 -0.68
5 0.28
6 0.29

>  <PUBCHEM_EFFECTIVE_ROTOR_COUNT>  (1) 
3

>  <PUBCHEM_PHARMACOPHORE_FEATURES>  (1) 
2
1 2 acceptor
1 2 donor

>  <PUBCHEM_HEAVY_ATOM_COUNT>  (1) 
6

>  <PUBCHEM_ATOM_DEF_STEREO_COUNT>  (1) 
0

>  <PUBCHEM_ATOM_UDEF_STEREO_COUNT>  (1) 
0

>  <PUBCHEM_BOND_DEF_STEREO_COUNT>  (1) 
0

>  <PUBCHEM_BOND_UDEF_STEREO_COUNT>  (1) 
0

>  <PUBCHEM_ISOTOPIC_ATOM_COUNT>  (1) 
0

>  <PUBCHEM_COMPONENT_COUNT>  (1) 
1

>  <PUBCHEM_CACTVS_TAUTO_COUNT>  (1) 
1

>  <PUBCHEM_CONFORMER_ID>  (1) 
0000350100000001

>  <PUBCHEM_MMFF94_ENERGY>  (1) 
0.8408

>  <PUBCHEM_FEATURE_SELFOVERLAP>  (1) 
10.148

>  <PUBCHEM_SHAPE_FINGERPRINT>  (1) 
12932741 1 18340473521827081101
139733 1 9223240645579376881
14390081 3 8935003659251470031
16714656 1 18334856121500343567
29004967 10 17846500339462918993
5460574 1 9223228555098706620

>  <PUBCHEM_SHAPE_MULTIPOLES>  (1) 
119.48
4.15
1.07
0.67
0.93
0.06
-0.01
1.35
0
-0.45
-0.04
-0.07
-0.02
0.2

>  <PUBCHEM_SHAPE_SELFOVERLAP>  (1) 
196.179

>  <PUBCHEM_SHAPE_VOLUME>  (1) 
83.2

>  <PUBCHEM_COORDINATE_TYPE>  (1) 
2
5
10

$$$$
