13568
     RDKit          3D

  6  5  0  0  0  0  0  0  0  0999 V2000
    2.0684    0.4718    0.0241 C   0  0  0  0  0  0  0  0  0  0  0  0
   -2.0683    0.4718   -0.0245 C   0  0  0  0  0  0  0  0  0  0  0  0
    2.6211   -0.9425   -0.0208 C   0  0  0  0  0  0  0  0  0  0  0  0
   -2.6212   -0.9425    0.0208 C   0  0  0  0  0  0  0  0  0  0  0  0
    0.6005    0.4707    0.0073 C   0  0  0  0  0  0  0  0  0  0  0  0
   -0.6005    0.4706   -0.0069 C   0  0  0  0  0  0  0  0  0  0  0  0
  1  3  1  0
  1  5  1  0
  2  4  1  0
  2  6  1  0
  5  6  3  0
M  END
>  <PUBCHEM_COMPOUND_CID>  (1) 
13568

>  <PUBCHEM_CONFORMER_RMSD>  (1) 
0.4

>  <PUBCHEM_CONFORMER_DIVERSEORDER>  (1) 
1

>  <PUBCHEM_MMFF94_PARTIAL_CHARGES>  (1) 
4
1 0.2
2 0.2
5 -0.2
6 -0.2

>  <PUBCHEM_EFFECTIVE_ROTOR_COUNT>  (1) 
0

>  <PUBCHEM_PHARMACOPHORE_FEATURES>  (1) 
2
1 3 hydrophobe
1 4 hydrophobe

>  <PUBCHEM_HEAVY_ATOM_COUNT>  (1) 
6

>  <PUBCHEM_ATOM_DEF_STEREO_COUNT>  (1) 
0

>  <PUBCHEM_ATOM_UDEF_STEREO_COUNT>  (1) 
0

>  <PUBCHEM_BOND_DEF_STEREO_COUNT>  (1) 
0

>  <PUBCHEM_BOND_UDEF_STEREO_COUNT>  (1) 
0

>  <PUBCHEM_ISOTOPIC_ATOM_COUNT>  (1) 
0

>  <PUBCHEM_COMPONENT_COUNT>  (1) 
1

>  <PUBCHEM_CACTVS_TAUTO_COUNT>  (1) 
1

>  <PUBCHEM_CONFORMER_ID>  (1) 
0000350000000001

>  <PUBCHEM_MMFF94_ENERGY>  (1) 
-3.7093

>  <PUBCHEM_FEATURE_SELFOVERLAP>  (1) 
10.149

>  <PUBCHEM_SHAPE_FINGERPRINT>  (1) 
20096714 4 9295283941502319404
23552423 10 18186804668653671862
29004967 10 18131350812744724080
5460574 1 9295292741763792800

>  <PUBCHEM_SHAPE_MULTIPOLES>  (1) 
123.48
4.45
1.06
0.62
0
0.21
0
1.43
0
0
0
0
0
0.03

>  <PUBCHEM_SHAPE_SELFOVERLAP>  (1) 
214.944

>  <PUBCHEM_SHAPE_VOLUME>  (1) 
80

>  <PUBCHEM_COORDINATE_TYPE>  (1) 
2
5
10

$$$$
