13570
     RDKit          3D

  6  5  0  0  0  0  0  0  0  0999 V2000
   -0.6434   -0.3912    0.0051 O   0  0  0  0  0  0  0  0  0  0  0  0
   -1.7050    0.5502    0.0035 C   0  0  0  0  0  0  0  0  0  0  0  0
   -3.0235   -0.1935   -0.0063 C   0  0  0  0  0  0  0  0  0  0  0  0
    0.5728    0.2329    0.0005 C   0  0  0  0  0  0  0  0  0  0  0  0
    1.7318   -0.4317    0.0009 C   0  0  0  0  0  0  0  0  0  0  0  0
    3.0674    0.2333   -0.0038 C   0  0  0  0  0  0  0  0  0  0  0  0
  1  2  1  0
  1  4  1  0
  2  3  1  0
  4  5  2  0
  5  6  1  0
M  END
>  <PUBCHEM_COMPOUND_CID>  (1) 
13570

>  <PUBCHEM_CONFORMER_RMSD>  (1) 
0.4

>  <PUBCHEM_CONFORMER_DIVERSEORDER>  (1) 
1
2
4
3

>  <PUBCHEM_MMFF94_PARTIAL_CHARGES>  (1) 
7
1 -0.36
12 0.15
13 0.15
2 0.28
4 -0.07
5 -0.29
6 0.14

>  <PUBCHEM_EFFECTIVE_ROTOR_COUNT>  (1) 
2

>  <PUBCHEM_PHARMACOPHORE_FEATURES>  (1) 
2
1 1 acceptor
1 6 hydrophobe

>  <PUBCHEM_HEAVY_ATOM_COUNT>  (1) 
6

>  <PUBCHEM_ATOM_DEF_STEREO_COUNT>  (1) 
0

>  <PUBCHEM_ATOM_UDEF_STEREO_COUNT>  (1) 
0

>  <PUBCHEM_BOND_DEF_STEREO_COUNT>  (1) 
0

>  <PUBCHEM_BOND_UDEF_STEREO_COUNT>  (1) 
1

>  <PUBCHEM_ISOTOPIC_ATOM_COUNT>  (1) 
0

>  <PUBCHEM_COMPONENT_COUNT>  (1) 
1

>  <PUBCHEM_CACTVS_TAUTO_COUNT>  (1) 
1

>  <PUBCHEM_CONFORMER_ID>  (1) 
0000350200000001

>  <PUBCHEM_MMFF94_ENERGY>  (1) 
6.229

>  <PUBCHEM_FEATURE_SELFOVERLAP>  (1) 
10.148

>  <PUBCHEM_SHAPE_FINGERPRINT>  (1) 
11062470 55 15502373430713260815
14325111 11 18410575067493837187
14390081 3 18342173366972421448
29004967 10 18410579474198796362
5460574 1 9223230749615894336

>  <PUBCHEM_SHAPE_MULTIPOLES>  (1) 
117.61
4.99
0.73
0.6
0.14
0.02
0
0.04
0.01
0.02
0
-0.01
0.01
0

>  <PUBCHEM_SHAPE_SELFOVERLAP>  (1) 
203.523

>  <PUBCHEM_SHAPE_VOLUME>  (1) 
78.9

>  <PUBCHEM_COORDINATE_TYPE>  (1) 
2
5
10

$$$$
