1357
     RDKit          3D

 34 36  0  0  1  0  0  0  0  0999 V2000
   -3.3521   -1.4841    1.3799 S   0  0  0  0  0  0  0  0  0  0  0  0
    2.4841   -3.8114   -0.7187 O   0  0  0  0  0  0  0  0  0  0  0  0
   -0.4535   -4.0639    0.0318 O   0  0  0  0  0  0  0  0  0  0  0  0
   -2.1890   -1.0330    2.1200 O   0  0  0  0  0  0  0  0  0  0  0  0
   -4.5069   -2.0082    2.0837 O   0  0  0  0  0  0  0  0  0  0  0  0
    1.0498   -2.2750   -1.6999 N   0  0  0  0  0  0  0  0  0  0  0  0
   -2.8713   -2.6097    0.2027 N   0  0  0  0  0  0  0  0  0  0  0  0
   -5.0637   -0.4349   -0.2487 N   0  0  0  0  0  0  0  0  0  0  0  0
    3.0553   -1.4514   -0.6032 C   0  0  0  0  0  0  0  0  0  0  0  0
    4.3458   -1.9267    0.1030 C   0  0  0  0  0  0  0  0  0  0  0  0
    5.3783   -0.8208    0.4103 C   0  0  0  0  0  0  0  0  0  0  0  0
    2.2459   -0.4817    0.2408 C   0  0  0  0  0  0  0  0  0  0  0  0
    2.1894   -2.6521   -1.0027 C   0  0  0  0  0  0  0  0  0  0  0  0
    5.7543   -0.0946   -0.8849 C   0  0  0  0  0  0  0  0  0  0  0  0
    4.8651    0.1917    1.4351 C   0  0  0  0  0  0  0  0  0  0  0  0
    0.0764   -3.2318   -2.1708 C   0  0  0  0  0  0  0  0  0  0  0  0
    2.0039    0.7890   -0.2433 C   0  0  0  0  0  0  0  0  0  0  0  0
   -1.0286   -3.5078   -1.1506 C   0  0  0  0  0  0  0  0  0  0  0  0
    1.7757   -0.8978    1.4712 C   0  0  0  0  0  0  0  0  0  0  0  0
    1.2622    1.6790    0.5335 C   0  0  0  0  0  0  0  0  0  0  0  0
   -1.8107   -2.2529   -0.7698 C   0  0  0  0  0  0  0  0  0  0  0  0
    1.0339   -0.0079    2.2481 C   0  0  0  0  0  0  0  0  0  0  0  0
    0.7772    1.2805    1.7792 C   0  0  0  0  0  0  0  0  0  0  0  0
    0.9958    3.0156    0.0474 C   0  0  0  0  0  0  0  0  0  0  0  0
   -0.1493    3.2676   -0.7081 C   0  0  0  0  0  0  0  0  0  0  0  0
    1.8841    4.0518    0.3345 C   0  0  0  0  0  0  0  0  0  0  0  0
   -3.9216   -0.1378    0.3860 C   0  0  0  0  0  0  0  0  0  0  0  0
   -0.4061    4.5562   -1.1766 C   0  0  0  0  0  0  0  0  0  0  0  0
    1.6272    5.3404   -0.1340 C   0  0  0  0  0  0  0  0  0  0  0  0
    0.4822    5.5924   -0.8895 C   0  0  0  0  0  0  0  0  0  0  0  0
   -3.2355    1.0444    0.3122 C   0  0  0  0  0  0  0  0  0  0  0  0
   -3.7771    2.0339   -0.5009 C   0  0  0  0  0  0  0  0  0  0  0  0
   -5.5598    0.5508   -1.0297 C   0  0  0  0  0  0  0  0  0  0  0  0
   -4.9612    1.7902   -1.1881 C   0  0  0  0  0  0  0  0  0  0  0  0
  1  4  2  0
  1  5  2  0
  1  7  1  0
  1 27  1  0
  2 13  2  0
  3 18  1  0
  6 13  1  0
  6 16  1  0
  7 21  1  0
  8 27  2  0
  8 33  1  0
  9 10  1  0
  9 12  1  0
  9 13  1  0
 10 11  1  0
 11 14  1  0
 11 15  1  0
 12 17  2  0
 12 19  1  0
 16 18  1  0
 17 20  1  0
 18 21  1  0
 19 22  2  0
 20 23  2  0
 20 24  1  0
 22 23  1  0
 24 25  2  0
 24 26  1  0
 25 28  1  0
 26 29  2  0
 27 31  1  0
 28 30  2  0
 29 30  1  0
 31 32  2  0
 32 34  1  0
 33 34  2  0
M  END
>  <PUBCHEM_COMPOUND_CID>  (1) 
1357

>  <PUBCHEM_CONFORMER_RMSD>  (1) 
1.4

>  <PUBCHEM_CONFORMER_DIVERSEORDER>  (1) 
1
57
69
267
109
84
2
286
386
133
364
325
291
299
76
393
68
408
189
144
101
138
171
388
4
47
177
67
269
395
39
80
77
55
196
378
255
123
89
387
301
219
22
282
60
271
353
334
99
399
208
74
276
382
333
421
26
118
384
93
422
50
195
236
231
46
247
209
147
294
197
436
159
372
149
37
8
310
362
329
385
323
168
246
446
222
113
437
279
285
95
17
70
107
347
27
402
30
163
375
160
336
305
440
258
82
307
98
164
154
129
192
430
59
256
367
23
358
270
263
61
363
379
226
157
304
381
359
174
260
54
36
290
244
202
257
392
447
348
328
9
53
187
81
240
179
198
62
232
78
151
75
265
405
340
230
128
86
204
331
182
298
349
322
111
72
397
418
344
438
19
411
24
145
122
389
137
110
250
373
439
85
66
216
166
38
355
210
218
346
319
227
14
15
162
185
339
200
426
251
135
41
332
172
396
35
125
139
415
104
33
176
266
92
443
188
152
239
214
264
34
281
161
369
141
425
293
410
398
31
105
228
91
312
121
42
205
115
292
186
130
6
3
303
259
165
400
87
406
441
173
444
311
433
314
261
390
376
321
351
297
134
278
12
341
88
155
306
434
316
21
7
153
283
43
124
48
119
284
275
249
326
371
360
435
191
51
243
11
248
217
215
201
233
56
350
289
370
423
97
448
94
317
431
225
143
220
16
302
167
237
416
374
126
412
44
366
238
357
318
274
380
100
272
25
156
345
58
49
320
52
120
132
71
432
296
403
223
206
253
245
158
96
234
79
10
356
142
235
193
212
445
420
181
401
175
241
108
83
365
140
409
90
407
103
5
335
287
127
442
194
20
354
40
64
327
288
427
394
169
180
65
106
73
183
114
413
337
262
213
277
170
383
211
117
429
184
308
414
309
207
148
102
13
361
254
221
419
146
199
116
391
45
342
18
29
242
295
280
150
178
315
131
300
224
368
190
330
377
252
324
32
273
268
338
136
313
428
112
343
28
203
404
417
229
352
63
424

>  <PUBCHEM_MMFF94_PARTIAL_CHARGES>  (1) 
44
1 1.45
12 -0.14
13 0.57
16 0.3
17 -0.15
18 0.28
19 -0.15
2 -0.57
21 0.36
22 -0.15
23 -0.15
25 -0.15
26 -0.15
27 0.3
28 -0.15
29 -0.15
3 -0.68
30 -0.15
31 -0.15
32 -0.15
33 0.16
34 -0.15
4 -0.65
47 0.37
48 0.15
5 -0.65
50 0.15
53 0.15
54 0.15
55 0.42
56 0.4
57 0.15
58 0.15
59 0.15
6 -0.73
60 0.15
61 0.15
62 0.15
63 0.15
64 0.15
65 0.15
7 -0.91
8 -0.62
9 0.2

>  <PUBCHEM_EFFECTIVE_ROTOR_COUNT>  (1) 
12

>  <PUBCHEM_PHARMACOPHORE_FEATURES>  (1) 
12
1 2 acceptor
1 3 acceptor
1 3 donor
1 4 acceptor
1 5 acceptor
1 6 donor
1 7 donor
1 8 acceptor
3 11 14 15 hydrophobe
6 12 17 19 20 22 23 rings
6 24 25 26 28 29 30 rings
6 8 27 31 32 33 34 rings

>  <PUBCHEM_HEAVY_ATOM_COUNT>  (1) 
34

>  <PUBCHEM_ATOM_DEF_STEREO_COUNT>  (1) 
0

>  <PUBCHEM_ATOM_UDEF_STEREO_COUNT>  (1) 
2

>  <PUBCHEM_BOND_DEF_STEREO_COUNT>  (1) 
0

>  <PUBCHEM_BOND_UDEF_STEREO_COUNT>  (1) 
0

>  <PUBCHEM_ISOTOPIC_ATOM_COUNT>  (1) 
0

>  <PUBCHEM_COMPONENT_COUNT>  (1) 
1

>  <PUBCHEM_CACTVS_TAUTO_COUNT>  (1) 
2

>  <PUBCHEM_CONFORMER_ID>  (1) 
0000054D00000001

>  <PUBCHEM_MMFF94_ENERGY>  (1) 
74.8883

>  <PUBCHEM_FEATURE_SELFOVERLAP>  (1) 
60.924

>  <PUBCHEM_SHAPE_FINGERPRINT>  (1) 
10653451 467 18270099298062854680
10675989 125 17326888474886596229
10838868 49 17898822718058938794
11513181 2 17905606953831772172
11828532 37 17749967673464964203
12107698 1 18189614015858712571
12156800 1 15234465667328258519
12422481 6 18054760010282016608
12633046 712 17677311892681210307
12788726 201 18044092363400572248
13402501 40 18339638924256655503
13560911 43 18265608956609214419
14295345 954 18265039405311625461
14725015 67 17762048848920920739
17921350 177 18261661623907395951
19319366 153 17168983379314849145
20764821 26 17254260234440219157
21285901 2 18127125264910099533
23559900 14 18409158940211142497
340366 18 18340766056360123875
4066623 53 17473525972837971965
4280585 95 18334566915598967936
46194498 28 18264497358921744907
5252454 2 17553215693474425481
6004065 56 18340753885082495957

>  <PUBCHEM_SHAPE_MULTIPOLES>  (1) 
665.13
10.01
7.1
1.8
3.28
8.08
-0.55
-3.07
-0.12
-1.32
3.22
0.4
-0.93
1.73

>  <PUBCHEM_SHAPE_SELFOVERLAP>  (1) 
1392.495

>  <PUBCHEM_SHAPE_VOLUME>  (1) 
376.9

>  <PUBCHEM_COORDINATE_TYPE>  (1) 
2
5
10

$$$$
