13581
     RDKit          3D

  9  8  0  0  0  0  0  0  0  0999 V2000
   -1.1635   -0.3655   -0.0121 O   0  0  0  0  0  0  0  0  0  0  0  0
    2.3821    0.4109   -0.1643 O   0  0  0  0  0  0  0  0  0  0  0  0
   -4.7448    0.2453    0.0859 O   0  0  0  0  0  0  0  0  0  0  0  0
   -0.0098    0.4611   -0.0778 C   0  0  0  0  0  0  0  0  0  0  0  0
   -2.3582    0.4067   -0.0089 C   0  0  0  0  0  0  0  0  0  0  0  0
    1.2276   -0.4157   -0.0780 C   0  0  0  0  0  0  0  0  0  0  0  0
   -3.5508   -0.5274    0.0621 C   0  0  0  0  0  0  0  0  0  0  0  0
    3.5243   -0.3179   -0.1476 C   0  0  0  0  0  0  0  0  0  0  0  0
    4.6931    0.1026    0.3408 C   0  0  0  0  0  0  0  0  0  0  0  0
  1  4  1  0
  1  5  1  0
  2  6  1  0
  2  8  1  0
  3  7  1  0
  4  6  1  0
  5  7  1  0
  8  9  2  0
M  END
>  <PUBCHEM_COMPOUND_CID>  (1) 
13581

>  <PUBCHEM_CONFORMER_RMSD>  (1) 
0.6

>  <PUBCHEM_CONFORMER_DIVERSEORDER>  (1) 
5
111
97
87
16
61
41
54
94
116
33
56
4
89
19
115
24
95
100
64
47
104
13
102
9
108
72
3
109
57
117
85
105
42
30
71
73
101
103
15
26
99
63
98
60
8
80
88
112
58
46
20
12
28
92
35
84
114
66
110
6
49
79
106
37
113
107
29
96
17
22
90
69
65
82
10
91
2
59
34
83
67
78
1
53
43
62
81
70
23
86
77
36
76
31
40
38
51
39
93
14
27
18
11
44
50
75
7
48
21
25
52
55
68
32
74
45

>  <PUBCHEM_MMFF94_PARTIAL_CHARGES>  (1) 
13
1 -0.56
18 0.4
19 0.15
2 -0.36
20 0.15
21 0.15
3 -0.68
4 0.28
5 0.28
6 0.28
7 0.28
8 -0.07
9 -0.3

>  <PUBCHEM_EFFECTIVE_ROTOR_COUNT>  (1) 
6

>  <PUBCHEM_PHARMACOPHORE_FEATURES>  (1) 
4
1 1 acceptor
1 2 acceptor
1 3 acceptor
1 3 donor

>  <PUBCHEM_HEAVY_ATOM_COUNT>  (1) 
9

>  <PUBCHEM_ATOM_DEF_STEREO_COUNT>  (1) 
0

>  <PUBCHEM_ATOM_UDEF_STEREO_COUNT>  (1) 
0

>  <PUBCHEM_BOND_DEF_STEREO_COUNT>  (1) 
0

>  <PUBCHEM_BOND_UDEF_STEREO_COUNT>  (1) 
0

>  <PUBCHEM_ISOTOPIC_ATOM_COUNT>  (1) 
0

>  <PUBCHEM_COMPONENT_COUNT>  (1) 
1

>  <PUBCHEM_CACTVS_TAUTO_COUNT>  (1) 
1

>  <PUBCHEM_CONFORMER_ID>  (1) 
0000350D00000005

>  <PUBCHEM_MMFF94_ENERGY>  (1) 
17.3654

>  <PUBCHEM_FEATURE_SELFOVERLAP>  (1) 
20.297

>  <PUBCHEM_SHAPE_FINGERPRINT>  (1) 
11062470 55 18411138038911480526
14123238 8 15052013472181559577
17834076 25 18411138038916748782
18342897 14 17704072893151124112
190213 19 18342741814320204406
20645477 70 8357994268190159384
20719005 15 18410293609696937254
20828058 44 18412545435433705915
22485316 2 18272367572579367191
23402539 116 18335412474515834879
42788 4 18413107259952481016

>  <PUBCHEM_SHAPE_MULTIPOLES>  (1) 
167.61
9.81
0.73
0.61
0.42
0.01
0.01
0.07
0.83
0.07
0
-0.11
0
0.04

>  <PUBCHEM_SHAPE_SELFOVERLAP>  (1) 
299.4

>  <PUBCHEM_SHAPE_VOLUME>  (1) 
108.9

>  <PUBCHEM_COORDINATE_TYPE>  (1) 
2
5
10

$$$$
