13587
     RDKit          3D

  6  6  0  0  0  0  0  0  0  0999 V2000
   -1.3931    0.6936    0.0000 O   0  0  0  0  0  0  0  0  0  0  0  0
    0.7451    0.0012    0.0001 C   0  0  0  0  0  0  0  0  0  0  0  0
   -0.0926   -1.1396    0.0001 C   0  0  0  0  0  0  0  0  0  0  0  0
    2.2180    0.0188   -0.0002 C   0  0  0  0  0  0  0  0  0  0  0  0
   -0.0938    1.0913    0.0001 C   0  0  0  0  0  0  0  0  0  0  0  0
   -1.3837   -0.6653   -0.0001 C   0  0  0  0  0  0  0  0  0  0  0  0
  1  5  1  0
  1  6  1  0
  2  3  1  0
  2  4  1  0
  2  5  2  0
  3  6  2  0
M  END
>  <PUBCHEM_COMPOUND_CID>  (1) 
13587

>  <PUBCHEM_CONFORMER_RMSD>  (1) 
0.4

>  <PUBCHEM_CONFORMER_DIVERSEORDER>  (1) 
1

>  <PUBCHEM_MMFF94_PARTIAL_CHARGES>  (1) 
9
1 -0.28
11 0.15
12 0.15
2 -0.18
3 -0.15
4 0.18
5 -0.01
6 -0.01
7 0.15

>  <PUBCHEM_EFFECTIVE_ROTOR_COUNT>  (1) 
0

>  <PUBCHEM_PHARMACOPHORE_FEATURES>  (1) 
2
1 1 acceptor
5 1 2 3 5 6 rings

>  <PUBCHEM_HEAVY_ATOM_COUNT>  (1) 
6

>  <PUBCHEM_ATOM_DEF_STEREO_COUNT>  (1) 
0

>  <PUBCHEM_ATOM_UDEF_STEREO_COUNT>  (1) 
0

>  <PUBCHEM_BOND_DEF_STEREO_COUNT>  (1) 
0

>  <PUBCHEM_BOND_UDEF_STEREO_COUNT>  (1) 
0

>  <PUBCHEM_ISOTOPIC_ATOM_COUNT>  (1) 
0

>  <PUBCHEM_COMPONENT_COUNT>  (1) 
1

>  <PUBCHEM_CACTVS_TAUTO_COUNT>  (1) 
1

>  <PUBCHEM_CONFORMER_ID>  (1) 
0000351300000001

>  <PUBCHEM_MMFF94_ENERGY>  (1) 
1.7356

>  <PUBCHEM_FEATURE_SELFOVERLAP>  (1) 
10.148

>  <PUBCHEM_SHAPE_FINGERPRINT>  (1) 
139733 1 9295027755166427554
16714656 1 18410580591032718062
20096714 4 18338235947060890880
21015797 1 9222068570257458955
21040471 1 18266740173273501765
23552423 10 18260554390065929102
29004967 10 18263933287660079714
5943 1 15472547760423279939

>  <PUBCHEM_SHAPE_MULTIPOLES>  (1) 
117.61
2.14
1.17
0.6
0.92
0.02
0
-0.08
0
-0.24
0
0.02
-0.01
0

>  <PUBCHEM_SHAPE_SELFOVERLAP>  (1) 
239.701

>  <PUBCHEM_SHAPE_VOLUME>  (1) 
71.1

>  <PUBCHEM_COORDINATE_TYPE>  (1) 
2
5
10

$$$$
