13591
     RDKit          3D

  7  7  0  0  0  0  0  0  0  0999 V2000
   -2.3688   -0.3887   -0.1690 O   0  0  0  0  0  0  0  0  0  0  0  0
   -0.3771    0.2143   -0.2084 N   0  0  0  0  0  0  0  0  0  0  0  0
   -1.5947    0.5163    0.1579 N   0  0  0  0  0  0  0  0  0  0  0  0
    1.9543    0.4935   -0.0994 C   0  0  0  0  0  0  0  0  0  0  0  0
    1.6122   -0.9925   -0.0956 C   0  0  0  0  0  0  0  0  0  0  0  0
    0.6322    1.2174    0.1277 C   0  0  0  0  0  0  0  0  0  0  0  0
    0.1419   -1.0604    0.2866 C   0  0  0  0  0  0  0  0  0  0  0  0
  1  3  2  0
  2  3  1  0
  2  6  1  0
  2  7  1  0
  4  5  1  0
  4  6  1  0
  5  7  1  0
M  END
>  <PUBCHEM_COMPOUND_CID>  (1) 
13591

>  <PUBCHEM_CONFORMER_RMSD>  (1) 
0.4

>  <PUBCHEM_CONFORMER_DIVERSEORDER>  (1) 
1
6
2
5
4
3

>  <PUBCHEM_MMFF94_PARTIAL_CHARGES>  (1) 
5
1 -0.16
2 -0.36
3 -0.01
6 0.27
7 0.27

>  <PUBCHEM_EFFECTIVE_ROTOR_COUNT>  (1) 
2

>  <PUBCHEM_PHARMACOPHORE_FEATURES>  (1) 
1
5 2 4 5 6 7 rings

>  <PUBCHEM_HEAVY_ATOM_COUNT>  (1) 
7

>  <PUBCHEM_ATOM_DEF_STEREO_COUNT>  (1) 
0

>  <PUBCHEM_ATOM_UDEF_STEREO_COUNT>  (1) 
0

>  <PUBCHEM_BOND_DEF_STEREO_COUNT>  (1) 
0

>  <PUBCHEM_BOND_UDEF_STEREO_COUNT>  (1) 
0

>  <PUBCHEM_ISOTOPIC_ATOM_COUNT>  (1) 
0

>  <PUBCHEM_COMPONENT_COUNT>  (1) 
1

>  <PUBCHEM_CACTVS_TAUTO_COUNT>  (1) 
1

>  <PUBCHEM_CONFORMER_ID>  (1) 
0000351700000001

>  <PUBCHEM_MMFF94_ENERGY>  (1) 
8.8965

>  <PUBCHEM_FEATURE_SELFOVERLAP>  (1) 
5.074

>  <PUBCHEM_SHAPE_FINGERPRINT>  (1) 
18185500 45 18267583507292451147
20096714 4 18411138082035278768
21040471 1 18337110193304249096
23552423 10 18117568314353033734
29004967 10 18408889516252774866
5460574 1 9223235143362163413

>  <PUBCHEM_SHAPE_MULTIPOLES>  (1) 
128.23
2.61
1.25
0.61
1.05
0.02
0.01
0.11
-0.18
-0.35
0.06
-0.05
0.01
-0.01

>  <PUBCHEM_SHAPE_SELFOVERLAP>  (1) 
250.035

>  <PUBCHEM_SHAPE_VOLUME>  (1) 
80

>  <PUBCHEM_COORDINATE_TYPE>  (1) 
2
5
10

$$$$
