13590
     RDKit          3D

  7  7  0  0  0  0  0  0  0  0999 V2000
   -0.4841   -1.1036   -0.1370 N   0  0  0  0  0  0  0  0  0  0  0  0
   -0.3784    1.1692   -0.0881 N   0  0  0  0  0  0  0  0  0  0  0  0
   -1.8356   -0.7795    0.2067 C   0  0  0  0  0  0  0  0  0  0  0  0
    0.2496    0.0356   -0.2731 C   0  0  0  0  0  0  0  0  0  0  0  0
   -1.7860    0.7558    0.2026 C   0  0  0  0  0  0  0  0  0  0  0  0
    1.7077   -0.0176   -0.5919 C   0  0  0  0  0  0  0  0  0  0  0  0
    2.5268   -0.0600    0.6809 C   0  0  0  0  0  0  0  0  0  0  0  0
  1  3  1  0
  1  4  1  0
  2  4  2  0
  2  5  1  0
  3  5  1  0
  4  6  1  0
  6  7  1  0
M  END
>  <PUBCHEM_COMPOUND_CID>  (1) 
13590

>  <PUBCHEM_CONFORMER_RMSD>  (1) 
0.4

>  <PUBCHEM_CONFORMER_DIVERSEORDER>  (1) 
1
2

>  <PUBCHEM_MMFF94_PARTIAL_CHARGES>  (1) 
7
1 -0.82
12 0.4
2 -0.7
3 0.37
4 0.44
5 0.25
6 0.06

>  <PUBCHEM_EFFECTIVE_ROTOR_COUNT>  (1) 
1.6

>  <PUBCHEM_PHARMACOPHORE_FEATURES>  (1) 
4
1 1 donor
1 7 hydrophobe
3 1 2 4 cation
5 1 2 3 4 5 rings

>  <PUBCHEM_HEAVY_ATOM_COUNT>  (1) 
7

>  <PUBCHEM_ATOM_DEF_STEREO_COUNT>  (1) 
0

>  <PUBCHEM_ATOM_UDEF_STEREO_COUNT>  (1) 
0

>  <PUBCHEM_BOND_DEF_STEREO_COUNT>  (1) 
0

>  <PUBCHEM_BOND_UDEF_STEREO_COUNT>  (1) 
0

>  <PUBCHEM_ISOTOPIC_ATOM_COUNT>  (1) 
0

>  <PUBCHEM_COMPONENT_COUNT>  (1) 
1

>  <PUBCHEM_CACTVS_TAUTO_COUNT>  (1) 
1

>  <PUBCHEM_CONFORMER_ID>  (1) 
0000351600000001

>  <PUBCHEM_MMFF94_ENERGY>  (1) 
13.6164

>  <PUBCHEM_FEATURE_SELFOVERLAP>  (1) 
20.297

>  <PUBCHEM_SHAPE_FINGERPRINT>  (1) 
10857977 72 18342171223646344002
16714656 1 18410864251942041077
21040471 1 18194410991416016477
23552423 10 18187374190160614534
24536 1 18342742905452965820
29004967 10 18341058505010034818
369184 2 18412252939586419810
5460574 1 8790889574987328078

>  <PUBCHEM_SHAPE_MULTIPOLES>  (1) 
134.09
3.08
1.07
0.74
1.19
0.02
0.02
-0.1
0.58
-0.46
0
0.26
-0.01
-0.02

>  <PUBCHEM_SHAPE_SELFOVERLAP>  (1) 
258.621

>  <PUBCHEM_SHAPE_VOLUME>  (1) 
81.6

>  <PUBCHEM_COORDINATE_TYPE>  (1) 
2
5
10

$$$$
