13601
     RDKit          3D

  8  8  0  0  1  0  0  0  0  0999 V2000
    1.7976    1.4113    0.2184 O   0  0  0  0  0  0  0  0  0  0  0  0
    1.7979   -1.4111   -0.2184 O   0  0  0  0  0  0  0  0  0  0  0  0
    0.6675    0.7065   -0.2933 C   0  0  0  0  0  0  0  0  0  0  0  0
    0.6676   -0.7064    0.2933 C   0  0  0  0  0  0  0  0  0  0  0  0
   -0.6034    1.4709    0.0757 C   0  0  0  0  0  0  0  0  0  0  0  0
   -0.6031   -1.4711   -0.0757 C   0  0  0  0  0  0  0  0  0  0  0  0
   -1.8621    0.6999   -0.3034 C   0  0  0  0  0  0  0  0  0  0  0  0
   -1.8621   -0.7000    0.3034 C   0  0  0  0  0  0  0  0  0  0  0  0
  1  3  1  0
  2  4  1  0
  3  4  1  0
  3  5  1  0
  4  6  1  0
  5  7  1  0
  6  8  1  0
  7  8  1  0
M  END
>  <PUBCHEM_COMPOUND_CID>  (1) 
13601

>  <PUBCHEM_CONFORMER_RMSD>  (1) 
0.4

>  <PUBCHEM_CONFORMER_DIVERSEORDER>  (1) 
3
5
6
4
2
1

>  <PUBCHEM_MMFF94_PARTIAL_CHARGES>  (1) 
6
1 -0.68
19 0.4
2 -0.68
20 0.4
3 0.28
4 0.28

>  <PUBCHEM_EFFECTIVE_ROTOR_COUNT>  (1) 
1.2

>  <PUBCHEM_PHARMACOPHORE_FEATURES>  (1) 
5
1 1 acceptor
1 1 donor
1 2 acceptor
1 2 donor
6 3 4 5 6 7 8 rings

>  <PUBCHEM_HEAVY_ATOM_COUNT>  (1) 
8

>  <PUBCHEM_ATOM_DEF_STEREO_COUNT>  (1) 
0

>  <PUBCHEM_ATOM_UDEF_STEREO_COUNT>  (1) 
2

>  <PUBCHEM_BOND_DEF_STEREO_COUNT>  (1) 
0

>  <PUBCHEM_BOND_UDEF_STEREO_COUNT>  (1) 
0

>  <PUBCHEM_ISOTOPIC_ATOM_COUNT>  (1) 
0

>  <PUBCHEM_COMPONENT_COUNT>  (1) 
1

>  <PUBCHEM_CACTVS_TAUTO_COUNT>  (1) 
1

>  <PUBCHEM_CONFORMER_ID>  (1) 
0000352100000003

>  <PUBCHEM_MMFF94_ENERGY>  (1) 
7.5733

>  <PUBCHEM_FEATURE_SELFOVERLAP>  (1) 
25.377

>  <PUBCHEM_SHAPE_FINGERPRINT>  (1) 
16714656 1 17905894677742791934
18185500 45 18051412061103432927
21040471 1 18337391646674390925
23552423 10 18259990387497120278
2748010 2 18409167710059094149
29004967 10 18117285954565249737
5084963 1 17677062234890078479

>  <PUBCHEM_SHAPE_MULTIPOLES>  (1) 
152.9
2.35
1.83
0.65
0.01
0
0
0
0
-0.3
0
0.05
0
0.16

>  <PUBCHEM_SHAPE_SELFOVERLAP>  (1) 
295.354

>  <PUBCHEM_SHAPE_VOLUME>  (1) 
92.3

>  <PUBCHEM_COORDINATE_TYPE>  (1) 
2
5
10

$$$$
