13607
     RDKit          3D

  8  8  0  0  0  0  0  0  0  0999 V2000
    1.9247   -0.5568   -0.2477 O   0  0  0  0  0  0  0  0  0  0  0  0
    0.6254   -0.2670    0.2567 C   0  0  0  0  0  0  0  0  0  0  0  0
    0.1736    1.1032   -0.2470 C   0  0  0  0  0  0  0  0  0  0  0  0
   -0.3456   -1.3693   -0.1636 C   0  0  0  0  0  0  0  0  0  0  0  0
   -1.2542    1.4179    0.1870 C   0  0  0  0  0  0  0  0  0  0  0  0
   -1.7735   -1.0548    0.2704 C   0  0  0  0  0  0  0  0  0  0  0  0
   -2.2243    0.3153   -0.2309 C   0  0  0  0  0  0  0  0  0  0  0  0
    2.8739    0.4115    0.1751 C   0  0  0  0  0  0  0  0  0  0  0  0
  1  2  1  0
  1  8  1  0
  2  3  1  0
  2  4  1  0
  3  5  1  0
  4  6  1  0
  5  7  1  0
  6  7  1  0
M  END
>  <PUBCHEM_COMPOUND_CID>  (1) 
13607

>  <PUBCHEM_CONFORMER_RMSD>  (1) 
0.4

>  <PUBCHEM_CONFORMER_DIVERSEORDER>  (1) 
1
8
7
2
4
5
9
3
6

>  <PUBCHEM_MMFF94_PARTIAL_CHARGES>  (1) 
3
1 -0.56
2 0.28
8 0.28

>  <PUBCHEM_EFFECTIVE_ROTOR_COUNT>  (1) 
2.2

>  <PUBCHEM_PHARMACOPHORE_FEATURES>  (1) 
2
1 1 acceptor
6 2 3 4 5 6 7 rings

>  <PUBCHEM_HEAVY_ATOM_COUNT>  (1) 
8

>  <PUBCHEM_ATOM_DEF_STEREO_COUNT>  (1) 
0

>  <PUBCHEM_ATOM_UDEF_STEREO_COUNT>  (1) 
0

>  <PUBCHEM_BOND_DEF_STEREO_COUNT>  (1) 
0

>  <PUBCHEM_BOND_UDEF_STEREO_COUNT>  (1) 
0

>  <PUBCHEM_ISOTOPIC_ATOM_COUNT>  (1) 
0

>  <PUBCHEM_COMPONENT_COUNT>  (1) 
1

>  <PUBCHEM_CACTVS_TAUTO_COUNT>  (1) 
1

>  <PUBCHEM_CONFORMER_ID>  (1) 
0000352700000001

>  <PUBCHEM_MMFF94_ENERGY>  (1) 
10.546

>  <PUBCHEM_FEATURE_SELFOVERLAP>  (1) 
10.148

>  <PUBCHEM_SHAPE_FINGERPRINT>  (1) 
10857977 72 18338227284096024400
14390081 3 18343298158861993800
16714656 1 18410856563961156639
18185500 45 18334575784463171487
21040471 1 18193558869804172237
23235685 24 18410569544508896333
23552423 10 18260271811124341766
29004967 10 18339930406111591714
369184 2 16732978730373293648
5084963 1 18271242712170427360

>  <PUBCHEM_SHAPE_MULTIPOLES>  (1) 
158.77
3.34
1.48
0.66
1.89
0.05
0.01
0.17
0.08
-0.51
0
-0.03
0
0.07

>  <PUBCHEM_SHAPE_SELFOVERLAP>  (1) 
301.562

>  <PUBCHEM_SHAPE_VOLUME>  (1) 
97.7

>  <PUBCHEM_COORDINATE_TYPE>  (1) 
2
5
10

$$$$
