13606
     RDKit          3D

  8  8  0  0  0  0  0  0  0  0999 V2000
    1.9335    0.0002    0.0003 N   0  0  0  0  0  0  0  0  0  0  0  0
    0.5539    0.0000    0.0008 C   0  0  0  0  0  0  0  0  0  0  0  0
   -0.1437    1.2080    0.0004 C   0  0  0  0  0  0  0  0  0  0  0  0
   -0.1435   -1.2081    0.0005 C   0  0  0  0  0  0  0  0  0  0  0  0
   -1.5385    1.2080   -0.0002 C   0  0  0  0  0  0  0  0  0  0  0  0
   -1.5384   -1.2080   -0.0003 C   0  0  0  0  0  0  0  0  0  0  0  0
   -2.2358    0.0000   -0.0006 C   0  0  0  0  0  0  0  0  0  0  0  0
    3.1125    0.0000   -0.0009 C   0  0  0  0  0  0  0  0  0  0  0  0
  1  2  1  0
  1  8  3  0
  2  3  2  0
  2  4  1  0
  3  5  1  0
  4  6  2  0
  5  7  2  0
  6  7  1  0
M  CHG  2   1   1   8  -1
M  END
>  <PUBCHEM_COMPOUND_CID>  (1) 
13606

>  <PUBCHEM_CONFORMER_RMSD>  (1) 
0.4

>  <PUBCHEM_CONFORMER_DIVERSEORDER>  (1) 
1

>  <PUBCHEM_MMFF94_PARTIAL_CHARGES>  (1) 
13
1 0.23
10 0.15
11 0.15
12 0.15
13 0.15
2 0.14
3 -0.15
4 -0.15
5 -0.15
6 -0.15
7 -0.15
8 -0.37
9 0.15

>  <PUBCHEM_EFFECTIVE_ROTOR_COUNT>  (1) 
0

>  <PUBCHEM_PHARMACOPHORE_FEATURES>  (1) 
1
6 2 3 4 5 6 7 rings

>  <PUBCHEM_HEAVY_ATOM_COUNT>  (1) 
8

>  <PUBCHEM_ATOM_DEF_STEREO_COUNT>  (1) 
0

>  <PUBCHEM_ATOM_UDEF_STEREO_COUNT>  (1) 
0

>  <PUBCHEM_BOND_DEF_STEREO_COUNT>  (1) 
0

>  <PUBCHEM_BOND_UDEF_STEREO_COUNT>  (1) 
0

>  <PUBCHEM_ISOTOPIC_ATOM_COUNT>  (1) 
0

>  <PUBCHEM_COMPONENT_COUNT>  (1) 
1

>  <PUBCHEM_CACTVS_TAUTO_COUNT>  (1) 
1

>  <PUBCHEM_CONFORMER_ID>  (1) 
0000352600000001

>  <PUBCHEM_MMFF94_ENERGY>  (1) 
15.447

>  <PUBCHEM_FEATURE_SELFOVERLAP>  (1) 
5.074

>  <PUBCHEM_SHAPE_FINGERPRINT>  (1) 
10857977 72 18340758351320702928
14325111 11 18410573946866056064
16714656 1 18410856559660888607
20645464 45 17917417749023316986
20871998 184 18200880698080370639
21040471 1 18266740177668663365
23235685 24 18339357470559738565
23402655 69 18123732190262336885
23552423 10 18115869779277908460
29004967 10 16415484852295731414
369184 2 18411978061700574746

>  <PUBCHEM_SHAPE_MULTIPOLES>  (1) 
159.66
3.52
1.36
0.61
2.7
0
0
0
0
-0.61
0
-0.02
0
0

>  <PUBCHEM_SHAPE_SELFOVERLAP>  (1) 
328.271

>  <PUBCHEM_SHAPE_VOLUME>  (1) 
91.7

>  <PUBCHEM_COORDINATE_TYPE>  (1) 
2
5
10

$$$$
