13604
     RDKit          3D

  8  8  0  0  1  0  0  0  0  0999 V2000
   -0.2978    0.5998   -0.7735 N   0  0  0  0  0  0  0  0  0  0  0  0
    0.1458   -1.3205    0.3664 N   0  0  0  0  0  0  0  0  0  0  0  0
   -1.6248    0.2021   -0.3931 C   0  0  0  0  0  0  0  0  0  0  0  0
   -1.3403   -1.1612    0.2712 C   0  0  0  0  0  0  0  0  0  0  0  0
    0.6147   -0.2846   -0.2817 C   0  0  0  0  0  0  0  0  0  0  0  0
   -2.2232    1.2132    0.5706 C   0  0  0  0  0  0  0  0  0  0  0  0
    2.0815   -0.0521   -0.4406 C   0  0  0  0  0  0  0  0  0  0  0  0
    2.6441    0.8032    0.6807 C   0  0  0  0  0  0  0  0  0  0  0  0
  1  3  1  0
  1  5  1  0
  2  4  1  0
  2  5  2  0
  3  4  1  0
  3  6  1  0
  5  7  1  0
  7  8  1  0
M  END
>  <PUBCHEM_COMPOUND_CID>  (1) 
13604

>  <PUBCHEM_CONFORMER_RMSD>  (1) 
0.4

>  <PUBCHEM_CONFORMER_DIVERSEORDER>  (1) 
3
1
2
4

>  <PUBCHEM_MMFF94_PARTIAL_CHARGES>  (1) 
7
1 -0.82
12 0.4
2 -0.7
3 0.37
4 0.25
5 0.44
7 0.06

>  <PUBCHEM_EFFECTIVE_ROTOR_COUNT>  (1) 
1.6

>  <PUBCHEM_PHARMACOPHORE_FEATURES>  (1) 
4
1 1 donor
1 8 hydrophobe
3 1 2 5 cation
5 1 2 3 4 5 rings

>  <PUBCHEM_HEAVY_ATOM_COUNT>  (1) 
8

>  <PUBCHEM_ATOM_DEF_STEREO_COUNT>  (1) 
0

>  <PUBCHEM_ATOM_UDEF_STEREO_COUNT>  (1) 
1

>  <PUBCHEM_BOND_DEF_STEREO_COUNT>  (1) 
0

>  <PUBCHEM_BOND_UDEF_STEREO_COUNT>  (1) 
0

>  <PUBCHEM_ISOTOPIC_ATOM_COUNT>  (1) 
0

>  <PUBCHEM_COMPONENT_COUNT>  (1) 
1

>  <PUBCHEM_CACTVS_TAUTO_COUNT>  (1) 
2

>  <PUBCHEM_CONFORMER_ID>  (1) 
0000352400000003

>  <PUBCHEM_MMFF94_ENERGY>  (1) 
15.0443

>  <PUBCHEM_FEATURE_SELFOVERLAP>  (1) 
20.297

>  <PUBCHEM_SHAPE_FINGERPRINT>  (1) 
10857977 72 17749969807372268937
12897270 3 10231757794794515296
14390081 3 18131630075671027888
15310529 11 16773792606164621276
20096714 4 18340208470905277319
20645464 45 18341610443110264850
20653085 51 17131847433889299360
21040471 1 18261963950649693895
23552423 10 17894352189722165430
29004967 10 17275112751248509422
369184 2 18338225059376791850
5084963 1 18260266343440758214

>  <PUBCHEM_SHAPE_MULTIPOLES>  (1) 
154.67
3.41
1.29
0.84
1.31
0.08
0.01
-1.27
-0.55
-0.44
-0.26
0.06
-0.08
0.12

>  <PUBCHEM_SHAPE_SELFOVERLAP>  (1) 
298.977

>  <PUBCHEM_SHAPE_VOLUME>  (1) 
95

>  <PUBCHEM_COORDINATE_TYPE>  (1) 
2
5
10

$$$$
