13603
     RDKit          3D

  8  8  0  0  0  0  0  0  0  0999 V2000
    1.6467    1.4766   -0.0224 O   0  0  0  0  0  0  0  0  0  0  0  0
    0.6750   -0.6324    0.0373 N   0  0  0  0  0  0  0  0  0  0  0  0
   -1.8033   -0.8036    0.2950 C   0  0  0  0  0  0  0  0  0  0  0  0
   -1.8837    0.5755   -0.3287 C   0  0  0  0  0  0  0  0  0  0  0  0
   -0.5114   -1.4685   -0.1417 C   0  0  0  0  0  0  0  0  0  0  0  0
   -0.7207    1.4153    0.1627 C   0  0  0  0  0  0  0  0  0  0  0  0
    0.6419    0.7613    0.0199 C   0  0  0  0  0  0  0  0  0  0  0  0
    1.9555   -1.3242   -0.0222 C   0  0  0  0  0  0  0  0  0  0  0  0
  1  7  2  0
  2  5  1  0
  2  7  1  0
  2  8  1  0
  3  4  1  0
  3  5  1  0
  4  6  1  0
  6  7  1  0
M  END
>  <PUBCHEM_COMPOUND_CID>  (1) 
13603

>  <PUBCHEM_CONFORMER_RMSD>  (1) 
0.4

>  <PUBCHEM_CONFORMER_DIVERSEORDER>  (1) 
1

>  <PUBCHEM_MMFF94_PARTIAL_CHARGES>  (1) 
6
1 -0.57
2 -0.66
5 0.3
6 0.06
7 0.57
8 0.3

>  <PUBCHEM_EFFECTIVE_ROTOR_COUNT>  (1) 
1

>  <PUBCHEM_PHARMACOPHORE_FEATURES>  (1) 
2
1 1 acceptor
6 2 3 4 5 6 7 rings

>  <PUBCHEM_HEAVY_ATOM_COUNT>  (1) 
8

>  <PUBCHEM_ATOM_DEF_STEREO_COUNT>  (1) 
0

>  <PUBCHEM_ATOM_UDEF_STEREO_COUNT>  (1) 
0

>  <PUBCHEM_BOND_DEF_STEREO_COUNT>  (1) 
0

>  <PUBCHEM_BOND_UDEF_STEREO_COUNT>  (1) 
0

>  <PUBCHEM_ISOTOPIC_ATOM_COUNT>  (1) 
0

>  <PUBCHEM_COMPONENT_COUNT>  (1) 
1

>  <PUBCHEM_CACTVS_TAUTO_COUNT>  (1) 
1

>  <PUBCHEM_CONFORMER_ID>  (1) 
0000352300000001

>  <PUBCHEM_MMFF94_ENERGY>  (1) 
10.1311

>  <PUBCHEM_FEATURE_SELFOVERLAP>  (1) 
10.148

>  <PUBCHEM_SHAPE_FINGERPRINT>  (1) 
16714656 1 17979077080844977566
18185500 45 18052818345007283751
21040471 1 18339077219464058465
23552423 10 18260833730127129182
241688 4 17187567144242575035
24536 1 18337939156262457713
29004967 10 18408889533353646234

>  <PUBCHEM_SHAPE_MULTIPOLES>  (1) 
153.79
2.48
1.83
0.63
0.25
0.17
0
-0.33
-0.05
0.28
0.02
-0.08
-0.02
0.06

>  <PUBCHEM_SHAPE_SELFOVERLAP>  (1) 
298.757

>  <PUBCHEM_SHAPE_VOLUME>  (1) 
92.5

>  <PUBCHEM_COORDINATE_TYPE>  (1) 
2
5
10

$$$$
