13619
     RDKit          3D

 10 10  0  0  0  0  0  0  0  0999 V2000
   -2.8307   -0.2668   -0.0020 Cl  0  0  0  0  0  0  0  0  0  0  0  0
   -1.4033    2.6175    0.0013 Cl  0  0  0  0  0  0  0  0  0  0  0  0
    3.3957    0.2104   -0.0006 Cl  0  0  0  0  0  0  0  0  0  0  0  0
   -0.8861   -2.5052    0.0016 O   0  0  0  0  0  0  0  0  0  0  0  0
   -0.3225   -1.2637   -0.0001 C   0  0  0  0  0  0  0  0  0  0  0  0
   -1.1040   -0.1082    0.0000 C   0  0  0  0  0  0  0  0  0  0  0  0
    1.0688   -1.1649   -0.0001 C   0  0  0  0  0  0  0  0  0  0  0  0
   -0.4940    1.1463    0.0001 C   0  0  0  0  0  0  0  0  0  0  0  0
    0.8974    1.2451    0.0000 C   0  0  0  0  0  0  0  0  0  0  0  0
    1.6787    0.0895   -0.0001 C   0  0  0  0  0  0  0  0  0  0  0  0
  1  6  1  0
  2  8  1  0
  3 10  1  0
  4  5  1  0
  5  6  2  0
  5  7  1  0
  6  8  1  0
  7 10  2  0
  8  9  2  0
  9 10  1  0
M  END
>  <PUBCHEM_COMPOUND_CID>  (1) 
13619

>  <PUBCHEM_CONFORMER_RMSD>  (1) 
0.4

>  <PUBCHEM_CONFORMER_DIVERSEORDER>  (1) 
1

>  <PUBCHEM_MMFF94_PARTIAL_CHARGES>  (1) 
13
1 -0.18
10 0.18
11 0.15
12 0.15
13 0.45
2 -0.18
3 -0.18
4 -0.53
5 0.08
6 0.18
7 -0.15
8 0.18
9 -0.15

>  <PUBCHEM_EFFECTIVE_ROTOR_COUNT>  (1) 
0

>  <PUBCHEM_PHARMACOPHORE_FEATURES>  (1) 
2
1 4 donor
6 5 6 7 8 9 10 rings

>  <PUBCHEM_HEAVY_ATOM_COUNT>  (1) 
10

>  <PUBCHEM_ATOM_DEF_STEREO_COUNT>  (1) 
0

>  <PUBCHEM_ATOM_UDEF_STEREO_COUNT>  (1) 
0

>  <PUBCHEM_BOND_DEF_STEREO_COUNT>  (1) 
0

>  <PUBCHEM_BOND_UDEF_STEREO_COUNT>  (1) 
0

>  <PUBCHEM_ISOTOPIC_ATOM_COUNT>  (1) 
0

>  <PUBCHEM_COMPONENT_COUNT>  (1) 
1

>  <PUBCHEM_CACTVS_TAUTO_COUNT>  (1) 
3

>  <PUBCHEM_CONFORMER_ID>  (1) 
0000353300000001

>  <PUBCHEM_MMFF94_ENERGY>  (1) 
20.3421

>  <PUBCHEM_FEATURE_SELFOVERLAP>  (1) 
10.148

>  <PUBCHEM_SHAPE_FINGERPRINT>  (1) 
11206711 2 18410573950813202021
12423570 1 11879146033563238369
13380535 76 18048590422187781969
14325111 11 18338797793529671840
16945 1 18410575106338375460
18185500 45 18193558002220771946
193761 8 17906453225454831623
20588541 1 18342463668059361582
20871998 184 18200879594521519982
21040471 1 18338517409347962880
23235685 24 18411695499912521812
2334 1 17834113426306217760
23402539 116 18342444959055064126
23402655 69 18195790905144174317
23552423 10 18047475517244197390
2748010 2 18194405480946433108
5084963 1 18131070398471922264
53812653 8 18335989700745557364

>  <PUBCHEM_SHAPE_MULTIPOLES>  (1) 
205.54
3.67
2.4
0.62
1.75
0.14
0
0.49
0
-1.27
0
0
0.03
0

>  <PUBCHEM_SHAPE_SELFOVERLAP>  (1) 
403.357

>  <PUBCHEM_SHAPE_VOLUME>  (1) 
126.5

>  <PUBCHEM_COORDINATE_TYPE>  (1) 
2
5
10

$$$$
