13617
     RDKit          3D

 10 10  0  0  0  0  0  0  0  0999 V2000
   -0.0004   -2.2731   -0.0009 O   0  0  0  0  0  0  0  0  0  0  0  0
    0.0003    2.2730   -0.0004 O   0  0  0  0  0  0  0  0  0  0  0  0
    1.1259   -0.0002   -0.0001 C   0  0  0  0  0  0  0  0  0  0  0  0
   -1.1259    0.0001    0.0002 C   0  0  0  0  0  0  0  0  0  0  0  0
   -0.0001   -1.0584   -0.0003 C   0  0  0  0  0  0  0  0  0  0  0  0
    0.0001    1.0583   -0.0001 C   0  0  0  0  0  0  0  0  0  0  0  0
    1.9757   -0.0002   -1.2480 C   0  0  0  0  0  0  0  0  0  0  0  0
    1.9754   -0.0001    1.2487 C   0  0  0  0  0  0  0  0  0  0  0  0
   -1.9759    0.0008   -1.2480 C   0  0  0  0  0  0  0  0  0  0  0  0
   -1.9752   -0.0003    1.2488 C   0  0  0  0  0  0  0  0  0  0  0  0
  1  5  2  0
  2  6  2  0
  3  5  1  0
  3  6  1  0
  3  7  1  0
  3  8  1  0
  4  5  1  0
  4  6  1  0
  4  9  1  0
  4 10  1  0
M  END
>  <PUBCHEM_COMPOUND_CID>  (1) 
13617

>  <PUBCHEM_CONFORMER_RMSD>  (1) 
0.4

>  <PUBCHEM_CONFORMER_DIVERSEORDER>  (1) 
1

>  <PUBCHEM_MMFF94_PARTIAL_CHARGES>  (1) 
6
1 -0.57
2 -0.57
3 0.11
4 0.11
5 0.46
6 0.46

>  <PUBCHEM_EFFECTIVE_ROTOR_COUNT>  (1) 
0.4

>  <PUBCHEM_PHARMACOPHORE_FEATURES>  (1) 
5
1 1 acceptor
1 2 acceptor
3 3 7 8 hydrophobe
3 4 9 10 hydrophobe
4 3 4 5 6 rings

>  <PUBCHEM_HEAVY_ATOM_COUNT>  (1) 
10

>  <PUBCHEM_ATOM_DEF_STEREO_COUNT>  (1) 
0

>  <PUBCHEM_ATOM_UDEF_STEREO_COUNT>  (1) 
0

>  <PUBCHEM_BOND_DEF_STEREO_COUNT>  (1) 
0

>  <PUBCHEM_BOND_UDEF_STEREO_COUNT>  (1) 
0

>  <PUBCHEM_ISOTOPIC_ATOM_COUNT>  (1) 
0

>  <PUBCHEM_COMPONENT_COUNT>  (1) 
1

>  <PUBCHEM_CACTVS_TAUTO_COUNT>  (1) 
1

>  <PUBCHEM_CONFORMER_ID>  (1) 
0000353100000001

>  <PUBCHEM_MMFF94_ENERGY>  (1) 
6.8393

>  <PUBCHEM_FEATURE_SELFOVERLAP>  (1) 
25.371

>  <PUBCHEM_SHAPE_FINGERPRINT>  (1) 
12423570 1 12677474226331786945
13024252 1 14781827319145596566
137420 1 16738853575756512681
16945 1 18410855464423129094
21040471 1 18410855468776281062
241688 4 18130790027264844299
24536 1 17843127162327077480
29004967 10 18335988588333047713
5084963 1 18060137639146710453
528886 8 18195273098678870800
68250623 7 17186485697157458190

>  <PUBCHEM_SHAPE_MULTIPOLES>  (1) 
194.06
2.52
1.62
1.26
0
0
0
0
0
0
0
0
0
0

>  <PUBCHEM_SHAPE_SELFOVERLAP>  (1) 
392.269

>  <PUBCHEM_SHAPE_VOLUME>  (1) 
113.1

>  <PUBCHEM_COORDINATE_TYPE>  (1) 
2
5
10

$$$$
