1361
     RDKit          3D

 38 40  0  0  1  0  0  0  0  0999 V2000
    2.7512   -3.9050    1.0793 S   0  0  0  0  0  0  0  0  0  0  0  0
    0.2685   -2.1997   -1.9393 O   0  0  0  0  0  0  0  0  0  0  0  0
   -2.5365   -1.0237   -2.3208 O   0  0  0  0  0  0  0  0  0  0  0  0
   -1.2972    0.1265    1.2478 O   0  0  0  0  0  0  0  0  0  0  0  0
    3.9273   -4.7539    1.0733 O   0  0  0  0  0  0  0  0  0  0  0  0
    1.8846   -3.8668    2.2416 O   0  0  0  0  0  0  0  0  0  0  0  0
    4.5074    1.6531    0.0533 O   0  0  0  0  0  0  0  0  0  0  0  0
   -3.1842    0.3951   -0.0740 N   0  0  0  0  0  0  0  0  0  0  0  0
   -2.3854   -2.9213   -0.9909 N   0  0  0  0  0  0  0  0  0  0  0  0
    1.8093   -4.2345   -0.2950 N   0  0  0  0  0  0  0  0  0  0  0  0
   -1.3923    5.0729    0.5436 N   0  0  0  0  0  0  0  0  0  0  0  0
   -5.0674   -1.1836   -0.3185 C   0  0  0  0  0  0  0  0  0  0  0  0
   -5.9476   -0.5409    0.7727 C   0  0  0  0  0  0  0  0  0  0  0  0
   -3.5578   -0.9946   -0.1218 C   0  0  0  0  0  0  0  0  0  0  0  0
   -2.7918   -1.6261   -1.2801 C   0  0  0  0  0  0  0  0  0  0  0  0
   -5.6044   -1.1475    2.1361 C   0  0  0  0  0  0  0  0  0  0  0  0
   -7.4411   -0.7135    0.4934 C   0  0  0  0  0  0  0  0  0  0  0  0
   -1.5999   -3.7266   -1.8981 C   0  0  0  0  0  0  0  0  0  0  0  0
   -0.0942   -3.5580   -1.6921 C   0  0  0  0  0  0  0  0  0  0  0  0
    0.3573   -3.9357   -0.2831 C   0  0  0  0  0  0  0  0  0  0  0  0
   -2.0677    0.8462    0.6177 C   0  0  0  0  0  0  0  0  0  0  0  0
    3.2756   -2.2449    0.7726 C   0  0  0  0  0  0  0  0  0  0  0  0
   -1.8335    2.3130    0.5921 C   0  0  0  0  0  0  0  0  0  0  0  0
    2.5029   -1.1749    1.2236 C   0  0  0  0  0  0  0  0  0  0  0  0
    4.4623   -2.0052    0.0795 C   0  0  0  0  0  0  0  0  0  0  0  0
   -1.1490    2.9289    1.6340 C   0  0  0  0  0  0  0  0  0  0  0  0
   -2.2975    3.0754   -0.4742 C   0  0  0  0  0  0  0  0  0  0  0  0
    2.9166    0.1349    0.9816 C   0  0  0  0  0  0  0  0  0  0  0  0
    4.8761   -0.6952   -0.1624 C   0  0  0  0  0  0  0  0  0  0  0  0
    4.1032    0.3748    0.2887 C   0  0  0  0  0  0  0  0  0  0  0  0
   -0.9561    4.2991    1.5628 C   0  0  0  0  0  0  0  0  0  0  0  0
   -2.0533    4.4392   -0.4510 C   0  0  0  0  0  0  0  0  0  0  0  0
    3.5581    2.5558   -0.3959 C   0  0  0  0  0  0  0  0  0  0  0  0
    2.6713    2.1896   -1.4085 C   0  0  0  0  0  0  0  0  0  0  0  0
    3.4891    3.8315    0.1640 C   0  0  0  0  0  0  0  0  0  0  0  0
    1.7157    3.0993   -1.8614 C   0  0  0  0  0  0  0  0  0  0  0  0
    2.5334    4.7411   -0.2889 C   0  0  0  0  0  0  0  0  0  0  0  0
    1.6468    4.3749   -1.3016 C   0  0  0  0  0  0  0  0  0  0  0  0
  1  5  2  0
  1  6  2  0
  1 10  1  0
  1 22  1  0
  2 19  1  0
  3 15  2  0
  4 21  2  0
  7 30  1  0
  7 33  1  0
  8 14  1  0
  8 21  1  0
  9 15  1  0
  9 18  1  0
 10 20  1  0
 11 31  2  0
 11 32  1  0
 12 13  1  0
 12 14  1  0
 13 16  1  0
 13 17  1  0
 14 15  1  0
 18 19  1  0
 19 20  1  0
 21 23  1  0
 22 24  2  0
 22 25  1  0
 23 26  2  0
 23 27  1  0
 24 28  1  0
 25 29  2  0
 26 31  1  0
 27 32  2  0
 28 30  2  0
 29 30  1  0
 33 34  2  0
 33 35  1  0
 34 36  1  0
 35 37  2  0
 36 38  2  0
 37 38  1  0
M  END
>  <PUBCHEM_COMPOUND_CID>  (1) 
1361

>  <PUBCHEM_CONFORMER_RMSD>  (1) 
1.8

>  <PUBCHEM_CONFORMER_DIVERSEORDER>  (1) 
1
12
96
94
17
67
48
20
19
56
40
42
79
101
41
39
87
50
52
46
95
85
5
105
99
93
98
104
63
22
9
75
13
71
3
66
7
55
8
78
92
26
70
29
2
43
97
90
103
18
64
68
16
38
86
82
72
10
37
23
4
28
77
53
36
47
30
15
51
25
44
65
76
74
21
60
81
100
83
58
31
61
69
102
84
88
24
62
33
14
6
11
32
59
54
45
49
73
57
89
27
34
91
35
80

>  <PUBCHEM_MMFF94_PARTIAL_CHARGES>  (1) 
51
1 1.45
10 -0.91
11 -0.62
14 0.36
15 0.57
18 0.3
19 0.28
2 -0.68
20 0.36
21 0.54
22 -0.01
23 0.09
24 -0.15
25 -0.15
26 -0.15
27 -0.15
28 -0.15
29 -0.15
3 -0.57
30 0.08
31 0.16
32 0.16
33 0.08
34 -0.15
35 -0.15
36 -0.15
37 -0.15
38 -0.15
4 -0.57
5 -0.65
52 0.37
53 0.37
56 0.42
57 0.4
58 0.15
59 0.15
6 -0.65
60 0.15
61 0.15
62 0.15
63 0.15
64 0.15
65 0.15
66 0.15
67 0.15
68 0.15
69 0.15
7 -0.17
70 0.15
8 -0.73
9 -0.73

>  <PUBCHEM_EFFECTIVE_ROTOR_COUNT>  (1) 
15

>  <PUBCHEM_PHARMACOPHORE_FEATURES>  (1) 
15
1 10 donor
1 11 acceptor
1 2 acceptor
1 2 donor
1 3 acceptor
1 4 acceptor
1 5 acceptor
1 6 acceptor
1 7 acceptor
1 8 donor
1 9 donor
3 13 16 17 hydrophobe
6 11 23 26 27 31 32 rings
6 22 24 25 28 29 30 rings
6 33 34 35 36 37 38 rings

>  <PUBCHEM_HEAVY_ATOM_COUNT>  (1) 
38

>  <PUBCHEM_ATOM_DEF_STEREO_COUNT>  (1) 
0

>  <PUBCHEM_ATOM_UDEF_STEREO_COUNT>  (1) 
2

>  <PUBCHEM_BOND_DEF_STEREO_COUNT>  (1) 
0

>  <PUBCHEM_BOND_UDEF_STEREO_COUNT>  (1) 
0

>  <PUBCHEM_ISOTOPIC_ATOM_COUNT>  (1) 
0

>  <PUBCHEM_COMPONENT_COUNT>  (1) 
1

>  <PUBCHEM_CACTVS_TAUTO_COUNT>  (1) 
4

>  <PUBCHEM_CONFORMER_ID>  (1) 
0000055100000001

>  <PUBCHEM_MMFF94_ENERGY>  (1) 
83.4629

>  <PUBCHEM_FEATURE_SELFOVERLAP>  (1) 
76.148

>  <PUBCHEM_SHAPE_FINGERPRINT>  (1) 
10675989 125 18338512070682618940
10794284 68 17469874495219202170
12107698 1 18264489481799464459
1361 2 18265053720242470217
14394314 77 18270401732089566057
14840074 17 18272092703921994203
15001296 14 18266176312881849030
15264996 163 18336819874979424524
15297060 5 17773044261614500474
15406563 228 16096558645486288260
161222 619 18044962283035358819
19319366 153 18265613380013305707
20764821 26 17978778335957543138
238918 7 16322848468189190538
373842 8 18266456499954219341
437795 96 17329987993674715186
463206 1 18051412069704436728

>  <PUBCHEM_SHAPE_MULTIPOLES>  (1) 
730.73
11.29
8.77
1.86
13.59
2.3
0.22
-2.98
-2.79
-6.41
0.16
0.68
-0.8
-3

>  <PUBCHEM_SHAPE_SELFOVERLAP>  (1) 
1520.089

>  <PUBCHEM_SHAPE_VOLUME>  (1) 
415.5

>  <PUBCHEM_COORDINATE_TYPE>  (1) 
2
5
10

$$$$
