13626
     RDKit          3D

 10 10  0  0  1  0  0  0  0  0999 V2000
    3.8205    0.1930   -0.2265 Cl  0  0  0  0  0  0  0  0  0  0  0  0
   -2.4331   -0.2826    0.4071 S   0  0  0  0  0  0  0  0  0  0  0  0
   -2.9573    1.1148    0.5872 O   0  0  0  0  0  0  0  0  0  0  0  0
   -0.6544   -0.1469    0.2284 C   0  0  0  0  0  0  0  0  0  0  0  0
   -0.0822    1.0674   -0.1503 C   0  0  0  0  0  0  0  0  0  0  0  0
    0.1571   -1.2561    0.4669 C   0  0  0  0  0  0  0  0  0  0  0  0
    1.3016    1.1726   -0.2905 C   0  0  0  0  0  0  0  0  0  0  0  0
    1.5410   -1.1510    0.3268 C   0  0  0  0  0  0  0  0  0  0  0  0
    2.1133    0.0635   -0.0519 C   0  0  0  0  0  0  0  0  0  0  0  0
   -2.8064   -0.7746   -1.2971 C   0  0  0  0  0  0  0  0  0  0  0  0
  1  9  1  0
  2  3  2  0
  2  4  1  0
  2 10  1  0
  4  5  2  0
  4  6  1  0
  5  7  1  0
  6  8  2  0
  7  9  2  0
  8  9  1  0
M  END
>  <PUBCHEM_COMPOUND_CID>  (1) 
13626

>  <PUBCHEM_CONFORMER_RMSD>  (1) 
0.4

>  <PUBCHEM_CONFORMER_DIVERSEORDER>  (1) 
1
2

>  <PUBCHEM_MMFF94_PARTIAL_CHARGES>  (1) 
14
1 -0.18
10 0.19
11 0.15
12 0.15
13 0.15
14 0.15
2 0.24
3 -0.5
4 0.06
5 -0.15
6 -0.15
7 -0.15
8 -0.15
9 0.18

>  <PUBCHEM_EFFECTIVE_ROTOR_COUNT>  (1) 
1

>  <PUBCHEM_PHARMACOPHORE_FEATURES>  (1) 
2
1 3 acceptor
6 4 5 6 7 8 9 rings

>  <PUBCHEM_HEAVY_ATOM_COUNT>  (1) 
10

>  <PUBCHEM_ATOM_DEF_STEREO_COUNT>  (1) 
0

>  <PUBCHEM_ATOM_UDEF_STEREO_COUNT>  (1) 
1

>  <PUBCHEM_BOND_DEF_STEREO_COUNT>  (1) 
0

>  <PUBCHEM_BOND_UDEF_STEREO_COUNT>  (1) 
0

>  <PUBCHEM_ISOTOPIC_ATOM_COUNT>  (1) 
0

>  <PUBCHEM_COMPONENT_COUNT>  (1) 
1

>  <PUBCHEM_CACTVS_TAUTO_COUNT>  (1) 
1

>  <PUBCHEM_CONFORMER_ID>  (1) 
0000353A00000001

>  <PUBCHEM_MMFF94_ENERGY>  (1) 
20.0223

>  <PUBCHEM_FEATURE_SELFOVERLAP>  (1) 
10.148

>  <PUBCHEM_SHAPE_FINGERPRINT>  (1) 
10219947 1 17822012016805583508
12932764 1 17846778511783891467
14128692 85 18059286677492696815
14325111 11 18408890650277232128
14993402 34 18342171193629208166
15775835 57 18342462508608108825
16945 1 18186799192776045840
19026448 4 16487255478352207530
193761 8 17613434442057501272
21040471 1 18190469439877868048
21293036 1 18187925122705617606
23235685 24 18260550034763005344
23402539 116 18342735205051305820
23402655 69 18264193748116328261
2748010 2 17901676182645179418
29004967 10 17967538951741019793
5084963 1 17314232335577328139
528886 8 18335139786636049355
63268167 104 18335134272072088451

>  <PUBCHEM_SHAPE_MULTIPOLES>  (1) 
205.65
5.23
1.32
0.89
0.87
0.02
-0.19
0.28
-0.7
-0.03
0.08
-0.59
-0.1
-0.46

>  <PUBCHEM_SHAPE_SELFOVERLAP>  (1) 
396.909

>  <PUBCHEM_SHAPE_VOLUME>  (1) 
127.1

>  <PUBCHEM_COORDINATE_TYPE>  (1) 
2
5
10

$$$$
