13632
     RDKit          3D

 10 10  0  0  0  0  0  0  0  0999 V2000
    1.6896    1.0248    1.1620 O   0  0  0  0  0  0  0  0  0  0  0  0
    0.5157    1.1241   -0.8475 N   0  0  0  0  0  0  0  0  0  0  0  0
   -1.6886   -1.3973    0.2939 C   0  0  0  0  0  0  0  0  0  0  0  0
   -1.7183    0.0379    0.8415 C   0  0  0  0  0  0  0  0  0  0  0  0
   -0.5082   -1.8162   -0.5951 C   0  0  0  0  0  0  0  0  0  0  0  0
   -1.8423    1.1437   -0.2218 C   0  0  0  0  0  0  0  0  0  0  0  0
    0.8610   -1.8576    0.1071 C   0  0  0  0  0  0  0  0  0  0  0  0
   -0.5692    1.9756   -0.4187 C   0  0  0  0  0  0  0  0  0  0  0  0
    1.8605   -0.8005   -0.3817 C   0  0  0  0  0  0  0  0  0  0  0  0
    1.3999    0.5655    0.0603 C   0  0  0  0  0  0  0  0  0  0  0  0
  1 10  2  0
  2  8  1  0
  2 10  1  0
  3  4  1  0
  3  5  1  0
  4  6  1  0
  5  7  1  0
  6  8  1  0
  7  9  1  0
  9 10  1  0
M  END
>  <PUBCHEM_COMPOUND_CID>  (1) 
13632

>  <PUBCHEM_CONFORMER_RMSD>  (1) 
0.4

>  <PUBCHEM_CONFORMER_DIVERSEORDER>  (1) 
2
16
1
8
18
26
19
9
10
27
22
20
23
25
7
24
21
13
14
4
3
6
11
5
17
15
12

>  <PUBCHEM_MMFF94_PARTIAL_CHARGES>  (1) 
6
1 -0.57
10 0.57
2 -0.73
25 0.37
8 0.3
9 0.06

>  <PUBCHEM_EFFECTIVE_ROTOR_COUNT>  (1) 
1.6

>  <PUBCHEM_PHARMACOPHORE_FEATURES>  (1) 
2
1 1 acceptor
1 2 donor

>  <PUBCHEM_HEAVY_ATOM_COUNT>  (1) 
10

>  <PUBCHEM_ATOM_DEF_STEREO_COUNT>  (1) 
0

>  <PUBCHEM_ATOM_UDEF_STEREO_COUNT>  (1) 
0

>  <PUBCHEM_BOND_DEF_STEREO_COUNT>  (1) 
0

>  <PUBCHEM_BOND_UDEF_STEREO_COUNT>  (1) 
0

>  <PUBCHEM_ISOTOPIC_ATOM_COUNT>  (1) 
0

>  <PUBCHEM_COMPONENT_COUNT>  (1) 
1

>  <PUBCHEM_CACTVS_TAUTO_COUNT>  (1) 
2

>  <PUBCHEM_CONFORMER_ID>  (1) 
0000354000000002

>  <PUBCHEM_MMFF94_ENERGY>  (1) 
19.2254

>  <PUBCHEM_FEATURE_SELFOVERLAP>  (1) 
10.148

>  <PUBCHEM_SHAPE_FINGERPRINT>  (1) 
16945 1 18046920285441894094
18185500 45 17618225451995311535
20201158 50 17112408918834927127
21040471 1 18336828567771626580
21922407 69 15285655295026860053
241688 4 18410018770439645218
2748010 2 18410578404815399119
5084963 1 18198078038709323683
528862 383 12358321618994150880
54338 74 17545854467062885266
66348 1 18337956666844175495

>  <PUBCHEM_SHAPE_MULTIPOLES>  (1) 
194.94
2.54
2.32
0.92
0.13
0.4
0.11
-0.11
0.12
0.1
-0.08
-0.02
-0.14
0.42

>  <PUBCHEM_SHAPE_SELFOVERLAP>  (1) 
372.284

>  <PUBCHEM_SHAPE_VOLUME>  (1) 
118

>  <PUBCHEM_COORDINATE_TYPE>  (1) 
2
5
10

$$$$
