13637
     RDKit          3D

 11 11  0  0  0  0  0  0  0  0999 V2000
   -0.5225    2.2443   -0.2306 O   0  0  0  0  0  0  0  0  0  0  0  0
    1.8110    1.2419    0.5968 O   0  0  0  0  0  0  0  0  0  0  0  0
    2.2255   -0.8503   -0.3164 N   0  0  0  0  0  0  0  0  0  0  0  0
    3.5962   -0.6843   -0.2661 N   0  0  0  0  0  0  0  0  0  0  0  0
   -0.0478   -0.0875    0.0727 C   0  0  0  0  0  0  0  0  0  0  0  0
   -0.9537    0.9572   -0.1095 C   0  0  0  0  0  0  0  0  0  0  0  0
   -0.5098   -1.3980    0.1952 C   0  0  0  0  0  0  0  0  0  0  0  0
   -2.3218    0.6916   -0.1691 C   0  0  0  0  0  0  0  0  0  0  0  0
   -1.8779   -1.6636    0.1356 C   0  0  0  0  0  0  0  0  0  0  0  0
    1.3845    0.1675    0.1379 C   0  0  0  0  0  0  0  0  0  0  0  0
   -2.7839   -0.6188   -0.0465 C   0  0  0  0  0  0  0  0  0  0  0  0
  1  6  1  0
  2 10  2  0
  3  4  1  0
  3 10  1  0
  5  6  2  0
  5  7  1  0
  5 10  1  0
  6  8  1  0
  7  9  2  0
  8 11  2  0
  9 11  1  0
M  END
>  <PUBCHEM_COMPOUND_CID>  (1) 
13637

>  <PUBCHEM_CONFORMER_RMSD>  (1) 
0.4

>  <PUBCHEM_CONFORMER_DIVERSEORDER>  (1) 
2
3
5
4
6
1

>  <PUBCHEM_MMFF94_PARTIAL_CHARGES>  (1) 
19
1 -0.53
10 0.54
11 -0.15
12 0.15
13 0.15
14 0.15
15 0.15
16 0.37
17 0.45
18 0.36
19 0.36
2 -0.57
3 -0.42
4 -0.73
5 0.09
6 0.08
7 -0.15
8 -0.15
9 -0.15

>  <PUBCHEM_EFFECTIVE_ROTOR_COUNT>  (1) 
2

>  <PUBCHEM_PHARMACOPHORE_FEATURES>  (1) 
5
1 1 donor
1 2 acceptor
1 3 donor
1 4 donor
6 5 6 7 8 9 11 rings

>  <PUBCHEM_HEAVY_ATOM_COUNT>  (1) 
11

>  <PUBCHEM_ATOM_DEF_STEREO_COUNT>  (1) 
0

>  <PUBCHEM_ATOM_UDEF_STEREO_COUNT>  (1) 
0

>  <PUBCHEM_BOND_DEF_STEREO_COUNT>  (1) 
0

>  <PUBCHEM_BOND_UDEF_STEREO_COUNT>  (1) 
0

>  <PUBCHEM_ISOTOPIC_ATOM_COUNT>  (1) 
0

>  <PUBCHEM_COMPONENT_COUNT>  (1) 
1

>  <PUBCHEM_CACTVS_TAUTO_COUNT>  (1) 
7

>  <PUBCHEM_CONFORMER_ID>  (1) 
0000354500000002

>  <PUBCHEM_MMFF94_ENERGY>  (1) 
29.5367

>  <PUBCHEM_FEATURE_SELFOVERLAP>  (1) 
26.877

>  <PUBCHEM_SHAPE_FINGERPRINT>  (1) 
12032990 46 18336833082209879859
12423570 1 17835791272560541931
12524768 44 18339917237752320667
12716758 59 18335133198356755155
12897270 3 18409726248822762983
13024252 1 17240490186672870971
15219456 202 18271519901007270512
16945 1 18338228263390824147
19973954 147 18339923826184861865
20201158 50 18272934895004778694
20871998 184 18344150297448108951
21040471 1 18192141595174008489
23552423 10 18187645863800162670
23559900 14 18268989800878363598
241688 4 18409448098340676241
2748010 2 18338229483187857967
29004967 10 18266740379611150331
369184 2 15051728672895062443
5084963 1 18272367555451998753

>  <PUBCHEM_SHAPE_MULTIPOLES>  (1) 
204.67
4.16
1.8
0.64
2.51
0.44
0.02
-1.13
-0.32
-0.44
0
0.03
0.01
0.3

>  <PUBCHEM_SHAPE_SELFOVERLAP>  (1) 
429.141

>  <PUBCHEM_SHAPE_VOLUME>  (1) 
115.3

>  <PUBCHEM_COORDINATE_TYPE>  (1) 
2
5
10

$$$$
