13639
     RDKit          3D

 11 12  0  0  0  0  0  0  0  0999 V2000
    1.7871   -1.1019    0.0015 N   0  0  0  0  0  0  0  0  0  0  0  0
    1.7157    1.1624   -0.0002 N   0  0  0  0  0  0  0  0  0  0  0  0
    3.1841   -0.7874   -0.0059 C   0  0  0  0  0  0  0  0  0  0  0  0
    3.1471    0.7433    0.0044 C   0  0  0  0  0  0  0  0  0  0  0  0
    1.0368    0.0397    0.0007 C   0  0  0  0  0  0  0  0  0  0  0  0
   -0.4172    0.0148    0.0001 C   0  0  0  0  0  0  0  0  0  0  0  0
   -1.1354    1.2105   -0.0013 C   0  0  0  0  0  0  0  0  0  0  0  0
   -1.0935   -1.2050    0.0013 C   0  0  0  0  0  0  0  0  0  0  0  0
   -2.5301    1.1864   -0.0014 C   0  0  0  0  0  0  0  0  0  0  0  0
   -2.4882   -1.2293    0.0011 C   0  0  0  0  0  0  0  0  0  0  0  0
   -3.2065   -0.0335   -0.0003 C   0  0  0  0  0  0  0  0  0  0  0  0
  1  3  1  0
  1  5  1  0
  2  4  1  0
  2  5  2  0
  3  4  1  0
  5  6  1  0
  6  7  2  0
  6  8  1  0
  7  9  1  0
  8 10  2  0
  9 11  2  0
 10 11  1  0
M  END
>  <PUBCHEM_COMPOUND_CID>  (1) 
13639

>  <PUBCHEM_CONFORMER_RMSD>  (1) 
0.4

>  <PUBCHEM_CONFORMER_DIVERSEORDER>  (1) 
1
2

>  <PUBCHEM_MMFF94_PARTIAL_CHARGES>  (1) 
17
1 -0.82
10 -0.15
11 -0.15
16 0.4
17 0.15
18 0.15
19 0.15
2 -0.7
20 0.15
21 0.15
3 0.37
4 0.25
5 0.41
6 0.09
7 -0.15
8 -0.15
9 -0.15

>  <PUBCHEM_EFFECTIVE_ROTOR_COUNT>  (1) 
1.6

>  <PUBCHEM_PHARMACOPHORE_FEATURES>  (1) 
4
1 1 donor
3 1 2 5 cation
5 1 2 3 4 5 rings
6 6 7 8 9 10 11 rings

>  <PUBCHEM_HEAVY_ATOM_COUNT>  (1) 
11

>  <PUBCHEM_ATOM_DEF_STEREO_COUNT>  (1) 
0

>  <PUBCHEM_ATOM_UDEF_STEREO_COUNT>  (1) 
0

>  <PUBCHEM_BOND_DEF_STEREO_COUNT>  (1) 
0

>  <PUBCHEM_BOND_UDEF_STEREO_COUNT>  (1) 
0

>  <PUBCHEM_ISOTOPIC_ATOM_COUNT>  (1) 
0

>  <PUBCHEM_COMPONENT_COUNT>  (1) 
1

>  <PUBCHEM_CACTVS_TAUTO_COUNT>  (1) 
1

>  <PUBCHEM_CONFORMER_ID>  (1) 
0000354700000001

>  <PUBCHEM_MMFF94_ENERGY>  (1) 
33.8664

>  <PUBCHEM_FEATURE_SELFOVERLAP>  (1) 
20.297

>  <PUBCHEM_SHAPE_FINGERPRINT>  (1) 
10608611 8 18411695491439118992
12032990 46 18336553797655804235
12897270 3 18410855494530104740
12932764 1 17560795575969591798
13024252 1 15647053763935056289
14144814 61 18410011018128943594
14325111 11 18410575071783594688
15775835 57 18261679177148675281
16945 1 18410575054772387651
19973954 147 18410857676368515104
20201158 50 18342738494300156006
20871998 184 18201443644181949335
21501502 16 18411420622031958068
23402539 116 18201991111104952405
23402655 69 18270105830654961341
23463225 33 18336263440554830578
23552423 10 18260267485780752535
2748010 2 18411136960890507117
3248919 1 18411973663538012558
369184 2 18412544314599884665
5084963 1 18413107242835954465
6333449 129 18412260644894905285
7364860 26 18269839868841822892

>  <PUBCHEM_SHAPE_MULTIPOLES>  (1) 
216.41
5.47
1.45
0.6
1.6
0
0
0.08
0
-0.29
0
-0.03
0
0

>  <PUBCHEM_SHAPE_SELFOVERLAP>  (1) 
461.848

>  <PUBCHEM_SHAPE_VOLUME>  (1) 
119.5

>  <PUBCHEM_COORDINATE_TYPE>  (1) 
2
5
10

$$$$
