13638
     RDKit          3D

 11 12  0  0  0  0  0  0  0  0999 V2000
   -1.6887    0.4252    0.0176 S   0  0  0  0  0  0  0  0  0  0  0  0
   -2.1024    0.7822    1.3579 O   0  0  0  0  0  0  0  0  0  0  0  0
   -2.1390    1.1270   -1.1648 O   0  0  0  0  0  0  0  0  0  0  0  0
   -1.8681   -1.2897   -0.2169 N   0  0  0  0  0  0  0  0  0  0  0  0
    0.0519    0.3739    0.0051 C   0  0  0  0  0  0  0  0  0  0  0  0
    0.5219   -0.9374    0.0021 C   0  0  0  0  0  0  0  0  0  0  0  0
   -0.5499   -1.9855    0.0059 C   0  0  0  0  0  0  0  0  0  0  0  0
    0.8774    1.4806   -0.0053 C   0  0  0  0  0  0  0  0  0  0  0  0
    1.8898   -1.1627    0.0064 C   0  0  0  0  0  0  0  0  0  0  0  0
    2.2518    1.2490   -0.0078 C   0  0  0  0  0  0  0  0  0  0  0  0
    2.7552   -0.0627    0.0000 C   0  0  0  0  0  0  0  0  0  0  0  0
  1  2  2  0
  1  3  2  0
  1  4  1  0
  1  5  1  0
  4  7  1  0
  5  6  2  0
  5  8  1  0
  6  7  1  0
  6  9  1  0
  8 10  2  0
  9 11  2  0
 10 11  1  0
M  END
>  <PUBCHEM_COMPOUND_CID>  (1) 
13638

>  <PUBCHEM_CONFORMER_RMSD>  (1) 
0.4

>  <PUBCHEM_CONFORMER_DIVERSEORDER>  (1) 
1

>  <PUBCHEM_MMFF94_PARTIAL_CHARGES>  (1) 
16
1 1.45
10 -0.15
11 -0.15
14 0.42
15 0.15
16 0.15
17 0.15
18 0.15
2 -0.65
3 -0.65
4 -0.91
5 -0.01
6 -0.14
7 0.5
8 -0.15
9 -0.15

>  <PUBCHEM_EFFECTIVE_ROTOR_COUNT>  (1) 
0.4

>  <PUBCHEM_PHARMACOPHORE_FEATURES>  (1) 
5
1 2 acceptor
1 3 acceptor
1 4 donor
5 1 4 5 6 7 rings
6 5 6 8 9 10 11 rings

>  <PUBCHEM_HEAVY_ATOM_COUNT>  (1) 
11

>  <PUBCHEM_ATOM_DEF_STEREO_COUNT>  (1) 
0

>  <PUBCHEM_ATOM_UDEF_STEREO_COUNT>  (1) 
0

>  <PUBCHEM_BOND_DEF_STEREO_COUNT>  (1) 
0

>  <PUBCHEM_BOND_UDEF_STEREO_COUNT>  (1) 
0

>  <PUBCHEM_ISOTOPIC_ATOM_COUNT>  (1) 
0

>  <PUBCHEM_COMPONENT_COUNT>  (1) 
1

>  <PUBCHEM_CACTVS_TAUTO_COUNT>  (1) 
1

>  <PUBCHEM_CONFORMER_ID>  (1) 
0000354600000001

>  <PUBCHEM_MMFF94_ENERGY>  (1) 
17.3772

>  <PUBCHEM_FEATURE_SELFOVERLAP>  (1) 
25.448

>  <PUBCHEM_SHAPE_FINGERPRINT>  (1) 
11206711 2 18265613371608065878
12423570 1 18114474455914578992
12524768 44 18269840817807834998
15775835 57 18335426780624766124
16945 1 18340206267813868742
17844478 74 17895492374484233553
19973954 147 18339927146389552526
21040471 1 18410291436765264860
23552423 10 18261955270842626422
23559900 14 18270975583608247902
241688 4 18190458461762195913
2748010 2 18411139147313918286
369184 2 18186234047920327986
5084963 1 18338231682084493448
528886 8 18340201895268201208
63268167 104 18411697643254209416

>  <PUBCHEM_SHAPE_MULTIPOLES>  (1) 
213.5
3.48
1.84
0.82
0.53
0.44
-0.06
-0.61
0.01
-0.1
0.07
-0.46
-0.21
-0.01

>  <PUBCHEM_SHAPE_SELFOVERLAP>  (1) 
446.519

>  <PUBCHEM_SHAPE_VOLUME>  (1) 
121.7

>  <PUBCHEM_COORDINATE_TYPE>  (1) 
2
5
10

$$$$
