13636
     RDKit          3D

 11 11  0  0  0  0  0  0  0  0999 V2000
   -2.6952    1.3459    0.0000 Cl  0  0  0  0  0  0  0  0  0  0  0  0
    2.6952    1.3453    0.0000 Cl  0  0  0  0  0  0  0  0  0  0  0  0
    2.6686   -1.8687    0.0001 Cl  0  0  0  0  0  0  0  0  0  0  0  0
   -2.6687   -1.8688   -0.0001 Cl  0  0  0  0  0  0  0  0  0  0  0  0
    0.0004    2.5163   -0.0002 O   0  0  0  0  0  0  0  0  0  0  0  0
    0.0000    1.1500    0.0002 C   0  0  0  0  0  0  0  0  0  0  0  0
   -1.2080    0.4525    0.0002 C   0  0  0  0  0  0  0  0  0  0  0  0
    1.2080    0.4524    0.0000 C   0  0  0  0  0  0  0  0  0  0  0  0
    1.2078   -0.9425   -0.0001 C   0  0  0  0  0  0  0  0  0  0  0  0
   -1.2080   -0.9424    0.0000 C   0  0  0  0  0  0  0  0  0  0  0  0
   -0.0001   -1.6399   -0.0001 C   0  0  0  0  0  0  0  0  0  0  0  0
  1  7  1  0
  2  8  1  0
  3  9  1  0
  4 10  1  0
  5  6  1  0
  6  7  2  0
  6  8  1  0
  7 10  1  0
  8  9  2  0
  9 11  1  0
 10 11  2  0
M  END
>  <PUBCHEM_COMPOUND_CID>  (1) 
13636

>  <PUBCHEM_CONFORMER_RMSD>  (1) 
0.4

>  <PUBCHEM_CONFORMER_DIVERSEORDER>  (1) 
1

>  <PUBCHEM_MMFF94_PARTIAL_CHARGES>  (1) 
13
1 -0.18
10 0.18
11 -0.15
12 0.15
13 0.45
2 -0.18
3 -0.18
4 -0.18
5 -0.53
6 0.08
7 0.18
8 0.18
9 0.18

>  <PUBCHEM_EFFECTIVE_ROTOR_COUNT>  (1) 
0

>  <PUBCHEM_PHARMACOPHORE_FEATURES>  (1) 
2
1 5 donor
6 6 7 8 9 10 11 rings

>  <PUBCHEM_HEAVY_ATOM_COUNT>  (1) 
11

>  <PUBCHEM_ATOM_DEF_STEREO_COUNT>  (1) 
0

>  <PUBCHEM_ATOM_UDEF_STEREO_COUNT>  (1) 
0

>  <PUBCHEM_BOND_DEF_STEREO_COUNT>  (1) 
0

>  <PUBCHEM_BOND_UDEF_STEREO_COUNT>  (1) 
0

>  <PUBCHEM_ISOTOPIC_ATOM_COUNT>  (1) 
0

>  <PUBCHEM_COMPONENT_COUNT>  (1) 
1

>  <PUBCHEM_CACTVS_TAUTO_COUNT>  (1) 
2

>  <PUBCHEM_CONFORMER_ID>  (1) 
0000354400000001

>  <PUBCHEM_MMFF94_ENERGY>  (1) 
23.4626

>  <PUBCHEM_FEATURE_SELFOVERLAP>  (1) 
10.148

>  <PUBCHEM_SHAPE_FINGERPRINT>  (1) 
11206711 2 18265334095728522237
12423570 1 11898729452334993312
13140716 1 18410855417178742642
13380535 21 18410586084074434404
16945 1 18410855468718258789
193761 8 18410573989446444422
20588541 1 18047193230497731178
20871998 184 18129377116190065510
21040471 1 18410856559639997441
21501502 16 18410855464428585735
2334 1 18410574015216449570
23402655 69 18341034303861073311
23526114 1 18411419522626098302
23552423 10 18333453140342174726
23559900 14 18198346153066442486
241688 4 18410011000838402266
2748010 2 18411418414382007198
53812653 166 18271242832303242648
68250623 7 18410859862469945506

>  <PUBCHEM_SHAPE_MULTIPOLES>  (1) 
227.98
3.98
2.63
0.62
0
0.2
0
-0.6
0
0
0
0
-0.02
0

>  <PUBCHEM_SHAPE_SELFOVERLAP>  (1) 
443.28

>  <PUBCHEM_SHAPE_VOLUME>  (1) 
141.7

>  <PUBCHEM_COORDINATE_TYPE>  (1) 
2
5
10

$$$$
