13641
     RDKit          3D

 11 11  0  0  0  0  0  0  0  0999 V2000
    3.8006   -0.2162    0.0000 F   0  0  0  0  0  0  0  0  0  0  0  0
   -3.7367   -0.6858    0.0001 O   0  0  0  0  0  0  0  0  0  0  0  0
   -1.7219    0.2179   -0.0004 N   0  0  0  0  0  0  0  0  0  0  0  0
   -2.5201   -0.9000    0.0006 N   0  0  0  0  0  0  0  0  0  0  0  0
   -0.3158    0.1075    0.0002 C   0  0  0  0  0  0  0  0  0  0  0  0
    0.4741    1.2571    0.0005 C   0  0  0  0  0  0  0  0  0  0  0  0
    0.2849   -1.1515   -0.0002 C   0  0  0  0  0  0  0  0  0  0  0  0
    1.8648    1.1477    0.0002 C   0  0  0  0  0  0  0  0  0  0  0  0
    1.6755   -1.2607   -0.0003 C   0  0  0  0  0  0  0  0  0  0  0  0
    2.4654   -0.1111   -0.0001 C   0  0  0  0  0  0  0  0  0  0  0  0
   -2.2708    1.5951   -0.0006 C   0  0  0  0  0  0  0  0  0  0  0  0
  1 10  1  0
  2  4  2  0
  3  4  1  0
  3  5  1  0
  3 11  1  0
  5  6  2  0
  5  7  1  0
  6  8  1  0
  7  9  2  0
  8 10  2  0
  9 10  1  0
M  END
>  <PUBCHEM_COMPOUND_CID>  (1) 
13641

>  <PUBCHEM_CONFORMER_RMSD>  (1) 
0.4

>  <PUBCHEM_CONFORMER_DIVERSEORDER>  (1) 
1
4
3
5
2
6
7

>  <PUBCHEM_MMFF94_PARTIAL_CHARGES>  (1) 
14
1 -0.19
10 0.19
11 0.37
12 0.15
13 0.15
14 0.15
15 0.15
2 -0.16
3 -0.3
5 0.1
6 -0.15
7 -0.15
8 -0.15
9 -0.15

>  <PUBCHEM_EFFECTIVE_ROTOR_COUNT>  (1) 
2

>  <PUBCHEM_PHARMACOPHORE_FEATURES>  (1) 
1
6 5 6 7 8 9 10 rings

>  <PUBCHEM_HEAVY_ATOM_COUNT>  (1) 
11

>  <PUBCHEM_ATOM_DEF_STEREO_COUNT>  (1) 
0

>  <PUBCHEM_ATOM_UDEF_STEREO_COUNT>  (1) 
0

>  <PUBCHEM_BOND_DEF_STEREO_COUNT>  (1) 
0

>  <PUBCHEM_BOND_UDEF_STEREO_COUNT>  (1) 
0

>  <PUBCHEM_ISOTOPIC_ATOM_COUNT>  (1) 
0

>  <PUBCHEM_COMPONENT_COUNT>  (1) 
1

>  <PUBCHEM_CACTVS_TAUTO_COUNT>  (1) 
1

>  <PUBCHEM_CONFORMER_ID>  (1) 
0000354900000001

>  <PUBCHEM_MMFF94_ENERGY>  (1) 
34.9694

>  <PUBCHEM_FEATURE_SELFOVERLAP>  (1) 
5.074

>  <PUBCHEM_SHAPE_FINGERPRINT>  (1) 
10857977 72 18411688885742026984
11062470 55 13117996708158430607
12032990 46 18341056237663084342
12897270 3 18409164433009590231
12932764 1 17274810350932500852
14325111 11 18410856551287433188
16945 1 18410574023901219270
19973954 147 18410576158605700797
20201158 50 18408041818663422115
21040471 1 18410575136624770560
23402655 69 18196356040993356085
23552423 10 18261396606891890181
2748010 2 18268148652048052894
29004967 10 18411139104316551664
5084963 1 18343303690542448816
528886 8 18339073787795706136
8809292 202 18115030821841670851

>  <PUBCHEM_SHAPE_MULTIPOLES>  (1) 
203.27
5.06
1.53
0.58
1.2
0.23
0
-0.64
0
0.3
0
-0.03
0.02
0

>  <PUBCHEM_SHAPE_SELFOVERLAP>  (1) 
418.847

>  <PUBCHEM_SHAPE_VOLUME>  (1) 
118.1

>  <PUBCHEM_COORDINATE_TYPE>  (1) 
2
5
10

$$$$
