13646
     RDKit          3D

 12 12  0  0  0  0  0  0  0  0999 V2000
    4.3549    1.7006    0.0833 Cl  0  0  0  0  0  0  0  0  0  0  0  0
    0.8381   -0.8791   -0.0472 S   0  0  0  0  0  0  0  0  0  0  0  0
    1.0440   -1.6539    1.1682 O   0  0  0  0  0  0  0  0  0  0  0  0
    1.0807   -1.4933   -1.3455 O   0  0  0  0  0  0  0  0  0  0  0  0
    1.8721    0.5653    0.0437 C   0  0  0  0  0  0  0  0  0  0  0  0
   -0.7900   -0.2495   -0.0145 C   0  0  0  0  0  0  0  0  0  0  0  0
    3.3512    0.2314    0.0283 C   0  0  0  0  0  0  0  0  0  0  0  0
   -1.4362    0.0749   -1.2073 C   0  0  0  0  0  0  0  0  0  0  0  0
   -1.4439   -0.0696    1.2043 C   0  0  0  0  0  0  0  0  0  0  0  0
   -2.7365    0.5794   -1.1812 C   0  0  0  0  0  0  0  0  0  0  0  0
   -2.7442    0.4347    1.2304 C   0  0  0  0  0  0  0  0  0  0  0  0
   -3.3904    0.7592    0.0376 C   0  0  0  0  0  0  0  0  0  0  0  0
  1  7  1  0
  2  3  2  0
  2  4  2  0
  2  5  1  0
  2  6  1  0
  5  7  1  0
  6  8  2  0
  6  9  1  0
  8 10  1  0
  9 11  2  0
 10 12  2  0
 11 12  1  0
M  END
>  <PUBCHEM_COMPOUND_CID>  (1) 
13646

>  <PUBCHEM_CONFORMER_RMSD>  (1) 
0.6

>  <PUBCHEM_CONFORMER_DIVERSEORDER>  (1) 
1
2
5
4
6
3

>  <PUBCHEM_MMFF94_PARTIAL_CHARGES>  (1) 
17
1 -0.29
10 -0.15
11 -0.15
12 -0.15
17 0.15
18 0.15
19 0.15
2 1.2
20 0.15
21 0.15
3 -0.65
4 -0.65
5 0.11
6 -0.01
7 0.29
8 -0.15
9 -0.15

>  <PUBCHEM_EFFECTIVE_ROTOR_COUNT>  (1) 
3

>  <PUBCHEM_PHARMACOPHORE_FEATURES>  (1) 
3
1 3 acceptor
1 4 acceptor
6 6 8 9 10 11 12 rings

>  <PUBCHEM_HEAVY_ATOM_COUNT>  (1) 
12

>  <PUBCHEM_ATOM_DEF_STEREO_COUNT>  (1) 
0

>  <PUBCHEM_ATOM_UDEF_STEREO_COUNT>  (1) 
0

>  <PUBCHEM_BOND_DEF_STEREO_COUNT>  (1) 
0

>  <PUBCHEM_BOND_UDEF_STEREO_COUNT>  (1) 
0

>  <PUBCHEM_ISOTOPIC_ATOM_COUNT>  (1) 
0

>  <PUBCHEM_COMPONENT_COUNT>  (1) 
1

>  <PUBCHEM_CACTVS_TAUTO_COUNT>  (1) 
1

>  <PUBCHEM_CONFORMER_ID>  (1) 
0000354E00000001

>  <PUBCHEM_MMFF94_ENERGY>  (1) 
14.8253

>  <PUBCHEM_FEATURE_SELFOVERLAP>  (1) 
15.241

>  <PUBCHEM_SHAPE_FINGERPRINT>  (1) 
10465860 71 14477245972391141056
10857977 72 16660940906386229829
11127187 94 13542470881533108341
12186901 62 15841556271219065637
12251169 10 15719390655127086228
12326174 3 18266741272896250134
12932764 1 18041851584425521195
13296909 8 16226042331650682343
13581323 91 15791736299478127153
15219456 202 17531524282867694986
15775835 57 18341326773220916068
170605 34 18341898476201492578
18186145 218 18341900705732676404
20112054 13 18260828237212351044
20281407 28 9655580703648302016
20645464 45 17676490527588043817
20645476 183 17203603775137763301
20653085 51 17917155025858061104
20871999 31 15267342933441124233
21119208 17 16343707642413405016
21499 59 18202283628036256084
21524375 3 18340203102502105900
22926399 37 18273212014926959561
23382010 3 16845002533062667138
23402539 116 14924210660866036127
23552423 10 16987158206687065319
23557571 272 17385737863267121011
23559900 14 16516246207042667938
27216 239 17823135794825002312
2748010 2 14998520965039563159
3248919 1 17916858007368520855
369184 2 18114461146311796323
528716 315 16271928246054569277
8030462 33 16486961844286236743
90316 7 14418124097988252910

>  <PUBCHEM_SHAPE_MULTIPOLES>  (1) 
240.93
6.52
1.39
1.3
4.68
0.21
0.04
-4.02
-0.24
1.11
-0.01
-0.82
0.18
0.13

>  <PUBCHEM_SHAPE_SELFOVERLAP>  (1) 
467.525

>  <PUBCHEM_SHAPE_VOLUME>  (1) 
146.5

>  <PUBCHEM_COORDINATE_TYPE>  (1) 
2
5
10

$$$$
