13648
     RDKit          3D

 12 13  0  0  0  0  0  0  0  0999 V2000
   -1.4614   -2.1580   -0.0012 N   0  0  0  0  0  0  0  0  0  0  0  0
   -3.4152   -0.1444    0.0012 N   0  0  0  0  0  0  0  0  0  0  0  0
    0.3032   -0.4529    0.0002 C   0  0  0  0  0  0  0  0  0  0  0  0
    0.6720    0.9135   -0.0001 C   0  0  0  0  0  0  0  0  0  0  0  0
   -1.0583   -0.7968    0.0001 C   0  0  0  0  0  0  0  0  0  0  0  0
   -2.0422    0.1922   -0.0001 C   0  0  0  0  0  0  0  0  0  0  0  0
   -0.3318    1.8958   -0.0003 C   0  0  0  0  0  0  0  0  0  0  0  0
    1.3070   -1.4352    0.0004 C   0  0  0  0  0  0  0  0  0  0  0  0
   -1.6797    1.5359   -0.0004 C   0  0  0  0  0  0  0  0  0  0  0  0
    2.0337    1.2573   -0.0001 C   0  0  0  0  0  0  0  0  0  0  0  0
    2.6551   -1.0755    0.0003 C   0  0  0  0  0  0  0  0  0  0  0  0
    3.0176    0.2682    0.0001 C   0  0  0  0  0  0  0  0  0  0  0  0
  1  5  1  0
  2  6  1  0
  3  4  1  0
  3  5  2  0
  3  8  1  0
  4  7  2  0
  4 10  1  0
  5  6  1  0
  6  9  2  0
  7  9  1  0
  8 11  2  0
 10 12  2  0
 11 12  1  0
M  END
>  <PUBCHEM_COMPOUND_CID>  (1) 
13648

>  <PUBCHEM_CONFORMER_RMSD>  (1) 
0.4

>  <PUBCHEM_CONFORMER_DIVERSEORDER>  (1) 
1

>  <PUBCHEM_MMFF94_PARTIAL_CHARGES>  (1) 
20
1 -0.9
10 -0.15
11 -0.15
12 -0.15
13 0.15
14 0.15
15 0.15
16 0.15
17 0.15
18 0.15
19 0.4
2 -0.9
20 0.4
21 0.4
22 0.4
5 0.1
6 0.1
7 -0.15
8 -0.15
9 -0.15

>  <PUBCHEM_EFFECTIVE_ROTOR_COUNT>  (1) 
0

>  <PUBCHEM_PHARMACOPHORE_FEATURES>  (1) 
6
1 1 cation
1 1 donor
1 2 cation
1 2 donor
6 3 4 5 6 7 9 rings
6 3 4 8 10 11 12 rings

>  <PUBCHEM_HEAVY_ATOM_COUNT>  (1) 
12

>  <PUBCHEM_ATOM_DEF_STEREO_COUNT>  (1) 
0

>  <PUBCHEM_ATOM_UDEF_STEREO_COUNT>  (1) 
0

>  <PUBCHEM_BOND_DEF_STEREO_COUNT>  (1) 
0

>  <PUBCHEM_BOND_UDEF_STEREO_COUNT>  (1) 
0

>  <PUBCHEM_ISOTOPIC_ATOM_COUNT>  (1) 
0

>  <PUBCHEM_COMPONENT_COUNT>  (1) 
1

>  <PUBCHEM_CACTVS_TAUTO_COUNT>  (1) 
1

>  <PUBCHEM_CONFORMER_ID>  (1) 
0000355000000001

>  <PUBCHEM_MMFF94_ENERGY>  (1) 
59.6914

>  <PUBCHEM_FEATURE_SELFOVERLAP>  (1) 
30.48

>  <PUBCHEM_SHAPE_FINGERPRINT>  (1) 
10967382 1 18410855481629385030
11206711 2 18264489490156666685
12032990 46 18410019827159868419
12382932 28 18340483473434838466
12423570 1 12388191540295402490
12524768 44 18412831265391099870
12897270 3 18410856581357323180
13380535 76 18411697694730870638
14325111 11 18338516343885051489
16945 1 18410855460286560260
17844478 74 18040726852681094401
193761 8 17617940674188678724
20201158 50 18410291406431591850
20588541 1 18411984675760319427
20871998 184 18201441419077517215
21040471 1 18338798897172710624
21501502 16 18339082571109373344
2334 1 17978229692271132898
23402539 116 18270385131824085279
23402655 69 18341320124949158893
23463225 33 18408040689171061880
23552423 10 18261113040514091244
23559900 14 18198910211300579374
2748010 2 18050848020106992652
369184 2 18412260605992383680
5084963 1 18129940061826900696
528886 8 18411695530167242570
53812653 166 18200026386499338288
7364860 26 18343584062409052332
8809292 202 18333455365098544882

>  <PUBCHEM_SHAPE_MULTIPOLES>  (1) 
236.99
4.18
1.99
0.6
0.08
0.11
0
0.33
0
0.23
0
-0.03
-0.02
0

>  <PUBCHEM_SHAPE_SELFOVERLAP>  (1) 
522.044

>  <PUBCHEM_SHAPE_VOLUME>  (1) 
126.1

>  <PUBCHEM_COORDINATE_TYPE>  (1) 
2
5
10

$$$$
