13643
     RDKit          3D

 11 11  0  0  0  0  0  0  0  0999 V2000
    2.5043    1.4531    1.0230 O   0  0  0  0  0  0  0  0  0  0  0  0
    1.8998   -0.3202    0.0468 N   0  0  0  0  0  0  0  0  0  0  0  0
    2.2619    0.9513   -0.0813 N   0  0  0  0  0  0  0  0  0  0  0  0
    0.8829   -0.7650   -0.8720 C   0  0  0  0  0  0  0  0  0  0  0  0
   -0.4885   -0.3792   -0.4298 C   0  0  0  0  0  0  0  0  0  0  0  0
   -1.2257   -1.2378    0.3856 C   0  0  0  0  0  0  0  0  0  0  0  0
   -1.0337    0.8400   -0.8321 C   0  0  0  0  0  0  0  0  0  0  0  0
   -2.5084   -0.8773    0.7986 C   0  0  0  0  0  0  0  0  0  0  0  0
   -2.3163    1.2007   -0.4189 C   0  0  0  0  0  0  0  0  0  0  0  0
    3.0774   -1.2076   -0.0165 C   0  0  0  0  0  0  0  0  0  0  0  0
   -3.0536    0.3420    0.3965 C   0  0  0  0  0  0  0  0  0  0  0  0
  1  3  2  0
  2  3  1  0
  2  4  1  0
  2 10  1  0
  4  5  1  0
  5  6  2  0
  5  7  1  0
  6  8  1  0
  7  9  2  0
  8 11  2  0
  9 11  1  0
M  END
>  <PUBCHEM_COMPOUND_CID>  (1) 
13643

>  <PUBCHEM_CONFORMER_RMSD>  (1) 
0.6

>  <PUBCHEM_CONFORMER_DIVERSEORDER>  (1) 
2
12
13
10
7
17
8
18
9
15
1
3
14
11
16
5
4
6

>  <PUBCHEM_MMFF94_PARTIAL_CHARGES>  (1) 
16
1 -0.16
10 0.27
11 -0.15
14 0.15
15 0.15
16 0.15
17 0.15
2 -0.36
21 0.15
3 -0.01
4 0.41
5 -0.14
6 -0.15
7 -0.15
8 -0.15
9 -0.15

>  <PUBCHEM_EFFECTIVE_ROTOR_COUNT>  (1) 
3

>  <PUBCHEM_PHARMACOPHORE_FEATURES>  (1) 
1
6 5 6 7 8 9 11 rings

>  <PUBCHEM_HEAVY_ATOM_COUNT>  (1) 
11

>  <PUBCHEM_ATOM_DEF_STEREO_COUNT>  (1) 
0

>  <PUBCHEM_ATOM_UDEF_STEREO_COUNT>  (1) 
0

>  <PUBCHEM_BOND_DEF_STEREO_COUNT>  (1) 
0

>  <PUBCHEM_BOND_UDEF_STEREO_COUNT>  (1) 
0

>  <PUBCHEM_ISOTOPIC_ATOM_COUNT>  (1) 
0

>  <PUBCHEM_COMPONENT_COUNT>  (1) 
1

>  <PUBCHEM_CACTVS_TAUTO_COUNT>  (1) 
1

>  <PUBCHEM_CONFORMER_ID>  (1) 
0000354B00000002

>  <PUBCHEM_MMFF94_ENERGY>  (1) 
31.4439

>  <PUBCHEM_FEATURE_SELFOVERLAP>  (1) 
5.074

>  <PUBCHEM_SHAPE_FINGERPRINT>  (1) 
10857977 72 18113343041543768557
124424 183 18265045839067113542
12696612 119 18335142050263532644
12932764 1 18341620333982442150
15775835 57 17632572803180104112
16945 1 17458346338411028399
19973954 147 18409731759318720140
20201158 50 18341333275495460063
20528008 55 18408321099159445975
20645464 45 18411704257567272191
20653085 51 17346326934084625225
20715346 28 18334856121231311853
20871998 184 18337686316176179039
21028194 46 18341894060880147365
23552423 10 17531258282711087703
3248919 1 17822007652839320478
369184 2 18410855464771386191
5084963 1 18041570143391564319

>  <PUBCHEM_SHAPE_MULTIPOLES>  (1) 
210.54
4.98
1.47
0.93
1.5
0.12
0.02
0.14
1.02
0.18
0.16
0.06
0.1
0.72

>  <PUBCHEM_SHAPE_SELFOVERLAP>  (1) 
428.261

>  <PUBCHEM_SHAPE_VOLUME>  (1) 
123.8

>  <PUBCHEM_COORDINATE_TYPE>  (1) 
2
5
10

$$$$
