13669
     RDKit          3D

 13 13  0  0  0  0  0  0  0  0999 V2000
    3.7280    1.1459   -0.0003 O   0  0  0  0  0  0  0  0  0  0  0  0
   -2.6405   -0.0191    0.0002 C   0  0  0  0  0  0  0  0  0  0  0  0
   -1.1031    0.0057    0.0006 C   0  0  0  0  0  0  0  0  0  0  0  0
   -3.1484   -0.7553    1.2587 C   0  0  0  0  0  0  0  0  0  0  0  0
   -3.1481   -0.7555   -1.2585 C   0  0  0  0  0  0  0  0  0  0  0  0
   -3.2883    1.3842   -0.0001 C   0  0  0  0  0  0  0  0  0  0  0  0
   -0.4329   -1.1921   -0.0003 C   0  0  0  0  0  0  0  0  0  0  0  0
   -0.4708    1.2236    0.0006 C   0  0  0  0  0  0  0  0  0  0  0  0
    0.9618   -1.1703   -0.0010 C   0  0  0  0  0  0  0  0  0  0  0  0
    0.9239    1.2454   -0.0002 C   0  0  0  0  0  0  0  0  0  0  0  0
    1.6401    0.0485   -0.0009 C   0  0  0  0  0  0  0  0  0  0  0  0
    3.0944    0.0717    0.0002 C   0  0  0  0  0  0  0  0  0  0  0  0
    3.8839   -1.2327    0.0013 C   0  0  0  0  0  0  0  0  0  0  0  0
  1 12  2  0
  2  3  1  0
  2  4  1  0
  2  5  1  0
  2  6  1  0
  3  7  2  0
  3  8  1  0
  7  9  1  0
  8 10  2  0
  9 11  2  0
 10 11  1  0
 11 12  1  0
 12 13  1  0
M  END
>  <PUBCHEM_COMPOUND_CID>  (1) 
13669

>  <PUBCHEM_CONFORMER_RMSD>  (1) 
0.6

>  <PUBCHEM_CONFORMER_DIVERSEORDER>  (1) 
1
2

>  <PUBCHEM_MMFF94_PARTIAL_CHARGES>  (1) 
14
1 -0.57
10 -0.15
11 0.09
12 0.42
13 0.06
2 0.14
23 0.15
24 0.15
25 0.15
26 0.15
3 -0.14
7 -0.15
8 -0.15
9 -0.15

>  <PUBCHEM_EFFECTIVE_ROTOR_COUNT>  (1) 
2

>  <PUBCHEM_PHARMACOPHORE_FEATURES>  (1) 
3
1 1 acceptor
4 2 4 5 6 hydrophobe
6 3 7 8 9 10 11 rings

>  <PUBCHEM_HEAVY_ATOM_COUNT>  (1) 
13

>  <PUBCHEM_ATOM_DEF_STEREO_COUNT>  (1) 
0

>  <PUBCHEM_ATOM_UDEF_STEREO_COUNT>  (1) 
0

>  <PUBCHEM_BOND_DEF_STEREO_COUNT>  (1) 
0

>  <PUBCHEM_BOND_UDEF_STEREO_COUNT>  (1) 
0

>  <PUBCHEM_ISOTOPIC_ATOM_COUNT>  (1) 
0

>  <PUBCHEM_COMPONENT_COUNT>  (1) 
1

>  <PUBCHEM_CACTVS_TAUTO_COUNT>  (1) 
2

>  <PUBCHEM_CONFORMER_ID>  (1) 
0000356500000001

>  <PUBCHEM_MMFF94_ENERGY>  (1) 
44.9639

>  <PUBCHEM_FEATURE_SELFOVERLAP>  (1) 
15.223

>  <PUBCHEM_SHAPE_FINGERPRINT>  (1) 
10062212 137 18340476777533695195
10219947 1 18412827992789388126
10608611 8 18408884027316634652
11132069 177 18201430363989595306
11401426 45 18342447123861005724
11471102 20 18410006624345855212
12032990 46 18335991908358786498
124424 183 18114175315768853059
12932764 1 17918272077668037377
13214271 11 18408044009312676509
13296908 3 18187368735430530562
13581323 91 15140686877533068425
13760787 5 18410013242985312990
14144814 61 18410012143463129162
14325111 11 18410575089169198688
14993402 34 18272927258378541430
15309172 13 18273219689922604703
15775835 57 18201721747550855269
16945 1 18338517542175327527
17844478 74 18113344119485705261
18175812 5 18259988158366785334
18186145 218 17458345225871982890
190213 19 17822291301222353124
19026448 4 16660361493575288582
19026448 5 16702304563640059650
193761 8 17546164563669832324
19422 9 18131632287663419038
200 152 18201150044902581751
20201158 50 18334012774538580587
20645477 70 18341890745186870990
23402539 116 18272642425227898676
23402655 69 18343016666462905460
23463225 33 18337108973723512566
23559900 14 18341047433497007730
2748010 2 18195247719695994020
5104073 3 18409730651354178824
528886 8 18410569565930803577
633830 44 18260550000377003758

>  <PUBCHEM_SHAPE_MULTIPOLES>  (1) 
261.66
6.76
1.5
0.86
2.54
0.17
0
-0.33
0
0.1
0
-0.79
-0.2
0

>  <PUBCHEM_SHAPE_SELFOVERLAP>  (1) 
539.544

>  <PUBCHEM_SHAPE_VOLUME>  (1) 
152.4

>  <PUBCHEM_COORDINATE_TYPE>  (1) 
2
5
10

$$$$
