13660
     RDKit          3D

 13 14  0  0  1  0  0  0  0  0999 V2000
    1.7362    0.1365    0.0985 N   0  0  0  0  0  0  0  0  0  0  0  0
   -0.7287   -0.3272    0.8490 C   0  0  0  0  0  0  0  0  0  0  0  0
   -1.2488    0.5700   -0.3111 C   0  0  0  0  0  0  0  0  0  0  0  0
   -0.3461    0.0040   -1.4315 C   0  0  0  0  0  0  0  0  0  0  0  0
    0.7151    0.0719    1.2590 C   0  0  0  0  0  0  0  0  0  0  0  0
   -0.7393   -1.7430    0.2212 C   0  0  0  0  0  0  0  0  0  0  0  0
    1.1176    0.4445   -1.2820 C   0  0  0  0  0  0  0  0  0  0  0  0
   -0.4895   -1.5195   -1.2752 C   0  0  0  0  0  0  0  0  0  0  0  0
   -1.6055   -0.2933    2.1080 C   0  0  0  0  0  0  0  0  0  0  0  0
   -2.7573    0.4644   -0.5999 C   0  0  0  0  0  0  0  0  0  0  0  0
   -0.9743    2.0829   -0.1005 C   0  0  0  0  0  0  0  0  0  0  0  0
    2.7460    1.2590    0.4214 C   0  0  0  0  0  0  0  0  0  0  0  0
    2.5746   -1.1501    0.0431 C   0  0  0  0  0  0  0  0  0  0  0  0
  1  5  1  0
  1  7  1  0
  1 12  1  0
  1 13  1  0
  2  3  1  0
  2  5  1  0
  2  6  1  0
  2  9  1  0
  3  4  1  0
  3 10  1  0
  3 11  1  0
  4  7  1  0
  4  8  1  0
  6  8  1  0
M  CHG  1   1   1
M  END
>  <PUBCHEM_COMPOUND_CID>  (1) 
13660

>  <PUBCHEM_CONFORMER_RMSD>  (1) 
0.4

>  <PUBCHEM_CONFORMER_DIVERSEORDER>  (1) 
1
2

>  <PUBCHEM_MMFF94_PARTIAL_CHARGES>  (1) 
5
1 -1.01
12 0.5
13 0.5
5 0.5
7 0.5

>  <PUBCHEM_EFFECTIVE_ROTOR_COUNT>  (1) 
1.2

>  <PUBCHEM_PHARMACOPHORE_FEATURES>  (1) 
3
1 1 cation
3 3 10 11 hydrophobe
8 1 2 3 4 5 6 7 8 rings

>  <PUBCHEM_HEAVY_ATOM_COUNT>  (1) 
13

>  <PUBCHEM_ATOM_DEF_STEREO_COUNT>  (1) 
0

>  <PUBCHEM_ATOM_UDEF_STEREO_COUNT>  (1) 
2

>  <PUBCHEM_BOND_DEF_STEREO_COUNT>  (1) 
0

>  <PUBCHEM_BOND_UDEF_STEREO_COUNT>  (1) 
0

>  <PUBCHEM_ISOTOPIC_ATOM_COUNT>  (1) 
0

>  <PUBCHEM_COMPONENT_COUNT>  (1) 
1

>  <PUBCHEM_CACTVS_TAUTO_COUNT>  (1) 
1

>  <PUBCHEM_CONFORMER_ID>  (1) 
0000355C00000001

>  <PUBCHEM_MMFF94_ENERGY>  (1) 
69.4483

>  <PUBCHEM_FEATURE_SELFOVERLAP>  (1) 
15.223

>  <PUBCHEM_SHAPE_FINGERPRINT>  (1) 
12423570 1 12017890313379806903
13024252 1 17458332087356086360
137420 1 15256845912968100383
14817 1 12494033080864239513
15076042 46 18041574554365324652
15557651 10 17702643511097849385
15775835 57 18130785642187832496
16945 1 18046891702487182691
20653085 51 18130224839707561648
21922407 69 17972893719639776582
22344851 262 18265036102291766684
2748010 2 16805904977209756702
369184 2 18341606049047517174
5084963 1 17774431681620852516
68250623 7 17687735052564019403

>  <PUBCHEM_SHAPE_MULTIPOLES>  (1) 
262.55
3.14
1.67
1.61
1.35
0.09
0.37
0.55
0.25
-0.04
-0.17
-0.51
-0.22
0.2

>  <PUBCHEM_SHAPE_SELFOVERLAP>  (1) 
534.282

>  <PUBCHEM_SHAPE_VOLUME>  (1) 
155.4

>  <PUBCHEM_COORDINATE_TYPE>  (1) 
2
5
10

$$$$
