13677
     RDKit          3D

 14 14  0  0  0  0  0  0  0  0999 V2000
   -0.3414    3.1094    0.3593 Cl  0  0  0  0  0  0  0  0  0  0  0  0
   -0.3309   -3.1107   -0.3585 Cl  0  0  0  0  0  0  0  0  0  0  0  0
   -3.1008    1.5609    0.1796 Cl  0  0  0  0  0  0  0  0  0  0  0  0
   -3.0960   -1.5700   -0.1815 Cl  0  0  0  0  0  0  0  0  0  0  0  0
    2.0132    1.3546    0.1540 O   0  0  0  0  0  0  0  0  0  0  0  0
    2.0172   -1.3485   -0.1550 O   0  0  0  0  0  0  0  0  0  0  0  0
    0.8206    0.6941    0.0808 C   0  0  0  0  0  0  0  0  0  0  0  0
    0.8228   -0.6917   -0.0782 C   0  0  0  0  0  0  0  0  0  0  0  0
   -0.3885    1.3852    0.1599 C   0  0  0  0  0  0  0  0  0  0  0  0
   -0.3842   -1.3863   -0.1584 C   0  0  0  0  0  0  0  0  0  0  0  0
   -1.5954    0.6904    0.0800 C   0  0  0  0  0  0  0  0  0  0  0  0
   -1.5933   -0.6952   -0.0792 C   0  0  0  0  0  0  0  0  0  0  0  0
    2.5738    1.8117   -1.0737 C   0  0  0  0  0  0  0  0  0  0  0  0
    2.5829   -1.8039    1.0709 C   0  0  0  0  0  0  0  0  0  0  0  0
  1  9  1  0
  2 10  1  0
  3 11  1  0
  4 12  1  0
  5  7  1  0
  5 13  1  0
  6  8  1  0
  6 14  1  0
  7  8  2  0
  7  9  1  0
  8 10  1  0
  9 11  2  0
 10 12  2  0
 11 12  1  0
M  END
>  <PUBCHEM_COMPOUND_CID>  (1) 
13677

>  <PUBCHEM_CONFORMER_RMSD>  (1) 
0.6

>  <PUBCHEM_CONFORMER_DIVERSEORDER>  (1) 
2
1

>  <PUBCHEM_MMFF94_PARTIAL_CHARGES>  (1) 
14
1 -0.18
10 0.18
11 0.18
12 0.18
13 0.28
14 0.28
2 -0.18
3 -0.18
4 -0.18
5 -0.36
6 -0.36
7 0.08
8 0.08
9 0.18

>  <PUBCHEM_EFFECTIVE_ROTOR_COUNT>  (1) 
2

>  <PUBCHEM_PHARMACOPHORE_FEATURES>  (1) 
3
1 5 acceptor
1 6 acceptor
6 7 8 9 10 11 12 rings

>  <PUBCHEM_HEAVY_ATOM_COUNT>  (1) 
14

>  <PUBCHEM_ATOM_DEF_STEREO_COUNT>  (1) 
0

>  <PUBCHEM_ATOM_UDEF_STEREO_COUNT>  (1) 
0

>  <PUBCHEM_BOND_DEF_STEREO_COUNT>  (1) 
0

>  <PUBCHEM_BOND_UDEF_STEREO_COUNT>  (1) 
0

>  <PUBCHEM_ISOTOPIC_ATOM_COUNT>  (1) 
0

>  <PUBCHEM_COMPONENT_COUNT>  (1) 
1

>  <PUBCHEM_CACTVS_TAUTO_COUNT>  (1) 
1

>  <PUBCHEM_CONFORMER_ID>  (1) 
0000356D00000002

>  <PUBCHEM_MMFF94_ENERGY>  (1) 
57.1705

>  <PUBCHEM_FEATURE_SELFOVERLAP>  (1) 
15.229

>  <PUBCHEM_SHAPE_FINGERPRINT>  (1) 
10967382 1 18123470479859341257
11206711 2 18267587003839149997
12423570 1 16549472709483016166
13140716 1 18411699842414569859
16945 1 18123756344239848455
193761 8 18410855464586646403
20511035 2 18341883074264081342
21501502 16 18410012139421336807
2334 1 18411699919708143495
23388829 49 18123175814795387017
23419403 2 15895221260232264122
23463225 33 18409165480855022929
23526114 1 18411139138665772989
23552423 10 18334013899603565334
23559900 14 18128824032763051382
241688 4 18411696552416867051
2748010 2 18411981360298748605
5255222 1 18122054579418232773
53812653 8 18265902543060675509
57177213 63 18116439326185149476
90316 7 17176856840642681378

>  <PUBCHEM_SHAPE_MULTIPOLES>  (1) 
283.85
4.01
3.61
0.82
0.72
0
0
0
0
-0.06
0
-0.4
0
-0.9

>  <PUBCHEM_SHAPE_SELFOVERLAP>  (1) 
554.883

>  <PUBCHEM_SHAPE_VOLUME>  (1) 
175.7

>  <PUBCHEM_COORDINATE_TYPE>  (1) 
2
5
10

$$$$
