13672
     RDKit          3D

 13 13  0  0  0  0  0  0  0  0999 V2000
    4.9125   -1.3190    0.3514 Cl  0  0  0  0  0  0  0  0  0  0  0  0
    2.2393    0.1633    0.2974 O   0  0  0  0  0  0  0  0  0  0  0  0
    0.6275    0.7773   -1.2342 O   0  0  0  0  0  0  0  0  0  0  0  0
   -0.0046   -0.2284    0.8890 C   0  0  0  0  0  0  0  0  0  0  0  0
   -1.4334   -0.1736    0.4647 C   0  0  0  0  0  0  0  0  0  0  0  0
   -2.1989    0.9601    0.7376 C   0  0  0  0  0  0  0  0  0  0  0  0
   -2.0041   -1.2558   -0.2055 C   0  0  0  0  0  0  0  0  0  0  0  0
    0.9575    0.3013   -0.1564 C   0  0  0  0  0  0  0  0  0  0  0  0
    3.2611    0.6263   -0.5915 C   0  0  0  0  0  0  0  0  0  0  0  0
   -3.5351    1.0115    0.3406 C   0  0  0  0  0  0  0  0  0  0  0  0
   -3.3404   -1.2042   -0.6025 C   0  0  0  0  0  0  0  0  0  0  0  0
   -4.1058   -0.0705   -0.3294 C   0  0  0  0  0  0  0  0  0  0  0  0
    4.6245    0.4117    0.0391 C   0  0  0  0  0  0  0  0  0  0  0  0
  1 13  1  0
  2  8  1  0
  2  9  1  0
  3  8  2  0
  4  5  1  0
  4  8  1  0
  5  6  2  0
  5  7  1  0
  6 10  1  0
  7 11  2  0
  9 13  1  0
 10 12  2  0
 11 12  1  0
M  END
>  <PUBCHEM_COMPOUND_CID>  (1) 
13672

>  <PUBCHEM_CONFORMER_RMSD>  (1) 
0.6

>  <PUBCHEM_CONFORMER_DIVERSEORDER>  (1) 
1
118
29
132
92
93
133
74
94
78
13
117
69
70
18
80
33
66
38
24
100
20
121
102
7
83
32
60
127
84
119
106
27
6
85
26
49
28
130
68
11
16
17
8
61
52
55
109
131
5
90
44
76
62
25
110
4
31
123
116
2
111
48
81
10
65
54
99
59
56
87
30
108
77
34
14
112
3
41
120
67
45
91
73
122
36
79
124
12
39
97
104
57
50
125
88
63
105
42
40
22
43
126
89
35
9
46
53
101
64
98
103
58
15
72
71
82
95
37
75
129
51
114
115
96
86
19
128
47
107
113
23
21

>  <PUBCHEM_MMFF94_PARTIAL_CHARGES>  (1) 
18
1 -0.29
10 -0.15
11 -0.15
12 -0.15
13 0.29
16 0.15
17 0.15
2 -0.43
20 0.15
21 0.15
22 0.15
3 -0.57
4 0.2
5 -0.14
6 -0.15
7 -0.15
8 0.66
9 0.28

>  <PUBCHEM_EFFECTIVE_ROTOR_COUNT>  (1) 
5

>  <PUBCHEM_PHARMACOPHORE_FEATURES>  (1) 
2
1 3 acceptor
6 5 6 7 10 11 12 rings

>  <PUBCHEM_HEAVY_ATOM_COUNT>  (1) 
13

>  <PUBCHEM_ATOM_DEF_STEREO_COUNT>  (1) 
0

>  <PUBCHEM_ATOM_UDEF_STEREO_COUNT>  (1) 
0

>  <PUBCHEM_BOND_DEF_STEREO_COUNT>  (1) 
0

>  <PUBCHEM_BOND_UDEF_STEREO_COUNT>  (1) 
0

>  <PUBCHEM_ISOTOPIC_ATOM_COUNT>  (1) 
0

>  <PUBCHEM_COMPONENT_COUNT>  (1) 
1

>  <PUBCHEM_CACTVS_TAUTO_COUNT>  (1) 
1

>  <PUBCHEM_CONFORMER_ID>  (1) 
0000356800000001

>  <PUBCHEM_MMFF94_ENERGY>  (1) 
21.2848

>  <PUBCHEM_FEATURE_SELFOVERLAP>  (1) 
10.148

>  <PUBCHEM_SHAPE_FINGERPRINT>  (1) 
10465860 250 17489585653962541106
11401426 45 18186516626951611912
124424 183 17846497032375004928
13167823 11 18413387640145385658
13675066 3 17676493856119295328
14123238 8 11314027976419111586
17834072 33 18341613750477864276
18186145 218 16008751337990884748
19026448 5 18412548725652785852
19489759 90 17704070664300318328
1986462 14 18273216408598946721
200 152 18342172288766584663
20201158 50 16774086180491466151
20279233 1 16774085076305075940
20300324 65 18272932752021527369
20645477 56 18059584546702799241
20645477 70 17894912910946262994
21119208 17 18334856134343002005
21728266 224 17988067976261776303
22485316 2 18413387648898493282
22854114 59 13326855530772072786
23175994 123 16153431640367194565
23402539 116 18060695074900531741
23557571 272 16773254902135104112
23559900 14 18130783482383590536
23590187 198 18412544271798301106
265663 24 18272368672391480350
300161 21 18408881854664244760
573450 72 18271802398038517658
57812782 119 17346884459246373356
9971528 1 18113617898503695900
9981440 41 17180814472164690512

>  <PUBCHEM_SHAPE_MULTIPOLES>  (1) 
257.67
9.75
1.25
0.91
8.79
0.27
0.05
1.34
0.14
-0.25
0.01
0.01
-0.07
-0.76

>  <PUBCHEM_SHAPE_SELFOVERLAP>  (1) 
511.976

>  <PUBCHEM_SHAPE_VOLUME>  (1) 
153.2

>  <PUBCHEM_COORDINATE_TYPE>  (1) 
2
5
10

$$$$
