13681
     RDKit          3D

 14 14  0  0  0  0  0  0  0  0999 V2000
    0.3514    3.4823   -0.0015 Cl  0  0  0  0  0  0  0  0  0  0  0  0
    2.4737    1.3802    0.0003 O   0  0  0  0  0  0  0  0  0  0  0  0
    1.8313   -2.6253   -0.0019 O   0  0  0  0  0  0  0  0  0  0  0  0
    3.2388   -0.9407   -0.0004 O   0  0  0  0  0  0  0  0  0  0  0  0
   -2.9077   -1.8554   -0.0001 O   0  0  0  0  0  0  0  0  0  0  0  0
   -3.6941    0.1942   -0.0006 O   0  0  0  0  0  0  0  0  0  0  0  0
    2.0703   -1.3947   -0.0002 N   0  0  0  0  0  0  0  0  0  0  0  0
   -2.7333   -0.6129   -0.0002 N   0  0  0  0  0  0  0  0  0  0  0  0
    0.9788   -0.4827    0.0017 C   0  0  0  0  0  0  0  0  0  0  0  0
   -1.4074   -0.1042    0.0006 C   0  0  0  0  0  0  0  0  0  0  0  0
   -0.3236   -0.9823    0.0014 C   0  0  0  0  0  0  0  0  0  0  0  0
    1.1972    0.8950    0.0011 C   0  0  0  0  0  0  0  0  0  0  0  0
   -1.1888    1.2734   -0.0002 C   0  0  0  0  0  0  0  0  0  0  0  0
    0.1134    1.7730    0.0001 C   0  0  0  0  0  0  0  0  0  0  0  0
  1 14  1  0
  2 12  1  0
  3  7  1  0
  4  7  2  0
  5  8  1  0
  6  8  2  0
  7  9  1  0
  8 10  1  0
  9 11  2  0
  9 12  1  0
 10 11  1  0
 10 13  2  0
 12 14  2  0
 13 14  1  0
M  CHG  4   3  -1   5  -1   7   1   8   1
M  END
>  <PUBCHEM_COMPOUND_CID>  (1) 
13681

>  <PUBCHEM_CONFORMER_RMSD>  (1) 
0.6

>  <PUBCHEM_CONFORMER_DIVERSEORDER>  (1) 
1

>  <PUBCHEM_MMFF94_PARTIAL_CHARGES>  (1) 
17
1 -0.18
10 0.13
11 -0.15
12 0.08
13 -0.15
14 0.18
15 0.15
16 0.15
17 0.45
2 -0.53
3 -0.52
4 -0.52
5 -0.52
6 -0.52
7 0.91
8 0.91
9 0.13

>  <PUBCHEM_EFFECTIVE_ROTOR_COUNT>  (1) 
2

>  <PUBCHEM_PHARMACOPHORE_FEATURES>  (1) 
8
1 2 donor
1 3 acceptor
1 3 anion
1 4 acceptor
1 5 acceptor
1 5 anion
1 6 acceptor
6 9 10 11 12 13 14 rings

>  <PUBCHEM_HEAVY_ATOM_COUNT>  (1) 
14

>  <PUBCHEM_ATOM_DEF_STEREO_COUNT>  (1) 
0

>  <PUBCHEM_ATOM_UDEF_STEREO_COUNT>  (1) 
0

>  <PUBCHEM_BOND_DEF_STEREO_COUNT>  (1) 
0

>  <PUBCHEM_BOND_UDEF_STEREO_COUNT>  (1) 
0

>  <PUBCHEM_ISOTOPIC_ATOM_COUNT>  (1) 
0

>  <PUBCHEM_COMPONENT_COUNT>  (1) 
1

>  <PUBCHEM_CACTVS_TAUTO_COUNT>  (1) 
6

>  <PUBCHEM_CONFORMER_ID>  (1) 
0000357100000001

>  <PUBCHEM_MMFF94_ENERGY>  (1) 
44.6229

>  <PUBCHEM_FEATURE_SELFOVERLAP>  (1) 
40.76

>  <PUBCHEM_SHAPE_FINGERPRINT>  (1) 
1 1 17977947109251161693
10967382 1 18410573976703973831
11471102 20 18410006680581265765
13380535 76 17332805457634611332
14648413 74 18263644137977750721
15442244 35 18340772555268388417
161256 15 18411979135585031356
16945 1 18266460004093514597
17990270 104 18337106890490294363
193761 8 18194401083063874368
20201158 50 18408039593791293387
20645477 70 18047460408288124631
20711985 365 18120653526563034837
20871998 184 17913200971158625766
20871998 22 18270688553999568094
21501502 16 18338804386098820872
2334 1 18410575080447492741
23526114 1 18338797921945959854
23530152 11 17545886391522991951
23552423 10 18334861614483914367
23559900 14 17046262295826475942
241688 4 18337955567206174880
2748010 2 18411411782968443356
3071541 12 18267027343519693973
63268167 104 18410860996715728361
7364860 26 18268147741578419385
81228 2 18048040674826691784

>  <PUBCHEM_SHAPE_MULTIPOLES>  (1) 
250.67
4.27
3.1
0.57
2.13
1.77
0
-2.2
0
-1.26
0
0
0.06
0

>  <PUBCHEM_SHAPE_SELFOVERLAP>  (1) 
525.515

>  <PUBCHEM_SHAPE_VOLUME>  (1) 
143.4

>  <PUBCHEM_COORDINATE_TYPE>  (1) 
2
5
10

$$$$
