13697
     RDKit          3D

 15 16  0  0  0  0  0  0  0  0999 V2000
   -0.6391   -2.4833   -0.8569 O   0  0  0  0  0  0  0  0  0  0  0  0
    0.0365   -0.5371   -0.4009 N   0  0  0  0  0  0  0  0  0  0  0  0
   -0.1324   -1.7740    0.0206 N   0  0  0  0  0  0  0  0  0  0  0  0
   -1.1277    0.3024   -0.1248 C   0  0  0  0  0  0  0  0  0  0  0  0
    1.2399    0.1073    0.1215 C   0  0  0  0  0  0  0  0  0  0  0  0
   -2.1731    0.1235   -1.2313 C   0  0  0  0  0  0  0  0  0  0  0  0
   -1.7103   -0.0501    1.2483 C   0  0  0  0  0  0  0  0  0  0  0  0
    2.2525   -0.9568    0.5590 C   0  0  0  0  0  0  0  0  0  0  0  0
    1.8376    1.0350   -0.9421 C   0  0  0  0  0  0  0  0  0  0  0  0
   -3.4380    0.9281   -0.9372 C   0  0  0  0  0  0  0  0  0  0  0  0
   -2.9754    0.7552    1.5392 C   0  0  0  0  0  0  0  0  0  0  0  0
    3.5555   -0.3209    1.0402 C   0  0  0  0  0  0  0  0  0  0  0  0
    3.1408    1.6688   -0.4585 C   0  0  0  0  0  0  0  0  0  0  0  0
   -4.0149    0.5888    0.4343 C   0  0  0  0  0  0  0  0  0  0  0  0
    4.1480    0.6131   -0.0113 C   0  0  0  0  0  0  0  0  0  0  0  0
  1  3  2  0
  2  3  1  0
  2  4  1  0
  2  5  1  0
  4  6  1  0
  4  7  1  0
  5  8  1  0
  5  9  1  0
  6 10  1  0
  7 11  1  0
  8 12  1  0
  9 13  1  0
 10 14  1  0
 11 14  1  0
 12 15  1  0
 13 15  1  0
M  END
>  <PUBCHEM_COMPOUND_CID>  (1) 
13697

>  <PUBCHEM_CONFORMER_RMSD>  (1) 
0.6

>  <PUBCHEM_CONFORMER_DIVERSEORDER>  (1) 
1
25
36
27
5
2
16
18
12
10
26
15
32
29
28
21
7
9
30
17
13
22
35
11
14
23
31
20
6
19
8
34
4
24
33
3

>  <PUBCHEM_MMFF94_PARTIAL_CHARGES>  (1) 
5
1 -0.16
2 -0.36
3 -0.01
4 0.27
5 0.27

>  <PUBCHEM_EFFECTIVE_ROTOR_COUNT>  (1) 
5.4

>  <PUBCHEM_PHARMACOPHORE_FEATURES>  (1) 
2
6 4 6 7 10 11 14 rings
6 5 8 9 12 13 15 rings

>  <PUBCHEM_HEAVY_ATOM_COUNT>  (1) 
15

>  <PUBCHEM_ATOM_DEF_STEREO_COUNT>  (1) 
0

>  <PUBCHEM_ATOM_UDEF_STEREO_COUNT>  (1) 
0

>  <PUBCHEM_BOND_DEF_STEREO_COUNT>  (1) 
0

>  <PUBCHEM_BOND_UDEF_STEREO_COUNT>  (1) 
0

>  <PUBCHEM_ISOTOPIC_ATOM_COUNT>  (1) 
0

>  <PUBCHEM_COMPONENT_COUNT>  (1) 
1

>  <PUBCHEM_CACTVS_TAUTO_COUNT>  (1) 
1

>  <PUBCHEM_CONFORMER_ID>  (1) 
0000358100000001

>  <PUBCHEM_MMFF94_ENERGY>  (1) 
24.4433

>  <PUBCHEM_FEATURE_SELFOVERLAP>  (1) 
10.149

>  <PUBCHEM_SHAPE_FINGERPRINT>  (1) 
10465860 228 18056771922527467353
10498660 4 16199593455328745577
10618630 7 8718837482860762480
10980938 120 18186801396363410948
12119455 92 18260824886968717389
12251169 10 17530972401134737585
124424 183 17167857530752466633
12507560 40 17458062659831440204
12932764 1 18114744940512961068
13214271 11 17167860911076332140
13296909 8 15430033262577352239
13538477 17 18341331197116144410
13705890 14 13039185905555775648
14123260 362 17988649613628107504
14289901 80 16515694363389162984
14897335 6 18412541041866590110
14943859 89 17561368378541086377
15219456 202 17531247236092034569
15309172 13 18408887325793177391
15653759 3 16588025701415228336
15775835 57 18409729586049320716
16945 1 18115027398583553770
1813 80 17410790063850180086
18175812 5 17458065949897441933
18186145 218 18201726115258282492
19049666 15 16734937939676592120
19107657 47 18186516583706793400
200 152 18260822722658550093
20279233 1 17167865248692588297
20281407 28 11963384163337087472
204376 136 18411984663107701555
20528008 55 17094961052424042097
20645464 45 17458068132041632025
20645477 70 18041549240012938738
20871999 31 14979666677206947473
21499 59 18343302552650330951
21524375 3 18342459244200829191
22169311 14 16805321076379550344
22802520 49 12823296758586883595
23184049 59 18333729092048828660
23402539 116 17203605969692068800
23557571 272 15123496047698101785
23559900 14 16153705363123140410
276578 36 18201446843684365978
305870 269 18058173821311926291
351380 180 17676200265266735029
4028521 119 16343706482846108145
57812782 119 17167581574903676945
633830 44 17916599647620863301
69090 78 17676204689056410075
74978 22 18200029685081616120
77492 1 17846211116639480413
81228 2 17834668670993819387

>  <PUBCHEM_SHAPE_MULTIPOLES>  (1) 
292.86
7.33
1.59
1.27
0.95
0.58
-0.19
-2.7
-1.35
0.57
0.5
-0.87
0.05
-0.39

>  <PUBCHEM_SHAPE_SELFOVERLAP>  (1) 
587.962

>  <PUBCHEM_SHAPE_VOLUME>  (1) 
170.8

>  <PUBCHEM_COORDINATE_TYPE>  (1) 
2
5
10

$$$$
