13693
     RDKit          3D

 15 16  0  0  0  0  0  0  0  0999 V2000
    0.0004    1.4658    0.0026 Si  0  0  0  0  0  4  0  0  0  0  0  0
   -0.0002    2.3979    1.3708 O   0  0  0  0  0  0  0  0  0  0  0  0
   -0.0076    2.3834   -1.3766 O   0  0  0  0  0  0  0  0  0  0  0  0
   -1.4763    0.3292    0.0016 C   0  0  0  0  0  0  0  0  0  0  0  0
    1.4743    0.3324    0.0009 C   0  0  0  0  0  0  0  0  0  0  0  0
   -2.0288   -0.0977    1.2091 C   0  0  0  0  0  0  0  0  0  0  0  0
    2.0303   -0.0939   -1.2076 C   0  0  0  0  0  0  0  0  0  0  0  0
   -2.0291   -0.0945   -1.2068 C   0  0  0  0  0  0  0  0  0  0  0  0
    2.0306   -0.0963    1.2084 C   0  0  0  0  0  0  0  0  0  0  0  0
   -3.1342   -0.9485    1.2081 C   0  0  0  0  0  0  0  0  0  0  0  0
    3.1362   -0.9441   -1.2086 C   0  0  0  0  0  0  0  0  0  0  0  0
   -3.1345   -0.9451   -1.2079 C   0  0  0  0  0  0  0  0  0  0  0  0
    3.1366   -0.9463    1.2074 C   0  0  0  0  0  0  0  0  0  0  0  0
   -3.6871   -1.3721   -0.0003 C   0  0  0  0  0  0  0  0  0  0  0  0
    3.6893   -1.3702   -0.0012 C   0  0  0  0  0  0  0  0  0  0  0  0
  1  2  1  0
  1  3  1  0
  1  4  1  0
  1  5  1  0
  4  6  2  0
  4  8  1  0
  5  7  2  0
  5  9  1  0
  6 10  1  0
  7 11  1  0
  8 12  2  0
  9 13  2  0
 10 14  2  0
 11 15  2  0
 12 14  1  0
 13 15  1  0
M  END
>  <PUBCHEM_COMPOUND_CID>  (1) 
13693

>  <PUBCHEM_CONFORMER_RMSD>  (1) 
0.6

>  <PUBCHEM_CONFORMER_DIVERSEORDER>  (1) 
1
2
3

>  <PUBCHEM_MMFF94_PARTIAL_CHARGES>  (1) 
27
1 1.04
10 -0.15
11 -0.15
12 -0.15
13 -0.15
14 -0.15
15 -0.15
16 0.15
17 0.15
18 0.15
19 0.15
2 -0.7
20 0.15
21 0.15
22 0.15
23 0.15
24 0.4
25 0.4
26 0.15
27 0.15
3 -0.7
4 -0.22
5 -0.22
6 -0.15
7 -0.15
8 -0.15
9 -0.15

>  <PUBCHEM_EFFECTIVE_ROTOR_COUNT>  (1) 
2

>  <PUBCHEM_PHARMACOPHORE_FEATURES>  (1) 
2
6 4 6 8 10 12 14 rings
6 5 7 9 11 13 15 rings

>  <PUBCHEM_HEAVY_ATOM_COUNT>  (1) 
15

>  <PUBCHEM_ATOM_DEF_STEREO_COUNT>  (1) 
0

>  <PUBCHEM_ATOM_UDEF_STEREO_COUNT>  (1) 
0

>  <PUBCHEM_BOND_DEF_STEREO_COUNT>  (1) 
0

>  <PUBCHEM_BOND_UDEF_STEREO_COUNT>  (1) 
0

>  <PUBCHEM_ISOTOPIC_ATOM_COUNT>  (1) 
0

>  <PUBCHEM_COMPONENT_COUNT>  (1) 
1

>  <PUBCHEM_CACTVS_TAUTO_COUNT>  (1) 
1

>  <PUBCHEM_CONFORMER_ID>  (1) 
0000357D00000001

>  <PUBCHEM_MMFF94_ENERGY>  (1) 
32.1151

>  <PUBCHEM_FEATURE_SELFOVERLAP>  (1) 
10.149

>  <PUBCHEM_SHAPE_FINGERPRINT>  (1) 
10618630 7 18341334413851639078
11127187 94 17530681005073846899
11578080 2 18410846668336531433
12251169 10 15697999638891250735
12363563 72 18409441488175121199
12553582 1 18410866459539770631
12633257 1 15697731306520097882
12707595 3 18261111910790103195
12892183 10 15770057232929477486
13296908 3 18410567392376677765
13571099 52 10663829550551355041
15309172 13 11239997862657736659
15775835 57 9223231810472933390
15906896 17 17681558034815200109
16945 1 17845103869480445548
17844478 74 17489583412311482552
1813 80 18340221729411382548
18186145 218 11819273326126367058
19766037 51 18040442117676409155
200 152 17385727972031479602
20361792 2 18409167722796335525
20559304 39 17416978411690758953
20645477 70 18191298484915540407
20671657 53 17894348873854055548
20711985 344 18189608337442539245
21296965 67 18412260644789605081
21713013 43 16878233042666311435
21731516 1 18410579482709609509
22112679 90 18120684394683466956
22802520 49 15502383343545421621
23382010 3 14345800482202796849
23402539 116 18334582300535305478
23419403 2 17907534247217432032
23557571 272 18262221236819441060
23559900 14 17823395147041947384
25 1 11602812441880170900
276578 36 10519991469523243484
3082319 5 15719390629014579363
5262128 65 15791738489864287622
549884 4 14056991719990399078
7097593 13 15482673446592792622
81228 2 18196370316720914033
90316 7 16559041493092026067

>  <PUBCHEM_SHAPE_MULTIPOLES>  (1) 
315.17
6.35
1.94
1.58
0.01
1.22
0
-4.82
0
0
0
0
0.06
0

>  <PUBCHEM_SHAPE_SELFOVERLAP>  (1) 
659.349

>  <PUBCHEM_SHAPE_VOLUME>  (1) 
177.1

>  <PUBCHEM_COORDINATE_TYPE>  (1) 
2
5
10

$$$$
