13699
     RDKit          3D

 15 15  0  0  0  0  0  0  0  0999 V2000
   -4.4018   -0.8664   -0.0106 O   0  0  0  0  0  0  0  0  0  0  0  0
    3.1377    0.4482   -0.0363 O   0  0  0  0  0  0  0  0  0  0  0  0
    3.8204   -1.7243    0.3875 O   0  0  0  0  0  0  0  0  0  0  0  0
    1.2035    2.1396   -0.4072 N   0  0  0  0  0  0  0  0  0  0  0  0
    1.8531   -0.1099    0.0320 N   0  0  0  0  0  0  0  0  0  0  0  0
   -0.4839    0.3593   -0.1224 C   0  0  0  0  0  0  0  0  0  0  0  0
   -0.7778   -0.9255   -0.5077 C   0  0  0  0  0  0  0  0  0  0  0  0
   -1.4368    1.2543    0.2989 C   0  0  0  0  0  0  0  0  0  0  0  0
   -3.1034   -0.4604   -0.0467 C   0  0  0  0  0  0  0  0  0  0  0  0
   -2.1084   -1.3420   -0.4695 C   0  0  0  0  0  0  0  0  0  0  0  0
   -2.7675    0.8379    0.3374 C   0  0  0  0  0  0  0  0  0  0  0  0
    0.9454    0.8071   -0.1638 C   0  0  0  0  0  0  0  0  0  0  0  0
   -5.3681    0.0858    0.4317 C   0  0  0  0  0  0  0  0  0  0  0  0
    4.0534   -0.5419    0.1732 C   0  0  0  0  0  0  0  0  0  0  0  0
    5.4341    0.0382    0.1035 C   0  0  0  0  0  0  0  0  0  0  0  0
  1  9  1  0
  1 13  1  0
  2  5  1  0
  2 14  1  0
  3 14  2  0
  4 12  1  0
  5 12  2  0
  6  7  2  0
  6  8  1  0
  6 12  1  0
  7 10  1  0
  8 11  2  0
  9 10  2  0
  9 11  1  0
 14 15  1  0
M  END
>  <PUBCHEM_COMPOUND_CID>  (1) 
13699

>  <PUBCHEM_CONFORMER_RMSD>  (1) 
0.6

>  <PUBCHEM_CONFORMER_DIVERSEORDER>  (1) 
1
26
24
15
13
5
25
14
23
10
19
18
9
2
20
17
27
21
8
4
16
3
22
11
6
7
12

>  <PUBCHEM_MMFF94_PARTIAL_CHARGES>  (1) 
21
1 -0.36
10 -0.15
11 -0.15
12 0.41
13 0.28
14 0.66
15 0.06
16 0.15
17 0.15
18 0.15
19 0.15
2 -0.09
20 0.4
21 0.4
3 -0.57
4 -0.85
5 -0.51
6 0.09
7 -0.15
8 -0.15
9 0.08

>  <PUBCHEM_EFFECTIVE_ROTOR_COUNT>  (1) 
4

>  <PUBCHEM_PHARMACOPHORE_FEATURES>  (1) 
5
1 1 acceptor
1 3 acceptor
1 4 donor
3 4 5 12 cation
6 6 7 8 9 10 11 rings

>  <PUBCHEM_HEAVY_ATOM_COUNT>  (1) 
15

>  <PUBCHEM_ATOM_DEF_STEREO_COUNT>  (1) 
0

>  <PUBCHEM_ATOM_UDEF_STEREO_COUNT>  (1) 
0

>  <PUBCHEM_BOND_DEF_STEREO_COUNT>  (1) 
0

>  <PUBCHEM_BOND_UDEF_STEREO_COUNT>  (1) 
1

>  <PUBCHEM_ISOTOPIC_ATOM_COUNT>  (1) 
0

>  <PUBCHEM_COMPONENT_COUNT>  (1) 
1

>  <PUBCHEM_CACTVS_TAUTO_COUNT>  (1) 
2

>  <PUBCHEM_CONFORMER_ID>  (1) 
0000358300000001

>  <PUBCHEM_MMFF94_ENERGY>  (1) 
47.646

>  <PUBCHEM_FEATURE_SELFOVERLAP>  (1) 
25.371

>  <PUBCHEM_SHAPE_FINGERPRINT>  (1) 
10062212 137 18130220558195029559
10968037 39 18408605885503174918
11401426 45 17846498132572343901
12119455 92 16200149889705677117
12251169 10 18343864437378003332
12815109 37 18410854369465002918
13288520 33 18411983550536955733
13533116 47 14261081926256701150
13551218 46 18270400486185111814
13675066 3 18412543249527116699
13690532 89 18409729560474526773
13862211 1 18343016710029815287
14115302 16 17458356268001084702
14123238 8 18272652350617829082
14251764 18 18271813453917132299
14252887 29 18201164278255505950
14911166 2 11386368157941153503
15196674 1 18339079281301665570
15242433 33 18409167723113093374
17804303 29 18273496783942846784
17834072 33 18336266829436923684
17834076 25 15626224619652800138
17862501 102 18272651255680743451
1813 80 17676778573964925310
18186145 218 17458614683783458893
18522853 276 18343021090289607241
200 152 18272082803911061421
21267235 1 18410582773124238566
22485316 2 18335698321816699290
2297311 6 17917443007884519500
23402539 116 17847055584925649357
23463225 33 18410856538560689622
23559900 14 18270394013990864496
42 15 18411982463894437971
4463277 17 18408605868144269388
4990 188 12973602222749111930
5104073 3 18270966872544315667
53655031 270 18413109446565646891
7364860 26 18269554021572691144
9981440 41 17328299658936974376

>  <PUBCHEM_SHAPE_MULTIPOLES>  (1) 
281.12
10.48
1.5
0.67
4.28
0.2
-0.01
-2.31
1.69
0.22
-0.1
-0.09
-0.01
-0.48

>  <PUBCHEM_SHAPE_SELFOVERLAP>  (1) 
579.907

>  <PUBCHEM_SHAPE_VOLUME>  (1) 
161.7

>  <PUBCHEM_COORDINATE_TYPE>  (1) 
2
5
10

$$$$
