13700
     RDKit          3D

 15 15  0  0  0  0  0  0  0  0999 V2000
   -2.6956   -2.2209   -0.0477 O   0  0  0  0  0  0  0  0  0  0  0  0
    2.5167    0.1725    0.1997 C   0  0  0  0  0  0  0  0  0  0  0  0
    1.3238    0.0191   -0.7489 C   0  0  0  0  0  0  0  0  0  0  0  0
    3.8716    0.0140   -0.4935 C   0  0  0  0  0  0  0  0  0  0  0  0
   -0.0605    0.0839   -0.0962 C   0  0  0  0  0  0  0  0  0  0  0  0
    5.0210    0.0869    0.5143 C   0  0  0  0  0  0  0  0  0  0  0  0
   -1.2114   -0.0180   -1.1003 C   0  0  0  0  0  0  0  0  0  0  0  0
    6.3775   -0.0383   -0.1792 C   0  0  0  0  0  0  0  0  0  0  0  0
   -2.5507    0.1416   -0.4259 C   0  0  0  0  0  0  0  0  0  0  0  0
    7.5232    0.0682    0.8146 C   0  0  0  0  0  0  0  0  0  0  0  0
   -3.2217   -0.9692    0.0649 C   0  0  0  0  0  0  0  0  0  0  0  0
   -3.0912    1.4142   -0.3090 C   0  0  0  0  0  0  0  0  0  0  0  0
   -4.4598   -0.8038    0.6860 C   0  0  0  0  0  0  0  0  0  0  0  0
   -4.3293    1.5794    0.3120 C   0  0  0  0  0  0  0  0  0  0  0  0
   -5.0136    0.4705    0.8094 C   0  0  0  0  0  0  0  0  0  0  0  0
  1 11  1  0
  2  3  1  0
  2  4  1  0
  3  5  1  0
  4  6  1  0
  5  7  1  0
  6  8  1  0
  7  9  1  0
  8 10  1  0
  9 11  2  0
  9 12  1  0
 11 13  1  0
 12 14  2  0
 13 15  2  0
 14 15  1  0
M  END
>  <PUBCHEM_COMPOUND_CID>  (1) 
13700

>  <PUBCHEM_CONFORMER_RMSD>  (1) 
0.8

>  <PUBCHEM_CONFORMER_DIVERSEORDER>  (1) 
1
110
2
102
98
113
76
120
55
73
14
60
72
38
57
43
117
4
116
23
24
123
40
118
79
124
25
16
63
22
92
91
109
18
107
9
114
17
96
101
97
33
35
45
93
59
51
26
15
74
106
111
10
80
89
11
88
69
48
28
37
84
105
83
122
64
34
50
58
31
21
54
6
95
90
121
7
12
56
20
8
68
41
71
66
49
75
94
5
112
52
103
62
39
61
29
82
19
77
13
3
67
36
108
32
100
42
47
27
53
87
115
86
44
46
70
85
119
30
104
78
99
81
65

>  <PUBCHEM_MMFF94_PARTIAL_CHARGES>  (1) 
13
1 -0.53
11 0.08
12 -0.15
13 -0.15
14 -0.15
15 -0.15
33 0.15
34 0.15
35 0.15
36 0.15
37 0.45
7 0.14
9 -0.14

>  <PUBCHEM_EFFECTIVE_ROTOR_COUNT>  (1) 
7

>  <PUBCHEM_PHARMACOPHORE_FEATURES>  (1) 
3
1 1 donor
1 10 hydrophobe
6 9 11 12 13 14 15 rings

>  <PUBCHEM_HEAVY_ATOM_COUNT>  (1) 
15

>  <PUBCHEM_ATOM_DEF_STEREO_COUNT>  (1) 
0

>  <PUBCHEM_ATOM_UDEF_STEREO_COUNT>  (1) 
0

>  <PUBCHEM_BOND_DEF_STEREO_COUNT>  (1) 
0

>  <PUBCHEM_BOND_UDEF_STEREO_COUNT>  (1) 
0

>  <PUBCHEM_ISOTOPIC_ATOM_COUNT>  (1) 
0

>  <PUBCHEM_COMPONENT_COUNT>  (1) 
1

>  <PUBCHEM_CACTVS_TAUTO_COUNT>  (1) 
3

>  <PUBCHEM_CONFORMER_ID>  (1) 
0000358400000001

>  <PUBCHEM_MMFF94_ENERGY>  (1) 
19.7954

>  <PUBCHEM_FEATURE_SELFOVERLAP>  (1) 
15.223

>  <PUBCHEM_SHAPE_FINGERPRINT>  (1) 
10968037 39 10231754483506540385
11089746 13 13398626156897224730
11315181 36 18186521029097989573
12091667 2 17917988386994610788
12616971 3 17385729118840424278
13288520 33 17022620883760495759
13403585 85 18342736312852662016
13533116 47 14045751375114842318
13668630 136 14345796037507667008
1420 363 14562532869170882440
14251718 22 7997969077110560956
14350574 20 13479139003198775780
14849402 71 17969229005221769132
14933364 13 18413390947771292048
15348495 7 18201432640839246786
15501527 16 17917992780587898892
15716309 27 17312821572344360464
17093844 174 18272925033949374920
17780758 139 18187364341737008953
17834072 33 18040438819663862900
17834076 25 14764347137321706780
17844677 252 18411142454766134456
19489759 90 18272931626666171265
200 152 14201115717276261533
20281389 69 17203325603048905896
20645477 56 17988922258273344493
20645477 70 16414926227564230292
21150785 3 8286193964621207218
220451 1 18040997337395709322
23035841 295 18113054926948616586
23198884 109 12319738068232808660
23402539 116 16370720418414691452
23466295 7 13697307476817696897
23536379 177 18408322173249429776
328310 630 14117229637809174514
351380 3 17022618685138114794
42788 4 18410011040210506372
542803 24 18411136948796974004
5924683 9 18130220579522400487

>  <PUBCHEM_SHAPE_MULTIPOLES>  (1) 
302.82
17.08
1.28
0.92
31.21
0.26
0.03
-1.19
-5.25
-2.26
-0.04
0.02
-0.02
0.07

>  <PUBCHEM_SHAPE_SELFOVERLAP>  (1) 
594.223

>  <PUBCHEM_SHAPE_VOLUME>  (1) 
182.2

>  <PUBCHEM_COORDINATE_TYPE>  (1) 
2
5
10

$$$$
