13702
     RDKit          3D

 15 16  0  0  0  0  0  0  0  0999 V2000
    4.9036   -1.9518    0.0222 Cl  0  0  0  0  0  0  0  0  0  0  0  0
    0.1092   -0.2474   -0.0334 O   0  0  0  0  0  0  0  0  0  0  0  0
   -2.1930    0.3493   -0.0158 C   0  0  0  0  0  0  0  0  0  0  0  0
   -0.7899    0.8546   -0.0422 C   0  0  0  0  0  0  0  0  0  0  0  0
    1.4470    0.0476   -0.0171 C   0  0  0  0  0  0  0  0  0  0  0  0
   -2.8642    0.0915   -1.2112 C   0  0  0  0  0  0  0  0  0  0  0  0
   -2.8342    0.1348    1.2042 C   0  0  0  0  0  0  0  0  0  0  0  0
    2.3798   -0.9833   -0.0070 C   0  0  0  0  0  0  0  0  0  0  0  0
    1.8584    1.3757   -0.0101 C   0  0  0  0  0  0  0  0  0  0  0  0
   -4.1765   -0.3806   -1.1865 C   0  0  0  0  0  0  0  0  0  0  0  0
   -4.1465   -0.3375    1.2289 C   0  0  0  0  0  0  0  0  0  0  0  0
   -4.8175   -0.5951    0.0335 C   0  0  0  0  0  0  0  0  0  0  0  0
    3.7416   -0.6823    0.0101 C   0  0  0  0  0  0  0  0  0  0  0  0
    3.2203    1.6768    0.0072 C   0  0  0  0  0  0  0  0  0  0  0  0
    4.1619    0.6477    0.0172 C   0  0  0  0  0  0  0  0  0  0  0  0
  1 13  1  0
  2  4  1  0
  2  5  1  0
  3  4  1  0
  3  6  2  0
  3  7  1  0
  5  8  2  0
  5  9  1  0
  6 10  1  0
  7 11  2  0
  8 13  1  0
  9 14  2  0
 10 12  2  0
 11 12  1  0
 13 15  2  0
 14 15  1  0
M  END
>  <PUBCHEM_COMPOUND_CID>  (1) 
13702

>  <PUBCHEM_CONFORMER_RMSD>  (1) 
0.6

>  <PUBCHEM_CONFORMER_DIVERSEORDER>  (1) 
1
25
16
4
22
26
24
15
2
21
3
13
17
11
20
5
18
12
7
19
9
23
10
14
6
8
29
30
27
28

>  <PUBCHEM_MMFF94_PARTIAL_CHARGES>  (1) 
24
1 -0.18
10 -0.15
11 -0.15
12 -0.15
13 0.18
14 -0.15
15 -0.15
18 0.15
19 0.15
2 -0.36
20 0.15
21 0.15
22 0.15
23 0.15
24 0.15
25 0.15
26 0.15
3 -0.14
4 0.42
5 0.08
6 -0.15
7 -0.15
8 -0.15
9 -0.15

>  <PUBCHEM_EFFECTIVE_ROTOR_COUNT>  (1) 
3

>  <PUBCHEM_PHARMACOPHORE_FEATURES>  (1) 
3
1 2 acceptor
6 3 6 7 10 11 12 rings
6 5 8 9 13 14 15 rings

>  <PUBCHEM_HEAVY_ATOM_COUNT>  (1) 
15

>  <PUBCHEM_ATOM_DEF_STEREO_COUNT>  (1) 
0

>  <PUBCHEM_ATOM_UDEF_STEREO_COUNT>  (1) 
0

>  <PUBCHEM_BOND_DEF_STEREO_COUNT>  (1) 
0

>  <PUBCHEM_BOND_UDEF_STEREO_COUNT>  (1) 
0

>  <PUBCHEM_ISOTOPIC_ATOM_COUNT>  (1) 
0

>  <PUBCHEM_COMPONENT_COUNT>  (1) 
1

>  <PUBCHEM_CACTVS_TAUTO_COUNT>  (1) 
1

>  <PUBCHEM_CONFORMER_ID>  (1) 
0000358600000001

>  <PUBCHEM_MMFF94_ENERGY>  (1) 
45.0538

>  <PUBCHEM_FEATURE_SELFOVERLAP>  (1) 
15.223

>  <PUBCHEM_SHAPE_FINGERPRINT>  (1) 
10014705 185 10447922850409657777
10680689 15 16298392348901072241
10912923 1 17632860858020072225
11471102 20 18408885153051435036
11615757 297 18343584053201796489
12032990 46 18260269625006859748
12236239 1 17775287174702902737
12916754 54 18412823603570169045
13167823 11 18202001036136212679
13296908 3 17822009821961374093
13760787 5 18343019999367927093
13862211 1 18337669695159243122
13955234 65 18411697734176737656
14252887 29 18408038516308188856
14350574 20 18259991461386721742
14386348 63 17749392580852447723
14455015 7 18260555501982307035
15242439 84 17676203554926567807
15375462 189 17989205945036717913
15961568 22 15864358020818265012
17870717 6 16877666738601654379
18186145 218 17603585214195640057
19050596 39 17561084704615012243
1986462 14 16660361476569479749
200 152 18342453742669404929
20279233 1 17603585244281282817
20281475 54 18059569217594955679
20325693 3 15647058140533202155
20645477 70 18334853905450498454
21065201 7 16588299492795556537
22646028 1 18060135440202589159
22646028 28 18060136544088357599
2297311 6 16587750815508920783
23402539 116 18131630058586058697
23557571 272 17095516301322000973
23559900 14 17312819372936008960
23590187 198 17703790284493191734
23596394 208 17603858966921450778
26918003 58 18335139804074465881
2871803 45 18040432166200183106
312423 11 18339656559229218996
3268164 11 15864339281918201447
34797466 226 16443362978260999302
42 15 17275386482256734582
474 4 17771332360507101424
5104073 3 18411698742913888312
5281201 14 17967814942266293252
573450 72 17203890751772264411

>  <PUBCHEM_SHAPE_MULTIPOLES>  (1) 
304.69
11.33
1.44
1.01
1.06
0.05
0.01
3.68
0.11
-2.31
0
1.38
0.06
-0.02

>  <PUBCHEM_SHAPE_SELFOVERLAP>  (1) 
641.637

>  <PUBCHEM_SHAPE_VOLUME>  (1) 
171.9

>  <PUBCHEM_COORDINATE_TYPE>  (1) 
2
5
10

$$$$
