13707
     RDKit          3D

 15 15  0  0  1  0  0  0  0  0999 V2000
    2.3366   -1.1814    1.0873 S   0  0  0  0  0  0  0  0  0  0  0  0
    1.6572    0.5506   -1.1945 S   0  0  0  0  0  0  0  0  0  0  0  0
   -1.3163   -0.0618   -0.6330 P   0  0  0  0  0  0  0  0  0  0  0  0
   -2.7495   -0.4608    0.0307 O   0  0  0  0  0  0  0  0  0  0  0  0
   -1.2813    1.5519   -0.4151 O   0  0  0  0  0  0  0  0  0  0  0  0
   -1.2667   -0.4046   -2.1013 O   0  0  0  0  0  0  0  0  0  0  0  0
   -0.1591   -0.7100    0.2895 N   0  0  0  0  0  0  0  0  0  0  0  0
    3.7262   -0.7062    0.0031 C   0  0  0  0  0  0  0  0  0  0  0  0
    3.3730    0.6454   -0.6052 C   0  0  0  0  0  0  0  0  0  0  0  0
    5.0237   -0.6530    0.7964 C   0  0  0  0  0  0  0  0  0  0  0  0
    1.0916   -0.4809    0.0900 C   0  0  0  0  0  0  0  0  0  0  0  0
   -3.0828   -1.8321    0.1647 C   0  0  0  0  0  0  0  0  0  0  0  0
   -1.4925    2.0901    0.8794 C   0  0  0  0  0  0  0  0  0  0  0  0
   -4.4509   -1.9470    0.8025 C   0  0  0  0  0  0  0  0  0  0  0  0
   -1.4090    3.5998    0.8054 C   0  0  0  0  0  0  0  0  0  0  0  0
  1  8  1  0
  1 11  1  0
  2  9  1  0
  2 11  1  0
  3  4  1  0
  3  5  1  0
  3  6  2  0
  3  7  1  0
  4 12  1  0
  5 13  1  0
  7 11  2  0
  8  9  1  0
  8 10  1  0
 12 14  1  0
 13 15  1  0
M  END
>  <PUBCHEM_COMPOUND_CID>  (1) 
13707

>  <PUBCHEM_CONFORMER_RMSD>  (1) 
0.6

>  <PUBCHEM_CONFORMER_DIVERSEORDER>  (1) 
1
129
53
88
139
126
75
144
96
55
125
111
74
50
100
37
47
121
101
85
92
119
44
18
32
90
122
35
87
34
43
107
58
52
68
79
61
108
145
19
65
142
31
104
113
20
48
132
146
63
115
8
66
117
112
13
95
38
123
110
116
124
149
7
103
11
109
98
80
135
150
131
148
76
70
127
102
89
10
141
26
72
49
60
78
23
69
39
137
30
12
140
97
42
25
73
77
16
36
6
4
28
94
136
41
120
27
114
59
5
3
106
99
84
17
56
14
105
57
46
15
93
51
2
62
151
118
21
64
9
130
91
40
138
128
67
83
54
45
134
143
33
147
24
81
29
133
22
82
86
71

>  <PUBCHEM_MMFF94_PARTIAL_CHARGES>  (1) 
12
1 -0.37
11 0.73
12 0.28
13 0.28
2 -0.37
3 1.56
4 -0.55
5 -0.55
6 -0.7
7 -0.77
8 0.23
9 0.23

>  <PUBCHEM_EFFECTIVE_ROTOR_COUNT>  (1) 
5.8

>  <PUBCHEM_PHARMACOPHORE_FEATURES>  (1) 
3
1 6 acceptor
1 7 acceptor
5 1 2 8 9 11 rings

>  <PUBCHEM_HEAVY_ATOM_COUNT>  (1) 
15

>  <PUBCHEM_ATOM_DEF_STEREO_COUNT>  (1) 
0

>  <PUBCHEM_ATOM_UDEF_STEREO_COUNT>  (1) 
1

>  <PUBCHEM_BOND_DEF_STEREO_COUNT>  (1) 
0

>  <PUBCHEM_BOND_UDEF_STEREO_COUNT>  (1) 
1

>  <PUBCHEM_ISOTOPIC_ATOM_COUNT>  (1) 
0

>  <PUBCHEM_COMPONENT_COUNT>  (1) 
1

>  <PUBCHEM_CACTVS_TAUTO_COUNT>  (1) 
1

>  <PUBCHEM_CONFORMER_ID>  (1) 
0000358B00000001

>  <PUBCHEM_MMFF94_ENERGY>  (1) 
8.7818

>  <PUBCHEM_FEATURE_SELFOVERLAP>  (1) 
15.232

>  <PUBCHEM_SHAPE_FINGERPRINT>  (1) 
108231 29 18191871330199240131
11357001 24 18341332202027871225
12596602 18 17896016850875167592
12916754 54 17821726126797827390
12932764 1 17274526668833496326
13538477 17 18335985251017111361
13764800 53 17702948006941206241
14178342 30 18263922129762572498
14787075 74 17902516222202913652
15375462 189 18189622816167599875
15375462 478 18411418418824505388
15906896 17 18127121975366304757
1741750 31 17771625650848827952
18186145 218 12396576377662640095
200 152 18114177566205427379
20510252 161 18412263930333948850
20645477 56 17275096215940807416
20671657 53 17313385677222264591
21041028 32 18341894133821186608
21524375 3 17337580160061575153
2306618 200 17968366849605601748
23380061 127 18410570661247762170
23402539 116 18341604936493102558
23557571 272 18413394224060997806
23598288 3 18342175566090460637
23598294 1 18343025466866498240
25610 137 18335423520765570462
312423 11 18261126166313858660
3250762 1 17625846884753375143
3286 77 18114179770034911772
633830 44 13398621789036635130
81228 2 18200042733398100249

>  <PUBCHEM_SHAPE_MULTIPOLES>  (1) 
297.65
7.83
2.72
1.3
3.63
2.88
-0.42
-4.81
2.04
-3.37
1.24
0.02
0.09
-0.64

>  <PUBCHEM_SHAPE_SELFOVERLAP>  (1) 
535.816

>  <PUBCHEM_SHAPE_VOLUME>  (1) 
192.6

>  <PUBCHEM_COORDINATE_TYPE>  (1) 
2
5
10

$$$$
