13704
     RDKit          3D

 15 15  0  0  0  0  0  0  0  0999 V2000
   -3.1815   -1.4577   -1.4013 Cl  0  0  0  0  0  0  0  0  0  0  0  0
   -1.1344   -2.9850   -0.0656 Cl  0  0  0  0  0  0  0  0  0  0  0  0
   -3.0446   -1.5155    1.5216 Cl  0  0  0  0  0  0  0  0  0  0  0  0
    2.1607    0.7148   -0.1441 O   0  0  0  0  0  0  0  0  0  0  0  0
   -1.8819    0.9797    0.0611 N   0  0  0  0  0  0  0  0  0  0  0  0
    0.1093   -0.3532   -0.0683 N   0  0  0  0  0  0  0  0  0  0  0  0
    0.2690    2.0405   -0.0194 N   0  0  0  0  0  0  0  0  0  0  0  0
   -1.2215   -0.1880    0.0012 C   0  0  0  0  0  0  0  0  0  0  0  0
   -1.0721    2.0508    0.0467 C   0  0  0  0  0  0  0  0  0  0  0  0
    0.7945    0.8039   -0.0743 C   0  0  0  0  0  0  0  0  0  0  0  0
   -2.0501   -1.4272    0.0120 C   0  0  0  0  0  0  0  0  0  0  0  0
   -1.7288    3.3879    0.1102 C   0  0  0  0  0  0  0  0  0  0  0  0
    2.7161   -0.5915   -0.2022 C   0  0  0  0  0  0  0  0  0  0  0  0
    4.1988   -0.4772   -0.3306 C   0  0  0  0  0  0  0  0  0  0  0  0
    5.0665   -0.9824    0.5531 C   0  0  0  0  0  0  0  0  0  0  0  0
  1 11  1  0
  2 11  1  0
  3 11  1  0
  4 10  1  0
  4 13  1  0
  5  8  2  0
  5  9  1  0
  6  8  1  0
  6 10  2  0
  7  9  2  0
  7 10  1  0
  8 11  1  0
  9 12  1  0
 13 14  1  0
 14 15  2  0
M  END
>  <PUBCHEM_COMPOUND_CID>  (1) 
13704

>  <PUBCHEM_CONFORMER_RMSD>  (1) 
0.6

>  <PUBCHEM_CONFORMER_DIVERSEORDER>  (1) 
1
6
17
13
7
20
14
16
12
21
19
3
10
4
18
11
2
9
8
5
15

>  <PUBCHEM_MMFF94_PARTIAL_CHARGES>  (1) 
18
1 -0.29
10 0.7
11 1.01
12 0.14
13 0.42
14 -0.29
15 -0.3
2 -0.29
21 0.15
22 0.15
23 0.15
3 -0.29
4 -0.36
5 -0.62
6 -0.62
7 -0.62
8 0.48
9 0.48

>  <PUBCHEM_EFFECTIVE_ROTOR_COUNT>  (1) 
4

>  <PUBCHEM_PHARMACOPHORE_FEATURES>  (1) 
5
1 15 hydrophobe
3 5 6 8 cation
3 5 7 9 cation
3 6 7 10 cation
6 5 6 7 8 9 10 rings

>  <PUBCHEM_HEAVY_ATOM_COUNT>  (1) 
15

>  <PUBCHEM_ATOM_DEF_STEREO_COUNT>  (1) 
0

>  <PUBCHEM_ATOM_UDEF_STEREO_COUNT>  (1) 
0

>  <PUBCHEM_BOND_DEF_STEREO_COUNT>  (1) 
0

>  <PUBCHEM_BOND_UDEF_STEREO_COUNT>  (1) 
0

>  <PUBCHEM_ISOTOPIC_ATOM_COUNT>  (1) 
0

>  <PUBCHEM_COMPONENT_COUNT>  (1) 
1

>  <PUBCHEM_CACTVS_TAUTO_COUNT>  (1) 
1

>  <PUBCHEM_CONFORMER_ID>  (1) 
0000358800000001

>  <PUBCHEM_MMFF94_ENERGY>  (1) 
28.8823

>  <PUBCHEM_FEATURE_SELFOVERLAP>  (1) 
28.137

>  <PUBCHEM_SHAPE_FINGERPRINT>  (1) 
11357001 24 18336272262153737361
12500047 106 18195801874131646224
12507560 14 18197791096772190123
12553582 1 18267879439461662518
13140716 1 18411428331867935689
14508225 48 18338502118964242148
15042514 8 18263653878568056105
16752209 62 18336250271937194250
16945 1 17762903568956070465
20510252 161 18200315411922982360
20671657 53 18126562555754733495
20711985 344 18337659845991598873
20711985 365 18409450297284842796
20871998 184 18342465802584072958
20871998 22 18193839472928986753
21339142 126 18342458131967836383
21524375 3 17905044751123441281
23402539 116 18343292665735940111
23526113 38 17900245705190790795
23557571 272 18201730518312073380
23559900 14 18340195367667250832
23598294 1 18336261237310233978
23728640 28 18337670798121423490
257057 1 18197210571279356421
2748010 2 18339071726427980669
3091708 16 8845612264375637201
3286 77 16558179544152344594
559249 180 18045211644979271098
573450 72 18189886531870941954
57426455 70 18264506124934444539
58051976 100 18187933816067421974
6992083 37 18057620934815286043
81228 2 18409161112889633433
9709674 26 18270120107084236958

>  <PUBCHEM_SHAPE_MULTIPOLES>  (1) 
293.49
6.89
3.31
0.96
10.91
1.91
0.07
-4.06
0.43
-2.96
0.12
-0.88
-0.5
-0.17

>  <PUBCHEM_SHAPE_SELFOVERLAP>  (1) 
565.776

>  <PUBCHEM_SHAPE_VOLUME>  (1) 
178

>  <PUBCHEM_COORDINATE_TYPE>  (1) 
2
5
10

$$$$
