13703
     RDKit          3D

 15 15  0  0  0  0  0  0  0  0999 V2000
   -3.3944    0.2960    1.4646 Cl  0  0  0  0  0  0  0  0  0  0  0  0
   -2.2787    2.5103   -0.0045 Cl  0  0  0  0  0  0  0  0  0  0  0  0
   -3.3931    0.2829   -1.4619 Cl  0  0  0  0  0  0  0  0  0  0  0  0
    3.3939    0.2960   -1.4651 Cl  0  0  0  0  0  0  0  0  0  0  0  0
    2.2788    2.5103    0.0045 Cl  0  0  0  0  0  0  0  0  0  0  0  0
    3.3936    0.2829    1.4615 Cl  0  0  0  0  0  0  0  0  0  0  0  0
    0.0000    0.6989    0.0004 N   0  0  0  0  0  0  0  0  0  0  0  0
    1.1998   -1.3792    0.0004 N   0  0  0  0  0  0  0  0  0  0  0  0
   -1.1998   -1.3791   -0.0001 N   0  0  0  0  0  0  0  0  0  0  0  0
   -1.1221   -0.0386    0.0000 C   0  0  0  0  0  0  0  0  0  0  0  0
    1.1221   -0.0387    0.0004 C   0  0  0  0  0  0  0  0  0  0  0  0
    0.0000   -1.9822    0.0001 C   0  0  0  0  0  0  0  0  0  0  0  0
   -2.4131    0.7068   -0.0006 C   0  0  0  0  0  0  0  0  0  0  0  0
    2.4132    0.7068    0.0004 C   0  0  0  0  0  0  0  0  0  0  0  0
    0.0000   -3.4731   -0.0002 C   0  0  0  0  0  0  0  0  0  0  0  0
  1 13  1  0
  2 13  1  0
  3 13  1  0
  4 14  1  0
  5 14  1  0
  6 14  1  0
  7 10  2  0
  7 11  1  0
  8 11  2  0
  8 12  1  0
  9 10  1  0
  9 12  2  0
 10 13  1  0
 11 14  1  0
 12 15  1  0
M  END
>  <PUBCHEM_COMPOUND_CID>  (1) 
13703

>  <PUBCHEM_CONFORMER_RMSD>  (1) 
0.6

>  <PUBCHEM_CONFORMER_DIVERSEORDER>  (1) 
1
3
2

>  <PUBCHEM_MMFF94_PARTIAL_CHARGES>  (1) 
15
1 -0.29
10 0.48
11 0.48
12 0.48
13 1.01
14 1.01
15 0.14
2 -0.29
3 -0.29
4 -0.29
5 -0.29
6 -0.29
7 -0.62
8 -0.62
9 -0.62

>  <PUBCHEM_EFFECTIVE_ROTOR_COUNT>  (1) 
2

>  <PUBCHEM_PHARMACOPHORE_FEATURES>  (1) 
4
3 7 8 11 cation
3 7 9 10 cation
3 8 9 12 cation
6 7 8 9 10 11 12 rings

>  <PUBCHEM_HEAVY_ATOM_COUNT>  (1) 
15

>  <PUBCHEM_ATOM_DEF_STEREO_COUNT>  (1) 
0

>  <PUBCHEM_ATOM_UDEF_STEREO_COUNT>  (1) 
0

>  <PUBCHEM_BOND_DEF_STEREO_COUNT>  (1) 
0

>  <PUBCHEM_BOND_UDEF_STEREO_COUNT>  (1) 
0

>  <PUBCHEM_ISOTOPIC_ATOM_COUNT>  (1) 
0

>  <PUBCHEM_COMPONENT_COUNT>  (1) 
1

>  <PUBCHEM_CACTVS_TAUTO_COUNT>  (1) 
1

>  <PUBCHEM_CONFORMER_ID>  (1) 
0000358700000001

>  <PUBCHEM_MMFF94_ENERGY>  (1) 
25.5225

>  <PUBCHEM_FEATURE_SELFOVERLAP>  (1) 
23.07

>  <PUBCHEM_SHAPE_FINGERPRINT>  (1) 
12932764 1 17988079976706024721
13140716 1 18265897045423415697
13380535 76 18410561890529223115
13538477 17 18115863173850328810
13583140 156 17168413973740978361
14289901 80 15647341865429483461
14648413 74 17903924353259108929
15309172 13 18409737274293838833
16945 1 18410575088958078692
18186145 218 18202850941439248496
20233049 118 18333737897085609836
20510252 161 18125725827068145483
20645476 183 17822296846194190902
20645477 56 18266188390820820556
20671657 1 17766557954522284841
21501502 16 18051410961892511520
21524375 3 18260260837150402710
2334 1 17978227493216397729
23402539 116 18127667504446862549
23493267 7 17676784075554377880
23526113 38 17702964599074805132
23557571 272 17837773687925730828
23559900 14 18271259300505412396
23598291 2 17771907121751623709
23598294 1 18119253010879631098
25 1 18340500971147472014
2748010 2 18051977218501148372
305870 269 18267012865147450970
3060560 45 18410003317242084780
3071541 236 18264755739564204370
352729 6 18338513161298499878
458136 41 18194428639478996235
633830 44 18202291298774396445
7364860 26 17982162323236177531
74978 22 18337388370041553540
7832392 63 17909263581623771509
81228 2 17908142431671209531
88987 49 18265893747563622340

>  <PUBCHEM_SHAPE_MULTIPOLES>  (1) 
304.97
5.88
2.93
1.25
0
1.63
0
-2.9
0
0
0
0
-0.17
-0.01

>  <PUBCHEM_SHAPE_SELFOVERLAP>  (1) 
567.671

>  <PUBCHEM_SHAPE_VOLUME>  (1) 
187.1

>  <PUBCHEM_COORDINATE_TYPE>  (1) 
2
5
10

$$$$
