13717
     RDKit          3D

 16 17  0  0  0  0  0  0  0  0999 V2000
    0.7675    1.7103    0.1749 O   0  0  0  0  0  0  0  0  0  0  0  0
    4.8337   -0.2033    0.1258 N   0  0  0  0  0  0  0  0  0  0  0  0
   -0.6018    1.6371    0.3999 N   0  0  0  0  0  0  0  0  0  0  0  0
    2.6190    0.4683   -0.7248 C   0  0  0  0  0  0  0  0  0  0  0  0
    3.4066   -0.1360    0.4384 C   0  0  0  0  0  0  0  0  0  0  0  0
    1.1481    0.5641   -0.4065 C   0  0  0  0  0  0  0  0  0  0  0  0
    0.1219   -0.2822   -0.5897 C   0  0  0  0  0  0  0  0  0  0  0  0
   -0.9649    0.4383   -0.0650 C   0  0  0  0  0  0  0  0  0  0  0  0
    5.0634   -1.0687   -1.0305 C   0  0  0  0  0  0  0  0  0  0  0  0
    5.5882   -0.6847    1.2825 C   0  0  0  0  0  0  0  0  0  0  0  0
   -2.3361    0.0087    0.0016 C   0  0  0  0  0  0  0  0  0  0  0  0
   -2.6343   -1.3469    0.1252 C   0  0  0  0  0  0  0  0  0  0  0  0
   -3.3625    0.9495   -0.0578 C   0  0  0  0  0  0  0  0  0  0  0  0
   -3.9639   -1.7635    0.1893 C   0  0  0  0  0  0  0  0  0  0  0  0
   -4.6922    0.5327    0.0065 C   0  0  0  0  0  0  0  0  0  0  0  0
   -4.9928   -0.8238    0.1301 C   0  0  0  0  0  0  0  0  0  0  0  0
  1  3  1  0
  1  6  1  0
  2  5  1  0
  2  9  1  0
  2 10  1  0
  3  8  2  0
  4  5  1  0
  4  6  1  0
  6  7  2  0
  7  8  1  0
  8 11  1  0
 11 12  2  0
 11 13  1  0
 12 14  1  0
 13 15  2  0
 14 16  2  0
 15 16  1  0
M  END
>  <PUBCHEM_COMPOUND_CID>  (1) 
13717

>  <PUBCHEM_CONFORMER_RMSD>  (1) 
0.6

>  <PUBCHEM_CONFORMER_DIVERSEORDER>  (1) 
1
23
14
3
12
18
16
22
24
17
7
11
6
5
21
20
13
10
8
15
2
9
4
19

>  <PUBCHEM_MMFF94_PARTIAL_CHARGES>  (1) 
22
1 -0.02
10 0.27
11 0.05
12 -0.15
13 -0.15
14 -0.15
15 -0.15
16 -0.15
2 -0.81
21 0.15
28 0.15
29 0.15
3 -0.41
30 0.15
31 0.15
32 0.15
4 0.18
5 0.27
6 -0.04
7 -0.15
8 0.23
9 0.27

>  <PUBCHEM_EFFECTIVE_ROTOR_COUNT>  (1) 
4

>  <PUBCHEM_PHARMACOPHORE_FEATURES>  (1) 
4
1 2 cation
1 3 acceptor
5 1 3 6 7 8 rings
6 11 12 13 14 15 16 rings

>  <PUBCHEM_HEAVY_ATOM_COUNT>  (1) 
16

>  <PUBCHEM_ATOM_DEF_STEREO_COUNT>  (1) 
0

>  <PUBCHEM_ATOM_UDEF_STEREO_COUNT>  (1) 
0

>  <PUBCHEM_BOND_DEF_STEREO_COUNT>  (1) 
0

>  <PUBCHEM_BOND_UDEF_STEREO_COUNT>  (1) 
0

>  <PUBCHEM_ISOTOPIC_ATOM_COUNT>  (1) 
0

>  <PUBCHEM_COMPONENT_COUNT>  (1) 
1

>  <PUBCHEM_CACTVS_TAUTO_COUNT>  (1) 
1

>  <PUBCHEM_CONFORMER_ID>  (1) 
0000359500000001

>  <PUBCHEM_MMFF94_ENERGY>  (1) 
32.1642

>  <PUBCHEM_FEATURE_SELFOVERLAP>  (1) 
20.297

>  <PUBCHEM_SHAPE_FINGERPRINT>  (1) 
100836 57 10519988183915511930
10465860 250 18342457049567597001
10670039 82 10447660140504390218
10803635 8 17749098981320528887
11046707 91 18334012804613699689
11128504 68 15502378941414952958
11401426 45 17989203742103668789
11796584 16 18259984881217509451
12236239 1 17821449053692973132
124424 183 18411136957154760965
12507557 5 13254792452055821891
12555020 224 18335974359697805039
12670543 26 12324229538999006010
12916748 109 8646768906659900590
13081056 2 7853571305692863502
13167823 11 18186802504064137618
13288520 33 18407761439019111127
13533116 47 17603579696069779698
13675066 3 18060416919690590556
13690532 89 18334859428414190916
13862211 1 18410288120771385759
14251731 8 18333168353998199197
14252887 29 17489316265340429406
14911166 2 12685093687419838004
17804303 29 18410295839191236789
17834072 33 18113903784047653748
17834072 8 18187358827347069807
1813 80 17894355462486855966
18186145 218 14129061460317295885
193927 3 18261686946808083690
19489759 90 18130786737784158385
19784866 140 14923935730712453052
200 152 16950563264248305956
20279233 1 17775293767715001351
20374829 77 18333447651183858459
204376 136 14908179767814904252
20645477 56 8286191747885169900
21033648 29 16916770847730581744
21267235 1 18336274513328692339
22854114 59 16415479350621940808
2297311 6 18201731621939300812
23227448 37 10737872909844418322
23253445 4 17489582390140882368
23272321 79 10807926081083737258
23402539 116 17822286873280058317
23402655 69 11386353868695690547
23536379 177 16805039601339406268
23557571 272 18058459707579175164
23559900 14 18410852204648933848
239999 70 18343868810462098686
26918003 58 18343863316175287224
3004659 81 18259709999711456366
351380 3 18040431088390583178
42 15 18410012147631528276
4214541 1 18408041797320447909
5104073 3 18270409424649644409
5374978 207 18272649061174241848
559249 180 18187358801387615123
573450 72 18334010579725837905
5924683 9 17274530061815716223
67856867 119 18189056563479533604
76465 3 18198337554109171727

>  <PUBCHEM_SHAPE_MULTIPOLES>  (1) 
313.44
12.57
1.48
0.87
8.69
0.03
-0.02
4.89
-1.46
-0.95
-0.08
1.09
0.13
0.04

>  <PUBCHEM_SHAPE_SELFOVERLAP>  (1) 
658.412

>  <PUBCHEM_SHAPE_VOLUME>  (1) 
179.8

>  <PUBCHEM_COORDINATE_TYPE>  (1) 
2
5
10

$$$$
