13726
     RDKit          3D

 17 18  0  0  0  0  0  0  0  0999 V2000
    3.2283   -2.7187   -0.4403 Cl  0  0  0  0  0  0  0  0  0  0  0  0
    3.2283    2.7192   -0.4369 Cl  0  0  0  0  0  0  0  0  0  0  0  0
    4.3071    0.0007   -1.0277 O   0  0  0  0  0  0  0  0  0  0  0  0
   -4.8979    0.0011   -1.5828 O   0  0  0  0  0  0  0  0  0  0  0  0
   -0.5666   -0.0010    1.6348 N   0  0  0  0  0  0  0  0  0  0  0  0
    0.6646   -0.0005    0.9615 C   0  0  0  0  0  0  0  0  0  0  0  0
   -1.6174   -0.0006    0.8781 C   0  0  0  0  0  0  0  0  0  0  0  0
    1.2722    1.2076    0.6298 C   0  0  0  0  0  0  0  0  0  0  0  0
    1.2729   -1.2083    0.6294 C   0  0  0  0  0  0  0  0  0  0  0  0
    2.4971   -1.2080   -0.0393 C   0  0  0  0  0  0  0  0  0  0  0  0
    2.4965    1.2080   -0.0388 C   0  0  0  0  0  0  0  0  0  0  0  0
    3.1090    0.0003   -0.3733 C   0  0  0  0  0  0  0  0  0  0  0  0
   -2.9931   -0.0010    1.4241 C   0  0  0  0  0  0  0  0  0  0  0  0
   -1.4773    0.0008   -0.5972 C   0  0  0  0  0  0  0  0  0  0  0  0
   -4.0604   -0.0008    0.6227 C   0  0  0  0  0  0  0  0  0  0  0  0
   -2.5461    0.0012   -1.3968 C   0  0  0  0  0  0  0  0  0  0  0  0
   -3.9171    0.0002   -0.8473 C   0  0  0  0  0  0  0  0  0  0  0  0
  1 10  1  0
  2 11  1  0
  3 12  1  0
  4 17  2  0
  5  6  1  0
  5  7  2  3
  6  8  2  0
  6  9  1  0
  7 13  1  0
  7 14  1  0
  8 11  1  0
  9 10  2  0
 10 12  1  0
 11 12  2  0
 13 15  2  0
 14 16  2  0
 15 17  1  0
 16 17  1  0
M  END
>  <PUBCHEM_COMPOUND_CID>  (1) 
13726

>  <PUBCHEM_CONFORMER_RMSD>  (1) 
0.6

>  <PUBCHEM_CONFORMER_DIVERSEORDER>  (1) 
1

>  <PUBCHEM_MMFF94_PARTIAL_CHARGES>  (1) 
24
1 -0.18
10 0.18
11 0.18
12 0.08
13 -0.14
14 -0.14
15 -0.14
16 -0.14
17 0.54
18 0.15
19 0.15
2 -0.18
20 0.15
21 0.15
22 0.15
23 0.15
24 0.45
3 -0.53
4 -0.57
5 -0.63
6 0.18
7 0.42
8 -0.15
9 -0.15

>  <PUBCHEM_EFFECTIVE_ROTOR_COUNT>  (1) 
1

>  <PUBCHEM_PHARMACOPHORE_FEATURES>  (1) 
5
1 3 donor
1 4 acceptor
1 5 acceptor
6 6 8 9 10 11 12 rings
6 7 13 14 15 16 17 rings

>  <PUBCHEM_HEAVY_ATOM_COUNT>  (1) 
17

>  <PUBCHEM_ATOM_DEF_STEREO_COUNT>  (1) 
0

>  <PUBCHEM_ATOM_UDEF_STEREO_COUNT>  (1) 
0

>  <PUBCHEM_BOND_DEF_STEREO_COUNT>  (1) 
0

>  <PUBCHEM_BOND_UDEF_STEREO_COUNT>  (1) 
0

>  <PUBCHEM_ISOTOPIC_ATOM_COUNT>  (1) 
0

>  <PUBCHEM_COMPONENT_COUNT>  (1) 
1

>  <PUBCHEM_CACTVS_TAUTO_COUNT>  (1) 
2

>  <PUBCHEM_CONFORMER_ID>  (1) 
0000359E00000001

>  <PUBCHEM_MMFF94_ENERGY>  (1) 
48.4346

>  <PUBCHEM_FEATURE_SELFOVERLAP>  (1) 
25.371

>  <PUBCHEM_SHAPE_FINGERPRINT>  (1) 
10062212 137 17346598526552714319
10465860 71 16056328331000301137
10498660 4 16081085953018871447
10646746 165 16298102090262502164
10751810 167 16988567935165035121
11132069 177 15719385140621076325
11471102 20 18408890637677114864
11543360 7 18338226167910942503
11796584 16 14907081265826352212
12236239 1 17704078382098105824
12251169 10 8574713498670675000
12730499 353 18113904879016439931
13134695 92 18335703798074127188
13764800 53 15719394997565979769
14115302 16 17704065226671488919
14250199 8 18408324392977752133
14576447 43 18060697295097872046
14739800 52 14997420633294775756
15342816 4 16773787134571627109
15375358 24 17531238500323837405
16752209 62 16415478238457513415
16945 1 18410584980979820666
17539 30 17472701326343143982
1813 80 17914627059784809430
18186145 218 17676493808848015297
18915474 69 17489588982367074959
19422 9 17989208135865807515
19786989 88 18262518207689528440
200 152 18272936007216334824
20233049 118 15140963963169247406
20645476 183 17989204888743996575
20645477 70 18408610244589480130
20671657 53 18193841444699049946
20715895 44 12253828892216549687
21639500 275 18338521936301638784
2255824 54 18272373087855243958
22646028 28 17203605978165822439
231179 274 17749106729409849848
232386 152 16343694422213690250
23402655 69 18335420153569343157
23557571 272 17168156675435526003
23559900 14 16588020174056075746
23598291 2 17775016681942088144
25 1 18336273439454908712
2748010 2 17977690902336946376
2838139 119 16227760942056844246
3060560 45 18410855477972877518
3082319 5 17846501464855302241
3472631 163 15574436531121211623
465052 167 16414348052484754247
474 4 17986661782990127880
4990 188 17967810531392798003
5281201 14 18260831462474048429
5939293 188 16081371903140638436
633830 44 18334012753490888817
7471813 234 18059858329424763824
77492 1 17703799101965708691

>  <PUBCHEM_SHAPE_MULTIPOLES>  (1) 
336.87
8.62
1.95
1.4
5.19
0
-0.01
0
3.2
-3.8
0.31
1.32
0
0

>  <PUBCHEM_SHAPE_SELFOVERLAP>  (1) 
711.413

>  <PUBCHEM_SHAPE_VOLUME>  (1) 
190.9

>  <PUBCHEM_COORDINATE_TYPE>  (1) 
2
5
10

$$$$
