13731
     RDKit          3D

 18 20  0  0  0  0  0  0  0  0999 V2000
    1.7142    1.6872   -0.1633 O   0  0  0  0  0  0  0  0  0  0  0  0
   -0.4005    2.5422   -0.1507 O   0  0  0  0  0  0  0  0  0  0  0  0
   -4.5002   -0.7058   -1.8145 O   0  0  0  0  0  0  0  0  0  0  0  0
   -3.7989   -0.4822   -0.7753 N   0  0  0  0  0  0  0  0  0  0  0  0
   -0.2097    0.1852    0.1134 C   0  0  0  0  0  0  0  0  0  0  0  0
    2.0551   -0.7053    0.0646 C   0  0  0  0  0  0  0  0  0  0  0  0
   -1.6621   -0.0326    0.2494 C   0  0  0  0  0  0  0  0  0  0  0  0
    0.6153   -0.8710    0.1777 C   0  0  0  0  0  0  0  0  0  0  0  0
    2.5723    0.5737   -0.1014 C   0  0  0  0  0  0  0  0  0  0  0  0
    0.3306    1.5599   -0.0725 C   0  0  0  0  0  0  0  0  0  0  0  0
    2.9370   -1.7874    0.1206 C   0  0  0  0  0  0  0  0  0  0  0  0
   -2.4365   -0.2766   -0.8786 C   0  0  0  0  0  0  0  0  0  0  0  0
   -2.2643    0.0062    1.5010 C   0  0  0  0  0  0  0  0  0  0  0  0
    3.9421    0.8030   -0.2131 C   0  0  0  0  0  0  0  0  0  0  0  0
    4.3140   -1.5739    0.0097 C   0  0  0  0  0  0  0  0  0  0  0  0
    4.8153   -0.2811   -0.1568 C   0  0  0  0  0  0  0  0  0  0  0  0
   -3.6347   -0.1993    1.6165 C   0  0  0  0  0  0  0  0  0  0  0  0
   -4.3891   -0.4419    0.4733 C   0  0  0  0  0  0  0  0  0  0  0  0
  1  9  1  0
  1 10  1  0
  2 10  2  0
  3  4  1  0
  4 12  2  0
  4 18  1  0
  5  7  1  0
  5  8  2  0
  5 10  1  0
  6  8  1  0
  6  9  2  0
  6 11  1  0
  7 12  1  0
  7 13  2  0
  9 14  1  0
 11 15  2  0
 13 17  1  0
 14 16  2  0
 15 16  1  0
 17 18  2  0
M  CHG  2   3  -1   4   1
M  END
>  <PUBCHEM_COMPOUND_CID>  (1) 
13731

>  <PUBCHEM_CONFORMER_RMSD>  (1) 
0.6

>  <PUBCHEM_CONFORMER_DIVERSEORDER>  (1) 
2
3
4
1
5
6

>  <PUBCHEM_MMFF94_PARTIAL_CHARGES>  (1) 
27
1 -0.23
10 0.71
11 -0.15
12 -0.06
13 -0.15
14 -0.15
15 -0.15
16 -0.15
17 -0.15
18 -0.06
19 0.15
2 -0.57
20 0.15
21 0.15
22 0.15
23 0.15
24 0.15
25 0.15
26 0.15
27 0.15
3 -0.75
4 0.57
5 -0.01
6 0.03
7 0.03
8 -0.18
9 0.08

>  <PUBCHEM_EFFECTIVE_ROTOR_COUNT>  (1) 
1

>  <PUBCHEM_PHARMACOPHORE_FEATURES>  (1) 
5
1 2 acceptor
1 3 anion
6 1 5 6 8 9 10 rings
6 4 7 12 13 17 18 rings
6 6 9 11 14 15 16 rings

>  <PUBCHEM_HEAVY_ATOM_COUNT>  (1) 
18

>  <PUBCHEM_ATOM_DEF_STEREO_COUNT>  (1) 
0

>  <PUBCHEM_ATOM_UDEF_STEREO_COUNT>  (1) 
0

>  <PUBCHEM_BOND_DEF_STEREO_COUNT>  (1) 
0

>  <PUBCHEM_BOND_UDEF_STEREO_COUNT>  (1) 
0

>  <PUBCHEM_ISOTOPIC_ATOM_COUNT>  (1) 
0

>  <PUBCHEM_COMPONENT_COUNT>  (1) 
1

>  <PUBCHEM_CACTVS_TAUTO_COUNT>  (1) 
1

>  <PUBCHEM_CONFORMER_ID>  (1) 
000035A300000002

>  <PUBCHEM_MMFF94_ENERGY>  (1) 
60.6112

>  <PUBCHEM_FEATURE_SELFOVERLAP>  (1) 
25.399

>  <PUBCHEM_SHAPE_FINGERPRINT>  (1) 
11471102 20 18335139817207222356
11578080 2 17702073964196611705
11796584 16 16298660608363744762
12236239 1 17917715712427001563
12553582 1 18411143523991061818
12670546 56 17561079219815285424
13134695 92 18410012169154389869
13140716 1 18193278726984755024
13544653 18 18334580118232827348
13760787 5 18409454695542194548
13862211 1 18410007720185384546
14289901 80 15698006244677526550
14386348 63 17821734943917280339
14576447 43 18200020871434328159
15196674 1 18336830788786780656
15375358 24 17967531289735674050
15375462 189 18273500065566743680
15848700 24 18410006641889779652
16945 1 18408609184259766616
17357779 13 18187076243762726053
17862501 102 17561082514097334155
1813 80 18270136642175284428
18186145 218 17167866348262238273
18222031 100 18201431472117719846
200 152 18413668006819716667
20279233 1 17603308158634769082
20645477 70 18333731303888829962
21065201 7 15936407861838556554
21267235 1 18337965510667400930
22094290 60 15863791707620313987
221357 26 18261376850876136437
221490 88 18118688965672892051
22646028 1 17989204849899392791
22646028 28 18202845452460572759
23175994 123 17968104126878117821
23402539 116 18412826858722921146
23559900 14 16877939404674255146
26918003 58 17894915126727050370
2748010 2 18193272997456255348
2871803 45 18259985934043347698
312423 11 18190756236825720370
474 4 17842828095666126152
5104073 3 18265331708354427576
573450 72 17275388694370646427
602551 16 15626216961536350934
77492 1 17918001602514021961
83771 10 18412827962814339840

>  <PUBCHEM_SHAPE_MULTIPOLES>  (1) 
347.84
9.54
1.65
1.12
0.36
0.68
0.01
-3.23
0.83
-1.28
0.08
1.8
-0.19
-0.31

>  <PUBCHEM_SHAPE_SELFOVERLAP>  (1) 
772.424

>  <PUBCHEM_SHAPE_VOLUME>  (1) 
184.8

>  <PUBCHEM_COORDINATE_TYPE>  (1) 
2
5
10

$$$$
