13732
     RDKit          3D

 18 20  0  0  0  0  0  0  0  0999 V2000
    5.2736   -2.2358   -0.0038 Br  0  0  0  0  0  0  0  0  0  0  0  0
    0.8991    1.9649    0.0077 O   0  0  0  0  0  0  0  0  0  0  0  0
   -1.3092    2.5348   -0.0363 O   0  0  0  0  0  0  0  0  0  0  0  0
   -2.7966   -0.3684    1.1972 N   0  0  0  0  0  0  0  0  0  0  0  0
    1.5472   -0.3743   -0.0108 C   0  0  0  0  0  0  0  0  0  0  0  0
   -0.8164    0.2070   -0.0257 C   0  0  0  0  0  0  0  0  0  0  0  0
    1.8951    0.9709    0.0059 C   0  0  0  0  0  0  0  0  0  0  0  0
    0.1390   -0.7351   -0.0211 C   0  0  0  0  0  0  0  0  0  0  0  0
   -2.2313   -0.2094   -0.0202 C   0  0  0  0  0  0  0  0  0  0  0  0
    2.5628   -1.3336   -0.0133 C   0  0  0  0  0  0  0  0  0  0  0  0
   -0.4576    1.6518   -0.0165 C   0  0  0  0  0  0  0  0  0  0  0  0
    3.2254    1.3852    0.0197 C   0  0  0  0  0  0  0  0  0  0  0  0
    3.9023   -0.9340    0.0002 C   0  0  0  0  0  0  0  0  0  0  0  0
    4.2326    0.4228    0.0166 C   0  0  0  0  0  0  0  0  0  0  0  0
   -2.8965   -0.4126   -1.2180 C   0  0  0  0  0  0  0  0  0  0  0  0
   -4.2293   -0.8049   -1.1630 C   0  0  0  0  0  0  0  0  0  0  0  0
   -4.0934   -0.7504    1.2108 C   0  0  0  0  0  0  0  0  0  0  0  0
   -4.8466   -0.9791    0.0706 C   0  0  0  0  0  0  0  0  0  0  0  0
  1 13  1  0
  2  7  1  0
  2 11  1  0
  3 11  2  0
  4  9  2  0
  4 17  1  0
  5  7  2  0
  5  8  1  0
  5 10  1  0
  6  8  2  0
  6  9  1  0
  6 11  1  0
  7 12  1  0
  9 15  1  0
 10 13  2  0
 12 14  2  0
 13 14  1  0
 15 16  2  0
 16 18  1  0
 17 18  2  0
M  END
>  <PUBCHEM_COMPOUND_CID>  (1) 
13732

>  <PUBCHEM_CONFORMER_RMSD>  (1) 
0.6

>  <PUBCHEM_CONFORMER_DIVERSEORDER>  (1) 
1
3
2
4

>  <PUBCHEM_MMFF94_PARTIAL_CHARGES>  (1) 
26
1 -0.11
10 -0.15
11 0.71
12 -0.15
13 0.11
14 -0.15
15 -0.15
16 -0.15
17 0.16
18 -0.15
19 0.15
2 -0.23
20 0.15
21 0.15
22 0.15
23 0.15
24 0.15
25 0.15
26 0.15
3 -0.57
4 -0.62
5 0.03
6 -0.01
7 0.08
8 -0.18
9 0.34

>  <PUBCHEM_EFFECTIVE_ROTOR_COUNT>  (1) 
1

>  <PUBCHEM_PHARMACOPHORE_FEATURES>  (1) 
6
1 1 hydrophobe
1 3 acceptor
1 4 acceptor
6 2 5 6 7 8 11 rings
6 4 9 15 16 17 18 rings
6 5 7 10 12 13 14 rings

>  <PUBCHEM_HEAVY_ATOM_COUNT>  (1) 
18

>  <PUBCHEM_ATOM_DEF_STEREO_COUNT>  (1) 
0

>  <PUBCHEM_ATOM_UDEF_STEREO_COUNT>  (1) 
0

>  <PUBCHEM_BOND_DEF_STEREO_COUNT>  (1) 
0

>  <PUBCHEM_BOND_UDEF_STEREO_COUNT>  (1) 
0

>  <PUBCHEM_ISOTOPIC_ATOM_COUNT>  (1) 
0

>  <PUBCHEM_COMPONENT_COUNT>  (1) 
1

>  <PUBCHEM_CACTVS_TAUTO_COUNT>  (1) 
1

>  <PUBCHEM_CONFORMER_ID>  (1) 
000035A400000001

>  <PUBCHEM_MMFF94_ENERGY>  (1) 
59.5977

>  <PUBCHEM_FEATURE_SELFOVERLAP>  (1) 
30.473

>  <PUBCHEM_SHAPE_FINGERPRINT>  (1) 
10912923 1 17489308628445582139
11471102 20 18337107964247948996
11796584 16 17167854266493121338
12032990 46 18408044000611952594
12236239 1 17846782944733570051
12553582 1 18342455962940663334
13134695 92 18341610472906621341
13140716 1 17907856554843546608
13288520 33 18339925913844968342
13544653 18 18408042913679323740
13760787 5 18411420630611336862
13862211 1 18411132516069536134
14289901 80 15123514752006317503
14386348 63 18040436628787410723
14739800 52 16199576034941010120
15196674 1 18410855430475094228
15375462 189 18131071566682038312
16945 1 18338799030290511444
17357779 13 18261380166095036061
1813 80 18270977785660731524
18186145 218 17458061564551287777
18222031 100 18272078409637615894
193927 3 18336836290692900670
19784866 140 18187363194806901706
200 152 18413384332619335839
20028762 73 18202275909954860214
20281475 54 18272929453106913894
20645477 70 18335697256480628894
21267235 1 18411426085779348606
221490 88 18408886205355378324
23175994 123 18114183060053927773
23402539 116 18412540981389011790
23559900 14 17894911841177328002
25147074 1 18339378370134721760
26918003 58 18113615707210317443
2871803 45 18259982656745885082
312423 11 18337403651545794228
3286 77 17346589794488426626
34797466 226 16443637881721501758
465052 167 18342182197298899991
474 4 17628061618630375296
5104073 3 18269267977087855816
5281201 14 17822009821882123516
573450 72 17132116853293730051
602551 16 15194995115287811151
76465 3 18343013385287154814
77492 1 17631459015571347741
83771 10 18342455941323427840
9709674 26 18408044004970333898

>  <PUBCHEM_SHAPE_MULTIPOLES>  (1) 
359.65
10.44
2.05
0.92
0.86
0.74
0
-6.48
0.06
1.59
-0.01
-1.07
-0.21
0.01

>  <PUBCHEM_SHAPE_SELFOVERLAP>  (1) 
782.764

>  <PUBCHEM_SHAPE_VOLUME>  (1) 
200.4

>  <PUBCHEM_COORDINATE_TYPE>  (1) 
2
5
10

$$$$
