13743
     RDKit          3D

 19 19  0  0  0  0  0  0  0  0999 V2000
   -3.2170    0.0435    0.6205 O   0  0  0  0  0  0  0  0  0  0  0  0
    1.9942    0.2357    2.2199 O   0  0  0  0  0  0  0  0  0  0  0  0
    0.1673   -0.1510   -2.0886 O   0  0  0  0  0  0  0  0  0  0  0  0
    1.8790    3.8430   -0.6138 O   0  0  0  0  0  0  0  0  0  0  0  0
   -4.2879   -1.2375   -0.9644 O   0  0  0  0  0  0  0  0  0  0  0  0
    1.8461    2.0609    0.8382 N   0  0  0  0  0  0  0  0  0  0  0  0
    0.9330    1.8680   -1.3138 N   0  0  0  0  0  0  0  0  0  0  0  0
   -5.4704   -0.0885    0.6383 N   0  0  0  0  0  0  0  0  0  0  0  0
    0.5222    0.0665    0.3003 C   0  0  0  0  0  0  0  0  0  0  0  0
    0.7542   -1.4511    0.3381 C   0  0  0  0  0  0  0  0  0  0  0  0
   -0.8747    0.3816    0.8646 C   0  0  0  0  0  0  0  0  0  0  0  0
    2.1686   -1.7936   -0.1063 C   0  0  0  0  0  0  0  0  0  0  0  0
    1.5361    0.7598    1.2049 C   0  0  0  0  0  0  0  0  0  0  0  0
    0.5387    0.5488   -1.1467 C   0  0  0  0  0  0  0  0  0  0  0  0
   -1.9588   -0.3042    0.0593 C   0  0  0  0  0  0  0  0  0  0  0  0
    2.4045   -3.3023   -0.0395 C   0  0  0  0  0  0  0  0  0  0  0  0
    1.5593    2.6775   -0.3737 C   0  0  0  0  0  0  0  0  0  0  0  0
    3.8241   -3.6629   -0.4478 C   0  0  0  0  0  0  0  0  0  0  0  0
   -4.3186   -0.4941    0.0106 C   0  0  0  0  0  0  0  0  0  0  0  0
  1 15  1  0
  1 19  1  0
  2 13  2  0
  3 14  2  0
  4 17  2  0
  5 19  2  0
  6 13  1  0
  6 17  1  0
  7 14  1  0
  7 17  1  0
  8 19  1  0
  9 10  1  0
  9 11  1  0
  9 13  1  0
  9 14  1  0
 10 12  1  0
 11 15  1  0
 12 16  1  0
 16 18  1  0
M  END
>  <PUBCHEM_COMPOUND_CID>  (1) 
13743

>  <PUBCHEM_CONFORMER_RMSD>  (1) 
0.8

>  <PUBCHEM_CONFORMER_DIVERSEORDER>  (1) 
1
29
19
30
24
47
55
58
46
42
57
51
9
39
44
21
41
36
53
15
33
28
43
31
32
56
18
37
52
48
59
12
27
50
13
10
54
45
38
22
17
14
26
20
3
6
35
2
8
7
49
11
16
25
4
23
5
34
40

>  <PUBCHEM_MMFF94_PARTIAL_CHARGES>  (1) 
18
1 -0.43
13 0.57
14 0.57
15 0.28
17 0.69
19 0.78
2 -0.57
3 -0.57
30 0.37
31 0.37
35 0.37
36 0.37
4 -0.57
5 -0.57
6 -0.49
7 -0.49
8 -0.8
9 0.12

>  <PUBCHEM_EFFECTIVE_ROTOR_COUNT>  (1) 
7.6

>  <PUBCHEM_PHARMACOPHORE_FEATURES>  (1) 
9
1 18 hydrophobe
1 2 acceptor
1 3 acceptor
1 4 acceptor
1 5 acceptor
1 6 donor
1 7 donor
1 8 donor
6 6 7 9 13 14 17 rings

>  <PUBCHEM_HEAVY_ATOM_COUNT>  (1) 
19

>  <PUBCHEM_ATOM_DEF_STEREO_COUNT>  (1) 
0

>  <PUBCHEM_ATOM_UDEF_STEREO_COUNT>  (1) 
0

>  <PUBCHEM_BOND_DEF_STEREO_COUNT>  (1) 
0

>  <PUBCHEM_BOND_UDEF_STEREO_COUNT>  (1) 
0

>  <PUBCHEM_ISOTOPIC_ATOM_COUNT>  (1) 
0

>  <PUBCHEM_COMPONENT_COUNT>  (1) 
1

>  <PUBCHEM_CACTVS_TAUTO_COUNT>  (1) 
10

>  <PUBCHEM_CONFORMER_ID>  (1) 
000035AF00000001

>  <PUBCHEM_MMFF94_ENERGY>  (1) 
41.7867

>  <PUBCHEM_FEATURE_SELFOVERLAP>  (1) 
45.713

>  <PUBCHEM_SHAPE_FINGERPRINT>  (1) 
12423570 1 13730867491921395184
12969540 37 18410848871686285967
13134695 92 18336271145594265167
13955234 65 18337965587765582371
14817 1 9251352379100064196
15906896 17 17262999659394469902
16945 1 18129077022772355952
17539 30 17760644763807885710
1813 80 18262235500052202050
18186145 218 17385442129468518667
20600515 1 17412478926320493200
20671657 53 18339930286000466663
21524375 3 17465660491237861501
2255824 54 18412832399447316127
23419403 2 17913185608229555752
23559900 14 18409166606574668283
3060560 45 18337110193415201068
458136 41 18194413401082372339
7364860 26 18409172138012179105
77188 2 18265901254850120028

>  <PUBCHEM_SHAPE_MULTIPOLES>  (1) 
346.72
6.9
3.85
1.41
11.33
1.32
-0.01
-6.77
-0.34
-5.69
0.95
-0.41
0.44
0.09

>  <PUBCHEM_SHAPE_SELFOVERLAP>  (1) 
705.174

>  <PUBCHEM_SHAPE_VOLUME>  (1) 
197.9

>  <PUBCHEM_COORDINATE_TYPE>  (1) 
2
5
10

$$$$
