13747
     RDKit          3D

 19 20  0  0  0  0  0  0  0  0999 V2000
    3.6597   -1.8917    1.4152 Cl  0  0  0  0  0  0  0  0  0  0  0  0
   -3.6493   -1.9101   -1.4045 Cl  0  0  0  0  0  0  0  0  0  0  0  0
    1.0957    2.1880   -0.4264 N   0  0  0  0  0  0  0  0  0  0  0  0
   -1.1065    2.1933    0.4136 N   0  0  0  0  0  0  0  0  0  0  0  0
    2.2985    0.2408    0.3965 C   0  0  0  0  0  0  0  0  0  0  0  0
   -2.2992    0.2352   -0.3980 C   0  0  0  0  0  0  0  0  0  0  0  0
    1.6083    0.8992   -0.6215 C   0  0  0  0  0  0  0  0  0  0  0  0
   -1.6159    0.8942    0.6174 C   0  0  0  0  0  0  0  0  0  0  0  0
    2.8022   -1.0419    0.1810 C   0  0  0  0  0  0  0  0  0  0  0  0
   -2.7961   -1.0489   -0.1752 C   0  0  0  0  0  0  0  0  0  0  0  0
    1.4221    0.2748   -1.8547 C   0  0  0  0  0  0  0  0  0  0  0  0
   -1.4229    0.2865    1.8529 C   0  0  0  0  0  0  0  0  0  0  0  0
    2.4899    0.9249    1.7146 C   0  0  0  0  0  0  0  0  0  0  0  0
   -2.4943    0.9108   -1.7200 C   0  0  0  0  0  0  0  0  0  0  0  0
    2.6158   -1.6663   -1.0523 C   0  0  0  0  0  0  0  0  0  0  0  0
   -2.6065   -1.6652    1.0616 C   0  0  0  0  0  0  0  0  0  0  0  0
    1.9258   -1.0080   -2.0702 C   0  0  0  0  0  0  0  0  0  0  0  0
   -1.9198   -0.9975    2.0757 C   0  0  0  0  0  0  0  0  0  0  0  0
   -0.0071    2.1818   -0.0057 C   0  0  0  0  0  0  0  0  0  0  0  0
  1  9  1  0
  2 10  1  0
  3  7  1  0
  3 19  2  0
  4  8  1  0
  4 19  2  0
  5  7  2  0
  5  9  1  0
  5 13  1  0
  6  8  2  0
  6 10  1  0
  6 14  1  0
  7 11  1  0
  8 12  1  0
  9 15  2  0
 10 16  2  0
 11 17  2  0
 12 18  2  0
 15 17  1  0
 16 18  1  0
M  END
>  <PUBCHEM_COMPOUND_CID>  (1) 
13747

>  <PUBCHEM_CONFORMER_RMSD>  (1) 
0.6

>  <PUBCHEM_CONFORMER_DIVERSEORDER>  (1) 
1
5
6
7
2
4
3

>  <PUBCHEM_MMFF94_PARTIAL_CHARGES>  (1) 
25
1 -0.18
10 0.18
11 -0.15
12 -0.15
13 0.14
14 0.14
15 -0.15
16 -0.15
17 -0.15
18 -0.15
19 0.6
2 -0.18
20 0.15
21 0.15
28 0.15
29 0.15
3 -0.48
30 0.15
31 0.15
4 -0.48
5 -0.14
6 -0.14
7 0.18
8 0.18
9 0.18

>  <PUBCHEM_EFFECTIVE_ROTOR_COUNT>  (1) 
2

>  <PUBCHEM_PHARMACOPHORE_FEATURES>  (1) 
5
1 3 acceptor
1 4 acceptor
3 3 4 19 cation
6 5 7 9 11 15 17 rings
6 6 8 10 12 16 18 rings

>  <PUBCHEM_HEAVY_ATOM_COUNT>  (1) 
19

>  <PUBCHEM_ATOM_DEF_STEREO_COUNT>  (1) 
0

>  <PUBCHEM_ATOM_UDEF_STEREO_COUNT>  (1) 
0

>  <PUBCHEM_BOND_DEF_STEREO_COUNT>  (1) 
0

>  <PUBCHEM_BOND_UDEF_STEREO_COUNT>  (1) 
0

>  <PUBCHEM_ISOTOPIC_ATOM_COUNT>  (1) 
0

>  <PUBCHEM_COMPONENT_COUNT>  (1) 
1

>  <PUBCHEM_CACTVS_TAUTO_COUNT>  (1) 
1

>  <PUBCHEM_CONFORMER_ID>  (1) 
000035B300000001

>  <PUBCHEM_MMFF94_ENERGY>  (1) 
54.9254

>  <PUBCHEM_FEATURE_SELFOVERLAP>  (1) 
25.411

>  <PUBCHEM_SHAPE_FINGERPRINT>  (1) 
11471102 22 17488447599672874672
11582403 64 16249037474753493636
12363563 72 18409727361203624206
12633257 1 17916863500557892018
13083527 12 18199730600538434456
13464514 151 11891330963562250670
13693222 7 9367064393995718732
14787075 74 15621414462276439937
15664445 248 16157678135100005095
17492 54 13273151272187338243
17834072 14 18338497699415864004
20626108 58 17771885380754291663
21069387 34 18261939795732703927
21475661 188 10373112092336866227
21731516 1 18266482990626380131
232386 152 18115879490473251850
23419403 2 16306482641263096952
23559900 14 18115290204081377032
23728640 28 17902516982248452162
2637199 183 12613303206120066327
350125 39 9583518689741549077
3797600 57 15409761678038310690
5161694 15 15719389525208075243
5262128 65 18335430087781219544
549884 4 12973597854682930420
81228 2 18196094339281470488
8988823 20 16486968557736949139

>  <PUBCHEM_SHAPE_MULTIPOLES>  (1) 
384.79
5.96
2.38
2.18
0.03
0.36
0.01
-3.81
0.02
-0.01
-0.01
0
-0.55
-0.03

>  <PUBCHEM_SHAPE_SELFOVERLAP>  (1) 
815.461

>  <PUBCHEM_SHAPE_VOLUME>  (1) 
214.7

>  <PUBCHEM_COORDINATE_TYPE>  (1) 
2
5
10

$$$$
