13750
     RDKit          3D

 19 19  0  0  1  0  0  0  0  0999 V2000
    2.3313   -2.0598    1.8332 O   0  0  0  0  0  0  0  0  0  0  0  0
    1.5324   -3.0540   -0.0372 O   0  0  0  0  0  0  0  0  0  0  0  0
   -3.5972    0.7039    0.4385 O   0  0  0  0  0  0  0  0  0  0  0  0
   -4.2152   -1.3981   -0.2884 O   0  0  0  0  0  0  0  0  0  0  0  0
    0.2767   -0.8003   -0.9150 N   0  0  0  0  0  0  0  0  0  0  0  0
    1.0897   -0.7023    0.2672 C   0  0  0  0  0  0  0  0  0  0  0  0
    2.1691    0.3422    0.0999 C   0  0  0  0  0  0  0  0  0  0  0  0
   -1.0764   -0.6017   -0.9139 C   0  0  0  0  0  0  0  0  0  0  0  0
    1.8770    1.6683    0.3733 C   0  0  0  0  0  0  0  0  0  0  0  0
    3.4292   -0.0472   -0.3231 C   0  0  0  0  0  0  0  0  0  0  0  0
    1.6754   -2.0463    0.6473 C   0  0  0  0  0  0  0  0  0  0  0  0
    2.8731    2.6324    0.2192 C   0  0  0  0  0  0  0  0  0  0  0  0
    4.4254    0.9170   -0.4772 C   0  0  0  0  0  0  0  0  0  0  0  0
   -1.6379   -0.0881   -2.2156 C   0  0  0  0  0  0  0  0  0  0  0  0
   -1.9116   -0.8201    0.1190 C   0  0  0  0  0  0  0  0  0  0  0  0
    4.1472    2.2568   -0.2059 C   0  0  0  0  0  0  0  0  0  0  0  0
   -3.3743   -0.5818    0.0517 C   0  0  0  0  0  0  0  0  0  0  0  0
   -4.9675    1.1182    0.4382 C   0  0  0  0  0  0  0  0  0  0  0  0
   -5.0464    2.5612    0.8887 C   0  0  0  0  0  0  0  0  0  0  0  0
  1 11  1  0
  2 11  2  0
  3 17  1  0
  3 18  1  0
  4 17  2  0
  5  6  1  0
  5  8  1  0
  6  7  1  0
  6 11  1  0
  7  9  2  0
  7 10  1  0
  8 14  1  0
  8 15  2  0
  9 12  1  0
 10 13  2  0
 12 16  2  0
 13 16  1  0
 15 17  1  0
 18 19  1  0
M  END
>  <PUBCHEM_COMPOUND_CID>  (1) 
13750

>  <PUBCHEM_CONFORMER_RMSD>  (1) 
0.8

>  <PUBCHEM_CONFORMER_DIVERSEORDER>  (1) 
1
26
99
49
95
50
41
28
75
88
108
58
71
106
105
65
9
98
80
82
87
92
103
3
89
39
94
93
35
69
38
11
37
97
32
48
96
91
53
18
34
52
102
54
13
40
51
12
90
84
72
20
61
83
67
60
73
2
81
76
57
107
100
64
55
44
63
110
45
47
46
104
109
6
30
68
5
77
62
16
23
10
19
27
17
78
36
79
25
24
101
86
70
31
42
21
7
22
74
56
4
14
33
15
85
8
111
29
59
43
66

>  <PUBCHEM_MMFF94_PARTIAL_CHARGES>  (1) 
26
1 -0.65
10 -0.15
11 0.66
12 -0.15
13 -0.15
14 0.14
15 -0.14
16 -0.15
17 0.71
18 0.28
2 -0.57
21 0.4
22 0.15
23 0.15
24 0.15
25 0.15
29 0.15
3 -0.43
30 0.15
31 0.5
4 -0.57
5 -0.87
6 0.57
7 -0.14
8 -0.04
9 -0.15

>  <PUBCHEM_EFFECTIVE_ROTOR_COUNT>  (1) 
7

>  <PUBCHEM_PHARMACOPHORE_FEATURES>  (1) 
7
1 1 acceptor
1 2 acceptor
1 4 acceptor
1 5 cation
1 5 donor
3 1 2 11 anion
6 7 9 10 12 13 16 rings

>  <PUBCHEM_HEAVY_ATOM_COUNT>  (1) 
19

>  <PUBCHEM_ATOM_DEF_STEREO_COUNT>  (1) 
0

>  <PUBCHEM_ATOM_UDEF_STEREO_COUNT>  (1) 
1

>  <PUBCHEM_BOND_DEF_STEREO_COUNT>  (1) 
0

>  <PUBCHEM_BOND_UDEF_STEREO_COUNT>  (1) 
1

>  <PUBCHEM_ISOTOPIC_ATOM_COUNT>  (1) 
0

>  <PUBCHEM_COMPONENT_COUNT>  (1) 
1

>  <PUBCHEM_CACTVS_TAUTO_COUNT>  (1) 
3

>  <PUBCHEM_CONFORMER_ID>  (1) 
000035B600000001

>  <PUBCHEM_MMFF94_ENERGY>  (1) 
50.8516

>  <PUBCHEM_FEATURE_SELFOVERLAP>  (1) 
35.58

>  <PUBCHEM_SHAPE_FINGERPRINT>  (1) 
10366900 7 17968374645181960913
10382601 240 18113614582266632400
10759866 29 18342182115863099153
12107183 9 17906733605694917387
12173636 292 18127405880856635727
12549972 3 16300890327454966509
12633257 1 17895462665973914619
12644460 14 18187359896509200458
12892183 10 18114755867226097963
13878862 14 18045199580463863261
14123255 52 18341332287642172561
14178342 30 17677347124714365139
14252887 29 16298110856485964579
14790565 3 18263934404705914092
14957384 54 17989204850152867029
15238133 3 18129655301242465617
15842332 3 18128230394519265879
1813 80 17770787806225825294
18186145 218 18265325278624815612
19784866 9 18410855451897099152
201361 129 18410292510275110274
20233049 118 17346877836385749912
20832881 197 18339370678217111726
21041028 32 18048589331571848998
21421861 104 18042682797946281712
21503847 285 18413111641051290068
21524375 3 18116987987225735270
21864079 5 18272928349558820521
23402655 69 18130229358435410228
23558518 356 17685772828425950070
23559900 14 17630615518233313703
25 1 18338515365386479436
2637199 183 18341337785654057254
26918003 58 12180108917546999061
2916195 48 17987230230575462904
458136 41 17967533484780726586
474 4 18188772880361767517
5104073 3 18259984872927937571
543358 83 18340773628382250640
633830 44 18339923818016810428
6442390 28 18043535117095388178
8272917 22 18339929212116185395

>  <PUBCHEM_SHAPE_MULTIPOLES>  (1) 
362.55
9.99
2.94
1.22
8.9
0.22
0.35
7
-1.28
-1.07
-0.89
0.28
-0.34
-1.46

>  <PUBCHEM_SHAPE_SELFOVERLAP>  (1) 
742.23

>  <PUBCHEM_SHAPE_VOLUME>  (1) 
209.6

>  <PUBCHEM_COORDINATE_TYPE>  (1) 
2
5
10

$$$$
