13756
     RDKit          3D

 20 22  0  0  1  0  0  0  0  0999 V2000
    0.8801   -4.3978   -0.3728 Cl  0  0  0  0  0  0  0  0  0  0  0  0
   -1.1970    2.7685    0.6634 O   0  0  0  0  0  0  0  0  0  0  0  0
    2.2785    2.8531   -1.3818 O   0  0  0  0  0  0  0  0  0  0  0  0
   -0.0905    1.9472    0.4510 N   0  0  0  0  0  0  0  0  0  0  0  0
    2.8276    1.0913   -0.0184 N   0  0  0  0  0  0  0  0  0  0  0  0
   -0.2546    0.5926    0.1651 C   0  0  0  0  0  0  0  0  0  0  0  0
    0.7090   -0.3605    0.0185 C   0  0  0  0  0  0  0  0  0  0  0  0
   -1.6828    0.1869    0.0341 C   0  0  0  0  0  0  0  0  0  0  0  0
    2.2002   -0.0341    0.1428 C   0  0  0  0  0  0  0  0  0  0  0  0
    1.1460    2.6407    0.7093 C   0  0  0  0  0  0  0  0  0  0  0  0
    0.3937   -1.7740   -0.2372 C   0  0  0  0  0  0  0  0  0  0  0  0
    2.1308    2.2202   -0.3404 C   0  0  0  0  0  0  0  0  0  0  0  0
    3.0820   -1.2032    0.4619 C   0  0  0  0  0  0  0  0  0  0  0  0
   -2.3812   -0.2259    1.1598 C   0  0  0  0  0  0  0  0  0  0  0  0
   -2.2928    0.2282   -1.2116 C   0  0  0  0  0  0  0  0  0  0  0  0
    1.3006   -2.7484   -0.0852 C   0  0  0  0  0  0  0  0  0  0  0  0
    2.6395   -2.4591    0.3478 C   0  0  0  0  0  0  0  0  0  0  0  0
   -3.7177   -0.6057    1.0373 C   0  0  0  0  0  0  0  0  0  0  0  0
   -3.6295   -0.1515   -1.3340 C   0  0  0  0  0  0  0  0  0  0  0  0
   -4.3419   -0.5686   -0.2095 C   0  0  0  0  0  0  0  0  0  0  0  0
  1 16  1  0
  2  4  1  0
  3 12  2  0
  4  6  1  0
  4 10  1  0
  5  9  2  0
  5 12  1  0
  6  7  2  0
  6  8  1  0
  7  9  1  0
  7 11  1  0
  8 14  2  0
  8 15  1  0
  9 13  1  0
 10 12  1  0
 11 16  2  0
 13 17  2  0
 14 18  1  0
 15 19  2  0
 16 17  1  0
 18 20  2  0
 19 20  1  0
M  END
>  <PUBCHEM_COMPOUND_CID>  (1) 
13756

>  <PUBCHEM_CONFORMER_RMSD>  (1) 
0.6

>  <PUBCHEM_CONFORMER_DIVERSEORDER>  (1) 
1
2

>  <PUBCHEM_MMFF94_PARTIAL_CHARGES>  (1) 
29
1 -0.14
10 0.43
11 -0.15
12 0.72
13 -0.14
14 -0.15
15 -0.15
16 0.14
17 -0.15
18 -0.15
19 -0.15
2 -0.38
20 -0.15
23 0.15
24 0.15
25 0.15
26 0.15
27 0.15
28 0.15
29 0.15
3 -0.57
30 0.15
31 0.4
4 -0.49
5 -0.66
6 0.07
7 0.01
8 0.03
9 0.42

>  <PUBCHEM_EFFECTIVE_ROTOR_COUNT>  (1) 
1.4

>  <PUBCHEM_PHARMACOPHORE_FEATURES>  (1) 
7
1 2 anion
1 3 acceptor
1 5 acceptor
1 5 donor
6 7 9 11 13 16 17 rings
6 8 14 15 18 19 20 rings
7 4 5 6 7 9 10 12 rings

>  <PUBCHEM_HEAVY_ATOM_COUNT>  (1) 
20

>  <PUBCHEM_ATOM_DEF_STEREO_COUNT>  (1) 
0

>  <PUBCHEM_ATOM_UDEF_STEREO_COUNT>  (1) 
0

>  <PUBCHEM_BOND_DEF_STEREO_COUNT>  (1) 
0

>  <PUBCHEM_BOND_UDEF_STEREO_COUNT>  (1) 
0

>  <PUBCHEM_ISOTOPIC_ATOM_COUNT>  (1) 
0

>  <PUBCHEM_COMPONENT_COUNT>  (1) 
1

>  <PUBCHEM_CACTVS_TAUTO_COUNT>  (1) 
1

>  <PUBCHEM_CONFORMER_ID>  (1) 
000035BC00000001

>  <PUBCHEM_MMFF94_ENERGY>  (1) 
72.4233

>  <PUBCHEM_FEATURE_SELFOVERLAP>  (1) 
35.582

>  <PUBCHEM_SHAPE_FINGERPRINT>  (1) 
10064457 181 17908156712732484593
10967382 1 18411699923887241762
1100329 8 18267580394121559242
11582403 64 16598652602036894061
12553582 1 18195536886975657475
13140716 1 18267580385104675258
14178342 30 17980188700307191474
14251757 5 16253651794506396702
14790565 3 18339939206911869432
15309172 13 18122068860311352417
16945 1 18410858750183971386
17138139 8 17339533296671703191
19591789 44 18050013490887298010
20645477 70 18334848438099477543
21639500 275 18339633555336480157
22112679 90 17489868250205485377
2255824 54 18410859871249673838
23114952 82 18113896044237213205
23184049 29 17544754534655486442
2334 1 18051129495184066482
23388829 49 18271237223191647544
23419403 2 17180464492559257248
23526113 38 17971174947027587703
23559900 14 18335412439887077433
23728640 28 16175660119186187283
238 59 18046592811608186471
257057 1 17905315235320688778
2748010 2 18121509217361215346
3060560 45 18409166640812827782
350125 39 17545043057504192032
394222 165 17896597474054885888
458136 41 18191885606527840587
59682541 52 18123998358006617071
633830 44 17914636070431166453
7097593 13 18054801585058766155
7364860 26 18410291410742389954
77492 1 17632580487261439177
81228 2 17617652155407496232
8272917 22 18411987957737825855

>  <PUBCHEM_SHAPE_MULTIPOLES>  (1) 
391.76
5.9
4.13
1.06
5.12
1.48
-0.13
1.42
-0.17
-4
-0.39
0.65
-0.22
-0.39

>  <PUBCHEM_SHAPE_SELFOVERLAP>  (1) 
850.336

>  <PUBCHEM_SHAPE_VOLUME>  (1) 
212.6

>  <PUBCHEM_COORDINATE_TYPE>  (1) 
2
5
10

$$$$
