13753
     RDKit          3D

 19 20  0  0  0  0  0  0  0  0999 V2000
   -2.4531    2.8728   -0.2300 Br  0  0  0  0  0  0  0  0  0  0  0  0
    6.2381    0.0476    0.0213 O   0  0  0  0  0  0  0  0  0  0  0  0
    5.4458   -1.9986    0.1733 O   0  0  0  0  0  0  0  0  0  0  0  0
    0.0365    1.2582   -0.0849 N   0  0  0  0  0  0  0  0  0  0  0  0
   -1.0237    0.4335   -0.0282 N   0  0  0  0  0  0  0  0  0  0  0  0
    5.2795   -0.7591    0.0794 N   0  0  0  0  0  0  0  0  0  0  0  0
    1.3446    0.7549   -0.0437 C   0  0  0  0  0  0  0  0  0  0  0  0
    2.4377    1.6255   -0.1059 C   0  0  0  0  0  0  0  0  0  0  0  0
    1.5678   -0.6223    0.0597 C   0  0  0  0  0  0  0  0  0  0  0  0
    3.9548   -0.2495    0.0380 C   0  0  0  0  0  0  0  0  0  0  0  0
   -3.4069    0.1003   -0.0213 C   0  0  0  0  0  0  0  0  0  0  0  0
    3.7390    1.1248   -0.0653 C   0  0  0  0  0  0  0  0  0  0  0  0
    2.8691   -1.1230    0.1005 C   0  0  0  0  0  0  0  0  0  0  0  0
   -3.3507   -1.1931   -0.5408 C   0  0  0  0  0  0  0  0  0  0  0  0
   -4.5903    0.5734    0.5457 C   0  0  0  0  0  0  0  0  0  0  0  0
   -2.2315    0.9550   -0.0703 C   0  0  0  0  0  0  0  0  0  0  0  0
   -4.4780   -2.0132   -0.4937 C   0  0  0  0  0  0  0  0  0  0  0  0
   -5.7175   -0.2470    0.5929 C   0  0  0  0  0  0  0  0  0  0  0  0
   -5.6613   -1.5402    0.0733 C   0  0  0  0  0  0  0  0  0  0  0  0
  1 16  1  0
  2  6  1  0
  3  6  2  0
  4  5  1  0
  4  7  1  0
  5 16  2  0
  6 10  1  0
  7  8  2  0
  7  9  1  0
  8 12  1  0
  9 13  2  0
 10 12  2  0
 10 13  1  0
 11 14  2  0
 11 15  1  0
 11 16  1  0
 14 17  1  0
 15 18  2  0
 17 19  2  0
 18 19  1  0
M  CHG  2   2  -1   6   1
M  END
>  <PUBCHEM_COMPOUND_CID>  (1) 
13753

>  <PUBCHEM_CONFORMER_RMSD>  (1) 
0.6

>  <PUBCHEM_CONFORMER_DIVERSEORDER>  (1) 
1
4
3
2

>  <PUBCHEM_MMFF94_PARTIAL_CHARGES>  (1) 
29
1 -0.14
10 0.13
11 0.09
12 -0.15
13 -0.15
14 -0.15
15 -0.15
16 0.51
17 -0.15
18 -0.15
19 -0.15
2 -0.52
20 0.15
21 0.15
22 0.15
23 0.15
24 0.4
25 0.15
26 0.15
27 0.15
28 0.15
29 0.15
3 -0.52
4 -0.46
5 -0.49
6 0.91
7 0.1
8 -0.15
9 -0.15

>  <PUBCHEM_EFFECTIVE_ROTOR_COUNT>  (1) 
4

>  <PUBCHEM_PHARMACOPHORE_FEATURES>  (1) 
8
1 1 hydrophobe
1 2 acceptor
1 2 anion
1 3 acceptor
1 4 donor
1 5 acceptor
6 11 14 15 17 18 19 rings
6 7 8 9 10 12 13 rings

>  <PUBCHEM_HEAVY_ATOM_COUNT>  (1) 
19

>  <PUBCHEM_ATOM_DEF_STEREO_COUNT>  (1) 
0

>  <PUBCHEM_ATOM_UDEF_STEREO_COUNT>  (1) 
0

>  <PUBCHEM_BOND_DEF_STEREO_COUNT>  (1) 
0

>  <PUBCHEM_BOND_UDEF_STEREO_COUNT>  (1) 
1

>  <PUBCHEM_ISOTOPIC_ATOM_COUNT>  (1) 
0

>  <PUBCHEM_COMPONENT_COUNT>  (1) 
1

>  <PUBCHEM_CACTVS_TAUTO_COUNT>  (1) 
1

>  <PUBCHEM_CONFORMER_ID>  (1) 
000035B900000001

>  <PUBCHEM_MMFF94_ENERGY>  (1) 
67.1184

>  <PUBCHEM_FEATURE_SELFOVERLAP>  (1) 
40.675

>  <PUBCHEM_SHAPE_FINGERPRINT>  (1) 
10595046 47 18407762543074002836
11045515 52 18040712589359137677
11315181 36 18202285827376139817
11524674 6 16630806608204723935
12107183 9 17762903160591052865
12236239 1 18342460347996829409
12596602 18 17274822492800136259
12616971 3 15267333037905039920
12633257 1 16630243714227892237
12760667 363 18342735222283896517
12916754 54 18410293618477386561
13167823 11 18410009939997206611
13288520 33 18410293623267615437
13551218 46 18342178851920244479
13862211 1 18260544494740763242
1420 363 18040158422032821027
14341114 176 18411984650175307420
14350574 20 18186802491142202076
15196674 1 18411699924040118543
15352361 1 18410292540687917469
15880784 105 18130508634261862363
17780758 139 18060422409101887321
17834072 33 18408044026429508628
17844677 252 18411143532254455464
17857418 61 18410854360706360731
1813 80 17676488380347314381
18222031 100 17603581945978826444
19489759 90 11530482237889027847
200 152 18413388739303306457
20028762 73 18342453764034400822
20645477 56 9799690398645635189
21267235 1 18410018736100830286
21426921 1 18336826390724952093
21709351 56 17967248680645225389
22950370 63 18339083786917479445
23402539 116 18334010592906184349
23522609 53 18121251794059937852
23559900 14 18410846690232867553
26918003 58 17917712396564607985
2838139 119 9151176437070572483
2871803 45 18114174255059552587
3004659 81 18114456838253889553
350125 39 18412545418333113916
351380 3 18334856125711200771
4073 2 18115030834552168282
4214541 1 18411419480003635225
4325135 7 18334861636702588748
465052 167 18342742910180657798
5104073 3 18272933847037858473
542803 24 10665222661848479305
559249 180 18411698777895845175
7495541 125 17917989512075777392

>  <PUBCHEM_SHAPE_MULTIPOLES>  (1) 
370.27
15
2.3
0.68
5.9
0.81
0
-7.34
1.22
-1.26
-0.25
-0.38
-0.01
-0.42

>  <PUBCHEM_SHAPE_SELFOVERLAP>  (1) 
776.444

>  <PUBCHEM_SHAPE_VOLUME>  (1) 
213.8

>  <PUBCHEM_COORDINATE_TYPE>  (1) 
2
5
10

$$$$
