13761
     RDKit          3D

 20 20  0  0  1  0  0  0  0  0999 V2000
   -1.3358   -2.8181    0.3197 F   0  0  0  0  0  0  0  0  0  0  0  0
   -0.0590    1.9326   -0.8786 O   0  0  0  0  0  0  0  0  0  0  0  0
    3.9536   -0.0519    0.4454 N   0  0  0  0  0  0  0  0  0  0  0  0
   -0.2584   -0.3465   -0.3400 N   0  0  0  0  0  0  0  0  0  0  0  0
    2.5144    0.1623    0.6077 C   0  0  0  0  0  0  0  0  0  0  0  0
    1.9222    0.6044   -0.7363 C   0  0  0  0  0  0  0  0  0  0  0  0
    4.2049   -1.0895   -0.5532 C   0  0  0  0  0  0  0  0  0  0  0  0
    4.6147    1.1955    0.0659 C   0  0  0  0  0  0  0  0  0  0  0  0
    2.2936    1.2064    1.7015 C   0  0  0  0  0  0  0  0  0  0  0  0
    0.4187    0.8221   -0.6644 C   0  0  0  0  0  0  0  0  0  0  0  0
    3.5241   -2.3935   -0.1734 C   0  0  0  0  0  0  0  0  0  0  0  0
    6.1179    1.0072   -0.0493 C   0  0  0  0  0  0  0  0  0  0  0  0
   -1.6544   -0.5197   -0.1868 C   0  0  0  0  0  0  0  0  0  0  0  0
   -3.8706    0.3985   -0.2170 C   0  0  0  0  0  0  0  0  0  0  0  0
   -2.4941    0.5667   -0.3690 C   0  0  0  0  0  0  0  0  0  0  0  0
   -2.1522   -1.7695    0.1433 C   0  0  0  0  0  0  0  0  0  0  0  0
   -4.7892    1.5576   -0.4105 C   0  0  0  0  0  0  0  0  0  0  0  0
   -4.3877   -0.8536    0.1150 C   0  0  0  0  0  0  0  0  0  0  0  0
   -3.5284   -1.9376    0.2953 C   0  0  0  0  0  0  0  0  0  0  0  0
   -5.0342    2.3267    0.8851 C   0  0  0  0  0  0  0  0  0  0  0  0
  1 16  1  0
  2 10  2  0
  3  5  1  0
  3  7  1  0
  3  8  1  0
  4 10  1  0
  4 13  1  0
  5  6  1  0
  5  9  1  0
  6 10  1  0
  7 11  1  0
  8 12  1  0
 13 15  2  0
 13 16  1  0
 14 15  1  0
 14 17  1  0
 14 18  2  0
 16 19  2  0
 17 20  1  0
 18 19  1  0
M  END
>  <PUBCHEM_COMPOUND_CID>  (1) 
13761

>  <PUBCHEM_CONFORMER_RMSD>  (1) 
0.8

>  <PUBCHEM_CONFORMER_DIVERSEORDER>  (1) 
1
84
69
123
143
129
185
167
189
190
171
65
31
104
148
128
183
121
157
134
127
48
168
154
130
119
176
139
56
173
192
91
163
120
81
144
99
184
141
160
174
146
80
172
137
72
34
140
14
62
180
12
105
22
155
125
138
74
182
77
187
149
110
102
151
67
133
145
60
175
88
61
113
153
86
126
178
82
101
191
85
181
166
42
92
132
100
158
142
68
15
51
66
109
114
40
124
118
32
54
116
111
37
161
103
147
186
107
159
94
57
112
46
117
177
52
122
20
98
25
83
131
150
115
90
96
188
169
87
89
95
162
43
106
58
165
71
59
33
4
108
156
76
38
164
136
29
9
78
97
36
10
16
152
41
49
93
73
30
53
35
44
18
135
39
27
55
7
179
26
47
45
70
24
11
5
23
63
64
50
79
2
21
6
75
8
19
3
17
170
13
28

>  <PUBCHEM_MMFF94_PARTIAL_CHARGES>  (1) 
20
1 -0.19
10 0.57
13 0.12
14 -0.14
15 -0.15
16 0.19
17 0.14
18 -0.15
19 -0.15
2 -0.57
3 -0.81
37 0.37
38 0.15
4 -0.55
41 0.15
42 0.15
5 0.27
6 0.06
7 0.27
8 0.27

>  <PUBCHEM_EFFECTIVE_ROTOR_COUNT>  (1) 
8

>  <PUBCHEM_PHARMACOPHORE_FEATURES>  (1) 
5
1 2 acceptor
1 20 hydrophobe
1 3 cation
1 4 donor
6 13 14 15 16 18 19 rings

>  <PUBCHEM_HEAVY_ATOM_COUNT>  (1) 
20

>  <PUBCHEM_ATOM_DEF_STEREO_COUNT>  (1) 
0

>  <PUBCHEM_ATOM_UDEF_STEREO_COUNT>  (1) 
1

>  <PUBCHEM_BOND_DEF_STEREO_COUNT>  (1) 
0

>  <PUBCHEM_BOND_UDEF_STEREO_COUNT>  (1) 
0

>  <PUBCHEM_ISOTOPIC_ATOM_COUNT>  (1) 
0

>  <PUBCHEM_COMPONENT_COUNT>  (1) 
1

>  <PUBCHEM_CACTVS_TAUTO_COUNT>  (1) 
2

>  <PUBCHEM_CONFORMER_ID>  (1) 
000035C100000001

>  <PUBCHEM_MMFF94_ENERGY>  (1) 
46.3702

>  <PUBCHEM_FEATURE_SELFOVERLAP>  (1) 
25.371

>  <PUBCHEM_SHAPE_FINGERPRINT>  (1) 
10366900 7 18060413651141383032
11315181 36 18187081814351061348
12107183 9 18051131384837522690
12166972 35 13758067523874908874
12236239 1 17385720314152302708
12500047 106 18341889735774389570
12507560 40 18200869707338038456
12616971 3 16877663483032099636
128620 24 8862941684373111577
13073987 5 18410295804673418347
13533116 47 18059572438725696323
13544592 145 18340210674445390854
13583140 156 17774436204395637999
13675066 3 18411136956838191311
14251764 18 18410292510533501577
14573314 32 18343582940715563492
14866123 147 17263855676346881722
15042514 8 18119534486648255867
15196674 1 18409166601852549830
15256400 18 18337392639096660061
15375358 24 18410855482004249878
17349148 13 13686300196559063509
17804303 29 18410012165043584085
17844677 252 18341337798164847896
1813 80 16877948221740804966
200 152 12319738072559476397
20600515 1 18409741655108513277
20645477 56 18334290968181519141
20645477 70 17989489593879154670
20681677 155 18186519916790994480
21033648 29 17846487166835295409
21065198 57 18342173401184213369
21065199 12 18270114737825984027
21267235 1 18188215419682460027
21279426 13 18198346160658799279
21421861 104 17896308135319766202
2215653 11 18272086054700365863
23402539 116 18342731927928144013
23559900 14 18342173362962225680
300161 21 18408879642355245252
3004659 81 18335422319040261090
312423 11 17677910100510988381
4214541 1 18409166636159254877
495365 180 17631998793838896026
5104073 3 18335701628562002210
6328613 192 18411141350732978452
9709674 26 18336267954286293082

>  <PUBCHEM_SHAPE_MULTIPOLES>  (1) 
388.49
12.56
2.5
0.95
4.48
1
-0.21
-3.65
-0.72
-1.41
-0.28
0.24
-0.34
0.32

>  <PUBCHEM_SHAPE_SELFOVERLAP>  (1) 
782.302

>  <PUBCHEM_SHAPE_VOLUME>  (1) 
230.9

>  <PUBCHEM_COORDINATE_TYPE>  (1) 
2
5
10

$$$$
