13778
     RDKit          3D

 12 12  0  0  0  0  0  0  0  0999 V2000
    2.7098    0.3305   -0.8255 O   0  0  0  0  0  0  0  0  0  0  0  0
   -1.6415   -0.0707    0.1336 N   0  0  0  0  0  0  0  0  0  0  0  0
    1.4818    0.8124   -1.2624 N   0  0  0  0  0  0  0  0  0  0  0  0
   -0.7686    0.9933   -0.3609 C   0  0  0  0  0  0  0  0  0  0  0  0
   -1.4392   -1.2973   -0.6365 C   0  0  0  0  0  0  0  0  0  0  0  0
   -3.0418    0.3468    0.0715 C   0  0  0  0  0  0  0  0  0  0  0  0
    0.6748    0.5895   -0.2412 C   0  0  0  0  0  0  0  0  0  0  0  0
   -2.3388   -2.4147   -0.1360 C   0  0  0  0  0  0  0  0  0  0  0  0
   -3.2831    1.5861    0.9166 C   0  0  0  0  0  0  0  0  0  0  0  0
    1.2809   -0.0104    0.8518 C   0  0  0  0  0  0  0  0  0  0  0  0
    2.5774   -0.1569    0.4346 C   0  0  0  0  0  0  0  0  0  0  0  0
    3.7882   -0.7086    1.0543 C   0  0  0  0  0  0  0  0  0  0  0  0
  1  3  1  0
  1 11  1  0
  2  4  1  0
  2  5  1  0
  2  6  1  0
  3  7  2  0
  4  7  1  0
  5  8  1  0
  6  9  1  0
  7 10  1  0
 10 11  2  0
 11 12  1  0
M  END
>  <PUBCHEM_COMPOUND_CID>  (1) 
13778

>  <PUBCHEM_CONFORMER_RMSD>  (1) 
0.6

>  <PUBCHEM_CONFORMER_DIVERSEORDER>  (1) 
1
14
6
7
16
13
12
17
18
3
9
2
15
10
11
8
4
5

>  <PUBCHEM_MMFF94_PARTIAL_CHARGES>  (1) 
11
1 -0.02
10 -0.15
11 -0.04
12 0.18
2 -0.81
25 0.15
3 -0.41
4 0.45
5 0.27
6 0.27
7 0.11

>  <PUBCHEM_EFFECTIVE_ROTOR_COUNT>  (1) 
4

>  <PUBCHEM_PHARMACOPHORE_FEATURES>  (1) 
3
1 2 cation
1 3 acceptor
5 1 3 7 10 11 rings

>  <PUBCHEM_HEAVY_ATOM_COUNT>  (1) 
12

>  <PUBCHEM_ATOM_DEF_STEREO_COUNT>  (1) 
0

>  <PUBCHEM_ATOM_UDEF_STEREO_COUNT>  (1) 
0

>  <PUBCHEM_BOND_DEF_STEREO_COUNT>  (1) 
0

>  <PUBCHEM_BOND_UDEF_STEREO_COUNT>  (1) 
0

>  <PUBCHEM_ISOTOPIC_ATOM_COUNT>  (1) 
0

>  <PUBCHEM_COMPONENT_COUNT>  (1) 
1

>  <PUBCHEM_CACTVS_TAUTO_COUNT>  (1) 
1

>  <PUBCHEM_CONFORMER_ID>  (1) 
000035D200000001

>  <PUBCHEM_MMFF94_ENERGY>  (1) 
13.0616

>  <PUBCHEM_FEATURE_SELFOVERLAP>  (1) 
15.223

>  <PUBCHEM_SHAPE_FINGERPRINT>  (1) 
124424 183 17274815822995110330
12500047 106 18201151070613632466
12897270 3 11025800898691630321
12932764 1 18040716982624812828
16945 1 18410010996564605244
18511873 20 18334012761542805041
19422 9 18041006158477651187
20279233 1 16989125361547816910
20361792 2 17168133538356986038
20645464 45 17632572743108376401
20715346 28 16845299370720703180
20871998 184 18059296581903780399
22169311 14 18060127726794779810
232386 152 18411133675472796662
23402539 116 17988064644168663517
23500284 5 18118405274756878867
23532345 11 18268411581276884475
23552423 10 17900544780864307309
23559900 14 17988369178982782142
23598291 2 18186527626236185494
276578 36 18127705841725795241
305870 269 17982456997222200601
3086196 2 18128803313028184867
3248919 1 18131632300469329580
6992083 37 18260831479685676485
74978 22 18410572924558565541
77492 1 18186805802498716340
9939556 21 18261678159215097972

>  <PUBCHEM_SHAPE_MULTIPOLES>  (1) 
231.12
5.95
1.72
1.05
1.76
0.99
0.03
0.05
-1.7
-2.02
-0.03
0.48
-0.16
-0.86

>  <PUBCHEM_SHAPE_SELFOVERLAP>  (1) 
456.338

>  <PUBCHEM_SHAPE_VOLUME>  (1) 
141.7

>  <PUBCHEM_COORDINATE_TYPE>  (1) 
2
5
10

$$$$
