13775
     RDKit          3D

 22 23  0  0  0  0  0  0  0  0999 V2000
    2.9943    2.8364   -1.2785 O   0  0  0  0  0  0  0  0  0  0  0  0
    0.8940    3.0948   -0.6943 O   0  0  0  0  0  0  0  0  0  0  0  0
    4.2886   -2.9033    0.6649 O   0  0  0  0  0  0  0  0  0  0  0  0
    5.3161   -1.2544   -0.3571 O   0  0  0  0  0  0  0  0  0  0  0  0
   -5.1887   -2.0266   -0.8217 O   0  0  0  0  0  0  0  0  0  0  0  0
   -3.1242   -2.4179   -1.4572 O   0  0  0  0  0  0  0  0  0  0  0  0
   -0.4086    1.3226    0.4675 N   0  0  0  0  0  0  0  0  0  0  0  0
    1.9399    2.4068   -0.7545 N   0  0  0  0  0  0  0  0  0  0  0  0
    4.2954   -1.7447    0.1832 N   0  0  0  0  0  0  0  0  0  0  0  0
   -3.9720   -1.7211   -0.8488 N   0  0  0  0  0  0  0  0  0  0  0  0
    0.7790    0.5696    0.3865 C   0  0  0  0  0  0  0  0  0  0  0  0
   -1.7711    0.9589    0.4822 C   0  0  0  0  0  0  0  0  0  0  0  0
    1.9298    1.0923   -0.2095 C   0  0  0  0  0  0  0  0  0  0  0  0
    0.8002   -0.7236    0.9148 C   0  0  0  0  0  0  0  0  0  0  0  0
    3.0937    0.3265   -0.2770 C   0  0  0  0  0  0  0  0  0  0  0  0
    3.1108   -0.9644    0.2514 C   0  0  0  0  0  0  0  0  0  0  0  0
   -2.1936   -0.1907   -0.1853 C   0  0  0  0  0  0  0  0  0  0  0  0
    1.9640   -1.4894    0.8473 C   0  0  0  0  0  0  0  0  0  0  0  0
   -2.6962    1.7490    1.1647 C   0  0  0  0  0  0  0  0  0  0  0  0
   -3.5413   -0.5502   -0.1704 C   0  0  0  0  0  0  0  0  0  0  0  0
   -4.0438    1.3895    1.1796 C   0  0  0  0  0  0  0  0  0  0  0  0
   -4.4663    0.2399    0.5122 C   0  0  0  0  0  0  0  0  0  0  0  0
  1  8  1  0
  2  8  2  0
  3  9  1  0
  4  9  2  0
  5 10  1  0
  6 10  2  0
  7 11  1  0
  7 12  1  0
  8 13  1  0
  9 16  1  0
 10 20  1  0
 11 13  2  0
 11 14  1  0
 12 17  2  0
 12 19  1  0
 13 15  1  0
 14 18  2  0
 15 16  2  0
 16 18  1  0
 17 20  1  0
 19 21  2  0
 20 22  2  0
 21 22  1  0
M  CHG  6   1  -1   3  -1   5  -1   8   1   9   1  10   1
M  END
>  <PUBCHEM_COMPOUND_CID>  (1) 
13775

>  <PUBCHEM_CONFORMER_RMSD>  (1) 
0.8

>  <PUBCHEM_CONFORMER_DIVERSEORDER>  (1) 
2
6
3
5
1
4

>  <PUBCHEM_MMFF94_PARTIAL_CHARGES>  (1) 
30
1 -0.52
10 0.91
11 0.1
12 0.1
13 0.13
14 -0.15
15 -0.15
16 0.13
17 -0.15
18 -0.15
19 -0.15
2 -0.52
20 0.13
21 -0.15
22 -0.15
23 0.4
24 0.15
25 0.15
26 0.15
27 0.15
28 0.15
29 0.15
3 -0.52
30 0.15
4 -0.52
5 -0.52
6 -0.52
7 -0.6
8 0.91
9 0.91

>  <PUBCHEM_EFFECTIVE_ROTOR_COUNT>  (1) 
5

>  <PUBCHEM_PHARMACOPHORE_FEATURES>  (1) 
13
1 1 acceptor
1 1 anion
1 2 acceptor
1 3 acceptor
1 3 anion
1 4 acceptor
1 5 acceptor
1 5 anion
1 6 acceptor
1 7 cation
1 7 donor
6 11 13 14 15 16 18 rings
6 12 17 19 20 21 22 rings

>  <PUBCHEM_HEAVY_ATOM_COUNT>  (1) 
22

>  <PUBCHEM_ATOM_DEF_STEREO_COUNT>  (1) 
0

>  <PUBCHEM_ATOM_UDEF_STEREO_COUNT>  (1) 
0

>  <PUBCHEM_BOND_DEF_STEREO_COUNT>  (1) 
0

>  <PUBCHEM_BOND_UDEF_STEREO_COUNT>  (1) 
0

>  <PUBCHEM_ISOTOPIC_ATOM_COUNT>  (1) 
0

>  <PUBCHEM_COMPONENT_COUNT>  (1) 
1

>  <PUBCHEM_CACTVS_TAUTO_COUNT>  (1) 
1

>  <PUBCHEM_CONFORMER_ID>  (1) 
000035CF00000002

>  <PUBCHEM_MMFF94_ENERGY>  (1) 
92.2363

>  <PUBCHEM_FEATURE_SELFOVERLAP>  (1) 
66.218

>  <PUBCHEM_SHAPE_FINGERPRINT>  (1) 
10062212 137 18342740702335203003
10616163 171 18201439164536490047
10622 236 18269816710310130743
10759866 29 18194966463820683487
11578080 2 18198316551324196249
12236239 1 18341337716934801561
12553582 1 18114739309346723258
12788726 201 17916317189835113843
13009979 54 18273222971187805609
13167823 11 18413390934010547555
13583140 156 17895200935900873081
13899415 180 17894904101588465740
14576447 43 18409446986287232474
15099037 8 18413387661524958377
15842332 3 18270138884264647057
16752209 62 17917704734849276159
17357779 13 17095521777326071572
17492 89 18339080492519795107
1813 80 18190194386062017974
18186145 218 17022903475613514769
18222031 100 18335412431539853098
18915474 69 18341891939356233063
19141452 34 18126567821057415233
19422 9 18341615944884366705
20281475 54 18342175592044984185
20600515 1 16988570052373423281
20612939 158 18187653517474322708
20626108 58 18413100650282811762
20645477 70 17968375753204590513
21267235 1 18338528456098774635
21634736 98 18338232768685170394
221490 88 18115602554876228762
2255824 54 18333739030640133360
23402539 116 18263362491297384738
23557571 272 16844741810972805352
23559900 14 18059281119799975481
23598291 2 18410296917085772245
23622692 118 18343577469354360007
25147074 1 18342751731922203377
3004659 81 18338222843648765111
312423 11 18339650030999871675
474 4 17970915680789045268
5104073 3 18131912663255259155
53777708 50 18340774839948344769
559249 180 18268426841902302771
633830 44 17530687614991826265
67856867 119 18341330093283753832
9709674 26 18261678172384843227
9981440 41 17689153830649730016

>  <PUBCHEM_SHAPE_MULTIPOLES>  (1) 
397.61
10.28
3.09
1.1
0.83
0.5
0.06
-6.12
0.61
-1.24
0.94
0.49
0.04
-2.86

>  <PUBCHEM_SHAPE_SELFOVERLAP>  (1) 
862.161

>  <PUBCHEM_SHAPE_VOLUME>  (1) 
216.8

>  <PUBCHEM_COORDINATE_TYPE>  (1) 
2
5
10

$$$$
