13771
     RDKit          3D

 22 25  0  0  0  0  0  0  0  0999 V2000
   -0.8652   -1.1028   -0.0002 C   0  0  0  0  0  0  0  0  0  0  0  0
   -2.1457   -0.5262   -0.0006 C   0  0  0  0  0  0  0  0  0  0  0  0
   -0.7410   -2.5126    0.0002 C   0  0  0  0  0  0  0  0  0  0  0  0
    1.5595   -0.9013    0.0003 C   0  0  0  0  0  0  0  0  0  0  0  0
    0.2950   -0.3114   -0.0003 C   0  0  0  0  0  0  0  0  0  0  0  0
   -2.3533    0.9128   -0.0002 C   0  0  0  0  0  0  0  0  0  0  0  0
    0.5396   -3.0894    0.0003 C   0  0  0  0  0  0  0  0  0  0  0  0
    1.6815   -2.2877    0.0003 C   0  0  0  0  0  0  0  0  0  0  0  0
   -3.2875   -1.3280   -0.0004 C   0  0  0  0  0  0  0  0  0  0  0  0
   -1.9010   -3.3042    0.0001 C   0  0  0  0  0  0  0  0  0  0  0  0
    2.7459   -0.0729    0.0002 C   0  0  0  0  0  0  0  0  0  0  0  0
   -3.1654   -2.7144    0.0000 C   0  0  0  0  0  0  0  0  0  0  0  0
   -2.4514    1.5960    1.2079 C   0  0  0  0  0  0  0  0  0  0  0  0
   -2.4520    1.5964   -1.2080 C   0  0  0  0  0  0  0  0  0  0  0  0
    3.3180    0.3262    1.2080 C   0  0  0  0  0  0  0  0  0  0  0  0
    3.3174    0.3261   -1.2080 C   0  0  0  0  0  0  0  0  0  0  0  0
   -2.6503    2.9766    1.2084 C   0  0  0  0  0  0  0  0  0  0  0  0
   -2.6508    2.9770   -1.2076 C   0  0  0  0  0  0  0  0  0  0  0  0
    4.4619    1.1245    1.2078 C   0  0  0  0  0  0  0  0  0  0  0  0
    4.4613    1.1244   -1.2082 C   0  0  0  0  0  0  0  0  0  0  0  0
   -2.7500    3.6671    0.0005 C   0  0  0  0  0  0  0  0  0  0  0  0
    5.0334    1.5236   -0.0004 C   0  0  0  0  0  0  0  0  0  0  0  0
  1  2  1  0
  1  3  1  0
  1  5  2  0
  2  6  1  0
  2  9  2  0
  3  7  2  0
  3 10  1  0
  4  5  1  0
  4  8  2  0
  4 11  1  0
  6 13  2  0
  6 14  1  0
  7  8  1  0
  9 12  1  0
 10 12  2  0
 11 15  2  0
 11 16  1  0
 13 17  1  0
 14 18  2  0
 15 19  1  0
 16 20  2  0
 17 21  2  0
 18 21  1  0
 19 22  2  0
 20 22  1  0
M  END
>  <PUBCHEM_COMPOUND_CID>  (1) 
13771

>  <PUBCHEM_CONFORMER_RMSD>  (1) 
0.6

>  <PUBCHEM_CONFORMER_DIVERSEORDER>  (1) 
1
2

>  <PUBCHEM_MMFF94_PARTIAL_CHARGES>  (1) 
32
10 -0.15
12 -0.15
13 -0.15
14 -0.15
15 -0.15
16 -0.15
17 -0.15
18 -0.15
19 -0.15
20 -0.15
21 -0.15
22 -0.15
23 0.15
24 0.15
25 0.15
26 0.15
27 0.15
28 0.15
29 0.15
30 0.15
31 0.15
32 0.15
33 0.15
34 0.15
35 0.15
36 0.15
37 0.15
38 0.15
5 -0.15
7 -0.15
8 -0.15
9 -0.15

>  <PUBCHEM_EFFECTIVE_ROTOR_COUNT>  (1) 
2

>  <PUBCHEM_PHARMACOPHORE_FEATURES>  (1) 
4
6 1 2 3 9 10 12 rings
6 1 3 4 5 7 8 rings
6 11 15 16 19 20 22 rings
6 6 13 14 17 18 21 rings

>  <PUBCHEM_HEAVY_ATOM_COUNT>  (1) 
22

>  <PUBCHEM_ATOM_DEF_STEREO_COUNT>  (1) 
0

>  <PUBCHEM_ATOM_UDEF_STEREO_COUNT>  (1) 
0

>  <PUBCHEM_BOND_DEF_STEREO_COUNT>  (1) 
0

>  <PUBCHEM_BOND_UDEF_STEREO_COUNT>  (1) 
0

>  <PUBCHEM_ISOTOPIC_ATOM_COUNT>  (1) 
0

>  <PUBCHEM_COMPONENT_COUNT>  (1) 
1

>  <PUBCHEM_CACTVS_TAUTO_COUNT>  (1) 
1

>  <PUBCHEM_CONFORMER_ID>  (1) 
000035CB00000001

>  <PUBCHEM_MMFF94_ENERGY>  (1) 
81.2738

>  <PUBCHEM_FEATURE_SELFOVERLAP>  (1) 
20.326

>  <PUBCHEM_SHAPE_FINGERPRINT>  (1) 
10006869 2 18410855426618399507
10165383 225 18124340236274924801
10411042 1 17762056944544468098
10498660 4 18411133670940296524
10615611 76 17459208402951577204
10646746 165 18342175579444788920
10670039 82 18336276729658366252
10871710 139 18190757494655072045
10937287 8 18195246611837706633
1100329 8 17905334275275092179
11582403 64 16301451065790777445
11595378 159 18188204407396642234
11725454 13 16985991762499678890
12107183 9 18046048382102345842
12156800 1 16017123070906247757
12173636 292 18411980226395792687
12236239 1 17604981710649660434
12403260 363 18121481484937187743
12788726 201 18189607405455774627
13140716 1 18049164667915839051
13965767 371 17970341512834487052
14081887 123 18340760550259568754
14142880 1 18187357727677349045
14178342 30 18408321073226189786
14468879 13 18042692685019753177
14508225 48 17550653848177305678
14739800 52 17905035204313560576
14955137 171 17833290974788358595
15021287 119 17385437718780107956
151778 21 17906467531917516049
15342168 16 18122069702288985829
15961568 22 17691400133232427248
16988056 13 16533400555067252716
1741750 31 18412261697040573528
20510252 161 18341050816955408026
20567600 299 16968565297083342989
20739085 24 16756078065150367027
21033650 10 18190766257248205252
21049683 271 17756144841311181655
21279426 13 18200039426800790278
21860390 5 17191217535699954383
22122407 14 15791734143594397950
22182937 141 18343589524890223345
22749437 52 18338226051509306692
22907989 373 18337099172354975037
22956985 138 16098249703307167434
23557571 272 18270410510643471110
23558518 356 18262234426310858739
23559900 14 18057889044386898382
238 59 17033566290445631237
23845131 108 18122357787599667161
283562 15 18338232768986026219
3117164 225 18192408811550647178
3178227 256 17974862963011325563
350125 39 18266468598592378659
3886686 26 17903887029957241914
469060 322 18263943187934165987
474 4 17835513822163535121
5048184 11 18338241448914477748
5252454 2 18267039266417375520
7399639 24 17844812679794276294
7808743 9 18409456907756891700
81228 2 18337122275095115483
84936 182 17911507706014316568
9849439 229 18196926673968497856
9981440 41 18337940217040545115

>  <PUBCHEM_SHAPE_MULTIPOLES>  (1) 
452.75
8.34
4.51
1.15
10.09
0.03
0
-5.28
0
-5.26
0
0.36
-0.8
0

>  <PUBCHEM_SHAPE_SELFOVERLAP>  (1) 
1023.716

>  <PUBCHEM_SHAPE_VOLUME>  (1) 
218

>  <PUBCHEM_COORDINATE_TYPE>  (1) 
2
5
10

$$$$
