13782
     RDKit          3D

 23 25  0  0  0  0  0  0  0  0999 V2000
   -4.2561    2.6711   -0.1546 O   0  0  0  0  0  0  0  0  0  0  0  0
    1.7594   -2.3324   -1.1179 O   0  0  0  0  0  0  0  0  0  0  0  0
    4.4500    2.4114   -0.6361 O   0  0  0  0  0  0  0  0  0  0  0  0
   -0.3171    0.0050    2.2564 O   0  0  0  0  0  0  0  0  0  0  0  0
   -1.1508   -1.2443    0.4527 N   0  0  0  0  0  0  0  0  0  0  0  0
    1.0605   -1.0683    0.7096 N   0  0  0  0  0  0  0  0  0  0  0  0
   -3.0469    0.0972   -0.0361 N   0  0  0  0  0  0  0  0  0  0  0  0
    3.0869    0.0741    0.2476 N   0  0  0  0  0  0  0  0  0  0  0  0
   -0.6179   -2.0213   -0.6630 C   0  0  0  0  0  0  0  0  0  0  0  0
   -2.5740   -1.0801    0.6892 C   0  0  0  0  0  0  0  0  0  0  0  0
    0.8832   -1.8452   -0.4138 C   0  0  0  0  0  0  0  0  0  0  0  0
   -0.1488   -0.6858    1.2587 C   0  0  0  0  0  0  0  0  0  0  0  0
    2.3542   -0.6980    1.2489 C   0  0  0  0  0  0  0  0  0  0  0  0
   -0.9845   -1.4242   -2.0194 C   0  0  0  0  0  0  0  0  0  0  0  0
   -0.9815   -3.5012   -0.5728 C   0  0  0  0  0  0  0  0  0  0  0  0
   -2.3316    1.3032    0.4039 C   0  0  0  0  0  0  0  0  0  0  0  0
   -4.4940    0.2756    0.1458 C   0  0  0  0  0  0  0  0  0  0  0  0
    2.3600    1.3035   -0.0978 C   0  0  0  0  0  0  0  0  0  0  0  0
    4.4357    0.4049    0.7280 C   0  0  0  0  0  0  0  0  0  0  0  0
   -2.8506    2.5199   -0.3570 C   0  0  0  0  0  0  0  0  0  0  0  0
   -4.9617    1.5161   -0.6100 C   0  0  0  0  0  0  0  0  0  0  0  0
    3.1492    2.0975   -1.1348 C   0  0  0  0  0  0  0  0  0  0  0  0
    5.1762    1.2210   -0.3277 C   0  0  0  0  0  0  0  0  0  0  0  0
  1 20  1  0
  1 21  1  0
  2 11  2  0
  3 22  1  0
  3 23  1  0
  4 12  2  0
  5  9  1  0
  5 10  1  0
  5 12  1  0
  6 11  1  0
  6 12  1  0
  6 13  1  0
  7 10  1  0
  7 16  1  0
  7 17  1  0
  8 13  1  0
  8 18  1  0
  8 19  1  0
  9 11  1  0
  9 14  1  0
  9 15  1  0
 16 20  1  0
 17 21  1  0
 18 22  1  0
 19 23  1  0
M  END
>  <PUBCHEM_COMPOUND_CID>  (1) 
13782

>  <PUBCHEM_CONFORMER_RMSD>  (1) 
0.8

>  <PUBCHEM_CONFORMER_DIVERSEORDER>  (1) 
1
10
21
12
19
24
11
27
16
25
17
14
20
5
13
8
29
23
28
9
18
22
26
3
15
2
4
6
7

>  <PUBCHEM_MMFF94_PARTIAL_CHARGES>  (1) 
21
1 -0.56
10 0.57
11 0.57
12 0.69
13 0.57
16 0.27
17 0.27
18 0.27
19 0.27
2 -0.57
20 0.28
21 0.28
22 0.28
23 0.28
3 -0.56
4 -0.57
5 -0.66
6 -0.42
7 -0.81
8 -0.81
9 0.36

>  <PUBCHEM_EFFECTIVE_ROTOR_COUNT>  (1) 
7

>  <PUBCHEM_PHARMACOPHORE_FEATURES>  (1) 
10
1 1 acceptor
1 2 acceptor
1 3 acceptor
1 4 acceptor
1 7 cation
1 8 cation
3 9 14 15 hydrophobe
5 5 6 9 11 12 rings
6 1 7 16 17 20 21 rings
6 3 8 18 19 22 23 rings

>  <PUBCHEM_HEAVY_ATOM_COUNT>  (1) 
23

>  <PUBCHEM_ATOM_DEF_STEREO_COUNT>  (1) 
0

>  <PUBCHEM_ATOM_UDEF_STEREO_COUNT>  (1) 
0

>  <PUBCHEM_BOND_DEF_STEREO_COUNT>  (1) 
0

>  <PUBCHEM_BOND_UDEF_STEREO_COUNT>  (1) 
0

>  <PUBCHEM_ISOTOPIC_ATOM_COUNT>  (1) 
0

>  <PUBCHEM_COMPONENT_COUNT>  (1) 
1

>  <PUBCHEM_CACTVS_TAUTO_COUNT>  (1) 
1

>  <PUBCHEM_CONFORMER_ID>  (1) 
000035D600000001

>  <PUBCHEM_MMFF94_ENERGY>  (1) 
45.1657

>  <PUBCHEM_FEATURE_SELFOVERLAP>  (1) 
50.747

>  <PUBCHEM_SHAPE_FINGERPRINT>  (1) 
10871710 139 17831591137878972949
10948715 1 18335421261644609723
11221954 11 18261122824370827545
11370993 70 18413387618269440837
11796584 16 9799695917567945065
12173636 292 18195239138594488278
12403814 3 18195538201462289307
12633257 1 15647335307520824780
12788726 201 18046897449170120027
13103583 49 11170195302966036877
13149001 5 16987422290998036883
133893 2 17699874837545170442
13583140 156 17896331224504975275
14142880 1 17897721191764420332
14251751 93 18339923817689898916
14251764 38 18264772064830036725
14713325 29 18266744777557986702
14767858 380 18269817840465687335
15163728 17 18269011820310559493
15534591 1 18262516017298613346
16752209 62 17843674702444918742
17492 54 18337094770509459597
17834072 32 18409450275704686497
20715895 44 18119802517828534777
20775530 9 10735615547980188764
21475661 188 17896314723288083381
21524375 3 18408039606591487673
21864079 5 18043815501329695100
22113638 7 18335701697181959932
23114952 82 17987526900787562671
23227448 37 18337955704687001391
23559900 14 18122343476299495011
26353 1 16549715679798603943
2838139 119 18335413573711477628
3472631 163 18043523916258595221
4175511 318 17988368186133368266
474 4 18187363199249464473
6287921 2 18053674572734703901
7288768 16 16880196886740683648
7808743 9 18338796831309324016
9981440 41 18335421262013953411

>  <PUBCHEM_SHAPE_MULTIPOLES>  (1) 
429.93
9.25
3.33
1.38
2.17
0.61
-0.1
-8.86
0.89
-1.1
1.29
0.22
0.39
-0.45

>  <PUBCHEM_SHAPE_SELFOVERLAP>  (1) 
890.179

>  <PUBCHEM_SHAPE_VOLUME>  (1) 
247.6

>  <PUBCHEM_COORDINATE_TYPE>  (1) 
2
5
10

$$$$
