13785
     RDKit          3D

 23 25  0  0  0  0  0  0  0  0999 V2000
   -1.1857   -0.0110    1.6024 O   0  0  0  0  0  0  0  0  0  0  0  0
   -3.4561    1.0008    0.3791 N   0  0  0  0  0  0  0  0  0  0  0  0
   -3.3532   -0.1391   -0.5428 C   0  0  0  0  0  0  0  0  0  0  0  0
   -4.6084    1.8503    0.0472 C   0  0  0  0  0  0  0  0  0  0  0  0
   -4.6182   -0.9980   -0.5020 C   0  0  0  0  0  0  0  0  0  0  0  0
   -5.9144    1.0566    0.1071 C   0  0  0  0  0  0  0  0  0  0  0  0
   -5.8617   -0.1679   -0.7996 C   0  0  0  0  0  0  0  0  0  0  0  0
   -2.2213    1.7847    0.3633 C   0  0  0  0  0  0  0  0  0  0  0  0
    1.4464    0.3378    0.6114 C   0  0  0  0  0  0  0  0  0  0  0  0
    0.2878    1.2635    0.1709 C   0  0  0  0  0  0  0  0  0  0  0  0
   -1.0605    0.9058    0.7917 C   0  0  0  0  0  0  0  0  0  0  0  0
    1.2425   -1.1259    0.2346 C   0  0  0  0  0  0  0  0  0  0  0  0
    2.8097    0.8406    0.1472 C   0  0  0  0  0  0  0  0  0  0  0  0
    1.7935   -2.1011    1.0380 C   0  0  0  0  0  0  0  0  0  0  0  0
    3.9191    0.5521    0.9126 C   0  0  0  0  0  0  0  0  0  0  0  0
    0.5138   -1.4250   -0.8966 C   0  0  0  0  0  0  0  0  0  0  0  0
    2.8866    1.5660   -1.0222 C   0  0  0  0  0  0  0  0  0  0  0  0
    1.6070   -3.4399    0.6936 C   0  0  0  0  0  0  0  0  0  0  0  0
    5.1658    1.0116    0.4883 C   0  0  0  0  0  0  0  0  0  0  0  0
    0.3271   -2.7638   -1.2407 C   0  0  0  0  0  0  0  0  0  0  0  0
    4.1335    2.0253   -1.4466 C   0  0  0  0  0  0  0  0  0  0  0  0
    0.8737   -3.7712   -0.4456 C   0  0  0  0  0  0  0  0  0  0  0  0
    5.2730    1.7481   -0.6913 C   0  0  0  0  0  0  0  0  0  0  0  0
  1 11  2  0
  2  3  1  0
  2  4  1  0
  2  8  1  0
  3  5  1  0
  4  6  1  0
  5  7  1  0
  6  7  1  0
  8 11  1  0
  9 10  1  0
  9 12  1  0
  9 13  1  0
 10 11  1  0
 12 14  2  0
 12 16  1  0
 13 15  2  0
 13 17  1  0
 14 18  1  0
 15 19  1  0
 16 20  2  0
 17 21  2  0
 18 22  2  0
 19 23  2  0
 20 22  1  0
 21 23  1  0
M  END
>  <PUBCHEM_COMPOUND_CID>  (1) 
13785

>  <PUBCHEM_CONFORMER_RMSD>  (1) 
0.8

>  <PUBCHEM_CONFORMER_DIVERSEORDER>  (1) 
1
30
46
101
7
61
15
55
85
98
51
100
103
64
62
47
96
93
82
56
74
48
92
72
99
12
97
19
102
38
68
35
49
31
2
94
40
16
59
45
39
52
73
8
58
44
36
71
29
81
86
37
79
34
69
66
75
27
42
57
26
60
50
4
90
104
108
53
43
83
109
10
63
65
106
5
91
80
33
105
25
13
76
6
107
41
54
21
24
84
77
88
23
9
67
20
87
18
89
11
32
28
95
17
3
78
14
22
70

>  <PUBCHEM_MMFF94_PARTIAL_CHARGES>  (1) 
30
1 -0.57
10 0.06
11 0.45
12 -0.14
13 -0.14
14 -0.15
15 -0.15
16 -0.15
17 -0.15
18 -0.15
19 -0.15
2 -0.81
20 -0.15
21 -0.15
22 -0.15
23 -0.15
3 0.27
39 0.15
4 0.27
40 0.15
41 0.15
42 0.15
43 0.15
44 0.15
45 0.15
46 0.15
47 0.15
48 0.15
8 0.33
9 0.29

>  <PUBCHEM_EFFECTIVE_ROTOR_COUNT>  (1) 
7.2

>  <PUBCHEM_PHARMACOPHORE_FEATURES>  (1) 
5
1 1 acceptor
1 2 cation
6 12 14 16 18 20 22 rings
6 13 15 17 19 21 23 rings
6 2 3 4 5 6 7 rings

>  <PUBCHEM_HEAVY_ATOM_COUNT>  (1) 
23

>  <PUBCHEM_ATOM_DEF_STEREO_COUNT>  (1) 
0

>  <PUBCHEM_ATOM_UDEF_STEREO_COUNT>  (1) 
0

>  <PUBCHEM_BOND_DEF_STEREO_COUNT>  (1) 
0

>  <PUBCHEM_BOND_UDEF_STEREO_COUNT>  (1) 
0

>  <PUBCHEM_ISOTOPIC_ATOM_COUNT>  (1) 
0

>  <PUBCHEM_COMPONENT_COUNT>  (1) 
1

>  <PUBCHEM_CACTVS_TAUTO_COUNT>  (1) 
3

>  <PUBCHEM_CONFORMER_ID>  (1) 
000035D900000001

>  <PUBCHEM_MMFF94_ENERGY>  (1) 
54.405

>  <PUBCHEM_FEATURE_SELFOVERLAP>  (1) 
25.373

>  <PUBCHEM_SHAPE_FINGERPRINT>  (1) 
10090160 65 18334290963717467345
10554248 39 17912917289634959253
10616163 171 18341889732249705055
10759866 29 18341047441554367911
10906281 52 18114761377205584041
11069576 57 18127671765577303287
12592029 89 18408322172758819314
12788726 201 17687191198315154510
13052359 8 18267305528783460618
13083527 12 18119799227746027090
13149001 5 17701260463194242200
13257819 101 17168132460082837957
13257819 37 18265914608040567910
133893 2 18051435984334925314
13631057 29 18199746007266736967
13836976 161 18408321086200769036
13968360 50 18408598154367291910
14617045 38 18272934947340659295
14790565 3 18338799034374813564
15131766 46 14709202369362224172
15537594 2 18060698416806951551
15849732 13 18186800288794735036
16752209 62 18196368350190102530
17138139 8 17915158321305977511
173720 79 18337379535399197490
17980427 23 16951417687646142535
18681886 176 18337667624425811576
20197701 30 18412262874093740798
20567600 347 18341899580092672318
20645477 70 18337670789858308955
21033648 144 17531808098686608613
21054139 6 18270954747756589095
21344244 181 17489042525441953750
21344244 246 18128830651165366438
21521721 280 18200036286320022977
21524375 3 18408888460171010824
22393880 68 18199756846941240341
22950370 63 10015592700688366252
22956985 138 18047462332149000858
23366157 5 18118690919750999914
23419403 2 17389087959386195534
23558518 356 17977390430161405201
23559900 14 17628354875097686135
23569917 315 18412268341640940886
3004659 81 18196931081168438627
3060560 45 18334584542460949892
3759504 43 18189618413757413146
4280585 95 17551241666286880462
474 4 18260269646207370232
474229 33 18411418453041818634
59755656 215 18272939297694105294
59755656 520 18340199786924588534
6669772 16 18272378559960532654
67856867 119 18338511920142408051
7495541 125 11095876086197312585
81539 233 18335986389357316674
8272917 22 18261674770691460840
8863177 126 11383247782871187901

>  <PUBCHEM_SHAPE_MULTIPOLES>  (1) 
462.48
11.87
3.51
1.19
10.96
4.13
-0.07
-8.4
-1.91
-2.27
-0.48
-0.61
0.08
-1.37

>  <PUBCHEM_SHAPE_SELFOVERLAP>  (1) 
979.303

>  <PUBCHEM_SHAPE_VOLUME>  (1) 
257

>  <PUBCHEM_COORDINATE_TYPE>  (1) 
2
5
10

$$$$
