13791
     RDKit          3D

 26 29  0  0  1  0  0  0  0  0999 V2000
    3.2264    0.3350    0.0692 O   0  0  0  0  0  0  0  0  0  0  0  0
    4.7117   -1.0564   -1.0175 O   0  0  0  0  0  0  0  0  0  0  0  0
   -7.7151    0.9258    0.5068 O   0  0  0  0  0  0  0  0  0  0  0  0
    0.7710    0.1071    0.0480 C   0  0  0  0  0  0  0  0  0  0  0  0
   -0.0975   -1.1117   -0.3233 C   0  0  0  0  0  0  0  0  0  0  0  0
   -1.5506   -0.9408    0.1187 C   0  0  0  0  0  0  0  0  0  0  0  0
   -2.1518    0.2981   -0.6121 C   0  0  0  0  0  0  0  0  0  0  0  0
    2.1365   -0.3975   -0.4563 C   0  0  0  0  0  0  0  0  0  0  0  0
    0.2203    1.3297   -0.6960 C   0  0  0  0  0  0  0  0  0  0  0  0
    0.7095   -2.2960    0.2014 C   0  0  0  0  0  0  0  0  0  0  0  0
   -1.2732    1.5596   -0.3947 C   0  0  0  0  0  0  0  0  0  0  0  0
    2.1742   -1.8740   -0.0154 C   0  0  0  0  0  0  0  0  0  0  0  0
   -2.4086   -2.1679   -0.1952 C   0  0  0  0  0  0  0  0  0  0  0  0
    0.8389    0.4190    1.5651 C   0  0  0  0  0  0  0  0  0  0  0  0
   -3.6305    0.4740   -0.2774 C   0  0  0  0  0  0  0  0  0  0  0  0
   -3.8032   -1.9895    0.3972 C   0  0  0  0  0  0  0  0  0  0  0  0
   -4.4032   -0.6256    0.1567 C   0  0  0  0  0  0  0  0  0  0  0  0
   -4.2801    1.7051   -0.4766 C   0  0  0  0  0  0  0  0  0  0  0  0
   -5.7723   -0.4559    0.4284 C   0  0  0  0  0  0  0  0  0  0  0  0
    4.4783   -0.1006   -0.2905 C   0  0  0  0  0  0  0  0  0  0  0  0
   -5.6429    1.8574   -0.2117 C   0  0  0  0  0  0  0  0  0  0  0  0
   -6.3883    0.7785    0.2455 C   0  0  0  0  0  0  0  0  0  0  0  0
    5.5237    0.7846    0.3488 C   0  0  0  0  0  0  0  0  0  0  0  0
    6.9427    0.3358    0.0038 C   0  0  0  0  0  0  0  0  0  0  0  0
    7.9859    1.2636    0.6250 C   0  0  0  0  0  0  0  0  0  0  0  0
    9.3982    0.8425    0.2521 C   0  0  0  0  0  0  0  0  0  0  0  0
  1  8  1  0
  1 20  1  0
  2 20  2  0
  3 22  1  0
  4  5  1  0
  4  8  1  0
  4  9  1  0
  4 14  1  0
  5  6  1  0
  5 10  1  0
  6  7  1  0
  6 13  1  0
  7 11  1  0
  7 15  1  0
  8 12  1  0
  9 11  1  0
 10 12  1  0
 13 16  1  0
 15 17  2  0
 15 18  1  0
 16 17  1  0
 17 19  1  0
 18 21  2  0
 19 22  2  0
 20 23  1  0
 21 22  1  0
 23 24  1  0
 24 25  1  0
 25 26  1  0
M  END
>  <PUBCHEM_COMPOUND_CID>  (1) 
13791

>  <PUBCHEM_CONFORMER_RMSD>  (1) 
0.8

>  <PUBCHEM_CONFORMER_DIVERSEORDER>  (1) 
1
11
10
8
9
6
13
5
7
2
14
3
4
12

>  <PUBCHEM_MMFF94_PARTIAL_CHARGES>  (1) 
18
1 -0.43
15 -0.14
16 0.14
17 -0.14
18 -0.15
19 -0.15
2 -0.57
20 0.66
21 -0.15
22 0.08
23 0.06
3 -0.53
46 0.15
47 0.15
48 0.15
53 0.45
7 0.14
8 0.28

>  <PUBCHEM_EFFECTIVE_ROTOR_COUNT>  (1) 
6.4

>  <PUBCHEM_PHARMACOPHORE_FEATURES>  (1) 
7
1 2 acceptor
1 26 hydrophobe
1 3 donor
5 4 5 8 10 12 rings
6 15 17 18 19 21 22 rings
6 4 5 6 7 9 11 rings
6 6 7 13 15 16 17 rings

>  <PUBCHEM_HEAVY_ATOM_COUNT>  (1) 
26

>  <PUBCHEM_ATOM_DEF_STEREO_COUNT>  (1) 
5

>  <PUBCHEM_ATOM_UDEF_STEREO_COUNT>  (1) 
0

>  <PUBCHEM_BOND_DEF_STEREO_COUNT>  (1) 
0

>  <PUBCHEM_BOND_UDEF_STEREO_COUNT>  (1) 
0

>  <PUBCHEM_ISOTOPIC_ATOM_COUNT>  (1) 
0

>  <PUBCHEM_COMPONENT_COUNT>  (1) 
1

>  <PUBCHEM_CACTVS_TAUTO_COUNT>  (1) 
9

>  <PUBCHEM_CONFORMER_ID>  (1) 
000035DF00000001

>  <PUBCHEM_MMFF94_ENERGY>  (1) 
71.159

>  <PUBCHEM_FEATURE_SELFOVERLAP>  (1) 
35.618

>  <PUBCHEM_SHAPE_FINGERPRINT>  (1) 
10 15 18260266347846534424
10165383 225 18342457037183556289
10411042 1 17832988626460850419
106641 1 18186524311075444145
10835480 77 18343582915209607796
11135926 11 18187074053487978734
11315181 36 18040433330310354615
12166972 35 11097860687500597286
12236239 1 17458346338062810358
12741549 16 14562530683206772311
12788726 201 17631452255245585801
12838862 33 18334844014356989909
13726171 33 18191022296886108265
14028597 1 16733255768992303024
14251764 18 17967530186461802786
14790565 3 18263087758860198636
14856354 85 16081096986890406267
14933364 13 18411418419346913328
15048467 5 18342458136046382928
15183329 4 11312062045560644836
15196674 1 18335984152164879567
15461852 350 17703505596659053695
1601671 61 18408885122617295007
16989713 51 17487613267468354142
17093844 174 18408885157093110531
17980427 23 17822295733850402966
21033648 29 18130775811023425962
21150785 3 13398631662844805632
21267235 1 18334868229540905559
21304253 13 18410574024355621196
21521721 280 18202283602266491346
21756936 100 18411975888526777215
21792961 116 17775290435643325136
22224240 67 18334293175583465730
23402539 116 18260826029440769118
23559900 14 18271801354219267369
335352 9 18410572911547017973
34934 24 18409445869458702455
350125 39 18408324405873327076
3545911 37 18410014312975481991
4073 2 18186525436383762826
4093350 32 17418096477672336078
4325135 7 17894348882359775892
5104073 3 18188213079120372307
5758199 1 18411983546268316824
59682541 35 18261114101202377609
59755656 520 16660362614551483434
6328613 192 18271810094809842177
636775 72 18342457032224925401
6669772 16 17917436402246463926

>  <PUBCHEM_SHAPE_MULTIPOLES>  (1) 
517.46
21.04
2.06
0.85
32.03
0.69
-0.11
-10.44
-3.17
-1.58
0.09
0.18
-0.06
0.75

>  <PUBCHEM_SHAPE_SELFOVERLAP>  (1) 
1100.628

>  <PUBCHEM_SHAPE_VOLUME>  (1) 
287.1

>  <PUBCHEM_COORDINATE_TYPE>  (1) 
2
5
10

$$$$
