13790
     RDKit          3D

 25 28  0  0  1  0  0  0  0  0999 V2000
    4.2711   -1.9956   -0.1713 O   0  0  0  0  0  0  0  0  0  0  0  0
   -5.9374   -0.7785   -1.2647 O   0  0  0  0  0  0  0  0  0  0  0  0
    2.3844   -0.1046    0.6207 C   0  0  0  0  0  0  0  0  0  0  0  0
    1.4298    1.0950    0.3793 C   0  0  0  0  0  0  0  0  0  0  0  0
   -0.0326    0.8296    0.7992 C   0  0  0  0  0  0  0  0  0  0  0  0
    3.6354    0.3114   -0.2284 C   0  0  0  0  0  0  0  0  0  0  0  0
   -0.6013   -0.4608    0.1690 C   0  0  0  0  0  0  0  0  0  0  0  0
    1.7392   -1.4234    0.1014 C   0  0  0  0  0  0  0  0  0  0  0  0
    1.6397    1.4716   -1.0972 C   0  0  0  0  0  0  0  0  0  0  0  0
    0.2949   -1.6461    0.5635 C   0  0  0  0  0  0  0  0  0  0  0  0
    3.0176    0.9356   -1.4956 C   0  0  0  0  0  0  0  0  0  0  0  0
   -2.1307   -0.6327    0.4824 C   0  0  0  0  0  0  0  0  0  0  0  0
    2.7039   -0.2632    2.1201 C   0  0  0  0  0  0  0  0  0  0  0  0
   -0.9291    2.0083    0.5358 C   0  0  0  0  0  0  0  0  0  0  0  0
    4.5673    1.3327    0.4469 C   0  0  0  0  0  0  0  0  0  0  0  0
   -2.8854    0.6160   -0.0262 C   0  0  0  0  0  0  0  0  0  0  0  0
    4.5028   -0.8649   -0.5966 C   0  0  0  0  0  0  0  0  0  0  0  0
   -2.6505   -1.8972   -0.2573 C   0  0  0  0  0  0  0  0  0  0  0  0
   -2.2139    1.9198    0.1439 C   0  0  0  0  0  0  0  0  0  0  0  0
   -2.3984   -0.7928    1.9983 C   0  0  0  0  0  0  0  0  0  0  0  0
   -4.1656   -2.0221   -0.2558 C   0  0  0  0  0  0  0  0  0  0  0  0
   -4.0981    0.5250   -0.6058 C   0  0  0  0  0  0  0  0  0  0  0  0
    5.6648   -0.5886   -1.5119 C   0  0  0  0  0  0  0  0  0  0  0  0
   -4.8130   -0.7645   -0.7658 C   0  0  0  0  0  0  0  0  0  0  0  0
   -2.9949    3.1902   -0.0839 C   0  0  0  0  0  0  0  0  0  0  0  0
  1 17  2  0
  2 24  2  0
  3  4  1  0
  3  6  1  0
  3  8  1  0
  3 13  1  0
  4  5  1  0
  4  9  1  0
  5  7  1  0
  5 14  1  0
  6 11  1  0
  6 15  1  0
  6 17  1  0
  7 10  1  0
  7 12  1  0
  8 10  1  0
  9 11  1  0
 12 16  1  0
 12 18  1  0
 12 20  1  0
 14 19  2  0
 16 19  1  0
 16 22  2  0
 17 23  1  0
 18 21  1  0
 19 25  1  0
 21 24  1  0
 22 24  1  0
M  END
>  <PUBCHEM_COMPOUND_CID>  (1) 
13790

>  <PUBCHEM_CONFORMER_RMSD>  (1) 
0.6

>  <PUBCHEM_CONFORMER_DIVERSEORDER>  (1) 
1
34
3
60
45
46
9
55
40
37
65
64
17
59
28
8
31
22
6
70
44
49
48
51
56
35
4
76
69
73
5
14
15
75
63
67
25
23
2
62
66
32
53
41
16
72
21
33
61
27
26
71
10
39
74
30
11
20
19
52
7
13
38
24
29
47
18
68
42
43
57
36
58
12
50
54

>  <PUBCHEM_MMFF94_PARTIAL_CHARGES>  (1) 
16
1 -0.57
12 0.14
14 -0.29
16 -0.14
17 0.45
19 -0.14
2 -0.57
21 0.06
22 -0.14
23 0.06
24 0.49
25 0.14
40 0.15
5 0.14
51 0.15
6 0.06

>  <PUBCHEM_EFFECTIVE_ROTOR_COUNT>  (1) 
2.4

>  <PUBCHEM_PHARMACOPHORE_FEATURES>  (1) 
6
1 1 acceptor
1 2 acceptor
5 3 4 6 9 11 rings
6 12 16 18 21 22 24 rings
6 3 4 5 7 8 10 rings
6 5 7 12 14 16 19 rings

>  <PUBCHEM_HEAVY_ATOM_COUNT>  (1) 
25

>  <PUBCHEM_ATOM_DEF_STEREO_COUNT>  (1) 
1

>  <PUBCHEM_ATOM_UDEF_STEREO_COUNT>  (1) 
5

>  <PUBCHEM_BOND_DEF_STEREO_COUNT>  (1) 
0

>  <PUBCHEM_BOND_UDEF_STEREO_COUNT>  (1) 
0

>  <PUBCHEM_ISOTOPIC_ATOM_COUNT>  (1) 
0

>  <PUBCHEM_COMPONENT_COUNT>  (1) 
1

>  <PUBCHEM_CACTVS_TAUTO_COUNT>  (1) 
4

>  <PUBCHEM_CONFORMER_ID>  (1) 
000035DE00000001

>  <PUBCHEM_MMFF94_ENERGY>  (1) 
88.0555

>  <PUBCHEM_FEATURE_SELFOVERLAP>  (1) 
30.649

>  <PUBCHEM_SHAPE_FINGERPRINT>  (1) 
10498660 4 18409163328918223552
11578080 2 17846486058929321545
11796584 16 17915746366884781710
12236239 1 17967524684218462576
12553582 1 18410012174018588825
12788726 201 18335133173003852137
13224815 77 18411136948042561136
13583140 156 17346299480832861488
13944108 23 15955822656132614052
14294032 229 18193277382903753549
14790565 3 17837774431320018577
15163728 17 16009855127696238655
15196674 1 18412261718330904097
15788980 27 18334862731286304454
16752209 62 18409446972927206955
16945 1 18410017670943692457
17349148 13 18261107452529511177
17357779 13 18341040904608602245
17492 89 18410013225901279178
18681886 176 18337387244770658464
192875 21 18113898290331152269
19862831 5 18040999565597285194
200 152 18060136561595267827
20691752 17 17459195079677693922
20775438 99 17479708947507088463
21267235 1 18411706517263577143
21637258 2 16128365000621779127
21857420 4 15903707492871110751
221357 26 18343017796134054781
22393880 68 18338514140841038044
23557571 272 18059576858478990101
23559900 14 18342173388721739888
25147074 1 17969497117915969850
2838139 119 15285620119751251751
2871803 45 18411695504265634843
296302 2 13695591061513927874
3004659 81 18333726935764301535
3286 77 16702305671767996170
350125 39 18338240349887984361
463206 1 18129939095829278127
474 4 17385444336200759972
5104073 3 18343019969413764240
59755656 215 18412545392558139783
59755656 520 17914346675693108961
633830 44 17023767631966243556
7495541 125 17132111364430793640
9709674 26 18409171012656855682

>  <PUBCHEM_SHAPE_MULTIPOLES>  (1) 
502.75
10.95
2.41
1.39
1.05
0.94
0.33
-2.83
-4.51
-1.66
-0.07
0.56
-0.14
-0.16

>  <PUBCHEM_SHAPE_SELFOVERLAP>  (1) 
1084.247

>  <PUBCHEM_SHAPE_VOLUME>  (1) 
275.5

>  <PUBCHEM_COORDINATE_TYPE>  (1) 
2
5
10

$$$$
