13800
     RDKit          3D

 19 21  0  0  0  0  0  0  0  0999 V2000
   -1.8446   -1.6333    0.2144 O   0  0  0  0  0  0  0  0  0  0  0  0
    3.7319   -0.2931   -0.1195 N   0  0  0  0  0  0  0  0  0  0  0  0
   -0.4953   -1.8663    0.4509 N   0  0  0  0  0  0  0  0  0  0  0  0
    4.0045    0.9210    0.6625 C   0  0  0  0  0  0  0  0  0  0  0  0
    4.5151   -0.3113   -1.3630 C   0  0  0  0  0  0  0  0  0  0  0  0
    5.4879    1.0253    1.0206 C   0  0  0  0  0  0  0  0  0  0  0  0
    6.0151   -0.2470   -1.0712 C   0  0  0  0  0  0  0  0  0  0  0  0
    6.3641    0.9725   -0.2258 C   0  0  0  0  0  0  0  0  0  0  0  0
    2.3032   -0.4025   -0.4132 C   0  0  0  0  0  0  0  0  0  0  0  0
    1.4835   -0.5185    0.8742 C   0  0  0  0  0  0  0  0  0  0  0  0
    0.0148   -0.6559    0.5992 C   0  0  0  0  0  0  0  0  0  0  0  0
   -0.9086    0.3732    0.4768 C   0  0  0  0  0  0  0  0  0  0  0  0
   -2.0784   -0.2962    0.2322 C   0  0  0  0  0  0  0  0  0  0  0  0
   -3.4374    0.1003    0.0015 C   0  0  0  0  0  0  0  0  0  0  0  0
   -3.7859    1.4553   -0.0005 C   0  0  0  0  0  0  0  0  0  0  0  0
   -4.4263   -0.8637   -0.2227 C   0  0  0  0  0  0  0  0  0  0  0  0
   -5.1075    1.8417   -0.2237 C   0  0  0  0  0  0  0  0  0  0  0  0
   -5.7478   -0.4772   -0.4460 C   0  0  0  0  0  0  0  0  0  0  0  0
   -6.0884    0.8756   -0.4465 C   0  0  0  0  0  0  0  0  0  0  0  0
  1  3  1  0
  1 13  1  0
  2  4  1  0
  2  5  1  0
  2  9  1  0
  3 11  2  0
  4  6  1  0
  5  7  1  0
  6  8  1  0
  7  8  1  0
  9 10  1  0
 10 11  1  0
 11 12  1  0
 12 13  2  0
 13 14  1  0
 14 15  2  0
 14 16  1  0
 15 17  1  0
 16 18  2  0
 17 19  2  0
 18 19  1  0
M  END
>  <PUBCHEM_COMPOUND_CID>  (1) 
13800

>  <PUBCHEM_CONFORMER_RMSD>  (1) 
0.8

>  <PUBCHEM_CONFORMER_DIVERSEORDER>  (1) 
1
10
6
18
15
19
16
9
3
13
17
4
21
2
11
5
8
14
12
20
7

>  <PUBCHEM_MMFF94_PARTIAL_CHARGES>  (1) 
22
1 -0.02
10 0.18
11 0.11
12 -0.15
13 0.09
14 0.05
15 -0.15
16 -0.15
17 -0.15
18 -0.15
19 -0.15
2 -0.81
3 -0.41
34 0.15
35 0.15
36 0.15
37 0.15
38 0.15
39 0.15
4 0.27
5 0.27
9 0.27

>  <PUBCHEM_EFFECTIVE_ROTOR_COUNT>  (1) 
5.2

>  <PUBCHEM_PHARMACOPHORE_FEATURES>  (1) 
5
1 2 cation
1 3 acceptor
5 1 3 11 12 13 rings
6 14 15 16 17 18 19 rings
6 2 4 5 6 7 8 rings

>  <PUBCHEM_HEAVY_ATOM_COUNT>  (1) 
19

>  <PUBCHEM_ATOM_DEF_STEREO_COUNT>  (1) 
0

>  <PUBCHEM_ATOM_UDEF_STEREO_COUNT>  (1) 
0

>  <PUBCHEM_BOND_DEF_STEREO_COUNT>  (1) 
0

>  <PUBCHEM_BOND_UDEF_STEREO_COUNT>  (1) 
0

>  <PUBCHEM_ISOTOPIC_ATOM_COUNT>  (1) 
0

>  <PUBCHEM_COMPONENT_COUNT>  (1) 
1

>  <PUBCHEM_CACTVS_TAUTO_COUNT>  (1) 
1

>  <PUBCHEM_CONFORMER_ID>  (1) 
000035E800000001

>  <PUBCHEM_MMFF94_ENERGY>  (1) 
23.8751

>  <PUBCHEM_FEATURE_SELFOVERLAP>  (1) 
25.373

>  <PUBCHEM_SHAPE_FINGERPRINT>  (1) 
10354089 29 14996003251099991870
10670039 82 18336265635204387420
10688039 33 13406787818488045662
10730089 173 18410293597081314133
11089746 13 18186799210167086996
11646440 116 18410586088633724361
11719270 70 17775283834258122838
117890 112 18334857229955450716
12236239 1 17531242868231588154
12390115 104 18270124500951812337
12516196 113 9367343738927275862
12596602 18 13334742327230178813
12670543 26 18131635551833243594
12714333 28 18410011035208585826
12916748 109 18409451383874476593
13167372 99 16298378029258639796
13288520 33 11024105452320606531
13533116 47 18334853862849238850
13631057 29 17168431592604318595
13668630 136 15410898469971777124
13685833 64 11023819591834296077
14123256 34 11023820708283323405
1420 363 8862943879259778784
14251718 22 18202281416080658175
14251752 14 18131068208255041622
14251764 18 15936414467598562115
14528608 73 18411416211063621794
14933364 13 18272371970773551777
15048467 5 18113335293575870949
15183329 4 18202286862215182312
15348495 7 12107801721321289884
15537594 2 12607406576562768453
15716309 27 8934999265557954960
15778101 99 18341615872334412857
16079462 125 18131060563566715304
1813 80 12679464200564792586
18222031 100 12679461989205377866
19489759 90 18407760343760213569
200 152 15698006223392678810
20281389 69 17749103383514353164
20645477 56 18407759248337961275
20645477 70 17131843040860442390
21150785 3 17846771928121175341
21267235 1 18341894143639943519
21637258 2 12895068488075297484
22061861 79 17132119026357167692
221357 26 17704069581831988208
22224240 67 13551474782421719529
22289505 5 18131633392256368000
2297311 6 18060700590060318569
23035841 295 11527950058051684893
23198884 109 18412547595949689095
23402539 116 18411978070095356725
23536379 177 17060624382114288345
23559900 14 17846210102816273968
2767999 5 17821726139223793460
2916195 48 18411694408980552248
293599 30 18407759222805430427
29717793 49 15841560656623203052
300161 21 18260263040468645146
3004659 81 15841836638389256060
312425 54 11674877762744171421
3472631 163 18187369878461589212
34797466 226 17917996104544653757
351380 3 12607404381823605484
3545911 37 18411140238024556330
441001 317 18410292502101946177
465052 167 9943519739272972440
5104073 3 18114464444904793811
5283173 99 18202004287500594800
542803 24 17167581596573497296
59682541 52 17417812790639638580
59755656 520 18186795894015121259

>  <PUBCHEM_SHAPE_MULTIPOLES>  (1) 
375.18
17.66
1.48
0.98
6.52
0.1
-0.09
6
-4.21
-1.15
0.11
1.13
-0.02
0.79

>  <PUBCHEM_SHAPE_SELFOVERLAP>  (1) 
794.523

>  <PUBCHEM_SHAPE_VOLUME>  (1) 
211.2

>  <PUBCHEM_COORDINATE_TYPE>  (1) 
2
5
10

$$$$
