13807
     RDKit          3D

 33 36  0  0  0  0  0  0  0  0999 V2000
   -0.1494    2.2124   -0.1410 O   0  0  0  0  0  0  0  0  0  0  0  0
    1.2699   -2.4171    1.9107 O   0  0  0  0  0  0  0  0  0  0  0  0
   -0.9985   -2.3350    2.2933 O   0  0  0  0  0  0  0  0  0  0  0  0
    4.6001    2.4808   -0.4944 N   0  0  0  0  0  0  0  0  0  0  0  0
   -4.9050    2.1968    0.2437 N   0  0  0  0  0  0  0  0  0  0  0  0
   -0.2059   -0.6069   -0.6381 C   0  0  0  0  0  0  0  0  0  0  0  0
    1.0610    0.1686   -0.6066 C   0  0  0  0  0  0  0  0  0  0  0  0
   -1.3666    0.0710   -0.4210 C   0  0  0  0  0  0  0  0  0  0  0  0
    1.0227    1.5407   -0.3591 C   0  0  0  0  0  0  0  0  0  0  0  0
   -1.3492    1.5162   -0.1660 C   0  0  0  0  0  0  0  0  0  0  0  0
   -0.2432   -2.0518   -0.8917 C   0  0  0  0  0  0  0  0  0  0  0  0
    2.3144   -0.4291   -0.8190 C   0  0  0  0  0  0  0  0  0  0  0  0
    3.4873    0.3303   -0.7829 C   0  0  0  0  0  0  0  0  0  0  0  0
    3.4266    1.6978   -0.5343 C   0  0  0  0  0  0  0  0  0  0  0  0
   -2.6767   -0.5936   -0.4298 C   0  0  0  0  0  0  0  0  0  0  0  0
    2.1930    2.3052   -0.3218 C   0  0  0  0  0  0  0  0  0  0  0  0
   -3.8350    0.0550   -0.2203 C   0  0  0  0  0  0  0  0  0  0  0  0
   -2.4826    2.1971    0.0473 C   0  0  0  0  0  0  0  0  0  0  0  0
   -3.8120    1.5310    0.0377 C   0  0  0  0  0  0  0  0  0  0  0  0
   -0.1630   -2.9668    0.1514 C   0  0  0  0  0  0  0  0  0  0  0  0
   -0.3609   -2.4842   -2.2077 C   0  0  0  0  0  0  0  0  0  0  0  0
    4.7955   -0.3538   -1.0168 C   0  0  0  0  0  0  0  0  0  0  0  0
   -5.1652   -0.6340   -0.2290 C   0  0  0  0  0  0  0  0  0  0  0  0
   -0.2009   -4.3335   -0.1252 C   0  0  0  0  0  0  0  0  0  0  0  0
    4.6593    3.7576    0.1463 C   0  0  0  0  0  0  0  0  0  0  0  0
   -0.3987   -3.8510   -2.4840 C   0  0  0  0  0  0  0  0  0  0  0  0
   -0.3187   -4.7755   -1.4428 C   0  0  0  0  0  0  0  0  0  0  0  0
   -0.0398   -2.5464    1.5424 C   0  0  0  0  0  0  0  0  0  0  0  0
   -4.7033    3.6172    0.4778 C   0  0  0  0  0  0  0  0  0  0  0  0
    6.0552    4.3510    0.0599 C   0  0  0  0  0  0  0  0  0  0  0  0
   -6.0494    4.2807    0.6843 C   0  0  0  0  0  0  0  0  0  0  0  0
    1.5219   -2.0089    3.2596 C   0  0  0  0  0  0  0  0  0  0  0  0
    3.0174   -1.9220    3.4774 C   0  0  0  0  0  0  0  0  0  0  0  0
  1  9  1  0
  1 10  1  0
  2 28  1  0
  2 32  1  0
  3 28  2  0
  4 14  1  0
  4 25  1  0
  5 19  2  0
  5 29  1  0
  6  7  1  0
  6  8  2  0
  6 11  1  0
  7  9  2  0
  7 12  1  0
  8 10  1  0
  8 15  1  0
  9 16  1  0
 10 18  2  0
 11 20  2  0
 11 21  1  0
 12 13  2  0
 13 14  1  0
 13 22  1  0
 14 16  2  0
 15 17  2  0
 17 19  1  0
 17 23  1  0
 18 19  1  0
 20 24  1  0
 20 28  1  0
 21 26  2  0
 24 27  2  0
 25 30  1  0
 26 27  1  0
 29 31  1  0
 32 33  1  0
M  END
>  <PUBCHEM_COMPOUND_CID>  (1) 
13807

>  <PUBCHEM_CONFORMER_RMSD>  (1) 
1

>  <PUBCHEM_CONFORMER_DIVERSEORDER>  (1) 
1
5
4
3
7
2
6
8

>  <PUBCHEM_MMFF94_PARTIAL_CHARGES>  (1) 
38
1 -0.16
10 0.08
11 0.03
12 -0.15
13 -0.14
14 0.1
15 -0.15
16 -0.15
17 -0.12
18 -0.14
19 0.42
2 -0.43
20 0.09
21 -0.15
22 0.14
23 0.14
24 -0.15
25 0.37
26 -0.15
27 -0.15
28 0.63
29 0.25
3 -0.57
32 0.28
34 0.15
35 0.15
36 0.15
37 0.15
38 0.15
39 0.4
4 -0.87
46 0.15
49 0.15
5 -0.7
50 0.15
6 -0.06
7 0.03
9 0.08

>  <PUBCHEM_EFFECTIVE_ROTOR_COUNT>  (1) 
7

>  <PUBCHEM_PHARMACOPHORE_FEATURES>  (1) 
9
1 1 acceptor
1 3 acceptor
1 4 cation
1 4 donor
1 5 acceptor
6 1 6 7 8 9 10 rings
6 11 20 21 24 26 27 rings
6 7 9 12 13 14 16 rings
6 8 10 15 17 18 19 rings

>  <PUBCHEM_HEAVY_ATOM_COUNT>  (1) 
33

>  <PUBCHEM_ATOM_DEF_STEREO_COUNT>  (1) 
0

>  <PUBCHEM_ATOM_UDEF_STEREO_COUNT>  (1) 
0

>  <PUBCHEM_BOND_DEF_STEREO_COUNT>  (1) 
0

>  <PUBCHEM_BOND_UDEF_STEREO_COUNT>  (1) 
0

>  <PUBCHEM_ISOTOPIC_ATOM_COUNT>  (1) 
0

>  <PUBCHEM_COMPONENT_COUNT>  (1) 
1

>  <PUBCHEM_CACTVS_TAUTO_COUNT>  (1) 
1

>  <PUBCHEM_CONFORMER_ID>  (1) 
000035EF00000001

>  <PUBCHEM_MMFF94_ENERGY>  (1) 
116.8252

>  <PUBCHEM_FEATURE_SELFOVERLAP>  (1) 
45.727

>  <PUBCHEM_SHAPE_FINGERPRINT>  (1) 
10006869 2 18262230148998094843
10411042 1 17043461839335178783
10675989 125 18127985108821433448
11007060 377 18339089309929346448
11297010 23 18054504699966966181
11421498 54 17203067192258000275
11578080 2 16268828873110663698
12156800 1 17627765811300292322
12788726 201 18051679242265848551
13140716 1 18339928116952565005
14028597 1 17682091602918423026
14790565 3 18341619208812157317
14844126 61 17837490018278624348
14955137 171 18046899386648438562
15361156 5 17831878102757980420
15420108 30 18340192017038703269
15475509 35 16373562523266895985
15664445 248 17980769229208437494
16087824 20 18054509382056331271
17980427 23 18049413990994095131
20101258 96 17548422964959443852
21421861 104 17754743723714800593
23559900 14 17768249012517738391
3380486 145 17764326323605885962
3411729 13 18119539738844028533
376196 1 18337398149370902205
394222 165 18336262357959224505
9841814 1 17611193650413852897
9981440 41 18410863178743893601

>  <PUBCHEM_SHAPE_MULTIPOLES>  (1) 
651.55
10
6.79
2.19
1.75
0.51
2.28
-18.25
0.59
-0.03
-0.56
-1.77
3.36
-2.31

>  <PUBCHEM_SHAPE_SELFOVERLAP>  (1) 
1412.316

>  <PUBCHEM_SHAPE_VOLUME>  (1) 
357.2

>  <PUBCHEM_COORDINATE_TYPE>  (1) 
2
5
10

$$$$
