13817
     RDKit          3D

 48 53  0  0  0  0  0  0  0  0999 V2000
   -9.6686    2.4763   -0.6045 S   0  0  0  0  0  0  0  0  0  0  0  0
    9.8184   -2.2430   -0.7194 S   0  0  0  0  0  0  0  0  0  0  0  0
  -10.5115    2.9419    0.7131 O   0  0  0  0  0  0  0  0  0  0  0  0
   10.3360   -2.7706    0.7356 O   0  0  0  0  0  0  0  0  0  0  0  0
   -8.6174    3.4563   -0.8126 O   0  0  0  0  0  0  0  0  0  0  0  0
  -10.6104    2.1508   -1.6597 O   0  0  0  0  0  0  0  0  0  0  0  0
    8.8490   -3.2076   -1.2081 O   0  0  0  0  0  0  0  0  0  0  0  0
   10.9770   -1.8758   -1.5125 O   0  0  0  0  0  0  0  0  0  0  0  0
   -6.8039   -2.5068    0.9796 N   0  0  0  0  0  0  0  0  0  0  0  0
    6.6383    2.6796    0.3775 N   0  0  0  0  0  0  0  0  0  0  0  0
   -5.4416   -0.0999    0.5594 N   0  0  0  0  0  0  0  0  0  0  0  0
    5.4231    0.3006   -0.4524 N   0  0  0  0  0  0  0  0  0  0  0  0
   -4.8772   -0.3619   -0.5275 N   0  0  0  0  0  0  0  0  0  0  0  0
    4.8772   -0.0473    0.6203 N   0  0  0  0  0  0  0  0  0  0  0  0
   -9.6206   -0.2226    0.0651 C   0  0  0  0  0  0  0  0  0  0  0  0
    9.6024    0.4239    0.0395 C   0  0  0  0  0  0  0  0  0  0  0  0
   -8.9262   -1.3970    0.4412 C   0  0  0  0  0  0  0  0  0  0  0  0
    8.8334    1.5840    0.2964 C   0  0  0  0  0  0  0  0  0  0  0  0
   -8.9007    0.9661   -0.1370 C   0  0  0  0  0  0  0  0  0  0  0  0
    8.9550   -0.7510   -0.3759 C   0  0  0  0  0  0  0  0  0  0  0  0
   -7.5322   -1.3480    0.6043 C   0  0  0  0  0  0  0  0  0  0  0  0
    7.4398    1.5349    0.1301 C   0  0  0  0  0  0  0  0  0  0  0  0
   -6.8329   -0.1583    0.3993 C   0  0  0  0  0  0  0  0  0  0  0  0
    6.8169    0.3590   -0.2830 C   0  0  0  0  0  0  0  0  0  0  0  0
   -7.5158    0.9966    0.0294 C   0  0  0  0  0  0  0  0  0  0  0  0
    7.5694   -0.7818   -0.5359 C   0  0  0  0  0  0  0  0  0  0  0  0
   -0.7178   -0.2246   -0.0413 C   0  0  0  0  0  0  0  0  0  0  0  0
    0.7186   -0.1844    0.1276 C   0  0  0  0  0  0  0  0  0  0  0  0
  -11.0147   -0.2716   -0.0978 C   0  0  0  0  0  0  0  0  0  0  0  0
   10.9960    0.4730    0.2058 C   0  0  0  0  0  0  0  0  0  0  0  0
   -9.6462   -2.5857    0.6434 C   0  0  0  0  0  0  0  0  0  0  0  0
    9.4808    2.7589    0.7118 C   0  0  0  0  0  0  0  0  0  0  0  0
   -2.7942    0.8892   -0.5754 C   0  0  0  0  0  0  0  0  0  0  0  0
    2.8679   -1.2844    0.0382 C   0  0  0  0  0  0  0  0  0  0  0  0
   -1.4095    0.9286   -0.4119 C   0  0  0  0  0  0  0  0  0  0  0  0
    1.4830   -1.3237   -0.1241 C   0  0  0  0  0  0  0  0  0  0  0  0
   -3.4821   -0.3032   -0.3676 C   0  0  0  0  0  0  0  0  0  0  0  0
    3.4883   -0.1056    0.4520 C   0  0  0  0  0  0  0  0  0  0  0  0
  -11.7139   -1.4613    0.1070 C   0  0  0  0  0  0  0  0  0  0  0  0
   11.6226    1.6490    0.6194 C   0  0  0  0  0  0  0  0  0  0  0  0
  -11.0310   -2.6162    0.4769 C   0  0  0  0  0  0  0  0  0  0  0  0
   10.8665    2.7897    0.8719 C   0  0  0  0  0  0  0  0  0  0  0  0
   -1.4107   -1.4172    0.1659 C   0  0  0  0  0  0  0  0  0  0  0  0
    1.3389    0.9943    0.5414 C   0  0  0  0  0  0  0  0  0  0  0  0
   -2.7954   -1.4567    0.0023 C   0  0  0  0  0  0  0  0  0  0  0  0
    2.7237    1.0338    0.7036 C   0  0  0  0  0  0  0  0  0  0  0  0
   -3.5132    2.1367   -0.9735 C   0  0  0  0  0  0  0  0  0  0  0  0
    3.6657   -2.5167   -0.2381 C   0  0  0  0  0  0  0  0  0  0  0  0
  1  3  1  0
  1  5  2  0
  1  6  2  0
  1 19  1  0
  2  4  1  0
  2  7  2  0
  2  8  2  0
  2 20  1  0
  9 21  1  0
 10 22  1  0
 11 13  2  0
 11 23  1  0
 12 14  2  0
 12 24  1  0
 13 37  1  0
 14 38  1  0
 15 17  1  0
 15 19  2  0
 15 29  1  0
 16 18  1  0
 16 20  2  0
 16 30  1  0
 17 21  2  0
 17 31  1  0
 18 22  2  0
 18 32  1  0
 19 25  1  0
 20 26  1  0
 21 23  1  0
 22 24  1  0
 23 25  2  0
 24 26  2  0
 27 28  1  0
 27 35  1  0
 27 43  2  0
 28 36  1  0
 28 44  2  0
 29 39  2  0
 30 40  2  0
 31 41  2  0
 32 42  2  0
 33 35  2  0
 33 37  1  0
 33 47  1  0
 34 36  2  0
 34 38  1  0
 34 48  1  0
 37 45  2  0
 38 46  2  0
 39 41  1  0
 40 42  1  0
 43 45  1  0
 44 46  1  0
M  END
>  <PUBCHEM_COMPOUND_CID>  (1) 
13817

>  <PUBCHEM_CONFORMER_RMSD>  (1) 
1

>  <PUBCHEM_CONFORMER_DIVERSEORDER>  (1) 
2
32
27
29
3
28
17
31
4
10
15
12
16
5
26
30
18
22
24
25
19
13
23
7
11
6
21
20
14
9
8
1

>  <PUBCHEM_MMFF94_PARTIAL_CHARGES>  (1) 
64
1 1.49
10 -0.9
11 -0.18
12 -0.18
13 -0.18
14 -0.18
19 -0.01
2 1.49
20 -0.01
21 0.1
22 0.1
23 0.18
24 0.18
25 -0.15
26 -0.15
29 -0.15
3 -0.68
30 -0.15
31 -0.15
32 -0.15
33 -0.14
34 -0.14
35 -0.15
36 -0.15
37 0.18
38 0.18
39 -0.15
4 -0.68
40 -0.15
41 -0.15
42 -0.15
43 -0.15
44 -0.15
45 -0.15
46 -0.15
47 0.14
48 0.14
49 0.15
5 -0.65
50 0.15
51 0.15
52 0.15
53 0.15
54 0.15
55 0.15
56 0.15
57 0.15
58 0.15
59 0.15
6 -0.65
60 0.15
61 0.15
62 0.15
63 0.15
64 0.15
65 0.4
66 0.4
67 0.4
68 0.4
7 -0.65
75 0.5
76 0.5
8 -0.65
9 -0.9

>  <PUBCHEM_EFFECTIVE_ROTOR_COUNT>  (1) 
7

>  <PUBCHEM_PHARMACOPHORE_FEATURES>  (1) 
18
1 10 cation
1 10 donor
1 3 acceptor
1 4 acceptor
1 5 acceptor
1 6 acceptor
1 7 acceptor
1 8 acceptor
1 9 cation
1 9 donor
4 1 3 5 6 anion
4 2 4 7 8 anion
6 15 17 19 21 23 25 rings
6 15 17 29 31 39 41 rings
6 16 18 20 22 24 26 rings
6 16 18 30 32 40 42 rings
6 27 33 35 37 43 45 rings
6 28 34 36 38 44 46 rings

>  <PUBCHEM_HEAVY_ATOM_COUNT>  (1) 
48

>  <PUBCHEM_ATOM_DEF_STEREO_COUNT>  (1) 
0

>  <PUBCHEM_ATOM_UDEF_STEREO_COUNT>  (1) 
0

>  <PUBCHEM_BOND_DEF_STEREO_COUNT>  (1) 
0

>  <PUBCHEM_BOND_UDEF_STEREO_COUNT>  (1) 
0

>  <PUBCHEM_ISOTOPIC_ATOM_COUNT>  (1) 
0

>  <PUBCHEM_COMPONENT_COUNT>  (1) 
1

>  <PUBCHEM_CACTVS_TAUTO_COUNT>  (1) 
1

>  <PUBCHEM_CONFORMER_ID>  (1) 
000035F900000002

>  <PUBCHEM_MMFF94_ENERGY>  (1) 
174.5032

>  <PUBCHEM_FEATURE_SELFOVERLAP>  (1) 
91.516

>  <PUBCHEM_SHAPE_FINGERPRINT>  (1) 
10580692 12 18409449198717428099
11061554 47 18113332020505206861
11966995 178 18260264145546358434
12013929 2 18408321086775782065
12013929 94 18410013278379584931
12559415 86 18201729422309610933
12559415 90 18412260623209429633
12664476 115 18341609339362361416
131240 100 18411138043206434824
13740195 50 18409167735844728731
13947934 56 18412826858791694305
13947947 74 18113338600342194451
15061470 23 18410854364954277561
15065858 18 18411699885100634862
15347591 1 18044085757228907752
15510794 2 18411704279221827055
15530121 191 18343293786929211385
15840311 113 18187368774771402708
15890870 6 18343302569619807606
16067689 302 18272373062581695918
16728433 110 18411698820560850416
20105231 36 18411420613669370551
21362267 2 17988065795147066392
21362267 313 18188202092709911224
232437 2 18411702092882948223
4625314 4 18408887364400384303
5028188 123 18130782391709804351
67123 10 18410012156712164307
9663363 56 17458058288540923159

>  <PUBCHEM_SHAPE_MULTIPOLES>  (1) 
930.41
59.31
3.37
0.93
0.65
0.42
0.13
4.02
-1.04
-0.02
0.14
-0.15
0.04
5.29

>  <PUBCHEM_SHAPE_SELFOVERLAP>  (1) 
2060.279

>  <PUBCHEM_SHAPE_VOLUME>  (1) 
500.1

>  <PUBCHEM_COORDINATE_TYPE>  (1) 
2
5
10

$$$$
