13826
     RDKit          3D

  8  7  0  0  0  0  0  0  0  0999 V2000
   -1.0358   -1.0364   -1.1182 O   0  0  0  0  0  0  0  0  0  0  0  0
    1.0356   -1.0351    1.1193 O   0  0  0  0  0  0  0  0  0  0  0  0
   -1.4889    0.6102    0.4927 N   0  0  0  0  0  0  0  0  0  0  0  0
    1.4890    0.6096   -0.4935 N   0  0  0  0  0  0  0  0  0  0  0  0
   -2.8346    0.6986    0.2054 N   0  0  0  0  0  0  0  0  0  0  0  0
    2.8347    0.6982   -0.2058 N   0  0  0  0  0  0  0  0  0  0  0  0
   -0.7156   -0.2727   -0.2211 C   0  0  0  0  0  0  0  0  0  0  0  0
    0.7155   -0.2723    0.2211 C   0  0  0  0  0  0  0  0  0  0  0  0
  1  7  2  0
  2  8  2  0
  3  5  1  0
  3  7  1  0
  4  6  1  0
  4  8  1  0
  7  8  1  0
M  END
>  <PUBCHEM_COMPOUND_CID>  (1) 
13826

>  <PUBCHEM_CONFORMER_RMSD>  (1) 
0.6

>  <PUBCHEM_CONFORMER_DIVERSEORDER>  (1) 
1
2
3
4

>  <PUBCHEM_MMFF94_PARTIAL_CHARGES>  (1) 
14
1 -0.57
10 0.37
11 0.36
12 0.36
13 0.36
14 0.36
2 -0.57
3 -0.42
4 -0.42
5 -0.73
6 -0.73
7 0.63
8 0.63
9 0.37

>  <PUBCHEM_EFFECTIVE_ROTOR_COUNT>  (1) 
3

>  <PUBCHEM_PHARMACOPHORE_FEATURES>  (1) 
6
1 1 acceptor
1 2 acceptor
1 3 donor
1 4 donor
1 5 donor
1 6 donor

>  <PUBCHEM_HEAVY_ATOM_COUNT>  (1) 
8

>  <PUBCHEM_ATOM_DEF_STEREO_COUNT>  (1) 
0

>  <PUBCHEM_ATOM_UDEF_STEREO_COUNT>  (1) 
0

>  <PUBCHEM_BOND_DEF_STEREO_COUNT>  (1) 
0

>  <PUBCHEM_BOND_UDEF_STEREO_COUNT>  (1) 
0

>  <PUBCHEM_ISOTOPIC_ATOM_COUNT>  (1) 
0

>  <PUBCHEM_COMPONENT_COUNT>  (1) 
1

>  <PUBCHEM_CACTVS_TAUTO_COUNT>  (1) 
3

>  <PUBCHEM_CONFORMER_ID>  (1) 
0000360200000001

>  <PUBCHEM_MMFF94_ENERGY>  (1) 
7.4047

>  <PUBCHEM_FEATURE_SELFOVERLAP>  (1) 
33.478

>  <PUBCHEM_SHAPE_FINGERPRINT>  (1) 
14390081 3 18412546513375629737
16714656 1 17846222167495491389
20096714 4 18409733966931747816
20653085 51 18127995155007609068
21040471 1 17632007551277004503
29004967 10 16660646228252880785
5943 1 14930176799098022338

>  <PUBCHEM_SHAPE_MULTIPOLES>  (1) 
132.97
3.34
1
0.9
0
0.12
0
-1.36
0
0
0
0
0.25
-0.48

>  <PUBCHEM_SHAPE_SELFOVERLAP>  (1) 
252.097

>  <PUBCHEM_SHAPE_VOLUME>  (1) 
81.6

>  <PUBCHEM_COORDINATE_TYPE>  (1) 
2
5
10

$$$$
