13830
     RDKit          3D

 10  9  0  0  0  0  0  0  0  0999 V2000
   -0.0002   -0.4669    0.6154 Si  0  0  0  0  0  4  0  0  0  0  0  0
    0.0006    1.2000    0.6828 O   0  0  0  0  0  0  0  0  0  0  0  0
    1.3676   -1.0319   -0.1546 O   0  0  0  0  0  0  0  0  0  0  0  0
   -1.3684   -1.0313   -0.1546 O   0  0  0  0  0  0  0  0  0  0  0  0
    0.0008    1.9479   -0.5248 C   0  0  0  0  0  0  0  0  0  0  0  0
    2.6455   -0.6971    0.3667 C   0  0  0  0  0  0  0  0  0  0  0  0
   -2.6463   -0.6959    0.3667 C   0  0  0  0  0  0  0  0  0  0  0  0
    0.0015    3.4244   -0.1904 C   0  0  0  0  0  0  0  0  0  0  0  0
    3.7131   -1.3254   -0.5036 C   0  0  0  0  0  0  0  0  0  0  0  0
   -3.7142   -1.3237   -0.5036 C   0  0  0  0  0  0  0  0  0  0  0  0
  1  2  1  0
  1  3  1  0
  1  4  1  0
  2  5  1  0
  3  6  1  0
  4  7  1  0
  5  8  1  0
  6  9  1  0
  7 10  1  0
M  END
>  <PUBCHEM_COMPOUND_CID>  (1) 
13830

>  <PUBCHEM_CONFORMER_RMSD>  (1) 
0.6

>  <PUBCHEM_CONFORMER_DIVERSEORDER>  (1) 
1
35
30
32
34
38
36
39
26
31
25
37
33
28
27
3
29
12
23
13
22
14
2
19
15
21
20
24
10
11
4
8
5
9
17
16
6
7
18

>  <PUBCHEM_MMFF94_PARTIAL_CHARGES>  (1) 
8
1 1.09
11 -0.2
2 -0.58
3 -0.58
4 -0.58
5 0.28
6 0.28
7 0.28

>  <PUBCHEM_EFFECTIVE_ROTOR_COUNT>  (1) 
6

>  <PUBCHEM_PHARMACOPHORE_FEATURES>  (1) 
0

>  <PUBCHEM_HEAVY_ATOM_COUNT>  (1) 
10

>  <PUBCHEM_ATOM_DEF_STEREO_COUNT>  (1) 
0

>  <PUBCHEM_ATOM_UDEF_STEREO_COUNT>  (1) 
0

>  <PUBCHEM_BOND_DEF_STEREO_COUNT>  (1) 
0

>  <PUBCHEM_BOND_UDEF_STEREO_COUNT>  (1) 
0

>  <PUBCHEM_ISOTOPIC_ATOM_COUNT>  (1) 
0

>  <PUBCHEM_COMPONENT_COUNT>  (1) 
1

>  <PUBCHEM_CACTVS_TAUTO_COUNT>  (1) 
1

>  <PUBCHEM_CONFORMER_ID>  (1) 
0000360600000001

>  <PUBCHEM_MMFF94_ENERGY>  (1) 
3.9358

>  <PUBCHEM_FEATURE_SELFOVERLAP>  (1) 
0

>  <PUBCHEM_SHAPE_FINGERPRINT>  (1) 
1 1 17761213619151649205
14648413 74 17974286822410503763
17041 50 18335686270307421471
18410436 195 18341046401845078617
19021347 4 16968296505250136496
20339313 130 18338521944807125355
20671657 1 18122912194440844087
20671657 53 18412828010048618983
20711985 327 18342183288304599231
20711985 344 18192144906446062066
21041028 32 18264510471741983105
228727 97 17822578205169828858
23402539 116 18411413978029326806
58734987 36 18336825385317008631
7364860 26 18123750026390610753
76951 1 17168969218433198968
81228 2 18264496078752445760

>  <PUBCHEM_SHAPE_MULTIPOLES>  (1) 
206.4
5.06
2.94
0.86
0.01
4.25
-0.1
-4.81
1.21
0
0.44
0
-0.06
0

>  <PUBCHEM_SHAPE_SELFOVERLAP>  (1) 
358.809

>  <PUBCHEM_SHAPE_VOLUME>  (1) 
137.6

>  <PUBCHEM_COORDINATE_TYPE>  (1) 
2
5
10

$$$$
