13835
     RDKit          3D

  8  7  0  0  0  0  0  0  0  0999 V2000
   -0.1905    0.3518    0.1658 O   0  0  0  0  0  0  0  0  0  0  0  0
    1.2307   -1.4497   -0.1073 O   0  0  0  0  0  0  0  0  0  0  0  0
   -1.3197   -0.5275    0.1946 C   0  0  0  0  0  0  0  0  0  0  0  0
   -2.5578    0.2874    0.3709 C   0  0  0  0  0  0  0  0  0  0  0  0
    1.0177   -0.2532    0.0091 C   0  0  0  0  0  0  0  0  0  0  0  0
    2.0503    0.8035    0.0054 C   0  0  0  0  0  0  0  0  0  0  0  0
   -3.5695    0.3082   -0.5038 C   0  0  0  0  0  0  0  0  0  0  0  0
    3.3388    0.4794   -0.1346 C   0  0  0  0  0  0  0  0  0  0  0  0
  1  3  1  0
  1  5  1  0
  2  5  2  0
  3  4  1  0
  4  7  2  0
  5  6  1  0
  6  8  2  0
M  END
>  <PUBCHEM_COMPOUND_CID>  (1) 
13835

>  <PUBCHEM_CONFORMER_RMSD>  (1) 
0.6

>  <PUBCHEM_CONFORMER_DIVERSEORDER>  (1) 
1
15
16
9
22
10
19
14
4
20
7
8
11
12
18
2
21
17
13
3
6
5

>  <PUBCHEM_MMFF94_PARTIAL_CHARGES>  (1) 
14
1 -0.43
11 0.15
12 0.15
13 0.15
14 0.15
15 0.15
16 0.15
2 -0.57
3 0.42
4 -0.29
5 0.71
6 -0.14
7 -0.3
8 -0.3

>  <PUBCHEM_EFFECTIVE_ROTOR_COUNT>  (1) 
4

>  <PUBCHEM_PHARMACOPHORE_FEATURES>  (1) 
3
1 2 acceptor
1 7 hydrophobe
1 8 hydrophobe

>  <PUBCHEM_HEAVY_ATOM_COUNT>  (1) 
8

>  <PUBCHEM_ATOM_DEF_STEREO_COUNT>  (1) 
0

>  <PUBCHEM_ATOM_UDEF_STEREO_COUNT>  (1) 
0

>  <PUBCHEM_BOND_DEF_STEREO_COUNT>  (1) 
0

>  <PUBCHEM_BOND_UDEF_STEREO_COUNT>  (1) 
0

>  <PUBCHEM_ISOTOPIC_ATOM_COUNT>  (1) 
0

>  <PUBCHEM_COMPONENT_COUNT>  (1) 
1

>  <PUBCHEM_CACTVS_TAUTO_COUNT>  (1) 
1

>  <PUBCHEM_CONFORMER_ID>  (1) 
0000360B00000001

>  <PUBCHEM_MMFF94_ENERGY>  (1) 
9.4452

>  <PUBCHEM_FEATURE_SELFOVERLAP>  (1) 
15.223

>  <PUBCHEM_SHAPE_FINGERPRINT>  (1) 
11062470 55 17385441029202698573
12897270 3 18272089413464959129
12932764 1 16988553585758284209
14325111 11 18338237166979250536
14390081 3 18413389843241900153
21293036 1 17203889690709646445
5460574 1 8646772188041216977

>  <PUBCHEM_SHAPE_MULTIPOLES>  (1) 
152.9
5.78
0.99
0.66
1.55
0.24
-0.01
-1.44
-0.66
-0.36
-0.03
0.17
-0.03
0.07

>  <PUBCHEM_SHAPE_SELFOVERLAP>  (1) 
283.634

>  <PUBCHEM_SHAPE_VOLUME>  (1) 
95.7

>  <PUBCHEM_COORDINATE_TYPE>  (1) 
2
5
10

$$$$
