13834
     RDKit          3D

 10  9  0  0  0  0  0  0  0  0999 V2000
   -0.0012    1.7680   -0.3659 Cl  0  0  0  0  0  0  0  0  0  0  0  0
    0.0011    0.0958    0.2125 N   0  0  0  0  0  0  0  0  0  0  0  0
    1.2003   -0.6189   -0.2081 C   0  0  0  0  0  0  0  0  0  0  0  0
   -1.2005   -0.6200   -0.2081 C   0  0  0  0  0  0  0  0  0  0  0  0
    2.4516    0.1367    0.2358 C   0  0  0  0  0  0  0  0  0  0  0  0
   -2.4514    0.1356    0.2366 C   0  0  0  0  0  0  0  0  0  0  0  0
    3.7221   -0.6074   -0.1770 C   0  0  0  0  0  0  0  0  0  0  0  0
   -3.7223   -0.5865   -0.2127 C   0  0  0  0  0  0  0  0  0  0  0  0
    4.9724    0.1560    0.2302 C   0  0  0  0  0  0  0  0  0  0  0  0
   -4.9722    0.1408    0.2567 C   0  0  0  0  0  0  0  0  0  0  0  0
  1  2  1  0
  2  3  1  0
  2  4  1  0
  3  5  1  0
  4  6  1  0
  5  7  1  0
  6  8  1  0
  7  9  1  0
  8 10  1  0
M  END
>  <PUBCHEM_COMPOUND_CID>  (1) 
13834

>  <PUBCHEM_CONFORMER_RMSD>  (1) 
0.6

>  <PUBCHEM_CONFORMER_DIVERSEORDER>  (1) 
1
41
54
26
22
92
78
74
98
96
34
2
55
40
72
7
91
57
60
49
101
3
45
100
61
24
95
58
83
13
15
76
46
6
99
70
84
19
48
25
87
37
89
65
94
69
10
16
35
23
11
43
97
21
17
93
63
20
71
68
52
29
88
36
31
51
18
66
38
59
5
33
14
50
81
47
86
90
9
73
12
28
27
39
53
56
32
8
82
64
4
80
62
42
85
75
79
30
67
44
77

>  <PUBCHEM_MMFF94_PARTIAL_CHARGES>  (1) 
4
1 -0.05
2 -0.49
3 0.27
4 0.27

>  <PUBCHEM_EFFECTIVE_ROTOR_COUNT>  (1) 
6

>  <PUBCHEM_PHARMACOPHORE_FEATURES>  (1) 
2
1 10 hydrophobe
1 9 hydrophobe

>  <PUBCHEM_HEAVY_ATOM_COUNT>  (1) 
10

>  <PUBCHEM_ATOM_DEF_STEREO_COUNT>  (1) 
0

>  <PUBCHEM_ATOM_UDEF_STEREO_COUNT>  (1) 
0

>  <PUBCHEM_BOND_DEF_STEREO_COUNT>  (1) 
0

>  <PUBCHEM_BOND_UDEF_STEREO_COUNT>  (1) 
0

>  <PUBCHEM_ISOTOPIC_ATOM_COUNT>  (1) 
0

>  <PUBCHEM_COMPONENT_COUNT>  (1) 
1

>  <PUBCHEM_CACTVS_TAUTO_COUNT>  (1) 
1

>  <PUBCHEM_CONFORMER_ID>  (1) 
0000360A00000001

>  <PUBCHEM_MMFF94_ENERGY>  (1) 
0.1033

>  <PUBCHEM_FEATURE_SELFOVERLAP>  (1) 
10.149

>  <PUBCHEM_SHAPE_FINGERPRINT>  (1) 
11062470 55 18131351912166719915
11401426 45 18411697690635986647
114248 4 14634871954695418723
12815109 37 18408321085889506605
14123238 8 18131350816881442214
14252887 29 18342186539552865066
15048467 5 17704354372517780200
17834072 33 17275097392260790572
17834076 25 17203891859952954571
18342897 14 18333732407884874369
187816 3 17385445414453887824
20645477 70 17560808667615934406
20671657 1 18118692255897441861
20711985 327 18413395349274091541
20719005 15 18411700984638597266
20767249 13 18259982678062459490
22485316 2 18410853261110531790
23402539 116 18413100667504781535
42788 4 18413671313701960938
449060 50 17418093230444697902
68521 5 18262237724729515645

>  <PUBCHEM_SHAPE_MULTIPOLES>  (1) 
202.68
9.96
1.12
0.67
0
0.53
-0.01
-1.09
0.96
0.01
-0.15
-0.01
0.02
-0.01

>  <PUBCHEM_SHAPE_SELFOVERLAP>  (1) 
349.163

>  <PUBCHEM_SHAPE_VOLUME>  (1) 
136.4

>  <PUBCHEM_COORDINATE_TYPE>  (1) 
2
5
10

$$$$
