13842
     RDKit          3D

  6  5  0  0  0  0  0  0  0  0999 V2000
    2.2169    0.1217   -0.6231 O   0  0  0  0  0  0  0  0  0  0  0  0
   -0.9633    1.3089    0.0859 O   0  0  0  0  0  0  0  0  0  0  0  0
    0.2073   -0.6935    0.2351 N   0  0  0  0  0  0  0  0  0  0  0  0
   -2.0303   -0.6904   -0.2868 N   0  0  0  0  0  0  0  0  0  0  0  0
    1.4938   -0.1282    0.5696 C   0  0  0  0  0  0  0  0  0  0  0  0
   -0.9244    0.0815    0.0193 C   0  0  0  0  0  0  0  0  0  0  0  0
  1  5  1  0
  2  6  2  0
  3  5  1  0
  3  6  1  0
  4  6  1  0
M  END
>  <PUBCHEM_COMPOUND_CID>  (1) 
13842

>  <PUBCHEM_CONFORMER_RMSD>  (1) 
0.4

>  <PUBCHEM_CONFORMER_DIVERSEORDER>  (1) 
1
3
4
2

>  <PUBCHEM_MMFF94_PARTIAL_CHARGES>  (1) 
10
1 -0.68
10 0.37
11 0.37
12 0.4
2 -0.57
3 -0.73
4 -0.8
5 0.58
6 0.69
9 0.37

>  <PUBCHEM_EFFECTIVE_ROTOR_COUNT>  (1) 
2

>  <PUBCHEM_PHARMACOPHORE_FEATURES>  (1) 
5
1 1 acceptor
1 1 donor
1 2 acceptor
1 3 donor
1 4 donor

>  <PUBCHEM_HEAVY_ATOM_COUNT>  (1) 
6

>  <PUBCHEM_ATOM_DEF_STEREO_COUNT>  (1) 
0

>  <PUBCHEM_ATOM_UDEF_STEREO_COUNT>  (1) 
0

>  <PUBCHEM_BOND_DEF_STEREO_COUNT>  (1) 
0

>  <PUBCHEM_BOND_UDEF_STEREO_COUNT>  (1) 
0

>  <PUBCHEM_ISOTOPIC_ATOM_COUNT>  (1) 
0

>  <PUBCHEM_COMPONENT_COUNT>  (1) 
1

>  <PUBCHEM_CACTVS_TAUTO_COUNT>  (1) 
3

>  <PUBCHEM_CONFORMER_ID>  (1) 
0000361200000001

>  <PUBCHEM_MMFF94_ENERGY>  (1) 
3.754

>  <PUBCHEM_FEATURE_SELFOVERLAP>  (1) 
25.467

>  <PUBCHEM_SHAPE_FINGERPRINT>  (1) 
139733 1 8502386558717455323
16714656 1 18343586269404914727
20096714 4 18188213074519351744
21040471 1 17981036414802684497
24536 1 17967810496832534802
29004967 10 15697999647760805714
5460574 1 9583525321381362026

>  <PUBCHEM_SHAPE_MULTIPOLES>  (1) 
101.78
2.66
0.95
0.69
0.56
0.22
0.01
-0.19
-0.42
-0.36
0.03
0.22
-0.01
-0.13

>  <PUBCHEM_SHAPE_SELFOVERLAP>  (1) 
182.297

>  <PUBCHEM_SHAPE_VOLUME>  (1) 
65.8

>  <PUBCHEM_COORDINATE_TYPE>  (1) 
2
5
10

$$$$
