13847
     RDKit          3D

 10  9  0  0  0  0  0  0  0  0999 V2000
   -0.6027   -0.3222   -0.0138 O   0  0  0  0  0  0  0  0  0  0  0  0
    2.9789    0.2859   -0.0124 O   0  0  0  0  0  0  0  0  0  0  0  0
   -4.1522    0.4573    0.0242 O   0  0  0  0  0  0  0  0  0  0  0  0
    0.5904    0.4491   -0.0083 C   0  0  0  0  0  0  0  0  0  0  0  0
    1.7842   -0.4861    0.0027 C   0  0  0  0  0  0  0  0  0  0  0  0
   -1.7589    0.5063   -0.0018 C   0  0  0  0  0  0  0  0  0  0  0  0
   -2.9961   -0.3707   -0.0084 C   0  0  0  0  0  0  0  0  0  0  0  0
    4.1336   -0.5411    0.0192 C   0  0  0  0  0  0  0  0  0  0  0  0
    5.3682    0.3348    0.0014 C   0  0  0  0  0  0  0  0  0  0  0  0
   -5.3455   -0.3133   -0.0026 C   0  0  0  0  0  0  0  0  0  0  0  0
  1  4  1  0
  1  6  1  0
  2  5  1  0
  2  8  1  0
  3  7  1  0
  3 10  1  0
  4  5  1  0
  6  7  1  0
  8  9  1  0
M  END
>  <PUBCHEM_COMPOUND_CID>  (1) 
13847

>  <PUBCHEM_CONFORMER_RMSD>  (1) 
0.6

>  <PUBCHEM_CONFORMER_DIVERSEORDER>  (1) 
5
65
206
87
158
143
173
45
170
191
180
14
160
9
153
36
184
37
205
34
185
95
175
161
53
171
32
168
204
98
149
172
91
133
220
156
213
177
10
139
217
48
56
46
128
183
199
214
58
134
78
103
167
190
51
92
166
186
219
41
59
215
4
102
126
120
52
165
77
189
57
178
50
20
81
152
148
90
19
137
138
176
40
147
157
124
218
192
6
119
15
49
181
194
182
208
150
74
8
210
12
141
187
162
82
130
144
196
61
22
151
212
111
135
203
97
38
174
140
116
69
26
84
42
55
64
193
88
146
16
169
62
2
89
13
115
209
31
33
145
179
200
30
216
44
108
154
67
70
142
202
99
159
94
21
105
73
201
129
188
207
75
79
66
11
39
86
104
122
63
163
132
195
211
197
164
28
127
107
117
155
54
18
83
93
68
112
136
23
3
121
71
47
72
43
118
96
1
76
27
106
7
131
35
80
113
198
110
125
114
60
85
123
17
109
24
100
101
29
25

>  <PUBCHEM_MMFF94_PARTIAL_CHARGES>  (1) 
9
1 -0.56
10 0.28
2 -0.56
3 -0.56
4 0.28
5 0.28
6 0.28
7 0.28
8 0.28

>  <PUBCHEM_EFFECTIVE_ROTOR_COUNT>  (1) 
7

>  <PUBCHEM_PHARMACOPHORE_FEATURES>  (1) 
3
1 1 acceptor
1 2 acceptor
1 3 acceptor

>  <PUBCHEM_HEAVY_ATOM_COUNT>  (1) 
10

>  <PUBCHEM_ATOM_DEF_STEREO_COUNT>  (1) 
0

>  <PUBCHEM_ATOM_UDEF_STEREO_COUNT>  (1) 
0

>  <PUBCHEM_BOND_DEF_STEREO_COUNT>  (1) 
0

>  <PUBCHEM_BOND_UDEF_STEREO_COUNT>  (1) 
0

>  <PUBCHEM_ISOTOPIC_ATOM_COUNT>  (1) 
0

>  <PUBCHEM_COMPONENT_COUNT>  (1) 
1

>  <PUBCHEM_CACTVS_TAUTO_COUNT>  (1) 
1

>  <PUBCHEM_CONFORMER_ID>  (1) 
0000361700000005

>  <PUBCHEM_MMFF94_ENERGY>  (1) 
16.5215

>  <PUBCHEM_FEATURE_SELFOVERLAP>  (1) 
15.223

>  <PUBCHEM_SHAPE_FINGERPRINT>  (1) 
11062470 55 18410575080368111618
114248 4 18260548926418752384
14123238 8 18410855460133436566
17834072 33 18272368723672657692
17834076 25 18410856563950607106
20645477 70 18270684152212270150
20719005 15 18410855460133456034
20767249 13 17749106690427849562
22485316 2 18408319982109519202
23402539 116 12035448363403982083
366044 4 18259704505805167731
42788 4 18410855460165130532

>  <PUBCHEM_SHAPE_MULTIPOLES>  (1) 
188.19
12.51
0.76
0.59
0.43
0.01
0
0.32
0.05
-0.06
0
-0.02
0
-0.01

>  <PUBCHEM_SHAPE_SELFOVERLAP>  (1) 
331.369

>  <PUBCHEM_SHAPE_VOLUME>  (1) 
124.6

>  <PUBCHEM_COORDINATE_TYPE>  (1) 
2
5
10

$$$$
