13859
     RDKit          3D

  9  9  0  0  1  0  0  0  0  0999 V2000
   -1.4370    0.4301   -0.4254 S   0  0  0  0  0  0  0  0  0  0  0  0
   -0.0794    0.9895    0.2461 O   0  0  0  0  0  0  0  0  0  0  0  0
   -1.4426   -1.0507    0.2126 O   0  0  0  0  0  0  0  0  0  0  0  0
   -2.5827    1.1866    0.1783 O   0  0  0  0  0  0  0  0  0  0  0  0
    1.1279    0.2444    0.0147 C   0  0  0  0  0  0  0  0  0  0  0  0
    0.9518   -1.2212    0.4595 C   0  0  0  0  0  0  0  0  0  0  0  0
   -0.3093   -1.8459   -0.1238 C   0  0  0  0  0  0  0  0  0  0  0  0
    1.5688    0.3622   -1.4533 C   0  0  0  0  0  0  0  0  0  0  0  0
    2.2024    0.9050    0.8913 C   0  0  0  0  0  0  0  0  0  0  0  0
  1  2  1  0
  1  3  1  0
  1  4  2  0
  2  5  1  0
  3  7  1  0
  5  6  1  0
  5  8  1  0
  5  9  1  0
  6  7  1  0
M  END
>  <PUBCHEM_COMPOUND_CID>  (1) 
13859

>  <PUBCHEM_CONFORMER_RMSD>  (1) 
0.4

>  <PUBCHEM_CONFORMER_DIVERSEORDER>  (1) 
2
6
4
3
5
1

>  <PUBCHEM_MMFF94_PARTIAL_CHARGES>  (1) 
6
1 0.6
2 -0.33
3 -0.33
4 -0.5
5 0.28
7 0.28

>  <PUBCHEM_EFFECTIVE_ROTOR_COUNT>  (1) 
1

>  <PUBCHEM_PHARMACOPHORE_FEATURES>  (1) 
3
1 4 acceptor
3 5 8 9 hydrophobe
6 1 2 3 5 6 7 rings

>  <PUBCHEM_HEAVY_ATOM_COUNT>  (1) 
9

>  <PUBCHEM_ATOM_DEF_STEREO_COUNT>  (1) 
0

>  <PUBCHEM_ATOM_UDEF_STEREO_COUNT>  (1) 
1

>  <PUBCHEM_BOND_DEF_STEREO_COUNT>  (1) 
0

>  <PUBCHEM_BOND_UDEF_STEREO_COUNT>  (1) 
0

>  <PUBCHEM_ISOTOPIC_ATOM_COUNT>  (1) 
0

>  <PUBCHEM_COMPONENT_COUNT>  (1) 
1

>  <PUBCHEM_CACTVS_TAUTO_COUNT>  (1) 
1

>  <PUBCHEM_CONFORMER_ID>  (1) 
0000362300000002

>  <PUBCHEM_MMFF94_ENERGY>  (1) 
19.7686

>  <PUBCHEM_FEATURE_SELFOVERLAP>  (1) 
15.223

>  <PUBCHEM_SHAPE_FINGERPRINT>  (1) 
12423570 1 12357506915348535502
12716758 59 18340779238020963342
13839132 238 18271527610405202788
16945 1 18123751121396274590
18185500 45 17754164598603182446
20653085 51 17317367026259336620
21040471 1 18409168813596689719
21922407 69 15792013462291796401
23211744 41 17773024478731209064
23235685 24 18334016055666773981
23552423 10 18114180865130648890
241688 4 16754095632816246723
24536 1 17676486180769981803
29004967 10 14996820187849312120
5084963 1 17967809440249506755

>  <PUBCHEM_SHAPE_MULTIPOLES>  (1) 
171.46
2.78
1.63
1.01
0.61
0.65
-0.31
-1.18
0.28
0.39
0.15
-0.56
-0.15
0.01

>  <PUBCHEM_SHAPE_SELFOVERLAP>  (1) 
323.896

>  <PUBCHEM_SHAPE_VOLUME>  (1) 
108

>  <PUBCHEM_COORDINATE_TYPE>  (1) 
2
5
10

$$$$
