13855
     RDKit          3D

  7  7  0  0  1  0  0  0  0  0999 V2000
   -0.0002    0.9707   -0.0021 O   0  0  0  0  0  0  0  0  0  0  0  0
   -0.7519   -1.2751   -0.0593 C   0  0  0  0  0  0  0  0  0  0  0  0
    0.7523   -1.2753    0.0592 C   0  0  0  0  0  0  0  0  0  0  0  0
   -1.0929    0.1301    0.4080 C   0  0  0  0  0  0  0  0  0  0  0  0
    1.0936    0.1298   -0.4084 C   0  0  0  0  0  0  0  0  0  0  0  0
   -2.3925    0.6596   -0.1666 C   0  0  0  0  0  0  0  0  0  0  0  0
    2.3916    0.6602    0.1692 C   0  0  0  0  0  0  0  0  0  0  0  0
  1  4  1  0
  1  5  1  0
  2  3  1  0
  2  4  1  0
  3  5  1  0
  4  6  1  0
  5  7  1  0
M  END
>  <PUBCHEM_COMPOUND_CID>  (1) 
13855

>  <PUBCHEM_CONFORMER_RMSD>  (1) 
0.4

>  <PUBCHEM_CONFORMER_DIVERSEORDER>  (1) 
1
2
3

>  <PUBCHEM_MMFF94_PARTIAL_CHARGES>  (1) 
3
1 -0.56
4 0.28
5 0.28

>  <PUBCHEM_EFFECTIVE_ROTOR_COUNT>  (1) 
1

>  <PUBCHEM_PHARMACOPHORE_FEATURES>  (1) 
2
1 1 acceptor
5 1 2 3 4 5 rings

>  <PUBCHEM_HEAVY_ATOM_COUNT>  (1) 
7

>  <PUBCHEM_ATOM_DEF_STEREO_COUNT>  (1) 
0

>  <PUBCHEM_ATOM_UDEF_STEREO_COUNT>  (1) 
2

>  <PUBCHEM_BOND_DEF_STEREO_COUNT>  (1) 
0

>  <PUBCHEM_BOND_UDEF_STEREO_COUNT>  (1) 
0

>  <PUBCHEM_ISOTOPIC_ATOM_COUNT>  (1) 
0

>  <PUBCHEM_COMPONENT_COUNT>  (1) 
1

>  <PUBCHEM_CACTVS_TAUTO_COUNT>  (1) 
1

>  <PUBCHEM_CONFORMER_ID>  (1) 
0000361F00000001

>  <PUBCHEM_MMFF94_ENERGY>  (1) 
9.6516

>  <PUBCHEM_FEATURE_SELFOVERLAP>  (1) 
10.148

>  <PUBCHEM_SHAPE_FINGERPRINT>  (1) 
137420 1 16087788468121584994
14390081 3 18272368672128002721
16714656 1 18337397131395022788
20096714 4 18410860944806751506
21040471 1 18409735062100838126
23552423 10 18261116322148920622
29004967 10 18041009405451860465

>  <PUBCHEM_SHAPE_MULTIPOLES>  (1) 
138.19
2.83
1.32
0.66
0
0.39
0
-1.03
0
0
0
0
0
0.04

>  <PUBCHEM_SHAPE_SELFOVERLAP>  (1) 
264.445

>  <PUBCHEM_SHAPE_VOLUME>  (1) 
87.9

>  <PUBCHEM_COORDINATE_TYPE>  (1) 
2
5
10

$$$$
