13854
     RDKit          3D

  7  7  0  0  0  0  0  0  0  0999 V2000
    2.5727   -0.3884    0.0003 O   0  0  0  0  0  0  0  0  0  0  0  0
   -0.2516   -1.0117   -0.0006 N   0  0  0  0  0  0  0  0  0  0  0  0
    0.2933    0.2457   -0.0005 C   0  0  0  0  0  0  0  0  0  0  0  0
   -0.7422    1.1542   -0.0001 C   0  0  0  0  0  0  0  0  0  0  0  0
   -1.6191   -0.9196    0.0005 C   0  0  0  0  0  0  0  0  0  0  0  0
   -1.9520    0.4169    0.0002 C   0  0  0  0  0  0  0  0  0  0  0  0
    1.6989    0.5028    0.0002 C   0  0  0  0  0  0  0  0  0  0  0  0
  1  7  2  0
  2  3  1  0
  2  5  1  0
  3  4  2  0
  3  7  1  0
  4  6  1  0
  5  6  2  0
M  END
>  <PUBCHEM_COMPOUND_CID>  (1) 
13854

>  <PUBCHEM_CONFORMER_RMSD>  (1) 
0.4

>  <PUBCHEM_CONFORMER_DIVERSEORDER>  (1) 
2
1

>  <PUBCHEM_MMFF94_PARTIAL_CHARGES>  (1) 
12
1 -0.57
10 0.15
11 0.15
12 0.06
2 0.03
3 -0.24
4 -0.15
5 -0.3
6 -0.15
7 0.59
8 0.27
9 0.15

>  <PUBCHEM_EFFECTIVE_ROTOR_COUNT>  (1) 
1

>  <PUBCHEM_PHARMACOPHORE_FEATURES>  (1) 
4
1 1 acceptor
1 2 cation
1 2 donor
5 2 3 4 5 6 rings

>  <PUBCHEM_HEAVY_ATOM_COUNT>  (1) 
7

>  <PUBCHEM_ATOM_DEF_STEREO_COUNT>  (1) 
0

>  <PUBCHEM_ATOM_UDEF_STEREO_COUNT>  (1) 
0

>  <PUBCHEM_BOND_DEF_STEREO_COUNT>  (1) 
0

>  <PUBCHEM_BOND_UDEF_STEREO_COUNT>  (1) 
0

>  <PUBCHEM_ISOTOPIC_ATOM_COUNT>  (1) 
0

>  <PUBCHEM_COMPONENT_COUNT>  (1) 
1

>  <PUBCHEM_CACTVS_TAUTO_COUNT>  (1) 
4

>  <PUBCHEM_CONFORMER_ID>  (1) 
0000361E00000002

>  <PUBCHEM_MMFF94_ENERGY>  (1) 
2.3029

>  <PUBCHEM_FEATURE_SELFOVERLAP>  (1) 
20.297

>  <PUBCHEM_SHAPE_FINGERPRINT>  (1) 
16714656 1 18409168805064855397
20096714 4 18409166584498237041
21040471 1 18266459806535561989
23552423 10 18259988188621609742
29004967 10 18339365287173182296
369184 2 15267339604661835870
5460574 1 9223234048377669952

>  <PUBCHEM_SHAPE_MULTIPOLES>  (1) 
133.21
2.86
1.13
0.59
1.36
0.01
0
-0.24
0
-0.31
0
-0.03
0.02
0

>  <PUBCHEM_SHAPE_SELFOVERLAP>  (1) 
275.644

>  <PUBCHEM_SHAPE_VOLUME>  (1) 
77.2

>  <PUBCHEM_COORDINATE_TYPE>  (1) 
2
5
10

$$$$
