13857
     RDKit          3D

  8  8  0  0  0  0  0  0  0  0999 V2000
   -2.6963    0.0001    0.0000 O   0  0  0  0  0  0  0  0  0  0  0  0
   -1.4227   -0.0001    0.0000 N   0  0  0  0  0  0  0  0  0  0  0  0
    1.3656   -0.0001    0.0001 C   0  0  0  0  0  0  0  0  0  0  0  0
    0.6697   -1.2039    0.0001 C   0  0  0  0  0  0  0  0  0  0  0  0
    0.6696    1.2039    0.0000 C   0  0  0  0  0  0  0  0  0  0  0  0
    2.8567    0.0001   -0.0001 C   0  0  0  0  0  0  0  0  0  0  0  0
   -0.7213   -1.1903   -0.0001 C   0  0  0  0  0  0  0  0  0  0  0  0
   -0.7213    1.1902    0.0000 C   0  0  0  0  0  0  0  0  0  0  0  0
  1  2  1  0
  2  7  2  0
  2  8  1  0
  3  4  2  0
  3  5  1  0
  3  6  1  0
  4  7  1  0
  5  8  2  0
M  CHG  2   1  -1   2   1
M  END
>  <PUBCHEM_COMPOUND_CID>  (1) 
13857

>  <PUBCHEM_CONFORMER_RMSD>  (1) 
0.4

>  <PUBCHEM_CONFORMER_DIVERSEORDER>  (1) 
1

>  <PUBCHEM_MMFF94_PARTIAL_CHARGES>  (1) 
12
1 -0.75
10 0.15
14 0.15
15 0.15
2 0.57
3 -0.14
4 -0.15
5 -0.15
6 0.14
7 -0.06
8 -0.06
9 0.15

>  <PUBCHEM_EFFECTIVE_ROTOR_COUNT>  (1) 
0

>  <PUBCHEM_PHARMACOPHORE_FEATURES>  (1) 
2
1 1 anion
6 2 3 4 5 7 8 rings

>  <PUBCHEM_HEAVY_ATOM_COUNT>  (1) 
8

>  <PUBCHEM_ATOM_DEF_STEREO_COUNT>  (1) 
0

>  <PUBCHEM_ATOM_UDEF_STEREO_COUNT>  (1) 
0

>  <PUBCHEM_BOND_DEF_STEREO_COUNT>  (1) 
0

>  <PUBCHEM_BOND_UDEF_STEREO_COUNT>  (1) 
0

>  <PUBCHEM_ISOTOPIC_ATOM_COUNT>  (1) 
0

>  <PUBCHEM_COMPONENT_COUNT>  (1) 
1

>  <PUBCHEM_CACTVS_TAUTO_COUNT>  (1) 
1

>  <PUBCHEM_CONFORMER_ID>  (1) 
0000362100000001

>  <PUBCHEM_MMFF94_ENERGY>  (1) 
17.4952

>  <PUBCHEM_FEATURE_SELFOVERLAP>  (1) 
10.148

>  <PUBCHEM_SHAPE_FINGERPRINT>  (1) 
16714656 1 18410858763221750094
18185500 45 18410289233157002110
20096714 4 18338517546459803787
21040471 1 18410856559713662086
23235685 24 18410853261131364452
23402655 69 18195226842804844341
23552423 10 18044945571412333886
29004967 10 18261399935512676281
5084963 1 18344146985980512928

>  <PUBCHEM_SHAPE_MULTIPOLES>  (1) 
153.79
3.07
1.36
0.59
0.31
0
0
0
0
-0.08
0
0.05
0
0

>  <PUBCHEM_SHAPE_SELFOVERLAP>  (1) 
314.316

>  <PUBCHEM_SHAPE_VOLUME>  (1) 
89.4

>  <PUBCHEM_COORDINATE_TYPE>  (1) 
2
5
10

$$$$
