13868
     RDKit          3D

 10 10  0  0  0  0  0  0  0  0999 V2000
    3.9416   -0.8776   -0.8386 Br  0  0  0  0  0  0  0  0  0  0  0  0
    1.0551   -0.2444    0.3323 N   0  0  0  0  0  0  0  0  0  0  0  0
    1.9396    0.8737    0.2198 C   0  0  0  0  0  0  0  0  0  0  0  0
   -0.3396   -0.1390    0.1506 C   0  0  0  0  0  0  0  0  0  0  0  0
   -0.9118    1.0963   -0.1529 C   0  0  0  0  0  0  0  0  0  0  0  0
   -1.1466   -1.2700    0.2737 C   0  0  0  0  0  0  0  0  0  0  0  0
    3.3766    0.4564    0.4660 C   0  0  0  0  0  0  0  0  0  0  0  0
   -2.2911    1.2007   -0.3334 C   0  0  0  0  0  0  0  0  0  0  0  0
   -2.5258   -1.1658    0.0931 C   0  0  0  0  0  0  0  0  0  0  0  0
   -3.0980    0.0696   -0.2105 C   0  0  0  0  0  0  0  0  0  0  0  0
  1  7  1  0
  2  3  1  0
  2  4  1  0
  3  7  1  0
  4  5  2  0
  4  6  1  0
  5  8  1  0
  6  9  2  0
  8 10  2  0
  9 10  1  0
M  END
>  <PUBCHEM_COMPOUND_CID>  (1) 
13868

>  <PUBCHEM_CONFORMER_RMSD>  (1) 
0.6

>  <PUBCHEM_CONFORMER_DIVERSEORDER>  (1) 
2
5
7
4
9
3
6
1
8

>  <PUBCHEM_MMFF94_PARTIAL_CHARGES>  (1) 
16
1 -0.23
10 -0.15
13 0.4
14 0.15
15 0.15
18 0.15
19 0.15
2 -0.87
20 0.15
3 0.37
4 0.1
5 -0.15
6 -0.15
7 0.23
8 -0.15
9 -0.15

>  <PUBCHEM_EFFECTIVE_ROTOR_COUNT>  (1) 
3

>  <PUBCHEM_PHARMACOPHORE_FEATURES>  (1) 
4
1 1 hydrophobe
1 2 cation
1 2 donor
6 4 5 6 8 9 10 rings

>  <PUBCHEM_HEAVY_ATOM_COUNT>  (1) 
10

>  <PUBCHEM_ATOM_DEF_STEREO_COUNT>  (1) 
0

>  <PUBCHEM_ATOM_UDEF_STEREO_COUNT>  (1) 
0

>  <PUBCHEM_BOND_DEF_STEREO_COUNT>  (1) 
0

>  <PUBCHEM_BOND_UDEF_STEREO_COUNT>  (1) 
0

>  <PUBCHEM_ISOTOPIC_ATOM_COUNT>  (1) 
0

>  <PUBCHEM_COMPONENT_COUNT>  (1) 
1

>  <PUBCHEM_CACTVS_TAUTO_COUNT>  (1) 
1

>  <PUBCHEM_CONFORMER_ID>  (1) 
0000362C00000002

>  <PUBCHEM_MMFF94_ENERGY>  (1) 
29.3673

>  <PUBCHEM_FEATURE_SELFOVERLAP>  (1) 
20.297

>  <PUBCHEM_SHAPE_FINGERPRINT>  (1) 
11062470 55 11963388535560956341
12032990 46 18337114565623381915
12716758 59 18410291414973988899
12932764 1 17530955882801371368
13024252 1 16660360394406467817
14144814 61 18260260837440332480
14325111 11 18410571794997848016
14993402 34 17312822688413436959
15219456 202 18273215300634521510
1986462 14 18408325471167238502
20201158 50 18202006491040142798
20279233 1 18273213110507220530
20645464 45 18272939310336316111
20645477 70 17704072863687720550
20653085 51 18333739008806737232
20871998 184 18269839885895091695
23552423 10 18041839639699153114
369184 2 18272647982630801409
57812782 119 18272366477721155956
93112 12 18409451392849448556

>  <PUBCHEM_SHAPE_MULTIPOLES>  (1) 
206.76
6.54
1.38
0.77
5.2
0.08
0.07
0.88
1.05
-0.36
0.04
0.34
0.04
0.64

>  <PUBCHEM_SHAPE_SELFOVERLAP>  (1) 
400.764

>  <PUBCHEM_SHAPE_VOLUME>  (1) 
128.6

>  <PUBCHEM_COORDINATE_TYPE>  (1) 
2
5
10

$$$$
