13869
     RDKit          3D

 11 12  0  0  0  0  0  0  0  0999 V2000
    1.7019    0.1538    0.0000 P   0  0  0  0  0  0  0  0  0  0  0  0
    1.2383   -1.3991   -0.0341 O   0  0  0  0  0  0  0  0  0  0  0  0
    0.8742    0.7835   -1.2434 O   0  0  0  0  0  0  0  0  0  0  0  0
    0.8840    0.7252    1.2776 O   0  0  0  0  0  0  0  0  0  0  0  0
    3.1795    0.4003    0.0000 O   0  0  0  0  0  0  0  0  0  0  0  0
   -0.9503   -0.2886    0.0000 C   0  0  0  0  0  0  0  0  0  0  0  0
   -0.1733   -1.6286   -0.0340 C   0  0  0  0  0  0  0  0  0  0  0  0
   -0.5359    0.5450   -1.2384 C   0  0  0  0  0  0  0  0  0  0  0  0
   -0.5263    0.4871    1.2723 C   0  0  0  0  0  0  0  0  0  0  0  0
   -2.4576   -0.5402    0.0000 C   0  0  0  0  0  0  0  0  0  0  0  0
   -3.2346    0.7617    0.0000 C   0  0  0  0  0  0  0  0  0  0  0  0
  1  2  1  0
  1  3  1  0
  1  4  1  0
  1  5  2  0
  2  7  1  0
  3  8  1  0
  4  9  1  0
  6  7  1  0
  6  8  1  0
  6  9  1  0
  6 10  1  0
 10 11  1  0
M  END
>  <PUBCHEM_COMPOUND_CID>  (1) 
13869

>  <PUBCHEM_CONFORMER_RMSD>  (1) 
0.6

>  <PUBCHEM_CONFORMER_DIVERSEORDER>  (1) 
1

>  <PUBCHEM_MMFF94_PARTIAL_CHARGES>  (1) 
8
1 1.51
2 -0.55
3 -0.55
4 -0.55
5 -0.7
7 0.28
8 0.28
9 0.28

>  <PUBCHEM_EFFECTIVE_ROTOR_COUNT>  (1) 
2.2

>  <PUBCHEM_PHARMACOPHORE_FEATURES>  (1) 
3
1 11 hydrophobe
1 5 acceptor
8 1 2 3 4 6 7 8 9 rings

>  <PUBCHEM_HEAVY_ATOM_COUNT>  (1) 
11

>  <PUBCHEM_ATOM_DEF_STEREO_COUNT>  (1) 
0

>  <PUBCHEM_ATOM_UDEF_STEREO_COUNT>  (1) 
0

>  <PUBCHEM_BOND_DEF_STEREO_COUNT>  (1) 
0

>  <PUBCHEM_BOND_UDEF_STEREO_COUNT>  (1) 
0

>  <PUBCHEM_ISOTOPIC_ATOM_COUNT>  (1) 
0

>  <PUBCHEM_COMPONENT_COUNT>  (1) 
1

>  <PUBCHEM_CACTVS_TAUTO_COUNT>  (1) 
1

>  <PUBCHEM_CONFORMER_ID>  (1) 
0000362D00000001

>  <PUBCHEM_MMFF94_ENERGY>  (1) 
28.8742

>  <PUBCHEM_FEATURE_SELFOVERLAP>  (1) 
15.223

>  <PUBCHEM_SHAPE_FINGERPRINT>  (1) 
10219947 1 18040152907405478639
12423570 1 9042281346505101966
13024252 1 14418124145554626150
137420 1 9057159916398637067
14993402 34 18041277767745762503
15775835 57 18202003205490154009
16945 1 18411138047543717071
21040471 1 18339079397118031055
23235685 24 18334289881322392221
29004967 10 17822017492619886555
369184 2 17988925604237334730
5084963 1 18334293205864547059
528886 8 18259701203080402639
68250623 7 16953360296979781144

>  <PUBCHEM_SHAPE_MULTIPOLES>  (1) 
206.75
3.64
1.24
1.13
0.69
0.49
0.03
-0.76
0
-0.01
-0.03
-0.06
-0.34
0

>  <PUBCHEM_SHAPE_SELFOVERLAP>  (1) 
413.411

>  <PUBCHEM_SHAPE_VOLUME>  (1) 
124.7

>  <PUBCHEM_COORDINATE_TYPE>  (1) 
2
5
10

$$$$
