13861
     RDKit          3D

  9  9  0  0  1  0  0  0  0  0999 V2000
   -1.0888   -1.0372   -0.0008 O   0  0  0  0  0  0  0  0  0  0  0  0
   -0.7808    0.3139   -0.3835 C   0  0  0  0  0  0  0  0  0  0  0  0
   -1.9655    1.1581    0.0532 C   0  0  0  0  0  0  0  0  0  0  0  0
    0.5312    0.7409    0.2455 C   0  0  0  0  0  0  0  0  0  0  0  0
   -3.1093    0.1950   -0.1434 C   0  0  0  0  0  0  0  0  0  0  0  0
   -2.4918   -1.1172    0.2919 C   0  0  0  0  0  0  0  0  0  0  0  0
    1.6962   -0.1131   -0.2544 C   0  0  0  0  0  0  0  0  0  0  0  0
    3.0214    0.3424    0.3560 C   0  0  0  0  0  0  0  0  0  0  0  0
    4.1874   -0.4828   -0.1645 C   0  0  0  0  0  0  0  0  0  0  0  0
  1  2  1  0
  1  6  1  0
  2  3  1  0
  2  4  1  0
  3  5  1  0
  4  7  1  0
  5  6  1  0
  7  8  1  0
  8  9  1  0
M  END
>  <PUBCHEM_COMPOUND_CID>  (1) 
13861

>  <PUBCHEM_CONFORMER_RMSD>  (1) 
0.6

>  <PUBCHEM_CONFORMER_DIVERSEORDER>  (1) 
1
26
23
2
24
21
25
6
27
15
13
22
18
10
4
19
8
20
14
16
9
5
17
3
12
7
11

>  <PUBCHEM_MMFF94_PARTIAL_CHARGES>  (1) 
3
1 -0.56
2 0.28
6 0.28

>  <PUBCHEM_EFFECTIVE_ROTOR_COUNT>  (1) 
4

>  <PUBCHEM_PHARMACOPHORE_FEATURES>  (1) 
3
1 1 acceptor
1 9 hydrophobe
5 1 2 3 5 6 rings

>  <PUBCHEM_HEAVY_ATOM_COUNT>  (1) 
9

>  <PUBCHEM_ATOM_DEF_STEREO_COUNT>  (1) 
0

>  <PUBCHEM_ATOM_UDEF_STEREO_COUNT>  (1) 
1

>  <PUBCHEM_BOND_DEF_STEREO_COUNT>  (1) 
0

>  <PUBCHEM_BOND_UDEF_STEREO_COUNT>  (1) 
0

>  <PUBCHEM_ISOTOPIC_ATOM_COUNT>  (1) 
0

>  <PUBCHEM_COMPONENT_COUNT>  (1) 
1

>  <PUBCHEM_CACTVS_TAUTO_COUNT>  (1) 
1

>  <PUBCHEM_CONFORMER_ID>  (1) 
0000362500000001

>  <PUBCHEM_MMFF94_ENERGY>  (1) 
6.7396

>  <PUBCHEM_FEATURE_SELFOVERLAP>  (1) 
15.223

>  <PUBCHEM_SHAPE_FINGERPRINT>  (1) 
11062470 55 16271927103566803808
12932764 1 17313093155779461708
14325111 11 18410573989842115776
14577589 140 18273213105663744343
190213 19 18040152920490847028
20201158 50 18272934903620918062
20645464 45 17988931058671746975
20871998 184 18200598128182424615
22485316 2 18409443687752115322
23402539 116 17917986171145115333
23552423 10 18042123335337577037
3248919 1 18201723942157967228
369184 2 16128657457349882157

>  <PUBCHEM_SHAPE_MULTIPOLES>  (1) 
179.35
6.46
1.11
0.67
5.34
0.06
0
0.91
-0.01
-0.61
-0.06
0.04
-0.01
0.2

>  <PUBCHEM_SHAPE_SELFOVERLAP>  (1) 
338.58

>  <PUBCHEM_SHAPE_VOLUME>  (1) 
113.4

>  <PUBCHEM_COORDINATE_TYPE>  (1) 
2
5
10

$$$$
