13877
     RDKit          3D

 11 11  0  0  0  0  0  0  0  0999 V2000
   -2.0978   -0.0154   -0.0747 C   0  0  0  0  0  0  0  0  0  0  0  0
   -0.9842    0.0008    1.0104 C   0  0  0  0  0  0  0  0  0  0  0  0
   -1.9751    1.2845   -0.8964 C   0  0  0  0  0  0  0  0  0  0  0  0
   -1.9385   -1.2074   -1.0340 C   0  0  0  0  0  0  0  0  0  0  0  0
   -3.5015   -0.0567    0.5531 C   0  0  0  0  0  0  0  0  0  0  0  0
    0.4451   -0.0002    0.5204 C   0  0  0  0  0  0  0  0  0  0  0  0
    1.0908   -1.2084    0.3147 C   0  0  0  0  0  0  0  0  0  0  0  0
    1.0826    1.2073    0.2865 C   0  0  0  0  0  0  0  0  0  0  0  0
    2.4105   -1.2093   -0.1372 C   0  0  0  0  0  0  0  0  0  0  0  0
    2.4021    1.2065   -0.1656 C   0  0  0  0  0  0  0  0  0  0  0  0
    3.0661   -0.0018   -0.3773 C   0  0  0  0  0  0  0  0  0  0  0  0
  1  2  1  0
  1  3  1  0
  1  4  1  0
  1  5  1  0
  2  6  1  0
  6  7  2  0
  6  8  1  0
  7  9  1  0
  8 10  2  0
  9 11  2  0
 10 11  1  0
M  END
>  <PUBCHEM_COMPOUND_CID>  (1) 
13877

>  <PUBCHEM_CONFORMER_RMSD>  (1) 
0.4

>  <PUBCHEM_CONFORMER_DIVERSEORDER>  (1) 
1
2

>  <PUBCHEM_MMFF94_PARTIAL_CHARGES>  (1) 
12
10 -0.15
11 -0.15
2 0.14
23 0.15
24 0.15
25 0.15
26 0.15
27 0.15
6 -0.14
7 -0.15
8 -0.15
9 -0.15

>  <PUBCHEM_EFFECTIVE_ROTOR_COUNT>  (1) 
2

>  <PUBCHEM_PHARMACOPHORE_FEATURES>  (1) 
2
4 1 3 4 5 hydrophobe
6 6 7 8 9 10 11 rings

>  <PUBCHEM_HEAVY_ATOM_COUNT>  (1) 
11

>  <PUBCHEM_ATOM_DEF_STEREO_COUNT>  (1) 
0

>  <PUBCHEM_ATOM_UDEF_STEREO_COUNT>  (1) 
0

>  <PUBCHEM_BOND_DEF_STEREO_COUNT>  (1) 
0

>  <PUBCHEM_BOND_UDEF_STEREO_COUNT>  (1) 
0

>  <PUBCHEM_ISOTOPIC_ATOM_COUNT>  (1) 
0

>  <PUBCHEM_COMPONENT_COUNT>  (1) 
1

>  <PUBCHEM_CACTVS_TAUTO_COUNT>  (1) 
1

>  <PUBCHEM_CONFORMER_ID>  (1) 
0000363500000001

>  <PUBCHEM_MMFF94_ENERGY>  (1) 
31.0928

>  <PUBCHEM_FEATURE_SELFOVERLAP>  (1) 
10.148

>  <PUBCHEM_SHAPE_FINGERPRINT>  (1) 
11031198 65 18261122880162795102
12897270 3 18335976558018849229
12932764 1 18412258441265459040
14128692 85 18060134370887698678
14325111 11 18410013264291422257
15310529 11 18333730191481335027
15775835 57 18341336681435986084
16945 1 18262227915092133466
17844478 74 18041008336242432537
19422 9 18202007650670652515
19973954 147 18186801348633740517
20201158 50 18333734602286154122
20653085 51 18261114019751115753
21028194 46 14996278128258018544
22802520 49 17896876560617822764
230 275 17603855728510659312
23235685 24 17530964713132695725
23402539 116 17458898335754791638
23402655 69 18410007715557841765
23552423 10 18341606066106261967
5084963 1 18412824724182093400
528886 8 18410572907230769610
63268167 104 18413110550187502320
8030462 33 17530952562749252235
9939556 21 18202565102775615765

>  <PUBCHEM_SHAPE_MULTIPOLES>  (1) 
226.37
5.06
1.43
0.97
0.8
0.03
0.04
-0.04
0.4
-0.37
0.23
0.44
-0.03
-0.01

>  <PUBCHEM_SHAPE_SELFOVERLAP>  (1) 
456.666

>  <PUBCHEM_SHAPE_VOLUME>  (1) 
131.1

>  <PUBCHEM_COORDINATE_TYPE>  (1) 
2
5
10

$$$$
