13878
     RDKit          3D

 11 11  0  0  0  0  0  0  0  0999 V2000
   -1.7407   -2.7936   -0.0023 Cl  0  0  0  0  0  0  0  0  0  0  0  0
    1.8658    0.5932    0.0105 N   0  0  0  0  0  0  0  0  0  0  0  0
   -0.3479    1.3685    0.0034 N   0  0  0  0  0  0  0  0  0  0  0  0
    0.1303   -0.9829    0.0030 N   0  0  0  0  0  0  0  0  0  0  0  0
   -2.1452   -0.2213   -0.0045 N   0  0  0  0  0  0  0  0  0  0  0  0
   -2.5822    2.0820   -0.0040 N   0  0  0  0  0  0  0  0  0  0  0  0
    2.8888   -0.4145    0.0131 C   0  0  0  0  0  0  0  0  0  0  0  0
    0.5033    0.3173    0.0053 C   0  0  0  0  0  0  0  0  0  0  0  0
    4.2728    0.1999   -0.0207 C   0  0  0  0  0  0  0  0  0  0  0  0
   -1.6461    1.0253   -0.0016 C   0  0  0  0  0  0  0  0  0  0  0  0
   -1.1989   -1.1739   -0.0021 C   0  0  0  0  0  0  0  0  0  0  0  0
  1 11  1  0
  2  7  1  0
  2  8  1  0
  3  8  2  0
  3 10  1  0
  4  8  1  0
  4 11  2  0
  5 10  2  0
  5 11  1  0
  6 10  1  0
  7  9  1  0
M  END
>  <PUBCHEM_COMPOUND_CID>  (1) 
13878

>  <PUBCHEM_CONFORMER_RMSD>  (1) 
0.4

>  <PUBCHEM_CONFORMER_DIVERSEORDER>  (1) 
1
7
4
5
3
6
8
2

>  <PUBCHEM_MMFF94_PARTIAL_CHARGES>  (1) 
13
1 -0.18
10 0.72
11 0.8
14 0.4
18 0.4
19 0.4
2 -0.87
3 -0.62
4 -0.62
5 -0.62
6 -0.9
7 0.37
8 0.72

>  <PUBCHEM_EFFECTIVE_ROTOR_COUNT>  (1) 
2

>  <PUBCHEM_PHARMACOPHORE_FEATURES>  (1) 
5
1 2 donor
1 6 donor
4 2 3 4 8 cation
4 3 5 6 10 cation
6 3 4 5 8 10 11 rings

>  <PUBCHEM_HEAVY_ATOM_COUNT>  (1) 
11

>  <PUBCHEM_ATOM_DEF_STEREO_COUNT>  (1) 
0

>  <PUBCHEM_ATOM_UDEF_STEREO_COUNT>  (1) 
0

>  <PUBCHEM_BOND_DEF_STEREO_COUNT>  (1) 
0

>  <PUBCHEM_BOND_UDEF_STEREO_COUNT>  (1) 
0

>  <PUBCHEM_ISOTOPIC_ATOM_COUNT>  (1) 
0

>  <PUBCHEM_COMPONENT_COUNT>  (1) 
1

>  <PUBCHEM_CACTVS_TAUTO_COUNT>  (1) 
9

>  <PUBCHEM_CONFORMER_ID>  (1) 
0000363600000001

>  <PUBCHEM_MMFF94_ENERGY>  (1) 
25.3773

>  <PUBCHEM_FEATURE_SELFOVERLAP>  (1) 
25.414

>  <PUBCHEM_SHAPE_FINGERPRINT>  (1) 
12716758 59 18413101753936224610
13024252 1 14779546781500102509
13380535 76 18269834229074749927
14325111 11 18338516339980272928
15669948 3 18409443704847711874
16945 1 18410574011021540179
20524608 308 18413671305217703294
20871998 184 18201161060765981734
21040471 1 18338797806203479713
23402539 116 18342447158626919951
23552423 10 18115868688403662054
23559900 14 18271805680342889394
3071541 12 17331401969801715589
366044 4 18337952281983350569
6333449 129 18412542098175337284
75552 356 18410575102191088318

>  <PUBCHEM_SHAPE_MULTIPOLES>  (1) 
203.34
5.2
2.28
0.58
6.86
0.81
0
-0.07
0.03
-2.78
0
0.02
0.04
0

>  <PUBCHEM_SHAPE_SELFOVERLAP>  (1) 
400.318

>  <PUBCHEM_SHAPE_VOLUME>  (1) 
119.5

>  <PUBCHEM_COORDINATE_TYPE>  (1) 
2
5
10

$$$$
