13873
     RDKit          3D

 11 12  0  0  0  0  0  0  0  0999 V2000
    3.7803   -1.0390    0.0009 Cl  0  0  0  0  0  0  0  0  0  0  0  0
   -1.9423    1.3593   -0.0001 S   0  0  0  0  0  0  0  0  0  0  0  0
   -1.4158   -1.1656   -0.0005 N   0  0  0  0  0  0  0  0  0  0  0  0
   -0.1980   -0.5013   -0.0004 C   0  0  0  0  0  0  0  0  0  0  0  0
   -0.2819    0.8943   -0.0001 C   0  0  0  0  0  0  0  0  0  0  0  0
   -2.3941   -0.2904   -0.0003 C   0  0  0  0  0  0  0  0  0  0  0  0
    1.0791   -1.1033   -0.0006 C   0  0  0  0  0  0  0  0  0  0  0  0
    0.8638    1.7061    0.0001 C   0  0  0  0  0  0  0  0  0  0  0  0
    2.2239   -0.3012   -0.0003 C   0  0  0  0  0  0  0  0  0  0  0  0
    2.1154    1.0851    0.0001 C   0  0  0  0  0  0  0  0  0  0  0  0
   -3.8303   -0.6439    0.0011 C   0  0  0  0  0  0  0  0  0  0  0  0
  1  9  1  0
  2  5  1  0
  2  6  1  0
  3  4  1  0
  3  6  2  0
  4  5  2  0
  4  7  1  0
  5  8  1  0
  6 11  1  0
  7  9  2  0
  8 10  2  0
  9 10  1  0
M  END
>  <PUBCHEM_COMPOUND_CID>  (1) 
13873

>  <PUBCHEM_CONFORMER_RMSD>  (1) 
0.4

>  <PUBCHEM_CONFORMER_DIVERSEORDER>  (1) 
1

>  <PUBCHEM_MMFF94_PARTIAL_CHARGES>  (1) 
14
1 -0.18
10 -0.15
11 0.18
12 0.15
13 0.15
14 0.15
2 -0.08
3 -0.57
4 0.23
5 0.04
6 0.2
7 -0.15
8 -0.15
9 0.18

>  <PUBCHEM_EFFECTIVE_ROTOR_COUNT>  (1) 
0

>  <PUBCHEM_PHARMACOPHORE_FEATURES>  (1) 
3
1 3 acceptor
5 2 3 4 5 6 rings
6 4 5 7 8 9 10 rings

>  <PUBCHEM_HEAVY_ATOM_COUNT>  (1) 
11

>  <PUBCHEM_ATOM_DEF_STEREO_COUNT>  (1) 
0

>  <PUBCHEM_ATOM_UDEF_STEREO_COUNT>  (1) 
0

>  <PUBCHEM_BOND_DEF_STEREO_COUNT>  (1) 
0

>  <PUBCHEM_BOND_UDEF_STEREO_COUNT>  (1) 
0

>  <PUBCHEM_ISOTOPIC_ATOM_COUNT>  (1) 
0

>  <PUBCHEM_COMPONENT_COUNT>  (1) 
1

>  <PUBCHEM_CACTVS_TAUTO_COUNT>  (1) 
1

>  <PUBCHEM_CONFORMER_ID>  (1) 
0000363100000001

>  <PUBCHEM_MMFF94_ENERGY>  (1) 
17.684

>  <PUBCHEM_FEATURE_SELFOVERLAP>  (1) 
15.294

>  <PUBCHEM_SHAPE_FINGERPRINT>  (1) 
10130415 120 18408885135328123746
10219947 1 18272090512850064335
11206711 2 18334857173651442909
11471102 20 18410288142641426013
11769659 78 18412539924906106743
12032990 46 18411422778300959854
12932764 1 17489302035623342325
14128692 85 18411703183814859660
14325111 11 18410573993799713313
16945 1 18410575123381146565
17844478 74 18041002864638694093
193761 8 17834396005216214982
200 152 18060125540867390141
20201158 50 18410012121893652299
20645477 70 18411132567635290391
20871998 184 18130501912463847246
20871998 22 18200039425988439302
21040471 1 17978510059273083108
21501502 16 18410581677491061069
21501925 9 18410564094232126306
23402539 116 18271795805342839607
23402655 69 18340474592102178357
23463225 33 18409167671520536830
23552423 10 18261111915090267324
23559900 14 18197494014364315126
2748010 2 18410567379629257388
369184 2 14979953648997537308
5084963 1 18342176669633350161
528886 8 18339357590533765555
7364860 26 18270119149143005824
8809292 202 18187370968877250467

>  <PUBCHEM_SHAPE_MULTIPOLES>  (1) 
227.11
5.47
1.64
0.62
0.18
0.46
0
-1.97
0
-0.15
0
-0.01
0.02
0

>  <PUBCHEM_SHAPE_SELFOVERLAP>  (1) 
469.35

>  <PUBCHEM_SHAPE_VOLUME>  (1) 
133.5

>  <PUBCHEM_COORDINATE_TYPE>  (1) 
2
5
10

$$$$
