13885
     RDKit          3D

 12 13  0  0  1  0  0  0  0  0999 V2000
    0.6297    0.7092   -0.2975 C   0  0  0  0  0  0  0  0  0  0  0  0
    0.6297   -0.7093    0.2977 C   0  0  0  0  0  0  0  0  0  0  0  0
   -0.6330    1.4696    0.1237 C   0  0  0  0  0  0  0  0  0  0  0  0
   -0.6330   -1.4697   -0.1234 C   0  0  0  0  0  0  0  0  0  0  0  0
   -1.9154    0.7209   -0.2821 C   0  0  0  0  0  0  0  0  0  0  0  0
   -1.9155   -0.7209    0.2822 C   0  0  0  0  0  0  0  0  0  0  0  0
    1.8956    1.4722    0.1152 C   0  0  0  0  0  0  0  0  0  0  0  0
    1.8955   -1.4723   -0.1153 C   0  0  0  0  0  0  0  0  0  0  0  0
    3.1593    0.7104   -0.2781 C   0  0  0  0  0  0  0  0  0  0  0  0
    3.1592   -0.7103    0.2779 C   0  0  0  0  0  0  0  0  0  0  0  0
   -3.1361    1.5275    0.1705 C   0  0  0  0  0  0  0  0  0  0  0  0
   -3.1359   -1.5273   -0.1708 C   0  0  0  0  0  0  0  0  0  0  0  0
  1  2  1  0
  1  3  1  0
  1  7  1  0
  2  4  1  0
  2  8  1  0
  3  5  1  0
  4  6  1  0
  5  6  1  0
  5 11  1  0
  6 12  1  0
  7  9  1  0
  8 10  1  0
  9 10  1  0
M  END
>  <PUBCHEM_COMPOUND_CID>  (1) 
13885

>  <PUBCHEM_CONFORMER_RMSD>  (1) 
0.4

>  <PUBCHEM_CONFORMER_DIVERSEORDER>  (1) 
1
12
19
2
20
3
13
5
14
8
7
17
15
21
16
10
6
18
9
4
11

>  <PUBCHEM_MMFF94_PARTIAL_CHARGES>  (1) 
0

>  <PUBCHEM_EFFECTIVE_ROTOR_COUNT>  (1) 
1.6

>  <PUBCHEM_PHARMACOPHORE_FEATURES>  (1) 
2
6 1 2 3 4 5 6 rings
6 1 2 7 8 9 10 rings

>  <PUBCHEM_HEAVY_ATOM_COUNT>  (1) 
12

>  <PUBCHEM_ATOM_DEF_STEREO_COUNT>  (1) 
0

>  <PUBCHEM_ATOM_UDEF_STEREO_COUNT>  (1) 
4

>  <PUBCHEM_BOND_DEF_STEREO_COUNT>  (1) 
0

>  <PUBCHEM_BOND_UDEF_STEREO_COUNT>  (1) 
0

>  <PUBCHEM_ISOTOPIC_ATOM_COUNT>  (1) 
0

>  <PUBCHEM_COMPONENT_COUNT>  (1) 
1

>  <PUBCHEM_CACTVS_TAUTO_COUNT>  (1) 
1

>  <PUBCHEM_CONFORMER_ID>  (1) 
0000363D00000001

>  <PUBCHEM_MMFF94_ENERGY>  (1) 
15.9929

>  <PUBCHEM_FEATURE_SELFOVERLAP>  (1) 
10.165

>  <PUBCHEM_SHAPE_FINGERPRINT>  (1) 
10608611 8 18411133649497504800
10967382 1 18266741272811334411
11132069 177 18339073800849315680
11206711 2 18408887373043021373
11769659 78 18408598167236116218
12032990 46 18337960085485409090
12382932 28 18341330011415176384
12491281 212 18339654355604827008
12897270 3 18410291457939421046
12932764 1 17489302039955044502
13380535 21 18338809930764203125
13380535 76 18339921502950309671
13897977 150 18410852135945060421
14144814 61 18410292527433757082
14325111 11 18410012143447538612
15442244 35 18266176128277577882
15536298 74 18342175570606830468
15775835 57 18335146366626368252
16945 1 18193555566932058645
17844478 74 18115037406110463763
17990270 104 18411139121596861894
19973954 147 18410576184179987944
20201158 50 18339640040563173222
20871998 184 18201440294070268847
21501502 16 18409166614568139908
21501925 9 18336814377521544562
2334 1 18409730694113790817
23402539 116 18269262616378157479
23402655 69 18268979913589459005
23463225 33 18335420153722193932
23552423 10 18260830414248722870
23559900 14 18343302532014206030
2748010 2 18410573985198937077
3312278 4 18412830174538004440
5084963 1 18272653488578505874
528886 8 18339074900091931096
53812653 166 18341890779641379304
63268167 104 18338520746300168832
6333449 129 18411696578139223717
69090 78 18339919321349594373
8809292 202 18261961756037710122

>  <PUBCHEM_SHAPE_MULTIPOLES>  (1) 
246.95
5.26
1.98
0.67
0.08
0
0
0
0
-0.61
0
0.01
0
-0.16

>  <PUBCHEM_SHAPE_SELFOVERLAP>  (1) 
493.263

>  <PUBCHEM_SHAPE_VOLUME>  (1) 
144.4

>  <PUBCHEM_COORDINATE_TYPE>  (1) 
2
5
10

$$$$
