13886
     RDKit          3D

 12 13  0  0  0  0  0  0  0  0999 V2000
    2.7998   -0.0180    1.2201 N   0  0  0  0  0  0  0  0  0  0  0  0
   -0.7191   -0.0001   -0.0083 C   0  0  0  0  0  0  0  0  0  0  0  0
    0.7278    0.0002   -0.0205 C   0  0  0  0  0  0  0  0  0  0  0  0
   -1.4165    1.2078    0.0149 C   0  0  0  0  0  0  0  0  0  0  0  0
   -1.4167   -1.2080   -0.0203 C   0  0  0  0  0  0  0  0  0  0  0  0
    1.4320    0.0180   -1.2175 C   0  0  0  0  0  0  0  0  0  0  0  0
    1.4492   -0.0172    1.1605 C   0  0  0  0  0  0  0  0  0  0  0  0
   -2.8113    1.2079    0.0264 C   0  0  0  0  0  0  0  0  0  0  0  0
   -2.8116   -1.2079   -0.0089 C   0  0  0  0  0  0  0  0  0  0  0  0
   -3.5088    0.0000    0.0144 C   0  0  0  0  0  0  0  0  0  0  0  0
    2.8223    0.0178   -1.1972 C   0  0  0  0  0  0  0  0  0  0  0  0
    3.4529   -0.0005    0.0364 C   0  0  0  0  0  0  0  0  0  0  0  0
  1  7  2  0
  1 12  1  0
  2  3  1  0
  2  4  2  0
  2  5  1  0
  3  6  2  0
  3  7  1  0
  4  8  1  0
  5  9  2  0
  6 11  1  0
  8 10  2  0
  9 10  1  0
 11 12  2  0
M  END
>  <PUBCHEM_COMPOUND_CID>  (1) 
13886

>  <PUBCHEM_CONFORMER_RMSD>  (1) 
0.4

>  <PUBCHEM_CONFORMER_DIVERSEORDER>  (1) 
1
2

>  <PUBCHEM_MMFF94_PARTIAL_CHARGES>  (1) 
19
1 -0.62
10 -0.15
11 -0.15
12 0.16
13 0.15
14 0.15
15 0.15
16 0.15
17 0.15
18 0.15
19 0.15
20 0.15
21 0.15
4 -0.15
5 -0.15
6 -0.15
7 0.16
8 -0.15
9 -0.15

>  <PUBCHEM_EFFECTIVE_ROTOR_COUNT>  (1) 
1

>  <PUBCHEM_PHARMACOPHORE_FEATURES>  (1) 
3
1 1 acceptor
6 1 3 6 7 11 12 rings
6 2 4 5 8 9 10 rings

>  <PUBCHEM_HEAVY_ATOM_COUNT>  (1) 
12

>  <PUBCHEM_ATOM_DEF_STEREO_COUNT>  (1) 
0

>  <PUBCHEM_ATOM_UDEF_STEREO_COUNT>  (1) 
0

>  <PUBCHEM_BOND_DEF_STEREO_COUNT>  (1) 
0

>  <PUBCHEM_BOND_UDEF_STEREO_COUNT>  (1) 
0

>  <PUBCHEM_ISOTOPIC_ATOM_COUNT>  (1) 
0

>  <PUBCHEM_COMPONENT_COUNT>  (1) 
1

>  <PUBCHEM_CACTVS_TAUTO_COUNT>  (1) 
1

>  <PUBCHEM_CONFORMER_ID>  (1) 
0000363E00000001

>  <PUBCHEM_MMFF94_ENERGY>  (1) 
38.3019

>  <PUBCHEM_FEATURE_SELFOVERLAP>  (1) 
15.223

>  <PUBCHEM_SHAPE_FINGERPRINT>  (1) 
10219947 1 15770059427979148868
10608611 8 17703785911994925441
10857977 72 18272931656704601033
11031198 65 16487255503974604112
124424 183 17846211116723973898
12932764 1 18410291410710598673
13296908 3 17632581551880604727
13538477 17 17895194445524793547
13581323 91 18408600366132686779
14144814 61 17749108889419424093
14993402 34 17749109997568595895
15219456 202 17489868245509455032
15279307 12 17748825224020501275
15669948 3 18335702788255990455
15775835 57 17676492739227280061
16945 1 18411419510025740629
17844478 74 17489875942148975841
18175812 5 17704352194858552117
18186145 218 17418099775848301913
190213 19 17748827418721908475
19049666 15 17559687126414633069
19422 9 17748829613455634075
200 152 16443059530363217379
20201158 50 17346602958404959054
20279233 1 17704070694112031167
20645464 45 17846494837910519131
20645477 70 16056321609344678828
20715346 28 17632576075797211215
21639500 275 16009319836725470550
23402539 116 18272358755185536573
23559900 14 18200878379573113974
3248919 1 17821447958487018251
369184 2 15554449600213947959
474 4 17097506546586787044
57812782 119 17704068486488193967
6333449 129 18130786754969211295
69090 78 17203321230735301455
77492 1 17676488349701930133
8030462 33 17749110010437569353

>  <PUBCHEM_SHAPE_MULTIPOLES>  (1) 
241.97
5.98
1.11
1.07
0.27
0
0
0
-0.04
-1.04
-0.01
0.96
0
-0.01

>  <PUBCHEM_SHAPE_SELFOVERLAP>  (1) 
526.258

>  <PUBCHEM_SHAPE_VOLUME>  (1) 
130.7

>  <PUBCHEM_COORDINATE_TYPE>  (1) 
2
5
10

$$$$
