13892
     RDKit          3D

 13 14  0  0  0  0  0  0  0  0999 V2000
   -0.9167   -2.0593    0.7232 O   0  0  0  0  0  0  0  0  0  0  0  0
    0.7265    0.1684    0.0829 C   0  0  0  0  0  0  0  0  0  0  0  0
    1.5920    1.4034    0.0427 C   0  0  0  0  0  0  0  0  0  0  0  0
    1.4317   -1.1591   -0.0457 C   0  0  0  0  0  0  0  0  0  0  0  0
   -0.6048    0.2469    0.2258 C   0  0  0  0  0  0  0  0  0  0  0  0
    2.9969    1.1053    0.5605 C   0  0  0  0  0  0  0  0  0  0  0  0
    2.7200   -1.0193   -0.8531 C   0  0  0  0  0  0  0  0  0  0  0  0
    3.6889   -0.0060   -0.2355 C   0  0  0  0  0  0  0  0  0  0  0  0
   -1.3649    1.5343    0.3286 C   0  0  0  0  0  0  0  0  0  0  0  0
   -2.6363    1.5116   -0.5164 C   0  0  0  0  0  0  0  0  0  0  0  0
   -3.4969    0.3020   -0.1658 C   0  0  0  0  0  0  0  0  0  0  0  0
   -2.7500   -1.0043   -0.4029 C   0  0  0  0  0  0  0  0  0  0  0  0
   -1.3866   -1.0240    0.2556 C   0  0  0  0  0  0  0  0  0  0  0  0
  1 13  2  0
  2  3  1  0
  2  4  1  0
  2  5  2  3
  3  6  1  0
  4  7  1  0
  5  9  1  0
  5 13  1  0
  6  8  1  0
  7  8  1  0
  9 10  1  0
 10 11  1  0
 11 12  1  0
 12 13  1  0
M  END
>  <PUBCHEM_COMPOUND_CID>  (1) 
13892

>  <PUBCHEM_CONFORMER_RMSD>  (1) 
0.6

>  <PUBCHEM_CONFORMER_DIVERSEORDER>  (1) 
1
4
2
3

>  <PUBCHEM_MMFF94_PARTIAL_CHARGES>  (1) 
8
1 -0.57
12 0.06
13 0.49
2 -0.28
3 0.14
4 0.14
5 -0.12
9 0.14

>  <PUBCHEM_EFFECTIVE_ROTOR_COUNT>  (1) 
1.8

>  <PUBCHEM_PHARMACOPHORE_FEATURES>  (1) 
3
1 1 acceptor
6 2 3 4 6 7 8 rings
6 5 9 10 11 12 13 rings

>  <PUBCHEM_HEAVY_ATOM_COUNT>  (1) 
13

>  <PUBCHEM_ATOM_DEF_STEREO_COUNT>  (1) 
0

>  <PUBCHEM_ATOM_UDEF_STEREO_COUNT>  (1) 
0

>  <PUBCHEM_BOND_DEF_STEREO_COUNT>  (1) 
0

>  <PUBCHEM_BOND_UDEF_STEREO_COUNT>  (1) 
0

>  <PUBCHEM_ISOTOPIC_ATOM_COUNT>  (1) 
0

>  <PUBCHEM_COMPONENT_COUNT>  (1) 
1

>  <PUBCHEM_CACTVS_TAUTO_COUNT>  (1) 
5

>  <PUBCHEM_CONFORMER_ID>  (1) 
0000364400000001

>  <PUBCHEM_MMFF94_ENERGY>  (1) 
20.727

>  <PUBCHEM_FEATURE_SELFOVERLAP>  (1) 
15.223

>  <PUBCHEM_SHAPE_FINGERPRINT>  (1) 
10608611 8 18412539933586030432
10922523 26 18412827984035903989
11132069 177 18340479045191966649
11206711 2 18409453574255037183
12032990 46 18337678623852445411
12716758 59 18408603677642103955
12897270 3 18413670222854055812
12932764 1 18187928330861551769
13380535 76 18410852161757055666
14144814 61 18335700520449694840
14325111 11 18411135818440028581
15219456 202 18343301491614125648
15775835 57 18041561325918715989
16945 1 18335143128094231675
17844478 74 18188221974002689241
18186145 218 18339360756098995805
200 152 17346595274650314244
20201158 50 18343585139907637118
20279233 1 18342740736710674498
20645476 183 17385731308714932914
20645477 70 17988361472878030134
21501502 16 18412545405416160760
22802520 49 18341058479282416019
23402539 116 18337940264242707549
23402655 69 18271802380853633541
23552423 10 18335140916207166679
23559900 14 18342453704426090986
25 1 18265051332235125213
2748010 2 17474668832964024081
305870 269 17823125740306198795
353137 74 18338230475520612193
53812653 166 18410572860154875888
57812782 119 18272929418889619756
6333449 129 18411135844352010333
69090 78 18272364283040503063
7364860 26 18267298721239346914
81228 2 18116719714820036019
8809292 202 18408889563603189450
9709674 26 18341615948995049174

>  <PUBCHEM_SHAPE_MULTIPOLES>  (1) 
261.66
5.85
1.83
0.78
0.99
0.1
0.03
-0.55
0.85
-0.37
-0.14
0.08
0.07
0.48

>  <PUBCHEM_SHAPE_SELFOVERLAP>  (1) 
537.136

>  <PUBCHEM_SHAPE_VOLUME>  (1) 
148.8

>  <PUBCHEM_COORDINATE_TYPE>  (1) 
2
5
10

$$$$
