13890
     RDKit          3D

 13 13  0  0  0  0  0  0  0  0999 V2000
   -3.2002   -1.6048   -0.6025 O   0  0  0  0  0  0  0  0  0  0  0  0
   -1.5561   -1.4907    0.9546 O   0  0  0  0  0  0  0  0  0  0  0  0
   -0.6840    1.1617    0.0049 C   0  0  0  0  0  0  0  0  0  0  0  0
   -1.8268    0.3332   -0.6554 C   0  0  0  0  0  0  0  0  0  0  0  0
    0.6615    0.4148   -0.0266 C   0  0  0  0  0  0  0  0  0  0  0  0
   -0.5185    2.4723   -0.8055 C   0  0  0  0  0  0  0  0  0  0  0  0
   -1.1418    1.5830    1.4233 C   0  0  0  0  0  0  0  0  0  0  0  0
    1.1692    0.0418   -1.2450 C   0  0  0  0  0  0  0  0  0  0  0  0
    1.2895    0.1568    1.1651 C   0  0  0  0  0  0  0  0  0  0  0  0
   -2.1478   -0.9954    0.0068 C   0  0  0  0  0  0  0  0  0  0  0  0
    2.3883   -0.6356   -1.2736 C   0  0  0  0  0  0  0  0  0  0  0  0
    2.5087   -0.5203    1.1367 C   0  0  0  0  0  0  0  0  0  0  0  0
    3.0580   -0.9166   -0.0829 C   0  0  0  0  0  0  0  0  0  0  0  0
  1 10  1  0
  2 10  2  0
  3  4  1  0
  3  5  1  0
  3  6  1  0
  3  7  1  0
  4 10  1  0
  5  8  2  0
  5  9  1  0
  8 11  1  0
  9 12  2  0
 11 13  2  0
 12 13  1  0
M  END
>  <PUBCHEM_COMPOUND_CID>  (1) 
13890

>  <PUBCHEM_CONFORMER_RMSD>  (1) 
0.6

>  <PUBCHEM_CONFORMER_DIVERSEORDER>  (1) 
1
4
11
3
5
8
10
12
7
6
9
2

>  <PUBCHEM_MMFF94_PARTIAL_CHARGES>  (1) 
17
1 -0.65
10 0.66
11 -0.15
12 -0.15
13 -0.15
2 -0.57
22 0.15
23 0.15
24 0.15
25 0.15
26 0.15
27 0.5
3 0.14
4 0.06
5 -0.14
8 -0.15
9 -0.15

>  <PUBCHEM_EFFECTIVE_ROTOR_COUNT>  (1) 
3

>  <PUBCHEM_PHARMACOPHORE_FEATURES>  (1) 
5
1 1 acceptor
1 2 acceptor
3 1 2 10 anion
3 3 6 7 hydrophobe
6 5 8 9 11 12 13 rings

>  <PUBCHEM_HEAVY_ATOM_COUNT>  (1) 
13

>  <PUBCHEM_ATOM_DEF_STEREO_COUNT>  (1) 
0

>  <PUBCHEM_ATOM_UDEF_STEREO_COUNT>  (1) 
0

>  <PUBCHEM_BOND_DEF_STEREO_COUNT>  (1) 
0

>  <PUBCHEM_BOND_UDEF_STEREO_COUNT>  (1) 
0

>  <PUBCHEM_ISOTOPIC_ATOM_COUNT>  (1) 
0

>  <PUBCHEM_COMPONENT_COUNT>  (1) 
1

>  <PUBCHEM_CACTVS_TAUTO_COUNT>  (1) 
1

>  <PUBCHEM_CONFORMER_ID>  (1) 
0000364200000001

>  <PUBCHEM_MMFF94_ENERGY>  (1) 
40.5592

>  <PUBCHEM_FEATURE_SELFOVERLAP>  (1) 
25.431

>  <PUBCHEM_SHAPE_FINGERPRINT>  (1) 
1 1 16894543971114725205
11471102 22 16845282818238659954
12138202 97 18125432004150272540
12202030 40 17845382054881486054
12716758 59 18051691036504070852
12932764 1 18116727209743650004
13024252 1 15936993828627556081
13380537 58 17903913362343177748
13898156 1 17749957635297814820
14128692 85 17895191138246864870
14817 1 12935986061726156265
15852999 172 17765697049633502260
15906896 17 17606409739567054481
16945 1 18264759961448250532
17844478 74 17418372484981345288
20361792 2 18336549412393844863
20645477 70 17832136505012237999
20653085 51 12468357946615011687
20711985 344 18337111159645679357
21061003 4 16988843848206544346
21930827 45 17985555446268590064
23419403 2 17765950173737333033
23559900 14 18265878187039722362
549884 4 13912865549831172287
81228 2 18339365162862126609

>  <PUBCHEM_SHAPE_MULTIPOLES>  (1) 
255.8
4.13
1.89
1.39
0.99
0.52
0.13
-2.29
-0.23
-1.6
-0.12
0.37
0.18
-0.06

>  <PUBCHEM_SHAPE_SELFOVERLAP>  (1) 
527.266

>  <PUBCHEM_SHAPE_VOLUME>  (1) 
147.3

>  <PUBCHEM_COORDINATE_TYPE>  (1) 
2
5
10

$$$$
