13893
     RDKit          3D

 13 13  0  0  1  0  0  0  0  0999 V2000
   -4.8484    0.0055    0.1117 O   0  0  0  0  0  0  0  0  0  0  0  0
   -3.4200   -1.5266   -0.7656 O   0  0  0  0  0  0  0  0  0  0  0  0
   -0.1619    2.1998    0.0912 N   0  0  0  0  0  0  0  0  0  0  0  0
   -0.0038    0.8248    0.5754 C   0  0  0  0  0  0  0  0  0  0  0  0
   -1.1265   -0.0775    0.0226 C   0  0  0  0  0  0  0  0  0  0  0  0
    1.3731    0.2697    0.2533 C   0  0  0  0  0  0  0  0  0  0  0  0
   -2.5285    0.4418    0.3572 C   0  0  0  0  0  0  0  0  0  0  0  0
    1.9709   -0.5983    1.1461 C   0  0  0  0  0  0  0  0  0  0  0  0
    1.9893    0.6479   -0.9236 C   0  0  0  0  0  0  0  0  0  0  0  0
   -3.6090   -0.4767   -0.1672 C   0  0  0  0  0  0  0  0  0  0  0  0
    3.2351   -1.1081    0.8504 C   0  0  0  0  0  0  0  0  0  0  0  0
    3.2534    0.1379   -1.2194 C   0  0  0  0  0  0  0  0  0  0  0  0
    3.8763   -0.7402   -0.3322 C   0  0  0  0  0  0  0  0  0  0  0  0
  1 10  1  0
  2 10  2  0
  3  4  1  0
  4  5  1  0
  4  6  1  0
  5  7  1  0
  6  8  2  0
  6  9  1  0
  7 10  1  0
  8 11  1  0
  9 12  2  0
 11 13  2  0
 12 13  1  0
M  END
>  <PUBCHEM_COMPOUND_CID>  (1) 
13893

>  <PUBCHEM_CONFORMER_RMSD>  (1) 
0.6

>  <PUBCHEM_CONFORMER_DIVERSEORDER>  (1) 
3
2
33
8
31
28
20
27
1
30
16
24
13
11
5
6
19
32
15
26
23
9
25
29
18
14
10
4
21
22
17
12
7

>  <PUBCHEM_MMFF94_PARTIAL_CHARGES>  (1) 
20
1 -0.65
10 0.66
11 -0.15
12 -0.15
13 -0.15
19 0.36
2 -0.57
20 0.36
21 0.15
22 0.15
23 0.15
24 0.15
25 0.15
26 0.5
3 -0.99
4 0.41
6 -0.14
7 0.06
8 -0.15
9 -0.15

>  <PUBCHEM_EFFECTIVE_ROTOR_COUNT>  (1) 
4

>  <PUBCHEM_PHARMACOPHORE_FEATURES>  (1) 
6
1 1 acceptor
1 2 acceptor
1 3 cation
1 3 donor
3 1 2 10 anion
6 6 8 9 11 12 13 rings

>  <PUBCHEM_HEAVY_ATOM_COUNT>  (1) 
13

>  <PUBCHEM_ATOM_DEF_STEREO_COUNT>  (1) 
0

>  <PUBCHEM_ATOM_UDEF_STEREO_COUNT>  (1) 
1

>  <PUBCHEM_BOND_DEF_STEREO_COUNT>  (1) 
0

>  <PUBCHEM_BOND_UDEF_STEREO_COUNT>  (1) 
0

>  <PUBCHEM_ISOTOPIC_ATOM_COUNT>  (1) 
0

>  <PUBCHEM_COMPONENT_COUNT>  (1) 
1

>  <PUBCHEM_CACTVS_TAUTO_COUNT>  (1) 
1

>  <PUBCHEM_CONFORMER_ID>  (1) 
0000364500000003

>  <PUBCHEM_MMFF94_ENERGY>  (1) 
24.2992

>  <PUBCHEM_FEATURE_SELFOVERLAP>  (1) 
30.504

>  <PUBCHEM_SHAPE_FINGERPRINT>  (1) 
11543360 7 16588309435855869147
12251169 10 13039185900796617097
12346177 29 17632284693095859711
13705890 14 16877947152409855776
14252887 29 15554453981133480566
14576447 43 18186802478679618162
15477762 27 17749108859877074442
17844478 74 15841552921123307320
18186145 218 15430036539189181377
18915474 69 18335140916291959118
200 152 17967814916628084936
20279233 1 16343985814681279255
20281407 28 18060423490784805538
20361792 2 18341323461653411933
20645477 70 16805322154622174442
21119208 17 17458065962539822087
21524375 3 9007057959028538921
22485316 2 18342454850443848231
23402539 116 18335419033015304732
23402655 69 17458061538686434844
23557571 272 18059575742093695416
26918003 58 15554446288567653735
276578 36 9151177549683262996
3060560 45 16660362588961131106
3268164 11 12540974149080577979
4047638 21 14201401590357459908
42 15 15482675667122331243
4990 188 14851604366795102307
522135 26 17749107785771162587
5281201 14 15864068737058324063
57096353 35 18041294200775849308
6333272 397 8934993789553617981

>  <PUBCHEM_SHAPE_MULTIPOLES>  (1) 
250.81
8.08
1.34
1.04
6.52
0.35
0.06
-2.86
1.42
0
-0.06
-0.62
-0.08
-0.83

>  <PUBCHEM_SHAPE_SELFOVERLAP>  (1) 
510.197

>  <PUBCHEM_SHAPE_VOLUME>  (1) 
145.2

>  <PUBCHEM_COORDINATE_TYPE>  (1) 
2
5
10

$$$$
