13895
     RDKit          3D

 14 14  0  0  0  0  0  0  0  0999 V2000
   -2.8994    0.0061   -0.0001 C   0  0  0  0  0  0  0  0  0  0  0  0
    2.8728    0.0061   -0.0001 C   0  0  0  0  0  0  0  0  0  0  0  0
   -1.3617    0.0060    0.0005 C   0  0  0  0  0  0  0  0  0  0  0  0
    1.3816    0.0061   -0.0001 C   0  0  0  0  0  0  0  0  0  0  0  0
   -3.4191   -0.7214    1.2589 C   0  0  0  0  0  0  0  0  0  0  0  0
   -3.4186   -0.7226   -1.2584 C   0  0  0  0  0  0  0  0  0  0  0  0
   -3.5245    1.4196   -0.0011 C   0  0  0  0  0  0  0  0  0  0  0  0
    3.4387   -0.7210   -1.2592 C   0  0  0  0  0  0  0  0  0  0  0  0
    3.4388   -0.7230    1.2580 C   0  0  0  0  0  0  0  0  0  0  0  0
    3.5445    1.4196    0.0011 C   0  0  0  0  0  0  0  0  0  0  0  0
   -0.7108   -1.2019    0.0002 C   0  0  0  0  0  0  0  0  0  0  0  0
    0.6842   -1.2018    0.0000 C   0  0  0  0  0  0  0  0  0  0  0  0
   -0.7107    1.2141    0.0003 C   0  0  0  0  0  0  0  0  0  0  0  0
    0.6841    1.2141    0.0000 C   0  0  0  0  0  0  0  0  0  0  0  0
  1  3  1  0
  1  5  1  0
  1  6  1  0
  1  7  1  0
  2  4  1  0
  2  8  1  0
  2  9  1  0
  2 10  1  0
  3 11  2  0
  3 13  1  0
  4 12  2  0
  4 14  1  0
 11 12  1  0
 13 14  2  0
M  END
>  <PUBCHEM_COMPOUND_CID>  (1) 
13895

>  <PUBCHEM_CONFORMER_RMSD>  (1) 
0.6

>  <PUBCHEM_CONFORMER_DIVERSEORDER>  (1) 
1

>  <PUBCHEM_MMFF94_PARTIAL_CHARGES>  (1) 
12
1 0.14
11 -0.15
12 -0.15
13 -0.15
14 -0.15
2 0.14
3 -0.14
33 0.15
34 0.15
35 0.15
36 0.15
4 -0.14

>  <PUBCHEM_EFFECTIVE_ROTOR_COUNT>  (1) 
2

>  <PUBCHEM_PHARMACOPHORE_FEATURES>  (1) 
3
4 1 5 6 7 hydrophobe
4 2 8 9 10 hydrophobe
6 3 4 11 12 13 14 rings

>  <PUBCHEM_HEAVY_ATOM_COUNT>  (1) 
14

>  <PUBCHEM_ATOM_DEF_STEREO_COUNT>  (1) 
0

>  <PUBCHEM_ATOM_UDEF_STEREO_COUNT>  (1) 
0

>  <PUBCHEM_BOND_DEF_STEREO_COUNT>  (1) 
0

>  <PUBCHEM_BOND_UDEF_STEREO_COUNT>  (1) 
0

>  <PUBCHEM_ISOTOPIC_ATOM_COUNT>  (1) 
0

>  <PUBCHEM_COMPONENT_COUNT>  (1) 
1

>  <PUBCHEM_CACTVS_TAUTO_COUNT>  (1) 
1

>  <PUBCHEM_CONFORMER_ID>  (1) 
0000364700000001

>  <PUBCHEM_MMFF94_ENERGY>  (1) 
55.3557

>  <PUBCHEM_FEATURE_SELFOVERLAP>  (1) 
15.223

>  <PUBCHEM_SHAPE_FINGERPRINT>  (1) 
10062212 137 18337378362551638547
10130415 120 18260822687929663728
10219947 1 18413390946884743950
10608611 8 18410855460133878276
11132069 177 18131062719043990680
11401426 45 18342163458456294357
11543360 7 17131826620451370149
12032990 46 18410584984562884583
124424 183 17895183390289386723
12932764 1 18411135839888250947
13296908 3 18408888442442411374
13581323 91 16486970739005199351
13675066 3 18201727249340599689
13705890 14 16917067771942064886
13760787 19 17312829259724092195
13760787 5 18261108573510707143
14144814 61 18334012791512559144
14289901 80 15697707211742881378
14325111 11 18410855464428592224
14993402 34 18412259566578591327
15309172 13 18343306959234327859
15653759 3 17603873338055804297
16945 1 18410575088963476871
18186145 218 17821450144725397254
18522853 295 18410295792073340010
200 152 18342167921692349015
20559304 39 18188204309013353298
20645476 183 17603882138423149342
20645477 70 18059575733002497326
23402539 116 18272359859329566260
23402655 69 18201721730012569484
23463225 33 18261670385582644578
23559900 14 18201721713623789758
2748010 2 18120938574889290643
474 4 17169561928943378268
5104073 3 18408041805609683513
581208 293 18131347510147034078
633830 44 18410297990579436262

>  <PUBCHEM_SHAPE_MULTIPOLES>  (1) 
288.11
7.36
1.47
1.07
0.11
0.31
0
0.12
0
0
0
0
-0.33
0

>  <PUBCHEM_SHAPE_SELFOVERLAP>  (1) 
587.298

>  <PUBCHEM_SHAPE_VOLUME>  (1) 
167.2

>  <PUBCHEM_COORDINATE_TYPE>  (1) 
2
5
10

$$$$
