13908
     RDKit          3D

 15 17  0  0  0  0  0  0  0  0999 V2000
    0.0000   -1.7154    0.0006 S   0  0  0  0  0  0  0  0  0  0  0  0
    0.0004   -2.3851   -1.2805 O   0  0  0  0  0  0  0  0  0  0  0  0
   -0.0002   -2.3850    1.2816 O   0  0  0  0  0  0  0  0  0  0  0  0
    1.2833   -0.5178    0.0007 C   0  0  0  0  0  0  0  0  0  0  0  0
   -1.2833   -0.5179    0.0000 C   0  0  0  0  0  0  0  0  0  0  0  0
    0.7319    0.7770    0.0012 C   0  0  0  0  0  0  0  0  0  0  0  0
   -0.7318    0.7770    0.0012 C   0  0  0  0  0  0  0  0  0  0  0  0
    2.6347   -0.7917   -0.0008 C   0  0  0  0  0  0  0  0  0  0  0  0
   -2.6347   -0.7917   -0.0013 C   0  0  0  0  0  0  0  0  0  0  0  0
    1.6034    1.8564    0.0004 C   0  0  0  0  0  0  0  0  0  0  0  0
   -1.6034    1.8564    0.0014 C   0  0  0  0  0  0  0  0  0  0  0  0
    3.4941    0.3040   -0.0016 C   0  0  0  0  0  0  0  0  0  0  0  0
   -3.4941    0.3039   -0.0017 C   0  0  0  0  0  0  0  0  0  0  0  0
    2.9847    1.6149   -0.0007 C   0  0  0  0  0  0  0  0  0  0  0  0
   -2.9848    1.6149   -0.0005 C   0  0  0  0  0  0  0  0  0  0  0  0
  1  2  2  0
  1  3  2  0
  1  4  1  0
  1  5  1  0
  4  6  2  0
  4  8  1  0
  5  7  2  0
  5  9  1  0
  6  7  1  0
  6 10  1  0
  7 11  1  0
  8 12  2  0
  9 13  2  0
 10 14  2  0
 11 15  2  0
 12 14  1  0
 13 15  1  0
M  END
>  <PUBCHEM_COMPOUND_CID>  (1) 
13908

>  <PUBCHEM_CONFORMER_RMSD>  (1) 
0.4

>  <PUBCHEM_CONFORMER_DIVERSEORDER>  (1) 
1

>  <PUBCHEM_MMFF94_PARTIAL_CHARGES>  (1) 
21
1 1.32
10 -0.15
11 -0.15
12 -0.15
13 -0.15
14 -0.15
15 -0.15
16 0.15
17 0.15
18 0.15
19 0.15
2 -0.65
20 0.15
21 0.15
22 0.15
23 0.15
3 -0.65
4 -0.01
5 -0.01
8 -0.15
9 -0.15

>  <PUBCHEM_EFFECTIVE_ROTOR_COUNT>  (1) 
0

>  <PUBCHEM_PHARMACOPHORE_FEATURES>  (1) 
5
1 2 acceptor
1 3 acceptor
5 1 4 5 6 7 rings
6 4 6 8 10 12 14 rings
6 5 7 9 11 13 15 rings

>  <PUBCHEM_HEAVY_ATOM_COUNT>  (1) 
15

>  <PUBCHEM_ATOM_DEF_STEREO_COUNT>  (1) 
0

>  <PUBCHEM_ATOM_UDEF_STEREO_COUNT>  (1) 
0

>  <PUBCHEM_BOND_DEF_STEREO_COUNT>  (1) 
0

>  <PUBCHEM_BOND_UDEF_STEREO_COUNT>  (1) 
0

>  <PUBCHEM_ISOTOPIC_ATOM_COUNT>  (1) 
0

>  <PUBCHEM_COMPONENT_COUNT>  (1) 
1

>  <PUBCHEM_CACTVS_TAUTO_COUNT>  (1) 
1

>  <PUBCHEM_CONFORMER_ID>  (1) 
0000365400000001

>  <PUBCHEM_MMFF94_ENERGY>  (1) 
33.6013

>  <PUBCHEM_FEATURE_SELFOVERLAP>  (1) 
25.508

>  <PUBCHEM_SHAPE_FINGERPRINT>  (1) 
1 1 18340204085690959734
10608611 8 18410853265400510144
10967382 1 18410575067493837189
11132069 177 18412539903378568320
11471102 20 18338793408347067733
12423570 1 11161962077928874411
13140716 1 18410575046040528905
13380535 76 18410856563934821827
13897977 150 18410572851570469277
14144814 61 18410011043936021400
14325111 11 18410855464439356096
15196674 1 18410856559640023429
15309172 13 18341058475034895689
15536298 74 18343581815898232108
15775835 57 18410578383198215588
16945 1 18410855460128369671
17990270 104 17981605962084276847
18186145 218 18272940396799829904
20510252 161 18271248325708917121
20511035 2 18265622159269389214
20645476 183 17750532821771227414
20645477 70 18268142064195929477
20871998 184 18126011708755362567
21501502 16 18410855468728827788
21524375 3 18410572889934803654
2334 1 18410855494530539917
23402539 116 18269825561814753589
23419403 2 13639116867130363405
23463225 33 18335980853160250944
23559900 14 18200880673534516956
25 1 18339082588078239540
2748010 2 18410577292308229525
2871803 45 18408877456596602407
335352 9 18050285868970074461
43471831 8 18333445426401758267
528886 8 18411412899665111145
53812653 166 18412540981552561712
54173680 148 18047756180593616402
69090 78 18200870781016292510
7364860 26 18126285233752779095
81228 2 17833537273591725769
9709674 26 18340773761990583862

>  <PUBCHEM_SHAPE_MULTIPOLES>  (1) 
300.8
5.1
2.45
0.77
0
0.64
0
-2.02
0
0
0
0
0.38
0

>  <PUBCHEM_SHAPE_SELFOVERLAP>  (1) 
664.664

>  <PUBCHEM_SHAPE_VOLUME>  (1) 
161.7

>  <PUBCHEM_COORDINATE_TYPE>  (1) 
2
5
10

$$$$
