13906
     RDKit          3D

 14 14  0  0  0  0  0  0  0  0999 V2000
   -0.8705   -1.4894   -1.0304 O   0  0  0  0  0  0  0  0  0  0  0  0
   -2.2626    0.0533   -0.0099 N   0  0  0  0  0  0  0  0  0  0  0  0
    0.0276    0.5279   -0.2975 N   0  0  0  0  0  0  0  0  0  0  0  0
   -3.4694   -0.7542   -0.1354 C   0  0  0  0  0  0  0  0  0  0  0  0
   -2.4321    1.3523    0.6376 C   0  0  0  0  0  0  0  0  0  0  0  0
   -1.0070   -0.3921   -0.4849 C   0  0  0  0  0  0  0  0  0  0  0  0
   -3.6581   -1.6512    1.0762 C   0  0  0  0  0  0  0  0  0  0  0  0
   -2.7617    2.4332   -0.3780 C   0  0  0  0  0  0  0  0  0  0  0  0
    1.4028    0.2532   -0.0943 C   0  0  0  0  0  0  0  0  0  0  0  0
    2.2845    1.3070    0.0735 C   0  0  0  0  0  0  0  0  0  0  0  0
    1.8327   -1.0623   -0.0676 C   0  0  0  0  0  0  0  0  0  0  0  0
    3.6383    1.0369    0.2740 C   0  0  0  0  0  0  0  0  0  0  0  0
    3.1865   -1.3322    0.1329 C   0  0  0  0  0  0  0  0  0  0  0  0
    4.0891   -0.2825    0.3038 C   0  0  0  0  0  0  0  0  0  0  0  0
  1  6  2  0
  2  4  1  0
  2  5  1  0
  2  6  1  0
  3  6  1  0
  3  9  1  0
  4  7  1  0
  5  8  1  0
  9 10  2  0
  9 11  1  0
 10 12  1  0
 11 13  2  0
 12 14  2  0
 13 14  1  0
M  END
>  <PUBCHEM_COMPOUND_CID>  (1) 
13906

>  <PUBCHEM_CONFORMER_RMSD>  (1) 
0.6

>  <PUBCHEM_CONFORMER_DIVERSEORDER>  (1) 
1
11
18
17
3
16
10
6
19
9
8
14
7
4
13
20
12
5
2
15

>  <PUBCHEM_MMFF94_PARTIAL_CHARGES>  (1) 
18
1 -0.57
10 -0.15
11 -0.15
12 -0.15
13 -0.15
14 -0.15
2 -0.66
25 0.37
26 0.15
27 0.15
28 0.15
29 0.15
3 -0.55
30 0.15
4 0.3
5 0.3
6 0.69
9 0.12

>  <PUBCHEM_EFFECTIVE_ROTOR_COUNT>  (1) 
5

>  <PUBCHEM_PHARMACOPHORE_FEATURES>  (1) 
3
1 1 acceptor
1 3 donor
6 9 10 11 12 13 14 rings

>  <PUBCHEM_HEAVY_ATOM_COUNT>  (1) 
14

>  <PUBCHEM_ATOM_DEF_STEREO_COUNT>  (1) 
0

>  <PUBCHEM_ATOM_UDEF_STEREO_COUNT>  (1) 
0

>  <PUBCHEM_BOND_DEF_STEREO_COUNT>  (1) 
0

>  <PUBCHEM_BOND_UDEF_STEREO_COUNT>  (1) 
0

>  <PUBCHEM_ISOTOPIC_ATOM_COUNT>  (1) 
0

>  <PUBCHEM_COMPONENT_COUNT>  (1) 
1

>  <PUBCHEM_CACTVS_TAUTO_COUNT>  (1) 
2

>  <PUBCHEM_CONFORMER_ID>  (1) 
0000365200000001

>  <PUBCHEM_MMFF94_ENERGY>  (1) 
34.4154

>  <PUBCHEM_FEATURE_SELFOVERLAP>  (1) 
15.223

>  <PUBCHEM_SHAPE_FINGERPRINT>  (1) 
10608611 8 18412539899278968088
10799339 124 18412823564672766370
10922523 26 18271807878458809940
12251169 10 18342453776965891854
12500047 106 18115866291764704509
12507560 40 18412263917396383608
12932764 1 17703782660883737672
13296908 3 18411982429777331726
13296909 8 18334294254068897053
13675066 3 18201432563329466002
14144814 61 18413669102068064584
14289901 80 18113905974116977856
14325111 11 18412824664152907876
15375462 478 18409451422782415917
15442244 35 18196370325716361290
17802600 8 18272080617271872593
18186145 218 18059582334551626076
19422 9 18187651288602190478
200 152 18271514382216920943
20279233 1 15068337930125485880
20281475 54 17967814899590913354
20510252 161 18272936016107001801
20559304 39 18337396057796000452
20645477 70 18341603794032055375
21065199 12 18410855456033680874
22485316 2 17385435531544443426
2306618 200 18060702767218445401
23402539 116 18410005538663251647
26918003 58 18114459063136879763
2748010 2 18129108831199806621
3248919 1 17240493510740116260
42 15 18408887343031127394
5104073 3 18411415082020129776
58051976 100 18336548230998335181
9709674 26 18411703157934682423

>  <PUBCHEM_SHAPE_MULTIPOLES>  (1) 
272.28
7.78
2.02
0.82
1.29
0.62
0.04
-0.65
1.51
-1.48
0.04
-0.4
-0.16
0.43

>  <PUBCHEM_SHAPE_SELFOVERLAP>  (1) 
546.461

>  <PUBCHEM_SHAPE_VOLUME>  (1) 
160.2

>  <PUBCHEM_COORDINATE_TYPE>  (1) 
2
5
10

$$$$
