13915
     RDKit          3D

 16 17  0  0  1  0  0  0  0  0999 V2000
    2.0356    1.5412    1.8812 N   0  0  0  0  0  0  0  0  0  0  0  0
    0.8142   -2.5278    1.7086 N   0  0  0  0  0  0  0  0  0  0  0  0
    2.0097    1.7250   -1.7414 N   0  0  0  0  0  0  0  0  0  0  0  0
    0.8416   -2.3666   -1.9159 N   0  0  0  0  0  0  0  0  0  0  0  0
   -1.1770    0.3009    1.3127 C   0  0  0  0  0  0  0  0  0  0  0  0
   -1.1788    0.4071   -1.2831 C   0  0  0  0  0  0  0  0  0  0  0  0
    0.2631   -0.1004    0.8015 C   0  0  0  0  0  0  0  0  0  0  0  0
    0.2621   -0.0342   -0.8085 C   0  0  0  0  0  0  0  0  0  0  0  0
   -2.2368   -0.6790    0.7455 C   0  0  0  0  0  0  0  0  0  0  0  0
   -2.2375   -0.6163   -0.7964 C   0  0  0  0  0  0  0  0  0  0  0  0
   -1.5293    1.6641    0.7402 C   0  0  0  0  0  0  0  0  0  0  0  0
   -1.5301    1.7189   -0.6004 C   0  0  0  0  0  0  0  0  0  0  0  0
    1.2584    0.8213    1.4079 C   0  0  0  0  0  0  0  0  0  0  0  0
    0.5728   -1.4648    1.3113 C   0  0  0  0  0  0  0  0  0  0  0  0
    1.2444    0.9545   -1.3328 C   0  0  0  0  0  0  0  0  0  0  0  0
    0.5875   -1.3439   -1.4303 C   0  0  0  0  0  0  0  0  0  0  0  0
  1 13  3  0
  2 14  3  0
  3 15  3  0
  4 16  3  0
  5  7  1  0
  5  9  1  0
  5 11  1  0
  6  8  1  0
  6 10  1  0
  6 12  1  0
  7  8  1  0
  7 13  1  0
  7 14  1  0
  8 15  1  0
  8 16  1  0
  9 10  1  0
 11 12  2  0
M  END
>  <PUBCHEM_COMPOUND_CID>  (1) 
13915

>  <PUBCHEM_CONFORMER_RMSD>  (1) 
0.4

>  <PUBCHEM_CONFORMER_DIVERSEORDER>  (1) 
1

>  <PUBCHEM_MMFF94_PARTIAL_CHARGES>  (1) 
16
1 -0.56
11 -0.29
12 -0.29
13 0.36
14 0.36
15 0.36
16 0.36
2 -0.56
23 0.15
24 0.15
3 -0.56
4 -0.56
5 0.14
6 0.14
7 0.4
8 0.4

>  <PUBCHEM_EFFECTIVE_ROTOR_COUNT>  (1) 
0.8

>  <PUBCHEM_PHARMACOPHORE_FEATURES>  (1) 
5
1 1 acceptor
1 2 acceptor
1 3 acceptor
1 4 acceptor
8 5 6 7 8 9 10 11 12 rings

>  <PUBCHEM_HEAVY_ATOM_COUNT>  (1) 
16

>  <PUBCHEM_ATOM_DEF_STEREO_COUNT>  (1) 
0

>  <PUBCHEM_ATOM_UDEF_STEREO_COUNT>  (1) 
2

>  <PUBCHEM_BOND_DEF_STEREO_COUNT>  (1) 
0

>  <PUBCHEM_BOND_UDEF_STEREO_COUNT>  (1) 
0

>  <PUBCHEM_ISOTOPIC_ATOM_COUNT>  (1) 
0

>  <PUBCHEM_COMPONENT_COUNT>  (1) 
1

>  <PUBCHEM_CACTVS_TAUTO_COUNT>  (1) 
1

>  <PUBCHEM_CONFORMER_ID>  (1) 
0000365B00000001

>  <PUBCHEM_MMFF94_ENERGY>  (1) 
50.3343

>  <PUBCHEM_FEATURE_SELFOVERLAP>  (1) 
25.374

>  <PUBCHEM_SHAPE_FINGERPRINT>  (1) 
10863032 1 10156303573104643017
12326174 3 13356779057275185450
12423570 1 14825190511324948017
13024252 1 8567897836427678699
137420 1 9093864436305935017
141345 1 9075963253245164870
144361 1 14154398108135844991
14817 1 12692767307739705544
15557651 10 17414194374950170349
16945 1 16620352679212224873
22344851 341 17975167303258600714
23419403 2 9213755115874857229
2748010 2 11884866706763398609
54276843 12 13827921597926862593
5845 1 16473474499872336450
68250623 7 16024554893188828581

>  <PUBCHEM_SHAPE_MULTIPOLES>  (1) 
309.35
2.5
2.28
2.21
0.86
0.31
-0.03
-0.27
0.03
-1.02
-0.01
-1.05
0.12
0

>  <PUBCHEM_SHAPE_SELFOVERLAP>  (1) 
668.657

>  <PUBCHEM_SHAPE_VOLUME>  (1) 
157.6

>  <PUBCHEM_COORDINATE_TYPE>  (1) 
2
5
10

$$$$
