13918
     RDKit          3D

 16 17  0  0  0  0  0  0  0  0999 V2000
    2.0114   -2.7218   -0.3009 Cl  0  0  0  0  0  0  0  0  0  0  0  0
   -0.4431    2.0078    0.1909 O   0  0  0  0  0  0  0  0  0  0  0  0
    0.3505   -0.1881   -0.0406 N   0  0  0  0  0  0  0  0  0  0  0  0
    1.7566   -0.0184   -0.0191 C   0  0  0  0  0  0  0  0  0  0  0  0
   -2.0187    0.3036    0.0339 C   0  0  0  0  0  0  0  0  0  0  0  0
   -0.6486    0.7901    0.0610 C   0  0  0  0  0  0  0  0  0  0  0  0
    2.6045   -1.1080   -0.1317 C   0  0  0  0  0  0  0  0  0  0  0  0
    2.2519    1.2690    0.1188 C   0  0  0  0  0  0  0  0  0  0  0  0
   -3.0433    1.1295   -0.4285 C   0  0  0  0  0  0  0  0  0  0  0  0
   -2.3084   -0.9891    0.4706 C   0  0  0  0  0  0  0  0  0  0  0  0
    3.9844   -0.9059   -0.1055 C   0  0  0  0  0  0  0  0  0  0  0  0
    3.6318    1.4709    0.1451 C   0  0  0  0  0  0  0  0  0  0  0  0
   -4.3576    0.6628   -0.4541 C   0  0  0  0  0  0  0  0  0  0  0  0
   -3.6225   -1.4559    0.4449 C   0  0  0  0  0  0  0  0  0  0  0  0
    4.4981    0.3835    0.0329 C   0  0  0  0  0  0  0  0  0  0  0  0
   -4.6471   -0.6299   -0.0175 C   0  0  0  0  0  0  0  0  0  0  0  0
  1  7  1  0
  2  6  2  0
  3  4  1  0
  3  6  1  0
  4  7  2  0
  4  8  1  0
  5  6  1  0
  5  9  2  0
  5 10  1  0
  7 11  1  0
  8 12  2  0
  9 13  1  0
 10 14  2  0
 11 15  2  0
 12 15  1  0
 13 16  2  0
 14 16  1  0
M  END
>  <PUBCHEM_COMPOUND_CID>  (1) 
13918

>  <PUBCHEM_CONFORMER_RMSD>  (1) 
0.6

>  <PUBCHEM_CONFORMER_DIVERSEORDER>  (1) 
1
3
4
5
2

>  <PUBCHEM_MMFF94_PARTIAL_CHARGES>  (1) 
26
1 -0.18
10 -0.15
11 -0.15
12 -0.15
13 -0.15
14 -0.15
15 -0.15
16 -0.15
17 0.37
18 0.15
19 0.15
2 -0.57
20 0.15
21 0.15
22 0.15
23 0.15
24 0.15
25 0.15
26 0.15
3 -0.55
4 0.12
5 0.09
6 0.54
7 0.18
8 -0.15
9 -0.15

>  <PUBCHEM_EFFECTIVE_ROTOR_COUNT>  (1) 
3

>  <PUBCHEM_PHARMACOPHORE_FEATURES>  (1) 
4
1 2 acceptor
1 3 donor
6 4 7 8 11 12 15 rings
6 5 9 10 13 14 16 rings

>  <PUBCHEM_HEAVY_ATOM_COUNT>  (1) 
16

>  <PUBCHEM_ATOM_DEF_STEREO_COUNT>  (1) 
0

>  <PUBCHEM_ATOM_UDEF_STEREO_COUNT>  (1) 
0

>  <PUBCHEM_BOND_DEF_STEREO_COUNT>  (1) 
0

>  <PUBCHEM_BOND_UDEF_STEREO_COUNT>  (1) 
0

>  <PUBCHEM_ISOTOPIC_ATOM_COUNT>  (1) 
0

>  <PUBCHEM_COMPONENT_COUNT>  (1) 
1

>  <PUBCHEM_CACTVS_TAUTO_COUNT>  (1) 
2

>  <PUBCHEM_CONFORMER_ID>  (1) 
0000365E00000001

>  <PUBCHEM_MMFF94_ENERGY>  (1) 
51.5501

>  <PUBCHEM_FEATURE_SELFOVERLAP>  (1) 
20.297

>  <PUBCHEM_SHAPE_FINGERPRINT>  (1) 
10608611 8 18408600340368365669
10616163 171 18411702131569503863
11471102 20 18412543210909438116
11615757 297 17703794738184068288
13296908 3 18409730664265304105
14178342 30 18053092927083529418
14251717 144 18413108359812424310
14252887 29 17561090189652135878
15196674 1 18410011039493029618
15219456 202 18409729560237156431
15375358 24 18334857229428092571
15536298 74 18412545396752464090
15961568 22 17168428285073585380
17834074 16 18410856555445204991
18186145 218 17749102283970810373
19107657 46 18410857663499489575
19141452 34 18340209682861787579
200 152 18131348605094571641
20279233 1 18334862714032621323
20645477 56 18114179688673652453
20645477 70 18272369737322129430
21079973 296 18187648037116866179
21267235 1 18411146830762542806
221490 88 18263088875635831682
22485316 2 18412261744390786727
23402539 116 17676761033065364780
23402655 69 18413108355427662940
23557571 272 17676201347440199645
23559900 14 18337386054837870688
239999 70 18272657840013509590
26918003 58 18409162208068935360
2871803 45 18409449159287327294
3268164 11 16660633056052317351
33824 294 18411135836100023706
3545911 37 18408324380282481453
4214541 1 18408885105574907085
474229 33 18339080492788281266
4921388 177 16298397893745998155
5104073 3 18410573963697799080
58051976 378 18413107243047035534
69090 78 18410571807819673707
7364860 26 18341894031258760726
77779 3 18409730664154638229
9709674 26 18409172086525871235

>  <PUBCHEM_SHAPE_MULTIPOLES>  (1) 
320.29
9.71
2.08
0.67
2.56
0.8
0
0.44
-0.3
-0.97
-0.05
0.14
0.04
0.63

>  <PUBCHEM_SHAPE_SELFOVERLAP>  (1) 
681.544

>  <PUBCHEM_SHAPE_VOLUME>  (1) 
178.2

>  <PUBCHEM_COORDINATE_TYPE>  (1) 
2
5
10

$$$$
