13910
     RDKit          3D

 15 16  0  0  0  0  0  0  0  0999 V2000
    3.5211   -1.3265    0.3120 S   0  0  0  0  0  0  0  0  0  0  0  0
   -1.0949    0.2915   -0.7564 O   0  0  0  0  0  0  0  0  0  0  0  0
   -1.5816    0.2359    1.5053 O   0  0  0  0  0  0  0  0  0  0  0  0
   -3.2658   -0.2292   -0.0298 N   0  0  0  0  0  0  0  0  0  0  0  0
    1.1774   -0.3766   -0.2265 C   0  0  0  0  0  0  0  0  0  0  0  0
    2.4751    0.0281    0.1011 C   0  0  0  0  0  0  0  0  0  0  0  0
    0.1965    0.6234   -0.4330 C   0  0  0  0  0  0  0  0  0  0  0  0
    1.0811   -1.8071   -0.2949 C   0  0  0  0  0  0  0  0  0  0  0  0
    0.5279    1.9754   -0.3103 C   0  0  0  0  0  0  0  0  0  0  0  0
    2.8125    1.3901    0.2259 C   0  0  0  0  0  0  0  0  0  0  0  0
    1.8229    2.3523    0.0161 C   0  0  0  0  0  0  0  0  0  0  0  0
    2.2730   -2.4370   -0.0259 C   0  0  0  0  0  0  0  0  0  0  0  0
   -1.9593    0.1078    0.3412 C   0  0  0  0  0  0  0  0  0  0  0  0
   -4.2812   -0.4530    0.9892 C   0  0  0  0  0  0  0  0  0  0  0  0
   -3.7046   -0.3752   -1.4140 C   0  0  0  0  0  0  0  0  0  0  0  0
  1  6  1  0
  1 12  1  0
  2  7  1  0
  2 13  1  0
  3 13  2  0
  4 13  1  0
  4 14  1  0
  4 15  1  0
  5  6  2  0
  5  7  1  0
  5  8  1  0
  6 10  1  0
  7  9  2  0
  8 12  2  0
  9 11  1  0
 10 11  2  0
M  END
>  <PUBCHEM_COMPOUND_CID>  (1) 
13910

>  <PUBCHEM_CONFORMER_RMSD>  (1) 
0.6

>  <PUBCHEM_CONFORMER_DIVERSEORDER>  (1) 
1
16
15
12
11
18
7
8
19
5
4
17
13
3
9
6
14
10
2

>  <PUBCHEM_MMFF94_PARTIAL_CHARGES>  (1) 
19
1 -0.08
10 -0.15
11 -0.15
12 -0.11
13 0.78
14 0.3
15 0.3
16 0.15
17 0.15
18 0.15
19 0.15
2 -0.23
20 0.15
3 -0.57
4 -0.66
6 0.04
7 0.08
8 -0.15
9 -0.15

>  <PUBCHEM_EFFECTIVE_ROTOR_COUNT>  (1) 
3

>  <PUBCHEM_PHARMACOPHORE_FEATURES>  (1) 
3
1 3 acceptor
5 1 5 6 8 12 rings
6 5 6 7 9 10 11 rings

>  <PUBCHEM_HEAVY_ATOM_COUNT>  (1) 
15

>  <PUBCHEM_ATOM_DEF_STEREO_COUNT>  (1) 
0

>  <PUBCHEM_ATOM_UDEF_STEREO_COUNT>  (1) 
0

>  <PUBCHEM_BOND_DEF_STEREO_COUNT>  (1) 
0

>  <PUBCHEM_BOND_UDEF_STEREO_COUNT>  (1) 
0

>  <PUBCHEM_ISOTOPIC_ATOM_COUNT>  (1) 
0

>  <PUBCHEM_COMPONENT_COUNT>  (1) 
1

>  <PUBCHEM_CACTVS_TAUTO_COUNT>  (1) 
1

>  <PUBCHEM_CONFORMER_ID>  (1) 
0000365600000001

>  <PUBCHEM_MMFF94_ENERGY>  (1) 
38.477

>  <PUBCHEM_FEATURE_SELFOVERLAP>  (1) 
15.283

>  <PUBCHEM_SHAPE_FINGERPRINT>  (1) 
10219947 1 18410290332853265724
10980938 120 18411979195566841564
11471102 20 18410005554951785084
11471102 22 18408890628791755352
11796584 16 16588575393063226498
12346645 6 18410576227425254980
12553582 1 18267306426220836862
13296908 3 17822010908788449571
14251717 144 18411692209962499895
15219456 202 18186795898615478661
15375462 189 17917430977628297931
15442244 35 18196657293840666753
15501101 241 18334014990652054244
16945 1 18410294731042253588
19049666 15 17968370144272694469
200 152 18201707445420503677
20201158 50 18187645773574279034
20233049 118 14273724162255047999
204376 136 18122061176652088320
20559304 39 18202008715590420528
20645477 70 18336252501447194903
20871998 22 18198629817832629398
21501502 16 18264493888472488564
21639500 275 18339352088849717829
22112679 90 17274811489283671789
2255824 54 18340493360576297188
23419403 2 14930069871866359650
23598291 2 18131353020479175445
2748010 2 18052241905152208748
33824 294 18336543918866916162
54173680 148 17402048899385843782
581208 293 18411974801794081764
7364860 26 18413392055218434364
77492 1 17775564273350571085
81228 2 17688314482328151952
81539 233 18115305712881137524
8272917 22 18411428323156447573

>  <PUBCHEM_SHAPE_MULTIPOLES>  (1) 
295.82
6.62
2.25
1
6.47
0.21
-0.04
-2.05
-0.63
-2.57
0.1
0.99
-0.06
0

>  <PUBCHEM_SHAPE_SELFOVERLAP>  (1) 
617.923

>  <PUBCHEM_SHAPE_VOLUME>  (1) 
170.3

>  <PUBCHEM_COORDINATE_TYPE>  (1) 
2
5
10

$$$$
