13914
     RDKit          3D

 15 15  0  0  0  0  0  0  0  0999 V2000
   -1.2455    0.6100   -0.5669 N   0  0  0  0  0  0  0  0  0  0  0  0
    1.1481    0.7789   -0.5667 N   0  0  0  0  0  0  0  0  0  0  0  0
    0.0976   -1.3785   -0.5677 N   0  0  0  0  0  0  0  0  0  0  0  0
   -0.1960    2.7831   -0.5659 C   0  0  0  0  0  0  0  0  0  0  0  0
   -2.3091   -1.5561   -0.5673 C   0  0  0  0  0  0  0  0  0  0  0  0
    2.5054   -1.2165   -0.5670 C   0  0  0  0  0  0  0  0  0  0  0  0
   -0.0899    1.2796   -0.5665 C   0  0  0  0  0  0  0  0  0  0  0  0
   -1.0737   -0.7217   -0.5673 C   0  0  0  0  0  0  0  0  0  0  0  0
    1.1650   -0.5639   -0.5672 C   0  0  0  0  0  0  0  0  0  0  0  0
   -0.2358    3.3466    0.8551 C   0  0  0  0  0  0  0  0  0  0  0  0
   -2.7912   -1.8823    0.8535 C   0  0  0  0  0  0  0  0  0  0  0  0
    3.0282   -1.4718    0.8538 C   0  0  0  0  0  0  0  0  0  0  0  0
   -0.3124    4.8651    0.8481 C   0  0  0  0  0  0  0  0  0  0  0  0
   -4.0702   -2.7041    0.8458 C   0  0  0  0  0  0  0  0  0  0  0  0
    4.3796   -2.1685    0.8462 C   0  0  0  0  0  0  0  0  0  0  0  0
  1  7  2  0
  1  8  1  0
  2  7  1  0
  2  9  2  0
  3  8  2  0
  3  9  1  0
  4  7  1  0
  4 10  1  0
  5  8  1  0
  5 11  1  0
  6  9  1  0
  6 12  1  0
 10 13  1  0
 11 14  1  0
 12 15  1  0
M  END
>  <PUBCHEM_COMPOUND_CID>  (1) 
13914

>  <PUBCHEM_CONFORMER_RMSD>  (1) 
0.8

>  <PUBCHEM_CONFORMER_DIVERSEORDER>  (1) 
1
13
4
14
18
19
9
6
12
2
15
3
11
10
16
8
5
17
7

>  <PUBCHEM_MMFF94_PARTIAL_CHARGES>  (1) 
9
1 -0.62
2 -0.62
3 -0.62
4 0.14
5 0.14
6 0.14
7 0.48
8 0.48
9 0.48

>  <PUBCHEM_EFFECTIVE_ROTOR_COUNT>  (1) 
6

>  <PUBCHEM_PHARMACOPHORE_FEATURES>  (1) 
7
1 13 hydrophobe
1 14 hydrophobe
1 15 hydrophobe
3 1 2 7 cation
3 1 3 8 cation
3 2 3 9 cation
6 1 2 3 7 8 9 rings

>  <PUBCHEM_HEAVY_ATOM_COUNT>  (1) 
15

>  <PUBCHEM_ATOM_DEF_STEREO_COUNT>  (1) 
0

>  <PUBCHEM_ATOM_UDEF_STEREO_COUNT>  (1) 
0

>  <PUBCHEM_BOND_DEF_STEREO_COUNT>  (1) 
0

>  <PUBCHEM_BOND_UDEF_STEREO_COUNT>  (1) 
0

>  <PUBCHEM_ISOTOPIC_ATOM_COUNT>  (1) 
0

>  <PUBCHEM_COMPONENT_COUNT>  (1) 
1

>  <PUBCHEM_CACTVS_TAUTO_COUNT>  (1) 
3

>  <PUBCHEM_CONFORMER_ID>  (1) 
0000365A00000001

>  <PUBCHEM_MMFF94_ENERGY>  (1) 
10.9639

>  <PUBCHEM_FEATURE_SELFOVERLAP>  (1) 
38.319

>  <PUBCHEM_SHAPE_FINGERPRINT>  (1) 
10756046 70 11724256924473840989
108231 29 18260827145911174786
11357001 24 18265330603783135610
12532896 13 17476917957197577012
12549972 3 17823412885425918923
12788726 201 18191042134985814834
13134695 92 18339632460188612815
13140716 1 18410855434358358065
13275264 69 18335986376245730771
136203 1 18266739069487856538
13955234 65 17905616853968675643
16945 1 18194970629949555438
17841504 4 18263367056689565955
19021347 4 17690279305005792444
20510252 161 17910942552942911312
20671657 1 17836659886709808431
21041028 32 18410859875412668339
21524375 3 17118303413693674692
21650355 55 18410005503312217003
21731228 192 17401766320269793600
23419403 2 17900509527598525895
23558518 356 17763742092147555087
2748010 2 18340476841878765580
3071541 236 17903063443975385126
3091708 16 9281045270022324255
31174 14 18120376716311600567
394222 165 17552660444308006819
57672749 33 18123185968214132552
58807428 26 16968287120925852066
7364860 26 17981337998874083047
81228 2 18194402186585178452
9981440 41 17195967529528736786

>  <PUBCHEM_SHAPE_MULTIPOLES>  (1) 
293.75
5.45
5.43
1.09
1.84
9.03
0.14
-9.09
2.36
-1.83
2.35
0
0
0

>  <PUBCHEM_SHAPE_SELFOVERLAP>  (1) 
573.62

>  <PUBCHEM_SHAPE_VOLUME>  (1) 
175.3

>  <PUBCHEM_COORDINATE_TYPE>  (1) 
2
5
10

$$$$
