13927
     RDKit          3D

 17 18  0  0  1  0  0  0  0  0999 V2000
   -2.6634   -2.8589    0.3578 Br  0  0  0  0  0  0  0  0  0  0  0  0
    1.6234   -0.1824   -0.9939 O   0  0  0  0  0  0  0  0  0  0  0  0
    3.8174    1.6294    0.1358 O   0  0  0  0  0  0  0  0  0  0  0  0
    2.3695   -2.8564   -0.6107 O   0  0  0  0  0  0  0  0  0  0  0  0
   -1.0856    2.7777   -0.3713 O   0  0  0  0  0  0  0  0  0  0  0  0
   -0.4366    0.5731   -0.1811 N   0  0  0  0  0  0  0  0  0  0  0  0
   -2.7426    1.2560   -0.0845 N   0  0  0  0  0  0  0  0  0  0  0  0
   -4.4577   -0.2669    0.2067 N   0  0  0  0  0  0  0  0  0  0  0  0
    3.0475    0.5905    0.7369 C   0  0  0  0  0  0  0  0  0  0  0  0
    1.6493    1.0905    1.0180 C   0  0  0  0  0  0  0  0  0  0  0  0
    0.9543    0.8924   -0.3192 C   0  0  0  0  0  0  0  0  0  0  0  0
    2.8174   -0.5308   -0.2667 C   0  0  0  0  0  0  0  0  0  0  0  0
    2.5840   -1.8817    0.3971 C   0  0  0  0  0  0  0  0  0  0  0  0
   -0.8367   -0.7421   -0.0084 C   0  0  0  0  0  0  0  0  0  0  0  0
   -1.4101    1.5986   -0.2199 C   0  0  0  0  0  0  0  0  0  0  0  0
   -2.1149   -1.1003    0.1254 C   0  0  0  0  0  0  0  0  0  0  0  0
   -3.1149    0.0114    0.0781 C   0  0  0  0  0  0  0  0  0  0  0  0
  1 16  1  0
  2 11  1  0
  2 12  1  0
  3  9  1  0
  4 13  1  0
  5 15  2  0
  6 11  1  0
  6 14  1  0
  6 15  1  0
  7 15  1  0
  7 17  2  0
  8 17  1  0
  9 10  1  0
  9 12  1  0
 10 11  1  0
 12 13  1  0
 14 16  2  0
 16 17  1  0
M  END
>  <PUBCHEM_COMPOUND_CID>  (1) 
13927

>  <PUBCHEM_CONFORMER_RMSD>  (1) 
0.6

>  <PUBCHEM_CONFORMER_DIVERSEORDER>  (1) 
1
8
17
6
10
9
16
15
3
5
12
11
7
2
14
4
13

>  <PUBCHEM_MMFF94_PARTIAL_CHARGES>  (1) 
21
1 -0.11
11 0.58
12 0.28
13 0.28
14 -0.04
15 0.84
16 0.12
17 0.49
2 -0.56
25 0.4
26 0.15
27 0.4
28 0.4
29 0.4
3 -0.68
4 -0.68
5 -0.57
6 -0.47
7 -0.66
8 -0.85
9 0.28

>  <PUBCHEM_EFFECTIVE_ROTOR_COUNT>  (1) 
3

>  <PUBCHEM_PHARMACOPHORE_FEATURES>  (1) 
11
1 1 hydrophobe
1 2 acceptor
1 3 acceptor
1 3 donor
1 4 acceptor
1 4 donor
1 5 acceptor
1 7 donor
1 8 donor
5 2 9 10 11 12 rings
6 6 7 14 15 16 17 rings

>  <PUBCHEM_HEAVY_ATOM_COUNT>  (1) 
17

>  <PUBCHEM_ATOM_DEF_STEREO_COUNT>  (1) 
2

>  <PUBCHEM_ATOM_UDEF_STEREO_COUNT>  (1) 
1

>  <PUBCHEM_BOND_DEF_STEREO_COUNT>  (1) 
0

>  <PUBCHEM_BOND_UDEF_STEREO_COUNT>  (1) 
0

>  <PUBCHEM_ISOTOPIC_ATOM_COUNT>  (1) 
0

>  <PUBCHEM_COMPONENT_COUNT>  (1) 
1

>  <PUBCHEM_CACTVS_TAUTO_COUNT>  (1) 
3

>  <PUBCHEM_CONFORMER_ID>  (1) 
0000366700000001

>  <PUBCHEM_MMFF94_ENERGY>  (1) 
47.1953

>  <PUBCHEM_FEATURE_SELFOVERLAP>  (1) 
55.875

>  <PUBCHEM_SHAPE_FINGERPRINT>  (1) 
10366900 7 18130497638876695457
10608611 8 18339355280005332160
10616163 171 18337955717593476298
10618630 7 18334295379038806055
10922523 26 18260547779778607031
10967382 1 18410292527486614895
12382932 28 18338233872523316715
12500047 106 18335977567230844172
12553582 1 17975429215081985715
12932764 1 17632282484886849492
13140716 1 18195241354507417385
13380535 21 18412268324248970776
14178342 30 18338792450326735347
14223421 5 18411979165575897450
14252887 29 18335710463509923451
15219456 202 18341889662907638564
15375358 24 18336539512330521841
15375462 6 18411698790095094332
16945 1 18409450292894968901
17804303 29 18267309716175938870
17834074 16 18411702071307618682
19049666 15 18198054785867062048
19107657 46 18337953509985528415
19784866 170 18339359789831659000
20510252 161 18341048523923238305
20645477 70 18272930496937149359
20871998 184 18270400623823992783
21501502 16 18341611464975098584
23184049 29 18337386037526288658
23402539 116 18115014342262691168
23559900 14 18410851045408378620
2748010 2 18339927112014347383
3312278 4 18338519749872907379
34934 24 18337385041267864775
58051976 378 18410855490731237172
69090 78 18342733027365944431
7364860 26 18341895160882385470
81228 2 18260553299028282353
8809292 202 18408888425415912914
9709674 26 18411982425287640438

>  <PUBCHEM_SHAPE_MULTIPOLES>  (1) 
317.37
6.54
2.88
0.8
0.97
1.2
0.05
1.04
0.72
0.43
-0.17
-0.32
0.04
0.62

>  <PUBCHEM_SHAPE_SELFOVERLAP>  (1) 
653.048

>  <PUBCHEM_SHAPE_VOLUME>  (1) 
186.4

>  <PUBCHEM_COORDINATE_TYPE>  (1) 
2
5
10

$$$$
