13924
     RDKit          3D

 17 19  0  0  0  0  0  0  0  0999 V2000
   -1.3721   -2.4407   -1.2706 O   0  0  0  0  0  0  0  0  0  0  0  0
   -0.0332   -2.1273   -1.0401 N   0  0  0  0  0  0  0  0  0  0  0  0
    1.3267   -0.4395   -0.0226 C   0  0  0  0  0  0  0  0  0  0  0  0
   -1.2197   -0.3034    0.0276 C   0  0  0  0  0  0  0  0  0  0  0  0
    1.6758    0.8901   -0.2945 C   0  0  0  0  0  0  0  0  0  0  0  0
   -1.4371    1.0550   -0.2383 C   0  0  0  0  0  0  0  0  0  0  0  0
    0.0130   -1.0037   -0.3957 C   0  0  0  0  0  0  0  0  0  0  0  0
    0.8215    1.8332   -1.0250 C   0  0  0  0  0  0  0  0  0  0  0  0
   -0.5159    1.9031   -1.0026 C   0  0  0  0  0  0  0  0  0  0  0  0
    2.2357   -1.3033    0.6076 C   0  0  0  0  0  0  0  0  0  0  0  0
   -2.1833   -1.0603    0.7120 C   0  0  0  0  0  0  0  0  0  0  0  0
    2.9591    1.3292    0.0741 C   0  0  0  0  0  0  0  0  0  0  0  0
   -2.6496    1.6294    0.1810 C   0  0  0  0  0  0  0  0  0  0  0  0
    3.4975   -0.8436    0.9774 C   0  0  0  0  0  0  0  0  0  0  0  0
   -3.3718   -0.4678    1.1323 C   0  0  0  0  0  0  0  0  0  0  0  0
    3.8593    0.4726    0.7113 C   0  0  0  0  0  0  0  0  0  0  0  0
   -3.6057    0.8768    0.8660 C   0  0  0  0  0  0  0  0  0  0  0  0
  1  2  1  0
  2  7  2  3
  3  5  2  0
  3  7  1  0
  3 10  1  0
  4  6  2  0
  4  7  1  0
  4 11  1  0
  5  8  1  0
  5 12  1  0
  6  9  1  0
  6 13  1  0
  8  9  2  0
 10 14  2  0
 11 15  2  0
 12 16  2  0
 13 17  2  0
 14 16  1  0
 15 17  1  0
M  END
>  <PUBCHEM_COMPOUND_CID>  (1) 
13924

>  <PUBCHEM_CONFORMER_RMSD>  (1) 
0.4

>  <PUBCHEM_CONFORMER_DIVERSEORDER>  (1) 
1
2

>  <PUBCHEM_MMFF94_PARTIAL_CHARGES>  (1) 
28
1 -0.34
10 -0.15
11 -0.15
12 -0.15
13 -0.15
14 -0.15
15 -0.15
16 -0.15
17 -0.15
18 0.15
19 0.15
2 -0.51
20 0.15
21 0.15
22 0.15
23 0.15
24 0.15
25 0.15
26 0.15
27 0.15
28 0.4
3 0.09
4 0.09
5 0.03
6 0.03
7 0.28
8 -0.18
9 -0.18

>  <PUBCHEM_EFFECTIVE_ROTOR_COUNT>  (1) 
0

>  <PUBCHEM_PHARMACOPHORE_FEATURES>  (1) 
5
1 1 anion
1 2 acceptor
6 3 5 10 12 14 16 rings
6 4 6 11 13 15 17 rings
7 3 4 5 6 7 8 9 rings

>  <PUBCHEM_HEAVY_ATOM_COUNT>  (1) 
17

>  <PUBCHEM_ATOM_DEF_STEREO_COUNT>  (1) 
0

>  <PUBCHEM_ATOM_UDEF_STEREO_COUNT>  (1) 
0

>  <PUBCHEM_BOND_DEF_STEREO_COUNT>  (1) 
0

>  <PUBCHEM_BOND_UDEF_STEREO_COUNT>  (1) 
0

>  <PUBCHEM_ISOTOPIC_ATOM_COUNT>  (1) 
0

>  <PUBCHEM_COMPONENT_COUNT>  (1) 
1

>  <PUBCHEM_CACTVS_TAUTO_COUNT>  (1) 
2

>  <PUBCHEM_CONFORMER_ID>  (1) 
0000366400000001

>  <PUBCHEM_MMFF94_ENERGY>  (1) 
74.8238

>  <PUBCHEM_FEATURE_SELFOVERLAP>  (1) 
25.388

>  <PUBCHEM_SHAPE_FINGERPRINT>  (1) 
11086676 242 18260550017672995392
11132069 177 18409731729438468017
11471102 22 18187939373338573120
12011746 2 18335702672165039261
12251169 10 18334861605994362633
12382932 28 18409453544275058249
12400797 245 18113344127864623907
12696612 119 18260557735375752916
13140716 1 18263363598913669896
13172582 1 18410857650624831836
13221675 6 18260830414702377552
14617773 55 17911792788773663708
15209294 21 18198897188405876056
15309172 13 18343298128533335602
15375462 478 18334298703464786555
15775835 57 18342461482000032032
16945 1 18114189639516563725
17804303 29 18263649459373470082
1813 80 16950849107565602382
200 152 18340194272328861965
20261772 1 18411985792499432234
20361792 2 13262405478876831043
20559304 39 18115039609196811700
20871998 184 18336540521547843636
21731228 192 18343022181285296499
22112679 90 17696762429570043983
22445834 79 18261956361474182312
23184049 59 18410576158441858744
2334 1 18335140911965083476
23388829 49 18049435139096309196
23402539 116 18335976520108123859
23463225 33 18259710003336796108
23559900 14 17825105909640998650
2748010 2 18120933897801872004
34934 24 18186511107649832152
69090 78 18412256225415762209
6992083 37 18338509837062124974
7097593 13 18260540087708886786
7471813 234 17194583621898109159
81228 2 17983552372390704294
84936 31 16914816920989384247
90316 7 17677614168105257733

>  <PUBCHEM_SHAPE_MULTIPOLES>  (1) 
339
5.92
2.25
1.13
1
0.14
0.11
-0.42
-2.98
-0.29
0.81
-0.22
0.28
-0.35

>  <PUBCHEM_SHAPE_SELFOVERLAP>  (1) 
758.33

>  <PUBCHEM_SHAPE_VOLUME>  (1) 
177.5

>  <PUBCHEM_COORDINATE_TYPE>  (1) 
2
5
10

$$$$
