13921
     RDKit          3D

 13 13  0  0  0  0  0  0  0  0999 V2000
   -4.9661    0.9419    0.0051 Cl  0  0  0  0  0  0  0  0  0  0  0  0
    1.5524   -0.1201   -0.0006 O   0  0  0  0  0  0  0  0  0  0  0  0
    2.8534   -0.6449   -0.0036 N   0  0  0  0  0  0  0  0  0  0  0  0
    5.0786    0.0612    0.0006 N   0  0  0  0  0  0  0  0  0  0  0  0
    3.4573    1.6724    0.0090 N   0  0  0  0  0  0  0  0  0  0  0  0
   -0.7620   -0.6677   -0.0036 C   0  0  0  0  0  0  0  0  0  0  0  0
    0.6386   -1.2061   -0.0067 C   0  0  0  0  0  0  0  0  0  0  0  0
   -1.4051   -0.4289    1.2057 C   0  0  0  0  0  0  0  0  0  0  0  0
   -1.4045   -0.4141   -1.2103 C   0  0  0  0  0  0  0  0  0  0  0  0
   -2.7076    0.0702    1.2083 C   0  0  0  0  0  0  0  0  0  0  0  0
   -2.7069    0.0851   -1.2075 C   0  0  0  0  0  0  0  0  0  0  0  0
   -3.3585    0.3273    0.0017 C   0  0  0  0  0  0  0  0  0  0  0  0
    3.7304    0.3238    0.0018 C   0  0  0  0  0  0  0  0  0  0  0  0
  1 12  1  0
  2  3  1  0
  2  7  1  0
  3 13  2  3
  4 13  1  0
  5 13  1  0
  6  7  1  0
  6  8  2  0
  6  9  1  0
  8 10  1  0
  9 11  2  0
 10 12  2  0
 11 12  1  0
M  END
>  <PUBCHEM_COMPOUND_CID>  (1) 
13921

>  <PUBCHEM_CONFORMER_RMSD>  (1) 
0.6

>  <PUBCHEM_CONFORMER_DIVERSEORDER>  (1) 
1
7
2
4
3
5
6

>  <PUBCHEM_MMFF94_PARTIAL_CHARGES>  (1) 
21
1 -0.18
10 -0.15
11 -0.15
12 0.18
13 0.55
16 0.15
17 0.15
18 0.15
19 0.15
2 -0.22
20 0.4
21 0.4
22 0.4
23 0.4
3 -0.51
4 -0.85
5 -0.85
6 -0.14
7 0.42
8 -0.15
9 -0.15

>  <PUBCHEM_EFFECTIVE_ROTOR_COUNT>  (1) 
3

>  <PUBCHEM_PHARMACOPHORE_FEATURES>  (1) 
4
1 4 donor
1 5 donor
4 3 4 5 13 cation
6 6 8 9 10 11 12 rings

>  <PUBCHEM_HEAVY_ATOM_COUNT>  (1) 
13

>  <PUBCHEM_ATOM_DEF_STEREO_COUNT>  (1) 
0

>  <PUBCHEM_ATOM_UDEF_STEREO_COUNT>  (1) 
0

>  <PUBCHEM_BOND_DEF_STEREO_COUNT>  (1) 
0

>  <PUBCHEM_BOND_UDEF_STEREO_COUNT>  (1) 
0

>  <PUBCHEM_ISOTOPIC_ATOM_COUNT>  (1) 
0

>  <PUBCHEM_COMPONENT_COUNT>  (1) 
1

>  <PUBCHEM_CACTVS_TAUTO_COUNT>  (1) 
2

>  <PUBCHEM_CONFORMER_ID>  (1) 
0000366100000001

>  <PUBCHEM_MMFF94_ENERGY>  (1) 
30.8828

>  <PUBCHEM_FEATURE_SELFOVERLAP>  (1) 
20.352

>  <PUBCHEM_SHAPE_FINGERPRINT>  (1) 
11132069 177 16660649535889453587
114248 4 14261348055109410634
12119455 92 18186798067584616375
12251169 10 15647057066195363695
13214271 11 18333452049736849799
14252887 29 12179840577012822216
14911166 2 15697991921483671481
14993402 34 17060616685902172049
15048467 5 18272369725349791761
15775835 57 18131350804038725437
17846911 113 16877943819800070671
18186145 218 18412262848413731158
187816 3 15626221308444030983
20300324 65 15770057233013477499
20374829 77 13254790222888465885
20432913 95 8935003685095185460
20645464 45 17603869996413193579
20645476 183 17561074813664169183
20645477 56 17894349964854954279
20645477 70 18339923697826960246
20871999 31 16630229399265386391
21119208 17 16917066659286987628
22485316 2 9151176441301807380
22926399 37 18202282502770850225
2297311 6 15864356788083586966
23402539 116 14907901539928382257
23403322 49 12031802343985966268
4175511 318 16845570907417670293
42 15 14562528462006831754
449060 50 16660082204926998158
90316 7 13984652625401395927

>  <PUBCHEM_SHAPE_MULTIPOLES>  (1) 
248.59
9.46
1.08
1.08
6.41
0.19
-0.03
3.76
0.41
0.42
0.04
-0.94
-0.09
0.15

>  <PUBCHEM_SHAPE_SELFOVERLAP>  (1) 
498.921

>  <PUBCHEM_SHAPE_VOLUME>  (1) 
147.4

>  <PUBCHEM_COORDINATE_TYPE>  (1) 
2
5
10

$$$$
