13937
     RDKit          3D

 19 20  0  0  1  0  0  0  0  0999 V2000
    1.3430    0.3522   -0.7028 O   0  0  0  0  0  0  0  0  0  0  0  0
    3.1311    0.6883    1.5318 O   0  0  0  0  0  0  0  0  0  0  0  0
    0.9037    3.0892   -1.0485 O   0  0  0  0  0  0  0  0  0  0  0  0
   -6.0818   -1.4127    0.7295 O   0  0  0  0  0  0  0  0  0  0  0  0
   -1.9622    1.0638    0.1403 N   0  0  0  0  0  0  0  0  0  0  0  0
    1.0483    1.2103    0.4081 C   0  0  0  0  0  0  0  0  0  0  0  0
    0.1538    2.3323   -0.0980 C   0  0  0  0  0  0  0  0  0  0  0  0
   -1.1235    1.8264   -0.7743 C   0  0  0  0  0  0  0  0  0  0  0  0
    2.3440    1.7557    0.9937 C   0  0  0  0  0  0  0  0  0  0  0  0
   -3.1889    0.6314   -0.5156 C   0  0  0  0  0  0  0  0  0  0  0  0
    2.3520   -0.5303   -0.4197 C   0  0  0  0  0  0  0  0  0  0  0  0
    3.2115   -0.3733    0.6697 C   0  0  0  0  0  0  0  0  0  0  0  0
   -4.0506   -0.1742    0.4513 C   0  0  0  0  0  0  0  0  0  0  0  0
   -5.3319   -0.6593   -0.2133 C   0  0  0  0  0  0  0  0  0  0  0  0
    2.5073   -1.6162   -1.2818 C   0  0  0  0  0  0  0  0  0  0  0  0
    4.1989   -1.3256    0.9235 C   0  0  0  0  0  0  0  0  0  0  0  0
    3.5039   -2.5606   -1.0353 C   0  0  0  0  0  0  0  0  0  0  0  0
    4.3449   -2.4185    0.0688 C   0  0  0  0  0  0  0  0  0  0  0  0
   -7.3033   -1.8790    0.1722 C   0  0  0  0  0  0  0  0  0  0  0  0
  1  6  1  0
  1 11  1  0
  2  9  1  0
  2 12  1  0
  3  7  1  0
  4 14  1  0
  4 19  1  0
  5  8  1  0
  5 10  1  0
  6  7  1  0
  6  9  1  0
  7  8  1  0
 10 13  1  0
 11 12  2  0
 11 15  1  0
 12 16  1  0
 13 14  1  0
 15 17  2  0
 16 18  2  0
 17 18  1  0
M  END
>  <PUBCHEM_COMPOUND_CID>  (1) 
13937

>  <PUBCHEM_CONFORMER_RMSD>  (1) 
0.8

>  <PUBCHEM_CONFORMER_DIVERSEORDER>  (1) 
1
210
199
245
286
2
292
232
192
72
323
7
114
291
212
237
265
82
359
77
6
257
186
118
209
137
217
294
26
249
9
361
24
17
336
21
75
159
54
13
368
203
270
40
44
348
34
387
305
263
48
235
140
366
45
341
113
382
10
254
375
59
356
160
205
148
314
271
69
364
121
12
360
267
233
15
349
61
104
62
322
334
46
57
71
310
173
128
141
88
111
251
340
383
50
149
56
238
181
246
268
130
377
179
202
99
230
92
79
132
252
58
319
374
290
220
318
5
363
138
22
345
306
172
133
309
320
83
178
33
18
105
93
285
196
86
38
275
176
378
185
283
150
70
119
380
386
85
358
241
125
129
28
351
189
14
385
106
321
201
188
180
297
139
298
376
158
100
91
225
89
218
325
342
248
183
3
273
131
301
353
236
135
8
247
68
11
231
206
36
157
74
43
224
253
215
120
123
331
110
166
266
146
326
311
337
143
197
25
372
73
281
81
390
32
384
381
392
295
327
370
261
393
240
379
19
350
219
101
126
264
76
262
134
39
296
332
151
102
312
280
223
94
115
41
52
193
55
226
299
64
165
84
90
164
343
307
170
142
258
161
66
250
293
63
287
124
308
184
29
35
96
274
391
365
316
195
127
304
167
330
87
97
362
211
234
182
352
216
200
154
303
276
51
42
145
30
214
371
355
277
213
256
162
67
122
60
288
207
190
144
20
335
171
357
23
328
98
147
175
227
278
329
31
344
108
153
191
222
244
373
354
156
109
103
339
4
317
168
37
152
117
163
333
194
289
204
187
239
367
95
49
338
65
78
107
27
282
242
259
155
347
243
112
16
221
53
255
313
272
279
300
269
47
169
346
324
198
116
388
229
208
174
315
80
177
302
389
369
284
228
136
260

>  <PUBCHEM_MMFF94_PARTIAL_CHARGES>  (1) 
24
1 -0.36
10 0.27
11 0.08
12 0.08
14 0.28
15 -0.15
16 -0.15
17 -0.15
18 -0.15
19 0.28
2 -0.36
26 0.36
3 -0.68
31 0.4
34 0.15
35 0.15
36 0.15
37 0.15
4 -0.56
5 -0.9
6 0.28
7 0.28
8 0.27
9 0.28

>  <PUBCHEM_EFFECTIVE_ROTOR_COUNT>  (1) 
7.8

>  <PUBCHEM_PHARMACOPHORE_FEATURES>  (1) 
9
1 1 acceptor
1 2 acceptor
1 3 acceptor
1 3 donor
1 4 acceptor
1 5 cation
1 5 donor
6 1 2 6 9 11 12 rings
6 11 12 15 16 17 18 rings

>  <PUBCHEM_HEAVY_ATOM_COUNT>  (1) 
19

>  <PUBCHEM_ATOM_DEF_STEREO_COUNT>  (1) 
0

>  <PUBCHEM_ATOM_UDEF_STEREO_COUNT>  (1) 
2

>  <PUBCHEM_BOND_DEF_STEREO_COUNT>  (1) 
0

>  <PUBCHEM_BOND_UDEF_STEREO_COUNT>  (1) 
0

>  <PUBCHEM_ISOTOPIC_ATOM_COUNT>  (1) 
0

>  <PUBCHEM_COMPONENT_COUNT>  (1) 
1

>  <PUBCHEM_CACTVS_TAUTO_COUNT>  (1) 
1

>  <PUBCHEM_CONFORMER_ID>  (1) 
0000367100000001

>  <PUBCHEM_MMFF94_ENERGY>  (1) 
44.0091

>  <PUBCHEM_FEATURE_SELFOVERLAP>  (1) 
45.717

>  <PUBCHEM_SHAPE_FINGERPRINT>  (1) 
114674 6 18408884057434342091
11796584 16 17755854221905901250
12363563 72 18261963955002728801
12623949 98 17988934323005641870
12633257 1 15626212533820583649
12778500 126 12607412057452546126
12892183 10 17703786998901349673
13533116 47 18272091656134044873
13551218 46 18342176704979843871
13955234 65 18195813096739272857
1420 369 18411140221287824779
14211702 104 18119251908028532643
14251740 57 18272940418459348023
14251764 30 17487917617841316022
14252887 29 18412258445571339936
14341114 328 15626214741270262843
14528608 73 8214149534647310161
14863182 85 18339080518315790988
15342816 4 17894905192346570200
15352361 1 18409450258915064551
1768 124 18200591523124343807
17834072 32 9943223944653906475
17859628 70 18343303686410998644
17980427 26 9439121992714373040
193927 3 18340770355960016877
1979834 28 17632588140978083551
20388580 30 18113905961216583117
20397935 70 18202288039353070207
20403669 9 18408324376314867123
20645477 70 18187926244151179981
22224240 67 17986663981907849232
239999 70 18114176501238141673
270888 7 9799397923931067115
2838139 119 8285900355433476914
316301 35 18409444756745817842
3421961 26 18412263960620545057
465052 167 18343582923862898014
5104073 3 18131350774480610625
5207 123 18408040702562554541
5312510 48 8214150659739506703
5352402 22 18131069294649502799
57091435 61 9295289422292455183
59682541 52 13407064869342219731
6025842 7 18117281569546689045
7062679 13 18263079929235278547
7808743 9 11167354241891710226
7970288 3 18334856065687751459
8217 86 18199199390963374614
960060 61 15574712508771579483

>  <PUBCHEM_SHAPE_MULTIPOLES>  (1) 
362.55
13.39
3.11
1.14
29.52
0.53
-0.01
-13.81
-2.83
-1.52
0.67
-0.88
0.03
1.31

>  <PUBCHEM_SHAPE_SELFOVERLAP>  (1) 
741.341

>  <PUBCHEM_SHAPE_VOLUME>  (1) 
209.3

>  <PUBCHEM_COORDINATE_TYPE>  (1) 
2
5
10

$$$$
