13944
     RDKit          3D

 20 21  0  0  1  0  0  0  0  0999 V2000
   -3.6243   -2.4683    0.4084 O   0  0  0  0  0  0  0  0  0  0  0  0
   -0.0121   -1.2096    0.6896 O   0  0  0  0  0  0  0  0  0  0  0  0
   -0.8457    3.0679   -0.9342 O   0  0  0  0  0  0  0  0  0  0  0  0
    3.4366    1.8339    0.1184 O   0  0  0  0  0  0  0  0  0  0  0  0
   -0.5302    0.9630    0.0254 N   0  0  0  0  0  0  0  0  0  0  0  0
    1.2741    2.4460   -0.3490 N   0  0  0  0  0  0  0  0  0  0  0  0
   -1.9140    0.6224   -0.2004 C   0  0  0  0  0  0  0  0  0  0  0  0
   -2.6043    0.2574    1.1162 C   0  0  0  0  0  0  0  0  0  0  0  0
   -2.0272   -0.5107   -1.2227 C   0  0  0  0  0  0  0  0  0  0  0  0
   -4.0595   -0.1568    0.8933 C   0  0  0  0  0  0  0  0  0  0  0  0
   -3.4825   -0.9231   -1.4466 C   0  0  0  0  0  0  0  0  0  0  0  0
   -4.1886   -1.2779   -0.1374 C   0  0  0  0  0  0  0  0  0  0  0  0
    1.6516    0.4922    1.0389 C   0  0  0  0  0  0  0  0  0  0  0  0
    0.3097   -0.0282    0.5570 C   0  0  0  0  0  0  0  0  0  0  0  0
    2.6631   -0.6427    1.1929 C   0  0  0  0  0  0  0  0  0  0  0  0
   -0.0982    2.2219   -0.4359 C   0  0  0  0  0  0  0  0  0  0  0  0
    2.2299    1.6203    0.2177 C   0  0  0  0  0  0  0  0  0  0  0  0
    3.0958   -1.1854   -0.1658 C   0  0  0  0  0  0  0  0  0  0  0  0
    4.1314   -2.2986   -0.0082 C   0  0  0  0  0  0  0  0  0  0  0  0
    4.5946   -2.8236   -1.3578 C   0  0  0  0  0  0  0  0  0  0  0  0
  1 12  1  0
  2 14  2  0
  3 16  2  0
  4 17  2  0
  5  7  1  0
  5 14  1  0
  5 16  1  0
  6 16  1  0
  6 17  1  0
  7  8  1  0
  7  9  1  0
  8 10  1  0
  9 11  1  0
 10 12  1  0
 11 12  1  0
 13 14  1  0
 13 15  1  0
 13 17  1  0
 15 18  1  0
 18 19  1  0
 19 20  1  0
M  END
>  <PUBCHEM_COMPOUND_CID>  (1) 
13944

>  <PUBCHEM_CONFORMER_RMSD>  (1) 
0.8

>  <PUBCHEM_CONFORMER_DIVERSEORDER>  (1) 
1
3
22
20
24
4
23
21
13
5
18
10
6
12
17
8
16
9
7
11
15
19
14
2

>  <PUBCHEM_MMFF94_PARTIAL_CHARGES>  (1) 
14
1 -0.68
12 0.28
13 0.12
14 0.57
16 0.69
17 0.57
2 -0.57
3 -0.57
36 0.37
37 0.4
4 -0.57
5 -0.42
6 -0.49
7 0.3

>  <PUBCHEM_EFFECTIVE_ROTOR_COUNT>  (1) 
5.8

>  <PUBCHEM_PHARMACOPHORE_FEATURES>  (1) 
10
1 1 acceptor
1 1 donor
1 13 anion
1 2 acceptor
1 20 hydrophobe
1 3 acceptor
1 4 acceptor
1 6 donor
6 5 6 13 14 16 17 rings
6 7 8 9 10 11 12 rings

>  <PUBCHEM_HEAVY_ATOM_COUNT>  (1) 
20

>  <PUBCHEM_ATOM_DEF_STEREO_COUNT>  (1) 
0

>  <PUBCHEM_ATOM_UDEF_STEREO_COUNT>  (1) 
1

>  <PUBCHEM_BOND_DEF_STEREO_COUNT>  (1) 
0

>  <PUBCHEM_BOND_UDEF_STEREO_COUNT>  (1) 
0

>  <PUBCHEM_ISOTOPIC_ATOM_COUNT>  (1) 
0

>  <PUBCHEM_COMPONENT_COUNT>  (1) 
1

>  <PUBCHEM_CACTVS_TAUTO_COUNT>  (1) 
3

>  <PUBCHEM_CONFORMER_ID>  (1) 
0000367800000001

>  <PUBCHEM_MMFF94_ENERGY>  (1) 
36.4574

>  <PUBCHEM_FEATURE_SELFOVERLAP>  (1) 
50.746

>  <PUBCHEM_SHAPE_FINGERPRINT>  (1) 
10968037 57 18200595795814586207
11543360 7 14634876322714296762
116883 192 18337664235416585164
12236239 1 18129945723295579073
12403259 327 15913319230210603979
12553582 1 18262513680736418195
12596599 1 18408600387940216435
12633257 1 15626226853183877083
13140716 1 18191290590560363952
13296908 3 18114730608011895921
13533116 47 18129940195730983763
13583140 156 15194698165581141698
14252887 29 18337106873189261976
14790565 3 17042608609680307320
15848702 151 18411418431799220723
16945 1 18116698639009319585
17357779 13 18262224543585056428
17492 89 18268432502585497859
1813 80 18339932527925656366
18186145 218 17895185615114146635
19141452 34 18059292037654177631
19422 9 18272933842864092939
20645477 70 18336529608252254863
20693207 138 18040716986877802671
20871998 22 18409727369883320544
20871999 31 18191311464354006158
221490 88 18335707190550184626
22182313 1 18263626412684968044
22950370 63 18339935822260816494
23379529 103 18341620295665970366
23557571 272 18196913510436184040
23559900 14 18410568487625038930
23566358 27 18339652229870185508
23598291 2 18343582945253143347
2748010 2 18190159236044944468
3286 77 17346022437698255371
4463277 69 18201710743607350918
77492 1 18057887033972470833
9709674 26 18189335852143719851

>  <PUBCHEM_SHAPE_MULTIPOLES>  (1) 
378.15
8.39
3.07
1.23
1.47
0.64
-0.11
-7.48
-0.7
2.11
-1
-0.24
-0.25
0.75

>  <PUBCHEM_SHAPE_SELFOVERLAP>  (1) 
776.708

>  <PUBCHEM_SHAPE_VOLUME>  (1) 
213.5

>  <PUBCHEM_COORDINATE_TYPE>  (1) 
2
5
10

$$$$
