13953
     RDKit          3D

 22 23  0  0  0  0  0  0  0  0999 V2000
    2.2855   -2.0426   -0.3645 S   0  0  0  0  0  0  0  0  0  0  0  0
   -0.0850   -1.2982    1.4990 O   0  0  0  0  0  0  0  0  0  0  0  0
    2.3463   -2.7389    0.9061 O   0  0  0  0  0  0  0  0  0  0  0  0
    2.8703   -2.6308   -1.5540 O   0  0  0  0  0  0  0  0  0  0  0  0
   -1.5412   -0.9637   -0.2645 N   0  0  0  0  0  0  0  0  0  0  0  0
    0.6668   -1.6009   -0.6915 N   0  0  0  0  0  0  0  0  0  0  0  0
   -2.6969   -0.6023    0.5273 C   0  0  0  0  0  0  0  0  0  0  0  0
   -3.9740   -1.1366   -0.1332 C   0  0  0  0  0  0  0  0  0  0  0  0
   -2.6638    0.8877    0.8821 C   0  0  0  0  0  0  0  0  0  0  0  0
   -5.2814   -0.6629    0.5035 C   0  0  0  0  0  0  0  0  0  0  0  0
   -2.7609    1.8826   -0.2741 C   0  0  0  0  0  0  0  0  0  0  0  0
   -6.0055    0.4363   -0.2768 C   0  0  0  0  0  0  0  0  0  0  0  0
   -4.0414    1.8772   -1.1084 C   0  0  0  0  0  0  0  0  0  0  0  0
   -5.3399    1.8138   -0.3040 C   0  0  0  0  0  0  0  0  0  0  0  0
   -0.3209   -1.2843    0.2946 C   0  0  0  0  0  0  0  0  0  0  0  0
    3.0343   -0.4549   -0.1584 C   0  0  0  0  0  0  0  0  0  0  0  0
    3.0718    0.1154    1.1024 C   0  0  0  0  0  0  0  0  0  0  0  0
    3.5693    0.1890   -1.2607 C   0  0  0  0  0  0  0  0  0  0  0  0
    4.2062    2.0318    0.1661 C   0  0  0  0  0  0  0  0  0  0  0  0
    3.6622    1.3686    1.2657 C   0  0  0  0  0  0  0  0  0  0  0  0
    4.1598    1.4421   -1.0973 C   0  0  0  0  0  0  0  0  0  0  0  0
    4.8381    3.3716    0.3406 C   0  0  0  0  0  0  0  0  0  0  0  0
  1  3  2  0
  1  4  2  0
  1  6  1  0
  1 16  1  0
  2 15  2  0
  5  7  1  0
  5 15  1  0
  6 15  1  0
  7  8  1  0
  7  9  1  0
  8 10  1  0
  9 11  1  0
 10 12  1  0
 11 13  1  0
 12 14  1  0
 13 14  1  0
 16 17  2  0
 16 18  1  0
 17 20  1  0
 18 21  2  0
 19 20  2  0
 19 21  1  0
 19 22  1  0
M  END
>  <PUBCHEM_COMPOUND_CID>  (1) 
13953

>  <PUBCHEM_CONFORMER_RMSD>  (1) 
0.8

>  <PUBCHEM_CONFORMER_DIVERSEORDER>  (1) 
1
77
113
134
46
75
89
131
68
52
97
69
92
54
48
137
126
86
99
95
32
130
121
74
65
128
84
80
123
14
43
51
90
132
140
103
87
18
33
42
28
31
79
139
125
76
106
96
110
20
138
114
36
49
72
122
41
73
116
135
94
129
70
24
16
81
53
111
124
17
35
91
47
66
136
85
98
56
61
50
27
118
101
93
7
34
127
39
10
133
71
120
63
22
21
67
88
58
38
83
64
107
82
12
100
57
13
60
23
109
37
25
30
62
26
104
59
29
55
40
8
117
105
115
102
44
6
45
15
19
5
112
11
78
119
108
9
3
4
2

>  <PUBCHEM_MMFF94_PARTIAL_CHARGES>  (1) 
21
1 1.45
15 0.87
16 -0.01
17 -0.15
18 -0.15
19 -0.14
2 -0.57
20 -0.15
21 -0.15
22 0.14
3 -0.65
38 0.37
39 0.42
4 -0.65
40 0.15
41 0.15
42 0.15
43 0.15
5 -0.73
6 -0.79
7 0.3

>  <PUBCHEM_EFFECTIVE_ROTOR_COUNT>  (1) 
6.6

>  <PUBCHEM_PHARMACOPHORE_FEATURES>  (1) 
6
1 2 acceptor
1 3 acceptor
1 4 acceptor
1 5 donor
1 6 donor
6 16 17 18 19 20 21 rings

>  <PUBCHEM_HEAVY_ATOM_COUNT>  (1) 
22

>  <PUBCHEM_ATOM_DEF_STEREO_COUNT>  (1) 
0

>  <PUBCHEM_ATOM_UDEF_STEREO_COUNT>  (1) 
0

>  <PUBCHEM_BOND_DEF_STEREO_COUNT>  (1) 
0

>  <PUBCHEM_BOND_UDEF_STEREO_COUNT>  (1) 
0

>  <PUBCHEM_ISOTOPIC_ATOM_COUNT>  (1) 
0

>  <PUBCHEM_COMPONENT_COUNT>  (1) 
1

>  <PUBCHEM_CACTVS_TAUTO_COUNT>  (1) 
3

>  <PUBCHEM_CONFORMER_ID>  (1) 
0000368100000001

>  <PUBCHEM_MMFF94_ENERGY>  (1) 
30.0188

>  <PUBCHEM_FEATURE_SELFOVERLAP>  (1) 
30.509

>  <PUBCHEM_SHAPE_FINGERPRINT>  (1) 
10498660 4 18413393159004411320
11595378 159 16081369596869774637
12596602 18 16081374097916723393
12633257 1 16009027354006257068
12730499 353 18342750649231956426
12769317 202 18272646878961674960
13402501 40 18410291458135398848
13533116 47 17095517340978360915
13965767 371 17895180139442300932
14211702 104 10303223852236758461
14251764 38 18337952273166945985
14341114 328 16660924503922256004
14468879 13 18335426819337630978
14528608 73 18272650164716819927
14848178 96 18411140216534116512
15961568 22 18187648024095438396
17349148 13 13840268070251883315
17844677 252 18337677400002913939
17868525 174 17827909629589126442
17959699 21 18337389336498865953
1813 80 14189284942360573139
21388113 180 18338800146887426664
21623110 236 18411986832673224513
23227448 37 18269271425508659541
23559900 14 18195806271825158203
245318 6 17243874646598850340
2838139 119 18339917238158794940
341906 21 17603873312011635253
34797466 226 18131077026276347359
43658 37 18412824698596938332
465052 167 8358263661011877168
474 4 18040723579520363063
5104073 3 18261116219280416979
5281201 14 18199474276758567863
67856867 119 18334850585003136970
7808743 9 18122624126900785376
7970288 3 9510649686693645036
960060 61 13398630584312064344
9981440 41 18187927347483152226

>  <PUBCHEM_SHAPE_MULTIPOLES>  (1) 
429.03
13.46
3.17
1.23
10.42
0.35
0.02
8.29
1
-3.33
0.24
-0.86
-0.13
1.28

>  <PUBCHEM_SHAPE_SELFOVERLAP>  (1) 
861.408

>  <PUBCHEM_SHAPE_VOLUME>  (1) 
250.7

>  <PUBCHEM_COORDINATE_TYPE>  (1) 
2
5
10

$$$$
