13956
     RDKit          3D

 22 24  0  0  0  0  0  0  0  0999 V2000
   -0.0785   -0.0148    1.4567 P   0  0  0  0  0  0  0  0  0  0  0  0
   -1.7209   -0.1361    0.6819 C   0  0  0  0  0  0  0  0  0  0  0  0
    0.7007    1.4551    0.7011 C   0  0  0  0  0  0  0  0  0  0  0  0
    0.9150   -1.3395    0.6840 C   0  0  0  0  0  0  0  0  0  0  0  0
   -1.8870   -0.8771   -0.4881 C   0  0  0  0  0  0  0  0  0  0  0  0
    0.0054    2.1911   -0.2531 C   0  0  0  0  0  0  0  0  0  0  0  0
    1.6412   -1.0725   -0.4721 C   0  0  0  0  0  0  0  0  0  0  0  0
   -2.8135    0.5117    1.2583 C   0  0  0  0  0  0  0  0  0  0  0  0
    1.9845    1.8297    1.0844 C   0  0  0  0  0  0  0  0  0  0  0  0
    0.9393   -2.6072    1.2566 C   0  0  0  0  0  0  0  0  0  0  0  0
   -4.2383   -0.3224   -0.5057 C   0  0  0  0  0  0  0  0  0  0  0  0
    1.8871    3.6936   -0.4495 C   0  0  0  0  0  0  0  0  0  0  0  0
    2.4280   -3.3566   -0.4924 C   0  0  0  0  0  0  0  0  0  0  0  0
   -3.1458   -0.9702   -1.0820 C   0  0  0  0  0  0  0  0  0  0  0  0
    0.6001    3.3133   -0.8300 C   0  0  0  0  0  0  0  0  0  0  0  0
    2.3998   -2.0837   -1.0620 C   0  0  0  0  0  0  0  0  0  0  0  0
   -4.0722    0.4186    0.6645 C   0  0  0  0  0  0  0  0  0  0  0  0
    2.5793    2.9518    0.5077 C   0  0  0  0  0  0  0  0  0  0  0  0
    1.6978   -3.6184    0.6670 C   0  0  0  0  0  0  0  0  0  0  0  0
   -5.5844   -0.4224   -1.1397 C   0  0  0  0  0  0  0  0  0  0  0  0
    2.5229    4.8937   -1.0654 C   0  0  0  0  0  0  0  0  0  0  0  0
    3.2394   -4.4377   -1.1222 C   0  0  0  0  0  0  0  0  0  0  0  0
  1  2  1  0
  1  3  1  0
  1  4  1  0
  2  5  2  0
  2  8  1  0
  3  6  2  0
  3  9  1  0
  4  7  2  0
  4 10  1  0
  5 14  1  0
  6 15  1  0
  7 16  1  0
  8 17  2  0
  9 18  2  0
 10 19  2  0
 11 14  2  0
 11 17  1  0
 11 20  1  0
 12 15  2  0
 12 18  1  0
 12 21  1  0
 13 16  2  0
 13 19  1  0
 13 22  1  0
M  END
>  <PUBCHEM_COMPOUND_CID>  (1) 
13956

>  <PUBCHEM_CONFORMER_RMSD>  (1) 
0.6

>  <PUBCHEM_CONFORMER_DIVERSEORDER>  (1) 
1
2

>  <PUBCHEM_MMFF94_PARTIAL_CHARGES>  (1) 
34
1 -0.04
10 -0.15
11 -0.14
12 -0.14
13 -0.14
14 -0.15
15 -0.15
16 -0.15
17 -0.15
18 -0.15
19 -0.15
2 0.01
20 0.14
21 0.14
22 0.14
23 0.15
24 0.15
25 0.15
26 0.15
27 0.15
28 0.15
29 0.15
3 0.01
30 0.15
31 0.15
32 0.15
33 0.15
34 0.15
4 0.01
5 -0.15
6 -0.15
7 -0.15
8 -0.15
9 -0.15

>  <PUBCHEM_EFFECTIVE_ROTOR_COUNT>  (1) 
3

>  <PUBCHEM_PHARMACOPHORE_FEATURES>  (1) 
3
6 2 5 8 11 14 17 rings
6 3 6 9 12 15 18 rings
6 4 7 10 13 16 19 rings

>  <PUBCHEM_HEAVY_ATOM_COUNT>  (1) 
22

>  <PUBCHEM_ATOM_DEF_STEREO_COUNT>  (1) 
0

>  <PUBCHEM_ATOM_UDEF_STEREO_COUNT>  (1) 
0

>  <PUBCHEM_BOND_DEF_STEREO_COUNT>  (1) 
0

>  <PUBCHEM_BOND_UDEF_STEREO_COUNT>  (1) 
0

>  <PUBCHEM_ISOTOPIC_ATOM_COUNT>  (1) 
0

>  <PUBCHEM_COMPONENT_COUNT>  (1) 
1

>  <PUBCHEM_CACTVS_TAUTO_COUNT>  (1) 
1

>  <PUBCHEM_CONFORMER_ID>  (1) 
0000368400000001

>  <PUBCHEM_MMFF94_ENERGY>  (1) 
74.5413

>  <PUBCHEM_FEATURE_SELFOVERLAP>  (1) 
15.223

>  <PUBCHEM_SHAPE_FINGERPRINT>  (1) 
105312 117 17758125074041921124
11045515 52 18122631543713005138
11069576 57 17842526756529046911
11477941 20 17908725938256008254
121448 382 17554044733647274817
12553582 1 18121783820570263371
12643181 29 17977398445562585364
12788726 201 17324929157765568659
13009979 54 17774728533108348395
13257819 37 17687190102670791047
133893 2 18342189864189504625
13681431 1 18411135796943853051
13690498 29 17263304838302138110
13899415 180 18194384607426986671
13911987 19 18043556987311732310
14251757 5 17473263171740689221
14556957 393 17830486911005029646
15439362 3 18338518641682297813
15475509 35 11095044967819728021
15878777 1 13411329028721553320
17539 30 17617939128063801270
1813 80 18198056980717039803
18915476 22 18265348372527004715
20600515 1 17342385077150397656
20602899 9 17694802004453228280
20775438 99 17544707354555590429
21033648 29 14059485455960837965
21304303 282 17047915367753757701
21524375 3 17756694600686690321
2255824 54 18411979182766504579
22907989 373 17330280467956922828
23366157 5 18409729569217585179
23419403 2 17244380228921238170
23559900 14 18272355465921374867
23566358 27 18340216279747107067
23598288 3 17037267194512802523
26353 1 18195246607236225822
3057174 1 18194402431461624564
3060560 45 18337664342885778032
3091708 16 9215717778105041048
352729 6 18122345954104670240
4017518 198 18129098013274511476
4280585 95 18267294348825567506
4394409 98 17972065732293773292
4409770 3 17186157570330426407
46194498 28 18262221288690819397
474 4 18264481961474622409
6786 2 17976827806561895806
7164475 11 17833841465083767822

>  <PUBCHEM_SHAPE_MULTIPOLES>  (1) 
456.6
6.97
6.4
1.4
11.78
2.02
-0.12
-1.94
2.47
-11.26
2.22
0.1
-0.18
-0.06

>  <PUBCHEM_SHAPE_SELFOVERLAP>  (1) 
965.337

>  <PUBCHEM_SHAPE_VOLUME>  (1) 
257.8

>  <PUBCHEM_COORDINATE_TYPE>  (1) 
2
5
10

$$$$
