1396
     RDKit          3D

 26 28  0  0  0  0  0  0  0  0999 V2000
    1.3358    5.9518   -0.1013 Br  0  0  0  0  0  0  0  0  0  0  0  0
    4.7339   -1.7081   -0.0538 S   0  0  0  0  0  0  0  0  0  0  0  0
   -5.5019   -1.0679    0.0582 F   0  0  0  0  0  0  0  0  0  0  0  0
   -4.4901   -2.6620   -1.0197 F   0  0  0  0  0  0  0  0  0  0  0  0
   -4.4399   -2.6212    1.1592 F   0  0  0  0  0  0  0  0  0  0  0  0
    5.0224   -2.5988   -1.1692 O   0  0  0  0  0  0  0  0  0  0  0  0
    5.4457   -0.4432    0.0646 O   0  0  0  0  0  0  0  0  0  0  0  0
   -1.0806   -0.6056    0.0006 N   0  0  0  0  0  0  0  0  0  0  0  0
   -1.9480   -1.6319    0.0223 N   0  0  0  0  0  0  0  0  0  0  0  0
    4.9135   -2.5771    1.4063 N   0  0  0  0  0  0  0  0  0  0  0  0
   -1.6766    0.6228   -0.0066 C   0  0  0  0  0  0  0  0  0  0  0  0
    0.2910   -0.8658   -0.0121 C   0  0  0  0  0  0  0  0  0  0  0  0
   -0.9664    1.8784   -0.0289 C   0  0  0  0  0  0  0  0  0  0  0  0
   -3.0300    0.3798    0.0114 C   0  0  0  0  0  0  0  0  0  0  0  0
   -3.1371   -1.0238    0.0289 C   0  0  0  0  0  0  0  0  0  0  0  0
    1.1647    0.0414    0.5716 C   0  0  0  0  0  0  0  0  0  0  0  0
    0.7612   -2.0275   -0.6089 C   0  0  0  0  0  0  0  0  0  0  0  0
    3.0186   -1.3827   -0.0385 C   0  0  0  0  0  0  0  0  0  0  0  0
    2.5351   -0.2184    0.5585 C   0  0  0  0  0  0  0  0  0  0  0  0
    2.1317   -2.2873   -0.6221 C   0  0  0  0  0  0  0  0  0  0  0  0
   -0.6096    2.4991    1.1681 C   0  0  0  0  0  0  0  0  0  0  0  0
   -0.6368    2.4716   -1.2475 C   0  0  0  0  0  0  0  0  0  0  0  0
   -4.3700   -1.8287    0.0531 C   0  0  0  0  0  0  0  0  0  0  0  0
    0.0769    3.7131    1.1467 C   0  0  0  0  0  0  0  0  0  0  0  0
    0.0498    3.6857   -1.2690 C   0  0  0  0  0  0  0  0  0  0  0  0
    0.4066    4.3064   -0.0720 C   0  0  0  0  0  0  0  0  0  0  0  0
  1 26  1  0
  2  6  2  0
  2  7  2  0
  2 10  1  0
  2 18  1  0
  3 23  1  0
  4 23  1  0
  5 23  1  0
  8  9  1  0
  8 11  1  0
  8 12  1  0
  9 15  2  0
 11 13  1  0
 11 14  2  0
 12 16  2  0
 12 17  1  0
 13 21  2  0
 13 22  1  0
 14 15  1  0
 15 23  1  0
 16 19  1  0
 17 20  2  0
 18 19  2  0
 18 20  1  0
 21 24  1  0
 22 25  2  0
 24 26  2  0
 25 26  1  0
M  END
>  <PUBCHEM_COMPOUND_CID>  (1) 
1396

>  <PUBCHEM_CONFORMER_RMSD>  (1) 
0.8

>  <PUBCHEM_CONFORMER_DIVERSEORDER>  (1) 
2
4
3
1

>  <PUBCHEM_MMFF94_PARTIAL_CHARGES>  (1) 
37
1 -0.11
10 -0.98
11 -0.2
12 -0.02
13 0.05
14 -0.15
15 0.11
16 -0.15
17 -0.15
18 -0.01
19 -0.15
2 1.45
20 -0.15
21 -0.15
22 -0.15
23 1.2
24 -0.15
25 -0.15
26 0.11
27 0.15
28 0.15
29 0.15
3 -0.34
30 0.15
31 0.15
32 0.15
33 0.15
34 0.15
35 0.15
36 0.42
37 0.42
4 -0.34
5 -0.34
6 -0.65
7 -0.65
8 0.59
9 -0.71

>  <PUBCHEM_EFFECTIVE_ROTOR_COUNT>  (1) 
4

>  <PUBCHEM_PHARMACOPHORE_FEATURES>  (1) 
8
1 1 hydrophobe
1 10 donor
1 6 acceptor
1 7 acceptor
1 9 acceptor
5 8 9 11 14 15 rings
6 12 16 17 18 19 20 rings
6 13 21 22 24 25 26 rings

>  <PUBCHEM_HEAVY_ATOM_COUNT>  (1) 
26

>  <PUBCHEM_ATOM_DEF_STEREO_COUNT>  (1) 
0

>  <PUBCHEM_ATOM_UDEF_STEREO_COUNT>  (1) 
0

>  <PUBCHEM_BOND_DEF_STEREO_COUNT>  (1) 
0

>  <PUBCHEM_BOND_UDEF_STEREO_COUNT>  (1) 
0

>  <PUBCHEM_ISOTOPIC_ATOM_COUNT>  (1) 
0

>  <PUBCHEM_COMPONENT_COUNT>  (1) 
1

>  <PUBCHEM_CACTVS_TAUTO_COUNT>  (1) 
1

>  <PUBCHEM_CONFORMER_ID>  (1) 
0000057400000002

>  <PUBCHEM_MMFF94_ENERGY>  (1) 
58.1806

>  <PUBCHEM_FEATURE_SELFOVERLAP>  (1) 
40.614

>  <PUBCHEM_SHAPE_FINGERPRINT>  (1) 
10165383 225 16539363223957167788
10411042 1 18410856555366363018
10670039 82 18338252466581161542
10937287 8 16969420717593911164
1100329 8 18338524036847049921
11045515 52 18334857203763718909
11056379 131 18122069697914494638
11059845 2 17182193849036890306
11763715 3 18192174658190969150
12107183 9 16964065009783099994
12160290 23 17767377120670413641
12173636 292 17474109795900448180
12342043 65 17631462163909925302
12403259 226 18271802372722420450
12788726 201 18044655295778238691
13009979 54 18188788136549865774
13140716 1 18411135792659584696
133893 2 18045521943317942505
13690498 29 18127708028202656126
138480 1 14663861227481577932
14028597 1 17340438164533874665
14363568 33 18193565681764975432
14508225 48 18411973637900311853
14713325 29 18125726677972946598
14790565 3 17402330867767036801
15042514 8 18266460897615406979
15131766 46 15192991775601923602
15230672 131 17040370012839274790
15439362 3 18121212353928503501
15664445 248 18127999539942294308
15927050 60 17476929416096651742
15961568 22 18411702106569489284
16087824 20 18122628250497209505
167882 2 18049722120516771581
17980427 23 17846508011123920257
1813 80 18271542960618286535
19611394 137 17898862502826577594
20238998 120 18411980235144560653
20600515 1 18127987325366903861
21033650 10 17831047653698811326
21049683 271 18117006674047997044
21120745 212 18268170689889706804
21304253 13 18412831257466024441
21304303 172 18201164235480010449
21304303 282 17255079412919407380
21641784 216 18339662052877233756
21796203 349 18049197558728289779
22907989 373 18192707848242364548
22956985 138 17756148139181667026
23366157 5 18045778155170033983
23402539 116 18409725127984498511
23557571 272 18269280053787032846
23559900 14 18336819914146047019
23845131 108 17114958690970013889
249999 5 17978234082212986867
283562 15 18263364694341534890
3091708 16 9210390657258967169
3380486 145 18266753380899408465
4017518 198 17547576337402770516
4409770 3 17973713689221726237
46194498 28 17832383813660961375
469060 322 18340216197889021232
5385378 56 17906465672845081849
6442390 28 17332256294732179009
6669772 16 17619920890615541628
6679774 75 17612857611250302552
6700243 42 17770814267634608286
7364860 26 18123753312241104185
7399639 24 18130214979180341222
77188 2 18410857672073723285
81228 2 18194137213342401763
9981440 41 17111280815647474024

>  <PUBCHEM_SHAPE_MULTIPOLES>  (1) 
496.36
8.9
6.75
1.06
4.41
12.73
0.01
-13.82
0.41
-0.34
-0.43
0.22
0.24
0.17

>  <PUBCHEM_SHAPE_SELFOVERLAP>  (1) 
1065.322

>  <PUBCHEM_SHAPE_VOLUME>  (1) 
280.9

>  <PUBCHEM_COORDINATE_TYPE>  (1) 
2
5
10

$$$$
