13968
     RDKit          3D

 23 25  0  0  1  0  0  0  0  0999 V2000
    2.4127   -1.8562    0.7805 O   0  0  0  0  0  0  0  0  0  0  0  0
   -0.0780    1.5999   -1.0355 O   0  0  0  0  0  0  0  0  0  0  0  0
   -2.0296   -1.8876    1.4147 O   0  0  0  0  0  0  0  0  0  0  0  0
    1.1815   -0.0053    0.0585 N   0  0  0  0  0  0  0  0  0  0  0  0
   -1.2067   -0.0960    0.1303 N   0  0  0  0  0  0  0  0  0  0  0  0
    2.3759    0.7903   -0.0923 C   0  0  0  0  0  0  0  0  0  0  0  0
    3.1172    0.9130    1.2416 C   0  0  0  0  0  0  0  0  0  0  0  0
    3.2788    0.2018   -1.1792 C   0  0  0  0  0  0  0  0  0  0  0  0
    4.4131    1.7059    1.0934 C   0  0  0  0  0  0  0  0  0  0  0  0
    4.5754    0.9943   -1.3235 C   0  0  0  0  0  0  0  0  0  0  0  0
    5.3108    1.1188    0.0080 C   0  0  0  0  0  0  0  0  0  0  0  0
    0.0863   -2.1552    0.3711 C   0  0  0  0  0  0  0  0  0  0  0  0
    1.3439   -1.3360    0.4599 C   0  0  0  0  0  0  0  0  0  0  0  0
   -0.0466    0.5904   -0.3238 C   0  0  0  0  0  0  0  0  0  0  0  0
   -1.1634   -1.3809    0.7001 C   0  0  0  0  0  0  0  0  0  0  0  0
   -0.0364   -2.7709   -1.0199 C   0  0  0  0  0  0  0  0  0  0  0  0
   -2.4890    0.5714    0.0497 C   0  0  0  0  0  0  0  0  0  0  0  0
   -1.2376   -3.6918   -1.1130 C   0  0  0  0  0  0  0  0  0  0  0  0
   -3.6489   -0.1821   -0.0832 C   0  0  0  0  0  0  0  0  0  0  0  0
   -2.5453    1.9588    0.1051 C   0  0  0  0  0  0  0  0  0  0  0  0
   -4.8840    0.4614   -0.1619 C   0  0  0  0  0  0  0  0  0  0  0  0
   -3.7804    2.6023    0.0263 C   0  0  0  0  0  0  0  0  0  0  0  0
   -4.9496    1.8537   -0.1070 C   0  0  0  0  0  0  0  0  0  0  0  0
  1 13  2  0
  2 14  2  0
  3 15  2  0
  4  6  1  0
  4 13  1  0
  4 14  1  0
  5 14  1  0
  5 15  1  0
  5 17  1  0
  6  7  1  0
  6  8  1  0
  7  9  1  0
  8 10  1  0
  9 11  1  0
 10 11  1  0
 12 13  1  0
 12 15  1  0
 12 16  1  0
 16 18  1  0
 17 19  2  0
 17 20  1  0
 19 21  1  0
 20 22  2  0
 21 23  2  0
 22 23  1  0
M  END
>  <PUBCHEM_COMPOUND_CID>  (1) 
13968

>  <PUBCHEM_CONFORMER_RMSD>  (1) 
0.8

>  <PUBCHEM_CONFORMER_DIVERSEORDER>  (1) 
1
4
2
7
6
3
5

>  <PUBCHEM_MMFF94_PARTIAL_CHARGES>  (1) 
21
1 -0.57
12 0.12
13 0.57
14 0.69
15 0.57
17 0.12
19 -0.15
2 -0.57
20 -0.15
21 -0.15
22 -0.15
23 -0.15
3 -0.57
4 -0.42
41 0.15
42 0.15
43 0.15
44 0.15
45 0.15
5 -0.24
6 0.3

>  <PUBCHEM_EFFECTIVE_ROTOR_COUNT>  (1) 
4.8

>  <PUBCHEM_PHARMACOPHORE_FEATURES>  (1) 
8
1 1 acceptor
1 12 anion
1 18 hydrophobe
1 2 acceptor
1 3 acceptor
6 17 19 20 21 22 23 rings
6 4 5 12 13 14 15 rings
6 6 7 8 9 10 11 rings

>  <PUBCHEM_HEAVY_ATOM_COUNT>  (1) 
23

>  <PUBCHEM_ATOM_DEF_STEREO_COUNT>  (1) 
0

>  <PUBCHEM_ATOM_UDEF_STEREO_COUNT>  (1) 
1

>  <PUBCHEM_BOND_DEF_STEREO_COUNT>  (1) 
0

>  <PUBCHEM_BOND_UDEF_STEREO_COUNT>  (1) 
0

>  <PUBCHEM_ISOTOPIC_ATOM_COUNT>  (1) 
0

>  <PUBCHEM_COMPONENT_COUNT>  (1) 
1

>  <PUBCHEM_CACTVS_TAUTO_COUNT>  (1) 
1

>  <PUBCHEM_CONFORMER_ID>  (1) 
0000369000000001

>  <PUBCHEM_MMFF94_ENERGY>  (1) 
66.9821

>  <PUBCHEM_FEATURE_SELFOVERLAP>  (1) 
40.597

>  <PUBCHEM_SHAPE_FINGERPRINT>  (1) 
10498660 4 18411981321528732513
12173636 292 18341607127079177063
12236239 1 17240765125147427876
12403814 3 17022895774615911797
12633257 1 15864346982715409528
12730499 353 18269848540517456547
12788726 201 17758684725333455294
12969540 114 18342728620370770493
13140716 1 17902799892113446209
13544592 145 18201450168511052516
13583140 156 17201921642806667124
14341114 328 16877944953487314376
14790565 3 18339927021735813340
15042514 8 18121785186422500243
15131766 46 15504079997698776350
15196674 1 18334576789912786729
15536298 74 18338516318426217745
15885798 251 8718826500523670759
1601671 61 18187367618797536708
16087824 20 18410572934462413639
16945 1 18189063164363907667
17539 30 17913199051409127599
17980427 23 17822018644235715909
18186145 218 17989490710069335561
20602899 9 17346606282741827583
21033648 29 18202277034924451328
21524375 3 18335980882950858467
22182313 1 18267330718555830559
22620623 9 17915745481815940678
23227448 37 18127686247858670004
23419403 2 16610767149504759740
23557571 272 17986391320203691770
23558518 356 17902790005135978516
23559900 14 17838326385887207579
25147074 1 18188472658438554434
2748010 2 18337409165825191095
34934 24 18187362151372253298
350125 39 18118120278070132236
474 4 18187087200593406881
495365 180 18200864063713828392
5104073 3 18189621540899923849
5265222 85 18194135225653343300
59755656 520 18411130347110324558
633830 44 17846213302799452965
6442390 28 18413669101862407900
7364860 26 18054225423817668463
7808743 9 18267017435489188752
84936 182 18128253376809866153
9862522 239 18334288786253463861
9981440 41 18334014986636798747

>  <PUBCHEM_SHAPE_MULTIPOLES>  (1) 
445.76
9.71
3.28
1.14
2.03
2.68
0.02
-8.27
0.41
-1.95
0.46
0.85
0.22
0.17

>  <PUBCHEM_SHAPE_SELFOVERLAP>  (1) 
951.268

>  <PUBCHEM_SHAPE_VOLUME>  (1) 
243.1

>  <PUBCHEM_COORDINATE_TYPE>  (1) 
2
5
10

$$$$
