13965
     RDKit          3D

 23 25  0  0  1  0  0  0  0  0999 V2000
    0.0536    2.6710   -0.7125 S   0  0  0  0  0  0  0  0  0  0  0  0
    0.7818   -0.2901    0.3364 O   0  0  0  0  0  0  0  0  0  0  0  0
   -1.5389    0.5043   -2.1828 O   0  0  0  0  0  0  0  0  0  0  0  0
    0.4604   -1.1803   -1.7597 O   0  0  0  0  0  0  0  0  0  0  0  0
    4.4006   -0.5231   -0.0481 N   0  0  0  0  0  0  0  0  0  0  0  0
    2.9903   -0.3946   -0.6600 C   0  0  0  0  0  0  0  0  0  0  0  0
    4.1845   -0.9179    1.4261 C   0  0  0  0  0  0  0  0  0  0  0  0
    2.0474   -0.9179    0.4093 C   0  0  0  0  0  0  0  0  0  0  0  0
    2.7430   -0.5515    1.7034 C   0  0  0  0  0  0  0  0  0  0  0  0
    5.2061   -1.5917   -0.7689 C   0  0  0  0  0  0  0  0  0  0  0  0
    5.1369    0.8059   -0.1387 C   0  0  0  0  0  0  0  0  0  0  0  0
    0.0711   -0.4995   -0.8166 C   0  0  0  0  0  0  0  0  0  0  0  0
   -1.2632    0.2474   -0.7954 C   0  0  0  0  0  0  0  0  0  0  0  0
   -2.3810   -0.6273   -0.2213 C   0  0  0  0  0  0  0  0  0  0  0  0
   -1.1497    1.6351   -0.1474 C   0  0  0  0  0  0  0  0  0  0  0  0
   -3.6300   -0.5578   -0.7934 C   0  0  0  0  0  0  0  0  0  0  0  0
   -2.0925   -1.4486    0.8437 C   0  0  0  0  0  0  0  0  0  0  0  0
   -1.9187    2.1230    0.8400 C   0  0  0  0  0  0  0  0  0  0  0  0
   -1.5080    3.4457    1.1746 C   0  0  0  0  0  0  0  0  0  0  0  0
   -4.6484   -1.3549   -0.2706 C   0  0  0  0  0  0  0  0  0  0  0  0
   -3.1110   -2.2457    1.3664 C   0  0  0  0  0  0  0  0  0  0  0  0
   -0.4451    3.8673    0.4065 C   0  0  0  0  0  0  0  0  0  0  0  0
   -4.3890   -2.1987    0.8092 C   0  0  0  0  0  0  0  0  0  0  0  0
  1 15  1  0
  1 22  1  0
  2  8  1  0
  2 12  1  0
  3 13  1  0
  4 12  2  0
  5  6  1  0
  5  7  1  0
  5 10  1  0
  5 11  1  0
  6  8  1  0
  7  9  1  0
  8  9  1  0
 12 13  1  0
 13 14  1  0
 13 15  1  0
 14 16  2  0
 14 17  1  0
 15 18  2  0
 16 20  1  0
 17 21  2  0
 18 19  1  0
 19 22  2  0
 20 23  2  0
 21 23  1  0
M  CHG  1   5   1
M  END
>  <PUBCHEM_COMPOUND_CID>  (1) 
13965

>  <PUBCHEM_CONFORMER_RMSD>  (1) 
0.8

>  <PUBCHEM_CONFORMER_DIVERSEORDER>  (1) 
5
302
272
323
132
66
189
233
249
261
333
301
196
195
307
331
180
141
190
92
308
152
87
229
235
133
100
38
145
222
75
269
247
288
296
303
207
96
63
116
335
314
342
239
322
363
255
286
237
356
48
315
182
225
324
36
153
24
253
276
359
211
58
271
328
206
81
65
42
56
198
357
263
72
210
199
352
158
298
326
73
165
125
159
76
306
151
318
137
84
136
287
283
345
279
194
108
148
80
44
265
86
246
183
327
334
205
309
113
236
33
134
285
12
29
54
187
173
2
346
250
339
172
336
142
71
260
360
311
343
162
91
110
34
305
101
310
176
64
82
193
47
264
121
177
294
174
14
214
17
280
278
215
164
200
297
105
317
140
104
9
354
338
353
218
27
28
340
22
163
284
277
178
74
348
330
99
319
88
184
97
243
332
15
226
143
127
103
129
256
291
146
50
257
46
109
344
316
241
43
59
52
26
304
93
216
35
179
230
349
70
292
358
293
289
171
228
68
320
85
131
30
6
1
166
234
149
147
238
201
98
89
192
365
347
3
120
102
40
55
144
186
154
155
208
227
259
8
299
16
312
281
232
242
20
175
123
321
111
114
11
41
300
7
128
221
69
268
13
181
191
262
135
223
197
209
251
67
350
32
267
361
25
51
150
4
118
290
231
39
325
57
90
224
77
202
248
53
83
60
138
112
274
21
107
139
161
130
212
62
45
94
341
364
31
266
362
244
240
245
106
204
203
220
351
10
156
37
167
273
79
95
295
119
168
185
117
124
217
126
78
258
313
157
61
275
329
270
254
23
252
170
19
160
122
219
337
169
115
282
49
355
188
213
18

>  <PUBCHEM_MMFF94_PARTIAL_CHARGES>  (1) 
31
1 -0.08
10 0.5
11 0.5
12 0.66
13 0.66
14 -0.14
15 -0.14
16 -0.15
17 -0.15
18 -0.15
19 -0.15
2 -0.43
20 -0.15
21 -0.15
22 -0.11
23 -0.15
3 -0.68
37 0.4
38 0.15
39 0.15
4 -0.57
40 0.15
41 0.15
42 0.15
43 0.15
44 0.15
45 0.15
5 -1.01
6 0.5
7 0.5
8 0.28

>  <PUBCHEM_EFFECTIVE_ROTOR_COUNT>  (1) 
6

>  <PUBCHEM_PHARMACOPHORE_FEATURES>  (1) 
7
1 3 acceptor
1 3 donor
1 4 acceptor
1 5 cation
5 1 15 18 19 22 rings
5 5 6 7 8 9 rings
6 14 16 17 20 21 23 rings

>  <PUBCHEM_HEAVY_ATOM_COUNT>  (1) 
23

>  <PUBCHEM_ATOM_DEF_STEREO_COUNT>  (1) 
0

>  <PUBCHEM_ATOM_UDEF_STEREO_COUNT>  (1) 
2

>  <PUBCHEM_BOND_DEF_STEREO_COUNT>  (1) 
0

>  <PUBCHEM_BOND_UDEF_STEREO_COUNT>  (1) 
0

>  <PUBCHEM_ISOTOPIC_ATOM_COUNT>  (1) 
0

>  <PUBCHEM_COMPONENT_COUNT>  (1) 
1

>  <PUBCHEM_CACTVS_TAUTO_COUNT>  (1) 
1

>  <PUBCHEM_CONFORMER_ID>  (1) 
0000368D00000005

>  <PUBCHEM_MMFF94_ENERGY>  (1) 
67.5933

>  <PUBCHEM_FEATURE_SELFOVERLAP>  (1) 
35.53

>  <PUBCHEM_SHAPE_FINGERPRINT>  (1) 
10366900 7 18413383233282249410
10670039 82 18338249219576044260
10906281 52 18342465794638171397
11135609 187 17682411582530734740
11265709 11 18409736183599018553
11578080 2 16627747698157768641
12082328 90 18340494353816621014
12516196 113 18339079401534558219
12553582 1 18340195392645997687
12596599 1 17968941873392508870
12596602 18 17604967318446575600
12788726 201 18335694993043024107
13032168 30 17894353284732909874
13134695 92 18196933486344979597
13140716 1 18341900688257966977
13533116 47 17832148591292815275
13544653 18 18187367683190176619
14713325 29 18128264376589947028
14787075 74 17898575542801602006
14955137 171 18268159819396117171
17980427 23 17488761055255809313
1813 80 18059589030210481669
18222031 100 18271517710547835663
19784866 34 10809606105213573535
200 152 17530681021958420882
20510252 161 18334289842673162746
20600515 1 18189069701689130887
20681651 13 17677321715486940152
21033648 29 17561074817969932907
21033650 10 13624362379148666430
21041028 32 18341335590752085241
21452121 71 17967820495690401669
21524375 3 17263832599339965493
2297311 6 18410865351844448934
23175994 123 18410854404194084391
23402539 116 18341890784152695855
23419403 2 18118378847949486581
23557571 272 18340773632777405974
23558518 356 17834946478305615207
23559900 14 17822566230494877135
238078 22 18186805806788590810
312423 11 18334299726157632934
3187 122 18342449322752886304
392239 28 18262236746009280824
497634 4 18113623348484677678
5104073 3 18270393877184738786
59755656 520 17976823077649948021
6786 2 17264989298763100761
7097593 13 17611739008139324418
7226269 152 18337669712243828989
81228 2 18196385731948882637
9981440 41 17484493682359865970

>  <PUBCHEM_SHAPE_MULTIPOLES>  (1) 
454.59
9.27
3.5
1.51
8.54
4.28
-0.09
-7.17
0.67
-2.63
1.16
0.04
-0.18
0.21

>  <PUBCHEM_SHAPE_SELFOVERLAP>  (1) 
960.152

>  <PUBCHEM_SHAPE_VOLUME>  (1) 
258.5

>  <PUBCHEM_COORDINATE_TYPE>  (1) 
2
5
10

$$$$
