13974
     RDKit          3D

 24 26  0  0  1  0  0  0  0  0999 V2000
    2.4273    1.7526   -1.0043 O   0  0  0  0  0  0  0  0  0  0  0  0
    0.0913   -1.6205    1.1431 O   0  0  0  0  0  0  0  0  0  0  0  0
   -1.9932    1.4538   -1.7167 O   0  0  0  0  0  0  0  0  0  0  0  0
    1.2848   -0.0757   -0.1014 N   0  0  0  0  0  0  0  0  0  0  0  0
   -1.1024   -0.1332   -0.2252 N   0  0  0  0  0  0  0  0  0  0  0  0
    2.5180   -0.7784    0.1587 C   0  0  0  0  0  0  0  0  0  0  0  0
    3.2969   -1.0047   -1.1396 C   0  0  0  0  0  0  0  0  0  0  0  0
    3.3599   -0.0213    1.1887 C   0  0  0  0  0  0  0  0  0  0  0  0
    4.6314   -1.6992   -0.8806 C   0  0  0  0  0  0  0  0  0  0  0  0
    4.6951   -0.7158    1.4438 C   0  0  0  0  0  0  0  0  0  0  0  0
    5.4682   -0.9439    0.1479 C   0  0  0  0  0  0  0  0  0  0  0  0
    1.3819    1.2096   -0.6465 C   0  0  0  0  0  0  0  0  0  0  0  0
    0.0785    1.9587   -0.6723 C   0  0  0  0  0  0  0  0  0  0  0  0
    0.0832   -0.6960    0.3234 C   0  0  0  0  0  0  0  0  0  0  0  0
   -1.1175    1.0810   -0.9346 C   0  0  0  0  0  0  0  0  0  0  0  0
   -0.1120    2.7165    0.6385 C   0  0  0  0  0  0  0  0  0  0  0  0
   -2.3467   -0.8614   -0.0932 C   0  0  0  0  0  0  0  0  0  0  0  0
   -1.3710    3.5260    0.6178 C   0  0  0  0  0  0  0  0  0  0  0  0
   -3.5498   -0.1662   -0.0661 C   0  0  0  0  0  0  0  0  0  0  0  0
   -2.3247   -2.2475    0.0044 C   0  0  0  0  0  0  0  0  0  0  0  0
   -4.7487   -0.8676    0.0606 C   0  0  0  0  0  0  0  0  0  0  0  0
   -3.5238   -2.9488    0.1310 C   0  0  0  0  0  0  0  0  0  0  0  0
   -2.3907    3.3408    1.4635 C   0  0  0  0  0  0  0  0  0  0  0  0
   -4.7358   -2.2587    0.1591 C   0  0  0  0  0  0  0  0  0  0  0  0
  1 12  2  0
  2 14  2  0
  3 15  2  0
  4  6  1  0
  4 12  1  0
  4 14  1  0
  5 14  1  0
  5 15  1  0
  5 17  1  0
  6  7  1  0
  6  8  1  0
  7  9  1  0
  8 10  1  0
  9 11  1  0
 10 11  1  0
 12 13  1  0
 13 15  1  0
 13 16  1  0
 16 18  1  0
 17 19  2  0
 17 20  1  0
 18 23  2  0
 19 21  1  0
 20 22  2  0
 21 24  2  0
 22 24  1  0
M  END
>  <PUBCHEM_COMPOUND_CID>  (1) 
13974

>  <PUBCHEM_CONFORMER_RMSD>  (1) 
0.8

>  <PUBCHEM_CONFORMER_DIVERSEORDER>  (1) 
1
15
17
9
6
18
3
12
16
5
4
13
2
7
8
11
14
10

>  <PUBCHEM_MMFF94_PARTIAL_CHARGES>  (1) 
27
1 -0.57
12 0.57
13 0.12
14 0.69
15 0.57
16 0.14
17 0.12
18 -0.29
19 -0.15
2 -0.57
20 -0.15
21 -0.15
22 -0.15
23 -0.3
24 -0.15
3 -0.57
39 0.15
4 -0.42
40 0.15
41 0.15
42 0.15
43 0.15
44 0.15
45 0.15
46 0.15
5 -0.24
6 0.3

>  <PUBCHEM_EFFECTIVE_ROTOR_COUNT>  (1) 
5.8

>  <PUBCHEM_PHARMACOPHORE_FEATURES>  (1) 
8
1 1 acceptor
1 13 anion
1 2 acceptor
1 23 hydrophobe
1 3 acceptor
6 17 19 20 21 22 24 rings
6 4 5 12 13 14 15 rings
6 6 7 8 9 10 11 rings

>  <PUBCHEM_HEAVY_ATOM_COUNT>  (1) 
24

>  <PUBCHEM_ATOM_DEF_STEREO_COUNT>  (1) 
0

>  <PUBCHEM_ATOM_UDEF_STEREO_COUNT>  (1) 
1

>  <PUBCHEM_BOND_DEF_STEREO_COUNT>  (1) 
0

>  <PUBCHEM_BOND_UDEF_STEREO_COUNT>  (1) 
0

>  <PUBCHEM_ISOTOPIC_ATOM_COUNT>  (1) 
0

>  <PUBCHEM_COMPONENT_COUNT>  (1) 
1

>  <PUBCHEM_CACTVS_TAUTO_COUNT>  (1) 
1

>  <PUBCHEM_CONFORMER_ID>  (1) 
0000369600000001

>  <PUBCHEM_MMFF94_ENERGY>  (1) 
69.6518

>  <PUBCHEM_FEATURE_SELFOVERLAP>  (1) 
40.597

>  <PUBCHEM_SHAPE_FINGERPRINT>  (1) 
10319926 262 18127112097506306210
1100329 8 18339930320729860257
11646440 116 18412550916476529963
116883 192 18341060648283202734
12236239 1 17022897918342798706
12403259 226 18192145126264977287
12553582 1 18260539048179270043
12714826 92 18113610175535078911
12788726 201 18338249222920964384
13009979 54 18336278915380039969
13134695 92 18198060494263642557
13140716 1 18337110176161504851
13533116 47 17906453578476314271
13583140 156 15769486629613587511
14178342 30 18266455408858225226
14787075 74 18189609626380783296
14790565 3 17473829424503505053
14866123 147 18052266098281396627
15420108 30 17338426122700327192
16752209 62 17822284665619531650
17349148 13 17313099714432140290
17980427 26 17408798174135230589
1813 80 18040436615728325358
18222031 100 18340763848884668591
19141452 34 18272087236154553767
20600515 1 17969768869007549050
21033648 29 17345737625753560634
21041028 32 18341049704901763013
21267235 1 18260271884439784579
2297311 6 18411987949000536126
23402539 116 18334850615363319878
23419403 2 18121185887881343140
23557571 272 18341327821256207250
23559900 14 18336260253414582580
23845131 108 17620483407072769153
25147074 1 18187663392131728652
266924 1 18189918537561615180
3004659 81 18114183068401412326
314173 85 18341895207652557827
335352 9 18334290977367507567
469060 322 17822862978423109385
5104073 3 18265340693320814499
59755656 215 18339641127364368927
59755656 520 17978795610242478916
7364860 26 17908706477341859873
7399639 24 18130774690770301290
81228 2 18262246525169583480
8863177 126 17388553871750705995
9709674 26 17901671789005243523

>  <PUBCHEM_SHAPE_MULTIPOLES>  (1) 
466.34
9.55
3.68
1.22
5.53
2.71
0.01
-7.8
1.04
-3.9
0.79
0.63
0.41
-0.17

>  <PUBCHEM_SHAPE_SELFOVERLAP>  (1) 
994.314

>  <PUBCHEM_SHAPE_VOLUME>  (1) 
253.8

>  <PUBCHEM_COORDINATE_TYPE>  (1) 
2
5
10

$$$$
