13973
     RDKit          3D

 24 26  0  0  1  0  0  0  0  0999 V2000
    2.4025    1.6262    1.1173 O   0  0  0  0  0  0  0  0  0  0  0  0
    0.0411   -1.6068   -1.2114 O   0  0  0  0  0  0  0  0  0  0  0  0
   -2.0235    1.3384    1.7952 O   0  0  0  0  0  0  0  0  0  0  0  0
    1.2458   -0.1396    0.1137 N   0  0  0  0  0  0  0  0  0  0  0  0
   -1.1422   -0.1798    0.2284 N   0  0  0  0  0  0  0  0  0  0  0  0
    2.4725   -0.8404   -0.1806 C   0  0  0  0  0  0  0  0  0  0  0  0
    3.3305   -0.0410   -1.1648 C   0  0  0  0  0  0  0  0  0  0  0  0
    3.2397   -1.1434    1.1086 C   0  0  0  0  0  0  0  0  0  0  0  0
    4.6582   -0.7389   -1.4484 C   0  0  0  0  0  0  0  0  0  0  0  0
    4.5684   -1.8384    0.8226 C   0  0  0  0  0  0  0  0  0  0  0  0
    5.4204   -1.0418   -0.1616 C   0  0  0  0  0  0  0  0  0  0  0  0
    0.0578    1.8743    0.7858 C   0  0  0  0  0  0  0  0  0  0  0  0
    1.3536    1.1140    0.7262 C   0  0  0  0  0  0  0  0  0  0  0  0
    0.0395   -0.7254   -0.3453 C   0  0  0  0  0  0  0  0  0  0  0  0
   -0.1197    2.7001   -0.4852 C   0  0  0  0  0  0  0  0  0  0  0  0
   -1.1481    0.9969    0.9987 C   0  0  0  0  0  0  0  0  0  0  0  0
   -1.3313    3.6202   -0.3821 C   0  0  0  0  0  0  0  0  0  0  0  0
   -2.3927   -0.8883    0.0559 C   0  0  0  0  0  0  0  0  0  0  0  0
   -1.5234    4.4235   -1.6585 C   0  0  0  0  0  0  0  0  0  0  0  0
   -3.5890   -0.1811    0.0606 C   0  0  0  0  0  0  0  0  0  0  0  0
   -2.3834   -2.2676   -0.1131 C   0  0  0  0  0  0  0  0  0  0  0  0
   -4.7941   -0.8634   -0.1060 C   0  0  0  0  0  0  0  0  0  0  0  0
   -3.5886   -2.9499   -0.2799 C   0  0  0  0  0  0  0  0  0  0  0  0
   -4.7939   -2.2477   -0.2763 C   0  0  0  0  0  0  0  0  0  0  0  0
  1 13  2  0
  2 14  2  0
  3 16  2  0
  4  6  1  0
  4 13  1  0
  4 14  1  0
  5 14  1  0
  5 16  1  0
  5 18  1  0
  6  7  1  0
  6  8  1  0
  7  9  1  0
  8 10  1  0
  9 11  1  0
 10 11  1  0
 12 13  1  0
 12 15  1  0
 12 16  1  0
 15 17  1  0
 17 19  1  0
 18 20  2  0
 18 21  1  0
 20 22  1  0
 21 23  2  0
 22 24  2  0
 23 24  1  0
M  END
>  <PUBCHEM_COMPOUND_CID>  (1) 
13973

>  <PUBCHEM_CONFORMER_RMSD>  (1) 
0.8

>  <PUBCHEM_CONFORMER_DIVERSEORDER>  (1) 
1
8
3
11
12
9
7
4
6
2
5
10

>  <PUBCHEM_MMFF94_PARTIAL_CHARGES>  (1) 
21
1 -0.57
12 0.12
13 0.57
14 0.69
16 0.57
18 0.12
2 -0.57
20 -0.15
21 -0.15
22 -0.15
23 -0.15
24 -0.15
3 -0.57
4 -0.42
44 0.15
45 0.15
46 0.15
47 0.15
48 0.15
5 -0.24
6 0.3

>  <PUBCHEM_EFFECTIVE_ROTOR_COUNT>  (1) 
5.8

>  <PUBCHEM_PHARMACOPHORE_FEATURES>  (1) 
8
1 1 acceptor
1 12 anion
1 19 hydrophobe
1 2 acceptor
1 3 acceptor
6 18 20 21 22 23 24 rings
6 4 5 12 13 14 16 rings
6 6 7 8 9 10 11 rings

>  <PUBCHEM_HEAVY_ATOM_COUNT>  (1) 
24

>  <PUBCHEM_ATOM_DEF_STEREO_COUNT>  (1) 
0

>  <PUBCHEM_ATOM_UDEF_STEREO_COUNT>  (1) 
1

>  <PUBCHEM_BOND_DEF_STEREO_COUNT>  (1) 
0

>  <PUBCHEM_BOND_UDEF_STEREO_COUNT>  (1) 
0

>  <PUBCHEM_ISOTOPIC_ATOM_COUNT>  (1) 
0

>  <PUBCHEM_COMPONENT_COUNT>  (1) 
1

>  <PUBCHEM_CACTVS_TAUTO_COUNT>  (1) 
1

>  <PUBCHEM_CONFORMER_ID>  (1) 
0000369500000001

>  <PUBCHEM_MMFF94_ENERGY>  (1) 
66.6296

>  <PUBCHEM_FEATURE_SELFOVERLAP>  (1) 
40.597

>  <PUBCHEM_SHAPE_FINGERPRINT>  (1) 
11045515 52 18187365449933803029
11578080 2 18115848790248175660
12236239 1 18333454227501936478
12553582 1 18409732876068473475
12714826 92 18271523105036957944
12788726 201 18187922820444904770
13004483 165 18409157818554362411
13009979 54 18129680702232974497
13052359 8 18049148978300008196
13140716 1 18272933838426636161
13583140 156 17986087644978936522
13899415 180 18266442360515536743
15664445 248 18048038759709712412
16752209 62 18264479590541762346
17357779 13 18201709644190714205
17492 89 17980195615295169751
17539 30 18337381643906841285
1813 80 18339929315147609719
18222031 100 18060136587070185895
200 152 17749112175523404530
20600515 1 18059592307523735663
20691752 17 18261682557620487560
20739085 24 18197798771688486923
21033648 29 16200142150016978242
21267235 1 18272098235639580091
21285901 2 18130239167644745415
22182313 1 18129077001603896896
22907989 373 18337391530789883092
23366157 5 17831012795163513791
23402539 116 18343862199911454543
23419403 2 14973980083981034615
23557571 272 17845103882887307886
23559900 14 18269548506765838651
23598288 3 17898020031499779688
3004659 81 18261110790210275718
335352 9 18343303669922245631
4409770 3 18118955906807158429
5104073 3 17987241208686140107
633830 44 8430058454960019771
7164475 11 18262237712424342718
7237137 82 18261114032567459388
8863177 126 17973173013196263907
9709674 26 17977381969344980523

>  <PUBCHEM_SHAPE_MULTIPOLES>  (1) 
466.34
9.39
4.08
1.27
4.69
4.81
-0.01
-8.74
-1.14
-3.96
-1.39
0.6
0.54
-0.04

>  <PUBCHEM_SHAPE_SELFOVERLAP>  (1) 
989.072

>  <PUBCHEM_SHAPE_VOLUME>  (1) 
255.8

>  <PUBCHEM_COORDINATE_TYPE>  (1) 
2
5
10

$$$$
