13971
     RDKit          3D

 23 25  0  0  0  0  0  0  0  0999 V2000
    0.0031   -0.3341   -0.0014 O   0  0  0  0  0  0  0  0  0  0  0  0
    6.2806    2.4025   -0.0003 O   0  0  0  0  0  0  0  0  0  0  0  0
   -6.2843    2.4007    0.0006 O   0  0  0  0  0  0  0  0  0  0  0  0
    7.1952    0.4069    0.0024 O   0  0  0  0  0  0  0  0  0  0  0  0
   -7.1973    0.4044   -0.0002 O   0  0  0  0  0  0  0  0  0  0  0  0
    0.6954   -2.4614    0.0003 N   0  0  0  0  0  0  0  0  0  0  0  0
   -0.6870   -2.4621    0.0003 N   0  0  0  0  0  0  0  0  0  0  0  0
    6.1851    1.1513    0.0006 N   0  0  0  0  0  0  0  0  0  0  0  0
   -6.1877    1.1496    0.0003 N   0  0  0  0  0  0  0  0  0  0  0  0
    2.3579   -0.6019   -0.0012 C   0  0  0  0  0  0  0  0  0  0  0  0
   -2.3514   -0.6040    0.0004 C   0  0  0  0  0  0  0  0  0  0  0  0
    1.0465   -1.2023   -0.0009 C   0  0  0  0  0  0  0  0  0  0  0  0
   -1.0472   -1.1999   -0.0005 C   0  0  0  0  0  0  0  0  0  0  0  0
    2.4889    0.7866   -0.0020 C   0  0  0  0  0  0  0  0  0  0  0  0
   -2.4912    0.7879    0.0004 C   0  0  0  0  0  0  0  0  0  0  0  0
    3.4949   -1.4099    0.0002 C   0  0  0  0  0  0  0  0  0  0  0  0
   -3.4955   -1.4094    0.0004 C   0  0  0  0  0  0  0  0  0  0  0  0
    4.8943    0.5596    0.0002 C   0  0  0  0  0  0  0  0  0  0  0  0
   -4.8964    0.5590    0.0003 C   0  0  0  0  0  0  0  0  0  0  0  0
    3.7570    1.3675   -0.0014 C   0  0  0  0  0  0  0  0  0  0  0  0
   -3.7599    1.3677    0.0004 C   0  0  0  0  0  0  0  0  0  0  0  0
    4.7632   -0.8291    0.0008 C   0  0  0  0  0  0  0  0  0  0  0  0
   -4.7642   -0.8297    0.0003 C   0  0  0  0  0  0  0  0  0  0  0  0
  1 12  1  0
  1 13  1  0
  2  8  1  0
  3  9  1  0
  4  8  2  0
  5  9  2  0
  6  7  1  0
  6 12  2  0
  7 13  2  0
  8 18  1  0
  9 19  1  0
 10 12  1  0
 10 14  2  0
 10 16  1  0
 11 13  1  0
 11 15  2  0
 11 17  1  0
 14 20  1  0
 15 21  1  0
 16 22  2  0
 17 23  2  0
 18 20  2  0
 18 22  1  0
 19 21  2  0
 19 23  1  0
M  CHG  4   2  -1   3  -1   8   1   9   1
M  END
>  <PUBCHEM_COMPOUND_CID>  (1) 
13971

>  <PUBCHEM_CONFORMER_RMSD>  (1) 
0.6

>  <PUBCHEM_CONFORMER_DIVERSEORDER>  (1) 
1

>  <PUBCHEM_MMFF94_PARTIAL_CHARGES>  (1) 
31
1 -0.28
10 0.05
11 0.05
12 0.43
13 0.43
14 -0.15
15 -0.15
16 -0.15
17 -0.15
18 0.13
19 0.13
2 -0.52
20 -0.15
21 -0.15
22 -0.15
23 -0.15
24 0.15
25 0.15
26 0.15
27 0.15
28 0.15
29 0.15
3 -0.52
30 0.15
31 0.15
4 -0.52
5 -0.52
6 -0.34
7 -0.34
8 0.91
9 0.91

>  <PUBCHEM_EFFECTIVE_ROTOR_COUNT>  (1) 
4

>  <PUBCHEM_PHARMACOPHORE_FEATURES>  (1) 
9
1 2 acceptor
1 2 anion
1 3 acceptor
1 3 anion
1 4 acceptor
1 5 acceptor
5 1 6 7 12 13 rings
6 10 14 16 18 20 22 rings
6 11 15 17 19 21 23 rings

>  <PUBCHEM_HEAVY_ATOM_COUNT>  (1) 
23

>  <PUBCHEM_ATOM_DEF_STEREO_COUNT>  (1) 
0

>  <PUBCHEM_ATOM_UDEF_STEREO_COUNT>  (1) 
0

>  <PUBCHEM_BOND_DEF_STEREO_COUNT>  (1) 
0

>  <PUBCHEM_BOND_UDEF_STEREO_COUNT>  (1) 
0

>  <PUBCHEM_ISOTOPIC_ATOM_COUNT>  (1) 
0

>  <PUBCHEM_COMPONENT_COUNT>  (1) 
1

>  <PUBCHEM_CACTVS_TAUTO_COUNT>  (1) 
1

>  <PUBCHEM_CONFORMER_ID>  (1) 
0000369300000001

>  <PUBCHEM_MMFF94_ENERGY>  (1) 
61.6938

>  <PUBCHEM_FEATURE_SELFOVERLAP>  (1) 
45.836

>  <PUBCHEM_SHAPE_FINGERPRINT>  (1) 
10 15 18040719177263293841
10411042 1 17762337320901289415
10595046 47 18342172242255440271
12236239 1 18409727361235363698
12596602 18 17603865624036078328
12633257 1 15647060390526359498
12760667 363 8790886281143024933
12838862 33 18338780273904878017
13167372 99 18410855417252562896
13402501 40 18410572885640408021
13740256 8 9367344838338579391
13785724 45 17833264225932759170
14251764 18 18260264157313077418
14556957 393 15482405247375877504
14933364 13 18410577283686360451
15048467 5 18410855460128174789
15183329 4 18272940393090119762
15188451 53 15575288713062752931
15196674 1 18410575084663260806
15238133 3 18041006171927029908
15419008 145 18115574951966007744
15475509 35 15864903219930392522
15778101 99 18411139147430001659
18006028 8 10737284653912079183
18335252 98 18341336665137623923
19611394 137 17969518172251778699
20157964 124 18342460313922167958
20281389 69 18259702276674663493
20526848 3 18410577287986946796
20554085 129 17703213080276843770
21033648 29 18270109240663640304
21033650 10 14548751568753646139
21150785 3 17203887479334193789
21236236 1 18340205293220913079
21298829 104 18412267199200511793
21421861 104 17822556232850482994
22224240 67 17967250905986845531
23198884 109 16128661842675008835
23402539 116 18272083937302581246
23402655 69 18272649060778628934
23559900 14 18201714097924243528
2838139 119 18341326768630640748
2916195 48 18411980299531568786
293599 30 18410855473382497702
335352 9 18411421705455818094
3472631 163 18342741840469816772
34797466 226 17989495099747360847
351380 3 9367347024318722957
3545911 37 18411138034616506732
4073 2 18041002886008471386
4325135 7 18342453764692907023
4340502 62 16443345364879544106
465052 167 10665232535951867482
5104073 3 18113901541753329739
5385378 56 18261108531099611298
59682541 35 18188221961793112049
59682541 52 17489321754693554748
5969126 39 18197212775484816071
59755656 520 17894907455699818538
636775 72 18341327881333794824

>  <PUBCHEM_SHAPE_MULTIPOLES>  (1) 
424.06
18.09
2.24
0.58
0.05
0.06
0
-11.61
0.01
0
0
0
0.01
0

>  <PUBCHEM_SHAPE_SELFOVERLAP>  (1) 
940.378

>  <PUBCHEM_SHAPE_VOLUME>  (1) 
229.4

>  <PUBCHEM_COORDINATE_TYPE>  (1) 
2
5
10

$$$$
