13989
     RDKit          3D

 29 32  0  0  0  0  0  0  0  0999 V2000
   -4.7621    2.9987   -1.2745 Cl  0  0  0  0  0  0  0  0  0  0  0  0
   -2.4169   -2.8490    1.9817 F   0  0  0  0  0  0  0  0  0  0  0  0
    2.0065    0.4957    2.3907 O   0  0  0  0  0  0  0  0  0  0  0  0
    3.3106   -0.1319   -0.6680 N   0  0  0  0  0  0  0  0  0  0  0  0
    5.8731   -1.4750   -0.4946 N   0  0  0  0  0  0  0  0  0  0  0  0
    0.6582    1.6376    0.8715 N   0  0  0  0  0  0  0  0  0  0  0  0
   -0.9053   -0.7404    1.9307 N   0  0  0  0  0  0  0  0  0  0  0  0
    2.1607    0.3926   -1.4018 C   0  0  0  0  0  0  0  0  0  0  0  0
    3.4206   -1.5862   -0.8402 C   0  0  0  0  0  0  0  0  0  0  0  0
    4.5489    0.5337   -1.0926 C   0  0  0  0  0  0  0  0  0  0  0  0
    1.9825    1.8988   -1.1865 C   0  0  0  0  0  0  0  0  0  0  0  0
    4.6316   -2.1319   -0.0793 C   0  0  0  0  0  0  0  0  0  0  0  0
    5.7532   -0.0246   -0.3304 C   0  0  0  0  0  0  0  0  0  0  0  0
    1.8077    2.3163    0.2731 C   0  0  0  0  0  0  0  0  0  0  0  0
   -0.6450    1.9098    0.3286 C   0  0  0  0  0  0  0  0  0  0  0  0
    0.8875    0.8091    1.9762 C   0  0  0  0  0  0  0  0  0  0  0  0
   -1.7037    0.9785    0.3626 C   0  0  0  0  0  0  0  0  0  0  0  0
   -0.3360    0.3328    2.7181 C   0  0  0  0  0  0  0  0  0  0  0  0
   -1.5255   -0.4236    0.8446 C   0  0  0  0  0  0  0  0  0  0  0  0
   -0.8923    3.1553   -0.2824 C   0  0  0  0  0  0  0  0  0  0  0  0
   -2.9756    1.3262   -0.1277 C   0  0  0  0  0  0  0  0  0  0  0  0
   -2.0761   -1.5428    0.0267 C   0  0  0  0  0  0  0  0  0  0  0  0
   -2.1532    3.4859   -0.7853 C   0  0  0  0  0  0  0  0  0  0  0  0
   -3.1978    2.5763   -0.6968 C   0  0  0  0  0  0  0  0  0  0  0  0
   -2.4976   -2.7108    0.6504 C   0  0  0  0  0  0  0  0  0  0  0  0
   -2.1619   -1.4036   -1.3534 C   0  0  0  0  0  0  0  0  0  0  0  0
   -3.0128   -3.7552   -0.1173 C   0  0  0  0  0  0  0  0  0  0  0  0
   -2.6770   -2.4481   -2.1211 C   0  0  0  0  0  0  0  0  0  0  0  0
   -3.1024   -3.6239   -1.5031 C   0  0  0  0  0  0  0  0  0  0  0  0
  1 24  1  0
  2 25  1  0
  3 16  2  0
  4  8  1  0
  4  9  1  0
  4 10  1  0
  5 12  1  0
  5 13  1  0
  6 14  1  0
  6 15  1  0
  6 16  1  0
  7 18  1  0
  7 19  2  0
  8 11  1  0
  9 12  1  0
 10 13  1  0
 11 14  1  0
 15 17  2  0
 15 20  1  0
 16 18  1  0
 17 19  1  0
 17 21  1  0
 19 22  1  0
 20 23  2  0
 21 24  2  0
 22 25  2  0
 22 26  1  0
 23 24  1  0
 25 27  1  0
 26 28  2  0
 27 29  2  0
 28 29  1  0
M  END
>  <PUBCHEM_COMPOUND_CID>  (1) 
13989

>  <PUBCHEM_CONFORMER_RMSD>  (1) 
0.8

>  <PUBCHEM_CONFORMER_DIVERSEORDER>  (1) 
2
57
94
84
13
76
97
51
27
107
85
19
16
37
90
108
103
56
72
61
89
47
39
6
1
49
71
65
45
29
74
68
15
42
26
75
88
40
79
24
58
52
55
23
73
22
98
64
60
32
77
44
104
92
5
67
4
70
3
102
21
86
53
87
99
20
34
12
43
100
91
80
95
69
31
11
17
46
101
38
78
96
48
30
83
106
82
9
93
62
66
63
36
41
54
28
81
18
33
59
14
25
8
105
50
7
10
35

>  <PUBCHEM_MMFF94_PARTIAL_CHARGES>  (1) 
36
1 -0.18
10 0.27
12 0.27
13 0.27
14 0.3
15 0.12
16 0.57
17 0.09
18 0.31
19 0.28
2 -0.19
20 -0.15
21 -0.15
22 0.09
23 -0.15
24 0.18
25 0.19
26 -0.15
27 -0.15
28 -0.15
29 -0.15
3 -0.57
4 -0.81
44 0.36
47 0.15
48 0.15
49 0.15
5 -0.9
50 0.15
51 0.15
52 0.15
53 0.15
6 -0.48
7 -0.7
8 0.27
9 0.27

>  <PUBCHEM_EFFECTIVE_ROTOR_COUNT>  (1) 
6.6

>  <PUBCHEM_PHARMACOPHORE_FEATURES>  (1) 
9
1 3 acceptor
1 4 cation
1 5 cation
1 5 donor
1 7 acceptor
6 15 17 20 21 23 24 rings
6 22 25 26 27 28 29 rings
6 4 5 9 10 12 13 rings
7 6 7 15 16 17 18 19 rings

>  <PUBCHEM_HEAVY_ATOM_COUNT>  (1) 
29

>  <PUBCHEM_ATOM_DEF_STEREO_COUNT>  (1) 
0

>  <PUBCHEM_ATOM_UDEF_STEREO_COUNT>  (1) 
0

>  <PUBCHEM_BOND_DEF_STEREO_COUNT>  (1) 
0

>  <PUBCHEM_BOND_UDEF_STEREO_COUNT>  (1) 
0

>  <PUBCHEM_ISOTOPIC_ATOM_COUNT>  (1) 
0

>  <PUBCHEM_COMPONENT_COUNT>  (1) 
1

>  <PUBCHEM_CACTVS_TAUTO_COUNT>  (1) 
1

>  <PUBCHEM_CONFORMER_ID>  (1) 
000036A500000002

>  <PUBCHEM_MMFF94_ENERGY>  (1) 
91.6785

>  <PUBCHEM_FEATURE_SELFOVERLAP>  (1) 
45.685

>  <PUBCHEM_SHAPE_FINGERPRINT>  (1) 
10254770 206 17541085482188011050
107951 10 17968949556783085483
11370993 70 18122065299820199164
11578080 2 17774155841752595945
11621639 148 14951531969763834680
12156800 1 17195957693689606327
12373685 5 18262216865106658210
12422481 6 17979959009920071499
12633257 1 16413815883823724119
12788726 201 18334286574609193483
12977781 61 17414962959205286818
14114207 22 17392194027847408422
14659021 117 18334853970075273338
15475509 8 18267013042191156831
15664445 248 17689147233721757221
1813 80 17979915239787155051
19315092 285 16197039543014984815
19930381 70 17542797850597175015
20511986 3 18041554733829692972
20602899 9 18199750232982066481
20775438 99 17766517556466237525
20775530 9 17987241221080242758
21781051 124 18334011654306581401
22393880 68 18338817684003502228
23419403 2 17131253787778213856
23559900 14 18411418380982871280
38695281 34 17975696087080134973
44062 13 18411706469728617910
46194498 28 17181355428059613559
5309563 4 17978236285030926911
59025328 239 17195696293700910055
70251023 43 17976541933759849683

>  <PUBCHEM_SHAPE_MULTIPOLES>  (1) 
565.61
9.25
4.85
2.06
13.67
1.68
-1.16
2.48
4.27
-6.73
1.5
-0.46
0.43
0.64

>  <PUBCHEM_SHAPE_SELFOVERLAP>  (1) 
1209.766

>  <PUBCHEM_SHAPE_VOLUME>  (1) 
312.4

>  <PUBCHEM_COORDINATE_TYPE>  (1) 
2
5
10

$$$$
