13983
     RDKit          3D

 27 30  0  0  0  0  0  0  0  0999 V2000
   -2.6018   -1.1770   -1.9363 S   0  0  0  0  0  0  0  0  0  0  0  0
    2.9646   -4.1101    0.5006 O   0  0  0  0  0  0  0  0  0  0  0  0
    1.3930    1.9762   -0.2598 N   0  0  0  0  0  0  0  0  0  0  0  0
    4.2480    2.2121   -0.6495 N   0  0  0  0  0  0  0  0  0  0  0  0
   -1.4419    0.0629    0.6681 N   0  0  0  0  0  0  0  0  0  0  0  0
    2.2290    2.7410    0.6735 C   0  0  0  0  0  0  0  0  0  0  0  0
    1.9794    1.9943   -1.6055 C   0  0  0  0  0  0  0  0  0  0  0  0
    0.0280    2.4982   -0.2813 C   0  0  0  0  0  0  0  0  0  0  0  0
    3.6608    2.1948    0.6959 C   0  0  0  0  0  0  0  0  0  0  0  0
    3.4116    1.4489   -1.5839 C   0  0  0  0  0  0  0  0  0  0  0  0
   -0.6581    2.3639    1.0816 C   0  0  0  0  0  0  0  0  0  0  0  0
   -0.7362    0.9345    1.6164 C   0  0  0  0  0  0  0  0  0  0  0  0
    5.6122    1.6882   -0.6273 C   0  0  0  0  0  0  0  0  0  0  0  0
   -0.7280   -1.0439    0.1430 C   0  0  0  0  0  0  0  0  0  0  0  0
   -2.8031    0.3565    0.4003 C   0  0  0  0  0  0  0  0  0  0  0  0
   -1.1679   -1.7059   -1.0203 C   0  0  0  0  0  0  0  0  0  0  0  0
   -3.4485   -0.1667   -0.7376 C   0  0  0  0  0  0  0  0  0  0  0  0
    0.4275   -1.5555    0.7731 C   0  0  0  0  0  0  0  0  0  0  0  0
   -3.5819    1.1504    1.2705 C   0  0  0  0  0  0  0  0  0  0  0  0
   -0.4601   -2.8077   -1.5328 C   0  0  0  0  0  0  0  0  0  0  0  0
    1.1244   -2.6539    0.2622 C   0  0  0  0  0  0  0  0  0  0  0  0
   -4.8006    0.1218   -0.9944 C   0  0  0  0  0  0  0  0  0  0  0  0
    0.6821   -3.2786   -0.8939 C   0  0  0  0  0  0  0  0  0  0  0  0
   -4.9269    1.4298    1.0130 C   0  0  0  0  0  0  0  0  0  0  0  0
   -5.5359    0.9178   -0.1225 C   0  0  0  0  0  0  0  0  0  0  0  0
    2.3188   -3.1369    0.9375 C   0  0  0  0  0  0  0  0  0  0  0  0
    2.8113   -2.4551    2.2093 C   0  0  0  0  0  0  0  0  0  0  0  0
  1 16  1  0
  1 17  1  0
  2 26  2  0
  3  6  1  0
  3  7  1  0
  3  8  1  0
  4  9  1  0
  4 10  1  0
  4 13  1  0
  5 12  1  0
  5 14  1  0
  5 15  1  0
  6  9  1  0
  7 10  1  0
  8 11  1  0
 11 12  1  0
 14 16  2  0
 14 18  1  0
 15 17  2  0
 15 19  1  0
 16 20  1  0
 17 22  1  0
 18 21  2  0
 19 24  2  0
 20 23  2  0
 21 23  1  0
 21 26  1  0
 22 25  2  0
 24 25  1  0
 26 27  1  0
M  END
>  <PUBCHEM_COMPOUND_CID>  (1) 
13983

>  <PUBCHEM_CONFORMER_RMSD>  (1) 
0.8

>  <PUBCHEM_CONFORMER_DIVERSEORDER>  (1) 
2
59
31
21
63
11
50
49
65
67
42
4
8
29
1
44
66
23
46
40
22
62
14
32
27
51
25
39
64
15
52
61
17
35
19
60
7
13
57
3
48
16
6
20
45
28
54
47
33
58
9
36
5
18
26
10
37
24
56
34
43
55
12
53
30
38
41

>  <PUBCHEM_MMFF94_PARTIAL_CHARGES>  (1) 
33
1 -0.2
10 0.27
12 0.37
13 0.27
14 0.1
15 0.1
16 0.1
17 0.1
18 -0.15
19 -0.15
2 -0.57
20 -0.15
21 0.09
22 -0.15
23 -0.15
24 -0.15
25 -0.15
26 0.42
27 0.06
3 -0.81
4 -0.81
45 0.15
46 0.15
47 0.15
48 0.15
49 0.15
5 -0.57
50 0.15
51 0.15
6 0.27
7 0.27
8 0.27
9 0.27

>  <PUBCHEM_EFFECTIVE_ROTOR_COUNT>  (1) 
6.6

>  <PUBCHEM_PHARMACOPHORE_FEATURES>  (1) 
8
1 2 acceptor
1 3 cation
1 4 cation
1 5 cation
6 1 5 14 15 16 17 rings
6 14 16 18 20 21 23 rings
6 15 17 19 22 24 25 rings
6 3 4 6 7 9 10 rings

>  <PUBCHEM_HEAVY_ATOM_COUNT>  (1) 
27

>  <PUBCHEM_ATOM_DEF_STEREO_COUNT>  (1) 
0

>  <PUBCHEM_ATOM_UDEF_STEREO_COUNT>  (1) 
0

>  <PUBCHEM_BOND_DEF_STEREO_COUNT>  (1) 
0

>  <PUBCHEM_BOND_UDEF_STEREO_COUNT>  (1) 
0

>  <PUBCHEM_ISOTOPIC_ATOM_COUNT>  (1) 
0

>  <PUBCHEM_COMPONENT_COUNT>  (1) 
1

>  <PUBCHEM_CACTVS_TAUTO_COUNT>  (1) 
2

>  <PUBCHEM_CONFORMER_ID>  (1) 
0000369F00000002

>  <PUBCHEM_MMFF94_ENERGY>  (1) 
86.1746

>  <PUBCHEM_FEATURE_SELFOVERLAP>  (1) 
40.63

>  <PUBCHEM_SHAPE_FINGERPRINT>  (1) 
10190108 129 17976831097314453251
11578080 2 17025756656964185689
12035759 4 18202007607604792173
12156800 1 16055441003657278076
12422481 6 18044913728261207032
12592029 89 18335146439994220937
133893 2 17899726507663291848
14114207 22 18260257539317139878
14840074 17 18263065692024789010
15297060 5 17846497054325258082
15463212 79 18048589619018763853
16120349 306 18339066207658542144
1813 80 18050283674616592099
19591789 44 17620470651019749939
20642791 178 18200307707289502459
21360443 120 18334300894425595804
21421861 104 18125739893387175121
23419403 2 17751628871491761389
25147074 1 18131344195112542567
3187 122 17688015427802372770
3298306 158 18335988656894450657
3411729 13 18334868181958720201
35225 105 17395330208945741094
404807 14 15116248951842942868
445580 44 17469286298613837522
474144 1 18341326704200577291
5265222 85 18190192367781616084
5282940 2 18411694396158979622
5385378 56 18408895014038130937
57091435 65 18339081488624484540
59554788 191 17979066081829455925
59755656 215 18263650726895374403
6287921 2 17843120299117447378
81228 2 16972805594209455115
9709674 26 17555735765203725472
9925002 15 17914301715526872975

>  <PUBCHEM_SHAPE_MULTIPOLES>  (1) 
538.68
9.21
4.68
1.77
2.79
3.45
-0.03
-6.1
-0.82
-5.47
0.41
-0.27
0.41
-2.7

>  <PUBCHEM_SHAPE_SELFOVERLAP>  (1) 
1136.253

>  <PUBCHEM_SHAPE_VOLUME>  (1) 
304

>  <PUBCHEM_COORDINATE_TYPE>  (1) 
2
5
10

$$$$
