13997
     RDKit          3D

 27 30  0  0  0  0  0  0  0  0999 V2000
    1.9862   -4.6096    0.1934 Cl  0  0  0  0  0  0  0  0  0  0  0  0
   -0.5172    2.5753   -2.5766 O   0  0  0  0  0  0  0  0  0  0  0  0
   -3.7294    0.7362    0.5241 N   0  0  0  0  0  0  0  0  0  0  0  0
   -0.6238    0.4954   -1.5312 N   0  0  0  0  0  0  0  0  0  0  0  0
    2.2804    1.3807   -1.5945 N   0  0  0  0  0  0  0  0  0  0  0  0
   -4.5109   -0.3417   -0.0984 C   0  0  0  0  0  0  0  0  0  0  0  0
   -3.9584    0.7888    1.9748 C   0  0  0  0  0  0  0  0  0  0  0  0
   -6.0079   -0.1528    0.1515 C   0  0  0  0  0  0  0  0  0  0  0  0
   -5.4374    1.0149    2.2923 C   0  0  0  0  0  0  0  0  0  0  0  0
   -6.3130   -0.0498    1.6415 C   0  0  0  0  0  0  0  0  0  0  0  0
   -2.3053    0.5670    0.2366 C   0  0  0  0  0  0  0  0  0  0  0  0
   -2.0550    0.6384   -1.2643 C   0  0  0  0  0  0  0  0  0  0  0  0
    0.0317   -0.7015   -1.0787 C   0  0  0  0  0  0  0  0  0  0  0  0
    0.0105    1.5043   -2.2654 C   0  0  0  0  0  0  0  0  0  0  0  0
    1.3985   -0.7481   -0.7335 C   0  0  0  0  0  0  0  0  0  0  0  0
    1.4108    1.2053   -2.7386 C   0  0  0  0  0  0  0  0  0  0  0  0
    2.2553    0.4738   -0.6774 C   0  0  0  0  0  0  0  0  0  0  0  0
   -0.7124   -1.8918   -0.9543 C   0  0  0  0  0  0  0  0  0  0  0  0
    1.9986   -1.9641   -0.3584 C   0  0  0  0  0  0  0  0  0  0  0  0
    3.1309    0.6864    0.5113 C   0  0  0  0  0  0  0  0  0  0  0  0
   -0.1136   -3.0913   -0.5610 C   0  0  0  0  0  0  0  0  0  0  0  0
    1.2440   -3.1302   -0.2754 C   0  0  0  0  0  0  0  0  0  0  0  0
    2.7414    0.1890    1.7488 C   0  0  0  0  0  0  0  0  0  0  0  0
    4.3271    1.3790    0.3679 C   0  0  0  0  0  0  0  0  0  0  0  0
    3.5604    0.3876    2.8604 C   0  0  0  0  0  0  0  0  0  0  0  0
    5.1460    1.5774    1.4795 C   0  0  0  0  0  0  0  0  0  0  0  0
    4.7626    1.0817    2.7257 C   0  0  0  0  0  0  0  0  0  0  0  0
  1 22  1  0
  2 14  2  0
  3  6  1  0
  3  7  1  0
  3 11  1  0
  4 12  1  0
  4 13  1  0
  4 14  1  0
  5 16  1  0
  5 17  2  0
  6  8  1  0
  7  9  1  0
  8 10  1  0
  9 10  1  0
 11 12  1  0
 13 15  2  0
 13 18  1  0
 14 16  1  0
 15 17  1  0
 15 19  1  0
 17 20  1  0
 18 21  2  0
 19 22  2  0
 20 23  2  0
 20 24  1  0
 21 22  1  0
 23 25  1  0
 24 26  2  0
 25 27  2  0
 26 27  1  0
M  END
>  <PUBCHEM_COMPOUND_CID>  (1) 
13997

>  <PUBCHEM_CONFORMER_RMSD>  (1) 
0.8

>  <PUBCHEM_CONFORMER_DIVERSEORDER>  (1) 
2
9
21
22
7
12
4
5
13
16
25
1
14
24
20
19
11
18
3
17
10
6
23
15
8

>  <PUBCHEM_MMFF94_PARTIAL_CHARGES>  (1) 
32
1 -0.18
11 0.27
12 0.3
13 0.12
14 0.57
15 0.09
16 0.31
17 0.28
18 -0.15
19 -0.15
2 -0.57
20 0.09
21 -0.15
22 0.18
23 -0.15
24 -0.15
25 -0.15
26 -0.15
27 -0.15
3 -0.81
4 -0.48
44 0.15
45 0.15
46 0.15
47 0.15
48 0.15
49 0.15
5 -0.7
50 0.15
51 0.15
6 0.27
7 0.27

>  <PUBCHEM_EFFECTIVE_ROTOR_COUNT>  (1) 
5.6

>  <PUBCHEM_PHARMACOPHORE_FEATURES>  (1) 
7
1 2 acceptor
1 3 cation
1 5 acceptor
6 13 15 18 19 21 22 rings
6 20 23 24 25 26 27 rings
6 3 6 7 8 9 10 rings
7 4 5 13 14 15 16 17 rings

>  <PUBCHEM_HEAVY_ATOM_COUNT>  (1) 
27

>  <PUBCHEM_ATOM_DEF_STEREO_COUNT>  (1) 
0

>  <PUBCHEM_ATOM_UDEF_STEREO_COUNT>  (1) 
0

>  <PUBCHEM_BOND_DEF_STEREO_COUNT>  (1) 
0

>  <PUBCHEM_BOND_UDEF_STEREO_COUNT>  (1) 
0

>  <PUBCHEM_ISOTOPIC_ATOM_COUNT>  (1) 
0

>  <PUBCHEM_COMPONENT_COUNT>  (1) 
1

>  <PUBCHEM_CACTVS_TAUTO_COUNT>  (1) 
1

>  <PUBCHEM_CONFORMER_ID>  (1) 
000036AD00000002

>  <PUBCHEM_MMFF94_ENERGY>  (1) 
87.8813

>  <PUBCHEM_FEATURE_SELFOVERLAP>  (1) 
35.534

>  <PUBCHEM_SHAPE_FINGERPRINT>  (1) 
10165383 225 18412834590492066774
10928967 22 14782694739684566897
11070050 100 18272646853112711258
11578080 2 18198615528745915417
12035758 1 18267850724001658482
12293681 25 17461140077272353503
12422481 6 18260535702198877123
12549972 3 17686602564024455012
12633257 1 18269256028151734160
12788726 201 17547863309309476303
12839892 36 18262238940679883855
12895837 130 15696006349460614808
13965767 371 18336537253283342730
14020679 6 17844796186919322248
14251751 18 14418127422620117001
14341114 328 17704068495579295155
14739800 52 17632291255426320419
14840074 17 18040994107016008508
14848178 5 14634863145949824657
14849402 71 18131636656214968986
15142526 21 17773866670051487905
15475509 84 17552087199043715937
15961568 22 16917074360712684609
17980427 26 17489017176586754782
19438510 23 16701727358943514818
1979834 28 18333740100123828723
20771845 35 18118395155713722051
21033648 29 18339078190712535193
21315764 371 18059586814619461731
21475661 188 17417809607889771048
21756936 100 17131252680040401562
22182313 1 18042954381291809950
23419403 2 17905593411862736398
23536364 44 10519447193876849635
23559900 14 17897735254030582031
2838139 119 16271920540989066968
427121 178 18202006538094631974
4340502 62 18202003243817903179
4616759 239 15951858951058610810
465052 167 17312825991264386332
469060 322 18264186154355380997
484985 159 14277628390965315728
5104073 3 18199485272866395731
563151 74 18055892334858702333
56616090 13 16702014322524445352
57527585 21 16336352120267353272
58260988 393 17201908439919139079
58807428 26 18337377327633572046
59755656 520 17917422164075766854
7064713 232 18339923817763621871
7288768 16 17557679628952437936
7808743 9 15697991964270132581
9841814 1 16878809148278302421
9981440 41 17616199838340248100

>  <PUBCHEM_SHAPE_MULTIPOLES>  (1) 
536.7
11.47
3.33
2.87
15.41
5.25
-0.96
-7.75
10.02
-3.21
1.21
-1.07
-2.05
-0.08

>  <PUBCHEM_SHAPE_SELFOVERLAP>  (1) 
1148.114

>  <PUBCHEM_SHAPE_VOLUME>  (1) 
296.4

>  <PUBCHEM_COORDINATE_TYPE>  (1) 
2
5
10

$$$$
