13999
     RDKit          3D

 27 30  0  0  0  0  0  0  0  0999 V2000
    1.9616    4.6157    0.0478 Cl  0  0  0  0  0  0  0  0  0  0  0  0
   -6.2023    0.1823   -1.6300 O   0  0  0  0  0  0  0  0  0  0  0  0
   -0.5075   -2.7152    2.4399 O   0  0  0  0  0  0  0  0  0  0  0  0
   -3.7284   -0.7317   -0.5597 N   0  0  0  0  0  0  0  0  0  0  0  0
   -0.6242   -0.5842    1.5044 N   0  0  0  0  0  0  0  0  0  0  0  0
    2.2841   -1.4583    1.5207 N   0  0  0  0  0  0  0  0  0  0  0  0
   -2.3061   -0.5714   -0.2644 C   0  0  0  0  0  0  0  0  0  0  0  0
   -4.5214    0.3054    0.1149 C   0  0  0  0  0  0  0  0  0  0  0  0
   -3.9688   -0.6864   -2.0087 C   0  0  0  0  0  0  0  0  0  0  0  0
   -2.0549   -0.7198    1.2307 C   0  0  0  0  0  0  0  0  0  0  0  0
   -5.9997    0.1244   -0.2176 C   0  0  0  0  0  0  0  0  0  0  0  0
   -5.4601   -0.8429   -2.2916 C   0  0  0  0  0  0  0  0  0  0  0  0
    0.0257    0.6377    1.1147 C   0  0  0  0  0  0  0  0  0  0  0  0
    1.3920    0.7084    0.7720 C   0  0  0  0  0  0  0  0  0  0  0  0
    0.0152   -1.6271    2.1848 C   0  0  0  0  0  0  0  0  0  0  0  0
    1.4143   -1.3468    2.6725 C   0  0  0  0  0  0  0  0  0  0  0  0
    2.2544   -0.5049    0.6520 C   0  0  0  0  0  0  0  0  0  0  0  0
   -0.7239    1.8293    1.0527 C   0  0  0  0  0  0  0  0  0  0  0  0
    1.9864    1.9451    0.4608 C   0  0  0  0  0  0  0  0  0  0  0  0
    3.1306   -0.6512   -0.5462 C   0  0  0  0  0  0  0  0  0  0  0  0
   -0.1308    3.0505    0.7224 C   0  0  0  0  0  0  0  0  0  0  0  0
    1.2264    3.1104    0.4388 C   0  0  0  0  0  0  0  0  0  0  0  0
    2.7381   -0.0917   -1.7560 C   0  0  0  0  0  0  0  0  0  0  0  0
    4.3298   -1.3449   -0.4394 C   0  0  0  0  0  0  0  0  0  0  0  0
    3.5575   -0.2284   -2.8767 C   0  0  0  0  0  0  0  0  0  0  0  0
    5.1492   -1.4813   -1.5601 C   0  0  0  0  0  0  0  0  0  0  0  0
    4.7629   -0.9230   -2.7787 C   0  0  0  0  0  0  0  0  0  0  0  0
  1 22  1  0
  2 11  1  0
  2 12  1  0
  3 15  2  0
  4  7  1  0
  4  8  1  0
  4  9  1  0
  5 10  1  0
  5 13  1  0
  5 15  1  0
  6 16  1  0
  6 17  2  0
  7 10  1  0
  8 11  1  0
  9 12  1  0
 13 14  2  0
 13 18  1  0
 14 17  1  0
 14 19  1  0
 15 16  1  0
 17 20  1  0
 18 21  2  0
 19 22  2  0
 20 23  2  0
 20 24  1  0
 21 22  1  0
 23 25  1  0
 24 26  2  0
 25 27  2  0
 26 27  1  0
M  END
>  <PUBCHEM_COMPOUND_CID>  (1) 
13999

>  <PUBCHEM_CONFORMER_RMSD>  (1) 
0.8

>  <PUBCHEM_CONFORMER_DIVERSEORDER>  (1) 
2
8
17
6
16
10
19
20
4
3
5
22
18
23
15
13
9
12
14
21
1
11
7

>  <PUBCHEM_MMFF94_PARTIAL_CHARGES>  (1) 
35
1 -0.18
10 0.3
11 0.28
12 0.28
13 0.12
14 0.09
15 0.57
16 0.31
17 0.28
18 -0.15
19 -0.15
2 -0.56
20 0.09
21 -0.15
22 0.18
23 -0.15
24 -0.15
25 -0.15
26 -0.15
27 -0.15
3 -0.57
4 -0.81
42 0.15
43 0.15
44 0.15
45 0.15
46 0.15
47 0.15
48 0.15
49 0.15
5 -0.48
6 -0.7
7 0.27
8 0.27
9 0.27

>  <PUBCHEM_EFFECTIVE_ROTOR_COUNT>  (1) 
5.6

>  <PUBCHEM_PHARMACOPHORE_FEATURES>  (1) 
8
1 2 acceptor
1 3 acceptor
1 4 cation
1 6 acceptor
6 13 14 18 19 21 22 rings
6 2 4 8 9 11 12 rings
6 20 23 24 25 26 27 rings
7 5 6 13 14 15 16 17 rings

>  <PUBCHEM_HEAVY_ATOM_COUNT>  (1) 
27

>  <PUBCHEM_ATOM_DEF_STEREO_COUNT>  (1) 
0

>  <PUBCHEM_ATOM_UDEF_STEREO_COUNT>  (1) 
0

>  <PUBCHEM_BOND_DEF_STEREO_COUNT>  (1) 
0

>  <PUBCHEM_BOND_UDEF_STEREO_COUNT>  (1) 
0

>  <PUBCHEM_ISOTOPIC_ATOM_COUNT>  (1) 
0

>  <PUBCHEM_COMPONENT_COUNT>  (1) 
1

>  <PUBCHEM_CACTVS_TAUTO_COUNT>  (1) 
1

>  <PUBCHEM_CONFORMER_ID>  (1) 
000036AF00000002

>  <PUBCHEM_MMFF94_ENERGY>  (1) 
96.404

>  <PUBCHEM_FEATURE_SELFOVERLAP>  (1) 
40.609

>  <PUBCHEM_SHAPE_FINGERPRINT>  (1) 
10165383 225 17385736785362432531
10906281 52 18266179620397869552
11445158 3 16739233869246324233
11477941 20 17551006551893811524
11578080 2 17387984311879032252
11796584 16 16702023015828571455
12293681 160 18041290898056807704
12553582 1 18266766639394710754
12617007 42 18201431497618478708
12788726 201 18191031101272756352
12895836 83 16661220250600453534
12895837 130 15359698697818489686
13009979 54 17537699020079279410
13149001 5 18190192350073446298
13757389 114 17554355530408874704
14114206 34 18261971638594207173
14251751 18 16630526211322553255
14347329 18 16732987565474534299
14739800 52 13117993422840889117
14848178 5 16559034865635897127
15475509 8 18129953256647201793
15664445 248 18343860009361621144
17909252 39 17846497096794902345
1813 80 18059855043199541868
18365409 1 16894795789416480677
19438510 23 14635163373006886084
20465049 17 18410292528156963171
20775438 99 18126833018082200759
22182313 1 17899711337817353072
22620623 9 17843419392260911880
23419403 2 17831615280158902480
23536364 44 18190458264246714325
23559900 14 17632004339132143007
2838139 119 15285363946089615622
340366 18 18060415850486373031
376196 1 17689983953064485584
4017518 198 17413310519102505364
4280585 95 18273215288029363678
44802255 64 15866078692371357066
46194498 28 18052827132632190823
465052 167 13398627268592095298
469060 322 17773898423298660214
484985 159 15692970279923009590
5081480 168 18335135406313448021
633830 44 18337100272547077825
66674814 147 17704071789403227511
7808743 9 15864356878214505611

>  <PUBCHEM_SHAPE_MULTIPOLES>  (1) 
530.84
11.11
3.34
2.86
14.13
5.45
-0.7
-7.33
10.14
-3.03
0.78
-0.89
-2.17
-0.01

>  <PUBCHEM_SHAPE_SELFOVERLAP>  (1) 
1138.512

>  <PUBCHEM_SHAPE_VOLUME>  (1) 
292.5

>  <PUBCHEM_COORDINATE_TYPE>  (1) 
2
5
10

$$$$
