13990
     RDKit          3D

 22 24  0  0  1  0  0  0  0  0999 V2000
    1.3330   -0.3567   -0.7686 O   0  0  0  0  0  0  0  0  0  0  0  0
    0.3789   -2.0834    0.3773 O   0  0  0  0  0  0  0  0  0  0  0  0
    4.5042   -0.9973    0.4299 N   0  0  0  0  0  0  0  0  0  0  0  0
   -0.8667   -0.1373   -0.0218 N   0  0  0  0  0  0  0  0  0  0  0  0
    2.5358   -1.1062   -0.8674 C   0  0  0  0  0  0  0  0  0  0  0  0
    3.6096   -0.2940   -1.5872 C   0  0  0  0  0  0  0  0  0  0  0  0
    3.0896   -1.3630    0.5330 C   0  0  0  0  0  0  0  0  0  0  0  0
    4.5462    0.1502   -0.4749 C   0  0  0  0  0  0  0  0  0  0  0  0
    5.1022   -0.7090    1.7247 C   0  0  0  0  0  0  0  0  0  0  0  0
    0.2828   -0.9558   -0.1058 C   0  0  0  0  0  0  0  0  0  0  0  0
   -2.1656   -0.7609    0.0495 C   0  0  0  0  0  0  0  0  0  0  0  0
   -0.7805    1.2994   -0.0054 C   0  0  0  0  0  0  0  0  0  0  0  0
   -3.1639   -0.1077    0.7269 C   0  0  0  0  0  0  0  0  0  0  0  0
   -1.8212    2.0223   -0.5350 C   0  0  0  0  0  0  0  0  0  0  0  0
   -2.3384   -1.9757   -0.5639 C   0  0  0  0  0  0  0  0  0  0  0  0
    0.3381    1.8809    0.5396 C   0  0  0  0  0  0  0  0  0  0  0  0
   -4.4200   -0.7102    0.7958 C   0  0  0  0  0  0  0  0  0  0  0  0
   -1.7381    3.4146   -0.5188 C   0  0  0  0  0  0  0  0  0  0  0  0
   -3.5946   -2.5781   -0.4951 C   0  0  0  0  0  0  0  0  0  0  0  0
    0.4210    3.2732    0.5558 C   0  0  0  0  0  0  0  0  0  0  0  0
   -4.6353   -1.9453    0.1848 C   0  0  0  0  0  0  0  0  0  0  0  0
   -0.6171    4.0400    0.0265 C   0  0  0  0  0  0  0  0  0  0  0  0
  1  5  1  0
  1 10  1  0
  2 10  2  0
  3  7  1  0
  3  8  1  0
  3  9  1  0
  4 10  1  0
  4 11  1  0
  4 12  1  0
  5  6  1  0
  5  7  1  0
  6  8  1  0
 11 13  2  0
 11 15  1  0
 12 14  2  0
 12 16  1  0
 13 17  1  0
 14 18  1  0
 15 19  2  0
 16 20  2  0
 17 21  2  0
 18 22  2  0
 19 21  1  0
 20 22  1  0
M  END
>  <PUBCHEM_COMPOUND_CID>  (1) 
13990

>  <PUBCHEM_CONFORMER_RMSD>  (1) 
0.8

>  <PUBCHEM_CONFORMER_DIVERSEORDER>  (1) 
1
40
53
34
38
45
37
50
43
28
51
25
20
42
44
11
29
21
19
31
36
47
46
9
35
33
10
52
17
32
16
8
26
24
14
48
22
6
2
39
30
13
18
27
5
12
41
23
7
3
49
4
15

>  <PUBCHEM_MMFF94_PARTIAL_CHARGES>  (1) 
31
1 -0.43
10 0.78
11 0.12
12 0.12
13 -0.15
14 -0.15
15 -0.15
16 -0.15
17 -0.15
18 -0.15
19 -0.15
2 -0.57
20 -0.15
21 -0.15
22 -0.15
3 -0.81
33 0.15
34 0.15
35 0.15
36 0.15
37 0.15
38 0.15
39 0.15
4 -0.29
40 0.15
41 0.15
42 0.15
5 0.28
7 0.27
8 0.27
9 0.27

>  <PUBCHEM_EFFECTIVE_ROTOR_COUNT>  (1) 
6

>  <PUBCHEM_PHARMACOPHORE_FEATURES>  (1) 
5
1 2 acceptor
1 3 cation
5 3 5 6 7 8 rings
6 11 13 15 17 19 21 rings
6 12 14 16 18 20 22 rings

>  <PUBCHEM_HEAVY_ATOM_COUNT>  (1) 
22

>  <PUBCHEM_ATOM_DEF_STEREO_COUNT>  (1) 
0

>  <PUBCHEM_ATOM_UDEF_STEREO_COUNT>  (1) 
1

>  <PUBCHEM_BOND_DEF_STEREO_COUNT>  (1) 
0

>  <PUBCHEM_BOND_UDEF_STEREO_COUNT>  (1) 
0

>  <PUBCHEM_ISOTOPIC_ATOM_COUNT>  (1) 
0

>  <PUBCHEM_COMPONENT_COUNT>  (1) 
1

>  <PUBCHEM_CACTVS_TAUTO_COUNT>  (1) 
1

>  <PUBCHEM_CONFORMER_ID>  (1) 
000036A600000001

>  <PUBCHEM_MMFF94_ENERGY>  (1) 
95.1424

>  <PUBCHEM_FEATURE_SELFOVERLAP>  (1) 
25.373

>  <PUBCHEM_SHAPE_FINGERPRINT>  (1) 
10319926 262 18124858090042488098
10369192 42 16844437410415334040
10411042 1 18410572933217227743
10989021 7 18269559493186309781
11578080 2 17750772484872586164
11680986 33 17833557069365408091
11833330 49 18335984185997292109
11963148 33 16899890389640393567
12035758 1 18340212882612644521
12054548 360 18410858763200988925
12173636 292 17834675993929059029
12553582 1 18411706503819649175
12596602 18 17822275865964492968
12788726 201 18334587823515023530
12892183 10 18193534728800947426
13140716 1 18411421734824386737
13583140 156 17772731820261500858
138480 1 15312100332255605925
14081887 123 18340763724456691392
14178342 30 18118679920941096030
14347332 77 18267880397661694454
14787075 74 18188212108289042146
14790565 3 17836091074485549121
14955137 171 18052293753892424195
15042514 8 18338519612513191945
15420108 30 17412739875996584396
15927050 60 17331969824628738854
17349148 13 17749111076043613794
17357779 13 18271229578434989981
17492 89 18263926532078242242
17876694 64 17968391073416271940
17980427 23 17489315200589485945
17980427 26 16697226113222602753
1813 80 18341900735327987983
18222031 100 18201441423404204495
200 152 17749106699065744066
20097449 115 18411419552775089901
20510252 161 18339930298927189922
20600515 1 18130795606628094711
20642791 105 18115295666488486533
21029758 27 18338527433970508295
21049683 271 17972612253348245181
21304303 282 17541623194074259533
2132832 1 18040997341442809236
21339142 126 18410576145847347543
22182313 1 18266155388086636549
2297311 6 18342190942390112158
23352939 185 18200606898210036113
23366157 5 17830173859122399885
23402539 116 18341891904759579366
23419403 2 18118377743625979037
23557571 272 18201451224788177158
23558518 356 17972886860472153050
23598288 3 18195508316911272286
23845131 108 17405159426297430681
3091708 16 8992254134625163033
3187 122 18264187198001441104
34934 24 18337392635086724243
352729 6 17691122635083312719
4409770 3 18191014621952772565
469060 322 18338813233594171504
5104073 3 18054522558815373083
532947 4 17835811063654336388
621550 34 17917712383838254158
68521 5 18410018710436534765
6913067 236 18059559300584437382
69474 34 18342458158027732193
7164475 11 18336551508559587446
7364860 26 17983022442514619469
7399639 24 17989486304013359502
81228 2 18124904311546317731
8863177 126 17681570447935733827
90316 7 18339930328970907403
9709674 26 17982730771090525622
9925002 15 16841333569623622519
9981440 41 17544469756701239065

>  <PUBCHEM_SHAPE_MULTIPOLES>  (1) 
431.05
8.94
4.04
1.09
5.61
5.07
0.05
-7.2
1.64
-2.9
-0.14
1.08
-0.18
-0.14

>  <PUBCHEM_SHAPE_SELFOVERLAP>  (1) 
930.069

>  <PUBCHEM_SHAPE_VOLUME>  (1) 
238.7

>  <PUBCHEM_COORDINATE_TYPE>  (1) 
2
5
10

$$$$
