14005
     RDKit          3D

 37 39  0  0  0  0  0  0  0  0999 V2000
   -0.6564    1.0349   -0.1985 O   0  0  0  0  0  0  0  0  0  0  0  0
    0.6297   -2.4168   -0.0597 O   0  0  0  0  0  0  0  0  0  0  0  0
   -4.4952   -1.8280   -0.9437 O   0  0  0  0  0  0  0  0  0  0  0  0
   -4.9686    2.8961   -0.8856 O   0  0  0  0  0  0  0  0  0  0  0  0
   -2.0860   -2.7647   -0.5495 O   0  0  0  0  0  0  0  0  0  0  0  0
    4.8758   -0.1219   -1.3770 O   0  0  0  0  0  0  0  0  0  0  0  0
    5.5367    1.3482    0.8865 O   0  0  0  0  0  0  0  0  0  0  0  0
    0.1850   -2.4466    2.2259 O   0  0  0  0  0  0  0  0  0  0  0  0
   -4.8714   -1.8593    1.3665 O   0  0  0  0  0  0  0  0  0  0  0  0
   -5.3431    2.7935    1.4228 O   0  0  0  0  0  0  0  0  0  0  0  0
    5.1505   -2.0949   -0.1475 O   0  0  0  0  0  0  0  0  0  0  0  0
    5.1924    3.3226   -0.3230 O   0  0  0  0  0  0  0  0  0  0  0  0
   -2.5402   -0.4506   -0.5673 C   0  0  0  0  0  0  0  0  0  0  0  0
   -1.9899    0.8224   -0.4352 C   0  0  0  0  0  0  0  0  0  0  0  0
    0.1811   -0.0648   -0.0983 C   0  0  0  0  0  0  0  0  0  0  0  0
   -0.2244   -1.3440   -0.1973 C   0  0  0  0  0  0  0  0  0  0  0  0
    1.5850    0.3032    0.1572 C   0  0  0  0  0  0  0  0  0  0  0  0
   -1.6590   -1.6223   -0.4484 C   0  0  0  0  0  0  0  0  0  0  0  0
   -3.9078   -0.6067   -0.8070 C   0  0  0  0  0  0  0  0  0  0  0  0
   -2.8051    1.9495   -0.5415 C   0  0  0  0  0  0  0  0  0  0  0  0
   -4.1709    1.7979   -0.7810 C   0  0  0  0  0  0  0  0  0  0  0  0
   -4.7209    0.5222   -0.9136 C   0  0  0  0  0  0  0  0  0  0  0  0
    2.5818   -0.0849   -0.7381 C   0  0  0  0  0  0  0  0  0  0  0  0
    1.9171    1.0400    1.2941 C   0  0  0  0  0  0  0  0  0  0  0  0
    3.9107    0.2637   -0.4966 C   0  0  0  0  0  0  0  0  0  0  0  0
    4.2428    1.0005    0.6403 C   0  0  0  0  0  0  0  0  0  0  0  0
    3.2460    1.3884    1.5358 C   0  0  0  0  0  0  0  0  0  0  0  0
    0.7495   -2.8762    1.2279 C   0  0  0  0  0  0  0  0  0  0  0  0
   -4.9590   -2.3786    0.2618 C   0  0  0  0  0  0  0  0  0  0  0  0
   -5.5221    3.3212    0.3332 C   0  0  0  0  0  0  0  0  0  0  0  0
    1.6998   -4.0374    1.2469 C   0  0  0  0  0  0  0  0  0  0  0  0
    5.4475   -1.3717   -1.0891 C   0  0  0  0  0  0  0  0  0  0  0  0
   -5.5861   -3.7170    0.0065 C   0  0  0  0  0  0  0  0  0  0  0  0
    5.9134    2.5821    0.3326 C   0  0  0  0  0  0  0  0  0  0  0  0
   -6.3806    4.5313    0.1130 C   0  0  0  0  0  0  0  0  0  0  0  0
    6.4938   -1.7046   -2.1110 C   0  0  0  0  0  0  0  0  0  0  0  0
    7.3484    2.8734    0.6578 C   0  0  0  0  0  0  0  0  0  0  0  0
  1 14  1  0
  1 15  1  0
  2 16  1  0
  2 28  1  0
  3 19  1  0
  3 29  1  0
  4 21  1  0
  4 30  1  0
  5 18  2  0
  6 25  1  0
  6 32  1  0
  7 26  1  0
  7 34  1  0
  8 28  2  0
  9 29  2  0
 10 30  2  0
 11 32  2  0
 12 34  2  0
 13 14  2  0
 13 18  1  0
 13 19  1  0
 14 20  1  0
 15 16  2  0
 15 17  1  0
 16 18  1  0
 17 23  2  0
 17 24  1  0
 19 22  2  0
 20 21  2  0
 21 22  1  0
 23 25  1  0
 24 27  2  0
 25 26  2  0
 26 27  1  0
 28 31  1  0
 29 33  1  0
 30 35  1  0
 32 36  1  0
 34 37  1  0
M  END
>  <PUBCHEM_COMPOUND_CID>  (1) 
14005

>  <PUBCHEM_CONFORMER_RMSD>  (1) 
1.2

>  <PUBCHEM_CONFORMER_DIVERSEORDER>  (1) 
1
4
13
19
15
11
10
16
8
2
18
17
6
14
20
9
7
12
5
3

>  <PUBCHEM_MMFF94_PARTIAL_CHARGES>  (1) 
42
1 -0.16
10 -0.57
11 -0.57
12 -0.57
13 0.09
14 0.08
15 0.05
16 0.09
17 0.03
18 0.47
19 0.08
2 -0.23
20 -0.15
21 0.08
22 -0.15
23 -0.15
24 -0.15
25 0.08
26 0.08
27 -0.15
28 0.66
29 0.66
3 -0.23
30 0.66
31 0.06
32 0.66
33 0.06
34 0.66
35 0.06
36 0.06
37 0.06
38 0.15
39 0.15
4 -0.23
40 0.15
41 0.15
42 0.15
5 -0.57
6 -0.23
7 -0.23
8 -0.57
9 -0.57

>  <PUBCHEM_EFFECTIVE_ROTOR_COUNT>  (1) 
11

>  <PUBCHEM_PHARMACOPHORE_FEATURES>  (1) 
10
1 1 acceptor
1 10 acceptor
1 11 acceptor
1 12 acceptor
1 5 acceptor
1 8 acceptor
1 9 acceptor
6 1 13 14 15 16 18 rings
6 13 14 19 20 21 22 rings
6 17 23 24 25 26 27 rings

>  <PUBCHEM_HEAVY_ATOM_COUNT>  (1) 
37

>  <PUBCHEM_ATOM_DEF_STEREO_COUNT>  (1) 
0

>  <PUBCHEM_ATOM_UDEF_STEREO_COUNT>  (1) 
0

>  <PUBCHEM_BOND_DEF_STEREO_COUNT>  (1) 
0

>  <PUBCHEM_BOND_UDEF_STEREO_COUNT>  (1) 
0

>  <PUBCHEM_ISOTOPIC_ATOM_COUNT>  (1) 
0

>  <PUBCHEM_COMPONENT_COUNT>  (1) 
1

>  <PUBCHEM_CACTVS_TAUTO_COUNT>  (1) 
1

>  <PUBCHEM_CONFORMER_ID>  (1) 
000036B500000001

>  <PUBCHEM_MMFF94_ENERGY>  (1) 
121.561

>  <PUBCHEM_FEATURE_SELFOVERLAP>  (1) 
50.781

>  <PUBCHEM_SHAPE_FINGERPRINT>  (1) 
10050765 1 18410852135934757690
10190108 129 18189070801617802027
10675989 125 18339920408277351680
10835480 77 18272645753960188356
11007060 377 18338241569173114258
12236239 1 17386268996155736456
13073987 5 18410290341559244894
13140716 1 18193268603847363627
13540713 5 18195222478864720599
13782708 43 18272938245048011206
14118638 360 18338512049302552772
14790565 3 18337950095391147301
18608769 82 18122905592797243402
21033648 29 18259993678027832876
21279426 13 18273215257679586972
22393880 68 18412259502128006935
23559900 14 18272367564949288156
23569914 152 17199409001155875892
23569943 247 16373221747787239912
2747138 104 18115884060419312203
283562 15 18263074574128355259
3418910 222 17970918987988074157
4073 2 18410854360706497137
4098825 35 18413110589364551220
4144715 1 18411143562266173705
469060 322 18188499081330092953
5104073 3 18261387828047400442
5252454 2 18263636278235292733
563151 40 18188785950432695499
6086070 43 17846205610808028897
633830 44 18339912758444316220
6691757 9 16371000867290481368
6698420 124 18128825136501269521
6703917 75 18189058754017634624
9896288 288 18410572925017631587

>  <PUBCHEM_SHAPE_MULTIPOLES>  (1) 
691.01
17.69
5.23
1.41
7.88
0.66
0.19
11.94
-2.2
-5.33
1.36
1.08
-0.56
1.46

>  <PUBCHEM_SHAPE_SELFOVERLAP>  (1) 
1496.878

>  <PUBCHEM_SHAPE_VOLUME>  (1) 
368.7

>  <PUBCHEM_COORDINATE_TYPE>  (1) 
2
5
10

$$$$
