14009
     RDKit          3D

 34 37  0  0  0  0  0  0  0  0999 V2000
   -6.6606    1.9293    1.4804 Cl  0  0  0  0  0  0  0  0  0  0  0  0
   -4.3336   -2.8046   -1.8152 F   0  0  0  0  0  0  0  0  0  0  0  0
    8.2704   -0.6487   -0.2766 O   0  0  0  0  0  0  0  0  0  0  0  0
    0.3787    1.0856   -2.4309 O   0  0  0  0  0  0  0  0  0  0  0  0
    1.9781    0.7947    0.6143 N   0  0  0  0  0  0  0  0  0  0  0  0
    4.6509   -0.2601    0.2961 N   0  0  0  0  0  0  0  0  0  0  0  0
   -1.1465    1.8664   -0.8515 N   0  0  0  0  0  0  0  0  0  0  0  0
   -2.1716   -0.7776   -1.9382 N   0  0  0  0  0  0  0  0  0  0  0  0
    2.2093   -0.6321    0.3573 C   0  0  0  0  0  0  0  0  0  0  0  0
    3.1180    1.3779    1.3322 C   0  0  0  0  0  0  0  0  0  0  0  0
    3.5113   -0.8418   -0.4234 C   0  0  0  0  0  0  0  0  0  0  0  0
    4.4204    1.1670    0.5522 C   0  0  0  0  0  0  0  0  0  0  0  0
    0.7376    0.9931    1.3614 C   0  0  0  0  0  0  0  0  0  0  0  0
    0.1810    2.4083    1.1809 C   0  0  0  0  0  0  0  0  0  0  0  0
    5.8922   -0.4596   -0.4493 C   0  0  0  0  0  0  0  0  0  0  0  0
   -0.1607    2.7726   -0.2627 C   0  0  0  0  0  0  0  0  0  0  0  0
    7.0903   -0.4342    0.4864 C   0  0  0  0  0  0  0  0  0  0  0  0
   -2.4619    1.8297   -0.2721 C   0  0  0  0  0  0  0  0  0  0  0  0
   -0.7700    1.1331   -1.9829 C   0  0  0  0  0  0  0  0  0  0  0  0
   -3.2878    0.6869   -0.3072 C   0  0  0  0  0  0  0  0  0  0  0  0
   -1.8771    0.4117   -2.7094 C   0  0  0  0  0  0  0  0  0  0  0  0
   -2.8160   -0.6299   -0.8304 C   0  0  0  0  0  0  0  0  0  0  0  0
   -2.9623    2.9752    0.3782 C   0  0  0  0  0  0  0  0  0  0  0  0
    9.4309   -0.6364    0.5435 C   0  0  0  0  0  0  0  0  0  0  0  0
   -4.5909    0.7319    0.2212 C   0  0  0  0  0  0  0  0  0  0  0  0
   -4.2503    3.0056    0.9191 C   0  0  0  0  0  0  0  0  0  0  0  0
   -3.0812   -1.8606   -0.0304 C   0  0  0  0  0  0  0  0  0  0  0  0
   -5.0688    1.8884    0.8294 C   0  0  0  0  0  0  0  0  0  0  0  0
   10.6499   -0.8691   -0.3235 C   0  0  0  0  0  0  0  0  0  0  0  0
   -3.8375   -2.8994   -0.5732 C   0  0  0  0  0  0  0  0  0  0  0  0
   -2.5704   -1.9718    1.2628 C   0  0  0  0  0  0  0  0  0  0  0  0
   -4.0830   -4.0493    0.1774 C   0  0  0  0  0  0  0  0  0  0  0  0
   -2.8160   -3.1218    2.0133 C   0  0  0  0  0  0  0  0  0  0  0  0
   -3.5722   -4.1604    1.4706 C   0  0  0  0  0  0  0  0  0  0  0  0
  1 28  1  0
  2 30  1  0
  3 17  1  0
  3 24  1  0
  4 19  2  0
  5  9  1  0
  5 10  1  0
  5 13  1  0
  6 11  1  0
  6 12  1  0
  6 15  1  0
  7 16  1  0
  7 18  1  0
  7 19  1  0
  8 21  1  0
  8 22  2  0
  9 11  1  0
 10 12  1  0
 13 14  1  0
 14 16  1  0
 15 17  1  0
 18 20  2  0
 18 23  1  0
 19 21  1  0
 20 22  1  0
 20 25  1  0
 22 27  1  0
 23 26  2  0
 24 29  1  0
 25 28  2  0
 26 28  1  0
 27 30  2  0
 27 31  1  0
 30 32  1  0
 31 33  2  0
 32 34  2  0
 33 34  1  0
M  END
>  <PUBCHEM_COMPOUND_CID>  (1) 
14009

>  <PUBCHEM_CONFORMER_RMSD>  (1) 
1.2

>  <PUBCHEM_CONFORMER_DIVERSEORDER>  (1) 
1
7
116
104
11
74
48
84
83
112
106
101
41
67
33
118
105
86
99
87
62
110
85
47
76
45
24
9
103
19
44
26
117
78
51
35
89
55
6
98
75
39
60
79
109
58
121
43
4
61
5
82
29
65
38
21
12
57
71
119
13
111
95
93
80
81
122
72
70
28
108
23
73
54
92
64
77
53
113
17
37
52
27
115
94
2
32
50
20
34
31
42
30
14
88
15
102
22
59
120
36
40
97
66
107
49
114
8
91
16
56
90
69
100
63
96
68
3
25
46
18
10

>  <PUBCHEM_MMFF94_PARTIAL_CHARGES>  (1) 
39
1 -0.18
10 0.27
11 0.27
12 0.27
13 0.27
15 0.27
16 0.3
17 0.28
18 0.12
19 0.57
2 -0.19
20 0.09
21 0.31
22 0.28
23 -0.15
24 0.28
25 -0.15
26 -0.15
27 0.09
28 0.18
3 -0.56
30 0.19
31 -0.15
32 -0.15
33 -0.15
34 -0.15
4 -0.57
5 -0.81
55 0.15
56 0.15
59 0.15
6 -0.81
63 0.15
64 0.15
65 0.15
66 0.15
7 -0.48
8 -0.7
9 0.27

>  <PUBCHEM_EFFECTIVE_ROTOR_COUNT>  (1) 
10.6

>  <PUBCHEM_PHARMACOPHORE_FEATURES>  (1) 
9
1 3 acceptor
1 4 acceptor
1 5 cation
1 6 cation
1 8 acceptor
6 18 20 23 25 26 28 rings
6 27 30 31 32 33 34 rings
6 5 6 9 10 11 12 rings
7 7 8 18 19 20 21 22 rings

>  <PUBCHEM_HEAVY_ATOM_COUNT>  (1) 
34

>  <PUBCHEM_ATOM_DEF_STEREO_COUNT>  (1) 
0

>  <PUBCHEM_ATOM_UDEF_STEREO_COUNT>  (1) 
0

>  <PUBCHEM_BOND_DEF_STEREO_COUNT>  (1) 
0

>  <PUBCHEM_BOND_UDEF_STEREO_COUNT>  (1) 
0

>  <PUBCHEM_ISOTOPIC_ATOM_COUNT>  (1) 
0

>  <PUBCHEM_COMPONENT_COUNT>  (1) 
1

>  <PUBCHEM_CACTVS_TAUTO_COUNT>  (1) 
1

>  <PUBCHEM_CONFORMER_ID>  (1) 
000036B900000001

>  <PUBCHEM_MMFF94_ENERGY>  (1) 
100.5267

>  <PUBCHEM_FEATURE_SELFOVERLAP>  (1) 
45.686

>  <PUBCHEM_SHAPE_FINGERPRINT>  (1) 
11135926 11 18336818690207000718
11387372 6 18335143081282517411
11477941 20 16370721531159400796
11607047 191 18057331587601651481
12082328 90 18412543215879905230
12643181 29 18412544293262243890
13383661 66 15007028324041789123
1361 4 18335697197285231146
14118638 360 8935003659747796880
14279260 333 18200313213532865890
14856354 85 18410293601624195284
14866123 147 18410013252303553475
15183329 4 17168134651582178330
15361156 5 18272928349643703884
15444296 121 18201444649035855720
17974551 9 18201994478301725641
20775530 9 17824814775151120251
21133665 82 18129665171082988744
21304304 249 18411986897482413993
21795232 338 18411425046143744192
22899556 56 17774741805137236899
3383291 50 17988915687559100191
395649 100 18407760344514808682
4017518 198 18409727323329913383
4073 2 18411418428089725352
44802255 64 17822845360963023389
4616759 239 18059564751393296000
484985 159 18335695061973854243
5486654 36 18337953493090132113
58083652 198 15267052654535844866
6009941 240 18272651225526392768
9953998 17 18410012118189392292

>  <PUBCHEM_SHAPE_MULTIPOLES>  (1) 
662.64
20.43
4.36
1.87
73.67
3.64
0.95
6.05
-3.54
-9.93
-1.52
-1.87
0.13
-0.19

>  <PUBCHEM_SHAPE_SELFOVERLAP>  (1) 
1390.092

>  <PUBCHEM_SHAPE_VOLUME>  (1) 
374.1

>  <PUBCHEM_COORDINATE_TYPE>  (1) 
2
5
10

$$$$
