14001
     RDKit          3D

 34 38  0  0  1  0  0  0  0  0999 V2000
    2.9614   -3.4301   -0.8095 O   0  0  0  0  0  0  0  0  0  0  0  0
    4.7323   -0.4034   -0.2741 N   0  0  0  0  0  0  0  0  0  0  0  0
    0.5720   -0.7275    0.4021 N   0  0  0  0  0  0  0  0  0  0  0  0
    5.1011   -2.5515   -0.9588 N   0  0  0  0  0  0  0  0  0  0  0  0
   -3.6612   -2.8723   -1.0436 N   0  0  0  0  0  0  0  0  0  0  0  0
    3.4077   -1.0762   -0.2211 C   0  0  0  0  0  0  0  0  0  0  0  0
    2.4165   -0.4734   -1.2330 C   0  0  0  0  0  0  0  0  0  0  0  0
    2.8692   -1.1737    1.2177 C   0  0  0  0  0  0  0  0  0  0  0  0
    0.9688   -0.9155   -0.9984 C   0  0  0  0  0  0  0  0  0  0  0  0
    1.3904   -1.5677    1.2846 C   0  0  0  0  0  0  0  0  0  0  0  0
    3.7477   -2.5012   -0.6911 C   0  0  0  0  0  0  0  0  0  0  0  0
    5.7748   -1.3148   -0.7318 C   0  0  0  0  0  0  0  0  0  0  0  0
   -0.8467   -1.0432    0.5738 C   0  0  0  0  0  0  0  0  0  0  0  0
    5.0480    0.9106    0.0428 C   0  0  0  0  0  0  0  0  0  0  0  0
   -1.7003   -0.1345   -0.3292 C   0  0  0  0  0  0  0  0  0  0  0  0
   -3.2543   -0.3724   -0.2437 C   0  0  0  0  0  0  0  0  0  0  0  0
    4.0623    1.8323    0.4932 C   0  0  0  0  0  0  0  0  0  0  0  0
    6.3753    1.4116   -0.0642 C   0  0  0  0  0  0  0  0  0  0  0  0
   -3.7122   -0.0977    1.2096 C   0  0  0  0  0  0  0  0  0  0  0  0
   -4.0630    0.5282   -1.2151 C   0  0  0  0  0  0  0  0  0  0  0  0
    4.3796    3.1527    0.8121 C   0  0  0  0  0  0  0  0  0  0  0  0
    6.6924    2.7318    0.2550 C   0  0  0  0  0  0  0  0  0  0  0  0
   -3.4862   -1.7817   -0.6857 C   0  0  0  0  0  0  0  0  0  0  0  0
    5.6947    3.6024    0.6930 C   0  0  0  0  0  0  0  0  0  0  0  0
   -4.2615   -1.1327    1.9147 C   0  0  0  0  0  0  0  0  0  0  0  0
   -5.4149    0.3451   -1.2771 C   0  0  0  0  0  0  0  0  0  0  0  0
   -3.5415    1.1643    1.7075 C   0  0  0  0  0  0  0  0  0  0  0  0
   -3.3750    1.4509   -1.9503 C   0  0  0  0  0  0  0  0  0  0  0  0
   -4.6739   -0.8855    3.2240 C   0  0  0  0  0  0  0  0  0  0  0  0
   -6.1419    1.1546   -2.1499 C   0  0  0  0  0  0  0  0  0  0  0  0
   -3.9538    1.4115    3.0170 C   0  0  0  0  0  0  0  0  0  0  0  0
   -4.1020    2.2605   -2.8230 C   0  0  0  0  0  0  0  0  0  0  0  0
   -4.5201    0.3865    3.7751 C   0  0  0  0  0  0  0  0  0  0  0  0
   -5.4855    2.1122   -2.9227 C   0  0  0  0  0  0  0  0  0  0  0  0
  1 11  2  0
  2  6  1  0
  2 12  1  0
  2 14  1  0
  3  9  1  0
  3 10  1  0
  3 13  1  0
  4 11  1  0
  4 12  1  0
  5 23  3  0
  6  7  1  0
  6  8  1  0
  6 11  1  0
  7  9  1  0
  8 10  1  0
 13 15  1  0
 14 17  2  0
 14 18  1  0
 15 16  1  0
 16 19  1  0
 16 20  1  0
 16 23  1  0
 17 21  1  0
 18 22  2  0
 19 25  2  0
 19 27  1  0
 20 26  2  0
 20 28  1  0
 21 24  2  0
 22 24  1  0
 25 29  1  0
 26 30  1  0
 27 31  2  0
 28 32  2  0
 29 33  2  0
 30 34  2  0
 31 33  1  0
 32 34  1  0
M  END
>  <PUBCHEM_COMPOUND_CID>  (1) 
14001

>  <PUBCHEM_CONFORMER_RMSD>  (1) 
1

>  <PUBCHEM_CONFORMER_DIVERSEORDER>  (1) 
1
20
19
18
11
23
5
12
4
22
26
24
10
8
6
21
25
2
3
15
13
9
14
7
17
16

>  <PUBCHEM_MMFF94_PARTIAL_CHARGES>  (1) 
47
1 -0.57
10 0.27
11 0.57
12 0.67
13 0.27
14 0.1
16 0.49
17 -0.15
18 -0.15
19 -0.14
2 -0.84
20 -0.14
21 -0.15
22 -0.15
23 0.36
24 -0.15
25 -0.15
26 -0.15
27 -0.15
28 -0.15
29 -0.15
3 -0.81
30 -0.15
31 -0.15
32 -0.15
33 -0.15
34 -0.15
4 -0.73
47 0.37
5 -0.56
50 0.15
51 0.15
52 0.15
53 0.15
54 0.15
55 0.15
56 0.15
57 0.15
58 0.15
59 0.15
6 0.43
60 0.15
61 0.15
62 0.15
63 0.15
64 0.15
9 0.27

>  <PUBCHEM_EFFECTIVE_ROTOR_COUNT>  (1) 
7.6

>  <PUBCHEM_PHARMACOPHORE_FEATURES>  (1) 
10
1 1 acceptor
1 2 cation
1 3 cation
1 4 donor
1 5 acceptor
5 2 4 6 11 12 rings
6 14 17 18 21 22 24 rings
6 19 25 27 29 31 33 rings
6 20 26 28 30 32 34 rings
6 3 6 7 8 9 10 rings

>  <PUBCHEM_HEAVY_ATOM_COUNT>  (1) 
34

>  <PUBCHEM_ATOM_DEF_STEREO_COUNT>  (1) 
0

>  <PUBCHEM_ATOM_UDEF_STEREO_COUNT>  (1) 
0

>  <PUBCHEM_BOND_DEF_STEREO_COUNT>  (1) 
0

>  <PUBCHEM_BOND_UDEF_STEREO_COUNT>  (1) 
0

>  <PUBCHEM_ISOTOPIC_ATOM_COUNT>  (1) 
0

>  <PUBCHEM_COMPONENT_COUNT>  (1) 
1

>  <PUBCHEM_CACTVS_TAUTO_COUNT>  (1) 
2

>  <PUBCHEM_CONFORMER_ID>  (1) 
000036B100000001

>  <PUBCHEM_MMFF94_ENERGY>  (1) 
119.7866

>  <PUBCHEM_FEATURE_SELFOVERLAP>  (1) 
50.753

>  <PUBCHEM_SHAPE_FINGERPRINT>  (1) 
11135926 11 18272657874563275232
11315621 246 14404894843246011925
11331351 85 16698942081748654534
11621639 307 17775006816561219424
12616971 3 17917441886581498842
13782708 43 17894922780776263610
14347332 77 15194987337745466215
14556957 393 17418086599385374057
14856354 85 16915392215264571151
15021287 119 17986965042072475434
15081414 286 18336557092307553636
15082195 135 18060127761291817202
15131766 46 18129950103804084337
15183329 4 18202848768871644472
15289351 153 17560514115207606152
17809404 112 17821728308308975689
18470217 77 17530964739514812465
21033648 144 18410577326958053334
21033648 29 17749108893835801676
22122407 14 18341047394035667917
23081809 10 17060340695683393134
23516275 100 18114728439234215996
23522609 53 16916246428028960880
23559900 14 18342730776803451734
249057 25 17417806215034112902
25269216 80 15123508163711569437
268830 7 18202010897365202786
3383291 50 17385445432498796859
3388396 114 16843866780370045161
3552219 110 18054517078468757691
3610482 184 17060071336550734817
4073 2 16515974670435657562
44249763 50 18261658372374501804
497634 4 18130790092375253455
504579 68 17275102834000425892
508706 21 17458343048413501189
5104073 3 16588017983517026384
57724786 102 17988376887953543710
6608658 132 16630530618133566497
6695519 79 18187944875207790323
6697151 62 18048871897666334622
9981440 41 17531239518795329315

>  <PUBCHEM_SHAPE_MULTIPOLES>  (1) 
673.91
18.28
3.48
3.07
12.42
1.05
2.22
9.62
-0.52
3.75
-0.99
-7.17
0.68
5.9

>  <PUBCHEM_SHAPE_SELFOVERLAP>  (1) 
1470.899

>  <PUBCHEM_SHAPE_VOLUME>  (1) 
361.9

>  <PUBCHEM_COORDINATE_TYPE>  (1) 
2
5
10

$$$$
