14018
     RDKit          3D

  8  7  0  0  0  0  0  0  0  0999 V2000
    0.0001   -0.2902    0.0779 C   0  0  0  0  0  0  0  0  0  0  0  0
   -0.0004    1.0718    0.8276 C   0  0  0  0  0  0  0  0  0  0  0  0
    1.2516   -0.4541   -0.8405 C   0  0  0  0  0  0  0  0  0  0  0  0
   -1.2512   -0.4545   -0.8404 C   0  0  0  0  0  0  0  0  0  0  0  0
    0.0006   -1.4130    1.1402 C   0  0  0  0  0  0  0  0  0  0  0  0
   -0.0009    2.3115   -0.0585 C   0  0  0  0  0  0  0  0  0  0  0  0
    2.6105   -0.3852   -0.1532 C   0  0  0  0  0  0  0  0  0  0  0  0
   -2.6103   -0.3864   -0.1532 C   0  0  0  0  0  0  0  0  0  0  0  0
  1  2  1  0
  1  3  1  0
  1  4  1  0
  1  5  1  0
  2  6  1  0
  3  7  1  0
  4  8  1  0
M  END
>  <PUBCHEM_COMPOUND_CID>  (1) 
14018

>  <PUBCHEM_CONFORMER_RMSD>  (1) 
0.6

>  <PUBCHEM_CONFORMER_DIVERSEORDER>  (1) 
1
2
3

>  <PUBCHEM_MMFF94_PARTIAL_CHARGES>  (1) 
0

>  <PUBCHEM_EFFECTIVE_ROTOR_COUNT>  (1) 
3

>  <PUBCHEM_PHARMACOPHORE_FEATURES>  (1) 
5
1 5 hydrophobe
1 6 hydrophobe
1 7 hydrophobe
1 8 hydrophobe
4 1 2 3 4 hydrophobe

>  <PUBCHEM_HEAVY_ATOM_COUNT>  (1) 
8

>  <PUBCHEM_ATOM_DEF_STEREO_COUNT>  (1) 
0

>  <PUBCHEM_ATOM_UDEF_STEREO_COUNT>  (1) 
0

>  <PUBCHEM_BOND_DEF_STEREO_COUNT>  (1) 
0

>  <PUBCHEM_BOND_UDEF_STEREO_COUNT>  (1) 
0

>  <PUBCHEM_ISOTOPIC_ATOM_COUNT>  (1) 
0

>  <PUBCHEM_COMPONENT_COUNT>  (1) 
1

>  <PUBCHEM_CACTVS_TAUTO_COUNT>  (1) 
1

>  <PUBCHEM_CONFORMER_ID>  (1) 
000036C200000001

>  <PUBCHEM_MMFF94_ENERGY>  (1) 
14.0194

>  <PUBCHEM_FEATURE_SELFOVERLAP>  (1) 
25.689

>  <PUBCHEM_SHAPE_FINGERPRINT>  (1) 
12423570 1 16301240156614848347
137420 1 14567611770576490089
14128692 85 17058926860657161767
16714656 1 18059857212242279415
20653091 64 18198339748536487187
23552449 1 18128256688488074684
29004967 10 18131074856611331526
5084963 1 13406793328461437943
54338 74 18260834774083912828
5943 1 10495065446084153834
68250623 7 17837770397680322711

>  <PUBCHEM_SHAPE_MULTIPOLES>  (1) 
164.64
2.71
1.78
1.05
0
1.3
0.11
-0.84
-0.59
0
0.32
0
-0.22
0

>  <PUBCHEM_SHAPE_SELFOVERLAP>  (1) 
291.651

>  <PUBCHEM_SHAPE_VOLUME>  (1) 
110.8

>  <PUBCHEM_COORDINATE_TYPE>  (1) 
2
5
10

$$$$
