14014
     RDKit          3D

  5  4  0  0  0  0  0  0  0  0999 V2000
   -0.0001    0.0528   -0.0001 Si  0  0  0  0  0  4  0  0  0  0  0  0
   -0.0004    1.0288   -1.3586 O   0  0  0  0  0  0  0  0  0  0  0  0
   -0.0029    1.0240    1.3618 O   0  0  0  0  0  0  0  0  0  0  0  0
   -1.5173   -1.0551   -0.0027 C   0  0  0  0  0  0  0  0  0  0  0  0
    1.5207   -1.0505   -0.0004 C   0  0  0  0  0  0  0  0  0  0  0  0
  1  2  1  0
  1  3  1  0
  1  4  1  0
  1  5  1  0
M  END
>  <PUBCHEM_COMPOUND_CID>  (1) 
14014

>  <PUBCHEM_CONFORMER_RMSD>  (1) 
0.4

>  <PUBCHEM_CONFORMER_DIVERSEORDER>  (1) 
1

>  <PUBCHEM_MMFF94_PARTIAL_CHARGES>  (1) 
7
1 0.76
12 0.4
13 0.4
2 -0.7
3 -0.7
4 -0.08
5 -0.08

>  <PUBCHEM_EFFECTIVE_ROTOR_COUNT>  (1) 
0

>  <PUBCHEM_PHARMACOPHORE_FEATURES>  (1) 
0

>  <PUBCHEM_HEAVY_ATOM_COUNT>  (1) 
5

>  <PUBCHEM_ATOM_DEF_STEREO_COUNT>  (1) 
0

>  <PUBCHEM_ATOM_UDEF_STEREO_COUNT>  (1) 
0

>  <PUBCHEM_BOND_DEF_STEREO_COUNT>  (1) 
0

>  <PUBCHEM_BOND_UDEF_STEREO_COUNT>  (1) 
0

>  <PUBCHEM_ISOTOPIC_ATOM_COUNT>  (1) 
0

>  <PUBCHEM_COMPONENT_COUNT>  (1) 
1

>  <PUBCHEM_CACTVS_TAUTO_COUNT>  (1) 
1

>  <PUBCHEM_CONFORMER_ID>  (1) 
000036BE00000001

>  <PUBCHEM_MMFF94_ENERGY>  (1) 
-1.6364

>  <PUBCHEM_FEATURE_SELFOVERLAP>  (1) 
0

>  <PUBCHEM_SHAPE_FINGERPRINT>  (1) 
24536 1 15480730751533770179
5943 1 11787561976077490530

>  <PUBCHEM_SHAPE_MULTIPOLES>  (1) 
109.37
1.57
1.39
1.2
0
0
0
-0.85
0
0
0
0
0.54
0

>  <PUBCHEM_SHAPE_SELFOVERLAP>  (1) 
174.271

>  <PUBCHEM_SHAPE_VOLUME>  (1) 
77

>  <PUBCHEM_COORDINATE_TYPE>  (1) 
2
5
10

$$$$
