14011
     RDKit          3D

 34 37  0  0  0  0  0  0  0  0999 V2000
   -6.6226    1.9906    1.5193 Cl  0  0  0  0  0  0  0  0  0  0  0  0
   -4.3783   -2.7600   -1.8096 F   0  0  0  0  0  0  0  0  0  0  0  0
    8.2622   -0.7748   -0.3422 O   0  0  0  0  0  0  0  0  0  0  0  0
    0.3804    1.0709   -2.4397 O   0  0  0  0  0  0  0  0  0  0  0  0
    1.9949    0.7468    0.5941 N   0  0  0  0  0  0  0  0  0  0  0  0
    4.6518   -0.3414    0.2549 N   0  0  0  0  0  0  0  0  0  0  0  0
   -1.1245    1.8651   -0.8477 N   0  0  0  0  0  0  0  0  0  0  0  0
   -2.1908   -0.7609   -1.9383 N   0  0  0  0  0  0  0  0  0  0  0  0
    3.1469    1.3122    1.3070 C   0  0  0  0  0  0  0  0  0  0  0  0
    2.2059   -0.6818    0.3300 C   0  0  0  0  0  0  0  0  0  0  0  0
    4.4415    1.0875    0.5181 C   0  0  0  0  0  0  0  0  0  0  0  0
    3.5002   -0.9053   -0.4597 C   0  0  0  0  0  0  0  0  0  0  0  0
    0.7619    0.9584    1.3498 C   0  0  0  0  0  0  0  0  0  0  0  0
    0.2227    2.3815    1.1784 C   0  0  0  0  0  0  0  0  0  0  0  0
    5.8856   -0.5541   -0.4991 C   0  0  0  0  0  0  0  0  0  0  0  0
   -0.1233    2.7561   -0.2615 C   0  0  0  0  0  0  0  0  0  0  0  0
    7.0898   -0.5480    0.4290 C   0  0  0  0  0  0  0  0  0  0  0  0
   -2.4366    1.8433   -0.2601 C   0  0  0  0  0  0  0  0  0  0  0  0
   -0.7647    1.1315   -1.9843 C   0  0  0  0  0  0  0  0  0  0  0  0
   -3.2775    0.7114   -0.2945 C   0  0  0  0  0  0  0  0  0  0  0  0
   -1.8857    0.4276   -2.7066 C   0  0  0  0  0  0  0  0  0  0  0  0
   -2.8263   -0.6093   -0.8258 C   0  0  0  0  0  0  0  0  0  0  0  0
   -2.9179    2.9926    0.3979 C   0  0  0  0  0  0  0  0  0  0  0  0
   -4.5766    0.7713    0.2424 C   0  0  0  0  0  0  0  0  0  0  0  0
   -4.2020    3.0375    0.9470 C   0  0  0  0  0  0  0  0  0  0  0  0
   -3.1025   -1.8396   -0.0291 C   0  0  0  0  0  0  0  0  0  0  0  0
   -5.0356    1.9315    0.8581 C   0  0  0  0  0  0  0  0  0  0  0  0
    9.3795   -0.7619    0.4249 C   0  0  0  0  0  0  0  0  0  0  0  0
   -3.8758   -2.8662   -0.5711 C   0  0  0  0  0  0  0  0  0  0  0  0
   -2.5851   -1.9627    1.2605 C   0  0  0  0  0  0  0  0  0  0  0  0
   -4.1315   -4.0159    0.1765 C   0  0  0  0  0  0  0  0  0  0  0  0
   -2.8410   -3.1124    2.0079 C   0  0  0  0  0  0  0  0  0  0  0  0
   10.5894   -0.3826    0.0078 C   0  0  0  0  0  0  0  0  0  0  0  0
   -3.6141   -4.1388    1.4659 C   0  0  0  0  0  0  0  0  0  0  0  0
  1 27  1  0
  2 29  1  0
  3 17  1  0
  3 28  1  0
  4 19  2  0
  5  9  1  0
  5 10  1  0
  5 13  1  0
  6 11  1  0
  6 12  1  0
  6 15  1  0
  7 16  1  0
  7 18  1  0
  7 19  1  0
  8 21  1  0
  8 22  2  0
  9 11  1  0
 10 12  1  0
 13 14  1  0
 14 16  1  0
 15 17  1  0
 18 20  2  0
 18 23  1  0
 19 21  1  0
 20 22  1  0
 20 24  1  0
 22 26  1  0
 23 25  2  0
 24 27  2  0
 25 27  1  0
 26 29  2  0
 26 30  1  0
 28 33  2  0
 29 31  1  0
 30 32  2  0
 31 34  2  0
 32 34  1  0
M  END
>  <PUBCHEM_COMPOUND_CID>  (1) 
14011

>  <PUBCHEM_CONFORMER_RMSD>  (1) 
1

>  <PUBCHEM_CONFORMER_DIVERSEORDER>  (1) 
1
63
86
107
53
126
142
42
154
55
147
33
138
98
96
117
74
153
145
58
155
56
70
95
140
75
14
25
17
73
94
62
43
152
67
143
113
125
119
127
50
88
32
134
76
79
128
102
156
111
82
30
29
151
66
108
80
112
84
21
35
93
78
115
144
133
77
150
146
87
106
90
10
99
2
157
148
60
123
27
13
136
97
132
18
54
139
11
130
36
45
131
65
91
39
9
149
22
121
69
34
61
64
135
158
23
6
28
103
110
105
15
4
59
49
100
52
114
37
81
57
47
137
5
3
116
51
141
71
38
83
41
31
118
89
92
8
12
101
16
72
104
85
68
109
129
46
19
7
124
120
24
48
40
122
26
20
44

>  <PUBCHEM_MMFF94_PARTIAL_CHARGES>  (1) 
43
1 -0.18
10 0.27
11 0.27
12 0.27
13 0.27
15 0.27
16 0.3
17 0.28
18 0.12
19 0.57
2 -0.19
20 0.09
21 0.31
22 0.28
23 -0.15
24 -0.15
25 -0.15
26 0.09
27 0.18
28 -0.07
29 0.19
3 -0.36
30 -0.15
31 -0.15
32 -0.15
33 -0.3
34 -0.15
4 -0.57
5 -0.81
55 0.15
56 0.15
57 0.15
58 0.15
59 0.15
6 -0.81
60 0.15
61 0.15
62 0.15
63 0.15
64 0.15
7 -0.48
8 -0.7
9 0.27

>  <PUBCHEM_EFFECTIVE_ROTOR_COUNT>  (1) 
10.6

>  <PUBCHEM_PHARMACOPHORE_FEATURES>  (1) 
9
1 3 acceptor
1 4 acceptor
1 5 cation
1 6 cation
1 8 acceptor
6 18 20 23 24 25 27 rings
6 26 29 30 31 32 34 rings
6 5 6 9 10 11 12 rings
7 7 8 18 19 20 21 22 rings

>  <PUBCHEM_HEAVY_ATOM_COUNT>  (1) 
34

>  <PUBCHEM_ATOM_DEF_STEREO_COUNT>  (1) 
0

>  <PUBCHEM_ATOM_UDEF_STEREO_COUNT>  (1) 
0

>  <PUBCHEM_BOND_DEF_STEREO_COUNT>  (1) 
0

>  <PUBCHEM_BOND_UDEF_STEREO_COUNT>  (1) 
0

>  <PUBCHEM_ISOTOPIC_ATOM_COUNT>  (1) 
0

>  <PUBCHEM_COMPONENT_COUNT>  (1) 
1

>  <PUBCHEM_CACTVS_TAUTO_COUNT>  (1) 
1

>  <PUBCHEM_CONFORMER_ID>  (1) 
000036BB00000001

>  <PUBCHEM_MMFF94_ENERGY>  (1) 
106.5532

>  <PUBCHEM_FEATURE_SELFOVERLAP>  (1) 
45.686

>  <PUBCHEM_SHAPE_FINGERPRINT>  (1) 
11135926 11 18336256835464991110
11387372 6 18335425651475908003
11477941 20 16370721531138314772
11607047 191 18057331587612213977
12082328 90 18412823587065812566
12643181 29 18411981343293004842
1361 4 18335697197285231162
14279260 333 18272088233077200130
14856354 85 18410295800626345412
14866123 147 18410294722980009083
15183329 4 17168135751088537842
15361156 5 18273209820357089252
15444296 121 18202007598957628552
17974551 9 18201994473996202345
20775530 9 17896873464395172147
21304304 249 18411986897482414033
21795232 338 18412268367272523352
22899556 56 17774741805142544123
3383291 50 17989197158246111807
395649 100 18407760344493716194
4017518 198 18409727327651254399
4073 2 18411699898776710968
44802255 64 17823126835955597269
4616759 239 18059283276411291096
484985 159 18335695061968598955
5486654 36 18410012182349975793
58083652 198 15267051555024230090
6009941 240 18272651221194502240
9953998 17 18409730643212675156

>  <PUBCHEM_SHAPE_MULTIPOLES>  (1) 
662.64
20.36
4.34
1.87
72.65
3.45
0.95
5.39
-4.11
-10.05
-1.54
-1.98
0.1
-0.31

>  <PUBCHEM_SHAPE_SELFOVERLAP>  (1) 
1395.407

>  <PUBCHEM_SHAPE_VOLUME>  (1) 
372.2

>  <PUBCHEM_COORDINATE_TYPE>  (1) 
2
5
10

$$$$
