14020
     RDKit          3D

  9  8  0  0  0  0  0  0  0  0999 V2000
   -0.0018   -0.0053    0.0002 C   0  0  0  0  0  0  0  0  0  0  0  0
   -0.8840   -0.8933    0.9360 C   0  0  0  0  0  0  0  0  0  0  0  0
    0.8867   -0.8866   -0.9365 C   0  0  0  0  0  0  0  0  0  0  0  0
    0.8788    0.8820    0.9384 C   0  0  0  0  0  0  0  0  0  0  0  0
   -0.8884    0.8766   -0.9376 C   0  0  0  0  0  0  0  0  0  0  0  0
   -1.8571   -1.8416    0.2456 C   0  0  0  0  0  0  0  0  0  0  0  0
    1.8663   -1.8288   -0.2469 C   0  0  0  0  0  0  0  0  0  0  0  0
    1.8372    1.8468    0.2500 C   0  0  0  0  0  0  0  0  0  0  0  0
   -1.8377    1.8501   -0.2491 C   0  0  0  0  0  0  0  0  0  0  0  0
  1  2  1  0
  1  3  1  0
  1  4  1  0
  1  5  1  0
  2  6  1  0
  3  7  1  0
  4  8  1  0
  5  9  1  0
M  END
>  <PUBCHEM_COMPOUND_CID>  (1) 
14020

>  <PUBCHEM_CONFORMER_RMSD>  (1) 
0.6

>  <PUBCHEM_CONFORMER_DIVERSEORDER>  (1) 
1
2

>  <PUBCHEM_MMFF94_PARTIAL_CHARGES>  (1) 
0

>  <PUBCHEM_EFFECTIVE_ROTOR_COUNT>  (1) 
4

>  <PUBCHEM_PHARMACOPHORE_FEATURES>  (1) 
5
1 6 hydrophobe
1 7 hydrophobe
1 8 hydrophobe
1 9 hydrophobe
5 1 2 3 4 5 hydrophobe

>  <PUBCHEM_HEAVY_ATOM_COUNT>  (1) 
9

>  <PUBCHEM_ATOM_DEF_STEREO_COUNT>  (1) 
0

>  <PUBCHEM_ATOM_UDEF_STEREO_COUNT>  (1) 
0

>  <PUBCHEM_BOND_DEF_STEREO_COUNT>  (1) 
0

>  <PUBCHEM_BOND_UDEF_STEREO_COUNT>  (1) 
0

>  <PUBCHEM_ISOTOPIC_ATOM_COUNT>  (1) 
0

>  <PUBCHEM_COMPONENT_COUNT>  (1) 
1

>  <PUBCHEM_CACTVS_TAUTO_COUNT>  (1) 
1

>  <PUBCHEM_CONFORMER_ID>  (1) 
000036C400000001

>  <PUBCHEM_MMFF94_ENERGY>  (1) 
15.6979

>  <PUBCHEM_FEATURE_SELFOVERLAP>  (1) 
25.416

>  <PUBCHEM_SHAPE_FINGERPRINT>  (1) 
10219947 1 17689439703545759427
12423570 1 12711954610378467637
137420 1 10820226176135182469
161256 15 18339095881102305807
16945 1 18410855460128161798
21040471 1 17971754363516005885
21501502 16 18410575088963327457
29004967 10 17829610913252975307
3250762 1 18410575080368111616
4369600 1 17619052946153683173
54338 74 17690005531443565618
5943 1 8926184446282995178
68250623 7 18338783576734163495

>  <PUBCHEM_SHAPE_MULTIPOLES>  (1) 
185.22
2.48
2.47
1.03
0.01
0.02
0
-0.03
-0.01
-0.01
0.01
0
0
0.7

>  <PUBCHEM_SHAPE_SELFOVERLAP>  (1) 
329.772

>  <PUBCHEM_SHAPE_VOLUME>  (1) 
123.5

>  <PUBCHEM_COORDINATE_TYPE>  (1) 
2
5
10

$$$$
