14030
     RDKit          3D

 15 14  0  0  1  0  0  0  0  0999 V2000
   -0.2054    1.2553    0.2201 P   0  0  0  0  0  0  0  0  0  0  0  0
    1.3565   -1.1657    0.9012 P   0  0  0  0  0  0  0  0  0  0  0  0
   -1.3452    0.4071   -0.5594 O   0  0  0  0  0  0  0  0  0  0  0  0
    0.4810    0.1628    1.1970 O   0  0  0  0  0  0  0  0  0  0  0  0
    0.2555   -1.9855    0.0378 O   0  0  0  0  0  0  0  0  0  0  0  0
    2.2270   -0.5889   -0.3400 O   0  0  0  0  0  0  0  0  0  0  0  0
   -1.0524    2.2147    1.2137 O   0  0  0  0  0  0  0  0  0  0  0  0
    0.7507    1.9889   -0.6772 O   0  0  0  0  0  0  0  0  0  0  0  0
   -2.2338    1.1014   -1.4177 C   0  0  0  0  0  0  0  0  0  0  0  0
   -0.7399   -2.6700    0.7851 C   0  0  0  0  0  0  0  0  0  0  0  0
    3.3432    0.2223   -0.0010 C   0  0  0  0  0  0  0  0  0  0  0  0
   -3.2020    0.1117   -2.0300 C   0  0  0  0  0  0  0  0  0  0  0  0
   -1.6768   -3.3758   -0.1719 C   0  0  0  0  0  0  0  0  0  0  0  0
    4.0329    0.6685   -1.2726 C   0  0  0  0  0  0  0  0  0  0  0  0
   -1.9915    1.6532    2.1147 C   0  0  0  0  0  0  0  0  0  0  0  0
  1  3  1  0
  1  4  1  0
  1  7  1  0
  1  8  2  0
  2  4  1  0
  2  5  1  0
  2  6  1  0
  3  9  1  0
  5 10  1  0
  6 11  1  0
  7 15  1  0
  9 12  1  0
 10 13  1  0
 11 14  1  0
M  END
>  <PUBCHEM_COMPOUND_CID>  (1) 
14030

>  <PUBCHEM_CONFORMER_RMSD>  (1) 
0.8

>  <PUBCHEM_CONFORMER_DIVERSEORDER>  (1) 
1
154
128
77
88
50
179
186
146
188
39
136
70
103
49
47
168
81
160
129
15
94
22
63
140
172
187
180
170
59
116
190
45
57
14
158
105
176
37
191
161
150
101
58
169
155
23
44
194
64
35
114
62
139
151
167
98
89
125
123
132
29
21
175
142
113
46
138
173
20
106
60
164
195
27
40
2
53
52
18
130
111
85
141
147
19
16
65
108
12
144
156
109
92
68
115
78
102
8
74
120
112
153
159
61
4
118
17
84
75
66
91
145
80
10
79
124
93
56
26
33
182
117
148
183
9
11
25
126
122
100
3
178
51
127
104
121
72
24
185
181
6
193
34
36
165
133
43
7
5
137
107
87
48
95
131
32
71
99
189
83
149
192
134
69
184
166
55
174
157
54
135
96
152
196
110
42
67
162
38
143
171
82
86
41
177
73
163
76
13
97
90
119
28
31
30

>  <PUBCHEM_MMFF94_PARTIAL_CHARGES>  (1) 
12
1 1.51
10 0.28
11 0.28
15 0.28
2 0.3
3 -0.55
4 -0.37
5 -0.38
6 -0.38
7 -0.55
8 -0.7
9 0.28

>  <PUBCHEM_EFFECTIVE_ROTOR_COUNT>  (1) 
9

>  <PUBCHEM_PHARMACOPHORE_FEATURES>  (1) 
1
1 8 acceptor

>  <PUBCHEM_HEAVY_ATOM_COUNT>  (1) 
15

>  <PUBCHEM_ATOM_DEF_STEREO_COUNT>  (1) 
0

>  <PUBCHEM_ATOM_UDEF_STEREO_COUNT>  (1) 
1

>  <PUBCHEM_BOND_DEF_STEREO_COUNT>  (1) 
0

>  <PUBCHEM_BOND_UDEF_STEREO_COUNT>  (1) 
0

>  <PUBCHEM_ISOTOPIC_ATOM_COUNT>  (1) 
0

>  <PUBCHEM_COMPONENT_COUNT>  (1) 
1

>  <PUBCHEM_CACTVS_TAUTO_COUNT>  (1) 
1

>  <PUBCHEM_CONFORMER_ID>  (1) 
000036CE00000001

>  <PUBCHEM_MMFF94_ENERGY>  (1) 
8.5698

>  <PUBCHEM_FEATURE_SELFOVERLAP>  (1) 
5.074

>  <PUBCHEM_SHAPE_FINGERPRINT>  (1) 
14251745 187 17614545365302782031
14817 1 12802181148760405427
15279307 12 17626381221381183185
19873495 37 17843985648985716880
21041028 32 17617694336376931923
21160774 45 18335147513493315243
21339142 149 18060707182312976024
21452121 99 17610859686494488599
22713034 7 17832702370688413523
23419403 2 17769084992935615192
23526113 38 17841688988354649761
23552423 10 17618204127624949421
23557571 272 18197774621483007410
23598291 2 17336183758723939630
2748010 2 17325747666958351975
81228 2 18191603036698811042

>  <PUBCHEM_SHAPE_MULTIPOLES>  (1) 
281.18
4.87
3.22
1.8
4.11
2.77
-0.13
-1.08
2.95
-2.18
-0.76
-1.37
-0.98
-0.63

>  <PUBCHEM_SHAPE_SELFOVERLAP>  (1) 
490.287

>  <PUBCHEM_SHAPE_VOLUME>  (1) 
186.1

>  <PUBCHEM_COORDINATE_TYPE>  (1) 
2
5
10

$$$$
