1403
     RDKit          3D

 23 25  0  0  1  0  0  0  0  0999 V2000
   -1.4281   -1.5360    1.7400 S   0  0  0  0  0  0  0  0  0  0  0  0
   -0.0909    2.2553   -1.6866 O   0  0  0  0  0  0  0  0  0  0  0  0
    1.9532    1.0940    0.6402 N   0  0  0  0  0  0  0  0  0  0  0  0
   -0.3820    0.1516   -0.6598 N   0  0  0  0  0  0  0  0  0  0  0  0
    1.8480    1.2773   -0.7955 C   0  0  0  0  0  0  0  0  0  0  0  0
    0.3675    1.2545   -1.1276 C   0  0  0  0  0  0  0  0  0  0  0  0
    1.2559    2.1669    1.3563 C   0  0  0  0  0  0  0  0  0  0  0  0
    3.3577    1.0419    1.0586 C   0  0  0  0  0  0  0  0  0  0  0  0
    2.4494    2.5965   -1.2296 C   0  0  0  0  0  0  0  0  0  0  0  0
   -1.7862    0.2926   -0.3355 C   0  0  0  0  0  0  0  0  0  0  0  0
    0.1711   -1.1717   -0.5017 C   0  0  0  0  0  0  0  0  0  0  0  0
   -2.3762   -0.4334    0.7169 C   0  0  0  0  0  0  0  0  0  0  0  0
   -0.2292   -2.0341    0.5316 C   0  0  0  0  0  0  0  0  0  0  0  0
    1.2961    1.9494    2.8341 C   0  0  0  0  0  0  0  0  0  0  0  0
    4.0971   -0.0434    0.3456 C   0  0  0  0  0  0  0  0  0  0  0  0
   -2.6164    1.1625   -1.0672 C   0  0  0  0  0  0  0  0  0  0  0  0
    1.0951   -1.6632   -1.4433 C   0  0  0  0  0  0  0  0  0  0  0  0
   -3.7349   -0.2669    1.0316 C   0  0  0  0  0  0  0  0  0  0  0  0
    0.3334   -3.3149    0.6503 C   0  0  0  0  0  0  0  0  0  0  0  0
   -3.9701    1.3189   -0.7547 C   0  0  0  0  0  0  0  0  0  0  0  0
    1.6459   -2.9414   -1.3274 C   0  0  0  0  0  0  0  0  0  0  0  0
   -4.5286    0.6079    0.2977 C   0  0  0  0  0  0  0  0  0  0  0  0
    1.2721   -3.7643   -0.2739 C   0  0  0  0  0  0  0  0  0  0  0  0
  1 12  1  0
  1 13  1  0
  2  6  2  0
  3  5  1  0
  3  7  1  0
  3  8  1  0
  4  6  1  0
  4 10  1  0
  4 11  1  0
  5  6  1  0
  5  9  1  0
  7 14  1  0
  8 15  1  0
 10 12  2  0
 10 16  1  0
 11 13  2  0
 11 17  1  0
 12 18  1  0
 13 19  1  0
 16 20  2  0
 17 21  2  0
 18 22  2  0
 19 23  2  0
 20 22  1  0
 21 23  1  0
M  END
>  <PUBCHEM_COMPOUND_CID>  (1) 
1403

>  <PUBCHEM_CONFORMER_RMSD>  (1) 
0.8

>  <PUBCHEM_CONFORMER_DIVERSEORDER>  (1) 
1
5
15
4
9
13
14
3
8
2
12
16
10
11
7
6

>  <PUBCHEM_MMFF94_PARTIAL_CHARGES>  (1) 
28
1 -0.2
10 0.12
11 0.12
12 0.1
13 0.1
16 -0.15
17 -0.15
18 -0.15
19 -0.15
2 -0.57
20 -0.15
21 -0.15
22 -0.15
23 -0.15
3 -0.81
38 0.15
39 0.15
4 -0.29
40 0.15
41 0.15
42 0.15
43 0.15
44 0.15
45 0.15
5 0.33
6 0.57
7 0.27
8 0.27

>  <PUBCHEM_EFFECTIVE_ROTOR_COUNT>  (1) 
5.4

>  <PUBCHEM_PHARMACOPHORE_FEATURES>  (1) 
5
1 2 acceptor
1 3 cation
6 1 4 10 11 12 13 rings
6 10 12 16 18 20 22 rings
6 11 13 17 19 21 23 rings

>  <PUBCHEM_HEAVY_ATOM_COUNT>  (1) 
23

>  <PUBCHEM_ATOM_DEF_STEREO_COUNT>  (1) 
0

>  <PUBCHEM_ATOM_UDEF_STEREO_COUNT>  (1) 
1

>  <PUBCHEM_BOND_DEF_STEREO_COUNT>  (1) 
0

>  <PUBCHEM_BOND_UDEF_STEREO_COUNT>  (1) 
0

>  <PUBCHEM_ISOTOPIC_ATOM_COUNT>  (1) 
0

>  <PUBCHEM_COMPONENT_COUNT>  (1) 
1

>  <PUBCHEM_CACTVS_TAUTO_COUNT>  (1) 
1

>  <PUBCHEM_CONFORMER_ID>  (1) 
0000057B00000001

>  <PUBCHEM_MMFF94_ENERGY>  (1) 
96.7342

>  <PUBCHEM_FEATURE_SELFOVERLAP>  (1) 
25.41

>  <PUBCHEM_SHAPE_FINGERPRINT>  (1) 
10165383 225 17692573230085797841
11578080 2 17828481371261852101
12035758 1 18334864900508728394
12507560 18 17917708020119651144
12788726 201 17398378114817043314
13134695 92 17914890942226860765
13140716 1 18335986475013952580
13583140 156 17989199357417027573
13681431 1 18054800485236116335
14178342 30 18409175428579613509
16945 1 18337969886632089629
17349148 13 18115017645430281879
1813 80 16770435625345828647
20600515 1 16390388194565169672
20691752 17 17461169755411894109
20905425 154 18051124800821443244
21041028 32 17770503032064429601
21524375 3 18271242845388578391
21731228 192 18268140027716682250
22112679 90 16535969658394820086
22182313 1 17968939670253517445
23419403 2 17764279792046096088
23559900 14 17752495252205715182
25222932 49 15799362761875309203
2748010 2 18042131972928376575
35225 105 17626108907469709074
465052 167 17459198541732551771
469060 322 14174605731958988592
495365 180 18266167354360888829
5265222 85 18336837510822231364
59755656 215 18409160005352066967
7364860 26 18270117899170177823
81228 2 17405132414820129327
84936 31 18059287648097654023

>  <PUBCHEM_SHAPE_MULTIPOLES>  (1) 
461.35
5.87
3.85
1.91
4.21
3.12
0.79
-2.77
0.58
-2.68
-0.33
-0.53
-0.85
1.26

>  <PUBCHEM_SHAPE_SELFOVERLAP>  (1) 
976.006

>  <PUBCHEM_SHAPE_VOLUME>  (1) 
259.4

>  <PUBCHEM_COORDINATE_TYPE>  (1) 
2
5
10

$$$$
