14035
     RDKit          3D

 13 12  0  0  0  0  0  0  0  0999 V2000
    0.6987    0.2310   -1.1539 S   0  0  0  0  0  0  0  0  0  0  0  0
    4.2023   -0.0804   -1.0792 S   0  0  0  0  0  0  0  0  0  0  0  0
    2.5156   -0.0292   -0.0779 P   0  0  0  0  0  0  0  0  0  0  0  0
    2.5320    1.0985    1.1064 O   0  0  0  0  0  0  0  0  0  0  0  0
    2.3245   -1.3484    0.8692 O   0  0  0  0  0  0  0  0  0  0  0  0
   -2.9223   -0.0647    0.3982 O   0  0  0  0  0  0  0  0  0  0  0  0
   -2.2091    0.4004   -1.7429 O   0  0  0  0  0  0  0  0  0  0  0  0
   -0.6154   -0.0170    0.0572 C   0  0  0  0  0  0  0  0  0  0  0  0
   -1.9775    0.1389   -0.5708 C   0  0  0  0  0  0  0  0  0  0  0  0
   -4.2829    0.0455   -0.0326 C   0  0  0  0  0  0  0  0  0  0  0  0
   -5.1960   -0.2053    1.1486 C   0  0  0  0  0  0  0  0  0  0  0  0
    2.6819    2.4717    0.7866 C   0  0  0  0  0  0  0  0  0  0  0  0
    2.2482   -2.6411    0.2911 C   0  0  0  0  0  0  0  0  0  0  0  0
  1  3  1  0
  1  8  1  0
  2  3  2  0
  3  4  1  0
  3  5  1  0
  4 12  1  0
  5 13  1  0
  6  9  1  0
  6 10  1  0
  7  9  2  0
  8  9  1  0
 10 11  1  0
M  END
>  <PUBCHEM_COMPOUND_CID>  (1) 
14035

>  <PUBCHEM_CONFORMER_RMSD>  (1) 
0.8

>  <PUBCHEM_CONFORMER_DIVERSEORDER>  (1) 
1
8
62
51
97
93
91
11
7
94
35
9
95
90
92
54
15
58
31
67
73
4
98
6
48
81
80
69
23
14
109
104
107
105
2
65
45
96
113
83
27
17
25
10
108
5
103
41
24
34
68
88
99
112
110
71
63
85
30
55
33
32
60
18
66
100
111
72
114
37
78
29
76
70
79
12
13
106
52
46
21
47
61
26
75
64
101
3
87
16
82
36
40
84
89
77
59
39
19
38
53
20
57
86
44
28
102
42
74
49
50
22
43
56

>  <PUBCHEM_MMFF94_PARTIAL_CHARGES>  (1) 
12
1 -0.48
10 0.28
12 0.28
13 0.28
2 -0.68
3 1.47
4 -0.55
5 -0.55
6 -0.43
7 -0.57
8 0.29
9 0.66

>  <PUBCHEM_EFFECTIVE_ROTOR_COUNT>  (1) 
7

>  <PUBCHEM_PHARMACOPHORE_FEATURES>  (1) 
1
1 7 acceptor

>  <PUBCHEM_HEAVY_ATOM_COUNT>  (1) 
13

>  <PUBCHEM_ATOM_DEF_STEREO_COUNT>  (1) 
0

>  <PUBCHEM_ATOM_UDEF_STEREO_COUNT>  (1) 
0

>  <PUBCHEM_BOND_DEF_STEREO_COUNT>  (1) 
0

>  <PUBCHEM_BOND_UDEF_STEREO_COUNT>  (1) 
0

>  <PUBCHEM_ISOTOPIC_ATOM_COUNT>  (1) 
0

>  <PUBCHEM_COMPONENT_COUNT>  (1) 
1

>  <PUBCHEM_CACTVS_TAUTO_COUNT>  (1) 
1

>  <PUBCHEM_CONFORMER_ID>  (1) 
000036D300000001

>  <PUBCHEM_MMFF94_ENERGY>  (1) 
8.2511

>  <PUBCHEM_FEATURE_SELFOVERLAP>  (1) 
5.074

>  <PUBCHEM_SHAPE_FINGERPRINT>  (1) 
11543360 7 8646474203663868793
12616999 72 17676215662639952366
12932764 1 18340194241620597380
13296908 3 17458900431872944615
13533116 47 18337112264059079203
13922767 16 11887668459991258966
14252887 29 17313395512522986741
18186145 218 18201993343817929237
20539784 86 18411974780477585336
21503847 285 17988931080220670376
23402539 116 13038905478630303961
23526113 38 17458916937648417744
23557571 272 16298385729955608158
23558518 356 17765985482995334902
23598291 2 17703216420927592805
31174 14 18410289190170360468

>  <PUBCHEM_SHAPE_MULTIPOLES>  (1) 
255.61
9.38
1.86
1.33
10.63
0.29
-0.28
0.01
1.45
-2.87
0.84
0
-0.18
0.44

>  <PUBCHEM_SHAPE_SELFOVERLAP>  (1) 
433.572

>  <PUBCHEM_SHAPE_VOLUME>  (1) 
174.5

>  <PUBCHEM_COORDINATE_TYPE>  (1) 
2
5
10

$$$$
