14041
     RDKit          3D

 15 14  0  0  0  0  0  0  0  0999 V2000
    1.8610   -0.6063   -0.4697 O   0  0  0  0  0  0  0  0  0  0  0  0
   -2.2724   -0.0192   -0.3398 O   0  0  0  0  0  0  0  0  0  0  0  0
    1.1227   -2.1785    1.0337 O   0  0  0  0  0  0  0  0  0  0  0  0
   -1.9116   -1.7454    1.1325 O   0  0  0  0  0  0  0  0  0  0  0  0
    1.3803    2.1979    1.5498 O   0  0  0  0  0  0  0  0  0  0  0  0
    0.0102    1.0935    0.0247 N   0  0  0  0  0  0  0  0  0  0  0  0
   -0.1449   -0.1396    0.7512 C   0  0  0  0  0  0  0  0  0  0  0  0
    0.9939   -1.1033    0.4576 C   0  0  0  0  0  0  0  0  0  0  0  0
   -1.5238   -0.7448    0.5386 C   0  0  0  0  0  0  0  0  0  0  0  0
    0.7634    2.1624    0.4883 C   0  0  0  0  0  0  0  0  0  0  0  0
    2.9943   -1.4287   -0.7672 C   0  0  0  0  0  0  0  0  0  0  0  0
   -3.6059   -0.4908   -0.5602 C   0  0  0  0  0  0  0  0  0  0  0  0
    3.8478   -0.7347   -1.8072 C   0  0  0  0  0  0  0  0  0  0  0  0
   -4.2935    0.4210   -1.5541 C   0  0  0  0  0  0  0  0  0  0  0  0
    0.7785    3.3164   -0.4781 C   0  0  0  0  0  0  0  0  0  0  0  0
  1  8  1  0
  1 11  1  0
  2  9  1  0
  2 12  1  0
  3  8  2  0
  4  9  2  0
  5 10  2  0
  6  7  1  0
  6 10  1  0
  7  8  1  0
  7  9  1  0
 10 15  1  0
 11 13  1  0
 12 14  1  0
M  END
>  <PUBCHEM_COMPOUND_CID>  (1) 
14041

>  <PUBCHEM_CONFORMER_RMSD>  (1) 
0.8

>  <PUBCHEM_CONFORMER_DIVERSEORDER>  (1) 
1
65
28
73
79
80
61
4
36
30
23
26
71
7
11
52
76
56
18
31
32
21
44
13
39
64
41
25
27
75
51
77
43
42
78
66
47
22
72
29
19
14
58
68
20
57
3
40
48
49
63
12
50
10
35
69
67
59
70
17
24
60
9
74
6
2
54
62
53
38
8
33
45
55
34
15
5
37
46
16

>  <PUBCHEM_MMFF94_PARTIAL_CHARGES>  (1) 
14
1 -0.43
10 0.57
11 0.28
12 0.28
15 0.06
17 0.37
2 -0.43
3 -0.57
4 -0.57
5 -0.57
6 -0.73
7 0.42
8 0.66
9 0.66

>  <PUBCHEM_EFFECTIVE_ROTOR_COUNT>  (1) 
8

>  <PUBCHEM_PHARMACOPHORE_FEATURES>  (1) 
5
1 3 acceptor
1 4 acceptor
1 5 acceptor
1 6 donor
1 7 anion

>  <PUBCHEM_HEAVY_ATOM_COUNT>  (1) 
15

>  <PUBCHEM_ATOM_DEF_STEREO_COUNT>  (1) 
0

>  <PUBCHEM_ATOM_UDEF_STEREO_COUNT>  (1) 
0

>  <PUBCHEM_BOND_DEF_STEREO_COUNT>  (1) 
0

>  <PUBCHEM_BOND_UDEF_STEREO_COUNT>  (1) 
0

>  <PUBCHEM_ISOTOPIC_ATOM_COUNT>  (1) 
0

>  <PUBCHEM_COMPONENT_COUNT>  (1) 
1

>  <PUBCHEM_CACTVS_TAUTO_COUNT>  (1) 
2

>  <PUBCHEM_CONFORMER_ID>  (1) 
000036D900000001

>  <PUBCHEM_MMFF94_ENERGY>  (1) 
20.5846

>  <PUBCHEM_FEATURE_SELFOVERLAP>  (1) 
25.373

>  <PUBCHEM_SHAPE_FINGERPRINT>  (1) 
10465860 71 18201720622121867391
10610426 29 16629962118760332862
14251745 187 18334574689299752588
16945 1 18114190683151353690
17041 50 18341041952601585293
17775402 16 18261685800251970366
18410436 195 18202274771502643792
20233049 118 17968643930930702695
20645477 70 18129084775700184407
20671657 53 18272087175818685495
20711985 344 17983304720265151266
20871999 31 18267870484349193141
21524375 3 17618210054595668905
22620623 9 17486791674668191324
228727 97 18191323588851620698
23382010 3 17894636979991603167
23402539 116 18198358272962803478
23419403 2 16453258724871627888
23557571 272 17986384491553967762
23559900 14 18335434465408176190
23595355 12 18122341539084134608
2748010 2 18118124907738863987
3060560 45 18200858617991151247
3250762 1 17831875911717685666
4663303 62 18128824225260593200
58734987 36 18412543201960820470
6049 1 18188498003050721235
7364860 26 18059284482759250777
81228 2 18053114929900410224

>  <PUBCHEM_SHAPE_MULTIPOLES>  (1) 
274.37
5.89
2.87
1.45
3.46
2.85
0.28
-2.37
4.55
-1.68
-0.61
-0.27
-0.1
0.96

>  <PUBCHEM_SHAPE_SELFOVERLAP>  (1) 
525.664

>  <PUBCHEM_SHAPE_VOLUME>  (1) 
167.4

>  <PUBCHEM_COORDINATE_TYPE>  (1) 
2
5
10

$$$$
