14050
     RDKit          3D

 13 12  0  0  1  0  0  0  0  0999 V2000
    3.3153   -0.3146   -0.0681 P   0  0  0  0  0  0  0  0  0  0  0  0
    1.8281    0.0487   -0.5888 O   0  0  0  0  0  0  0  0  0  0  0  0
    3.2404   -1.9014    0.2343 O   0  0  0  0  0  0  0  0  0  0  0  0
    3.3485    0.3442    1.4084 O   0  0  0  0  0  0  0  0  0  0  0  0
    4.4293    0.1132   -0.9782 O   0  0  0  0  0  0  0  0  0  0  0  0
   -0.5955    0.1084   -0.4488 C   0  0  0  0  0  0  0  0  0  0  0  0
   -1.7851   -0.4979    0.3252 C   0  0  0  0  0  0  0  0  0  0  0  0
   -0.6812    1.6391   -0.6420 C   0  0  0  0  0  0  0  0  0  0  0  0
   -3.1416   -0.2506   -0.3431 C   0  0  0  0  0  0  0  0  0  0  0  0
    0.7201   -0.3244    0.2190 C   0  0  0  0  0  0  0  0  0  0  0  0
   -4.3163   -0.8414    0.4414 C   0  0  0  0  0  0  0  0  0  0  0  0
   -0.6938    2.4539    0.6441 C   0  0  0  0  0  0  0  0  0  0  0  0
   -5.6682   -0.5771   -0.2033 C   0  0  0  0  0  0  0  0  0  0  0  0
  1  2  1  0
  1  3  1  0
  1  4  1  0
  1  5  2  0
  2 10  1  0
  6  7  1  0
  6  8  1  0
  6 10  1  0
  7  9  1  0
  8 12  1  0
  9 11  1  0
 11 13  1  0
M  END
>  <PUBCHEM_COMPOUND_CID>  (1) 
14050

>  <PUBCHEM_CONFORMER_RMSD>  (1) 
0.8

>  <PUBCHEM_CONFORMER_DIVERSEORDER>  (1) 
1
61
60
2
19
71
38
13
66
30
22
63
45
27
33
55
41
4
62
53
42
28
12
70
67
37
68
18
21
23
64
57
47
52
14
59
46
5
50
8
9
15
69
17
7
58
10
51
43
36
56
48
65
32
11
6
40
39
31
34
54
3
25
29
20
35
44
16
49
24
26

>  <PUBCHEM_MMFF94_PARTIAL_CHARGES>  (1) 
8
1 1.51
10 0.28
2 -0.55
3 -0.77
31 0.5
32 0.5
4 -0.77
5 -0.7

>  <PUBCHEM_EFFECTIVE_ROTOR_COUNT>  (1) 
7

>  <PUBCHEM_PHARMACOPHORE_FEATURES>  (1) 
7
1 12 hydrophobe
1 13 hydrophobe
1 3 acceptor
1 4 acceptor
1 5 acceptor
4 1 3 4 5 anion
5 6 7 8 9 11 hydrophobe

>  <PUBCHEM_HEAVY_ATOM_COUNT>  (1) 
13

>  <PUBCHEM_ATOM_DEF_STEREO_COUNT>  (1) 
0

>  <PUBCHEM_ATOM_UDEF_STEREO_COUNT>  (1) 
1

>  <PUBCHEM_BOND_DEF_STEREO_COUNT>  (1) 
0

>  <PUBCHEM_BOND_UDEF_STEREO_COUNT>  (1) 
0

>  <PUBCHEM_ISOTOPIC_ATOM_COUNT>  (1) 
0

>  <PUBCHEM_COMPONENT_COUNT>  (1) 
1

>  <PUBCHEM_CACTVS_TAUTO_COUNT>  (1) 
1

>  <PUBCHEM_CONFORMER_ID>  (1) 
000036E200000001

>  <PUBCHEM_MMFF94_ENERGY>  (1) 
-21.51

>  <PUBCHEM_FEATURE_SELFOVERLAP>  (1) 
35.558

>  <PUBCHEM_SHAPE_FINGERPRINT>  (1) 
10922049 32 9439406839329516097
11287383 113 15213308564212623551
114248 4 15719112483038300455
12032990 46 18408324384751483055
12119455 92 10447932745993254077
12932764 1 17774709888707719302
14123238 8 16950282927311406239
14252887 29 18202293502060977271
15342168 16 16629101368976033544
18222031 100 18130786784975960279
187816 3 17894353289059336755
20279233 1 13334743414478922192
20281407 28 18411417314875550179
204376 136 9151170965777765181
20645477 56 8646477514540568870
20645477 70 18114179688283606354
20671657 53 17313100843433181949
20711985 327 18130795589780508933
22218785 32 8358263665380859769
22485316 2 18410571808020114335
23402539 116 18060134332865846623
23532345 42 18412257363286956577
23557571 272 18272098157891916540
25610 137 18408323272080594916
31174 14 17917982893626139288
3250762 1 17411355217184276655
366044 4 8790886272384590693
4990 188 11891327647552118489
5374978 207 18409160017851833952
537710 114 18261397770870297069
68521 5 18409732824940393917

>  <PUBCHEM_SHAPE_MULTIPOLES>  (1) 
247.91
9.71
1.67
0.92
4.98
1.04
-0.1
-4.33
0.27
-0.11
-0.26
-0.51
0.15
0.04

>  <PUBCHEM_SHAPE_SELFOVERLAP>  (1) 
439.883

>  <PUBCHEM_SHAPE_VOLUME>  (1) 
162.2

>  <PUBCHEM_COORDINATE_TYPE>  (1) 
2
5
10

$$$$
