14053
     RDKit          3D

 14 13  0  0  1  0  0  0  0  0999 V2000
    3.3133   -1.4954   -1.1827 Cl  0  0  0  0  0  0  0  0  0  0  0  0
    6.0837   -0.3969    1.4796 Cl  0  0  0  0  0  0  0  0  0  0  0  0
   -4.2374   -0.4858    0.1584 O   0  0  0  0  0  0  0  0  0  0  0  0
   -3.2014    1.5376   -0.2474 O   0  0  0  0  0  0  0  0  0  0  0  0
    1.8465    0.5793   -0.1638 C   0  0  0  0  0  0  0  0  0  0  0  0
    0.6328   -0.3373    0.0306 C   0  0  0  0  0  0  0  0  0  0  0  0
    3.2204   -0.1057   -0.0545 C   0  0  0  0  0  0  0  0  0  0  0  0
   -0.6737    0.4557   -0.0519 C   0  0  0  0  0  0  0  0  0  0  0  0
    4.3934    0.8621   -0.2840 C   0  0  0  0  0  0  0  0  0  0  0  0
   -1.8862   -0.4560    0.0943 C   0  0  0  0  0  0  0  0  0  0  0  0
    5.7864    0.2446   -0.1524 C   0  0  0  0  0  0  0  0  0  0  0  0
   -3.1637    0.3337   -0.0291 C   0  0  0  0  0  0  0  0  0  0  0  0
   -5.5174    0.1505    0.0878 C   0  0  0  0  0  0  0  0  0  0  0  0
   -6.5967   -0.8864    0.3152 C   0  0  0  0  0  0  0  0  0  0  0  0
  1  7  1  0
  2 11  1  0
  3 12  1  0
  3 13  1  0
  4 12  2  0
  5  6  1  0
  5  7  1  0
  6  8  1  0
  7  9  1  0
  8 10  1  0
  9 11  1  0
 10 12  1  0
 13 14  1  0
M  END
>  <PUBCHEM_COMPOUND_CID>  (1) 
14053

>  <PUBCHEM_CONFORMER_RMSD>  (1) 
1

>  <PUBCHEM_CONFORMER_DIVERSEORDER>  (1) 
1
198
10
64
12
201
13
219
45
214
43
116
163
131
42
135
144
143
114
148
2
216
142
137
218
88
229
157
207
200
127
71
85
193
65
161
227
59
168
40
129
195
153
226
180
35
118
234
70
23
115
225
63
191
30
233
50
17
29
150
87
141
60
102
111
28
149
164
146
172
224
72
16
228
7
155
159
186
21
97
122
130
175
49
58
171
196
22
120
117
6
152
37
151
108
106
203
44
86
79
103
11
133
62
169
95
46
138
188
76
55
178
199
109
24
18
156
94
189
187
237
9
125
69
51
20
119
83
145
84
101
126
154
212
124
147
98
41
74
80
204
230
36
232
181
57
25
223
47
140
183
184
211
113
179
100
221
177
3
210
38
167
121
128
19
217
132
93
5
134
162
14
160
192
34
110
15
56
215
170
26
73
33
99
197
136
82
174
68
190
222
96
27
231
104
52
90
158
139
123
32
89
8
166
105
61
206
112
107
236
53
176
48
4
67
54
173
75
66
213
77
235
220
208
92
165
78
39
209
182
202
205
81
194
91
185
31

>  <PUBCHEM_MMFF94_PARTIAL_CHARGES>  (1) 
9
1 -0.29
10 0.06
11 0.29
12 0.66
13 0.28
2 -0.29
3 -0.43
4 -0.57
7 0.29

>  <PUBCHEM_EFFECTIVE_ROTOR_COUNT>  (1) 
9

>  <PUBCHEM_PHARMACOPHORE_FEATURES>  (1) 
2
1 4 acceptor
4 5 6 8 10 hydrophobe

>  <PUBCHEM_HEAVY_ATOM_COUNT>  (1) 
14

>  <PUBCHEM_ATOM_DEF_STEREO_COUNT>  (1) 
0

>  <PUBCHEM_ATOM_UDEF_STEREO_COUNT>  (1) 
1

>  <PUBCHEM_BOND_DEF_STEREO_COUNT>  (1) 
0

>  <PUBCHEM_BOND_UDEF_STEREO_COUNT>  (1) 
0

>  <PUBCHEM_ISOTOPIC_ATOM_COUNT>  (1) 
0

>  <PUBCHEM_COMPONENT_COUNT>  (1) 
1

>  <PUBCHEM_CACTVS_TAUTO_COUNT>  (1) 
1

>  <PUBCHEM_CONFORMER_ID>  (1) 
000036E500000001

>  <PUBCHEM_MMFF94_ENERGY>  (1) 
8.4446

>  <PUBCHEM_FEATURE_SELFOVERLAP>  (1) 
10.148

>  <PUBCHEM_SHAPE_FINGERPRINT>  (1) 
10354089 29 17132398323964703168
11287383 113 18410578404683354728
12091667 2 17775286067497989697
12236239 1 17167860863530952841
12916748 109 18409172095030844669
13073987 5 17775010029058475499
13533116 47 16773523174904417622
13955234 65 16486975043269864294
14123238 8 18413673512746296045
1420 363 18408610270580491883
14251718 22 18409450293153223805
14251764 18 17967812756660572096
14251764 46 18411981368630220282
15048467 5 12823295710461785018
17834072 33 18343021120359620724
17834072 8 11241970373749115994
17834076 25 12967131609641228853
20279233 1 18335431161924080538
20621476 38 18187360983663914754
20621476 66 12895077327434627411
20645477 70 17987807302349679150
20735858 18 18201714055718232386
21130983 4 14692571043898424834
22224240 67 16917066677126435175
23402539 116 18333446569358502351
29717793 49 14562530665583835614
300161 21 16845287228769016719
3545911 37 18060140942456654638
42630746 31 18272091578651040774
42788 4 18333733528681493053
4340502 62 17847058883439622158
4463277 17 13254800139788682443
5104073 3 17987522506830212922
542803 24 13686297976140027680
59682541 35 18130502041524070810
59755656 215 12468628409517245392
8209 1 18113056047629080116

>  <PUBCHEM_SHAPE_MULTIPOLES>  (1) 
280.11
17.27
1.13
0.92
8.32
0.12
0.17
1.72
3.81
-0.11
-0.25
-1.35
0.19
0.4

>  <PUBCHEM_SHAPE_SELFOVERLAP>  (1) 
498.987

>  <PUBCHEM_SHAPE_VOLUME>  (1) 
182.6

>  <PUBCHEM_COORDINATE_TYPE>  (1) 
2
5
10

$$$$
