14067
     RDKit          3D

 10  9  0  0  0  0  0  0  0  0999 V2000
   -2.0069   -0.0037   -0.0058 C   0  0  0  0  0  0  0  0  0  0  0  0
    2.0145   -0.0083   -0.0177 C   0  0  0  0  0  0  0  0  0  0  0  0
   -0.5461    0.4504    0.2737 C   0  0  0  0  0  0  0  0  0  0  0  0
    0.5538   -0.4874   -0.2528 C   0  0  0  0  0  0  0  0  0  0  0  0
   -2.2919   -0.0711   -1.5154 C   0  0  0  0  0  0  0  0  0  0  0  0
   -2.2967   -1.3751    0.6267 C   0  0  0  0  0  0  0  0  0  0  0  0
   -2.9584    1.0336    0.6237 C   0  0  0  0  0  0  0  0  0  0  0  0
    3.0292   -0.9849   -0.6353 C   0  0  0  0  0  0  0  0  0  0  0  0
    2.2593    0.0504    1.5036 C   0  0  0  0  0  0  0  0  0  0  0  0
    2.2432    1.3960   -0.6007 C   0  0  0  0  0  0  0  0  0  0  0  0
  1  3  1  0
  1  5  1  0
  1  6  1  0
  1  7  1  0
  2  4  1  0
  2  8  1  0
  2  9  1  0
  2 10  1  0
  3  4  1  0
M  END
>  <PUBCHEM_COMPOUND_CID>  (1) 
14067

>  <PUBCHEM_CONFORMER_RMSD>  (1) 
0.6

>  <PUBCHEM_CONFORMER_DIVERSEORDER>  (1) 
1
2

>  <PUBCHEM_MMFF94_PARTIAL_CHARGES>  (1) 
0

>  <PUBCHEM_EFFECTIVE_ROTOR_COUNT>  (1) 
3

>  <PUBCHEM_PHARMACOPHORE_FEATURES>  (1) 
3
4 1 2 3 4 hydrophobe
4 1 5 6 7 hydrophobe
4 2 8 9 10 hydrophobe

>  <PUBCHEM_HEAVY_ATOM_COUNT>  (1) 
10

>  <PUBCHEM_ATOM_DEF_STEREO_COUNT>  (1) 
0

>  <PUBCHEM_ATOM_UDEF_STEREO_COUNT>  (1) 
0

>  <PUBCHEM_BOND_DEF_STEREO_COUNT>  (1) 
0

>  <PUBCHEM_BOND_UDEF_STEREO_COUNT>  (1) 
0

>  <PUBCHEM_ISOTOPIC_ATOM_COUNT>  (1) 
0

>  <PUBCHEM_COMPONENT_COUNT>  (1) 
1

>  <PUBCHEM_CACTVS_TAUTO_COUNT>  (1) 
1

>  <PUBCHEM_CONFORMER_ID>  (1) 
000036F300000001

>  <PUBCHEM_MMFF94_ENERGY>  (1) 
26.0926

>  <PUBCHEM_FEATURE_SELFOVERLAP>  (1) 
15.29

>  <PUBCHEM_SHAPE_FINGERPRINT>  (1) 
10857977 72 18270678783059447267
12897270 3 18040433304187200982
12932741 1 18113615707263032422
12932764 1 17240482511260221449
14325111 11 18411426128169469038
14390081 3 17489582355448919025
15310529 11 18202010970368947645
15775835 57 17240204326244348891
16945 1 18113890516366032008
170605 34 17969789772861635988
19973954 147 18408891762431331036
23235687 12 18113616802426906261
23552423 10 18410858750131399198
3248919 1 18411411834486652931
369184 2 17313097570958167857
5084963 1 18273216378560536430
74978 22 18187361017210665225
8030462 33 18060418031807538845

>  <PUBCHEM_SHAPE_MULTIPOLES>  (1) 
205.8
5.34
1.25
1.24
0.07
0.02
-0.01
-0.04
-0.05
-0.02
0.01
-0.02
-0.01
0

>  <PUBCHEM_SHAPE_SELFOVERLAP>  (1) 
375.363

>  <PUBCHEM_SHAPE_VOLUME>  (1) 
135.7

>  <PUBCHEM_COORDINATE_TYPE>  (1) 
2
5
10

$$$$
