14062
     RDKit          3D

  9  8  0  0  0  0  0  0  0  0999 V2000
   -2.0000   -0.0151   -0.0004 C   0  0  0  0  0  0  0  0  0  0  0  0
   -0.5918   -0.6667   -0.0418 C   0  0  0  0  0  0  0  0  0  0  0  0
    0.5942    0.3056   -0.0093 C   0  0  0  0  0  0  0  0  0  0  0  0
    1.9255   -0.4518    0.0110 C   0  0  0  0  0  0  0  0  0  0  0  0
   -3.0499   -1.1435    0.0204 C   0  0  0  0  0  0  0  0  0  0  0  0
   -2.2467    0.8571   -1.2424 C   0  0  0  0  0  0  0  0  0  0  0  0
   -2.1806    0.8412    1.2639 C   0  0  0  0  0  0  0  0  0  0  0  0
    3.1129    0.5106    0.0061 C   0  0  0  0  0  0  0  0  0  0  0  0
    4.4364   -0.2375   -0.0075 C   0  0  0  0  0  0  0  0  0  0  0  0
  1  2  1  0
  1  5  1  0
  1  6  1  0
  1  7  1  0
  2  3  1  0
  3  4  1  0
  4  8  1  0
  8  9  1  0
M  END
>  <PUBCHEM_COMPOUND_CID>  (1) 
14062

>  <PUBCHEM_CONFORMER_RMSD>  (1) 
0.6

>  <PUBCHEM_CONFORMER_DIVERSEORDER>  (1) 
1
10
11
3
5
9
4
8
7
6
2

>  <PUBCHEM_MMFF94_PARTIAL_CHARGES>  (1) 
0

>  <PUBCHEM_EFFECTIVE_ROTOR_COUNT>  (1) 
4

>  <PUBCHEM_PHARMACOPHORE_FEATURES>  (1) 
3
1 9 hydrophobe
4 1 5 6 7 hydrophobe
5 1 2 3 4 8 hydrophobe

>  <PUBCHEM_HEAVY_ATOM_COUNT>  (1) 
9

>  <PUBCHEM_ATOM_DEF_STEREO_COUNT>  (1) 
0

>  <PUBCHEM_ATOM_UDEF_STEREO_COUNT>  (1) 
0

>  <PUBCHEM_BOND_DEF_STEREO_COUNT>  (1) 
0

>  <PUBCHEM_BOND_UDEF_STEREO_COUNT>  (1) 
0

>  <PUBCHEM_ISOTOPIC_ATOM_COUNT>  (1) 
0

>  <PUBCHEM_COMPONENT_COUNT>  (1) 
1

>  <PUBCHEM_CACTVS_TAUTO_COUNT>  (1) 
1

>  <PUBCHEM_CONFORMER_ID>  (1) 
000036EE00000001

>  <PUBCHEM_MMFF94_ENERGY>  (1) 
9.7378

>  <PUBCHEM_FEATURE_SELFOVERLAP>  (1) 
15.224

>  <PUBCHEM_SHAPE_FINGERPRINT>  (1) 
11062470 55 9079122154615654610
12932764 1 18113616781268548504
13024252 1 15574713595440392951
14325111 11 18335137592292941158
190213 19 18272368672618203726
1986462 14 18410296899995450534
20279233 1 12468631721000138976
20645464 45 18409455756103860431
2306618 200 18336542724966572433
23380061 127 17917712400511350587
23402539 116 17560793338602919253
3248919 1 18131348583783310918
5084963 1 18334857263903596033

>  <PUBCHEM_SHAPE_MULTIPOLES>  (1) 
185.22
6.94
1.04
0.97
7.39
0.06
-0.01
0.43
0.02
-0.66
0
-0.77
-0.3
0.02

>  <PUBCHEM_SHAPE_SELFOVERLAP>  (1) 
328.818

>  <PUBCHEM_SHAPE_VOLUME>  (1) 
124.1

>  <PUBCHEM_COORDINATE_TYPE>  (1) 
2
5
10

$$$$
