14066
     RDKit          3D

  7  6  0  0  0  0  0  0  0  0999 V2000
   -3.3230    0.3231    0.0143 O   0  0  0  0  0  0  0  0  0  0  0  0
    1.6605    1.3236    0.0002 O   0  0  0  0  0  0  0  0  0  0  0  0
   -0.9151    0.2334   -0.0144 C   0  0  0  0  0  0  0  0  0  0  0  0
    0.3059   -0.6793   -0.0271 C   0  0  0  0  0  0  0  0  0  0  0  0
   -2.2123   -0.5636    0.0074 C   0  0  0  0  0  0  0  0  0  0  0  0
    1.6122    0.0946   -0.0018 C   0  0  0  0  0  0  0  0  0  0  0  0
    2.8719   -0.7318    0.0214 C   0  0  0  0  0  0  0  0  0  0  0  0
  1  5  1  0
  2  6  2  0
  3  4  1  0
  3  5  1  0
  4  6  1  0
  6  7  1  0
M  END
>  <PUBCHEM_COMPOUND_CID>  (1) 
14066

>  <PUBCHEM_CONFORMER_RMSD>  (1) 
0.4

>  <PUBCHEM_CONFORMER_DIVERSEORDER>  (1) 
1
20
12
30
19
36
18
14
38
31
13
6
37
32
5
17
24
23
35
33
34
15
10
28
21
29
11
25
2
7
27
22
4
9
3
8
16
26

>  <PUBCHEM_MMFF94_PARTIAL_CHARGES>  (1) 
7
1 -0.68
17 0.4
2 -0.57
4 0.06
5 0.28
6 0.45
7 0.06

>  <PUBCHEM_EFFECTIVE_ROTOR_COUNT>  (1) 
3

>  <PUBCHEM_PHARMACOPHORE_FEATURES>  (1) 
3
1 1 acceptor
1 1 donor
1 2 acceptor

>  <PUBCHEM_HEAVY_ATOM_COUNT>  (1) 
7

>  <PUBCHEM_ATOM_DEF_STEREO_COUNT>  (1) 
0

>  <PUBCHEM_ATOM_UDEF_STEREO_COUNT>  (1) 
0

>  <PUBCHEM_BOND_DEF_STEREO_COUNT>  (1) 
0

>  <PUBCHEM_BOND_UDEF_STEREO_COUNT>  (1) 
0

>  <PUBCHEM_ISOTOPIC_ATOM_COUNT>  (1) 
0

>  <PUBCHEM_COMPONENT_COUNT>  (1) 
1

>  <PUBCHEM_CACTVS_TAUTO_COUNT>  (1) 
3

>  <PUBCHEM_CONFORMER_ID>  (1) 
000036F200000001

>  <PUBCHEM_MMFF94_ENERGY>  (1) 
3.4307

>  <PUBCHEM_FEATURE_SELFOVERLAP>  (1) 
15.223

>  <PUBCHEM_SHAPE_FINGERPRINT>  (1) 
11062470 55 14045737114752709147
12932764 1 17168133555500048747
14325111 11 18410855498999249223
14390081 3 18411697716511454377
20096714 4 18339642359987801388
21040471 1 18194682789973678030
29004967 10 18412827962941024850
3248919 1 16988572315889265311
5460574 1 9223231844864320263

>  <PUBCHEM_SHAPE_MULTIPOLES>  (1) 
132.32
4.71
1
0.59
1.86
0.16
0
-0.26
-0.05
-0.41
0
-0.03
-0.02
0

>  <PUBCHEM_SHAPE_SELFOVERLAP>  (1) 
235.036

>  <PUBCHEM_SHAPE_VOLUME>  (1) 
86.4

>  <PUBCHEM_COORDINATE_TYPE>  (1) 
2
5
10

$$$$
