14071
     RDKit          3D

 17 16  0  0  0  0  0  0  0  0999 V2000
   -6.3958    0.4903    0.0461 O   0  0  0  0  0  0  0  0  0  0  0  0
   -7.8128   -1.3343    0.0446 O   0  0  0  0  0  0  0  0  0  0  0  0
    2.3404   -0.3612   -0.0804 C   0  0  0  0  0  0  0  0  0  0  0  0
    1.0467    0.4579   -0.0934 C   0  0  0  0  0  0  0  0  0  0  0  0
    3.6062    0.5001   -0.0657 C   0  0  0  0  0  0  0  0  0  0  0  0
   -0.2188   -0.4025   -0.0831 C   0  0  0  0  0  0  0  0  0  0  0  0
    4.8653   -0.3703   -0.0411 C   0  0  0  0  0  0  0  0  0  0  0  0
   -1.4788    0.4661   -0.0652 C   0  0  0  0  0  0  0  0  0  0  0  0
    6.1644    0.4396    0.0047 C   0  0  0  0  0  0  0  0  0  0  0  0
   -2.7457   -0.3905   -0.0887 C   0  0  0  0  0  0  0  0  0  0  0  0
    7.4585   -0.3795    0.0522 C   0  0  0  0  0  0  0  0  0  0  0  0
   -4.0027    0.4752   -0.0373 C   0  0  0  0  0  0  0  0  0  0  0  0
    8.7563    0.4315    0.0417 C   0  0  0  0  0  0  0  0  0  0  0  0
   -5.2675   -0.3713   -0.0169 C   0  0  0  0  0  0  0  0  0  0  0  0
   10.0067   -0.4239    0.1731 C   0  0  0  0  0  0  0  0  0  0  0  0
   -7.6162   -0.1269    0.0713 C   0  0  0  0  0  0  0  0  0  0  0  0
   -8.7061    0.8996    0.1381 C   0  0  0  0  0  0  0  0  0  0  0  0
  1 14  1  0
  1 16  1  0
  2 16  2  0
  3  4  1  0
  3  5  1  0
  4  6  1  0
  5  7  1  0
  6  8  1  0
  7  9  1  0
  8 10  1  0
  9 11  1  0
 10 12  1  0
 11 13  1  0
 12 14  1  0
 13 15  1  0
 16 17  1  0
M  END
>  <PUBCHEM_COMPOUND_CID>  (1) 
14071

>  <PUBCHEM_CONFORMER_RMSD>  (1) 
1.2

>  <PUBCHEM_CONFORMER_DIVERSEORDER>  (1) 
1
68
27
67
35
91
119
71
64
63
122
3
23
130
120
109
41
39
126
38
32
52
112
12
29
115
59
95
51
6
60
97
17
45
98
30
61
93
46
76
42
4
69
19
48
57
111
21
25
7
40
107
9
88
101
2
58
94
89
55
75
49
13
85
106
100
56
116
43
22
125
74
72
105
121
86
79
78
102
103
10
70
8
36
128
16
114
81
133
44
73
82
124
110
108
77
18
28
84
50
117
123
37
127
26
132
62
87
15
47
118
54
14
129
96
24
31
53
20
90
80
66
83
113
104
33
5
92
11
65
34
99
131

>  <PUBCHEM_MMFF94_PARTIAL_CHARGES>  (1) 
5
1 -0.43
14 0.28
16 0.66
17 0.06
2 -0.57

>  <PUBCHEM_EFFECTIVE_ROTOR_COUNT>  (1) 
13

>  <PUBCHEM_PHARMACOPHORE_FEATURES>  (1) 
2
1 15 hydrophobe
1 2 acceptor

>  <PUBCHEM_HEAVY_ATOM_COUNT>  (1) 
17

>  <PUBCHEM_ATOM_DEF_STEREO_COUNT>  (1) 
0

>  <PUBCHEM_ATOM_UDEF_STEREO_COUNT>  (1) 
0

>  <PUBCHEM_BOND_DEF_STEREO_COUNT>  (1) 
0

>  <PUBCHEM_BOND_UDEF_STEREO_COUNT>  (1) 
0

>  <PUBCHEM_ISOTOPIC_ATOM_COUNT>  (1) 
0

>  <PUBCHEM_COMPONENT_COUNT>  (1) 
1

>  <PUBCHEM_CACTVS_TAUTO_COUNT>  (1) 
1

>  <PUBCHEM_CONFORMER_ID>  (1) 
000036F700000001

>  <PUBCHEM_MMFF94_ENERGY>  (1) 
1.4197

>  <PUBCHEM_FEATURE_SELFOVERLAP>  (1) 
10.148

>  <PUBCHEM_SHAPE_FINGERPRINT>  (1) 
11315181 36 18060142042627542217
14123256 10 18410575080368111616
14251764 18 17530961375948297273
14251764 46 18410575084663078915
16120349 18 17676772067691196340
22224240 67 17967531289783387226
232437 2 18333449837971253546
23521765 1 18341895194645927404
23581129 1 18409449184756242788
33684 2 18410573985151451136
59567204 34 18271808961793908417
67123 10 18410575097547980804
8209 1 18410856559645077324

>  <PUBCHEM_SHAPE_MULTIPOLES>  (1) 
338.11
35.48
0.88
0.61
13.07
0.05
0
0.7
-2.31
-0.77
-0.01
0.08
-0.01
-0.08

>  <PUBCHEM_SHAPE_SELFOVERLAP>  (1) 
612.391

>  <PUBCHEM_SHAPE_VOLUME>  (1) 
216.6

>  <PUBCHEM_COORDINATE_TYPE>  (1) 
2
5
10

$$$$
