14073
     RDKit          3D

  4  4  0  0  0  0  0  0  0  0999 V2000
    0.2177    0.0006   -0.5357 N   0  0  0  0  0  0  0  0  0  0  0  0
   -0.8306    0.7501    0.1446 C   0  0  0  0  0  0  0  0  0  0  0  0
   -0.8298   -0.7506    0.1441 C   0  0  0  0  0  0  0  0  0  0  0  0
    1.4428    0.0000    0.2470 C   0  0  0  0  0  0  0  0  0  0  0  0
  1  2  1  0
  1  3  1  0
  1  4  1  0
  2  3  1  0
M  END
>  <PUBCHEM_COMPOUND_CID>  (1) 
14073

>  <PUBCHEM_CONFORMER_RMSD>  (1) 
0.4

>  <PUBCHEM_CONFORMER_DIVERSEORDER>  (1) 
1

>  <PUBCHEM_MMFF94_PARTIAL_CHARGES>  (1) 
8
1 -0.59
2 -0.04
3 -0.04
4 0.27
5 0.1
6 0.1
7 0.1
8 0.1

>  <PUBCHEM_EFFECTIVE_ROTOR_COUNT>  (1) 
0.6

>  <PUBCHEM_PHARMACOPHORE_FEATURES>  (1) 
1
1 1 cation

>  <PUBCHEM_HEAVY_ATOM_COUNT>  (1) 
4

>  <PUBCHEM_ATOM_DEF_STEREO_COUNT>  (1) 
0

>  <PUBCHEM_ATOM_UDEF_STEREO_COUNT>  (1) 
0

>  <PUBCHEM_BOND_DEF_STEREO_COUNT>  (1) 
0

>  <PUBCHEM_BOND_UDEF_STEREO_COUNT>  (1) 
0

>  <PUBCHEM_ISOTOPIC_ATOM_COUNT>  (1) 
0

>  <PUBCHEM_COMPONENT_COUNT>  (1) 
1

>  <PUBCHEM_CACTVS_TAUTO_COUNT>  (1) 
1

>  <PUBCHEM_CONFORMER_ID>  (1) 
000036F900000001

>  <PUBCHEM_MMFF94_ENERGY>  (1) 
9.8018

>  <PUBCHEM_FEATURE_SELFOVERLAP>  (1) 
5.074

>  <PUBCHEM_SHAPE_FINGERPRINT>  (1) 
139733 1 10303276623570866251
20096714 4 18200593575374386512
21015797 1 9436084054701872445
5943 1 11572295724263350863

>  <PUBCHEM_SHAPE_MULTIPOLES>  (1) 
77.34
1.53
0.9
0.68
0.53
0
0
0
-0.16
-0.25
-0.05
0.02
0
0

>  <PUBCHEM_SHAPE_SELFOVERLAP>  (1) 
137.122

>  <PUBCHEM_SHAPE_VOLUME>  (1) 
53

>  <PUBCHEM_COORDINATE_TYPE>  (1) 
2
5
10

$$$$
