14074
     RDKit          3D

  6  6  0  0  0  0  0  0  0  0999 V2000
   -2.7181   -0.0805   -0.3277 O   0  0  0  0  0  0  0  0  0  0  0  0
    0.8601   -0.0109    0.5136 N   0  0  0  0  0  0  0  0  0  0  0  0
    2.0392   -0.6322   -0.0894 C   0  0  0  0  0  0  0  0  0  0  0  0
    1.7247    0.8156   -0.3287 C   0  0  0  0  0  0  0  0  0  0  0  0
   -0.3425   -0.3857   -0.1804 C   0  0  0  0  0  0  0  0  0  0  0  0
   -1.5634    0.2937    0.4125 C   0  0  0  0  0  0  0  0  0  0  0  0
  1  6  1  0
  2  3  1  0
  2  4  1  0
  2  5  1  0
  3  4  1  0
  5  6  1  0
M  END
>  <PUBCHEM_COMPOUND_CID>  (1) 
14074

>  <PUBCHEM_CONFORMER_RMSD>  (1) 
0.4

>  <PUBCHEM_CONFORMER_DIVERSEORDER>  (1) 
1
3
5
6
2
4

>  <PUBCHEM_MMFF94_PARTIAL_CHARGES>  (1) 
11
1 -0.68
10 0.1
15 0.4
2 -0.59
3 -0.04
4 -0.04
5 0.27
6 0.28
7 0.1
8 0.1
9 0.1

>  <PUBCHEM_EFFECTIVE_ROTOR_COUNT>  (1) 
2.6

>  <PUBCHEM_PHARMACOPHORE_FEATURES>  (1) 
3
1 1 acceptor
1 1 donor
1 2 cation

>  <PUBCHEM_HEAVY_ATOM_COUNT>  (1) 
6

>  <PUBCHEM_ATOM_DEF_STEREO_COUNT>  (1) 
0

>  <PUBCHEM_ATOM_UDEF_STEREO_COUNT>  (1) 
0

>  <PUBCHEM_BOND_DEF_STEREO_COUNT>  (1) 
0

>  <PUBCHEM_BOND_UDEF_STEREO_COUNT>  (1) 
0

>  <PUBCHEM_ISOTOPIC_ATOM_COUNT>  (1) 
0

>  <PUBCHEM_COMPONENT_COUNT>  (1) 
1

>  <PUBCHEM_CACTVS_TAUTO_COUNT>  (1) 
1

>  <PUBCHEM_CONFORMER_ID>  (1) 
000036FA00000001

>  <PUBCHEM_MMFF94_ENERGY>  (1) 
8.7572

>  <PUBCHEM_FEATURE_SELFOVERLAP>  (1) 
15.223

>  <PUBCHEM_SHAPE_FINGERPRINT>  (1) 
14390081 3 17313100865108582269
20096714 4 18261960746751829452
21040471 1 18341332296474856202
24536 1 18408601482818811634
29004967 10 18113624464938641362
5460574 1 11818992980604625475

>  <PUBCHEM_SHAPE_MULTIPOLES>  (1) 
112.63
3.42
0.82
0.69
1.51
0.05
-0.01
0
0.34
-0.34
0.04
0.02
0.02
-0.11

>  <PUBCHEM_SHAPE_SELFOVERLAP>  (1) 
204.903

>  <PUBCHEM_SHAPE_VOLUME>  (1) 
74.1

>  <PUBCHEM_COORDINATE_TYPE>  (1) 
2
5
10

$$$$
