14076
     RDKit          3D

  7  7  0  0  0  0  0  0  0  0999 V2000
    1.4498    0.0591   -0.5151 N   0  0  0  0  0  0  0  0  0  0  0  0
   -3.4569    0.2927   -0.1165 N   0  0  0  0  0  0  0  0  0  0  0  0
    2.6800   -0.5390   -0.0178 C   0  0  0  0  0  0  0  0  0  0  0  0
    2.2706    0.8446    0.3948 C   0  0  0  0  0  0  0  0  0  0  0  0
    0.2928   -0.4902    0.1830 C   0  0  0  0  0  0  0  0  0  0  0  0
   -0.9905    0.1759   -0.3165 C   0  0  0  0  0  0  0  0  0  0  0  0
   -2.2459   -0.3431    0.3880 C   0  0  0  0  0  0  0  0  0  0  0  0
  1  3  1  0
  1  4  1  0
  1  5  1  0
  2  7  1  0
  3  4  1  0
  5  6  1  0
  6  7  1  0
M  END
>  <PUBCHEM_COMPOUND_CID>  (1) 
14076

>  <PUBCHEM_CONFORMER_RMSD>  (1) 
0.6

>  <PUBCHEM_CONFORMER_DIVERSEORDER>  (1) 
1
12
11
4
6
5
8
10
7
3
9
2

>  <PUBCHEM_MMFF94_PARTIAL_CHARGES>  (1) 
12
1 -0.59
10 0.1
11 0.1
18 0.36
19 0.36
2 -0.99
3 -0.04
4 -0.04
5 0.27
7 0.27
8 0.1
9 0.1

>  <PUBCHEM_EFFECTIVE_ROTOR_COUNT>  (1) 
3.6

>  <PUBCHEM_PHARMACOPHORE_FEATURES>  (1) 
3
1 1 cation
1 2 cation
1 2 donor

>  <PUBCHEM_HEAVY_ATOM_COUNT>  (1) 
7

>  <PUBCHEM_ATOM_DEF_STEREO_COUNT>  (1) 
0

>  <PUBCHEM_ATOM_UDEF_STEREO_COUNT>  (1) 
0

>  <PUBCHEM_BOND_DEF_STEREO_COUNT>  (1) 
0

>  <PUBCHEM_BOND_UDEF_STEREO_COUNT>  (1) 
0

>  <PUBCHEM_ISOTOPIC_ATOM_COUNT>  (1) 
0

>  <PUBCHEM_COMPONENT_COUNT>  (1) 
1

>  <PUBCHEM_CACTVS_TAUTO_COUNT>  (1) 
1

>  <PUBCHEM_CONFORMER_ID>  (1) 
000036FC00000001

>  <PUBCHEM_MMFF94_ENERGY>  (1) 
4.4026

>  <PUBCHEM_FEATURE_SELFOVERLAP>  (1) 
15.223

>  <PUBCHEM_SHAPE_FINGERPRINT>  (1) 
11062470 55 18410292514865431125
12932764 1 14201395023220686431
14325111 11 18410856581315229051
14390081 3 18412543206556546049
29004967 10 18412267241933030002
3248919 1 16773803601444546071
5460574 1 9223234039566130831

>  <PUBCHEM_SHAPE_MULTIPOLES>  (1) 
134.09
5.05
0.82
0.69
2.49
0.04
-0.02
0.33
-0.16
-0.31
-0.05
-0.04
0.01
0.17

>  <PUBCHEM_SHAPE_SELFOVERLAP>  (1) 
242.926

>  <PUBCHEM_SHAPE_VOLUME>  (1) 
86.8

>  <PUBCHEM_COORDINATE_TYPE>  (1) 
2
5
10

$$$$
