14070
     RDKit          3D

 10  9  0  0  0  0  0  0  0  0999 V2000
   -0.6054    0.2023    0.5113 C   0  0  0  0  0  0  0  0  0  0  0  0
    0.7729   -0.1606   -0.0502 C   0  0  0  0  0  0  0  0  0  0  0  0
   -1.7201   -0.5366   -0.2354 C   0  0  0  0  0  0  0  0  0  0  0  0
    1.8852    0.6027    0.6753 C   0  0  0  0  0  0  0  0  0  0  0  0
   -3.1344   -0.1552    0.2397 C   0  0  0  0  0  0  0  0  0  0  0  0
    3.3002    0.2235    0.2005 C   0  0  0  0  0  0  0  0  0  0  0  0
   -3.3410    1.3546    0.0943 C   0  0  0  0  0  0  0  0  0  0  0  0
   -4.2294   -0.9011   -0.5243 C   0  0  0  0  0  0  0  0  0  0  0  0
    3.5858   -1.2714    0.3490 C   0  0  0  0  0  0  0  0  0  0  0  0
    3.4862    0.6418   -1.2603 C   0  0  0  0  0  0  0  0  0  0  0  0
  1  2  1  0
  1  3  1  0
  2  4  1  0
  3  5  1  0
  4  6  1  0
  5  7  1  0
  5  8  1  0
  6  9  1  0
  6 10  1  0
M  END
>  <PUBCHEM_COMPOUND_CID>  (1) 
14070

>  <PUBCHEM_CONFORMER_RMSD>  (1) 
0.6

>  <PUBCHEM_CONFORMER_DIVERSEORDER>  (1) 
1
5
2
3
4

>  <PUBCHEM_MMFF94_PARTIAL_CHARGES>  (1) 
0

>  <PUBCHEM_EFFECTIVE_ROTOR_COUNT>  (1) 
5

>  <PUBCHEM_PHARMACOPHORE_FEATURES>  (1) 
4
3 1 3 5 hydrophobe
3 2 4 6 hydrophobe
3 5 7 8 hydrophobe
3 6 9 10 hydrophobe

>  <PUBCHEM_HEAVY_ATOM_COUNT>  (1) 
10

>  <PUBCHEM_ATOM_DEF_STEREO_COUNT>  (1) 
0

>  <PUBCHEM_ATOM_UDEF_STEREO_COUNT>  (1) 
0

>  <PUBCHEM_BOND_DEF_STEREO_COUNT>  (1) 
0

>  <PUBCHEM_BOND_UDEF_STEREO_COUNT>  (1) 
0

>  <PUBCHEM_ISOTOPIC_ATOM_COUNT>  (1) 
0

>  <PUBCHEM_COMPONENT_COUNT>  (1) 
1

>  <PUBCHEM_CACTVS_TAUTO_COUNT>  (1) 
1

>  <PUBCHEM_CONFORMER_ID>  (1) 
000036F600000001

>  <PUBCHEM_MMFF94_ENERGY>  (1) 
7.1197

>  <PUBCHEM_FEATURE_SELFOVERLAP>  (1) 
21.51

>  <PUBCHEM_SHAPE_FINGERPRINT>  (1) 
10751810 167 18342182158627908585
11062470 55 9439406843355256715
11987891 27 18342451547535084359
11987891 38 18413388739398641523
12932764 1 18130784585562366411
14123238 8 17418089953136731216
14144814 61 18272932712981706515
14251717 144 18335697209162408506
14252887 29 16272212990028925766
14325111 11 18412261735558135707
177051 138 17775567541699422262
18186145 218 17775569744827643944
190213 19 17676205783851031585
19026448 5 18333733506974444009
19422 9 18333450932470339875
1986462 14 18273496762858270509
20279233 1 16630525133259323086
20645477 70 18040996215887363138
20711983 171 18336268955071351277
20828058 21 18273218607527204973
20828058 44 8430598306183924125
22169311 21 15051727586315647276
22485316 2 18272645753421481418
3248919 1 17894347799938093314
522135 26 18259703393645618314

>  <PUBCHEM_SHAPE_MULTIPOLES>  (1) 
205.8
8.84
1.16
0.9
1.75
0
0.17
-0.81
1.28
0.21
0
-0.53
0.09
-0.61

>  <PUBCHEM_SHAPE_SELFOVERLAP>  (1) 
365.124

>  <PUBCHEM_SHAPE_VOLUME>  (1) 
136.8

>  <PUBCHEM_COORDINATE_TYPE>  (1) 
2
5
10

$$$$
