14085
     RDKit          3D

  9  9  0  0  0  0  0  0  0  0999 V2000
   -3.4820   -0.2637    0.1088 Cl  0  0  0  0  0  0  0  0  0  0  0  0
    0.9982    0.2135   -0.1053 C   0  0  0  0  0  0  0  0  0  0  0  0
    0.1807    1.3397   -0.0125 C   0  0  0  0  0  0  0  0  0  0  0  0
    0.4304   -1.0603   -0.1323 C   0  0  0  0  0  0  0  0  0  0  0  0
   -1.2048    1.1921    0.0534 C   0  0  0  0  0  0  0  0  0  0  0  0
   -0.9550   -1.2081   -0.0665 C   0  0  0  0  0  0  0  0  0  0  0  0
   -1.7727   -0.0817    0.0263 C   0  0  0  0  0  0  0  0  0  0  0  0
    2.4431    0.3668   -0.1738 C   0  0  0  0  0  0  0  0  0  0  0  0
    3.3621   -0.4983    0.3020 C   0  0  0  0  0  0  0  0  0  0  0  0
  1  7  1  0
  2  3  2  0
  2  4  1  0
  2  8  1  0
  3  5  1  0
  4  6  2  0
  5  7  2  0
  6  7  1  0
  8  9  2  0
M  END
>  <PUBCHEM_COMPOUND_CID>  (1) 
14085

>  <PUBCHEM_CONFORMER_RMSD>  (1) 
0.4

>  <PUBCHEM_CONFORMER_DIVERSEORDER>  (1) 
1

>  <PUBCHEM_MMFF94_PARTIAL_CHARGES>  (1) 
16
1 -0.18
10 0.15
11 0.15
12 0.15
13 0.15
14 0.15
15 0.15
16 0.15
2 0.03
3 -0.15
4 -0.15
5 -0.15
6 -0.15
7 0.18
8 -0.18
9 -0.3

>  <PUBCHEM_EFFECTIVE_ROTOR_COUNT>  (1) 
1

>  <PUBCHEM_PHARMACOPHORE_FEATURES>  (1) 
2
1 9 hydrophobe
6 2 3 4 5 6 7 rings

>  <PUBCHEM_HEAVY_ATOM_COUNT>  (1) 
9

>  <PUBCHEM_ATOM_DEF_STEREO_COUNT>  (1) 
0

>  <PUBCHEM_ATOM_UDEF_STEREO_COUNT>  (1) 
0

>  <PUBCHEM_BOND_DEF_STEREO_COUNT>  (1) 
0

>  <PUBCHEM_BOND_UDEF_STEREO_COUNT>  (1) 
0

>  <PUBCHEM_ISOTOPIC_ATOM_COUNT>  (1) 
0

>  <PUBCHEM_COMPONENT_COUNT>  (1) 
1

>  <PUBCHEM_CACTVS_TAUTO_COUNT>  (1) 
1

>  <PUBCHEM_CONFORMER_ID>  (1) 
0000370500000001

>  <PUBCHEM_MMFF94_ENERGY>  (1) 
22.0508

>  <PUBCHEM_FEATURE_SELFOVERLAP>  (1) 
10.148

>  <PUBCHEM_SHAPE_FINGERPRINT>  (1) 
10219947 1 18411985775482976267
10857977 72 18412818105605900368
11062470 55 13686301279107138803
12032990 46 18410301306378863799
14325111 11 18410293592617450756
15310529 11 16588295086116730718
16945 1 18413394241103561015
193761 8 17690281508524475327
21040471 1 18267590117363209716
23235685 24 18411978061668932669
23402539 116 18201707445040676125
23402655 69 18196354946135391789
23552423 10 18044940322830111196
2748010 2 18123756344155504663
29004967 10 18334866025589426745
369184 2 15554445184860973646
5084963 1 18410012130467600336

>  <PUBCHEM_SHAPE_MULTIPOLES>  (1) 
187.09
4.71
1.31
0.64
0.31
0.12
0
-0.71
0.41
-0.14
-0.02
0.02
-0.01
-0.08

>  <PUBCHEM_SHAPE_SELFOVERLAP>  (1) 
376.9

>  <PUBCHEM_SHAPE_VOLUME>  (1) 
106

>  <PUBCHEM_COORDINATE_TYPE>  (1) 
2
5
10

$$$$
