14086
     RDKit          3D

  9  9  0  0  0  0  0  0  0  0999 V2000
    2.6660    0.4560   -0.5012 S   0  0  0  0  0  0  0  0  0  0  0  0
   -3.1742   -0.2651    0.2545 O   0  0  0  0  0  0  0  0  0  0  0  0
    0.9119    0.2388   -0.2742 C   0  0  0  0  0  0  0  0  0  0  0  0
    0.1041    1.3400    0.0102 C   0  0  0  0  0  0  0  0  0  0  0  0
    0.3464   -1.0319   -0.3809 C   0  0  0  0  0  0  0  0  0  0  0  0
   -1.8343   -0.1000    0.0813 C   0  0  0  0  0  0  0  0  0  0  0  0
   -1.2689    1.1706    0.1880 C   0  0  0  0  0  0  0  0  0  0  0  0
   -1.0268   -1.2013   -0.2031 C   0  0  0  0  0  0  0  0  0  0  0  0
    3.2759   -0.6071    0.8254 C   0  0  0  0  0  0  0  0  0  0  0  0
  1  3  1  0
  1  9  1  0
  2  6  1  0
  3  4  2  0
  3  5  1  0
  4  7  1  0
  5  8  2  0
  6  7  2  0
  6  8  1  0
M  END
>  <PUBCHEM_COMPOUND_CID>  (1) 
14086

>  <PUBCHEM_CONFORMER_RMSD>  (1) 
0.4

>  <PUBCHEM_CONFORMER_DIVERSEORDER>  (1) 
1
3
2

>  <PUBCHEM_MMFF94_PARTIAL_CHARGES>  (1) 
14
1 -0.33
10 0.15
11 0.15
12 0.15
13 0.15
17 0.45
2 -0.53
3 0.1
4 -0.15
5 -0.15
6 0.08
7 -0.15
8 -0.15
9 0.23

>  <PUBCHEM_EFFECTIVE_ROTOR_COUNT>  (1) 
1

>  <PUBCHEM_PHARMACOPHORE_FEATURES>  (1) 
3
1 2 donor
1 9 hydrophobe
6 3 4 5 6 7 8 rings

>  <PUBCHEM_HEAVY_ATOM_COUNT>  (1) 
9

>  <PUBCHEM_ATOM_DEF_STEREO_COUNT>  (1) 
0

>  <PUBCHEM_ATOM_UDEF_STEREO_COUNT>  (1) 
0

>  <PUBCHEM_BOND_DEF_STEREO_COUNT>  (1) 
0

>  <PUBCHEM_BOND_UDEF_STEREO_COUNT>  (1) 
0

>  <PUBCHEM_ISOTOPIC_ATOM_COUNT>  (1) 
0

>  <PUBCHEM_COMPONENT_COUNT>  (1) 
1

>  <PUBCHEM_CACTVS_TAUTO_COUNT>  (1) 
2

>  <PUBCHEM_CONFORMER_ID>  (1) 
0000370600000001

>  <PUBCHEM_MMFF94_ENERGY>  (1) 
21.0953

>  <PUBCHEM_FEATURE_SELFOVERLAP>  (1) 
15.223

>  <PUBCHEM_SHAPE_FINGERPRINT>  (1) 
10857977 72 18272647961050482920
14325111 11 18411140220960790164
15310529 11 17313385655652248388
16945 1 18272092698993510933
20645464 45 17489861644593120498
21040471 1 18269846323739487700
23235685 24 18343304768616111325
23402655 69 18197766714791652733
23552423 10 17974009753922552164
2748010 2 18053112726434377325
29004967 10 18336277802840819129
369184 2 18333728026823014636
5084963 1 18040152903131766300

>  <PUBCHEM_SHAPE_MULTIPOLES>  (1) 
183.2
4.34
1.34
0.77
1.36
0.1
0.02
-0.53
0.8
-0.16
-0.02
0.36
-0.04
-0.3

>  <PUBCHEM_SHAPE_SELFOVERLAP>  (1) 
360.825

>  <PUBCHEM_SHAPE_VOLUME>  (1) 
111.5

>  <PUBCHEM_COORDINATE_TYPE>  (1) 
2
5
10

$$$$
