14082
     RDKit          3D

  8  8  0  0  0  0  0  0  0  0999 V2000
    2.9171   -0.9229   -0.0004 Br  0  0  0  0  0  0  0  0  0  0  0  0
   -2.2909   -1.2754   -0.0007 F   0  0  0  0  0  0  0  0  0  0  0  0
    0.0630   -1.0185    0.0006 C   0  0  0  0  0  0  0  0  0  0  0  0
    1.1786   -0.1811    0.0003 C   0  0  0  0  0  0  0  0  0  0  0  0
   -1.2200   -0.4710    0.0005 C   0  0  0  0  0  0  0  0  0  0  0  0
    1.0111    1.2037   -0.0002 C   0  0  0  0  0  0  0  0  0  0  0  0
   -1.3872    0.9139    0.0001 C   0  0  0  0  0  0  0  0  0  0  0  0
   -0.2718    1.7512   -0.0002 C   0  0  0  0  0  0  0  0  0  0  0  0
  1  4  1  0
  2  5  1  0
  3  4  2  0
  3  5  1  0
  4  6  1  0
  5  7  2  0
  6  8  2  0
  7  8  1  0
M  END
>  <PUBCHEM_COMPOUND_CID>  (1) 
14082

>  <PUBCHEM_CONFORMER_RMSD>  (1) 
0.4

>  <PUBCHEM_CONFORMER_DIVERSEORDER>  (1) 
1

>  <PUBCHEM_MMFF94_PARTIAL_CHARGES>  (1) 
12
1 -0.11
10 0.15
11 0.15
12 0.15
2 -0.19
3 -0.15
4 0.11
5 0.19
6 -0.15
7 -0.15
8 -0.15
9 0.15

>  <PUBCHEM_EFFECTIVE_ROTOR_COUNT>  (1) 
0

>  <PUBCHEM_PHARMACOPHORE_FEATURES>  (1) 
2
1 1 hydrophobe
6 3 4 5 6 7 8 rings

>  <PUBCHEM_HEAVY_ATOM_COUNT>  (1) 
8

>  <PUBCHEM_ATOM_DEF_STEREO_COUNT>  (1) 
0

>  <PUBCHEM_ATOM_UDEF_STEREO_COUNT>  (1) 
0

>  <PUBCHEM_BOND_DEF_STEREO_COUNT>  (1) 
0

>  <PUBCHEM_BOND_UDEF_STEREO_COUNT>  (1) 
0

>  <PUBCHEM_ISOTOPIC_ATOM_COUNT>  (1) 
0

>  <PUBCHEM_COMPONENT_COUNT>  (1) 
1

>  <PUBCHEM_CACTVS_TAUTO_COUNT>  (1) 
1

>  <PUBCHEM_CONFORMER_ID>  (1) 
0000370200000001

>  <PUBCHEM_MMFF94_ENERGY>  (1) 
14.2279

>  <PUBCHEM_FEATURE_SELFOVERLAP>  (1) 
10.148

>  <PUBCHEM_SHAPE_FINGERPRINT>  (1) 
10857977 72 18341036463628203634
14128692 85 18409455803648973252
16714656 1 18194404398783518404
18185500 45 18335138644259202890
20871998 184 18201435831404153902
21040471 1 17834395618547929984
23552423 10 18260271837015159566
241688 4 18409166605999571016
2748010 2 18410568517700515340
29004967 10 18119530079140508185
369184 2 18265892458857253130

>  <PUBCHEM_SHAPE_MULTIPOLES>  (1) 
163.3
3.17
1.69
0.62
2.13
0.28
0
-1.1
0
-0.61
0
0.08
0.01
0

>  <PUBCHEM_SHAPE_SELFOVERLAP>  (1) 
324.528

>  <PUBCHEM_SHAPE_VOLUME>  (1) 
99.7

>  <PUBCHEM_COORDINATE_TYPE>  (1) 
2
5
10

$$$$
