1408
     RDKit          3D

 31 32  0  0  1  0  0  0  0  0999 V2000
    2.4233   -3.1298    0.4511 O   0  0  0  0  0  0  0  0  0  0  0  0
   -0.0906    0.2638    1.9492 O   0  0  0  0  0  0  0  0  0  0  0  0
   -5.6317   -0.8917   -0.4607 O   0  0  0  0  0  0  0  0  0  0  0  0
   -2.9715    2.0072   -1.5950 O   0  0  0  0  0  0  0  0  0  0  0  0
    0.1584   -0.3119   -0.2888 N   0  0  0  0  0  0  0  0  0  0  0  0
    4.3850   -1.0572    0.1843 N   0  0  0  0  0  0  0  0  0  0  0  0
   -2.1589    1.8382    0.5773 N   0  0  0  0  0  0  0  0  0  0  0  0
    0.6132   -1.6993   -0.1442 C   0  0  0  0  0  0  0  0  0  0  0  0
    2.0226   -1.7608    0.4404 C   0  0  0  0  0  0  0  0  0  0  0  0
   -0.3622   -2.5970    0.6536 C   0  0  0  0  0  0  0  0  0  0  0  0
   -0.7343    1.8700    0.2639 C   0  0  0  0  0  0  0  0  0  0  0  0
    3.0412   -0.9554   -0.3681 C   0  0  0  0  0  0  0  0  0  0  0  0
   -0.0597    3.0372    0.9701 C   0  0  0  0  0  0  0  0  0  0  0  0
   -0.1666    0.5425    0.7542 C   0  0  0  0  0  0  0  0  0  0  0  0
   -1.8181   -2.3402    0.3439 C   0  0  0  0  0  0  0  0  0  0  0  0
    5.3393   -0.3136   -0.6270 C   0  0  0  0  0  0  0  0  0  0  0  0
    6.7413   -0.4238   -0.0251 C   0  0  0  0  0  0  0  0  0  0  0  0
    7.8130    0.3336   -0.8322 C   0  0  0  0  0  0  0  0  0  0  0  0
    1.4506    3.0148    0.7328 C   0  0  0  0  0  0  0  0  0  0  0  0
   -0.6520    4.3680    0.5054 C   0  0  0  0  0  0  0  0  0  0  0  0
   -2.6947   -1.9828    1.3772 C   0  0  0  0  0  0  0  0  0  0  0  0
   -2.2964   -2.3751   -0.9723 C   0  0  0  0  0  0  0  0  0  0  0  0
   -3.1591    1.8999   -0.3862 C   0  0  0  0  0  0  0  0  0  0  0  0
   -4.5479    1.8713    0.2355 C   0  0  0  0  0  0  0  0  0  0  0  0
    9.2045    0.2189   -0.2079 C   0  0  0  0  0  0  0  0  0  0  0  0
    7.4232    1.8087   -0.9562 C   0  0  0  0  0  0  0  0  0  0  0  0
   -5.6818    1.5490   -0.7416 C   0  0  0  0  0  0  0  0  0  0  0  0
   -3.9892   -1.5586    1.0882 C   0  0  0  0  0  0  0  0  0  0  0  0
   -3.5882   -1.9381   -1.2641 C   0  0  0  0  0  0  0  0  0  0  0  0
   -4.4064   -1.4631   -0.2385 C   0  0  0  0  0  0  0  0  0  0  0  0
   -5.6065    0.1749   -1.4193 C   0  0  0  0  0  0  0  0  0  0  0  0
  1  9  1  0
  2 14  2  0
  3 30  1  0
  3 31  1  0
  4 23  2  0
  5  8  1  0
  5 14  1  0
  6 12  1  0
  6 16  1  0
  7 11  1  0
  7 23  1  0
  8  9  1  0
  8 10  1  0
  9 12  1  0
 10 15  1  0
 11 13  1  0
 11 14  1  0
 13 19  1  0
 13 20  1  0
 15 21  2  0
 15 22  1  0
 16 17  1  0
 17 18  1  0
 18 25  1  0
 18 26  1  0
 21 28  1  0
 22 29  2  0
 23 24  1  0
 24 27  1  0
 27 31  1  0
 28 30  2  0
 29 30  1  0
M  END
>  <PUBCHEM_COMPOUND_CID>  (1) 
1408

>  <PUBCHEM_CONFORMER_RMSD>  (1) 
1

>  <PUBCHEM_CONFORMER_DIVERSEORDER>  (1) 
1
313
309
328
25
245
417
414
357
377
177
192
52
139
104
360
200
279
381
239
142
385
60
379
123
189
152
316
49
421
382
372
281
298
317
203
236
206
71
331
163
308
96
5
369
27
235
138
113
254
67
47
371
312
237
271
188
273
388
349
198
103
181
252
260
133
171
350
358
161
140
220
321
275
373
212
256
261
208
345
184
249
233
272
411
143
337
24
314
29
31
365
64
170
149
118
204
100
114
335
131
428
290
195
127
132
356
363
46
274
413
286
213
227
136
50
396
299
32
378
54
255
403
178
150
238
293
129
157
185
248
262
330
179
410
405
427
111
190
267
301
172
92
242
285
82
74
216
108
167
276
332
384
97
294
320
120
137
164
148
134
99
70
307
387
40
151
234
15
169
175
44
12
94
408
340
230
266
400
72
75
412
241
93
166
348
265
219
306
376
409
199
322
45
17
303
319
393
425
155
284
280
165
11
326
344
85
215
386
324
226
156
209
288
244
77
359
42
398
397
431
394
383
401
390
51
253
56
351
41
334
210
8
347
232
221
13
352
251
418
76
34
115
364
380
130
424
53
180
112
202
109
10
18
22
23
287
160
257
20
323
333
392
197
318
374
55
391
117
66
264
158
246
295
404
304
176
325
362
367
121
296
28
338
407
21
311
7
354
263
243
228
125
336
106
205
341
229
193
282
420
62
429
247
147
14
2
69
128
63
415
224
39
343
327
183
250
240
173
119
222
159
231
57
423
278
30
370
83
35
406
289
122
116
19
258
36
353
89
73
78
426
146
268
84
81
145
218
196
269
223
297
305
355
292
174
87
217
124
107
211
135
110
214
201
80
91
168
361
162
102
389
9
182
61
38
310
416
187
95
399
419
375
291
277
430
88
101
366
259
302
86
141
65
37
422
33
154
368
126
90
58
225
300
3
4
79
270
48
105
98
194
329
342
207
191
283
315
43
144
346
59
16
395
339
186
153
402
26
6
68

>  <PUBCHEM_MMFF94_PARTIAL_CHARGES>  (1) 
31
1 -0.68
10 0.14
11 0.36
12 0.27
14 0.57
15 -0.14
16 0.27
2 -0.57
21 -0.15
22 -0.15
23 0.57
24 0.06
28 -0.15
29 -0.15
3 -0.36
30 0.08
31 0.28
39 0.37
4 -0.57
41 0.36
46 0.37
5 -0.73
54 0.4
55 0.15
56 0.15
6 -0.9
67 0.15
68 0.15
7 -0.73
8 0.3
9 0.28

>  <PUBCHEM_EFFECTIVE_ROTOR_COUNT>  (1) 
8.8

>  <PUBCHEM_PHARMACOPHORE_FEATURES>  (1) 
12
1 1 acceptor
1 1 donor
1 2 acceptor
1 3 acceptor
1 4 acceptor
1 5 donor
1 6 cation
1 6 donor
1 7 donor
3 13 19 20 hydrophobe
3 18 25 26 hydrophobe
6 15 21 22 28 29 30 rings

>  <PUBCHEM_HEAVY_ATOM_COUNT>  (1) 
31

>  <PUBCHEM_ATOM_DEF_STEREO_COUNT>  (1) 
0

>  <PUBCHEM_ATOM_UDEF_STEREO_COUNT>  (1) 
3

>  <PUBCHEM_BOND_DEF_STEREO_COUNT>  (1) 
0

>  <PUBCHEM_BOND_UDEF_STEREO_COUNT>  (1) 
0

>  <PUBCHEM_ISOTOPIC_ATOM_COUNT>  (1) 
0

>  <PUBCHEM_COMPONENT_COUNT>  (1) 
1

>  <PUBCHEM_CACTVS_TAUTO_COUNT>  (1) 
4

>  <PUBCHEM_CONFORMER_ID>  (1) 
0000058000000001

>  <PUBCHEM_MMFF94_ENERGY>  (1) 
70.2384

>  <PUBCHEM_FEATURE_SELFOVERLAP>  (1) 
60.899

>  <PUBCHEM_SHAPE_FINGERPRINT>  (1) 
10076449 9 18130788988521380519
10454371 7 18342746208847396948
10669705 176 18410580557664925830
12539745 222 16588600806479708163
12788726 201 18337386046137433202
13726171 33 18118120278097071417
14394314 77 18339366249689974993
14765038 42 18129112117393509985
14931854 50 18338505336637934823
15575132 122 18412267250929633726
15968369 153 17917415571813274680
16087824 20 18341333285067044329
17492 54 18193823870246288549
18336668 15 18187369847695451684
20721686 56 18265895954770923131
21236236 1 18409732863647450726
23559900 14 18340197583200508257
255183 451 17840299257371621511
335352 9 18341606011231757365
5171179 24 18057313092702049144
57527295 17 18187350052861617123
57527452 28 15410888579226499837
59567204 34 18410575089206141588
6036956 94 18120374250926987461
7226269 152 18408605859480455738

>  <PUBCHEM_SHAPE_MULTIPOLES>  (1) 
599.55
17.81
4.21
1.25
44.92
2.68
0.02
1.64
-7.18
-2.58
0.84
-0.91
0.01
-0.03

>  <PUBCHEM_SHAPE_SELFOVERLAP>  (1) 
1208.666

>  <PUBCHEM_SHAPE_VOLUME>  (1) 
348.8

>  <PUBCHEM_COORDINATE_TYPE>  (1) 
2
5
10

$$$$
