14098
     RDKit          3D

 11 11  0  0  0  0  0  0  0  0999 V2000
   -2.9925    1.3422   -0.0138 O   0  0  0  0  0  0  0  0  0  0  0  0
   -3.3295   -0.9035   -0.1104 O   0  0  0  0  0  0  0  0  0  0  0  0
    1.6803   -0.2176    0.1078 C   0  0  0  0  0  0  0  0  0  0  0  0
   -1.1019   -0.0388    0.0075 C   0  0  0  0  0  0  0  0  0  0  0  0
    0.9092   -1.3776    0.0360 C   0  0  0  0  0  0  0  0  0  0  0  0
    1.0605    1.0319    0.1296 C   0  0  0  0  0  0  0  0  0  0  0  0
   -0.4820   -1.2882   -0.0143 C   0  0  0  0  0  0  0  0  0  0  0  0
   -0.3306    1.1212    0.0794 C   0  0  0  0  0  0  0  0  0  0  0  0
    3.1312   -0.3108    0.1594 C   0  0  0  0  0  0  0  0  0  0  0  0
   -2.5522    0.0545   -0.0452 C   0  0  0  0  0  0  0  0  0  0  0  0
    4.0077    0.5867   -0.3361 C   0  0  0  0  0  0  0  0  0  0  0  0
  1 10  1  0
  2 10  2  0
  3  5  2  0
  3  6  1  0
  3  9  1  0
  4  7  2  0
  4  8  1  0
  4 10  1  0
  5  7  1  0
  6  8  2  0
  9 11  2  0
M  END
>  <PUBCHEM_COMPOUND_CID>  (1) 
14098

>  <PUBCHEM_CONFORMER_RMSD>  (1) 
0.4

>  <PUBCHEM_CONFORMER_DIVERSEORDER>  (1) 
1
2

>  <PUBCHEM_MMFF94_PARTIAL_CHARGES>  (1) 
19
1 -0.65
10 0.63
11 -0.3
12 0.15
13 0.15
14 0.15
15 0.15
16 0.15
17 0.15
18 0.15
19 0.5
2 -0.57
3 0.03
4 0.09
5 -0.15
6 -0.15
7 -0.15
8 -0.15
9 -0.18

>  <PUBCHEM_EFFECTIVE_ROTOR_COUNT>  (1) 
2

>  <PUBCHEM_PHARMACOPHORE_FEATURES>  (1) 
5
1 1 acceptor
1 11 hydrophobe
1 2 acceptor
3 1 2 10 anion
6 3 4 5 6 7 8 rings

>  <PUBCHEM_HEAVY_ATOM_COUNT>  (1) 
11

>  <PUBCHEM_ATOM_DEF_STEREO_COUNT>  (1) 
0

>  <PUBCHEM_ATOM_UDEF_STEREO_COUNT>  (1) 
0

>  <PUBCHEM_BOND_DEF_STEREO_COUNT>  (1) 
0

>  <PUBCHEM_BOND_UDEF_STEREO_COUNT>  (1) 
0

>  <PUBCHEM_ISOTOPIC_ATOM_COUNT>  (1) 
0

>  <PUBCHEM_COMPONENT_COUNT>  (1) 
1

>  <PUBCHEM_CACTVS_TAUTO_COUNT>  (1) 
1

>  <PUBCHEM_CONFORMER_ID>  (1) 
0000371200000001

>  <PUBCHEM_MMFF94_ENERGY>  (1) 
32.453

>  <PUBCHEM_FEATURE_SELFOVERLAP>  (1) 
25.429

>  <PUBCHEM_SHAPE_FINGERPRINT>  (1) 
10219947 1 17894349973360337006
11062470 55 17530684307671355092
12032990 46 18412552019602733430
12932764 1 17060044943697105975
14325111 11 18410292497500841680
14993402 34 18334576871279736740
15775835 57 18408887308571110193
16945 1 18341884212446304034
19026448 4 15985382296094363194
193761 8 17618222149228621466
20645476 183 17895773901422882894
21040471 1 18411134770446740515
21293036 1 18411983589444797526
23235685 24 18410569587358134632
23402539 116 18271799112799856436
23402655 69 18196919003995105613
23463225 33 18335134233707786490
23552423 10 18119249467457907850
23559900 14 18272653459658316844
2748010 2 17979068611042687410
5084963 1 18272651289750286211
528886 8 18411412895354137723
53812653 166 18342734100659297776

>  <PUBCHEM_SHAPE_MULTIPOLES>  (1) 
214.64
5.65
1.39
0.62
1.21
0.06
0
-0.74
0.45
-0.32
-0.01
0.1
0
-0.1

>  <PUBCHEM_SHAPE_SELFOVERLAP>  (1) 
449.676

>  <PUBCHEM_SHAPE_VOLUME>  (1) 
121.7

>  <PUBCHEM_COORDINATE_TYPE>  (1) 
2
5
10

$$$$
