14097
     RDKit          3D

 11 12  0  0  1  0  0  0  0  0999 V2000
    2.0748    0.2332   -1.4516 O   0  0  0  0  0  0  0  0  0  0  0  0
    1.0984   -0.4028    0.6956 C   0  0  0  0  0  0  0  0  0  0  0  0
    0.4292   -1.7608    0.2984 C   0  0  0  0  0  0  0  0  0  0  0  0
   -0.2342    0.2257    0.4157 C   0  0  0  0  0  0  0  0  0  0  0  0
   -0.8218   -0.9664    0.0673 C   0  0  0  0  0  0  0  0  0  0  0  0
    2.1960    0.1601   -0.2233 C   0  0  0  0  0  0  0  0  0  0  0  0
   -0.9272    1.4133    0.4021 C   0  0  0  0  0  0  0  0  0  0  0  0
   -2.1396   -1.0465   -0.3168 C   0  0  0  0  0  0  0  0  0  0  0  0
   -2.2693    1.3654    0.0162 C   0  0  0  0  0  0  0  0  0  0  0  0
   -2.8716    0.1433   -0.3409 C   0  0  0  0  0  0  0  0  0  0  0  0
    3.4653    0.6356    0.4374 C   0  0  0  0  0  0  0  0  0  0  0  0
  1  6  2  0
  2  3  1  0
  2  4  1  0
  2  6  1  0
  3  5  1  0
  4  5  2  0
  4  7  1  0
  5  8  1  0
  6 11  1  0
  7  9  2  0
  8 10  2  0
  9 10  1  0
M  END
>  <PUBCHEM_COMPOUND_CID>  (1) 
14097

>  <PUBCHEM_CONFORMER_RMSD>  (1) 
0.4

>  <PUBCHEM_CONFORMER_DIVERSEORDER>  (1) 
2
4
7
8
5
1
3
6

>  <PUBCHEM_MMFF94_PARTIAL_CHARGES>  (1) 
15
1 -0.57
10 -0.15
11 0.06
15 0.15
16 0.15
17 0.15
18 0.15
2 0.16
3 0.11
4 -0.11
5 -0.11
6 0.46
7 -0.15
8 -0.15
9 -0.15

>  <PUBCHEM_EFFECTIVE_ROTOR_COUNT>  (1) 
1.4

>  <PUBCHEM_PHARMACOPHORE_FEATURES>  (1) 
3
1 1 acceptor
4 2 3 4 5 rings
6 4 5 7 8 9 10 rings

>  <PUBCHEM_HEAVY_ATOM_COUNT>  (1) 
11

>  <PUBCHEM_ATOM_DEF_STEREO_COUNT>  (1) 
0

>  <PUBCHEM_ATOM_UDEF_STEREO_COUNT>  (1) 
1

>  <PUBCHEM_BOND_DEF_STEREO_COUNT>  (1) 
0

>  <PUBCHEM_BOND_UDEF_STEREO_COUNT>  (1) 
0

>  <PUBCHEM_ISOTOPIC_ATOM_COUNT>  (1) 
0

>  <PUBCHEM_COMPONENT_COUNT>  (1) 
1

>  <PUBCHEM_CACTVS_TAUTO_COUNT>  (1) 
3

>  <PUBCHEM_CONFORMER_ID>  (1) 
0000371100000002

>  <PUBCHEM_MMFF94_ENERGY>  (1) 
26.3259

>  <PUBCHEM_FEATURE_SELFOVERLAP>  (1) 
15.472

>  <PUBCHEM_SHAPE_FINGERPRINT>  (1) 
11206711 2 18339631317895961061
12716758 59 18343309149577861142
12897270 3 18343019986482862725
13024252 1 11530754929531056619
14325111 11 18410290294251229736
14614273 12 18262509308628236357
15310529 11 14979963553229084232
15775835 57 18334013861117970040
16945 1 18409733984306737419
19837323 101 18201168654415496681
20201158 50 17704074014443452268
20653085 51 18189070762329560308
21028194 46 18186803564936708632
21040471 1 18268703922800311531
22802520 49 17986973876355706910
23402539 116 18271511091928963798
23552423 10 18192427459781726347
23559900 14 18272931610245898938
2748010 2 18266744588753115703
29004967 10 15697999643328642946
305870 269 18114456743654040890
369184 2 18341612633190203530
5084963 1 17458337572082064338
6333449 129 18272929453112117161
7364860 26 18126279744948455826

>  <PUBCHEM_SHAPE_MULTIPOLES>  (1) 
220.51
4.42
1.51
0.87
1.79
0.17
0.18
-1.17
0.46
-0.54
-0.15
0.36
-0.03
-0.13

>  <PUBCHEM_SHAPE_SELFOVERLAP>  (1) 
472.452

>  <PUBCHEM_SHAPE_VOLUME>  (1) 
124.3

>  <PUBCHEM_COORDINATE_TYPE>  (1) 
2
5
10

$$$$
