14091
     RDKit          3D

 10 10  0  0  0  0  0  0  0  0999 V2000
    1.5043    0.2166   -0.6629 C   0  0  0  0  0  0  0  0  0  0  0  0
    0.0506    0.2190   -0.3204 C   0  0  0  0  0  0  0  0  0  0  0  0
    2.3933    0.3201    0.5833 C   0  0  0  0  0  0  0  0  0  0  0  0
   -0.6297   -0.9726   -0.0697 C   0  0  0  0  0  0  0  0  0  0  0  0
   -0.6270    1.4363   -0.2530 C   0  0  0  0  0  0  0  0  0  0  0  0
    3.8716    0.2831    0.2297 C   0  0  0  0  0  0  0  0  0  0  0  0
   -1.9876   -0.9470    0.2483 C   0  0  0  0  0  0  0  0  0  0  0  0
    0.0745   -2.2880   -0.1363 C   0  0  0  0  0  0  0  0  0  0  0  0
   -1.9849    1.4621    0.0652 C   0  0  0  0  0  0  0  0  0  0  0  0
   -2.6651    0.2705    0.3157 C   0  0  0  0  0  0  0  0  0  0  0  0
  1  2  1  0
  1  3  1  0
  2  4  2  0
  2  5  1  0
  3  6  1  0
  4  7  1  0
  4  8  1  0
  5  9  2  0
  7 10  2  0
  9 10  1  0
M  END
>  <PUBCHEM_COMPOUND_CID>  (1) 
14091

>  <PUBCHEM_CONFORMER_RMSD>  (1) 
0.4

>  <PUBCHEM_CONFORMER_DIVERSEORDER>  (1) 
1
4
3
2
6
7
5

>  <PUBCHEM_MMFF94_PARTIAL_CHARGES>  (1) 
12
1 0.14
10 -0.15
15 0.15
19 0.15
2 -0.14
23 0.15
24 0.15
4 -0.14
5 -0.15
7 -0.15
8 0.14
9 -0.15

>  <PUBCHEM_EFFECTIVE_ROTOR_COUNT>  (1) 
2

>  <PUBCHEM_PHARMACOPHORE_FEATURES>  (1) 
2
1 6 hydrophobe
6 2 4 5 7 9 10 rings

>  <PUBCHEM_HEAVY_ATOM_COUNT>  (1) 
10

>  <PUBCHEM_ATOM_DEF_STEREO_COUNT>  (1) 
0

>  <PUBCHEM_ATOM_UDEF_STEREO_COUNT>  (1) 
0

>  <PUBCHEM_BOND_DEF_STEREO_COUNT>  (1) 
0

>  <PUBCHEM_BOND_UDEF_STEREO_COUNT>  (1) 
0

>  <PUBCHEM_ISOTOPIC_ATOM_COUNT>  (1) 
0

>  <PUBCHEM_COMPONENT_COUNT>  (1) 
1

>  <PUBCHEM_CACTVS_TAUTO_COUNT>  (1) 
1

>  <PUBCHEM_CONFORMER_ID>  (1) 
0000370B00000001

>  <PUBCHEM_MMFF94_ENERGY>  (1) 
19.8597

>  <PUBCHEM_FEATURE_SELFOVERLAP>  (1) 
10.148

>  <PUBCHEM_SHAPE_FINGERPRINT>  (1) 
10857977 72 18411417349335638841
13024252 1 14345786145781232957
13380535 76 18335980857634592227
14325111 11 18411418380365082088
15310529 11 14692581978742663823
15775835 57 18410575063436208128
16945 1 18336277781529525949
20645464 45 18131917065675630564
20653085 51 15051733114007194064
20871998 184 18199191869821511166
21040471 1 18337684013814609013
23235685 24 18410289181591137741
23402539 116 18200301230125541847
23552423 10 18116446855273550719
2748010 2 18047202847456651037
369184 2 18202279221125575088
43471831 8 18334009467398471346
5084963 1 18130794472556041169
54338 74 18121485006472370607
6333449 129 18342735238719999508
7364860 26 17983297019252009695
75552 356 18337390543047046464

>  <PUBCHEM_SHAPE_MULTIPOLES>  (1) 
205.8
4.49
1.78
0.74
4
0.76
0.01
-1.07
-0.86
-0.71
0.09
0.12
-0.03
0.07

>  <PUBCHEM_SHAPE_SELFOVERLAP>  (1) 
414.176

>  <PUBCHEM_SHAPE_VOLUME>  (1) 
118.1

>  <PUBCHEM_COORDINATE_TYPE>  (1) 
2
5
10

$$$$
