14105
     RDKit          3D

 12 13  0  0  0  0  0  0  0  0999 V2000
   -3.1045   -0.6767    0.3492 C   0  0  0  0  0  0  0  0  0  0  0  0
   -3.1043    0.6767   -0.3498 C   0  0  0  0  0  0  0  0  0  0  0  0
   -1.8801   -1.4912   -0.0638 C   0  0  0  0  0  0  0  0  0  0  0  0
   -1.8800    1.4912    0.0641 C   0  0  0  0  0  0  0  0  0  0  0  0
   -0.5948   -0.7035   -0.0096 C   0  0  0  0  0  0  0  0  0  0  0  0
   -0.5948    0.7037    0.0101 C   0  0  0  0  0  0  0  0  0  0  0  0
    0.6275   -1.3918   -0.0377 C   0  0  0  0  0  0  0  0  0  0  0  0
    0.6276    1.3920    0.0381 C   0  0  0  0  0  0  0  0  0  0  0  0
    1.8356   -0.6954   -0.0203 C   0  0  0  0  0  0  0  0  0  0  0  0
    1.8356    0.6956    0.0199 C   0  0  0  0  0  0  0  0  0  0  0  0
    3.1158   -1.4641   -0.0462 C   0  0  0  0  0  0  0  0  0  0  0  0
    3.1164    1.4636    0.0461 C   0  0  0  0  0  0  0  0  0  0  0  0
  1  2  1  0
  1  3  1  0
  2  4  1  0
  3  5  1  0
  4  6  1  0
  5  6  2  0
  5  7  1  0
  6  8  1  0
  7  9  2  0
  8 10  2  0
  9 10  1  0
  9 11  1  0
 10 12  1  0
M  END
>  <PUBCHEM_COMPOUND_CID>  (1) 
14105

>  <PUBCHEM_CONFORMER_RMSD>  (1) 
0.4

>  <PUBCHEM_CONFORMER_DIVERSEORDER>  (1) 
1

>  <PUBCHEM_MMFF94_PARTIAL_CHARGES>  (1) 
12
10 -0.14
11 0.14
12 0.14
21 0.15
22 0.15
3 0.14
4 0.14
5 -0.14
6 -0.14
7 -0.15
8 -0.15
9 -0.14

>  <PUBCHEM_EFFECTIVE_ROTOR_COUNT>  (1) 
0.8

>  <PUBCHEM_PHARMACOPHORE_FEATURES>  (1) 
2
6 1 2 3 4 5 6 rings
6 5 6 7 8 9 10 rings

>  <PUBCHEM_HEAVY_ATOM_COUNT>  (1) 
12

>  <PUBCHEM_ATOM_DEF_STEREO_COUNT>  (1) 
0

>  <PUBCHEM_ATOM_UDEF_STEREO_COUNT>  (1) 
0

>  <PUBCHEM_BOND_DEF_STEREO_COUNT>  (1) 
0

>  <PUBCHEM_BOND_UDEF_STEREO_COUNT>  (1) 
0

>  <PUBCHEM_ISOTOPIC_ATOM_COUNT>  (1) 
0

>  <PUBCHEM_COMPONENT_COUNT>  (1) 
1

>  <PUBCHEM_CACTVS_TAUTO_COUNT>  (1) 
1

>  <PUBCHEM_CONFORMER_ID>  (1) 
0000371900000001

>  <PUBCHEM_MMFF94_ENERGY>  (1) 
24.508

>  <PUBCHEM_FEATURE_SELFOVERLAP>  (1) 
10.17

>  <PUBCHEM_SHAPE_FINGERPRINT>  (1) 
10608611 8 18409726253144409309
10967382 1 18338799025731403786
11471102 20 18411133637087005909
12032990 46 18339368469765372270
12932764 1 17560515209031172465
13380535 21 18338527425026944424
13380535 76 18337950198839699066
14144814 61 18411702088418747281
14325111 11 18410292510269945869
14576447 43 17769640220912729463
15219456 202 18409729568811266761
15442244 35 18267304235908127090
15536298 74 18343019991389688194
15775835 57 18271250520452678449
16945 1 18412263934634112647
17844478 74 18114473331091810681
19973954 147 18410576179932616837
20201158 50 18340204077190936151
20645477 70 18412821361555374095
21501502 16 18411700988864888837
21501925 9 18337941334022010010
2334 1 18410293644083036390
23402655 69 18341880884696054141
23463225 33 18408884014631809562
23552423 10 18333169479010728598
23559900 14 18197497330047523238
25 1 17757538669625225253
2748010 2 18410293614028808494
3248919 1 17346885520092765503
369184 2 18412262843886505787
5084963 1 18272650108444427715
528886 8 18339637948840091241
53812653 166 18200590431637817032
63268167 104 18413111679521288673
7364860 26 18343582945638076802
8809292 202 18260838089582589187

>  <PUBCHEM_SHAPE_MULTIPOLES>  (1) 
246.95
5.12
1.91
0.64
0.01
0
0
0
0
-0.48
0
0.06
0
0.14

>  <PUBCHEM_SHAPE_SELFOVERLAP>  (1) 
520.356

>  <PUBCHEM_SHAPE_VOLUME>  (1) 
135

>  <PUBCHEM_COORDINATE_TYPE>  (1) 
2
5
10

$$$$
