14103
     RDKit          3D

 12 12  0  0  0  0  0  0  0  0999 V2000
    2.9417   -1.2028    0.5186 O   0  0  0  0  0  0  0  0  0  0  0  0
    2.9289    0.8367   -0.4847 O   0  0  0  0  0  0  0  0  0  0  0  0
   -1.3627    0.6578    0.0430 C   0  0  0  0  0  0  0  0  0  0  0  0
    0.0217    0.8293    0.0430 C   0  0  0  0  0  0  0  0  0  0  0  0
   -1.9066   -0.6243   -0.0357 C   0  0  0  0  0  0  0  0  0  0  0  0
    0.8620   -0.2814   -0.0357 C   0  0  0  0  0  0  0  0  0  0  0  0
   -1.0663   -1.7349   -0.1144 C   0  0  0  0  0  0  0  0  0  0  0  0
    0.3179   -1.5634   -0.1144 C   0  0  0  0  0  0  0  0  0  0  0  0
   -2.2669    1.8469    0.1272 C   0  0  0  0  0  0  0  0  0  0  0  0
    0.6044    2.2052    0.1289 C   0  0  0  0  0  0  0  0  0  0  0  0
   -3.3854   -0.8355   -0.0377 C   0  0  0  0  0  0  0  0  0  0  0  0
    2.3113   -0.1337   -0.0382 C   0  0  0  0  0  0  0  0  0  0  0  0
  1 12  1  0
  2 12  2  0
  3  4  2  0
  3  5  1  0
  3  9  1  0
  4  6  1  0
  4 10  1  0
  5  7  2  0
  5 11  1  0
  6  8  2  0
  6 12  1  0
  7  8  1  0
M  END
>  <PUBCHEM_COMPOUND_CID>  (1) 
14103

>  <PUBCHEM_CONFORMER_RMSD>  (1) 
0.4

>  <PUBCHEM_CONFORMER_DIVERSEORDER>  (1) 
2
1
3

>  <PUBCHEM_MMFF94_PARTIAL_CHARGES>  (1) 
15
1 -0.65
10 0.14
11 0.14
12 0.63
13 0.15
14 0.15
2 -0.57
24 0.5
3 -0.14
4 -0.14
5 -0.14
6 0.09
7 -0.15
8 -0.15
9 0.14

>  <PUBCHEM_EFFECTIVE_ROTOR_COUNT>  (1) 
1

>  <PUBCHEM_PHARMACOPHORE_FEATURES>  (1) 
4
1 1 acceptor
1 2 acceptor
3 1 2 12 anion
6 3 4 5 6 7 8 rings

>  <PUBCHEM_HEAVY_ATOM_COUNT>  (1) 
12

>  <PUBCHEM_ATOM_DEF_STEREO_COUNT>  (1) 
0

>  <PUBCHEM_ATOM_UDEF_STEREO_COUNT>  (1) 
0

>  <PUBCHEM_BOND_DEF_STEREO_COUNT>  (1) 
0

>  <PUBCHEM_BOND_UDEF_STEREO_COUNT>  (1) 
0

>  <PUBCHEM_ISOTOPIC_ATOM_COUNT>  (1) 
0

>  <PUBCHEM_COMPONENT_COUNT>  (1) 
1

>  <PUBCHEM_CACTVS_TAUTO_COUNT>  (1) 
1

>  <PUBCHEM_CONFORMER_ID>  (1) 
0000371700000002

>  <PUBCHEM_MMFF94_ENERGY>  (1) 
41.3511

>  <PUBCHEM_FEATURE_SELFOVERLAP>  (1) 
20.355

>  <PUBCHEM_SHAPE_FINGERPRINT>  (1) 
10967382 1 18267021850271807469
11206711 2 18410571790829514165
12032990 46 18411989039447553447
12423570 1 15755452746500310079
13380535 76 18195522585145323319
14325111 11 18410293579732470940
161256 15 18267862980941229745
16945 1 18339358690098244659
193761 8 17402612347233503695
20871998 184 18201434753240619103
21040471 1 18340206263191827844
21501502 16 18409731737880715913
22802520 49 17771925838886965814
2334 1 18411139104089743711
23402539 116 18271792519503084063
23402655 69 18197199383971349245
23463225 33 18336263431827713522
23552423 10 17975412739191097885
23559900 14 18200594680199125718
2748010 2 18197221347563526103
369184 2 18408039602322926346
5084963 1 18059576927124451587
528886 8 18267579113641127729
53812653 166 18271802368026552577
53812654 25 18271232911108013238

>  <PUBCHEM_SHAPE_MULTIPOLES>  (1) 
235.22
4.26
2.14
0.64
0.42
0.61
0
-0.54
0.01
-0.36
0.06
0.05
-0.01
-0.24

>  <PUBCHEM_SHAPE_SELFOVERLAP>  (1) 
494.222

>  <PUBCHEM_SHAPE_VOLUME>  (1) 
135.4

>  <PUBCHEM_COORDINATE_TYPE>  (1) 
2
5
10

$$$$
