14100
     RDKit          3D

 11 11  0  0  0  0  0  0  0  0999 V2000
    0.3732   -0.8347   -0.0121 N   0  0  0  0  0  0  0  0  0  0  0  0
    4.9142    0.7748    0.0108 N   0  0  0  0  0  0  0  0  0  0  0  0
    1.5129    0.0291   -0.0223 C   0  0  0  0  0  0  0  0  0  0  0  0
   -0.9526   -0.3535   -0.0047 C   0  0  0  0  0  0  0  0  0  0  0  0
    2.8007   -0.7902    0.0047 C   0  0  0  0  0  0  0  0  0  0  0  0
   -1.1959    1.0200   -0.0071 C   0  0  0  0  0  0  0  0  0  0  0  0
   -2.0204   -1.2508    0.0042 C   0  0  0  0  0  0  0  0  0  0  0  0
   -2.5069    1.4962   -0.0005 C   0  0  0  0  0  0  0  0  0  0  0  0
   -3.3315   -0.7747    0.0107 C   0  0  0  0  0  0  0  0  0  0  0  0
   -3.5747    0.5988    0.0083 C   0  0  0  0  0  0  0  0  0  0  0  0
    3.9810    0.0852    0.0080 C   0  0  0  0  0  0  0  0  0  0  0  0
  1  3  1  0
  1  4  1  0
  2 11  3  0
  3  5  1  0
  4  6  2  0
  4  7  1  0
  5 11  1  0
  6  8  1  0
  7  9  2  0
  8 10  2  0
  9 10  1  0
M  END
>  <PUBCHEM_COMPOUND_CID>  (1) 
14100

>  <PUBCHEM_CONFORMER_RMSD>  (1) 
0.6

>  <PUBCHEM_CONFORMER_DIVERSEORDER>  (1) 
1
5
6
2
9
3
7
8
4

>  <PUBCHEM_MMFF94_PARTIAL_CHARGES>  (1) 
17
1 -0.87
10 -0.15
11 0.36
14 0.4
17 0.15
18 0.15
19 0.15
2 -0.56
20 0.15
21 0.15
3 0.37
4 0.1
5 0.2
6 -0.15
7 -0.15
8 -0.15
9 -0.15

>  <PUBCHEM_EFFECTIVE_ROTOR_COUNT>  (1) 
3

>  <PUBCHEM_PHARMACOPHORE_FEATURES>  (1) 
4
1 1 cation
1 1 donor
1 2 acceptor
6 4 6 7 8 9 10 rings

>  <PUBCHEM_HEAVY_ATOM_COUNT>  (1) 
11

>  <PUBCHEM_ATOM_DEF_STEREO_COUNT>  (1) 
0

>  <PUBCHEM_ATOM_UDEF_STEREO_COUNT>  (1) 
0

>  <PUBCHEM_BOND_DEF_STEREO_COUNT>  (1) 
0

>  <PUBCHEM_BOND_UDEF_STEREO_COUNT>  (1) 
0

>  <PUBCHEM_ISOTOPIC_ATOM_COUNT>  (1) 
0

>  <PUBCHEM_COMPONENT_COUNT>  (1) 
1

>  <PUBCHEM_CACTVS_TAUTO_COUNT>  (1) 
1

>  <PUBCHEM_CONFORMER_ID>  (1) 
0000371400000001

>  <PUBCHEM_MMFF94_ENERGY>  (1) 
29.4737

>  <PUBCHEM_FEATURE_SELFOVERLAP>  (1) 
20.297

>  <PUBCHEM_SHAPE_FINGERPRINT>  (1) 
10014705 185 18259698982751375733
11062470 55 18334295370517495222
12346645 44 18334011662057771930
12932764 1 17203032033112038438
13024252 1 15791453717069669625
13897977 58 18409453604388574612
14144814 61 18334012757279551186
14325111 11 18410573946723735206
15669948 3 18341601633673983047
190213 19 17458348524327868354
20645477 56 18410296865588375637
20645477 70 17489032548480838174
23402539 116 18411692210553389271
23559900 14 18270679758544790742
77779 3 18411420592452626582

>  <PUBCHEM_SHAPE_MULTIPOLES>  (1) 
216.41
8.29
1.32
0.6
9.22
0.12
0
1.41
0.05
-0.8
0
-0.04
0
0.01

>  <PUBCHEM_SHAPE_SELFOVERLAP>  (1) 
436.39

>  <PUBCHEM_SHAPE_VOLUME>  (1) 
124.4

>  <PUBCHEM_COORDINATE_TYPE>  (1) 
2
5
10

$$$$
