14118
     RDKit          3D

 14 16  0  0  0  0  0  0  0  0999 V2000
    0.5200    1.7418   -0.0382 N   0  0  0  0  0  0  0  0  0  0  0  0
   -3.9831   -1.4793    0.0416 N   0  0  0  0  0  0  0  0  0  0  0  0
    0.9396   -0.4460    0.0080 C   0  0  0  0  0  0  0  0  0  0  0  0
    1.5149    0.8074   -0.0149 C   0  0  0  0  0  0  0  0  0  0  0  0
    1.7525   -1.6948    0.0521 C   0  0  0  0  0  0  0  0  0  0  0  0
    2.9701    1.1094   -0.0431 C   0  0  0  0  0  0  0  0  0  0  0  0
    3.2189   -1.4185   -0.3339 C   0  0  0  0  0  0  0  0  0  0  0  0
    3.7691   -0.1490    0.3436 C   0  0  0  0  0  0  0  0  0  0  0  0
   -0.4723   -0.2656    0.0064 C   0  0  0  0  0  0  0  0  0  0  0  0
   -0.7073    1.1135   -0.0241 C   0  0  0  0  0  0  0  0  0  0  0  0
   -1.5779   -1.1398    0.0299 C   0  0  0  0  0  0  0  0  0  0  0  0
   -1.9966    1.6581   -0.0352 C   0  0  0  0  0  0  0  0  0  0  0  0
   -2.8720   -0.6074    0.0201 C   0  0  0  0  0  0  0  0  0  0  0  0
   -3.0759    0.7704   -0.0122 C   0  0  0  0  0  0  0  0  0  0  0  0
  1  4  1  0
  1 10  1  0
  2 13  1  0
  3  4  2  0
  3  5  1  0
  3  9  1  0
  4  6  1  0
  5  7  1  0
  6  8  1  0
  7  8  1  0
  9 10  2  0
  9 11  1  0
 10 12  1  0
 11 13  2  0
 12 14  2  0
 13 14  1  0
M  END
>  <PUBCHEM_COMPOUND_CID>  (1) 
14118

>  <PUBCHEM_CONFORMER_RMSD>  (1) 
0.4

>  <PUBCHEM_CONFORMER_DIVERSEORDER>  (1) 
1

>  <PUBCHEM_MMFF94_PARTIAL_CHARGES>  (1) 
17
1 0.03
10 -0.15
11 -0.15
12 -0.15
13 0.1
14 -0.15
2 -0.9
23 0.27
24 0.15
25 0.15
26 0.15
27 0.4
28 0.4
3 -0.18
4 -0.33
5 0.18
6 0.18

>  <PUBCHEM_EFFECTIVE_ROTOR_COUNT>  (1) 
0.8

>  <PUBCHEM_PHARMACOPHORE_FEATURES>  (1) 
7
1 1 cation
1 1 donor
1 2 cation
1 2 donor
5 1 3 4 9 10 rings
6 3 4 5 6 7 8 rings
6 9 10 11 12 13 14 rings

>  <PUBCHEM_HEAVY_ATOM_COUNT>  (1) 
14

>  <PUBCHEM_ATOM_DEF_STEREO_COUNT>  (1) 
0

>  <PUBCHEM_ATOM_UDEF_STEREO_COUNT>  (1) 
0

>  <PUBCHEM_BOND_DEF_STEREO_COUNT>  (1) 
0

>  <PUBCHEM_BOND_UDEF_STEREO_COUNT>  (1) 
0

>  <PUBCHEM_ISOTOPIC_ATOM_COUNT>  (1) 
0

>  <PUBCHEM_COMPONENT_COUNT>  (1) 
1

>  <PUBCHEM_CACTVS_TAUTO_COUNT>  (1) 
1

>  <PUBCHEM_CONFORMER_ID>  (1) 
0000372600000001

>  <PUBCHEM_MMFF94_ENERGY>  (1) 
31.8383

>  <PUBCHEM_FEATURE_SELFOVERLAP>  (1) 
35.696

>  <PUBCHEM_SHAPE_FINGERPRINT>  (1) 
10608611 8 18410851036486394440
10967382 1 18266459995408439598
11132069 177 18410568457708019344
11471102 20 18410288125118665485
11543360 7 15357986710462830003
11769659 78 18409726244527789106
11806522 49 18337388352450377135
12032990 46 18411705374163797542
12932764 1 17531807931166474468
13296908 3 18412546479063175710
14144814 61 18411136922256939458
14325111 11 18410855451686180100
14576447 43 17912632798984434871
14790565 3 15739117341613277813
15196674 1 18410573980877595842
15219456 202 18341330015768042276
15442244 35 18194965128212500042
15536298 74 18343302548576896622
16945 1 18339081613115317045
18186145 218 17895192173344578238
19422 9 18411424998593102668
200 152 18059282236955325487
20201158 50 18408603656056685946
20510252 161 18272652328995501409
20645477 70 18413102849454000871
20871998 184 18202281377426056839
20871998 22 18342748377046394926
21267235 1 18410865360070412334
21501502 16 18410296886804619272
21501925 9 18410003351760084738
221490 88 18409175411094094610
2334 1 18410855447253809420
23402539 116 18337379513312691111
23463225 33 18408885118454228916
23552423 10 18260832583201913132
23559900 14 18196647385799455650
2748010 2 18411135792664716396
2871803 45 18334570257093800479
3312278 4 18340206297551735257
5104073 3 18411418397260005224
57096353 35 18337112370694393732
69090 78 18342170030051565519
7364860 26 18268711786943952832
8809292 202 18187651352816177923
9709674 26 18410298016465842902

>  <PUBCHEM_SHAPE_MULTIPOLES>  (1) 
278.15
6.28
1.88
0.62
0.13
0.02
0
-1.56
-0.12
0.17
0.04
-0.08
-0.01
0.11

>  <PUBCHEM_SHAPE_SELFOVERLAP>  (1) 
614.658

>  <PUBCHEM_SHAPE_VOLUME>  (1) 
150.7

>  <PUBCHEM_COORDINATE_TYPE>  (1) 
2
5
10

$$$$
