14114
     RDKit          3D

 13 13  0  0  0  0  0  0  0  0999 V2000
    2.8477   -0.4173    0.0377 O   0  0  0  0  0  0  0  0  0  0  0  0
    4.6977    0.9274   -0.2249 O   0  0  0  0  0  0  0  0  0  0  0  0
    4.8726   -1.1771    0.6847 N   0  0  0  0  0  0  0  0  0  0  0  0
   -1.8041    0.3039    0.0685 C   0  0  0  0  0  0  0  0  0  0  0  0
   -0.4142    0.7327    0.0773 C   0  0  0  0  0  0  0  0  0  0  0  0
   -2.1245   -1.0165   -0.2472 C   0  0  0  0  0  0  0  0  0  0  0  0
   -2.8165    1.2130    0.3756 C   0  0  0  0  0  0  0  0  0  0  0  0
    0.6113    0.1087   -0.5458 C   0  0  0  0  0  0  0  0  0  0  0  0
    2.0243    0.5970   -0.5208 C   0  0  0  0  0  0  0  0  0  0  0  0
   -3.4574   -1.4278   -0.2560 C   0  0  0  0  0  0  0  0  0  0  0  0
   -4.1494    0.8015    0.3669 C   0  0  0  0  0  0  0  0  0  0  0  0
   -4.4697   -0.5189    0.0512 C   0  0  0  0  0  0  0  0  0  0  0  0
    4.1823   -0.1265    0.1327 C   0  0  0  0  0  0  0  0  0  0  0  0
  1  9  1  0
  1 13  1  0
  2 13  2  0
  3 13  1  0
  4  5  1  0
  4  6  2  0
  4  7  1  0
  5  8  2  0
  6 10  1  0
  7 11  2  0
  8  9  1  0
 10 12  2  0
 11 12  1  0
M  END
>  <PUBCHEM_COMPOUND_CID>  (1) 
14114

>  <PUBCHEM_CONFORMER_RMSD>  (1) 
0.6

>  <PUBCHEM_CONFORMER_DIVERSEORDER>  (1) 
1
23
19
16
22
15
5
14
10
17
2
8
18
3
9
11
4
7
20
13
21
12
6

>  <PUBCHEM_MMFF94_PARTIAL_CHARGES>  (1) 
22
1 -0.43
10 -0.15
11 -0.15
12 -0.15
13 0.78
14 0.15
15 0.15
16 0.15
17 0.15
2 -0.57
20 0.15
21 0.15
22 0.15
23 0.37
24 0.37
3 -0.8
4 0.03
5 -0.18
6 -0.15
7 -0.15
8 -0.29
9 0.42

>  <PUBCHEM_EFFECTIVE_ROTOR_COUNT>  (1) 
4

>  <PUBCHEM_PHARMACOPHORE_FEATURES>  (1) 
3
1 2 acceptor
1 3 donor
6 4 6 7 10 11 12 rings

>  <PUBCHEM_HEAVY_ATOM_COUNT>  (1) 
13

>  <PUBCHEM_ATOM_DEF_STEREO_COUNT>  (1) 
0

>  <PUBCHEM_ATOM_UDEF_STEREO_COUNT>  (1) 
0

>  <PUBCHEM_BOND_DEF_STEREO_COUNT>  (1) 
0

>  <PUBCHEM_BOND_UDEF_STEREO_COUNT>  (1) 
1

>  <PUBCHEM_ISOTOPIC_ATOM_COUNT>  (1) 
0

>  <PUBCHEM_COMPONENT_COUNT>  (1) 
1

>  <PUBCHEM_CACTVS_TAUTO_COUNT>  (1) 
2

>  <PUBCHEM_CONFORMER_ID>  (1) 
0000372200000001

>  <PUBCHEM_MMFF94_ENERGY>  (1) 
27.2119

>  <PUBCHEM_FEATURE_SELFOVERLAP>  (1) 
15.223

>  <PUBCHEM_SHAPE_FINGERPRINT>  (1) 
10465860 250 17989203741792556049
10680689 15 17167861945947081709
10912923 1 18408888442790733592
12107183 9 17689998934278847672
13167823 11 18407758131910351354
14123238 8 18410857676431623836
15375358 24 17704077274170623487
17834072 33 18336267933296311740
18186145 218 14851608812075977061
200 152 18408318913058015671
20279233 1 17275111625966928765
204376 136 15123504830800825020
20645477 56 18272095946701423945
20645477 70 13840252655688215560
20828058 44 18343582932257432686
22485316 2 18407758140378719660
22646028 1 18334011696433016034
23402539 116 18273207587290242917
23559900 14 18342735247626763704
23590187 198 18334294240804141306
300161 21 18334852836008773652
42 15 18409449172098155270
4214541 1 18411419483823751409
5104073 3 18341333369979297752
573450 72 18410852140197570027
77779 3 18411983572243985144

>  <PUBCHEM_SHAPE_MULTIPOLES>  (1) 
250.81
10.9
1.27
0.71
9.8
0.15
0
1.41
-1.42
-0.65
-0.05
0.12
0.01
-0.69

>  <PUBCHEM_SHAPE_SELFOVERLAP>  (1) 
512.678

>  <PUBCHEM_SHAPE_VOLUME>  (1) 
144.6

>  <PUBCHEM_COORDINATE_TYPE>  (1) 
2
5
10

$$$$
