14116
     RDKit          3D

 14 15  0  0  0  0  0  0  0  0999 V2000
    0.2271   -2.4536   -0.0006 O   0  0  0  0  0  0  0  0  0  0  0  0
    3.4061    2.0525    0.0005 O   0  0  0  0  0  0  0  0  0  0  0  0
    0.4143   -0.0568   -0.0003 C   0  0  0  0  0  0  0  0  0  0  0  0
   -1.0238    0.1035    0.0000 C   0  0  0  0  0  0  0  0  0  0  0  0
    0.9948   -1.3265   -0.0008 C   0  0  0  0  0  0  0  0  0  0  0  0
    1.2266    1.0785    0.0004 C   0  0  0  0  0  0  0  0  0  0  0  0
   -1.7170    0.1818   -1.2079 C   0  0  0  0  0  0  0  0  0  0  0  0
   -1.7170    0.1793    1.2081 C   0  0  0  0  0  0  0  0  0  0  0  0
    2.6151    0.9446    0.0007 C   0  0  0  0  0  0  0  0  0  0  0  0
    2.3834   -1.4601   -0.0007 C   0  0  0  0  0  0  0  0  0  0  0  0
    3.1934   -0.3246    0.0001 C   0  0  0  0  0  0  0  0  0  0  0  0
   -3.1033    0.3360   -1.2078 C   0  0  0  0  0  0  0  0  0  0  0  0
   -3.1034    0.3335    1.2081 C   0  0  0  0  0  0  0  0  0  0  0  0
   -3.7965    0.4119    0.0001 C   0  0  0  0  0  0  0  0  0  0  0  0
  1  5  1  0
  2  9  1  0
  3  4  1  0
  3  5  2  0
  3  6  1  0
  4  7  2  0
  4  8  1  0
  5 10  1  0
  6  9  2  0
  7 12  1  0
  8 13  2  0
  9 11  1  0
 10 11  2  0
 12 14  2  0
 13 14  1  0
M  END
>  <PUBCHEM_COMPOUND_CID>  (1) 
14116

>  <PUBCHEM_CONFORMER_RMSD>  (1) 
0.4

>  <PUBCHEM_CONFORMER_DIVERSEORDER>  (1) 
1
2
3

>  <PUBCHEM_MMFF94_PARTIAL_CHARGES>  (1) 
22
1 -0.53
10 -0.15
11 -0.15
12 -0.15
13 -0.15
14 -0.15
15 0.15
16 0.15
17 0.15
18 0.15
19 0.15
2 -0.53
20 0.15
21 0.15
22 0.15
23 0.45
24 0.45
5 0.08
6 -0.15
7 -0.15
8 -0.15
9 0.08

>  <PUBCHEM_EFFECTIVE_ROTOR_COUNT>  (1) 
1

>  <PUBCHEM_PHARMACOPHORE_FEATURES>  (1) 
4
1 1 donor
1 2 donor
6 3 5 6 9 10 11 rings
6 4 7 8 12 13 14 rings

>  <PUBCHEM_HEAVY_ATOM_COUNT>  (1) 
14

>  <PUBCHEM_ATOM_DEF_STEREO_COUNT>  (1) 
0

>  <PUBCHEM_ATOM_UDEF_STEREO_COUNT>  (1) 
0

>  <PUBCHEM_BOND_DEF_STEREO_COUNT>  (1) 
0

>  <PUBCHEM_BOND_UDEF_STEREO_COUNT>  (1) 
0

>  <PUBCHEM_ISOTOPIC_ATOM_COUNT>  (1) 
0

>  <PUBCHEM_COMPONENT_COUNT>  (1) 
1

>  <PUBCHEM_CACTVS_TAUTO_COUNT>  (1) 
7

>  <PUBCHEM_CONFORMER_ID>  (1) 
0000372400000001

>  <PUBCHEM_MMFF94_ENERGY>  (1) 
43.1185

>  <PUBCHEM_FEATURE_SELFOVERLAP>  (1) 
20.297

>  <PUBCHEM_SHAPE_FINGERPRINT>  (1) 
10219947 1 18334296456959585372
10608611 8 18114176398206438253
107287 299 18187656785928324822
11471102 20 18409727322648931084
11578080 2 12686209829214329935
12119455 92 18187635929699023648
12236239 1 17703788094101711173
12932764 1 17821447937022770267
13380535 21 18264499545186724678
13538477 17 17489577966213778119
13581323 91 15068342311028979505
14144814 61 17489868219887428721
14251717 144 18412258411306364975
14897335 6 18341608282747022208
15219456 202 18040435477630589165
15279307 12 17917988356708755199
15279308 16 17821721728450798429
15309172 13 18408044034671043099
15342168 16 18263654024681723509
15775835 57 18202002152743346045
16945 1 18338517439407550150
17844478 74 17895200969590672253
1813 80 17699301962455117446
18175812 5 17821451257048177863
18186145 218 18342742918343168404
19049666 15 17532928290676216637
19422 9 17775284945810107143
200 152 18271798000371613109
20201158 50 18114182969532547355
20279233 1 17676487237584968937
204376 136 18336828722875953712
20645464 45 17458344135166736537
20645477 70 18337944581006911839
20715346 28 17822014215512340877
21499 59 18340767147461321124
21639500 275 18340758321171795388
21730867 7 18333734593627608638
2255824 54 18342741771824615030
228727 97 17561085825612091225
23557571 272 17168154403629895871
23559900 14 16515682187557824986
25 1 18411983580902485060
2748010 2 18265626540236537078
474 4 17844513616784304400
57096353 35 17846489379002025901
63268167 104 18343579642212335192
633830 44 18129959917466270677
77492 1 17703788094075330913
81228 2 17686337981302053042
8272917 22 18127417752794945087

>  <PUBCHEM_SHAPE_MULTIPOLES>  (1) 
276.37
6.14
1.63
1.04
1.23
0.43
0
-1.71
0
-1.72
0
1.04
-0.08
0

>  <PUBCHEM_SHAPE_SELFOVERLAP>  (1) 
604.719

>  <PUBCHEM_SHAPE_VOLUME>  (1) 
150.2

>  <PUBCHEM_COORDINATE_TYPE>  (1) 
2
5
10

$$$$
