14119
     RDKit          3D

 14 15  0  0  0  0  0  0  0  0999 V2000
   -3.2692    1.2740   -0.4084 S   0  0  0  0  0  0  0  0  0  0  0  0
    1.3072   -0.2558    0.9271 O   0  0  0  0  0  0  0  0  0  0  0  0
    1.9543   -0.1147   -1.3019 O   0  0  0  0  0  0  0  0  0  0  0  0
    3.4543    0.3310    0.4109 N   0  0  0  0  0  0  0  0  0  0  0  0
   -0.9417    0.3692    0.2617 C   0  0  0  0  0  0  0  0  0  0  0  0
   -2.2021   -0.0588   -0.1665 C   0  0  0  0  0  0  0  0  0  0  0  0
    0.0509   -0.6108    0.5050 C   0  0  0  0  0  0  0  0  0  0  0  0
   -0.8908    1.7988    0.3797 C   0  0  0  0  0  0  0  0  0  0  0  0
   -2.4915   -1.4245   -0.3551 C   0  0  0  0  0  0  0  0  0  0  0  0
   -0.2328   -1.9664    0.3186 C   0  0  0  0  0  0  0  0  0  0  0  0
   -1.4915   -2.3666   -0.1067 C   0  0  0  0  0  0  0  0  0  0  0  0
   -2.0789    2.4055    0.0477 C   0  0  0  0  0  0  0  0  0  0  0  0
    2.2247   -0.0182   -0.1085 C   0  0  0  0  0  0  0  0  0  0  0  0
    4.6072    0.6374   -0.4035 C   0  0  0  0  0  0  0  0  0  0  0  0
  1  6  1  0
  1 12  1  0
  2  7  1  0
  2 13  1  0
  3 13  2  0
  4 13  1  0
  4 14  1  0
  5  6  2  0
  5  7  1  0
  5  8  1  0
  6  9  1  0
  7 10  2  0
  8 12  2  0
  9 11  2  0
 10 11  1  0
M  END
>  <PUBCHEM_COMPOUND_CID>  (1) 
14119

>  <PUBCHEM_CONFORMER_RMSD>  (1) 
0.6

>  <PUBCHEM_CONFORMER_DIVERSEORDER>  (1) 
2
11
21
10
19
7
15
20
4
9
3
12
13
17
14
8
16
18
1
6
5

>  <PUBCHEM_MMFF94_PARTIAL_CHARGES>  (1) 
19
1 -0.08
10 -0.15
11 -0.15
12 -0.11
13 0.78
14 0.3
15 0.15
16 0.15
17 0.15
18 0.15
19 0.15
2 -0.23
20 0.37
3 -0.57
4 -0.73
6 0.04
7 0.08
8 -0.15
9 -0.15

>  <PUBCHEM_EFFECTIVE_ROTOR_COUNT>  (1) 
3

>  <PUBCHEM_PHARMACOPHORE_FEATURES>  (1) 
4
1 3 acceptor
1 4 donor
5 1 5 6 8 12 rings
6 5 6 7 9 10 11 rings

>  <PUBCHEM_HEAVY_ATOM_COUNT>  (1) 
14

>  <PUBCHEM_ATOM_DEF_STEREO_COUNT>  (1) 
0

>  <PUBCHEM_ATOM_UDEF_STEREO_COUNT>  (1) 
0

>  <PUBCHEM_BOND_DEF_STEREO_COUNT>  (1) 
0

>  <PUBCHEM_BOND_UDEF_STEREO_COUNT>  (1) 
0

>  <PUBCHEM_ISOTOPIC_ATOM_COUNT>  (1) 
0

>  <PUBCHEM_COMPONENT_COUNT>  (1) 
1

>  <PUBCHEM_CACTVS_TAUTO_COUNT>  (1) 
2

>  <PUBCHEM_CONFORMER_ID>  (1) 
0000372700000002

>  <PUBCHEM_MMFF94_ENERGY>  (1) 
31.1554

>  <PUBCHEM_FEATURE_SELFOVERLAP>  (1) 
20.357

>  <PUBCHEM_SHAPE_FINGERPRINT>  (1) 
1 1 17833270822452911791
11206711 2 18339061779557718175
12138202 97 18272929414504994966
12716758 59 18342181020466901838
13024252 1 17749390407678370539
14614273 12 18188765046684148741
15669948 3 18410565210776189986
15775835 57 18114180796189515628
16945 1 18339912762792030715
17134986 127 17905327321184787989
1741750 31 18341049601532391368
18534176 82 18272652363449892540
19837323 101 18339088098753304507
20510252 161 18413392046496644315
20645476 183 18113333111542690807
20645477 56 18411423903740653472
20871999 31 18341603858920138767
21061003 4 16773244014566549482
21524375 3 18189334563278562192
22802520 49 18058464122346379095
23402539 116 18341040895733759814
23557571 272 18200322129272678718
23559900 14 18272367556417336818
2748010 2 18051393361248199955
305870 269 18116714010881966026
3071541 250 17760369194574996991
353137 74 18338794524975001185
53812653 8 18337386046305880537
573450 72 18262222388228950762
6333449 129 18342175578806517929
7364860 26 17764585413429217079
77492 1 17677038114475096154
81228 2 18339371867242596883

>  <PUBCHEM_SHAPE_MULTIPOLES>  (1) 
275.24
5.9
2.36
0.83
7.4
0.31
0.08
-2.31
1.14
-2.16
-0.07
0.22
0
-0.14

>  <PUBCHEM_SHAPE_SELFOVERLAP>  (1) 
578.481

>  <PUBCHEM_SHAPE_VOLUME>  (1) 
156.8

>  <PUBCHEM_COORDINATE_TYPE>  (1) 
2
5
10

$$$$
