14120
     RDKit          3D

 14 14  0  0  1  0  0  0  0  0999 V2000
   -2.4014    0.3611    0.7121 C   0  0  0  0  0  0  0  0  0  0  0  0
    2.3930    0.3445   -0.7065 C   0  0  0  0  0  0  0  0  0  0  0  0
   -1.1432   -0.4025    0.3361 C   0  0  0  0  0  0  0  0  0  0  0  0
    1.1508   -0.3965   -0.3425 C   0  0  0  0  0  0  0  0  0  0  0  0
   -2.9232    1.2665   -0.4225 C   0  0  0  0  0  0  0  0  0  0  0  0
    2.9434    1.2541    0.4261 C   0  0  0  0  0  0  0  0  0  0  0  0
   -0.0048    0.3049    0.0018 C   0  0  0  0  0  0  0  0  0  0  0  0
   -2.1701    1.1836    1.9856 C   0  0  0  0  0  0  0  0  0  0  0  0
    2.1934    1.1881   -1.9835 C   0  0  0  0  0  0  0  0  0  0  0  0
   -1.1716   -1.7835    0.3397 C   0  0  0  0  0  0  0  0  0  0  0  0
    1.1450   -1.7915   -0.3455 C   0  0  0  0  0  0  0  0  0  0  0  0
   -0.0162   -2.4849   -0.0045 C   0  0  0  0  0  0  0  0  0  0  0  0
   -3.3430    0.4881   -1.6636 C   0  0  0  0  0  0  0  0  0  0  0  0
    3.3479    0.4679    1.6672 C   0  0  0  0  0  0  0  0  0  0  0  0
  1  3  1  0
  1  5  1  0
  1  8  1  0
  2  4  1  0
  2  6  1  0
  2  9  1  0
  3  7  2  0
  3 10  1  0
  4  7  1  0
  4 11  2  0
  5 13  1  0
  6 14  1  0
 10 12  2  0
 11 12  1  0
M  END
>  <PUBCHEM_COMPOUND_CID>  (1) 
14120

>  <PUBCHEM_CONFORMER_RMSD>  (1) 
0.6

>  <PUBCHEM_CONFORMER_DIVERSEORDER>  (1) 
1
31
53
37
64
7
87
18
36
29
47
88
4
81
89
44
6
76
57
71
15
21
9
94
96
97
69
2
79
73
92
75
52
74
24
49
3
23
95
39
43
20
68
58
82
51
48
19
78
11
72
17
77
34
13
59
62
26
22
50
28
38
93
65
56
85
54
83
14
63
46
30
33
90
12
32
5
40
67
61
42
70
84
25
8
27
60
80
66
45
10
86
35
91
16
41
55

>  <PUBCHEM_MMFF94_PARTIAL_CHARGES>  (1) 
12
1 0.14
10 -0.15
11 -0.15
12 -0.15
2 0.14
21 0.15
28 0.15
29 0.15
3 -0.14
30 0.15
4 -0.14
7 -0.15

>  <PUBCHEM_EFFECTIVE_ROTOR_COUNT>  (1) 
4

>  <PUBCHEM_PHARMACOPHORE_FEATURES>  (1) 
5
1 13 hydrophobe
1 14 hydrophobe
1 8 hydrophobe
1 9 hydrophobe
6 3 4 7 10 11 12 rings

>  <PUBCHEM_HEAVY_ATOM_COUNT>  (1) 
14

>  <PUBCHEM_ATOM_DEF_STEREO_COUNT>  (1) 
0

>  <PUBCHEM_ATOM_UDEF_STEREO_COUNT>  (1) 
2

>  <PUBCHEM_BOND_DEF_STEREO_COUNT>  (1) 
0

>  <PUBCHEM_BOND_UDEF_STEREO_COUNT>  (1) 
0

>  <PUBCHEM_ISOTOPIC_ATOM_COUNT>  (1) 
0

>  <PUBCHEM_COMPONENT_COUNT>  (1) 
1

>  <PUBCHEM_CACTVS_TAUTO_COUNT>  (1) 
1

>  <PUBCHEM_CONFORMER_ID>  (1) 
0000372800000001

>  <PUBCHEM_MMFF94_ENERGY>  (1) 
28.0463

>  <PUBCHEM_FEATURE_SELFOVERLAP>  (1) 
25.374

>  <PUBCHEM_SHAPE_FINGERPRINT>  (1) 
124424 183 16733255772848906868
13583140 156 16588025753107862173
13764800 53 18198926853053587811
14181834 199 18195235629437421926
14614273 12 18336270153694306807
15276787 5 15719663273543622304
15852999 172 18338221722018716070
16945 1 18410864260521478021
18186145 218 18202292372220574349
20510252 161 18053951928716192242
20511035 2 18410866451382703694
21524375 3 18410586084080072939
21731516 1 9223230715261599641
21947302 44 17751079115888882485
228727 97 17846775187895909641
230 275 18336837398387832964
23419403 2 15459488091947828419
23493267 7 17024053495914195164
23557571 272 17630330967558618598
23559900 14 18057068920655469404
2748010 2 18338253607866724543
3071541 236 18265605653383412946
7364860 26 17915184507478922630
81228 2 17908157807622558610

>  <PUBCHEM_SHAPE_MULTIPOLES>  (1) 
288.11
5.33
2.02
1.71
0.06
1.37
0
-2.99
0
-0.02
0.01
0.01
-0.88
-0.09

>  <PUBCHEM_SHAPE_SELFOVERLAP>  (1) 
574.529

>  <PUBCHEM_SHAPE_VOLUME>  (1) 
168.1

>  <PUBCHEM_COORDINATE_TYPE>  (1) 
2
5
10

$$$$
