14137
     RDKit          3D

 17 18  0  0  1  0  0  0  0  0999 V2000
   -1.7686   -2.3984   -0.9964 O   0  0  0  0  0  0  0  0  0  0  0  0
    0.2485   -1.8037    0.7703 O   0  0  0  0  0  0  0  0  0  0  0  0
    0.9633   -0.1455   -0.7322 N   0  0  0  0  0  0  0  0  0  0  0  0
    2.9789    1.0708   -0.9613 N   0  0  0  0  0  0  0  0  0  0  0  0
   -1.2564   -1.0674   -0.9678 C   0  0  0  0  0  0  0  0  0  0  0  0
   -2.2692   -0.1569   -0.3598 C   0  0  0  0  0  0  0  0  0  0  0  0
    0.0677   -1.0638   -0.1926 C   0  0  0  0  0  0  0  0  0  0  0  0
   -3.1438   -0.6381    0.6147 C   0  0  0  0  0  0  0  0  0  0  0  0
   -2.3417    1.1758   -0.7651 C   0  0  0  0  0  0  0  0  0  0  0  0
   -4.0909    0.2134    1.1835 C   0  0  0  0  0  0  0  0  0  0  0  0
   -3.2888    2.0272   -0.1961 C   0  0  0  0  0  0  0  0  0  0  0  0
    2.2777    0.1386   -0.2919 C   0  0  0  0  0  0  0  0  0  0  0  0
   -4.1634    1.5460    0.7782 C   0  0  0  0  0  0  0  0  0  0  0  0
    2.7371   -0.5691    0.7985 C   0  0  0  0  0  0  0  0  0  0  0  0
    4.0273   -0.2966    1.2398 C   0  0  0  0  0  0  0  0  0  0  0  0
    4.7938    0.6588    0.5818 C   0  0  0  0  0  0  0  0  0  0  0  0
    4.2285    1.3087   -0.5036 C   0  0  0  0  0  0  0  0  0  0  0  0
  1  5  1  0
  2  7  2  0
  3  7  1  0
  3 12  1  0
  4 12  2  0
  4 17  1  0
  5  6  1  0
  5  7  1  0
  6  8  2  0
  6  9  1  0
  8 10  1  0
  9 11  2  0
 10 13  2  0
 11 13  1  0
 12 14  1  0
 14 15  2  0
 15 16  1  0
 16 17  2  0
M  END
>  <PUBCHEM_COMPOUND_CID>  (1) 
14137

>  <PUBCHEM_CONFORMER_RMSD>  (1) 
0.6

>  <PUBCHEM_CONFORMER_DIVERSEORDER>  (1) 
3
11
14
8
5
4
10
16
18
17
7
2
15
9
1
12
6
13

>  <PUBCHEM_MMFF94_PARTIAL_CHARGES>  (1) 
28
1 -0.68
10 -0.15
11 -0.15
12 0.43
13 -0.15
14 -0.15
15 -0.15
16 -0.15
17 0.16
19 0.15
2 -0.57
20 0.15
21 0.37
22 0.15
23 0.15
24 0.15
25 0.4
26 0.15
27 0.15
28 0.15
29 0.15
3 -0.55
4 -0.62
5 0.48
6 -0.14
7 0.57
8 -0.15
9 -0.15

>  <PUBCHEM_EFFECTIVE_ROTOR_COUNT>  (1) 
4

>  <PUBCHEM_PHARMACOPHORE_FEATURES>  (1) 
7
1 1 acceptor
1 1 donor
1 2 acceptor
1 3 donor
1 4 acceptor
6 4 12 14 15 16 17 rings
6 6 8 9 10 11 13 rings

>  <PUBCHEM_HEAVY_ATOM_COUNT>  (1) 
17

>  <PUBCHEM_ATOM_DEF_STEREO_COUNT>  (1) 
0

>  <PUBCHEM_ATOM_UDEF_STEREO_COUNT>  (1) 
1

>  <PUBCHEM_BOND_DEF_STEREO_COUNT>  (1) 
0

>  <PUBCHEM_BOND_UDEF_STEREO_COUNT>  (1) 
0

>  <PUBCHEM_ISOTOPIC_ATOM_COUNT>  (1) 
0

>  <PUBCHEM_COMPONENT_COUNT>  (1) 
1

>  <PUBCHEM_CACTVS_TAUTO_COUNT>  (1) 
3

>  <PUBCHEM_CONFORMER_ID>  (1) 
0000373900000003

>  <PUBCHEM_MMFF94_ENERGY>  (1) 
46.5144

>  <PUBCHEM_FEATURE_SELFOVERLAP>  (1) 
35.527

>  <PUBCHEM_SHAPE_FINGERPRINT>  (1) 
10465860 228 18337107857042714562
10498660 4 17417807301698093713
11543360 7 13110952132848400353
11552529 35 17387140968637126594
12251169 10 17530969089656839083
12363563 72 11819284347059804395
12403259 118 18187643583452506141
12403814 3 18187079559946931229
12500047 106 17703785955493211550
12670546 177 12391509780467793392
12707595 3 11169923783174729398
12892183 10 17603871082770796913
13583140 156 17313374613280761397
13675066 3 18408601444522932082
14004511 7 18408879646750315838
14251764 30 12605965195004118973
14341114 328 17822304482551208153
15209294 21 18409165523836461284
1741750 31 18131913749771233823
17870717 6 9007064586321339065
1798214 20 10303809865351630216
1798214 55 18201721708653718929
18186145 218 16272209691082488382
19107657 162 11963389635178150808
193927 3 11386374703118079849
19862831 5 12319738059463448132
20261772 1 18334576841215290332
20432913 95 15357696383621748120
204376 136 18342458110703899039
20645477 56 18059860592323532022
20871999 31 11600004340954527657
21065199 12 17749390321488822449
21524375 3 18341327825572436079
22646028 28 8574711303873873392
23402539 116 11527954456699387712
23402655 69 13038915442970053746
23403322 49 8358253739933010577
23500284 214 17989490714533003731
23557571 272 17274541043603557662
27216 239 18410013226248730865
3268164 11 17560788983500722183
38570 142 17243329216534038452
4028521 119 16702305620207471601
4921388 177 15267051584487555477
5104073 3 18261383499469446120
633830 44 18409449159355990366
90316 7 17096095680005526909

>  <PUBCHEM_SHAPE_MULTIPOLES>  (1) 
328.15
9.78
1.88
1.17
4.85
0.21
-0.11
-4.66
-2.88
-1.26
0.32
-0.03
0.1
-0.73

>  <PUBCHEM_SHAPE_SELFOVERLAP>  (1) 
701.705

>  <PUBCHEM_SHAPE_VOLUME>  (1) 
179.7

>  <PUBCHEM_COORDINATE_TYPE>  (1) 
2
5
10

$$$$
