14152
     RDKit          3D

 19 19  0  0  1  0  0  0  0  0999 V2000
    1.7966   -3.1457   -1.0692 Cl  0  0  0  0  0  0  0  0  0  0  0  0
    3.9014    1.5009    2.0400 Cl  0  0  0  0  0  0  0  0  0  0  0  0
   -2.2533   -1.9339   -0.3103 O   0  0  0  0  0  0  0  0  0  0  0  0
   -3.6506   -1.6442    1.4529 O   0  0  0  0  0  0  0  0  0  0  0  0
    2.2318   -0.3529    0.2016 N   0  0  0  0  0  0  0  0  0  0  0  0
   -4.7569    0.5148    0.1700 N   0  0  0  0  0  0  0  0  0  0  0  0
    1.1940    0.4565   -0.3054 C   0  0  0  0  0  0  0  0  0  0  0  0
   -1.0688    1.2460   -0.2070 C   0  0  0  0  0  0  0  0  0  0  0  0
   -2.4289    1.2333    0.4520 C   0  0  0  0  0  0  0  0  0  0  0  0
   -0.0611    0.4448    0.3035 C   0  0  0  0  0  0  0  0  0  0  0  0
    3.2577   -0.8699   -0.6821 C   0  0  0  0  0  0  0  0  0  0  0  0
    2.2937   -0.6668    1.6153 C   0  0  0  0  0  0  0  0  0  0  0  0
   -3.3708    0.1747   -0.1427 C   0  0  0  0  0  0  0  0  0  0  0  0
    1.4227    1.2690   -1.4161 C   0  0  0  0  0  0  0  0  0  0  0  0
   -0.8581    2.0583   -1.3087 C   0  0  0  0  0  0  0  0  0  0  0  0
    0.3967    2.0699   -1.9176 C   0  0  0  0  0  0  0  0  0  0  0  0
    2.6522   -1.7474   -1.7663 C   0  0  0  0  0  0  0  0  0  0  0  0
    2.4216    0.5979    2.4497 C   0  0  0  0  0  0  0  0  0  0  0  0
   -3.1199   -1.2054    0.4403 C   0  0  0  0  0  0  0  0  0  0  0  0
  1 17  1  0
  2 18  1  0
  3 19  1  0
  4 19  2  0
  5  7  1  0
  5 11  1  0
  5 12  1  0
  6 13  1  0
  7 10  2  0
  7 14  1  0
  8  9  1  0
  8 10  1  0
  8 15  2  0
  9 13  1  0
 11 17  1  0
 12 18  1  0
 13 19  1  0
 14 16  2  0
 15 16  1  0
M  END
>  <PUBCHEM_COMPOUND_CID>  (1) 
14152

>  <PUBCHEM_CONFORMER_RMSD>  (1) 
0.8

>  <PUBCHEM_CONFORMER_DIVERSEORDER>  (1) 
1
344
4
304
214
162
219
77
256
243
230
36
279
82
152
293
343
276
151
105
330
249
205
213
52
241
87
345
237
69
111
198
271
179
314
48
134
227
114
203
135
27
5
137
319
57
81
245
282
194
305
59
106
153
187
334
126
259
182
43
327
21
335
294
342
115
311
285
247
118
275
75
204
236
62
307
209
166
70
139
218
312
242
208
103
297
261
226
42
41
287
117
67
324
298
288
350
148
310
338
296
322
302
24
221
270
104
240
225
34
278
175
250
94
53
323
191
290
133
195
303
232
68
47
46
110
169
154
63
336
315
84
71
26
277
86
217
308
130
25
269
150
37
325
109
79
212
189
262
102
132
255
280
93
35
131
158
337
99
128
234
223
263
274
244
101
157
192
206
260
180
149
113
273
318
332
80
251
38
215
292
23
188
257
74
160
85
340
147
172
185
326
22
97
253
193
238
220
329
239
231
122
136
98
116
89
171
210
56
76
190
129
112
346
91
170
211
32
199
10
142
224
144
341
289
49
295
202
83
51
229
164
316
301
197
267
66
283
177
140
222
309
127
299
121
60
45
95
19
58
300
161
268
15
233
88
12
291
347
173
125
184
146
31
72
78
176
248
272
286
11
92
156
120
28
143
200
65
107
163
165
29
207
235
33
186
333
178
44
320
159
96
73
40
317
181
50
167
281
306
328
145
141
39
246
196
3
100
64
9
265
8
228
313
18
14
7
174
16
349
321
124
108
201
123
216
6
258
168
55
138
90
119
54
339
2
155
331
17
252
266
61
13
348
284
254
183
30
20
264

>  <PUBCHEM_MMFF94_PARTIAL_CHARGES>  (1) 
26
1 -0.29
10 -0.15
11 0.37
12 0.37
13 0.33
14 -0.15
15 -0.15
16 -0.15
17 0.29
18 0.29
19 0.66
2 -0.29
22 0.15
28 0.15
29 0.15
3 -0.65
30 0.15
35 0.36
36 0.36
37 0.5
4 -0.57
5 -0.84
6 -0.99
7 0.1
8 -0.14
9 0.14

>  <PUBCHEM_EFFECTIVE_ROTOR_COUNT>  (1) 
8

>  <PUBCHEM_PHARMACOPHORE_FEATURES>  (1) 
7
1 3 acceptor
1 4 acceptor
1 5 cation
1 6 cation
1 6 donor
3 3 4 19 anion
6 7 8 10 14 15 16 rings

>  <PUBCHEM_HEAVY_ATOM_COUNT>  (1) 
19

>  <PUBCHEM_ATOM_DEF_STEREO_COUNT>  (1) 
0

>  <PUBCHEM_ATOM_UDEF_STEREO_COUNT>  (1) 
1

>  <PUBCHEM_BOND_DEF_STEREO_COUNT>  (1) 
0

>  <PUBCHEM_BOND_UDEF_STEREO_COUNT>  (1) 
0

>  <PUBCHEM_ISOTOPIC_ATOM_COUNT>  (1) 
0

>  <PUBCHEM_COMPONENT_COUNT>  (1) 
1

>  <PUBCHEM_CACTVS_TAUTO_COUNT>  (1) 
1

>  <PUBCHEM_CONFORMER_ID>  (1) 
0000374800000001

>  <PUBCHEM_MMFF94_ENERGY>  (1) 
50.024

>  <PUBCHEM_FEATURE_SELFOVERLAP>  (1) 
35.579

>  <PUBCHEM_SHAPE_FINGERPRINT>  (1) 
10366900 7 17917706885720744464
12202030 40 18053096225307299518
12403259 327 17131847447227914339
12553582 1 17749390347569758529
12633257 1 16486986067770287583
12670545 2 17676760990484846495
13083527 12 17533196786262330516
13533116 47 17988929921085629659
13583140 156 17489016068359045785
14022347 108 17750810860758309137
14251745 187 18265064552055376118
14289901 80 17632567249797933577
16752209 62 17678171586499244661
16945 1 17970058959383128893
20600515 1 17822844402800304888
20645477 70 18043260235178034231
20671657 1 13183026224135702868
21731516 1 17603584110346703989
21756936 100 16913099763838611632
22112679 90 17168701899880107620
2255824 54 17096659870655668669
232386 152 17603575318495849744
23557571 272 18188765042405245892
23559900 14 18342179942483131060
23598288 3 16445028592290318645
31174 14 17703501087228378268
314173 41 17967829253339727813
474 4 13758086181682509453
5902787 121 17749388217186871489
603831 33 16733273339534133892
6338986 31 17241311517316179577
7364860 26 18265066892680612549
81228 2 18116712920092407901

>  <PUBCHEM_SHAPE_MULTIPOLES>  (1) 
373.05
6.95
2.69
2.12
5
1.79
0.32
1.04
3.09
-1.16
-0.87
-1.77
-0.76
2.16

>  <PUBCHEM_SHAPE_SELFOVERLAP>  (1) 
736.288

>  <PUBCHEM_SHAPE_VOLUME>  (1) 
224.1

>  <PUBCHEM_COORDINATE_TYPE>  (1) 
2
5
10

$$$$
