14159
     RDKit          3D

 20 22  0  0  1  0  0  0  0  0999 V2000
   -2.8197    1.3805    1.5079 S   0  0  0  0  0  0  0  0  0  0  0  0
   -1.7835   -3.2713   -1.4625 O   0  0  0  0  0  0  0  0  0  0  0  0
    0.0295   -3.5798   -0.1315 O   0  0  0  0  0  0  0  0  0  0  0  0
   -0.8205   -1.3079   -0.4942 C   0  0  0  0  0  0  0  0  0  0  0  0
    0.3201   -0.7923    0.3283 C   0  0  0  0  0  0  0  0  0  0  0  0
   -2.2181   -0.8700    0.0289 C   0  0  0  0  0  0  0  0  0  0  0  0
    1.3162    0.0349   -0.2156 C   0  0  0  0  0  0  0  0  0  0  0  0
    2.3688    0.4887    0.6147 C   0  0  0  0  0  0  0  0  0  0  0  0
    0.3611   -1.1668    1.6716 C   0  0  0  0  0  0  0  0  0  0  0  0
   -2.4006    0.6300    0.0448 C   0  0  0  0  0  0  0  0  0  0  0  0
   -0.7903   -2.8322   -0.6450 C   0  0  0  0  0  0  0  0  0  0  0  0
    1.2908    0.4218   -1.5654 C   0  0  0  0  0  0  0  0  0  0  0  0
    2.3942    0.1014    1.9644 C   0  0  0  0  0  0  0  0  0  0  0  0
    1.3962   -0.7210    2.4881 C   0  0  0  0  0  0  0  0  0  0  0  0
    3.3649    1.3161    0.0707 C   0  0  0  0  0  0  0  0  0  0  0  0
   -2.2687    1.4886   -0.9991 C   0  0  0  0  0  0  0  0  0  0  0  0
    2.2888    1.2439   -2.0892 C   0  0  0  0  0  0  0  0  0  0  0  0
    3.3238    1.6903   -1.2728 C   0  0  0  0  0  0  0  0  0  0  0  0
   -2.5209    2.8305   -0.5917 C   0  0  0  0  0  0  0  0  0  0  0  0
   -2.8322    2.9147    0.7475 C   0  0  0  0  0  0  0  0  0  0  0  0
  1 10  1  0
  1 20  1  0
  2 11  1  0
  3 11  2  0
  4  5  1  0
  4  6  1  0
  4 11  1  0
  5  7  1  0
  5  9  2  0
  6 10  1  0
  7  8  2  0
  7 12  1  0
  8 13  1  0
  8 15  1  0
  9 14  1  0
 10 16  2  0
 12 17  2  0
 13 14  2  0
 15 18  2  0
 16 19  1  0
 17 18  1  0
 19 20  2  0
M  END
>  <PUBCHEM_COMPOUND_CID>  (1) 
14159

>  <PUBCHEM_CONFORMER_RMSD>  (1) 
0.6

>  <PUBCHEM_CONFORMER_DIVERSEORDER>  (1) 
1
48
59
57
34
65
61
29
58
62
42
31
23
3
37
21
16
2
11
63
52
43
64
49
50
17
66
26
30
55
7
38
20
5
32
53
44
54
67
51
60
15
35
4
45
13
39
8
47
40
14
22
10
12
9
28
36
46
25
33
19
6
27
41
18
56
24

>  <PUBCHEM_MMFF94_PARTIAL_CHARGES>  (1) 
29
1 -0.08
10 -0.14
11 0.66
12 -0.15
13 -0.15
14 -0.15
15 -0.15
16 -0.15
17 -0.15
18 -0.15
19 -0.15
2 -0.65
20 -0.11
24 0.15
25 0.15
26 0.15
27 0.15
28 0.15
29 0.15
3 -0.57
30 0.15
31 0.15
32 0.15
33 0.15
34 0.5
4 0.2
5 -0.14
6 0.18
9 -0.15

>  <PUBCHEM_EFFECTIVE_ROTOR_COUNT>  (1) 
4

>  <PUBCHEM_PHARMACOPHORE_FEATURES>  (1) 
6
1 2 acceptor
1 3 acceptor
3 2 3 11 anion
5 1 10 16 19 20 rings
6 5 7 8 9 13 14 rings
6 7 8 12 15 17 18 rings

>  <PUBCHEM_HEAVY_ATOM_COUNT>  (1) 
20

>  <PUBCHEM_ATOM_DEF_STEREO_COUNT>  (1) 
0

>  <PUBCHEM_ATOM_UDEF_STEREO_COUNT>  (1) 
1

>  <PUBCHEM_BOND_DEF_STEREO_COUNT>  (1) 
0

>  <PUBCHEM_BOND_UDEF_STEREO_COUNT>  (1) 
0

>  <PUBCHEM_ISOTOPIC_ATOM_COUNT>  (1) 
0

>  <PUBCHEM_COMPONENT_COUNT>  (1) 
1

>  <PUBCHEM_CACTVS_TAUTO_COUNT>  (1) 
1

>  <PUBCHEM_CONFORMER_ID>  (1) 
0000374F00000001

>  <PUBCHEM_MMFF94_ENERGY>  (1) 
52.4879

>  <PUBCHEM_FEATURE_SELFOVERLAP>  (1) 
30.532

>  <PUBCHEM_SHAPE_FINGERPRINT>  (1) 
10165383 225 17842313360888559585
11244481 83 17318763186766975875
11578080 2 17629787783715041696
11640471 11 18187074061866676125
11725454 13 16268784712488548050
12156800 1 14794930095729029853
12788726 201 18193549201880632199
128993 33 17916034455895402409
13009979 54 17900508428314414154
13134695 92 16761118243974410581
13583140 156 17056925728832195794
13681431 1 17262170125021325599
13965767 371 18044935671207281220
14617773 55 17970608895864815190
14713325 29 17974605607910714998
14817 1 10051699987980970074
15534591 1 17969520353646985560
15664445 248 17549825933095957110
16945 1 18268991071244145270
17357990 137 18261108535082945712
18981168 100 18198070170730138177
20369508 70 8933842545462103961
20600515 1 17409344609791627411
20715895 44 17391889485355719157
21524375 3 18260561016725648124
21756936 100 17315947574123386988
22112679 90 18048871089811036695
23419403 2 15594226485984585026
23557571 272 17769091581499739200
23559900 14 17760660161962246865
298252 57 18264795223388083588
3383291 50 8211559141256669618
350125 39 18270407066575857303
3797600 57 17897191145766807689
484985 159 13415472589941783065
6438718 38 17902546935593389444
6442390 28 18059033721626430515
6992083 37 17972847355505038498
7364860 26 17907582419680750709
81228 2 18055639674849183367

>  <PUBCHEM_SHAPE_MULTIPOLES>  (1) 
403.7
5.1
3.54
2.07
0.32
2.42
0.65
-4.78
0.23
1.92
-1.42
-1.02
0.09
-1.42

>  <PUBCHEM_SHAPE_SELFOVERLAP>  (1) 
873.864

>  <PUBCHEM_SHAPE_VOLUME>  (1) 
221.9

>  <PUBCHEM_COORDINATE_TYPE>  (1) 
2
5
10

$$$$
