14150
     RDKit          3D

 18 20  0  0  0  0  0  0  0  0999 V2000
    0.0973   -1.8499    0.1370 O   0  0  0  0  0  0  0  0  0  0  0  0
   -4.0648   -0.1741    0.1677 N   0  0  0  0  0  0  0  0  0  0  0  0
    1.4613   -1.7032    0.3588 N   0  0  0  0  0  0  0  0  0  0  0  0
   -4.8741    0.2801    1.2984 C   0  0  0  0  0  0  0  0  0  0  0  0
   -4.4086    0.7271   -0.9316 C   0  0  0  0  0  0  0  0  0  0  0  0
   -6.2252    0.5639    0.6588 C   0  0  0  0  0  0  0  0  0  0  0  0
   -5.9197    0.8542   -0.8076 C   0  0  0  0  0  0  0  0  0  0  0  0
   -2.6404   -0.1682    0.4662 C   0  0  0  0  0  0  0  0  0  0  0  0
   -1.8284   -0.6933   -0.7195 C   0  0  0  0  0  0  0  0  0  0  0  0
   -0.3519   -0.7119   -0.4098 C   0  0  0  0  0  0  0  0  0  0  0  0
    0.6214    0.1977   -0.5729 C   0  0  0  0  0  0  0  0  0  0  0  0
    1.7513   -0.4725   -0.0730 C   0  0  0  0  0  0  0  0  0  0  0  0
    3.0955    0.0342    0.0003 C   0  0  0  0  0  0  0  0  0  0  0  0
    3.3150    1.4010    0.1614 C   0  0  0  0  0  0  0  0  0  0  0  0
    4.1747   -0.8429   -0.0898 C   0  0  0  0  0  0  0  0  0  0  0  0
    4.6184    1.8926    0.2322 C   0  0  0  0  0  0  0  0  0  0  0  0
    5.4781   -0.3512   -0.0188 C   0  0  0  0  0  0  0  0  0  0  0  0
    5.6999    1.0165    0.1422 C   0  0  0  0  0  0  0  0  0  0  0  0
  1  3  1  0
  1 10  1  0
  2  4  1  0
  2  5  1  0
  2  8  1  0
  3 12  2  0
  4  6  1  0
  5  7  1  0
  6  7  1  0
  8  9  1  0
  9 10  1  0
 10 11  2  0
 11 12  1  0
 12 13  1  0
 13 14  2  0
 13 15  1  0
 14 16  1  0
 15 17  2  0
 16 18  2  0
 17 18  1  0
M  END
>  <PUBCHEM_COMPOUND_CID>  (1) 
14150

>  <PUBCHEM_CONFORMER_RMSD>  (1) 
0.6

>  <PUBCHEM_CONFORMER_DIVERSEORDER>  (1) 
1
21
44
56
39
20
37
57
15
31
52
24
17
19
5
18
54
40
23
47
6
9
8
25
49
11
13
45
16
51
4
14
3
53
12
33
55
42
34
2
38
28
46
50
32
27
36
30
41
10
7
22
29
43
48
35
26

>  <PUBCHEM_MMFF94_PARTIAL_CHARGES>  (1) 
22
1 -0.02
10 -0.04
11 -0.15
12 0.23
13 0.05
14 -0.15
15 -0.15
16 -0.15
17 -0.15
18 -0.15
2 -0.81
3 -0.41
31 0.15
32 0.15
33 0.15
34 0.15
35 0.15
36 0.15
4 0.27
5 0.27
8 0.27
9 0.18

>  <PUBCHEM_EFFECTIVE_ROTOR_COUNT>  (1) 
5

>  <PUBCHEM_PHARMACOPHORE_FEATURES>  (1) 
5
1 2 cation
1 3 acceptor
5 1 3 10 11 12 rings
5 2 4 5 6 7 rings
6 13 14 15 16 17 18 rings

>  <PUBCHEM_HEAVY_ATOM_COUNT>  (1) 
18

>  <PUBCHEM_ATOM_DEF_STEREO_COUNT>  (1) 
0

>  <PUBCHEM_ATOM_UDEF_STEREO_COUNT>  (1) 
0

>  <PUBCHEM_BOND_DEF_STEREO_COUNT>  (1) 
0

>  <PUBCHEM_BOND_UDEF_STEREO_COUNT>  (1) 
0

>  <PUBCHEM_ISOTOPIC_ATOM_COUNT>  (1) 
0

>  <PUBCHEM_COMPONENT_COUNT>  (1) 
1

>  <PUBCHEM_CACTVS_TAUTO_COUNT>  (1) 
1

>  <PUBCHEM_CONFORMER_ID>  (1) 
0000374600000001

>  <PUBCHEM_MMFF94_ENERGY>  (1) 
29.1833

>  <PUBCHEM_FEATURE_SELFOVERLAP>  (1) 
25.373

>  <PUBCHEM_SHAPE_FINGERPRINT>  (1) 
10 15 17821730571566901656
100836 57 18410858784696703548
10354089 29 18113618993240093776
106641 1 16298393508473780868
11045977 3 18041285442878538403
11089746 13 18131627893780025736
12236239 1 17917710193225247135
12507557 5 18113623391656129997
12516196 113 11602823509926620375
12596602 18 15719395052836532956
12670543 26 12823305576107080723
12730499 353 18335989696609248378
13167372 99 18202005373921475512
13288520 33 9079117761333589715
13533116 47 17676763163511770458
13551218 46 12468625123735733033
13631057 29 18199741622295642903
13668630 136 8790884090652221017
13685833 64 9655573028831979101
13785724 45 17693378845982463598
13955234 65 18335980853261316274
14251718 22 13686294686305913661
14251764 75 17245849400032618356
14341114 176 18113622269962621468
14464042 87 17775010076398594384
15048467 5 18272088322880941040
15183329 4 16343709819798053524
15188451 53 15647625574764693195
15348495 7 17676493903131918377
15475509 35 16081635670642356130
16079462 125 17749379339869318125
17834072 33 18060132171943642735
17834072 8 18201726150224591396
17870717 6 13254797945735627141
1813 80 10953736655928725787
18222031 100 8935001447464703566
19489759 90 16805323289020937105
19784866 140 10880000142252897695
19784866 170 17894909616220679927
19784866 240 9223234074279349091
20281389 69 18410290315636746121
21033648 29 18188755215335722757
21150785 3 16343415198042565917
21236236 1 18340204210873434287
212847 35 18202563995112013960
21637258 2 11386361586382760225
22224240 67 17967814964120970123
23198884 109 16487257673085842013
23402539 116 16487253257637948049
23402655 69 17988922297091528454
23536379 177 16272211864188188806
2767999 5 18202279212525325057
2838139 119 17989486324976635889
2916195 48 18259701203470838209
293599 30 18411981381763146030
29717793 49 16845580807707502484
300161 21 17917705834054981198
3004659 81 15267074597069780460
3014965 18 18337106753320807958
335352 9 18412826885547890078
34797466 226 14405181819627123785
3545911 37 18334579031859458315
4325135 7 18272930562274119383
4340502 62 16588021308206789802
465052 167 11241968170668465240
5104073 3 18190450744465640362
542803 24 17704354360012523629
54446538 1 18202284684245192409
59682541 52 17417830426350609644
59755656 215 18334860463965864470
59755656 520 18259980496108933355
8272917 22 18131074810147582398

>  <PUBCHEM_SHAPE_MULTIPOLES>  (1) 
354.6
16.09
1.47
0.9
9.14
0.03
-0.03
6.53
-1.28
-1.49
-0.06
1.14
0.08
0.25

>  <PUBCHEM_SHAPE_SELFOVERLAP>  (1) 
757.791

>  <PUBCHEM_SHAPE_VOLUME>  (1) 
199.9

>  <PUBCHEM_COORDINATE_TYPE>  (1) 
2
5
10

$$$$
