14169
     RDKit          3D

 21 23  0  0  0  0  0  0  0  0999 V2000
   -0.8728    0.3711   -1.3749 N   0  0  0  0  0  0  0  0  0  0  0  0
   -3.4318    0.7138    1.0149 N   0  0  0  0  0  0  0  0  0  0  0  0
    2.6520   -0.5803    0.6840 N   0  0  0  0  0  0  0  0  0  0  0  0
   -3.3017    0.3425   -1.4319 C   0  0  0  0  0  0  0  0  0  0  0  0
   -2.0149   -0.4797   -1.3715 C   0  0  0  0  0  0  0  0  0  0  0  0
    0.3226    0.0486   -0.6768 C   0  0  0  0  0  0  0  0  0  0  0  0
   -3.4655    1.3548   -0.2940 C   0  0  0  0  0  0  0  0  0  0  0  0
    1.2349    1.0602   -0.3598 C   0  0  0  0  0  0  0  0  0  0  0  0
    0.5761   -1.2777   -0.3127 C   0  0  0  0  0  0  0  0  0  0  0  0
    2.4029    0.6956    0.3309 C   0  0  0  0  0  0  0  0  0  0  0  0
    1.7699   -1.5508    0.3763 C   0  0  0  0  0  0  0  0  0  0  0  0
    1.0056    2.4013   -0.7133 C   0  0  0  0  0  0  0  0  0  0  0  0
   -0.3231   -2.3142   -0.6181 C   0  0  0  0  0  0  0  0  0  0  0  0
    3.3151    1.6982    0.6494 C   0  0  0  0  0  0  0  0  0  0  0  0
    2.0281   -2.8693    0.7416 C   0  0  0  0  0  0  0  0  0  0  0  0
   -4.5494   -0.2208    1.1602 C   0  0  0  0  0  0  0  0  0  0  0  0
   -3.4668    1.7162    2.0814 C   0  0  0  0  0  0  0  0  0  0  0  0
    1.9333    3.3846   -0.3831 C   0  0  0  0  0  0  0  0  0  0  0  0
   -0.0415   -3.6241   -0.2417 C   0  0  0  0  0  0  0  0  0  0  0  0
    3.0903    3.0320    0.2997 C   0  0  0  0  0  0  0  0  0  0  0  0
    1.1368   -3.9018    0.4395 C   0  0  0  0  0  0  0  0  0  0  0  0
  1  5  1  0
  1  6  1  0
  2  7  1  0
  2 16  1  0
  2 17  1  0
  3 10  2  0
  3 11  1  0
  4  5  1  0
  4  7  1  0
  6  8  2  0
  6  9  1  0
  8 10  1  0
  8 12  1  0
  9 11  2  0
  9 13  1  0
 10 14  1  0
 11 15  1  0
 12 18  2  0
 13 19  2  0
 14 20  2  0
 15 21  2  0
 18 20  1  0
 19 21  1  0
M  END
>  <PUBCHEM_COMPOUND_CID>  (1) 
14169

>  <PUBCHEM_CONFORMER_RMSD>  (1) 
0.8

>  <PUBCHEM_CONFORMER_DIVERSEORDER>  (1) 
1
3
5
2
4

>  <PUBCHEM_MMFF94_PARTIAL_CHARGES>  (1) 
27
1 -0.87
10 0.31
11 0.31
12 -0.15
13 -0.15
14 -0.15
15 -0.15
16 0.27
17 0.27
18 -0.15
19 -0.15
2 -0.81
20 -0.15
21 -0.15
28 0.4
29 0.15
3 -0.62
30 0.15
31 0.15
32 0.15
39 0.15
40 0.15
41 0.15
42 0.15
5 0.37
6 0.1
7 0.27

>  <PUBCHEM_EFFECTIVE_ROTOR_COUNT>  (1) 
5

>  <PUBCHEM_PHARMACOPHORE_FEATURES>  (1) 
7
1 1 cation
1 1 donor
1 2 cation
1 3 acceptor
6 3 6 8 9 10 11 rings
6 8 10 12 14 18 20 rings
6 9 11 13 15 19 21 rings

>  <PUBCHEM_HEAVY_ATOM_COUNT>  (1) 
21

>  <PUBCHEM_ATOM_DEF_STEREO_COUNT>  (1) 
0

>  <PUBCHEM_ATOM_UDEF_STEREO_COUNT>  (1) 
0

>  <PUBCHEM_BOND_DEF_STEREO_COUNT>  (1) 
0

>  <PUBCHEM_BOND_UDEF_STEREO_COUNT>  (1) 
0

>  <PUBCHEM_ISOTOPIC_ATOM_COUNT>  (1) 
0

>  <PUBCHEM_COMPONENT_COUNT>  (1) 
1

>  <PUBCHEM_CACTVS_TAUTO_COUNT>  (1) 
2

>  <PUBCHEM_CONFORMER_ID>  (1) 
0000375900000001

>  <PUBCHEM_MMFF94_ENERGY>  (1) 
100.9737

>  <PUBCHEM_FEATURE_SELFOVERLAP>  (1) 
35.581

>  <PUBCHEM_SHAPE_FINGERPRINT>  (1) 
10064457 181 18266182927168901656
10382601 240 18269562649913542816
10411042 1 17690255145979186159
10967382 1 18192687026293582710
1100329 8 18264751286373890058
11640471 11 17918275329391044057
12390115 104 17977389665868287716
12553582 1 17979067180813823030
12633257 1 18114189592540709201
12788726 201 17330001698582813710
12954195 1 17254008953200125220
13009979 54 17702081609296075927
13140716 1 18263623195891373258
13533116 47 18263376802639936201
13583140 156 16662582558476818828
14787075 74 17767395048386211815
14790565 3 18409732829525686924
14866123 147 18265326391174280552
14955137 171 18338244743449909854
15309172 13 18335975475671578341
15475509 84 16095461320149638771
16945 1 18192405559848686958
17138139 8 17410179100747091799
18219364 16 18189037815630476661
19591789 44 18337667517320063220
20157964 124 18338506453667489957
20510252 161 17329136383158730572
20739085 24 18335705988360203152
20775438 99 14310287734865542838
21041028 32 17688871938865609310
21427221 339 17772475582016359873
21524375 3 18200590440053548437
21731228 192 18265332987410577677
21756936 100 17986399003715925216
22182937 141 17907858753566089008
23845131 108 18264487472134012595
283562 15 17183335661311766736
3091708 16 9979976207586459006
350125 39 18119527884523223430
352729 6 17760069014978821846
3797600 57 17846232097950503555
392239 28 17910688879848768403
458136 41 18334866017104967836
474 4 18412538817084151657
7097593 13 18124324813590339665
81228 2 17251176602144472260
8988823 20 18337686226635363745

>  <PUBCHEM_SHAPE_MULTIPOLES>  (1) 
417.23
6.34
4.69
1.37
6.47
2.99
0.2
-4.61
2.43
-3.86
0.47
1.5
-0.4
-0.92

>  <PUBCHEM_SHAPE_SELFOVERLAP>  (1) 
905.332

>  <PUBCHEM_SHAPE_VOLUME>  (1) 
227

>  <PUBCHEM_COORDINATE_TYPE>  (1) 
2
5
10

$$$$
