14165
     RDKit          3D

 20 21  0  0  0  0  0  0  0  0999 V2000
    6.5745    0.2342    1.2556 O   0  0  0  0  0  0  0  0  0  0  0  0
    2.0736    1.1843   -1.0923 O   0  0  0  0  0  0  0  0  0  0  0  0
   -3.8243   -0.6346    0.1795 O   0  0  0  0  0  0  0  0  0  0  0  0
   -7.1943    0.2650    0.4303 O   0  0  0  0  0  0  0  0  0  0  0  0
   -6.1670   -1.6477    0.7549 O   0  0  0  0  0  0  0  0  0  0  0  0
    4.3076   -0.2558   -0.3944 N   0  0  0  0  0  0  0  0  0  0  0  0
    0.7285   -0.5957   -0.4642 N   0  0  0  0  0  0  0  0  0  0  0  0
   -0.3971    0.1542   -0.4909 N   0  0  0  0  0  0  0  0  0  0  0  0
   -6.1288   -0.4193    0.4488 N   0  0  0  0  0  0  0  0  0  0  0  0
    4.1784    0.3993    0.9146 C   0  0  0  0  0  0  0  0  0  0  0  0
    5.4665   -1.1593   -0.3929 C   0  0  0  0  0  0  0  0  0  0  0  0
    5.4696    1.1389    1.2530 C   0  0  0  0  0  0  0  0  0  0  0  0
    6.7277   -0.3838   -0.0228 C   0  0  0  0  0  0  0  0  0  0  0  0
    3.0851   -0.9807   -0.7348 C   0  0  0  0  0  0  0  0  0  0  0  0
    1.9350    0.0029   -0.7815 C   0  0  0  0  0  0  0  0  0  0  0  0
   -2.7771    0.1397   -0.1567 C   0  0  0  0  0  0  0  0  0  0  0  0
   -1.4716   -0.4984   -0.1823 C   0  0  0  0  0  0  0  0  0  0  0  0
   -3.1372    1.4196   -0.4206 C   0  0  0  0  0  0  0  0  0  0  0  0
   -4.9094    0.1816    0.1304 C   0  0  0  0  0  0  0  0  0  0  0  0
   -4.5397    1.4555   -0.2339 C   0  0  0  0  0  0  0  0  0  0  0  0
  1 12  1  0
  1 13  1  0
  2 15  2  0
  3 16  1  0
  3 19  1  0
  4  9  1  0
  5  9  2  0
  6 10  1  0
  6 11  1  0
  6 14  1  0
  7  8  1  0
  7 15  1  0
  8 17  2  0
  9 19  1  0
 10 12  1  0
 11 13  1  0
 14 15  1  0
 16 17  1  0
 16 18  2  0
 18 20  1  0
 19 20  2  0
M  CHG  2   4  -1   9   1
M  END
>  <PUBCHEM_COMPOUND_CID>  (1) 
14165

>  <PUBCHEM_CONFORMER_RMSD>  (1) 
0.8

>  <PUBCHEM_CONFORMER_DIVERSEORDER>  (1) 
1
13
6
11
10
3
14
9
7
12
4
5
8
2

>  <PUBCHEM_MMFF94_PARTIAL_CHARGES>  (1) 
24
1 -0.56
10 0.27
11 0.27
12 0.28
13 0.28
14 0.33
15 0.57
16 0.05
17 0.47
18 -0.15
19 0.22
2 -0.57
20 -0.15
3 -0.28
31 0.37
32 0.06
33 0.15
34 0.15
4 -0.52
5 -0.52
6 -0.81
7 -0.37
8 -0.51
9 0.96

>  <PUBCHEM_EFFECTIVE_ROTOR_COUNT>  (1) 
7.2

>  <PUBCHEM_PHARMACOPHORE_FEATURES>  (1) 
11
1 1 acceptor
1 2 acceptor
1 3 acceptor
1 4 acceptor
1 4 anion
1 5 acceptor
1 6 cation
1 7 donor
1 8 acceptor
5 3 16 18 19 20 rings
6 1 6 10 11 12 13 rings

>  <PUBCHEM_HEAVY_ATOM_COUNT>  (1) 
20

>  <PUBCHEM_ATOM_DEF_STEREO_COUNT>  (1) 
0

>  <PUBCHEM_ATOM_UDEF_STEREO_COUNT>  (1) 
0

>  <PUBCHEM_BOND_DEF_STEREO_COUNT>  (1) 
0

>  <PUBCHEM_BOND_UDEF_STEREO_COUNT>  (1) 
1

>  <PUBCHEM_ISOTOPIC_ATOM_COUNT>  (1) 
0

>  <PUBCHEM_COMPONENT_COUNT>  (1) 
1

>  <PUBCHEM_CACTVS_TAUTO_COUNT>  (1) 
2

>  <PUBCHEM_CONFORMER_ID>  (1) 
0000375500000001

>  <PUBCHEM_MMFF94_ENERGY>  (1) 
33.517

>  <PUBCHEM_FEATURE_SELFOVERLAP>  (1) 
55.921

>  <PUBCHEM_SHAPE_FINGERPRINT>  (1) 
10 15 18411978096419093856
10354089 29 17846777412947373296
106641 1 18113615725281801480
10688039 33 18272369746503336648
11315181 36 17603591833278189941
11646440 116 18343026592190413976
12091667 2 17988922254595419261
12166972 35 18411141346364060720
12236239 1 16805324383504205924
125118 31 18131636664140733049
12516196 113 17821446855128829220
12596602 18 18260261932741746576
12670543 26 8718834192810104348
12714333 28 13830130598623434844
12730499 353 18060140917061806686
13073987 5 18339925896533035443
13167372 99 16702027431107342440
13533116 47 18130508527252215678
13668630 136 14851605470680780018
13685833 64 13984663641812946873
13914758 101 15864062145084968877
13955234 65 17632294520076732094
13964095 4 9799694800696963251
1420 363 18341897380805497174
14251732 16 18130504223298923759
14251740 57 17241595131935794618
14251752 14 10231763274887805477
14251764 18 17530969102937302228
14251764 46 18411136926525506870
14341114 176 18131913758888591664
14933364 13 18202283597960993872
15048467 5 13686300171047709507
15183329 4 8142094173327939324
15348495 7 18342173427217865554
15690457 1 16660361502128469411
15716309 27 17822010912693182695
17834072 8 8358258142121183261
17834076 25 14189574130744846143
17857418 61 16370723738160673587
19433438 28 18413106143451096004
19489759 90 18040998423573977297
20281389 69 17918272043609167944
21130983 4 16343985814338394298
21150785 3 12324246078860040571
221357 26 11169909490035732718
22224240 67 17989769999567302975
22956985 138 16518478155813398586
23081809 10 15719397200472493100
23198884 109 10737281342951087295
23402539 116 18114181943631332935
23559900 14 10953751027247676111
2916195 48 18273491264862385737
29717793 49 11963390730685097846
328311 84 18059861640976326886
351380 3 16153423944070486880
3545911 37 18202003222496008590
4340502 62 18343302557125205198
465052 167 15068344493310229034
5104073 3 18268714905089794475
542803 24 15123508103344208685
59682541 35 18271242828424786059
6438161 24 8286214829557084816

>  <PUBCHEM_SHAPE_MULTIPOLES>  (1) 
362.32
20.54
1.26
0.98
3.75
0.1
-0.07
-0.69
-6.26
0.21
-0.04
-0.68
0.13
1.57

>  <PUBCHEM_SHAPE_SELFOVERLAP>  (1) 
753.146

>  <PUBCHEM_SHAPE_VOLUME>  (1) 
205.8

>  <PUBCHEM_COORDINATE_TYPE>  (1) 
2
5
10

$$$$
