14176
     RDKit          3D

 22 23  0  0  1  0  0  0  0  0999 V2000
    0.7222   -0.4587   -0.7834 O   0  0  0  0  0  0  0  0  0  0  0  0
    0.8453    1.6774    0.2547 O   0  0  0  0  0  0  0  0  0  0  0  0
   -1.2605   -2.1931    0.0099 O   0  0  0  0  0  0  0  0  0  0  0  0
   -2.3441   -4.0759   -0.7761 O   0  0  0  0  0  0  0  0  0  0  0  0
   -3.3735    1.9146    0.3539 N   0  0  0  0  0  0  0  0  0  0  0  0
   -1.3305    0.7263   -0.2584 C   0  0  0  0  0  0  0  0  0  0  0  0
   -2.7543    1.0683   -0.6869 C   0  0  0  0  0  0  0  0  0  0  0  0
   -0.6260   -0.2479   -1.2233 C   0  0  0  0  0  0  0  0  0  0  0  0
   -0.4906    2.0027   -0.1254 C   0  0  0  0  0  0  0  0  0  0  0  0
   -4.8147    2.2912   -0.0263 C   0  0  0  0  0  0  0  0  0  0  0  0
   -3.4182    1.1828    1.7052 C   0  0  0  0  0  0  0  0  0  0  0  0
   -2.5815    3.2176    0.5492 C   0  0  0  0  0  0  0  0  0  0  0  0
   -1.2927   -1.6169   -1.2836 C   0  0  0  0  0  0  0  0  0  0  0  0
    1.4379    0.7750   -0.6827 C   0  0  0  0  0  0  0  0  0  0  0  0
    2.8393    0.4668   -0.2157 C   0  0  0  0  0  0  0  0  0  0  0  0
    3.9085    1.2609   -0.6360 C   0  0  0  0  0  0  0  0  0  0  0  0
    3.0716   -0.6134    0.6386 C   0  0  0  0  0  0  0  0  0  0  0  0
   -1.8247   -3.4357    0.1280 C   0  0  0  0  0  0  0  0  0  0  0  0
    5.2039    0.9761   -0.2041 C   0  0  0  0  0  0  0  0  0  0  0  0
    4.3671   -0.8980    1.0703 C   0  0  0  0  0  0  0  0  0  0  0  0
    5.4332   -0.1031    0.6490 C   0  0  0  0  0  0  0  0  0  0  0  0
   -1.7179   -3.9171    1.5432 C   0  0  0  0  0  0  0  0  0  0  0  0
  1  8  1  0
  1 14  1  0
  2  9  1  0
  2 14  1  0
  3 13  1  0
  3 18  1  0
  4 18  2  0
  5  7  1  0
  5 10  1  0
  5 11  1  0
  5 12  1  0
  6  7  1  0
  6  8  1  0
  6  9  1  0
  8 13  1  0
 14 15  1  0
 15 16  2  0
 15 17  1  0
 16 19  1  0
 17 20  2  0
 18 22  1  0
 19 21  2  0
 20 21  1  0
M  CHG  1   5   1
M  END
>  <PUBCHEM_COMPOUND_CID>  (1) 
14176

>  <PUBCHEM_CONFORMER_RMSD>  (1) 
0.8

>  <PUBCHEM_CONFORMER_DIVERSEORDER>  (1) 
2
29
80
75
30
45
16
54
15
56
65
61
48
27
76
79
33
41
18
26
43
7
78
67
82
66
34
36
60
20
52
22
5
69
83
39
62
12
19
21
55
73
11
13
57
77
40
70
49
68
63
14
51
28
58
9
24
1
74
72
71
23
3
64
8
81
53
10
4
59
38
6
50
46
47
17
25
35
31
44
42
32
37

>  <PUBCHEM_MMFF94_PARTIAL_CHARGES>  (1) 
26
1 -0.56
10 0.5
11 0.5
12 0.5
13 0.28
14 0.7
15 -0.14
16 -0.15
17 -0.15
18 0.66
19 -0.15
2 -0.56
20 -0.15
21 -0.15
22 0.06
3 -0.43
4 -0.57
41 0.15
42 0.15
43 0.15
44 0.15
45 0.15
5 -1.01
7 0.5
8 0.28
9 0.28

>  <PUBCHEM_EFFECTIVE_ROTOR_COUNT>  (1) 
7.2

>  <PUBCHEM_PHARMACOPHORE_FEATURES>  (1) 
6
1 1 acceptor
1 2 acceptor
1 4 acceptor
1 5 cation
6 1 2 6 8 9 14 rings
6 15 16 17 19 20 21 rings

>  <PUBCHEM_HEAVY_ATOM_COUNT>  (1) 
22

>  <PUBCHEM_ATOM_DEF_STEREO_COUNT>  (1) 
0

>  <PUBCHEM_ATOM_UDEF_STEREO_COUNT>  (1) 
3

>  <PUBCHEM_BOND_DEF_STEREO_COUNT>  (1) 
0

>  <PUBCHEM_BOND_UDEF_STEREO_COUNT>  (1) 
0

>  <PUBCHEM_ISOTOPIC_ATOM_COUNT>  (1) 
0

>  <PUBCHEM_COMPONENT_COUNT>  (1) 
1

>  <PUBCHEM_CACTVS_TAUTO_COUNT>  (1) 
1

>  <PUBCHEM_CONFORMER_ID>  (1) 
0000376000000002

>  <PUBCHEM_MMFF94_ENERGY>  (1) 
97.3513

>  <PUBCHEM_FEATURE_SELFOVERLAP>  (1) 
30.482

>  <PUBCHEM_SHAPE_FINGERPRINT>  (1) 
10616163 171 18410570725973393902
11036077 4 18336252479925028514
11036077 51 18409725140869211939
12403814 3 18113894923119224372
12553582 1 17908416202041204270
12616971 3 17603580829957066924
12633257 1 17914362266328909043
12788726 201 18338228392414488019
13004483 165 18053098716367803523
13052359 8 18410857672474195231
13134695 92 17474950308400171351
13140716 1 18270397321136937056
13583140 156 17603588521178403444
13631057 29 18119807169593971478
14178342 30 18265316461030544168
14844126 61 18270387421242679042
14866123 147 18408881836846839011
15042514 8 18410578417816176591
15806764 133 17345485954151145224
15842332 3 17896332483241252532
15927050 60 18340486647290031143
200 152 10447919568997114948
20681677 155 18412259524346453320
21033648 29 18266158562078472560
21041028 32 17907019826003912783
21524375 3 18129938954084333389
21731228 192 18268717116934498465
22224240 67 18271812281460243137
23402539 116 18200864106896181837
23558518 356 18118405283072350756
23559900 14 18131359575301045268
23598288 3 18198065974225103372
23728640 28 18410854365059525939
266924 1 17899149483423795516
3091708 16 8982421227933802119
352729 6 18271817846962262317
3759504 43 18409730638548527477
394222 165 17625542281451362089
4073 2 18411697695901846234
469060 322 13984949587993343794
5104073 3 18338784720282200384
5486654 36 18186801430739175250
58807428 26 18195251014147075409
59554788 281 18269002993973437708
59755656 520 18337669719973557158
9709674 26 18343864412030472510
9981440 41 17489583424948737702

>  <PUBCHEM_SHAPE_MULTIPOLES>  (1) 
424.29
9.54
4.34
1.24
10.29
5.49
-0.2
-4.75
-2.29
-6.48
-0.79
-0.49
0.46
-0.96

>  <PUBCHEM_SHAPE_SELFOVERLAP>  (1) 
868.475

>  <PUBCHEM_SHAPE_VOLUME>  (1) 
243.7

>  <PUBCHEM_COORDINATE_TYPE>  (1) 
2
5
10

$$$$
