1417
     RDKit          3D

 30 33  0  0  1  0  0  0  0  0999 V2000
    1.5741   -2.4059    0.3069 O   0  0  0  0  0  0  0  0  0  0  0  0
    3.1770    0.7269   -0.8474 O   0  0  0  0  0  0  0  0  0  0  0  0
   -2.9181   -0.8100   -0.1785 O   0  0  0  0  0  0  0  0  0  0  0  0
    0.7293    2.3407    0.1614 O   0  0  0  0  0  0  0  0  0  0  0  0
    0.3765    4.5971    0.1054 O   0  0  0  0  0  0  0  0  0  0  0  0
    5.1323    1.5048    0.1056 O   0  0  0  0  0  0  0  0  0  0  0  0
    3.4359   -0.9128    0.8903 C   0  0  0  0  0  0  0  0  0  0  0  0
    2.6371    0.3084    0.4088 C   0  0  0  0  0  0  0  0  0  0  0  0
    2.9611   -2.1295    0.0772 C   0  0  0  0  0  0  0  0  0  0  0  0
    1.1702   -0.0092    0.2350 C   0  0  0  0  0  0  0  0  0  0  0  0
    0.7233   -1.3334    0.1813 C   0  0  0  0  0  0  0  0  0  0  0  0
    0.2175    1.0200    0.1153 C   0  0  0  0  0  0  0  0  0  0  0  0
   -0.6479   -1.6158    0.0426 C   0  0  0  0  0  0  0  0  0  0  0  0
   -1.1572    0.7890   -0.0388 C   0  0  0  0  0  0  0  0  0  0  0  0
   -1.5749   -0.5592   -0.0743 C   0  0  0  0  0  0  0  0  0  0  0  0
    3.2869   -1.0984    2.4063 C   0  0  0  0  0  0  0  0  0  0  0  0
    3.7360   -3.4028    0.4032 C   0  0  0  0  0  0  0  0  0  0  0  0
   -3.3821   -2.1202   -0.5517 C   0  0  0  0  0  0  0  0  0  0  0  0
   -2.0410    1.9749   -0.1529 C   0  0  0  0  0  0  0  0  0  0  0  0
   -1.1320   -2.9959    0.0304 C   0  0  0  0  0  0  0  0  0  0  0  0
   -2.4124   -3.2300   -0.2597 C   0  0  0  0  0  0  0  0  0  0  0  0
   -3.5271    1.8413   -0.3323 C   0  0  0  0  0  0  0  0  0  0  0  0
   -3.7115   -2.0880   -2.0485 C   0  0  0  0  0  0  0  0  0  0  0  0
   -4.6679   -2.3474    0.2527 C   0  0  0  0  0  0  0  0  0  0  0  0
   -1.5090    3.2053   -0.1022 C   0  0  0  0  0  0  0  0  0  0  0  0
   -0.0742    3.4586    0.0618 C   0  0  0  0  0  0  0  0  0  0  0  0
   -4.2495    1.8000    1.0083 C   0  0  0  0  0  0  0  0  0  0  0  0
    4.5026    1.0478   -0.8387 C   0  0  0  0  0  0  0  0  0  0  0  0
   -5.7538    1.6887    0.8145 C   0  0  0  0  0  0  0  0  0  0  0  0
    5.0987    0.7550   -2.1821 C   0  0  0  0  0  0  0  0  0  0  0  0
  1  9  1  0
  1 11  1  0
  2  8  1  0
  2 28  1  0
  3 15  1  0
  3 18  1  0
  4 12  1  0
  4 26  1  0
  5 26  2  0
  6 28  2  0
  7  8  1  0
  7  9  1  0
  7 16  1  0
  8 10  1  0
  9 17  1  0
 10 11  2  0
 10 12  1  0
 11 13  1  0
 12 14  2  0
 13 15  2  0
 13 20  1  0
 14 15  1  0
 14 19  1  0
 18 21  1  0
 18 23  1  0
 18 24  1  0
 19 22  1  0
 19 25  2  0
 20 21  2  0
 22 27  1  0
 25 26  1  0
 27 29  1  0
 28 30  1  0
M  END
>  <PUBCHEM_COMPOUND_CID>  (1) 
1417

>  <PUBCHEM_CONFORMER_RMSD>  (1) 
0.8

>  <PUBCHEM_CONFORMER_DIVERSEORDER>  (1) 
1
18
19
4
21
12
15
10
17
7
20
5
8
14
9
11
16
3
13
2
6

>  <PUBCHEM_MMFF94_PARTIAL_CHARGES>  (1) 
26
1 -0.36
10 -0.14
11 0.08
12 0.08
13 0.03
14 0.03
15 0.08
18 0.42
19 -0.17
2 -0.43
20 -0.18
21 -0.29
22 0.14
25 -0.14
26 0.71
28 0.66
3 -0.36
30 0.06
4 -0.23
40 0.15
41 0.15
5 -0.57
50 0.15
6 -0.57
8 0.42
9 0.28

>  <PUBCHEM_EFFECTIVE_ROTOR_COUNT>  (1) 
5.2

>  <PUBCHEM_PHARMACOPHORE_FEATURES>  (1) 
10
1 1 acceptor
1 29 hydrophobe
1 3 acceptor
1 5 acceptor
1 6 acceptor
3 18 23 24 hydrophobe
6 1 7 8 9 10 11 rings
6 10 11 12 13 14 15 rings
6 3 13 15 18 20 21 rings
6 4 12 14 19 25 26 rings

>  <PUBCHEM_HEAVY_ATOM_COUNT>  (1) 
30

>  <PUBCHEM_ATOM_DEF_STEREO_COUNT>  (1) 
0

>  <PUBCHEM_ATOM_UDEF_STEREO_COUNT>  (1) 
3

>  <PUBCHEM_BOND_DEF_STEREO_COUNT>  (1) 
0

>  <PUBCHEM_BOND_UDEF_STEREO_COUNT>  (1) 
0

>  <PUBCHEM_ISOTOPIC_ATOM_COUNT>  (1) 
0

>  <PUBCHEM_COMPONENT_COUNT>  (1) 
1

>  <PUBCHEM_CACTVS_TAUTO_COUNT>  (1) 
1

>  <PUBCHEM_CONFORMER_ID>  (1) 
0000058900000001

>  <PUBCHEM_MMFF94_ENERGY>  (1) 
98.9558

>  <PUBCHEM_FEATURE_SELFOVERLAP>  (1) 
50.826

>  <PUBCHEM_SHAPE_FINGERPRINT>  (1) 
10369192 42 16698901713303619968
10411042 1 18410849954408330651
10498660 4 18410857663921404868
10670039 82 18335146418909534524
10967382 1 18267018358716557977
1100329 8 18266175020128594747
11115154 58 17055507337795320111
11227688 84 18193844975263355742
11513181 2 18201721734318580862
12422481 6 18270419200359687675
12553582 1 18339073925245514287
12788726 201 18334852848503500170
13009979 54 18188473697978616466
13140716 1 18337951169370783651
138480 1 15385839083872262139
13911987 19 18336263423686750661
140371 6 18194669583013105163
14117953 113 17979353063096898997
14790565 3 18124604089386396617
15042514 8 18266172842880979515
15475509 8 18057068932590850295
15664445 248 18197225947842615948
19319366 153 17967254178213770858
19591789 44 17403173699248419131
20028762 73 15460159176361465590
20642791 35 18122908899873951853
20739085 24 17976564735589094497
21033648 29 17203322351188905274
21236236 1 18341614857862053933
21421861 104 18115301173048205538
21641784 216 18114467845991527548
2334 1 18410567375476656259
23558518 356 18190176793876454170
23559900 14 18198337360841275222
25147074 1 18259982665684096330
3380486 77 17172322634477726498
350125 39 18121786015335019776
352729 6 18123179117715135799
5104073 3 18409721850903191082
5171179 24 17984990559491263928
6438718 38 18060413617203813495
7164475 11 18410284788282913518

>  <PUBCHEM_SHAPE_MULTIPOLES>  (1) 
582.17
9.9
4.88
1.29
1.05
1.37
-0.14
-0.12
-0.72
-2.06
-0.07
0.98
-0.29
-2.22

>  <PUBCHEM_SHAPE_SELFOVERLAP>  (1) 
1259.937

>  <PUBCHEM_SHAPE_VOLUME>  (1) 
319.6

>  <PUBCHEM_COORDINATE_TYPE>  (1) 
2
5
10

$$$$
