14177
     RDKit          3D

 22 24  0  0  1  0  0  0  0  0999 V2000
   -4.5011   -2.7159    0.8554 F   0  0  0  0  0  0  0  0  0  0  0  0
   -1.7990    2.3009   -1.7686 O   0  0  0  0  0  0  0  0  0  0  0  0
    1.7236    1.2231   -0.0402 N   0  0  0  0  0  0  0  0  0  0  0  0
    2.9379   -0.9644    0.0929 C   0  0  0  0  0  0  0  0  0  0  0  0
    1.7440   -1.8356    0.5288 C   0  0  0  0  0  0  0  0  0  0  0  0
    3.7683   -1.9802   -0.7085 C   0  0  0  0  0  0  0  0  0  0  0  0
    3.7315   -0.4264    1.2951 C   0  0  0  0  0  0  0  0  0  0  0  0
    2.4977    0.2262   -0.7985 C   0  0  0  0  0  0  0  0  0  0  0  0
    1.4482   -2.7357   -0.6691 C   0  0  0  0  0  0  0  0  0  0  0  0
    2.7461   -2.8183   -1.4708 C   0  0  0  0  0  0  0  0  0  0  0  0
    2.9601    0.6671    2.0288 C   0  0  0  0  0  0  0  0  0  0  0  0
    2.5125    1.7706    1.0710 C   0  0  0  0  0  0  0  0  0  0  0  0
    1.2685    2.2982   -0.9217 C   0  0  0  0  0  0  0  0  0  0  0  0
    0.3803    3.2755   -0.1491 C   0  0  0  0  0  0  0  0  0  0  0  0
   -0.8607    2.5949    0.4353 C   0  0  0  0  0  0  0  0  0  0  0  0
   -1.7160    1.8956   -0.6117 C   0  0  0  0  0  0  0  0  0  0  0  0
   -2.4596    0.6643   -0.2199 C   0  0  0  0  0  0  0  0  0  0  0  0
   -2.8784    0.5321    1.0851 C   0  0  0  0  0  0  0  0  0  0  0  0
   -2.7003   -0.2952   -1.1777 C   0  0  0  0  0  0  0  0  0  0  0  0
   -3.5742   -0.6199    1.4515 C   0  0  0  0  0  0  0  0  0  0  0  0
   -3.3963   -1.4473   -0.8115 C   0  0  0  0  0  0  0  0  0  0  0  0
   -3.8333   -1.6096    0.5033 C   0  0  0  0  0  0  0  0  0  0  0  0
  1 22  1  0
  2 16  2  0
  3  8  1  0
  3 12  1  0
  3 13  1  0
  4  5  1  0
  4  6  1  0
  4  7  1  0
  4  8  1  0
  5  9  1  0
  6 10  1  0
  7 11  1  0
  9 10  1  0
 11 12  1  0
 13 14  1  0
 14 15  1  0
 15 16  1  0
 16 17  1  0
 17 18  2  0
 17 19  1  0
 18 20  1  0
 19 21  2  0
 20 22  2  0
 21 22  1  0
M  END
>  <PUBCHEM_COMPOUND_CID>  (1) 
14177

>  <PUBCHEM_CONFORMER_RMSD>  (1) 
0.8

>  <PUBCHEM_CONFORMER_DIVERSEORDER>  (1) 
1
121
37
188
73
189
22
48
190
106
119
164
91
110
80
6
108
129
76
139
135
16
176
44
23
140
71
86
138
5
58
165
4
185
53
114
46
177
64
81
17
186
96
85
75
14
142
169
159
79
99
123
126
180
42
84
2
149
47
28
157
171
8
56
104
65
182
120
34
12
163
101
36
166
40
184
95
102
167
38
94
67
117
148
112
175
3
77
141
26
150
9
24
69
172
181
116
72
133
170
21
168
146
173
161
29
100
113
183
92
145
90
178
35
127
7
155
118
45
27
25
10
132
103
39
136
59
60
52
160
11
83
13
111
78
88
54
43
93
158
57
30
15
125
109
49
32
144
18
147
124
105
151
134
87
51
128
174
62
115
89
187
74
61
107
50
82
98
122
19
63
130
156
152
153
68
143
131
20
154
66
179
70
97
33
137
41
31
55
162

>  <PUBCHEM_MMFF94_PARTIAL_CHARGES>  (1) 
18
1 -0.19
12 0.27
13 0.27
15 0.06
16 0.42
17 0.09
18 -0.15
19 -0.15
2 -0.57
20 -0.15
21 -0.15
22 0.19
3 -0.81
45 0.15
46 0.15
47 0.15
48 0.15
8 0.27

>  <PUBCHEM_EFFECTIVE_ROTOR_COUNT>  (1) 
6.8

>  <PUBCHEM_PHARMACOPHORE_FEATURES>  (1) 
5
1 2 acceptor
1 3 cation
5 4 5 6 9 10 rings
6 17 18 19 20 21 22 rings
6 3 4 7 8 11 12 rings

>  <PUBCHEM_HEAVY_ATOM_COUNT>  (1) 
22

>  <PUBCHEM_ATOM_DEF_STEREO_COUNT>  (1) 
0

>  <PUBCHEM_ATOM_UDEF_STEREO_COUNT>  (1) 
0

>  <PUBCHEM_BOND_DEF_STEREO_COUNT>  (1) 
0

>  <PUBCHEM_BOND_UDEF_STEREO_COUNT>  (1) 
0

>  <PUBCHEM_ISOTOPIC_ATOM_COUNT>  (1) 
0

>  <PUBCHEM_COMPONENT_COUNT>  (1) 
1

>  <PUBCHEM_CACTVS_TAUTO_COUNT>  (1) 
2

>  <PUBCHEM_CONFORMER_ID>  (1) 
0000376100000001

>  <PUBCHEM_MMFF94_ENERGY>  (1) 
46.9637

>  <PUBCHEM_FEATURE_SELFOVERLAP>  (1) 
25.378

>  <PUBCHEM_SHAPE_FINGERPRINT>  (1) 
11135609 12 18263370179209411586
117890 22 18342175518645242884
12156800 1 15015514990519031329
12363563 72 17894905256686644769
12506688 2 18410573993841976293
12553582 1 18410018753449628141
12596599 1 18409455773679310715
12712778 12 17326601506636619506
13122387 1 17258216263906778031
13224815 77 18260828198035087675
13533116 47 17989202630039617369
13583140 156 17203320126691648193
14178342 30 18340763754316280040
14223421 5 18271515391238842524
14251705 54 18410009944292167423
14251757 5 17045439873338412638
14848160 33 18115299119953162523
14863182 85 18193844957998050980
15422964 175 18412542098149314365
15635459 17 18268980990924305182
17138139 8 16187470643779033799
17859628 97 16466430384203252808
19734167 9 17484223511911288850
1979834 28 18198908191816689171
20291156 8 18410864230525363285
20645477 70 18045209686363160973
20775530 9 18411986831971604347
21315764 371 17129014177493495891
23557571 272 18267007397543488936
23559900 14 18408882919162468045
25222932 49 17026561701038903859
2818148 4 18124909821936559078
3737641 26 18058465222496336398
5283178 26 17343233925949806943
6287921 2 18130794511216528470
7097593 13 18200328700873815809
7987 15 18269847436146631902
9709674 26 18268134366960718948

>  <PUBCHEM_SHAPE_MULTIPOLES>  (1) 
434.63
7.92
3.88
1.58
3.1
0.39
-0.23
-5.49
-1.78
-0.26
0.91
-0.18
0.09
1.72

>  <PUBCHEM_SHAPE_SELFOVERLAP>  (1) 
912.693

>  <PUBCHEM_SHAPE_VOLUME>  (1) 
246.9

>  <PUBCHEM_COORDINATE_TYPE>  (1) 
2
5
10

$$$$
