14171
     RDKit          3D

 21 23  0  0  1  0  0  0  0  0999 V2000
   -2.1243   -0.2382    0.6324 N   0  0  0  0  0  0  0  0  0  0  0  0
    1.2533   -3.7065   -1.8565 N   0  0  0  0  0  0  0  0  0  0  0  0
   -3.2220   -0.9461   -0.0414 C   0  0  0  0  0  0  0  0  0  0  0  0
   -2.6292    0.8874    1.4312 C   0  0  0  0  0  0  0  0  0  0  0  0
   -4.0012   -0.0064   -0.9627 C   0  0  0  0  0  0  0  0  0  0  0  0
   -3.3889    1.8871    0.5578 C   0  0  0  0  0  0  0  0  0  0  0  0
   -4.5219    1.2088   -0.2038 C   0  0  0  0  0  0  0  0  0  0  0  0
   -1.3607   -1.1602    1.4726 C   0  0  0  0  0  0  0  0  0  0  0  0
   -0.7370   -2.2652    0.6146 C   0  0  0  0  0  0  0  0  0  0  0  0
    0.2246   -1.7154   -0.4622 C   0  0  0  0  0  0  0  0  0  0  0  0
    1.3229   -0.8325    0.1033 C   0  0  0  0  0  0  0  0  0  0  0  0
    1.4460    0.5026   -0.2762 C   0  0  0  0  0  0  0  0  0  0  0  0
    2.1882   -1.4249    1.0093 C   0  0  0  0  0  0  0  0  0  0  0  0
    2.4919    1.2722    0.2867 C   0  0  0  0  0  0  0  0  0  0  0  0
    0.8026   -2.8310   -1.2422 C   0  0  0  0  0  0  0  0  0  0  0  0
    0.5691    1.1029   -1.1941 C   0  0  0  0  0  0  0  0  0  0  0  0
    3.2167   -0.6682    1.5626 C   0  0  0  0  0  0  0  0  0  0  0  0
    3.3689    0.6717    1.2046 C   0  0  0  0  0  0  0  0  0  0  0  0
    2.6302    2.6194   -0.0852 C   0  0  0  0  0  0  0  0  0  0  0  0
    0.7212    2.4428   -1.5521 C   0  0  0  0  0  0  0  0  0  0  0  0
    1.7497    3.1997   -0.9987 C   0  0  0  0  0  0  0  0  0  0  0  0
  1  3  1  0
  1  4  1  0
  1  8  1  0
  2 15  3  0
  3  5  1  0
  4  6  1  0
  5  7  1  0
  6  7  1  0
  8  9  1  0
  9 10  1  0
 10 11  1  0
 10 15  1  0
 11 12  1  0
 11 13  2  0
 12 14  2  0
 12 16  1  0
 13 17  1  0
 14 18  1  0
 14 19  1  0
 16 20  2  0
 17 18  2  0
 19 21  2  0
 20 21  1  0
M  END
>  <PUBCHEM_COMPOUND_CID>  (1) 
14171

>  <PUBCHEM_CONFORMER_RMSD>  (1) 
0.8

>  <PUBCHEM_CONFORMER_DIVERSEORDER>  (1) 
1
6
39
40
34
30
33
37
38
22
24
5
43
14
35
8
15
29
12
7
17
27
36
19
31
11
26
25
13
20
32
18
16
42
28
2
23
9
4
41
3
10
21

>  <PUBCHEM_MMFF94_PARTIAL_CHARGES>  (1) 
22
1 -0.81
10 0.34
11 -0.14
13 -0.15
15 0.36
16 -0.15
17 -0.15
18 -0.15
19 -0.15
2 -0.56
20 -0.15
21 -0.15
3 0.27
37 0.15
38 0.15
39 0.15
4 0.27
40 0.15
41 0.15
42 0.15
43 0.15
8 0.27

>  <PUBCHEM_EFFECTIVE_ROTOR_COUNT>  (1) 
5.2

>  <PUBCHEM_PHARMACOPHORE_FEATURES>  (1) 
5
1 1 cation
1 2 acceptor
6 1 3 4 5 6 7 rings
6 11 12 13 14 17 18 rings
6 12 14 16 19 20 21 rings

>  <PUBCHEM_HEAVY_ATOM_COUNT>  (1) 
21

>  <PUBCHEM_ATOM_DEF_STEREO_COUNT>  (1) 
0

>  <PUBCHEM_ATOM_UDEF_STEREO_COUNT>  (1) 
1

>  <PUBCHEM_BOND_DEF_STEREO_COUNT>  (1) 
0

>  <PUBCHEM_BOND_UDEF_STEREO_COUNT>  (1) 
0

>  <PUBCHEM_ISOTOPIC_ATOM_COUNT>  (1) 
0

>  <PUBCHEM_COMPONENT_COUNT>  (1) 
1

>  <PUBCHEM_CACTVS_TAUTO_COUNT>  (1) 
1

>  <PUBCHEM_CONFORMER_ID>  (1) 
0000375B00000001

>  <PUBCHEM_MMFF94_ENERGY>  (1) 
45.9442

>  <PUBCHEM_FEATURE_SELFOVERLAP>  (1) 
25.398

>  <PUBCHEM_SHAPE_FINGERPRINT>  (1) 
10871710 139 16965493833052418277
11370993 70 18339633529603996097
11578080 2 8069199747736140647
11640471 11 18271245027279281633
12011746 2 18261107444324730820
12633257 1 17821717338783180136
13009979 54 17474083867783911842
13134695 92 18040989601442119448
13583140 156 17458339767221985379
14251757 17 17690896397718115244
14713325 29 15297807334287977852
14790565 3 17679306532019286668
15210252 30 17246142633985466341
1601671 61 18407763625495126876
16945 1 18187081784565592466
17349148 13 18411130342804969947
17357779 13 17905891370623125639
17492 89 18262234538143655923
17859628 37 18186798084516351460
17980427 23 18340752793622530897
18981168 100 18123786202947656755
192875 21 18337377314722107937
20600515 1 17605855619965874646
20715895 44 18263067835509362149
21330990 113 18055086371914340462
21524375 3 17904219361361270976
22749437 52 18410292540688268465
23184049 59 18261945293301178064
474 4 18408321060647191369
484985 159 15582538639011367658
5845 1 11771657437365883748
5939293 188 18261110755428193228
6287921 2 18272377421456361335
7164475 11 17693932304010058286
81228 2 17395589293856874528

>  <PUBCHEM_SHAPE_MULTIPOLES>  (1) 
422.21
6.47
3.75
1.6
6.24
0.56
-0.13
-2.93
1.53
-2.03
-2.01
-0.42
0.51
-0.31

>  <PUBCHEM_SHAPE_SELFOVERLAP>  (1) 
899.819

>  <PUBCHEM_SHAPE_VOLUME>  (1) 
233.2

>  <PUBCHEM_COORDINATE_TYPE>  (1) 
2
5
10

$$$$
