14178
     RDKit          3D

 22 25  0  0  1  0  0  0  0  0999 V2000
   -5.2120   -1.7126   -0.0443 O   0  0  0  0  0  0  0  0  0  0  0  0
    5.7540   -2.2992   -0.4333 N   0  0  0  0  0  0  0  0  0  0  0  0
   -1.0178    0.9313    0.1345 C   0  0  0  0  0  0  0  0  0  0  0  0
   -0.0022   -0.1957   -0.2377 C   0  0  0  0  0  0  0  0  0  0  0  0
   -2.3880    0.5641   -0.4452 C   0  0  0  0  0  0  0  0  0  0  0  0
   -2.9229   -0.7771    0.0932 C   0  0  0  0  0  0  0  0  0  0  0  0
    1.4478    0.1237    0.2804 C   0  0  0  0  0  0  0  0  0  0  0  0
   -0.5219   -1.6064    0.1482 C   0  0  0  0  0  0  0  0  0  0  0  0
   -1.9548   -1.8853   -0.3412 C   0  0  0  0  0  0  0  0  0  0  0  0
    1.8643    1.5214   -0.2752 C   0  0  0  0  0  0  0  0  0  0  0  0
   -0.5395    2.2951   -0.3827 C   0  0  0  0  0  0  0  0  0  0  0  0
   -3.5605    1.5211   -0.2460 C   0  0  0  0  0  0  0  0  0  0  0  0
   -4.2912   -0.8032   -0.6148 C   0  0  0  0  0  0  0  0  0  0  0  0
    0.8713    2.6303    0.0919 C   0  0  0  0  0  0  0  0  0  0  0  0
   -4.8025    0.6457   -0.4934 C   0  0  0  0  0  0  0  0  0  0  0  0
    2.4641   -0.9192   -0.2807 C   0  0  0  0  0  0  0  0  0  0  0  0
   -3.1113   -0.8277    1.6308 C   0  0  0  0  0  0  0  0  0  0  0  0
    1.5081    0.0843    1.8302 C   0  0  0  0  0  0  0  0  0  0  0  0
    3.2966    1.9126    0.1278 C   0  0  0  0  0  0  0  0  0  0  0  0
    3.9140   -0.4960   -0.2040 C   0  0  0  0  0  0  0  0  0  0  0  0
    4.2755    0.7832   -0.0080 C   0  0  0  0  0  0  0  0  0  0  0  0
    4.9287   -1.4904   -0.3303 C   0  0  0  0  0  0  0  0  0  0  0  0
  1 13  1  0
  2 22  3  0
  3  4  1  0
  3  5  1  0
  3 11  1  0
  4  7  1  0
  4  8  1  0
  5  6  1  0
  5 12  1  0
  6  9  1  0
  6 13  1  0
  6 17  1  0
  7 10  1  0
  7 16  1  0
  7 18  1  0
  8  9  1  0
 10 14  1  0
 10 19  1  0
 11 14  1  0
 12 15  1  0
 13 15  1  0
 16 20  1  0
 19 21  1  0
 20 21  2  0
 20 22  1  0
M  END
>  <PUBCHEM_COMPOUND_CID>  (1) 
14178

>  <PUBCHEM_CONFORMER_RMSD>  (1) 
0.6

>  <PUBCHEM_CONFORMER_DIVERSEORDER>  (1) 
1

>  <PUBCHEM_MMFF94_PARTIAL_CHARGES>  (1) 
10
1 -0.68
13 0.28
16 0.14
19 0.14
2 -0.56
20 -0.07
21 -0.29
22 0.49
50 0.15
51 0.4

>  <PUBCHEM_EFFECTIVE_ROTOR_COUNT>  (1) 
1.8

>  <PUBCHEM_PHARMACOPHORE_FEATURES>  (1) 
7
1 1 acceptor
1 1 donor
1 2 acceptor
5 5 6 12 13 15 rings
6 3 4 5 6 8 9 rings
6 3 4 7 10 11 14 rings
6 7 10 16 19 20 21 rings

>  <PUBCHEM_HEAVY_ATOM_COUNT>  (1) 
22

>  <PUBCHEM_ATOM_DEF_STEREO_COUNT>  (1) 
7

>  <PUBCHEM_ATOM_UDEF_STEREO_COUNT>  (1) 
0

>  <PUBCHEM_BOND_DEF_STEREO_COUNT>  (1) 
0

>  <PUBCHEM_BOND_UDEF_STEREO_COUNT>  (1) 
0

>  <PUBCHEM_ISOTOPIC_ATOM_COUNT>  (1) 
0

>  <PUBCHEM_COMPONENT_COUNT>  (1) 
1

>  <PUBCHEM_CACTVS_TAUTO_COUNT>  (1) 
1

>  <PUBCHEM_CONFORMER_ID>  (1) 
0000376200000001

>  <PUBCHEM_MMFF94_ENERGY>  (1) 
69.5512

>  <PUBCHEM_FEATURE_SELFOVERLAP>  (1) 
35.612

>  <PUBCHEM_SHAPE_FINGERPRINT>  (1) 
10366900 7 17240759605903098995
10967382 1 18338233868233546060
11578080 2 16770411779760948803
116883 192 18341336587542947428
12011746 2 18261948570920374893
12236239 1 17917996105293571035
12403259 226 18340200903669170205
12596602 18 13398618429955914006
12633257 1 15482669121465513263
12715332 25 17917706907269668230
12760667 363 18270120089899092766
12788726 201 18118116961922967576
12916754 54 18341050830568245011
13134695 92 17846210090111285024
13140716 1 18339369577861855049
13288520 33 18340207397305975750
13533116 47 18129942402905862851
13544653 18 18410862065983288748
13862211 1 18410852131745266054
14341114 176 18336551603090721489
14341114 328 11169911684278334302
14866123 147 17838341778754733984
15099037 51 18410292480189272815
15196674 1 18410573998073497301
15352361 1 18411700963496037886
15536298 74 18340483460471146252
15788980 27 18409451379753666902
15848702 151 18130512963298804654
16945 1 18048321338128533709
17349148 13 17632300094168204791
17492 89 18195806495153077111
17804303 29 18411138026047768757
18186145 218 17458059382876686940
19141452 34 18273494584903884167
19591789 44 18410008827669456662
19862831 5 17821727230229726576
200 152 18131631192520539909
20374829 77 18411135793034117854
20645477 70 18410853278738599190
21267235 1 18410300206788088839
21279426 13 18336823100383929573
21452121 103 18269825558227083896
21521239 73 18199446884242865303
21682296 61 18341901748787789446
221357 26 18408880754867728653
221490 88 18191030203550549904
22182313 1 18264750156539444140
22393880 68 18114731673227043549
23402539 116 18342452599880998446
23493267 7 17894911802432841385
23559900 14 18411693296810856152
2871803 45 18260263036542747976
3004659 81 18260268517485682734
3286 77 17203602705126319594
335352 9 18339079289939105957
34934 24 18338228388240463124
4214541 1 18411136913904550581
465052 167 18272938228179014534
474 4 17096932575673372372
5104073 3 18412263943187326232
59755656 215 18192992625653169863
6138700 20 18338517413733179318
633830 44 17458624561986693684
7364860 26 18197495340623161760
9709674 26 18264208182957947699
9981440 41 17183060787326224968

>  <PUBCHEM_SHAPE_MULTIPOLES>  (1) 
441.9
10.46
2.48
0.97
2.27
0.54
0.45
-4.9
-1.61
1.02
-0.25
-0.22
-0.11
0.63

>  <PUBCHEM_SHAPE_SELFOVERLAP>  (1) 
943.047

>  <PUBCHEM_SHAPE_VOLUME>  (1) 
240.7

>  <PUBCHEM_COORDINATE_TYPE>  (1) 
2
5
10

$$$$
