1418
     RDKit          3D

 27 30  0  0  1  0  0  0  0  0999 V2000
   -2.4729    1.8374    0.1722 O   0  0  0  0  0  0  0  0  0  0  0  0
    2.2621    1.1682   -0.1014 O   0  0  0  0  0  0  0  0  0  0  0  0
   -0.6970   -2.6468   -0.0831 O   0  0  0  0  0  0  0  0  0  0  0  0
    0.1030   -4.7838   -0.1985 O   0  0  0  0  0  0  0  0  0  0  0  0
   -3.3592   -1.5304   -1.2701 N   0  0  0  0  0  0  0  0  0  0  0  0
   -4.0013   -0.0180    0.6439 C   0  0  0  0  0  0  0  0  0  0  0  0
   -2.9976   -1.0437    0.0663 C   0  0  0  0  0  0  0  0  0  0  0  0
   -1.6100   -0.4364    0.0360 C   0  0  0  0  0  0  0  0  0  0  0  0
   -3.7966    1.3332   -0.0619 C   0  0  0  0  0  0  0  0  0  0  0  0
   -0.1391    1.5051    0.0592 C   0  0  0  0  0  0  0  0  0  0  0  0
   -1.4331    0.9481    0.0756 C   0  0  0  0  0  0  0  0  0  0  0  0
    2.4448    2.5688   -0.3536 C   0  0  0  0  0  0  0  0  0  0  0  0
    0.0203    3.0047    0.1204 C   0  0  0  0  0  0  0  0  0  0  0  0
    1.4477    3.3977    0.4567 C   0  0  0  0  0  0  0  0  0  0  0  0
    0.9882    0.6617   -0.0531 C   0  0  0  0  0  0  0  0  0  0  0  0
    0.8462   -0.7433   -0.0952 C   0  0  0  0  0  0  0  0  0  0  0  0
   -0.4619   -1.2492   -0.0472 C   0  0  0  0  0  0  0  0  0  0  0  0
   -5.4457   -0.5229    0.5964 C   0  0  0  0  0  0  0  0  0  0  0  0
   -4.7505    2.4174    0.4353 C   0  0  0  0  0  0  0  0  0  0  0  0
    1.9553   -1.7252   -0.1926 C   0  0  0  0  0  0  0  0  0  0  0  0
    2.3636    2.8285   -1.8649 C   0  0  0  0  0  0  0  0  0  0  0  0
    3.8678    2.8978    0.1209 C   0  0  0  0  0  0  0  0  0  0  0  0
    3.3940   -1.2945   -0.2569 C   0  0  0  0  0  0  0  0  0  0  0  0
    1.6793   -3.0375   -0.2249 C   0  0  0  0  0  0  0  0  0  0  0  0
    0.3182   -3.5778   -0.1689 C   0  0  0  0  0  0  0  0  0  0  0  0
    4.0065   -1.1861    1.1337 C   0  0  0  0  0  0  0  0  0  0  0  0
    5.4680   -0.7730    1.0556 C   0  0  0  0  0  0  0  0  0  0  0  0
  1  9  1  0
  1 11  1  0
  2 12  1  0
  2 15  1  0
  3 17  1  0
  3 25  1  0
  4 25  2  0
  5  7  1  0
  6  7  1  0
  6  9  1  0
  6 18  1  0
  7  8  1  0
  8 11  2  0
  8 17  1  0
  9 19  1  0
 10 11  1  0
 10 13  1  0
 10 15  2  0
 12 14  1  0
 12 21  1  0
 12 22  1  0
 13 14  1  0
 15 16  1  0
 16 17  2  0
 16 20  1  0
 20 23  1  0
 20 24  2  0
 23 26  1  0
 24 25  1  0
 26 27  1  0
M  END
>  <PUBCHEM_COMPOUND_CID>  (1) 
1418

>  <PUBCHEM_CONFORMER_RMSD>  (1) 
0.8

>  <PUBCHEM_CONFORMER_DIVERSEORDER>  (1) 
3
12
1
9
5
13
11
4
7
10
8
6
2

>  <PUBCHEM_MMFF94_PARTIAL_CHARGES>  (1) 
22
1 -0.36
10 -0.14
11 0.08
12 0.28
13 0.14
15 0.08
16 0.03
17 0.08
2 -0.36
20 -0.17
23 0.14
24 -0.14
25 0.71
3 -0.23
4 -0.57
47 0.36
48 0.36
5 -0.99
51 0.15
7 0.41
8 -0.14
9 0.28

>  <PUBCHEM_EFFECTIVE_ROTOR_COUNT>  (1) 
3.6

>  <PUBCHEM_PHARMACOPHORE_FEATURES>  (1) 
11
1 1 acceptor
1 2 acceptor
1 27 hydrophobe
1 4 acceptor
1 5 cation
1 5 donor
3 12 21 22 hydrophobe
6 1 6 7 8 9 11 rings
6 2 10 12 13 14 15 rings
6 3 16 17 20 24 25 rings
6 8 10 11 15 16 17 rings

>  <PUBCHEM_HEAVY_ATOM_COUNT>  (1) 
27

>  <PUBCHEM_ATOM_DEF_STEREO_COUNT>  (1) 
0

>  <PUBCHEM_ATOM_UDEF_STEREO_COUNT>  (1) 
3

>  <PUBCHEM_BOND_DEF_STEREO_COUNT>  (1) 
0

>  <PUBCHEM_BOND_UDEF_STEREO_COUNT>  (1) 
0

>  <PUBCHEM_ISOTOPIC_ATOM_COUNT>  (1) 
0

>  <PUBCHEM_COMPONENT_COUNT>  (1) 
1

>  <PUBCHEM_CACTVS_TAUTO_COUNT>  (1) 
1

>  <PUBCHEM_CONFORMER_ID>  (1) 
0000058A00000003

>  <PUBCHEM_MMFF94_ENERGY>  (1) 
87.542

>  <PUBCHEM_FEATURE_SELFOVERLAP>  (1) 
55.898

>  <PUBCHEM_SHAPE_FINGERPRINT>  (1) 
10006869 2 17907019826395173163
10411042 1 17546169597989253351
10906281 52 18191323601588699864
10967382 1 18411422812423061525
1100329 8 18338513153251994858
11513181 2 18130511945814056102
11578080 2 13182476399512421329
11963148 33 17829330538168604019
12403260 363 18338788009378140671
12422481 6 18191558974867042960
12553582 1 18122624946727595687
13004483 165 17688864246726719451
13140716 1 18411139121364889953
13583140 156 17241023483866489619
138480 1 18194969534796133119
140371 6 18122069693345357049
14178342 30 18124875651609450824
14466204 15 18337386024456575848
14790565 3 18410864260917656100
14955137 171 18338522936992102002
15081414 286 18052264990248133057
15196674 1 18410295813558953369
15927050 60 18195811997490589948
1601671 61 18337672993034093866
16087824 20 17185603412656166617
16728300 4 17390200673912686754
16945 1 18123193406960436421
18785283 64 18261407645274741729
19591789 44 18338804532095846037
20028762 73 18201434813734859983
20642791 178 18335428962705834572
20739085 24 18262533536412542121
20905425 154 17836656588718101342
21033648 29 18059273410539433874
2334 1 18411141380448966277
23558518 356 17399518317244393988
23559900 14 18267021644234807131
25147074 1 18272366533856508719
3091708 16 9074400843000981019
335352 9 18338516335316242284
338550 245 18408887377417454004
34934 24 18196364823858298579
350125 39 18409451396875741141
3680242 22 18263647273208860138
5104073 3 18409177614713122137
6443956 14 18266746783444409316
7364860 26 18411423907703304861
81228 2 17614577938202886136

>  <PUBCHEM_SHAPE_MULTIPOLES>  (1) 
527.19
8.72
5.03
0.94
4.31
1.62
-0.18
-1.59
2.36
-2.73
-0.7
-0.46
-0.24
-0.96

>  <PUBCHEM_SHAPE_SELFOVERLAP>  (1) 
1137.633

>  <PUBCHEM_SHAPE_VOLUME>  (1) 
289.3

>  <PUBCHEM_COORDINATE_TYPE>  (1) 
2
5
10

$$$$
