14186
     RDKit          3D

 23 25  0  0  0  0  0  0  0  0999 V2000
    8.0743   -0.0021    0.9732 F   0  0  0  0  0  0  0  0  0  0  0  0
    2.4285   -1.1501   -1.5148 O   0  0  0  0  0  0  0  0  0  0  0  0
   -2.1046    0.9513   -0.3699 N   0  0  0  0  0  0  0  0  0  0  0  0
   -4.9291    0.0430    0.0883 C   0  0  0  0  0  0  0  0  0  0  0  0
   -4.5446    1.5252   -0.0237 C   0  0  0  0  0  0  0  0  0  0  0  0
   -3.8969   -0.8154   -0.6744 C   0  0  0  0  0  0  0  0  0  0  0  0
   -6.3507   -0.1995   -0.4490 C   0  0  0  0  0  0  0  0  0  0  0  0
   -5.0933   -0.4062    1.5529 C   0  0  0  0  0  0  0  0  0  0  0  0
   -3.1097    1.8013    0.4110 C   0  0  0  0  0  0  0  0  0  0  0  0
   -2.4533   -0.5348   -0.2650 C   0  0  0  0  0  0  0  0  0  0  0  0
   -6.8049   -1.5036    0.1997 C   0  0  0  0  0  0  0  0  0  0  0  0
   -6.0117   -1.6258    1.4992 C   0  0  0  0  0  0  0  0  0  0  0  0
   -0.7186    1.1609    0.2544 C   0  0  0  0  0  0  0  0  0  0  0  0
   -2.0149    1.3970   -1.8297 C   0  0  0  0  0  0  0  0  0  0  0  0
    0.2959    0.3006   -0.4835 C   0  0  0  0  0  0  0  0  0  0  0  0
    1.7043    0.5108    0.0750 C   0  0  0  0  0  0  0  0  0  0  0  0
    2.7350   -0.3676   -0.6182 C   0  0  0  0  0  0  0  0  0  0  0  0
    4.1624   -0.2698   -0.1927 C   0  0  0  0  0  0  0  0  0  0  0  0
    4.4921    0.6117    0.8111 C   0  0  0  0  0  0  0  0  0  0  0  0
    5.0932   -1.0653   -0.8208 C   0  0  0  0  0  0  0  0  0  0  0  0
    5.8260    0.7029    1.2086 C   0  0  0  0  0  0  0  0  0  0  0  0
    6.4271   -0.9743   -0.4232 C   0  0  0  0  0  0  0  0  0  0  0  0
    6.7936   -0.0901    0.5916 C   0  0  0  0  0  0  0  0  0  0  0  0
  1 23  1  0
  2 17  2  0
  3  9  1  0
  3 10  1  0
  3 13  1  0
  3 14  1  0
  4  5  1  0
  4  6  1  0
  4  7  1  0
  4  8  1  0
  5  9  1  0
  6 10  1  0
  7 11  1  0
  8 12  1  0
 11 12  1  0
 13 15  1  0
 15 16  1  0
 16 17  1  0
 17 18  1  0
 18 19  2  0
 18 20  1  0
 19 21  1  0
 20 22  2  0
 21 23  2  0
 22 23  1  0
M  CHG  1   3   1
M  END
>  <PUBCHEM_COMPOUND_CID>  (1) 
14186

>  <PUBCHEM_CONFORMER_RMSD>  (1) 
0.8

>  <PUBCHEM_CONFORMER_DIVERSEORDER>  (1) 
1
68
15
21
27
45
8
13
6
43
18
69
70
44
60
48
59
55
10
56
63
3
5
32
26
29
62
47
66
7
12
42
67
61
30
16
37
58
53
33
14
4
19
35
52
65
36
31
71
24
17
38
50
25
40
28
9
22
57
41
2
20
23
11
51
46
49
54
34
39
64
72

>  <PUBCHEM_MMFF94_PARTIAL_CHARGES>  (1) 
19
1 -0.19
10 0.5
13 0.5
14 0.5
16 0.06
17 0.42
18 0.09
19 -0.15
2 -0.57
20 -0.15
21 -0.15
22 -0.15
23 0.19
3 -1.01
49 0.15
50 0.15
51 0.15
52 0.15
9 0.5

>  <PUBCHEM_EFFECTIVE_ROTOR_COUNT>  (1) 
6.8

>  <PUBCHEM_PHARMACOPHORE_FEATURES>  (1) 
5
1 2 acceptor
1 3 cation
5 4 7 8 11 12 rings
6 18 19 20 21 22 23 rings
6 3 4 5 6 9 10 rings

>  <PUBCHEM_HEAVY_ATOM_COUNT>  (1) 
23

>  <PUBCHEM_ATOM_DEF_STEREO_COUNT>  (1) 
0

>  <PUBCHEM_ATOM_UDEF_STEREO_COUNT>  (1) 
0

>  <PUBCHEM_BOND_DEF_STEREO_COUNT>  (1) 
0

>  <PUBCHEM_BOND_UDEF_STEREO_COUNT>  (1) 
0

>  <PUBCHEM_ISOTOPIC_ATOM_COUNT>  (1) 
0

>  <PUBCHEM_COMPONENT_COUNT>  (1) 
1

>  <PUBCHEM_CACTVS_TAUTO_COUNT>  (1) 
2

>  <PUBCHEM_CONFORMER_ID>  (1) 
0000376A00000001

>  <PUBCHEM_MMFF94_ENERGY>  (1) 
69.2987

>  <PUBCHEM_FEATURE_SELFOVERLAP>  (1) 
25.377

>  <PUBCHEM_SHAPE_FINGERPRINT>  (1) 
10 15 18343298197859441520
10066227 112 9727627302538680730
106641 1 16415478285876395927
11315181 36 17967536783410535877
11524674 6 18343302587258820823
11646440 116 17704354377282389080
12091667 2 18272929414916451397
12166972 35 15574719109814457092
12236239 1 16370727024090171230
12516196 113 17918275358996859737
12596602 18 16845581898423817979
12616971 3 16774069666479746396
12730499 353 17846501405554097926
13073987 5 18271526386518572714
13288520 33 17967814951399455453
13668630 136 16588025701768650162
13685833 64 18341896298515819602
13885169 127 18409448056187821797
13914758 101 15140954028967946479
14068700 675 16805323301357285365
1420 363 18412266129605078510
14251732 16 18341894103951230552
14251752 14 16081080477120191751
14251757 52 12391503205674918082
14251764 18 16343703248909404327
14251764 46 18411417310591080334
14341114 176 17917994966921567692
14556957 393 14635156676831586279
14849402 71 16558459915749638200
14856354 85 14548729634587565997
14933364 13 17917992763603390464
15183329 4 11314301750408859788
15188451 53 17822007618521682676
15716309 27 18131069337915634991
17093844 174 18412261714917047889
1768 4 17346308354599604456
17780758 139 17489874847776379747
17834072 8 10809342235122828708
17844677 252 18202286883379477536
17857418 61 16588022407159300016
18222031 100 16660366974285965620
190975 80 18130786801786882371
19489759 90 17821730520581045561
20281389 69 12463571764083610258
21054139 6 17458064880329597715
21150785 3 16153431658143129878
21623969 137 17989210330325181062
21756936 100 12823293499250245717
21792934 111 18343021104171996225
22061861 79 13190340158424579880
22224240 67 17561078124883649990
2303208 19 18272378525067524374
23035841 295 17240204339709441019
23081809 10 16153715288892827508
23402539 116 16660363666923803189
23559900 14 17677617643540837157
23569943 247 17680705913936989346
2838139 119 10809341161603057511
29717793 49 14706927320299441274
3004659 81 16298387989076561838
3383291 50 18261398892480111651
3663271 9 16774085059442250307
4325135 7 18412824698623429244
5104073 3 18129107718713833547
5283156 175 16732980907984912297
5758199 1 16487253288130136606
59682541 35 18341327886102547952
59682541 52 12035717726488593480
59755656 215 18260268525469404146
7226269 152 11095888155419463219
9953998 17 17775289383186797371
999808 66 18334022709267636491

>  <PUBCHEM_SHAPE_MULTIPOLES>  (1) 
455.21
22.02
1.51
1.3
17.33
0.16
-0.01
-7.44
5.77
-2.08
0
0.01
-0.05
1.51

>  <PUBCHEM_SHAPE_SELFOVERLAP>  (1) 
949.822

>  <PUBCHEM_SHAPE_VOLUME>  (1) 
261.6

>  <PUBCHEM_COORDINATE_TYPE>  (1) 
2
5
10

$$$$
