14207
     RDKit          3D

  7  6  0  0  0  0  0  0  0  0999 V2000
    2.0403   -0.7797    0.9730 S   0  0  0  0  0  0  0  0  0  0  0  0
    0.2978   -0.4421   -0.1515 P   0  0  0  0  0  0  0  0  0  0  0  0
   -0.9829   -0.3879    0.8488 O   0  0  0  0  0  0  0  0  0  0  0  0
    0.3134    1.0483   -0.8007 O   0  0  0  0  0  0  0  0  0  0  0  0
    0.1505   -1.5059   -1.2086 O   0  0  0  0  0  0  0  0  0  0  0  0
   -2.2635   -0.1183    0.3041 C   0  0  0  0  0  0  0  0  0  0  0  0
    0.4445    2.1856    0.0348 C   0  0  0  0  0  0  0  0  0  0  0  0
  1  2  1  0
  2  3  1  0
  2  4  1  0
  2  5  2  0
  3  6  1  0
  4  7  1  0
M  END
>  <PUBCHEM_COMPOUND_CID>  (1) 
14207

>  <PUBCHEM_CONFORMER_RMSD>  (1) 
0.4

>  <PUBCHEM_CONFORMER_DIVERSEORDER>  (1) 
2
3
5
8
6
7
4
1

>  <PUBCHEM_MMFF94_PARTIAL_CHARGES>  (1) 
8
1 -0.43
14 0.18
2 1.49
3 -0.55
4 -0.55
5 -0.7
6 0.28
7 0.28

>  <PUBCHEM_EFFECTIVE_ROTOR_COUNT>  (1) 
2

>  <PUBCHEM_PHARMACOPHORE_FEATURES>  (1) 
1
1 5 acceptor

>  <PUBCHEM_HEAVY_ATOM_COUNT>  (1) 
7

>  <PUBCHEM_ATOM_DEF_STEREO_COUNT>  (1) 
0

>  <PUBCHEM_ATOM_UDEF_STEREO_COUNT>  (1) 
0

>  <PUBCHEM_BOND_DEF_STEREO_COUNT>  (1) 
0

>  <PUBCHEM_BOND_UDEF_STEREO_COUNT>  (1) 
0

>  <PUBCHEM_ISOTOPIC_ATOM_COUNT>  (1) 
0

>  <PUBCHEM_COMPONENT_COUNT>  (1) 
1

>  <PUBCHEM_CACTVS_TAUTO_COUNT>  (1) 
2

>  <PUBCHEM_CONFORMER_ID>  (1) 
0000377F00000002

>  <PUBCHEM_MMFF94_ENERGY>  (1) 
5.8388

>  <PUBCHEM_FEATURE_SELFOVERLAP>  (1) 
5.074

>  <PUBCHEM_SHAPE_FINGERPRINT>  (1) 
20096714 4 17908163305349106113
23552449 11 18334019427537802843
24536 1 18055664830562086331
5943 1 13417219254335282822

>  <PUBCHEM_SHAPE_MULTIPOLES>  (1) 
134.15
2.33
1.86
1.09
0.01
1.42
0.14
-0.87
-0.99
-0.04
0.28
-0.14
-0.31
0.04

>  <PUBCHEM_SHAPE_SELFOVERLAP>  (1) 
214.056

>  <PUBCHEM_SHAPE_VOLUME>  (1) 
96.5

>  <PUBCHEM_COORDINATE_TYPE>  (1) 
2
5
10

$$$$
