14209
     RDKit          3D

 11 10  0  0  0  0  0  0  0  0999 V2000
   -0.3306    0.0155   -1.0099 S   0  0  0  0  0  0  0  0  0  0  0  0
    3.1550   -0.2247   -1.4221 S   0  0  0  0  0  0  0  0  0  0  0  0
    1.6353   -0.0245   -0.1973 P   0  0  0  0  0  0  0  0  0  0  0  0
    1.7804    1.2933    0.7601 O   0  0  0  0  0  0  0  0  0  0  0  0
    1.6421   -1.1602    0.9792 O   0  0  0  0  0  0  0  0  0  0  0  0
   -3.7040    0.5666    0.8319 O   0  0  0  0  0  0  0  0  0  0  0  0
   -3.2350   -0.4741   -1.1333 O   0  0  0  0  0  0  0  0  0  0  0  0
   -1.4387   -0.0363    0.4131 C   0  0  0  0  0  0  0  0  0  0  0  0
    1.8238    2.5914    0.1913 C   0  0  0  0  0  0  0  0  0  0  0  0
    1.5347   -2.5352    0.6492 C   0  0  0  0  0  0  0  0  0  0  0  0
   -2.8629   -0.0118   -0.0623 C   0  0  0  0  0  0  0  0  0  0  0  0
  1  3  1  0
  1  8  1  0
  2  3  2  0
  3  4  1  0
  3  5  1  0
  4  9  1  0
  5 10  1  0
  6 11  1  0
  7 11  2  0
  8 11  1  0
M  END
>  <PUBCHEM_COMPOUND_CID>  (1) 
14209

>  <PUBCHEM_CONFORMER_RMSD>  (1) 
0.6

>  <PUBCHEM_CONFORMER_DIVERSEORDER>  (1) 
1
6
53
5
52
30
29
47
15
51
10
11
32
21
25
18
41
35
8
36
42
22
9
19
31
3
48
37
34
50
23
45
24
46
40
14
33
43
4
44
12
26
28
27
17
20
49
39
16
2
7
38
13

>  <PUBCHEM_MMFF94_PARTIAL_CHARGES>  (1) 
12
1 -0.48
10 0.28
11 0.66
2 -0.68
20 0.5
3 1.47
4 -0.55
5 -0.55
6 -0.65
7 -0.57
8 0.29
9 0.28

>  <PUBCHEM_EFFECTIVE_ROTOR_COUNT>  (1) 
5

>  <PUBCHEM_PHARMACOPHORE_FEATURES>  (1) 
3
1 6 acceptor
1 7 acceptor
3 6 7 11 anion

>  <PUBCHEM_HEAVY_ATOM_COUNT>  (1) 
11

>  <PUBCHEM_ATOM_DEF_STEREO_COUNT>  (1) 
0

>  <PUBCHEM_ATOM_UDEF_STEREO_COUNT>  (1) 
0

>  <PUBCHEM_BOND_DEF_STEREO_COUNT>  (1) 
0

>  <PUBCHEM_BOND_UDEF_STEREO_COUNT>  (1) 
0

>  <PUBCHEM_ISOTOPIC_ATOM_COUNT>  (1) 
0

>  <PUBCHEM_COMPONENT_COUNT>  (1) 
1

>  <PUBCHEM_CACTVS_TAUTO_COUNT>  (1) 
1

>  <PUBCHEM_CONFORMER_ID>  (1) 
0000378100000001

>  <PUBCHEM_MMFF94_ENERGY>  (1) 
8.0313

>  <PUBCHEM_FEATURE_SELFOVERLAP>  (1) 
15.281

>  <PUBCHEM_SHAPE_FINGERPRINT>  (1) 
107287 299 17822017505473263318
12932764 1 18409164398813408429
15775835 57 18408048407016575727
17041 50 18131075878808409900
170605 34 18129093609899337452
18186145 218 18341891900944133661
187816 3 18265354875460730454
20711978 78 18190159252955340342
21524375 3 17839165652382652256
23380061 451 18263652783293152358
23595355 12 17973171913383292836
23598291 2 18130792273997249869
3248919 1 17489296495568919135
5084963 1 16702308931495238327
81228 2 16747600843538064122

>  <PUBCHEM_SHAPE_MULTIPOLES>  (1) 
214.45
5.63
2.12
1.25
5.02
0.14
0.29
0.31
0.88
-2.15
-0.88
-0.33
-0.16
-0.23

>  <PUBCHEM_SHAPE_SELFOVERLAP>  (1) 
358.247

>  <PUBCHEM_SHAPE_VOLUME>  (1) 
147.9

>  <PUBCHEM_COORDINATE_TYPE>  (1) 
2
5
10

$$$$
