14205
     RDKit          3D

 32 35  0  0  0  0  0  0  0  0999 V2000
    5.8475   -2.5554    1.3014 Cl  0  0  0  0  0  0  0  0  0  0  0  0
    2.9652    3.0503   -1.9540 F   0  0  0  0  0  0  0  0  0  0  0  0
   -8.8863    0.6764   -0.3267 O   0  0  0  0  0  0  0  0  0  0  0  0
   -1.1032   -0.7102   -2.4195 O   0  0  0  0  0  0  0  0  0  0  0  0
   -2.5949   -0.3216    0.6690 N   0  0  0  0  0  0  0  0  0  0  0  0
   -5.3088    0.6686    0.5569 N   0  0  0  0  0  0  0  0  0  0  0  0
    0.3417   -1.7269   -0.9000 N   0  0  0  0  0  0  0  0  0  0  0  0
    1.6700    0.8023   -1.9299 N   0  0  0  0  0  0  0  0  0  0  0  0
   -2.8963    1.1015    0.8675 C   0  0  0  0  0  0  0  0  0  0  0  0
   -3.7272   -1.1505    1.1000 C   0  0  0  0  0  0  0  0  0  0  0  0
   -4.1768    1.4968    0.1239 C   0  0  0  0  0  0  0  0  0  0  0  0
   -5.0080   -0.7543    0.3576 C   0  0  0  0  0  0  0  0  0  0  0  0
   -1.3752   -0.6980    1.3810 C   0  0  0  0  0  0  0  0  0  0  0  0
   -1.0045   -2.1650    1.1452 C   0  0  0  0  0  0  0  0  0  0  0  0
   -6.5294    1.0455   -0.1532 C   0  0  0  0  0  0  0  0  0  0  0  0
   -0.7389   -2.5216   -0.3161 C   0  0  0  0  0  0  0  0  0  0  0  0
   -7.7220    0.2667    0.3785 C   0  0  0  0  0  0  0  0  0  0  0  0
    1.6620   -1.8741   -0.3502 C   0  0  0  0  0  0  0  0  0  0  0  0
    0.0387   -0.9156   -1.9998 C   0  0  0  0  0  0  0  0  0  0  0  0
    2.6241   -0.8429   -0.3698 C   0  0  0  0  0  0  0  0  0  0  0  0
    1.2137   -0.3149   -2.7295 C   0  0  0  0  0  0  0  0  0  0  0  0
    2.3118    0.5389   -0.8421 C   0  0  0  0  0  0  0  0  0  0  0  0
    2.0267   -3.0939    0.2537 C   0  0  0  0  0  0  0  0  0  0  0  0
    3.9211   -1.0678    0.1268 C   0  0  0  0  0  0  0  0  0  0  0  0
    3.3107   -3.3027    0.7635 C   0  0  0  0  0  0  0  0  0  0  0  0
    2.7447    1.6999   -0.0117 C   0  0  0  0  0  0  0  0  0  0  0  0
    4.2614   -2.2944    0.6888 C   0  0  0  0  0  0  0  0  0  0  0  0
    3.0519    2.9093   -0.6235 C   0  0  0  0  0  0  0  0  0  0  0  0
    2.8355    1.5583    1.3677 C   0  0  0  0  0  0  0  0  0  0  0  0
    3.4556    3.9933    0.1560 C   0  0  0  0  0  0  0  0  0  0  0  0
    3.2395    2.6424    2.1471 C   0  0  0  0  0  0  0  0  0  0  0  0
    3.5496    3.8597    1.5413 C   0  0  0  0  0  0  0  0  0  0  0  0
  1 27  1  0
  2 28  1  0
  3 17  1  0
  4 19  2  0
  5  9  1  0
  5 10  1  0
  5 13  1  0
  6 11  1  0
  6 12  1  0
  6 15  1  0
  7 16  1  0
  7 18  1  0
  7 19  1  0
  8 21  1  0
  8 22  2  0
  9 11  1  0
 10 12  1  0
 13 14  1  0
 14 16  1  0
 15 17  1  0
 18 20  2  0
 18 23  1  0
 19 21  1  0
 20 22  1  0
 20 24  1  0
 22 26  1  0
 23 25  2  0
 24 27  2  0
 25 27  1  0
 26 28  2  0
 26 29  1  0
 28 30  1  0
 29 31  2  0
 30 32  2  0
 31 32  1  0
M  END
>  <PUBCHEM_COMPOUND_CID>  (1) 
14205

>  <PUBCHEM_CONFORMER_RMSD>  (1) 
1

>  <PUBCHEM_CONFORMER_DIVERSEORDER>  (1) 
2
50
23
57
6
132
145
7
30
17
91
174
128
176
43
133
164
142
61
155
119
167
75
171
18
51
125
14
173
69
92
80
45
160
102
36
79
44
157
15
86
107
138
19
159
127
73
60
27
117
94
101
11
1
122
153
72
106
98
165
39
166
62
65
131
110
24
21
169
112
141
156
120
59
137
163
81
53
172
82
147
149
88
28
87
67
66
177
158
109
89
146
83
154
121
4
148
16
152
71
135
97
126
100
55
47
116
103
29
48
143
33
96
54
136
95
74
46
90
49
114
35
13
5
124
113
52
111
144
162
68
151
129
85
161
9
150
25
140
3
130
37
22
64
8
56
134
99
26
170
168
115
104
118
123
78
105
76
139
93
58
77
34
63
175
108
70
10
38
41
32
42
20
84
12
31
40

>  <PUBCHEM_MMFF94_PARTIAL_CHARGES>  (1) 
39
1 -0.18
10 0.27
11 0.27
12 0.27
13 0.27
15 0.27
16 0.3
17 0.28
18 0.12
19 0.57
2 -0.19
20 0.09
21 0.31
22 0.28
23 -0.15
24 -0.15
25 -0.15
26 0.09
27 0.18
28 0.19
29 -0.15
3 -0.68
30 -0.15
31 -0.15
32 -0.15
4 -0.57
5 -0.81
53 0.15
54 0.4
55 0.15
56 0.15
57 0.15
58 0.15
59 0.15
6 -0.81
60 0.15
7 -0.48
8 -0.7
9 0.27

>  <PUBCHEM_EFFECTIVE_ROTOR_COUNT>  (1) 
8.6

>  <PUBCHEM_PHARMACOPHORE_FEATURES>  (1) 
10
1 3 acceptor
1 3 donor
1 4 acceptor
1 5 cation
1 6 cation
1 8 acceptor
6 18 20 23 24 25 27 rings
6 26 28 29 30 31 32 rings
6 5 6 9 10 11 12 rings
7 7 8 18 19 20 21 22 rings

>  <PUBCHEM_HEAVY_ATOM_COUNT>  (1) 
32

>  <PUBCHEM_ATOM_DEF_STEREO_COUNT>  (1) 
0

>  <PUBCHEM_ATOM_UDEF_STEREO_COUNT>  (1) 
0

>  <PUBCHEM_BOND_DEF_STEREO_COUNT>  (1) 
0

>  <PUBCHEM_BOND_UDEF_STEREO_COUNT>  (1) 
0

>  <PUBCHEM_ISOTOPIC_ATOM_COUNT>  (1) 
0

>  <PUBCHEM_COMPONENT_COUNT>  (1) 
1

>  <PUBCHEM_CACTVS_TAUTO_COUNT>  (1) 
1

>  <PUBCHEM_CONFORMER_ID>  (1) 
0000377D00000002

>  <PUBCHEM_MMFF94_ENERGY>  (1) 
99.7335

>  <PUBCHEM_FEATURE_SELFOVERLAP>  (1) 
50.76

>  <PUBCHEM_SHAPE_FINGERPRINT>  (1) 
10165383 225 18186811313791012308
10439779 11 18266176119703422523
11135609 127 18343293748722248313
11456790 92 18044666304317774809
12107698 1 18341608166688128969
12166972 35 18129101130260511739
12788726 201 17545291122890740746
13165053 68 18197203961890034831
13383661 66 13453308936926933481
13533116 47 18335423444020622509
13878862 14 18335406972784119757
13965767 371 17896871252491873412
14251764 38 18341338812241366649
14400156 96 18186801421769335485
14725015 67 18188204282964175985
14849402 71 18410009953372816384
14955137 171 18271811160315497214
15347590 135 17824804687143712426
15848702 68 18342463646927221616
15849732 13 17988920021139195750
17974551 9 18187939386424234058
17980427 23 17916309329348539338
19053607 189 18262518233734619553
21033648 29 17894916277899631123
21315764 268 18334573504574243189
21860390 5 18200886054226062734
23559900 14 18114189639558800731
3298306 158 18057885942745154417
345986 75 17317594389112520506
4112364 45 18130776893407879969
44317340 157 18410856564963548187
469060 322 17760074512520850639
5895379 119 17415863300340941800
6086070 43 18340779194829203966
67856867 119 18411699885607225435
9849439 229 18124030388744503776
9981440 41 18120094149969955866

>  <PUBCHEM_SHAPE_MULTIPOLES>  (1) 
621.48
14.64
4.54
1.95
38.12
2.7
1.06
3.18
-4.03
-8.84
-1.32
-1.4
0.39
-0.21

>  <PUBCHEM_SHAPE_SELFOVERLAP>  (1) 
1318.398

>  <PUBCHEM_SHAPE_VOLUME>  (1) 
346.7

>  <PUBCHEM_COORDINATE_TYPE>  (1) 
2
5
10

$$$$
