14215
     RDKit          3D

 13 12  0  0  0  0  0  0  0  0999 V2000
    1.2530   -0.4827    0.3916 S   0  0  0  0  0  0  0  0  0  0  0  0
    1.1102    1.8497   -0.7736 O   0  0  0  0  0  0  0  0  0  0  0  0
   -0.9349    1.0577    0.0007 N   0  0  0  0  0  0  0  0  0  0  0  0
   -1.6846    0.0091    0.6821 C   0  0  0  0  0  0  0  0  0  0  0  0
   -2.2004   -1.0562   -0.2796 C   0  0  0  0  0  0  0  0  0  0  0  0
   -3.0113   -2.1442    0.4280 C   0  0  0  0  0  0  0  0  0  0  0  0
   -1.7361    2.1949   -0.4549 C   0  0  0  0  0  0  0  0  0  0  0  0
    0.4522    0.9822   -0.2033 C   0  0  0  0  0  0  0  0  0  0  0  0
   -3.5626   -3.1583   -0.5622 C   0  0  0  0  0  0  0  0  0  0  0  0
   -1.8233    3.2726    0.6059 C   0  0  0  0  0  0  0  0  0  0  0  0
    2.9661   -0.1497   -0.0740 C   0  0  0  0  0  0  0  0  0  0  0  0
    3.8624   -1.3200    0.3147 C   0  0  0  0  0  0  0  0  0  0  0  0
    5.3092   -1.0550   -0.0754 C   0  0  0  0  0  0  0  0  0  0  0  0
  1  8  1  0
  1 11  1  0
  2  8  2  0
  3  4  1  0
  3  7  1  0
  3  8  1  0
  4  5  1  0
  5  6  1  0
  6  9  1  0
  7 10  1  0
 11 12  1  0
 12 13  1  0
M  END
>  <PUBCHEM_COMPOUND_CID>  (1) 
14215

>  <PUBCHEM_CONFORMER_RMSD>  (1) 
0.8

>  <PUBCHEM_CONFORMER_DIVERSEORDER>  (1) 
1
181
164
275
184
95
5
267
300
55
150
303
296
2
131
211
288
127
135
61
223
41
306
84
284
78
6
107
178
283
226
37
278
205
282
245
152
301
63
185
270
10
232
160
191
47
167
304
298
106
117
248
101
249
262
44
182
51
241
23
125
90
54
89
128
88
138
172
238
214
46
260
263
264
230
93
200
26
146
272
115
22
218
144
279
243
155
142
266
174
143
104
38
276
9
247
60
145
13
265
171
148
209
27
202
79
149
194
69
255
289
83
102
65
190
134
126
120
3
73
75
40
231
30
4
132
208
163
133
308
221
98
251
187
239
261
140
287
286
252
19
175
193
281
206
227
70
16
139
17
25
274
109
76
130
302
157
292
180
294
183
52
59
103
242
297
71
220
97
81
244
35
137
225
116
114
257
53
112
176
216
21
99
250
269
215
74
188
271
72
57
222
291
11
29
189
36
153
256
119
66
192
113
173
141
18
42
259
39
305
105
100
246
213
228
280
210
58
273
136
277
165
236
118
92
14
110
43
48
62
170
123
285
20
203
307
31
295
258
166
68
186
195
49
235
293
159
290
268
15
87
201
237
169
28
50
156
121
77
32
299
111
86
147
234
217
34
85
196
91
67
154
204
212
8
45
224
158
94
161
122
96
12
7
254
80
64
219
253
233
240
33
229
179
198
207
24
177
129
197
108
124
162
199
82
151
56
168

>  <PUBCHEM_MMFF94_PARTIAL_CHARGES>  (1) 
7
1 -0.37
11 0.23
2 -0.57
3 -0.66
4 0.3
7 0.3
8 0.77

>  <PUBCHEM_EFFECTIVE_ROTOR_COUNT>  (1) 
8

>  <PUBCHEM_PHARMACOPHORE_FEATURES>  (1) 
2
1 13 hydrophobe
1 9 hydrophobe

>  <PUBCHEM_HEAVY_ATOM_COUNT>  (1) 
13

>  <PUBCHEM_ATOM_DEF_STEREO_COUNT>  (1) 
0

>  <PUBCHEM_ATOM_UDEF_STEREO_COUNT>  (1) 
0

>  <PUBCHEM_BOND_DEF_STEREO_COUNT>  (1) 
0

>  <PUBCHEM_BOND_UDEF_STEREO_COUNT>  (1) 
0

>  <PUBCHEM_ISOTOPIC_ATOM_COUNT>  (1) 
0

>  <PUBCHEM_COMPONENT_COUNT>  (1) 
1

>  <PUBCHEM_CACTVS_TAUTO_COUNT>  (1) 
1

>  <PUBCHEM_CONFORMER_ID>  (1) 
0000378700000001

>  <PUBCHEM_MMFF94_ENERGY>  (1) 
8.801

>  <PUBCHEM_FEATURE_SELFOVERLAP>  (1) 
10.149

>  <PUBCHEM_SHAPE_FINGERPRINT>  (1) 
11265709 11 18337955692066155259
11357001 24 18410579448692782257
12500047 106 18195522585082273216
12757275 245 18409449150660482398
13955234 65 17332530580408208315
14965852 173 18410293562890348376
17539 30 18339067234034237365
20524608 308 18267584602577689985
20645477 70 17901093441699554495
20671657 53 18196373843347785391
20724930 33 18411138056149553883
20871998 184 18272932700102183415
20871998 22 18195241341922766921
21426921 1 18411419475618600954
21452121 199 18192982931901296616
23402539 116 18334572447669747586
23557571 272 18201162036261166700
257057 1 18267583683792298617
3086196 2 18411414003719463650

>  <PUBCHEM_SHAPE_MULTIPOLES>  (1) 
260.53
7.82
3.66
0.8
10.77
0.89
0.02
-6.95
-0.12
-5.26
-0.15
-0.18
0.06
-0.61

>  <PUBCHEM_SHAPE_SELFOVERLAP>  (1) 
461.634

>  <PUBCHEM_SHAPE_VOLUME>  (1) 
171.2

>  <PUBCHEM_COORDINATE_TYPE>  (1) 
2
5
10

$$$$
