14214
     RDKit          3D

  8  7  0  0  0  0  0  0  0  0999 V2000
   -2.3480    0.5364    0.0477 O   0  0  0  0  0  0  0  0  0  0  0  0
    1.2451   -1.4507   -0.4364 O   0  0  0  0  0  0  0  0  0  0  0  0
   -0.0048    0.5126   -0.0720 N   0  0  0  0  0  0  0  0  0  0  0  0
   -1.2825   -0.0873    0.0578 C   0  0  0  0  0  0  0  0  0  0  0  0
    1.1675   -0.2830   -0.0494 C   0  0  0  0  0  0  0  0  0  0  0  0
    0.1213    1.9645   -0.2315 C   0  0  0  0  0  0  0  0  0  0  0  0
   -1.3207   -1.5861    0.2249 C   0  0  0  0  0  0  0  0  0  0  0  0
    2.4220    0.3937    0.4590 C   0  0  0  0  0  0  0  0  0  0  0  0
  1  4  2  0
  2  5  2  0
  3  4  1  0
  3  5  1  0
  3  6  1  0
  4  7  1  0
  5  8  1  0
M  END
>  <PUBCHEM_COMPOUND_CID>  (1) 
14214

>  <PUBCHEM_CONFORMER_RMSD>  (1) 
0.4

>  <PUBCHEM_CONFORMER_DIVERSEORDER>  (1) 
1
5
6
4
2
3

>  <PUBCHEM_MMFF94_PARTIAL_CHARGES>  (1) 
8
1 -0.57
2 -0.57
3 -0.42
4 0.57
5 0.57
6 0.3
7 0.06
8 0.06

>  <PUBCHEM_EFFECTIVE_ROTOR_COUNT>  (1) 
2

>  <PUBCHEM_PHARMACOPHORE_FEATURES>  (1) 
2
1 1 acceptor
1 2 acceptor

>  <PUBCHEM_HEAVY_ATOM_COUNT>  (1) 
8

>  <PUBCHEM_ATOM_DEF_STEREO_COUNT>  (1) 
0

>  <PUBCHEM_ATOM_UDEF_STEREO_COUNT>  (1) 
0

>  <PUBCHEM_BOND_DEF_STEREO_COUNT>  (1) 
0

>  <PUBCHEM_BOND_UDEF_STEREO_COUNT>  (1) 
0

>  <PUBCHEM_ISOTOPIC_ATOM_COUNT>  (1) 
0

>  <PUBCHEM_COMPONENT_COUNT>  (1) 
1

>  <PUBCHEM_CACTVS_TAUTO_COUNT>  (1) 
1

>  <PUBCHEM_CONFORMER_ID>  (1) 
0000378600000001

>  <PUBCHEM_MMFF94_ENERGY>  (1) 
22.7967

>  <PUBCHEM_FEATURE_SELFOVERLAP>  (1) 
10.149

>  <PUBCHEM_SHAPE_FINGERPRINT>  (1) 
10857977 72 18266728263635022016
16714656 1 18336550412809851956
18185500 45 18409168839377159907
21040471 1 18409735019214449191
23552423 10 18259708886940672270
24536 1 18338793541274509571
29004967 10 18409454690930716208

>  <PUBCHEM_SHAPE_MULTIPOLES>  (1) 
147.92
2.78
1.75
0.64
0.21
0.25
0.02
-0.18
0.39
-0.13
-0.17
0.09
-0.03
0.12

>  <PUBCHEM_SHAPE_SELFOVERLAP>  (1) 
275.829

>  <PUBCHEM_SHAPE_VOLUME>  (1) 
94

>  <PUBCHEM_COORDINATE_TYPE>  (1) 
2
5
10

$$$$
