14211
     RDKit          3D

 11 10  0  0  0  0  0  0  0  0999 V2000
   -0.0502    0.2641   -0.3278 N   0  0  0  0  0  0  0  0  0  0  0  0
   -2.0692   -0.7798    0.2918 N   0  0  0  0  0  0  0  0  0  0  0  0
   -0.1077   -2.0159    0.4170 N   0  0  0  0  0  0  0  0  0  0  0  0
   -3.2826    1.3482   -0.2185 N   0  0  0  0  0  0  0  0  0  0  0  0
    1.4079    0.1703   -0.5007 C   0  0  0  0  0  0  0  0  0  0  0  0
    2.0623   -0.1031    0.8685 C   0  0  0  0  0  0  0  0  0  0  0  0
    1.6880   -0.9363   -1.5195 C   0  0  0  0  0  0  0  0  0  0  0  0
    1.8978    1.5152   -1.0500 C   0  0  0  0  0  0  0  0  0  0  0  0
    1.8161    0.9685    1.9246 C   0  0  0  0  0  0  0  0  0  0  0  0
   -0.6469   -0.7946    0.0977 C   0  0  0  0  0  0  0  0  0  0  0  0
   -2.7155    0.3635    0.0169 C   0  0  0  0  0  0  0  0  0  0  0  0
  1  5  1  0
  1 10  2  0
  2 10  1  0
  2 11  1  0
  3 10  1  0
  4 11  3  0
  5  6  1  0
  5  7  1  0
  5  8  1  0
  6  9  1  0
M  END
>  <PUBCHEM_COMPOUND_CID>  (1) 
14211

>  <PUBCHEM_CONFORMER_RMSD>  (1) 
0.6

>  <PUBCHEM_CONFORMER_DIVERSEORDER>  (1) 
1
11
23
18
15
3
7
9
13
16
5
14
17
6
12
10
21
4
8
19
2
22
20

>  <PUBCHEM_MMFF94_PARTIAL_CHARGES>  (1) 
10
1 -0.7
10 0.55
11 0.62
2 -0.51
23 0.4
24 0.4
25 0.4
3 -0.85
4 -0.56
5 0.25

>  <PUBCHEM_EFFECTIVE_ROTOR_COUNT>  (1) 
3

>  <PUBCHEM_PHARMACOPHORE_FEATURES>  (1) 
6
1 2 donor
1 3 donor
1 4 acceptor
1 9 hydrophobe
3 5 7 8 hydrophobe
4 1 2 3 10 cation

>  <PUBCHEM_HEAVY_ATOM_COUNT>  (1) 
11

>  <PUBCHEM_ATOM_DEF_STEREO_COUNT>  (1) 
0

>  <PUBCHEM_ATOM_UDEF_STEREO_COUNT>  (1) 
0

>  <PUBCHEM_BOND_DEF_STEREO_COUNT>  (1) 
0

>  <PUBCHEM_BOND_UDEF_STEREO_COUNT>  (1) 
0

>  <PUBCHEM_ISOTOPIC_ATOM_COUNT>  (1) 
0

>  <PUBCHEM_COMPONENT_COUNT>  (1) 
1

>  <PUBCHEM_CACTVS_TAUTO_COUNT>  (1) 
3

>  <PUBCHEM_CONFORMER_ID>  (1) 
0000378300000001

>  <PUBCHEM_MMFF94_ENERGY>  (1) 
44.3309

>  <PUBCHEM_FEATURE_SELFOVERLAP>  (1) 
30.493

>  <PUBCHEM_SHAPE_FINGERPRINT>  (1) 
12326174 3 16056610854296827748
12932764 1 17632585984650883639
14390081 3 18272927198766022201
16945 1 18124060964684807574
21040471 1 18336549407808863503
21061003 4 14780361506910991024
21947302 44 17274818073326066313
230 275 18337951199546012441
23211744 41 17987506181717536123
5084963 1 18342472447051577415

>  <PUBCHEM_SHAPE_MULTIPOLES>  (1) 
206.45
4.08
1.58
1.42
3.59
0.22
0.12
-1.61
-0.32
-0.17
0.08
-1.14
-0.29
0.64

>  <PUBCHEM_SHAPE_SELFOVERLAP>  (1) 
393.478

>  <PUBCHEM_SHAPE_VOLUME>  (1) 
123.1

>  <PUBCHEM_COORDINATE_TYPE>  (1) 
2
5
10

$$$$
