14217
     RDKit          3D

  6  5  0  0  0  0  0  0  0  0999 V2000
    0.0006    0.2190    0.6476 S   0  0  0  0  0  0  0  0  0  0  0  0
   -0.0001    1.5050   -0.1234 O   0  0  0  0  0  0  0  0  0  0  0  0
    1.3593   -0.7434    0.0146 C   0  0  0  0  0  0  0  0  0  0  0  0
   -1.3597   -0.7436    0.0146 C   0  0  0  0  0  0  0  0  0  0  0  0
    2.5043   -0.1186   -0.2768 C   0  0  0  0  0  0  0  0  0  0  0  0
   -2.5044   -0.1184   -0.2766 C   0  0  0  0  0  0  0  0  0  0  0  0
  1  2  2  0
  1  3  1  0
  1  4  1  0
  3  5  2  0
  4  6  2  0
M  END
>  <PUBCHEM_COMPOUND_CID>  (1) 
14217

>  <PUBCHEM_CONFORMER_RMSD>  (1) 
0.4

>  <PUBCHEM_CONFORMER_DIVERSEORDER>  (1) 
1
14
4
11
3
12
2
13
5
6
8
9
7
10

>  <PUBCHEM_MMFF94_PARTIAL_CHARGES>  (1) 
12
1 0.39
10 0.15
11 0.15
12 0.15
2 -0.5
3 -0.09
4 -0.09
5 -0.3
6 -0.3
7 0.15
8 0.15
9 0.15

>  <PUBCHEM_EFFECTIVE_ROTOR_COUNT>  (1) 
2

>  <PUBCHEM_PHARMACOPHORE_FEATURES>  (1) 
1
1 2 acceptor

>  <PUBCHEM_HEAVY_ATOM_COUNT>  (1) 
6

>  <PUBCHEM_ATOM_DEF_STEREO_COUNT>  (1) 
0

>  <PUBCHEM_ATOM_UDEF_STEREO_COUNT>  (1) 
0

>  <PUBCHEM_BOND_DEF_STEREO_COUNT>  (1) 
0

>  <PUBCHEM_BOND_UDEF_STEREO_COUNT>  (1) 
0

>  <PUBCHEM_ISOTOPIC_ATOM_COUNT>  (1) 
0

>  <PUBCHEM_COMPONENT_COUNT>  (1) 
1

>  <PUBCHEM_CACTVS_TAUTO_COUNT>  (1) 
1

>  <PUBCHEM_CONFORMER_ID>  (1) 
0000378900000001

>  <PUBCHEM_MMFF94_ENERGY>  (1) 
8.2519

>  <PUBCHEM_FEATURE_SELFOVERLAP>  (1) 
5.074

>  <PUBCHEM_SHAPE_FINGERPRINT>  (1) 
139733 1 8070028869538741803
14390081 3 12757139186951459151
16714656 1 18412826854522873359
23552423 10 18117845391114571106
23552449 11 17702930539192876571
29004967 10 18410298033545043794
5460574 1 8862944978528845883
5943 1 10725544287519602544

>  <PUBCHEM_SHAPE_MULTIPOLES>  (1) 
121.46
3.37
1.09
0.73
0
0.31
-0.07
-0.58
0.62
0
0.04
0
0.01
0

>  <PUBCHEM_SHAPE_SELFOVERLAP>  (1) 
204.628

>  <PUBCHEM_SHAPE_VOLUME>  (1) 
82.2

>  <PUBCHEM_COORDINATE_TYPE>  (1) 
2
5
10

$$$$
