1421
     RDKit          3D

 27 30  0  0  1  0  0  0  0  0999 V2000
   -2.4467   -1.9027    0.3048 O   0  0  0  0  0  0  0  0  0  0  0  0
    2.2697   -1.1359   -0.0200 O   0  0  0  0  0  0  0  0  0  0  0  0
   -0.7725    2.6121   -0.1296 O   0  0  0  0  0  0  0  0  0  0  0  0
   -3.2619    2.0874    0.1514 O   0  0  0  0  0  0  0  0  0  0  0  0
   -0.0244    4.7622   -0.3258 O   0  0  0  0  0  0  0  0  0  0  0  0
   -4.1045   -0.1488    0.4586 C   0  0  0  0  0  0  0  0  0  0  0  0
   -3.6875   -1.4414   -0.2468 C   0  0  0  0  0  0  0  0  0  0  0  0
   -1.6249    0.3709    0.0901 C   0  0  0  0  0  0  0  0  0  0  0  0
   -1.4156   -1.0072    0.1650 C   0  0  0  0  0  0  0  0  0  0  0  0
   -0.1104   -1.5260    0.1324 C   0  0  0  0  0  0  0  0  0  0  0  0
    0.9868   -0.6530   -0.0158 C   0  0  0  0  0  0  0  0  0  0  0  0
    0.8050    0.7454   -0.1128 C   0  0  0  0  0  0  0  0  0  0  0  0
   -3.0188    0.8869    0.2053 C   0  0  0  0  0  0  0  0  0  0  0  0
   -0.5155    1.2226   -0.0537 C   0  0  0  0  0  0  0  0  0  0  0  0
    2.5119   -2.5288   -0.2913 C   0  0  0  0  0  0  0  0  0  0  0  0
    1.8913    1.7454   -0.2715 C   0  0  0  0  0  0  0  0  0  0  0  0
    0.1298   -2.9633    0.2570 C   0  0  0  0  0  0  0  0  0  0  0  0
   -5.4623    0.3735   -0.0070 C   0  0  0  0  0  0  0  0  0  0  0  0
    1.3600   -3.4331    0.0456 C   0  0  0  0  0  0  0  0  0  0  0  0
   -4.6864   -2.5793   -0.0566 C   0  0  0  0  0  0  0  0  0  0  0  0
    3.3359    1.3403   -0.3682 C   0  0  0  0  0  0  0  0  0  0  0  0
    3.7237   -2.9114    0.5673 C   0  0  0  0  0  0  0  0  0  0  0  0
    2.8721   -2.6613   -1.7755 C   0  0  0  0  0  0  0  0  0  0  0  0
    1.5888    3.0501   -0.3396 C   0  0  0  0  0  0  0  0  0  0  0  0
    3.9921    1.2829    1.0053 C   0  0  0  0  0  0  0  0  0  0  0  0
    0.2186    3.5629   -0.2662 C   0  0  0  0  0  0  0  0  0  0  0  0
    5.4459    0.8494    0.8977 C   0  0  0  0  0  0  0  0  0  0  0  0
  1  7  1  0
  1  9  1  0
  2 11  1  0
  2 15  1  0
  3 14  1  0
  3 26  1  0
  4 13  2  0
  5 26  2  0
  6  7  1  0
  6 13  1  0
  6 18  1  0
  7 20  1  0
  8  9  2  0
  8 13  1  0
  8 14  1  0
  9 10  1  0
 10 11  2  0
 10 17  1  0
 11 12  1  0
 12 14  2  0
 12 16  1  0
 15 19  1  0
 15 22  1  0
 15 23  1  0
 16 21  1  0
 16 24  2  0
 17 19  2  0
 21 25  1  0
 24 26  1  0
 25 27  1  0
M  END
>  <PUBCHEM_COMPOUND_CID>  (1) 
1421

>  <PUBCHEM_CONFORMER_RMSD>  (1) 
0.6

>  <PUBCHEM_CONFORMER_DIVERSEORDER>  (1) 
5
4
3
10
8
9
2
7
1
6

>  <PUBCHEM_MMFF94_PARTIAL_CHARGES>  (1) 
24
1 -0.36
10 0.03
11 0.08
12 0.03
13 0.42
14 0.08
15 0.42
16 -0.17
17 -0.18
19 -0.29
2 -0.36
21 0.14
24 -0.14
26 0.71
3 -0.23
30 0.15
34 0.15
4 -0.57
46 0.15
5 -0.57
6 0.06
7 0.28
8 0.09
9 0.08

>  <PUBCHEM_EFFECTIVE_ROTOR_COUNT>  (1) 
3

>  <PUBCHEM_PHARMACOPHORE_FEATURES>  (1) 
10
1 1 acceptor
1 2 acceptor
1 27 hydrophobe
1 4 acceptor
1 5 acceptor
3 15 22 23 hydrophobe
6 1 6 7 8 9 13 rings
6 2 10 11 15 17 19 rings
6 3 12 14 16 24 26 rings
6 8 9 10 11 12 14 rings

>  <PUBCHEM_HEAVY_ATOM_COUNT>  (1) 
27

>  <PUBCHEM_ATOM_DEF_STEREO_COUNT>  (1) 
0

>  <PUBCHEM_ATOM_UDEF_STEREO_COUNT>  (1) 
2

>  <PUBCHEM_BOND_DEF_STEREO_COUNT>  (1) 
0

>  <PUBCHEM_BOND_UDEF_STEREO_COUNT>  (1) 
0

>  <PUBCHEM_ISOTOPIC_ATOM_COUNT>  (1) 
0

>  <PUBCHEM_COMPONENT_COUNT>  (1) 
1

>  <PUBCHEM_CACTVS_TAUTO_COUNT>  (1) 
2

>  <PUBCHEM_CONFORMER_ID>  (1) 
0000058D00000005

>  <PUBCHEM_MMFF94_ENERGY>  (1) 
89.6768

>  <PUBCHEM_FEATURE_SELFOVERLAP>  (1) 
50.826

>  <PUBCHEM_SHAPE_FINGERPRINT>  (1) 
10411042 1 18337674109736802899
10906281 52 18262252121813046704
10967382 1 18409733958273105037
1100329 8 17977943815190600138
11578080 2 17169532018479509382
12403260 363 18051126192601908327
12422481 6 18268408193291519178
12553582 1 18193849132600832431
12788726 201 17974021547829348626
12839892 36 18338782477728827986
13140716 1 18337672996996940395
13402501 40 18413108356034272306
138480 1 18410014321117082141
14178342 30 18341898501961195425
14223421 5 18195243321960861912
14466204 15 18338230578310014920
14790565 3 18193002736323396980
15081414 286 18411709785353764345
15196674 1 18410856560209969563
15403338 16 17242140553742325234
15420108 30 18201990058358345510
15536298 74 18342179942435502199
16087824 20 17832991547312613013
16945 1 18121792878296866475
17492 89 18411139177796141675
18681886 176 18195801001778596808
19591789 44 17761778759881243827
19930381 70 18409448119620177659
20028762 73 17984702487201972855
20642791 35 18194969530295463483
20691752 17 17676773088949088722
20739085 24 18195556747225590305
20775438 99 17688831330234546397
20905425 154 18341336574689505764
21197605 99 17472994268751653755
22113638 7 18195239151573932940
221490 88 18336557074795336187
22182313 1 18262510382122264084
2334 1 18410017649453031383
23557571 272 17623568645269052822
23558518 356 17972886865025524584
23559900 14 18412260623304238691
23566358 2 18337666430302979981
2748010 2 18410018714715807566
3178227 256 18119822562313694603
335352 9 18337107981591621653
3380486 145 18334584512364841977
350125 39 18120657087555354681
352729 6 17834122213698717539
484985 159 15079251459584449962
5104073 3 18411145710472587107
5265222 85 18197500843583946288
59554788 170 18269277863485307630
59755656 215 18409446968948770204
6138700 20 18410577301657624406
6443956 14 18408326574915843909
7364860 26 18411985749565680855
9709674 26 18336271240500621187
9981440 41 17833265703110436465

>  <PUBCHEM_SHAPE_MULTIPOLES>  (1) 
526.3
8.7
5.09
0.85
4.31
1.76
0.14
-1.82
-1.44
-2.39
0.72
-0.7
-0.28
0.43

>  <PUBCHEM_SHAPE_SELFOVERLAP>  (1) 
1151.023

>  <PUBCHEM_SHAPE_VOLUME>  (1) 
285.9

>  <PUBCHEM_COORDINATE_TYPE>  (1) 
2
5
10

$$$$
