14221
     RDKit          3D

 11 10  0  0  0  0  0  0  0  0999 V2000
   -1.8952    1.6659    0.0040 O   0  0  0  0  0  0  0  0  0  0  0  0
   -3.1905   -0.2567   -0.0126 N   0  0  0  0  0  0  0  0  0  0  0  0
    1.8295   -0.5135    0.0445 C   0  0  0  0  0  0  0  0  0  0  0  0
    0.5866    0.3821    0.0331 C   0  0  0  0  0  0  0  0  0  0  0  0
    3.1127    0.3196    0.0271 C   0  0  0  0  0  0  0  0  0  0  0  0
   -0.7144   -0.4242    0.0142 C   0  0  0  0  0  0  0  0  0  0  0  0
    4.3538   -0.5718   -0.0101 C   0  0  0  0  0  0  0  0  0  0  0  0
   -1.9742    0.4348    0.0047 C   0  0  0  0  0  0  0  0  0  0  0  0
    5.6303    0.2525   -0.0604 C   0  0  0  0  0  0  0  0  0  0  0  0
   -4.4775    0.4275   -0.0332 C   0  0  0  0  0  0  0  0  0  0  0  0
   -3.2611   -1.7159   -0.0113 C   0  0  0  0  0  0  0  0  0  0  0  0
  1  8  2  0
  2  8  1  0
  2 10  1  0
  2 11  1  0
  3  4  1  0
  3  5  1  0
  4  6  1  0
  5  7  1  0
  6  8  1  0
  7  9  1  0
M  END
>  <PUBCHEM_COMPOUND_CID>  (1) 
14221

>  <PUBCHEM_CONFORMER_RMSD>  (1) 
0.6

>  <PUBCHEM_CONFORMER_DIVERSEORDER>  (1) 
1
92
40
100
69
3
72
68
149
27
104
130
150
30
134
22
73
43
26
78
58
118
21
129
63
17
31
54
19
137
49
14
85
48
138
44
38
66
20
46
139
11
80
119
24
64
143
39
29
36
146
12
56
33
51
86
90
109
7
42
83
50
105
5
53
32
70
79
140
131
45
35
65
23
28
117
41
87
59
75
112
91
37
147
120
114
84
18
101
111
60
8
127
144
97
77
15
88
132
25
4
16
13
135
148
98
89
122
133
121
55
103
126
136
113
82
34
2
96
52
108
94
106
123
62
142
57
125
145
110
67
124
10
93
6
141
9
102
61
74
47
71
107
115
81
128
76
116
99
95

>  <PUBCHEM_MMFF94_PARTIAL_CHARGES>  (1) 
6
1 -0.57
10 0.3
11 0.3
2 -0.66
6 0.06
8 0.57

>  <PUBCHEM_EFFECTIVE_ROTOR_COUNT>  (1) 
6

>  <PUBCHEM_PHARMACOPHORE_FEATURES>  (1) 
3
1 1 acceptor
1 9 hydrophobe
5 3 4 5 6 7 hydrophobe

>  <PUBCHEM_HEAVY_ATOM_COUNT>  (1) 
11

>  <PUBCHEM_ATOM_DEF_STEREO_COUNT>  (1) 
0

>  <PUBCHEM_ATOM_UDEF_STEREO_COUNT>  (1) 
0

>  <PUBCHEM_BOND_DEF_STEREO_COUNT>  (1) 
0

>  <PUBCHEM_BOND_UDEF_STEREO_COUNT>  (1) 
0

>  <PUBCHEM_ISOTOPIC_ATOM_COUNT>  (1) 
0

>  <PUBCHEM_COMPONENT_COUNT>  (1) 
1

>  <PUBCHEM_CACTVS_TAUTO_COUNT>  (1) 
1

>  <PUBCHEM_CONFORMER_ID>  (1) 
0000378D00000001

>  <PUBCHEM_MMFF94_ENERGY>  (1) 
10.2352

>  <PUBCHEM_FEATURE_SELFOVERLAP>  (1) 
15.223

>  <PUBCHEM_SHAPE_FINGERPRINT>  (1) 
11062470 55 10881400932972626442
12757275 245 18337954601060371291
12932764 1 17059759049436385590
14123238 8 17989487429157205380
14251718 22 18335703879768130934
15501527 16 18337955580713802441
17834072 33 18260833743539493532
17834076 25 15285357314459221301
1986462 14 18411140208286729060
20279233 1 17846787303645360455
20645477 56 18335981965863151573
20645477 70 16629970902311104926
20719005 15 18410856556014741762
20828058 21 18342177756961494622
20828058 44 18413108372496846630
22485316 2 18408038503085715594
23380061 127 18409164389959878868
23402539 116 18335414686102394750
23557571 272 18129949979228712196
42788 4 18410293610140035916
58051976 378 18342740697839938214

>  <PUBCHEM_SHAPE_MULTIPOLES>  (1) 
215.52
11.03
1.21
0.6
9.13
0.12
0
0.39
0.24
-1.19
0
0.04
0.01
-0.01

>  <PUBCHEM_SHAPE_SELFOVERLAP>  (1) 
388.964

>  <PUBCHEM_SHAPE_VOLUME>  (1) 
139.9

>  <PUBCHEM_COORDINATE_TYPE>  (1) 
2
5
10

$$$$
