14233
     RDKit          3D

  8  7  0  0  0  0  0  0  0  0999 V2000
    1.5336   -1.1964    0.0009 O   0  0  0  0  0  0  0  0  0  0  0  0
    0.2159    0.7190   -0.0002 N   0  0  0  0  0  0  0  0  0  0  0  0
    2.5005    0.8858    0.0014 N   0  0  0  0  0  0  0  0  0  0  0  0
   -1.0787    0.0622   -0.0007 C   0  0  0  0  0  0  0  0  0  0  0  0
   -2.1852    1.1232   -0.0015 C   0  0  0  0  0  0  0  0  0  0  0  0
   -1.1967   -0.8112   -1.2541 C   0  0  0  0  0  0  0  0  0  0  0  0
   -1.2048   -0.8103    1.2536 C   0  0  0  0  0  0  0  0  0  0  0  0
    1.4154    0.0278    0.0005 C   0  0  0  0  0  0  0  0  0  0  0  0
  1  8  2  0
  2  4  1  0
  2  8  1  0
  3  8  1  0
  4  5  1  0
  4  6  1  0
  4  7  1  0
M  END
>  <PUBCHEM_COMPOUND_CID>  (1) 
14233

>  <PUBCHEM_CONFORMER_RMSD>  (1) 
0.4

>  <PUBCHEM_CONFORMER_DIVERSEORDER>  (1) 
1
2

>  <PUBCHEM_MMFF94_PARTIAL_CHARGES>  (1) 
8
1 -0.57
18 0.37
19 0.37
2 -0.73
20 0.37
3 -0.8
4 0.3
8 0.69

>  <PUBCHEM_EFFECTIVE_ROTOR_COUNT>  (1) 
2

>  <PUBCHEM_PHARMACOPHORE_FEATURES>  (1) 
4
1 1 acceptor
1 2 donor
1 3 donor
4 4 5 6 7 hydrophobe

>  <PUBCHEM_HEAVY_ATOM_COUNT>  (1) 
8

>  <PUBCHEM_ATOM_DEF_STEREO_COUNT>  (1) 
0

>  <PUBCHEM_ATOM_UDEF_STEREO_COUNT>  (1) 
0

>  <PUBCHEM_BOND_DEF_STEREO_COUNT>  (1) 
0

>  <PUBCHEM_BOND_UDEF_STEREO_COUNT>  (1) 
0

>  <PUBCHEM_ISOTOPIC_ATOM_COUNT>  (1) 
0

>  <PUBCHEM_COMPONENT_COUNT>  (1) 
1

>  <PUBCHEM_CACTVS_TAUTO_COUNT>  (1) 
3

>  <PUBCHEM_CONFORMER_ID>  (1) 
0000379900000001

>  <PUBCHEM_MMFF94_ENERGY>  (1) 
16.5295

>  <PUBCHEM_FEATURE_SELFOVERLAP>  (1) 
20.35

>  <PUBCHEM_SHAPE_FINGERPRINT>  (1) 
14390081 3 18343298188847916432
21040471 1 18410855434390097476
24536 1 18040994072365801076
29004967 10 18334303097063395160
369184 2 16081358700300386648
5084963 1 18191868929312592817
5943 1 13226773532846823111

>  <PUBCHEM_SHAPE_MULTIPOLES>  (1) 
148.8
2.95
1.22
1.02
1.2
0.01
0
-0.76
0
-0.12
0
-0.51
0.36
0

>  <PUBCHEM_SHAPE_SELFOVERLAP>  (1) 
276.699

>  <PUBCHEM_SHAPE_VOLUME>  (1) 
94.5

>  <PUBCHEM_COORDINATE_TYPE>  (1) 
2
5
10

$$$$
