14237
     RDKit          3D

  9  8  0  0  0  0  0  0  0  0999 V2000
   -3.1917    0.8494   -0.0087 O   0  0  0  0  0  0  0  0  0  0  0  0
   -2.3992   -1.2810    0.0166 O   0  0  0  0  0  0  0  0  0  0  0  0
    1.7180   -0.0181    0.0109 C   0  0  0  0  0  0  0  0  0  0  0  0
    0.2542   -0.5256    0.0856 C   0  0  0  0  0  0  0  0  0  0  0  0
    2.7148   -1.1883    0.0470 C   0  0  0  0  0  0  0  0  0  0  0  0
    1.8982    0.7366   -1.3207 C   0  0  0  0  0  0  0  0  0  0  0  0
    2.0290    0.9484    1.1656 C   0  0  0  0  0  0  0  0  0  0  0  0
   -0.8255    0.5522   -0.0044 C   0  0  0  0  0  0  0  0  0  0  0  0
   -2.1979   -0.0736    0.0082 C   0  0  0  0  0  0  0  0  0  0  0  0
  1  9  1  0
  2  9  2  0
  3  4  1  0
  3  5  1  0
  3  6  1  0
  3  7  1  0
  4  8  1  0
  8  9  1  0
M  END
>  <PUBCHEM_COMPOUND_CID>  (1) 
14237

>  <PUBCHEM_CONFORMER_RMSD>  (1) 
0.6

>  <PUBCHEM_CONFORMER_DIVERSEORDER>  (1) 
1
3
4
2

>  <PUBCHEM_MMFF94_PARTIAL_CHARGES>  (1) 
5
1 -0.65
2 -0.57
23 0.5
8 0.06
9 0.66

>  <PUBCHEM_EFFECTIVE_ROTOR_COUNT>  (1) 
3

>  <PUBCHEM_PHARMACOPHORE_FEATURES>  (1) 
4
1 1 acceptor
1 2 acceptor
3 1 2 9 anion
4 3 5 6 7 hydrophobe

>  <PUBCHEM_HEAVY_ATOM_COUNT>  (1) 
9

>  <PUBCHEM_ATOM_DEF_STEREO_COUNT>  (1) 
0

>  <PUBCHEM_ATOM_UDEF_STEREO_COUNT>  (1) 
0

>  <PUBCHEM_BOND_DEF_STEREO_COUNT>  (1) 
0

>  <PUBCHEM_BOND_UDEF_STEREO_COUNT>  (1) 
0

>  <PUBCHEM_ISOTOPIC_ATOM_COUNT>  (1) 
0

>  <PUBCHEM_COMPONENT_COUNT>  (1) 
1

>  <PUBCHEM_CACTVS_TAUTO_COUNT>  (1) 
1

>  <PUBCHEM_CONFORMER_ID>  (1) 
0000379D00000001

>  <PUBCHEM_MMFF94_ENERGY>  (1) 
15.8755

>  <PUBCHEM_FEATURE_SELFOVERLAP>  (1) 
20.355

>  <PUBCHEM_SHAPE_FINGERPRINT>  (1) 
10857977 72 18267577082284997185
12932741 1 17846503659636162573
12932764 1 18130513027865719119
14325111 11 18411417323544631979
14390081 3 18273209807413710433
20711985 344 16914002204616979120
21040471 1 18337392759186952122
23235687 12 17676200299209436783
23552423 10 18114183033762020819
29004967 10 16128661846727402354
3248919 1 17968090971192674099
5084963 1 18261393325663502562

>  <PUBCHEM_SHAPE_MULTIPOLES>  (1) 
173.48
4.71
1.2
0.96
2.63
0.18
-0.09
0.22
0.06
-0.19
0.06
-0.71
-0.31
0.04

>  <PUBCHEM_SHAPE_SELFOVERLAP>  (1) 
321.137

>  <PUBCHEM_SHAPE_VOLUME>  (1) 
110.6

>  <PUBCHEM_COORDINATE_TYPE>  (1) 
2
5
10

$$$$
