14238
     RDKit          3D

  6  5  0  0  0  0  0  0  0  0999 V2000
   -1.0711    0.0736    0.0000 C   0  0  0  0  0  0  0  0  0  0  0  0
    0.3270    0.4841    0.0002 C   0  0  0  0  0  0  0  0  0  0  0  0
   -1.4131   -1.3909   -0.0001 C   0  0  0  0  0  0  0  0  0  0  0  0
    1.3953   -0.3289    0.0003 C   0  0  0  0  0  0  0  0  0  0  0  0
    2.8067    0.1629   -0.0003 C   0  0  0  0  0  0  0  0  0  0  0  0
   -2.0448    0.9992   -0.0001 C   0  0  0  0  0  0  0  0  0  0  0  0
  1  2  1  0
  1  3  1  0
  1  6  2  0
  2  4  2  0
  4  5  1  0
M  END
>  <PUBCHEM_COMPOUND_CID>  (1) 
14238

>  <PUBCHEM_CONFORMER_RMSD>  (1) 
0.4

>  <PUBCHEM_CONFORMER_DIVERSEORDER>  (1) 
1

>  <PUBCHEM_MMFF94_PARTIAL_CHARGES>  (1) 
10
1 -0.14
11 0.15
15 0.15
16 0.15
2 -0.15
3 0.14
4 -0.29
5 0.14
6 -0.3
7 0.15

>  <PUBCHEM_EFFECTIVE_ROTOR_COUNT>  (1) 
1

>  <PUBCHEM_PHARMACOPHORE_FEATURES>  (1) 
1
1 5 hydrophobe

>  <PUBCHEM_HEAVY_ATOM_COUNT>  (1) 
6

>  <PUBCHEM_ATOM_DEF_STEREO_COUNT>  (1) 
0

>  <PUBCHEM_ATOM_UDEF_STEREO_COUNT>  (1) 
0

>  <PUBCHEM_BOND_DEF_STEREO_COUNT>  (1) 
0

>  <PUBCHEM_BOND_UDEF_STEREO_COUNT>  (1) 
1

>  <PUBCHEM_ISOTOPIC_ATOM_COUNT>  (1) 
0

>  <PUBCHEM_COMPONENT_COUNT>  (1) 
1

>  <PUBCHEM_CACTVS_TAUTO_COUNT>  (1) 
1

>  <PUBCHEM_CONFORMER_ID>  (1) 
0000379E00000001

>  <PUBCHEM_MMFF94_ENERGY>  (1) 
4.8419

>  <PUBCHEM_FEATURE_SELFOVERLAP>  (1) 
5.074

>  <PUBCHEM_SHAPE_FINGERPRINT>  (1) 
12932741 1 17775001314859956008
14390081 3 18272927224298663560
16714656 1 18335422335449665757
20096714 4 18335984168674647297
21040471 1 18338797793202455333
23552423 10 18260551112879242654
23552449 1 18341328980549302009
24536 1 18340193176489864948
29004967 10 17203615903930084994
5460574 1 9223227446891668672

>  <PUBCHEM_SHAPE_MULTIPOLES>  (1) 
123.48
3.49
1.17
0.62
2.04
0.27
0
-0.36
0
-0.75
0
0
0
0

>  <PUBCHEM_SHAPE_SELFOVERLAP>  (1) 
221.03

>  <PUBCHEM_SHAPE_VOLUME>  (1) 
81.4

>  <PUBCHEM_COORDINATE_TYPE>  (1) 
2
5
10

$$$$
