14230
     RDKit          3D

  8  7  0  0  0  0  0  0  0  0999 V2000
   -1.8975    1.7929   -0.0216 O   0  0  0  0  0  0  0  0  0  0  0  0
   -1.3168   -0.4747    0.0655 N   0  0  0  0  0  0  0  0  0  0  0  0
    1.0890   -0.1170   -0.2369 C   0  0  0  0  0  0  0  0  0  0  0  0
   -0.0490   -0.3040    0.7651 C   0  0  0  0  0  0  0  0  0  0  0  0
    2.4261    0.0854    0.4769 C   0  0  0  0  0  0  0  0  0  0  0  0
    3.5695    0.2370   -0.5138 C   0  0  0  0  0  0  0  0  0  0  0  0
   -1.7081   -1.8285   -0.2797 C   0  0  0  0  0  0  0  0  0  0  0  0
   -2.1133    0.6089   -0.2556 C   0  0  0  0  0  0  0  0  0  0  0  0
  1  8  2  0
  2  4  1  0
  2  7  1  0
  2  8  1  0
  3  4  1  0
  3  5  1  0
  5  6  1  0
M  END
>  <PUBCHEM_COMPOUND_CID>  (1) 
14230

>  <PUBCHEM_CONFORMER_RMSD>  (1) 
0.6

>  <PUBCHEM_CONFORMER_DIVERSEORDER>  (1) 
2
20
8
22
13
3
17
19
18
9
15
21
12
14
10
16
23
1
24
4
6
5
7
11

>  <PUBCHEM_MMFF94_PARTIAL_CHARGES>  (1) 
6
1 -0.57
2 -0.66
21 0.06
4 0.3
7 0.3
8 0.57

>  <PUBCHEM_EFFECTIVE_ROTOR_COUNT>  (1) 
4

>  <PUBCHEM_PHARMACOPHORE_FEATURES>  (1) 
2
1 1 acceptor
1 6 hydrophobe

>  <PUBCHEM_HEAVY_ATOM_COUNT>  (1) 
8

>  <PUBCHEM_ATOM_DEF_STEREO_COUNT>  (1) 
0

>  <PUBCHEM_ATOM_UDEF_STEREO_COUNT>  (1) 
0

>  <PUBCHEM_BOND_DEF_STEREO_COUNT>  (1) 
0

>  <PUBCHEM_BOND_UDEF_STEREO_COUNT>  (1) 
0

>  <PUBCHEM_ISOTOPIC_ATOM_COUNT>  (1) 
0

>  <PUBCHEM_COMPONENT_COUNT>  (1) 
1

>  <PUBCHEM_CACTVS_TAUTO_COUNT>  (1) 
1

>  <PUBCHEM_CONFORMER_ID>  (1) 
0000379600000002

>  <PUBCHEM_MMFF94_ENERGY>  (1) 
2.9093

>  <PUBCHEM_FEATURE_SELFOVERLAP>  (1) 
10.148

>  <PUBCHEM_SHAPE_FINGERPRINT>  (1) 
12716758 59 18343015571409645314
12897270 3 18340763848894795718
12932741 1 17632290207480413634
12932764 1 18341897419903347114
14325111 11 18409729573712960450
14390081 3 18410289211977694752
16714656 1 18411416220038652291
19973954 147 18340203110971150024
20653085 51 18263658289647064608
21040471 1 18267575819517171787
23552449 1 18340764944005961185
29004967 10 16486981738416684602
3248919 1 17458061603733507762

>  <PUBCHEM_SHAPE_MULTIPOLES>  (1) 
153.79
4.74
1.44
0.77
4.11
0.01
-0.05
-0.56
0.8
-1.55
0.13
0.19
0.04
-0.07

>  <PUBCHEM_SHAPE_SELFOVERLAP>  (1) 
272.67

>  <PUBCHEM_SHAPE_VOLUME>  (1) 
100.9

>  <PUBCHEM_COORDINATE_TYPE>  (1) 
2
5
10

$$$$
