14244
     RDKit          3D

  8  7  0  0  0  0  0  0  0  0999 V2000
   -4.3078    0.2759    0.0454 Cl  0  0  0  0  0  0  0  0  0  0  0  0
    3.3147    0.8125    0.0050 O   0  0  0  0  0  0  0  0  0  0  0  0
    2.3860   -1.2617    0.0303 O   0  0  0  0  0  0  0  0  0  0  0  0
   -0.2456   -0.2981   -0.0527 C   0  0  0  0  0  0  0  0  0  0  0  0
   -1.5965    0.4221   -0.0074 C   0  0  0  0  0  0  0  0  0  0  0  0
    0.9340    0.6686   -0.0065 C   0  0  0  0  0  0  0  0  0  0  0  0
   -2.7478   -0.5755   -0.0240 C   0  0  0  0  0  0  0  0  0  0  0  0
    2.2631   -0.0439    0.0098 C   0  0  0  0  0  0  0  0  0  0  0  0
  1  7  1  0
  2  8  1  0
  3  8  2  0
  4  5  1  0
  4  6  1  0
  5  7  1  0
  6  8  1  0
M  END
>  <PUBCHEM_COMPOUND_CID>  (1) 
14244

>  <PUBCHEM_CONFORMER_RMSD>  (1) 
0.6

>  <PUBCHEM_CONFORMER_DIVERSEORDER>  (1) 
1
26
22
23
17
25
8
20
18
10
6
9
11
2
19
3
4
13
24
5
14
15
21
12
16
7

>  <PUBCHEM_MMFF94_PARTIAL_CHARGES>  (1) 
7
1 -0.29
17 0.5
2 -0.65
3 -0.57
6 0.06
7 0.29
8 0.66

>  <PUBCHEM_EFFECTIVE_ROTOR_COUNT>  (1) 
4

>  <PUBCHEM_PHARMACOPHORE_FEATURES>  (1) 
3
1 2 acceptor
1 3 acceptor
3 2 3 8 anion

>  <PUBCHEM_HEAVY_ATOM_COUNT>  (1) 
8

>  <PUBCHEM_ATOM_DEF_STEREO_COUNT>  (1) 
0

>  <PUBCHEM_ATOM_UDEF_STEREO_COUNT>  (1) 
0

>  <PUBCHEM_BOND_DEF_STEREO_COUNT>  (1) 
0

>  <PUBCHEM_BOND_UDEF_STEREO_COUNT>  (1) 
0

>  <PUBCHEM_ISOTOPIC_ATOM_COUNT>  (1) 
0

>  <PUBCHEM_COMPONENT_COUNT>  (1) 
1

>  <PUBCHEM_CACTVS_TAUTO_COUNT>  (1) 
1

>  <PUBCHEM_CONFORMER_ID>  (1) 
000037A400000001

>  <PUBCHEM_MMFF94_ENERGY>  (1) 
2.3075

>  <PUBCHEM_FEATURE_SELFOVERLAP>  (1) 
15.281

>  <PUBCHEM_SHAPE_FINGERPRINT>  (1) 
11062470 55 18343302578483451113
12932764 1 17417800747308681893
14325111 11 18410855464760791183
190213 19 17530967977756129645
20645477 70 18339640040721864239
5460574 1 9295292741705614636

>  <PUBCHEM_SHAPE_MULTIPOLES>  (1) 
154.77
6.95
0.96
0.6
3.65
0.12
0
-0.4
0.12
-0.42
0
0.1
-0.01
-0.02

>  <PUBCHEM_SHAPE_SELFOVERLAP>  (1) 
271.303

>  <PUBCHEM_SHAPE_VOLUME>  (1) 
102.2

>  <PUBCHEM_COORDINATE_TYPE>  (1) 
2
5
10

$$$$
