1424
     RDKit          3D

 21 20  0  0  1  0  0  0  0  0999 V2000
    5.2060   -2.2243   -0.4979 O   0  0  0  0  0  0  0  0  0  0  0  0
  -10.7359    0.0419   -0.4352 O   0  0  0  0  0  0  0  0  0  0  0  0
   -9.5322   -1.5364    0.6781 O   0  0  0  0  0  0  0  0  0  0  0  0
   -4.5861    0.1184    0.2776 C   0  0  0  0  0  0  0  0  0  0  0  0
   -3.4025    0.9901   -0.1455 C   0  0  0  0  0  0  0  0  0  0  0  0
   -5.9049    0.6677   -0.2688 C   0  0  0  0  0  0  0  0  0  0  0  0
   -2.0798    0.4224    0.3731 C   0  0  0  0  0  0  0  0  0  0  0  0
   -7.0841   -0.2221    0.1263 C   0  0  0  0  0  0  0  0  0  0  0  0
    7.5441   -0.5040    0.2039 C   0  0  0  0  0  0  0  0  0  0  0  0
    6.2061   -0.0150   -0.3647 C   0  0  0  0  0  0  0  0  0  0  0  0
    8.7261    0.4006   -0.1598 C   0  0  0  0  0  0  0  0  0  0  0  0
   -0.9002    1.3131   -0.0223 C   0  0  0  0  0  0  0  0  0  0  0  0
    5.0316   -0.9165    0.0413 C   0  0  0  0  0  0  0  0  0  0  0  0
   10.0492   -0.0443    0.4651 C   0  0  0  0  0  0  0  0  0  0  0  0
   -8.4058    0.3436   -0.3907 C   0  0  0  0  0  0  0  0  0  0  0  0
    0.3939    0.7723    0.5147 C   0  0  0  0  0  0  0  0  0  0  0  0
    3.7368   -0.3778   -0.4999 C   0  0  0  0  0  0  0  0  0  0  0  0
   11.1892    0.8801    0.0650 C   0  0  0  0  0  0  0  0  0  0  0  0
    1.4439    0.4552   -0.2573 C   0  0  0  0  0  0  0  0  0  0  0  0
    2.6860   -0.0604    0.2718 C   0  0  0  0  0  0  0  0  0  0  0  0
   -9.5814   -0.5047    0.0253 C   0  0  0  0  0  0  0  0  0  0  0  0
  1 13  1  0
  2 21  1  0
  3 21  2  0
  4  5  1  0
  4  6  1  0
  5  7  1  0
  6  8  1  0
  7 12  1  0
  8 15  1  0
  9 10  1  0
  9 11  1  0
 10 13  1  0
 11 14  1  0
 12 16  1  0
 13 17  1  0
 14 18  1  0
 15 21  1  0
 16 19  2  0
 17 20  2  0
 19 20  1  0
M  END
>  <PUBCHEM_COMPOUND_CID>  (1) 
1424

>  <PUBCHEM_CONFORMER_RMSD>  (1) 
1.4

>  <PUBCHEM_CONFORMER_DIVERSEORDER>  (1) 
1
15
43
24
17
38
18
62
47
60
25
51
58
42
49
16
55
33
36
29
50
61
6
54
23
10
11
59
19
44
4
21
8
34
53
57
46
52
9
2
40
32
12
41
22
20
37
35
31
3
63
30
7
14
5
27
28
13
39
26
48
56
45

>  <PUBCHEM_MMFF94_PARTIAL_CHARGES>  (1) 
17
1 -0.68
12 0.14
13 0.42
15 0.06
16 -0.29
17 -0.29
19 -0.15
2 -0.65
20 -0.15
21 0.66
3 -0.57
45 0.15
46 0.15
50 0.15
51 0.15
52 0.4
53 0.5

>  <PUBCHEM_EFFECTIVE_ROTOR_COUNT>  (1) 
14

>  <PUBCHEM_PHARMACOPHORE_FEATURES>  (1) 
7
1 1 acceptor
1 1 donor
1 18 hydrophobe
1 2 acceptor
1 3 acceptor
3 2 3 21 anion
4 9 10 11 14 hydrophobe

>  <PUBCHEM_HEAVY_ATOM_COUNT>  (1) 
21

>  <PUBCHEM_ATOM_DEF_STEREO_COUNT>  (1) 
0

>  <PUBCHEM_ATOM_UDEF_STEREO_COUNT>  (1) 
1

>  <PUBCHEM_BOND_DEF_STEREO_COUNT>  (1) 
0

>  <PUBCHEM_BOND_UDEF_STEREO_COUNT>  (1) 
2

>  <PUBCHEM_ISOTOPIC_ATOM_COUNT>  (1) 
0

>  <PUBCHEM_COMPONENT_COUNT>  (1) 
1

>  <PUBCHEM_CACTVS_TAUTO_COUNT>  (1) 
1

>  <PUBCHEM_CONFORMER_ID>  (1) 
0000059000000001

>  <PUBCHEM_MMFF94_ENERGY>  (1) 
6.0456

>  <PUBCHEM_FEATURE_SELFOVERLAP>  (1) 
35.577

>  <PUBCHEM_SHAPE_FINGERPRINT>  (1) 
10162869 55 18187086161517380556
106641 1 18060419114545537724
10883706 142 9367343739565527449
12498461 61 17346313857080919439
13885169 127 18411700947097319017
14251764 46 18411418410514249224
14251920 1 18341894086549763209
14251920 17 18411981395740532168
14344974 52 17385728036113247176
15061470 23 18113333098510499045
15510794 2 18334016068752376306
16728433 110 18201435899981530601
18335252 98 18343584019348336966
21150785 3 17967251987759304773
232437 2 18411981356257092746
23581129 1 18409448089539744716
246663 6 18272371971495978485
33684 2 13334736829829859744
4325135 7 18341894087499322748
59521270 166 17749103371689397375
59682541 35 17846495937121576995
67123 10 18409166610378843052
8209 1 17748827410163726292
9663363 56 18343017792709726813

>  <PUBCHEM_SHAPE_MULTIPOLES>  (1) 
414.56
45.16
1.19
0.71
10.06
0.37
0.01
4.97
0.42
-0.33
-0.03
0.02
0.02
0.68

>  <PUBCHEM_SHAPE_SELFOVERLAP>  (1) 
772.79

>  <PUBCHEM_SHAPE_VOLUME>  (1) 
258.3

>  <PUBCHEM_COORDINATE_TYPE>  (1) 
2
5
10

$$$$
