14247
     RDKit          3D

  7  6  0  0  0  0  0  0  0  0999 V2000
    2.4877   -0.4788   -0.0181 N   0  0  0  0  0  0  0  0  0  0  0  0
    3.6362    0.3679    0.0142 N   0  0  0  0  0  0  0  0  0  0  0  0
   -1.2248    0.3684   -0.0054 C   0  0  0  0  0  0  0  0  0  0  0  0
    0.0368   -0.4976   -0.0051 C   0  0  0  0  0  0  0  0  0  0  0  0
   -2.4890   -0.4903    0.0230 C   0  0  0  0  0  0  0  0  0  0  0  0
    1.2981    0.3644    0.0024 C   0  0  0  0  0  0  0  0  0  0  0  0
   -3.7449    0.3660   -0.0110 C   0  0  0  0  0  0  0  0  0  0  0  0
  1  2  1  0
  1  6  1  0
  3  4  1  0
  3  5  1  0
  4  6  1  0
  5  7  1  0
M  END
>  <PUBCHEM_COMPOUND_CID>  (1) 
14247

>  <PUBCHEM_CONFORMER_RMSD>  (1) 
0.6

>  <PUBCHEM_CONFORMER_DIVERSEORDER>  (1) 
1
32
33
14
30
13
31
3
4
22
27
16
12
17
21
15
2
23
9
26
28
11
25
5
20
6
24
19
10
8
7
29
18

>  <PUBCHEM_MMFF94_PARTIAL_CHARGES>  (1) 
6
1 -0.63
19 0.36
2 -0.72
20 0.36
21 0.36
6 0.27

>  <PUBCHEM_EFFECTIVE_ROTOR_COUNT>  (1) 
4

>  <PUBCHEM_PHARMACOPHORE_FEATURES>  (1) 
3
1 1 donor
1 2 donor
1 7 hydrophobe

>  <PUBCHEM_HEAVY_ATOM_COUNT>  (1) 
7

>  <PUBCHEM_ATOM_DEF_STEREO_COUNT>  (1) 
0

>  <PUBCHEM_ATOM_UDEF_STEREO_COUNT>  (1) 
0

>  <PUBCHEM_BOND_DEF_STEREO_COUNT>  (1) 
0

>  <PUBCHEM_BOND_UDEF_STEREO_COUNT>  (1) 
0

>  <PUBCHEM_ISOTOPIC_ATOM_COUNT>  (1) 
0

>  <PUBCHEM_COMPONENT_COUNT>  (1) 
1

>  <PUBCHEM_CACTVS_TAUTO_COUNT>  (1) 
1

>  <PUBCHEM_CONFORMER_ID>  (1) 
000037A700000001

>  <PUBCHEM_MMFF94_ENERGY>  (1) 
-4.1208

>  <PUBCHEM_FEATURE_SELFOVERLAP>  (1) 
16.548

>  <PUBCHEM_SHAPE_FINGERPRINT>  (1) 
11062470 55 18410856559808653093
12932764 1 15502646148346600323
14325111 11 18410856559697980743
14390081 3 18341891883611374593
5460574 1 9223231844837855554

>  <PUBCHEM_SHAPE_MULTIPOLES>  (1) 
134.09
6.39
0.77
0.59
0.74
0.02
0
-0.7
-0.01
-0.08
0
-0.08
0
0.01

>  <PUBCHEM_SHAPE_SELFOVERLAP>  (1) 
227.949

>  <PUBCHEM_SHAPE_VOLUME>  (1) 
90

>  <PUBCHEM_COORDINATE_TYPE>  (1) 
2
5
10

$$$$
