14251
     RDKit          3D

 18 17  0  0  0  0  0  0  0  0999 V2000
    7.3221    0.1327   -0.0586 N   0  0  0  0  0  0  0  0  0  0  0  0
    6.1192   -0.7315   -0.0739 C   0  0  0  0  0  0  0  0  0  0  0  0
    4.8511    0.1079    0.0266 C   0  0  0  0  0  0  0  0  0  0  0  0
    3.5331   -0.6734    0.0730 C   0  0  0  0  0  0  0  0  0  0  0  0
    2.2941    0.2242    0.1180 C   0  0  0  0  0  0  0  0  0  0  0  0
    1.0096   -0.6072    0.0712 C   0  0  0  0  0  0  0  0  0  0  0  0
   -0.2667    0.2397    0.0779 C   0  0  0  0  0  0  0  0  0  0  0  0
   -1.5854   -0.5367    0.0087 C   0  0  0  0  0  0  0  0  0  0  0  0
    7.3023    1.1206   -1.2344 C   0  0  0  0  0  0  0  0  0  0  0  0
    7.3965    0.9450    1.2428 C   0  0  0  0  0  0  0  0  0  0  0  0
    8.6026   -0.7085   -0.1669 C   0  0  0  0  0  0  0  0  0  0  0  0
   -2.8250    0.3584    0.0819 C   0  0  0  0  0  0  0  0  0  0  0  0
   -4.1100   -0.4715    0.0172 C   0  0  0  0  0  0  0  0  0  0  0  0
   -5.3849    0.3761    0.0608 C   0  0  0  0  0  0  0  0  0  0  0  0
   -6.6683   -0.4476   -0.0777 C   0  0  0  0  0  0  0  0  0  0  0  0
   -7.9086    0.4478   -0.0156 C   0  0  0  0  0  0  0  0  0  0  0  0
   -9.2230   -0.3291   -0.1189 C   0  0  0  0  0  0  0  0  0  0  0  0
  -10.4588    0.5530   -0.0321 C   0  0  0  0  0  0  0  0  0  0  0  0
  1  2  1  0
  1  9  1  0
  1 10  1  0
  1 11  1  0
  2  3  1  0
  3  4  1  0
  4  5  1  0
  5  6  1  0
  6  7  1  0
  7  8  1  0
  8 12  1  0
 12 13  1  0
 13 14  1  0
 14 15  1  0
 15 16  1  0
 16 17  1  0
 17 18  1  0
M  CHG  1   1   1
M  END
>  <PUBCHEM_COMPOUND_CID>  (1) 
14251

>  <PUBCHEM_CONFORMER_RMSD>  (1) 
1.4

>  <PUBCHEM_CONFORMER_DIVERSEORDER>  (1) 
1
31
34
19
23
7
8
10
35
12
25
18
2
6
24
21
3
16
11
15
14
17
9
27
4
28
26
30
32
22
20
5
13
33
29

>  <PUBCHEM_MMFF94_PARTIAL_CHARGES>  (1) 
5
1 -1.01
10 0.5
11 0.5
2 0.5
9 0.5

>  <PUBCHEM_EFFECTIVE_ROTOR_COUNT>  (1) 
13

>  <PUBCHEM_PHARMACOPHORE_FEATURES>  (1) 
2
1 1 cation
1 18 hydrophobe

>  <PUBCHEM_HEAVY_ATOM_COUNT>  (1) 
18

>  <PUBCHEM_ATOM_DEF_STEREO_COUNT>  (1) 
0

>  <PUBCHEM_ATOM_UDEF_STEREO_COUNT>  (1) 
0

>  <PUBCHEM_BOND_DEF_STEREO_COUNT>  (1) 
0

>  <PUBCHEM_BOND_UDEF_STEREO_COUNT>  (1) 
0

>  <PUBCHEM_ISOTOPIC_ATOM_COUNT>  (1) 
0

>  <PUBCHEM_COMPONENT_COUNT>  (1) 
1

>  <PUBCHEM_CACTVS_TAUTO_COUNT>  (1) 
1

>  <PUBCHEM_CONFORMER_ID>  (1) 
000037AB00000001

>  <PUBCHEM_MMFF94_ENERGY>  (1) 
19.5441

>  <PUBCHEM_FEATURE_SELFOVERLAP>  (1) 
10.148

>  <PUBCHEM_SHAPE_FINGERPRINT>  (1) 
11315181 36 18412830192777891243
11638347 137 14490186099016216464
14123256 10 18411136930820474151
14251764 18 18341898480438522257
14251764 46 18410573985156738887
14428016 248 18335427867974607269
15510794 2 18408609158627704155
155225 1 18113340851991942388
16120349 18 18113337543954390916
21150785 3 18411981360393752523
21362267 2 18188196710689875493
21362267 313 17459458966927104937
22224240 67 16298386872369461882
232437 2 18413388726661341823
23521765 1 18342175566285586875
23581129 1 18409448080949745163
246663 6 13542465371606720395
28498 318 12895076206110481369
33684 2 18342457032218799243
67123 10 18410856568240280175
8209 1 18342175566507100467

>  <PUBCHEM_SHAPE_MULTIPOLES>  (1) 
365.45
37.79
0.93
0.79
36.45
0.06
0
4.37
1.63
-0.9
0.03
-1.26
0.18
-0.04

>  <PUBCHEM_SHAPE_SELFOVERLAP>  (1) 
653.568

>  <PUBCHEM_SHAPE_VOLUME>  (1) 
239.1

>  <PUBCHEM_COORDINATE_TYPE>  (1) 
2
5
10

$$$$
