14258
     RDKit          3D

 19 18  0  0  0  0  0  0  0  0999 V2000
   -4.2165    0.0657    1.0822 O   0  0  0  0  0  0  0  0  0  0  0  0
   -3.7603    1.0423   -0.9590 O   0  0  0  0  0  0  0  0  0  0  0  0
   -0.5390   -2.7564    0.0429 C   0  0  0  0  0  0  0  0  0  0  0  0
    0.8795   -2.2729   -0.2630 C   0  0  0  0  0  0  0  0  0  0  0  0
   -1.5842   -1.8047   -0.5427 C   0  0  0  0  0  0  0  0  0  0  0  0
    1.9321   -3.2000    0.3553 C   0  0  0  0  0  0  0  0  0  0  0  0
   -3.0054   -2.2622   -0.2041 C   0  0  0  0  0  0  0  0  0  0  0  0
    3.3701   -2.7626    0.0420 C   0  0  0  0  0  0  0  0  0  0  0  0
    2.2907    2.0729    0.2556 C   0  0  0  0  0  0  0  0  0  0  0  0
    3.7525    2.1243   -0.2092 C   0  0  0  0  0  0  0  0  0  0  0  0
    1.4307    3.2076   -0.3052 C   0  0  0  0  0  0  0  0  0  0  0  0
    4.6461    0.9625    0.2444 C   0  0  0  0  0  0  0  0  0  0  0  0
    3.8058   -1.3950    0.5030 C   0  0  0  0  0  0  0  0  0  0  0  0
   -4.0705   -1.3458   -0.7997 C   0  0  0  0  0  0  0  0  0  0  0  0
    4.1912   -0.3709   -0.2730 C   0  0  0  0  0  0  0  0  0  0  0  0
   -0.0420    3.1007    0.1004 C   0  0  0  0  0  0  0  0  0  0  0  0
   -0.9176    4.1815   -0.5170 C   0  0  0  0  0  0  0  0  0  0  0  0
   -3.9916    0.0621   -0.2626 C   0  0  0  0  0  0  0  0  0  0  0  0
   -4.1715    1.3511    1.7100 C   0  0  0  0  0  0  0  0  0  0  0  0
  1 18  1  0
  1 19  1  0
  2 18  2  0
  3  4  1  0
  3  5  1  0
  4  6  1  0
  5  7  1  0
  6  8  1  0
  7 14  1  0
  8 13  1  0
  9 10  1  0
  9 11  1  0
 10 12  1  0
 11 16  1  0
 12 15  1  0
 13 15  2  0
 14 18  1  0
 16 17  1  0
M  END
>  <PUBCHEM_COMPOUND_CID>  (1) 
14258

>  <PUBCHEM_CONFORMER_RMSD>  (1) 
1.4

>  <PUBCHEM_CONFORMER_DIVERSEORDER>  (1) 
1
10
23
13
58
11
67
25
39
43
9
86
76
42
51
22
35
63
65
6
48
54
53
84
45
69
14
30
47
81
83
12
3
44
73
41
31
5
71
18
2
66
70
50
21
26
34
68
46
27
16
87
7
82
74
61
56
55
36
4
40
77
15
37
19
49
79
78
24
29
52
62
33
57
28
8
32
64
60
85
80
72
75
17
20
59
38

>  <PUBCHEM_MMFF94_PARTIAL_CHARGES>  (1) 
11
1 -0.43
12 0.14
13 -0.29
14 0.06
15 -0.29
18 0.66
19 0.28
2 -0.57
40 0.15
43 0.15
8 0.14

>  <PUBCHEM_EFFECTIVE_ROTOR_COUNT>  (1) 
14

>  <PUBCHEM_PHARMACOPHORE_FEATURES>  (1) 
4
1 17 hydrophobe
1 2 acceptor
3 10 12 15 hydrophobe
3 9 11 16 hydrophobe

>  <PUBCHEM_HEAVY_ATOM_COUNT>  (1) 
19

>  <PUBCHEM_ATOM_DEF_STEREO_COUNT>  (1) 
0

>  <PUBCHEM_ATOM_UDEF_STEREO_COUNT>  (1) 
0

>  <PUBCHEM_BOND_DEF_STEREO_COUNT>  (1) 
0

>  <PUBCHEM_BOND_UDEF_STEREO_COUNT>  (1) 
1

>  <PUBCHEM_ISOTOPIC_ATOM_COUNT>  (1) 
0

>  <PUBCHEM_COMPONENT_COUNT>  (1) 
1

>  <PUBCHEM_CACTVS_TAUTO_COUNT>  (1) 
1

>  <PUBCHEM_CONFORMER_ID>  (1) 
000037B200000001

>  <PUBCHEM_MMFF94_ENERGY>  (1) 
3.1328

>  <PUBCHEM_FEATURE_SELFOVERLAP>  (1) 
20.308

>  <PUBCHEM_SHAPE_FINGERPRINT>  (1) 
10708813 3 18341620346867240081
12038231 1 18410289203213615372
14466204 15 18265886042323838600
14765038 42 18271544068672720424
14940714 1 9552696101912572940
16760501 71 18411710885277011579
17093844 170 18339632439114852120
19930381 70 17617089648136808807
20621476 13 18337385053999714540
20621476 7 18338805494078882200
21315763 76 18337654382593030639
3014063 31 18410570657058205660
338550 245 18263934254397337244
6433294 58 18339074879034163716

>  <PUBCHEM_SHAPE_MULTIPOLES>  (1) 
379.27
10.16
5.63
0.96
2.58
2.83
-0.25
-0.43
-1.07
-1.9
0.45
1.06
0.24
-0.98

>  <PUBCHEM_SHAPE_SELFOVERLAP>  (1) 
695.608

>  <PUBCHEM_SHAPE_VOLUME>  (1) 
240.1

>  <PUBCHEM_COORDINATE_TYPE>  (1) 
2
5
10

$$$$
