14253
     RDKit          3D

 20 19  0  0  0  0  0  0  0  0999 V2000
    8.7758    0.3175   -0.1272 S   0  0  0  0  0  0  0  0  0  0  0  0
    9.8371   -0.9215   -0.1241 O   0  0  0  0  0  0  0  0  0  0  0  0
    8.8817    1.0251    1.1362 O   0  0  0  0  0  0  0  0  0  0  0  0
    8.8776    1.0142   -1.3971 O   0  0  0  0  0  0  0  0  0  0  0  0
   -1.6292    0.2592    0.1984 C   0  0  0  0  0  0  0  0  0  0  0  0
   -0.3579   -0.5941    0.1360 C   0  0  0  0  0  0  0  0  0  0  0  0
   -2.9497   -0.5001    0.0351 C   0  0  0  0  0  0  0  0  0  0  0  0
    0.9294    0.2301    0.2163 C   0  0  0  0  0  0  0  0  0  0  0  0
   -4.1867    0.3930    0.1615 C   0  0  0  0  0  0  0  0  0  0  0  0
    2.1997   -0.6192    0.0953 C   0  0  0  0  0  0  0  0  0  0  0  0
   -5.4726   -0.4182   -0.0192 C   0  0  0  0  0  0  0  0  0  0  0  0
    3.4868    0.2032    0.2018 C   0  0  0  0  0  0  0  0  0  0  0  0
   -6.7472    0.4273    0.0755 C   0  0  0  0  0  0  0  0  0  0  0  0
    4.7569   -0.6357    0.0216 C   0  0  0  0  0  0  0  0  0  0  0  0
   -8.0314   -0.3909   -0.0843 C   0  0  0  0  0  0  0  0  0  0  0  0
    6.0413    0.1983    0.0508 C   0  0  0  0  0  0  0  0  0  0  0  0
   -9.3029    0.4640   -0.0612 C   0  0  0  0  0  0  0  0  0  0  0  0
    7.2977   -0.6451   -0.1230 C   0  0  0  0  0  0  0  0  0  0  0  0
  -10.5864   -0.3458   -0.2495 C   0  0  0  0  0  0  0  0  0  0  0  0
  -11.8199    0.5385   -0.1430 C   0  0  0  0  0  0  0  0  0  0  0  0
  1  2  1  0
  1  3  2  0
  1  4  2  0
  1 18  1  0
  5  6  1  0
  5  7  1  0
  6  8  1  0
  7  9  1  0
  8 10  1  0
  9 11  1  0
 10 12  1  0
 11 13  1  0
 12 14  1  0
 13 15  1  0
 14 16  1  0
 15 17  1  0
 16 18  1  0
 17 19  1  0
 19 20  1  0
M  END
>  <PUBCHEM_COMPOUND_CID>  (1) 
14253

>  <PUBCHEM_CONFORMER_RMSD>  (1) 
1.6

>  <PUBCHEM_CONFORMER_DIVERSEORDER>  (1) 
1
17
22
3
15
10
11
18
28
12
16
19
21
20
2
24
27
14
13
6
5
4
23
26
8
9
7
25

>  <PUBCHEM_MMFF94_PARTIAL_CHARGES>  (1) 
6
1 1.38
18 0.11
2 -0.68
3 -0.65
4 -0.65
54 0.5

>  <PUBCHEM_EFFECTIVE_ROTOR_COUNT>  (1) 
15

>  <PUBCHEM_PHARMACOPHORE_FEATURES>  (1) 
5
1 2 acceptor
1 20 hydrophobe
1 3 acceptor
1 4 acceptor
4 1 2 3 4 anion

>  <PUBCHEM_HEAVY_ATOM_COUNT>  (1) 
20

>  <PUBCHEM_ATOM_DEF_STEREO_COUNT>  (1) 
0

>  <PUBCHEM_ATOM_UDEF_STEREO_COUNT>  (1) 
0

>  <PUBCHEM_BOND_DEF_STEREO_COUNT>  (1) 
0

>  <PUBCHEM_BOND_UDEF_STEREO_COUNT>  (1) 
0

>  <PUBCHEM_ISOTOPIC_ATOM_COUNT>  (1) 
0

>  <PUBCHEM_COMPONENT_COUNT>  (1) 
1

>  <PUBCHEM_CACTVS_TAUTO_COUNT>  (1) 
1

>  <PUBCHEM_CONFORMER_ID>  (1) 
000037AD00000001

>  <PUBCHEM_MMFF94_ENERGY>  (1) 
-0.7817

>  <PUBCHEM_FEATURE_SELFOVERLAP>  (1) 
25.425

>  <PUBCHEM_SHAPE_FINGERPRINT>  (1) 
12498461 61 8862647016755995197
14251764 46 17131833166545758639
14251920 1 11600006549390598518
14344974 52 18272647991811521283
15061470 23 18186236226049437757
15510794 2 18343305868439592679
155225 1 17894915153045681764
20812841 46 15864070997229110308
21362267 2 17895746417279018333
21362267 313 17532079510507004088
22224240 67 15647053781299600850
232437 2 11455890261122736925
23521765 1 18342176665501835090
23581129 1 18409448085244615011
246663 6 12463571785579396386
33684 2 18410855460133443051
59521270 166 15051734159356830321
67123 10 18273495676263134619
8209 1 18413951685030312587

>  <PUBCHEM_SHAPE_MULTIPOLES>  (1) 
397.83
47.62
0.89
0.74
31.46
0.01
0.05
5.59
4.78
-0.79
0.01
-1
0.12
-0.07

>  <PUBCHEM_SHAPE_SELFOVERLAP>  (1) 
712.564

>  <PUBCHEM_SHAPE_VOLUME>  (1) 
255.8

>  <PUBCHEM_COORDINATE_TYPE>  (1) 
2
5
10

$$$$
