14256
     RDKit          3D

 14 13  0  0  0  0  0  0  0  0999 V2000
   -5.8968    1.3705    0.0343 O   0  0  0  0  0  0  0  0  0  0  0  0
   -7.0354   -0.6292    0.0642 N   0  0  0  0  0  0  0  0  0  0  0  0
    1.6836    0.3805   -0.0673 C   0  0  0  0  0  0  0  0  0  0  0  0
    0.4501   -0.5237   -0.0334 C   0  0  0  0  0  0  0  0  0  0  0  0
    2.9753   -0.4389   -0.0188 C   0  0  0  0  0  0  0  0  0  0  0  0
   -0.8414    0.2959   -0.0487 C   0  0  0  0  0  0  0  0  0  0  0  0
    4.2071    0.4686   -0.0193 C   0  0  0  0  0  0  0  0  0  0  0  0
   -2.0746   -0.6097   -0.0484 C   0  0  0  0  0  0  0  0  0  0  0  0
    5.5302   -0.2999    0.0507 C   0  0  0  0  0  0  0  0  0  0  0  0
   -3.3669    0.2120   -0.0303 C   0  0  0  0  0  0  0  0  0  0  0  0
    6.7986    0.5565    0.0313 C   0  0  0  0  0  0  0  0  0  0  0  0
   -4.6166   -0.6665    0.0014 C   0  0  0  0  0  0  0  0  0  0  0  0
    8.0827   -0.2578    0.0491 C   0  0  0  0  0  0  0  0  0  0  0  0
   -5.8959    0.1418    0.0352 C   0  0  0  0  0  0  0  0  0  0  0  0
  1 14  2  0
  2 14  1  0
  3  4  1  0
  3  5  1  0
  4  6  1  0
  5  7  1  0
  6  8  1  0
  7  9  1  0
  8 10  1  0
  9 11  1  0
 10 12  1  0
 11 13  1  0
 12 14  1  0
M  END
>  <PUBCHEM_COMPOUND_CID>  (1) 
14256

>  <PUBCHEM_CONFORMER_RMSD>  (1) 
1

>  <PUBCHEM_CONFORMER_DIVERSEORDER>  (1) 
1
173
39
280
55
30
254
97
138
20
157
5
189
27
50
267
42
205
53
176
288
19
167
140
84
255
142
37
64
46
200
4
106
62
88
152
135
184
10
92
66
233
179
6
230
17
72
258
127
22
117
166
155
216
29
139
122
41
192
133
270
69
220
26
195
14
134
28
112
272
2
232
278
90
67
245
99
282
187
8
271
164
274
193
169
54
58
63
178
74
247
162
215
23
77
124
93
3
211
109
71
190
141
35
185
51
48
111
121
209
279
180
65
100
68
223
73
257
7
47
76
87
242
129
125
159
234
130
206
13
191
15
273
89
33
240
144
96
277
276
24
203
49
45
249
123
82
188
154
217
9
105
113
86
70
175
75
285
236
119
204
43
114
81
275
31
208
36
251
221
207
32
201
136
110
115
260
11
44
126
168
284
268
83
59
153
244
52
107
148
246
101
170
57
16
34
263
283
25
213
108
237
150
199
222
40
104
174
91
286
287
80
61
60
239
264
12
196
210
161
143
198
120
269
79
160
85
118
262
225
177
78
197
137
256
156
171
281
102
194
259
250
261
253
128
238
241
183
56
163
227
38
132
181
219
145
214
202
186
235
252
149
103
95
182
98
231
248
229
94
228
147
146
265
243
226
224
158
21
116
151
218
131
165
18
266
212
172

>  <PUBCHEM_MMFF94_PARTIAL_CHARGES>  (1) 
6
1 -0.57
12 0.06
14 0.57
2 -0.8
38 0.37
39 0.37

>  <PUBCHEM_EFFECTIVE_ROTOR_COUNT>  (1) 
10

>  <PUBCHEM_PHARMACOPHORE_FEATURES>  (1) 
3
1 1 acceptor
1 13 hydrophobe
1 2 donor

>  <PUBCHEM_HEAVY_ATOM_COUNT>  (1) 
14

>  <PUBCHEM_ATOM_DEF_STEREO_COUNT>  (1) 
0

>  <PUBCHEM_ATOM_UDEF_STEREO_COUNT>  (1) 
0

>  <PUBCHEM_BOND_DEF_STEREO_COUNT>  (1) 
0

>  <PUBCHEM_BOND_UDEF_STEREO_COUNT>  (1) 
0

>  <PUBCHEM_ISOTOPIC_ATOM_COUNT>  (1) 
0

>  <PUBCHEM_COMPONENT_COUNT>  (1) 
1

>  <PUBCHEM_CACTVS_TAUTO_COUNT>  (1) 
2

>  <PUBCHEM_CONFORMER_ID>  (1) 
000037B000000001

>  <PUBCHEM_MMFF94_ENERGY>  (1) 
2.0642

>  <PUBCHEM_FEATURE_SELFOVERLAP>  (1) 
15.223

>  <PUBCHEM_SHAPE_FINGERPRINT>  (1) 
10968037 39 17775566442514692719
11315181 36 16630528457912299851
12091667 2 18343020000074704783
13533116 47 17313373497306540456
14123256 10 15052016762337517870
1420 363 12829208858162850304
14251764 18 18186799175744006266
14251764 46 18407759240549801879
14729087 3 18272367551262935753
17834076 25 18410293618281590606
18006028 8 16056880230313775104
20281389 69 18335136497287628004
20621476 8 18187081728767986326
21130983 4 18040719182164909500
21315763 28 18410011052383420653
22224240 67 16443063924389003202
23035841 295 16153426155783478648
23402539 116 18273209816166974135
23521765 1 18341895199352377326
28498 318 18130509652897144070
33684 2 18410009935955537843
42788 4 18410856564377868533
4463277 17 18411136944016872228
57583515 80 18410013238547940419
59567204 34 18059296453572434657
59755656 520 18261105305067748087
8209 1 18410855464428403854

>  <PUBCHEM_SHAPE_MULTIPOLES>  (1) 
277.26
23.29
0.89
0.61
9.53
0.1
0
0.77
0.73
-0.6
0
0.08
-0.01
-0.02

>  <PUBCHEM_SHAPE_SELFOVERLAP>  (1) 
501.174

>  <PUBCHEM_SHAPE_VOLUME>  (1) 
177.8

>  <PUBCHEM_COORDINATE_TYPE>  (1) 
2
5
10

$$$$
