14264
     RDKit          3D

  7  7  0  0  0  0  0  0  0  0999 V2000
   -0.8455   -0.0113    0.0161 S   0  0  0  0  0  0  0  0  0  0  0  0
    0.2599    1.1409    0.3884 O   0  0  0  0  0  0  0  0  0  0  0  0
   -1.3910   -0.5526    1.2432 O   0  0  0  0  0  0  0  0  0  0  0  0
   -1.6807    0.4584   -1.0688 O   0  0  0  0  0  0  0  0  0  0  0  0
    0.3758   -1.1433   -0.6293 C   0  0  0  0  0  0  0  0  0  0  0  0
    1.6749   -0.7045    0.0174 C   0  0  0  0  0  0  0  0  0  0  0  0
    1.6067    0.8124    0.0330 C   0  0  0  0  0  0  0  0  0  0  0  0
  1  2  1  0
  1  3  2  0
  1  4  2  0
  1  5  1  0
  2  7  1  0
  5  6  1  0
  6  7  1  0
M  END
>  <PUBCHEM_COMPOUND_CID>  (1) 
14264

>  <PUBCHEM_CONFORMER_RMSD>  (1) 
0.4

>  <PUBCHEM_CONFORMER_DIVERSEORDER>  (1) 
1

>  <PUBCHEM_MMFF94_PARTIAL_CHARGES>  (1) 
6
1 1.38
2 -0.46
3 -0.65
4 -0.65
5 0.11
7 0.28

>  <PUBCHEM_EFFECTIVE_ROTOR_COUNT>  (1) 
0.8

>  <PUBCHEM_PHARMACOPHORE_FEATURES>  (1) 
3
1 3 acceptor
1 4 acceptor
5 1 2 5 6 7 rings

>  <PUBCHEM_HEAVY_ATOM_COUNT>  (1) 
7

>  <PUBCHEM_ATOM_DEF_STEREO_COUNT>  (1) 
0

>  <PUBCHEM_ATOM_UDEF_STEREO_COUNT>  (1) 
0

>  <PUBCHEM_BOND_DEF_STEREO_COUNT>  (1) 
0

>  <PUBCHEM_BOND_UDEF_STEREO_COUNT>  (1) 
0

>  <PUBCHEM_ISOTOPIC_ATOM_COUNT>  (1) 
0

>  <PUBCHEM_COMPONENT_COUNT>  (1) 
1

>  <PUBCHEM_CACTVS_TAUTO_COUNT>  (1) 
1

>  <PUBCHEM_CONFORMER_ID>  (1) 
000037B800000001

>  <PUBCHEM_MMFF94_ENERGY>  (1) 
3.6214

>  <PUBCHEM_FEATURE_SELFOVERLAP>  (1) 
15.239

>  <PUBCHEM_SHAPE_FINGERPRINT>  (1) 
137420 1 11684446481648511382
18185500 45 17561071484584356015
20096714 4 18130513049372074184
21040471 1 18271232945536154524
24536 1 18337398140680656360
29004967 10 18412271609719682226
5943 1 17059777698073569551

>  <PUBCHEM_SHAPE_MULTIPOLES>  (1) 
130.3
2.13
1.19
0.97
0.07
0.02
-0.08
-0.07
0.04
0.36
0.06
-0.5
0.06
0.14

>  <PUBCHEM_SHAPE_SELFOVERLAP>  (1) 
243.122

>  <PUBCHEM_SHAPE_VOLUME>  (1) 
82.4

>  <PUBCHEM_COORDINATE_TYPE>  (1) 
2
5
10

$$$$
