14269
     RDKit          3D

  7  7  0  0  1  0  0  0  0  0999 V2000
    0.3693   -1.1536    0.1645 O   0  0  0  0  0  0  0  0  0  0  0  0
   -1.7623   -0.1091    0.2992 O   0  0  0  0  0  0  0  0  0  0  0  0
    0.9908    0.0319   -0.3424 C   0  0  0  0  0  0  0  0  0  0  0  0
    0.2247    1.2602    0.1543 C   0  0  0  0  0  0  0  0  0  0  0  0
   -1.2529    1.1290   -0.1954 C   0  0  0  0  0  0  0  0  0  0  0  0
    2.4370    0.0486    0.1294 C   0  0  0  0  0  0  0  0  0  0  0  0
   -1.0067   -1.2070   -0.2097 C   0  0  0  0  0  0  0  0  0  0  0  0
  1  3  1  0
  1  7  1  0
  2  5  1  0
  2  7  1  0
  3  4  1  0
  3  6  1  0
  4  5  1  0
M  END
>  <PUBCHEM_COMPOUND_CID>  (1) 
14269

>  <PUBCHEM_CONFORMER_RMSD>  (1) 
0.4

>  <PUBCHEM_CONFORMER_DIVERSEORDER>  (1) 
1
3
2

>  <PUBCHEM_MMFF94_PARTIAL_CHARGES>  (1) 
5
1 -0.56
2 -0.56
3 0.28
5 0.28
7 0.56

>  <PUBCHEM_EFFECTIVE_ROTOR_COUNT>  (1) 
1.2

>  <PUBCHEM_PHARMACOPHORE_FEATURES>  (1) 
3
1 1 acceptor
1 2 acceptor
6 1 2 3 4 5 7 rings

>  <PUBCHEM_HEAVY_ATOM_COUNT>  (1) 
7

>  <PUBCHEM_ATOM_DEF_STEREO_COUNT>  (1) 
0

>  <PUBCHEM_ATOM_UDEF_STEREO_COUNT>  (1) 
1

>  <PUBCHEM_BOND_DEF_STEREO_COUNT>  (1) 
0

>  <PUBCHEM_BOND_UDEF_STEREO_COUNT>  (1) 
0

>  <PUBCHEM_ISOTOPIC_ATOM_COUNT>  (1) 
0

>  <PUBCHEM_COMPONENT_COUNT>  (1) 
1

>  <PUBCHEM_CACTVS_TAUTO_COUNT>  (1) 
1

>  <PUBCHEM_CONFORMER_ID>  (1) 
000037BD00000001

>  <PUBCHEM_MMFF94_ENERGY>  (1) 
10.5936

>  <PUBCHEM_FEATURE_SELFOVERLAP>  (1) 
15.258

>  <PUBCHEM_SHAPE_FINGERPRINT>  (1) 
16714656 1 18410862061682832388
18185500 45 18335982068446163070
20096714 4 18266742389471189373
21040471 1 18266460901657225020
23552423 10 18260553299165263486
29004967 10 15430034353325056272

>  <PUBCHEM_SHAPE_MULTIPOLES>  (1) 
132.32
2.43
1.41
0.64
1.06
0.02
-0.02
-0.01
0.11
-0.4
-0.01
0.01
0.02
0.01

>  <PUBCHEM_SHAPE_SELFOVERLAP>  (1) 
251.681

>  <PUBCHEM_SHAPE_VOLUME>  (1) 
80.5

>  <PUBCHEM_COORDINATE_TYPE>  (1) 
2
5
10

$$$$
