14262
     RDKit          3D

  5  5  0  0  0  0  0  0  0  0999 V2000
    1.4802    0.0000   -0.2364 C   0  0  0  0  0  0  0  0  0  0  0  0
    0.4752    1.1029    0.1587 C   0  0  0  0  0  0  0  0  0  0  0  0
    0.4752   -1.1029    0.1587 C   0  0  0  0  0  0  0  0  0  0  0  0
   -0.5529    0.0000    0.0355 C   0  0  0  0  0  0  0  0  0  0  0  0
   -1.8777    0.0000   -0.1165 C   0  0  0  0  0  0  0  0  0  0  0  0
  1  2  1  0
  1  3  1  0
  2  4  1  0
  3  4  1  0
  4  5  2  0
M  END
>  <PUBCHEM_COMPOUND_CID>  (1) 
14262

>  <PUBCHEM_CONFORMER_RMSD>  (1) 
0.4

>  <PUBCHEM_CONFORMER_DIVERSEORDER>  (1) 
1

>  <PUBCHEM_MMFF94_PARTIAL_CHARGES>  (1) 
6
12 0.15
13 0.15
2 0.14
3 0.14
4 -0.31
5 -0.27

>  <PUBCHEM_EFFECTIVE_ROTOR_COUNT>  (1) 
0.6

>  <PUBCHEM_PHARMACOPHORE_FEATURES>  (1) 
1
4 1 2 3 4 rings

>  <PUBCHEM_HEAVY_ATOM_COUNT>  (1) 
5

>  <PUBCHEM_ATOM_DEF_STEREO_COUNT>  (1) 
0

>  <PUBCHEM_ATOM_UDEF_STEREO_COUNT>  (1) 
0

>  <PUBCHEM_BOND_DEF_STEREO_COUNT>  (1) 
0

>  <PUBCHEM_BOND_UDEF_STEREO_COUNT>  (1) 
0

>  <PUBCHEM_ISOTOPIC_ATOM_COUNT>  (1) 
0

>  <PUBCHEM_COMPONENT_COUNT>  (1) 
1

>  <PUBCHEM_CACTVS_TAUTO_COUNT>  (1) 
1

>  <PUBCHEM_CONFORMER_ID>  (1) 
000037B600000001

>  <PUBCHEM_MMFF94_ENERGY>  (1) 
7.0912

>  <PUBCHEM_FEATURE_SELFOVERLAP>  (1) 
5.074

>  <PUBCHEM_SHAPE_FINGERPRINT>  (1) 
139733 1 8718527424702441687
20096714 4 18339361984348755617
21015797 1 9366183736853177642
21040471 1 18265332991679229600
29004967 10 18336552637660992211
5943 1 14759346549553169934

>  <PUBCHEM_SHAPE_MULTIPOLES>  (1) 
102.9
1.91
1.1
0.64
0.67
0
0
0
-0.17
-0.23
0.08
-0.02
0
0

>  <PUBCHEM_SHAPE_SELFOVERLAP>  (1) 
196.206

>  <PUBCHEM_SHAPE_VOLUME>  (1) 
65.4

>  <PUBCHEM_COORDINATE_TYPE>  (1) 
2
5
10

$$$$
