14278
     RDKit          3D

  9  9  0  0  0  0  0  0  0  0999 V2000
    1.3342    1.3403   -0.2186 O   0  0  0  0  0  0  0  0  0  0  0  0
    1.8110   -0.9804   -0.0405 O   0  0  0  0  0  0  0  0  0  0  0  0
   -2.7785    0.5075    0.1672 O   0  0  0  0  0  0  0  0  0  0  0  0
   -0.5202   -0.2432   -0.0420 C   0  0  0  0  0  0  0  0  0  0  0  0
    0.0058    1.1691    0.2784 C   0  0  0  0  0  0  0  0  0  0  0  0
    0.5075   -1.2729    0.4658 C   0  0  0  0  0  0  0  0  0  0  0  0
   -1.8735   -0.4688    0.6425 C   0  0  0  0  0  0  0  0  0  0  0  0
   -0.6917   -0.3954   -1.5658 C   0  0  0  0  0  0  0  0  0  0  0  0
    2.2053    0.3438    0.3131 C   0  0  0  0  0  0  0  0  0  0  0  0
  1  5  1  0
  1  9  1  0
  2  6  1  0
  2  9  1  0
  3  7  1  0
  4  5  1  0
  4  6  1  0
  4  7  1  0
  4  8  1  0
M  END
>  <PUBCHEM_COMPOUND_CID>  (1) 
14278

>  <PUBCHEM_CONFORMER_RMSD>  (1) 
0.4

>  <PUBCHEM_CONFORMER_DIVERSEORDER>  (1) 
1
11
7
8
5
9
6
12
2
4
10
3

>  <PUBCHEM_MMFF94_PARTIAL_CHARGES>  (1) 
8
1 -0.56
2 -0.56
21 0.4
3 -0.68
5 0.28
6 0.28
7 0.28
9 0.56

>  <PUBCHEM_EFFECTIVE_ROTOR_COUNT>  (1) 
2.2

>  <PUBCHEM_PHARMACOPHORE_FEATURES>  (1) 
5
1 1 acceptor
1 2 acceptor
1 3 acceptor
1 3 donor
6 1 2 4 5 6 9 rings

>  <PUBCHEM_HEAVY_ATOM_COUNT>  (1) 
9

>  <PUBCHEM_ATOM_DEF_STEREO_COUNT>  (1) 
0

>  <PUBCHEM_ATOM_UDEF_STEREO_COUNT>  (1) 
0

>  <PUBCHEM_BOND_DEF_STEREO_COUNT>  (1) 
0

>  <PUBCHEM_BOND_UDEF_STEREO_COUNT>  (1) 
0

>  <PUBCHEM_ISOTOPIC_ATOM_COUNT>  (1) 
0

>  <PUBCHEM_COMPONENT_COUNT>  (1) 
1

>  <PUBCHEM_CACTVS_TAUTO_COUNT>  (1) 
1

>  <PUBCHEM_CONFORMER_ID>  (1) 
000037C600000001

>  <PUBCHEM_MMFF94_ENERGY>  (1) 
25.3979

>  <PUBCHEM_FEATURE_SELFOVERLAP>  (1) 
25.407

>  <PUBCHEM_SHAPE_FINGERPRINT>  (1) 
12423570 1 10733008682997739415
137420 1 17334276286317022898
16945 1 18411144610248379761
18185500 45 18130495439869036550
21040471 1 18193842758710726448
23235685 24 18335979869760589168
24536 1 18192414475810273232
29004967 10 18333450932559926370
5084963 1 18202289125430851721

>  <PUBCHEM_SHAPE_MULTIPOLES>  (1) 
167.61
2.86
1.28
0.99
0.56
0.07
0.4
0.31
-0.44
-0.36
-0.09
0.29
-0.15
-0.07

>  <PUBCHEM_SHAPE_SELFOVERLAP>  (1) 
327.873

>  <PUBCHEM_SHAPE_VOLUME>  (1) 
99.8

>  <PUBCHEM_COORDINATE_TYPE>  (1) 
2
5
10

$$$$
