14276
     RDKit          3D

  8  8  0  0  0  0  0  0  0  0999 V2000
   -0.0703    1.4489   -0.6596 N   0  0  0  0  0  0  0  0  0  0  0  0
    0.0205   -1.5628   -0.6296 C   0  0  0  0  0  0  0  0  0  0  0  0
    1.4097   -1.2416   -0.0705 C   0  0  0  0  0  0  0  0  0  0  0  0
   -1.1404   -1.3206    0.3382 C   0  0  0  0  0  0  0  0  0  0  0  0
    1.5705    0.0677    0.7016 C   0  0  0  0  0  0  0  0  0  0  0  0
   -1.9140   -0.0198    0.0938 C   0  0  0  0  0  0  0  0  0  0  0  0
    1.2695    1.3435   -0.0877 C   0  0  0  0  0  0  0  0  0  0  0  0
   -1.1455    1.2848    0.3137 C   0  0  0  0  0  0  0  0  0  0  0  0
  1  7  1  0
  1  8  1  0
  2  3  1  0
  2  4  1  0
  3  5  1  0
  4  6  1  0
  5  7  1  0
  6  8  1  0
M  END
>  <PUBCHEM_COMPOUND_CID>  (1) 
14276

>  <PUBCHEM_CONFORMER_RMSD>  (1) 
0.4

>  <PUBCHEM_CONFORMER_DIVERSEORDER>  (1) 
1
7
4
9
6
8
3
5
2

>  <PUBCHEM_MMFF94_PARTIAL_CHARGES>  (1) 
4
1 -0.9
23 0.36
7 0.27
8 0.27

>  <PUBCHEM_EFFECTIVE_ROTOR_COUNT>  (1) 
1.6

>  <PUBCHEM_PHARMACOPHORE_FEATURES>  (1) 
2
1 1 cation
1 1 donor

>  <PUBCHEM_HEAVY_ATOM_COUNT>  (1) 
8

>  <PUBCHEM_ATOM_DEF_STEREO_COUNT>  (1) 
0

>  <PUBCHEM_ATOM_UDEF_STEREO_COUNT>  (1) 
0

>  <PUBCHEM_BOND_DEF_STEREO_COUNT>  (1) 
0

>  <PUBCHEM_BOND_UDEF_STEREO_COUNT>  (1) 
0

>  <PUBCHEM_ISOTOPIC_ATOM_COUNT>  (1) 
0

>  <PUBCHEM_COMPONENT_COUNT>  (1) 
1

>  <PUBCHEM_CACTVS_TAUTO_COUNT>  (1) 
1

>  <PUBCHEM_CONFORMER_ID>  (1) 
000037C400000001

>  <PUBCHEM_MMFF94_ENERGY>  (1) 
8.4302

>  <PUBCHEM_FEATURE_SELFOVERLAP>  (1) 
10.148

>  <PUBCHEM_SHAPE_FINGERPRINT>  (1) 
16714656 1 18121228575618806966
18185500 45 17546440545351807338
21040471 1 18341333412934218609
241688 4 17906173953717125363
5084963 1 18272083838534202987
66348 1 18410577292281589286

>  <PUBCHEM_SHAPE_MULTIPOLES>  (1) 
159.66
2.2
1.99
0.79
0.17
0.03
0
-0.04
0.31
-0.07
-0.24
-0.07
0.01
0.01

>  <PUBCHEM_SHAPE_SELFOVERLAP>  (1) 
296.191

>  <PUBCHEM_SHAPE_VOLUME>  (1) 
96.8

>  <PUBCHEM_COORDINATE_TYPE>  (1) 
2
5
10

$$$$
