14285
     RDKit          3D

  9  9  0  0  0  0  0  0  0  0999 V2000
   -2.6386    0.0121   -0.8619 O   0  0  0  0  0  0  0  0  0  0  0  0
   -1.9647   -0.0206    1.2356 O   0  0  0  0  0  0  0  0  0  0  0  0
   -1.7613    0.0050    0.0134 N   0  0  0  0  0  0  0  0  0  0  0  0
   -0.3537    0.0055   -0.4359 C   0  0  0  0  0  0  0  0  0  0  0  0
    0.3122    1.2678    0.0985 C   0  0  0  0  0  0  0  0  0  0  0  0
    0.3076   -1.2660    0.0826 C   0  0  0  0  0  0  0  0  0  0  0  0
    1.8083    1.2653   -0.2099 C   0  0  0  0  0  0  0  0  0  0  0  0
    1.8039   -1.2649   -0.2251 C   0  0  0  0  0  0  0  0  0  0  0  0
    2.4863   -0.0041    0.3026 C   0  0  0  0  0  0  0  0  0  0  0  0
  1  3  1  0
  2  3  2  0
  3  4  1  0
  4  5  1  0
  4  6  1  0
  5  7  1  0
  6  8  1  0
  7  9  1  0
  8  9  1  0
M  CHG  2   1  -1   3   1
M  END
>  <PUBCHEM_COMPOUND_CID>  (1) 
14285

>  <PUBCHEM_CONFORMER_RMSD>  (1) 
0.4

>  <PUBCHEM_CONFORMER_DIVERSEORDER>  (1) 
1
15
3
4
2
5
9
11
8
12
10
6
7
14
13

>  <PUBCHEM_MMFF94_PARTIAL_CHARGES>  (1) 
4
1 -0.52
2 -0.52
3 0.8
4 0.24

>  <PUBCHEM_EFFECTIVE_ROTOR_COUNT>  (1) 
2.2

>  <PUBCHEM_PHARMACOPHORE_FEATURES>  (1) 
4
1 1 acceptor
1 1 anion
1 2 acceptor
6 4 5 6 7 8 9 rings

>  <PUBCHEM_HEAVY_ATOM_COUNT>  (1) 
9

>  <PUBCHEM_ATOM_DEF_STEREO_COUNT>  (1) 
0

>  <PUBCHEM_ATOM_UDEF_STEREO_COUNT>  (1) 
0

>  <PUBCHEM_BOND_DEF_STEREO_COUNT>  (1) 
0

>  <PUBCHEM_BOND_UDEF_STEREO_COUNT>  (1) 
0

>  <PUBCHEM_ISOTOPIC_ATOM_COUNT>  (1) 
0

>  <PUBCHEM_COMPONENT_COUNT>  (1) 
1

>  <PUBCHEM_CACTVS_TAUTO_COUNT>  (1) 
2

>  <PUBCHEM_CONFORMER_ID>  (1) 
000037CD00000001

>  <PUBCHEM_MMFF94_ENERGY>  (1) 
6.8915

>  <PUBCHEM_FEATURE_SELFOVERLAP>  (1) 
20.376

>  <PUBCHEM_SHAPE_FINGERPRINT>  (1) 
12932741 1 17749393667315786063
16945 1 18410859858506982308
18185500 45 18273491282131776254
21040471 1 18194682794379493124
23235685 24 18411133684300107956
23552423 10 18263932033740586790
29004967 10 18261397728084102376
5084963 1 18202558479888546522

>  <PUBCHEM_SHAPE_MULTIPOLES>  (1) 
168.5
3.36
1.37
0.83
1.01
0
-0.1
0
0.02
-0.73
0.05
0.37
0
0.01

>  <PUBCHEM_SHAPE_SELFOVERLAP>  (1) 
329.052

>  <PUBCHEM_SHAPE_VOLUME>  (1) 
100.5

>  <PUBCHEM_COORDINATE_TYPE>  (1) 
2
5
10

$$$$
