14281
     RDKit          3D

  9  9  0  0  0  0  0  0  0  0999 V2000
   -3.0908    0.9385    0.0000 I   0  0  0  0  0  0  0  0  0  0  0  0
    2.8603   -0.2419    0.0001 O   0  0  0  0  0  0  0  0  0  0  0  0
    0.7263   -1.0308   -0.0001 N   0  0  0  0  0  0  0  0  0  0  0  0
   -1.4452   -1.9750    0.0001 N   0  0  0  0  0  0  0  0  0  0  0  0
    1.1741    1.2992    0.0000 N   0  0  0  0  0  0  0  0  0  0  0  0
   -0.6455   -0.8627   -0.0001 C   0  0  0  0  0  0  0  0  0  0  0  0
   -1.1256    0.3963    0.0000 C   0  0  0  0  0  0  0  0  0  0  0  0
    1.6536    0.0052   -0.0001 C   0  0  0  0  0  0  0  0  0  0  0  0
   -0.1072    1.4711    0.0000 C   0  0  0  0  0  0  0  0  0  0  0  0
  1  7  1  0
  2  8  2  0
  3  6  1  0
  3  8  1  0
  4  6  1  0
  5  8  1  0
  5  9  2  0
  6  7  2  0
  7  9  1  0
M  END
>  <PUBCHEM_COMPOUND_CID>  (1) 
14281

>  <PUBCHEM_CONFORMER_RMSD>  (1) 
0.4

>  <PUBCHEM_CONFORMER_DIVERSEORDER>  (1) 
1

>  <PUBCHEM_MMFF94_PARTIAL_CHARGES>  (1) 
13
1 -0.09
10 0.37
11 0.06
12 0.4
13 0.4
2 -0.57
3 -0.54
4 -0.9
5 -0.66
6 0.21
7 0.1
8 0.84
9 0.38

>  <PUBCHEM_EFFECTIVE_ROTOR_COUNT>  (1) 
0

>  <PUBCHEM_PHARMACOPHORE_FEATURES>  (1) 
8
1 1 hydrophobe
1 2 acceptor
1 3 donor
1 4 cation
1 4 donor
1 5 acceptor
1 5 donor
6 3 5 6 7 8 9 rings

>  <PUBCHEM_HEAVY_ATOM_COUNT>  (1) 
9

>  <PUBCHEM_ATOM_DEF_STEREO_COUNT>  (1) 
0

>  <PUBCHEM_ATOM_UDEF_STEREO_COUNT>  (1) 
0

>  <PUBCHEM_BOND_DEF_STEREO_COUNT>  (1) 
0

>  <PUBCHEM_BOND_UDEF_STEREO_COUNT>  (1) 
0

>  <PUBCHEM_ISOTOPIC_ATOM_COUNT>  (1) 
0

>  <PUBCHEM_COMPONENT_COUNT>  (1) 
1

>  <PUBCHEM_CACTVS_TAUTO_COUNT>  (1) 
9

>  <PUBCHEM_CONFORMER_ID>  (1) 
000037C900000001

>  <PUBCHEM_MMFF94_ENERGY>  (1) 
22.8378

>  <PUBCHEM_FEATURE_SELFOVERLAP>  (1) 
40.723

>  <PUBCHEM_SHAPE_FINGERPRINT>  (1) 
14325111 11 18410855430490989921
15310529 11 16660641808779077436
16945 1 18410856529633216165
193761 8 18050286165465352673
21040471 1 18410855447422796357
23235685 24 18340482270765081833
23402655 69 18051677873142173781
23552423 10 18116151262786498964
2748010 2 18267867370255193124
29004967 10 18189061910375797497
5084963 1 18201997694915413457

>  <PUBCHEM_SHAPE_MULTIPOLES>  (1) 
176.34
3.86
1.69
0.62
0.9
0.52
0
-0.78
0
0.37
0
0.16
-0.04
0

>  <PUBCHEM_SHAPE_SELFOVERLAP>  (1) 
343.7

>  <PUBCHEM_SHAPE_VOLUME>  (1) 
109.8

>  <PUBCHEM_COORDINATE_TYPE>  (1) 
2
5
10

$$$$
