14288
     RDKit          3D

  9  9  0  0  0  0  0  0  0  0999 V2000
    2.1800   -0.2506    0.0000 O   0  0  0  0  0  0  0  0  0  0  0  0
    0.1231    0.8085    0.0003 N   0  0  0  0  0  0  0  0  0  0  0  0
    0.2899   -1.5852   -0.0001 N   0  0  0  0  0  0  0  0  0  0  0  0
   -1.8666   -0.5328    0.0001 N   0  0  0  0  0  0  0  0  0  0  0  0
   -1.9980    1.8085   -0.0003 N   0  0  0  0  0  0  0  0  0  0  0  0
    0.8080   -0.3463    0.0000 C   0  0  0  0  0  0  0  0  0  0  0  0
   -1.2088    0.6379    0.0002 C   0  0  0  0  0  0  0  0  0  0  0  0
   -1.0527   -1.6010   -0.0001 C   0  0  0  0  0  0  0  0  0  0  0  0
    2.7252    1.0609   -0.0001 C   0  0  0  0  0  0  0  0  0  0  0  0
  1  6  1  0
  1  9  1  0
  2  6  2  0
  2  7  1  0
  3  6  1  0
  3  8  2  0
  4  7  2  0
  4  8  1  0
  5  7  1  0
M  END
>  <PUBCHEM_COMPOUND_CID>  (1) 
14288

>  <PUBCHEM_CONFORMER_RMSD>  (1) 
0.4

>  <PUBCHEM_CONFORMER_DIVERSEORDER>  (1) 
1
2

>  <PUBCHEM_MMFF94_PARTIAL_CHARGES>  (1) 
12
1 -0.36
10 0.15
14 0.4
15 0.4
2 -0.62
3 -0.62
4 -0.62
5 -0.9
6 0.7
7 0.72
8 0.47
9 0.28

>  <PUBCHEM_EFFECTIVE_ROTOR_COUNT>  (1) 
1

>  <PUBCHEM_PHARMACOPHORE_FEATURES>  (1) 
3
1 5 donor
4 2 4 5 7 cation
6 2 3 4 6 7 8 rings

>  <PUBCHEM_HEAVY_ATOM_COUNT>  (1) 
9

>  <PUBCHEM_ATOM_DEF_STEREO_COUNT>  (1) 
0

>  <PUBCHEM_ATOM_UDEF_STEREO_COUNT>  (1) 
0

>  <PUBCHEM_BOND_DEF_STEREO_COUNT>  (1) 
0

>  <PUBCHEM_BOND_UDEF_STEREO_COUNT>  (1) 
0

>  <PUBCHEM_ISOTOPIC_ATOM_COUNT>  (1) 
0

>  <PUBCHEM_COMPONENT_COUNT>  (1) 
1

>  <PUBCHEM_CACTVS_TAUTO_COUNT>  (1) 
4

>  <PUBCHEM_CONFORMER_ID>  (1) 
000037D000000001

>  <PUBCHEM_MMFF94_ENERGY>  (1) 
27.5552

>  <PUBCHEM_FEATURE_SELFOVERLAP>  (1) 
15.223

>  <PUBCHEM_SHAPE_FINGERPRINT>  (1) 
14390081 3 18342173379952307784
16714656 1 18339645675539147038
21040471 1 18338516326731224774
23552423 10 18333170578939315150
5084963 1 18202003239506975162

>  <PUBCHEM_SHAPE_MULTIPOLES>  (1) 
159.42
3.13
1.76
0.56
1.96
0.07
0
1.02
0
-0.82
0
0.01
0
0

>  <PUBCHEM_SHAPE_SELFOVERLAP>  (1) 
324.697

>  <PUBCHEM_SHAPE_VOLUME>  (1) 
89.2

>  <PUBCHEM_COORDINATE_TYPE>  (1) 
2
5
10

$$$$
