14283
     RDKit          3D

  9  9  0  0  0  0  0  0  0  0999 V2000
   -1.5420    1.2150   -0.7691 O   0  0  0  0  0  0  0  0  0  0  0  0
   -2.4449   -0.8237   -0.2010 N   0  0  0  0  0  0  0  0  0  0  0  0
   -0.4140   -0.1030    0.8778 C   0  0  0  0  0  0  0  0  0  0  0  0
    0.5532    1.0841    0.9893 C   0  0  0  0  0  0  0  0  0  0  0  0
    0.3433   -1.4011    0.5574 C   0  0  0  0  0  0  0  0  0  0  0  0
    1.4819    1.2117   -0.2182 C   0  0  0  0  0  0  0  0  0  0  0  0
    1.2894   -1.2717   -0.6375 C   0  0  0  0  0  0  0  0  0  0  0  0
    2.2374   -0.0867   -0.4832 C   0  0  0  0  0  0  0  0  0  0  0  0
   -1.5043    0.1753   -0.1155 C   0  0  0  0  0  0  0  0  0  0  0  0
  1  9  2  0
  2  9  1  0
  3  4  1  0
  3  5  1  0
  3  9  1  0
  4  6  1  0
  5  7  1  0
  6  8  1  0
  7  8  1  0
M  END
>  <PUBCHEM_COMPOUND_CID>  (1) 
14283

>  <PUBCHEM_CONFORMER_RMSD>  (1) 
0.4

>  <PUBCHEM_CONFORMER_DIVERSEORDER>  (1) 
3
5
22
27
11
6
17
23
13
24
1
2
18
14
15
26
20
10
19
16
4
21
9
25
12
8
7

>  <PUBCHEM_MMFF94_PARTIAL_CHARGES>  (1) 
6
1 -0.57
2 -0.8
21 0.37
22 0.37
3 0.06
9 0.57

>  <PUBCHEM_EFFECTIVE_ROTOR_COUNT>  (1) 
2.2

>  <PUBCHEM_PHARMACOPHORE_FEATURES>  (1) 
3
1 1 acceptor
1 2 donor
6 3 4 5 6 7 8 rings

>  <PUBCHEM_HEAVY_ATOM_COUNT>  (1) 
9

>  <PUBCHEM_ATOM_DEF_STEREO_COUNT>  (1) 
0

>  <PUBCHEM_ATOM_UDEF_STEREO_COUNT>  (1) 
0

>  <PUBCHEM_BOND_DEF_STEREO_COUNT>  (1) 
0

>  <PUBCHEM_BOND_UDEF_STEREO_COUNT>  (1) 
0

>  <PUBCHEM_ISOTOPIC_ATOM_COUNT>  (1) 
0

>  <PUBCHEM_COMPONENT_COUNT>  (1) 
1

>  <PUBCHEM_CACTVS_TAUTO_COUNT>  (1) 
2

>  <PUBCHEM_CONFORMER_ID>  (1) 
000037CB00000003

>  <PUBCHEM_MMFF94_ENERGY>  (1) 
9.0702

>  <PUBCHEM_FEATURE_SELFOVERLAP>  (1) 
15.223

>  <PUBCHEM_SHAPE_FINGERPRINT>  (1) 
12423570 1 13642838735449092202
12897270 3 18335419092865356543
137420 1 13789340469210415193
14128692 85 17989207057523132654
16945 1 18335706078200770122
18185500 45 17979079275541617338
21040471 1 18265611176869195264
23211744 25 18334016081542085803
23552423 10 18336551508010883011
29004967 10 17632859719848528938
5084963 1 18409167752861125920

>  <PUBCHEM_SHAPE_MULTIPOLES>  (1) 
174.37
2.7
1.52
0.97
0.62
0.08
0.12
0.14
-0.76
-0.27
0
-0.01
-0.09
0.2

>  <PUBCHEM_SHAPE_SELFOVERLAP>  (1) 
342.762

>  <PUBCHEM_SHAPE_VOLUME>  (1) 
102.9

>  <PUBCHEM_COORDINATE_TYPE>  (1) 
2
5
10

$$$$
