14292
     RDKit          3D

 10 10  0  0  0  0  0  0  0  0999 V2000
   -1.5518   -2.3016    0.0547 O   0  0  0  0  0  0  0  0  0  0  0  0
   -1.5517    2.3016    0.0547 O   0  0  0  0  0  0  0  0  0  0  0  0
   -1.5197    0.0001    0.0488 N   0  0  0  0  0  0  0  0  0  0  0  0
    1.2863    0.0000    0.0104 C   0  0  0  0  0  0  0  0  0  0  0  0
    0.5322   -1.2463   -0.4719 C   0  0  0  0  0  0  0  0  0  0  0  0
    0.5323    1.2463   -0.4718 C   0  0  0  0  0  0  0  0  0  0  0  0
    1.4301   -0.0001    1.5443 C   0  0  0  0  0  0  0  0  0  0  0  0
    2.6981   -0.0001   -0.6038 C   0  0  0  0  0  0  0  0  0  0  0  0
   -0.9280   -1.2494   -0.0828 C   0  0  0  0  0  0  0  0  0  0  0  0
   -0.9279    1.2494   -0.0828 C   0  0  0  0  0  0  0  0  0  0  0  0
  1  9  2  0
  2 10  2  0
  3  9  1  0
  3 10  1  0
  4  5  1  0
  4  6  1  0
  4  7  1  0
  4  8  1  0
  5  9  1  0
  6 10  1  0
M  END
>  <PUBCHEM_COMPOUND_CID>  (1) 
14292

>  <PUBCHEM_CONFORMER_RMSD>  (1) 
0.4

>  <PUBCHEM_CONFORMER_DIVERSEORDER>  (1) 
1

>  <PUBCHEM_MMFF94_PARTIAL_CHARGES>  (1) 
8
1 -0.57
10 0.57
2 -0.57
21 0.37
3 -0.49
5 0.06
6 0.06
9 0.57

>  <PUBCHEM_EFFECTIVE_ROTOR_COUNT>  (1) 
0.8

>  <PUBCHEM_PHARMACOPHORE_FEATURES>  (1) 
5
1 1 acceptor
1 2 acceptor
1 3 donor
3 4 7 8 hydrophobe
6 3 4 5 6 9 10 rings

>  <PUBCHEM_HEAVY_ATOM_COUNT>  (1) 
10

>  <PUBCHEM_ATOM_DEF_STEREO_COUNT>  (1) 
0

>  <PUBCHEM_ATOM_UDEF_STEREO_COUNT>  (1) 
0

>  <PUBCHEM_BOND_DEF_STEREO_COUNT>  (1) 
0

>  <PUBCHEM_BOND_UDEF_STEREO_COUNT>  (1) 
0

>  <PUBCHEM_ISOTOPIC_ATOM_COUNT>  (1) 
0

>  <PUBCHEM_COMPONENT_COUNT>  (1) 
1

>  <PUBCHEM_CACTVS_TAUTO_COUNT>  (1) 
2

>  <PUBCHEM_CONFORMER_ID>  (1) 
000037D400000001

>  <PUBCHEM_MMFF94_ENERGY>  (1) 
22.1439

>  <PUBCHEM_FEATURE_SELFOVERLAP>  (1) 
25.371

>  <PUBCHEM_SHAPE_FINGERPRINT>  (1) 
12423570 1 17263554903902404738
12716758 59 18341055103854800790
137420 1 17031971199425870182
16945 1 18410859862670080838
18185500 45 17977101593314816927
21040471 1 18267298720990900772
21922407 69 17023178301827837800
21930827 45 18271800177550864592
23235685 24 18194681471129003180
23552423 10 18115874173187746974
2748010 2 18124030401691988077
5084963 1 18057038012878589005

>  <PUBCHEM_SHAPE_MULTIPOLES>  (1) 
189.08
2.58
2.09
0.94
1
0
-0.35
0
0.14
-1.57
0.13
0.5
0
0

>  <PUBCHEM_SHAPE_SELFOVERLAP>  (1) 
380.884

>  <PUBCHEM_SHAPE_VOLUME>  (1) 
110.8

>  <PUBCHEM_COORDINATE_TYPE>  (1) 
2
5
10

$$$$
