14295
     RDKit          3D

 10 10  0  0  1  0  0  0  0  0999 V2000
    2.1058    1.5788    0.9357 O   0  0  0  0  0  0  0  0  0  0  0  0
    1.4925   -0.6200    0.1300 C   0  0  0  0  0  0  0  0  0  0  0  0
    0.0404   -0.2878    0.0525 C   0  0  0  0  0  0  0  0  0  0  0  0
    2.4091    0.6099   -0.0618 C   0  0  0  0  0  0  0  0  0  0  0  0
    1.8972   -1.7070   -0.8860 C   0  0  0  0  0  0  0  0  0  0  0  0
   -0.3992    0.7226   -0.8027 C   0  0  0  0  0  0  0  0  0  0  0  0
   -0.8777   -0.9874    0.8355 C   0  0  0  0  0  0  0  0  0  0  0  0
   -1.7571    1.0336   -0.8748 C   0  0  0  0  0  0  0  0  0  0  0  0
   -2.2356   -0.6766    0.7634 C   0  0  0  0  0  0  0  0  0  0  0  0
   -2.6753    0.3339   -0.0918 C   0  0  0  0  0  0  0  0  0  0  0  0
  1  4  1  0
  2  3  1  0
  2  4  1  0
  2  5  1  0
  3  6  2  0
  3  7  1  0
  6  8  1  0
  7  9  2  0
  8 10  2  0
  9 10  1  0
M  END
>  <PUBCHEM_COMPOUND_CID>  (1) 
14295

>  <PUBCHEM_CONFORMER_RMSD>  (1) 
0.4

>  <PUBCHEM_CONFORMER_DIVERSEORDER>  (1) 
4
9
6
10
2
8
7
5
3
1

>  <PUBCHEM_MMFF94_PARTIAL_CHARGES>  (1) 
15
1 -0.68
10 -0.15
17 0.15
18 0.15
19 0.15
2 0.14
20 0.15
21 0.15
22 0.4
3 -0.14
4 0.28
6 -0.15
7 -0.15
8 -0.15
9 -0.15

>  <PUBCHEM_EFFECTIVE_ROTOR_COUNT>  (1) 
2

>  <PUBCHEM_PHARMACOPHORE_FEATURES>  (1) 
4
1 1 acceptor
1 1 donor
1 5 hydrophobe
6 3 6 7 8 9 10 rings

>  <PUBCHEM_HEAVY_ATOM_COUNT>  (1) 
10

>  <PUBCHEM_ATOM_DEF_STEREO_COUNT>  (1) 
0

>  <PUBCHEM_ATOM_UDEF_STEREO_COUNT>  (1) 
1

>  <PUBCHEM_BOND_DEF_STEREO_COUNT>  (1) 
0

>  <PUBCHEM_BOND_UDEF_STEREO_COUNT>  (1) 
0

>  <PUBCHEM_ISOTOPIC_ATOM_COUNT>  (1) 
0

>  <PUBCHEM_COMPONENT_COUNT>  (1) 
1

>  <PUBCHEM_CACTVS_TAUTO_COUNT>  (1) 
1

>  <PUBCHEM_CONFORMER_ID>  (1) 
000037D700000004

>  <PUBCHEM_MMFF94_ENERGY>  (1) 
24.8515

>  <PUBCHEM_FEATURE_SELFOVERLAP>  (1) 
20.297

>  <PUBCHEM_SHAPE_FINGERPRINT>  (1) 
10857977 72 17822576109167577609
12326174 3 17703801284173202382
12524768 44 18334859407007971759
12716758 59 17822856368605376347
12932741 1 18335422326817474831
12932764 1 18411144623254860783
15219456 202 18409169896234455406
15310529 11 17418091005730753331
16945 1 17385448704593950191
18380122 1 18264212576445676091
19973954 147 18410857616207363429
20201158 50 18338798914273530046
20645464 45 18334008384860263163
20653085 51 18057324985809226905
20711978 78 18201440246598645294
21040471 1 17459466637495829295
23211744 41 18335693987830908850
23552423 10 17313394391510486579
2748010 2 18186524280646656559
29004967 10 18130225952151512118
369184 2 15140951885542005381
5084963 1 17968668098685368591

>  <PUBCHEM_SHAPE_MULTIPOLES>  (1) 
199.93
3.8
1.5
1.03
0.1
0.03
-0.02
-0.28
0.09
-0.54
-0.01
-0.12
-0.02
0.96

>  <PUBCHEM_SHAPE_SELFOVERLAP>  (1) 
405.146

>  <PUBCHEM_SHAPE_VOLUME>  (1) 
117

>  <PUBCHEM_COORDINATE_TYPE>  (1) 
2
5
10

$$$$
