1429
     RDKit          3D

 20 19  0  0  0  0  0  0  0  0999 V2000
   10.1835    0.5627   -0.3892 O   0  0  0  0  0  0  0  0  0  0  0  0
    8.8048    1.9794    0.7371 O   0  0  0  0  0  0  0  0  0  0  0  0
   -5.7664   -0.0537    1.4910 O   0  0  0  0  0  0  0  0  0  0  0  0
    3.9650   -0.1536    0.1388 C   0  0  0  0  0  0  0  0  0  0  0  0
    2.8804   -1.1155   -0.3525 C   0  0  0  0  0  0  0  0  0  0  0  0
    5.3534   -0.4555   -0.4339 C   0  0  0  0  0  0  0  0  0  0  0  0
    1.5365   -0.8232    0.3234 C   0  0  0  0  0  0  0  0  0  0  0  0
    6.5007    0.4190    0.0884 C   0  0  0  0  0  0  0  0  0  0  0  0
    0.4042   -1.7416   -0.1485 C   0  0  0  0  0  0  0  0  0  0  0  0
    7.8846    0.0639   -0.4547 C   0  0  0  0  0  0  0  0  0  0  0  0
   -0.9280   -1.4051    0.4593 C   0  0  0  0  0  0  0  0  0  0  0  0
   -8.0581    0.7469    0.0836 C   0  0  0  0  0  0  0  0  0  0  0  0
    8.9677    0.9943    0.0326 C   0  0  0  0  0  0  0  0  0  0  0  0
   -6.7525    0.4458   -0.6532 C   0  0  0  0  0  0  0  0  0  0  0  0
   -9.2292    1.1434   -0.8213 C   0  0  0  0  0  0  0  0  0  0  0  0
   -1.9913   -1.0091   -0.2564 C   0  0  0  0  0  0  0  0  0  0  0  0
   -5.6293    0.0081    0.2717 C   0  0  0  0  0  0  0  0  0  0  0  0
  -10.5257    1.3924   -0.0661 C   0  0  0  0  0  0  0  0  0  0  0  0
   -3.2725   -0.6967    0.3373 C   0  0  0  0  0  0  0  0  0  0  0  0
   -4.3278   -0.3019   -0.3875 C   0  0  0  0  0  0  0  0  0  0  0  0
  1 13  1  0
  2 13  2  0
  3 17  2  0
  4  5  1  0
  4  6  1  0
  5  7  1  0
  6  8  1  0
  7  9  1  0
  8 10  1  0
  9 11  1  0
 10 13  1  0
 11 16  2  0
 12 14  1  0
 12 15  1  0
 14 17  1  0
 15 18  1  0
 16 19  1  0
 17 20  1  0
 19 20  2  0
M  END
>  <PUBCHEM_COMPOUND_CID>  (1) 
1429

>  <PUBCHEM_CONFORMER_RMSD>  (1) 
1.2

>  <PUBCHEM_CONFORMER_DIVERSEORDER>  (1) 
1
12
73
37
36
20
66
21
2
60
8
24
63
57
50
86
25
39
48
47
34
83
76
69
79
68
26
5
85
67
31
89
82
55
75
40
78
64
19
58
28
42
29
30
9
18
4
14
10
54
33
80
90
65
53
7
56
84
81
72
62
32
11
38
22
61
45
44
51
87
27
41
6
23
3
88
43
70
74
49
16
35
46
13
52
15
77
17
71
59

>  <PUBCHEM_MMFF94_PARTIAL_CHARGES>  (1) 
17
1 -0.65
10 0.06
11 -0.29
13 0.66
14 0.06
16 -0.15
17 0.49
19 -0.15
2 -0.57
20 -0.14
3 -0.57
35 0.15
42 0.15
46 0.15
47 0.15
48 0.5
9 0.14

>  <PUBCHEM_EFFECTIVE_ROTOR_COUNT>  (1) 
13

>  <PUBCHEM_PHARMACOPHORE_FEATURES>  (1) 
5
1 1 acceptor
1 18 hydrophobe
1 2 acceptor
1 3 acceptor
3 1 2 13 anion

>  <PUBCHEM_HEAVY_ATOM_COUNT>  (1) 
20

>  <PUBCHEM_ATOM_DEF_STEREO_COUNT>  (1) 
0

>  <PUBCHEM_ATOM_UDEF_STEREO_COUNT>  (1) 
0

>  <PUBCHEM_BOND_DEF_STEREO_COUNT>  (1) 
0

>  <PUBCHEM_BOND_UDEF_STEREO_COUNT>  (1) 
2

>  <PUBCHEM_ISOTOPIC_ATOM_COUNT>  (1) 
0

>  <PUBCHEM_COMPONENT_COUNT>  (1) 
1

>  <PUBCHEM_CACTVS_TAUTO_COUNT>  (1) 
2

>  <PUBCHEM_CONFORMER_ID>  (1) 
0000059500000001

>  <PUBCHEM_MMFF94_ENERGY>  (1) 
9.5744

>  <PUBCHEM_FEATURE_SELFOVERLAP>  (1) 
25.429

>  <PUBCHEM_SHAPE_FINGERPRINT>  (1) 
10 15 17821445755100275555
106641 1 14417853639671350847
11315181 36 17989209253211653211
11638347 137 11530483328662969588
12498461 61 12324251581426063801
12539745 222 11242241945017332031
14251764 18 13551471484561880914
14251764 46 18410292510180028255
14251920 17 18409446982867783309
14344974 52 18131346449548483751
14428016 86 18410857641998214254
14729087 3 18334012795865678494
15247644 1 10087640407390397461
155225 1 18409166593890115909
15690457 1 9151173151704998780
15706992 2 18113344106395029671
1754911 235 17703787024865994181
1818759 1 9223231853649557096
20771845 65 8862651413520955823
20812841 46 17967810519352240210
21095086 128 9655578513251878580
21130991 4 12175356769170349980
21150785 3 15985105210363420830
21267235 1 9727633903629120815
21792934 111 18060694010782370976
23524908 199 17989213612793324350
246663 6 9655578517652360238
57828716 8 13542470831539062732
59682541 35 17821451274576063803
59848396 5 11747521453580888993
636775 72 18261674784247133341
636775 8 14907892809172311013
9953998 17 16443067218602759755

>  <PUBCHEM_SHAPE_MULTIPOLES>  (1) 
393.98
40.57
1.48
0.84
9.48
0.06
0.09
29.04
-2.54
0.55
0.07
-0.59
0.03
1.05

>  <PUBCHEM_SHAPE_SELFOVERLAP>  (1) 
738.04

>  <PUBCHEM_SHAPE_VOLUME>  (1) 
244

>  <PUBCHEM_COORDINATE_TYPE>  (1) 
2
5
10

$$$$
