14305
     RDKit          3D

 11 12  0  0  0  0  0  0  0  0999 V2000
    3.4551   -0.7492    0.0344 O   0  0  0  0  0  0  0  0  0  0  0  0
   -2.7007   -0.9637   -0.3372 C   0  0  0  0  0  0  0  0  0  0  0  0
   -2.8983    0.3808    0.3511 C   0  0  0  0  0  0  0  0  0  0  0  0
   -1.3682   -1.5850    0.0776 C   0  0  0  0  0  0  0  0  0  0  0  0
   -1.8090    1.3635   -0.0744 C   0  0  0  0  0  0  0  0  0  0  0  0
   -0.2134   -0.6166    0.0117 C   0  0  0  0  0  0  0  0  0  0  0  0
   -0.4213    0.7749   -0.0192 C   0  0  0  0  0  0  0  0  0  0  0  0
    1.0973   -1.1167    0.0402 C   0  0  0  0  0  0  0  0  0  0  0  0
    0.6858    1.6359   -0.0577 C   0  0  0  0  0  0  0  0  0  0  0  0
    2.1892   -0.2497    0.0123 C   0  0  0  0  0  0  0  0  0  0  0  0
    1.9835    1.1258   -0.0389 C   0  0  0  0  0  0  0  0  0  0  0  0
  1 10  1  0
  2  3  1  0
  2  4  1  0
  3  5  1  0
  4  6  1  0
  5  7  1  0
  6  7  2  0
  6  8  1  0
  7  9  1  0
  8 10  2  0
  9 11  2  0
 10 11  1  0
M  END
>  <PUBCHEM_COMPOUND_CID>  (1) 
14305

>  <PUBCHEM_CONFORMER_RMSD>  (1) 
0.4

>  <PUBCHEM_CONFORMER_DIVERSEORDER>  (1) 
1

>  <PUBCHEM_MMFF94_PARTIAL_CHARGES>  (1) 
13
1 -0.53
10 0.08
11 -0.15
20 0.15
21 0.15
22 0.15
23 0.45
4 0.14
5 0.14
6 -0.14
7 -0.14
8 -0.15
9 -0.15

>  <PUBCHEM_EFFECTIVE_ROTOR_COUNT>  (1) 
0.8

>  <PUBCHEM_PHARMACOPHORE_FEATURES>  (1) 
3
1 1 donor
6 2 3 4 5 6 7 rings
6 6 7 8 9 10 11 rings

>  <PUBCHEM_HEAVY_ATOM_COUNT>  (1) 
11

>  <PUBCHEM_ATOM_DEF_STEREO_COUNT>  (1) 
0

>  <PUBCHEM_ATOM_UDEF_STEREO_COUNT>  (1) 
0

>  <PUBCHEM_BOND_DEF_STEREO_COUNT>  (1) 
0

>  <PUBCHEM_BOND_UDEF_STEREO_COUNT>  (1) 
0

>  <PUBCHEM_ISOTOPIC_ATOM_COUNT>  (1) 
0

>  <PUBCHEM_COMPONENT_COUNT>  (1) 
1

>  <PUBCHEM_CACTVS_TAUTO_COUNT>  (1) 
9

>  <PUBCHEM_CONFORMER_ID>  (1) 
000037E100000001

>  <PUBCHEM_MMFF94_ENERGY>  (1) 
19.9592

>  <PUBCHEM_FEATURE_SELFOVERLAP>  (1) 
15.244

>  <PUBCHEM_SHAPE_FINGERPRINT>  (1) 
11206711 2 18335417950324902293
12032990 46 18410582764159881002
12897270 3 18410008879303847391
12932764 1 17385433328236497115
14128692 85 18412265064147324972
14325111 11 18411138056133827057
15775835 57 18411147960460286925
16945 1 18409448068112225101
17844478 74 17967543384643193265
193761 8 17833833055141363946
19973954 147 18337674246937684433
20201158 50 18412543189070819215
21040471 1 18410575054609058721
21501502 16 18339927128998836205
23402655 69 18194946458691798069
23463225 33 18336264548730168018
23552423 10 18189053255789589255
23559900 14 18270117891313518262
241688 4 18335979839384718305
2748010 2 18266178528995276885
369184 2 18272650177337984097
5084963 1 18343581858489196137
528886 8 18411413977828334091
63268167 104 18410295856096896945
7364860 26 18198625625944736664

>  <PUBCHEM_SHAPE_MULTIPOLES>  (1) 
220.51
4.33
1.73
0.63
0.59
0.16
0
-0.64
0.05
-0.15
-0.03
-0.09
0
-0.11

>  <PUBCHEM_SHAPE_SELFOVERLAP>  (1) 
468.609

>  <PUBCHEM_SHAPE_VOLUME>  (1) 
123

>  <PUBCHEM_COORDINATE_TYPE>  (1) 
2
5
10

$$$$
