14307
     RDKit          3D

 11 11  0  0  0  0  0  0  0  0999 V2000
    4.1430   -0.3261   -0.0005 Cl  0  0  0  0  0  0  0  0  0  0  0  0
   -2.4277   -0.8497    0.0000 O   0  0  0  0  0  0  0  0  0  0  0  0
   -2.3616    1.4512    0.0002 O   0  0  0  0  0  0  0  0  0  0  0  0
   -0.3377    0.1907    0.0006 C   0  0  0  0  0  0  0  0  0  0  0  0
    0.4934    1.3109    0.0001 C   0  0  0  0  0  0  0  0  0  0  0  0
    0.2168   -1.0892    0.0008 C   0  0  0  0  0  0  0  0  0  0  0  0
    1.8791    1.1511   -0.0005 C   0  0  0  0  0  0  0  0  0  0  0  0
    1.6025   -1.2489    0.0003 C   0  0  0  0  0  0  0  0  0  0  0  0
    2.4336   -0.1288   -0.0003 C   0  0  0  0  0  0  0  0  0  0  0  0
   -1.7825    0.3569    0.0007 C   0  0  0  0  0  0  0  0  0  0  0  0
   -3.8590   -0.8181   -0.0013 C   0  0  0  0  0  0  0  0  0  0  0  0
  1  9  1  0
  2 10  1  0
  2 11  1  0
  3 10  2  0
  4  5  2  0
  4  6  1  0
  4 10  1  0
  5  7  1  0
  6  8  2  0
  7  9  2  0
  8  9  1  0
M  END
>  <PUBCHEM_COMPOUND_CID>  (1) 
14307

>  <PUBCHEM_CONFORMER_RMSD>  (1) 
0.4

>  <PUBCHEM_CONFORMER_DIVERSEORDER>  (1) 
1
2

>  <PUBCHEM_MMFF94_PARTIAL_CHARGES>  (1) 
15
1 -0.18
10 0.63
11 0.28
12 0.15
13 0.15
14 0.15
15 0.15
2 -0.43
3 -0.57
4 0.09
5 -0.15
6 -0.15
7 -0.15
8 -0.15
9 0.18

>  <PUBCHEM_EFFECTIVE_ROTOR_COUNT>  (1) 
2

>  <PUBCHEM_PHARMACOPHORE_FEATURES>  (1) 
2
1 3 acceptor
6 4 5 6 7 8 9 rings

>  <PUBCHEM_HEAVY_ATOM_COUNT>  (1) 
11

>  <PUBCHEM_ATOM_DEF_STEREO_COUNT>  (1) 
0

>  <PUBCHEM_ATOM_UDEF_STEREO_COUNT>  (1) 
0

>  <PUBCHEM_BOND_DEF_STEREO_COUNT>  (1) 
0

>  <PUBCHEM_BOND_UDEF_STEREO_COUNT>  (1) 
0

>  <PUBCHEM_ISOTOPIC_ATOM_COUNT>  (1) 
0

>  <PUBCHEM_COMPONENT_COUNT>  (1) 
1

>  <PUBCHEM_CACTVS_TAUTO_COUNT>  (1) 
1

>  <PUBCHEM_CONFORMER_ID>  (1) 
000037E300000001

>  <PUBCHEM_MMFF94_ENERGY>  (1) 
28.5378

>  <PUBCHEM_FEATURE_SELFOVERLAP>  (1) 
10.148

>  <PUBCHEM_SHAPE_FINGERPRINT>  (1) 
11062470 55 12179840610797625390
12032990 46 18413112736500130558
12897270 3 18408882962364796127
12932764 1 17131821062784593094
13690532 89 18408321077785050602
14325111 11 18410856555666770528
14993402 34 17967821565385184974
16945 1 18410575123354766310
193761 8 17473825026936307618
200 152 18130777976230125263
20201158 50 18407761443129786963
20871998 22 18200040534111035734
21040471 1 18338517555434840736
21293036 1 18408610275112699806
21501925 9 18409439298068620706
23402539 116 18412254051967346231
23402655 69 18195794194820117085
23463225 33 18335419033036520474
23552423 10 18261396619792616325
2748010 2 18268148647747843342
3312278 4 18341050709607573336
5084963 1 18342459265591217824
528886 8 18339355271409772184
8809292 202 18115030830405264163

>  <PUBCHEM_SHAPE_MULTIPOLES>  (1) 
216.51
6.03
1.44
0.6
0.65
0.2
0
-1.29
0
0.16
0
-0.06
-0.01
0

>  <PUBCHEM_SHAPE_SELFOVERLAP>  (1) 
440.636

>  <PUBCHEM_SHAPE_VOLUME>  (1) 
127.4

>  <PUBCHEM_COORDINATE_TYPE>  (1) 
2
5
10

$$$$
