14304
     RDKit          3D

 11 11  0  0  0  0  0  0  0  0999 V2000
    1.7664   -1.4144    1.6378 Cl  0  0  0  0  0  0  0  0  0  0  0  0
    1.7516   -1.4380   -1.6418 Cl  0  0  0  0  0  0  0  0  0  0  0  0
    1.3703   -0.2758   -0.0086 Si  0  0  0  0  0  4  0  0  0  0  0  0
    2.3854    1.2449   -0.0246 C   0  0  0  0  0  0  0  0  0  0  0  0
   -0.4777   -0.0366   -0.0025 C   0  0  0  0  0  0  0  0  0  0  0  0
    3.8926    1.0308    0.0255 C   0  0  0  0  0  0  0  0  0  0  0  0
   -1.0146    1.2507   -0.0100 C   0  0  0  0  0  0  0  0  0  0  0  0
   -1.3240   -1.1452    0.0095 C   0  0  0  0  0  0  0  0  0  0  0  0
   -2.3980    1.4294   -0.0055 C   0  0  0  0  0  0  0  0  0  0  0  0
   -2.7074   -0.9666    0.0138 C   0  0  0  0  0  0  0  0  0  0  0  0
   -3.2444    0.3208    0.0063 C   0  0  0  0  0  0  0  0  0  0  0  0
  1  3  1  0
  2  3  1  0
  3  4  1  0
  3  5  1  0
  4  6  1  0
  5  7  2  0
  5  8  1  0
  7  9  1  0
  8 10  2  0
  9 11  2  0
 10 11  1  0
M  END
>  <PUBCHEM_COMPOUND_CID>  (1) 
14304

>  <PUBCHEM_CONFORMER_RMSD>  (1) 
0.4

>  <PUBCHEM_CONFORMER_DIVERSEORDER>  (1) 
1
6
2
3
8
7
4
5

>  <PUBCHEM_MMFF94_PARTIAL_CHARGES>  (1) 
15
1 -0.37
10 -0.15
11 -0.15
17 0.15
18 0.15
19 0.15
2 -0.37
20 0.15
21 0.15
3 1.04
4 -0.08
5 -0.22
7 -0.15
8 -0.15
9 -0.15

>  <PUBCHEM_EFFECTIVE_ROTOR_COUNT>  (1) 
2

>  <PUBCHEM_PHARMACOPHORE_FEATURES>  (1) 
1
6 5 7 8 9 10 11 rings

>  <PUBCHEM_HEAVY_ATOM_COUNT>  (1) 
11

>  <PUBCHEM_ATOM_DEF_STEREO_COUNT>  (1) 
0

>  <PUBCHEM_ATOM_UDEF_STEREO_COUNT>  (1) 
0

>  <PUBCHEM_BOND_DEF_STEREO_COUNT>  (1) 
0

>  <PUBCHEM_BOND_UDEF_STEREO_COUNT>  (1) 
0

>  <PUBCHEM_ISOTOPIC_ATOM_COUNT>  (1) 
0

>  <PUBCHEM_COMPONENT_COUNT>  (1) 
1

>  <PUBCHEM_CACTVS_TAUTO_COUNT>  (1) 
1

>  <PUBCHEM_CONFORMER_ID>  (1) 
000037E000000001

>  <PUBCHEM_MMFF94_ENERGY>  (1) 
15.8488

>  <PUBCHEM_FEATURE_SELFOVERLAP>  (1) 
5.074

>  <PUBCHEM_SHAPE_FINGERPRINT>  (1) 
10608611 8 18342459214146880524
107287 299 17632863031331676310
11031198 65 17418374675256443236
12346645 44 18260826033814773224
12524768 44 18413112736294194469
12897270 3 18201726179746173252
12932764 1 17968947366228256613
13380535 76 18341895212026438734
14252887 29 18196673967130621795
14325111 11 18410575076083940672
14648413 74 18128266592450213086
15219456 202 18201729426620045422
15775835 57 18187365406746577504
16945 1 18266459991092340813
170605 34 18409731776862391240
17990270 104 18272091548079516702
18186145 218 18265618680456922125
19973954 147 18200319805463496765
20201158 50 18273500078150984484
20645464 45 18411141333372955687
20653085 51 18056211180524852825
20671657 53 17415023274100879822
20871998 184 18056764445200713511
21028194 46 18270684280902630368
21501502 16 18340764858074843267
21524375 3 18265895942234355932
22802520 49 18128556876236185791
23402539 116 18338789138764304422
23552423 10 18187086165300371855
2748010 2 18339368470034144501
305870 269 17967809423280601922
3248919 1 18059566928477555081
369184 2 18113330886817982465
5084963 1 17701823189460801063
528886 8 17917712439466671630
6333449 129 18341613754313921741
7364860 26 18337388219596703802
8030462 33 17822018557909016875

>  <PUBCHEM_SHAPE_MULTIPOLES>  (1) 
248.33
5.44
1.76
1.16
0.18
0.02
0
1.5
-0.04
-0.37
0.01
-0.88
-0.68
0.01

>  <PUBCHEM_SHAPE_SELFOVERLAP>  (1) 
469.829

>  <PUBCHEM_SHAPE_VOLUME>  (1) 
154.9

>  <PUBCHEM_COORDINATE_TYPE>  (1) 
2
5
10

$$$$
