14303
     RDKit          3D

 10 10  0  0  0  0  0  0  0  0999 V2000
    3.5131   -0.5194    0.3789 S   0  0  0  0  0  0  0  0  0  0  0  0
    2.9837    1.3330   -0.2925 S   0  0  0  0  0  0  0  0  0  0  0  0
   -3.0660   -1.1134   -0.0807 O   0  0  0  0  0  0  0  0  0  0  0  0
   -0.3475   -0.7016   -0.0685 N   0  0  0  0  0  0  0  0  0  0  0  0
   -1.2359    0.3102    0.0302 N   0  0  0  0  0  0  0  0  0  0  0  0
   -3.3684    1.1538    0.1254 N   0  0  0  0  0  0  0  0  0  0  0  0
    0.8845   -0.3085   -0.0444 C   0  0  0  0  0  0  0  0  0  0  0  0
    1.9942   -1.3292   -0.1429 C   0  0  0  0  0  0  0  0  0  0  0  0
    1.2316    1.1585    0.0783 C   0  0  0  0  0  0  0  0  0  0  0  0
   -2.5894    0.0166    0.0162 C   0  0  0  0  0  0  0  0  0  0  0  0
  1  2  1  0
  1  8  1  0
  2  9  1  0
  3 10  2  0
  4  5  1  0
  4  7  2  3
  5 10  1  0
  6 10  1  0
  7  8  1  0
  7  9  1  0
M  END
>  <PUBCHEM_COMPOUND_CID>  (1) 
14303

>  <PUBCHEM_CONFORMER_RMSD>  (1) 
0.6

>  <PUBCHEM_CONFORMER_DIVERSEORDER>  (1) 
1

>  <PUBCHEM_MMFF94_PARTIAL_CHARGES>  (1) 
13
1 -0.23
10 0.69
15 0.37
16 0.37
17 0.37
2 -0.23
3 -0.57
4 -0.51
5 -0.37
6 -0.8
7 0.33
8 0.29
9 0.29

>  <PUBCHEM_EFFECTIVE_ROTOR_COUNT>  (1) 
2.8

>  <PUBCHEM_PHARMACOPHORE_FEATURES>  (1) 
5
1 3 acceptor
1 4 acceptor
1 5 donor
1 6 donor
5 1 2 7 8 9 rings

>  <PUBCHEM_HEAVY_ATOM_COUNT>  (1) 
10

>  <PUBCHEM_ATOM_DEF_STEREO_COUNT>  (1) 
0

>  <PUBCHEM_ATOM_UDEF_STEREO_COUNT>  (1) 
0

>  <PUBCHEM_BOND_DEF_STEREO_COUNT>  (1) 
0

>  <PUBCHEM_BOND_UDEF_STEREO_COUNT>  (1) 
0

>  <PUBCHEM_ISOTOPIC_ATOM_COUNT>  (1) 
0

>  <PUBCHEM_COMPONENT_COUNT>  (1) 
1

>  <PUBCHEM_CACTVS_TAUTO_COUNT>  (1) 
3

>  <PUBCHEM_CONFORMER_ID>  (1) 
000037DF00000001

>  <PUBCHEM_MMFF94_ENERGY>  (1) 
21.1799

>  <PUBCHEM_FEATURE_SELFOVERLAP>  (1) 
25.429

>  <PUBCHEM_SHAPE_FINGERPRINT>  (1) 
10219947 1 18334857229744304748
11062470 55 18060415785703127842
12162725 195 18410011043898844665
12932764 1 17489302035733865263
14144814 61 18411700993191517760
14325111 11 18410575114727862980
14390081 3 18412545444034079577
170605 34 18261392308072829544
18186145 218 18114180817701080566
190213 19 17775568628336554734
20201158 50 18408885105363826130
20645477 70 18410289181849951623
20871998 22 18052819148783807782
23402655 69 18412821378603251021
3248919 1 17560807597714967607

>  <PUBCHEM_SHAPE_MULTIPOLES>  (1) 
192.68
6.33
1.45
0.63
2.97
0.14
-0.01
0.42
-0.28
-0.52
0.06
-0.21
0.01
-0.23

>  <PUBCHEM_SHAPE_SELFOVERLAP>  (1) 
357.317

>  <PUBCHEM_SHAPE_VOLUME>  (1) 
123

>  <PUBCHEM_COORDINATE_TYPE>  (1) 
2
5
10

$$$$
