14313
     RDKit          3D

 12 13  0  0  0  0  0  0  0  0999 V2000
   -2.3644    1.6262    0.0003 O   0  0  0  0  0  0  0  0  0  0  0  0
   -3.0667   -1.1599   -0.0003 O   0  0  0  0  0  0  0  0  0  0  0  0
   -0.7127   -1.4239    0.0001 N   0  0  0  0  0  0  0  0  0  0  0  0
    0.3541   -0.5224    0.0002 C   0  0  0  0  0  0  0  0  0  0  0  0
   -0.1015    0.7924    0.0001 C   0  0  0  0  0  0  0  0  0  0  0  0
    1.7025   -0.8125    0.0002 C   0  0  0  0  0  0  0  0  0  0  0  0
   -1.5611    0.7255   -0.0001 C   0  0  0  0  0  0  0  0  0  0  0  0
    0.7502    1.8752   -0.0001 C   0  0  0  0  0  0  0  0  0  0  0  0
   -1.9244   -0.7570    0.0000 C   0  0  0  0  0  0  0  0  0  0  0  0
    2.5910    0.2684   -0.0001 C   0  0  0  0  0  0  0  0  0  0  0  0
    2.1195    1.5981   -0.0002 C   0  0  0  0  0  0  0  0  0  0  0  0
    2.2134   -2.2101   -0.0001 C   0  0  0  0  0  0  0  0  0  0  0  0
  1  7  2  0
  2  9  2  0
  3  4  1  0
  3  9  1  0
  4  5  2  0
  4  6  1  0
  5  7  1  0
  5  8  1  0
  6 10  2  0
  6 12  1  0
  7  9  1  0
  8 11  2  0
 10 11  1  0
M  END
>  <PUBCHEM_COMPOUND_CID>  (1) 
14313

>  <PUBCHEM_CONFORMER_RMSD>  (1) 
0.4

>  <PUBCHEM_CONFORMER_DIVERSEORDER>  (1) 
1

>  <PUBCHEM_MMFF94_PARTIAL_CHARGES>  (1) 
16
1 -0.57
10 -0.15
11 -0.15
12 0.14
13 0.37
14 0.15
15 0.15
16 0.15
2 -0.57
3 -0.55
4 0.12
5 0.09
6 -0.14
7 0.48
8 -0.15
9 0.63

>  <PUBCHEM_EFFECTIVE_ROTOR_COUNT>  (1) 
0.2

>  <PUBCHEM_PHARMACOPHORE_FEATURES>  (1) 
5
1 1 acceptor
1 2 acceptor
1 3 donor
5 3 4 5 7 9 rings
6 4 5 6 8 10 11 rings

>  <PUBCHEM_HEAVY_ATOM_COUNT>  (1) 
12

>  <PUBCHEM_ATOM_DEF_STEREO_COUNT>  (1) 
0

>  <PUBCHEM_ATOM_UDEF_STEREO_COUNT>  (1) 
0

>  <PUBCHEM_BOND_DEF_STEREO_COUNT>  (1) 
0

>  <PUBCHEM_BOND_UDEF_STEREO_COUNT>  (1) 
0

>  <PUBCHEM_ISOTOPIC_ATOM_COUNT>  (1) 
0

>  <PUBCHEM_COMPONENT_COUNT>  (1) 
1

>  <PUBCHEM_CACTVS_TAUTO_COUNT>  (1) 
5

>  <PUBCHEM_CONFORMER_ID>  (1) 
000037E900000001

>  <PUBCHEM_MMFF94_ENERGY>  (1) 
33.4091

>  <PUBCHEM_FEATURE_SELFOVERLAP>  (1) 
25.467

>  <PUBCHEM_SHAPE_FINGERPRINT>  (1) 
10967382 1 18266458904513120167
11206711 2 18409169943278759485
11471102 20 18338230595827058815
12423570 1 15880144400652948476
12524768 44 18197782094072045990
12897270 3 18266177416598727733
13380535 21 18337404763404338077
13380535 76 18192145108520696682
16945 1 18338799047253719526
17990270 104 18410292488953287042
193761 8 18410856521027489796
19973954 147 18410856551150205189
20201158 50 18336262448137816923
20645477 70 18339355366443053943
21040471 1 18410575114981356384
21501502 16 18409730642568921509
2334 1 18410575063220040358
23552423 10 18334861606025933014
23559900 14 17693091869685260566
241688 4 18265052423172688368
2748010 2 18338796719360359262
5084963 1 18129951207409549528
528886 8 18339074883001849600
63268167 104 18339083683374092912
7364860 26 18343301474803463098

>  <PUBCHEM_SHAPE_MULTIPOLES>  (1) 
230.23
3.87
2.21
0.59
1.17
0.1
0
0.62
0
-0.66
0
-0.05
-0.01
0

>  <PUBCHEM_SHAPE_SELFOVERLAP>  (1) 
507.793

>  <PUBCHEM_SHAPE_VOLUME>  (1) 
124.6

>  <PUBCHEM_COORDINATE_TYPE>  (1) 
2
5
10

$$$$
