14319
     RDKit          3D

 12 13  0  0  0  0  0  0  0  0999 V2000
    0.9832    1.5895   -0.0002 S   0  0  0  0  0  0  0  0  0  0  0  0
    0.7187   -1.0247    0.0005 N   0  0  0  0  0  0  0  0  0  0  0  0
    2.9916   -0.1331    0.0003 N   0  0  0  0  0  0  0  0  0  0  0  0
    3.5901    1.0731   -0.0001 N   0  0  0  0  0  0  0  0  0  0  0  0
   -0.5924   -0.5158    0.0003 C   0  0  0  0  0  0  0  0  0  0  0  0
   -0.6537    0.8894    0.0000 C   0  0  0  0  0  0  0  0  0  0  0  0
    1.7058   -0.0479    0.0003 C   0  0  0  0  0  0  0  0  0  0  0  0
   -1.7814   -1.2394    0.0004 C   0  0  0  0  0  0  0  0  0  0  0  0
    0.9370   -2.4583   -0.0011 C   0  0  0  0  0  0  0  0  0  0  0  0
   -1.8567    1.5799   -0.0005 C   0  0  0  0  0  0  0  0  0  0  0  0
   -3.0026   -0.5563    0.0002 C   0  0  0  0  0  0  0  0  0  0  0  0
   -3.0397    0.8436   -0.0002 C   0  0  0  0  0  0  0  0  0  0  0  0
  1  6  1  0
  1  7  1  0
  2  5  1  0
  2  7  1  0
  2  9  1  0
  3  4  1  0
  3  7  2  0
  5  6  2  0
  5  8  1  0
  6 10  1  0
  8 11  2  0
 10 12  2  0
 11 12  1  0
M  END
>  <PUBCHEM_COMPOUND_CID>  (1) 
14319

>  <PUBCHEM_CONFORMER_RMSD>  (1) 
0.4

>  <PUBCHEM_CONFORMER_DIVERSEORDER>  (1) 
1

>  <PUBCHEM_MMFF94_PARTIAL_CHARGES>  (1) 
18
1 -0.24
10 -0.15
11 -0.15
12 -0.15
13 0.15
17 0.15
18 0.15
19 0.15
2 -0.52
20 0.36
21 0.36
3 -0.5
4 -0.67
5 0.1
6 0.1
7 0.64
8 -0.15
9 0.37

>  <PUBCHEM_EFFECTIVE_ROTOR_COUNT>  (1) 
0

>  <PUBCHEM_PHARMACOPHORE_FEATURES>  (1) 
3
3 2 3 7 cation
5 1 2 5 6 7 rings
6 5 6 8 10 11 12 rings

>  <PUBCHEM_HEAVY_ATOM_COUNT>  (1) 
12

>  <PUBCHEM_ATOM_DEF_STEREO_COUNT>  (1) 
0

>  <PUBCHEM_ATOM_UDEF_STEREO_COUNT>  (1) 
0

>  <PUBCHEM_BOND_DEF_STEREO_COUNT>  (1) 
0

>  <PUBCHEM_BOND_UDEF_STEREO_COUNT>  (1) 
1

>  <PUBCHEM_ISOTOPIC_ATOM_COUNT>  (1) 
0

>  <PUBCHEM_COMPONENT_COUNT>  (1) 
1

>  <PUBCHEM_CACTVS_TAUTO_COUNT>  (1) 
1

>  <PUBCHEM_CONFORMER_ID>  (1) 
000037EF00000001

>  <PUBCHEM_MMFF94_ENERGY>  (1) 
46.2938

>  <PUBCHEM_FEATURE_SELFOVERLAP>  (1) 
15.286

>  <PUBCHEM_SHAPE_FINGERPRINT>  (1) 
10608611 8 18337951186329035093
10967382 1 18410575097569092807
11132069 177 18410005542167194304
12423570 1 11685382389229093688
12524768 44 18194968435379639351
12897270 3 18411135835772631781
13380535 21 18339373945990904595
13380535 76 18408882923567996947
14325111 11 18410573989689258400
14614273 12 18260821566779831677
15775835 57 18413393137281278081
16945 1 18410575076389713893
19021347 11 18409446968658898946
193761 8 17834395622784849028
20201158 50 18409728452457405899
20588541 1 18408888416888911417
20645476 183 17751377264066020334
20871998 184 18200037385873750951
21501502 16 18267581317122893763
23235685 24 18409724062721403945
2334 1 17906453577715905485
23402539 116 18271234011046727316
23402655 69 18268976619555284357
23463225 33 18334571300902416962
23552423 10 18263364681403696775
23559900 14 18272374192284454836
2748010 2 18050003595377145319
369184 2 16732699437329627161
5084963 1 18130791225587080859
528886 8 18410849984076547049
53812653 166 18342453737963143665
63268167 104 18339080363580540473
6333449 129 18413105078362315245
7364860 26 18198060274925222870

>  <PUBCHEM_SHAPE_MULTIPOLES>  (1) 
235.86
4.73
2.07
0.6
1.1
0.68
0
-1.05
0
0.3
0
-0.04
-0.01
0

>  <PUBCHEM_SHAPE_SELFOVERLAP>  (1) 
492.529

>  <PUBCHEM_SHAPE_VOLUME>  (1) 
136.6

>  <PUBCHEM_COORDINATE_TYPE>  (1) 
2
5
10

$$$$
