14317
     RDKit          3D

 12 12  0  0  0  0  0  0  0  0999 V2000
    2.5380    0.4888    1.4654 Cl  0  0  0  0  0  0  0  0  0  0  0  0
    2.5132   -1.9895   -0.0056 Cl  0  0  0  0  0  0  0  0  0  0  0  0
    2.5317    0.5020   -1.4612 Cl  0  0  0  0  0  0  0  0  0  0  0  0
    0.5953    2.5045    0.0012 Cl  0  0  0  0  0  0  0  0  0  0  0  0
   -4.0918   -0.1664    0.0013 Cl  0  0  0  0  0  0  0  0  0  0  0  0
   -0.3027   -1.3950   -0.0008 N   0  0  0  0  0  0  0  0  0  0  0  0
    0.3513   -0.2117   -0.0003 C   0  0  0  0  0  0  0  0  0  0  0  0
    1.8422   -0.3117   -0.0005 C   0  0  0  0  0  0  0  0  0  0  0  0
   -0.2784    1.0225    0.0005 C   0  0  0  0  0  0  0  0  0  0  0  0
   -1.6687    1.0438    0.0006 C   0  0  0  0  0  0  0  0  0  0  0  0
   -2.3769   -0.1528    0.0001 C   0  0  0  0  0  0  0  0  0  0  0  0
   -1.6533   -1.3345   -0.0007 C   0  0  0  0  0  0  0  0  0  0  0  0
  1  8  1  0
  2  8  1  0
  3  8  1  0
  4  9  1  0
  5 11  1  0
  6  7  2  0
  6 12  1  0
  7  8  1  0
  7  9  1  0
  9 10  2  0
 10 11  1  0
 11 12  2  0
M  END
>  <PUBCHEM_COMPOUND_CID>  (1) 
14317

>  <PUBCHEM_CONFORMER_RMSD>  (1) 
0.4

>  <PUBCHEM_CONFORMER_DIVERSEORDER>  (1) 
1

>  <PUBCHEM_MMFF94_PARTIAL_CHARGES>  (1) 
14
1 -0.29
10 -0.15
11 0.18
12 0.16
13 0.15
14 0.15
2 -0.29
3 -0.29
4 -0.18
5 -0.18
6 -0.62
7 0.17
8 1.01
9 0.18

>  <PUBCHEM_EFFECTIVE_ROTOR_COUNT>  (1) 
1

>  <PUBCHEM_PHARMACOPHORE_FEATURES>  (1) 
2
1 6 acceptor
6 6 7 9 10 11 12 rings

>  <PUBCHEM_HEAVY_ATOM_COUNT>  (1) 
12

>  <PUBCHEM_ATOM_DEF_STEREO_COUNT>  (1) 
0

>  <PUBCHEM_ATOM_UDEF_STEREO_COUNT>  (1) 
0

>  <PUBCHEM_BOND_DEF_STEREO_COUNT>  (1) 
0

>  <PUBCHEM_BOND_UDEF_STEREO_COUNT>  (1) 
0

>  <PUBCHEM_ISOTOPIC_ATOM_COUNT>  (1) 
0

>  <PUBCHEM_COMPONENT_COUNT>  (1) 
1

>  <PUBCHEM_CACTVS_TAUTO_COUNT>  (1) 
1

>  <PUBCHEM_CONFORMER_ID>  (1) 
000037ED00000001

>  <PUBCHEM_MMFF94_ENERGY>  (1) 
29.561

>  <PUBCHEM_FEATURE_SELFOVERLAP>  (1) 
10.148

>  <PUBCHEM_SHAPE_FINGERPRINT>  (1) 
10130415 120 18259701181605566291
12032990 46 18337957792368511955
12423570 1 15808622238681067864
12524768 44 18272928310740610614
12932764 1 18060700584963537039
13380536 305 18338525264648078989
14993402 34 18411709793874932501
15310529 11 16732698376456880877
16945 1 18410855507610230853
18186145 218 17988647385072739793
193761 8 17906453586342958215
20559304 39 18334858328934224608
20645476 183 17750245853194105231
20711985 344 17770531666880703156
2334 1 18338798901446410029
23463225 33 18336830771179741015
23552423 10 18193560201418010045
23559900 14 17479729422133288862
241688 4 18194685869259611744
2748010 2 18267296534915837757
369184 2 17988914557349464355
5084963 1 18190745236849907938
53812653 166 18270960253699070552
53812654 25 18412538808225107430
7364860 26 18411702110405345044

>  <PUBCHEM_SHAPE_MULTIPOLES>  (1) 
251.32
5.08
2.04
1.01
3.54
0.42
0
-1.12
-0.01
-0.84
0
-0.97
0.19
0

>  <PUBCHEM_SHAPE_SELFOVERLAP>  (1) 
476.44

>  <PUBCHEM_SHAPE_VOLUME>  (1) 
154.1

>  <PUBCHEM_COORDINATE_TYPE>  (1) 
2
5
10

$$$$
