14311
     RDKit          3D

 11 11  0  0  0  0  0  0  0  0999 V2000
    0.3599   -0.6149   -0.6470 O   0  0  0  0  0  0  0  0  0  0  0  0
    2.6834   -0.3880   -0.1146 C   0  0  0  0  0  0  0  0  0  0  0  0
    3.8118    0.5812    0.2262 C   0  0  0  0  0  0  0  0  0  0  0  0
    1.3683    0.3412   -0.3502 C   0  0  0  0  0  0  0  0  0  0  0  0
    5.1133   -0.1543    0.5031 C   0  0  0  0  0  0  0  0  0  0  0  0
   -0.9241   -0.2898   -0.2940 C   0  0  0  0  0  0  0  0  0  0  0  0
   -1.3157    1.0438   -0.2763 C   0  0  0  0  0  0  0  0  0  0  0  0
   -1.8205   -1.2973    0.0430 C   0  0  0  0  0  0  0  0  0  0  0  0
   -2.6221    1.3746    0.0837 C   0  0  0  0  0  0  0  0  0  0  0  0
   -3.1268   -0.9663    0.4029 C   0  0  0  0  0  0  0  0  0  0  0  0
   -3.5276    0.3696    0.4232 C   0  0  0  0  0  0  0  0  0  0  0  0
  1  4  1  0
  1  6  1  0
  2  3  1  0
  2  4  1  0
  3  5  1  0
  6  7  2  0
  6  8  1  0
  7  9  1  0
  8 10  2  0
  9 11  2  0
 10 11  1  0
M  END
>  <PUBCHEM_COMPOUND_CID>  (1) 
14311

>  <PUBCHEM_CONFORMER_RMSD>  (1) 
0.6

>  <PUBCHEM_CONFORMER_DIVERSEORDER>  (1) 
1
21
18
15
11
23
10
16
3
20
19
22
8
12
4
2
5
14
7
17
9
13
6

>  <PUBCHEM_MMFF94_PARTIAL_CHARGES>  (1) 
13
1 -0.36
10 -0.15
11 -0.15
21 0.15
22 0.15
23 0.15
24 0.15
25 0.15
4 0.28
6 0.08
7 -0.15
8 -0.15
9 -0.15

>  <PUBCHEM_EFFECTIVE_ROTOR_COUNT>  (1) 
4

>  <PUBCHEM_PHARMACOPHORE_FEATURES>  (1) 
3
1 1 acceptor
1 5 hydrophobe
6 6 7 8 9 10 11 rings

>  <PUBCHEM_HEAVY_ATOM_COUNT>  (1) 
11

>  <PUBCHEM_ATOM_DEF_STEREO_COUNT>  (1) 
0

>  <PUBCHEM_ATOM_UDEF_STEREO_COUNT>  (1) 
0

>  <PUBCHEM_BOND_DEF_STEREO_COUNT>  (1) 
0

>  <PUBCHEM_BOND_UDEF_STEREO_COUNT>  (1) 
0

>  <PUBCHEM_ISOTOPIC_ATOM_COUNT>  (1) 
0

>  <PUBCHEM_COMPONENT_COUNT>  (1) 
1

>  <PUBCHEM_CACTVS_TAUTO_COUNT>  (1) 
1

>  <PUBCHEM_CONFORMER_ID>  (1) 
000037E700000001

>  <PUBCHEM_MMFF94_ENERGY>  (1) 
25.1482

>  <PUBCHEM_FEATURE_SELFOVERLAP>  (1) 
15.223

>  <PUBCHEM_SHAPE_FINGERPRINT>  (1) 
12251169 10 18335141998597045084
12932764 1 17489577974719426990
13024252 1 14345793847179723717
13214271 11 18201718457574310245
13897977 58 18336834181679225276
14325111 11 18411984637248064670
15219456 202 18059020483946504014
20279233 1 18059862757155912966
20645464 45 18131638880575296967
20645477 70 16773523153423929942
20711985 327 17095245826083238654
20828058 44 18334856117448066922
20871999 31 10519703354753790795
21119208 17 11024108750428222000
22485316 2 12179845017856090296
23402539 116 18341324570319372951
23403322 49 11674870087705925264
42 15 18261110755997723626

>  <PUBCHEM_SHAPE_MULTIPOLES>  (1) 
220.51
8.53
1.23
0.72
10.43
0.05
0.01
0.2
2.11
-1.01
0.02
0.04
-0.01
0.06

>  <PUBCHEM_SHAPE_SELFOVERLAP>  (1) 
438.367

>  <PUBCHEM_SHAPE_VOLUME>  (1) 
131.8

>  <PUBCHEM_COORDINATE_TYPE>  (1) 
2
5
10

$$$$
