14318
     RDKit          3D

 12 13  0  0  0  0  0  0  0  0999 V2000
   -2.3311    1.7275   -0.0001 O   0  0  0  0  0  0  0  0  0  0  0  0
   -3.3568   -0.9564    0.0001 O   0  0  0  0  0  0  0  0  0  0  0  0
   -1.0502   -1.4959   -0.0001 N   0  0  0  0  0  0  0  0  0  0  0  0
    0.1154   -0.7262    0.0001 C   0  0  0  0  0  0  0  0  0  0  0  0
   -0.1822    0.6331    0.0001 C   0  0  0  0  0  0  0  0  0  0  0  0
    1.4202   -1.1731    0.0001 C   0  0  0  0  0  0  0  0  0  0  0  0
    2.4298   -0.2044   -0.0001 C   0  0  0  0  0  0  0  0  0  0  0  0
    0.7911    1.6080    0.0001 C   0  0  0  0  0  0  0  0  0  0  0  0
   -1.6396    0.7385    0.0000 C   0  0  0  0  0  0  0  0  0  0  0  0
    2.1182    1.1715   -0.0001 C   0  0  0  0  0  0  0  0  0  0  0  0
   -2.1749   -0.6909   -0.0001 C   0  0  0  0  0  0  0  0  0  0  0  0
    3.8601   -0.6316    0.0000 C   0  0  0  0  0  0  0  0  0  0  0  0
  1  9  2  0
  2 11  2  0
  3  4  1  0
  3 11  1  0
  4  5  2  0
  4  6  1  0
  5  8  1  0
  5  9  1  0
  6  7  2  0
  7 10  1  0
  7 12  1  0
  8 10  2  0
  9 11  1  0
M  END
>  <PUBCHEM_COMPOUND_CID>  (1) 
14318

>  <PUBCHEM_CONFORMER_RMSD>  (1) 
0.4

>  <PUBCHEM_CONFORMER_DIVERSEORDER>  (1) 
1

>  <PUBCHEM_MMFF94_PARTIAL_CHARGES>  (1) 
16
1 -0.57
10 -0.15
11 0.63
12 0.14
13 0.15
14 0.37
15 0.15
16 0.15
2 -0.57
3 -0.55
4 0.12
5 0.09
6 -0.15
7 -0.14
8 -0.15
9 0.48

>  <PUBCHEM_EFFECTIVE_ROTOR_COUNT>  (1) 
0.2

>  <PUBCHEM_PHARMACOPHORE_FEATURES>  (1) 
5
1 1 acceptor
1 2 acceptor
1 3 donor
5 3 4 5 9 11 rings
6 4 5 6 7 8 10 rings

>  <PUBCHEM_HEAVY_ATOM_COUNT>  (1) 
12

>  <PUBCHEM_ATOM_DEF_STEREO_COUNT>  (1) 
0

>  <PUBCHEM_ATOM_UDEF_STEREO_COUNT>  (1) 
0

>  <PUBCHEM_BOND_DEF_STEREO_COUNT>  (1) 
0

>  <PUBCHEM_BOND_UDEF_STEREO_COUNT>  (1) 
0

>  <PUBCHEM_ISOTOPIC_ATOM_COUNT>  (1) 
0

>  <PUBCHEM_COMPONENT_COUNT>  (1) 
1

>  <PUBCHEM_CACTVS_TAUTO_COUNT>  (1) 
5

>  <PUBCHEM_CONFORMER_ID>  (1) 
000037EE00000001

>  <PUBCHEM_MMFF94_ENERGY>  (1) 
33.3372

>  <PUBCHEM_FEATURE_SELFOVERLAP>  (1) 
25.467

>  <PUBCHEM_SHAPE_FINGERPRINT>  (1) 
11206711 2 18408321081731696341
12032990 46 18411987948900218238
13380535 76 18267582416797908991
14325111 11 18410855456144632224
16945 1 18338516446990406502
17844478 74 18187374267585661243
193761 8 17474388453319972878
19973954 147 18410294747879348308
20201158 50 18411136939484606102
21040471 1 18410575059020070560
21501502 16 18410298033524119988
21501925 9 18337660997322201170
23402539 116 18342727529565160751
23402655 69 18124579913400245981
23463225 33 18335983078180293442
23552423 10 18260830444487586772
23559900 14 18270118999473083478
2748010 2 18339360764530454052
369184 2 15051734179101015310
5084963 1 18272372000685095402
528886 8 18339073770578913696
53812653 166 18341609257388269408
7364860 26 18198344155405450608
8809292 202 18187369890666450827

>  <PUBCHEM_SHAPE_MULTIPOLES>  (1) 
230.23
4.87
1.68
0.59
0.98
0.36
0
-0.95
0
-0.35
0
0.06
0.01
0

>  <PUBCHEM_SHAPE_SELFOVERLAP>  (1) 
507.213

>  <PUBCHEM_SHAPE_VOLUME>  (1) 
124.7

>  <PUBCHEM_COORDINATE_TYPE>  (1) 
2
5
10

$$$$
