14316
     RDKit          3D

 12 13  0  0  0  0  0  0  0  0999 V2000
    0.3018    2.4435    0.0001 S   0  0  0  0  0  0  0  0  0  0  0  0
   -2.1467   -1.8132   -0.0008 O   0  0  0  0  0  0  0  0  0  0  0  0
    0.2734   -0.1419    0.0002 C   0  0  0  0  0  0  0  0  0  0  0  0
   -1.0931    0.2971    0.0000 C   0  0  0  0  0  0  0  0  0  0  0  0
    1.1538    0.9445   -0.0001 C   0  0  0  0  0  0  0  0  0  0  0  0
    0.8213   -1.4474    0.0005 C   0  0  0  0  0  0  0  0  0  0  0  0
   -1.2152    1.6664    0.0002 C   0  0  0  0  0  0  0  0  0  0  0  0
    2.5506    0.7607   -0.0005 C   0  0  0  0  0  0  0  0  0  0  0  0
   -2.2497   -0.5636    0.0000 C   0  0  0  0  0  0  0  0  0  0  0  0
    2.2064   -1.6332    0.0006 C   0  0  0  0  0  0  0  0  0  0  0  0
    3.0599   -0.5393   -0.0004 C   0  0  0  0  0  0  0  0  0  0  0  0
   -3.6626    0.0264    0.0002 C   0  0  0  0  0  0  0  0  0  0  0  0
  1  5  1  0
  1  7  1  0
  2  9  2  0
  3  4  1  0
  3  5  2  0
  3  6  1  0
  4  7  2  0
  4  9  1  0
  5  8  1  0
  6 10  2  0
  8 11  2  0
  9 12  1  0
 10 11  1  0
M  END
>  <PUBCHEM_COMPOUND_CID>  (1) 
14316

>  <PUBCHEM_CONFORMER_RMSD>  (1) 
0.4

>  <PUBCHEM_CONFORMER_DIVERSEORDER>  (1) 
1
2
3
4

>  <PUBCHEM_MMFF94_PARTIAL_CHARGES>  (1) 
16
1 -0.08
10 -0.15
11 -0.15
12 0.06
13 0.15
14 0.15
15 0.15
16 0.15
17 0.15
2 -0.57
4 -0.09
5 0.04
6 -0.15
7 -0.11
8 -0.15
9 0.6

>  <PUBCHEM_EFFECTIVE_ROTOR_COUNT>  (1) 
1

>  <PUBCHEM_PHARMACOPHORE_FEATURES>  (1) 
3
1 2 acceptor
5 1 3 4 5 7 rings
6 3 5 6 8 10 11 rings

>  <PUBCHEM_HEAVY_ATOM_COUNT>  (1) 
12

>  <PUBCHEM_ATOM_DEF_STEREO_COUNT>  (1) 
0

>  <PUBCHEM_ATOM_UDEF_STEREO_COUNT>  (1) 
0

>  <PUBCHEM_BOND_DEF_STEREO_COUNT>  (1) 
0

>  <PUBCHEM_BOND_UDEF_STEREO_COUNT>  (1) 
0

>  <PUBCHEM_ISOTOPIC_ATOM_COUNT>  (1) 
0

>  <PUBCHEM_COMPONENT_COUNT>  (1) 
1

>  <PUBCHEM_CACTVS_TAUTO_COUNT>  (1) 
2

>  <PUBCHEM_CONFORMER_ID>  (1) 
000037EC00000001

>  <PUBCHEM_MMFF94_ENERGY>  (1) 
26.6996

>  <PUBCHEM_FEATURE_SELFOVERLAP>  (1) 
15.283

>  <PUBCHEM_SHAPE_FINGERPRINT>  (1) 
10130415 120 18407757023692452211
10219947 1 18413390951237765975
10967382 1 18410855481608286023
11132069 177 18412257363529315826
11471102 20 18409725179797847549
12032990 46 18410581664595427751
12382932 28 18412826906067833859
12897270 3 18410012130578298654
161256 15 18411978053132050896
16945 1 18410575097590347716
17990270 104 18264487467327212267
193761 8 17834113044038382114
20201158 50 18408321085979378803
20645477 70 18120928671444247239
20711985 365 18192711150655359733
20871998 184 18057599863241112182
20871998 22 18270690757217479735
21501502 16 18266744571583770000
2334 1 17762338415272852745
23402539 116 18269822147484642719
23463225 33 18410012117566711726
23552423 10 18260835847683052196
23559900 14 16902714442812955350
241688 4 18337392630306421488
2748010 2 18339075965333575740
3312278 4 18409453612909749043
528886 8 18411695517092436626
53812653 166 18271239546901135560
63268167 104 18339647840302871761
7364860 26 18198060476551270001
81228 2 18193002516910286656
8809292 202 18260271862326482427

>  <PUBCHEM_SHAPE_MULTIPOLES>  (1) 
244.93
4.6
2.22
0.62
1.52
0.67
0
-1.46
0
-0.14
0
-0.02
0.03
0

>  <PUBCHEM_SHAPE_SELFOVERLAP>  (1) 
519.629

>  <PUBCHEM_SHAPE_VOLUME>  (1) 
138.4

>  <PUBCHEM_COORDINATE_TYPE>  (1) 
2
5
10

$$$$
