14324
     RDKit          3D

 13 14  0  0  0  0  0  0  0  0999 V2000
   -2.8685    1.8163   -0.4798 O   0  0  0  0  0  0  0  0  0  0  0  0
   -1.6873   -2.5982    0.0666 O   0  0  0  0  0  0  0  0  0  0  0  0
   -2.2519   -0.3831   -0.1975 N   0  0  0  0  0  0  0  0  0  0  0  0
    0.4055    0.3921    0.3160 C   0  0  0  0  0  0  0  0  0  0  0  0
    1.6236    0.8516    1.1589 C   0  0  0  0  0  0  0  0  0  0  0  0
    0.8210    0.3494   -1.1785 C   0  0  0  0  0  0  0  0  0  0  0  0
   -0.7352    1.4050    0.5276 C   0  0  0  0  0  0  0  0  0  0  0  0
   -0.0961   -0.9743    0.8205 C   0  0  0  0  0  0  0  0  0  0  0  0
    2.8862    0.0289    0.9050 C   0  0  0  0  0  0  0  0  0  0  0  0
    2.0868   -0.4686   -1.4372 C   0  0  0  0  0  0  0  0  0  0  0  0
    3.2510    0.0031   -0.5743 C   0  0  0  0  0  0  0  0  0  0  0  0
   -2.0381    0.9855   -0.1118 C   0  0  0  0  0  0  0  0  0  0  0  0
   -1.3972   -1.4077    0.1845 C   0  0  0  0  0  0  0  0  0  0  0  0
  1 12  2  0
  2 13  2  0
  3 12  1  0
  3 13  1  0
  4  5  1  0
  4  6  1  0
  4  7  1  0
  4  8  1  0
  5  9  1  0
  6 10  1  0
  7 12  1  0
  8 13  1  0
  9 11  1  0
 10 11  1  0
M  END
>  <PUBCHEM_COMPOUND_CID>  (1) 
14324

>  <PUBCHEM_CONFORMER_RMSD>  (1) 
0.6

>  <PUBCHEM_CONFORMER_DIVERSEORDER>  (1) 
1
2

>  <PUBCHEM_MMFF94_PARTIAL_CHARGES>  (1) 
8
1 -0.57
12 0.57
13 0.57
2 -0.57
28 0.37
3 -0.49
7 0.06
8 0.06

>  <PUBCHEM_EFFECTIVE_ROTOR_COUNT>  (1) 
1.6

>  <PUBCHEM_PHARMACOPHORE_FEATURES>  (1) 
5
1 1 acceptor
1 2 acceptor
1 3 donor
6 3 4 7 8 12 13 rings
6 4 5 6 9 10 11 rings

>  <PUBCHEM_HEAVY_ATOM_COUNT>  (1) 
13

>  <PUBCHEM_ATOM_DEF_STEREO_COUNT>  (1) 
0

>  <PUBCHEM_ATOM_UDEF_STEREO_COUNT>  (1) 
0

>  <PUBCHEM_BOND_DEF_STEREO_COUNT>  (1) 
0

>  <PUBCHEM_BOND_UDEF_STEREO_COUNT>  (1) 
0

>  <PUBCHEM_ISOTOPIC_ATOM_COUNT>  (1) 
0

>  <PUBCHEM_COMPONENT_COUNT>  (1) 
1

>  <PUBCHEM_CACTVS_TAUTO_COUNT>  (1) 
2

>  <PUBCHEM_CONFORMER_ID>  (1) 
000037F400000001

>  <PUBCHEM_MMFF94_ENERGY>  (1) 
24.6866

>  <PUBCHEM_FEATURE_SELFOVERLAP>  (1) 
25.374

>  <PUBCHEM_SHAPE_FINGERPRINT>  (1) 
1 1 17902787466752108959
12138202 97 18341611503597961118
12423570 1 10963114292054629976
12500047 106 18410006603224349142
12716758 59 18341052930084377827
12932764 1 18334023812736361248
13898156 1 17603864545951761552
14817 1 11944986082440266762
14993402 34 17749108868002720580
15207287 21 17845362259319027414
15219456 202 17988924513294705152
15219459 28 18202844344364343814
15775835 57 17894916187373203044
15852999 172 18272086037546863750
15906896 17 17822585957733400531
16945 1 18409726274571370312
18186145 218 18127135173384249213
18380122 1 17770776016059588216
18534176 82 18271815617937246588
20201158 50 17775287119100313188
20645476 183 17967822612882678539
20711985 344 18263650717698972963
20715346 28 17774717675325177896
21040471 1 18335698291541035689
21061003 4 17131008592711908394
21501502 16 18196376033369539312
21930827 45 18412266129299181929
22802520 49 18130515149384280546
23402539 116 18271228453048102221
23552423 10 18042967773094497720
23559900 14 18342739569170770378
2748010 2 18128811026657456376
276578 36 18191312563533448065
6333449 129 18342740710508328081
77492 1 17385439934123064760
81228 2 18337955726626191539

>  <PUBCHEM_SHAPE_MULTIPOLES>  (1) 
250.81
4.28
1.78
1.19
1.11
0.69
0.14
-0.44
0.53
-1.71
-0.13
0.76
-0.05
0.49

>  <PUBCHEM_SHAPE_SELFOVERLAP>  (1) 
518.955

>  <PUBCHEM_SHAPE_VOLUME>  (1) 
140.8

>  <PUBCHEM_COORDINATE_TYPE>  (1) 
2
5
10

$$$$
