14321
     RDKit          3D

 12 12  0  0  0  0  0  0  0  0999 V2000
   -0.7149   -2.5349   -0.0890 Cl  0  0  0  0  0  0  0  0  0  0  0  0
    1.6654    0.1714    0.4214 N   0  0  0  0  0  0  0  0  0  0  0  0
    3.8413    0.2334    1.2091 N   0  0  0  0  0  0  0  0  0  0  0  0
    3.5636    0.0724   -1.0474 N   0  0  0  0  0  0  0  0  0  0  0  0
   -0.6687    0.1775   -0.3484 C   0  0  0  0  0  0  0  0  0  0  0  0
    0.7712    0.0866   -0.7386 C   0  0  0  0  0  0  0  0  0  0  0  0
   -1.4162   -0.9586   -0.0385 C   0  0  0  0  0  0  0  0  0  0  0  0
   -1.2631    1.4384   -0.2985 C   0  0  0  0  0  0  0  0  0  0  0  0
   -2.7580   -0.8339    0.3213 C   0  0  0  0  0  0  0  0  0  0  0  0
   -2.6050    1.5631    0.0613 C   0  0  0  0  0  0  0  0  0  0  0  0
   -3.3525    0.4270    0.3711 C   0  0  0  0  0  0  0  0  0  0  0  0
    2.9370    0.1575    0.1761 C   0  0  0  0  0  0  0  0  0  0  0  0
  1  7  1  0
  2  6  1  0
  2 12  2  3
  3 12  1  0
  4 12  1  0
  5  6  1  0
  5  7  2  0
  5  8  1  0
  7  9  1  0
  8 10  2  0
  9 11  2  0
 10 11  1  0
M  END
>  <PUBCHEM_COMPOUND_CID>  (1) 
14321

>  <PUBCHEM_CONFORMER_RMSD>  (1) 
0.6

>  <PUBCHEM_CONFORMER_DIVERSEORDER>  (1) 
1
8
12
4
13
6
11
3
7
10
5
2
9

>  <PUBCHEM_MMFF94_PARTIAL_CHARGES>  (1) 
20
1 -0.18
10 -0.15
11 -0.15
12 0.55
15 0.15
16 0.15
17 0.15
18 0.15
19 0.4
2 -0.7
20 0.4
21 0.4
22 0.4
3 -0.85
4 -0.85
5 -0.14
6 0.39
7 0.18
8 -0.15
9 -0.15

>  <PUBCHEM_EFFECTIVE_ROTOR_COUNT>  (1) 
2

>  <PUBCHEM_PHARMACOPHORE_FEATURES>  (1) 
4
1 3 donor
1 4 donor
4 2 3 4 12 cation
6 5 7 8 9 10 11 rings

>  <PUBCHEM_HEAVY_ATOM_COUNT>  (1) 
12

>  <PUBCHEM_ATOM_DEF_STEREO_COUNT>  (1) 
0

>  <PUBCHEM_ATOM_UDEF_STEREO_COUNT>  (1) 
0

>  <PUBCHEM_BOND_DEF_STEREO_COUNT>  (1) 
0

>  <PUBCHEM_BOND_UDEF_STEREO_COUNT>  (1) 
0

>  <PUBCHEM_ISOTOPIC_ATOM_COUNT>  (1) 
0

>  <PUBCHEM_COMPONENT_COUNT>  (1) 
1

>  <PUBCHEM_CACTVS_TAUTO_COUNT>  (1) 
2

>  <PUBCHEM_CONFORMER_ID>  (1) 
000037F100000001

>  <PUBCHEM_MMFF94_ENERGY>  (1) 
34.2225

>  <PUBCHEM_FEATURE_SELFOVERLAP>  (1) 
20.353

>  <PUBCHEM_SHAPE_FINGERPRINT>  (1) 
11132069 177 18413670214417199397
12251169 10 18336259124186453744
12932764 1 17846495933127160334
13024252 1 14201393876886366173
14144814 61 18333731316746922880
14325111 11 18410857616212352428
15219456 202 17988087690177066894
15669948 3 18335987587674427910
15775835 57 18408605829320460115
16945 1 18409733984370034511
17846911 113 18413385415246675481
18186145 218 17846222111650308672
19422 9 17676209069775352250
20279233 1 17917991681213388726
20510252 161 18272374165591608665
20645464 45 18131631188025080101
20871998 184 18270407220978454303
23402539 116 18271514395223278591
23463225 33 18115022996405683650
23559900 14 18271814493267582638
257057 1 17478036624490912551
2748010 2 17974864873837982063
43471831 8 18334575703117918563
5706482 22 18410566263201426555
6333449 129 18413666920256261829
7364860 26 17910114612181969303
75552 356 18409169947610454701
77492 1 17531253876142993020
81228 2 18124304158639348063

>  <PUBCHEM_SHAPE_MULTIPOLES>  (1) 
233.88
6.05
1.78
0.87
5.18
1.04
-0.02
-1.34
-1.11
-1.36
0.07
0.62
-0.04
0.1

>  <PUBCHEM_SHAPE_SELFOVERLAP>  (1) 
471.573

>  <PUBCHEM_SHAPE_VOLUME>  (1) 
136.4

>  <PUBCHEM_COORDINATE_TYPE>  (1) 
2
5
10

$$$$
