14336
     RDKit          3D

 14 16  0  0  0  0  0  0  0  0999 V2000
    4.9277   -0.3040    0.0003 Br  0  0  0  0  0  0  0  0  0  0  0  0
   -0.3168   -1.8187    0.0000 C   0  0  0  0  0  0  0  0  0  0  0  0
    0.8252   -0.8241   -0.0002 C   0  0  0  0  0  0  0  0  0  0  0  0
   -1.5234   -0.9034   -0.0001 C   0  0  0  0  0  0  0  0  0  0  0  0
    0.3288    0.4990   -0.0002 C   0  0  0  0  0  0  0  0  0  0  0  0
   -1.1175    0.4501   -0.0002 C   0  0  0  0  0  0  0  0  0  0  0  0
    2.1839   -1.0866    0.0001 C   0  0  0  0  0  0  0  0  0  0  0  0
   -2.8612   -1.2571    0.0000 C   0  0  0  0  0  0  0  0  0  0  0  0
    1.1986    1.5766   -0.0001 C   0  0  0  0  0  0  0  0  0  0  0  0
   -2.0580    1.4666    0.0000 C   0  0  0  0  0  0  0  0  0  0  0  0
    3.0604   -0.0001    0.0000 C   0  0  0  0  0  0  0  0  0  0  0  0
    2.5728    1.3183   -0.0001 C   0  0  0  0  0  0  0  0  0  0  0  0
   -3.8091   -0.2323    0.0002 C   0  0  0  0  0  0  0  0  0  0  0  0
   -3.4115    1.1159    0.0003 C   0  0  0  0  0  0  0  0  0  0  0  0
  1 11  1  0
  2  3  1  0
  2  4  1  0
  3  5  2  0
  3  7  1  0
  4  6  2  0
  4  8  1  0
  5  6  1  0
  5  9  1  0
  6 10  1  0
  7 11  2  0
  8 13  2  0
  9 12  2  0
 10 14  2  0
 11 12  1  0
 13 14  1  0
M  END
>  <PUBCHEM_COMPOUND_CID>  (1) 
14336

>  <PUBCHEM_CONFORMER_RMSD>  (1) 
0.4

>  <PUBCHEM_CONFORMER_DIVERSEORDER>  (1) 
1

>  <PUBCHEM_MMFF94_PARTIAL_CHARGES>  (1) 
19
1 -0.11
10 -0.15
11 0.11
12 -0.15
13 -0.15
14 -0.15
17 0.15
18 0.15
19 0.15
2 0.29
20 0.15
21 0.15
22 0.15
23 0.15
3 -0.14
4 -0.14
7 -0.15
8 -0.15
9 -0.15

>  <PUBCHEM_EFFECTIVE_ROTOR_COUNT>  (1) 
0.2

>  <PUBCHEM_PHARMACOPHORE_FEATURES>  (1) 
4
1 1 hydrophobe
5 2 3 4 5 6 rings
6 3 5 7 9 11 12 rings
6 4 6 8 10 13 14 rings

>  <PUBCHEM_HEAVY_ATOM_COUNT>  (1) 
14

>  <PUBCHEM_ATOM_DEF_STEREO_COUNT>  (1) 
0

>  <PUBCHEM_ATOM_UDEF_STEREO_COUNT>  (1) 
0

>  <PUBCHEM_BOND_DEF_STEREO_COUNT>  (1) 
0

>  <PUBCHEM_BOND_UDEF_STEREO_COUNT>  (1) 
0

>  <PUBCHEM_ISOTOPIC_ATOM_COUNT>  (1) 
0

>  <PUBCHEM_COMPONENT_COUNT>  (1) 
1

>  <PUBCHEM_CACTVS_TAUTO_COUNT>  (1) 
1

>  <PUBCHEM_CONFORMER_ID>  (1) 
0000380000000001

>  <PUBCHEM_MMFF94_ENERGY>  (1) 
45.5072

>  <PUBCHEM_FEATURE_SELFOVERLAP>  (1) 
20.462

>  <PUBCHEM_SHAPE_FINGERPRINT>  (1) 
10062212 137 18411692184287816866
10608611 8 18411415133106387049
10967382 1 18410573950870912007
11132069 177 18412259528024125264
11401426 45 18341889693225383362
11471102 20 18410851066397749652
12032990 46 18411142458527923058
12251169 10 18408603660314483091
13221675 6 18410012139120857838
13288520 33 18412547587760759150
13380535 76 18411138030353590743
13690532 89 18410011022798489602
14144814 61 18409728456441124009
14325111 11 18410574006747847265
14790565 3 15605978930341764256
14993402 34 18408602552418649124
15196674 1 18410574019585224416
15219456 202 18202008672503727606
15309172 13 18341339941574853915
15442244 35 18194682566508882194
15536298 74 18342738559267984360
15775835 57 18333734589295666089
16945 1 18338799047259104711
17802600 8 18411132549985682133
17804303 29 18411984680387752000
18186145 218 18342460317926906909
18522853 276 18341892991591624216
200 152 17989199361257995957
20510252 161 18273216378434222209
21267235 1 18410301323516547955
21501502 16 18338518663156556109
2334 1 18338516442895918765
23402539 116 18272079500522126269
23402655 69 18269826537468921949
23463225 33 18335700520613153482
23559900 14 18272088284806230672
2748010 2 18410575106396482325
335352 9 18194401082799688981
474 4 16734681994750906868
5104073 3 18411138077624267896
528886 8 18411132519904872594
53812653 166 18413103948812225384
54173680 148 18120376711578997779
69090 78 18201996655164075807
7364860 26 18196934374876098350
8809292 202 18261115226431223875
9709674 26 18412550937366225878
9981440 41 17252588384066307416

>  <PUBCHEM_SHAPE_MULTIPOLES>  (1) 
294.06
7.37
1.73
0.63
3.77
0.03
0
0.04
0
-0.39
0
0.05
0
0

>  <PUBCHEM_SHAPE_SELFOVERLAP>  (1) 
645.437

>  <PUBCHEM_SHAPE_VOLUME>  (1) 
161.6

>  <PUBCHEM_COORDINATE_TYPE>  (1) 
2
5
10

$$$$
