14331
     RDKit          3D

 13 14  0  0  0  0  0  0  0  0999 V2000
   -4.3745    0.4141    0.2709 Cl  0  0  0  0  0  0  0  0  0  0  0  0
   -2.4347   -1.4022   -0.0477 O   0  0  0  0  0  0  0  0  0  0  0  0
   -0.5181   -0.1245   -0.4157 N   0  0  0  0  0  0  0  0  0  0  0  0
    1.6295   -1.3003    0.2460 C   0  0  0  0  0  0  0  0  0  0  0  0
    1.4806    1.4212   -0.0890 C   0  0  0  0  0  0  0  0  0  0  0  0
    1.4908   -0.5335    1.5688 C   0  0  0  0  0  0  0  0  0  0  0  0
    2.7853   -0.7227   -0.5741 C   0  0  0  0  0  0  0  0  0  0  0  0
    1.5438    0.9885    1.3819 C   0  0  0  0  0  0  0  0  0  0  0  0
    2.5926    0.7524   -0.9081 C   0  0  0  0  0  0  0  0  0  0  0  0
    0.3210   -1.3186   -0.5651 C   0  0  0  0  0  0  0  0  0  0  0  0
    0.0894    1.1818   -0.7054 C   0  0  0  0  0  0  0  0  0  0  0  0
   -1.8858   -0.3022   -0.1579 C   0  0  0  0  0  0  0  0  0  0  0  0
   -2.7199    0.9460   -0.0046 C   0  0  0  0  0  0  0  0  0  0  0  0
  1 13  1  0
  2 12  2  0
  3 10  1  0
  3 11  1  0
  3 12  1  0
  4  6  1  0
  4  7  1  0
  4 10  1  0
  5  8  1  0
  5  9  1  0
  5 11  1  0
  6  8  1  0
  7  9  1  0
 12 13  1  0
M  END
>  <PUBCHEM_COMPOUND_CID>  (1) 
14331

>  <PUBCHEM_CONFORMER_RMSD>  (1) 
0.6

>  <PUBCHEM_CONFORMER_DIVERSEORDER>  (1) 
1
6
5
4
3
2

>  <PUBCHEM_MMFF94_PARTIAL_CHARGES>  (1) 
7
1 -0.29
10 0.3
11 0.3
12 0.57
13 0.35
2 -0.57
3 -0.66

>  <PUBCHEM_EFFECTIVE_ROTOR_COUNT>  (1) 
3.4

>  <PUBCHEM_PHARMACOPHORE_FEATURES>  (1) 
2
1 2 acceptor
9 3 4 5 6 7 8 9 10 11 rings

>  <PUBCHEM_HEAVY_ATOM_COUNT>  (1) 
13

>  <PUBCHEM_ATOM_DEF_STEREO_COUNT>  (1) 
0

>  <PUBCHEM_ATOM_UDEF_STEREO_COUNT>  (1) 
0

>  <PUBCHEM_BOND_DEF_STEREO_COUNT>  (1) 
0

>  <PUBCHEM_BOND_UDEF_STEREO_COUNT>  (1) 
0

>  <PUBCHEM_ISOTOPIC_ATOM_COUNT>  (1) 
0

>  <PUBCHEM_COMPONENT_COUNT>  (1) 
1

>  <PUBCHEM_CACTVS_TAUTO_COUNT>  (1) 
1

>  <PUBCHEM_CONFORMER_ID>  (1) 
000037FB00000001

>  <PUBCHEM_MMFF94_ENERGY>  (1) 
34.9843

>  <PUBCHEM_FEATURE_SELFOVERLAP>  (1) 
10.148

>  <PUBCHEM_SHAPE_FINGERPRINT>  (1) 
11086676 242 18115301164078137504
12423570 1 12940113804892342968
12725867 57 16988562360323813424
12932764 1 17458054972093019151
14144814 61 18408323268239379589
14344429 50 17275380993341174040
15775835 57 18341336672962199765
16945 1 18335129848218902308
18186145 218 17203605961455445129
20233049 118 18130507422801691736
20820808 20 18114192964195725780
21730867 7 14996004336951387617
230 275 17774992505686944305
2748010 2 18339920519070379287
5084963 1 18130794519816577151
528886 8 18409452492160642230
53812653 166 18343862229722634600
57812782 119 13686294647735591077
74978 22 17489585692743846879

>  <PUBCHEM_SHAPE_MULTIPOLES>  (1) 
258.55
5.41
1.54
1.14
6.46
0.06
0.4
-0.37
0.04
-0.36
-0.07
-0.74
-0.09
-0.08

>  <PUBCHEM_SHAPE_SELFOVERLAP>  (1) 
518.715

>  <PUBCHEM_SHAPE_VOLUME>  (1) 
150

>  <PUBCHEM_COORDINATE_TYPE>  (1) 
2
5
10

$$$$
