14335
     RDKit          3D

 14 15  0  0  1  0  0  0  0  0999 V2000
   -0.9890   -2.7704    0.3624 O   0  0  0  0  0  0  0  0  0  0  0  0
   -1.3620   -0.7505   -0.0261 N   0  0  0  0  0  0  0  0  0  0  0  0
   -0.9221   -1.8958   -0.5069 N   0  0  0  0  0  0  0  0  0  0  0  0
    3.1745    0.2352   -1.0253 N   0  0  0  0  0  0  0  0  0  0  0  0
   -0.5725    0.4277   -0.4699 C   0  0  0  0  0  0  0  0  0  0  0  0
   -1.0855    1.7341    0.1773 C   0  0  0  0  0  0  0  0  0  0  0  0
   -2.5787    1.9295   -0.0453 C   0  0  0  0  0  0  0  0  0  0  0  0
   -3.3363    0.7042    0.4399 C   0  0  0  0  0  0  0  0  0  0  0  0
   -2.8101   -0.5651   -0.2273 C   0  0  0  0  0  0  0  0  0  0  0  0
    0.9245    0.3061   -0.1820 C   0  0  0  0  0  0  0  0  0  0  0  0
    1.3786    0.1609    1.1155 C   0  0  0  0  0  0  0  0  0  0  0  0
    1.8394    0.3384   -1.2111 C   0  0  0  0  0  0  0  0  0  0  0  0
    2.7454    0.0517    1.3468 C   0  0  0  0  0  0  0  0  0  0  0  0
    3.5938    0.0941    0.2521 C   0  0  0  0  0  0  0  0  0  0  0  0
  1  3  2  0
  2  3  1  0
  2  5  1  0
  2  9  1  0
  4 12  2  0
  4 14  1  0
  5  6  1  0
  5 10  1  0
  6  7  1  0
  7  8  1  0
  8  9  1  0
 10 11  2  0
 10 12  1  0
 11 13  1  0
 13 14  2  0
M  END
>  <PUBCHEM_COMPOUND_CID>  (1) 
14335

>  <PUBCHEM_CONFORMER_RMSD>  (1) 
0.6

>  <PUBCHEM_CONFORMER_DIVERSEORDER>  (1) 
1
8
43
36
33
14
6
2
16
37
19
26
22
44
35
42
9
18
32
21
11
7
40
24
29
23
3
41
17
12
34
10
27
5
13
39
46
20
15
4
30
31
38
25
28
45

>  <PUBCHEM_MMFF94_PARTIAL_CHARGES>  (1) 
15
1 -0.16
10 -0.14
11 -0.15
12 0.16
13 -0.15
14 0.16
2 -0.36
24 0.15
25 0.15
26 0.15
27 0.15
3 -0.01
4 -0.62
5 0.41
9 0.27

>  <PUBCHEM_EFFECTIVE_ROTOR_COUNT>  (1) 
3.2

>  <PUBCHEM_PHARMACOPHORE_FEATURES>  (1) 
3
1 4 acceptor
6 2 5 6 7 8 9 rings
6 4 10 11 12 13 14 rings

>  <PUBCHEM_HEAVY_ATOM_COUNT>  (1) 
14

>  <PUBCHEM_ATOM_DEF_STEREO_COUNT>  (1) 
0

>  <PUBCHEM_ATOM_UDEF_STEREO_COUNT>  (1) 
1

>  <PUBCHEM_BOND_DEF_STEREO_COUNT>  (1) 
0

>  <PUBCHEM_BOND_UDEF_STEREO_COUNT>  (1) 
0

>  <PUBCHEM_ISOTOPIC_ATOM_COUNT>  (1) 
0

>  <PUBCHEM_COMPONENT_COUNT>  (1) 
1

>  <PUBCHEM_CACTVS_TAUTO_COUNT>  (1) 
1

>  <PUBCHEM_CONFORMER_ID>  (1) 
000037FF00000001

>  <PUBCHEM_MMFF94_ENERGY>  (1) 
29.4461

>  <PUBCHEM_FEATURE_SELFOVERLAP>  (1) 
15.223

>  <PUBCHEM_SHAPE_FINGERPRINT>  (1) 
124424 183 17560796598672883712
12500047 106 18341888580876358982
12716758 59 18343023272275281914
13538477 17 18114462365507605846
13581323 91 18410569587173615792
14144814 61 18333448737794903024
14993402 34 18259985972328846989
15219456 202 17418370303101276040
15279307 12 18113334211059775626
15309172 13 18337116674515556441
15669948 3 18337111275604391910
15775835 57 18340767040108224961
16752209 62 18335971026470282591
16945 1 18410009961487880349
18186145 218 17703231706605416025
19049666 15 17702956816024248340
19422 9 17821451252763649730
20201158 50 17275106111197323876
20510252 161 18272091582550395305
20645464 45 17917985079374044017
20645476 183 18040723575383644807
20871998 184 18200597024354555087
23402539 116 18271231772873121373
23419403 2 10362852875127037321
23557571 272 18127980904522398792
23559900 14 18202286867085143126
2748010 2 18194692462382447279
276578 36 18268154158254044745
305870 269 18193271893211751795
43471831 8 18336262332580167787
465052 167 17824001089734182875
53812653 8 18333455339238699797
69090 78 17274813667132524527
7364860 26 17767966428996450895
74978 22 18335418031844988452
77492 1 17821729433532300516
81228 2 18269264845618956739

>  <PUBCHEM_SHAPE_MULTIPOLES>  (1) 
267.3
5.54
1.86
1.07
1.36
1.09
-0.05
-1.17
-0.38
-1.68
-0.07
0.83
-0.07
-0.15

>  <PUBCHEM_SHAPE_SELFOVERLAP>  (1) 
557.353

>  <PUBCHEM_SHAPE_VOLUME>  (1) 
149.9

>  <PUBCHEM_COORDINATE_TYPE>  (1) 
2
5
10

$$$$
