14341
     RDKit          3D

 15 16  0  0  1  0  0  0  0  0999 V2000
   -1.3262   -0.0008    0.5093 O   0  0  0  0  0  0  0  0  0  0  0  0
   -0.7125    0.9835   -1.5257 O   0  0  0  0  0  0  0  0  0  0  0  0
   -3.8038   -1.2917    1.1021 O   0  0  0  0  0  0  0  0  0  0  0  0
   -0.3147    0.7837   -0.1537 C   0  0  0  0  0  0  0  0  0  0  0  0
   -2.4249   -0.0516   -0.4038 C   0  0  0  0  0  0  0  0  0  0  0  0
   -1.7538    0.0335   -1.7500 C   0  0  0  0  0  0  0  0  0  0  0  0
   -0.2426    2.1535    0.5201 C   0  0  0  0  0  0  0  0  0  0  0  0
    1.0348    0.0849   -0.0804 C   0  0  0  0  0  0  0  0  0  0  0  0
   -3.2300   -1.3164   -0.1962 C   0  0  0  0  0  0  0  0  0  0  0  0
    0.1757    2.0401    1.9760 C   0  0  0  0  0  0  0  0  0  0  0  0
    2.1572    0.6729   -0.6635 C   0  0  0  0  0  0  0  0  0  0  0  0
    1.1497   -1.1437    0.5702 C   0  0  0  0  0  0  0  0  0  0  0  0
    3.3946    0.0324   -0.5963 C   0  0  0  0  0  0  0  0  0  0  0  0
    2.3871   -1.7842    0.6375 C   0  0  0  0  0  0  0  0  0  0  0  0
    3.5094   -1.1960    0.0543 C   0  0  0  0  0  0  0  0  0  0  0  0
  1  4  1  0
  1  5  1  0
  2  4  1  0
  2  6  1  0
  3  9  1  0
  4  7  1  0
  4  8  1  0
  5  6  1  0
  5  9  1  0
  7 10  1  0
  8 11  2  0
  8 12  1  0
 11 13  1  0
 12 14  2  0
 13 15  2  0
 14 15  1  0
M  END
>  <PUBCHEM_COMPOUND_CID>  (1) 
14341

>  <PUBCHEM_CONFORMER_RMSD>  (1) 
0.6

>  <PUBCHEM_CONFORMER_DIVERSEORDER>  (1) 
3
28
16
20
31
24
8
19
9
22
25
10
29
1
21
26
14
27
11
18
33
23
32
30
2
7
5
13
17
12
15
4
6

>  <PUBCHEM_MMFF94_PARTIAL_CHARGES>  (1) 
19
1 -0.56
11 -0.15
12 -0.15
13 -0.15
14 -0.15
15 -0.15
2 -0.56
26 0.15
27 0.15
28 0.15
29 0.15
3 -0.68
30 0.4
31 0.15
4 0.7
5 0.28
6 0.28
8 -0.14
9 0.28

>  <PUBCHEM_EFFECTIVE_ROTOR_COUNT>  (1) 
4

>  <PUBCHEM_PHARMACOPHORE_FEATURES>  (1) 
7
1 1 acceptor
1 10 hydrophobe
1 2 acceptor
1 3 acceptor
1 3 donor
5 1 2 4 5 6 rings
6 8 11 12 13 14 15 rings

>  <PUBCHEM_HEAVY_ATOM_COUNT>  (1) 
15

>  <PUBCHEM_ATOM_DEF_STEREO_COUNT>  (1) 
0

>  <PUBCHEM_ATOM_UDEF_STEREO_COUNT>  (1) 
2

>  <PUBCHEM_BOND_DEF_STEREO_COUNT>  (1) 
0

>  <PUBCHEM_BOND_UDEF_STEREO_COUNT>  (1) 
0

>  <PUBCHEM_ISOTOPIC_ATOM_COUNT>  (1) 
0

>  <PUBCHEM_COMPONENT_COUNT>  (1) 
1

>  <PUBCHEM_CACTVS_TAUTO_COUNT>  (1) 
1

>  <PUBCHEM_CONFORMER_ID>  (1) 
0000380500000003

>  <PUBCHEM_MMFF94_ENERGY>  (1) 
37.4006

>  <PUBCHEM_FEATURE_SELFOVERLAP>  (1) 
35.565

>  <PUBCHEM_SHAPE_FINGERPRINT>  (1) 
108231 29 18341048609563705554
11769659 78 18187359900714632974
12119455 92 9150901533377584610
12202030 40 18188751955618471095
13275264 69 17916586431853493713
13299463 15 17894907404090969886
13538477 17 18126292939114200696
13571099 52 11311786076573654389
13705890 14 17749385979551186182
13764800 53 16843885239959393992
14251745 187 17679867295132260195
14787075 74 18125156289151986424
14817 1 16235263884007235624
15375462 189 18340209682149644203
15906896 17 17769934571858352049
16945 1 18261391186859551028
18186145 218 13623535657666734591
18522851 268 17530677684747726998
200 152 18335979796667082334
20361792 2 17845918697811890717
21061003 4 18201993339596834275
21069387 34 15357971214763918146
21296965 67 18343581845651864281
228727 97 18342188769104972548
23419403 2 15523392644330625690
23500284 5 18339644417029431003
23598294 1 17845379855784201872
25610 137 18409733971490459276
3312278 4 18337107860899604582
59915604 170 16081376279664755140
81228 2 17701533991996164888
83771 10 18334579061787111839

>  <PUBCHEM_SHAPE_MULTIPOLES>  (1) 
291.09
5.4
1.98
1.42
0.35
0.81
0.06
-3.53
-0.14
0.02
-0.95
0.52
0.37
-0.04

>  <PUBCHEM_SHAPE_SELFOVERLAP>  (1) 
609.251

>  <PUBCHEM_SHAPE_VOLUME>  (1) 
165.8

>  <PUBCHEM_COORDINATE_TYPE>  (1) 
2
5
10

$$$$
