14344
     RDKit          3D

 15 16  0  0  0  0  0  0  0  0999 V2000
    1.4933    0.2722   -0.9140 O   0  0  0  0  0  0  0  0  0  0  0  0
    2.1041    0.0937    1.3224 O   0  0  0  0  0  0  0  0  0  0  0  0
    3.5749   -0.5128   -0.3660 N   0  0  0  0  0  0  0  0  0  0  0  0
   -1.8859   -2.3996   -0.5333 C   0  0  0  0  0  0  0  0  0  0  0  0
   -2.8508   -1.9647    0.5622 C   0  0  0  0  0  0  0  0  0  0  0  0
   -0.5821   -1.6091   -0.4411 C   0  0  0  0  0  0  0  0  0  0  0  0
   -3.2216   -0.4924    0.3944 C   0  0  0  0  0  0  0  0  0  0  0  0
   -0.7962   -0.1245   -0.2811 C   0  0  0  0  0  0  0  0  0  0  0  0
   -2.0290    0.3984    0.1511 C   0  0  0  0  0  0  0  0  0  0  0  0
    0.2782    0.7475   -0.5142 C   0  0  0  0  0  0  0  0  0  0  0  0
   -2.1724    1.7856    0.3059 C   0  0  0  0  0  0  0  0  0  0  0  0
    0.1255    2.1234   -0.3469 C   0  0  0  0  0  0  0  0  0  0  0  0
   -1.0999    2.6424    0.0604 C   0  0  0  0  0  0  0  0  0  0  0  0
    2.3781   -0.0421    0.1337 C   0  0  0  0  0  0  0  0  0  0  0  0
    4.6837   -0.9180    0.4664 C   0  0  0  0  0  0  0  0  0  0  0  0
  1 10  1  0
  1 14  1  0
  2 14  2  0
  3 14  1  0
  3 15  1  0
  4  5  1  0
  4  6  1  0
  5  7  1  0
  6  8  1  0
  7  9  1  0
  8  9  2  0
  8 10  1  0
  9 11  1  0
 10 12  2  0
 11 13  2  0
 12 13  1  0
M  END
>  <PUBCHEM_COMPOUND_CID>  (1) 
14344

>  <PUBCHEM_CONFORMER_RMSD>  (1) 
0.6

>  <PUBCHEM_CONFORMER_DIVERSEORDER>  (1) 
1
12
22
14
19
11
21
13
17
8
20
7
23
25
6
15
5
16
24
18
4
10
3
9
2

>  <PUBCHEM_MMFF94_PARTIAL_CHARGES>  (1) 
17
1 -0.23
10 0.08
11 -0.15
12 -0.15
13 -0.15
14 0.78
15 0.3
2 -0.57
24 0.15
25 0.15
26 0.15
27 0.37
3 -0.73
6 0.14
7 0.14
8 -0.14
9 -0.14

>  <PUBCHEM_EFFECTIVE_ROTOR_COUNT>  (1) 
3.8

>  <PUBCHEM_PHARMACOPHORE_FEATURES>  (1) 
4
1 2 acceptor
1 3 donor
6 4 5 6 7 8 9 rings
6 8 9 10 11 12 13 rings

>  <PUBCHEM_HEAVY_ATOM_COUNT>  (1) 
15

>  <PUBCHEM_ATOM_DEF_STEREO_COUNT>  (1) 
0

>  <PUBCHEM_ATOM_UDEF_STEREO_COUNT>  (1) 
0

>  <PUBCHEM_BOND_DEF_STEREO_COUNT>  (1) 
0

>  <PUBCHEM_BOND_UDEF_STEREO_COUNT>  (1) 
0

>  <PUBCHEM_ISOTOPIC_ATOM_COUNT>  (1) 
0

>  <PUBCHEM_COMPONENT_COUNT>  (1) 
1

>  <PUBCHEM_CACTVS_TAUTO_COUNT>  (1) 
2

>  <PUBCHEM_CONFORMER_ID>  (1) 
0000380800000001

>  <PUBCHEM_MMFF94_ENERGY>  (1) 
31.8103

>  <PUBCHEM_FEATURE_SELFOVERLAP>  (1) 
20.318

>  <PUBCHEM_SHAPE_FINGERPRINT>  (1) 
11357001 24 18408886209101622107
12553582 1 18267592496801907438
13024252 1 14996291262463441781
13140716 1 18340216305411006649
13380535 76 18122907530148799053
14420673 8 17761490288894269658
15042514 8 18337116674462737347
15375462 189 18046924932628052865
16752209 62 18262504923587680005
16945 1 18340216240859935421
17804303 29 18343589538043766974
18186145 218 7853311868172113090
19049666 15 17701266819613600742
19422 9 18113907039664427950
20510252 161 18200877253585073584
20871998 184 18343304751394050870
21296965 67 18337107998660382883
21650355 55 18411132520037150608
22112679 90 18337969989801228677
22344851 341 17118336927381591953
2297311 6 18270977782072385974
232386 152 18335989769275104310
2334 1 17979924035858772749
23388829 49 17193740305010997093
23402539 116 18272360958951925069
23552423 10 17545045265634158565
23559900 14 18199751337458275630
23598294 1 18337101263982858200
257057 1 18053936531316386775
2748010 2 18268148845764796813
43471831 8 18191025603556797002
5706482 22 18196365931743310321
58807428 26 18122637045840249523
6338986 31 17911506903198258663
7364860 26 17836932574051517005
77492 1 17677065572274885524
81228 2 18410848854637519025

>  <PUBCHEM_SHAPE_MULTIPOLES>  (1) 
291.97
5.88
2.64
0.86
7.28
0.57
0.07
-3
1.33
-2.1
-0.15
0.18
-0.07
-0.18

>  <PUBCHEM_SHAPE_SELFOVERLAP>  (1) 
613.851

>  <PUBCHEM_SHAPE_VOLUME>  (1) 
162.4

>  <PUBCHEM_COORDINATE_TYPE>  (1) 
2
5
10

$$$$
