14348
     RDKit          3D

 15 16  0  0  0  0  0  0  0  0999 V2000
    3.8411    0.0002    0.0032 N   0  0  0  0  0  0  0  0  0  0  0  0
   -0.3591   -0.0010   -0.0004 C   0  0  0  0  0  0  0  0  0  0  0  0
    2.4306    0.0003    0.0024 C   0  0  0  0  0  0  0  0  0  0  0  0
   -1.8060   -0.0003   -0.0005 C   0  0  0  0  0  0  0  0  0  0  0  0
    0.3381   -1.0495    0.5995 C   0  0  0  0  0  0  0  0  0  0  0  0
    0.3385    1.0483   -0.5989 C   0  0  0  0  0  0  0  0  0  0  0  0
    1.7330   -1.0489    0.6010 C   0  0  0  0  0  0  0  0  0  0  0  0
    1.7334    1.0488   -0.5975 C   0  0  0  0  0  0  0  0  0  0  0  0
   -2.5038   -0.6001   -1.0488 C   0  0  0  0  0  0  0  0  0  0  0  0
   -2.5031    0.6000    1.0479 C   0  0  0  0  0  0  0  0  0  0  0  0
    4.5749   -1.2495   -0.0026 C   0  0  0  0  0  0  0  0  0  0  0  0
    4.5748    1.2502   -0.0044 C   0  0  0  0  0  0  0  0  0  0  0  0
   -3.8987   -0.5996   -1.0487 C   0  0  0  0  0  0  0  0  0  0  0  0
   -3.8980    0.6005    1.0481 C   0  0  0  0  0  0  0  0  0  0  0  0
   -4.5958    0.0008   -0.0003 C   0  0  0  0  0  0  0  0  0  0  0  0
  1  3  1  0
  1 11  1  0
  1 12  1  0
  2  4  1  0
  2  5  2  0
  2  6  1  0
  3  7  2  0
  3  8  1  0
  4  9  2  0
  4 10  1  0
  5  7  1  0
  6  8  2  0
  9 13  1  0
 10 14  2  0
 13 15  2  0
 14 15  1  0
M  END
>  <PUBCHEM_COMPOUND_CID>  (1) 
14348

>  <PUBCHEM_CONFORMER_RMSD>  (1) 
0.6

>  <PUBCHEM_CONFORMER_DIVERSEORDER>  (1) 
1
3
2
4

>  <PUBCHEM_MMFF94_PARTIAL_CHARGES>  (1) 
22
1 -0.84
10 -0.15
11 0.37
12 0.37
13 -0.15
14 -0.15
15 -0.15
16 0.15
17 0.15
18 0.15
19 0.15
20 0.15
21 0.15
28 0.15
29 0.15
3 0.1
30 0.15
5 -0.15
6 -0.15
7 -0.15
8 -0.15
9 -0.15

>  <PUBCHEM_EFFECTIVE_ROTOR_COUNT>  (1) 
2

>  <PUBCHEM_PHARMACOPHORE_FEATURES>  (1) 
3
1 1 cation
6 2 3 5 6 7 8 rings
6 4 9 10 13 14 15 rings

>  <PUBCHEM_HEAVY_ATOM_COUNT>  (1) 
15

>  <PUBCHEM_ATOM_DEF_STEREO_COUNT>  (1) 
0

>  <PUBCHEM_ATOM_UDEF_STEREO_COUNT>  (1) 
0

>  <PUBCHEM_BOND_DEF_STEREO_COUNT>  (1) 
0

>  <PUBCHEM_BOND_UDEF_STEREO_COUNT>  (1) 
0

>  <PUBCHEM_ISOTOPIC_ATOM_COUNT>  (1) 
0

>  <PUBCHEM_COMPONENT_COUNT>  (1) 
1

>  <PUBCHEM_CACTVS_TAUTO_COUNT>  (1) 
1

>  <PUBCHEM_CONFORMER_ID>  (1) 
0000380C00000001

>  <PUBCHEM_MMFF94_ENERGY>  (1) 
62.0158

>  <PUBCHEM_FEATURE_SELFOVERLAP>  (1) 
15.223

>  <PUBCHEM_SHAPE_FINGERPRINT>  (1) 
10465860 250 16056876914203539306
10912923 1 18060138747459308546
11132069 177 17894911866751939922
11401426 45 18260542346539501892
11471102 20 18186519912712285268
11543360 7 17274543234395548500
12107183 9 17268084445317067714
12236239 1 18343584040844194281
124424 183 16153422861464616481
12500047 106 16558746798047715839
13167823 11 17988924457386478718
13581323 91 17131830967005558069
13675066 3 18334581239019052328
13760787 19 17131834270120336502
13760787 5 18259988167283696084
14993402 34 18410569595758379695
15219456 202 16588299454378182195
15309172 13 18186522102998192627
15375358 24 17167859764029803281
15653759 3 15647053784982748341
15848702 151 18200035036589911102
16945 1 18040435494631006338
17834072 33 18131630118784075228
17862501 102 18202280290625231346
18175812 5 16298390196890303039
18186145 218 18186802487158490590
19026448 5 17918274251280120194
19422 9 18131350799923197142
200 152 18408880755078647095
20279233 1 16588025706131961675
204376 136 17967818292382897298
20645477 70 17968649433000665010
22854114 59 17967532384862709048
23175994 123 17458349632550958381
23402539 116 16917062235977328277
23402655 69 18334568019600196029
23557571 272 15554183505141020225
23559900 14 16056614122893716284
265663 24 17989205945173913238
34797466 226 16343427327125506096
42 15 17775005665413965550
474 4 18124588936725763808
5104073 3 18413389855915799754
542803 24 18202004330312643225
573450 72 17703786990179279475
69090 78 18411979182840331614
77492 1 18343582941216515459
77779 3 17704354368233232050
9981440 41 17262142040088240256

>  <PUBCHEM_SHAPE_MULTIPOLES>  (1) 
303.71
9.59
1.22
1.01
2.07
0
0
0
0.01
0.98
0
-0.85
0
-0.72

>  <PUBCHEM_SHAPE_SELFOVERLAP>  (1) 
649.358

>  <PUBCHEM_SHAPE_VOLUME>  (1) 
169

>  <PUBCHEM_COORDINATE_TYPE>  (1) 
2
5
10

$$$$
