14354
     RDKit          3D

 16 17  0  0  0  0  0  0  0  0999 V2000
   -4.7181   -0.7595    0.1055 O   0  0  0  0  0  0  0  0  0  0  0  0
   -3.1426   -2.2794    0.2686 O   0  0  0  0  0  0  0  0  0  0  0  0
   -3.5070   -1.0860    0.1369 N   0  0  0  0  0  0  0  0  0  0  0  0
    5.2832   -0.7823    0.0622 N   0  0  0  0  0  0  0  0  0  0  0  0
   -0.1949    0.5834   -0.0635 C   0  0  0  0  0  0  0  0  0  0  0  0
    1.2086    0.2333   -0.0301 C   0  0  0  0  0  0  0  0  0  0  0  0
   -1.1654   -0.4116    0.0518 C   0  0  0  0  0  0  0  0  0  0  0  0
   -0.5771    1.9168   -0.2112 C   0  0  0  0  0  0  0  0  0  0  0  0
    2.1421    1.1398    0.4723 C   0  0  0  0  0  0  0  0  0  0  0  0
    1.6282   -1.0104   -0.5022 C   0  0  0  0  0  0  0  0  0  0  0  0
   -2.5183   -0.0735    0.0196 C   0  0  0  0  0  0  0  0  0  0  0  0
    3.9149   -0.4410    0.0306 C   0  0  0  0  0  0  0  0  0  0  0  0
    3.4953    0.8026    0.5026 C   0  0  0  0  0  0  0  0  0  0  0  0
    2.9815   -1.3475   -0.4717 C   0  0  0  0  0  0  0  0  0  0  0  0
   -1.9298    2.2551   -0.2434 C   0  0  0  0  0  0  0  0  0  0  0  0
   -2.9005    1.2599   -0.1280 C   0  0  0  0  0  0  0  0  0  0  0  0
  1  3  1  0
  2  3  2  0
  3 11  1  0
  4 12  1  0
  5  6  1  0
  5  7  2  0
  5  8  1  0
  6  9  2  0
  6 10  1  0
  7 11  1  0
  8 15  2  0
  9 13  1  0
 10 14  2  0
 11 16  2  0
 12 13  2  0
 12 14  1  0
 15 16  1  0
M  CHG  2   1  -1   3   1
M  END
>  <PUBCHEM_COMPOUND_CID>  (1) 
14354

>  <PUBCHEM_CONFORMER_RMSD>  (1) 
0.6

>  <PUBCHEM_CONFORMER_DIVERSEORDER>  (1) 
1

>  <PUBCHEM_MMFF94_PARTIAL_CHARGES>  (1) 
24
1 -0.52
10 -0.15
11 0.13
12 0.1
13 -0.15
14 -0.15
15 -0.15
16 -0.15
17 0.15
18 0.15
19 0.15
2 -0.52
20 0.15
21 0.15
22 0.15
23 0.15
24 0.15
25 0.4
26 0.4
3 0.91
4 -0.9
7 -0.15
8 -0.15
9 -0.15

>  <PUBCHEM_EFFECTIVE_ROTOR_COUNT>  (1) 
2

>  <PUBCHEM_PHARMACOPHORE_FEATURES>  (1) 
7
1 1 acceptor
1 1 anion
1 2 acceptor
1 4 cation
1 4 donor
6 5 7 8 11 15 16 rings
6 6 9 10 12 13 14 rings

>  <PUBCHEM_HEAVY_ATOM_COUNT>  (1) 
16

>  <PUBCHEM_ATOM_DEF_STEREO_COUNT>  (1) 
0

>  <PUBCHEM_ATOM_UDEF_STEREO_COUNT>  (1) 
0

>  <PUBCHEM_BOND_DEF_STEREO_COUNT>  (1) 
0

>  <PUBCHEM_BOND_UDEF_STEREO_COUNT>  (1) 
0

>  <PUBCHEM_ISOTOPIC_ATOM_COUNT>  (1) 
0

>  <PUBCHEM_COMPONENT_COUNT>  (1) 
1

>  <PUBCHEM_CACTVS_TAUTO_COUNT>  (1) 
1

>  <PUBCHEM_CONFORMER_ID>  (1) 
0000381200000001

>  <PUBCHEM_MMFF94_ENERGY>  (1) 
65.323

>  <PUBCHEM_FEATURE_SELFOVERLAP>  (1) 
35.602

>  <PUBCHEM_SHAPE_FINGERPRINT>  (1) 
10608611 8 18341325605042877312
10616163 171 18410294687829226286
10618630 7 18409168843872476949
11046707 91 18408041805593540016
11543360 7 14707212170677354587
12032990 46 18410856581114749504
12251169 10 17918274272385821638
12500047 106 18190736427745734341
13214271 11 18342732988167933036
13288520 33 18410576163016446382
13296908 3 18411981347218778292
13675066 3 17988634178259171258
14115302 16 17385731347543555867
15196674 1 18411418401924489992
15219456 202 18272083881636915040
15309172 13 16917065542616570668
15653759 3 18410011009692184632
17804303 29 18412829074942038980
17834074 16 18341613689773380726
18186145 218 11025788761034937028
19141452 34 18272373109588900639
1986462 14 18335984177422902556
200 152 17632284658235227461
20261772 1 17988922327040586518
20279233 1 18342458093096742580
20281475 54 18338524161200069509
20510252 161 18342738477452706953
20645477 56 18263363582050675525
20645477 70 17201634446622263038
20871998 184 18272932700429120709
21267235 1 18410019839912927467
21501925 9 18410008866308299052
221490 88 18411985771578295216
23402539 116 18333725806108657990
23557571 272 18342182128616060636
23559900 14 18410567367044964304
26918003 58 18201999923649810971
2748010 2 18341888563211466197
2871803 45 18335697243405705927
3312278 4 18341332176189528184
4214541 1 18338797819035764024
474 4 16589167094166037228
5104073 3 18342172233470139360
573450 72 18041830693783448856
7364860 26 18266462190511995396
77779 3 18411138005100550220
81228 2 18260558792375817561
83771 10 18412828005705951513
8809292 202 18335423482089973851
9709674 26 18341616962522974054

>  <PUBCHEM_SHAPE_MULTIPOLES>  (1) 
307.57
8.53
2.01
0.67
2.76
0.17
-0.01
-3.26
0.57
-1.52
-0.05
0.14
0.03
0.64

>  <PUBCHEM_SHAPE_SELFOVERLAP>  (1) 
671.242

>  <PUBCHEM_SHAPE_VOLUME>  (1) 
168.6

>  <PUBCHEM_COORDINATE_TYPE>  (1) 
2
5
10

$$$$
