14356
     RDKit          3D

 16 16  0  0  0  0  0  0  0  0999 V2000
    3.6091    3.5798    0.0420 Cl  0  0  0  0  0  0  0  0  0  0  0  0
    3.6888   -3.5291   -0.0226 Cl  0  0  0  0  0  0  0  0  0  0  0  0
   -4.4557    1.1827    0.1544 O   0  0  0  0  0  0  0  0  0  0  0  0
   -4.6266   -1.0665   -0.1258 O   0  0  0  0  0  0  0  0  0  0  0  0
    1.7325    0.0041   -0.0087 N   0  0  0  0  0  0  0  0  0  0  0  0
    2.4531    1.1635   -0.4958 C   0  0  0  0  0  0  0  0  0  0  0  0
    2.4798   -1.1334    0.4902 C   0  0  0  0  0  0  0  0  0  0  0  0
    0.3223   -0.0118   -0.0074 C   0  0  0  0  0  0  0  0  0  0  0  0
   -0.3622   -1.1323    0.4635 C   0  0  0  0  0  0  0  0  0  0  0  0
   -0.3882    1.0931   -0.4769 C   0  0  0  0  0  0  0  0  0  0  0  0
    2.7144    2.1548    0.6271 C   0  0  0  0  0  0  0  0  0  0  0  0
    2.7615   -2.1312   -0.6220 C   0  0  0  0  0  0  0  0  0  0  0  0
   -1.7570   -1.1481    0.4647 C   0  0  0  0  0  0  0  0  0  0  0  0
   -1.7829    1.0772   -0.4756 C   0  0  0  0  0  0  0  0  0  0  0  0
   -2.4673   -0.0434   -0.0047 C   0  0  0  0  0  0  0  0  0  0  0  0
   -3.9215   -0.0595   -0.0027 C   0  0  0  0  0  0  0  0  0  0  0  0
  1 11  1  0
  2 12  1  0
  3 16  1  0
  4 16  2  0
  5  6  1  0
  5  7  1  0
  5  8  1  0
  6 11  1  0
  7 12  1  0
  8  9  2  0
  8 10  1  0
  9 13  1  0
 10 14  2  0
 13 15  2  0
 14 15  1  0
 15 16  1  0
M  END
>  <PUBCHEM_COMPOUND_CID>  (1) 
14356

>  <PUBCHEM_CONFORMER_RMSD>  (1) 
0.8

>  <PUBCHEM_CONFORMER_DIVERSEORDER>  (1) 
2
1
11
13
10
14
4
9
12
7
18
15
3
16
17
19
8
5
6

>  <PUBCHEM_MMFF94_PARTIAL_CHARGES>  (1) 
21
1 -0.29
10 -0.15
11 0.29
12 0.29
13 -0.15
14 -0.15
15 0.09
16 0.63
2 -0.29
21 0.15
22 0.15
27 0.15
28 0.15
29 0.5
3 -0.65
4 -0.57
5 -0.84
6 0.37
7 0.37
8 0.1
9 -0.15

>  <PUBCHEM_EFFECTIVE_ROTOR_COUNT>  (1) 
6

>  <PUBCHEM_PHARMACOPHORE_FEATURES>  (1) 
5
1 3 acceptor
1 4 acceptor
1 5 cation
3 3 4 16 anion
6 8 9 10 13 14 15 rings

>  <PUBCHEM_HEAVY_ATOM_COUNT>  (1) 
16

>  <PUBCHEM_ATOM_DEF_STEREO_COUNT>  (1) 
0

>  <PUBCHEM_ATOM_UDEF_STEREO_COUNT>  (1) 
0

>  <PUBCHEM_BOND_DEF_STEREO_COUNT>  (1) 
0

>  <PUBCHEM_BOND_UDEF_STEREO_COUNT>  (1) 
0

>  <PUBCHEM_ISOTOPIC_ATOM_COUNT>  (1) 
0

>  <PUBCHEM_COMPONENT_COUNT>  (1) 
1

>  <PUBCHEM_CACTVS_TAUTO_COUNT>  (1) 
1

>  <PUBCHEM_CONFORMER_ID>  (1) 
0000381400000002

>  <PUBCHEM_MMFF94_ENERGY>  (1) 
51.7083

>  <PUBCHEM_FEATURE_SELFOVERLAP>  (1) 
25.429

>  <PUBCHEM_SHAPE_FINGERPRINT>  (1) 
10608611 8 18335416868088439605
12032990 46 18261961756396438539
12916754 54 18411138009527360387
13380535 76 18190175883079110448
13955234 65 18411985784189105346
14178000 15 18270117903612714832
14866123 147 16611105232403937882
15442244 35 18268714913410787809
15536298 74 18409729564764206311
17804303 29 18191027807032859591
18186145 218 17894628119980181247
18785283 64 18335416907286360288
19026448 5 17846499236299811075
19422 9 18343585123133897791
20645477 70 18408599258347986407
20671657 1 18411705382959415078
20671657 53 18197220252536853890
20832881 197 18118689807412388891
21452121 103 18409439293536640432
221490 88 18335990804436458755
2255824 54 18341896281726723838
23526113 38 18188497869859437986
23559900 14 18411132507262849642
23566358 27 18341609356299416918
2748010 2 18186239536946593559
3286 77 18336266725951578870
449060 62 18340771562587805816
5104073 3 18334580144561898545
633830 44 18335413544221297135
7364860 26 18411981364962941958
77188 2 18195528087372930398
81539 233 18265049305269323276
9709674 26 18408042918217429811
9981440 41 18122620819469863712

>  <PUBCHEM_SHAPE_MULTIPOLES>  (1) 
316.29
8.12
3.61
0.75
6.54
0.15
0
-0.13
-0.02
-7.23
-0.03
-0.19
0
0.45

>  <PUBCHEM_SHAPE_SELFOVERLAP>  (1) 
624.679

>  <PUBCHEM_SHAPE_VOLUME>  (1) 
191.2

>  <PUBCHEM_COORDINATE_TYPE>  (1) 
2
5
10

$$$$
