14366
     RDKit          3D

 17 17  0  0  0  0  0  0  0  0999 V2000
    0.5096   -0.7000    0.0462 O   0  0  0  0  0  0  0  0  0  0  0  0
   -3.2597    0.7584    0.2132 O   0  0  0  0  0  0  0  0  0  0  0  0
   -1.0214   -1.4904   -1.4725 O   0  0  0  0  0  0  0  0  0  0  0  0
   -5.1146   -0.6016    0.2738 O   0  0  0  0  0  0  0  0  0  0  0  0
   -1.5733   -1.1453    0.7543 N   0  0  0  0  0  0  0  0  0  0  0  0
    2.7869   -0.1405   -0.4078 C   0  0  0  0  0  0  0  0  0  0  0  0
    1.4989   -0.6469   -0.9878 C   0  0  0  0  0  0  0  0  0  0  0  0
    3.7077   -1.0413    0.1157 C   0  0  0  0  0  0  0  0  0  0  0  0
    3.0476    1.2253   -0.3985 C   0  0  0  0  0  0  0  0  0  0  0  0
   -2.9556   -1.5614    0.6935 C   0  0  0  0  0  0  0  0  0  0  0  0
    4.9047   -0.5702    0.6551 C   0  0  0  0  0  0  0  0  0  0  0  0
    4.2448    1.6962    0.1408 C   0  0  0  0  0  0  0  0  0  0  0  0
    5.1731    0.7986    0.6676 C   0  0  0  0  0  0  0  0  0  0  0  0
   -0.7253   -1.1456   -0.3332 C   0  0  0  0  0  0  0  0  0  0  0  0
   -3.9040   -0.4302    0.3726 C   0  0  0  0  0  0  0  0  0  0  0  0
   -4.0930    1.8810   -0.0946 C   0  0  0  0  0  0  0  0  0  0  0  0
   -3.2263    3.1138   -0.2383 C   0  0  0  0  0  0  0  0  0  0  0  0
  1  7  1  0
  1 14  1  0
  2 15  1  0
  2 16  1  0
  3 14  2  0
  4 15  2  0
  5 10  1  0
  5 14  1  0
  6  7  1  0
  6  8  2  0
  6  9  1  0
  8 11  1  0
  9 12  2  0
 10 15  1  0
 11 13  2  0
 12 13  1  0
 16 17  1  0
M  END
>  <PUBCHEM_COMPOUND_CID>  (1) 
14366

>  <PUBCHEM_CONFORMER_RMSD>  (1) 
0.8

>  <PUBCHEM_CONFORMER_DIVERSEORDER>  (1) 
1
142
64
85
124
161
131
90
119
151
27
148
44
74
47
92
75
69
159
102
73
145
91
126
46
49
87
29
68
78
60
57
86
107
146
39
153
52
113
61
66
167
13
4
59
67
22
116
43
62
51
8
33
165
129
53
156
5
166
83
80
84
111
10
16
71
118
132
26
7
158
2
77
54
15
164
45
89
160
70
123
11
122
14
150
3
108
36
100
6
21
40
138
140
41
96
125
163
155
117
48
95
65
157
24
23
34
32
137
136
82
20
58
115
9
98
130
25
149
88
144
168
79
94
114
50
106
38
120
152
99
105
76
135
55
63
101
72
127
42
12
93
143
147
35
134
17
30
133
139
162
121
141
37
28
128
81
97
104
103
56
19
18
31
154
110
109
112

>  <PUBCHEM_MMFF94_PARTIAL_CHARGES>  (1) 
22
1 -0.43
10 0.36
11 -0.15
12 -0.15
13 -0.15
14 0.78
15 0.66
16 0.28
2 -0.43
20 0.15
21 0.15
24 0.37
25 0.15
26 0.15
27 0.15
3 -0.57
4 -0.57
5 -0.73
6 -0.14
7 0.42
8 -0.15
9 -0.15

>  <PUBCHEM_EFFECTIVE_ROTOR_COUNT>  (1) 
8

>  <PUBCHEM_PHARMACOPHORE_FEATURES>  (1) 
4
1 3 acceptor
1 4 acceptor
1 5 donor
6 6 8 9 11 12 13 rings

>  <PUBCHEM_HEAVY_ATOM_COUNT>  (1) 
17

>  <PUBCHEM_ATOM_DEF_STEREO_COUNT>  (1) 
0

>  <PUBCHEM_ATOM_UDEF_STEREO_COUNT>  (1) 
0

>  <PUBCHEM_BOND_DEF_STEREO_COUNT>  (1) 
0

>  <PUBCHEM_BOND_UDEF_STEREO_COUNT>  (1) 
0

>  <PUBCHEM_ISOTOPIC_ATOM_COUNT>  (1) 
0

>  <PUBCHEM_COMPONENT_COUNT>  (1) 
1

>  <PUBCHEM_CACTVS_TAUTO_COUNT>  (1) 
2

>  <PUBCHEM_CONFORMER_ID>  (1) 
0000381E00000001

>  <PUBCHEM_MMFF94_ENERGY>  (1) 
26.5473

>  <PUBCHEM_FEATURE_SELFOVERLAP>  (1) 
20.297

>  <PUBCHEM_SHAPE_FINGERPRINT>  (1) 
11128504 68 13901906730427207410
12107183 9 17828756249199970514
12596602 18 16950848114742491417
12670546 177 11095885973391070922
12670546 56 18187078442791113163
12892183 10 18259707817251222538
13103583 49 13263258597237859125
13675066 3 18412266151191029034
14123255 352 18341327812370951589
14251764 38 18340773649900071104
14252887 29 15357687601062305226
15188451 53 16661491882055778979
15256400 18 18335140843377611940
15880784 105 15140968412565689001
17834072 32 18265897943631282057
193927 3 12685082649781077418
200 152 10665221557968252270
20432913 95 15213013856156824570
20645477 56 17917714646900793174
20645477 70 16845025528407702582
20871999 31 10807929366654461004
21054139 6 11383824957909000988
21065198 57 18335422378753020002
21065199 12 18335706061189875106
21315764 268 18408598175689368492
21652331 79 18411420648023548265
23402539 116 18409164446517432735
23402655 69 12607138291514954482
23559900 14 18127695920288719846
238078 22 8934994884686064519
2838139 119 18338787902441886477
351380 180 18409729573428071913
4214541 1 18335421253028294872
465052 167 12901551242897568586
90127 26 18410304609562031970
9981440 41 18187931634509282035

>  <PUBCHEM_SHAPE_MULTIPOLES>  (1) 
321.39
12.25
2.36
0.91
1.62
1.87
-0.15
3.69
2.75
-2.41
-0.11
0.14
-0.25
0.44

>  <PUBCHEM_SHAPE_SELFOVERLAP>  (1) 
648.888

>  <PUBCHEM_SHAPE_VOLUME>  (1) 
187.1

>  <PUBCHEM_COORDINATE_TYPE>  (1) 
2
5
10

$$$$
