14369
     RDKit          3D

 18 20  0  0  0  0  0  0  0  0999 V2000
   -5.5682   -0.4458   -1.3837 Br  0  0  0  0  0  0  0  0  0  0  0  0
    0.6096   -2.0140    1.5731 O   0  0  0  0  0  0  0  0  0  0  0  0
    0.5708    2.5509    0.2761 O   0  0  0  0  0  0  0  0  0  0  0  0
    0.0006    0.3301    1.1601 C   0  0  0  0  0  0  0  0  0  0  0  0
    0.8472   -0.9310    1.0721 C   0  0  0  0  0  0  0  0  0  0  0  0
    0.8271    1.3701    0.4186 C   0  0  0  0  0  0  0  0  0  0  0  0
    2.0332   -0.6293    0.2675 C   0  0  0  0  0  0  0  0  0  0  0  0
    2.0214    0.7098   -0.1128 C   0  0  0  0  0  0  0  0  0  0  0  0
   -1.3408    0.1440    0.5461 C   0  0  0  0  0  0  0  0  0  0  0  0
    3.0606   -1.4781   -0.0958 C   0  0  0  0  0  0  0  0  0  0  0  0
    3.0365    1.2574   -0.8729 C   0  0  0  0  0  0  0  0  0  0  0  0
   -2.4391    0.8597    1.0292 C   0  0  0  0  0  0  0  0  0  0  0  0
   -1.5094   -0.7482   -0.5158 C   0  0  0  0  0  0  0  0  0  0  0  0
    4.0953   -0.9419   -0.8672 C   0  0  0  0  0  0  0  0  0  0  0  0
    4.0833    0.4128   -1.2521 C   0  0  0  0  0  0  0  0  0  0  0  0
   -3.6978    0.6842    0.4543 C   0  0  0  0  0  0  0  0  0  0  0  0
   -2.7680   -0.9236   -1.0909 C   0  0  0  0  0  0  0  0  0  0  0  0
   -3.8624   -0.2073   -0.6059 C   0  0  0  0  0  0  0  0  0  0  0  0
  1 18  1  0
  2  5  2  0
  3  6  2  0
  4  5  1  0
  4  6  1  0
  4  9  1  0
  5  7  1  0
  6  8  1  0
  7  8  2  0
  7 10  1  0
  8 11  1  0
  9 12  2  0
  9 13  1  0
 10 14  2  0
 11 15  2  0
 12 16  1  0
 13 17  2  0
 14 15  1  0
 16 18  2  0
 17 18  1  0
M  END
>  <PUBCHEM_COMPOUND_CID>  (1) 
14369

>  <PUBCHEM_CONFORMER_RMSD>  (1) 
0.6

>  <PUBCHEM_CONFORMER_DIVERSEORDER>  (1) 
1

>  <PUBCHEM_MMFF94_PARTIAL_CHARGES>  (1) 
26
1 -0.11
10 -0.15
11 -0.15
12 -0.15
13 -0.15
14 -0.15
15 -0.15
16 -0.15
17 -0.15
18 0.11
2 -0.57
20 0.15
21 0.15
22 0.15
23 0.15
24 0.15
25 0.15
26 0.15
27 0.15
3 -0.57
4 0.27
5 0.42
6 0.42
7 0.09
8 0.09
9 -0.14

>  <PUBCHEM_EFFECTIVE_ROTOR_COUNT>  (1) 
1.2

>  <PUBCHEM_PHARMACOPHORE_FEATURES>  (1) 
7
1 1 hydrophobe
1 2 acceptor
1 3 acceptor
1 4 anion
5 4 5 6 7 8 rings
6 7 8 10 11 14 15 rings
6 9 12 13 16 17 18 rings

>  <PUBCHEM_HEAVY_ATOM_COUNT>  (1) 
18

>  <PUBCHEM_ATOM_DEF_STEREO_COUNT>  (1) 
0

>  <PUBCHEM_ATOM_UDEF_STEREO_COUNT>  (1) 
0

>  <PUBCHEM_BOND_DEF_STEREO_COUNT>  (1) 
0

>  <PUBCHEM_BOND_UDEF_STEREO_COUNT>  (1) 
0

>  <PUBCHEM_ISOTOPIC_ATOM_COUNT>  (1) 
0

>  <PUBCHEM_COMPONENT_COUNT>  (1) 
1

>  <PUBCHEM_CACTVS_TAUTO_COUNT>  (1) 
2

>  <PUBCHEM_CONFORMER_ID>  (1) 
0000382100000001

>  <PUBCHEM_MMFF94_ENERGY>  (1) 
49.209

>  <PUBCHEM_FEATURE_SELFOVERLAP>  (1) 
35.601

>  <PUBCHEM_SHAPE_FINGERPRINT>  (1) 
10465860 71 17988932179558088268
10498660 4 16008740304230373637
11471102 20 18186243918113792300
11578080 2 18056735673136131632
11796584 16 16343432695517582815
12236239 1 18271810094429858339
12251169 10 9583520897607219220
12363563 72 14620800422295242643
12730499 353 17168145611889973955
13583140 156 15864642790024516496
14115302 16 17131832109772865959
14252887 29 11959738161499685932
14576447 43 18272930535480942094
14739800 52 12758585131206002798
14993402 34 18343021086289870149
15209294 21 11458430158362306646
15210252 30 17167857543585278325
15342816 4 17846502508790643006
16752209 62 17917700272246412623
16945 1 18270122451624235928
17804303 29 16845290532026206467
18186145 218 17967259697568356058
19422 9 18343306941975045091
19862831 5 18411416224270335575
200 152 18340776957609541934
20871999 31 18343867697369015781
21634736 98 18200029680422528573
21637258 2 16702301217997693214
221357 26 18335693932545272381
231179 274 16660645167559534524
23402539 116 18337116670579077268
23402655 69 18335987492937266500
23419403 2 10606742185504499784
23559900 14 16630529505815644336
25 1 18040440979404554890
2748010 2 17832168356478531920
2838139 119 16010169781210798486
296302 2 11314309451633231559
3060560 45 18040709281685179862
3082319 5 18272375282135054990
3323516 105 18262524817676085939
3472631 163 13984666957981653343
465052 167 17489306464494325999
474 4 18193836170442566488
633830 44 18187661162426107361
7164475 11 18194684765933135860
7364860 26 17559664221375571785
77492 1 18271533004614770233
9981440 41 17263550505972595016

>  <PUBCHEM_SHAPE_MULTIPOLES>  (1) 
364.64
8.98
1.7
1.37
6.7
0.43
-0.11
-2.05
5.04
-0.72
-0.16
0.02
-0.27
-0.97

>  <PUBCHEM_SHAPE_SELFOVERLAP>  (1) 
801.112

>  <PUBCHEM_SHAPE_VOLUME>  (1) 
203.1

>  <PUBCHEM_COORDINATE_TYPE>  (1) 
2
5
10

$$$$
