14378
     RDKit          3D

 18 19  0  0  0  0  0  0  0  0999 V2000
    2.1112    4.4808   -0.2954 Br  0  0  0  0  0  0  0  0  0  0  0  0
    0.0114    0.8868    0.0276 N   0  0  0  0  0  0  0  0  0  0  0  0
   -1.2903    1.3893    0.4652 C   0  0  0  0  0  0  0  0  0  0  0  0
    0.3495   -0.3449    0.7398 C   0  0  0  0  0  0  0  0  0  0  0  0
    1.0465    1.8986    0.2366 C   0  0  0  0  0  0  0  0  0  0  0  0
   -2.3909    0.3945    0.2086 C   0  0  0  0  0  0  0  0  0  0  0  0
    1.6861   -0.8909    0.3128 C   0  0  0  0  0  0  0  0  0  0  0  0
    0.6983    3.1606   -0.5304 C   0  0  0  0  0  0  0  0  0  0  0  0
   -3.0712    0.4250   -1.0008 C   0  0  0  0  0  0  0  0  0  0  0  0
    1.7519   -1.7865   -0.7455 C   0  0  0  0  0  0  0  0  0  0  0  0
   -2.7094   -0.5394    1.1848 C   0  0  0  0  0  0  0  0  0  0  0  0
    2.8337   -0.4907    0.9831 C   0  0  0  0  0  0  0  0  0  0  0  0
   -4.0907   -0.4967   -1.2387 C   0  0  0  0  0  0  0  0  0  0  0  0
    2.9901   -2.2922   -1.1414 C   0  0  0  0  0  0  0  0  0  0  0  0
   -3.7288   -1.4611    0.9466 C   0  0  0  0  0  0  0  0  0  0  0  0
    4.0719   -0.9964    0.5871 C   0  0  0  0  0  0  0  0  0  0  0  0
   -4.4195   -1.4397   -0.2652 C   0  0  0  0  0  0  0  0  0  0  0  0
    4.1500   -1.8971   -0.4751 C   0  0  0  0  0  0  0  0  0  0  0  0
  1  8  1  0
  2  3  1  0
  2  4  1  0
  2  5  1  0
  3  6  1  0
  4  7  1  0
  5  8  1  0
  6  9  2  0
  6 11  1  0
  7 10  2  0
  7 12  1  0
  9 13  1  0
 10 14  1  0
 11 15  2  0
 12 16  2  0
 13 17  2  0
 14 18  2  0
 15 17  1  0
 16 18  1  0
M  END
>  <PUBCHEM_COMPOUND_CID>  (1) 
14378

>  <PUBCHEM_CONFORMER_RMSD>  (1) 
0.8

>  <PUBCHEM_CONFORMER_DIVERSEORDER>  (1) 
1
9
7
5
11
12
10
6
13
8
4
2
3

>  <PUBCHEM_MMFF94_PARTIAL_CHARGES>  (1) 
28
1 -0.23
10 -0.15
11 -0.15
12 -0.15
13 -0.15
14 -0.15
15 -0.15
16 -0.15
17 -0.15
18 -0.15
2 -0.81
27 0.15
28 0.15
29 0.15
3 0.41
30 0.15
31 0.15
32 0.15
33 0.15
34 0.15
35 0.15
36 0.15
4 0.41
5 0.27
6 -0.14
7 -0.14
8 0.23
9 -0.15

>  <PUBCHEM_EFFECTIVE_ROTOR_COUNT>  (1) 
6

>  <PUBCHEM_PHARMACOPHORE_FEATURES>  (1) 
4
1 1 hydrophobe
1 2 cation
6 6 9 11 13 15 17 rings
6 7 10 12 14 16 18 rings

>  <PUBCHEM_HEAVY_ATOM_COUNT>  (1) 
18

>  <PUBCHEM_ATOM_DEF_STEREO_COUNT>  (1) 
0

>  <PUBCHEM_ATOM_UDEF_STEREO_COUNT>  (1) 
0

>  <PUBCHEM_BOND_DEF_STEREO_COUNT>  (1) 
0

>  <PUBCHEM_BOND_UDEF_STEREO_COUNT>  (1) 
0

>  <PUBCHEM_ISOTOPIC_ATOM_COUNT>  (1) 
0

>  <PUBCHEM_COMPONENT_COUNT>  (1) 
1

>  <PUBCHEM_CACTVS_TAUTO_COUNT>  (1) 
1

>  <PUBCHEM_CONFORMER_ID>  (1) 
0000382A00000001

>  <PUBCHEM_MMFF94_ENERGY>  (1) 
53.5655

>  <PUBCHEM_FEATURE_SELFOVERLAP>  (1) 
20.297

>  <PUBCHEM_SHAPE_FINGERPRINT>  (1) 
11578080 2 16734361920522928604
12363563 72 18336833004467847939
12553582 1 18262802843867807227
12707595 3 18333733511396271931
12788726 201 17757267085414923416
133893 2 18044117810734115272
13544653 18 18060134310594749827
13681431 1 18411138047665517248
15502722 9 18264489670735333149
15842332 3 17845672455132482185
167882 2 18191023615530348756
17357779 13 18269540676723635165
1813 80 18201452336831317854
19784866 34 8358254839075269326
20388580 30 18341893013029452941
20645477 70 18265041604508759151
20671657 53 18335698325847929251
20693207 138 17822014271953850227
20871999 31 18189894210792458197
212916 134 8213563442972456318
21304303 282 16817102133440090988
221490 88 18262241152345104123
23402539 116 18264769870470792802
23419403 2 17751611412698168684
23557571 272 18123464986844304060
23559900 14 18337098051537490905
3057174 1 17760658357416801684
314173 41 18408604729998840147
458136 41 17905623433636903209
46194498 28 18263903584362372647
5262128 65 18410295809052502473
6025842 7 18195241350739574461
6669772 16 17909000038615817140
6913067 236 18056735695027250562
7364860 26 18266742561333678528
81228 2 18050849914166906760
81539 233 17972879447289956652
9709674 26 18262513827318895083

>  <PUBCHEM_SHAPE_MULTIPOLES>  (1) 
371.39
8.3
4.01
1.16
4.61
5.92
0.06
-5.73
0.83
-5.24
1
0.36
-0.34
0.48

>  <PUBCHEM_SHAPE_SELFOVERLAP>  (1) 
762.296

>  <PUBCHEM_SHAPE_VOLUME>  (1) 
219

>  <PUBCHEM_COORDINATE_TYPE>  (1) 
2
5
10

$$$$
