14370
     RDKit          3D

 18 19  0  0  0  0  0  0  0  0999 V2000
    4.8621    1.2297   -0.8061 Cl  0  0  0  0  0  0  0  0  0  0  0  0
   -0.7548   -0.4404    2.2922 O   0  0  0  0  0  0  0  0  0  0  0  0
    1.3881   -2.5745   -1.3983 O   0  0  0  0  0  0  0  0  0  0  0  0
    0.0820   -2.5966    0.4619 O   0  0  0  0  0  0  0  0  0  0  0  0
    0.7354    0.2935    0.6456 C   0  0  0  0  0  0  0  0  0  0  0  0
    1.4409   -0.6860   -0.0152 C   0  0  0  0  0  0  0  0  0  0  0  0
   -0.6453    0.0131    1.1432 C   0  0  0  0  0  0  0  0  0  0  0  0
   -1.8294    0.2538    0.3341 C   0  0  0  0  0  0  0  0  0  0  0  0
    1.2485    1.5505    0.8781 C   0  0  0  0  0  0  0  0  0  0  0  0
    2.7275   -0.3945   -0.4679 C   0  0  0  0  0  0  0  0  0  0  0  0
    2.5352    1.8419    0.4251 C   0  0  0  0  0  0  0  0  0  0  0  0
   -1.6997    0.7646   -0.9575 C   0  0  0  0  0  0  0  0  0  0  0  0
   -3.0948   -0.0258    0.8497 C   0  0  0  0  0  0  0  0  0  0  0  0
    3.2747    0.8694   -0.2478 C   0  0  0  0  0  0  0  0  0  0  0  0
   -2.8356    0.9957   -1.7334 C   0  0  0  0  0  0  0  0  0  0  0  0
   -4.2307    0.2053    0.0738 C   0  0  0  0  0  0  0  0  0  0  0  0
    0.8968   -2.0157   -0.2597 C   0  0  0  0  0  0  0  0  0  0  0  0
   -4.1010    0.7160   -1.2178 C   0  0  0  0  0  0  0  0  0  0  0  0
  1 14  1  0
  2  7  2  0
  3 17  1  0
  4 17  2  0
  5  6  2  0
  5  7  1  0
  5  9  1  0
  6 10  1  0
  6 17  1  0
  7  8  1  0
  8 12  2  0
  8 13  1  0
  9 11  2  0
 10 14  2  0
 11 14  1  0
 12 15  1  0
 13 16  2  0
 15 18  2  0
 16 18  1  0
M  END
>  <PUBCHEM_COMPOUND_CID>  (1) 
14370

>  <PUBCHEM_CONFORMER_RMSD>  (1) 
0.6

>  <PUBCHEM_CONFORMER_DIVERSEORDER>  (1) 
1
2

>  <PUBCHEM_MMFF94_PARTIAL_CHARGES>  (1) 
27
1 -0.18
10 -0.15
11 -0.15
12 -0.15
13 -0.15
14 0.18
15 -0.15
16 -0.15
17 0.63
18 -0.15
19 0.15
2 -0.57
20 0.15
21 0.15
22 0.15
23 0.15
24 0.15
25 0.15
26 0.15
27 0.5
3 -0.65
4 -0.57
5 0.09
6 0.09
7 0.4
8 0.09
9 -0.15

>  <PUBCHEM_EFFECTIVE_ROTOR_COUNT>  (1) 
3

>  <PUBCHEM_PHARMACOPHORE_FEATURES>  (1) 
6
1 2 acceptor
1 3 acceptor
1 4 acceptor
3 3 4 17 anion
6 5 6 9 10 11 14 rings
6 8 12 13 15 16 18 rings

>  <PUBCHEM_HEAVY_ATOM_COUNT>  (1) 
18

>  <PUBCHEM_ATOM_DEF_STEREO_COUNT>  (1) 
0

>  <PUBCHEM_ATOM_UDEF_STEREO_COUNT>  (1) 
0

>  <PUBCHEM_BOND_DEF_STEREO_COUNT>  (1) 
0

>  <PUBCHEM_BOND_UDEF_STEREO_COUNT>  (1) 
0

>  <PUBCHEM_ISOTOPIC_ATOM_COUNT>  (1) 
0

>  <PUBCHEM_COMPONENT_COUNT>  (1) 
1

>  <PUBCHEM_CACTVS_TAUTO_COUNT>  (1) 
1

>  <PUBCHEM_CONFORMER_ID>  (1) 
0000382200000001

>  <PUBCHEM_MMFF94_ENERGY>  (1) 
61.5382

>  <PUBCHEM_FEATURE_SELFOVERLAP>  (1) 
30.505

>  <PUBCHEM_SHAPE_FINGERPRINT>  (1) 
10498660 4 17095793314260396245
107287 299 18408880724692155109
12119455 92 18261106396400183308
12236239 1 17060627697797665225
12730499 353 18334859394660990673
12824470 246 12966591728358263452
12969540 114 18339636849882864804
13004483 165 16821338500023397979
13464514 151 17971749973949055804
13583140 156 17750241473071242688
13760787 19 17775002384739368517
15209294 21 14779545733865952492
15219456 202 18186519873846576473
15375462 478 12540688206878469141
15502722 9 18340484465456492575
16752209 62 15697716987879582305
16945 1 17988916760593704265
17357990 137 14201693987346547959
1813 80 17270892628000421486
18186145 218 18130783507631414464
19786989 88 18410003334717281067
19862831 5 17346597490969782213
200 152 17132122355030765824
20344682 1 18187088385714178453
20645477 70 18340769247594983215
20715895 44 13047316717314433319
21639500 275 18342735221629879112
22112679 90 16844455912095046010
23114952 82 18191865626266159525
23227448 37 16879925281382242900
232386 152 15840966894247242319
23402539 116 17240760735131318367
23557571 272 17749119906606592019
23559900 14 17458345209135284146
23598291 2 17486788384823209465
238 59 18195218110508005901
25 1 18341896294289482488
2748010 2 17912372219070552496
3060560 45 18342447166879517124
3323516 105 18412546509402214423
3472631 163 16805315579296269837
4175511 318 18042413580933009172
474 4 17201619276719243520
633830 44 17917716832896994800
77492 1 17203614757026137105
81228 2 17474374155273825906
81539 233 18333447629946606710
8272917 22 18059301938007235239
8988823 20 8428874367385514037

>  <PUBCHEM_SHAPE_MULTIPOLES>  (1) 
354.69
7.34
2.04
1.49
0.35
1.44
0.14
-3.75
-2.53
-1.35
-0.42
0.72
0.01
0.84

>  <PUBCHEM_SHAPE_SELFOVERLAP>  (1) 
768.102

>  <PUBCHEM_SHAPE_VOLUME>  (1) 
194.9

>  <PUBCHEM_COORDINATE_TYPE>  (1) 
2
5
10

$$$$
