14371
     RDKit          3D

 18 20  0  0  0  0  0  0  0  0999 V2000
   -3.0516   -2.3299    0.0002 O   0  0  0  0  0  0  0  0  0  0  0  0
    4.2604    1.5863    0.0016 O   0  0  0  0  0  0  0  0  0  0  0  0
    3.5907   -0.6740    0.0005 N   0  0  0  0  0  0  0  0  0  0  0  0
   -0.7275    1.8766   -0.0014 C   0  0  0  0  0  0  0  0  0  0  0  0
    0.1821    0.6658   -0.0020 C   0  0  0  0  0  0  0  0  0  0  0  0
   -0.5791   -0.5247   -0.0012 C   0  0  0  0  0  0  0  0  0  0  0  0
   -2.0983    1.2329   -0.0008 C   0  0  0  0  0  0  0  0  0  0  0  0
   -1.9833   -0.1755   -0.0006 C   0  0  0  0  0  0  0  0  0  0  0  0
    1.5656    0.6394   -0.0021 C   0  0  0  0  0  0  0  0  0  0  0  0
    0.0471   -1.7600   -0.0005 C   0  0  0  0  0  0  0  0  0  0  0  0
   -3.1151   -0.9736    0.0007 C   0  0  0  0  0  0  0  0  0  0  0  0
   -3.3331    1.8576    0.0004 C   0  0  0  0  0  0  0  0  0  0  0  0
    2.1965   -0.6060   -0.0012 C   0  0  0  0  0  0  0  0  0  0  0  0
    1.4449   -1.7937   -0.0006 C   0  0  0  0  0  0  0  0  0  0  0  0
   -4.3659   -0.3487    0.0023 C   0  0  0  0  0  0  0  0  0  0  0  0
   -4.4737    1.0527    0.0018 C   0  0  0  0  0  0  0  0  0  0  0  0
    4.5079    0.3848    0.0003 C   0  0  0  0  0  0  0  0  0  0  0  0
    5.9325   -0.1101    0.0026 C   0  0  0  0  0  0  0  0  0  0  0  0
  1 11  1  0
  2 17  2  0
  3 13  1  0
  3 17  1  0
  4  5  1  0
  4  7  1  0
  5  6  2  0
  5  9  1  0
  6  8  1  0
  6 10  1  0
  7  8  2  0
  7 12  1  0
  8 11  1  0
  9 13  2  0
 10 14  2  0
 11 15  2  0
 12 16  2  0
 13 14  1  0
 15 16  1  0
 17 18  1  0
M  END
>  <PUBCHEM_COMPOUND_CID>  (1) 
14371

>  <PUBCHEM_CONFORMER_RMSD>  (1) 
0.6

>  <PUBCHEM_CONFORMER_DIVERSEORDER>  (1) 
1
2
3
4

>  <PUBCHEM_MMFF94_PARTIAL_CHARGES>  (1) 
24
1 -0.53
10 -0.15
11 0.08
12 -0.15
13 0.12
14 -0.15
15 -0.15
16 -0.15
17 0.57
18 0.06
2 -0.57
21 0.15
22 0.15
23 0.15
24 0.15
25 0.15
26 0.15
27 0.37
28 0.45
3 -0.55
4 0.29
5 -0.14
7 -0.14
9 -0.15

>  <PUBCHEM_EFFECTIVE_ROTOR_COUNT>  (1) 
2.2

>  <PUBCHEM_PHARMACOPHORE_FEATURES>  (1) 
6
1 1 donor
1 2 acceptor
1 3 donor
5 4 5 6 7 8 rings
6 5 6 9 10 13 14 rings
6 7 8 11 12 15 16 rings

>  <PUBCHEM_HEAVY_ATOM_COUNT>  (1) 
18

>  <PUBCHEM_ATOM_DEF_STEREO_COUNT>  (1) 
0

>  <PUBCHEM_ATOM_UDEF_STEREO_COUNT>  (1) 
0

>  <PUBCHEM_BOND_DEF_STEREO_COUNT>  (1) 
0

>  <PUBCHEM_BOND_UDEF_STEREO_COUNT>  (1) 
0

>  <PUBCHEM_ISOTOPIC_ATOM_COUNT>  (1) 
0

>  <PUBCHEM_COMPONENT_COUNT>  (1) 
1

>  <PUBCHEM_CACTVS_TAUTO_COUNT>  (1) 
18

>  <PUBCHEM_CONFORMER_ID>  (1) 
0000382300000001

>  <PUBCHEM_MMFF94_ENERGY>  (1) 
64.5962

>  <PUBCHEM_FEATURE_SELFOVERLAP>  (1) 
30.61

>  <PUBCHEM_SHAPE_FINGERPRINT>  (1) 
10014705 185 18187925050002637333
10411042 1 17978229684330973699
10493431 412 18268720424529191913
10616163 171 18411419526974085903
10967382 1 18338798910247432135
11132069 177 18409168796422101781
11401426 45 18409728465004665223
11578080 2 16808124710882201734
12107183 9 17614555939696732224
12236239 1 17821447958977375112
12390115 104 18057620763043247553
12403814 3 17676204641848862029
13140716 1 18194974156676796665
13214271 11 18413669119242756735
13862211 1 18410851087999530814
15196674 1 18410573950818274918
15375358 24 18411700959021871823
15536298 74 18342178804517036798
16087824 20 18411979162610258967
16945 1 18410575094007471941
19591789 44 18268146642103468032
19784866 170 18409169878980707251
200 152 17917707993911834593
20510252 161 18200314291210974105
20645477 56 18335703793658132789
20645477 70 17274547503730451478
21267235 1 18410018766651151379
23366157 5 17970072132586194530
23402539 116 18412257355013370774
23402655 69 18270672053315426749
23557571 272 18272660042856699252
23559900 14 18270399383085060630
2748010 2 17978224186866916397
296302 2 18410856521380709815
3004659 81 18335426726103806070
3312278 4 18412827967167232057
335352 9 18410573968061474044
34934 24 18336823096473908267
351380 180 18410572886351999416
3545911 37 18410857637708320388
4214541 1 18410573976683121664
4340502 62 16733275539042673633
474 4 17603594066587434892
474229 33 18410855473092503302
4990 188 18060425694635726644
5104073 3 18337111159429318018
58051976 378 18341894052416858972
59755656 215 18340774724369525438
7364860 26 18196935461908928230
77779 3 18411419505651697452
9709674 26 18340774749353351863

>  <PUBCHEM_SHAPE_MULTIPOLES>  (1) 
353.71
10.11
2.03
0.6
9.41
0.29
0
-1.71
-0.01
-1.1
0
-0.02
-0.01
0

>  <PUBCHEM_SHAPE_SELFOVERLAP>  (1) 
785.61

>  <PUBCHEM_SHAPE_VOLUME>  (1) 
190.6

>  <PUBCHEM_COORDINATE_TYPE>  (1) 
2
5
10

$$$$
