14374
     RDKit          3D

 18 19  0  0  0  0  0  0  0  0999 V2000
    3.9825   -2.0109   -0.0750 O   0  0  0  0  0  0  0  0  0  0  0  0
    2.0083   -2.8499    0.3917 O   0  0  0  0  0  0  0  0  0  0  0  0
   -2.4028   -0.5837   -0.0746 N   0  0  0  0  0  0  0  0  0  0  0  0
    0.3142    3.0968   -0.0563 N   0  0  0  0  0  0  0  0  0  0  0  0
    2.7528   -1.8744    0.1316 N   0  0  0  0  0  0  0  0  0  0  0  0
   -2.2724    0.6411    0.7268 C   0  0  0  0  0  0  0  0  0  0  0  0
   -1.0528    1.4104    0.4069 C   0  0  0  0  0  0  0  0  0  0  0  0
    0.2585    0.8856    0.2349 C   0  0  0  0  0  0  0  0  0  0  0  0
    1.0969    1.9642   -0.0550 C   0  0  0  0  0  0  0  0  0  0  0  0
   -2.4575   -0.2530   -1.4955 C   0  0  0  0  0  0  0  0  0  0  0  0
   -3.5932   -1.3261    0.3296 C   0  0  0  0  0  0  0  0  0  0  0  0
   -0.9864    2.7722    0.2221 C   0  0  0  0  0  0  0  0  0  0  0  0
    0.8145   -0.4076    0.2981 C   0  0  0  0  0  0  0  0  0  0  0  0
    2.4689    1.8137   -0.2858 C   0  0  0  0  0  0  0  0  0  0  0  0
   -2.5925   -1.5048   -2.3458 C   0  0  0  0  0  0  0  0  0  0  0  0
   -3.5221   -1.7219    1.7947 C   0  0  0  0  0  0  0  0  0  0  0  0
    2.1853   -0.5734    0.0694 C   0  0  0  0  0  0  0  0  0  0  0  0
    2.9980    0.5216   -0.2178 C   0  0  0  0  0  0  0  0  0  0  0  0
  1  5  1  0
  2  5  2  0
  3  6  1  0
  3 10  1  0
  3 11  1  0
  4  9  1  0
  4 12  1  0
  5 17  1  0
  6  7  1  0
  7  8  1  0
  7 12  2  0
  8  9  2  0
  8 13  1  0
  9 14  1  0
 10 15  1  0
 11 16  1  0
 13 17  2  0
 14 18  2  0
 17 18  1  0
M  CHG  2   1  -1   5   1
M  END
>  <PUBCHEM_COMPOUND_CID>  (1) 
14374

>  <PUBCHEM_CONFORMER_RMSD>  (1) 
0.6

>  <PUBCHEM_CONFORMER_DIVERSEORDER>  (1) 
1
2
15
3
4
14
11
8
13
7
12
6
5
9
10

>  <PUBCHEM_MMFF94_PARTIAL_CHARGES>  (1) 
20
1 -0.52
10 0.27
11 0.27
12 -0.3
13 -0.15
14 -0.15
17 0.13
18 -0.15
2 -0.52
25 0.15
26 0.27
27 0.15
28 0.15
3 -0.81
35 0.15
4 0.03
5 0.91
6 0.45
7 -0.18
9 -0.15

>  <PUBCHEM_EFFECTIVE_ROTOR_COUNT>  (1) 
5

>  <PUBCHEM_PHARMACOPHORE_FEATURES>  (1) 
8
1 1 acceptor
1 1 anion
1 2 acceptor
1 3 cation
1 4 cation
1 4 donor
5 4 7 8 9 12 rings
6 8 9 13 14 17 18 rings

>  <PUBCHEM_HEAVY_ATOM_COUNT>  (1) 
18

>  <PUBCHEM_ATOM_DEF_STEREO_COUNT>  (1) 
0

>  <PUBCHEM_ATOM_UDEF_STEREO_COUNT>  (1) 
0

>  <PUBCHEM_BOND_DEF_STEREO_COUNT>  (1) 
0

>  <PUBCHEM_BOND_UDEF_STEREO_COUNT>  (1) 
0

>  <PUBCHEM_ISOTOPIC_ATOM_COUNT>  (1) 
0

>  <PUBCHEM_COMPONENT_COUNT>  (1) 
1

>  <PUBCHEM_CACTVS_TAUTO_COUNT>  (1) 
1

>  <PUBCHEM_CONFORMER_ID>  (1) 
0000382600000001

>  <PUBCHEM_MMFF94_ENERGY>  (1) 
37.4217

>  <PUBCHEM_FEATURE_SELFOVERLAP>  (1) 
40.768

>  <PUBCHEM_SHAPE_FINGERPRINT>  (1) 
10967382 1 18265903647094007064
11321824 6 17838040520878823199
12553582 1 18341612641754095766
13140716 1 18340493244459407528
14251705 54 18335427893074270859
15375462 189 18058455463924165481
15422964 175 18262806279904797953
16945 1 18195240242100370360
18522851 268 17241324801871390527
20291156 8 18342177769150239639
20645477 70 18190452964800350795
20871998 184 17911801275623979892
21160774 45 16247149970128583749
21634736 98 18410858733431396286
21731516 1 18201712976979639319
22112679 90 17201647890023100421
221490 88 18334586754052375274
22445834 79 18199758092840458433
2255824 54 17978794832785034389
2334 1 18411419505451477824
23388829 49 18342168999069971524
23419403 2 16388091585157705688
23526113 38 18115565150380470479
23598291 2 17843694506543966741
23728640 28 17473532556453416795
238 59 17687147157504210903
2748010 2 18411412882612043764
34934 24 18411982433925125793
6338986 31 18270095960076114972
81228 2 18049703153646001497

>  <PUBCHEM_SHAPE_MULTIPOLES>  (1) 
343.75
6.09
3.24
1.32
1.15
0.4
0.58
-4.25
-0.26
-1.94
-0.29
1.95
-0.69
-0.26

>  <PUBCHEM_SHAPE_SELFOVERLAP>  (1) 
728.03

>  <PUBCHEM_SHAPE_VOLUME>  (1) 
195.8

>  <PUBCHEM_COORDINATE_TYPE>  (1) 
2
5
10

$$$$
