1437
     RDKit          3D

 23 22  0  0  1  0  0  0  0  0999 V2000
   -5.9838    0.5312    0.2066 O   0  0  0  0  0  0  0  0  0  0  0  0
    4.2691    4.2312    0.2525 O   0  0  0  0  0  0  0  0  0  0  0  0
    2.7700    3.2887   -1.1763 O   0  0  0  0  0  0  0  0  0  0  0  0
    3.0332   -1.9194   -0.1151 C   0  0  0  0  0  0  0  0  0  0  0  0
    3.7600   -0.6779    0.4132 C   0  0  0  0  0  0  0  0  0  0  0  0
   -2.6235    2.2984   -0.2040 C   0  0  0  0  0  0  0  0  0  0  0  0
    3.6014   -3.2317    0.4325 C   0  0  0  0  0  0  0  0  0  0  0  0
   -4.0951    2.0600    0.1632 C   0  0  0  0  0  0  0  0  0  0  0  0
   -2.1474    3.6663    0.2941 C   0  0  0  0  0  0  0  0  0  0  0  0
    3.2920    0.6686   -0.1556 C   0  0  0  0  0  0  0  0  0  0  0  0
   -4.6324    0.6739   -0.2257 C   0  0  0  0  0  0  0  0  0  0  0  0
    2.8283   -4.4709   -0.0300 C   0  0  0  0  0  0  0  0  0  0  0  0
   -0.6944    3.9738   -0.0745 C   0  0  0  0  0  0  0  0  0  0  0  0
    4.0711    1.8888    0.3344 C   0  0  0  0  0  0  0  0  0  0  0  0
    1.3914   -4.4854    0.4053 C   0  0  0  0  0  0  0  0  0  0  0  0
   -3.8361   -0.4570    0.3611 C   0  0  0  0  0  0  0  0  0  0  0  0
   -0.1946    5.2999    0.4775 C   0  0  0  0  0  0  0  0  0  0  0  0
    0.3092   -4.5812   -0.3826 C   0  0  0  0  0  0  0  0  0  0  0  0
    3.6202    3.1777   -0.3059 C   0  0  0  0  0  0  0  0  0  0  0  0
   -1.1277   -4.5957    0.0524 C   0  0  0  0  0  0  0  0  0  0  0  0
   -3.2357   -1.4012   -0.3791 C   0  0  0  0  0  0  0  0  0  0  0  0
   -1.8866   -3.4421   -0.5399 C   0  0  0  0  0  0  0  0  0  0  0  0
   -2.4887   -2.4958    0.1961 C   0  0  0  0  0  0  0  0  0  0  0  0
  1 11  1  0
  2 19  1  0
  3 19  2  0
  4  5  1  0
  4  7  1  0
  5 10  1  0
  6  8  1  0
  6  9  1  0
  7 12  1  0
  8 11  1  0
  9 13  1  0
 10 14  1  0
 11 16  1  0
 12 15  1  0
 13 17  1  0
 14 19  1  0
 15 18  2  0
 16 21  2  0
 18 20  1  0
 20 22  1  0
 21 23  1  0
 22 23  2  0
M  END
>  <PUBCHEM_COMPOUND_CID>  (1) 
1437

>  <PUBCHEM_CONFORMER_RMSD>  (1) 
1.4

>  <PUBCHEM_CONFORMER_DIVERSEORDER>  (1) 
1
77
67
100
33
87
80
28
48
2
83
21
38
25
36
73
94
11
106
54
105
89
92
35
17
23
60
52
93
78
34
37
107
75
10
22
15
39
51
7
98
65
55
70
42
81
4
72
88
5
62
111
61
76
74
109
44
32
59
6
68
45
104
108
58
84
66
12
103
14
18
96
79
53
102
97
41
95
82
29
27
86
3
19
56
40
31
47
57
13
99
85
110
71
69
50
64
91
9
90
30
26
101
8
63
49
24
43
46
20
16

>  <PUBCHEM_MMFF94_PARTIAL_CHARGES>  (1) 
22
1 -0.68
11 0.42
12 0.14
14 0.06
15 -0.29
16 -0.29
18 -0.29
19 0.66
2 -0.65
20 0.28
21 -0.15
22 -0.29
23 -0.15
3 -0.57
45 0.15
46 0.15
50 0.15
51 0.4
54 0.15
55 0.15
56 0.15
57 0.5

>  <PUBCHEM_EFFECTIVE_ROTOR_COUNT>  (1) 
15

>  <PUBCHEM_PHARMACOPHORE_FEATURES>  (1) 
7
1 1 acceptor
1 1 donor
1 17 hydrophobe
1 2 acceptor
1 3 acceptor
3 2 3 19 anion
4 6 8 9 13 hydrophobe

>  <PUBCHEM_HEAVY_ATOM_COUNT>  (1) 
23

>  <PUBCHEM_ATOM_DEF_STEREO_COUNT>  (1) 
0

>  <PUBCHEM_ATOM_UDEF_STEREO_COUNT>  (1) 
1

>  <PUBCHEM_BOND_DEF_STEREO_COUNT>  (1) 
0

>  <PUBCHEM_BOND_UDEF_STEREO_COUNT>  (1) 
3

>  <PUBCHEM_ISOTOPIC_ATOM_COUNT>  (1) 
0

>  <PUBCHEM_COMPONENT_COUNT>  (1) 
1

>  <PUBCHEM_CACTVS_TAUTO_COUNT>  (1) 
1

>  <PUBCHEM_CONFORMER_ID>  (1) 
0000059D00000001

>  <PUBCHEM_MMFF94_ENERGY>  (1) 
8.4173

>  <PUBCHEM_FEATURE_SELFOVERLAP>  (1) 
35.578

>  <PUBCHEM_SHAPE_FINGERPRINT>  (1) 
11059048 146 18339089288533306486
14251764 38 17762620586356415003
14251764 75 18341060717219262755
144659 178 17472710126477692374
15320467 1 18338797818893131360
15322535 138 18194390311317193794
155225 5 17618223249025508088
3246872 21 17474105402032469730
325973 47 18266179435307248875
437795 96 16895670966227581248
6176135 31 18411411817402074281
6433294 58 18411981351704000536

>  <PUBCHEM_SHAPE_MULTIPOLES>  (1) 
455.72
10.77
10.15
0.74
0.58
9.11
-0.04
-4.75
1.16
-2.56
-0.52
0.02
0.16
0.21

>  <PUBCHEM_SHAPE_SELFOVERLAP>  (1) 
852.612

>  <PUBCHEM_SHAPE_VOLUME>  (1) 
282.7

>  <PUBCHEM_COORDINATE_TYPE>  (1) 
2
5
10

$$$$
