14387
     RDKit          3D

 20 21  0  0  0  0  0  0  0  0999 V2000
   -2.5327   -1.7311    1.1525 S   0  0  0  0  0  0  0  0  0  0  0  0
    5.1661    0.4045    0.7068 O   0  0  0  0  0  0  0  0  0  0  0  0
   -1.0407   -0.2008   -0.4309 N   0  0  0  0  0  0  0  0  0  0  0  0
   -3.6663    2.4228    0.0792 N   0  0  0  0  0  0  0  0  0  0  0  0
   -0.7846   -2.5472   -0.5682 N   0  0  0  0  0  0  0  0  0  0  0  0
   -1.6843    0.9467    0.1504 C   0  0  0  0  0  0  0  0  0  0  0  0
   -3.0248    1.2433   -0.5006 C   0  0  0  0  0  0  0  0  0  0  0  0
   -0.0283    0.0439   -1.4658 C   0  0  0  0  0  0  0  0  0  0  0  0
    1.3541    0.1400   -0.8878 C   0  0  0  0  0  0  0  0  0  0  0  0
   -1.3520   -1.5041   -0.0492 C   0  0  0  0  0  0  0  0  0  0  0  0
   -3.8803    2.2350    1.5137 C   0  0  0  0  0  0  0  0  0  0  0  0
   -4.9344    2.6983   -0.5950 C   0  0  0  0  0  0  0  0  0  0  0  0
    2.1290   -1.0070   -0.7656 C   0  0  0  0  0  0  0  0  0  0  0  0
    1.8444    1.3751   -0.4809 C   0  0  0  0  0  0  0  0  0  0  0  0
    3.4132   -0.9177   -0.2284 C   0  0  0  0  0  0  0  0  0  0  0  0
    3.1286    1.4645    0.0563 C   0  0  0  0  0  0  0  0  0  0  0  0
    3.9131    0.3180    0.1825 C   0  0  0  0  0  0  0  0  0  0  0  0
   -2.2916   -3.4217    0.9935 C   0  0  0  0  0  0  0  0  0  0  0  0
   -1.3286   -3.6636    0.0363 C   0  0  0  0  0  0  0  0  0  0  0  0
    5.6000    1.7011    1.1011 C   0  0  0  0  0  0  0  0  0  0  0  0
  1 10  1  0
  1 18  1  0
  2 17  1  0
  2 20  1  0
  3  6  1  0
  3  8  1  0
  3 10  1  0
  4  7  1  0
  4 11  1  0
  4 12  1  0
  5 10  2  0
  5 19  1  0
  6  7  1  0
  8  9  1  0
  9 13  2  0
  9 14  1  0
 13 15  1  0
 14 16  2  0
 15 17  2  0
 16 17  1  0
 18 19  2  0
M  END
>  <PUBCHEM_COMPOUND_CID>  (1) 
14387

>  <PUBCHEM_CONFORMER_RMSD>  (1) 
0.8

>  <PUBCHEM_CONFORMER_DIVERSEORDER>  (1) 
1
156
103
118
45
26
87
145
61
97
66
152
107
151
158
128
35
2
78
85
79
154
142
149
159
132
100
52
40
140
82
37
163
164
20
129
104
34
7
89
165
86
126
168
84
139
3
54
155
114
125
112
63
77
150
120
73
56
144
23
83
122
137
99
62
64
172
48
135
68
147
123
115
166
110
15
138
39
169
67
38
130
50
124
111
60
162
109
42
131
101
134
171
105
17
119
25
90
32
55
70
30
170
72
47
71
113
143
53
19
74
136
44
148
121
81
9
161
36
95
80
92
96
22
102
31
91
153
93
8
18
58
59
46
76
13
88
51
146
6
5
69
141
98
11
117
133
49
29
24
27
167
127
57
106
160
116
28
16
65
33
12
14
4
157
21
108
75
41
43
10
94

>  <PUBCHEM_MMFF94_PARTIAL_CHARGES>  (1) 
26
1 -0.08
10 0.46
11 0.27
12 0.27
13 -0.15
14 -0.15
15 -0.15
16 -0.15
17 0.08
18 -0.11
19 0.08
2 -0.36
20 0.28
3 -0.82
33 0.15
34 0.15
35 0.15
36 0.15
37 0.15
38 0.15
4 -0.81
5 -0.57
6 0.37
7 0.27
8 0.51
9 -0.14

>  <PUBCHEM_EFFECTIVE_ROTOR_COUNT>  (1) 
7

>  <PUBCHEM_PHARMACOPHORE_FEATURES>  (1) 
5
1 2 acceptor
1 4 cation
3 3 5 10 cation
5 1 5 10 18 19 rings
6 9 13 14 15 16 17 rings

>  <PUBCHEM_HEAVY_ATOM_COUNT>  (1) 
20

>  <PUBCHEM_ATOM_DEF_STEREO_COUNT>  (1) 
0

>  <PUBCHEM_ATOM_UDEF_STEREO_COUNT>  (1) 
0

>  <PUBCHEM_BOND_DEF_STEREO_COUNT>  (1) 
0

>  <PUBCHEM_BOND_UDEF_STEREO_COUNT>  (1) 
0

>  <PUBCHEM_ISOTOPIC_ATOM_COUNT>  (1) 
0

>  <PUBCHEM_COMPONENT_COUNT>  (1) 
1

>  <PUBCHEM_CACTVS_TAUTO_COUNT>  (1) 
1

>  <PUBCHEM_CONFORMER_ID>  (1) 
0000383300000001

>  <PUBCHEM_MMFF94_ENERGY>  (1) 
61.9661

>  <PUBCHEM_FEATURE_SELFOVERLAP>  (1) 
25.371

>  <PUBCHEM_SHAPE_FINGERPRINT>  (1) 
10764073 3 14060907996331565797
11036077 4 18188473731953129050
11357001 24 18263648535924210251
11370993 70 18337674105478083281
12107183 9 18190729861547451506
121448 382 18411133628892710325
12500047 106 18411134744909090752
12507560 40 18343869935294922910
12553582 1 17760385669700623895
12633257 1 17913511273934916947
12643181 29 18337397020718293406
12788726 201 17972052588944734027
12930653 34 18340768243031636902
13004483 165 17977668933194696539
13140716 1 18191307078691795627
13583140 156 17916862560239375272
13955234 65 17760093913426086569
14178000 22 18334854970686595685
14178342 30 18261673770207018246
15420108 30 15324789856328971728
15842332 3 17605290668583950844
20197701 30 18335417912202913583
20554085 129 18126258901815047361
20832881 197 17622177762500506926
21033648 29 18189607255127111996
21065199 12 18341051930021863602
212916 134 18268413677242088704
21401589 2 18272937107097494441
21524375 3 18271243794929707517
21650355 55 17978231882900327827
21731228 192 18336557010359699035
22182937 141 18413112766290432793
22224240 67 18339648850490988361
22950370 63 9078816520580117181
23402539 116 18340479084553547983
23503953 91 18186517718206062916
23558518 356 17970632015410389196
23559900 14 18269008518129374078
25147074 1 17605003691875531236
3380486 145 17619059977469334255
4340502 62 18192443983222436497
474 4 18198343953446866733
5104073 3 18263909077989891808
58807428 26 18262244292129682315
633830 44 17986392179170894453
6371380 46 18194403282509123310
7364860 26 17688314487060748447
81228 2 18116160054953994399
84936 182 17836649626265170281
90316 7 17977964688979766931
9709674 26 18342178886116290390
9862522 239 18040997289839566429
9981440 41 17846772997061817866

>  <PUBCHEM_SHAPE_MULTIPOLES>  (1) 
394.63
9.8
3.95
1.19
8.33
2.63
-0.15
-8.45
-3.3
-5.8
-0.75
-0.22
-0.15
1.1

>  <PUBCHEM_SHAPE_SELFOVERLAP>  (1) 
804.288

>  <PUBCHEM_SHAPE_VOLUME>  (1) 
233

>  <PUBCHEM_COORDINATE_TYPE>  (1) 
2
5
10

$$$$
