14380
     RDKit          3D

 19 21  0  0  0  0  0  0  0  0999 V2000
    0.2377    1.8794   -0.0390 S   0  0  0  0  0  0  0  0  0  0  0  0
    0.2407    2.6111    1.2082 O   0  0  0  0  0  0  0  0  0  0  0  0
    0.2508    2.5670   -1.3109 O   0  0  0  0  0  0  0  0  0  0  0  0
   -1.0679    0.7647   -0.0264 N   0  0  0  0  0  0  0  0  0  0  0  0
    4.8207   -1.9076    0.0540 N   0  0  0  0  0  0  0  0  0  0  0  0
   -2.4711   -0.8615   -1.3502 C   0  0  0  0  0  0  0  0  0  0  0  0
   -2.7666   -0.4876    1.3571 C   0  0  0  0  0  0  0  0  0  0  0  0
   -3.6489    0.0548   -0.9893 C   0  0  0  0  0  0  0  0  0  0  0  0
   -2.5515   -2.1702   -0.5570 C   0  0  0  0  0  0  0  0  0  0  0  0
   -3.8168    0.2596    0.5230 C   0  0  0  0  0  0  0  0  0  0  0  0
   -2.7085   -1.9626    0.9455 C   0  0  0  0  0  0  0  0  0  0  0  0
   -1.1047   -0.1780   -1.1762 C   0  0  0  0  0  0  0  0  0  0  0  0
   -1.3780    0.1704    1.3013 C   0  0  0  0  0  0  0  0  0  0  0  0
    1.5975    0.7553   -0.0116 C   0  0  0  0  0  0  0  0  0  0  0  0
    2.1275    0.3013   -1.2087 C   0  0  0  0  0  0  0  0  0  0  0  0
    2.1140    0.3446    1.2067 C   0  0  0  0  0  0  0  0  0  0  0  0
    3.2026   -0.5872   -1.1869 C   0  0  0  0  0  0  0  0  0  0  0  0
    3.1892   -0.5438    1.2287 C   0  0  0  0  0  0  0  0  0  0  0  0
    3.7333   -1.0097    0.0318 C   0  0  0  0  0  0  0  0  0  0  0  0
  1  2  2  0
  1  3  2  0
  1  4  1  0
  1 14  1  0
  4 12  1  0
  4 13  1  0
  5 19  1  0
  6  8  1  0
  6  9  1  0
  6 12  1  0
  7 10  1  0
  7 11  1  0
  7 13  1  0
  8 10  1  0
  9 11  1  0
 14 15  2  0
 14 16  1  0
 15 17  1  0
 16 18  2  0
 17 19  2  0
 18 19  1  0
M  END
>  <PUBCHEM_COMPOUND_CID>  (1) 
14380

>  <PUBCHEM_CONFORMER_RMSD>  (1) 
0.6

>  <PUBCHEM_CONFORMER_DIVERSEORDER>  (1) 
1
6
2
4
8
5
3
7

>  <PUBCHEM_MMFF94_PARTIAL_CHARGES>  (1) 
19
1 1.45
12 0.36
13 0.36
14 -0.01
15 -0.15
16 -0.15
17 -0.15
18 -0.15
19 0.1
2 -0.65
3 -0.65
34 0.15
35 0.15
36 0.15
37 0.15
38 0.4
39 0.4
4 -0.85
5 -0.9

>  <PUBCHEM_EFFECTIVE_ROTOR_COUNT>  (1) 
3.4

>  <PUBCHEM_PHARMACOPHORE_FEATURES>  (1) 
6
1 2 acceptor
1 3 acceptor
1 5 cation
1 5 donor
6 14 15 16 17 18 19 rings
9 4 6 7 8 9 10 11 12 13 rings

>  <PUBCHEM_HEAVY_ATOM_COUNT>  (1) 
19

>  <PUBCHEM_ATOM_DEF_STEREO_COUNT>  (1) 
0

>  <PUBCHEM_ATOM_UDEF_STEREO_COUNT>  (1) 
0

>  <PUBCHEM_BOND_DEF_STEREO_COUNT>  (1) 
0

>  <PUBCHEM_BOND_UDEF_STEREO_COUNT>  (1) 
0

>  <PUBCHEM_ISOTOPIC_ATOM_COUNT>  (1) 
0

>  <PUBCHEM_COMPONENT_COUNT>  (1) 
1

>  <PUBCHEM_CACTVS_TAUTO_COUNT>  (1) 
1

>  <PUBCHEM_CONFORMER_ID>  (1) 
0000382C00000001

>  <PUBCHEM_MMFF94_ENERGY>  (1) 
53.4322

>  <PUBCHEM_FEATURE_SELFOVERLAP>  (1) 
30.463

>  <PUBCHEM_SHAPE_FINGERPRINT>  (1) 
10366900 7 16200430295066836386
104564 63 18191019002265409280
10618630 7 18411982442809946174
11370993 70 15913323572322184158
11578080 2 18409718573938790508
11715629 250 12613029521907990670
12173636 292 14418120812781642215
12202030 40 17896594183987974083
12251169 10 16343980304195955812
12363563 72 18412823594764138430
12553582 1 18342751701630416470
12596599 1 18130235929376735378
12633257 1 16343708724671337058
12707595 3 18260830431523596112
12714826 92 18040711429068419405
12788726 201 17897153620521497468
128620 24 8142084260543400451
12892183 10 14979958047323850806
128993 33 13262659449019991495
13296908 3 18335983167904952435
13533116 47 18197216073860930443
13544653 18 18413383237951321072
13583140 156 13614229365595726046
13693222 15 15267065886575442379
14115302 16 17967532358976769845
14289901 80 15267342941830494838
16752209 62 18116420458552274861
16945 1 18272655649416521473
17349148 13 17418097659015013727
17834072 14 16774071886877319053
1813 80 18339375092905545548
18186145 218 11530755990435386624
18981168 100 10302998473125572723
19862831 5 17095526179952217130
200 152 17385729071648466018
20291156 8 18335424573296483978
20361792 2 18335701662948029252
20600515 1 18339654360026589700
20671657 53 17458345217545870564
21069387 34 17631720673484630557
21713013 43 16660651785956763123
21731228 192 12247678275161153812
21731516 1 18409451422545019316
21756936 100 14259348143076385954
21864079 5 8862672321204773382
23175994 123 18186523180881814725
23227448 37 9870306545629635754
23402539 116 18260551108995556690
23557571 272 18340477864835699912
23559900 14 18260542317244987504
25 1 12252179641510927688
27216 239 11599997765075137679
3082319 5 15502372322638208514
3323516 105 15357705201031182180
474 4 8142079879560928286
5161694 15 17895462704960825287
633830 44 11386635278736286266
6992083 37 17775567563232157895
74978 22 18263644125029337231
81228 2 18269561528816809064
9882013 296 12967125047026204591

>  <PUBCHEM_SHAPE_MULTIPOLES>  (1) 
373.16
7.39
2.2
1.56
3.18
0.65
0.01
-4.51
0.16
0.19
0
-0.25
0.06
-0.03

>  <PUBCHEM_SHAPE_SELFOVERLAP>  (1) 
779.514

>  <PUBCHEM_SHAPE_VOLUME>  (1) 
209.9

>  <PUBCHEM_COORDINATE_TYPE>  (1) 
2
5
10

$$$$
