14396
     RDKit          3D

 22 24  0  0  0  0  0  0  0  0999 V2000
   -0.6076   -5.3629    0.4387 Cl  0  0  0  0  0  0  0  0  0  0  0  0
    0.3548    2.5910   -1.1809 O   0  0  0  0  0  0  0  0  0  0  0  0
   -0.5508    0.5557   -0.5330 N   0  0  0  0  0  0  0  0  0  0  0  0
   -3.9005    2.0986    0.1464 N   0  0  0  0  0  0  0  0  0  0  0  0
    1.9572   -1.1350   -0.7132 N   0  0  0  0  0  0  0  0  0  0  0  0
   -1.8956    1.0840   -0.8184 C   0  0  0  0  0  0  0  0  0  0  0  0
   -0.4673   -0.8459   -0.2015 C   0  0  0  0  0  0  0  0  0  0  0  0
   -2.5844    1.5540    0.4543 C   0  0  0  0  0  0  0  0  0  0  0  0
    0.6831   -1.6290   -0.3942 C   0  0  0  0  0  0  0  0  0  0  0  0
    0.4999    1.4784   -0.6606 C   0  0  0  0  0  0  0  0  0  0  0  0
    1.8428    1.2396   -0.0989 C   0  0  0  0  0  0  0  0  0  0  0  0
    2.5411    0.0495   -0.2616 C   0  0  0  0  0  0  0  0  0  0  0  0
   -1.6420   -1.5145    0.2279 C   0  0  0  0  0  0  0  0  0  0  0  0
    0.6087   -3.0305   -0.1859 C   0  0  0  0  0  0  0  0  0  0  0  0
    2.4830    2.3532    0.4823 C   0  0  0  0  0  0  0  0  0  0  0  0
    3.8891    0.0008    0.1528 C   0  0  0  0  0  0  0  0  0  0  0  0
   -1.6901   -2.8936    0.4429 C   0  0  0  0  0  0  0  0  0  0  0  0
   -4.5541    2.5878    1.3620 C   0  0  0  0  0  0  0  0  0  0  0  0
   -4.7366    1.0901   -0.5077 C   0  0  0  0  0  0  0  0  0  0  0  0
   -0.5615   -3.6583    0.2248 C   0  0  0  0  0  0  0  0  0  0  0  0
    3.8108    2.2828    0.8988 C   0  0  0  0  0  0  0  0  0  0  0  0
    4.5201    1.1043    0.7251 C   0  0  0  0  0  0  0  0  0  0  0  0
  1 20  1  0
  2 10  2  0
  3  6  1  0
  3  7  1  0
  3 10  1  0
  4  8  1  0
  4 18  1  0
  4 19  1  0
  5  9  1  0
  5 12  1  0
  6  8  1  0
  7  9  2  0
  7 13  1  0
  9 14  1  0
 10 11  1  0
 11 12  2  0
 11 15  1  0
 12 16  1  0
 13 17  2  0
 14 20  2  0
 15 21  2  0
 16 22  2  0
 17 20  1  0
 21 22  1  0
M  END
>  <PUBCHEM_COMPOUND_CID>  (1) 
14396

>  <PUBCHEM_CONFORMER_RMSD>  (1) 
0.6

>  <PUBCHEM_CONFORMER_DIVERSEORDER>  (1) 
2
5
4
1
10
8
3
9
7
11
6

>  <PUBCHEM_MMFF94_PARTIAL_CHARGES>  (1) 
30
1 -0.18
10 0.54
11 0.09
12 0.1
13 -0.15
14 -0.15
15 -0.15
16 -0.15
17 -0.15
18 0.27
19 0.27
2 -0.57
20 0.18
21 -0.15
22 -0.15
27 0.4
28 0.15
29 0.15
3 -0.48
30 0.15
31 0.15
32 0.15
39 0.15
4 -0.81
40 0.15
5 -0.6
6 0.3
7 0.12
8 0.27
9 0.1

>  <PUBCHEM_EFFECTIVE_ROTOR_COUNT>  (1) 
3.4

>  <PUBCHEM_PHARMACOPHORE_FEATURES>  (1) 
7
1 2 acceptor
1 4 cation
1 5 cation
1 5 donor
6 11 12 15 16 21 22 rings
6 7 9 13 14 17 20 rings
7 3 5 7 9 10 11 12 rings

>  <PUBCHEM_HEAVY_ATOM_COUNT>  (1) 
22

>  <PUBCHEM_ATOM_DEF_STEREO_COUNT>  (1) 
0

>  <PUBCHEM_ATOM_UDEF_STEREO_COUNT>  (1) 
0

>  <PUBCHEM_BOND_DEF_STEREO_COUNT>  (1) 
0

>  <PUBCHEM_BOND_UDEF_STEREO_COUNT>  (1) 
0

>  <PUBCHEM_ISOTOPIC_ATOM_COUNT>  (1) 
0

>  <PUBCHEM_COMPONENT_COUNT>  (1) 
1

>  <PUBCHEM_CACTVS_TAUTO_COUNT>  (1) 
2

>  <PUBCHEM_CONFORMER_ID>  (1) 
0000383C00000002

>  <PUBCHEM_MMFF94_ENERGY>  (1) 
100.9258

>  <PUBCHEM_FEATURE_SELFOVERLAP>  (1) 
35.537

>  <PUBCHEM_SHAPE_FINGERPRINT>  (1) 
10064457 181 18411986879263684880
10411042 1 17329147382813302742
10493431 412 18411699885100972544
10967382 1 18193557766013551038
1100329 8 18266736875061002098
11370993 70 18412824685707080321
12553582 1 17328029179292234158
12633257 1 18337372882532169192
12788726 201 18053644048312453791
13140716 1 18337952277329947042
138480 1 17618220607319901747
13955234 65 18050573941707460051
14178342 30 18120642789683248496
14787075 74 18059567023273232553
14790565 3 18265911167872795804
14866123 147 18337665412375268322
16728300 4 17028784561742730882
16945 1 17976825607696609990
19591789 44 18121781625846638958
20028762 73 18199454507156350231
20739085 24 18117569426538878740
21041028 32 17615686675446930422
21524375 3 18273209781570313525
21731228 192 18411419509598583200
21796203 349 17258810039357792475
23419403 2 17199152999202215014
23558518 356 17972879447542956448
23559900 14 18413114953457389516
23845131 108 18336267852008554899
2748010 2 18336840727019564926
3091708 16 9265872005475324107
335352 9 18411979127485434764
3380486 145 16687076602478628470
4340502 62 18412831266140361457
474 4 18342454790589106505
58807428 26 18337664222468159160
633830 44 18130506327743611725
6442390 28 18410862057488228339
79837 15 18410295847860423027
81228 2 17971466561888989846
84936 182 18129097819036048241
90316 7 17619074266329642955
9777508 108 18340486784880997515

>  <PUBCHEM_SHAPE_MULTIPOLES>  (1) 
433.81
7.34
5.55
0.96
0.03
7.93
-0.06
-8.2
-2.12
-4.15
-1.19
-0.2
-0.46
0.15

>  <PUBCHEM_SHAPE_SELFOVERLAP>  (1) 
925.34

>  <PUBCHEM_SHAPE_VOLUME>  (1) 
241.2

>  <PUBCHEM_COORDINATE_TYPE>  (1) 
2
5
10

$$$$
