14395
     RDKit          3D

 22 24  0  0  1  0  0  0  0  0999 V2000
   -4.2511    3.2685   -1.3873 Cl  0  0  0  0  0  0  0  0  0  0  0  0
   -2.1431   -1.8184    1.7165 S   0  0  0  0  0  0  0  0  0  0  0  0
    4.3097    2.1890    0.0293 N   0  0  0  0  0  0  0  0  0  0  0  0
   -0.2256    0.1867   -0.4252 C   0  0  0  0  0  0  0  0  0  0  0  0
    0.6802    1.1100    0.4074 C   0  0  0  0  0  0  0  0  0  0  0  0
    0.3076   -1.2340   -0.5128 C   0  0  0  0  0  0  0  0  0  0  0  0
    2.0828    1.1607   -0.1828 C   0  0  0  0  0  0  0  0  0  0  0  0
   -1.7046    0.4004   -0.1029 C   0  0  0  0  0  0  0  0  0  0  0  0
    0.3055   -2.1274    0.5704 C   0  0  0  0  0  0  0  0  0  0  0  0
    2.9897    2.1117    0.5911 C   0  0  0  0  0  0  0  0  0  0  0  0
   -2.5316   -0.3526    0.7563 C   0  0  0  0  0  0  0  0  0  0  0  0
   -0.3461   -1.7743    1.8710 C   0  0  0  0  0  0  0  0  0  0  0  0
    0.8813   -1.6595   -1.7293 C   0  0  0  0  0  0  0  0  0  0  0  0
   -2.2821    1.5283   -0.7473 C   0  0  0  0  0  0  0  0  0  0  0  0
    0.8662   -3.4098    0.4173 C   0  0  0  0  0  0  0  0  0  0  0  0
   -3.8864    0.0320    0.9084 C   0  0  0  0  0  0  0  0  0  0  0  0
    1.4348   -2.9323   -1.8687 C   0  0  0  0  0  0  0  0  0  0  0  0
   -3.6158    1.8930   -0.5762 C   0  0  0  0  0  0  0  0  0  0  0  0
    1.4292   -3.8085   -0.7925 C   0  0  0  0  0  0  0  0  0  0  0  0
   -4.4225    1.1388    0.2538 C   0  0  0  0  0  0  0  0  0  0  0  0
    4.9974    0.8896    0.0934 C   0  0  0  0  0  0  0  0  0  0  0  0
    5.1243    3.2082    0.7101 C   0  0  0  0  0  0  0  0  0  0  0  0
  1 18  1  0
  2 11  1  0
  2 12  1  0
  3 10  1  0
  3 21  1  0
  3 22  1  0
  4  5  1  0
  4  6  1  0
  4  8  1  0
  5  7  1  0
  6  9  2  0
  6 13  1  0
  7 10  1  0
  8 11  2  0
  8 14  1  0
  9 12  1  0
  9 15  1  0
 11 16  1  0
 13 17  2  0
 14 18  2  0
 15 19  2  0
 16 20  2  0
 17 19  1  0
 18 20  1  0
M  END
>  <PUBCHEM_COMPOUND_CID>  (1) 
14395

>  <PUBCHEM_CONFORMER_RMSD>  (1) 
0.8

>  <PUBCHEM_CONFORMER_DIVERSEORDER>  (1) 
4
1
11
10
16
13
15
17
2
12
5
18
3
7
9
14
8
6

>  <PUBCHEM_MMFF94_PARTIAL_CHARGES>  (1) 
27
1 -0.18
10 0.27
11 0.1
12 0.37
13 -0.15
14 -0.15
15 -0.15
16 -0.15
17 -0.15
18 0.18
19 -0.15
2 -0.33
20 -0.15
21 0.27
22 0.27
3 -0.81
32 0.15
33 0.15
34 0.15
35 0.15
36 0.15
37 0.15
38 0.15
4 0.29
6 -0.14
8 -0.14
9 -0.14

>  <PUBCHEM_EFFECTIVE_ROTOR_COUNT>  (1) 
4.6

>  <PUBCHEM_PHARMACOPHORE_FEATURES>  (1) 
4
1 3 cation
6 6 9 13 15 17 19 rings
6 8 11 14 16 18 20 rings
7 2 4 6 8 9 11 12 rings

>  <PUBCHEM_HEAVY_ATOM_COUNT>  (1) 
22

>  <PUBCHEM_ATOM_DEF_STEREO_COUNT>  (1) 
0

>  <PUBCHEM_ATOM_UDEF_STEREO_COUNT>  (1) 
1

>  <PUBCHEM_BOND_DEF_STEREO_COUNT>  (1) 
0

>  <PUBCHEM_BOND_UDEF_STEREO_COUNT>  (1) 
0

>  <PUBCHEM_ISOTOPIC_ATOM_COUNT>  (1) 
0

>  <PUBCHEM_COMPONENT_COUNT>  (1) 
1

>  <PUBCHEM_CACTVS_TAUTO_COUNT>  (1) 
1

>  <PUBCHEM_CONFORMER_ID>  (1) 
0000383B00000004

>  <PUBCHEM_MMFF94_ENERGY>  (1) 
69.7445

>  <PUBCHEM_FEATURE_SELFOVERLAP>  (1) 
20.309

>  <PUBCHEM_SHAPE_FINGERPRINT>  (1) 
10764073 3 17606663748364933970
107951 10 18113904900908131386
11578080 2 18116441328014910797
12293681 160 17468496814699672490
12549972 3 17752787739905574553
12592029 89 18343303652241307418
12707595 3 17907020578140297191
12788726 201 17764847475470579242
13004483 165 17046259550777149946
13540713 4 18115877300456993569
13681431 1 17841996576779940846
15042514 8 17760372484150934282
15230672 131 18335425691111354046
15664445 248 17550668812054029927
16945 1 16449002158910187499
17980427 26 17827618293736522743
1813 80 16626602998873285838
18915476 22 18200323130031869447
20600515 1 17329968223707929395
21033648 29 18200302355381431424
21120745 212 17041773556104720620
21524375 3 18269555099134124545
22182313 1 18041575637440836313
23419403 2 17981647889307360270
23559900 14 18049440340302211083
23598288 3 17829615311790194324
23728640 28 18124309678136228962
2748010 2 17972350471039582443
3298306 158 18411704270826525766
3411729 13 18264764376727592809
376196 1 18336251375717714576
5265222 85 18192446366992544460
532947 4 18342462487465698846
59755656 215 18409450289106241445
6138700 20 18269278959514728278
633830 44 17488486146672475664
7364860 26 18268149755960155831
7399639 24 18338531810811221379
81228 2 17334194123566328618
9862522 239 18268152143972573962
9981440 41 18410005559331356633

>  <PUBCHEM_SHAPE_MULTIPOLES>  (1) 
453.49
8.44
4.77
1.55
2.54
1.37
0.11
-11.5
-0.51
3.5
0.82
-0.39
0.97
3.07

>  <PUBCHEM_SHAPE_SELFOVERLAP>  (1) 
936.767

>  <PUBCHEM_SHAPE_VOLUME>  (1) 
260.3

>  <PUBCHEM_COORDINATE_TYPE>  (1) 
2
5
10

$$$$
