14407
     RDKit          3D

 23 25  0  0  1  0  0  0  0  0999 V2000
    2.5123   -3.4513   -2.6349 Cl  0  0  0  0  0  0  0  0  0  0  0  0
   -4.5816    2.7435   -1.8879 Cl  0  0  0  0  0  0  0  0  0  0  0  0
   -2.1595   -1.6151    1.9966 S   0  0  0  0  0  0  0  0  0  0  0  0
    3.9565    2.7610   -0.0007 N   0  0  0  0  0  0  0  0  0  0  0  0
   -0.3340    0.2582   -0.3362 C   0  0  0  0  0  0  0  0  0  0  0  0
    0.4332    1.3770    0.3889 C   0  0  0  0  0  0  0  0  0  0  0  0
    0.3377   -1.0983   -0.1975 C   0  0  0  0  0  0  0  0  0  0  0  0
    1.8536    1.4891   -0.1480 C   0  0  0  0  0  0  0  0  0  0  0  0
   -1.8416    0.3612   -0.1054 C   0  0  0  0  0  0  0  0  0  0  0  0
    0.3646   -1.8271    1.0024 C   0  0  0  0  0  0  0  0  0  0  0  0
    2.6223    2.6272    0.5150 C   0  0  0  0  0  0  0  0  0  0  0  0
   -2.6363   -0.3457    0.8208 C   0  0  0  0  0  0  0  0  0  0  0  0
   -0.3858   -1.3650    2.2124 C   0  0  0  0  0  0  0  0  0  0  0  0
    1.0133   -1.6280   -1.3169 C   0  0  0  0  0  0  0  0  0  0  0  0
   -2.4904    1.3225   -0.9275 C   0  0  0  0  0  0  0  0  0  0  0  0
    1.0538   -3.0537    1.0575 C   0  0  0  0  0  0  0  0  0  0  0  0
   -4.0280   -0.0853    0.8635 C   0  0  0  0  0  0  0  0  0  0  0  0
    1.6937   -2.8439   -1.2498 C   0  0  0  0  0  0  0  0  0  0  0  0
   -3.8603    1.5682   -0.8624 C   0  0  0  0  0  0  0  0  0  0  0  0
    1.7158   -3.5572   -0.0596 C   0  0  0  0  0  0  0  0  0  0  0  0
   -4.6332    0.8581    0.0361 C   0  0  0  0  0  0  0  0  0  0  0  0
    4.7621    1.5610    0.2766 C   0  0  0  0  0  0  0  0  0  0  0  0
    4.6318    3.9436    0.5570 C   0  0  0  0  0  0  0  0  0  0  0  0
  1 18  1  0
  2 19  1  0
  3 12  1  0
  3 13  1  0
  4 11  1  0
  4 22  1  0
  4 23  1  0
  5  6  1  0
  5  7  1  0
  5  9  1  0
  6  8  1  0
  7 10  2  0
  7 14  1  0
  8 11  1  0
  9 12  2  0
  9 15  1  0
 10 13  1  0
 10 16  1  0
 12 17  1  0
 14 18  2  0
 15 19  2  0
 16 20  2  0
 17 21  2  0
 18 20  1  0
 19 21  1  0
M  END
>  <PUBCHEM_COMPOUND_CID>  (1) 
14407

>  <PUBCHEM_CONFORMER_RMSD>  (1) 
0.8

>  <PUBCHEM_CONFORMER_DIVERSEORDER>  (1) 
4
19
9
7
18
11
15
12
13
14
3
17
10
16
5
1
2
6
8

>  <PUBCHEM_MMFF94_PARTIAL_CHARGES>  (1) 
27
1 -0.18
10 -0.14
11 0.27
12 0.1
13 0.37
14 -0.15
15 -0.15
16 -0.15
17 -0.15
18 0.18
19 0.18
2 -0.18
20 -0.15
21 -0.15
22 0.27
23 0.27
3 -0.33
33 0.15
34 0.15
35 0.15
36 0.15
37 0.15
38 0.15
4 -0.81
5 0.29
7 -0.14
9 -0.14

>  <PUBCHEM_EFFECTIVE_ROTOR_COUNT>  (1) 
4.6

>  <PUBCHEM_PHARMACOPHORE_FEATURES>  (1) 
4
1 4 cation
6 7 10 14 16 18 20 rings
6 9 12 15 17 19 21 rings
7 3 5 7 9 10 12 13 rings

>  <PUBCHEM_HEAVY_ATOM_COUNT>  (1) 
23

>  <PUBCHEM_ATOM_DEF_STEREO_COUNT>  (1) 
0

>  <PUBCHEM_ATOM_UDEF_STEREO_COUNT>  (1) 
1

>  <PUBCHEM_BOND_DEF_STEREO_COUNT>  (1) 
0

>  <PUBCHEM_BOND_UDEF_STEREO_COUNT>  (1) 
0

>  <PUBCHEM_ISOTOPIC_ATOM_COUNT>  (1) 
0

>  <PUBCHEM_COMPONENT_COUNT>  (1) 
1

>  <PUBCHEM_CACTVS_TAUTO_COUNT>  (1) 
1

>  <PUBCHEM_CONFORMER_ID>  (1) 
0000384700000004

>  <PUBCHEM_MMFF94_ENERGY>  (1) 
70.44

>  <PUBCHEM_FEATURE_SELFOVERLAP>  (1) 
20.309

>  <PUBCHEM_SHAPE_FINGERPRINT>  (1) 
10764073 3 17460853143418355618
107951 10 18042410295604755394
11477941 20 17122864261573475270
11578080 2 18261965042247113905
12293681 160 17611766512788368114
12553582 1 17763194535710356555
12617007 42 17839160932181393277
12707595 3 18050289172285403527
133893 2 18057904471175559730
13540713 4 18187368680371584441
13681431 1 18056759819357086890
15230672 131 18260550070236041260
15664445 248 17838335177263561903
17980427 26 17825922876887119879
1813 80 16985202140661641199
18915476 22 18271821115500764059
20600515 1 17620172257670358523
21524375 3 18267302229910642409
22182313 1 17968388870720371777
23419403 2 18050607063809801394
23559900 14 18119803612765243795
23598288 3 17538287632821067644
23728640 28 17978787145236082400
238918 7 18408322215788035924
2748010 2 17898321478348970523
3027735 51 17342099548278785974
3298306 158 18410296926002592180
3411729 13 18335693901989935881
376196 1 18263064621903400305
46194498 28 18341608162788800711
5265222 85 18118980324255652476
532947 4 18341337717098130350
59755656 215 18335420201278096653
6138700 20 18339362960234759766
81228 2 17046545977428744297
9862522 239 18122348136101108450
9981440 41 18335974372086711593

>  <PUBCHEM_SHAPE_MULTIPOLES>  (1) 
475.94
8.38
5.08
1.94
3.11
0.57
0.41
9.33
1.71
-7.7
0.89
0.36
-1.6
3.93

>  <PUBCHEM_SHAPE_SELFOVERLAP>  (1) 
975.794

>  <PUBCHEM_SHAPE_VOLUME>  (1) 
276.1

>  <PUBCHEM_COORDINATE_TYPE>  (1) 
2
5
10

$$$$
