14405
     RDKit          3D

 23 25  0  0  0  0  0  0  0  0999 V2000
   -0.4819   -2.8189    0.1644 O   0  0  0  0  0  0  0  0  0  0  0  0
    0.5066   -0.7260    0.3762 N   0  0  0  0  0  0  0  0  0  0  0  0
   -1.4974    0.7982   -1.1665 N   0  0  0  0  0  0  0  0  0  0  0  0
    4.0799   -1.6801   -0.2263 N   0  0  0  0  0  0  0  0  0  0  0  0
    0.4923    0.7126    0.2997 C   0  0  0  0  0  0  0  0  0  0  0  0
    1.8082   -1.3630    0.6215 C   0  0  0  0  0  0  0  0  0  0  0  0
   -0.4300    1.4308   -0.4939 C   0  0  0  0  0  0  0  0  0  0  0  0
   -2.4146   -0.0111   -0.4768 C   0  0  0  0  0  0  0  0  0  0  0  0
    2.7887   -1.0638   -0.5029 C   0  0  0  0  0  0  0  0  0  0  0  0
   -1.9799   -1.0910    0.2957 C   0  0  0  0  0  0  0  0  0  0  0  0
   -0.5914   -1.5911    0.2459 C   0  0  0  0  0  0  0  0  0  0  0  0
    1.5156    1.4362    0.9576 C   0  0  0  0  0  0  0  0  0  0  0  0
   -0.2778    2.8371   -0.5930 C   0  0  0  0  0  0  0  0  0  0  0  0
    1.6343    2.8211    0.8499 C   0  0  0  0  0  0  0  0  0  0  0  0
   -1.9363    1.3656   -2.4443 C   0  0  0  0  0  0  0  0  0  0  0  0
    0.7373    3.5240    0.0683 C   0  0  0  0  0  0  0  0  0  0  0  0
   -3.7979    0.2683   -0.4906 C   0  0  0  0  0  0  0  0  0  0  0  0
   -2.8977   -1.8553    1.0404 C   0  0  0  0  0  0  0  0  0  0  0  0
   -4.7072   -0.4888    0.2510 C   0  0  0  0  0  0  0  0  0  0  0  0
   -4.2550   -1.5483    1.0238 C   0  0  0  0  0  0  0  0  0  0  0  0
    2.7243    3.5390    1.5705 C   0  0  0  0  0  0  0  0  0  0  0  0
    3.9399   -3.1308   -0.0846 C   0  0  0  0  0  0  0  0  0  0  0  0
    5.0401   -1.3648   -1.2859 C   0  0  0  0  0  0  0  0  0  0  0  0
  1 11  2  0
  2  5  1  0
  2  6  1  0
  2 11  1  0
  3  7  1  0
  3  8  1  0
  3 15  1  0
  4  9  1  0
  4 22  1  0
  4 23  1  0
  5  7  2  0
  5 12  1  0
  6  9  1  0
  7 13  1  0
  8 10  2  0
  8 17  1  0
 10 11  1  0
 10 18  1  0
 12 14  2  0
 13 16  2  0
 14 16  1  0
 14 21  1  0
 17 19  2  0
 18 20  2  0
 19 20  1  0
M  END
>  <PUBCHEM_COMPOUND_CID>  (1) 
14405

>  <PUBCHEM_CONFORMER_RMSD>  (1) 
0.6

>  <PUBCHEM_CONFORMER_DIVERSEORDER>  (1) 
4
2
7
5
3
8
1
9
6

>  <PUBCHEM_MMFF94_PARTIAL_CHARGES>  (1) 
30
1 -0.57
10 0.09
11 0.54
12 -0.15
13 -0.15
14 -0.14
15 0.37
16 -0.15
17 -0.15
18 -0.15
19 -0.15
2 -0.48
20 -0.15
21 0.14
22 0.27
23 0.27
28 0.15
29 0.15
3 -0.57
33 0.15
34 0.15
35 0.15
36 0.15
37 0.15
4 -0.81
5 0.12
6 0.3
7 0.1
8 0.1
9 0.27

>  <PUBCHEM_EFFECTIVE_ROTOR_COUNT>  (1) 
3.4

>  <PUBCHEM_PHARMACOPHORE_FEATURES>  (1) 
6
1 1 acceptor
1 3 cation
1 4 cation
6 5 7 12 13 14 16 rings
6 8 10 17 18 19 20 rings
7 2 3 5 7 8 10 11 rings

>  <PUBCHEM_HEAVY_ATOM_COUNT>  (1) 
23

>  <PUBCHEM_ATOM_DEF_STEREO_COUNT>  (1) 
0

>  <PUBCHEM_ATOM_UDEF_STEREO_COUNT>  (1) 
0

>  <PUBCHEM_BOND_DEF_STEREO_COUNT>  (1) 
0

>  <PUBCHEM_BOND_UDEF_STEREO_COUNT>  (1) 
0

>  <PUBCHEM_ISOTOPIC_ATOM_COUNT>  (1) 
0

>  <PUBCHEM_COMPONENT_COUNT>  (1) 
1

>  <PUBCHEM_CACTVS_TAUTO_COUNT>  (1) 
1

>  <PUBCHEM_CONFORMER_ID>  (1) 
0000384500000004

>  <PUBCHEM_MMFF94_ENERGY>  (1) 
113.2281

>  <PUBCHEM_FEATURE_SELFOVERLAP>  (1) 
30.465

>  <PUBCHEM_SHAPE_FINGERPRINT>  (1) 
1100329 8 16752397991205465523
11112241 14 16842461643633398936
11680986 33 18263647440781195107
12011746 2 18261108531368370287
12035758 1 18338792416161942298
12293681 160 17402585477908063788
12422481 6 18122876954466835696
12553582 1 18265322907370351419
12788726 201 17762892174038367928
12839892 36 17546720920891055611
13027679 85 18337671902017643685
13140716 1 18262784203936660705
13402501 40 18337107990540122312
14178342 30 17689435313930979395
14347329 18 16661752269032716605
14790565 3 17546732547478996768
14866123 147 17907302052900548201
15230672 131 17833833056292650036
16728300 4 12390947831278870956
16945 1 17903918104166115117
17804303 29 18334582339089907715
17980427 23 17345771689323691193
1813 80 17632308830490244868
18785283 64 18193836166263371144
19591789 44 18408323276460198499
20028762 73 16973929290397817366
20510252 161 18191872219278692574
20642791 105 17827346688568173650
20691752 17 17532362248594522043
21041028 32 18131074800945789385
21049683 271 18263943179344126934
21731228 192 17617370027627853497
22182313 1 18188471567179010693
22907989 373 18052281509077651406
23175994 123 18342181016282808351
23352939 185 18272380754292707528
23419403 2 18337098034136056540
23557571 272 18126012559749789630
23558518 356 16971102965725190967
23559900 14 18187928416887420589
23566358 27 18124879211979311039
2748010 2 18190157101303422989
352729 6 17327726310962070363
458136 41 18050294965769147697
59444896 2 17473605317647943272
70251023 43 17985515950181690989
7364860 26 18268713989934621521
81228 2 17623832544870141368
84936 31 17987801946018551708
9709674 26 18191022520482214227

>  <PUBCHEM_SHAPE_MULTIPOLES>  (1) 
452.52
7.74
4.27
1.38
0.37
2.38
-0.51
-5.98
-0.35
4.41
0.93
-0.16
0.68
2.5

>  <PUBCHEM_SHAPE_SELFOVERLAP>  (1) 
971.084

>  <PUBCHEM_SHAPE_VOLUME>  (1) 
250.8

>  <PUBCHEM_COORDINATE_TYPE>  (1) 
2
5
10

$$$$
