14409
     RDKit          3D

 23 25  0  0  0  0  0  0  0  0999 V2000
   -0.5730   -5.2660    0.0257 Cl  0  0  0  0  0  0  0  0  0  0  0  0
    0.6642    2.8089   -0.2573 O   0  0  0  0  0  0  0  0  0  0  0  0
   -0.2258    0.7190    0.2150 N   0  0  0  0  0  0  0  0  0  0  0  0
   -4.5387    1.3313    0.2122 N   0  0  0  0  0  0  0  0  0  0  0  0
    1.9833   -0.9909   -0.9584 N   0  0  0  0  0  0  0  0  0  0  0  0
   -1.5442    1.3453    0.4121 C   0  0  0  0  0  0  0  0  0  0  0  0
   -2.3264    1.3537   -0.9025 C   0  0  0  0  0  0  0  0  0  0  0  0
   -0.1885   -0.7229    0.2394 C   0  0  0  0  0  0  0  0  0  0  0  0
   -3.7039    2.0075   -0.7734 C   0  0  0  0  0  0  0  0  0  0  0  0
    0.7955   -1.4919   -0.4041 C   0  0  0  0  0  0  0  0  0  0  0  0
    0.8362    1.6079   -0.0168 C   0  0  0  0  0  0  0  0  0  0  0  0
    2.2510    1.2074    0.1022 C   0  0  0  0  0  0  0  0  0  0  0  0
    2.7706    0.0514   -0.4670 C   0  0  0  0  0  0  0  0  0  0  0  0
   -1.2682   -1.4214    0.8377 C   0  0  0  0  0  0  0  0  0  0  0  0
    0.6490   -2.9024   -0.4529 C   0  0  0  0  0  0  0  0  0  0  0  0
    3.1195    2.1515    0.6870 C   0  0  0  0  0  0  0  0  0  0  0  0
    4.1697   -0.1329   -0.4524 C   0  0  0  0  0  0  0  0  0  0  0  0
   -1.3857   -2.8122    0.7923 C   0  0  0  0  0  0  0  0  0  0  0  0
   -4.7639   -0.0631   -0.1727 C   0  0  0  0  0  0  0  0  0  0  0  0
   -5.8170    2.0270    0.3698 C   0  0  0  0  0  0  0  0  0  0  0  0
   -0.4273   -3.5571    0.1343 C   0  0  0  0  0  0  0  0  0  0  0  0
    4.4975    1.9464    0.7050 C   0  0  0  0  0  0  0  0  0  0  0  0
    5.0261    0.8036    0.1247 C   0  0  0  0  0  0  0  0  0  0  0  0
  1 21  1  0
  2 11  2  0
  3  6  1  0
  3  8  1  0
  3 11  1  0
  4  9  1  0
  4 19  1  0
  4 20  1  0
  5 10  1  0
  5 13  1  0
  6  7  1  0
  7  9  1  0
  8 10  2  0
  8 14  1  0
 10 15  1  0
 11 12  1  0
 12 13  2  0
 12 16  1  0
 13 17  1  0
 14 18  2  0
 15 21  2  0
 16 22  2  0
 17 23  2  0
 18 21  1  0
 22 23  1  0
M  END
>  <PUBCHEM_COMPOUND_CID>  (1) 
14409

>  <PUBCHEM_CONFORMER_RMSD>  (1) 
0.8

>  <PUBCHEM_CONFORMER_DIVERSEORDER>  (1) 
2
12
4
15
16
1
9
6
13
8
10
14
11
3
5
7

>  <PUBCHEM_MMFF94_PARTIAL_CHARGES>  (1) 
30
1 -0.18
10 0.1
11 0.54
12 0.09
13 0.1
14 -0.15
15 -0.15
16 -0.15
17 -0.15
18 -0.15
19 0.27
2 -0.57
20 0.27
21 0.18
22 -0.15
23 -0.15
3 -0.48
30 0.4
31 0.15
32 0.15
33 0.15
34 0.15
35 0.15
4 -0.81
42 0.15
43 0.15
5 -0.6
6 0.3
8 0.12
9 0.27

>  <PUBCHEM_EFFECTIVE_ROTOR_COUNT>  (1) 
4.4

>  <PUBCHEM_PHARMACOPHORE_FEATURES>  (1) 
7
1 2 acceptor
1 4 cation
1 5 cation
1 5 donor
6 12 13 16 17 22 23 rings
6 8 10 14 15 18 21 rings
7 3 5 8 10 11 12 13 rings

>  <PUBCHEM_HEAVY_ATOM_COUNT>  (1) 
23

>  <PUBCHEM_ATOM_DEF_STEREO_COUNT>  (1) 
0

>  <PUBCHEM_ATOM_UDEF_STEREO_COUNT>  (1) 
0

>  <PUBCHEM_BOND_DEF_STEREO_COUNT>  (1) 
0

>  <PUBCHEM_BOND_UDEF_STEREO_COUNT>  (1) 
0

>  <PUBCHEM_ISOTOPIC_ATOM_COUNT>  (1) 
0

>  <PUBCHEM_COMPONENT_COUNT>  (1) 
1

>  <PUBCHEM_CACTVS_TAUTO_COUNT>  (1) 
2

>  <PUBCHEM_CONFORMER_ID>  (1) 
0000384900000002

>  <PUBCHEM_MMFF94_ENERGY>  (1) 
99.8784

>  <PUBCHEM_FEATURE_SELFOVERLAP>  (1) 
35.536

>  <PUBCHEM_SHAPE_FINGERPRINT>  (1) 
10411042 1 17329428857742605570
108634 29 18341901847687815742
11370993 70 18411417315049792393
11578080 2 16698913832783093130
12035758 1 18409452526320284793
12553582 1 16969706586474782563
12730499 353 18337400323056903217
13034934 17 18262817228140445707
13140716 1 18338520720636152426
13402501 40 18408889546787297617
13540713 4 17986679384367246028
13583140 156 16515947251063863301
138480 1 17689997834519702063
13955234 65 18122065300110550947
14787075 74 18201712981517680237
14790565 3 18410298012302952325
14955137 171 17904470814728378602
15664445 248 17410222707439258375
15927050 60 18411133641477847678
16728300 4 17173183441098531946
19591789 44 18409729543258078639
20028762 73 18200584792050754718
20567600 347 18114182982660055659
21033648 29 18342169007417547600
21197605 99 18269560601768433351
22182313 1 18267889287542181646
23558518 356 17828480606826062752
23559900 14 18413673522412598412
2748010 2 18339944665788188310
3091708 16 9553539431647266819
335352 9 18411700963970765772
3383291 50 18267297635151016298
38695281 34 18271523109579851871
4340502 62 18411142411763473637
59755656 215 18265615386285967765
59755656 520 18408035217498966614
6138700 20 18267305327188919174
6442390 28 18409730664365699927
81228 2 17755569791775166321
9777508 108 18268143343494770875

>  <PUBCHEM_SHAPE_MULTIPOLES>  (1) 
454.39
9.13
4.99
0.86
3.87
7.89
-0.01
-9.52
0.45
2.21
0.26
0.01
-0.01
0.93

>  <PUBCHEM_SHAPE_SELFOVERLAP>  (1) 
963.369

>  <PUBCHEM_SHAPE_VOLUME>  (1) 
253.4

>  <PUBCHEM_COORDINATE_TYPE>  (1) 
2
5
10

$$$$
