14408
     RDKit          3D

 23 25  0  0  1  0  0  0  0  0999 V2000
    2.9612    4.8166    0.3909 Cl  0  0  0  0  0  0  0  0  0  0  0  0
   -1.1784   -2.0703   -1.1203 O   0  0  0  0  0  0  0  0  0  0  0  0
   -0.6333    0.0959   -0.4941 N   0  0  0  0  0  0  0  0  0  0  0  0
   -4.3282    0.3173    0.0682 N   0  0  0  0  0  0  0  0  0  0  0  0
    2.3771   -0.0878   -0.7831 N   0  0  0  0  0  0  0  0  0  0  0  0
   -2.9547   -0.1215    0.3223 C   0  0  0  0  0  0  0  0  0  0  0  0
   -2.0306    0.4962   -0.7323 C   0  0  0  0  0  0  0  0  0  0  0  0
    0.2970    1.1568   -0.1943 C   0  0  0  0  0  0  0  0  0  0  0  0
   -2.5642    0.2856    1.7430 C   0  0  0  0  0  0  0  0  0  0  0  0
   -0.3665   -1.2758   -0.6309 C   0  0  0  0  0  0  0  0  0  0  0  0
    1.6785    1.0789   -0.4371 C   0  0  0  0  0  0  0  0  0  0  0  0
    0.8649   -1.9040   -0.1161 C   0  0  0  0  0  0  0  0  0  0  0  0
    2.1363   -1.3841   -0.3255 C   0  0  0  0  0  0  0  0  0  0  0  0
   -5.2462   -0.3049    1.0207 C   0  0  0  0  0  0  0  0  0  0  0  0
   -4.7195   -0.0019   -1.3037 C   0  0  0  0  0  0  0  0  0  0  0  0
   -0.2127    2.4013    0.2559 C   0  0  0  0  0  0  0  0  0  0  0  0
    2.4788    2.2365   -0.2566 C   0  0  0  0  0  0  0  0  0  0  0  0
    0.7175   -3.1787    0.4683 C   0  0  0  0  0  0  0  0  0  0  0  0
    3.2505   -2.1668    0.0449 C   0  0  0  0  0  0  0  0  0  0  0  0
    0.5951    3.5250    0.4434 C   0  0  0  0  0  0  0  0  0  0  0  0
    1.9472    3.4459    0.1753 C   0  0  0  0  0  0  0  0  0  0  0  0
    1.8289   -3.9320    0.8411 C   0  0  0  0  0  0  0  0  0  0  0  0
    3.1014   -3.4281    0.6201 C   0  0  0  0  0  0  0  0  0  0  0  0
  1 21  1  0
  2 10  2  0
  3  7  1  0
  3  8  1  0
  3 10  1  0
  4  6  1  0
  4 14  1  0
  4 15  1  0
  5 11  1  0
  5 13  1  0
  6  7  1  0
  6  9  1  0
  8 11  2  0
  8 16  1  0
 10 12  1  0
 11 17  1  0
 12 13  2  0
 12 18  1  0
 13 19  1  0
 16 20  2  0
 17 21  2  0
 18 22  2  0
 19 23  2  0
 20 21  1  0
 22 23  1  0
M  END
>  <PUBCHEM_COMPOUND_CID>  (1) 
14408

>  <PUBCHEM_CONFORMER_RMSD>  (1) 
0.6

>  <PUBCHEM_CONFORMER_DIVERSEORDER>  (1) 
2
8
6
4
3
9
1
7
10
5

>  <PUBCHEM_MMFF94_PARTIAL_CHARGES>  (1) 
30
1 -0.18
10 0.54
11 0.1
12 0.09
13 0.1
14 0.27
15 0.27
16 -0.15
17 -0.15
18 -0.15
19 -0.15
2 -0.57
20 -0.15
21 0.18
22 -0.15
23 -0.15
3 -0.48
30 0.4
37 0.15
38 0.15
39 0.15
4 -0.81
40 0.15
41 0.15
42 0.15
43 0.15
5 -0.6
6 0.27
7 0.3
8 0.12

>  <PUBCHEM_EFFECTIVE_ROTOR_COUNT>  (1) 
3.4

>  <PUBCHEM_PHARMACOPHORE_FEATURES>  (1) 
7
1 2 acceptor
1 4 cation
1 5 cation
1 5 donor
6 12 13 18 19 22 23 rings
6 8 11 16 17 20 21 rings
7 3 5 8 10 11 12 13 rings

>  <PUBCHEM_HEAVY_ATOM_COUNT>  (1) 
23

>  <PUBCHEM_ATOM_DEF_STEREO_COUNT>  (1) 
0

>  <PUBCHEM_ATOM_UDEF_STEREO_COUNT>  (1) 
1

>  <PUBCHEM_BOND_DEF_STEREO_COUNT>  (1) 
0

>  <PUBCHEM_BOND_UDEF_STEREO_COUNT>  (1) 
0

>  <PUBCHEM_ISOTOPIC_ATOM_COUNT>  (1) 
0

>  <PUBCHEM_COMPONENT_COUNT>  (1) 
1

>  <PUBCHEM_CACTVS_TAUTO_COUNT>  (1) 
2

>  <PUBCHEM_CONFORMER_ID>  (1) 
0000384800000002

>  <PUBCHEM_MMFF94_ENERGY>  (1) 
107.2003

>  <PUBCHEM_FEATURE_SELFOVERLAP>  (1) 
35.536

>  <PUBCHEM_SHAPE_FINGERPRINT>  (1) 
10074138 170 17037799362582696144
10165383 225 18044111248013271700
10411042 1 18194964032780074918
10967382 1 18411136931173889238
1100329 8 18339079406251037754
11578080 2 17557108780612584313
12532896 13 17979641456579887252
12549972 3 17822865182595972433
12553582 1 18195259810134914219
12788726 201 17326046257099545601
13004483 165 17761196727425225171
13009979 54 17774728558772611411
13134695 92 18337105640791941935
13140716 1 18267021854825452064
13583140 156 18334859429132083623
138480 1 18338515240231255336
13955234 65 18409733984549344025
14787075 74 18041853809060773314
14790565 3 18337686307697345660
14955137 171 18340496568933263198
15042514 8 16607442312647717122
15230672 131 18046351010184191100
15927050 60 18124038085715970030
16087824 20 17474669447767982973
17980427 26 18341040930120249189
1813 80 18057892333429533511
18222031 100 18127966421639768311
19591789 44 18120663693009217262
21041028 32 18193838128604333422
21120745 212 17834692500125985924
2255824 54 18342178881667991247
23419403 2 17970044682879779756
23558518 356 17764593517842386749
23559900 14 18336259068552358675
23845131 108 18048035461174374339
3091708 16 9359552608054036040
352729 6 17042035239971883828
3886686 26 17477449442706723448
394222 165 18200604695223875875
4058900 60 18265349471612007289
474 4 18269551813648004777
57124632 79 18339913939328746545
58807428 26 18196358437352823104
6443956 14 18264490585505117613
7399639 24 18189334744511421733
7471813 234 18199450096493358293
79837 15 17689993861585140056
81228 2 17255409219131210724
90316 7 17908425749373064803
9981440 41 17834101318619337682
9999458 23 18337963388404820581

>  <PUBCHEM_SHAPE_MULTIPOLES>  (1) 
454.39
7
5.84
1.08
10.8
1.66
-0.13
0.59
-0.54
-9.21
-1.55
0.87
-0.15
-0.28

>  <PUBCHEM_SHAPE_SELFOVERLAP>  (1) 
968.861

>  <PUBCHEM_SHAPE_VOLUME>  (1) 
252.7

>  <PUBCHEM_COORDINATE_TYPE>  (1) 
2
5
10

$$$$
