14419
     RDKit          3D

 24 27  0  0  1  0  0  0  0  0999 V2000
   -4.2298    0.5240   -0.3107 O   0  0  0  0  0  0  0  0  0  0  0  0
    6.0048    1.2777    1.2231 O   0  0  0  0  0  0  0  0  0  0  0  0
   -4.7814    1.4386    1.7377 O   0  0  0  0  0  0  0  0  0  0  0  0
    0.3247   -1.3568   -0.2546 C   0  0  0  0  0  0  0  0  0  0  0  0
    0.7788    0.1257   -0.1975 C   0  0  0  0  0  0  0  0  0  0  0  0
   -1.1854   -1.5246    0.0266 C   0  0  0  0  0  0  0  0  0  0  0  0
   -2.0919   -0.6056   -0.8502 C   0  0  0  0  0  0  0  0  0  0  0  0
    2.3210    0.2901   -0.4836 C   0  0  0  0  0  0  0  0  0  0  0  0
    3.0952   -0.6280    0.5179 C   0  0  0  0  0  0  0  0  0  0  0  0
   -0.1261    1.0499   -1.0453 C   0  0  0  0  0  0  0  0  0  0  0  0
   -1.2778    0.3385   -1.7544 C   0  0  0  0  0  0  0  0  0  0  0  0
    1.1702   -2.2466    0.6708 C   0  0  0  0  0  0  0  0  0  0  0  0
   -2.9461    0.1817    0.1779 C   0  0  0  0  0  0  0  0  0  0  0  0
   -1.6162   -1.2704    1.4844 C   0  0  0  0  0  0  0  0  0  0  0  0
    2.6668   -2.0961    0.4164 C   0  0  0  0  0  0  0  0  0  0  0  0
   -3.0364   -0.7474    1.3778 C   0  0  0  0  0  0  0  0  0  0  0  0
    2.7651    1.7539   -0.1949 C   0  0  0  0  0  0  0  0  0  0  0  0
   -2.9807   -1.4788   -1.7641 C   0  0  0  0  0  0  0  0  0  0  0  0
    2.6489   -0.0617   -1.9577 C   0  0  0  0  0  0  0  0  0  0  0  0
    4.6163   -0.4931    0.4046 C   0  0  0  0  0  0  0  0  0  0  0  0
    4.2743    1.9696   -0.2787 C   0  0  0  0  0  0  0  0  0  0  0  0
    5.0279    0.9542    0.5477 C   0  0  0  0  0  0  0  0  0  0  0  0
   -5.0532    1.1525    0.5795 C   0  0  0  0  0  0  0  0  0  0  0  0
   -6.3689    1.4526   -0.0724 C   0  0  0  0  0  0  0  0  0  0  0  0
  1 13  1  0
  1 23  1  0
  2 22  2  0
  3 23  2  0
  4  5  1  0
  4  6  1  0
  4 12  1  0
  5  8  1  0
  5 10  1  0
  6  7  1  0
  6 14  1  0
  7 11  1  0
  7 13  1  0
  7 18  1  0
  8  9  1  0
  8 17  1  0
  8 19  1  0
  9 15  1  0
  9 20  1  0
 10 11  1  0
 12 15  1  0
 13 16  1  0
 14 16  1  0
 17 21  1  0
 20 22  1  0
 21 22  1  0
 23 24  1  0
M  END
>  <PUBCHEM_COMPOUND_CID>  (1) 
14419

>  <PUBCHEM_CONFORMER_RMSD>  (1) 
0.8

>  <PUBCHEM_CONFORMER_DIVERSEORDER>  (1) 
1
17
15
11
9
19
21
14
12
7
4
16
2
8
5
6
20
3
10
18
13

>  <PUBCHEM_MMFF94_PARTIAL_CHARGES>  (1) 
9
1 -0.43
13 0.28
2 -0.57
20 0.06
21 0.06
22 0.45
23 0.66
24 0.06
3 -0.57

>  <PUBCHEM_EFFECTIVE_ROTOR_COUNT>  (1) 
4

>  <PUBCHEM_PHARMACOPHORE_FEATURES>  (1) 
6
1 2 acceptor
1 3 acceptor
5 6 7 13 14 16 rings
6 4 5 6 7 10 11 rings
6 4 5 8 9 12 15 rings
6 8 9 17 20 21 22 rings

>  <PUBCHEM_HEAVY_ATOM_COUNT>  (1) 
24

>  <PUBCHEM_ATOM_DEF_STEREO_COUNT>  (1) 
3

>  <PUBCHEM_ATOM_UDEF_STEREO_COUNT>  (1) 
4

>  <PUBCHEM_BOND_DEF_STEREO_COUNT>  (1) 
0

>  <PUBCHEM_BOND_UDEF_STEREO_COUNT>  (1) 
0

>  <PUBCHEM_ISOTOPIC_ATOM_COUNT>  (1) 
0

>  <PUBCHEM_COMPONENT_COUNT>  (1) 
1

>  <PUBCHEM_CACTVS_TAUTO_COUNT>  (1) 
3

>  <PUBCHEM_CONFORMER_ID>  (1) 
0000385300000001

>  <PUBCHEM_MMFF94_ENERGY>  (1) 
80.5565

>  <PUBCHEM_FEATURE_SELFOVERLAP>  (1) 
30.671

>  <PUBCHEM_SHAPE_FINGERPRINT>  (1) 
10 15 17458063780986884780
10498660 4 16200154313300348570
11089746 13 17989481935556871984
11640471 11 18131359591811000915
11961588 58 16415191282638367865
12236239 1 18130781252995032775
12422481 6 17676203563527214420
12596602 18 18343022177501785563
12633257 1 16733271239010127211
12670546 177 11527950049356346144
12788726 201 17917437475302355544
12892183 10 18188504479987952169
13140716 1 17822859821722139716
13224815 77 17749952271047296622
13583140 156 18342182206484505043
13675066 3 17821449036760978565
14178342 30 17969231199058039179
14251764 30 12540960873326123336
14341114 176 16660360377316392728
14739800 52 17703213058236913984
14790565 3 17608672818012689868
15163728 17 16844185437194394113
15188451 53 15792310305611065409
15209294 21 18412545426738100933
15238133 3 18187094926870567436
15342168 16 18408326604864498854
15840311 113 18267873770748611181
16945 1 17749106720535111454
1813 80 14923951153829425511
18222031 100 9367348115482834140
19784866 170 18040439897204599942
19784866 240 8214142975683687875
20157964 124 18339079286007784201
20511986 3 18201140105641318409
20775438 99 9509453331705455081
20871999 31 12463581681041654098
21033648 29 18338789135192134432
21403212 168 17894904110510709633
21452121 103 18188206503076899203
21637258 2 12396304794132547697
22182313 1 17459178586702993775
23402539 116 18201994478201108676
23503953 91 17531253884622144573
23559900 14 17532103712716866490
25147074 1 18270662226129878471
2838139 119 17775284937363097825
296302 2 18342453772787066462
335352 9 18408041789205319158
3472631 163 17988641904346492397
34797466 226 16200154369103592852
34934 24 18131912663023045708
350125 39 18113623348579583908
351380 3 11169918290402551681
4340502 62 18114472184504412963
465052 167 10809636891386118601
474 4 18410293614018324027
5104073 3 17896593076345692616
57527293 21 16298392408577115734
57724786 102 17968101983869032524
58807428 26 17530681013347446482
633830 44 18411423951106457670
7495541 125 14562537279738208052
7970288 3 11746944204367406161
8272917 22 18341050722793402454

>  <PUBCHEM_SHAPE_MULTIPOLES>  (1) 
476.3
11.9
2.1
1.53
3.58
0.35
-0.33
-7.27
4.11
-0.65
0.29
0.75
0.05
-0.43

>  <PUBCHEM_SHAPE_SELFOVERLAP>  (1) 
1009.353

>  <PUBCHEM_SHAPE_VOLUME>  (1) 
262.8

>  <PUBCHEM_COORDINATE_TYPE>  (1) 
2
5
10

$$$$
