1441
     RDKit          3D

 25 25  0  0  1  0  0  0  0  0999 V2000
   -4.7527   -0.0094    2.5165 O   0  0  0  0  0  0  0  0  0  0  0  0
   -5.5796    0.0208   -1.5824 O   0  0  0  0  0  0  0  0  0  0  0  0
   -0.0648    2.9288   -0.6382 O   0  0  0  0  0  0  0  0  0  0  0  0
    4.9865   -3.5852    1.0839 O   0  0  0  0  0  0  0  0  0  0  0  0
    3.9884   -1.5699    1.3849 O   0  0  0  0  0  0  0  0  0  0  0  0
   -2.9839    0.0974    0.8484 C   0  0  0  0  0  0  0  0  0  0  0  0
   -3.7050   -0.7345   -0.2357 C   0  0  0  0  0  0  0  0  0  0  0  0
   -4.1277    0.8412    1.5575 C   0  0  0  0  0  0  0  0  0  0  0  0
   -5.1224    1.2209    0.4593 C   0  0  0  0  0  0  0  0  0  0  0  0
   -4.8851    0.1528   -0.5820 C   0  0  0  0  0  0  0  0  0  0  0  0
   -2.8753   -1.1271   -1.4455 C   0  0  0  0  0  0  0  0  0  0  0  0
   -1.9665    1.0711    0.3312 C   0  0  0  0  0  0  0  0  0  0  0  0
   -1.7139   -2.0550   -1.2052 C   0  0  0  0  0  0  0  0  0  0  0  0
   -0.6774    1.0499    0.6927 C   0  0  0  0  0  0  0  0  0  0  0  0
   -0.4255   -1.8315   -1.5057 C   0  0  0  0  0  0  0  0  0  0  0  0
    0.2832    2.0500    0.1474 C   0  0  0  0  0  0  0  0  0  0  0  0
    1.7190    1.9387    0.6203 C   0  0  0  0  0  0  0  0  0  0  0  0
    0.6765   -2.8099   -1.2205 C   0  0  0  0  0  0  0  0  0  0  0  0
    2.7116    2.4992   -0.3950 C   0  0  0  0  0  0  0  0  0  0  0  0
    1.7605   -2.2613   -0.2824 C   0  0  0  0  0  0  0  0  0  0  0  0
    4.1646    2.3734    0.0714 C   0  0  0  0  0  0  0  0  0  0  0  0
    5.1328    2.9153   -0.9807 C   0  0  0  0  0  0  0  0  0  0  0  0
    2.8987   -3.2476   -0.0034 C   0  0  0  0  0  0  0  0  0  0  0  0
    6.5791    2.7645   -0.5365 C   0  0  0  0  0  0  0  0  0  0  0  0
    3.9789   -2.6926    0.8993 C   0  0  0  0  0  0  0  0  0  0  0  0
  1  8  1  0
  2 10  2  0
  3 16  2  0
  4 25  1  0
  5 25  2  0
  6  7  1  0
  6  8  1  0
  6 12  1  0
  7 10  1  0
  7 11  1  0
  8  9  1  0
  9 10  1  0
 11 13  1  0
 12 14  2  0
 13 15  2  0
 14 16  1  0
 15 18  1  0
 16 17  1  0
 17 19  1  0
 18 20  1  0
 19 21  1  0
 20 23  1  0
 21 22  1  0
 22 24  1  0
 23 25  1  0
M  END
>  <PUBCHEM_COMPOUND_CID>  (1) 
1441

>  <PUBCHEM_CONFORMER_RMSD>  (1) 
1.6

>  <PUBCHEM_CONFORMER_DIVERSEORDER>  (1) 
1
25
62
36
49
17
65
6
69
73
67
55
27
59
24
7
22
44
66
26
29
32
5
53
77
18
79
70
58
11
16
61
19
47
51
75
35
15
13
72
33
42
78
41
30
23
39
52
64
31
63
9
56
68
20
37
43
14
38
60
21
45
46
12
76
2
50
40
48
4
74
10
71
3
54
28
34
57
8

>  <PUBCHEM_MMFF94_PARTIAL_CHARGES>  (1) 
26
1 -0.68
10 0.45
11 0.14
12 -0.29
13 -0.29
14 -0.14
15 -0.29
16 0.49
17 0.06
18 0.14
2 -0.57
23 0.06
25 0.66
3 -0.57
33 0.15
34 0.4
35 0.15
36 0.15
37 0.15
4 -0.65
5 -0.57
55 0.5
6 0.14
7 0.06
8 0.28
9 0.06

>  <PUBCHEM_EFFECTIVE_ROTOR_COUNT>  (1) 
12.8

>  <PUBCHEM_PHARMACOPHORE_FEATURES>  (1) 
11
1 1 acceptor
1 1 donor
1 2 acceptor
1 24 hydrophobe
1 3 acceptor
1 4 acceptor
1 5 acceptor
3 4 5 25 anion
4 15 18 20 23 hydrophobe
4 17 19 21 22 hydrophobe
5 6 7 8 9 10 rings

>  <PUBCHEM_HEAVY_ATOM_COUNT>  (1) 
25

>  <PUBCHEM_ATOM_DEF_STEREO_COUNT>  (1) 
0

>  <PUBCHEM_ATOM_UDEF_STEREO_COUNT>  (1) 
3

>  <PUBCHEM_BOND_DEF_STEREO_COUNT>  (1) 
0

>  <PUBCHEM_BOND_UDEF_STEREO_COUNT>  (1) 
2

>  <PUBCHEM_ISOTOPIC_ATOM_COUNT>  (1) 
0

>  <PUBCHEM_COMPONENT_COUNT>  (1) 
1

>  <PUBCHEM_CACTVS_TAUTO_COUNT>  (1) 
21

>  <PUBCHEM_CONFORMER_ID>  (1) 
000005A100000001

>  <PUBCHEM_MMFF94_ENERGY>  (1) 
23.3497

>  <PUBCHEM_FEATURE_SELFOVERLAP>  (1) 
55.881

>  <PUBCHEM_SHAPE_FINGERPRINT>  (1) 
11135926 11 18336264630508899404
12422481 6 18198617739941163248
14790565 3 18121222236590573684
14840074 17 18409729586482025788
15463212 79 17835802272072643805
16120349 306 18270960275490561168
167882 2 18410570682696212093
20642791 178 18129944473523269579
21360443 120 18262801895392048188
25147074 1 17989487421031559439
474144 1 18342457032740844074
5282940 2 18340201994437778822
57091435 65 18410017620026544446
7064713 232 17560512885554482331

>  <PUBCHEM_SHAPE_MULTIPOLES>  (1) 
485.14
13.26
4.74
1.58
4.49
2.47
-0.32
-5.88
-0.89
9.46
0.26
-1.29
0.51
-3.32

>  <PUBCHEM_SHAPE_SELFOVERLAP>  (1) 
954.782

>  <PUBCHEM_SHAPE_VOLUME>  (1) 
289.9

>  <PUBCHEM_COORDINATE_TYPE>  (1) 
2
5
10

$$$$
