14411
     RDKit          3D

 23 25  0  0  0  0  0  0  0  0999 V2000
   -2.9492   -4.3128    0.1588 S   0  0  0  0  0  0  0  0  0  0  0  0
    1.6798    2.4922   -0.0993 O   0  0  0  0  0  0  0  0  0  0  0  0
    0.0114    0.9665    0.4219 N   0  0  0  0  0  0  0  0  0  0  0  0
    1.1529   -1.4561   -0.9953 N   0  0  0  0  0  0  0  0  0  0  0  0
   -2.5960    3.5815   -0.1463 N   0  0  0  0  0  0  0  0  0  0  0  0
   -0.8823    2.0872    0.7601 C   0  0  0  0  0  0  0  0  0  0  0  0
   -0.5802   -0.3492    0.4169 C   0  0  0  0  0  0  0  0  0  0  0  0
   -1.6851    2.4906   -0.4700 C   0  0  0  0  0  0  0  0  0  0  0  0
   -0.0848   -1.4278   -0.3347 C   0  0  0  0  0  0  0  0  0  0  0  0
    1.3314    1.3226    0.1016 C   0  0  0  0  0  0  0  0  0  0  0  0
    2.4357    0.3449    0.0723 C   0  0  0  0  0  0  0  0  0  0  0  0
    2.3524   -0.8863   -0.5662 C   0  0  0  0  0  0  0  0  0  0  0  0
   -1.8032   -0.5478    1.1071 C   0  0  0  0  0  0  0  0  0  0  0  0
   -0.8335   -2.6316   -0.3937 C   0  0  0  0  0  0  0  0  0  0  0  0
    3.6730    0.7858    0.5846 C   0  0  0  0  0  0  0  0  0  0  0  0
   -2.0355   -2.7916    0.2858 C   0  0  0  0  0  0  0  0  0  0  0  0
   -2.5171   -1.7467    1.0489 C   0  0  0  0  0  0  0  0  0  0  0  0
    3.5281   -1.6564   -0.6939 C   0  0  0  0  0  0  0  0  0  0  0  0
   -3.3982    3.9479   -1.3150 C   0  0  0  0  0  0  0  0  0  0  0  0
   -1.8544    4.7445    0.3447 C   0  0  0  0  0  0  0  0  0  0  0  0
    4.8210    0.0058    0.4619 C   0  0  0  0  0  0  0  0  0  0  0  0
    4.7505   -1.2167   -0.1882 C   0  0  0  0  0  0  0  0  0  0  0  0
   -4.5166   -3.7465   -0.5622 C   0  0  0  0  0  0  0  0  0  0  0  0
  1 16  1  0
  1 23  1  0
  2 10  2  0
  3  6  1  0
  3  7  1  0
  3 10  1  0
  4  9  1  0
  4 12  1  0
  5  8  1  0
  5 19  1  0
  5 20  1  0
  6  8  1  0
  7  9  2  0
  7 13  1  0
  9 14  1  0
 10 11  1  0
 11 12  2  0
 11 15  1  0
 12 18  1  0
 13 17  2  0
 14 16  2  0
 15 21  2  0
 16 17  1  0
 18 22  2  0
 21 22  1  0
M  END
>  <PUBCHEM_COMPOUND_CID>  (1) 
14411

>  <PUBCHEM_CONFORMER_RMSD>  (1) 
0.8

>  <PUBCHEM_CONFORMER_DIVERSEORDER>  (1) 
2
4
9
6
10
11
1
7
8
3
5

>  <PUBCHEM_MMFF94_PARTIAL_CHARGES>  (1) 
31
1 -0.33
10 0.54
11 0.09
12 0.1
13 -0.15
14 -0.15
15 -0.15
16 0.1
17 -0.15
18 -0.15
19 0.27
2 -0.57
20 0.27
21 -0.15
22 -0.15
23 0.23
28 0.4
29 0.15
3 -0.48
30 0.15
31 0.15
32 0.15
33 0.15
4 -0.6
40 0.15
41 0.15
5 -0.81
6 0.3
7 0.12
8 0.27
9 0.1

>  <PUBCHEM_EFFECTIVE_ROTOR_COUNT>  (1) 
4.4

>  <PUBCHEM_PHARMACOPHORE_FEATURES>  (1) 
8
1 2 acceptor
1 23 hydrophobe
1 4 cation
1 4 donor
1 5 cation
6 11 12 15 18 21 22 rings
6 7 9 13 14 16 17 rings
7 3 4 7 9 10 11 12 rings

>  <PUBCHEM_HEAVY_ATOM_COUNT>  (1) 
23

>  <PUBCHEM_ATOM_DEF_STEREO_COUNT>  (1) 
0

>  <PUBCHEM_ATOM_UDEF_STEREO_COUNT>  (1) 
0

>  <PUBCHEM_BOND_DEF_STEREO_COUNT>  (1) 
0

>  <PUBCHEM_BOND_UDEF_STEREO_COUNT>  (1) 
0

>  <PUBCHEM_ISOTOPIC_ATOM_COUNT>  (1) 
0

>  <PUBCHEM_COMPONENT_COUNT>  (1) 
1

>  <PUBCHEM_CACTVS_TAUTO_COUNT>  (1) 
2

>  <PUBCHEM_CONFORMER_ID>  (1) 
0000384B00000002

>  <PUBCHEM_MMFF94_ENERGY>  (1) 
105.7364

>  <PUBCHEM_FEATURE_SELFOVERLAP>  (1) 
40.61

>  <PUBCHEM_SHAPE_FINGERPRINT>  (1) 
10411042 1 18194966463984856354
10688039 33 18263925608395879727
10693767 8 17049064976027722695
11045515 52 18267861873209101503
116883 192 18410574028190879469
12293681 4 18338501024311570775
12553582 1 18121799471346375314
12643181 29 18050293562454760166
12730499 353 17688038513753339617
12788726 201 18261104209866308314
13052359 8 18337668599002916736
13134695 92 17904477759721638023
13140716 1 18269283519772808714
13540713 4 18130786747007153998
138480 1 16248849110482536449
15420108 30 14460086577706846224
15664445 248 17619653691962150524
15927050 60 18050286968804260750
16728300 4 16018588350787240786
17539 30 18410288125319203431
18785283 64 17183906311936386627
20028762 73 17405691593871704831
20567600 347 17682966492304643337
20739085 24 17907889509726708259
21478907 32 18410854408072554307
22182313 1 18053404109811124646
2255824 54 17114388593805142547
22907989 373 18336559282028569412
23366157 5 17255962797798957571
23419403 2 17417231260462386211
23558518 356 18260551147439480248
23559900 14 17618219950290502827
266924 78 16677278863238288107
2748010 2 17980786860202207222
3091708 16 9058695427373305761
3380486 145 18265349472070476033
3886686 26 17906139912487547802
4409770 3 18408317766275334747
58779409 8 18265904553142339070
59554788 248 17489872648541998022
6443956 14 17976819006194992103
7164475 11 18336551615828040876
84936 182 17332803851485771448
90316 7 18339090404924149179
9981440 41 17977101254176061537

>  <PUBCHEM_SHAPE_MULTIPOLES>  (1) 
456.37
7.72
6.39
0.97
4.39
7.45
-0.02
-6.95
-0.36
-9.46
-1.2
-0.34
0.16
1.02

>  <PUBCHEM_SHAPE_SELFOVERLAP>  (1) 
961.207

>  <PUBCHEM_SHAPE_VOLUME>  (1) 
259.7

>  <PUBCHEM_COORDINATE_TYPE>  (1) 
2
5
10

$$$$
