14416
     RDKit          3D

 24 25  0  0  0  0  0  0  0  0999 V2000
    1.0770   -0.0528    0.4167 O   0  0  0  0  0  0  0  0  0  0  0  0
   -1.0749   -0.3414    1.9721 O   0  0  0  0  0  0  0  0  0  0  0  0
    0.0663   -1.8270   -0.6411 O   0  0  0  0  0  0  0  0  0  0  0  0
    4.7779   -0.0381   -0.0621 N   0  0  0  0  0  0  0  0  0  0  0  0
    3.4274    0.4323    0.4586 C   0  0  0  0  0  0  0  0  0  0  0  0
    5.0686   -1.4341    0.4700 C   0  0  0  0  0  0  0  0  0  0  0  0
    4.7519   -0.0704   -1.5834 C   0  0  0  0  0  0  0  0  0  0  0  0
    5.8636    0.9197    0.4067 C   0  0  0  0  0  0  0  0  0  0  0  0
    2.3453   -0.5071   -0.0363 C   0  0  0  0  0  0  0  0  0  0  0  0
    6.4120   -1.8960   -0.0509 C   0  0  0  0  0  0  0  0  0  0  0  0
   -1.3076   -0.1937    0.5565 C   0  0  0  0  0  0  0  0  0  0  0  0
   -0.0054   -0.8121    0.0416 C   0  0  0  0  0  0  0  0  0  0  0  0
   -1.4344    1.2911    0.2082 C   0  0  0  0  0  0  0  0  0  0  0  0
   -2.5665   -0.9603    0.1441 C   0  0  0  0  0  0  0  0  0  0  0  0
   -1.9743    2.1432    1.1439 C   0  0  0  0  0  0  0  0  0  0  0  0
   -2.9307   -0.9629   -1.1826 C   0  0  0  0  0  0  0  0  0  0  0  0
   -1.0030    1.7172   -1.0268 C   0  0  0  0  0  0  0  0  0  0  0  0
   -3.2850   -1.6178    1.1158 C   0  0  0  0  0  0  0  0  0  0  0  0
   -2.0897    3.4966    0.8267 C   0  0  0  0  0  0  0  0  0  0  0  0
   -4.0778   -1.6618   -1.5587 C   0  0  0  0  0  0  0  0  0  0  0  0
   -1.1184    3.0707   -1.3440 C   0  0  0  0  0  0  0  0  0  0  0  0
   -4.4321   -2.3168    0.7397 C   0  0  0  0  0  0  0  0  0  0  0  0
   -1.6618    3.9604   -0.4171 C   0  0  0  0  0  0  0  0  0  0  0  0
   -4.8284   -2.3387   -0.5976 C   0  0  0  0  0  0  0  0  0  0  0  0
  1  9  1  0
  1 12  1  0
  2 11  1  0
  3 12  2  0
  4  5  1  0
  4  6  1  0
  4  7  1  0
  4  8  1  0
  5  9  1  0
  6 10  1  0
 11 12  1  0
 11 13  1  0
 11 14  1  0
 13 15  2  0
 13 17  1  0
 14 16  2  0
 14 18  1  0
 15 19  1  0
 16 20  1  0
 17 21  2  0
 18 22  2  0
 19 23  2  0
 20 24  2  0
 21 23  1  0
 22 24  1  0
M  CHG  1   4   1
M  END
>  <PUBCHEM_COMPOUND_CID>  (1) 
14416

>  <PUBCHEM_CONFORMER_RMSD>  (1) 
0.8

>  <PUBCHEM_CONFORMER_DIVERSEORDER>  (1) 
1
63
183
207
75
105
136
138
97
128
112
210
187
227
91
95
219
46
160
188
134
253
52
217
26
23
263
137
103
168
27
176
156
172
222
116
182
143
161
199
261
120
29
211
266
55
59
242
84
141
258
225
155
230
248
107
246
200
267
89
250
229
76
17
101
40
68
5
34
257
175
254
32
152
25
228
177
142
106
31
244
99
237
9
118
131
4
54
205
260
94
122
144
216
53
181
208
153
265
165
90
213
224
69
218
47
179
146
104
114
111
39
127
19
236
22
64
193
92
154
126
129
81
18
167
170
13
185
110
30
62
164
83
189
264
221
243
65
60
247
157
108
192
163
14
80
270
35
240
140
195
241
203
215
197
37
235
33
123
252
98
191
214
72
73
15
113
45
139
66
190
43
24
262
145
79
102
87
245
77
41
162
147
173
212
20
149
86
223
117
124
135
158
38
88
232
184
201
115
249
166
194
12
36
100
186
151
180
67
204
70
209
174
171
11
58
93
85
8
82
74
150
256
71
50
206
268
44
130
7
226
56
49
21
239
238
231
202
6
259
10
51
78
121
132
61
251
233
220
169
48
16
28
42
96
133
125
269
3
198
148
234
109
159
57
178
2
119
255
196

>  <PUBCHEM_MMFF94_PARTIAL_CHARGES>  (1) 
34
1 -0.43
11 0.63
12 0.66
13 -0.14
14 -0.14
15 -0.15
16 -0.15
17 -0.15
18 -0.15
19 -0.15
2 -0.68
20 -0.15
21 -0.15
22 -0.15
23 -0.15
24 -0.15
3 -0.57
4 -1.01
40 0.15
41 0.15
42 0.15
43 0.15
44 0.4
45 0.15
46 0.15
47 0.15
48 0.15
49 0.15
5 0.5
50 0.15
6 0.5
7 0.5
8 0.5
9 0.28

>  <PUBCHEM_EFFECTIVE_ROTOR_COUNT>  (1) 
8

>  <PUBCHEM_PHARMACOPHORE_FEATURES>  (1) 
6
1 2 acceptor
1 2 donor
1 3 acceptor
1 4 cation
6 13 15 17 19 21 23 rings
6 14 16 18 20 22 24 rings

>  <PUBCHEM_HEAVY_ATOM_COUNT>  (1) 
24

>  <PUBCHEM_ATOM_DEF_STEREO_COUNT>  (1) 
0

>  <PUBCHEM_ATOM_UDEF_STEREO_COUNT>  (1) 
0

>  <PUBCHEM_BOND_DEF_STEREO_COUNT>  (1) 
0

>  <PUBCHEM_BOND_UDEF_STEREO_COUNT>  (1) 
0

>  <PUBCHEM_ISOTOPIC_ATOM_COUNT>  (1) 
0

>  <PUBCHEM_COMPONENT_COUNT>  (1) 
1

>  <PUBCHEM_CACTVS_TAUTO_COUNT>  (1) 
1

>  <PUBCHEM_CONFORMER_ID>  (1) 
0000385000000001

>  <PUBCHEM_MMFF94_ENERGY>  (1) 
82.9121

>  <PUBCHEM_FEATURE_SELFOVERLAP>  (1) 
30.446

>  <PUBCHEM_SHAPE_FINGERPRINT>  (1) 
10670039 82 18263380174178850940
11045515 52 18261386810509507125
11101153 10 18336553823837448204
11265709 11 18337397144680838321
11545043 162 18129935681915340050
11578080 2 17487084191921352333
12107183 9 17613430048701999858
12166972 35 17531532091123676798
12403259 226 18343014515132650648
12403260 363 18408319978510598342
12788726 201 18261380140177552307
13004483 165 18340761641313221727
13073987 5 18412540991055002522
13134695 92 18124874822976291469
13583140 156 17632000946028896350
13911987 19 18042980954307522758
14118638 360 18408321087013119746
14347332 77 18411132507505747918
14508225 48 18336819875032542053
14713325 29 18341331072187552816
14840074 17 18058738042538822550
14910302 57 17916884417011628974
14955137 171 18196096766633915787
15131766 46 15433746368757291901
15849732 13 18059581321730849399
16087824 20 18338797794532628325
16992727 255 18041827404250522581
17349148 13 17676494942899080206
17357779 13 18341036519352132021
17844677 252 18412267221133368202
1813 80 18128550425559245807
18222031 100 18268700787590639139
18927931 339 18411707564544734998
200 152 18334853956562890043
20600515 1 18198079155669897871
21202864 24 18270129989719641161
21236236 1 18411981330128670832
21424621 283 11386628699200428031
23175994 123 18261953080725900999
23402539 116 18409167727255138339
23557571 272 18411418401649904455
23558518 356 18043256747037238818
23559900 14 17677328450027367026
283562 15 18408317783128422971
312423 11 18260840297691216164
44062 13 18268997471294243958
497634 4 17560531667794354448
508706 21 18266191547659005574
5104073 3 18340481172139424922
5924683 9 18409446951800672692
59755656 520 18048311154771884565
6786 2 17552371977446499393
70251023 43 18410852208969885482
7399639 24 18129648829407349064
81228 2 18337393730345387897

>  <PUBCHEM_SHAPE_MULTIPOLES>  (1) 
471.32
12.06
3.86
1.37
21.99
4.17
-0.12
-9.08
-0.82
-4.74
-0.28
-0.77
0.07
-0.32

>  <PUBCHEM_SHAPE_SELFOVERLAP>  (1) 
987.642

>  <PUBCHEM_SHAPE_VOLUME>  (1) 
267.4

>  <PUBCHEM_COORDINATE_TYPE>  (1) 
2
5
10

$$$$
