1443
     RDKit          3D

 23 22  0  0  0  0  0  0  0  0999 V2000
    3.5789    2.2268    1.2622 O   0  0  0  0  0  0  0  0  0  0  0  0
    0.1695   -0.9499   -0.6429 O   0  0  0  0  0  0  0  0  0  0  0  0
   -0.2705   -3.1030   -1.2325 O   0  0  0  0  0  0  0  0  0  0  0  0
    4.0499   -1.0118   -0.2151 C   0  0  0  0  0  0  0  0  0  0  0  0
    5.0044    0.1760   -0.3841 C   0  0  0  0  0  0  0  0  0  0  0  0
    4.7457   -2.2879    0.2593 C   0  0  0  0  0  0  0  0  0  0  0  0
    4.3495    1.4652   -0.8758 C   0  0  0  0  0  0  0  0  0  0  0  0
    3.7595   -3.4367    0.4039 C   0  0  0  0  0  0  0  0  0  0  0  0
    3.3019    1.9786    0.0908 C   0  0  0  0  0  0  0  0  0  0  0  0
   -1.9787   -3.3626    1.1073 C   0  0  0  0  0  0  0  0  0  0  0  0
   -3.1699   -3.2050    0.1531 C   0  0  0  0  0  0  0  0  0  0  0  0
   -0.9034   -2.2818    0.9733 C   0  0  0  0  0  0  0  0  0  0  0  0
   -3.9376   -1.9320    0.3690 C   0  0  0  0  0  0  0  0  0  0  0  0
    1.9332    2.1902   -0.4601 C   0  0  0  0  0  0  0  0  0  0  0  0
   -4.0793   -0.9825   -0.5681 C   0  0  0  0  0  0  0  0  0  0  0  0
   -4.8416    0.2938   -0.3591 C   0  0  0  0  0  0  0  0  0  0  0  0
    0.9499    2.6424    0.3295 C   0  0  0  0  0  0  0  0  0  0  0  0
   -3.9710    1.4921   -0.5992 C   0  0  0  0  0  0  0  0  0  0  0  0
   -0.3266   -2.1935   -0.4184 C   0  0  0  0  0  0  0  0  0  0  0  0
   -2.8259    3.6123    0.0822 C   0  0  0  0  0  0  0  0  0  0  0  0
   -3.7223    2.4336    0.3238 C   0  0  0  0  0  0  0  0  0  0  0  0
   -0.3883    2.8922   -0.1601 C   0  0  0  0  0  0  0  0  0  0  0  0
   -1.4273    3.3435    0.5610 C   0  0  0  0  0  0  0  0  0  0  0  0
  1  9  2  0
  2 19  1  0
  3 19  2  0
  4  5  1  0
  4  6  1  0
  5  7  1  0
  6  8  1  0
  7  9  1  0
  9 14  1  0
 10 11  1  0
 10 12  1  0
 11 13  1  0
 12 19  1  0
 13 15  2  0
 14 17  2  0
 15 16  1  0
 16 18  1  0
 17 22  1  0
 18 21  2  0
 20 21  1  0
 20 23  1  0
 22 23  2  0
M  END
>  <PUBCHEM_COMPOUND_CID>  (1) 
1443

>  <PUBCHEM_CONFORMER_RMSD>  (1) 
1.2

>  <PUBCHEM_CONFORMER_DIVERSEORDER>  (1) 
1
31
16
74
170
177
140
22
92
72
84
159
57
101
90
128
93
71
73
28
20
179
139
45
117
14
97
134
59
180
136
174
156
161
157
77
15
104
8
85
83
81
35
36
152
46
107
124
11
149
105
34
119
37
10
13
21
173
131
129
54
66
137
160
155
111
138
43
12
65
26
78
142
80
29
162
19
40
148
110
153
62
76
51
24
158
94
61
112
25
47
3
60
87
70
49
125
144
109
41
98
9
89
147
86
99
82
115
113
132
96
106
143
68
48
164
135
123
165
122
88
133
130
63
178
116
114
100
150
154
42
67
79
64
18
32
69
108
163
30
102
2
167
169
33
118
53
56
52
103
145
58
171
141
168
50
166
175
121
5
6
95
39
7
176
126
75
172
4
120
38
17
91
44
55
151
27
127
146
23

>  <PUBCHEM_MMFF94_PARTIAL_CHARGES>  (1) 
27
1 -0.57
11 0.14
12 0.06
13 -0.29
14 -0.14
15 -0.29
16 0.28
17 -0.15
18 -0.29
19 0.66
2 -0.65
20 0.28
21 -0.29
22 -0.15
23 -0.29
3 -0.57
41 0.15
42 0.15
43 0.15
46 0.15
47 0.15
50 0.15
51 0.15
52 0.15
53 0.5
7 0.06
9 0.49

>  <PUBCHEM_EFFECTIVE_ROTOR_COUNT>  (1) 
14

>  <PUBCHEM_PHARMACOPHORE_FEATURES>  (1) 
7
1 1 acceptor
1 2 acceptor
1 3 acceptor
1 8 hydrophobe
3 2 3 19 anion
4 10 11 12 13 hydrophobe
4 4 5 6 7 hydrophobe

>  <PUBCHEM_HEAVY_ATOM_COUNT>  (1) 
23

>  <PUBCHEM_ATOM_DEF_STEREO_COUNT>  (1) 
0

>  <PUBCHEM_ATOM_UDEF_STEREO_COUNT>  (1) 
0

>  <PUBCHEM_BOND_DEF_STEREO_COUNT>  (1) 
0

>  <PUBCHEM_BOND_UDEF_STEREO_COUNT>  (1) 
4

>  <PUBCHEM_ISOTOPIC_ATOM_COUNT>  (1) 
0

>  <PUBCHEM_COMPONENT_COUNT>  (1) 
1

>  <PUBCHEM_CACTVS_TAUTO_COUNT>  (1) 
2

>  <PUBCHEM_CONFORMER_ID>  (1) 
000005A300000001

>  <PUBCHEM_MMFF94_ENERGY>  (1) 
11.23

>  <PUBCHEM_FEATURE_SELFOVERLAP>  (1) 
35.579

>  <PUBCHEM_SHAPE_FINGERPRINT>  (1) 
10864689 126 17042613011751961774
1100329 8 18122063100448738136
13402501 40 18340490083869723645
14251757 5 18119259595022479588
14251764 38 18339646637580322398
15256400 18 18410574002384197893
19591789 44 18338514115013426204
19930381 70 16537073572791816379
3014063 31 18410575119481740210
325973 47 18267305335304314342
338550 245 18335423405276590572
3493558 16 18267308638054952846
437795 70 17766857030597274246
6437827 68 18410856525654669044

>  <PUBCHEM_SHAPE_MULTIPOLES>  (1) 
455.72
11.08
6.21
0.96
5.46
0.68
-0.04
1.2
0.79
-1.82
-1.06
0.06
0.2
0

>  <PUBCHEM_SHAPE_SELFOVERLAP>  (1) 
867.032

>  <PUBCHEM_SHAPE_VOLUME>  (1) 
277.7

>  <PUBCHEM_COORDINATE_TYPE>  (1) 
2
5
10

$$$$
