14446
     RDKit          3D

 37 39  0  0  1  0  0  0  0  0999 V2000
    2.7609    0.3296    0.7566 O   0  0  0  0  0  0  0  0  0  0  0  0
   -2.8147   -0.0067    0.6435 O   0  0  0  0  0  0  0  0  0  0  0  0
   -1.3722    0.0076    3.1260 O   0  0  0  0  0  0  0  0  0  0  0  0
   -1.2501   -0.9192   -1.5834 O   0  0  0  0  0  0  0  0  0  0  0  0
    2.0199    2.7951    1.3280 O   0  0  0  0  0  0  0  0  0  0  0  0
    0.8462    2.6440   -0.6201 O   0  0  0  0  0  0  0  0  0  0  0  0
    3.1427    1.0574   -1.4026 O   0  0  0  0  0  0  0  0  0  0  0  0
   -3.2881   -2.1314   -0.1303 O   0  0  0  0  0  0  0  0  0  0  0  0
    9.3665   -2.0436    1.4342 O   0  0  0  0  0  0  0  0  0  0  0  0
   -9.4240    2.1882   -0.4305 O   0  0  0  0  0  0  0  0  0  0  0  0
   11.3019   -0.9205   -0.2133 O   0  0  0  0  0  0  0  0  0  0  0  0
  -11.4170    0.2528   -0.4960 O   0  0  0  0  0  0  0  0  0  0  0  0
    1.3757    0.6422    0.6332 C   0  0  0  0  0  0  0  0  0  0  0  0
    0.6904    0.3271    1.9610 C   0  0  0  0  0  0  0  0  0  0  0  0
    0.7678   -0.1566   -0.5185 C   0  0  0  0  0  0  0  0  0  0  0  0
   -1.4265   -0.3370    0.7372 C   0  0  0  0  0  0  0  0  0  0  0  0
   -0.8285    0.4707    1.8902 C   0  0  0  0  0  0  0  0  0  0  0  0
   -0.7518   -0.0155   -0.5973 C   0  0  0  0  0  0  0  0  0  0  0  0
    1.3665    2.1180    0.3524 C   0  0  0  0  0  0  0  0  0  0  0  0
    3.5252    0.5900   -0.3417 C   0  0  0  0  0  0  0  0  0  0  0  0
   -3.6248   -1.0037    0.1943 C   0  0  0  0  0  0  0  0  0  0  0  0
    4.9190    0.2028   -0.0263 C   0  0  0  0  0  0  0  0  0  0  0  0
   -5.0087   -0.4782    0.1641 C   0  0  0  0  0  0  0  0  0  0  0  0
    5.8745    0.3610   -0.9533 C   0  0  0  0  0  0  0  0  0  0  0  0
   -6.0078   -1.2720   -0.2471 C   0  0  0  0  0  0  0  0  0  0  0  0
    7.2953    0.0237   -0.7565 C   0  0  0  0  0  0  0  0  0  0  0  0
   -7.4238   -0.8692   -0.3116 C   0  0  0  0  0  0  0  0  0  0  0  0
    7.6686   -0.8604    0.2557 C   0  0  0  0  0  0  0  0  0  0  0  0
    8.2670    0.5886   -1.5825 C   0  0  0  0  0  0  0  0  0  0  0  0
   -7.7635    0.4833   -0.3416 C   0  0  0  0  0  0  0  0  0  0  0  0
   -8.4243   -1.8405   -0.3430 C   0  0  0  0  0  0  0  0  0  0  0  0
    9.0136   -1.1801    0.4418 C   0  0  0  0  0  0  0  0  0  0  0  0
    9.6121    0.2692   -1.3962 C   0  0  0  0  0  0  0  0  0  0  0  0
   -9.1040    0.8645   -0.4032 C   0  0  0  0  0  0  0  0  0  0  0  0
   -9.7647   -1.4593   -0.4043 C   0  0  0  0  0  0  0  0  0  0  0  0
    9.9854   -0.6152   -0.3842 C   0  0  0  0  0  0  0  0  0  0  0  0
  -10.1046   -0.1068   -0.4345 C   0  0  0  0  0  0  0  0  0  0  0  0
  1 13  1  0
  1 20  1  0
  2 16  1  0
  2 21  1  0
  3 17  1  0
  4 18  1  0
  5 19  1  0
  6 19  2  0
  7 20  2  0
  8 21  2  0
  9 32  1  0
 10 34  1  0
 11 36  1  0
 12 37  1  0
 13 14  1  0
 13 15  1  0
 13 19  1  0
 14 17  1  0
 15 18  1  0
 16 17  1  0
 16 18  1  0
 20 22  1  0
 21 23  1  0
 22 24  2  0
 23 25  2  0
 24 26  1  0
 25 27  1  0
 26 28  2  0
 26 29  1  0
 27 30  2  0
 27 31  1  0
 28 32  1  0
 29 33  2  0
 30 34  1  0
 31 35  2  0
 32 36  2  0
 33 36  1  0
 34 37  2  0
 35 37  1  0
M  END
>  <PUBCHEM_COMPOUND_CID>  (1) 
14446

>  <PUBCHEM_CONFORMER_RMSD>  (1) 
1

>  <PUBCHEM_CONFORMER_DIVERSEORDER>  (1) 
1
70
262
282
359
275
204
351
323
185
110
71
144
163
352
114
111
188
336
23
287
60
97
324
75
107
226
304
196
294
84
315
103
233
234
142
327
263
296
172
165
112
329
150
77
187
290
213
215
309
42
124
268
276
63
121
140
203
272
80
174
122
189
164
108
69
162
325
50
293
157
22
361
313
235
280
201
109
258
305
154
170
155
337
246
99
223
173
299
132
247
334
160
64
300
175
180
338
166
56
342
292
88
227
231
29
58
278
169
92
297
319
137
191
330
21
161
198
326
232
335
244
333
200
52
178
284
254
267
53
31
322
41
303
55
59
40
310
318
261
212
241
291
130
126
151
341
339
194
28
129
346
49
347
96
197
248
15
104
281
256
128
208
91
181
216
311
195
328
316
350
45
249
134
273
218
94
302
35
343
79
102
159
46
211
250
176
143
86
51
113
283
279
125
349
16
266
65
301
36
171
43
229
207
357
90
119
240
186
312
277
289
120
73
115
38
222
206
7
135
353
106
217
210
255
100
85
220
147
224
257
145
199
271
354
228
190
37
27
317
205
264
237
152
286
83
2
269
265
259
225
348
18
202
72
13
95
54
214
138
167
39
236
360
314
12
288
10
295
68
25
306
182
260
358
62
133
239
251
252
67
136
340
253
14
57
101
153
6
331
19
356
345
30
93
9
321
285
48
308
156
219
307
332
344
34
24
168
183
47
139
118
242
146
3
362
20
184
243
148
98
131
116
158
192
245
238
127
33
82
87
4
74
320
8
221
179
81
209
141
123
230
44
355
177
117
11
105
5
270
32
193
17
78
89
298
149
61
274
26
66
76

>  <PUBCHEM_MMFF94_PARTIAL_CHARGES>  (1) 
52
1 -0.43
10 -0.53
11 -0.53
12 -0.53
13 0.34
16 0.28
17 0.28
18 0.28
19 0.66
2 -0.43
20 0.71
21 0.71
22 -0.14
23 -0.14
24 -0.18
25 -0.18
26 0.03
27 0.03
28 -0.15
29 -0.15
3 -0.68
30 -0.15
31 -0.15
32 0.08
33 -0.15
34 0.08
35 -0.15
36 0.08
37 0.08
4 -0.68
45 0.4
46 0.4
47 0.5
48 0.15
49 0.15
5 -0.65
50 0.15
51 0.15
52 0.15
53 0.15
54 0.15
55 0.15
56 0.15
57 0.15
58 0.45
59 0.45
6 -0.57
60 0.45
61 0.45
7 -0.57
8 -0.57
9 -0.53

>  <PUBCHEM_EFFECTIVE_ROTOR_COUNT>  (1) 
10.2

>  <PUBCHEM_PHARMACOPHORE_FEATURES>  (1) 
16
1 10 donor
1 11 donor
1 12 donor
1 3 acceptor
1 3 donor
1 4 acceptor
1 4 donor
1 5 acceptor
1 6 acceptor
1 7 acceptor
1 8 acceptor
1 9 donor
3 5 6 19 anion
6 13 14 15 16 17 18 rings
6 26 28 29 32 33 36 rings
6 27 30 31 34 35 37 rings

>  <PUBCHEM_HEAVY_ATOM_COUNT>  (1) 
37

>  <PUBCHEM_ATOM_DEF_STEREO_COUNT>  (1) 
0

>  <PUBCHEM_ATOM_UDEF_STEREO_COUNT>  (1) 
2

>  <PUBCHEM_BOND_DEF_STEREO_COUNT>  (1) 
0

>  <PUBCHEM_BOND_UDEF_STEREO_COUNT>  (1) 
2

>  <PUBCHEM_ISOTOPIC_ATOM_COUNT>  (1) 
0

>  <PUBCHEM_COMPONENT_COUNT>  (1) 
1

>  <PUBCHEM_CACTVS_TAUTO_COUNT>  (1) 
51

>  <PUBCHEM_CONFORMER_ID>  (1) 
0000386E00000001

>  <PUBCHEM_MMFF94_ENERGY>  (1) 
107.3163

>  <PUBCHEM_FEATURE_SELFOVERLAP>  (1) 
81.273

>  <PUBCHEM_SHAPE_FINGERPRINT>  (1) 
10 15 10303816475664702540
10076449 9 18408886234856030636
10165383 225 15357695301200084929
106641 1 12031790262195203762
10674148 151 18040996267015065665
11061554 47 16370718258173119708
11828042 206 18410008870799270412
12013929 94 8574424336657527173
12098696 120 14056999442542265286
12522641 33 17458343035165181250
12539745 222 17846502495589827961
12559415 135 18343303647730413472
12741549 16 17418093221723727073
12758862 56 18060133284177005970
12838862 33 16917063347846396334
13383668 1 16271655481867615612
13740195 50 9007053560881612990
13811026 1 16343986909676367953
14040221 8 18408611352902370556
14251764 46 18060701693001822015
15061470 23 18186237337934173844
15065858 18 17846494842231938162
15247644 1 17632300081500400222
15274700 256 18334855009410438492
15289351 153 17704070686286968513
15326923 82 13758354475488764305
15347591 1 18122626329986620415
15392192 104 11024112036601079932
15706992 2 11458425730630871506
15728490 51 8718825380334070849
15840311 113 18261674878393555364
16664035 7 14979961367360153603
16728433 110 15051729798403334955
16992610 120 17312822693552767659
20105231 36 14418132920135980073
20505436 4 13262671582160776712
21792934 111 17275099549041255488
21792961 116 18060422435436368819
22224240 67 11815901158329225212
232437 2 18333449850191627783
249057 3 18341051912641449919
3092352 35 17967253122786329115
3991529 128 12251905888658841446
42767 2 18259985985055597262
474113 269 18411702050634856322
5028188 123 17095526240456721643
58083652 198 18342187708533290576
59682541 35 14764349345167122462
6081469 158 17775567546231961552
9663363 56 16845572011002569794

>  <PUBCHEM_SHAPE_MULTIPOLES>  (1) 
691.01
42.77
1.81
1.5
7.35
0.66
-0.84
-12.93
13.01
0.93
-0.14
-1.49
0.21
-0.99

>  <PUBCHEM_SHAPE_SELFOVERLAP>  (1) 
1491.755

>  <PUBCHEM_SHAPE_VOLUME>  (1) 
374.5

>  <PUBCHEM_COORDINATE_TYPE>  (1) 
2
5
10

$$$$
