14459
     RDKit          3D

 11 10  0  0  0  0  0  0  0  0999 V2000
   -1.6320   -0.8841    0.8132 S   0  0  0  0  0  0  0  0  0  0  0  0
    0.0604   -0.5359   -0.3830 P   0  0  0  0  0  0  0  0  0  0  0  0
    1.3972   -0.9253    0.4570 O   0  0  0  0  0  0  0  0  0  0  0  0
    0.2555    1.0552   -0.6534 O   0  0  0  0  0  0  0  0  0  0  0  0
   -0.0464   -1.3087   -1.6723 O   0  0  0  0  0  0  0  0  0  0  0  0
   -3.0337   -0.3201   -0.1720 C   0  0  0  0  0  0  0  0  0  0  0  0
    2.6647   -0.7188   -0.1431 C   0  0  0  0  0  0  0  0  0  0  0  0
    0.3759    1.9512    0.4379 C   0  0  0  0  0  0  0  0  0  0  0  0
   -4.3323   -0.5185    0.5864 C   0  0  0  0  0  0  0  0  0  0  0  0
    3.7449   -1.1527    0.8247 C   0  0  0  0  0  0  0  0  0  0  0  0
    0.5460    3.3577   -0.0954 C   0  0  0  0  0  0  0  0  0  0  0  0
  1  2  1  0
  1  6  1  0
  2  3  1  0
  2  4  1  0
  2  5  2  0
  3  7  1  0
  4  8  1  0
  6  9  1  0
  7 10  1  0
  8 11  1  0
M  END
>  <PUBCHEM_COMPOUND_CID>  (1) 
14459

>  <PUBCHEM_CONFORMER_RMSD>  (1) 
0.6

>  <PUBCHEM_CONFORMER_DIVERSEORDER>  (1) 
1
93
91
30
59
38
96
73
57
63
10
15
28
99
64
48
51
47
60
95
68
97
13
94
46
50
84
39
88
44
8
66
36
45
89
75
23
9
34
78
32
20
41
81
72
35
53
26
12
90
62
87
22
69
83
2
86
33
85
18
25
98
71
4
80
56
5
31
19
42
65
11
55
29
52
40
100
37
27
14
77
79
92
58
16
82
43
67
7
76
61
54
17
70
21
49
6
3
74
24

>  <PUBCHEM_MMFF94_PARTIAL_CHARGES>  (1) 
8
1 -0.48
2 1.49
3 -0.55
4 -0.55
5 -0.7
6 0.23
7 0.28
8 0.28

>  <PUBCHEM_EFFECTIVE_ROTOR_COUNT>  (1) 
6

>  <PUBCHEM_PHARMACOPHORE_FEATURES>  (1) 
2
1 5 acceptor
1 9 hydrophobe

>  <PUBCHEM_HEAVY_ATOM_COUNT>  (1) 
11

>  <PUBCHEM_ATOM_DEF_STEREO_COUNT>  (1) 
0

>  <PUBCHEM_ATOM_UDEF_STEREO_COUNT>  (1) 
0

>  <PUBCHEM_BOND_DEF_STEREO_COUNT>  (1) 
0

>  <PUBCHEM_BOND_UDEF_STEREO_COUNT>  (1) 
0

>  <PUBCHEM_ISOTOPIC_ATOM_COUNT>  (1) 
0

>  <PUBCHEM_COMPONENT_COUNT>  (1) 
1

>  <PUBCHEM_CACTVS_TAUTO_COUNT>  (1) 
1

>  <PUBCHEM_CONFORMER_ID>  (1) 
0000387B00000001

>  <PUBCHEM_MMFF94_ENERGY>  (1) 
-0.5514

>  <PUBCHEM_FEATURE_SELFOVERLAP>  (1) 
10.148

>  <PUBCHEM_SHAPE_FINGERPRINT>  (1) 
10130415 120 18260270741392434283
10219947 1 18273500061156043343
124424 183 18259981553181993479
14993402 34 18201727279178757878
17041 49 18338530672544505505
18186145 218 10665235855793392462
20388701 513 18195253204464410137
20671657 1 18195252341439844665
20711985 327 18412833473273217811
21130352 189 18410006654574169513
21524375 3 17334792258182287725
23402539 116 18271235028906743783
305870 269 17834113426132560273
3286 77 18260832644086017711
58734985 188 18410854386444568088
58734987 110 18411704261893966129
58734987 33 18409448089613637025
68521 5 18263647264402835628
81228 2 18049742727463850960

>  <PUBCHEM_SHAPE_MULTIPOLES>  (1) 
216.47
5.75
2.62
1.05
3.07
3.77
0.24
-3.47
-1.81
-1.44
-0.04
-0.03
-0.36
-0.14

>  <PUBCHEM_SHAPE_SELFOVERLAP>  (1) 
360.484

>  <PUBCHEM_SHAPE_VOLUME>  (1) 
149

>  <PUBCHEM_COORDINATE_TYPE>  (1) 
2
5
10

$$$$
