14469
     RDKit          3D

  9  8  0  0  1  0  0  0  0  0999 V2000
    1.1818    2.1412   -0.5824 Br  0  0  0  0  0  0  0  0  0  0  0  0
   -1.3212    0.1757    0.3386 O   0  0  0  0  0  0  0  0  0  0  0  0
   -0.0238   -1.1124   -1.0660 O   0  0  0  0  0  0  0  0  0  0  0  0
    3.2513   -0.8685    0.3595 N   0  0  0  0  0  0  0  0  0  0  0  0
   -2.5005   -0.4427   -0.1860 C   0  0  0  0  0  0  0  0  0  0  0  0
   -3.7134    0.1432    0.5047 C   0  0  0  0  0  0  0  0  0  0  0  0
    1.0068    0.4887    0.4366 C   0  0  0  0  0  0  0  0  0  0  0  0
   -0.1400   -0.2579   -0.1962 C   0  0  0  0  0  0  0  0  0  0  0  0
    2.2590   -0.2675    0.3911 C   0  0  0  0  0  0  0  0  0  0  0  0
  1  7  1  0
  2  5  1  0
  2  8  1  0
  3  8  2  0
  4  9  3  0
  5  6  1  0
  7  8  1  0
  7  9  1  0
M  END
>  <PUBCHEM_COMPOUND_CID>  (1) 
14469

>  <PUBCHEM_CONFORMER_RMSD>  (1) 
0.6

>  <PUBCHEM_CONFORMER_DIVERSEORDER>  (1) 
1
26
17
28
13
7
14
34
16
24
3
6
19
32
2
4
18
8
5
23
21
11
33
9
10
15
29
31
25
27
30
22
20
12

>  <PUBCHEM_MMFF94_PARTIAL_CHARGES>  (1) 
8
1 -0.23
2 -0.43
3 -0.57
4 -0.56
5 0.28
7 0.49
8 0.66
9 0.36

>  <PUBCHEM_EFFECTIVE_ROTOR_COUNT>  (1) 
3

>  <PUBCHEM_PHARMACOPHORE_FEATURES>  (1) 
3
1 1 hydrophobe
1 3 acceptor
1 4 acceptor

>  <PUBCHEM_HEAVY_ATOM_COUNT>  (1) 
9

>  <PUBCHEM_ATOM_DEF_STEREO_COUNT>  (1) 
0

>  <PUBCHEM_ATOM_UDEF_STEREO_COUNT>  (1) 
1

>  <PUBCHEM_BOND_DEF_STEREO_COUNT>  (1) 
0

>  <PUBCHEM_BOND_UDEF_STEREO_COUNT>  (1) 
0

>  <PUBCHEM_ISOTOPIC_ATOM_COUNT>  (1) 
0

>  <PUBCHEM_COMPONENT_COUNT>  (1) 
1

>  <PUBCHEM_CACTVS_TAUTO_COUNT>  (1) 
1

>  <PUBCHEM_CONFORMER_ID>  (1) 
0000388500000001

>  <PUBCHEM_MMFF94_ENERGY>  (1) 
6.6757

>  <PUBCHEM_FEATURE_SELFOVERLAP>  (1) 
15.223

>  <PUBCHEM_SHAPE_FINGERPRINT>  (1) 
10219947 1 18413388717780938507
11062470 55 13110960924815299371
12897270 3 10447931684798754507
12932741 1 17023453261481416167
12932764 1 16950550121627216307
14325111 11 17917988412453249523
14993402 34 18413394245699228380
21040471 1 17774442822887357239
21293036 1 12035456033846301003
23552423 10 18194112156170984918
29004967 10 18186513302778683424
5084963 1 18412820313403713249
68250623 7 18120097448499576611

>  <PUBCHEM_SHAPE_MULTIPOLES>  (1) 
174.44
5.01
1.53
0.84
3.34
1.08
0.11
-0.89
-1.09
-1.22
0.29
0.03
-0.05
-0.35

>  <PUBCHEM_SHAPE_SELFOVERLAP>  (1) 
314.445

>  <PUBCHEM_SHAPE_VOLUME>  (1) 
113.4

>  <PUBCHEM_COORDINATE_TYPE>  (1) 
2
5
10

$$$$
