14462
     RDKit          3D

  9  8  0  0  1  0  0  0  0  0999 V2000
   -1.2166    0.0956    0.0930 C   0  0  0  0  0  0  0  0  0  0  0  0
    0.1906   -0.5963    0.2964 C   0  0  0  0  0  0  0  0  0  0  0  0
    1.4062    0.3907    0.3695 C   0  0  0  0  0  0  0  0  0  0  0  0
   -1.4667    1.1278    1.2179 C   0  0  0  0  0  0  0  0  0  0  0  0
   -2.3540   -0.9477    0.1865 C   0  0  0  0  0  0  0  0  0  0  0  0
   -1.3479    0.8174   -1.2579 C   0  0  0  0  0  0  0  0  0  0  0  0
    0.4540   -1.7445   -0.6953 C   0  0  0  0  0  0  0  0  0  0  0  0
    1.6344    1.2349   -0.8912 C   0  0  0  0  0  0  0  0  0  0  0  0
    2.7001   -0.3779    0.6811 C   0  0  0  0  0  0  0  0  0  0  0  0
  1  2  1  0
  1  4  1  0
  1  5  1  0
  1  6  1  0
  2  3  1  0
  2  7  1  0
  3  8  1  0
  3  9  1  0
M  END
>  <PUBCHEM_COMPOUND_CID>  (1) 
14462

>  <PUBCHEM_CONFORMER_RMSD>  (1) 
0.4

>  <PUBCHEM_CONFORMER_DIVERSEORDER>  (1) 
3
2
1
4

>  <PUBCHEM_MMFF94_PARTIAL_CHARGES>  (1) 
0

>  <PUBCHEM_EFFECTIVE_ROTOR_COUNT>  (1) 
2

>  <PUBCHEM_PHARMACOPHORE_FEATURES>  (1) 
3
1 7 hydrophobe
3 3 8 9 hydrophobe
4 1 4 5 6 hydrophobe

>  <PUBCHEM_HEAVY_ATOM_COUNT>  (1) 
9

>  <PUBCHEM_ATOM_DEF_STEREO_COUNT>  (1) 
0

>  <PUBCHEM_ATOM_UDEF_STEREO_COUNT>  (1) 
1

>  <PUBCHEM_BOND_DEF_STEREO_COUNT>  (1) 
0

>  <PUBCHEM_BOND_UDEF_STEREO_COUNT>  (1) 
0

>  <PUBCHEM_ISOTOPIC_ATOM_COUNT>  (1) 
0

>  <PUBCHEM_COMPONENT_COUNT>  (1) 
1

>  <PUBCHEM_CACTVS_TAUTO_COUNT>  (1) 
1

>  <PUBCHEM_CONFORMER_ID>  (1) 
0000387E00000003

>  <PUBCHEM_MMFF94_ENERGY>  (1) 
30.9102

>  <PUBCHEM_FEATURE_SELFOVERLAP>  (1) 
15.231

>  <PUBCHEM_SHAPE_FINGERPRINT>  (1) 
12423570 1 8860735991038779537
12932741 1 15140963993017831152
137420 1 12994823729442149805
15775835 57 18188217622895266012
16945 1 18040987483843835987
18185500 45 17685495742398991710
21040471 1 18202290212057713834
21922407 69 18268452224694830937
23235685 24 18343018869812516840
23235687 12 18260555497792633257
23552423 10 18340500966689286007
24536 1 18270117907474924971
29004967 10 13326576297483454026
369184 2 17274812571530871802
5084963 1 18261387871070841586

>  <PUBCHEM_SHAPE_MULTIPOLES>  (1) 
185.22
3.19
1.51
1.18
0.72
0.28
0.09
0.03
-0.52
-0.04
0.26
-0.16
-0.32
-0.22

>  <PUBCHEM_SHAPE_SELFOVERLAP>  (1) 
335.518

>  <PUBCHEM_SHAPE_VOLUME>  (1) 
123.4

>  <PUBCHEM_COORDINATE_TYPE>  (1) 
2
5
10

$$$$
