14467
     RDKit          3D

  8  7  0  0  0  0  0  0  0  0999 V2000
    0.0206    0.2415    0.0110 N   0  0  0  0  0  0  0  0  0  0  0  0
   -1.1680   -1.7310   -0.5105 N   0  0  0  0  0  0  0  0  0  0  0  0
    0.9113   -1.9410    0.4767 N   0  0  0  0  0  0  0  0  0  0  0  0
    1.1775    0.9575    0.5451 C   0  0  0  0  0  0  0  0  0  0  0  0
   -1.0488    1.0761   -0.5338 C   0  0  0  0  0  0  0  0  0  0  0  0
    2.2372    1.1696   -0.5162 C   0  0  0  0  0  0  0  0  0  0  0  0
   -2.0985    1.3866    0.5133 C   0  0  0  0  0  0  0  0  0  0  0  0
   -0.0313   -1.1593    0.0143 C   0  0  0  0  0  0  0  0  0  0  0  0
  1  4  1  0
  1  5  1  0
  1  8  1  0
  2  8  1  0
  3  8  2  0
  4  6  1  0
  5  7  1  0
M  END
>  <PUBCHEM_COMPOUND_CID>  (1) 
14467

>  <PUBCHEM_CONFORMER_RMSD>  (1) 
0.6

>  <PUBCHEM_CONFORMER_DIVERSEORDER>  (1) 
1
10
2
7
8
11
9
4
5
6
3

>  <PUBCHEM_MMFF94_PARTIAL_CHARGES>  (1) 
9
1 -0.79
19 0.4
2 -0.85
20 0.4
21 0.4
3 -0.85
4 0.37
5 0.37
8 0.55

>  <PUBCHEM_EFFECTIVE_ROTOR_COUNT>  (1) 
3

>  <PUBCHEM_PHARMACOPHORE_FEATURES>  (1) 
3
1 2 donor
1 3 donor
4 1 2 3 8 cation

>  <PUBCHEM_HEAVY_ATOM_COUNT>  (1) 
8

>  <PUBCHEM_ATOM_DEF_STEREO_COUNT>  (1) 
0

>  <PUBCHEM_ATOM_UDEF_STEREO_COUNT>  (1) 
0

>  <PUBCHEM_BOND_DEF_STEREO_COUNT>  (1) 
0

>  <PUBCHEM_BOND_UDEF_STEREO_COUNT>  (1) 
0

>  <PUBCHEM_ISOTOPIC_ATOM_COUNT>  (1) 
0

>  <PUBCHEM_COMPONENT_COUNT>  (1) 
1

>  <PUBCHEM_CACTVS_TAUTO_COUNT>  (1) 
1

>  <PUBCHEM_CONFORMER_ID>  (1) 
0000388300000001

>  <PUBCHEM_MMFF94_ENERGY>  (1) 
13.5753

>  <PUBCHEM_FEATURE_SELFOVERLAP>  (1) 
15.271

>  <PUBCHEM_SHAPE_FINGERPRINT>  (1) 
16714656 1 17976261553672764812
21040471 1 18412539903426177408
29004967 10 17330555345906064705
528862 383 18190743020546543568

>  <PUBCHEM_SHAPE_MULTIPOLES>  (1) 
149.69
2.45
2.2
0.79
0.05
1.08
0
-1.43
0.02
-0.02
-0.02
0
-0.08
-0.39

>  <PUBCHEM_SHAPE_SELFOVERLAP>  (1) 
269.382

>  <PUBCHEM_SHAPE_VOLUME>  (1) 
94.8

>  <PUBCHEM_COORDINATE_TYPE>  (1) 
2
5
10

$$$$
