14473
     RDKit          3D

  9  8  0  0  0  0  0  0  0  0999 V2000
    1.3902   -1.4864    0.4095 O   0  0  0  0  0  0  0  0  0  0  0  0
   -1.9129   -0.3662    0.2340 C   0  0  0  0  0  0  0  0  0  0  0  0
   -0.7712    0.2080    1.0992 C   0  0  0  0  0  0  0  0  0  0  0  0
   -1.4426   -1.5236   -0.6506 C   0  0  0  0  0  0  0  0  0  0  0  0
   -2.5095    0.7412   -0.6384 C   0  0  0  0  0  0  0  0  0  0  0  0
    0.4280    0.6808    0.3100 C   0  0  0  0  0  0  0  0  0  0  0  0
    1.5123   -0.3203    0.0318 C   0  0  0  0  0  0  0  0  0  0  0  0
    0.5500    1.9553   -0.0894 C   0  0  0  0  0  0  0  0  0  0  0  0
    2.7556    0.1112   -0.7062 C   0  0  0  0  0  0  0  0  0  0  0  0
  1  7  2  0
  2  3  1  0
  2  4  1  0
  2  5  1  0
  3  6  1  0
  6  7  1  0
  6  8  2  0
  7  9  1  0
M  END
>  <PUBCHEM_COMPOUND_CID>  (1) 
14473

>  <PUBCHEM_CONFORMER_RMSD>  (1) 
0.6

>  <PUBCHEM_CONFORMER_DIVERSEORDER>  (1) 
1
8
2
6
7
3
4
5

>  <PUBCHEM_MMFF94_PARTIAL_CHARGES>  (1) 
8
1 -0.57
19 0.15
20 0.15
3 0.14
6 -0.12
7 0.49
8 -0.3
9 0.06

>  <PUBCHEM_EFFECTIVE_ROTOR_COUNT>  (1) 
3

>  <PUBCHEM_PHARMACOPHORE_FEATURES>  (1) 
3
1 1 acceptor
1 8 hydrophobe
3 2 4 5 hydrophobe

>  <PUBCHEM_HEAVY_ATOM_COUNT>  (1) 
9

>  <PUBCHEM_ATOM_DEF_STEREO_COUNT>  (1) 
0

>  <PUBCHEM_ATOM_UDEF_STEREO_COUNT>  (1) 
0

>  <PUBCHEM_BOND_DEF_STEREO_COUNT>  (1) 
0

>  <PUBCHEM_BOND_UDEF_STEREO_COUNT>  (1) 
0

>  <PUBCHEM_ISOTOPIC_ATOM_COUNT>  (1) 
0

>  <PUBCHEM_COMPONENT_COUNT>  (1) 
1

>  <PUBCHEM_CACTVS_TAUTO_COUNT>  (1) 
2

>  <PUBCHEM_CONFORMER_ID>  (1) 
0000388900000001

>  <PUBCHEM_MMFF94_ENERGY>  (1) 
12.6043

>  <PUBCHEM_FEATURE_SELFOVERLAP>  (1) 
15.223

>  <PUBCHEM_SHAPE_FINGERPRINT>  (1) 
12423570 1 17187854116724644817
12897270 3 18409453570223872220
14128692 85 18058172910762885926
15310529 11 17894916217479964163
16945 1 18341890783793746265
18185500 45 18413108359517025266
20653085 51 14852185987250882206
23235685 24 17846789476919819943
23552423 10 18267016357135301455
29004967 10 18334300867917339880
5084963 1 18126852830770948937

>  <PUBCHEM_SHAPE_MULTIPOLES>  (1) 
179.35
3.4
1.64
0.93
0.36
0.14
0.06
-0.26
-0.95
0.01
-0.14
-0.13
0
-0.1

>  <PUBCHEM_SHAPE_SELFOVERLAP>  (1) 
333.787

>  <PUBCHEM_SHAPE_VOLUME>  (1) 
113.5

>  <PUBCHEM_COORDINATE_TYPE>  (1) 
2
5
10

$$$$
