14471
     RDKit          3D

  6  5  0  0  0  0  0  0  0  0999 V2000
   -0.0071   -1.3660    0.0003 O   0  0  0  0  0  0  0  0  0  0  0  0
   -1.1489    0.6574   -0.0009 N   0  0  0  0  0  0  0  0  0  0  0  0
   -2.4837    0.1042    0.0007 C   0  0  0  0  0  0  0  0  0  0  0  0
   -0.0167   -0.1392   -0.0009 C   0  0  0  0  0  0  0  0  0  0  0  0
    1.2307    0.6709    0.0012 C   0  0  0  0  0  0  0  0  0  0  0  0
    2.4258    0.0727   -0.0003 C   0  0  0  0  0  0  0  0  0  0  0  0
  1  4  2  0
  2  3  1  0
  2  4  1  0
  4  5  1  0
  5  6  2  0
M  END
>  <PUBCHEM_COMPOUND_CID>  (1) 
14471

>  <PUBCHEM_CONFORMER_RMSD>  (1) 
0.4

>  <PUBCHEM_CONFORMER_DIVERSEORDER>  (1) 
1
4
2
3

>  <PUBCHEM_MMFF94_PARTIAL_CHARGES>  (1) 
10
1 -0.57
11 0.15
12 0.15
13 0.15
2 -0.73
3 0.3
4 0.62
5 -0.14
6 -0.3
7 0.37

>  <PUBCHEM_EFFECTIVE_ROTOR_COUNT>  (1) 
2

>  <PUBCHEM_PHARMACOPHORE_FEATURES>  (1) 
3
1 1 acceptor
1 2 donor
1 6 hydrophobe

>  <PUBCHEM_HEAVY_ATOM_COUNT>  (1) 
6

>  <PUBCHEM_ATOM_DEF_STEREO_COUNT>  (1) 
0

>  <PUBCHEM_ATOM_UDEF_STEREO_COUNT>  (1) 
0

>  <PUBCHEM_BOND_DEF_STEREO_COUNT>  (1) 
0

>  <PUBCHEM_BOND_UDEF_STEREO_COUNT>  (1) 
0

>  <PUBCHEM_ISOTOPIC_ATOM_COUNT>  (1) 
0

>  <PUBCHEM_COMPONENT_COUNT>  (1) 
1

>  <PUBCHEM_CACTVS_TAUTO_COUNT>  (1) 
2

>  <PUBCHEM_CONFORMER_ID>  (1) 
0000388700000001

>  <PUBCHEM_MMFF94_ENERGY>  (1) 
4.7527

>  <PUBCHEM_FEATURE_SELFOVERLAP>  (1) 
15.223

>  <PUBCHEM_SHAPE_FINGERPRINT>  (1) 
16714656 1 18335422386973423108
20096714 4 18409448115494164816
21040471 1 18410574006789811428
29004967 10 18113907034900072801
5460574 1 9295291642246883776

>  <PUBCHEM_SHAPE_MULTIPOLES>  (1) 
112.63
3.25
0.98
0.59
0.4
0.25
0
-0.41
0
-0.01
0
-0.02
-0.01
0

>  <PUBCHEM_SHAPE_SELFOVERLAP>  (1) 
203.197

>  <PUBCHEM_SHAPE_VOLUME>  (1) 
72.7

>  <PUBCHEM_COORDINATE_TYPE>  (1) 
2
5
10

$$$$
