14482
     RDKit          3D

 10  9  0  0  1  0  0  0  0  0999 V2000
   -2.0965    1.7470    0.7457 Cl  0  0  0  0  0  0  0  0  0  0  0  0
   -3.3182   -0.8951    0.7072 Cl  0  0  0  0  0  0  0  0  0  0  0  0
    3.7720    0.1627    0.3932 F   0  0  0  0  0  0  0  0  0  0  0  0
   -1.6512   -0.0724   -1.7577 O   0  0  0  0  0  0  0  0  0  0  0  0
    1.5523   -1.2882    0.5984 O   0  0  0  0  0  0  0  0  0  0  0  0
    0.3304    0.2891   -0.5976 N   0  0  0  0  0  0  0  0  0  0  0  0
   -0.9535   -0.3911   -0.5597 C   0  0  0  0  0  0  0  0  0  0  0  0
   -1.7710   -0.0071    0.6781 C   0  0  0  0  0  0  0  0  0  0  0  0
    1.4744   -0.2249   -0.0109 C   0  0  0  0  0  0  0  0  0  0  0  0
    2.6612    0.6801   -0.1968 C   0  0  0  0  0  0  0  0  0  0  0  0
  1  8  1  0
  2  8  1  0
  3 10  1  0
  4  7  1  0
  5  9  2  0
  6  7  1  0
  6  9  1  0
  7  8  1  0
  9 10  1  0
M  END
>  <PUBCHEM_COMPOUND_CID>  (1) 
14482

>  <PUBCHEM_CONFORMER_RMSD>  (1) 
0.6

>  <PUBCHEM_CONFORMER_DIVERSEORDER>  (1) 
1
15
9
14
8
19
7
6
11
17
10
5
18
12
4
13
21
3
2
16
20

>  <PUBCHEM_MMFF94_PARTIAL_CHARGES>  (1) 
12
1 -0.29
10 0.4
13 0.37
16 0.4
2 -0.29
3 -0.34
4 -0.68
5 -0.57
6 -0.73
7 0.58
8 0.58
9 0.57

>  <PUBCHEM_EFFECTIVE_ROTOR_COUNT>  (1) 
4

>  <PUBCHEM_PHARMACOPHORE_FEATURES>  (1) 
4
1 4 acceptor
1 4 donor
1 5 acceptor
1 6 donor

>  <PUBCHEM_HEAVY_ATOM_COUNT>  (1) 
10

>  <PUBCHEM_ATOM_DEF_STEREO_COUNT>  (1) 
0

>  <PUBCHEM_ATOM_UDEF_STEREO_COUNT>  (1) 
1

>  <PUBCHEM_BOND_DEF_STEREO_COUNT>  (1) 
0

>  <PUBCHEM_BOND_UDEF_STEREO_COUNT>  (1) 
0

>  <PUBCHEM_ISOTOPIC_ATOM_COUNT>  (1) 
0

>  <PUBCHEM_COMPONENT_COUNT>  (1) 
1

>  <PUBCHEM_CACTVS_TAUTO_COUNT>  (1) 
2

>  <PUBCHEM_CONFORMER_ID>  (1) 
0000389200000001

>  <PUBCHEM_MMFF94_ENERGY>  (1) 
7.5224

>  <PUBCHEM_FEATURE_SELFOVERLAP>  (1) 
20.343

>  <PUBCHEM_SHAPE_FINGERPRINT>  (1) 
11031198 65 13110698149994384949
11062470 55 13912600601793430363
12932764 1 17346593067311508618
15310529 11 18202005395538457251
15775835 57 17346884429250161211
20201158 50 14706925168030177009
20211469 26 17749110027733593763
29004967 10 17530686493820238796
3248919 1 18336820914408930354
5084963 1 17531247304879966128

>  <PUBCHEM_SHAPE_MULTIPOLES>  (1) 
185.54
5.33
1.27
1.1
2.55
0.56
-0.38
0.16
1.36
-0.78
0.23
-0.49
-0.19
-0.2

>  <PUBCHEM_SHAPE_SELFOVERLAP>  (1) 
331.065

>  <PUBCHEM_SHAPE_VOLUME>  (1) 
120.5

>  <PUBCHEM_COORDINATE_TYPE>  (1) 
2
5
10

$$$$
