14481
     RDKit          3D

 15 14  0  0  1  0  0  0  0  0999 V2000
   -0.4322   -0.8302    1.4569 S   0  0  0  0  0  0  0  0  0  0  0  0
   -3.9476   -0.8603    1.3244 S   0  0  0  0  0  0  0  0  0  0  0  0
   -2.2562   -0.3364    0.4792 P   0  0  0  0  0  0  0  0  0  0  0  0
   -2.1990    1.2639    0.1472 O   0  0  0  0  0  0  0  0  0  0  0  0
   -2.1400   -0.8898   -1.0550 O   0  0  0  0  0  0  0  0  0  0  0  0
    0.4149    1.2980   -1.3199 O   0  0  0  0  0  0  0  0  0  0  0  0
    4.5191   -0.1596    0.4933 O   0  0  0  0  0  0  0  0  0  0  0  0
    0.9507    1.9812    0.7725 O   0  0  0  0  0  0  0  0  0  0  0  0
    3.1988   -0.5003   -1.3235 O   0  0  0  0  0  0  0  0  0  0  0  0
    0.8706   -0.4128    0.2807 C   0  0  0  0  0  0  0  0  0  0  0  0
    2.2351   -0.7476    0.8791 C   0  0  0  0  0  0  0  0  0  0  0  0
    0.7729    1.0719   -0.0276 C   0  0  0  0  0  0  0  0  0  0  0  0
    3.3402   -0.4539   -0.1081 C   0  0  0  0  0  0  0  0  0  0  0  0
   -3.1827    1.8595   -0.6823 C   0  0  0  0  0  0  0  0  0  0  0  0
   -2.1444   -2.2835   -1.3168 C   0  0  0  0  0  0  0  0  0  0  0  0
  1  3  1  0
  1 10  1  0
  2  3  2  0
  3  4  1  0
  3  5  1  0
  4 14  1  0
  5 15  1  0
  6 12  1  0
  7 13  1  0
  8 12  2  0
  9 13  2  0
 10 11  1  0
 10 12  1  0
 11 13  1  0
M  END
>  <PUBCHEM_COMPOUND_CID>  (1) 
14481

>  <PUBCHEM_CONFORMER_RMSD>  (1) 
0.8

>  <PUBCHEM_CONFORMER_DIVERSEORDER>  (1) 
1
81
26
67
28
40
30
57
36
53
80
79
39
88
62
33
23
66
84
85
42
86
2
69
4
82
46
56
45
10
61
21
78
34
60
70
8
71
41
6
20
52
58
11
76
83
5
12
27
17
49
73
18
14
19
72
37
65
15
75
55
29
13
44
50
54
87
3
77
43
7
32
51
59
24
38
68
25
47
22
31
64
9
48
63
74
16
35

>  <PUBCHEM_MMFF94_PARTIAL_CHARGES>  (1) 
17
1 -0.48
10 0.29
11 0.06
12 0.66
13 0.66
14 0.28
15 0.28
2 -0.68
25 0.5
26 0.5
3 1.47
4 -0.55
5 -0.55
6 -0.65
7 -0.65
8 -0.57
9 -0.57

>  <PUBCHEM_EFFECTIVE_ROTOR_COUNT>  (1) 
7

>  <PUBCHEM_PHARMACOPHORE_FEATURES>  (1) 
6
1 6 acceptor
1 7 acceptor
1 8 acceptor
1 9 acceptor
3 6 8 12 anion
3 7 9 13 anion

>  <PUBCHEM_HEAVY_ATOM_COUNT>  (1) 
15

>  <PUBCHEM_ATOM_DEF_STEREO_COUNT>  (1) 
0

>  <PUBCHEM_ATOM_UDEF_STEREO_COUNT>  (1) 
1

>  <PUBCHEM_BOND_DEF_STEREO_COUNT>  (1) 
0

>  <PUBCHEM_BOND_UDEF_STEREO_COUNT>  (1) 
0

>  <PUBCHEM_ISOTOPIC_ATOM_COUNT>  (1) 
0

>  <PUBCHEM_COMPONENT_COUNT>  (1) 
1

>  <PUBCHEM_CACTVS_TAUTO_COUNT>  (1) 
1

>  <PUBCHEM_CONFORMER_ID>  (1) 
0000389100000001

>  <PUBCHEM_MMFF94_ENERGY>  (1) 
17.1624

>  <PUBCHEM_FEATURE_SELFOVERLAP>  (1) 
30.566

>  <PUBCHEM_SHAPE_FINGERPRINT>  (1) 
11132069 177 18341040844547579936
12500047 106 17988351585905323734
12932764 1 18342170076863949227
14115302 16 17274553117157670403
15775835 57 18115303359138819349
16945 1 18130500842879859835
18186145 218 16081089251712152922
19422 9 17531252724965267498
23402539 116 17967809415186519818
23559900 14 18263078830609529946
23598291 2 18129387166771779303
298252 57 18266451006537690083
3286 77 17313395577184963987

>  <PUBCHEM_SHAPE_MULTIPOLES>  (1) 
285.03
6.8
1.93
1.44
2.93
0.6
-0.24
-1.12
0.32
-1.47
-0.42
-0.55
-0.51
0.04

>  <PUBCHEM_SHAPE_SELFOVERLAP>  (1) 
508.073

>  <PUBCHEM_SHAPE_VOLUME>  (1) 
186.4

>  <PUBCHEM_COORDINATE_TYPE>  (1) 
2
5
10

$$$$
