14480
     RDKit          3D

  6  5  0  0  1  0  0  0  0  0999 V2000
    1.2095    1.6095   -0.0859 Cl  0  0  0  0  0  0  0  0  0  0  0  0
   -2.3681    0.0180    0.8664 Cl  0  0  0  0  0  0  0  0  0  0  0  0
   -0.2037   -0.6671   -0.6803 C   0  0  0  0  0  0  0  0  0  0  0  0
    0.8172   -0.0903    0.3123 C   0  0  0  0  0  0  0  0  0  0  0  0
   -1.5600    0.0366   -0.7176 C   0  0  0  0  0  0  0  0  0  0  0  0
    2.1052   -0.9068    0.3052 C   0  0  0  0  0  0  0  0  0  0  0  0
  1  4  1  0
  2  5  1  0
  3  4  1  0
  3  5  1  0
  4  6  1  0
M  END
>  <PUBCHEM_COMPOUND_CID>  (1) 
14480

>  <PUBCHEM_CONFORMER_RMSD>  (1) 
0.4

>  <PUBCHEM_CONFORMER_DIVERSEORDER>  (1) 
2
13
9
16
10
18
11
3
15
4
5
14
6
7
12
1
8
17

>  <PUBCHEM_MMFF94_PARTIAL_CHARGES>  (1) 
4
1 -0.29
2 -0.29
4 0.29
5 0.29

>  <PUBCHEM_EFFECTIVE_ROTOR_COUNT>  (1) 
2

>  <PUBCHEM_PHARMACOPHORE_FEATURES>  (1) 
0

>  <PUBCHEM_HEAVY_ATOM_COUNT>  (1) 
6

>  <PUBCHEM_ATOM_DEF_STEREO_COUNT>  (1) 
0

>  <PUBCHEM_ATOM_UDEF_STEREO_COUNT>  (1) 
1

>  <PUBCHEM_BOND_DEF_STEREO_COUNT>  (1) 
0

>  <PUBCHEM_BOND_UDEF_STEREO_COUNT>  (1) 
0

>  <PUBCHEM_ISOTOPIC_ATOM_COUNT>  (1) 
0

>  <PUBCHEM_COMPONENT_COUNT>  (1) 
1

>  <PUBCHEM_CACTVS_TAUTO_COUNT>  (1) 
1

>  <PUBCHEM_CONFORMER_ID>  (1) 
0000389000000002

>  <PUBCHEM_MMFF94_ENERGY>  (1) 
2.4996

>  <PUBCHEM_FEATURE_SELFOVERLAP>  (1) 
0

>  <PUBCHEM_SHAPE_FINGERPRINT>  (1) 
12932741 1 17458333156998135071
16714656 1 18199744748334767822
20096714 4 18198902693867919508
21040471 1 16702312238799397663
24536 1 17846493781142849151
29004967 10 18261106327501397666
5084963 1 18130210623550291919

>  <PUBCHEM_SHAPE_MULTIPOLES>  (1) 
127.22
3.1
1.29
0.95
0.99
0.51
0
-0.22
-0.77
-0.84
0.03
0.39
-0.05
-0.15

>  <PUBCHEM_SHAPE_SELFOVERLAP>  (1) 
204.011

>  <PUBCHEM_SHAPE_VOLUME>  (1) 
89.6

>  <PUBCHEM_COORDINATE_TYPE>  (1) 
2
5
10

$$$$
