14494
     RDKit          3D

 12 11  0  0  0  0  0  0  0  0999 V2000
   -6.9444   -0.3774    0.4155 S   0  0  0  0  0  0  0  0  0  0  0  0
    5.2634   -1.8791    0.5656 S   0  0  0  0  0  0  0  0  0  0  0  0
   -0.3612    0.2430   -0.4064 C   0  0  0  0  0  0  0  0  0  0  0  0
    0.8265    0.6366    0.4747 C   0  0  0  0  0  0  0  0  0  0  0  0
   -1.6804    0.3417    0.3616 C   0  0  0  0  0  0  0  0  0  0  0  0
    2.1411    0.5677   -0.3051 C   0  0  0  0  0  0  0  0  0  0  0  0
   -2.8651   -0.0831   -0.5097 C   0  0  0  0  0  0  0  0  0  0  0  0
    3.3746    0.8638    0.5535 C   0  0  0  0  0  0  0  0  0  0  0  0
   -4.1787   -0.0272    0.2771 C   0  0  0  0  0  0  0  0  0  0  0  0
    4.7270    0.7665   -0.1647 C   0  0  0  0  0  0  0  0  0  0  0  0
   -5.4007   -0.4444   -0.5403 C   0  0  0  0  0  0  0  0  0  0  0  0
    5.0980   -0.6082   -0.7219 C   0  0  0  0  0  0  0  0  0  0  0  0
  1 11  1  0
  2 12  1  0
  3  4  1  0
  3  5  1  0
  4  6  1  0
  5  7  1  0
  6  8  1  0
  7  9  1  0
  8 10  1  0
  9 11  1  0
 10 12  1  0
M  END
>  <PUBCHEM_COMPOUND_CID>  (1) 
14494

>  <PUBCHEM_CONFORMER_RMSD>  (1) 
0.8

>  <PUBCHEM_CONFORMER_DIVERSEORDER>  (1) 
1
120
161
2
197
35
190
3
105
127
218
150
17
283
184
63
7
40
108
235
140
116
39
5
206
244
55
154
185
194
42
240
136
134
147
47
199
10
270
72
221
90
192
159
104
167
144
49
15
200
4
269
226
156
8
86
80
262
182
264
205
237
18
125
27
57
62
256
272
213
260
131
122
204
175
92
201
152
28
45
22
85
216
44
254
163
51
151
168
79
248
242
95
289
238
89
16
54
74
273
43
20
203
291
148
109
103
255
19
236
171
123
73
280
110
126
24
153
101
258
249
288
263
220
13
132
142
219
71
225
130
265
214
99
69
60
87
169
198
94
160
253
189
285
287
58
141
195
6
173
241
276
278
162
70
211
143
146
33
118
61
66
26
139
279
31
145
208
179
165
115
29
212
246
164
124
137
25
282
181
64
41
48
228
37
183
119
129
56
187
231
102
207
252
21
113
281
202
247
84
34
76
77
133
292
68
12
233
274
83
193
11
14
9
209
284
52
96
111
53
230
172
114
229
88
210
222
82
81
158
215
121
267
259
243
277
234
178
227
261
251
32
293
135
239
166
224
36
170
91
155
59
250
290
176
266
65
106
286
78
100
174
180
232
93
149
50
223
107
97
30
112
38
217
138
271
67
196
75
245
46
177
117
157
23
268
275
98
128
188
191
186
257

>  <PUBCHEM_MMFF94_PARTIAL_CHARGES>  (1) 
6
1 -0.41
11 0.23
12 0.23
2 -0.41
33 0.18
34 0.18

>  <PUBCHEM_EFFECTIVE_ROTOR_COUNT>  (1) 
9

>  <PUBCHEM_PHARMACOPHORE_FEATURES>  (1) 
0

>  <PUBCHEM_HEAVY_ATOM_COUNT>  (1) 
12

>  <PUBCHEM_ATOM_DEF_STEREO_COUNT>  (1) 
0

>  <PUBCHEM_ATOM_UDEF_STEREO_COUNT>  (1) 
0

>  <PUBCHEM_BOND_DEF_STEREO_COUNT>  (1) 
0

>  <PUBCHEM_BOND_UDEF_STEREO_COUNT>  (1) 
0

>  <PUBCHEM_ISOTOPIC_ATOM_COUNT>  (1) 
0

>  <PUBCHEM_COMPONENT_COUNT>  (1) 
1

>  <PUBCHEM_CACTVS_TAUTO_COUNT>  (1) 
1

>  <PUBCHEM_CONFORMER_ID>  (1) 
0000389E00000001

>  <PUBCHEM_MMFF94_ENERGY>  (1) 
3.5794

>  <PUBCHEM_FEATURE_SELFOVERLAP>  (1) 
0

>  <PUBCHEM_SHAPE_FINGERPRINT>  (1) 
117890 112 9151175354611946966
125118 31 11455897966241942451
12714333 28 11746936494620780740
13533116 47 18342174458263308522
1420 363 17894915139801719691
14251718 22 11458423548951067425
14251752 14 18343300328332337145
14251764 18 18060700593901592328
14251764 75 12605109779126342610
15048467 5 8574709100555663486
15501527 24 13045941317934500197
16079462 125 12823296763077029691
17834072 33 18413386535916576582
17834072 8 17022904553433943594
17834076 25 13479130207285198869
20281389 69 17846500335848843457
20621476 38 18409449176451690475
20621476 66 10881391020794924855
20621476 8 17894909595479170453
20645477 70 18335420132896509246
20767249 213 9151173151789388293
21130983 4 9007059080394713871
21150785 3 16732709358746376614
220451 1 18271809059538003543
23035841 295 17894630362053317283
23402539 116 16057159519590195893
33532 11 18334575750752858035
42788 4 17632860849973638361
465052 167 18341897385607094150
522135 26 18334857221560623476
5374978 207 16486969605534779472
57483677 66 18412823607554172815
6438161 24 16660914492859931178

>  <PUBCHEM_SHAPE_MULTIPOLES>  (1) 
254.65
17.84
1.21
0.85
14.47
0.51
-0.01
6.24
0.34
-2.19
0.17
-0.12
0.04
-0.2

>  <PUBCHEM_SHAPE_SELFOVERLAP>  (1) 
432.526

>  <PUBCHEM_SHAPE_VOLUME>  (1) 
170.9

>  <PUBCHEM_COORDINATE_TYPE>  (1) 
2
5
10

$$$$
