14493
     RDKit          3D

 10  9  0  0  0  0  0  0  0  0999 V2000
    5.9595    0.3589   -0.0337 S   0  0  0  0  0  0  0  0  0  0  0  0
   -5.9700   -0.4042   -0.0379 S   0  0  0  0  0  0  0  0  0  0  0  0
    0.6445    0.3985    0.0155 C   0  0  0  0  0  0  0  0  0  0  0  0
   -0.6565   -0.4066   -0.0154 C   0  0  0  0  0  0  0  0  0  0  0  0
    1.9021   -0.4754    0.0244 C   0  0  0  0  0  0  0  0  0  0  0  0
   -1.8793    0.5153    0.0091 C   0  0  0  0  0  0  0  0  0  0  0  0
    3.2046    0.3294   -0.0191 C   0  0  0  0  0  0  0  0  0  0  0  0
   -3.1815   -0.2923    0.0049 C   0  0  0  0  0  0  0  0  0  0  0  0
    4.4170   -0.5976    0.0264 C   0  0  0  0  0  0  0  0  0  0  0  0
   -4.4404    0.5740    0.0258 C   0  0  0  0  0  0  0  0  0  0  0  0
  1  9  1  0
  2 10  1  0
  3  4  1  0
  3  5  1  0
  4  6  1  0
  5  7  1  0
  6  8  1  0
  7  9  1  0
  8 10  1  0
M  END
>  <PUBCHEM_COMPOUND_CID>  (1) 
14493

>  <PUBCHEM_CONFORMER_RMSD>  (1) 
0.6

>  <PUBCHEM_CONFORMER_DIVERSEORDER>  (1) 
1
17
103
44
8
247
169
55
18
63
24
246
25
117
58
95
114
22
146
201
2
217
52
61
69
234
125
113
74
215
36
5
257
204
30
41
141
116
147
189
7
148
77
238
101
137
68
255
108
14
245
66
258
35
10
188
202
152
254
172
224
158
60
15
198
225
177
72
27
155
253
94
87
29
163
210
131
28
9
86
112
20
105
31
126
73
49
11
256
232
205
156
249
48
219
79
223
244
104
186
192
130
132
200
118
45
33
193
51
80
187
227
143
235
231
181
166
134
91
26
120
122
67
190
89
70
138
252
151
160
82
111
50
175
78
165
220
135
34
233
128
241
3
243
83
40
98
39
184
199
248
176
32
194
65
214
119
4
109
127
46
221
12
182
183
139
38
76
42
179
59
110
161
208
180
56
222
53
23
242
213
136
124
102
207
21
203
75
133
153
159
168
174
218
84
92
43
62
123
54
216
144
85
88
64
107
37
121
99
149
154
100
195
97
239
196
57
240
47
162
229
178
81
167
226
115
197
145
157
185
106
236
212
150
237
228
171
142
71
19
170
230
96
93
191
6
173
251
140
164
206
90
129
16
211
209
250
13

>  <PUBCHEM_MMFF94_PARTIAL_CHARGES>  (1) 
6
1 -0.41
10 0.23
2 -0.41
27 0.18
28 0.18
9 0.23

>  <PUBCHEM_EFFECTIVE_ROTOR_COUNT>  (1) 
7

>  <PUBCHEM_PHARMACOPHORE_FEATURES>  (1) 
2
3 3 5 7 hydrophobe
3 4 6 8 hydrophobe

>  <PUBCHEM_HEAVY_ATOM_COUNT>  (1) 
10

>  <PUBCHEM_ATOM_DEF_STEREO_COUNT>  (1) 
0

>  <PUBCHEM_ATOM_UDEF_STEREO_COUNT>  (1) 
0

>  <PUBCHEM_BOND_DEF_STEREO_COUNT>  (1) 
0

>  <PUBCHEM_BOND_UDEF_STEREO_COUNT>  (1) 
0

>  <PUBCHEM_ISOTOPIC_ATOM_COUNT>  (1) 
0

>  <PUBCHEM_COMPONENT_COUNT>  (1) 
1

>  <PUBCHEM_CACTVS_TAUTO_COUNT>  (1) 
1

>  <PUBCHEM_CONFORMER_ID>  (1) 
0000389D00000001

>  <PUBCHEM_MMFF94_ENERGY>  (1) 
2.2038

>  <PUBCHEM_FEATURE_SELFOVERLAP>  (1) 
10.149

>  <PUBCHEM_SHAPE_FINGERPRINT>  (1) 
12091667 2 18335421266698946329
12815109 37 12973604438815053958
14123238 8 18410856555350097052
1420 363 18342181072233336683
14251718 22 18410573989451693187
17834072 33 18343018925594363661
17834076 25 18410292514501369294
187816 3 15841552976641520035
20645477 70 18269275677832919766
20719005 15 18410856555350097027
20767249 13 18113336410003467755
20767249 213 18113057155614623948
23402539 116 18410569583432497757
23521765 1 18341895194640646158
366044 4 18333732420411483147
42788 4 18410856555587545312
8209 1 18408040715109657781

>  <PUBCHEM_SHAPE_MULTIPOLES>  (1) 
213.49
15.29
0.83
0.63
0.17
0
0
0.16
-0.18
0.01
0
0
0
-0.04

>  <PUBCHEM_SHAPE_SELFOVERLAP>  (1) 
356.482

>  <PUBCHEM_SHAPE_VOLUME>  (1) 
145.3

>  <PUBCHEM_COORDINATE_TYPE>  (1) 
2
5
10

$$$$
