14501
     RDKit          3D

  7  7  0  0  1  0  0  0  0  0999 V2000
   -2.9724    0.4217    0.1927 Br  0  0  0  0  0  0  0  0  0  0  0  0
    0.1242    1.0176   -0.0298 O   0  0  0  0  0  0  0  0  0  0  0  0
   -0.2370   -0.3306    0.3139 C   0  0  0  0  0  0  0  0  0  0  0  0
    0.9535   -1.1962   -0.0607 C   0  0  0  0  0  0  0  0  0  0  0  0
    2.1040   -0.2623    0.2196 C   0  0  0  0  0  0  0  0  0  0  0  0
    1.5441    1.0690   -0.2345 C   0  0  0  0  0  0  0  0  0  0  0  0
   -1.5164   -0.7191   -0.4013 C   0  0  0  0  0  0  0  0  0  0  0  0
  1  7  1  0
  2  3  1  0
  2  6  1  0
  3  4  1  0
  3  7  1  0
  4  5  1  0
  5  6  1  0
M  END
>  <PUBCHEM_COMPOUND_CID>  (1) 
14501

>  <PUBCHEM_CONFORMER_RMSD>  (1) 
0.4

>  <PUBCHEM_CONFORMER_DIVERSEORDER>  (1) 
1
8
4
5
6
7
3
2

>  <PUBCHEM_MMFF94_PARTIAL_CHARGES>  (1) 
5
1 -0.23
2 -0.56
3 0.28
6 0.28
7 0.23

>  <PUBCHEM_EFFECTIVE_ROTOR_COUNT>  (1) 
2

>  <PUBCHEM_PHARMACOPHORE_FEATURES>  (1) 
3
1 1 hydrophobe
1 2 acceptor
5 2 3 4 5 6 rings

>  <PUBCHEM_HEAVY_ATOM_COUNT>  (1) 
7

>  <PUBCHEM_ATOM_DEF_STEREO_COUNT>  (1) 
0

>  <PUBCHEM_ATOM_UDEF_STEREO_COUNT>  (1) 
1

>  <PUBCHEM_BOND_DEF_STEREO_COUNT>  (1) 
0

>  <PUBCHEM_BOND_UDEF_STEREO_COUNT>  (1) 
0

>  <PUBCHEM_ISOTOPIC_ATOM_COUNT>  (1) 
0

>  <PUBCHEM_COMPONENT_COUNT>  (1) 
1

>  <PUBCHEM_CACTVS_TAUTO_COUNT>  (1) 
1

>  <PUBCHEM_CONFORMER_ID>  (1) 
000038A500000001

>  <PUBCHEM_MMFF94_ENERGY>  (1) 
9.0671

>  <PUBCHEM_FEATURE_SELFOVERLAP>  (1) 
15.223

>  <PUBCHEM_SHAPE_FINGERPRINT>  (1) 
14390081 3 18201435921714381577
20096714 4 18337672039208449767
21040471 1 18194401314933657362
23552333 60 18340206293319928882
29004967 10 18259707778564563147
5460574 1 9079115561898773611

>  <PUBCHEM_SHAPE_MULTIPOLES>  (1) 
144.13
3.68
1.23
0.68
2.41
0.04
-0.01
0.48
-0.19
-0.3
0.08
0.08
-0.02
-0.16

>  <PUBCHEM_SHAPE_SELFOVERLAP>  (1) 
263.034

>  <PUBCHEM_SHAPE_VOLUME>  (1) 
94.7

>  <PUBCHEM_COORDINATE_TYPE>  (1) 
2
5
10

$$$$
