14503
     RDKit          3D

  8  8  0  0  0  0  0  0  0  0999 V2000
   -0.2048    2.3277    0.0004 Cl  0  0  0  0  0  0  0  0  0  0  0  0
   -2.7459    0.2473    0.0001 Cl  0  0  0  0  0  0  0  0  0  0  0  0
   -0.7645   -1.9426   -0.0006 S   0  0  0  0  0  0  0  0  0  0  0  0
    1.2642   -1.7197    0.0009 S   0  0  0  0  0  0  0  0  0  0  0  0
    2.3237    0.6798   -0.0005 O   0  0  0  0  0  0  0  0  0  0  0  0
   -0.0695    0.6193   -0.0001 C   0  0  0  0  0  0  0  0  0  0  0  0
   -1.0911   -0.2443   -0.0001 C   0  0  0  0  0  0  0  0  0  0  0  0
    1.2878    0.0325   -0.0002 C   0  0  0  0  0  0  0  0  0  0  0  0
  1  6  1  0
  2  7  1  0
  3  4  1  0
  3  7  1  0
  4  8  1  0
  5  8  2  0
  6  7  2  0
  6  8  1  0
M  END
>  <PUBCHEM_COMPOUND_CID>  (1) 
14503

>  <PUBCHEM_CONFORMER_RMSD>  (1) 
0.4

>  <PUBCHEM_CONFORMER_DIVERSEORDER>  (1) 
1

>  <PUBCHEM_MMFF94_PARTIAL_CHARGES>  (1) 
8
1 -0.14
2 -0.14
3 -0.1
4 -0.14
5 -0.57
6 0.15
7 0.24
8 0.7

>  <PUBCHEM_EFFECTIVE_ROTOR_COUNT>  (1) 
0

>  <PUBCHEM_PHARMACOPHORE_FEATURES>  (1) 
1
5 3 4 6 7 8 rings

>  <PUBCHEM_HEAVY_ATOM_COUNT>  (1) 
8

>  <PUBCHEM_ATOM_DEF_STEREO_COUNT>  (1) 
0

>  <PUBCHEM_ATOM_UDEF_STEREO_COUNT>  (1) 
0

>  <PUBCHEM_BOND_DEF_STEREO_COUNT>  (1) 
0

>  <PUBCHEM_BOND_UDEF_STEREO_COUNT>  (1) 
0

>  <PUBCHEM_ISOTOPIC_ATOM_COUNT>  (1) 
0

>  <PUBCHEM_COMPONENT_COUNT>  (1) 
1

>  <PUBCHEM_CACTVS_TAUTO_COUNT>  (1) 
1

>  <PUBCHEM_CONFORMER_ID>  (1) 
000038A700000001

>  <PUBCHEM_MMFF94_ENERGY>  (1) 
3.302

>  <PUBCHEM_FEATURE_SELFOVERLAP>  (1) 
5.074

>  <PUBCHEM_SHAPE_FINGERPRINT>  (1) 
12423570 1 10935271676837177138
18185500 45 18339078293105675198
193761 8 17762056536479376581
21040471 1 18410855494498631559
23552423 10 18046352928788684575
241688 4 17977388226573500656
2748010 2 18410576141483678591
29004967 10 18334301967529174865
5084963 1 17914610553608071603
66348 1 18411703175119352083

>  <PUBCHEM_SHAPE_MULTIPOLES>  (1) 
170.21
2.77
2.39
0.64
0.75
0.36
0
-0.15
0
-0.08
0
0.02
-0.04
0

>  <PUBCHEM_SHAPE_SELFOVERLAP>  (1) 
305.278

>  <PUBCHEM_SHAPE_VOLUME>  (1) 
113.5

>  <PUBCHEM_COORDINATE_TYPE>  (1) 
2
5
10

$$$$
