14506
     RDKit          3D

  8  9  0  0  0  0  0  0  0  0999 V2000
   -0.0001   -1.4451    0.4119 O   0  0  0  0  0  0  0  0  0  0  0  0
    1.1495    0.4820   -0.2247 N   0  0  0  0  0  0  0  0  0  0  0  0
   -1.1495    0.4821   -0.2246 N   0  0  0  0  0  0  0  0  0  0  0  0
    2.3749   -0.1154   -0.6677 C   0  0  0  0  0  0  0  0  0  0  0  0
    2.2669    0.4938    0.6732 C   0  0  0  0  0  0  0  0  0  0  0  0
   -2.3750   -0.1154   -0.6677 C   0  0  0  0  0  0  0  0  0  0  0  0
   -2.2667    0.4939    0.6733 C   0  0  0  0  0  0  0  0  0  0  0  0
   -0.0001   -0.2759    0.0262 C   0  0  0  0  0  0  0  0  0  0  0  0
  1  8  2  0
  2  4  1  0
  2  5  1  0
  2  8  1  0
  3  6  1  0
  3  7  1  0
  3  8  1  0
  4  5  1  0
  6  7  1  0
M  END
>  <PUBCHEM_COMPOUND_CID>  (1) 
14506

>  <PUBCHEM_CONFORMER_RMSD>  (1) 
0.6

>  <PUBCHEM_CONFORMER_DIVERSEORDER>  (1) 
1
5
2
4
3

>  <PUBCHEM_MMFF94_PARTIAL_CHARGES>  (1) 
16
1 -0.57
10 0.1
11 0.1
12 0.1
13 0.1
14 0.1
15 0.1
16 0.1
2 -0.36
3 -0.36
4 -0.05
5 -0.05
6 -0.05
7 -0.05
8 0.69
9 0.1

>  <PUBCHEM_EFFECTIVE_ROTOR_COUNT>  (1) 
3.2

>  <PUBCHEM_PHARMACOPHORE_FEATURES>  (1) 
1
1 1 acceptor

>  <PUBCHEM_HEAVY_ATOM_COUNT>  (1) 
8

>  <PUBCHEM_ATOM_DEF_STEREO_COUNT>  (1) 
0

>  <PUBCHEM_ATOM_UDEF_STEREO_COUNT>  (1) 
0

>  <PUBCHEM_BOND_DEF_STEREO_COUNT>  (1) 
0

>  <PUBCHEM_BOND_UDEF_STEREO_COUNT>  (1) 
0

>  <PUBCHEM_ISOTOPIC_ATOM_COUNT>  (1) 
0

>  <PUBCHEM_COMPONENT_COUNT>  (1) 
1

>  <PUBCHEM_CACTVS_TAUTO_COUNT>  (1) 
1

>  <PUBCHEM_CONFORMER_ID>  (1) 
000038AA00000001

>  <PUBCHEM_MMFF94_ENERGY>  (1) 
33.4729

>  <PUBCHEM_FEATURE_SELFOVERLAP>  (1) 
5.074

>  <PUBCHEM_SHAPE_FINGERPRINT>  (1) 
10857977 72 17968101970730506961
12897270 3 16774075189253651477
12932764 1 16343704347967455404
14325111 11 18410012139009919156
14390081 3 18059852852950921673
15310529 11 15985100829533624269
20653085 51 17203066121982533105
21040471 1 18334013904062173378
23235685 24 18260836989827906764
23552423 10 12462755943567221516
29004967 10 11095882678781837750
5084963 1 18411982459546762245
5460574 1 8214146256717039436

>  <PUBCHEM_SHAPE_MULTIPOLES>  (1) 
148.8
3.84
0.93
0.85
0
0.06
-0.04
-0.48
0.36
0
-0.16
0
0.09
0

>  <PUBCHEM_SHAPE_SELFOVERLAP>  (1) 
296.504

>  <PUBCHEM_SHAPE_VOLUME>  (1) 
90.3

>  <PUBCHEM_COORDINATE_TYPE>  (1) 
2
5
10

$$$$
