1451
     RDKit          3D

 27 31  0  0  1  0  0  0  0  0999 V2000
    5.8625   -1.1666   -0.5257 O   0  0  0  0  0  0  0  0  0  0  0  0
   -4.7697    0.2641    0.5365 O   0  0  0  0  0  0  0  0  0  0  0  0
    3.7019   -0.0103   -0.5536 C   0  0  0  0  0  0  0  0  0  0  0  0
    3.0927   -1.0961    0.3752 C   0  0  0  0  0  0  0  0  0  0  0  0
    1.5546   -1.1319    0.5109 C   0  0  0  0  0  0  0  0  0  0  0  0
    5.1853    0.0060   -0.0598 C   0  0  0  0  0  0  0  0  0  0  0  0
    0.9217    0.2713    0.6586 C   0  0  0  0  0  0  0  0  0  0  0  0
    2.9902    1.3508   -0.3422 C   0  0  0  0  0  0  0  0  0  0  0  0
    3.7757   -0.8518    1.7398 C   0  0  0  0  0  0  0  0  0  0  0  0
    1.4658    1.2592   -0.3874 C   0  0  0  0  0  0  0  0  0  0  0  0
    5.0758   -0.0915    1.4651 C   0  0  0  0  0  0  0  0  0  0  0  0
    0.8848   -1.8996   -0.6397 C   0  0  0  0  0  0  0  0  0  0  0  0
    3.6290   -0.4082   -2.0418 C   0  0  0  0  0  0  0  0  0  0  0  0
   -0.5987    0.2353    0.6178 C   0  0  0  0  0  0  0  0  0  0  0  0
   -0.5953   -2.1234   -0.3404 C   0  0  0  0  0  0  0  0  0  0  0  0
   -1.3032   -0.8753    0.1174 C   0  0  0  0  0  0  0  0  0  0  0  0
    5.9438    1.1912   -0.4837 C   0  0  0  0  0  0  0  0  0  0  0  0
   -1.3226    1.3466    1.0853 C   0  0  0  0  0  0  0  0  0  0  0  0
   -2.7073   -0.8545    0.1018 C   0  0  0  0  0  0  0  0  0  0  0  0
   -2.7168    1.3584    1.0554 C   0  0  0  0  0  0  0  0  0  0  0  0
   -3.4092    0.2580    0.5626 C   0  0  0  0  0  0  0  0  0  0  0  0
    6.5631    2.1593   -0.8302 C   0  0  0  0  0  0  0  0  0  0  0  0
   -5.3935    0.1231   -0.7339 C   0  0  0  0  0  0  0  0  0  0  0  0
   -6.3160    1.3073   -0.9783 C   0  0  0  0  0  0  0  0  0  0  0  0
   -6.3492   -1.0604   -0.7264 C   0  0  0  0  0  0  0  0  0  0  0  0
   -7.5803    0.9782   -0.1858 C   0  0  0  0  0  0  0  0  0  0  0  0
   -7.5853   -0.5391    0.0023 C   0  0  0  0  0  0  0  0  0  0  0  0
  1  6  1  0
  2 21  1  0
  2 23  1  0
  3  4  1  0
  3  6  1  0
  3  8  1  0
  3 13  1  0
  4  5  1  0
  4  9  1  0
  5  7  1  0
  5 12  1  0
  6 11  1  0
  6 17  1  0
  7 10  1  0
  7 14  1  0
  8 10  1  0
  9 11  1  0
 12 15  1  0
 14 16  2  0
 14 18  1  0
 15 16  1  0
 16 19  1  0
 17 22  3  0
 18 20  2  0
 19 21  2  0
 20 21  1  0
 23 24  1  0
 23 25  1  0
 24 26  1  0
 25 27  1  0
 26 27  1  0
M  END
>  <PUBCHEM_COMPOUND_CID>  (1) 
1451

>  <PUBCHEM_CONFORMER_RMSD>  (1) 
0.8

>  <PUBCHEM_CONFORMER_DIVERSEORDER>  (1) 
1
145
204
118
106
168
103
201
99
114
169
78
151
228
51
209
134
200
61
215
117
166
177
190
109
137
41
167
136
17
119
164
217
132
100
222
29
219
221
129
67
182
107
179
214
198
146
211
9
142
97
196
75
191
218
141
39
123
12
83
6
202
181
3
70
163
230
112
156
195
187
85
233
159
199
205
27
28
144
88
56
115
161
42
77
57
68
10
236
174
18
213
208
212
135
153
122
31
84
173
20
23
149
59
183
178
40
92
225
160
19
90
50
192
33
186
197
8
108
231
210
158
172
148
104
226
44
140
139
64
80
95
157
229
53
184
124
203
69
74
206
111
87
180
22
101
15
35
81
94
55
76
147
25
165
48
96
171
58
79
121
45
131
128
189
52
143
223
155
130
216
133
54
36
116
91
185
62
175
37
49
71
224
26
127
125
32
86
188
11
193
220
232
63
152
126
194
7
207
5
43
235
72
34
227
24
150
65
46
38
110
234
105
102
120
66
2
162
73
98
30
4
60
89
170
14
176
47
82
13
154
138
16
113
93
21

>  <PUBCHEM_MMFF94_PARTIAL_CHARGES>  (1) 
19
1 -0.68
14 -0.14
15 0.14
16 -0.14
17 -0.2
18 -0.15
19 -0.15
2 -0.36
20 -0.15
21 0.08
22 -0.18
23 0.28
46 0.4
47 0.15
48 0.15
49 0.15
50 0.18
6 0.48
7 0.14

>  <PUBCHEM_EFFECTIVE_ROTOR_COUNT>  (1) 
4.4

>  <PUBCHEM_PHARMACOPHORE_FEATURES>  (1) 
9
1 1 acceptor
1 1 donor
1 2 acceptor
1 22 hydrophobe
5 23 24 25 26 27 rings
5 3 4 6 9 11 rings
6 14 16 18 19 20 21 rings
6 3 4 5 7 8 10 rings
6 5 7 12 14 15 16 rings

>  <PUBCHEM_HEAVY_ATOM_COUNT>  (1) 
27

>  <PUBCHEM_ATOM_DEF_STEREO_COUNT>  (1) 
0

>  <PUBCHEM_ATOM_UDEF_STEREO_COUNT>  (1) 
5

>  <PUBCHEM_BOND_DEF_STEREO_COUNT>  (1) 
0

>  <PUBCHEM_BOND_UDEF_STEREO_COUNT>  (1) 
0

>  <PUBCHEM_ISOTOPIC_ATOM_COUNT>  (1) 
0

>  <PUBCHEM_COMPONENT_COUNT>  (1) 
1

>  <PUBCHEM_CACTVS_TAUTO_COUNT>  (1) 
1

>  <PUBCHEM_CONFORMER_ID>  (1) 
000005AB00000001

>  <PUBCHEM_MMFF94_ENERGY>  (1) 
91.9253

>  <PUBCHEM_FEATURE_SELFOVERLAP>  (1) 
45.897

>  <PUBCHEM_SHAPE_FINGERPRINT>  (1) 
10299344 5 11815896773615748893
10366900 7 16702031889615854146
10906281 52 18341343210414075643
11089746 13 14129060335436543839
11646440 116 17847065501899478811
11719270 70 18341608188100246155
11963148 33 18201992244824488087
12107698 1 17167857556744064117
12166972 35 18333731338581027357
12236239 1 18334010596826624810
12516196 113 17561360686924683105
12838862 33 18339066177520261672
13533116 47 18272084951200154298
13583140 156 17531256092377786105
13782708 43 14405183958636855821
14251764 18 18040432213687481509
14294032 229 18125448510285539641
14767858 380 18201997742312852717
15131766 46 17242746539758864412
15183329 4 18408881820410300245
15840311 113 17967817176261223508
15849732 13 18335422382599263516
17844677 252 14836405830987457211
18681886 176 18272364304172376873
20157964 124 17822010904493450010
2026 5 15768675070532413124
20511986 3 18187353359442323098
21033648 29 14779840419861580124
21049683 271 18340206388669805865
21150785 3 18410012165217715741
21267235 1 18060701715405073179
21521721 280 15913041053721089723
22122407 14 17023482900703359476
221357 26 16774078457976744552
22224240 67 14779264237150466593
23516275 137 13470147231989036773
23536379 177 17313099727369328315
23559900 14 17917144025972413656
23569914 152 15977231337821593437
23569917 315 18343025454146380630
23569943 247 17343240540158011382
23576562 1 18191587656357484613
24771750 20 17910396413597735069
2838139 119 17385438830770397877
29717793 49 18271811202784712916
3004659 81 18410572894509631761
3009799 131 18412543223678626793
335352 9 18410581678609185510
3472631 163 18337958995307248484
34797466 226 15985105245435459032
350125 39 18411416215765225809
4073 2 17313391166201025187
4325135 7 18060701688712181405
4340502 62 14117793609653367580
53794403 172 18127123293563218352
5486654 2 18202844362003096619
59755656 215 17917429800475112135
59755656 520 17530960307203736419

>  <PUBCHEM_SHAPE_MULTIPOLES>  (1) 
543.91
19.24
1.8
1.28
21.07
0
0
5.16
4.1
-0.88
0.24
-1.08
-0.01
-0.79

>  <PUBCHEM_SHAPE_SELFOVERLAP>  (1) 
1180.59

>  <PUBCHEM_SHAPE_VOLUME>  (1) 
296.6

>  <PUBCHEM_COORDINATE_TYPE>  (1) 
2
5
10

$$$$
