14519
     RDKit          3D

 10 10  0  0  0  0  0  0  0  0999 V2000
   -2.2961    0.0659   -0.0003 O   0  0  0  0  0  0  0  0  0  0  0  0
   -0.7146    2.3510   -0.0002 O   0  0  0  0  0  0  0  0  0  0  0  0
    1.8429   -0.2607   -0.0002 C   0  0  0  0  0  0  0  0  0  0  0  0
   -0.9374   -0.0328    0.0006 C   0  0  0  0  0  0  0  0  0  0  0  0
    1.2466    1.0004    0.0000 C   0  0  0  0  0  0  0  0  0  0  0  0
   -0.1437    1.1143    0.0004 C   0  0  0  0  0  0  0  0  0  0  0  0
    1.0490   -1.4077   -0.0001 C   0  0  0  0  0  0  0  0  0  0  0  0
   -0.3411   -1.2938    0.0004 C   0  0  0  0  0  0  0  0  0  0  0  0
    3.3292   -0.3824   -0.0002 C   0  0  0  0  0  0  0  0  0  0  0  0
   -3.0347   -1.1542   -0.0003 C   0  0  0  0  0  0  0  0  0  0  0  0
  1  4  1  0
  1 10  1  0
  2  6  1  0
  3  5  2  0
  3  7  1  0
  3  9  1  0
  4  6  2  0
  4  8  1  0
  5  6  1  0
  7  8  2  0
M  END
>  <PUBCHEM_COMPOUND_CID>  (1) 
14519

>  <PUBCHEM_CONFORMER_RMSD>  (1) 
0.4

>  <PUBCHEM_CONFORMER_DIVERSEORDER>  (1) 
3
1
2

>  <PUBCHEM_MMFF94_PARTIAL_CHARGES>  (1) 
14
1 -0.36
10 0.28
11 0.15
12 0.15
13 0.15
2 -0.53
20 0.45
3 -0.14
4 0.08
5 -0.15
6 0.08
7 -0.15
8 -0.15
9 0.14

>  <PUBCHEM_EFFECTIVE_ROTOR_COUNT>  (1) 
1

>  <PUBCHEM_PHARMACOPHORE_FEATURES>  (1) 
3
1 1 acceptor
1 2 donor
6 3 4 5 6 7 8 rings

>  <PUBCHEM_HEAVY_ATOM_COUNT>  (1) 
10

>  <PUBCHEM_ATOM_DEF_STEREO_COUNT>  (1) 
0

>  <PUBCHEM_ATOM_UDEF_STEREO_COUNT>  (1) 
0

>  <PUBCHEM_BOND_DEF_STEREO_COUNT>  (1) 
0

>  <PUBCHEM_BOND_UDEF_STEREO_COUNT>  (1) 
0

>  <PUBCHEM_ISOTOPIC_ATOM_COUNT>  (1) 
0

>  <PUBCHEM_COMPONENT_COUNT>  (1) 
1

>  <PUBCHEM_CACTVS_TAUTO_COUNT>  (1) 
9

>  <PUBCHEM_CONFORMER_ID>  (1) 
000038B700000003

>  <PUBCHEM_MMFF94_ENERGY>  (1) 
32.6439

>  <PUBCHEM_FEATURE_SELFOVERLAP>  (1) 
15.223

>  <PUBCHEM_SHAPE_FINGERPRINT>  (1) 
10219947 1 18341897436766815307
10857977 72 18411690006660029930
11206711 2 18336829688916483196
12032990 46 18410581716166924166
12423570 1 16331347211966652324
12897270 3 18411134706080266398
14128692 85 18271525424208683983
16945 1 18410575063388819430
18185500 45 18411980303510135343
193761 8 17834394523157287142
21040471 1 17978228588501532544
23402655 69 18195508326313311397
23552423 10 18044945567085731046
241688 4 18411416245428713217
2748010 2 18122907796141287758
29004967 10 18409451405391621475
5084963 1 18201440255309892538
528886 8 18411976949341130819

>  <PUBCHEM_SHAPE_MULTIPOLES>  (1) 
194.06
3.93
1.8
0.6
0.04
0.77
0
-1.39
0
0.36
0
-0.03
-0.02
0

>  <PUBCHEM_SHAPE_SELFOVERLAP>  (1) 
400.719

>  <PUBCHEM_SHAPE_VOLUME>  (1) 
112.6

>  <PUBCHEM_COORDINATE_TYPE>  (1) 
2
5
10

$$$$
