14527
     RDKit          3D

 11 11  0  0  0  0  0  0  0  0999 V2000
    1.4205    0.0543   -0.2398 C   0  0  0  0  0  0  0  0  0  0  0  0
    2.0539    1.1800    0.6094 C   0  0  0  0  0  0  0  0  0  0  0  0
    2.0664   -1.3020    0.1248 C   0  0  0  0  0  0  0  0  0  0  0  0
   -0.0942    0.0209   -0.1062 C   0  0  0  0  0  0  0  0  0  0  0  0
    1.6226    2.5766    0.1769 C   0  0  0  0  0  0  0  0  0  0  0  0
    1.5905   -2.4521   -0.7550 C   0  0  0  0  0  0  0  0  0  0  0  0
   -0.6605   -0.7541    0.8858 C   0  0  0  0  0  0  0  0  0  0  0  0
   -0.8586    0.7663   -0.9812 C   0  0  0  0  0  0  0  0  0  0  0  0
   -2.0497   -0.7852    1.0082 C   0  0  0  0  0  0  0  0  0  0  0  0
   -2.2477    0.7355   -0.8588 C   0  0  0  0  0  0  0  0  0  0  0  0
   -2.8432   -0.0403    0.1359 C   0  0  0  0  0  0  0  0  0  0  0  0
  1  2  1  0
  1  3  1  0
  1  4  1  0
  2  5  1  0
  3  6  1  0
  4  7  2  0
  4  8  1  0
  7  9  1  0
  8 10  2  0
  9 11  2  0
 10 11  1  0
M  END
>  <PUBCHEM_COMPOUND_CID>  (1) 
14527

>  <PUBCHEM_CONFORMER_RMSD>  (1) 
0.6

>  <PUBCHEM_CONFORMER_DIVERSEORDER>  (1) 
1
5
3
2
6
4

>  <PUBCHEM_MMFF94_PARTIAL_CHARGES>  (1) 
12
1 0.14
10 -0.15
11 -0.15
23 0.15
24 0.15
25 0.15
26 0.15
27 0.15
4 -0.14
7 -0.15
8 -0.15
9 -0.15

>  <PUBCHEM_EFFECTIVE_ROTOR_COUNT>  (1) 
3

>  <PUBCHEM_PHARMACOPHORE_FEATURES>  (1) 
3
1 5 hydrophobe
1 6 hydrophobe
6 4 7 8 9 10 11 rings

>  <PUBCHEM_HEAVY_ATOM_COUNT>  (1) 
11

>  <PUBCHEM_ATOM_DEF_STEREO_COUNT>  (1) 
0

>  <PUBCHEM_ATOM_UDEF_STEREO_COUNT>  (1) 
0

>  <PUBCHEM_BOND_DEF_STEREO_COUNT>  (1) 
0

>  <PUBCHEM_BOND_UDEF_STEREO_COUNT>  (1) 
0

>  <PUBCHEM_ISOTOPIC_ATOM_COUNT>  (1) 
0

>  <PUBCHEM_COMPONENT_COUNT>  (1) 
1

>  <PUBCHEM_CACTVS_TAUTO_COUNT>  (1) 
1

>  <PUBCHEM_CONFORMER_ID>  (1) 
000038BF00000001

>  <PUBCHEM_MMFF94_ENERGY>  (1) 
24.1099

>  <PUBCHEM_FEATURE_SELFOVERLAP>  (1) 
15.223

>  <PUBCHEM_SHAPE_FINGERPRINT>  (1) 
1 1 18341048639844663324
10857977 72 17386569197116004705
12326174 3 17989218031454451582
12423570 1 14932650180622021764
12524768 44 18260265274115162245
14648413 74 18408600344642337825
15219456 202 18334574654865706160
16945 1 18412826888819210733
17990270 104 18410290276902756714
18380122 1 18116156760381567739
19973954 147 18409728448052058633
20201158 50 18336263418906057206
20379382 53 18196961974245700145
20645464 45 18113609105998603201
20711978 78 18413108350884736942
20711985 344 17404025816786530222
20871998 184 17685783818703707947
21040471 1 17168977881735467341
21061003 4 18198629839244175210
23211744 41 18115016540858594505
23559900 14 17755009801761860522
2748010 2 17968098633683303599
29004967 10 18270960120539376786
369184 2 18343581854479052361
5084963 1 17749394715414264013
81228 2 17476080129606282480

>  <PUBCHEM_SHAPE_MULTIPOLES>  (1) 
226.37
3.72
2.26
1.03
1.38
0.16
0.01
0.04
-0.17
-2.12
0.2
0.3
-0.09
0.81

>  <PUBCHEM_SHAPE_SELFOVERLAP>  (1) 
453.055

>  <PUBCHEM_SHAPE_VOLUME>  (1) 
130.6

>  <PUBCHEM_COORDINATE_TYPE>  (1) 
2
5
10

$$$$
