14522
     RDKit          3D

 10 11  0  0  0  0  0  0  0  0999 V2000
    1.5140    0.0003    0.1905 N   0  0  0  0  0  0  0  0  0  0  0  0
   -0.6243    1.3710    0.0023 C   0  0  0  0  0  0  0  0  0  0  0  0
   -0.6241   -1.3712    0.0007 C   0  0  0  0  0  0  0  0  0  0  0  0
   -1.0248    0.7671    1.3573 C   0  0  0  0  0  0  0  0  0  0  0  0
   -1.4706    0.7623   -1.1195 C   0  0  0  0  0  0  0  0  0  0  0  0
   -1.0268   -0.7687    1.3556 C   0  0  0  0  0  0  0  0  0  0  0  0
   -1.4677   -0.7610   -1.1224 C   0  0  0  0  0  0  0  0  0  0  0  0
    0.8879    1.2354   -0.2827 C   0  0  0  0  0  0  0  0  0  0  0  0
    0.8887   -1.2359   -0.2811 C   0  0  0  0  0  0  0  0  0  0  0  0
    2.9479    0.0007   -0.1005 C   0  0  0  0  0  0  0  0  0  0  0  0
  1  8  1  0
  1  9  1  0
  1 10  1  0
  2  4  1  0
  2  5  1  0
  2  8  1  0
  3  6  1  0
  3  7  1  0
  3  9  1  0
  4  6  1  0
  5  7  1  0
M  END
>  <PUBCHEM_COMPOUND_CID>  (1) 
14522

>  <PUBCHEM_CONFORMER_RMSD>  (1) 
0.4

>  <PUBCHEM_CONFORMER_DIVERSEORDER>  (1) 
1
2

>  <PUBCHEM_MMFF94_PARTIAL_CHARGES>  (1) 
4
1 -0.81
10 0.27
8 0.27
9 0.27

>  <PUBCHEM_EFFECTIVE_ROTOR_COUNT>  (1) 
1.4

>  <PUBCHEM_PHARMACOPHORE_FEATURES>  (1) 
2
1 1 cation
9 1 2 3 4 5 6 7 8 9 rings

>  <PUBCHEM_HEAVY_ATOM_COUNT>  (1) 
10

>  <PUBCHEM_ATOM_DEF_STEREO_COUNT>  (1) 
0

>  <PUBCHEM_ATOM_UDEF_STEREO_COUNT>  (1) 
0

>  <PUBCHEM_BOND_DEF_STEREO_COUNT>  (1) 
0

>  <PUBCHEM_BOND_UDEF_STEREO_COUNT>  (1) 
0

>  <PUBCHEM_ISOTOPIC_ATOM_COUNT>  (1) 
0

>  <PUBCHEM_COMPONENT_COUNT>  (1) 
1

>  <PUBCHEM_CACTVS_TAUTO_COUNT>  (1) 
1

>  <PUBCHEM_CONFORMER_ID>  (1) 
000038BA00000001

>  <PUBCHEM_MMFF94_ENERGY>  (1) 
26.225

>  <PUBCHEM_FEATURE_SELFOVERLAP>  (1) 
10.148

>  <PUBCHEM_SHAPE_FINGERPRINT>  (1) 
10702982 57 16628286385613847481
12423570 1 14083156158489004785
13024252 1 15357698604093219272
137420 1 9425722283070902281
16945 1 18266714983432560397
18185500 45 17477500058283648346
20653085 51 18187920625853753308
21040471 1 18194396697828126412
21922407 69 16414083095218884280
241688 4 17907286659479127218
29004967 10 17174061215816414937
369184 2 17022902354584702784
5084963 1 18342454885035766638
528886 8 18267283401032408261
68250623 7 17907017279531281185

>  <PUBCHEM_SHAPE_MULTIPOLES>  (1) 
200.81
2.58
1.55
1.26
2.31
0
-0.21
0
0.28
-0.24
0.06
-0.74
0
0

>  <PUBCHEM_SHAPE_SELFOVERLAP>  (1) 
405.648

>  <PUBCHEM_SHAPE_VOLUME>  (1) 
112.8

>  <PUBCHEM_COORDINATE_TYPE>  (1) 
2
5
10

$$$$
