14524
     RDKit          3D

 10 10  0  0  0  0  0  0  0  0999 V2000
    3.6862   -0.5985    0.6795 F   0  0  0  0  0  0  0  0  0  0  0  0
    1.0784   -0.3372   -0.2401 N   0  0  0  0  0  0  0  0  0  0  0  0
    1.9949    0.7601   -0.2062 C   0  0  0  0  0  0  0  0  0  0  0  0
   -0.3165   -0.1745   -0.1096 C   0  0  0  0  0  0  0  0  0  0  0  0
   -0.8568    1.1000    0.0612 C   0  0  0  0  0  0  0  0  0  0  0  0
   -1.1557   -1.2878   -0.1522 C   0  0  0  0  0  0  0  0  0  0  0  0
    3.4169    0.2553   -0.3448 C   0  0  0  0  0  0  0  0  0  0  0  0
   -2.2364    1.2613    0.1896 C   0  0  0  0  0  0  0  0  0  0  0  0
   -2.5353   -1.1266   -0.0241 C   0  0  0  0  0  0  0  0  0  0  0  0
   -3.0756    0.1480    0.1468 C   0  0  0  0  0  0  0  0  0  0  0  0
  1  7  1  0
  2  3  1  0
  2  4  1  0
  3  7  1  0
  4  5  2  0
  4  6  1  0
  5  8  1  0
  6  9  2  0
  8 10  2  0
  9 10  1  0
M  END
>  <PUBCHEM_COMPOUND_CID>  (1) 
14524

>  <PUBCHEM_CONFORMER_RMSD>  (1) 
0.6

>  <PUBCHEM_CONFORMER_DIVERSEORDER>  (1) 
1
6
7
4
2
5
3

>  <PUBCHEM_MMFF94_PARTIAL_CHARGES>  (1) 
16
1 -0.34
10 -0.15
13 0.4
14 0.15
15 0.15
18 0.15
19 0.15
2 -0.87
20 0.15
3 0.37
4 0.1
5 -0.15
6 -0.15
7 0.34
8 -0.15
9 -0.15

>  <PUBCHEM_EFFECTIVE_ROTOR_COUNT>  (1) 
3

>  <PUBCHEM_PHARMACOPHORE_FEATURES>  (1) 
3
1 2 cation
1 2 donor
6 4 5 6 8 9 10 rings

>  <PUBCHEM_HEAVY_ATOM_COUNT>  (1) 
10

>  <PUBCHEM_ATOM_DEF_STEREO_COUNT>  (1) 
0

>  <PUBCHEM_ATOM_UDEF_STEREO_COUNT>  (1) 
0

>  <PUBCHEM_BOND_DEF_STEREO_COUNT>  (1) 
0

>  <PUBCHEM_BOND_UDEF_STEREO_COUNT>  (1) 
0

>  <PUBCHEM_ISOTOPIC_ATOM_COUNT>  (1) 
0

>  <PUBCHEM_COMPONENT_COUNT>  (1) 
1

>  <PUBCHEM_CACTVS_TAUTO_COUNT>  (1) 
1

>  <PUBCHEM_CONFORMER_ID>  (1) 
000038BC00000001

>  <PUBCHEM_MMFF94_ENERGY>  (1) 
27.8436

>  <PUBCHEM_FEATURE_SELFOVERLAP>  (1) 
15.223

>  <PUBCHEM_SHAPE_FINGERPRINT>  (1) 
10857977 72 18272647995436614545
12932764 1 17676200278003761988
13024252 1 15213018258893902549
14144814 61 18408323285202815120
14325111 11 18410858758926912708
15669948 3 18270119144599839678
20201158 50 18060142032940471894
20645464 45 17846504720508870015
20871998 184 18058738034223434655
23402539 116 18201710752730028981
23463225 33 18334857186747314926
23552423 10 18045785855672076869
3248919 1 17775575233970044724
369184 2 18114181955877917941
6333449 129 18272651251222213453

>  <PUBCHEM_SHAPE_MULTIPOLES>  (1) 
193.54
5.72
1.31
0.66
4.75
0.02
0.01
-0.24
0.45
-0.74
0.01
0.14
-0.02
-0.25

>  <PUBCHEM_SHAPE_SELFOVERLAP>  (1) 
390.781

>  <PUBCHEM_SHAPE_VOLUME>  (1) 
113.3

>  <PUBCHEM_COORDINATE_TYPE>  (1) 
2
5
10

$$$$
