14533
     RDKit          3D

 11 11  0  0  0  0  0  0  0  0999 V2000
    3.9225   -0.0452   -0.1029 O   0  0  0  0  0  0  0  0  0  0  0  0
    2.2635    0.0945    1.4407 O   0  0  0  0  0  0  0  0  0  0  0  0
   -3.8261    0.0098    0.5042 N   0  0  0  0  0  0  0  0  0  0  0  0
    0.2402   -0.0168   -0.5480 C   0  0  0  0  0  0  0  0  0  0  0  0
    1.6840   -0.0263   -0.9215 C   0  0  0  0  0  0  0  0  0  0  0  0
   -0.4324   -1.2197   -0.3334 C   0  0  0  0  0  0  0  0  0  0  0  0
   -0.4375    1.1950   -0.4134 C   0  0  0  0  0  0  0  0  0  0  0  0
   -2.4606    0.0007    0.1503 C   0  0  0  0  0  0  0  0  0  0  0  0
   -1.7829   -1.2109    0.0157 C   0  0  0  0  0  0  0  0  0  0  0  0
   -1.7880    1.2036   -0.0641 C   0  0  0  0  0  0  0  0  0  0  0  0
    2.6174    0.0152    0.2724 C   0  0  0  0  0  0  0  0  0  0  0  0
  1 11  1  0
  2 11  2  0
  3  8  1  0
  4  5  1  0
  4  6  2  0
  4  7  1  0
  5 11  1  0
  6  9  1  0
  7 10  2  0
  8  9  2  0
  8 10  1  0
M  END
>  <PUBCHEM_COMPOUND_CID>  (1) 
14533

>  <PUBCHEM_CONFORMER_RMSD>  (1) 
0.4

>  <PUBCHEM_CONFORMER_DIVERSEORDER>  (1) 
1
7
6
2
5
9
3
4
8

>  <PUBCHEM_MMFF94_PARTIAL_CHARGES>  (1) 
18
1 -0.65
10 -0.15
11 0.66
14 0.15
15 0.15
16 0.15
17 0.15
18 0.4
19 0.4
2 -0.57
20 0.5
3 -0.9
4 -0.14
5 0.2
6 -0.15
7 -0.15
8 0.1
9 -0.15

>  <PUBCHEM_EFFECTIVE_ROTOR_COUNT>  (1) 
2

>  <PUBCHEM_PHARMACOPHORE_FEATURES>  (1) 
6
1 1 acceptor
1 2 acceptor
1 3 cation
1 3 donor
3 1 2 11 anion
6 4 6 7 8 9 10 rings

>  <PUBCHEM_HEAVY_ATOM_COUNT>  (1) 
11

>  <PUBCHEM_ATOM_DEF_STEREO_COUNT>  (1) 
0

>  <PUBCHEM_ATOM_UDEF_STEREO_COUNT>  (1) 
0

>  <PUBCHEM_BOND_DEF_STEREO_COUNT>  (1) 
0

>  <PUBCHEM_BOND_UDEF_STEREO_COUNT>  (1) 
0

>  <PUBCHEM_ISOTOPIC_ATOM_COUNT>  (1) 
0

>  <PUBCHEM_COMPONENT_COUNT>  (1) 
1

>  <PUBCHEM_CACTVS_TAUTO_COUNT>  (1) 
1

>  <PUBCHEM_CONFORMER_ID>  (1) 
000038C500000001

>  <PUBCHEM_MMFF94_ENERGY>  (1) 
31.7719

>  <PUBCHEM_FEATURE_SELFOVERLAP>  (1) 
30.504

>  <PUBCHEM_SHAPE_FINGERPRINT>  (1) 
10857977 72 18412544327389938445
11031198 65 16558757818986700628
11062470 55 15430036556326729133
11769659 78 16009035041997535323
12119455 92 17203324473002898213
12932764 1 17846489318808985158
13024252 1 14995999930620858085
15310529 11 16298102103268684623
15775835 57 18342458127567452154
16945 1 18410016537452023911
20645464 45 17846501426079121479
20653085 51 14979950406365820264
20871998 184 18200036273345443567
22445834 79 17749101158684104418
23402539 116 18272925025612654605
23552423 10 17608943314867628045
2748010 2 18048890597842184663
369184 2 17632290177093908543
5084963 1 18271537402640175612
6333449 129 17917987304478385423

>  <PUBCHEM_SHAPE_MULTIPOLES>  (1) 
209.66
5.33
1.16
0.9
1.58
0.01
-0.13
0.01
-1.16
-0.61
0.11
0.42
-0.01
0.03

>  <PUBCHEM_SHAPE_SELFOVERLAP>  (1) 
434.469

>  <PUBCHEM_SHAPE_VOLUME>  (1) 
119.9

>  <PUBCHEM_COORDINATE_TYPE>  (1) 
2
5
10

$$$$
