14535
     RDKit          3D

 12 13  0  0  0  0  0  0  0  0999 V2000
   -3.3698   -0.1384   -0.0005 O   0  0  0  0  0  0  0  0  0  0  0  0
   -1.4691   -2.1579    0.0004 N   0  0  0  0  0  0  0  0  0  0  0  0
    0.3004   -0.4537    0.0000 C   0  0  0  0  0  0  0  0  0  0  0  0
    0.6674    0.9131    0.0000 C   0  0  0  0  0  0  0  0  0  0  0  0
   -1.0607   -0.7994    0.0000 C   0  0  0  0  0  0  0  0  0  0  0  0
   -0.3378    1.8941    0.0002 C   0  0  0  0  0  0  0  0  0  0  0  0
    1.3054   -1.4348   -0.0001 C   0  0  0  0  0  0  0  0  0  0  0  0
   -2.0459    0.1883    0.0001 C   0  0  0  0  0  0  0  0  0  0  0  0
    2.0285    1.2587    0.0000 C   0  0  0  0  0  0  0  0  0  0  0  0
   -1.6852    1.5324    0.0001 C   0  0  0  0  0  0  0  0  0  0  0  0
    2.6530   -1.0732   -0.0001 C   0  0  0  0  0  0  0  0  0  0  0  0
    3.0138    0.2709   -0.0001 C   0  0  0  0  0  0  0  0  0  0  0  0
  1  8  1  0
  2  5  1  0
  3  4  1  0
  3  5  2  0
  3  7  1  0
  4  6  2  0
  4  9  1  0
  5  8  1  0
  6 10  1  0
  7 11  2  0
  8 10  2  0
  9 12  2  0
 11 12  1  0
M  END
>  <PUBCHEM_COMPOUND_CID>  (1) 
14535

>  <PUBCHEM_CONFORMER_RMSD>  (1) 
0.4

>  <PUBCHEM_CONFORMER_DIVERSEORDER>  (1) 
1

>  <PUBCHEM_MMFF94_PARTIAL_CHARGES>  (1) 
19
1 -0.53
10 -0.15
11 -0.15
12 -0.15
13 0.15
14 0.15
15 0.15
16 0.15
17 0.15
18 0.15
19 0.4
2 -0.9
20 0.4
21 0.45
5 0.1
6 -0.15
7 -0.15
8 0.08
9 -0.15

>  <PUBCHEM_EFFECTIVE_ROTOR_COUNT>  (1) 
0

>  <PUBCHEM_PHARMACOPHORE_FEATURES>  (1) 
5
1 1 donor
1 2 cation
1 2 donor
6 3 4 5 6 8 10 rings
6 3 4 7 9 11 12 rings

>  <PUBCHEM_HEAVY_ATOM_COUNT>  (1) 
12

>  <PUBCHEM_ATOM_DEF_STEREO_COUNT>  (1) 
0

>  <PUBCHEM_ATOM_UDEF_STEREO_COUNT>  (1) 
0

>  <PUBCHEM_BOND_DEF_STEREO_COUNT>  (1) 
0

>  <PUBCHEM_BOND_UDEF_STEREO_COUNT>  (1) 
0

>  <PUBCHEM_ISOTOPIC_ATOM_COUNT>  (1) 
0

>  <PUBCHEM_COMPONENT_COUNT>  (1) 
1

>  <PUBCHEM_CACTVS_TAUTO_COUNT>  (1) 
7

>  <PUBCHEM_CONFORMER_ID>  (1) 
000038C700000001

>  <PUBCHEM_MMFF94_ENERGY>  (1) 
47.5688

>  <PUBCHEM_FEATURE_SELFOVERLAP>  (1) 
25.402

>  <PUBCHEM_SHAPE_FINGERPRINT>  (1) 
10967382 1 18410574006657949126
11206711 2 18264489490146117181
12032990 46 18409738360878567931
12423570 1 12462702028752876323
12524768 44 18412831265391099870
12897270 3 18410856581362604428
13380535 76 18411696590929550310
14325111 11 18338797818872305152
16945 1 18410856559803456292
17844478 74 18040726852675819665
193761 8 17618223248666467652
20201158 50 18410291406442141346
20588541 1 18411984675760319427
20871998 184 18201441414787837663
21040471 1 18338797797634663620
21501502 16 18339082571114641600
2334 1 17978229692276407650
23402539 116 18270666606827169695
23402655 69 18341320120659479349
23463225 33 18335981991363462146
23552423 10 18261113040519359500
23559900 14 18198910211300585878
2748010 2 18050849115313038668
369184 2 18411979135310633824
5084963 1 18129938962315253416
528886 8 18411695525877556522
53812653 166 18200026386509887800
8809292 202 18333455360808845842

>  <PUBCHEM_SHAPE_MULTIPOLES>  (1) 
236.1
4.12
2
0.6
0.04
0.12
0
0.31
0
-0.25
0
0.04
-0.02
0

>  <PUBCHEM_SHAPE_SELFOVERLAP>  (1) 
521.482

>  <PUBCHEM_SHAPE_VOLUME>  (1) 
127.6

>  <PUBCHEM_COORDINATE_TYPE>  (1) 
2
5
10

$$$$
