14540
     RDKit          3D

 12 13  0  0  0  0  0  0  0  0999 V2000
    0.7514    0.5003    0.0392 N   0  0  0  0  0  0  0  0  0  0  0  0
    3.9721   -0.7093    0.2619 N   0  0  0  0  0  0  0  0  0  0  0  0
   -0.9092   -1.4082   -0.2581 C   0  0  0  0  0  0  0  0  0  0  0  0
   -1.6944    1.1568    0.3111 C   0  0  0  0  0  0  0  0  0  0  0  0
   -2.0396   -0.9026   -1.1590 C   0  0  0  0  0  0  0  0  0  0  0  0
   -1.2753   -1.2034    1.2201 C   0  0  0  0  0  0  0  0  0  0  0  0
   -2.4781    0.5211   -0.8407 C   0  0  0  0  0  0  0  0  0  0  0  0
   -1.7129    0.2337    1.5395 C   0  0  0  0  0  0  0  0  0  0  0  0
    0.4470   -0.7670   -0.6263 C   0  0  0  0  0  0  0  0  0  0  0  0
   -0.2615    1.5449   -0.1163 C   0  0  0  0  0  0  0  0  0  0  0  0
    2.0703    0.9926   -0.3597 C   0  0  0  0  0  0  0  0  0  0  0  0
    3.1304    0.0412   -0.0118 C   0  0  0  0  0  0  0  0  0  0  0  0
  1  9  1  0
  1 10  1  0
  1 11  1  0
  2 12  3  0
  3  5  1  0
  3  6  1  0
  3  9  1  0
  4  7  1  0
  4  8  1  0
  4 10  1  0
  5  7  1  0
  6  8  1  0
 11 12  1  0
M  END
>  <PUBCHEM_COMPOUND_CID>  (1) 
14540

>  <PUBCHEM_CONFORMER_RMSD>  (1) 
0.6

>  <PUBCHEM_CONFORMER_DIVERSEORDER>  (1) 
1
2

>  <PUBCHEM_MMFF94_PARTIAL_CHARGES>  (1) 
6
1 -0.81
10 0.27
11 0.47
12 0.36
2 -0.56
9 0.27

>  <PUBCHEM_EFFECTIVE_ROTOR_COUNT>  (1) 
2.4

>  <PUBCHEM_PHARMACOPHORE_FEATURES>  (1) 
3
1 1 cation
1 2 acceptor
9 1 3 4 5 6 7 8 9 10 rings

>  <PUBCHEM_HEAVY_ATOM_COUNT>  (1) 
12

>  <PUBCHEM_ATOM_DEF_STEREO_COUNT>  (1) 
0

>  <PUBCHEM_ATOM_UDEF_STEREO_COUNT>  (1) 
0

>  <PUBCHEM_BOND_DEF_STEREO_COUNT>  (1) 
0

>  <PUBCHEM_BOND_UDEF_STEREO_COUNT>  (1) 
0

>  <PUBCHEM_ISOTOPIC_ATOM_COUNT>  (1) 
0

>  <PUBCHEM_COMPONENT_COUNT>  (1) 
1

>  <PUBCHEM_CACTVS_TAUTO_COUNT>  (1) 
1

>  <PUBCHEM_CONFORMER_ID>  (1) 
000038CC00000001

>  <PUBCHEM_MMFF94_ENERGY>  (1) 
29.2764

>  <PUBCHEM_FEATURE_SELFOVERLAP>  (1) 
15.223

>  <PUBCHEM_SHAPE_FINGERPRINT>  (1) 
12423570 1 9981640090986343595
12932764 1 18269848647807496076
13024252 1 17603304856078925975
14577589 140 18334016051709215292
14713566 1 18131058338514991343
14817 1 10034563670192742923
15775835 57 18130790005906104464
16945 1 17489597787334881213
20653085 51 17749378295770310901
23402539 116 17846767499714650029
23419403 2 16412627303411680905
23552423 10 18118687866298135084
3248919 1 16988571216562396844
369184 2 18336269036596342065
5084963 1 18130783498998982924
528886 8 18270951376312802021

>  <PUBCHEM_SHAPE_MULTIPOLES>  (1) 
236.99
4.53
1.51
1.18
5.48
0.05
0.26
-0.4
-0.06
-0.37
-0.03
-0.85
-0.18
-0.16

>  <PUBCHEM_SHAPE_SELFOVERLAP>  (1) 
481.222

>  <PUBCHEM_SHAPE_VOLUME>  (1) 
130.4

>  <PUBCHEM_COORDINATE_TYPE>  (1) 
2
5
10

$$$$
