14546
     RDKit          3D

 13 13  0  0  0  0  0  0  0  0999 V2000
   -0.2662   -2.5971   -0.0270 Cl  0  0  0  0  0  0  0  0  0  0  0  0
   -4.7228    0.3819    0.3827 Cl  0  0  0  0  0  0  0  0  0  0  0  0
    4.2080    0.3880    1.2309 O   0  0  0  0  0  0  0  0  0  0  0  0
    3.9673    0.0615   -1.0138 O   0  0  0  0  0  0  0  0  0  0  0  0
   -0.2731    0.1238   -0.3100 C   0  0  0  0  0  0  0  0  0  0  0  0
   -1.0095   -1.0362   -0.0693 C   0  0  0  0  0  0  0  0  0  0  0  0
   -0.9126    1.3632   -0.3358 C   0  0  0  0  0  0  0  0  0  0  0  0
   -2.3853   -0.9568    0.1456 C   0  0  0  0  0  0  0  0  0  0  0  0
   -2.2885    1.4425   -0.1210 C   0  0  0  0  0  0  0  0  0  0  0  0
    1.1668    0.0970   -0.5396 C   0  0  0  0  0  0  0  0  0  0  0  0
   -3.0250    0.2825    0.1197 C   0  0  0  0  0  0  0  0  0  0  0  0
    2.0518    0.2370    0.4400 C   0  0  0  0  0  0  0  0  0  0  0  0
    3.4891    0.2127    0.0976 C   0  0  0  0  0  0  0  0  0  0  0  0
  1  6  1  0
  2 11  1  0
  3 13  1  0
  4 13  2  0
  5  6  2  0
  5  7  1  0
  5 10  1  0
  6  8  1  0
  7  9  2  0
  8 11  2  0
  9 11  1  0
 10 12  2  0
 12 13  1  0
M  END
>  <PUBCHEM_COMPOUND_CID>  (1) 
14546

>  <PUBCHEM_CONFORMER_RMSD>  (1) 
0.6

>  <PUBCHEM_CONFORMER_DIVERSEORDER>  (1) 
1
3
2

>  <PUBCHEM_MMFF94_PARTIAL_CHARGES>  (1) 
19
1 -0.18
10 -0.18
11 0.18
12 -0.14
13 0.71
14 0.15
15 0.15
16 0.15
17 0.15
18 0.15
19 0.5
2 -0.18
3 -0.65
4 -0.57
5 0.03
6 0.18
7 -0.15
8 -0.15
9 -0.15

>  <PUBCHEM_EFFECTIVE_ROTOR_COUNT>  (1) 
2

>  <PUBCHEM_PHARMACOPHORE_FEATURES>  (1) 
4
1 3 acceptor
1 4 acceptor
3 3 4 13 anion
6 5 6 7 8 9 11 rings

>  <PUBCHEM_HEAVY_ATOM_COUNT>  (1) 
13

>  <PUBCHEM_ATOM_DEF_STEREO_COUNT>  (1) 
0

>  <PUBCHEM_ATOM_UDEF_STEREO_COUNT>  (1) 
0

>  <PUBCHEM_BOND_DEF_STEREO_COUNT>  (1) 
0

>  <PUBCHEM_BOND_UDEF_STEREO_COUNT>  (1) 
1

>  <PUBCHEM_ISOTOPIC_ATOM_COUNT>  (1) 
0

>  <PUBCHEM_COMPONENT_COUNT>  (1) 
1

>  <PUBCHEM_CACTVS_TAUTO_COUNT>  (1) 
1

>  <PUBCHEM_CONFORMER_ID>  (1) 
000038D200000001

>  <PUBCHEM_MMFF94_ENERGY>  (1) 
31.5078

>  <PUBCHEM_FEATURE_SELFOVERLAP>  (1) 
20.353

>  <PUBCHEM_SHAPE_FINGERPRINT>  (1) 
11132069 177 18413107273037823501
11401426 45 18411414012858134885
12119455 92 17346878931744763565
12251169 10 18335135414676047744
12346645 44 18201160940954880977
13024252 1 14129053712544271357
13380535 76 18408043992217638595
13581323 91 18333450945423826548
14144814 61 18334009493341705056
14325111 11 18410292467351759108
14993402 34 18187086169468849381
15042514 8 18335986479694678483
15209294 21 18059024865435748777
15219456 202 18201162031380806031
15309172 13 18408604751389261123
15536298 74 18269558247424754631
15669948 3 18263364853444949494
15775835 57 18412544297203965227
16945 1 18335713723759385405
17846911 113 18412543206414075745
18186145 218 17988925544097340576
19422 9 17603303756693957378
200 152 14634863154439460472
20279233 1 17917994992765081734
20510252 161 18271526403329683737
20528008 55 18343579663634430601
20645464 45 18131069350484019276
20645476 183 17387151933620067342
20645477 56 18412823620771358056
20871998 184 18270124654837450871
23402539 116 18342729733125814293
23463225 33 18115021909842228762
23559900 14 18272093807907378820
2748010 2 17974295318203806013
3250762 1 17540526921115120189
366044 4 18410856564304294859
4072396 5 18187634770400582819
43471831 8 18262234422042050771
53812653 166 18343300362153648113
69090 78 17846494846421488727
7364860 26 18054510209935031343
77492 1 17530686532648991980
81228 2 17979619453504861507
81539 233 18115024100333799335

>  <PUBCHEM_SHAPE_MULTIPOLES>  (1) 
259.53
7.54
1.7
0.83
2.76
1.19
-0.05
-2.01
-1.35
-0.74
0.08
0.56
-0.06
0.14

>  <PUBCHEM_SHAPE_SELFOVERLAP>  (1) 
524.716

>  <PUBCHEM_SHAPE_VOLUME>  (1) 
153.2

>  <PUBCHEM_COORDINATE_TYPE>  (1) 
2
5
10

$$$$
