14558
     RDKit          3D

 14 15  0  0  0  0  0  0  0  0999 V2000
    4.8691    0.5108   -0.0541 O   0  0  0  0  0  0  0  0  0  0  0  0
    3.9477   -1.5744    0.0282 O   0  0  0  0  0  0  0  0  0  0  0  0
   -1.4000    2.0050    0.0066 N   0  0  0  0  0  0  0  0  0  0  0  0
   -1.1628   -0.2133    0.0059 C   0  0  0  0  0  0  0  0  0  0  0  0
   -2.1016    0.8205   -0.0007 C   0  0  0  0  0  0  0  0  0  0  0  0
    0.1249    0.3921    0.0179 C   0  0  0  0  0  0  0  0  0  0  0  0
   -0.0538    1.7563    0.0178 C   0  0  0  0  0  0  0  0  0  0  0  0
   -1.6211   -1.5457    0.0000 C   0  0  0  0  0  0  0  0  0  0  0  0
   -3.4814    0.5875   -0.0127 C   0  0  0  0  0  0  0  0  0  0  0  0
    1.3847   -0.2465    0.0276 C   0  0  0  0  0  0  0  0  0  0  0  0
   -2.9984   -1.7939   -0.0120 C   0  0  0  0  0  0  0  0  0  0  0  0
   -3.9124   -0.7421   -0.0180 C   0  0  0  0  0  0  0  0  0  0  0  0
    2.5704    0.4044   -0.0010 C   0  0  0  0  0  0  0  0  0  0  0  0
    3.8345   -0.3608   -0.0055 C   0  0  0  0  0  0  0  0  0  0  0  0
  1 14  1  0
  2 14  2  0
  3  5  1  0
  3  7  1  0
  4  5  2  0
  4  6  1  0
  4  8  1  0
  5  9  1  0
  6  7  2  0
  6 10  1  0
  8 11  2  0
  9 12  2  0
 10 13  2  0
 11 12  1  0
 13 14  1  0
M  END
>  <PUBCHEM_COMPOUND_CID>  (1) 
14558

>  <PUBCHEM_CONFORMER_RMSD>  (1) 
0.6

>  <PUBCHEM_CONFORMER_DIVERSEORDER>  (1) 
1
3
2

>  <PUBCHEM_MMFF94_PARTIAL_CHARGES>  (1) 
22
1 -0.65
10 -0.1
11 -0.15
12 -0.15
13 -0.14
14 0.71
15 0.27
16 0.15
17 0.15
18 0.15
19 0.15
2 -0.57
20 0.15
21 0.15
22 0.15
23 0.5
3 0.03
5 -0.15
6 -0.05
7 -0.3
8 -0.15
9 -0.15

>  <PUBCHEM_EFFECTIVE_ROTOR_COUNT>  (1) 
2

>  <PUBCHEM_PHARMACOPHORE_FEATURES>  (1) 
7
1 1 acceptor
1 2 acceptor
1 3 cation
1 3 donor
3 1 2 14 anion
5 3 4 5 6 7 rings
6 4 5 8 9 11 12 rings

>  <PUBCHEM_HEAVY_ATOM_COUNT>  (1) 
14

>  <PUBCHEM_ATOM_DEF_STEREO_COUNT>  (1) 
0

>  <PUBCHEM_ATOM_UDEF_STEREO_COUNT>  (1) 
0

>  <PUBCHEM_BOND_DEF_STEREO_COUNT>  (1) 
0

>  <PUBCHEM_BOND_UDEF_STEREO_COUNT>  (1) 
1

>  <PUBCHEM_ISOTOPIC_ATOM_COUNT>  (1) 
0

>  <PUBCHEM_COMPONENT_COUNT>  (1) 
1

>  <PUBCHEM_CACTVS_TAUTO_COUNT>  (1) 
2

>  <PUBCHEM_CONFORMER_ID>  (1) 
000038DE00000001

>  <PUBCHEM_MMFF94_ENERGY>  (1) 
26.3805

>  <PUBCHEM_FEATURE_SELFOVERLAP>  (1) 
35.667

>  <PUBCHEM_SHAPE_FINGERPRINT>  (1) 
10616163 171 18411703196826933814
11132069 177 18411132541411409552
12032990 46 18410014372698952699
13024252 1 16298108674996051553
13690532 89 18410572916300823367
14115302 16 17822017557208140799
14911166 2 18336817650713794677
15196674 1 18410573968072153026
15536298 74 18269556207610740040
16945 1 18409440393596608329
17804303 29 18343586269589498553
17834074 16 18342177718001243070
18186145 218 16588021354971407492
20281407 28 18342177786541014530
20281475 54 18412547642909427728
20510252 161 18200313216978565704
20871998 184 18201720643448880975
20871999 31 18260539035504780333
21029758 11 18343294881986875041
21267235 1 18337400416934487707
22213442 358 18339642346897340076
22485316 2 18411134744956505050
2297311 6 18272665540810587532
23402539 116 18272080587760820845
23463225 33 18410013238643035270
23557571 272 18201166468715369772
23559900 14 18340763763533364096
2748010 2 18193828469760870357
3312278 4 18407477764903236883
4214541 1 18338516335875138240
43471831 8 18261952934043418211
5104073 3 18412262805421757106
559249 180 17971465200880632258
573450 72 18188196612168039570
7364860 26 18124877021229764480
77779 3 18411702071750502884
8809292 202 18262240027074332515
9709674 26 18411706461091736582

>  <PUBCHEM_SHAPE_MULTIPOLES>  (1) 
271.39
7.98
1.79
0.6
7.62
0.07
0
-2.34
-0.09
-0.81
0.01
-0.05
0
-0.02

>  <PUBCHEM_SHAPE_SELFOVERLAP>  (1) 
592.456

>  <PUBCHEM_SHAPE_VOLUME>  (1) 
148.6

>  <PUBCHEM_COORDINATE_TYPE>  (1) 
2
5
10

$$$$
