14553
     RDKit          3D

 14 16  0  0  0  0  0  0  0  0999 V2000
   -1.4026    0.8654    0.0003 N   0  0  0  0  0  0  0  0  0  0  0  0
    1.4026    0.8654    0.0003 N   0  0  0  0  0  0  0  0  0  0  0  0
   -0.6851   -0.3797    0.0005 C   0  0  0  0  0  0  0  0  0  0  0  0
    0.6850   -0.3797    0.0007 C   0  0  0  0  0  0  0  0  0  0  0  0
   -0.6703    2.0497    0.0004 C   0  0  0  0  0  0  0  0  0  0  0  0
    0.6703    2.0496    0.0003 C   0  0  0  0  0  0  0  0  0  0  0  0
   -1.5119   -1.5985    0.0002 C   0  0  0  0  0  0  0  0  0  0  0  0
    1.5119   -1.5986    0.0010 C   0  0  0  0  0  0  0  0  0  0  0  0
   -2.7966    0.8586   -0.0003 C   0  0  0  0  0  0  0  0  0  0  0  0
    2.7965    0.8586   -0.0007 C   0  0  0  0  0  0  0  0  0  0  0  0
   -2.8551   -1.5348   -0.0005 C   0  0  0  0  0  0  0  0  0  0  0  0
    2.8551   -1.5348   -0.0001 C   0  0  0  0  0  0  0  0  0  0  0  0
   -3.5347   -0.2606   -0.0009 C   0  0  0  0  0  0  0  0  0  0  0  0
    3.5347   -0.2606   -0.0012 C   0  0  0  0  0  0  0  0  0  0  0  0
  1  3  1  0
  1  5  1  0
  1  9  1  0
  2  4  1  0
  2  6  1  0
  2 10  1  0
  3  4  2  0
  3  7  1  0
  4  8  1  0
  5  6  2  0
  7 11  2  0
  8 12  2  0
  9 13  2  0
 10 14  2  0
 11 13  1  0
 12 14  1  0
M  END
>  <PUBCHEM_COMPOUND_CID>  (1) 
14553

>  <PUBCHEM_CONFORMER_RMSD>  (1) 
0.4

>  <PUBCHEM_CONFORMER_DIVERSEORDER>  (1) 
1

>  <PUBCHEM_MMFF94_PARTIAL_CHARGES>  (1) 
24
1 -0.3
10 -0.05
11 -0.15
12 -0.15
13 -0.15
14 -0.15
15 0.15
16 0.15
17 0.15
18 0.15
19 0.15
2 -0.3
20 0.15
21 0.15
22 0.15
23 0.15
24 0.15
3 0.1
4 0.1
5 -0.05
6 -0.05
7 -0.15
8 -0.15
9 -0.05

>  <PUBCHEM_EFFECTIVE_ROTOR_COUNT>  (1) 
0

>  <PUBCHEM_PHARMACOPHORE_FEATURES>  (1) 
5
1 1 cation
1 2 cation
6 1 2 3 4 5 6 rings
6 1 3 7 9 11 13 rings
6 2 4 8 10 12 14 rings

>  <PUBCHEM_HEAVY_ATOM_COUNT>  (1) 
14

>  <PUBCHEM_ATOM_DEF_STEREO_COUNT>  (1) 
0

>  <PUBCHEM_ATOM_UDEF_STEREO_COUNT>  (1) 
0

>  <PUBCHEM_BOND_DEF_STEREO_COUNT>  (1) 
0

>  <PUBCHEM_BOND_UDEF_STEREO_COUNT>  (1) 
0

>  <PUBCHEM_ISOTOPIC_ATOM_COUNT>  (1) 
0

>  <PUBCHEM_COMPONENT_COUNT>  (1) 
1

>  <PUBCHEM_CACTVS_TAUTO_COUNT>  (1) 
1

>  <PUBCHEM_CONFORMER_ID>  (1) 
000038D900000001

>  <PUBCHEM_MMFF94_ENERGY>  (1) 
48.4427

>  <PUBCHEM_FEATURE_SELFOVERLAP>  (1) 
25.428

>  <PUBCHEM_SHAPE_FINGERPRINT>  (1) 
10608611 8 18410569587105284321
10967382 1 18338797952005507974
11132069 177 18411412908444754960
11471102 20 18410288138198733191
12032990 46 18410862061493136099
12382932 28 18413107251383606674
13221675 6 18410575084663241318
14144814 61 18411419509693606723
14325111 11 18410856559639880512
15196674 1 18410856559639861030
15375462 189 18259705571014845723
15442244 35 18194683670436932954
15536298 74 18343584070735008984
16945 1 18410575084663312772
17844478 74 17967258585245757405
17990270 104 18337107989753943787
200 152 18059846303605700415
20201158 50 18409165523731083139
20510252 161 18128816348101032272
20645477 70 18047461512036580535
20871998 184 18201998776872463535
21267235 1 18410583880756555842
21501502 16 18410858754373365568
22721475 48 18410578387492936036
2334 1 18410856594010285322
23402539 116 18342163432528319751
23463225 33 18409730664186169870
23552423 10 18263364866060676501
23559900 14 18268706122388140786
2748010 2 18411134753272068206
3312278 4 18410014342354509354
335352 9 18122626046064949047
34934 24 18410845568818498602
5104073 3 18410855464428456818
528886 8 18411695500018172914
53812653 166 18271239529789747216
63268167 104 18410859884192520217
7364860 26 18197777910695044728
8809292 202 18260834816580093795

>  <PUBCHEM_SHAPE_MULTIPOLES>  (1) 
278.15
5.51
2.18
0.6
0
0.41
0
-1.44
0
0
0
0
-0.01
0

>  <PUBCHEM_SHAPE_SELFOVERLAP>  (1) 
614.039

>  <PUBCHEM_SHAPE_VOLUME>  (1) 
146.5

>  <PUBCHEM_COORDINATE_TYPE>  (1) 
2
5
10

$$$$
