14550
     RDKit          3D

 14 15  0  0  0  0  0  0  0  0999 V2000
    0.6294   -0.3205   -2.5139 Cl  0  0  0  0  0  0  0  0  0  0  0  0
   -1.3363    2.3210   -0.1090 O   0  0  0  0  0  0  0  0  0  0  0  0
   -1.3313   -2.2842    0.4000 O   0  0  0  0  0  0  0  0  0  0  0  0
   -0.8129    0.0204    0.1586 N   0  0  0  0  0  0  0  0  0  0  0  0
    0.6191    0.0258    0.1937 C   0  0  0  0  0  0  0  0  0  0  0  0
   -1.6091    1.1365   -0.0028 C   0  0  0  0  0  0  0  0  0  0  0  0
   -1.6076   -1.1017    0.2807 C   0  0  0  0  0  0  0  0  0  0  0  0
    1.3760   -0.1225   -0.9686 C   0  0  0  0  0  0  0  0  0  0  0  0
    1.2555    0.1823    1.4251 C   0  0  0  0  0  0  0  0  0  0  0  0
   -3.0034    0.6707    0.0157 C   0  0  0  0  0  0  0  0  0  0  0  0
   -3.0028   -0.6466    0.1938 C   0  0  0  0  0  0  0  0  0  0  0  0
    2.7692   -0.1141   -0.8994 C   0  0  0  0  0  0  0  0  0  0  0  0
    2.6486    0.1906    1.4942 C   0  0  0  0  0  0  0  0  0  0  0  0
    3.4055    0.0424    0.3320 C   0  0  0  0  0  0  0  0  0  0  0  0
  1  8  1  0
  2  6  2  0
  3  7  2  0
  4  5  1  0
  4  6  1  0
  4  7  1  0
  5  8  2  0
  5  9  1  0
  6 10  1  0
  7 11  1  0
  8 12  1  0
  9 13  2  0
 10 11  2  0
 12 14  2  0
 13 14  1  0
M  END
>  <PUBCHEM_COMPOUND_CID>  (1) 
14550

>  <PUBCHEM_CONFORMER_RMSD>  (1) 
0.4

>  <PUBCHEM_CONFORMER_DIVERSEORDER>  (1) 
1
2
3

>  <PUBCHEM_MMFF94_PARTIAL_CHARGES>  (1) 
20
1 -0.18
10 -0.14
11 -0.14
12 -0.15
13 -0.15
14 -0.15
15 0.15
16 0.15
17 0.15
18 0.15
19 0.15
2 -0.57
20 0.15
3 -0.57
4 -0.24
5 0.12
6 0.62
7 0.62
8 0.18
9 -0.15

>  <PUBCHEM_EFFECTIVE_ROTOR_COUNT>  (1) 
1.2

>  <PUBCHEM_PHARMACOPHORE_FEATURES>  (1) 
4
1 2 acceptor
1 3 acceptor
5 4 6 7 10 11 rings
6 5 8 9 12 13 14 rings

>  <PUBCHEM_HEAVY_ATOM_COUNT>  (1) 
14

>  <PUBCHEM_ATOM_DEF_STEREO_COUNT>  (1) 
0

>  <PUBCHEM_ATOM_UDEF_STEREO_COUNT>  (1) 
0

>  <PUBCHEM_BOND_DEF_STEREO_COUNT>  (1) 
0

>  <PUBCHEM_BOND_UDEF_STEREO_COUNT>  (1) 
0

>  <PUBCHEM_ISOTOPIC_ATOM_COUNT>  (1) 
0

>  <PUBCHEM_COMPONENT_COUNT>  (1) 
1

>  <PUBCHEM_CACTVS_TAUTO_COUNT>  (1) 
1

>  <PUBCHEM_CONFORMER_ID>  (1) 
000038D600000001

>  <PUBCHEM_MMFF94_ENERGY>  (1) 
50.6266

>  <PUBCHEM_FEATURE_SELFOVERLAP>  (1) 
20.297

>  <PUBCHEM_SHAPE_FINGERPRINT>  (1) 
12326174 3 16773241682420569078
12423570 1 11065818230001242032
124424 183 17988637450802886634
12716758 59 18339930298732115066
13538477 17 17822295725054667851
13581323 91 18334012795802368627
13839132 238 18197215845478408684
13898156 1 17822305594662504775
14817 1 14032324052183185599
14993402 34 17022902350042042930
15207287 21 17989200443310582639
15219456 202 17704073966903445400
15775835 57 17385731282960752164
16945 1 18408321085831438952
17357990 137 17460623349334828805
17844478 74 17846502538512717361
18175812 5 17917992818889202636
19049666 15 17844256124666979954
20201158 50 17561370551752450654
20344682 1 17846777429441752333
20645476 183 17313394456320156987
21061003 4 16557930943166216174
22802520 49 17415853383325024688
23402539 116 18341320141859801125
23559900 14 18341333306303925782
2748010 2 16199298966532126958
474 4 13757200039767018618
63268167 104 16226052214491827868
77492 1 17458065966824096945
8272917 22 15194744324179759829

>  <PUBCHEM_SHAPE_MULTIPOLES>  (1) 
273.26
4.87
1.61
1.44
0.46
0.93
-0.02
-0.85
-0.05
1.2
0.07
-1.31
-0.13
0.15

>  <PUBCHEM_SHAPE_SELFOVERLAP>  (1) 
587.299

>  <PUBCHEM_SHAPE_VOLUME>  (1) 
151.6

>  <PUBCHEM_COORDINATE_TYPE>  (1) 
2
5
10

$$$$
