14564
     RDKit          3D

 14 15  0  0  0  0  0  0  0  0999 V2000
   -4.9294   -0.0002    0.0007 N   0  0  0  0  0  0  0  0  0  0  0  0
    0.7175    0.0002    0.0001 C   0  0  0  0  0  0  0  0  0  0  0  0
   -0.7294    0.0001   -0.0006 C   0  0  0  0  0  0  0  0  0  0  0  0
    1.4149    1.1669    0.3131 C   0  0  0  0  0  0  0  0  0  0  0  0
    1.4149   -1.1666   -0.3130 C   0  0  0  0  0  0  0  0  0  0  0  0
    3.5073    0.0001    0.0000 C   0  0  0  0  0  0  0  0  0  0  0  0
   -1.4264    1.1667   -0.3135 C   0  0  0  0  0  0  0  0  0  0  0  0
   -1.4263   -1.1667    0.3126 C   0  0  0  0  0  0  0  0  0  0  0  0
    2.8097    1.1668    0.3130 C   0  0  0  0  0  0  0  0  0  0  0  0
    2.8098   -1.1667   -0.3130 C   0  0  0  0  0  0  0  0  0  0  0  0
   -3.5188    0.0000    0.0002 C   0  0  0  0  0  0  0  0  0  0  0  0
   -2.8212    1.1667   -0.3130 C   0  0  0  0  0  0  0  0  0  0  0  0
   -2.8212   -1.1668    0.3130 C   0  0  0  0  0  0  0  0  0  0  0  0
    4.9986   -0.0004    0.0004 C   0  0  0  0  0  0  0  0  0  0  0  0
  1 11  1  0
  2  3  1  0
  2  4  2  0
  2  5  1  0
  3  7  2  0
  3  8  1  0
  4  9  1  0
  5 10  2  0
  6  9  2  0
  6 10  1  0
  6 14  1  0
  7 12  1  0
  8 13  2  0
 11 12  2  0
 11 13  1  0
M  END
>  <PUBCHEM_COMPOUND_CID>  (1) 
14564

>  <PUBCHEM_CONFORMER_RMSD>  (1) 
0.4

>  <PUBCHEM_CONFORMER_DIVERSEORDER>  (1) 
1
2

>  <PUBCHEM_MMFF94_PARTIAL_CHARGES>  (1) 
22
1 -0.9
10 -0.15
11 0.1
12 -0.15
13 -0.15
14 0.14
15 0.15
16 0.15
17 0.15
18 0.15
19 0.15
20 0.15
21 0.15
22 0.15
26 0.4
27 0.4
4 -0.15
5 -0.15
6 -0.14
7 -0.15
8 -0.15
9 -0.15

>  <PUBCHEM_EFFECTIVE_ROTOR_COUNT>  (1) 
1

>  <PUBCHEM_PHARMACOPHORE_FEATURES>  (1) 
4
1 1 cation
1 1 donor
6 2 4 5 6 9 10 rings
6 3 7 8 11 12 13 rings

>  <PUBCHEM_HEAVY_ATOM_COUNT>  (1) 
14

>  <PUBCHEM_ATOM_DEF_STEREO_COUNT>  (1) 
0

>  <PUBCHEM_ATOM_UDEF_STEREO_COUNT>  (1) 
0

>  <PUBCHEM_BOND_DEF_STEREO_COUNT>  (1) 
0

>  <PUBCHEM_BOND_UDEF_STEREO_COUNT>  (1) 
0

>  <PUBCHEM_ISOTOPIC_ATOM_COUNT>  (1) 
0

>  <PUBCHEM_COMPONENT_COUNT>  (1) 
1

>  <PUBCHEM_CACTVS_TAUTO_COUNT>  (1) 
1

>  <PUBCHEM_CONFORMER_ID>  (1) 
000038E400000001

>  <PUBCHEM_MMFF94_ENERGY>  (1) 
55.5406

>  <PUBCHEM_FEATURE_SELFOVERLAP>  (1) 
20.297

>  <PUBCHEM_SHAPE_FINGERPRINT>  (1) 
10608611 8 18410569587121225508
11132069 177 18337385036656438457
11401426 45 18273210915567877282
11471102 20 18343582945337467932
11615757 297 17632580469569860816
12032990 46 18410579491310087112
12251169 10 18410856576830208310
13380535 76 18410856559656088038
13581323 91 17967248693519232868
14144814 61 18410855425794797376
14252887 29 17632304449808322958
14325111 11 18410573980856626764
15196674 1 18338797930583315098
15219456 202 18412262826421780543
15309172 13 17561086912186193015
15375358 24 18411418410113452494
16945 1 18411419513967299456
17802600 8 18410852165914918340
18175812 5 18410856606900260798
18186145 218 18339364045927718077
18522853 276 18343864411608420528
200 152 17775563143821579823
20201158 50 18413109450417586930
20279233 1 18410862057214012558
20510252 161 18340769230805608305
20528008 55 18411134753609671687
20645477 56 18187643553582862221
20645477 70 18201721691658797822
21267235 1 18410583885061819298
23402539 116 18408877447758715583
23402655 69 18271519802238983453
23557571 272 17968376754027033404
23559900 14 18338514119798886934
474 4 15865213462397500436
5104073 3 18338517443391061192
53812653 166 18411416207137991274
69090 78 18342171181124257127
77779 3 18410576184190569924
8809292 202 18261678167805195138
9709674 26 18411425015794727087

>  <PUBCHEM_SHAPE_MULTIPOLES>  (1) 
283.13
8.52
1.4
0.67
0.43
0
0
0
0
-0.04
0
0.02
0
0.45

>  <PUBCHEM_SHAPE_SELFOVERLAP>  (1) 
614.017

>  <PUBCHEM_SHAPE_VOLUME>  (1) 
156.2

>  <PUBCHEM_COORDINATE_TYPE>  (1) 
2
5
10

$$$$
