14567
     RDKit          3D

 14 14  0  0  0  0  0  0  0  0999 V2000
    1.8588   -0.2640   -0.0482 O   0  0  0  0  0  0  0  0  0  0  0  0
    5.1217    1.1799    0.2500 O   0  0  0  0  0  0  0  0  0  0  0  0
    4.4845   -0.9741   -0.1267 O   0  0  0  0  0  0  0  0  0  0  0  0
    0.5808    0.3011    0.0447 N   0  0  0  0  0  0  0  0  0  0  0  0
   -1.7709   -0.1627   -0.0509 C   0  0  0  0  0  0  0  0  0  0  0  0
   -0.3806   -0.5792   -0.1418 C   0  0  0  0  0  0  0  0  0  0  0  0
   -2.7417   -1.0640    0.3862 C   0  0  0  0  0  0  0  0  0  0  0  0
   -2.1337    1.1381   -0.4001 C   0  0  0  0  0  0  0  0  0  0  0  0
   -0.0533   -2.0459   -0.4421 C   0  0  0  0  0  0  0  0  0  0  0  0
   -4.0753   -0.6646    0.4738 C   0  0  0  0  0  0  0  0  0  0  0  0
   -3.4673    1.5374   -0.3125 C   0  0  0  0  0  0  0  0  0  0  0  0
   -4.4381    0.6361    0.1246 C   0  0  0  0  0  0  0  0  0  0  0  0
    2.8128    0.7645    0.1673 C   0  0  0  0  0  0  0  0  0  0  0  0
    4.2022    0.1974    0.0757 C   0  0  0  0  0  0  0  0  0  0  0  0
  1  4  1  0
  1 13  1  0
  2 14  1  0
  3 14  2  0
  4  6  2  0
  5  6  1  0
  5  7  2  0
  5  8  1  0
  6  9  1  0
  7 10  1  0
  8 11  2  0
 10 12  2  0
 11 12  1  0
 13 14  1  0
M  END
>  <PUBCHEM_COMPOUND_CID>  (1) 
14567

>  <PUBCHEM_CONFORMER_RMSD>  (1) 
0.6

>  <PUBCHEM_CONFORMER_DIVERSEORDER>  (1) 
1
18
16
11
10
15
4
19
13
12
9
8
5
6
7
17
2
14
3

>  <PUBCHEM_MMFF94_PARTIAL_CHARGES>  (1) 
20
1 -0.22
10 -0.15
11 -0.15
12 -0.15
13 0.34
14 0.66
15 0.15
16 0.15
2 -0.65
20 0.15
21 0.15
22 0.15
25 0.5
3 -0.57
4 -0.51
5 0.09
6 0.3
7 -0.15
8 -0.15
9 0.06

>  <PUBCHEM_EFFECTIVE_ROTOR_COUNT>  (1) 
4

>  <PUBCHEM_PHARMACOPHORE_FEATURES>  (1) 
5
1 2 acceptor
1 3 acceptor
1 4 acceptor
3 2 3 14 anion
6 5 7 8 10 11 12 rings

>  <PUBCHEM_HEAVY_ATOM_COUNT>  (1) 
14

>  <PUBCHEM_ATOM_DEF_STEREO_COUNT>  (1) 
0

>  <PUBCHEM_ATOM_UDEF_STEREO_COUNT>  (1) 
0

>  <PUBCHEM_BOND_DEF_STEREO_COUNT>  (1) 
0

>  <PUBCHEM_BOND_UDEF_STEREO_COUNT>  (1) 
1

>  <PUBCHEM_ISOTOPIC_ATOM_COUNT>  (1) 
0

>  <PUBCHEM_COMPONENT_COUNT>  (1) 
1

>  <PUBCHEM_CACTVS_TAUTO_COUNT>  (1) 
1

>  <PUBCHEM_CONFORMER_ID>  (1) 
000038E700000001

>  <PUBCHEM_MMFF94_ENERGY>  (1) 
32.0861

>  <PUBCHEM_FEATURE_SELFOVERLAP>  (1) 
25.428

>  <PUBCHEM_SHAPE_FINGERPRINT>  (1) 
10922049 32 18410294700645413490
11132069 177 18259708882708833357
12119455 92 17846778498856869631
12251169 10 17967254204326290093
13081056 2 18412263930465979780
13214271 11 18408885140345751535
13675066 3 18411138060750326914
13897977 58 18260552250755380445
14123238 8 18412826910547306788
14252887 29 12901544607516045840
14943859 89 18131068242356206511
15219456 202 18339647724597412431
15501527 16 18341612659398136552
18186145 218 16917060088103108634
200 152 17846774118470093477
20645477 56 18341325691084342736
20645477 70 17703517601857861790
21119208 17 13758356673931913705
23402539 116 18201431493365664261
23559900 14 18051409565601521958
2916195 48 18059283357720640104
366044 4 18413106173347152935
42 15 18187364320462625970
4214541 1 18408040706208688168
42788 4 18410575093638161408
5104073 3 18335984185833340466
6430166 295 18410853252826221008
69090 78 18201717383616500734
77779 3 18335139791226409032

>  <PUBCHEM_SHAPE_MULTIPOLES>  (1) 
265.52
10.22
1.57
0.66
9.6
0.29
0
-2.66
-1.06
-0.44
0.17
-0.19
0.03
0.51

>  <PUBCHEM_SHAPE_SELFOVERLAP>  (1) 
541.699

>  <PUBCHEM_SHAPE_VOLUME>  (1) 
154.3

>  <PUBCHEM_COORDINATE_TYPE>  (1) 
2
5
10

$$$$
