14573
     RDKit          3D

 15 16  0  0  1  0  0  0  0  0999 V2000
   -4.8939    1.0040    0.4618 Cl  0  0  0  0  0  0  0  0  0  0  0  0
    1.6618    0.2922   -0.6192 O   0  0  0  0  0  0  0  0  0  0  0  0
    1.2256   -1.6565    0.6053 O   0  0  0  0  0  0  0  0  0  0  0  0
    3.5208    2.3583    0.0567 O   0  0  0  0  0  0  0  0  0  0  0  0
    0.7716   -0.8351   -0.4895 C   0  0  0  0  0  0  0  0  0  0  0  0
    2.4074    0.3159    0.5998 C   0  0  0  0  0  0  0  0  0  0  0  0
    2.5123   -1.1450    0.9532 C   0  0  0  0  0  0  0  0  0  0  0  0
   -0.6577   -0.3717   -0.2503 C   0  0  0  0  0  0  0  0  0  0  0  0
    0.8583   -1.6512   -1.7787 C   0  0  0  0  0  0  0  0  0  0  0  0
    3.7430    0.9972    0.3937 C   0  0  0  0  0  0  0  0  0  0  0  0
   -1.5358   -1.1692    0.4836 C   0  0  0  0  0  0  0  0  0  0  0  0
   -1.0895    0.8508   -0.7643 C   0  0  0  0  0  0  0  0  0  0  0  0
   -2.8461   -0.7441    0.7033 C   0  0  0  0  0  0  0  0  0  0  0  0
   -2.3997    1.2760   -0.5445 C   0  0  0  0  0  0  0  0  0  0  0  0
   -3.2780    0.4785    0.1892 C   0  0  0  0  0  0  0  0  0  0  0  0
  1 15  1  0
  2  5  1  0
  2  6  1  0
  3  5  1  0
  3  7  1  0
  4 10  1  0
  5  8  1  0
  5  9  1  0
  6  7  1  0
  6 10  1  0
  8 11  2  0
  8 12  1  0
 11 13  1  0
 12 14  2  0
 13 15  2  0
 14 15  1  0
M  END
>  <PUBCHEM_COMPOUND_CID>  (1) 
14573

>  <PUBCHEM_CONFORMER_RMSD>  (1) 
0.6

>  <PUBCHEM_CONFORMER_DIVERSEORDER>  (1) 
2
14
1
16
17
13
12
8
10
3
6
7
9
15
18
4
5
11

>  <PUBCHEM_MMFF94_PARTIAL_CHARGES>  (1) 
19
1 -0.18
10 0.28
11 -0.15
12 -0.15
13 -0.15
14 -0.15
15 0.18
2 -0.56
24 0.15
25 0.15
26 0.15
27 0.15
28 0.4
3 -0.56
4 -0.68
5 0.7
6 0.28
7 0.28
8 -0.14

>  <PUBCHEM_EFFECTIVE_ROTOR_COUNT>  (1) 
3

>  <PUBCHEM_PHARMACOPHORE_FEATURES>  (1) 
6
1 2 acceptor
1 3 acceptor
1 4 acceptor
1 4 donor
5 2 3 5 6 7 rings
6 8 11 12 13 14 15 rings

>  <PUBCHEM_HEAVY_ATOM_COUNT>  (1) 
15

>  <PUBCHEM_ATOM_DEF_STEREO_COUNT>  (1) 
0

>  <PUBCHEM_ATOM_UDEF_STEREO_COUNT>  (1) 
2

>  <PUBCHEM_BOND_DEF_STEREO_COUNT>  (1) 
0

>  <PUBCHEM_BOND_UDEF_STEREO_COUNT>  (1) 
0

>  <PUBCHEM_ISOTOPIC_ATOM_COUNT>  (1) 
0

>  <PUBCHEM_COMPONENT_COUNT>  (1) 
1

>  <PUBCHEM_CACTVS_TAUTO_COUNT>  (1) 
1

>  <PUBCHEM_CONFORMER_ID>  (1) 
000038ED00000002

>  <PUBCHEM_MMFF94_ENERGY>  (1) 
37.2072

>  <PUBCHEM_FEATURE_SELFOVERLAP>  (1) 
30.49

>  <PUBCHEM_SHAPE_FINGERPRINT>  (1) 
10608611 8 18261667069641350565
107287 299 17989492900407743295
11031198 65 17346597443777694647
11132069 177 18113336435778715285
11769659 78 8790892882128009312
12119455 92 18202559583811329182
122479 349 18267866271223678288
12251169 10 18040434399414514805
12382932 28 18335707152132394449
12507560 40 17677042443485638636
12633257 1 18114731677295210024
13581323 91 17167866327035250007
13675066 3 17095526154525226905
14178342 30 17676498280183680019
14252887 29 14273735131875932280
14993402 34 14548735097616778121
15219456 202 18341900666439823239
15477762 27 9871748001130969168
15775835 57 18342453789729422480
16945 1 18114181990063719598
17804303 29 17679862604927823818
1813 80 15981752649608866438
18186145 218 18196379104903983285
19786989 88 18202280264992616719
20361792 2 13695586637434187150
20528008 55 18260824887074179857
20559304 39 17023200279201819887
20645476 183 15554436389053100341
21296965 67 11963381951502718342
21501502 16 18339631317600821475
21524375 3 18271801380310570762
23402539 116 18334564738498311479
23557571 272 18338813306978081291
23559900 14 18339364050186197310
2748010 2 17824825538338624887
296302 2 18411983563959927801
3060560 45 14261344722067433700
449060 50 18271814514600130409
449060 62 18413107259947407761
4990 188 12175615170864788145
5104073 3 18260267443126538129
5374978 207 18114182991366177513
69090 78 18335696114457028571
7364860 26 18337954467995395978

>  <PUBCHEM_SHAPE_MULTIPOLES>  (1) 
292.95
7.19
1.83
1.11
3.44
0.3
0.28
3.95
-1.94
-1.24
0.16
-0.24
-0.42
0.27

>  <PUBCHEM_SHAPE_SELFOVERLAP>  (1) 
607.797

>  <PUBCHEM_SHAPE_VOLUME>  (1) 
169.7

>  <PUBCHEM_COORDINATE_TYPE>  (1) 
2
5
10

$$$$
