1457
     RDKit          3D

 21 24  0  0  1  0  0  0  0  0999 V2000
    5.2693   -0.9295   -0.2424 O   0  0  0  0  0  0  0  0  0  0  0  0
    3.2439   -1.7657    1.5268 O   0  0  0  0  0  0  0  0  0  0  0  0
    4.0255    1.6618   -0.8990 O   0  0  0  0  0  0  0  0  0  0  0  0
    3.8927   -0.7008   -0.5411 C   0  0  0  0  0  0  0  0  0  0  0  0
    3.0723   -1.8052    0.1087 C   0  0  0  0  0  0  0  0  0  0  0  0
    3.4739    0.6761   -0.0216 C   0  0  0  0  0  0  0  0  0  0  0  0
    1.5929   -1.6351   -0.2338 C   0  0  0  0  0  0  0  0  0  0  0  0
    1.0663   -0.2185   -0.0530 C   0  0  0  0  0  0  0  0  0  0  0  0
    1.9718    0.8630    0.0501 C   0  0  0  0  0  0  0  0  0  0  0  0
   -0.3452    0.0207   -0.0198 C   0  0  0  0  0  0  0  0  0  0  0  0
   -0.8133    1.3401    0.1854 C   0  0  0  0  0  0  0  0  0  0  0  0
    1.4707    2.1526    0.2702 C   0  0  0  0  0  0  0  0  0  0  0  0
    0.1010    2.3865    0.3384 C   0  0  0  0  0  0  0  0  0  0  0  0
   -1.3231   -0.9911   -0.1847 C   0  0  0  0  0  0  0  0  0  0  0  0
   -2.1925    1.6074    0.2362 C   0  0  0  0  0  0  0  0  0  0  0  0
   -2.7050   -0.7280   -0.1378 C   0  0  0  0  0  0  0  0  0  0  0  0
   -3.1451    0.5911    0.0783 C   0  0  0  0  0  0  0  0  0  0  0  0
   -3.6559   -1.7500   -0.3019 C   0  0  0  0  0  0  0  0  0  0  0  0
   -4.5237    0.8596    0.1277 C   0  0  0  0  0  0  0  0  0  0  0  0
   -5.0215   -1.4695   -0.2507 C   0  0  0  0  0  0  0  0  0  0  0  0
   -5.4551   -0.1654   -0.0359 C   0  0  0  0  0  0  0  0  0  0  0  0
  1  4  1  0
  2  5  1  0
  3  6  1  0
  4  5  1  0
  4  6  1  0
  5  7  1  0
  6  9  1  0
  7  8  1  0
  8  9  2  0
  8 10  1  0
  9 12  1  0
 10 11  2  0
 10 14  1  0
 11 13  1  0
 11 15  1  0
 12 13  2  0
 14 16  2  0
 15 17  2  0
 16 17  1  0
 16 18  1  0
 17 19  1  0
 18 20  2  0
 19 21  2  0
 20 21  1  0
M  END
>  <PUBCHEM_COMPOUND_CID>  (1) 
1457

>  <PUBCHEM_CONFORMER_RMSD>  (1) 
0.6

>  <PUBCHEM_CONFORMER_DIVERSEORDER>  (1) 
3
1
5
4
6
2

>  <PUBCHEM_MMFF94_PARTIAL_CHARGES>  (1) 
28
1 -0.68
12 -0.15
13 -0.15
14 -0.15
15 -0.15
18 -0.15
19 -0.15
2 -0.68
20 -0.15
21 -0.15
27 0.15
28 0.15
29 0.15
3 -0.68
30 0.15
31 0.4
32 0.4
33 0.4
34 0.15
35 0.15
36 0.15
37 0.15
4 0.28
5 0.28
6 0.42
7 0.14
8 -0.14
9 -0.14

>  <PUBCHEM_EFFECTIVE_ROTOR_COUNT>  (1) 
0.8

>  <PUBCHEM_PHARMACOPHORE_FEATURES>  (1) 
10
1 1 acceptor
1 1 donor
1 2 acceptor
1 2 donor
1 3 acceptor
1 3 donor
6 10 11 14 15 16 17 rings
6 16 17 18 19 20 21 rings
6 4 5 6 7 8 9 rings
6 8 9 10 11 12 13 rings

>  <PUBCHEM_HEAVY_ATOM_COUNT>  (1) 
21

>  <PUBCHEM_ATOM_DEF_STEREO_COUNT>  (1) 
0

>  <PUBCHEM_ATOM_UDEF_STEREO_COUNT>  (1) 
3

>  <PUBCHEM_BOND_DEF_STEREO_COUNT>  (1) 
0

>  <PUBCHEM_BOND_UDEF_STEREO_COUNT>  (1) 
0

>  <PUBCHEM_ISOTOPIC_ATOM_COUNT>  (1) 
0

>  <PUBCHEM_COMPONENT_COUNT>  (1) 
1

>  <PUBCHEM_CACTVS_TAUTO_COUNT>  (1) 
1

>  <PUBCHEM_CONFORMER_ID>  (1) 
000005B100000003

>  <PUBCHEM_MMFF94_ENERGY>  (1) 
65.839

>  <PUBCHEM_FEATURE_SELFOVERLAP>  (1) 
50.824

>  <PUBCHEM_SHAPE_FINGERPRINT>  (1) 
10062212 137 18272646866345538399
10616163 171 18341897359399498839
10967382 1 18340205309698675060
11471102 20 18411136965190885565
11578080 2 17677874782547125204
11806522 49 18410293618276315869
12107183 9 17761493586636771195
12236239 1 18260269616411676470
12553582 1 18341601612209501327
12788726 201 18266179439554886904
13140716 1 18269266864026849800
13167823 11 18410573994068686759
13288520 33 18342741788582023311
13583140 156 14261069810095864529
138480 1 18340768264274884449
13862211 1 18412823581684200687
14178342 30 17981034220406686458
14341114 176 18411144666626306003
15196674 1 18412828001353039885
15352361 1 18413108342405630399
15442244 35 18413389813514700217
15536298 74 18272368710909166001
17492 89 18266459806446521330
17804303 29 18343865515741998081
1813 80 17530963600905218501
18186145 218 17894621583050493167
18222031 100 18131342016767889423
18681886 176 18342454851177220698
200 152 18059857290058047281
20028762 73 17917142914209523775
20261772 1 17774999111299348407
20281475 54 18410855438811892769
20645477 70 18411421713143711470
21250096 35 18342454833364199395
21267235 1 18340496594512714566
21421861 104 18043811974570617659
21452121 103 18058720429442463432
221490 88 18265338481037837195
23366157 5 18188205536783630169
23402539 116 18342734100696279487
23557571 272 17917153771500854828
23559900 14 18341324569786759225
239999 70 18272375291352789212
25147074 1 18337686213107338088
2871803 45 18335419079774654670
3004659 81 18333731299635508580
335352 9 18413108334591266597
34934 24 18199746006860457764
350125 39 18411983550621786924
4214541 1 18412263913676455237
46194498 28 17459185347498424133
465052 167 18200881772249391175
474 4 17677622019716632908
4921388 177 16371017351268974499
5104073 3 18413671322771827369
67856867 119 18335978753227510128
7364860 26 18271803596160586160
77779 3 18410857668147585895
8863177 126 18043262434317926099
9709674 26 18265614480095016059
9981440 41 17330266685397223841

>  <PUBCHEM_SHAPE_MULTIPOLES>  (1) 
414.56
10.44
2.34
0.76
3.6
0.45
-0.1
-3.52
0.79
-0.69
-0.17
-0.43
-0.11
-0.65

>  <PUBCHEM_SHAPE_SELFOVERLAP>  (1) 
934.049

>  <PUBCHEM_SHAPE_VOLUME>  (1) 
217.8

>  <PUBCHEM_COORDINATE_TYPE>  (1) 
2
5
10

$$$$
