14575
     RDKit          3D

 15 15  0  0  0  0  0  0  0  0999 V2000
   -0.0126    2.9119   -0.4826 I   0  0  0  0  0  0  0  0  0  0  0  0
   -0.4615   -3.1830   -0.3755 I   0  0  0  0  0  0  0  0  0  0  0  0
    4.8437   -0.6555    0.5946 I   0  0  0  0  0  0  0  0  0  0  0  0
   -4.5136    0.2472    1.3556 O   0  0  0  0  0  0  0  0  0  0  0  0
   -4.1629    0.1128   -0.8845 O   0  0  0  0  0  0  0  0  0  0  0  0
    3.0361    2.0329    0.1503 N   0  0  0  0  0  0  0  0  0  0  0  0
   -1.3887   -0.0366   -0.6600 C   0  0  0  0  0  0  0  0  0  0  0  0
    0.0775   -0.1516   -0.3663 C   0  0  0  0  0  0  0  0  0  0  0  0
   -2.2559    0.0546    0.5971 C   0  0  0  0  0  0  0  0  0  0  0  0
    0.8660    0.9928   -0.2467 C   0  0  0  0  0  0  0  0  0  0  0  0
    0.6516   -1.4134   -0.2118 C   0  0  0  0  0  0  0  0  0  0  0  0
    2.2286    0.8754    0.0273 C   0  0  0  0  0  0  0  0  0  0  0  0
    2.0142   -1.5308    0.0621 C   0  0  0  0  0  0  0  0  0  0  0  0
    2.8028   -0.3864    0.1817 C   0  0  0  0  0  0  0  0  0  0  0  0
   -3.7253    0.1298    0.2588 C   0  0  0  0  0  0  0  0  0  0  0  0
  1 10  1  0
  2 11  1  0
  3 14  1  0
  4 15  1  0
  5 15  2  0
  6 12  1  0
  7  8  1  0
  7  9  1  0
  8 10  2  0
  8 11  1  0
  9 15  1  0
 10 12  1  0
 11 13  2  0
 12 14  2  0
 13 14  1  0
M  END
>  <PUBCHEM_COMPOUND_CID>  (1) 
14575

>  <PUBCHEM_CONFORMER_RMSD>  (1) 
0.6

>  <PUBCHEM_CONFORMER_DIVERSEORDER>  (1) 
1
3
6
5
4
2

>  <PUBCHEM_MMFF94_PARTIAL_CHARGES>  (1) 
19
1 -0.08
10 0.08
11 0.08
12 0.1
13 -0.15
14 0.08
15 0.66
2 -0.08
20 0.15
21 0.4
22 0.4
23 0.5
3 -0.08
4 -0.65
5 -0.57
6 -0.9
7 0.14
8 -0.14
9 0.06

>  <PUBCHEM_EFFECTIVE_ROTOR_COUNT>  (1) 
3

>  <PUBCHEM_PHARMACOPHORE_FEATURES>  (1) 
9
1 1 hydrophobe
1 2 hydrophobe
1 3 hydrophobe
1 4 acceptor
1 5 acceptor
1 6 cation
1 6 donor
3 4 5 15 anion
6 8 10 11 12 13 14 rings

>  <PUBCHEM_HEAVY_ATOM_COUNT>  (1) 
15

>  <PUBCHEM_ATOM_DEF_STEREO_COUNT>  (1) 
0

>  <PUBCHEM_ATOM_UDEF_STEREO_COUNT>  (1) 
0

>  <PUBCHEM_BOND_DEF_STEREO_COUNT>  (1) 
0

>  <PUBCHEM_BOND_UDEF_STEREO_COUNT>  (1) 
0

>  <PUBCHEM_ISOTOPIC_ATOM_COUNT>  (1) 
0

>  <PUBCHEM_COMPONENT_COUNT>  (1) 
1

>  <PUBCHEM_CACTVS_TAUTO_COUNT>  (1) 
1

>  <PUBCHEM_CONFORMER_ID>  (1) 
000038EF00000001

>  <PUBCHEM_MMFF94_ENERGY>  (1) 
53.4288

>  <PUBCHEM_FEATURE_SELFOVERLAP>  (1) 
45.727

>  <PUBCHEM_SHAPE_FINGERPRINT>  (1) 
10219947 1 18409449189262323693
10967382 1 18410571790766093366
10980938 120 18409448119657308917
11132069 177 18343293769347472854
11471102 20 18409443696088874940
11471102 22 18335430031999327435
12236239 1 17775558733027336607
12251169 10 18411416211433081946
13140716 1 18337945818331902930
13380535 76 18343581858505611598
13862211 1 18337945710778638494
14178342 30 17907281501640350824
14251717 144 18412258424497254559
14790565 3 18410586067523014428
15309172 13 18410856559935448591
15375462 189 17968083206287708658
15442244 35 18267017448109995518
16945 1 18338220601696721254
18186145 218 18343306967834506823
193761 8 17833829748021846950
19591789 44 18124032322102162118
20028762 73 18201154464087294063
20510252 161 18199178500136691632
20645477 70 18336819780944025823
20671657 1 18192999433160782316
20739085 24 18263663812790890985
20871998 22 18268435620625558214
21501502 16 18194114351337226950
21524375 3 18130784572677854335
21637258 2 15574986278529580002
22182313 1 18053937356361570966
23184049 59 18410575088968628204
2334 1 18049434040186256358
23402539 116 18270950289206093367
25147074 1 18192138520578876326
2748010 2 17907568139336536758
3250762 1 17545601149833725438
350125 39 17616820267545339069
5104073 3 18339079409802512771
589210 1 17833830851722959919
77492 1 17775559841113016287
7832392 63 18267303325575513886
81228 2 17683257862796372021

>  <PUBCHEM_SHAPE_MULTIPOLES>  (1) 
327.78
7.53
3.14
0.92
1.27
0.19
0.1
0.13
2.5
-0.3
-0.74
0.51
0.01
-0.17

>  <PUBCHEM_SHAPE_SELFOVERLAP>  (1) 
613.463

>  <PUBCHEM_SHAPE_VOLUME>  (1) 
212.7

>  <PUBCHEM_COORDINATE_TYPE>  (1) 
2
5
10

$$$$
