14588
     RDKit          3D

 16 18  0  0  0  0  0  0  0  0999 V2000
    0.0113    1.0408    2.1683 O   0  0  0  0  0  0  0  0  0  0  0  0
   -0.0191    1.1352    0.7421 C   0  0  0  0  0  0  0  0  0  0  0  0
    0.7370   -1.7089    0.9956 C   0  0  0  0  0  0  0  0  0  0  0  0
   -0.5159   -1.9672    0.1646 C   0  0  0  0  0  0  0  0  0  0  0  0
    1.2796    0.6141    0.1704 C   0  0  0  0  0  0  0  0  0  0  0  0
   -1.2926    0.5290    0.1764 C   0  0  0  0  0  0  0  0  0  0  0  0
    1.6569   -0.7316    0.3164 C   0  0  0  0  0  0  0  0  0  0  0  0
   -1.5138   -0.8462   -0.0457 C   0  0  0  0  0  0  0  0  0  0  0  0
    2.1443    1.4941   -0.5024 C   0  0  0  0  0  0  0  0  0  0  0  0
   -2.3444    1.4343   -0.0966 C   0  0  0  0  0  0  0  0  0  0  0  0
    2.8840   -1.1702   -0.2052 C   0  0  0  0  0  0  0  0  0  0  0  0
   -2.7651   -1.2531   -0.5643 C   0  0  0  0  0  0  0  0  0  0  0  0
    3.3611    1.0476   -1.0179 C   0  0  0  0  0  0  0  0  0  0  0  0
   -3.5724    1.0072   -0.5984 C   0  0  0  0  0  0  0  0  0  0  0  0
    3.7318   -0.2842   -0.8676 C   0  0  0  0  0  0  0  0  0  0  0  0
   -3.7827   -0.3410   -0.8357 C   0  0  0  0  0  0  0  0  0  0  0  0
  1  2  1  0
  2  5  1  0
  2  6  1  0
  3  4  1  0
  3  7  1  0
  4  8  1  0
  5  7  2  0
  5  9  1  0
  6  8  2  0
  6 10  1  0
  7 11  1  0
  8 12  1  0
  9 13  2  0
 10 14  2  0
 11 15  2  0
 12 16  2  0
 13 15  1  0
 14 16  1  0
M  END
>  <PUBCHEM_COMPOUND_CID>  (1) 
14588

>  <PUBCHEM_CONFORMER_RMSD>  (1) 
0.4

>  <PUBCHEM_CONFORMER_DIVERSEORDER>  (1) 
2
3
4
1

>  <PUBCHEM_MMFF94_PARTIAL_CHARGES>  (1) 
25
1 -0.68
10 -0.15
11 -0.15
12 -0.15
13 -0.15
14 -0.15
15 -0.15
16 -0.15
2 0.57
22 0.15
23 0.15
24 0.15
25 0.15
26 0.15
27 0.15
28 0.15
29 0.15
3 0.14
30 0.4
4 0.14
5 -0.14
6 -0.14
7 -0.14
8 -0.14
9 -0.15

>  <PUBCHEM_EFFECTIVE_ROTOR_COUNT>  (1) 
0.6

>  <PUBCHEM_PHARMACOPHORE_FEATURES>  (1) 
5
1 1 acceptor
1 1 donor
6 5 7 9 11 13 15 rings
6 6 8 10 12 14 16 rings
7 2 3 4 5 6 7 8 rings

>  <PUBCHEM_HEAVY_ATOM_COUNT>  (1) 
16

>  <PUBCHEM_ATOM_DEF_STEREO_COUNT>  (1) 
0

>  <PUBCHEM_ATOM_UDEF_STEREO_COUNT>  (1) 
0

>  <PUBCHEM_BOND_DEF_STEREO_COUNT>  (1) 
0

>  <PUBCHEM_BOND_UDEF_STEREO_COUNT>  (1) 
0

>  <PUBCHEM_ISOTOPIC_ATOM_COUNT>  (1) 
0

>  <PUBCHEM_COMPONENT_COUNT>  (1) 
1

>  <PUBCHEM_CACTVS_TAUTO_COUNT>  (1) 
1

>  <PUBCHEM_CONFORMER_ID>  (1) 
000038FC00000002

>  <PUBCHEM_MMFF94_ENERGY>  (1) 
51.0135

>  <PUBCHEM_FEATURE_SELFOVERLAP>  (1) 
25.387

>  <PUBCHEM_SHAPE_FINGERPRINT>  (1) 
10062212 137 18341603764083230975
10498660 4 17895461588438315741
10863032 1 18260550043089338878
12202030 40 15266480985149829255
12491281 212 18040159512933415053
13004483 165 16020533395156612595
13296908 3 17203601601425316681
14115302 16 18342173345333879149
15775835 57 18187369800445179134
16752209 62 17845362255382944393
16945 1 18266742557149097762
1813 80 13757810243050798232
18186145 218 18409169900281542012
19862831 5 18341615901575939348
200 152 17917716799011445086
20361792 2 16128657465739616641
20645476 183 18187362138308444967
22802520 49 18195532720798753987
231179 274 16733253595284468965
23382010 3 18336542819318215626
23402539 116 18412539891105362484
23402655 69 18408604729798594772
23493267 7 17603866732243102979
23559900 14 18272651256166066168
25 1 17967817111113818986
2748010 2 17114097227418529003
3082319 5 18334575741534675725
353137 74 18409169913103081849
474 4 17023191590504352228
5262128 65 17845114938064783524
528886 8 18187079555134758712
549884 4 18272080625977669793
9981440 41 17683525409600388904

>  <PUBCHEM_SHAPE_MULTIPOLES>  (1) 
323.4
6.18
1.9
1.15
0.55
0.36
0.44
-0.76
-2.94
-0.01
0.13
-0.15
-0.2
-0.37

>  <PUBCHEM_SHAPE_SELFOVERLAP>  (1) 
709.88

>  <PUBCHEM_SHAPE_VOLUME>  (1) 
172.4

>  <PUBCHEM_COORDINATE_TYPE>  (1) 
2
5
10

$$$$
