14580
     RDKit          3D

 15 16  0  0  0  0  0  0  0  0999 V2000
    1.6727   -2.2776    0.2122 N   0  0  0  0  0  0  0  0  0  0  0  0
   -4.6673    0.1343   -1.1601 N   0  0  0  0  0  0  0  0  0  0  0  0
    0.3583   -0.0518    1.5052 C   0  0  0  0  0  0  0  0  0  0  0  0
    1.5491    0.1305    0.5857 C   0  0  0  0  0  0  0  0  0  0  0  0
   -0.9585   -0.0029    0.8068 C   0  0  0  0  0  0  0  0  0  0  0  0
    2.1459   -0.9659   -0.0117 C   0  0  0  0  0  0  0  0  0  0  0  0
    2.0128    1.4166    0.3663 C   0  0  0  0  0  0  0  0  0  0  0  0
   -1.5259   -1.1745    0.3060 C   0  0  0  0  0  0  0  0  0  0  0  0
   -1.6225    1.2143    0.6542 C   0  0  0  0  0  0  0  0  0  0  0  0
    3.2402   -0.7711   -0.8545 C   0  0  0  0  0  0  0  0  0  0  0  0
   -2.7574   -1.1289   -0.3475 C   0  0  0  0  0  0  0  0  0  0  0  0
   -2.8540    1.2598    0.0009 C   0  0  0  0  0  0  0  0  0  0  0  0
   -3.4215    0.0883   -0.5001 C   0  0  0  0  0  0  0  0  0  0  0  0
    3.1072    1.6114   -0.4765 C   0  0  0  0  0  0  0  0  0  0  0  0
    3.7209    0.5176   -1.0868 C   0  0  0  0  0  0  0  0  0  0  0  0
  1  6  1  0
  2 13  1  0
  3  4  1  0
  3  5  1  0
  4  6  2  0
  4  7  1  0
  5  8  2  0
  5  9  1  0
  6 10  1  0
  7 14  2  0
  8 11  1  0
  9 12  2  0
 10 15  2  0
 11 13  2  0
 12 13  1  0
 14 15  1  0
M  END
>  <PUBCHEM_COMPOUND_CID>  (1) 
14580

>  <PUBCHEM_CONFORMER_RMSD>  (1) 
0.6

>  <PUBCHEM_CONFORMER_DIVERSEORDER>  (1) 
2
7
3
4
6
5
1

>  <PUBCHEM_MMFF94_PARTIAL_CHARGES>  (1) 
27
1 -0.9
10 -0.15
11 -0.15
12 -0.15
13 0.1
14 -0.15
15 -0.15
18 0.15
19 0.15
2 -0.9
20 0.15
21 0.15
22 0.15
23 0.15
24 0.15
25 0.15
26 0.4
27 0.4
28 0.4
29 0.4
3 0.29
4 -0.14
5 -0.14
6 0.1
7 -0.15
8 -0.15
9 -0.15

>  <PUBCHEM_EFFECTIVE_ROTOR_COUNT>  (1) 
2

>  <PUBCHEM_PHARMACOPHORE_FEATURES>  (1) 
6
1 1 cation
1 1 donor
1 2 cation
1 2 donor
6 4 6 7 10 14 15 rings
6 5 8 9 11 12 13 rings

>  <PUBCHEM_HEAVY_ATOM_COUNT>  (1) 
15

>  <PUBCHEM_ATOM_DEF_STEREO_COUNT>  (1) 
0

>  <PUBCHEM_ATOM_UDEF_STEREO_COUNT>  (1) 
0

>  <PUBCHEM_BOND_DEF_STEREO_COUNT>  (1) 
0

>  <PUBCHEM_BOND_UDEF_STEREO_COUNT>  (1) 
0

>  <PUBCHEM_ISOTOPIC_ATOM_COUNT>  (1) 
0

>  <PUBCHEM_COMPONENT_COUNT>  (1) 
1

>  <PUBCHEM_CACTVS_TAUTO_COUNT>  (1) 
1

>  <PUBCHEM_CONFORMER_ID>  (1) 
000038F400000002

>  <PUBCHEM_MMFF94_ENERGY>  (1) 
62.8207

>  <PUBCHEM_FEATURE_SELFOVERLAP>  (1) 
30.446

>  <PUBCHEM_SHAPE_FINGERPRINT>  (1) 
10498660 4 17894624868579331205
11715629 250 18259696804933918229
12382932 28 10953455249723758206
12507560 40 8934732079768626618
12707595 3 16200428078605073425
12897270 3 18340209686402127768
13296908 3 15051729763842947889
13675066 3 11743838088756237629
13693222 15 9511455619851621713
13705890 14 17775292664219720244
13764800 53 15574725681120038209
14250199 8 18336553805808155308
15239191 94 14261359054341496308
15653759 3 10087650290140799782
15775835 57 16660638578889674937
16752209 62 17131551639997818067
16945 1 18411985745228275594
17804303 29 9799150572289941489
18186145 218 18040720251010262529
19862831 5 18202570574484836012
200 152 17775569740606555308
20361792 2 15339120138823008737
20523700 14 18410011065315749951
20645477 70 18272936015817150327
20671657 53 16773799181960037704
20871999 31 18343019987005394501
21065199 12 9079122150099018133
21501502 16 18270402668175561113
22646028 28 14836123264677524717
231179 274 17167577194042296972
23402539 116 17748821956056348988
23402655 69 18410295787303749076
23557571 272 17095820904802932827
23559900 14 18271803553838277456
23598291 2 18126574422411534674
25 1 18187657872808199970
2748010 2 17476919528944617490
3060560 45 18410009953320030230
3082319 5 18413110545634104473
4028521 119 18040431092569415013
42 15 10807940379303996901
4280585 95 17481726156386616046
474 4 17458350783380641084
5262128 65 17631192873353947684
58051976 378 18271805769709228956
8030462 33 18273497861974181737
93112 12 18411983567679849669

>  <PUBCHEM_SHAPE_MULTIPOLES>  (1) 
298.73
7.3
1.71
1.12
2.76
0.27
0.07
-0.91
-3.58
-0.68
0.04
-0.01
-0.05
-0.15

>  <PUBCHEM_SHAPE_SELFOVERLAP>  (1) 
643.153

>  <PUBCHEM_SHAPE_VOLUME>  (1) 
164.6

>  <PUBCHEM_COORDINATE_TYPE>  (1) 
2
5
10

$$$$
