14593
     RDKit          3D

 16 17  0  0  0  0  0  0  0  0999 V2000
   -4.8478    1.0730   -0.2327 O   0  0  0  0  0  0  0  0  0  0  0  0
   -4.8481   -1.0728    0.2304 O   0  0  0  0  0  0  0  0  0  0  0  0
   -4.2399    0.0001   -0.0007 N   0  0  0  0  0  0  0  0  0  0  0  0
    5.6169   -0.0001   -0.0018 N   0  0  0  0  0  0  0  0  0  0  0  0
   -0.0303    0.0001    0.0013 C   0  0  0  0  0  0  0  0  0  0  0  0
    1.4166   -0.0001    0.0017 C   0  0  0  0  0  0  0  0  0  0  0  0
   -0.7273    1.1808   -0.2543 C   0  0  0  0  0  0  0  0  0  0  0  0
   -0.7278   -1.1807    0.2561 C   0  0  0  0  0  0  0  0  0  0  0  0
    2.1143    1.1498    0.3711 C   0  0  0  0  0  0  0  0  0  0  0  0
    2.1137   -1.1500   -0.3691 C   0  0  0  0  0  0  0  0  0  0  0  0
   -2.8199    0.0000   -0.0002 C   0  0  0  0  0  0  0  0  0  0  0  0
   -2.1223    1.1807   -0.2549 C   0  0  0  0  0  0  0  0  0  0  0  0
   -2.1226   -1.1807    0.2553 C   0  0  0  0  0  0  0  0  0  0  0  0
    4.2063    0.0000   -0.0012 C   0  0  0  0  0  0  0  0  0  0  0  0
    3.5092    1.1499    0.3695 C   0  0  0  0  0  0  0  0  0  0  0  0
    3.5086   -1.1499   -0.3705 C   0  0  0  0  0  0  0  0  0  0  0  0
  1  3  1  0
  2  3  2  0
  3 11  1  0
  4 14  1  0
  5  6  1  0
  5  7  2  0
  5  8  1  0
  6  9  2  0
  6 10  1  0
  7 12  1  0
  8 13  2  0
  9 15  1  0
 10 16  2  0
 11 12  2  0
 11 13  1  0
 14 15  2  0
 14 16  1  0
M  CHG  2   1  -1   3   1
M  END
>  <PUBCHEM_COMPOUND_CID>  (1) 
14593

>  <PUBCHEM_CONFORMER_RMSD>  (1) 
0.6

>  <PUBCHEM_CONFORMER_DIVERSEORDER>  (1) 
1

>  <PUBCHEM_MMFF94_PARTIAL_CHARGES>  (1) 
24
1 -0.52
10 -0.15
11 0.13
12 -0.15
13 -0.15
14 0.1
15 -0.15
16 -0.15
17 0.15
18 0.15
19 0.15
2 -0.52
20 0.15
21 0.15
22 0.15
23 0.15
24 0.15
25 0.4
26 0.4
3 0.91
4 -0.9
7 -0.15
8 -0.15
9 -0.15

>  <PUBCHEM_EFFECTIVE_ROTOR_COUNT>  (1) 
2

>  <PUBCHEM_PHARMACOPHORE_FEATURES>  (1) 
7
1 1 acceptor
1 1 anion
1 2 acceptor
1 4 cation
1 4 donor
6 5 7 8 11 12 13 rings
6 6 9 10 14 15 16 rings

>  <PUBCHEM_HEAVY_ATOM_COUNT>  (1) 
16

>  <PUBCHEM_ATOM_DEF_STEREO_COUNT>  (1) 
0

>  <PUBCHEM_ATOM_UDEF_STEREO_COUNT>  (1) 
0

>  <PUBCHEM_BOND_DEF_STEREO_COUNT>  (1) 
0

>  <PUBCHEM_BOND_UDEF_STEREO_COUNT>  (1) 
0

>  <PUBCHEM_ISOTOPIC_ATOM_COUNT>  (1) 
0

>  <PUBCHEM_COMPONENT_COUNT>  (1) 
1

>  <PUBCHEM_CACTVS_TAUTO_COUNT>  (1) 
1

>  <PUBCHEM_CONFORMER_ID>  (1) 
0000390100000001

>  <PUBCHEM_MMFF94_ENERGY>  (1) 
65.1258

>  <PUBCHEM_FEATURE_SELFOVERLAP>  (1) 
35.602

>  <PUBCHEM_SHAPE_FINGERPRINT>  (1) 
10608611 8 18411695491686980360
11401426 45 18335419058806174943
11471102 20 18272651247059108360
12032990 46 18408327700566384403
12119455 92 17775846817636891053
12236239 1 16515402967401689960
13214271 11 18410854369892355567
13675066 3 18334579074761470217
14115302 16 17894922853304734902
14123238 8 18409730664117695486
15196674 1 18410292510227488007
15219456 202 18413388734960775270
15375358 24 18410576192786026122
17802600 8 18411134732103440080
17834072 33 18059854012407208911
18186145 218 18114455708566669053
18522853 276 18272088288431584000
200 152 17775565333927840195
20279233 1 18410581686349845618
20510252 161 18341331085283893329
20528008 55 18412824702670327091
20645477 70 18201722795681644694
21267235 1 18411709785364248862
22854114 59 18201718461742592368
23402539 116 18411411817549455167
23402655 69 18272929393024890053
23557571 272 17968094183986682036
23559900 14 18410292493575392838
26918003 58 18413387639749402714
351380 180 18411134732055733466
3545911 37 18412546517696658858
42 15 18335139786720477570
4214541 1 18411700980633832289
42788 4 18410575093258294756
474 4 16154567539496180652
4990 188 18342179951009489278
5104073 3 18411138004551769098
542803 24 16732986427075916548
69090 78 18342453755290829183
77779 3 18412827979820103149
9709674 26 18411987957126519854

>  <PUBCHEM_SHAPE_MULTIPOLES>  (1) 
307.57
10.1
1.43
0.65
0.87
0
0
0
0.01
0.14
0
-0.08
0
0.55

>  <PUBCHEM_SHAPE_SELFOVERLAP>  (1) 
671.193

>  <PUBCHEM_SHAPE_VOLUME>  (1) 
169.1

>  <PUBCHEM_COORDINATE_TYPE>  (1) 
2
5
10

$$$$
