14592
     RDKit          3D

 16 17  0  0  1  0  0  0  0  0999 V2000
   -2.0994    0.2718   -0.1527 N   0  0  0  0  0  0  0  0  0  0  0  0
   -0.7327    0.0657    0.3031 C   0  0  0  0  0  0  0  0  0  0  0  0
   -3.0884   -0.1544    0.8369 C   0  0  0  0  0  0  0  0  0  0  0  0
   -2.3975    1.6814   -0.4045 C   0  0  0  0  0  0  0  0  0  0  0  0
   -4.3713    0.4953    0.3394 C   0  0  0  0  0  0  0  0  0  0  0  0
   -3.9171    1.6997   -0.4794 C   0  0  0  0  0  0  0  0  0  0  0  0
   -0.4919   -1.4105    0.6858 C   0  0  0  0  0  0  0  0  0  0  0  0
    0.2309    0.6150   -0.7672 C   0  0  0  0  0  0  0  0  0  0  0  0
   -0.6996   -2.4277   -0.4411 C   0  0  0  0  0  0  0  0  0  0  0  0
    1.6854    0.5563   -0.3650 C   0  0  0  0  0  0  0  0  0  0  0  0
   -0.5155   -3.8522    0.0631 C   0  0  0  0  0  0  0  0  0  0  0  0
    2.2493    1.6324    0.3015 C   0  0  0  0  0  0  0  0  0  0  0  0
    2.4289   -0.5727   -0.6694 C   0  0  0  0  0  0  0  0  0  0  0  0
    3.5926    1.5782    0.6732 C   0  0  0  0  0  0  0  0  0  0  0  0
    3.7722   -0.6269   -0.2975 C   0  0  0  0  0  0  0  0  0  0  0  0
    4.3540    0.4486    0.3738 C   0  0  0  0  0  0  0  0  0  0  0  0
  1  2  1  0
  1  3  1  0
  1  4  1  0
  2  7  1  0
  2  8  1  0
  3  5  1  0
  4  6  1  0
  5  6  1  0
  7  9  1  0
  8 10  1  0
  9 11  1  0
 10 12  2  0
 10 13  1  0
 12 14  1  0
 13 15  2  0
 14 16  2  0
 15 16  1  0
M  END
>  <PUBCHEM_COMPOUND_CID>  (1) 
14592

>  <PUBCHEM_CONFORMER_RMSD>  (1) 
0.8

>  <PUBCHEM_CONFORMER_DIVERSEORDER>  (1) 
1
14
3
13
7
4
12
9
2
10
8
6
11
5

>  <PUBCHEM_MMFF94_PARTIAL_CHARGES>  (1) 
16
1 -0.81
10 -0.14
12 -0.15
13 -0.15
14 -0.15
15 -0.15
16 -0.15
2 0.27
3 0.27
35 0.15
36 0.15
37 0.15
38 0.15
39 0.15
4 0.27
8 0.14

>  <PUBCHEM_EFFECTIVE_ROTOR_COUNT>  (1) 
6

>  <PUBCHEM_PHARMACOPHORE_FEATURES>  (1) 
4
1 1 cation
1 11 hydrophobe
5 1 3 4 5 6 rings
6 10 12 13 14 15 16 rings

>  <PUBCHEM_HEAVY_ATOM_COUNT>  (1) 
16

>  <PUBCHEM_ATOM_DEF_STEREO_COUNT>  (1) 
0

>  <PUBCHEM_ATOM_UDEF_STEREO_COUNT>  (1) 
1

>  <PUBCHEM_BOND_DEF_STEREO_COUNT>  (1) 
0

>  <PUBCHEM_BOND_UDEF_STEREO_COUNT>  (1) 
0

>  <PUBCHEM_ISOTOPIC_ATOM_COUNT>  (1) 
0

>  <PUBCHEM_COMPONENT_COUNT>  (1) 
1

>  <PUBCHEM_CACTVS_TAUTO_COUNT>  (1) 
1

>  <PUBCHEM_CONFORMER_ID>  (1) 
0000390000000001

>  <PUBCHEM_MMFF94_ENERGY>  (1) 
28.8841

>  <PUBCHEM_FEATURE_SELFOVERLAP>  (1) 
20.297

>  <PUBCHEM_SHAPE_FINGERPRINT>  (1) 
10608611 8 18341329010951819680
10922049 32 18410295791809491923
11132069 177 18186524293658379805
11370993 70 18412542106680947323
12251169 10 18336262440080710180
12403259 415 18409735036516150917
12500047 106 18339921614714333392
12507560 14 18268984285728834034
12532896 13 18411697707636956143
12553582 1 17255978182240033942
12592029 89 18337113354400614683
12730499 353 18265338309750965001
13004483 165 17622431062581816038
13380535 76 18272652367829489934
13544592 145 18342467997935094014
13675066 3 18333454248195791321
14115302 16 18336559269749919428
14178000 22 18410283722893426327
14178342 30 18120079831202923338
15042514 8 18191030212610600227
15309172 13 18410299094681404273
15852999 172 18130794464267040518
18186145 218 18201167567588466441
204376 136 18411703188167712767
20510252 161 18342742944271292921
20524608 308 18338797935005227242
20645477 56 18338796818387667848
20645477 70 18059011674994732998
20832881 197 17911813379290394974
21033648 29 18340193142136207248
212916 134 18270378543491894592
21501502 16 18120373422129446948
21524375 3 18333733498637866563
23402539 116 18343292674072920285
23558518 356 17829322832864509264
23559900 14 18202283602751787834
23598291 2 17459196350919500630
257057 1 17474667733595165375
2748010 2 18335718108504451647
351380 180 18413103948712466093
366044 4 18409448076876369483
474229 33 18409449224181452067
532947 4 18197218036197040598
57426455 114 18341889706115586272
6138700 20 18050009892201017974
633830 44 18059298651919852293
69090 78 18412543240647245975
7164475 11 17977103783790699974
7364860 26 18050004390104642951
81228 2 17975688716863221595
81539 233 18188772721769776503
88987 49 18265347281457397654
9709674 26 18271810193594310862

>  <PUBCHEM_SHAPE_MULTIPOLES>  (1) 
324.29
7.88
2.87
0.86
0.51
3.53
-0.02
-4.38
-0.78
-0.93
0.06
-0.01
-0.03
0.71

>  <PUBCHEM_SHAPE_SELFOVERLAP>  (1) 
660.496

>  <PUBCHEM_SHAPE_VOLUME>  (1) 
190.8

>  <PUBCHEM_COORDINATE_TYPE>  (1) 
2
5
10

$$$$
