14598
     RDKit          3D

 16 16  0  0  0  0  0  0  0  0999 V2000
    4.9187   -2.1778   -0.8686 F   0  0  0  0  0  0  0  0  0  0  0  0
   -4.3578   -1.1071   -0.9527 O   0  0  0  0  0  0  0  0  0  0  0  0
   -4.1692   -0.4370    1.2467 O   0  0  0  0  0  0  0  0  0  0  0  0
    3.2289   -0.1743    0.0509 N   0  0  0  0  0  0  0  0  0  0  0  0
   -1.5807    0.5935    0.8121 C   0  0  0  0  0  0  0  0  0  0  0  0
   -0.2299    1.0846    0.3599 C   0  0  0  0  0  0  0  0  0  0  0  0
    2.1113    0.6845   -0.0022 C   0  0  0  0  0  0  0  0  0  0  0  0
   -2.3676   -0.0358   -0.3371 C   0  0  0  0  0  0  0  0  0  0  0  0
    0.8610    0.2296    0.4170 C   0  0  0  0  0  0  0  0  0  0  0  0
   -0.0985    2.3841   -0.1070 C   0  0  0  0  0  0  0  0  0  0  0  0
    2.2565    1.9892   -0.4739 C   0  0  0  0  0  0  0  0  0  0  0  0
    1.1515    2.8390   -0.5261 C   0  0  0  0  0  0  0  0  0  0  0  0
    3.1510   -1.5221    0.5229 C   0  0  0  0  0  0  0  0  0  0  0  0
   -3.7220   -0.5347    0.1123 C   0  0  0  0  0  0  0  0  0  0  0  0
    4.5097   -2.1859    0.4289 C   0  0  0  0  0  0  0  0  0  0  0  0
   -5.6628   -1.6297   -0.6832 C   0  0  0  0  0  0  0  0  0  0  0  0
  1 15  1  0
  2 14  1  0
  2 16  1  0
  3 14  2  0
  4  7  1  0
  4 13  1  0
  5  6  1  0
  5  8  1  0
  6  9  2  0
  6 10  1  0
  7  9  1  0
  7 11  2  0
  8 14  1  0
 10 12  2  0
 11 12  1  0
 13 15  1  0
M  END
>  <PUBCHEM_COMPOUND_CID>  (1) 
14598

>  <PUBCHEM_CONFORMER_RMSD>  (1) 
0.8

>  <PUBCHEM_CONFORMER_DIVERSEORDER>  (1) 
1
96
27
9
124
89
76
116
74
137
95
62
109
118
140
94
119
84
125
108
113
60
4
136
56
114
135
3
66
99
132
22
26
105
54
50
53
69
107
42
77
117
112
115
13
134
102
91
81
83
31
40
130
126
24
58
104
138
111
30
47
86
129
85
110
73
52
43
38
141
19
15
127
23
48
123
90
35
36
106
65
57
17
25
59
46
28
61
128
121
71
78
63
51
18
122
93
11
68
32
82
100
37
55
8
29
98
5
34
39
72
87
12
33
88
41
16
97
92
44
45
139
6
70
21
10
103
49
79
2
101
7
133
64
75
120
20
67
14
131
80

>  <PUBCHEM_MMFF94_PARTIAL_CHARGES>  (1) 
21
1 -0.34
10 -0.15
11 -0.15
12 -0.15
13 0.37
14 0.66
15 0.34
16 0.28
2 -0.43
21 0.15
22 0.15
23 0.4
24 0.15
25 0.15
3 -0.57
4 -0.87
5 0.14
6 -0.14
7 0.1
8 0.06
9 -0.15

>  <PUBCHEM_EFFECTIVE_ROTOR_COUNT>  (1) 
7

>  <PUBCHEM_PHARMACOPHORE_FEATURES>  (1) 
4
1 3 acceptor
1 4 cation
1 4 donor
6 6 7 9 10 11 12 rings

>  <PUBCHEM_HEAVY_ATOM_COUNT>  (1) 
16

>  <PUBCHEM_ATOM_DEF_STEREO_COUNT>  (1) 
0

>  <PUBCHEM_ATOM_UDEF_STEREO_COUNT>  (1) 
0

>  <PUBCHEM_BOND_DEF_STEREO_COUNT>  (1) 
0

>  <PUBCHEM_BOND_UDEF_STEREO_COUNT>  (1) 
0

>  <PUBCHEM_ISOTOPIC_ATOM_COUNT>  (1) 
0

>  <PUBCHEM_COMPONENT_COUNT>  (1) 
1

>  <PUBCHEM_CACTVS_TAUTO_COUNT>  (1) 
1

>  <PUBCHEM_CONFORMER_ID>  (1) 
0000390600000001

>  <PUBCHEM_MMFF94_ENERGY>  (1) 
37.9504

>  <PUBCHEM_FEATURE_SELFOVERLAP>  (1) 
20.297

>  <PUBCHEM_SHAPE_FINGERPRINT>  (1) 
10042902 136 17988649584011996310
12403259 327 15554436423033316134
12553582 1 18188213091678310954
13533116 47 18269272538380196131
13955234 65 18124595542306064737
14178000 29 18411419492745651196
1420 369 18343581819850736778
14251740 57 18201434805028503490
14252887 29 18410005559589773968
14576447 43 18340207504532562468
14767858 380 18188510025091535614
15342816 4 18338522937345536510
15477762 27 18336543906124555904
17539 30 18044931269081840620
1813 80 18341902857157727878
18186145 218 17167577215812714465
18222031 100 18411978040352611698
19141452 34 18054514599264773568
193927 3 18340776961398574778
19784866 240 18343021086480008055
20281475 54 18341614858373704977
20388580 30 18408323289434582900
20645477 70 18188482596765549491
20671657 53 18408325479636022597
20693207 138 17313966232383678443
20871998 22 18409165498325529688
20871999 31 17822858559175632942
221490 88 18116441520797646771
23500284 214 9943507627544097852
314194 84 18410019831634314002
4463277 69 18342735204534341204
46194498 28 17531523308126358373
5207 123 18410849932879779101
5281201 14 17895467124814716381
573450 72 17632583768896028467
58779409 54 17972587797672969492
6025842 7 18191021420290046037
76465 3 18411979139568638858
7970288 3 18338230466768134578

>  <PUBCHEM_SHAPE_MULTIPOLES>  (1) 
305.28
10.41
2.87
0.91
8.09
0.73
-0.04
-11.09
1.73
-3.23
0.53
0.44
-0.14
-0.63

>  <PUBCHEM_SHAPE_SELFOVERLAP>  (1) 
615.367

>  <PUBCHEM_SHAPE_VOLUME>  (1) 
179.5

>  <PUBCHEM_COORDINATE_TYPE>  (1) 
2
5
10

$$$$
