1460
     RDKit          3D

 29 31  0  0  1  0  0  0  0  0999 V2000
   -3.5015   -1.8973    0.8273 P   0  0  0  0  0  0  0  0  0  0  0  0
   -4.3303    0.9241    0.9614 P   0  0  0  0  0  0  0  0  0  0  0  0
   -2.7548    2.8222   -0.6569 P   0  0  0  0  0  0  0  0  0  0  0  0
    0.3085   -1.2873   -0.4062 O   0  0  0  0  0  0  0  0  0  0  0  0
   -2.1659   -2.5284    0.1669 O   0  0  0  0  0  0  0  0  0  0  0  0
   -3.3251   -0.3009    0.6530 O   0  0  0  0  0  0  0  0  0  0  0  0
   -4.6779   -2.2564   -0.2236 O   0  0  0  0  0  0  0  0  0  0  0  0
   -3.7751   -2.3354    2.2368 O   0  0  0  0  0  0  0  0  0  0  0  0
   -3.4200    2.2315    0.6923 O   0  0  0  0  0  0  0  0  0  0  0  0
   -4.4880    0.8998    2.5701 O   0  0  0  0  0  0  0  0  0  0  0  0
   -5.6236    0.8965    0.2014 O   0  0  0  0  0  0  0  0  0  0  0  0
   -1.8632    4.0567   -0.1151 O   0  0  0  0  0  0  0  0  0  0  0  0
   -1.6534    1.7088   -1.0559 O   0  0  0  0  0  0  0  0  0  0  0  0
   -3.7357    3.1701   -1.7375 O   0  0  0  0  0  0  0  0  0  0  0  0
    2.5924   -0.6887   -0.2203 N   0  0  0  0  0  0  0  0  0  0  0  0
    4.0319   -1.3857    1.3380 N   0  0  0  0  0  0  0  0  0  0  0  0
    3.6760    1.3822   -0.8849 N   0  0  0  0  0  0  0  0  0  0  0  0
    5.7339    1.7532    0.3734 N   0  0  0  0  0  0  0  0  0  0  0  0
    6.5180    0.2201    2.0352 N   0  0  0  0  0  0  0  0  0  0  0  0
    1.4224   -0.6822   -1.0904 C   0  0  0  0  0  0  0  0  0  0  0  0
   -0.2946   -2.2470   -1.2914 C   0  0  0  0  0  0  0  0  0  0  0  0
    1.6113   -1.4366   -2.3992 C   0  0  0  0  0  0  0  0  0  0  0  0
    0.2066   -1.9092   -2.6853 C   0  0  0  0  0  0  0  0  0  0  0  0
   -1.8040   -2.1881   -1.1607 C   0  0  0  0  0  0  0  0  0  0  0  0
    3.5791    0.2572   -0.1605 C   0  0  0  0  0  0  0  0  0  0  0  0
    2.9115   -1.6545    0.7006 C   0  0  0  0  0  0  0  0  0  0  0  0
    4.4600   -0.1938    0.8097 C   0  0  0  0  0  0  0  0  0  0  0  0
    5.5719    0.6015    1.0682 C   0  0  0  0  0  0  0  0  0  0  0  0
    4.7899    2.0673   -0.5465 C   0  0  0  0  0  0  0  0  0  0  0  0
  1  5  1  0
  1  6  1  0
  1  7  1  0
  1  8  2  0
  2  6  1  0
  2  9  1  0
  2 10  1  0
  2 11  2  0
  3  9  1  0
  3 12  1  0
  3 13  1  0
  3 14  2  0
  4 20  1  0
  4 21  1  0
  5 24  1  0
 15 20  1  0
 15 25  1  0
 15 26  1  0
 16 26  2  0
 16 27  1  0
 17 25  1  0
 17 29  2  0
 18 28  2  0
 18 29  1  0
 19 28  1  0
 20 22  1  0
 21 23  1  0
 21 24  1  0
 22 23  1  0
 25 27  2  0
 27 28  1  0
M  END
>  <PUBCHEM_COMPOUND_CID>  (1) 
1460

>  <PUBCHEM_CONFORMER_RMSD>  (1) 
1.4

>  <PUBCHEM_CONFORMER_DIVERSEORDER>  (1) 
6
120
1
4
92
143
48
193
7
139
132
26
117
146
54
167
118
96
99
195
16
182
14
111
136
17
210
204
59
44
95
196
91
39
181
179
114
89
82
177
98
15
20
137
41
171
138
33
80
207
188
161
149
116
102
25
173
106
168
34
191
174
108
79
127
73
43
100
185
70
158
221
94
40
214
36
107
198
104
144
51
217
145
71
141
38
84
49
189
47
224
220
186
65
157
192
109
216
42
19
101
97
162
56
164
52
12
142
103
23
187
31
46
119
93
62
206
53
147
55
201
165
60
10
160
229
155
163
3
183
153
140
32
113
152
175
105
28
115
81
227
209
5
215
134
121
75
124
156
83
218
203
123
199
122
68
180
213
212
219
228
76
27
226
37
11
148
22
72
184
87
170
151
112
166
176
57
150
30
194
225
61
131
29
200
63
9
125
85
126
21
35
208
159
45
78
86
172
110
13
135
197
128
58
154
190
50
211
24
223
133
66
222
2
18
74
178
77
130
90
169
202
8
67
205
129
64
69
88

>  <PUBCHEM_MMFF94_PARTIAL_CHARGES>  (1) 
35
1 1.51
10 -0.77
11 -0.7
12 -0.77
13 -0.77
14 -0.7
15 0.05
16 -0.57
17 -0.57
18 -0.62
19 -0.9
2 1.51
20 0.54
21 0.28
24 0.28
25 0.11
26 0.04
27 0.23
28 0.41
29 0.47
3 1.51
38 0.15
39 0.15
4 -0.56
40 0.4
41 0.4
42 0.5
43 0.5
44 0.5
45 0.5
5 -0.55
6 -0.54
7 -0.77
8 -0.7
9 -0.54

>  <PUBCHEM_EFFECTIVE_ROTOR_COUNT>  (1) 
9

>  <PUBCHEM_PHARMACOPHORE_FEATURES>  (1) 
17
1 10 acceptor
1 11 acceptor
1 12 acceptor
1 13 acceptor
1 14 acceptor
1 19 cation
1 19 donor
1 4 acceptor
1 7 acceptor
1 8 acceptor
3 15 16 26 cation
3 15 17 25 cation
3 17 18 29 cation
4 3 12 13 14 anion
5 15 16 25 26 27 rings
5 4 20 21 22 23 rings
6 17 18 25 27 28 29 rings

>  <PUBCHEM_HEAVY_ATOM_COUNT>  (1) 
29

>  <PUBCHEM_ATOM_DEF_STEREO_COUNT>  (1) 
0

>  <PUBCHEM_ATOM_UDEF_STEREO_COUNT>  (1) 
2

>  <PUBCHEM_BOND_DEF_STEREO_COUNT>  (1) 
0

>  <PUBCHEM_BOND_UDEF_STEREO_COUNT>  (1) 
0

>  <PUBCHEM_ISOTOPIC_ATOM_COUNT>  (1) 
0

>  <PUBCHEM_COMPONENT_COUNT>  (1) 
1

>  <PUBCHEM_CACTVS_TAUTO_COUNT>  (1) 
3

>  <PUBCHEM_CONFORMER_ID>  (1) 
000005B400000006

>  <PUBCHEM_MMFF94_ENERGY>  (1) 
-19.1376

>  <PUBCHEM_FEATURE_SELFOVERLAP>  (1) 
86.938

>  <PUBCHEM_SHAPE_FINGERPRINT>  (1) 
105312 117 17203609319792998582
10554248 39 15554450734913820664
10670039 82 18340222876726950212
10675989 125 17184175151067240813
11595378 159 18187940502798992406
11796584 16 11170174485090968706
12422481 6 18411987966101011300
12596602 18 17604144960119289698
12892183 10 18259705609759728394
12969540 114 16056602079642017454
13402501 40 18343303648115249177
13583140 156 17895180074616884588
14251740 79 9079126561151776325
14251764 38 18198626519023211893
144659 39 18410570648130953200
14950920 106 17822285846825092210
15513586 35 18051693544512329696
21302155 148 18342179981296040184
22440779 20 15217521618072163626
24771293 8 18272098180601110041
3117164 225 18044927983642790818
3459 110 18259700112143190692
392239 28 17968379047481352154
469060 322 17916572263294415655
59755656 520 15554174773694177070
9862522 239 18060135470267627038

>  <PUBCHEM_SHAPE_MULTIPOLES>  (1) 
518.89
13.68
3.87
2.13
8.82
2.19
-0.13
6.07
7.86
-4.42
-1.3
-0.41
-0.76
0.97

>  <PUBCHEM_SHAPE_SELFOVERLAP>  (1) 
1051.144

>  <PUBCHEM_SHAPE_VOLUME>  (1) 
304.1

>  <PUBCHEM_COORDINATE_TYPE>  (1) 
2
5
10

$$$$
