14613
     RDKit          3D

 17 17  0  0  0  0  0  0  0  0999 V2000
    3.2964    3.9690   -0.0841 Cl  0  0  0  0  0  0  0  0  0  0  0  0
    4.3859   -3.2514    0.2356 Cl  0  0  0  0  0  0  0  0  0  0  0  0
   -4.2796    1.2939    0.5498 O   0  0  0  0  0  0  0  0  0  0  0  0
    2.1546    0.1008   -0.0008 N   0  0  0  0  0  0  0  0  0  0  0  0
   -3.3725   -0.7411   -0.2210 N   0  0  0  0  0  0  0  0  0  0  0  0
    0.7615   -0.1115   -0.0560 C   0  0  0  0  0  0  0  0  0  0  0  0
    2.6908    1.3608    0.4592 C   0  0  0  0  0  0  0  0  0  0  0  0
    3.0758   -0.9389   -0.3969 C   0  0  0  0  0  0  0  0  0  0  0  0
   -0.1146    0.9008    0.3362 C   0  0  0  0  0  0  0  0  0  0  0  0
    0.2595   -1.3337   -0.5033 C   0  0  0  0  0  0  0  0  0  0  0  0
    2.6470    2.4074   -0.6432 C   0  0  0  0  0  0  0  0  0  0  0  0
    3.2594   -1.9580    0.7166 C   0  0  0  0  0  0  0  0  0  0  0  0
   -1.9943   -0.5312   -0.1660 C   0  0  0  0  0  0  0  0  0  0  0  0
   -1.4924    0.6909    0.2812 C   0  0  0  0  0  0  0  0  0  0  0  0
   -1.1185   -1.5435   -0.5583 C   0  0  0  0  0  0  0  0  0  0  0  0
   -4.3977    0.1482    0.1279 C   0  0  0  0  0  0  0  0  0  0  0  0
   -5.7614   -0.4626   -0.0769 C   0  0  0  0  0  0  0  0  0  0  0  0
  1 11  1  0
  2 12  1  0
  3 16  2  0
  4  6  1  0
  4  7  1  0
  4  8  1  0
  5 13  1  0
  5 16  1  0
  6  9  2  0
  6 10  1  0
  7 11  1  0
  8 12  1  0
  9 14  1  0
 10 15  2  0
 13 14  2  0
 13 15  1  0
 16 17  1  0
M  END
>  <PUBCHEM_COMPOUND_CID>  (1) 
14613

>  <PUBCHEM_CONFORMER_RMSD>  (1) 
0.8

>  <PUBCHEM_CONFORMER_DIVERSEORDER>  (1) 
2
10
23
20
12
18
15
21
14
13
7
9
16
22
5
17
19
1
8
11
3
6
4

>  <PUBCHEM_MMFF94_PARTIAL_CHARGES>  (1) 
22
1 -0.29
10 -0.15
11 0.29
12 0.29
13 0.12
14 -0.15
15 -0.15
16 0.57
17 0.06
2 -0.29
22 0.15
23 0.15
28 0.15
29 0.15
3 -0.57
30 0.37
4 -0.84
5 -0.55
6 0.1
7 0.37
8 0.37
9 -0.15

>  <PUBCHEM_EFFECTIVE_ROTOR_COUNT>  (1) 
7

>  <PUBCHEM_PHARMACOPHORE_FEATURES>  (1) 
4
1 3 acceptor
1 4 cation
1 5 donor
6 6 9 10 13 14 15 rings

>  <PUBCHEM_HEAVY_ATOM_COUNT>  (1) 
17

>  <PUBCHEM_ATOM_DEF_STEREO_COUNT>  (1) 
0

>  <PUBCHEM_ATOM_UDEF_STEREO_COUNT>  (1) 
0

>  <PUBCHEM_BOND_DEF_STEREO_COUNT>  (1) 
0

>  <PUBCHEM_BOND_UDEF_STEREO_COUNT>  (1) 
0

>  <PUBCHEM_ISOTOPIC_ATOM_COUNT>  (1) 
0

>  <PUBCHEM_COMPONENT_COUNT>  (1) 
1

>  <PUBCHEM_CACTVS_TAUTO_COUNT>  (1) 
2

>  <PUBCHEM_CONFORMER_ID>  (1) 
0000391500000002

>  <PUBCHEM_MMFF94_ENERGY>  (1) 
54.3639

>  <PUBCHEM_FEATURE_SELFOVERLAP>  (1) 
20.297

>  <PUBCHEM_SHAPE_FINGERPRINT>  (1) 
10411042 1 18265895744586816974
10912923 1 18060424642606232747
12293681 160 17699867407858728704
12403259 226 18189893128065385517
12403260 363 18343016654168658617
12616971 3 18131348597148338855
12644460 14 18334861636396705024
13690532 89 18339642222380517074
13760787 5 18341889710706017663
13955234 65 18409450327602685432
14123255 52 18123472945123752548
14178342 30 17838315721251290250
15196674 1 18413671305887557793
15442244 35 18340206293272631144
1813 80 18196943175786197710
18186145 218 17821723936174563203
19784866 34 18051409862186140064
20369508 70 18261388915001517746
20645477 70 18411138030374722327
20671657 1 18410578417995641652
20832881 197 17969501494187256482
21267235 1 18341056211661568159
21709351 56 18340199675324003965
2255824 54 18410576201945620990
23366157 5 18261108612713967422
23402539 116 17988067877983592719
23463225 33 18413670192763040871
23557571 272 13830139373078428691
23559900 14 18409445886364206746
25147074 1 18057872718229412159
3091708 16 9575165722186493800
31174 14 18333724711266556972
3286 77 18261393291240513014
4409770 3 17251454289261253940
45790113 53 18336539422051884244
465052 167 18411142398530886391
474 4 18116715325147655548
5104073 3 18343869914031161651
633830 44 18411417319735052599
7364860 26 18411418440921801212
77188 2 18265613183368028172
9841814 1 18113889426124944898
9981440 41 17905321081040243704
9999458 23 18334295357395574047

>  <PUBCHEM_SHAPE_MULTIPOLES>  (1) 
337.76
9.91
3.57
0.75
11.76
2.01
0
-1.46
-0.73
-7.71
0.02
-0.16
-0.02
-0.85

>  <PUBCHEM_SHAPE_SELFOVERLAP>  (1) 
661.17

>  <PUBCHEM_SHAPE_VOLUME>  (1) 
205.8

>  <PUBCHEM_COORDINATE_TYPE>  (1) 
2
5
10

$$$$
