14611
     RDKit          3D

 17 18  0  0  0  0  0  0  0  0999 V2000
    2.4541    0.2498    2.1858 O   0  0  0  0  0  0  0  0  0  0  0  0
    1.0683   -2.2493    0.3406 O   0  0  0  0  0  0  0  0  0  0  0  0
    2.3108   -0.3180   -0.1398 C   0  0  0  0  0  0  0  0  0  0  0  0
   -2.7212   -0.2635    0.0253 C   0  0  0  0  0  0  0  0  0  0  0  0
    2.9534    0.2951    0.9183 C   0  0  0  0  0  0  0  0  0  0  0  0
    1.0416   -1.0497    0.0888 C   0  0  0  0  0  0  0  0  0  0  0  0
    2.8147   -0.2724   -1.4260 C   0  0  0  0  0  0  0  0  0  0  0  0
   -1.4195   -0.9032    0.1356 C   0  0  0  0  0  0  0  0  0  0  0  0
   -0.2299   -0.2830   -0.0316 C   0  0  0  0  0  0  0  0  0  0  0  0
    4.1453    0.9801    0.6820 C   0  0  0  0  0  0  0  0  0  0  0  0
   -2.8296    1.1222    0.1430 C   0  0  0  0  0  0  0  0  0  0  0  0
   -3.8612   -1.0358   -0.1980 C   0  0  0  0  0  0  0  0  0  0  0  0
    4.0066    0.4126   -1.6624 C   0  0  0  0  0  0  0  0  0  0  0  0
    4.6718    1.0390   -0.6084 C   0  0  0  0  0  0  0  0  0  0  0  0
   -4.0780    1.7354    0.0373 C   0  0  0  0  0  0  0  0  0  0  0  0
   -5.1094   -0.4224   -0.3040 C   0  0  0  0  0  0  0  0  0  0  0  0
   -5.2179    0.9632   -0.1864 C   0  0  0  0  0  0  0  0  0  0  0  0
  1  5  1  0
  2  6  2  0
  3  5  2  0
  3  6  1  0
  3  7  1  0
  4  8  1  0
  4 11  2  0
  4 12  1  0
  5 10  1  0
  6  9  1  0
  7 13  2  0
  8  9  2  0
 10 14  2  0
 11 15  1  0
 12 16  2  0
 13 14  1  0
 15 17  2  0
 16 17  1  0
M  END
>  <PUBCHEM_COMPOUND_CID>  (1) 
14611

>  <PUBCHEM_CONFORMER_RMSD>  (1) 
0.6

>  <PUBCHEM_CONFORMER_DIVERSEORDER>  (1) 
2
14
19
12
7
10
4
6
21
22
8
5
20
1
13
9
3
15
16
11
17
18

>  <PUBCHEM_MMFF94_PARTIAL_CHARGES>  (1) 
29
1 -0.53
10 -0.15
11 -0.15
12 -0.15
13 -0.15
14 -0.15
15 -0.15
16 -0.15
17 -0.15
18 0.15
19 0.15
2 -0.57
20 0.15
21 0.15
22 0.15
23 0.15
24 0.15
25 0.15
26 0.15
27 0.15
28 0.15
29 0.45
3 0.09
4 0.03
5 0.08
6 0.47
7 -0.15
8 -0.18
9 -0.14

>  <PUBCHEM_EFFECTIVE_ROTOR_COUNT>  (1) 
3

>  <PUBCHEM_PHARMACOPHORE_FEATURES>  (1) 
4
1 1 donor
1 2 acceptor
6 3 5 7 10 13 14 rings
6 4 11 12 15 16 17 rings

>  <PUBCHEM_HEAVY_ATOM_COUNT>  (1) 
17

>  <PUBCHEM_ATOM_DEF_STEREO_COUNT>  (1) 
0

>  <PUBCHEM_ATOM_UDEF_STEREO_COUNT>  (1) 
0

>  <PUBCHEM_BOND_DEF_STEREO_COUNT>  (1) 
0

>  <PUBCHEM_BOND_UDEF_STEREO_COUNT>  (1) 
1

>  <PUBCHEM_ISOTOPIC_ATOM_COUNT>  (1) 
0

>  <PUBCHEM_COMPONENT_COUNT>  (1) 
1

>  <PUBCHEM_CACTVS_TAUTO_COUNT>  (1) 
5

>  <PUBCHEM_CONFORMER_ID>  (1) 
0000391300000002

>  <PUBCHEM_MMFF94_ENERGY>  (1) 
54.3964

>  <PUBCHEM_FEATURE_SELFOVERLAP>  (1) 
20.297

>  <PUBCHEM_SHAPE_FINGERPRINT>  (1) 
10014705 185 18187359888573510357
10354089 29 16732706060311694020
10378564 45 17631457773872378780
10498660 4 18341331111022126313
10670039 82 18262529099959167916
10912923 1 17458341957591781443
11128504 68 14548735131449047640
12236239 1 17676203593412448866
12390115 104 17987531312589595769
12596602 18 16950286221704472241
12633257 1 15140958508677169968
12730499 353 17775010114952955878
128620 24 18343864424667181303
13533116 47 14996556240739735809
14341114 176 14056720149698773036
14341114 328 17022904570577012792
14528608 73 18342172276335370165
14576447 43 14261363440267957548
15142526 21 16734964577602449548
15188451 53 11819568081690947169
15210252 30 18411426107122927200
15885798 251 9223234044019815023
18186145 218 17561367283445985771
18915474 69 13254789157378016589
193927 3 9871457755936807957
200 152 14620802591105982154
20369508 70 11527941244889706038
204376 136 16805326608471507707
20645477 70 16343715321925466934
212847 35 18410854343906137408
221357 26 16989127530585780305
22224240 67 13695871484756732260
22289505 5 17418094295649809312
22646028 28 10592041349525640109
23048698 100 16877940533675426497
23402539 116 18342734148452401812
23402655 69 17346884450756639604
23557571 272 18131356345037076343
23559900 14 18341050709686967382
23590187 302 16630809902438993970
23596394 208 17203334377134231350
2916195 48 18200588224230335688
300161 21 17748821921728103229
3060560 45 16558751222117244860
3268164 11 18341322362616362797
341906 21 18334286561513496281
34797466 226 17846503672785101173
3545911 37 18410859845812062543
4028521 119 18131071528269938585
42 15 12179843896684860303
474 4 17603873316243331535
4990 188 17704076191860048190
5104073 3 18262522477520089043
522135 26 15339120139033784110
5281201 14 17203616977434824512
5374978 207 15068340103262763413
542803 24 17894349982008319821
5924683 9 13912902981120016721
7471813 234 13542470864949319378
7808743 9 18265050421992559488
8272917 22 16443058387965298394
960060 61 14045738231401982161

>  <PUBCHEM_SHAPE_MULTIPOLES>  (1) 
338.11
11.9
1.5
1.22
6.17
0.15
0.14
-4.27
-1.92
0.7
0.09
-1.84
-0.12
0

>  <PUBCHEM_SHAPE_SELFOVERLAP>  (1) 
728.986

>  <PUBCHEM_SHAPE_VOLUME>  (1) 
185.5

>  <PUBCHEM_COORDINATE_TYPE>  (1) 
2
5
10

$$$$
