14617
     RDKit          3D

 17 19  0  0  0  0  0  0  0  0999 V2000
   -0.6988    1.5574    0.1436 O   0  0  0  0  0  0  0  0  0  0  0  0
   -3.1879   -0.3267   -0.3792 N   0  0  0  0  0  0  0  0  0  0  0  0
    0.6369    1.4681    0.5163 N   0  0  0  0  0  0  0  0  0  0  0  0
   -4.5731   -0.4096   -0.8414 C   0  0  0  0  0  0  0  0  0  0  0  0
   -3.2738    0.1887    0.9869 C   0  0  0  0  0  0  0  0  0  0  0  0
   -5.3018   -0.9778    0.3673 C   0  0  0  0  0  0  0  0  0  0  0  0
   -4.4498   -0.5816    1.5691 C   0  0  0  0  0  0  0  0  0  0  0  0
   -2.3647    0.5110   -1.2385 C   0  0  0  0  0  0  0  0  0  0  0  0
   -0.9526    0.5659   -0.7249 C   0  0  0  0  0  0  0  0  0  0  0  0
    0.1351   -0.1901   -0.9619 C   0  0  0  0  0  0  0  0  0  0  0  0
    1.1141    0.4171   -0.1565 C   0  0  0  0  0  0  0  0  0  0  0  0
    2.4886    0.0171   -0.0162 C   0  0  0  0  0  0  0  0  0  0  0  0
    2.8406   -1.3234   -0.1633 C   0  0  0  0  0  0  0  0  0  0  0  0
    3.4645    0.9709    0.2666 C   0  0  0  0  0  0  0  0  0  0  0  0
    4.1735   -1.7114   -0.0268 C   0  0  0  0  0  0  0  0  0  0  0  0
    4.7973    0.5827    0.4029 C   0  0  0  0  0  0  0  0  0  0  0  0
    5.1517   -0.7584    0.2562 C   0  0  0  0  0  0  0  0  0  0  0  0
  1  3  1  0
  1  9  1  0
  2  4  1  0
  2  5  1  0
  2  8  1  0
  3 11  2  0
  4  6  1  0
  5  7  1  0
  6  7  1  0
  8  9  1  0
  9 10  2  0
 10 11  1  0
 11 12  1  0
 12 13  2  0
 12 14  1  0
 13 15  1  0
 14 16  2  0
 15 17  2  0
 16 17  1  0
M  END
>  <PUBCHEM_COMPOUND_CID>  (1) 
14617

>  <PUBCHEM_CONFORMER_RMSD>  (1) 
0.6

>  <PUBCHEM_CONFORMER_DIVERSEORDER>  (1) 
1
14
10
15
13
16
5
9
6
12
8
11
7
3
2
4

>  <PUBCHEM_MMFF94_PARTIAL_CHARGES>  (1) 
21
1 -0.02
10 -0.15
11 0.23
12 0.05
13 -0.15
14 -0.15
15 -0.15
16 -0.15
17 -0.15
2 -0.81
28 0.15
29 0.15
3 -0.41
30 0.15
31 0.15
32 0.15
33 0.15
4 0.27
5 0.27
8 0.45
9 -0.04

>  <PUBCHEM_EFFECTIVE_ROTOR_COUNT>  (1) 
4

>  <PUBCHEM_PHARMACOPHORE_FEATURES>  (1) 
5
1 2 cation
1 3 acceptor
5 1 3 9 10 11 rings
5 2 4 5 6 7 rings
6 12 13 14 15 16 17 rings

>  <PUBCHEM_HEAVY_ATOM_COUNT>  (1) 
17

>  <PUBCHEM_ATOM_DEF_STEREO_COUNT>  (1) 
0

>  <PUBCHEM_ATOM_UDEF_STEREO_COUNT>  (1) 
0

>  <PUBCHEM_BOND_DEF_STEREO_COUNT>  (1) 
0

>  <PUBCHEM_BOND_UDEF_STEREO_COUNT>  (1) 
0

>  <PUBCHEM_ISOTOPIC_ATOM_COUNT>  (1) 
0

>  <PUBCHEM_COMPONENT_COUNT>  (1) 
1

>  <PUBCHEM_CACTVS_TAUTO_COUNT>  (1) 
1

>  <PUBCHEM_CONFORMER_ID>  (1) 
0000391900000001

>  <PUBCHEM_MMFF94_ENERGY>  (1) 
31.2275

>  <PUBCHEM_FEATURE_SELFOVERLAP>  (1) 
25.373

>  <PUBCHEM_SHAPE_FINGERPRINT>  (1) 
10354089 29 17561366201367148898
10912923 1 17346593105734053790
11089746 13 10159695764287329694
11128504 68 13767933428784095926
11287383 113 17313104180928797316
11401426 45 12468637235595813084
11543360 7 16153434934670309974
11552529 35 17702375350520386871
11796584 16 17603863408075799755
12107183 9 17125942893313498259
12119455 92 9943806677231786072
12236239 1 17346598590428350657
12251169 10 17704353294712986805
12596602 18 17275102859823133355
12670546 177 13262401067834680691
13103583 49 18130803269350833283
13288520 33 17167863062981404951
13544653 18 18334859411324083605
13675066 3 18410007736710807893
13685833 64 18113623417446948539
13760787 5 18131060550338974028
13955234 65 18341043099954004416
1420 363 18186240628111022666
14251757 5 12975042656207641705
14252887 29 18273218569268378606
14350574 20 18336267860614196574
14386348 63 18040435499153074003
14455015 7 18334860493719262434
146900 427 18059289976523712608
14848160 23 17894346687457401410
15209294 21 15698001816766620119
15375462 189 18060693983825494008
15527383 91 18202002140190753705
15880784 105 18413390964360428307
17844677 252 18408044000433195980
17870717 6 16732985310812031747
1813 80 18341345425989790940
18186145 218 10231754487442844124
18785283 64 18045498870659150356
193927 3 17894925013546651547
200 152 18408881823929547681
20300324 65 14345792734419353495
20374829 77 17095522920341077915
20432913 95 18410577283855341043
20645477 70 18340474561488839590
20681677 155 16443057267342941333
20871999 31 15502370128400446495
21033650 10 14636274790241951238
21079973 296 17603307071986710218
21267235 1 18343586210177446222
212916 134 14333123053036639951
21503847 285 14979667828141859506
231179 274 11455892455455275900
23175994 123 18186522120557921973
23402539 116 13117995595809380326
23557571 272 17458615675509714844
23559900 14 16732985378919695972
239999 70 17894912940952693386
26918003 58 18333447633956516561
2838139 119 10735877235883953923
2871803 45 17822289059170589418
2916195 48 12175619568827020187
314173 85 17676210165192648269
351380 180 10303814276219752554
4028521 119 11095888146555105139
42 15 18272090491543825037
4325135 7 17531251699085100118
465052 167 18343025514132516998
5104073 3 18198615545988335440
5352402 22 18412270510197823191
542803 24 15913328009128486090
83771 10 18412260631725335676

>  <PUBCHEM_SHAPE_MULTIPOLES>  (1) 
334.02
12.24
1.36
1.09
2.04
0.11
0.07
4.51
2.31
-0.92
0.08
1.22
0.01
0.59

>  <PUBCHEM_SHAPE_SELFOVERLAP>  (1) 
720.424

>  <PUBCHEM_SHAPE_VOLUME>  (1) 
186.9

>  <PUBCHEM_COORDINATE_TYPE>  (1) 
2
5
10

$$$$
