14612
     RDKit          3D

 17 18  0  0  0  0  0  0  0  0999 V2000
   -0.2100   -2.1718    0.4264 O   0  0  0  0  0  0  0  0  0  0  0  0
   -0.2160   -1.4632   -1.6590 O   0  0  0  0  0  0  0  0  0  0  0  0
   -0.0118   -1.3268   -0.4502 N   0  0  0  0  0  0  0  0  0  0  0  0
    1.9611    0.1305    0.0392 C   0  0  0  0  0  0  0  0  0  0  0  0
    0.5079   -0.0612   -0.0215 C   0  0  0  0  0  0  0  0  0  0  0  0
   -1.8923    0.6068    0.2107 C   0  0  0  0  0  0  0  0  0  0  0  0
   -0.4580    0.8369    0.2844 C   0  0  0  0  0  0  0  0  0  0  0  0
    2.4945    1.3950   -0.1727 C   0  0  0  0  0  0  0  0  0  0  0  0
    2.7846   -0.9549    0.3076 C   0  0  0  0  0  0  0  0  0  0  0  0
   -2.5843    0.8888   -0.9671 C   0  0  0  0  0  0  0  0  0  0  0  0
   -2.5759    0.1045    1.3181 C   0  0  0  0  0  0  0  0  0  0  0  0
    3.8763    1.5771   -0.1151 C   0  0  0  0  0  0  0  0  0  0  0  0
    4.1663   -0.7727    0.3655 C   0  0  0  0  0  0  0  0  0  0  0  0
    4.7122    0.4934    0.1542 C   0  0  0  0  0  0  0  0  0  0  0  0
   -3.9599    0.6682   -1.0376 C   0  0  0  0  0  0  0  0  0  0  0  0
   -3.9514   -0.1162    1.2474 C   0  0  0  0  0  0  0  0  0  0  0  0
   -4.6434    0.1656    0.0696 C   0  0  0  0  0  0  0  0  0  0  0  0
  1  3  1  0
  2  3  2  0
  3  5  1  0
  4  5  1  0
  4  8  2  0
  4  9  1  0
  5  7  2  0
  6  7  1  0
  6 10  2  0
  6 11  1  0
  8 12  1  0
  9 13  2  0
 10 15  1  0
 11 16  2  0
 12 14  2  0
 13 14  1  0
 15 17  2  0
 16 17  1  0
M  CHG  2   1  -1   3   1
M  END
>  <PUBCHEM_COMPOUND_CID>  (1) 
14612

>  <PUBCHEM_CONFORMER_RMSD>  (1) 
0.6

>  <PUBCHEM_CONFORMER_DIVERSEORDER>  (1) 
1
2
3

>  <PUBCHEM_MMFF94_PARTIAL_CHARGES>  (1) 
28
1 -0.52
10 -0.15
11 -0.15
12 -0.15
13 -0.15
14 -0.15
15 -0.15
16 -0.15
17 -0.15
18 0.15
19 0.15
2 -0.52
20 0.15
21 0.15
22 0.15
23 0.15
24 0.15
25 0.15
26 0.15
27 0.15
28 0.15
3 0.84
4 0.03
5 0.18
6 0.03
7 -0.18
8 -0.15
9 -0.15

>  <PUBCHEM_EFFECTIVE_ROTOR_COUNT>  (1) 
3

>  <PUBCHEM_PHARMACOPHORE_FEATURES>  (1) 
5
1 1 acceptor
1 1 anion
1 2 acceptor
6 4 8 9 12 13 14 rings
6 6 10 11 15 16 17 rings

>  <PUBCHEM_HEAVY_ATOM_COUNT>  (1) 
17

>  <PUBCHEM_ATOM_DEF_STEREO_COUNT>  (1) 
0

>  <PUBCHEM_ATOM_UDEF_STEREO_COUNT>  (1) 
0

>  <PUBCHEM_BOND_DEF_STEREO_COUNT>  (1) 
0

>  <PUBCHEM_BOND_UDEF_STEREO_COUNT>  (1) 
1

>  <PUBCHEM_ISOTOPIC_ATOM_COUNT>  (1) 
0

>  <PUBCHEM_COMPONENT_COUNT>  (1) 
1

>  <PUBCHEM_CACTVS_TAUTO_COUNT>  (1) 
1

>  <PUBCHEM_CONFORMER_ID>  (1) 
0000391400000001

>  <PUBCHEM_MMFF94_ENERGY>  (1) 
60.7747

>  <PUBCHEM_FEATURE_SELFOVERLAP>  (1) 
25.451

>  <PUBCHEM_SHAPE_FINGERPRINT>  (1) 
10 15 17968933219434828112
10922049 32 18408041809946802378
11370993 70 17458343039501774763
11615757 297 18272090495717759057
12119455 92 18408601461391454299
12236239 1 17561363968068778209
12500047 106 16877940525301724547
12507560 40 17894349981892496092
13583140 156 17968095343242456930
13675066 3 17967253121852139200
13760787 5 18272932712955566337
14289901 80 17022911159019947704
14573314 32 16950561047575643803
15219456 202 18113900429525169073
15309172 13 18342460339396273699
18175812 5 17894632543485253357
18186145 218 18202567280445581508
19026448 4 17603867792831135729
19489759 90 16732698350850730769
200 152 18342733010217691209
20279233 1 17821733822914939825
204376 136 18411984675855518307
20645477 56 18335695105044976364
20645477 70 18335416816685930090
21033648 29 18262502763030076888
21065201 7 16443061681772827664
21524375 3 18272933825473298446
21682296 61 18124596380141561782
22854114 59 18260550025914666432
23184049 59 18410576180201824204
23227448 37 18044380662916902652
23402539 116 17060618880483053104
23557571 272 17168147785190943949
23559900 14 17240481360583558738
351380 180 18040994038080156077
474229 33 18411136974261186287
4990 188 14692576511365535436
5104073 3 18339356487360271418
633830 44 18129675109642151205
69090 78 18341610438567520642

>  <PUBCHEM_SHAPE_MULTIPOLES>  (1) 
333.13
9.42
1.51
1.09
0.71
0.34
0.11
-1.93
-1
0.87
0.18
-1.01
0.15
0.28

>  <PUBCHEM_SHAPE_SELFOVERLAP>  (1) 
720.613

>  <PUBCHEM_SHAPE_VOLUME>  (1) 
181.7

>  <PUBCHEM_COORDINATE_TYPE>  (1) 
2
5
10

$$$$
