14627
     RDKit          3D

 18 19  0  0  1  0  0  0  0  0999 V2000
    2.6941   -0.7092   -1.5111 O   0  0  0  0  0  0  0  0  0  0  0  0
    0.2435   -0.5399   -0.0533 N   0  0  0  0  0  0  0  0  0  0  0  0
    3.5046    0.5880    0.2284 N   0  0  0  0  0  0  0  0  0  0  0  0
   -2.2802   -0.6988    0.1067 C   0  0  0  0  0  0  0  0  0  0  0  0
   -2.4132    0.8348    0.3628 C   0  0  0  0  0  0  0  0  0  0  0  0
   -1.3378    1.3090   -0.6483 C   0  0  0  0  0  0  0  0  0  0  0  0
   -2.3182   -0.7878   -1.4448 C   0  0  0  0  0  0  0  0  0  0  0  0
   -1.6964    0.5321   -1.9357 C   0  0  0  0  0  0  0  0  0  0  0  0
   -0.8883   -1.2111    0.6007 C   0  0  0  0  0  0  0  0  0  0  0  0
    0.0845    0.9126   -0.1870 C   0  0  0  0  0  0  0  0  0  0  0  0
   -3.3833   -1.5472    0.7424 C   0  0  0  0  0  0  0  0  0  0  0  0
   -3.8053    1.4093   -0.0045 C   0  0  0  0  0  0  0  0  0  0  0  0
   -2.1479    1.2797    1.8136 C   0  0  0  0  0  0  0  0  0  0  0  0
    1.5156   -0.8918    0.5662 C   0  0  0  0  0  0  0  0  0  0  0  0
    1.6137   -2.4100    0.7054 C   0  0  0  0  0  0  0  0  0  0  0  0
    2.6167   -0.3353   -0.3359 C   0  0  0  0  0  0  0  0  0  0  0  0
    4.5745    1.1440   -0.5914 C   0  0  0  0  0  0  0  0  0  0  0  0
    3.4233    1.1215    1.5859 C   0  0  0  0  0  0  0  0  0  0  0  0
  1 16  2  0
  2  9  1  0
  2 10  1  0
  2 14  1  0
  3 16  1  0
  3 17  1  0
  3 18  1  0
  4  5  1  0
  4  7  1  0
  4  9  1  0
  4 11  1  0
  5  6  1  0
  5 12  1  0
  5 13  1  0
  6  8  1  0
  6 10  1  0
  7  8  1  0
 14 15  1  0
 14 16  1  0
M  END
>  <PUBCHEM_COMPOUND_CID>  (1) 
14627

>  <PUBCHEM_CONFORMER_RMSD>  (1) 
0.6

>  <PUBCHEM_CONFORMER_DIVERSEORDER>  (1) 
9
38
4
39
32
47
40
12
49
3
18
21
44
45
37
26
5
10
28
17
27
2
42
25
29
16
8
50
36
31
1
46
6
19
33
22
30
34
23
20
15
11
24
35
14
7
43
41
48
13

>  <PUBCHEM_MMFF94_PARTIAL_CHARGES>  (1) 
9
1 -0.57
10 0.27
14 0.33
16 0.57
17 0.3
18 0.3
2 -0.81
3 -0.66
9 0.27

>  <PUBCHEM_EFFECTIVE_ROTOR_COUNT>  (1) 
4.2

>  <PUBCHEM_PHARMACOPHORE_FEATURES>  (1) 
4
1 1 acceptor
1 2 cation
3 5 12 13 hydrophobe
8 2 4 5 6 7 8 9 10 rings

>  <PUBCHEM_HEAVY_ATOM_COUNT>  (1) 
18

>  <PUBCHEM_ATOM_DEF_STEREO_COUNT>  (1) 
0

>  <PUBCHEM_ATOM_UDEF_STEREO_COUNT>  (1) 
3

>  <PUBCHEM_BOND_DEF_STEREO_COUNT>  (1) 
0

>  <PUBCHEM_BOND_UDEF_STEREO_COUNT>  (1) 
0

>  <PUBCHEM_ISOTOPIC_ATOM_COUNT>  (1) 
0

>  <PUBCHEM_COMPONENT_COUNT>  (1) 
1

>  <PUBCHEM_CACTVS_TAUTO_COUNT>  (1) 
1

>  <PUBCHEM_CONFORMER_ID>  (1) 
0000392300000009

>  <PUBCHEM_MMFF94_ENERGY>  (1) 
68.5018

>  <PUBCHEM_FEATURE_SELFOVERLAP>  (1) 
20.297

>  <PUBCHEM_SHAPE_FINGERPRINT>  (1) 
10498660 4 18334579035954238644
10863032 1 18337954481138358139
11132069 177 18040722462981697407
11715629 250 17489581277633803840
12173636 292 18339358561650152565
12346177 29 8646495085167108019
12382932 28 18333452023423662153
12403814 3 16877661271044742909
12491281 212 17703517605466870576
12932764 1 18261959522675639662
13024252 1 14273453670042397741
13140716 1 18042685001170098147
13214271 11 18410293627114287397
13224815 77 18186800279492585450
13296908 3 18343305855295701726
13693222 15 17603862317021977640
13693222 7 18261667074004694642
14178342 30 18260264144343708331
14289901 80 14418137344010479252
14614273 12 17968087633918903655
14787075 74 18055635272422874035
15309172 13 18186811261391593667
15342168 16 18260275139391687092
15775835 57 18336264556998141384
16945 1 18040721355027789279
18186145 218 18335985290193848710
18981168 100 17968935254325478030
19868273 293 16199862873883615757
200 152 18339633551268626279
20525323 117 17894909624610154271
20645476 183 16128371562662147884
23236772 104 18413107247478932099
23419403 2 16757149552158741127
23557571 272 18270126836738677590
23559900 14 18334856074593540798
2748010 2 17533213059750607207
296302 2 17458061573056897764
474 4 18410575110850140312
57812782 119 12901542459831749166
633830 44 18341893009193564628
7364860 26 18194960751947306682
74978 22 17917144975223365670
81228 2 17826527848548013810

>  <PUBCHEM_SHAPE_MULTIPOLES>  (1) 
354.6
7.05
1.89
1.53
5.16
0.67
0.11
-2.05
-0.32
-0.16
-0.4
-0.23
-0.31
0.07

>  <PUBCHEM_SHAPE_SELFOVERLAP>  (1) 
725.145

>  <PUBCHEM_SHAPE_VOLUME>  (1) 
207.7

>  <PUBCHEM_COORDINATE_TYPE>  (1) 
2
5
10

$$$$
