14631
     RDKit          3D

 18 20  0  0  1  0  0  0  0  0999 V2000
    1.4750    1.5503    0.3387 O   0  0  0  0  0  0  0  0  0  0  0  0
   -1.0666    2.9595    0.0518 O   0  0  0  0  0  0  0  0  0  0  0  0
    3.4256    1.4475   -0.8771 O   0  0  0  0  0  0  0  0  0  0  0  0
   -0.7197    0.5372   -0.0946 C   0  0  0  0  0  0  0  0  0  0  0  0
   -1.7666   -0.5074    0.3817 C   0  0  0  0  0  0  0  0  0  0  0  0
    0.5085    0.5972    0.8532 C   0  0  0  0  0  0  0  0  0  0  0  0
   -1.5901   -1.9860   -0.0267 C   0  0  0  0  0  0  0  0  0  0  0  0
    1.3410   -0.6555    1.1289 C   0  0  0  0  0  0  0  0  0  0  0  0
   -3.1255    0.0997    0.0060 C   0  0  0  0  0  0  0  0  0  0  0  0
   -1.5356    1.8275    0.1041 C   0  0  0  0  0  0  0  0  0  0  0  0
   -0.1445   -2.5005    0.0685 C   0  0  0  0  0  0  0  0  0  0  0  0
    0.6291   -2.0013    1.2848 C   0  0  0  0  0  0  0  0  0  0  0  0
   -2.9917    1.5643    0.3852 C   0  0  0  0  0  0  0  0  0  0  0  0
   -0.3831    0.4899   -1.5907 C   0  0  0  0  0  0  0  0  0  0  0  0
    2.4115   -0.5174    0.0985 C   0  0  0  0  0  0  0  0  0  0  0  0
   -2.1813   -2.3814   -1.3852 C   0  0  0  0  0  0  0  0  0  0  0  0
    2.5389    0.9158   -0.2344 C   0  0  0  0  0  0  0  0  0  0  0  0
    3.1751   -1.4393   -0.4927 C   0  0  0  0  0  0  0  0  0  0  0  0
  1  6  1  0
  1 17  1  0
  2 10  2  0
  3 17  2  0
  4  5  1  0
  4  6  1  0
  4 10  1  0
  4 14  1  0
  5  7  1  0
  5  9  1  0
  6  8  1  0
  7 11  1  0
  7 16  1  0
  8 12  1  0
  8 15  1  0
  9 13  1  0
 10 13  1  0
 11 12  1  0
 15 17  1  0
 15 18  2  0
M  END
>  <PUBCHEM_COMPOUND_CID>  (1) 
14631

>  <PUBCHEM_CONFORMER_RMSD>  (1) 
0.6

>  <PUBCHEM_CONFORMER_DIVERSEORDER>  (1) 
1
2

>  <PUBCHEM_MMFF94_PARTIAL_CHARGES>  (1) 
13
1 -0.43
10 0.45
13 0.06
15 -0.12
17 0.71
18 -0.3
2 -0.57
3 -0.57
37 0.15
38 0.15
4 0.06
6 0.28
8 0.14

>  <PUBCHEM_EFFECTIVE_ROTOR_COUNT>  (1) 
1.2

>  <PUBCHEM_PHARMACOPHORE_FEATURES>  (1) 
5
1 2 acceptor
1 3 acceptor
5 1 6 8 15 17 rings
5 4 5 9 10 13 rings
7 4 5 6 7 8 11 12 rings

>  <PUBCHEM_HEAVY_ATOM_COUNT>  (1) 
18

>  <PUBCHEM_ATOM_DEF_STEREO_COUNT>  (1) 
5

>  <PUBCHEM_ATOM_UDEF_STEREO_COUNT>  (1) 
0

>  <PUBCHEM_BOND_DEF_STEREO_COUNT>  (1) 
0

>  <PUBCHEM_BOND_UDEF_STEREO_COUNT>  (1) 
0

>  <PUBCHEM_ISOTOPIC_ATOM_COUNT>  (1) 
0

>  <PUBCHEM_COMPONENT_COUNT>  (1) 
1

>  <PUBCHEM_CACTVS_TAUTO_COUNT>  (1) 
2

>  <PUBCHEM_CONFORMER_ID>  (1) 
0000392700000001

>  <PUBCHEM_MMFF94_ENERGY>  (1) 
56.1305

>  <PUBCHEM_FEATURE_SELFOVERLAP>  (1) 
25.446

>  <PUBCHEM_SHAPE_FINGERPRINT>  (1) 
10863032 1 18272093824301446086
10948715 1 18335710411674955325
10967382 1 18410293626950737577
12173636 292 18411136896529775612
12491281 212 18336556004904763754
12553582 1 17980195606298591967
12808571 1 18336831883475823090
13027679 85 17686913025824876701
13140716 1 18409161121352578123
13221675 6 18336547101432485819
13544592 271 17114649173702622506
14614273 12 17895457194227647045
15001771 113 17905889528382868167
15309172 13 18268998574895020025
15490181 7 18337378332217653761
15775835 57 18335709333743698104
16752209 62 18197765627473485605
16945 1 18190177884607730067
19591789 44 18411424990488854699
19868273 325 18266735968695548415
20511035 2 17691100666204515115
21501502 16 18410854404025337806
22802520 49 18269563886869652274
2334 1 18265046014970823251
23402539 116 18263074578270218276
23419403 2 15871688653444706721
23557571 272 18058999700926975274
23559900 14 18129941153930761890
238 59 17467035606838105949
2748010 2 18338507672604355587
3060560 45 17977662013521802318
353137 74 18042677493514185330
81228 2 18268137846195036531
8272917 22 17692534412588510433
90525 40 18267866081865159591

>  <PUBCHEM_SHAPE_MULTIPOLES>  (1) 
352.82
4.55
2.91
1.15
1.39
0.36
0.17
-0.78
0.68
-0.94
0.2
0.06
0.32
-0.73

>  <PUBCHEM_SHAPE_SELFOVERLAP>  (1) 
755.842

>  <PUBCHEM_SHAPE_VOLUME>  (1) 
196.7

>  <PUBCHEM_COORDINATE_TYPE>  (1) 
2
5
10

$$$$
