14639
     RDKit          3D

 18 20  0  0  0  0  0  0  0  0999 V2000
    1.4736   -1.6414   -0.0762 O   0  0  0  0  0  0  0  0  0  0  0  0
   -4.0808   -0.2169    0.1375 N   0  0  0  0  0  0  0  0  0  0  0  0
    0.1217   -1.8793   -0.2925 N   0  0  0  0  0  0  0  0  0  0  0  0
   -4.8954   -0.0352    1.3386 C   0  0  0  0  0  0  0  0  0  0  0  0
   -4.3931    0.9331   -0.7105 C   0  0  0  0  0  0  0  0  0  0  0  0
   -6.2326    0.4259    0.7777 C   0  0  0  0  0  0  0  0  0  0  0  0
   -5.9030    1.0590   -0.5706 C   0  0  0  0  0  0  0  0  0  0  0  0
   -2.6604   -0.3153    0.4391 C   0  0  0  0  0  0  0  0  0  0  0  0
   -1.8423   -0.5520   -0.8329 C   0  0  0  0  0  0  0  0  0  0  0  0
   -0.3752   -0.6809   -0.5461 C   0  0  0  0  0  0  0  0  0  0  0  0
    0.5596    0.3448   -0.5131 C   0  0  0  0  0  0  0  0  0  0  0  0
    1.7220   -0.3135   -0.2103 C   0  0  0  0  0  0  0  0  0  0  0  0
    3.0852    0.0868   -0.0142 C   0  0  0  0  0  0  0  0  0  0  0  0
    3.4486    1.4329   -0.1299 C   0  0  0  0  0  0  0  0  0  0  0  0
    4.0636   -0.8649    0.2938 C   0  0  0  0  0  0  0  0  0  0  0  0
    4.7744    1.8227    0.0597 C   0  0  0  0  0  0  0  0  0  0  0  0
    5.3894   -0.4748    0.4835 C   0  0  0  0  0  0  0  0  0  0  0  0
    5.7447    0.8690    0.3664 C   0  0  0  0  0  0  0  0  0  0  0  0
  1  3  1  0
  1 12  1  0
  2  4  1  0
  2  5  1  0
  2  8  1  0
  3 10  2  0
  4  6  1  0
  5  7  1  0
  6  7  1  0
  8  9  1  0
  9 10  1  0
 10 11  1  0
 11 12  2  0
 12 13  1  0
 13 14  2  0
 13 15  1  0
 14 16  1  0
 15 17  2  0
 16 18  2  0
 17 18  1  0
M  END
>  <PUBCHEM_COMPOUND_CID>  (1) 
14639

>  <PUBCHEM_CONFORMER_RMSD>  (1) 
0.6

>  <PUBCHEM_CONFORMER_DIVERSEORDER>  (1) 
1
5
48
12
23
49
8
53
27
44
6
43
25
11
51
26
15
42
24
34
2
52
37
10
38
20
47
29
21
4
16
50
39
18
32
13
17
33
19
9
7
46
14
41
31
36
28
45
3
30
22
35
40

>  <PUBCHEM_MMFF94_PARTIAL_CHARGES>  (1) 
22
1 -0.02
10 0.11
11 -0.15
12 0.09
13 0.05
14 -0.15
15 -0.15
16 -0.15
17 -0.15
18 -0.15
2 -0.81
3 -0.41
31 0.15
32 0.15
33 0.15
34 0.15
35 0.15
36 0.15
4 0.27
5 0.27
8 0.27
9 0.18

>  <PUBCHEM_EFFECTIVE_ROTOR_COUNT>  (1) 
5

>  <PUBCHEM_PHARMACOPHORE_FEATURES>  (1) 
5
1 2 cation
1 3 acceptor
5 1 3 10 11 12 rings
5 2 4 5 6 7 rings
6 13 14 15 16 17 18 rings

>  <PUBCHEM_HEAVY_ATOM_COUNT>  (1) 
18

>  <PUBCHEM_ATOM_DEF_STEREO_COUNT>  (1) 
0

>  <PUBCHEM_ATOM_UDEF_STEREO_COUNT>  (1) 
0

>  <PUBCHEM_BOND_DEF_STEREO_COUNT>  (1) 
0

>  <PUBCHEM_BOND_UDEF_STEREO_COUNT>  (1) 
0

>  <PUBCHEM_ISOTOPIC_ATOM_COUNT>  (1) 
0

>  <PUBCHEM_COMPONENT_COUNT>  (1) 
1

>  <PUBCHEM_CACTVS_TAUTO_COUNT>  (1) 
1

>  <PUBCHEM_CONFORMER_ID>  (1) 
0000392F00000001

>  <PUBCHEM_MMFF94_ENERGY>  (1) 
27.1648

>  <PUBCHEM_FEATURE_SELFOVERLAP>  (1) 
25.373

>  <PUBCHEM_SHAPE_FINGERPRINT>  (1) 
10 15 18040999578471910553
100836 57 18272091616730388988
10354089 29 18333169479543452592
10688039 33 18040434369445456308
11045977 3 17894917351161335657
11089746 13 17418368108198784688
12236239 1 17847057774958030655
12507557 5 18334581252647856625
12516196 113 11602540935385527911
12596602 18 17167864187941655089
12670543 26 11671790351235789315
12714333 28 15913327991885293955
13167372 99 18200596899526300928
13288520 33 8358259250776731047
13533116 47 17677044642931147946
13631057 29 17987506182730945167
13675066 3 17967814954903164478
13685833 64 9079111177048582829
13785724 45 17835236745408279538
14251718 22 12895068526803934133
14251764 75 17756438410610564108
14341114 176 18113058229171948500
14350574 20 10807929380124762967
14576447 43 8862950472266686732
15048467 5 18201718479191662336
15183329 4 11455902338655117295
15188451 53 16009320924117133107
15348495 7 17677056848922241193
15475509 35 16154252929157654304
1813 80 12396298119226290594
18222031 100 11963389661058815294
19489759 90 16950282897742520153
19784866 140 10087646983311361767
19784866 240 8286203872546249927
20157964 124 18342458110435114055
20281389 69 18412823594701029873
204376 136 18343585144551076007
20645477 70 10015593809074719828
21033648 29 18261937609636996621
21150785 3 15697991968433205045
21236236 1 18341891961211501591
21267235 1 18261391097672942826
212847 35 18202281420613113000
21637258 2 12468635066716378281
221357 26 10807935942740307155
22224240 67 18260266365448695571
22956985 138 13336389314603476384
23198884 109 15770060531970392805
23402539 116 17346310518371350173
23402655 69 17704070706991677934
23522609 53 11459278844201554231
23559900 14 17532103695674095519
2767999 5 17917990581353835313
2838139 119 17704069590543137985
2916195 48 18259983773738075393
293599 30 18343864441694043662
300161 21 17989199374243208974
312425 54 16805604746464422937
33382 64 14707475963822574632
335352 9 18412825785988744094
3472631 163 17560518529595221996
34797466 226 13901903453230075585
351380 3 12107786319768961361
42630746 31 18273216361660716702
4340502 62 17748828505391170723
465052 167 11530482216430178384
5104073 3 18190730029072294578
542803 24 17418094312982230213
5924683 9 18042128829134148731
59682541 52 16128389120710110652
59755656 215 18339647737682807158
59755656 520 18334852839866488775
8272917 22 18272653429193152198

>  <PUBCHEM_SHAPE_MULTIPOLES>  (1) 
354.6
16.14
1.47
0.91
8.72
0.04
-0.1
6.08
-3.56
-1.24
0.12
0.92
0.01
0.24

>  <PUBCHEM_SHAPE_SELFOVERLAP>  (1) 
757.191

>  <PUBCHEM_SHAPE_VOLUME>  (1) 
199.9

>  <PUBCHEM_COORDINATE_TYPE>  (1) 
2
5
10

$$$$
