14642
     RDKit          3D

 18 18  0  0  0  0  0  0  0  0999 V2000
   -0.8642   -0.4332    0.0611 O   0  0  0  0  0  0  0  0  0  0  0  0
   -1.9711   -2.4434    0.2444 O   0  0  0  0  0  0  0  0  0  0  0  0
   -6.6510    1.8373   -0.1842 O   0  0  0  0  0  0  0  0  0  0  0  0
    3.9935    0.3374    0.0390 C   0  0  0  0  0  0  0  0  0  0  0  0
    5.4023   -0.2623    0.0648 C   0  0  0  0  0  0  0  0  0  0  0  0
    2.8832   -0.7146    0.0900 C   0  0  0  0  0  0  0  0  0  0  0  0
    6.5118    0.7840   -0.0605 C   0  0  0  0  0  0  0  0  0  0  0  0
    1.5017   -0.0638    0.0381 C   0  0  0  0  0  0  0  0  0  0  0  0
    7.8915    0.1251   -0.1021 C   0  0  0  0  0  0  0  0  0  0  0  0
    0.3892   -1.0988    0.1298 C   0  0  0  0  0  0  0  0  0  0  0  0
    8.9966    1.1565   -0.2648 C   0  0  0  0  0  0  0  0  0  0  0  0
   -1.9685   -1.2276    0.1301 C   0  0  0  0  0  0  0  0  0  0  0  0
   -3.2083   -0.4149    0.0462 C   0  0  0  0  0  0  0  0  0  0  0  0
   -4.3368   -0.9770   -0.5148 C   0  0  0  0  0  0  0  0  0  0  0  0
   -3.1944    0.8767    0.5321 C   0  0  0  0  0  0  0  0  0  0  0  0
   -5.5021   -0.2143   -0.5934 C   0  0  0  0  0  0  0  0  0  0  0  0
   -4.3598    1.6392    0.4535 C   0  0  0  0  0  0  0  0  0  0  0  0
   -5.5136    1.0937   -0.1092 C   0  0  0  0  0  0  0  0  0  0  0  0
  1 10  1  0
  1 12  1  0
  2 12  2  0
  3 18  1  0
  4  5  1  0
  4  6  1  0
  5  7  1  0
  6  8  1  0
  7  9  1  0
  8 10  1  0
  9 11  1  0
 12 13  1  0
 13 14  2  0
 13 15  1  0
 14 16  1  0
 15 17  2  0
 16 18  2  0
 17 18  1  0
M  END
>  <PUBCHEM_COMPOUND_CID>  (1) 
14642

>  <PUBCHEM_CONFORMER_RMSD>  (1) 
1

>  <PUBCHEM_CONFORMER_DIVERSEORDER>  (1) 
1
233
359
48
10
434
195
256
18
360
38
31
23
41
21
313
152
450
349
488
581
515
414
34
223
11
44
6
350
548
14
20
115
166
114
486
189
428
22
290
495
26
90
9
89
396
155
232
505
503
523
299
201
66
214
401
3
578
547
332
62
150
81
177
183
439
76
544
263
453
212
265
113
162
298
68
498
154
106
8
556
543
171
385
507

>  <PUBCHEM_MMFF94_PARTIAL_CHARGES>  (1) 
16
1 -0.43
10 0.28
12 0.63
13 0.09
14 -0.15
15 -0.15
16 -0.15
17 -0.15
18 0.08
2 -0.57
3 -0.53
36 0.15
37 0.15
38 0.15
39 0.15
40 0.45

>  <PUBCHEM_EFFECTIVE_ROTOR_COUNT>  (1) 
9

>  <PUBCHEM_PHARMACOPHORE_FEATURES>  (1) 
6
1 11 hydrophobe
1 2 acceptor
1 3 donor
3 4 6 8 hydrophobe
3 5 7 9 hydrophobe
6 13 14 15 16 17 18 rings

>  <PUBCHEM_HEAVY_ATOM_COUNT>  (1) 
18

>  <PUBCHEM_ATOM_DEF_STEREO_COUNT>  (1) 
0

>  <PUBCHEM_ATOM_UDEF_STEREO_COUNT>  (1) 
0

>  <PUBCHEM_BOND_DEF_STEREO_COUNT>  (1) 
0

>  <PUBCHEM_BOND_UDEF_STEREO_COUNT>  (1) 
0

>  <PUBCHEM_ISOTOPIC_ATOM_COUNT>  (1) 
0

>  <PUBCHEM_COMPONENT_COUNT>  (1) 
1

>  <PUBCHEM_CACTVS_TAUTO_COUNT>  (1) 
3

>  <PUBCHEM_CONFORMER_ID>  (1) 
0000393200000001

>  <PUBCHEM_MMFF94_ENERGY>  (1) 
26.2906

>  <PUBCHEM_FEATURE_SELFOVERLAP>  (1) 
30.458

>  <PUBCHEM_SHAPE_FINGERPRINT>  (1) 
10066227 49 16845302584300805446
10411042 1 17906733958257879239
106641 1 17603592928716292793
10730089 173 18343021086000031633
10968037 39 18202565085548254297
11315181 36 18186802516970138547
11719270 70 17703508814771914862
12091667 2 18413389864500621083
12166972 35 10447926183822088658
125118 31 18336828702171744224
13288520 33 9583517616574068891
13533116 47 17458333106265578282
13668630 136 13686294686416878612
13964095 4 18343303674058788246
1420 363 11386365937743657530
14251764 18 18260826008298176954
14251764 46 18040434400089637543
14556957 393 15195014893949845976
14729087 3 18410853266011991648
15048467 5 18335138687625522744
15183329 4 18273215279565815352
15461852 350 17989205992677081886
155225 1 18336544929097399477
15690457 1 10375869663362019116
15716309 27 7997969068568008264
15778101 99 18408042931165446842
17093844 174 18261393390489049490
17780758 139 12035443931145451775
18643901 69 16128365031003055405
19489759 90 18202565085490329531
195137 175 18335428993598819868
20281389 69 18113897144107439172
20621476 66 18259989288544512222
20621476 8 18261111847230588342
21150785 3 15554446302043139468
220451 1 16950277434760469434
22224240 67 15140962872173837720
22288116 15 17917416666918535887
23402539 116 18343857819234359511
23559900 14 18059848489126797849
246663 6 8214144067085623696
28498 318 18201442455383077294
300161 21 18410292506455111010
33532 11 10375883965972587956
4073 2 18114186371896271658
5283156 175 11095884873768660330
5758199 1 17748826328739180002
59567204 34 18411981338766786257
59682541 35 11314317161484792948
6328613 192 18334862766337535716
636775 72 18412261740276090216

>  <PUBCHEM_SHAPE_MULTIPOLES>  (1) 
352.82
23.86
1.65
0.68
45.11
0.13
0.01
-11.9
2.93
-2.26
-0.1
-0.21
-0.02
-0.39

>  <PUBCHEM_SHAPE_SELFOVERLAP>  (1) 
701.078

>  <PUBCHEM_SHAPE_VOLUME>  (1) 
209.8

>  <PUBCHEM_COORDINATE_TYPE>  (1) 
2
5
10

$$$$
