14647
     RDKit          3D

 19 21  0  0  1  0  0  0  0  0999 V2000
    6.0052   -0.9483    0.7839 Cl  0  0  0  0  0  0  0  0  0  0  0  0
   -0.3969    0.6782   -0.2309 N   0  0  0  0  0  0  0  0  0  0  0  0
   -2.8982    0.7162    0.1709 C   0  0  0  0  0  0  0  0  0  0  0  0
   -3.0436   -0.7761   -0.2617 C   0  0  0  0  0  0  0  0  0  0  0  0
   -1.7621   -1.3172    0.4229 C   0  0  0  0  0  0  0  0  0  0  0  0
   -2.6004    0.6006    1.6922 C   0  0  0  0  0  0  0  0  0  0  0  0
   -1.8524   -0.7354    1.8521 C   0  0  0  0  0  0  0  0  0  0  0  0
   -1.6609    1.3649   -0.5307 C   0  0  0  0  0  0  0  0  0  0  0  0
   -0.4850   -0.7859   -0.2696 C   0  0  0  0  0  0  0  0  0  0  0  0
   -4.1350    1.5775   -0.0927 C   0  0  0  0  0  0  0  0  0  0  0  0
   -3.0884   -1.0133   -1.7832 C   0  0  0  0  0  0  0  0  0  0  0  0
   -4.3071   -1.4698    0.3087 C   0  0  0  0  0  0  0  0  0  0  0  0
    0.7005    1.1777   -1.0508 C   0  0  0  0  0  0  0  0  0  0  0  0
    2.0316    0.6450   -0.5912 C   0  0  0  0  0  0  0  0  0  0  0  0
    2.7583    1.3489    0.3589 C   0  0  0  0  0  0  0  0  0  0  0  0
    2.5126   -0.5430   -1.1236 C   0  0  0  0  0  0  0  0  0  0  0  0
    3.9913    0.8551    0.7850 C   0  0  0  0  0  0  0  0  0  0  0  0
    3.7456   -1.0370   -0.6973 C   0  0  0  0  0  0  0  0  0  0  0  0
    4.4850   -0.3379    0.2569 C   0  0  0  0  0  0  0  0  0  0  0  0
  1 19  1  0
  2  8  1  0
  2  9  1  0
  2 13  1  0
  3  4  1  0
  3  6  1  0
  3  8  1  0
  3 10  1  0
  4  5  1  0
  4 11  1  0
  4 12  1  0
  5  7  1  0
  5  9  1  0
  6  7  1  0
 13 14  1  0
 14 15  2  0
 14 16  1  0
 15 17  1  0
 16 18  2  0
 17 19  2  0
 18 19  1  0
M  END
>  <PUBCHEM_COMPOUND_CID>  (1) 
14647

>  <PUBCHEM_CONFORMER_RMSD>  (1) 
0.6

>  <PUBCHEM_CONFORMER_DIVERSEORDER>  (1) 
3
10
11
9
4
1
13
7
12
6
8
5
2
14

>  <PUBCHEM_MMFF94_PARTIAL_CHARGES>  (1) 
15
1 -0.18
13 0.41
14 -0.14
15 -0.15
16 -0.15
17 -0.15
18 -0.15
19 0.18
2 -0.81
40 0.15
41 0.15
42 0.15
43 0.15
8 0.27
9 0.27

>  <PUBCHEM_EFFECTIVE_ROTOR_COUNT>  (1) 
3.2

>  <PUBCHEM_PHARMACOPHORE_FEATURES>  (1) 
4
1 2 cation
3 4 11 12 hydrophobe
6 14 15 16 17 18 19 rings
8 2 3 4 5 6 7 8 9 rings

>  <PUBCHEM_HEAVY_ATOM_COUNT>  (1) 
19

>  <PUBCHEM_ATOM_DEF_STEREO_COUNT>  (1) 
0

>  <PUBCHEM_ATOM_UDEF_STEREO_COUNT>  (1) 
2

>  <PUBCHEM_BOND_DEF_STEREO_COUNT>  (1) 
0

>  <PUBCHEM_BOND_UDEF_STEREO_COUNT>  (1) 
0

>  <PUBCHEM_ISOTOPIC_ATOM_COUNT>  (1) 
0

>  <PUBCHEM_COMPONENT_COUNT>  (1) 
1

>  <PUBCHEM_CACTVS_TAUTO_COUNT>  (1) 
1

>  <PUBCHEM_CONFORMER_ID>  (1) 
0000393700000003

>  <PUBCHEM_MMFF94_ENERGY>  (1) 
68.9091

>  <PUBCHEM_FEATURE_SELFOVERLAP>  (1) 
20.297

>  <PUBCHEM_SHAPE_FINGERPRINT>  (1) 
10366900 7 18411143567177916826
10751810 167 14345789452937595566
10803635 8 15285349601278330146
11315181 36 18040995159477875668
11370993 70 17775284949962948646
121448 382 14045729418234911205
12346177 29 18334573542743522293
12363563 72 18113341933326278828
12403814 3 14476964476081914787
12507557 5 17418369203679306408
12553582 1 16587737625506443304
12596602 18 17417797458165970338
12633257 1 18201444657867843992
12707595 3 16877948273586503468
128620 24 12535348999878347232
12916754 54 17458631184915993471
13024252 1 17676776452678276841
13224815 77 18340215166949280524
13296908 3 17604155933834524996
13533116 47 18263363757827154539
13583140 156 16415186871775565510
13675066 3 18412270536088608405
13693222 15 18201445825645137468
14004511 7 18412832360729021097
14289901 80 17274824674891253526
14341114 328 16630250319745298570
15375358 24 18341332214954828356
15788980 27 16370722626212517102
15880784 105 18342735239326674274
16752209 62 16515948320552638797
16945 1 17240484727954106117
17349148 13 18410854403687786398
17804303 29 18334299764353571612
18186145 218 17346052103279805980
19050596 39 17203328961254304270
19862831 5 15357696405318006948
200 152 17561356292724707317
20279233 1 18341618096541597916
20281475 54 17968100845554492500
20325693 3 13840264788654074643
20645477 70 17968094257248889478
21623110 236 11815024894648428554
22646028 1 18113617885185887318
22646028 28 18041000682383838102
22854114 59 17917992785067424054
2306618 200 17847064363580430609
23402539 116 18334851701799810580
23559900 14 18413668002809969184
26918003 58 18201997703515839080
312423 11 17241626067972894477
474 4 14620211097501499626
4921388 177 13623542271932305400
5104073 3 18411421734608141904
5281201 14 10665229229122428968
559249 180 18040991808865522635
5924683 9 17917139598108986303
74978 22 17023755644010959069
9709674 26 18336269049607844470

>  <PUBCHEM_SHAPE_MULTIPOLES>  (1) 
387.9
10.55
1.63
1.41
10.81
0.14
0.17
-2.24
1.75
-0.76
-0.06
-0.63
-0.19
-0.02

>  <PUBCHEM_SHAPE_SELFOVERLAP>  (1) 
816.791

>  <PUBCHEM_SHAPE_VOLUME>  (1) 
222.2

>  <PUBCHEM_COORDINATE_TYPE>  (1) 
2
5
10

$$$$
