14644
     RDKit          3D

 18 18  0  0  0  0  0  0  0  0999 V2000
    1.2961   -0.5905    1.8190 O   0  0  0  0  0  0  0  0  0  0  0  0
   -3.7141    0.5222   -0.1259 N   0  0  0  0  0  0  0  0  0  0  0  0
    1.2093   -1.6853   -0.2245 N   0  0  0  0  0  0  0  0  0  0  0  0
   -3.8526    0.0660    1.2584 C   0  0  0  0  0  0  0  0  0  0  0  0
   -4.9259    1.2254   -0.5517 C   0  0  0  0  0  0  0  0  0  0  0  0
   -3.4340   -0.6008   -1.0114 C   0  0  0  0  0  0  0  0  0  0  0  0
   -4.1450    1.2279    2.1926 C   0  0  0  0  0  0  0  0  0  0  0  0
   -4.7793    1.7663   -1.9638 C   0  0  0  0  0  0  0  0  0  0  0  0
   -2.1900   -1.2734   -0.6261 C   0  0  0  0  0  0  0  0  0  0  0  0
    0.0676   -2.5046    0.0671 C   0  0  0  0  0  0  0  0  0  0  0  0
    2.9072    0.0122    0.2255 C   0  0  0  0  0  0  0  0  0  0  0  0
   -1.1708   -1.8273   -0.3143 C   0  0  0  0  0  0  0  0  0  0  0  0
    1.7395   -0.7803    0.6895 C   0  0  0  0  0  0  0  0  0  0  0  0
    3.1334    1.2536    0.7832 C   0  0  0  0  0  0  0  0  0  0  0  0
    3.7282   -0.5185   -0.7477 C   0  0  0  0  0  0  0  0  0  0  0  0
    4.2299    1.9977    0.3479 C   0  0  0  0  0  0  0  0  0  0  0  0
    4.8247    0.2257   -1.1829 C   0  0  0  0  0  0  0  0  0  0  0  0
    5.0756    1.4838   -0.6351 C   0  0  0  0  0  0  0  0  0  0  0  0
  1 13  2  0
  2  4  1  0
  2  5  1  0
  2  6  1  0
  3 10  1  0
  3 13  1  0
  4  7  1  0
  5  8  1  0
  6  9  1  0
  9 12  3  0
 10 12  1  0
 11 13  1  0
 11 14  2  0
 11 15  1  0
 14 16  1  0
 15 17  2  0
 16 18  2  0
 17 18  1  0
M  END
>  <PUBCHEM_COMPOUND_CID>  (1) 
14644

>  <PUBCHEM_CONFORMER_RMSD>  (1) 
0.8

>  <PUBCHEM_CONFORMER_DIVERSEORDER>  (1) 
2
19
17
21
13
4
18
15
22
11
5
8
14
7
20
9
3
1
6
12
10
16

>  <PUBCHEM_MMFF94_PARTIAL_CHARGES>  (1) 
22
1 -0.57
10 0.5
11 0.09
12 -0.2
13 0.54
14 -0.15
15 -0.15
16 -0.15
17 -0.15
18 -0.15
2 -0.81
3 -0.73
33 0.37
34 0.15
35 0.15
36 0.15
37 0.15
38 0.15
4 0.27
5 0.27
6 0.47
9 -0.2

>  <PUBCHEM_EFFECTIVE_ROTOR_COUNT>  (1) 
6

>  <PUBCHEM_PHARMACOPHORE_FEATURES>  (1) 
4
1 1 acceptor
1 2 cation
1 3 donor
6 11 14 15 16 17 18 rings

>  <PUBCHEM_HEAVY_ATOM_COUNT>  (1) 
18

>  <PUBCHEM_ATOM_DEF_STEREO_COUNT>  (1) 
0

>  <PUBCHEM_ATOM_UDEF_STEREO_COUNT>  (1) 
0

>  <PUBCHEM_BOND_DEF_STEREO_COUNT>  (1) 
0

>  <PUBCHEM_BOND_UDEF_STEREO_COUNT>  (1) 
0

>  <PUBCHEM_ISOTOPIC_ATOM_COUNT>  (1) 
0

>  <PUBCHEM_COMPONENT_COUNT>  (1) 
1

>  <PUBCHEM_CACTVS_TAUTO_COUNT>  (1) 
2

>  <PUBCHEM_CONFORMER_ID>  (1) 
0000393400000002

>  <PUBCHEM_MMFF94_ENERGY>  (1) 
32.3553

>  <PUBCHEM_FEATURE_SELFOVERLAP>  (1) 
20.297

>  <PUBCHEM_SHAPE_FINGERPRINT>  (1) 
10498660 4 18412535518485958397
10670039 82 18059580156702929760
11796584 16 12175626144215943015
12363563 72 10087641541318967167
12596602 18 15430044287574187724
13544653 18 8646773283057833082
13887833 79 16056886818461316949
14123255 352 18408321086084627303
14123255 52 18335696152452240895
1420 369 9367347063068250997
14251751 18 12967118415723573285
14341114 328 15285362816359878620
14848178 5 11455896845038693444
14848178 96 18341891909244028224
15183329 4 18201445749000462246
15352361 1 9799691519252278605
16994733 274 17460569495958515749
17834072 32 18408599258284403677
193927 3 10231757824642878621
21713013 43 13614228296644442565
21864079 5 18336253596331279439
221357 26 17274822506075194083
22182937 141 18267591380094410803
23402655 69 17988650735315944772
316301 35 9582706190152654540
3459 83 17344927225797128798
4028521 119 18342737442027692335
44062 13 13398626152560215333
633830 44 17988374658796867343
7808743 9 18261105326589245524

>  <PUBCHEM_SHAPE_MULTIPOLES>  (1) 
354.6
12.91
2.29
1.65
1.13
0.46
0.35
-8.99
-2.96
0.09
-0.18
1.96
-0.69
0.23

>  <PUBCHEM_SHAPE_SELFOVERLAP>  (1) 
711.938

>  <PUBCHEM_SHAPE_VOLUME>  (1) 
208.9

>  <PUBCHEM_COORDINATE_TYPE>  (1) 
2
5
10

$$$$
