14652
     RDKit          3D

 19 21  0  0  0  0  0  0  0  0999 V2000
    4.8541    0.0288   -0.0854 S   0  0  0  0  0  0  0  0  0  0  0  0
    5.2957   -0.9789   -1.0390 O   0  0  0  0  0  0  0  0  0  0  0  0
    5.3178    1.4030   -0.2194 O   0  0  0  0  0  0  0  0  0  0  0  0
   -3.1884   -0.6712    0.1425 N   0  0  0  0  0  0  0  0  0  0  0  0
   -1.8911    1.1119   -0.2322 N   0  0  0  0  0  0  0  0  0  0  0  0
    0.3124    0.0069   -0.0318 C   0  0  0  0  0  0  0  0  0  0  0  0
   -1.1173   -0.0002   -0.0157 C   0  0  0  0  0  0  0  0  0  0  0  0
    3.1083    0.0204   -0.0639 C   0  0  0  0  0  0  0  0  0  0  0  0
   -3.1361    0.6925   -0.1339 C   0  0  0  0  0  0  0  0  0  0  0  0
   -1.8922   -1.1119    0.2173 C   0  0  0  0  0  0  0  0  0  0  0  0
    1.0171   -1.1349   -0.4244 C   0  0  0  0  0  0  0  0  0  0  0  0
    1.0151    1.1555    0.3446 C   0  0  0  0  0  0  0  0  0  0  0  0
    2.4120   -1.1281   -0.4403 C   0  0  0  0  0  0  0  0  0  0  0  0
    2.4098    1.1622    0.3285 C   0  0  0  0  0  0  0  0  0  0  0  0
   -4.3760   -1.3805    0.2988 C   0  0  0  0  0  0  0  0  0  0  0  0
   -4.3811    1.3762   -0.2593 C   0  0  0  0  0  0  0  0  0  0  0  0
    5.3184   -0.5181    1.5421 C   0  0  0  0  0  0  0  0  0  0  0  0
   -5.5445   -0.7294    0.1803 C   0  0  0  0  0  0  0  0  0  0  0  0
   -5.5339    0.6959   -0.1089 C   0  0  0  0  0  0  0  0  0  0  0  0
  1  2  2  0
  1  3  2  0
  1  8  1  0
  1 17  1  0
  4  9  1  0
  4 10  1  0
  4 15  1  0
  5  7  1  0
  5  9  2  0
  6  7  1  0
  6 11  2  0
  6 12  1  0
  7 10  2  0
  8 13  2  0
  8 14  1  0
  9 16  1  0
 11 13  1  0
 12 14  2  0
 15 18  2  0
 16 19  2  0
 18 19  1  0
M  END
>  <PUBCHEM_COMPOUND_CID>  (1) 
14652

>  <PUBCHEM_CONFORMER_RMSD>  (1) 
0.6

>  <PUBCHEM_CONFORMER_DIVERSEORDER>  (1) 
1
2

>  <PUBCHEM_MMFF94_PARTIAL_CHARGES>  (1) 
28
1 1.2
10 -0.3
11 -0.15
12 -0.15
13 -0.15
14 -0.15
15 -0.18
16 -0.11
17 0.11
18 -0.15
19 -0.15
2 -0.65
20 0.15
21 0.15
22 0.15
23 0.15
24 0.15
25 0.15
26 0.15
3 -0.65
30 0.15
31 0.15
4 0.33
5 -0.57
6 0.05
7 0.17
8 -0.01
9 0.14

>  <PUBCHEM_EFFECTIVE_ROTOR_COUNT>  (1) 
2

>  <PUBCHEM_PHARMACOPHORE_FEATURES>  (1) 
6
1 2 acceptor
1 3 acceptor
3 4 5 9 cation
5 4 5 7 9 10 rings
6 4 9 15 16 18 19 rings
6 6 8 11 12 13 14 rings

>  <PUBCHEM_HEAVY_ATOM_COUNT>  (1) 
19

>  <PUBCHEM_ATOM_DEF_STEREO_COUNT>  (1) 
0

>  <PUBCHEM_ATOM_UDEF_STEREO_COUNT>  (1) 
0

>  <PUBCHEM_BOND_DEF_STEREO_COUNT>  (1) 
0

>  <PUBCHEM_BOND_UDEF_STEREO_COUNT>  (1) 
0

>  <PUBCHEM_ISOTOPIC_ATOM_COUNT>  (1) 
0

>  <PUBCHEM_COMPONENT_COUNT>  (1) 
1

>  <PUBCHEM_CACTVS_TAUTO_COUNT>  (1) 
1

>  <PUBCHEM_CONFORMER_ID>  (1) 
0000393C00000001

>  <PUBCHEM_MMFF94_ENERGY>  (1) 
38.3654

>  <PUBCHEM_FEATURE_SELFOVERLAP>  (1) 
30.579

>  <PUBCHEM_SHAPE_FINGERPRINT>  (1) 
10 15 18342165718178889320
11287383 113 18409450305990743832
12107183 9 17466774987974606144
12236239 1 16515685533194598765
12403259 415 18272644675300684145
12507557 5 18202563990722179169
12516196 113 17703788128292904665
13288520 33 18410014342976956079
13533116 47 15985111773912245678
13675066 3 18060696208697661512
13862211 1 18410568496204690179
1420 363 18412549812089646687
14251764 18 18186515523698762136
14341114 176 18410862070114602321
15196674 1 18411139138428376572
15788980 27 17988923374864452230
17834072 33 18411138060465503356
17844677 252 18409454682473169900
19489759 90 17967249797942960961
200 152 17704071794119368585
20281389 69 17894346657809608685
20645477 70 18059861606284389750
21033648 29 17131253684846627393
21267235 1 18409739482239500571
21709351 56 18409724084560185957
220451 1 17458067049251041658
2297311 6 18411991242871096149
23402539 116 18260260854736220159
23402655 69 18201436952617243949
23536379 177 17749105578210759072
23557571 272 18338242561247568053
23559900 14 18340481266165007345
239999 70 18343588417685368830
26918003 58 18342457049873266395
300161 21 17749102284076272915
3004659 81 18261114050459185734
34797466 226 17988655133099062948
3545911 37 18411702076129957181
4072396 5 18342165640848482498
4073 2 18041286555259607731
4214541 1 18410293601666353741
42788 4 18410293613981342068
5104073 3 18409167748576962329
542803 24 16153710920478323589
59755656 215 18341619174753034502
67856867 119 18042128824105822012
7495541 125 18261393385861882928
9709674 26 18411426124423745175

>  <PUBCHEM_SHAPE_MULTIPOLES>  (1) 
373.16
14.1
1.45
0.83
1.08
0.08
0.13
-0.12
0.71
-0.38
-0.04
0.93
-0.13
0.39

>  <PUBCHEM_SHAPE_SELFOVERLAP>  (1) 
809.736

>  <PUBCHEM_SHAPE_VOLUME>  (1) 
205.3

>  <PUBCHEM_COORDINATE_TYPE>  (1) 
2
5
10

$$$$
