1465
     RDKit          3D

 15 16  0  0  1  0  0  0  0  0999 V2000
    1.5037   -0.5976    0.9988 O   0  0  0  0  0  0  0  0  0  0  0  0
    3.7068    0.3236   -1.6807 O   0  0  0  0  0  0  0  0  0  0  0  0
   -1.3557    2.3320    0.6902 O   0  0  0  0  0  0  0  0  0  0  0  0
   -4.4115   -0.9178   -0.4697 O   0  0  0  0  0  0  0  0  0  0  0  0
   -0.5630    0.1854    0.2196 N   0  0  0  0  0  0  0  0  0  0  0  0
   -2.8759    0.7120    0.1131 N   0  0  0  0  0  0  0  0  0  0  0  0
    2.9538    0.5079   -0.5004 C   0  0  0  0  0  0  0  0  0  0  0  0
    0.8074    0.5351    0.4548 C   0  0  0  0  0  0  0  0  0  0  0  0
    1.5414    0.9431   -0.8095 C   0  0  0  0  0  0  0  0  0  0  0  0
    2.7086   -0.7967    0.2407 C   0  0  0  0  0  0  0  0  0  0  0  0
    3.8409   -1.1822    1.1759 C   0  0  0  0  0  0  0  0  0  0  0  0
   -1.5735    1.1625    0.3662 C   0  0  0  0  0  0  0  0  0  0  0  0
   -0.8913   -1.1121   -0.1513 C   0  0  0  0  0  0  0  0  0  0  0  0
   -2.1376   -1.5265   -0.3891 C   0  0  0  0  0  0  0  0  0  0  0  0
   -3.2541   -0.5689   -0.2583 C   0  0  0  0  0  0  0  0  0  0  0  0
  1  8  1  0
  1 10  1  0
  2  7  1  0
  3 12  2  0
  4 15  2  0
  5  8  1  0
  5 12  1  0
  5 13  1  0
  6 12  1  0
  6 15  1  0
  7  9  1  0
  7 10  1  0
  8  9  1  0
 10 11  1  0
 13 14  2  0
 14 15  1  0
M  END
>  <PUBCHEM_COMPOUND_CID>  (1) 
1465

>  <PUBCHEM_CONFORMER_RMSD>  (1) 
0.6

>  <PUBCHEM_CONFORMER_DIVERSEORDER>  (1) 
2
21
29
23
13
22
18
4
16
6
15
14
12
28
20
27
25
30
19
9
5
26
3
17
11
10
1
7
8
24

>  <PUBCHEM_MMFF94_PARTIAL_CHARGES>  (1) 
17
1 -0.56
10 0.28
12 0.69
13 -0.04
14 -0.14
15 0.62
2 -0.68
24 0.4
25 0.15
26 0.37
27 0.15
3 -0.57
4 -0.57
5 -0.47
6 -0.49
7 0.28
8 0.58

>  <PUBCHEM_EFFECTIVE_ROTOR_COUNT>  (1) 
2

>  <PUBCHEM_PHARMACOPHORE_FEATURES>  (1) 
8
1 1 acceptor
1 2 acceptor
1 2 donor
1 3 acceptor
1 4 acceptor
1 6 donor
5 1 7 8 9 10 rings
6 5 6 12 13 14 15 rings

>  <PUBCHEM_HEAVY_ATOM_COUNT>  (1) 
15

>  <PUBCHEM_ATOM_DEF_STEREO_COUNT>  (1) 
0

>  <PUBCHEM_ATOM_UDEF_STEREO_COUNT>  (1) 
3

>  <PUBCHEM_BOND_DEF_STEREO_COUNT>  (1) 
0

>  <PUBCHEM_BOND_UDEF_STEREO_COUNT>  (1) 
0

>  <PUBCHEM_ISOTOPIC_ATOM_COUNT>  (1) 
0

>  <PUBCHEM_COMPONENT_COUNT>  (1) 
1

>  <PUBCHEM_CACTVS_TAUTO_COUNT>  (1) 
3

>  <PUBCHEM_CONFORMER_ID>  (1) 
000005B900000002

>  <PUBCHEM_MMFF94_ENERGY>  (1) 
35.4722

>  <PUBCHEM_FEATURE_SELFOVERLAP>  (1) 
40.598

>  <PUBCHEM_SHAPE_FINGERPRINT>  (1) 
10130415 120 18412541050477597835
10465860 71 18271259290955368700
11543360 7 16805603732820478911
11578080 2 17971440027914260860
12032990 46 18272373135168650935
12932764 1 18409738352309855864
13581323 91 18272362053773076234
13760787 5 18259985976987628927
14115302 16 18259980504656286714
14144814 61 18410857654946159914
14993402 34 18260833712846897095
15669948 3 18342458170427369910
15775835 57 18041287603242047308
15848700 24 17846211202760385653
16752209 62 18341039736424885899
16945 1 18272091577970103843
19026448 4 15626507181293166571
19049666 15 16772397205908345480
19422 9 18187366501963218514
200 152 18260540126178585859
20279233 1 16845567608639979422
20510252 161 17989207018963405361
20559304 39 18410006633294498962
20645476 183 18114468979937044847
20645477 70 17168139023062300538
20715346 28 16774075138109604824
2255824 54 17603304839337257794
228727 97 18335149720974766400
232386 152 18341884195635764978
23402539 116 17988064643967956607
23402655 69 17967530164222192597
23463225 33 18335697183413430850
23557571 272 17846779603053978376
23559900 14 17988927726415441732
23598291 2 18115315449608732350
2748010 2 17982723370851220755
3082319 5 18260836998786989678
3312278 4 18261961871906849003
474 4 17679029441934867644
57096353 35 18261679254537104358
7364860 26 17914614097125266216
77492 1 18259989240788305560
8030462 33 18261119586144503072

>  <PUBCHEM_SHAPE_MULTIPOLES>  (1) 
275.25
6.96
1.62
1.04
0.26
0.37
0.15
-2.02
0.86
0.56
-0.25
-0.97
0.05
-1.17

>  <PUBCHEM_SHAPE_SELFOVERLAP>  (1) 
577.728

>  <PUBCHEM_SHAPE_VOLUME>  (1) 
156.2

>  <PUBCHEM_COORDINATE_TYPE>  (1) 
2
5
10

$$$$
