14653
     RDKit          3D

 19 19  0  0  1  0  0  0  0  0999 V2000
    2.8196    3.2046   -0.5256 Cl  0  0  0  0  0  0  0  0  0  0  0  0
    4.1254   -2.2850   -0.0067 F   0  0  0  0  0  0  0  0  0  0  0  0
   -3.1116    1.5290   -1.1650 O   0  0  0  0  0  0  0  0  0  0  0  0
   -4.9103    0.1749   -1.4413 O   0  0  0  0  0  0  0  0  0  0  0  0
    2.7636    0.1477   -0.0189 N   0  0  0  0  0  0  0  0  0  0  0  0
   -4.9227   -0.2937    1.2626 N   0  0  0  0  0  0  0  0  0  0  0  0
    1.4013   -0.1827    0.1359 C   0  0  0  0  0  0  0  0  0  0  0  0
   -2.7343   -1.1850    0.6056 C   0  0  0  0  0  0  0  0  0  0  0  0
   -1.2741   -0.8319    0.4397 C   0  0  0  0  0  0  0  0  0  0  0  0
    3.4296    0.9905    0.9544 C   0  0  0  0  0  0  0  0  0  0  0  0
    3.5120   -0.3398   -1.1603 C   0  0  0  0  0  0  0  0  0  0  0  0
   -3.6475    0.0504    0.6376 C   0  0  0  0  0  0  0  0  0  0  0  0
    0.8497   -0.2877    1.4129 C   0  0  0  0  0  0  0  0  0  0  0  0
    0.6054   -0.4047   -0.9879 C   0  0  0  0  0  0  0  0  0  0  0  0
   -0.4977   -0.6146    1.5659 C   0  0  0  0  0  0  0  0  0  0  0  0
   -0.7421   -0.7316   -0.8348 C   0  0  0  0  0  0  0  0  0  0  0  0
    2.7650    2.3555    1.0394 C   0  0  0  0  0  0  0  0  0  0  0  0
    3.5392   -1.8548   -1.1566 C   0  0  0  0  0  0  0  0  0  0  0  0
   -3.9704    0.5587   -0.7569 C   0  0  0  0  0  0  0  0  0  0  0  0
  1 17  1  0
  2 18  1  0
  3 19  1  0
  4 19  2  0
  5  7  1  0
  5 10  1  0
  5 11  1  0
  6 12  1  0
  7 13  2  0
  7 14  1  0
  8  9  1  0
  8 12  1  0
  9 15  2  0
  9 16  1  0
 10 17  1  0
 11 18  1  0
 12 19  1  0
 13 15  1  0
 14 16  2  0
M  END
>  <PUBCHEM_COMPOUND_CID>  (1) 
14653

>  <PUBCHEM_CONFORMER_RMSD>  (1) 
0.8

>  <PUBCHEM_CONFORMER_DIVERSEORDER>  (1) 
1
58
119
145
195
153
168
159
97
80
155
186
136
63
42
53
231
141
181
235
205
179
135
25
232
78
229
101
215
208
107
109
99
177
198
137
241
19
165
126
127
244
202
65
213
115
105
14
140
29
85
246
188
143
192
24
172
36
196
117
164
98
90
57
83
64
34
242
214
55
247
84
150
118
170
103
124
176
221
175
89
156
190
207
60
147
138
197
148
204
180
206
216
111
121
92
102
173
144
217
68
178
201
43
130
52
142
209
47
112
162
158
39
46
243
163
233
154
41
70
21
238
48
120
37
49
59
74
106
56
71
96
18
225
189
228
129
139
67
11
35
185
73
160
146
113
226
166
152
161
128
28
187
104
125
183
76
100
6
193
200
38
94
157
182
15
108
82
27
184
77
32
234
212
66
131
17
230
8
151
134
132
223
171
23
224
236
218
4
86
239
174
40
44
22
211
114
9
33
7
169
20
149
222
51
227
191
45
13
87
88
219
245
122
62
194
10
123
26
210
50
12
3
203
16
72
79
167
199
61
93
5
31
116
2
69
133
91
30
81
54
237
75
240
220
110
95

>  <PUBCHEM_MMFF94_PARTIAL_CHARGES>  (1) 
26
1 -0.29
10 0.37
11 0.37
12 0.33
13 -0.15
14 -0.15
15 -0.15
16 -0.15
17 0.29
18 0.34
19 0.66
2 -0.34
27 0.15
28 0.15
29 0.15
3 -0.65
30 0.15
35 0.36
36 0.36
37 0.5
4 -0.57
5 -0.84
6 -0.99
7 0.1
8 0.14
9 -0.14

>  <PUBCHEM_EFFECTIVE_ROTOR_COUNT>  (1) 
8

>  <PUBCHEM_PHARMACOPHORE_FEATURES>  (1) 
7
1 3 acceptor
1 4 acceptor
1 5 cation
1 6 cation
1 6 donor
3 3 4 19 anion
6 7 9 13 14 15 16 rings

>  <PUBCHEM_HEAVY_ATOM_COUNT>  (1) 
19

>  <PUBCHEM_ATOM_DEF_STEREO_COUNT>  (1) 
0

>  <PUBCHEM_ATOM_UDEF_STEREO_COUNT>  (1) 
1

>  <PUBCHEM_BOND_DEF_STEREO_COUNT>  (1) 
0

>  <PUBCHEM_BOND_UDEF_STEREO_COUNT>  (1) 
0

>  <PUBCHEM_ISOTOPIC_ATOM_COUNT>  (1) 
0

>  <PUBCHEM_COMPONENT_COUNT>  (1) 
1

>  <PUBCHEM_CACTVS_TAUTO_COUNT>  (1) 
1

>  <PUBCHEM_CONFORMER_ID>  (1) 
0000393D00000001

>  <PUBCHEM_MMFF94_ENERGY>  (1) 
49.7212

>  <PUBCHEM_FEATURE_SELFOVERLAP>  (1) 
35.579

>  <PUBCHEM_SHAPE_FINGERPRINT>  (1) 
10062212 137 15985102977492149495
10646746 165 18040990760867199961
11089746 13 17895735366727882965
11405975 8 18341056284617782467
11543360 7 18130217272333759031
12403259 415 18187089459883276661
12616971 3 17274829038847116627
13134695 92 17989487403298094920
13583140 156 18411419548285385527
13675066 3 17967255325297073107
13760787 5 17346602975906672531
14178342 30 16806729692714361778
14251764 38 18335412474490526445
14252887 29 10879993570678653935
17349148 13 16845578582265843366
18186145 218 18411423920619771115
19026448 4 18408608092895182859
192875 21 17418099775948717410
19433438 15 16988570074090416841
20369508 70 18410855426386102282
20645477 56 18261395602207328579
20645477 70 18060148643238505990
23402539 116 15985105158839650503
23419403 2 17056363672173832536
23503958 25 17822012004063541629
23557571 272 18188771789940994051
23559900 14 18341335560977256938
268830 7 17917718993512990875
4990 188 17458918041249862234
5281201 14 18412548708188190573
633830 44 18343024376451181443
9971528 1 17274826801311593318

>  <PUBCHEM_SHAPE_MULTIPOLES>  (1) 
363.91
9.32
2.28
1.51
7.36
1.37
-0.07
0.84
1.39
-3.66
0.4
0.43
0.04
1.23

>  <PUBCHEM_SHAPE_SELFOVERLAP>  (1) 
729.265

>  <PUBCHEM_SHAPE_VOLUME>  (1) 
214.7

>  <PUBCHEM_COORDINATE_TYPE>  (1) 
2
5
10

$$$$
