14661
     RDKit          3D

 20 21  0  0  1  0  0  0  0  0999 V2000
    2.7064   -2.2316    0.0319 N   0  0  0  0  0  0  0  0  0  0  0  0
    0.4739    2.6262   -2.3516 N   0  0  0  0  0  0  0  0  0  0  0  0
    0.8384    1.1665   -0.1693 C   0  0  0  0  0  0  0  0  0  0  0  0
    1.6547   -0.1030   -0.5938 C   0  0  0  0  0  0  0  0  0  0  0  0
   -0.4645    0.7560    0.5409 C   0  0  0  0  0  0  0  0  0  0  0  0
    1.7453    1.9999    0.7969 C   0  0  0  0  0  0  0  0  0  0  0  0
    1.9381   -1.0991    0.5415 C   0  0  0  0  0  0  0  0  0  0  0  0
   -1.4148   -0.0022   -0.1173 C   0  0  0  0  0  0  0  0  0  0  0  0
    3.1317    2.3439    0.2524 C   0  0  0  0  0  0  0  0  0  0  0  0
   -0.6003    1.1920    1.8394 C   0  0  0  0  0  0  0  0  0  0  0  0
    0.6241    1.9863   -1.3947 C   0  0  0  0  0  0  0  0  0  0  0  0
   -2.5913   -0.3457    0.5905 C   0  0  0  0  0  0  0  0  0  0  0  0
   -1.2591   -0.4383   -1.4431 C   0  0  0  0  0  0  0  0  0  0  0  0
   -1.7571    0.8542    2.5354 C   0  0  0  0  0  0  0  0  0  0  0  0
   -2.7470    0.0905    1.9163 C   0  0  0  0  0  0  0  0  0  0  0  0
    3.0165   -3.1689    1.1118 C   0  0  0  0  0  0  0  0  0  0  0  0
    3.9372   -1.7695   -0.6106 C   0  0  0  0  0  0  0  0  0  0  0  0
   -3.5774   -1.1152   -0.0484 C   0  0  0  0  0  0  0  0  0  0  0  0
   -2.2490   -1.2022   -2.0621 C   0  0  0  0  0  0  0  0  0  0  0  0
   -3.4059   -1.5400   -1.3662 C   0  0  0  0  0  0  0  0  0  0  0  0
  1  7  1  0
  1 16  1  0
  1 17  1  0
  2 11  3  0
  3  4  1  0
  3  5  1  0
  3  6  1  0
  3 11  1  0
  4  7  1  0
  5  8  2  0
  5 10  1  0
  6  9  1  0
  8 12  1  0
  8 13  1  0
 10 14  2  0
 12 15  2  0
 12 18  1  0
 13 19  2  0
 14 15  1  0
 18 20  2  0
 19 20  1  0
M  END
>  <PUBCHEM_COMPOUND_CID>  (1) 
14661

>  <PUBCHEM_CONFORMER_RMSD>  (1) 
0.8

>  <PUBCHEM_CONFORMER_DIVERSEORDER>  (1) 
2
3
12
8
7
9
4
14
11
16
13
1
5
10
15
6

>  <PUBCHEM_MMFF94_PARTIAL_CHARGES>  (1) 
22
1 -0.81
10 -0.15
11 0.36
13 -0.15
14 -0.15
15 -0.15
16 0.27
17 0.27
18 -0.15
19 -0.15
2 -0.56
20 -0.15
3 0.34
30 0.15
31 0.15
32 0.15
33 0.15
40 0.15
41 0.15
42 0.15
5 -0.14
7 0.27

>  <PUBCHEM_EFFECTIVE_ROTOR_COUNT>  (1) 
5

>  <PUBCHEM_PHARMACOPHORE_FEATURES>  (1) 
5
1 1 cation
1 2 acceptor
1 9 hydrophobe
6 5 8 10 12 14 15 rings
6 8 12 13 18 19 20 rings

>  <PUBCHEM_HEAVY_ATOM_COUNT>  (1) 
20

>  <PUBCHEM_ATOM_DEF_STEREO_COUNT>  (1) 
0

>  <PUBCHEM_ATOM_UDEF_STEREO_COUNT>  (1) 
1

>  <PUBCHEM_BOND_DEF_STEREO_COUNT>  (1) 
0

>  <PUBCHEM_BOND_UDEF_STEREO_COUNT>  (1) 
0

>  <PUBCHEM_ISOTOPIC_ATOM_COUNT>  (1) 
0

>  <PUBCHEM_COMPONENT_COUNT>  (1) 
1

>  <PUBCHEM_CACTVS_TAUTO_COUNT>  (1) 
1

>  <PUBCHEM_CONFORMER_ID>  (1) 
0000394500000002

>  <PUBCHEM_MMFF94_ENERGY>  (1) 
78.6747

>  <PUBCHEM_FEATURE_SELFOVERLAP>  (1) 
25.398

>  <PUBCHEM_SHAPE_FINGERPRINT>  (1) 
10291535 26 10956326070764434614
11578080 2 18127948889361895424
11680611 10 17846512434275499417
12553582 1 18266462010144422538
12633257 1 15554446284352263027
13538477 17 17703801339781034145
13583140 156 18196675062531600393
13911987 19 17532398494177026574
14787075 74 16838800346642086376
14817 1 10864710049946823489
15375462 189 17773876596106225011
15852999 172 17972868443609579410
16945 1 17982426472325352653
1813 80 18266478528451181582
20361792 2 18261681367666541686
21421861 104 17845388776521186707
21731516 1 18264769861675149370
22112679 90 17918002667280874008
23419403 2 17195670776751376027
23526113 38 17095243596789684594
23557571 272 15069489161580537838
23598288 3 17989216953708180715
23598291 2 18272105876042923752
23728640 28 16823032834445823866
6992083 37 17986120608061499683
7097593 13 17845943909597141114
81228 2 17532640248663512052
84936 31 17390262486453645493

>  <PUBCHEM_SHAPE_MULTIPOLES>  (1) 
401.63
5.82
2.99
2.21
0.68
0.62
0.07
3.9
-0.32
3.34
0.08
-1.27
-0.72
-1.81

>  <PUBCHEM_SHAPE_SELFOVERLAP>  (1) 
848.741

>  <PUBCHEM_SHAPE_VOLUME>  (1) 
224

>  <PUBCHEM_COORDINATE_TYPE>  (1) 
2
5
10

$$$$
