14665
     RDKit          3D

 20 20  0  0  1  0  0  0  0  0999 V2000
   -3.7306    0.3058   -2.0690 O   0  0  0  0  0  0  0  0  0  0  0  0
   -1.2302   -0.5553   -1.2160 O   0  0  0  0  0  0  0  0  0  0  0  0
    4.7812    0.3037   -0.3977 O   0  0  0  0  0  0  0  0  0  0  0  0
   -3.5224   -1.3648    0.2288 N   0  0  0  0  0  0  0  0  0  0  0  0
   -0.6282    0.4430    0.8168 N   0  0  0  0  0  0  0  0  0  0  0  0
   -3.0436    0.0171    0.2348 C   0  0  0  0  0  0  0  0  0  0  0  0
   -3.8256    0.8948   -0.7684 C   0  0  0  0  0  0  0  0  0  0  0  0
   -1.5488   -0.0705   -0.1251 C   0  0  0  0  0  0  0  0  0  0  0  0
   -3.2711    2.3107   -0.8958 C   0  0  0  0  0  0  0  0  0  0  0  0
   -4.9459   -1.4139    0.5602 C   0  0  0  0  0  0  0  0  0  0  0  0
   -2.7504   -2.1772    1.1683 C   0  0  0  0  0  0  0  0  0  0  0  0
    0.7836    0.4065    0.4991 C   0  0  0  0  0  0  0  0  0  0  0  0
   -1.0469    1.0127    2.1063 C   0  0  0  0  0  0  0  0  0  0  0  0
    1.2379   -0.6026   -0.3072 C   0  0  0  0  0  0  0  0  0  0  0  0
    1.5877    1.3831    1.0238 C   0  0  0  0  0  0  0  0  0  0  0  0
    2.5986   -0.6382   -0.6118 C   0  0  0  0  0  0  0  0  0  0  0  0
    2.9485    1.3477    0.7191 C   0  0  0  0  0  0  0  0  0  0  0  0
    3.4540    0.3371   -0.0988 C   0  0  0  0  0  0  0  0  0  0  0  0
    5.3460   -0.9812   -0.6329 C   0  0  0  0  0  0  0  0  0  0  0  0
    6.8063   -0.9584   -0.2345 C   0  0  0  0  0  0  0  0  0  0  0  0
  1  7  1  0
  2  8  2  0
  3 18  1  0
  3 19  1  0
  4  6  1  0
  4 10  1  0
  4 11  1  0
  5  8  1  0
  5 12  1  0
  5 13  1  0
  6  7  1  0
  6  8  1  0
  7  9  1  0
 12 14  2  0
 12 15  1  0
 14 16  1  0
 15 17  2  0
 16 18  2  0
 17 18  1  0
 19 20  1  0
M  END
>  <PUBCHEM_COMPOUND_CID>  (1) 
14665

>  <PUBCHEM_CONFORMER_RMSD>  (1) 
0.8

>  <PUBCHEM_CONFORMER_DIVERSEORDER>  (1) 
2
55
29
14
34
16
38
90
5
101
39
98
94
58
79
67
74
66
96
89
13
31
85
81
61
24
95
23
73
37
7
100
75
99
28
49
88
68
83
46
50
1
42
21
82
70
48
43
62
59
45
92
86
9
22
57
56
25
65
4
76
36
53
47
77
17
33
93
30
19
35
78
27
15
72
63
64
91
10
41
102
84
32
60
8
44
80
18
69
97
3
87
51
71
12
52
11
26
40
54
6
20

>  <PUBCHEM_MMFF94_PARTIAL_CHARGES>  (1) 
23
1 -0.68
10 0.27
11 0.27
12 0.12
13 0.3
14 -0.15
15 -0.15
16 -0.15
17 -0.15
18 0.08
19 0.28
2 -0.57
3 -0.36
35 0.4
36 0.15
37 0.15
38 0.15
39 0.15
4 -0.81
5 -0.48
6 0.33
7 0.28
8 0.57

>  <PUBCHEM_EFFECTIVE_ROTOR_COUNT>  (1) 
7

>  <PUBCHEM_PHARMACOPHORE_FEATURES>  (1) 
6
1 1 acceptor
1 1 donor
1 2 acceptor
1 3 acceptor
1 4 cation
6 12 14 15 16 17 18 rings

>  <PUBCHEM_HEAVY_ATOM_COUNT>  (1) 
20

>  <PUBCHEM_ATOM_DEF_STEREO_COUNT>  (1) 
0

>  <PUBCHEM_ATOM_UDEF_STEREO_COUNT>  (1) 
2

>  <PUBCHEM_BOND_DEF_STEREO_COUNT>  (1) 
0

>  <PUBCHEM_BOND_UDEF_STEREO_COUNT>  (1) 
0

>  <PUBCHEM_ISOTOPIC_ATOM_COUNT>  (1) 
0

>  <PUBCHEM_COMPONENT_COUNT>  (1) 
1

>  <PUBCHEM_CACTVS_TAUTO_COUNT>  (1) 
1

>  <PUBCHEM_CONFORMER_ID>  (1) 
0000394900000002

>  <PUBCHEM_MMFF94_ENERGY>  (1) 
82.9108

>  <PUBCHEM_FEATURE_SELFOVERLAP>  (1) 
30.45

>  <PUBCHEM_SHAPE_FINGERPRINT>  (1) 
10680689 15 17894636962906367689
10803635 8 18260828176945678282
11315181 36 18060421292447306904
11796584 16 18260829255383558898
12186901 62 18114174251133798423
12236239 1 15769780182232974123
12553582 1 16845580828707623880
12596602 18 12967124996130546054
12616971 3 16702305684542244984
12788726 201 17771903835875484529
12916754 54 18336272356928029761
13140716 1 17059488689935536742
13288520 33 18260270763125850323
13675066 3 18272364313210710616
13760787 19 17822286860247398306
13760787 5 17489586804866349320
13862211 1 17703788098934995958
15183329 4 17530962428917001922
15788980 27 18131347510120536868
17349148 13 17060618902089388012
17844677 252 18187654617428984324
18186145 218 18410006654468752737
18927931 339 17203618064261802692
19433438 38 18408888425283797126
19489759 90 17894632547827628286
19784866 170 8935003663894447690
200 152 17632857516604185128
20325693 3 17967250893027785167
20645477 56 18113899317440083797
20645477 70 17989491835820076998
20871999 31 18113330925768041829
21065201 7 18114455755769118208
21267235 1 17845948372648338910
21756936 100 15574720161849724885
2297311 6 18041283248767519115
23175994 123 18060140963826217041
23198884 109 16732707147022692322
23402539 116 16370724820772052470
23493267 7 18336259072567627817
23536379 177 17749108868778076494
23557571 272 18260552233923502117
23559900 14 18408598176084539848
26918003 58 18130794468277073771
314194 84 17632859711944585142
4214541 1 18333452031976686444
4921388 177 17822017527211967619
5104073 3 17775292668377538538
5281201 14 18336266833552874252
542803 24 16008750204135232582
559249 180 18334573491425798538
59755656 215 18259702298619446723
59755656 520 18263084332293999905

>  <PUBCHEM_SHAPE_MULTIPOLES>  (1) 
384.02
12.07
1.8
1.4
14.32
0.04
0.11
-4.07
-2.79
-1.61
0.27
-1.17
0.31
1.58

>  <PUBCHEM_SHAPE_SELFOVERLAP>  (1) 
778.106

>  <PUBCHEM_SHAPE_VOLUME>  (1) 
226.2

>  <PUBCHEM_COORDINATE_TYPE>  (1) 
2
5
10

$$$$
