14678
     RDKit          3D

 21 23  0  0  0  0  0  0  0  0999 V2000
   -0.2465    2.7950   -0.5643 O   0  0  0  0  0  0  0  0  0  0  0  0
    2.9898    1.7211    0.0007 O   0  0  0  0  0  0  0  0  0  0  0  0
    0.2413    0.0751   -0.6273 N   0  0  0  0  0  0  0  0  0  0  0  0
    0.8637   -0.0502    0.4508 N   0  0  0  0  0  0  0  0  0  0  0  0
   -2.1180   -0.3487   -0.1467 C   0  0  0  0  0  0  0  0  0  0  0  0
   -3.4127    0.1632    0.1075 C   0  0  0  0  0  0  0  0  0  0  0  0
   -1.0582    0.5448   -0.3721 C   0  0  0  0  0  0  0  0  0  0  0  0
   -3.6095    1.5536    0.1288 C   0  0  0  0  0  0  0  0  0  0  0  0
   -1.9212   -1.7391   -0.1677 C   0  0  0  0  0  0  0  0  0  0  0  0
   -1.2719    1.9233   -0.3472 C   0  0  0  0  0  0  0  0  0  0  0  0
   -4.4725   -0.7302    0.3331 C   0  0  0  0  0  0  0  0  0  0  0  0
   -2.5450    2.4268   -0.0973 C   0  0  0  0  0  0  0  0  0  0  0  0
   -2.9856   -2.6122    0.0584 C   0  0  0  0  0  0  0  0  0  0  0  0
   -4.2589   -2.1087    0.3083 C   0  0  0  0  0  0  0  0  0  0  0  0
    2.1635   -0.5202    0.1959 C   0  0  0  0  0  0  0  0  0  0  0  0
    3.2056    0.3759   -0.0245 C   0  0  0  0  0  0  0  0  0  0  0  0
    2.3966   -1.8925    0.1679 C   0  0  0  0  0  0  0  0  0  0  0  0
    4.4912   -0.1040   -0.2752 C   0  0  0  0  0  0  0  0  0  0  0  0
    3.6822   -2.3722   -0.0829 C   0  0  0  0  0  0  0  0  0  0  0  0
    4.7295   -1.4781   -0.3044 C   0  0  0  0  0  0  0  0  0  0  0  0
    3.1365    2.3772    1.2583 C   0  0  0  0  0  0  0  0  0  0  0  0
  1 10  1  0
  2 16  1  0
  2 21  1  0
  3  4  2  0
  3  7  1  0
  4 15  1  0
  5  6  1  0
  5  7  2  0
  5  9  1  0
  6  8  2  0
  6 11  1  0
  7 10  1  0
  8 12  1  0
  9 13  2  0
 10 12  2  0
 11 14  2  0
 13 14  1  0
 15 16  2  0
 15 17  1  0
 16 18  1  0
 17 19  2  0
 18 20  2  0
 19 20  1  0
M  END
>  <PUBCHEM_COMPOUND_CID>  (1) 
14678

>  <PUBCHEM_CONFORMER_RMSD>  (1) 
0.6

>  <PUBCHEM_CONFORMER_DIVERSEORDER>  (1) 
2
17
14
16
3
18
12
11
10
9
15
4
13
7
5
6
1
8

>  <PUBCHEM_MMFF94_PARTIAL_CHARGES>  (1) 
30
1 -0.53
10 0.08
11 -0.15
12 -0.15
13 -0.15
14 -0.15
15 0.18
16 0.08
17 -0.15
18 -0.15
19 -0.15
2 -0.36
20 -0.15
21 0.28
22 0.15
23 0.15
24 0.15
25 0.15
26 0.15
27 0.15
28 0.15
29 0.15
3 -0.18
30 0.15
31 0.15
32 0.45
4 -0.18
7 0.18
8 -0.15
9 -0.15

>  <PUBCHEM_EFFECTIVE_ROTOR_COUNT>  (1) 
3

>  <PUBCHEM_PHARMACOPHORE_FEATURES>  (1) 
5
1 1 donor
1 2 acceptor
6 15 16 17 18 19 20 rings
6 5 6 7 8 10 12 rings
6 5 6 9 11 13 14 rings

>  <PUBCHEM_HEAVY_ATOM_COUNT>  (1) 
21

>  <PUBCHEM_ATOM_DEF_STEREO_COUNT>  (1) 
0

>  <PUBCHEM_ATOM_UDEF_STEREO_COUNT>  (1) 
0

>  <PUBCHEM_BOND_DEF_STEREO_COUNT>  (1) 
0

>  <PUBCHEM_BOND_UDEF_STEREO_COUNT>  (1) 
0

>  <PUBCHEM_ISOTOPIC_ATOM_COUNT>  (1) 
0

>  <PUBCHEM_COMPONENT_COUNT>  (1) 
1

>  <PUBCHEM_CACTVS_TAUTO_COUNT>  (1) 
3

>  <PUBCHEM_CONFORMER_ID>  (1) 
0000395600000002

>  <PUBCHEM_MMFF94_ENERGY>  (1) 
73.4074

>  <PUBCHEM_FEATURE_SELFOVERLAP>  (1) 
25.398

>  <PUBCHEM_SHAPE_FINGERPRINT>  (1) 
10366900 7 18261681449555744202
10616163 171 18410858737220539383
1100329 8 16538205408026632691
11405975 8 18341895160307424921
11552529 35 17988643042745090275
12107183 9 17760366587250254610
12403259 226 18411133602648250080
12553582 1 18336821013220058627
12633257 1 18129954364300157209
13140716 1 18411980226253380713
13224815 77 17894625963558335042
13544653 18 18334861675035722447
138480 1 14806847230000934692
14081887 123 18341039826350349617
14223421 5 18411694409149266088
14341114 176 18340775861986829448
14420673 8 17977952285030398134
14790565 3 17834400012416317377
14866123 147 16470658019624423378
15042514 8 18335991896117216011
15196674 1 18409730655443254446
15352361 1 18409167735792305855
15927050 60 16393250867272059332
17492 89 18409167701364547938
17804303 29 18339928108219627391
17834074 16 18411699868084269858
1813 80 17386004009252585429
19591789 44 18410575076099914363
20681677 274 18410567375529150696
21033648 29 18045486530870163965
21065198 57 18412262809326515256
21065199 12 18341609334729231776
21267235 1 18336838545165661171
221490 88 18411422813024636714
23557571 272 18342185440241294926
23559900 14 18410848867485549608
2871803 45 18334007315408631755
335352 9 18266459802430362813
350125 39 18411983602730801336
4214541 1 18410857616207155567
5104073 3 18412542081301307138
5283173 99 18187910752357189821
58051976 100 18411700941725932286
6287921 2 18263929998158671524
6823239 73 18128828434904238662
7097593 13 17827343393864768498
77779 3 18410295778961493830
9709674 26 18341897329271697271

>  <PUBCHEM_SHAPE_MULTIPOLES>  (1) 
410.47
9.76
3.22
0.75
3.37
0.52
0.08
-3.64
0.61
-0.61
0.16
0.21
0.2
0.82

>  <PUBCHEM_SHAPE_SELFOVERLAP>  (1) 
906.492

>  <PUBCHEM_SHAPE_VOLUME>  (1) 
221.4

>  <PUBCHEM_COORDINATE_TYPE>  (1) 
2
5
10

$$$$
