1467
     RDKit          3D

 22 24  0  0  1  0  0  0  0  0999 V2000
   -3.6472   -1.9266    0.2883 P   0  0  0  0  0  0  0  0  0  0  0  0
   -0.7967    1.9020   -0.8044 O   0  0  0  0  0  0  0  0  0  0  0  0
   -3.4892   -0.3732   -0.1238 O   0  0  0  0  0  0  0  0  0  0  0  0
   -2.6225    3.9667   -0.2181 O   0  0  0  0  0  0  0  0  0  0  0  0
   -5.2329   -2.2067    0.1379 O   0  0  0  0  0  0  0  0  0  0  0  0
   -3.4259   -1.8920    1.8897 O   0  0  0  0  0  0  0  0  0  0  0  0
   -2.7545   -2.8772   -0.4546 O   0  0  0  0  0  0  0  0  0  0  0  0
    1.0503    0.5519   -0.1855 N   0  0  0  0  0  0  0  0  0  0  0  0
    2.3869    0.8523    1.5777 N   0  0  0  0  0  0  0  0  0  0  0  0
    2.5266   -0.7577   -1.6031 N   0  0  0  0  0  0  0  0  0  0  0  0
    4.6847   -1.1382   -0.5290 N   0  0  0  0  0  0  0  0  0  0  0  0
    5.2018   -0.2949    1.6500 N   0  0  0  0  0  0  0  0  0  0  0  0
   -2.2266    0.2377    0.0464 C   0  0  0  0  0  0  0  0  0  0  0  0
   -1.1629   -0.4626   -0.7699 C   0  0  0  0  0  0  0  0  0  0  0  0
   -0.1422    0.6393   -1.0296 C   0  0  0  0  0  0  0  0  0  0  0  0
   -2.1823    1.6433   -0.5286 C   0  0  0  0  0  0  0  0  0  0  0  0
   -2.7226    2.7029    0.4145 C   0  0  0  0  0  0  0  0  0  0  0  0
    2.2242   -0.0848   -0.4827 C   0  0  0  0  0  0  0  0  0  0  0  0
    1.2001    1.0993    1.0636 C   0  0  0  0  0  0  0  0  0  0  0  0
    3.0373    0.1130    0.6219 C   0  0  0  0  0  0  0  0  0  0  0  0
    4.3110   -0.4447    0.5732 C   0  0  0  0  0  0  0  0  0  0  0  0
    3.7826   -1.2500   -1.5338 C   0  0  0  0  0  0  0  0  0  0  0  0
  1  3  1  0
  1  5  1  0
  1  6  1  0
  1  7  2  0
  2 15  1  0
  2 16  1  0
  3 13  1  0
  4 17  1  0
  8 15  1  0
  8 18  1  0
  8 19  1  0
  9 19  2  0
  9 20  1  0
 10 18  1  0
 10 22  2  0
 11 21  2  0
 11 22  1  0
 12 21  1  0
 13 14  1  0
 13 16  1  0
 14 15  1  0
 16 17  1  0
 18 20  2  0
 20 21  1  0
M  END
>  <PUBCHEM_COMPOUND_CID>  (1) 
1467

>  <PUBCHEM_CONFORMER_RMSD>  (1) 
0.8

>  <PUBCHEM_CONFORMER_DIVERSEORDER>  (1) 
6
78
34
43
1
77
83
44
42
26
22
75
80
23
81
32
51
49
5
45
82
65
69
61
7
17
89
52
11
19
87
15
41
47
57
13
72
33
48
70
76
58
88
62
68
2
31
36
21
63
28
60
16
27
3
71
37
25
29
66
53
9
55
4
30
84
39
64
12
50
10
74
86
54
85
20
14
35
40
8
67
73
38
56
59
79
18
46
24

>  <PUBCHEM_MMFF94_PARTIAL_CHARGES>  (1) 
28
1 1.51
10 -0.57
11 -0.62
12 -0.9
13 0.28
15 0.54
16 0.28
17 0.28
18 0.11
19 0.04
2 -0.56
20 0.23
21 0.41
22 0.47
3 -0.55
30 0.15
31 0.4
32 0.15
33 0.5
34 0.5
35 0.4
36 0.4
4 -0.68
5 -0.77
6 -0.77
7 -0.7
8 0.05
9 -0.57

>  <PUBCHEM_EFFECTIVE_ROTOR_COUNT>  (1) 
5

>  <PUBCHEM_PHARMACOPHORE_FEATURES>  (1) 
15
1 12 cation
1 12 donor
1 2 acceptor
1 4 acceptor
1 4 donor
1 5 acceptor
1 6 acceptor
1 7 acceptor
3 10 11 22 cation
3 8 10 18 cation
3 8 9 19 cation
4 1 5 6 7 anion
5 2 13 14 15 16 rings
5 8 9 18 19 20 rings
6 10 11 18 20 21 22 rings

>  <PUBCHEM_HEAVY_ATOM_COUNT>  (1) 
22

>  <PUBCHEM_ATOM_DEF_STEREO_COUNT>  (1) 
0

>  <PUBCHEM_ATOM_UDEF_STEREO_COUNT>  (1) 
3

>  <PUBCHEM_BOND_DEF_STEREO_COUNT>  (1) 
0

>  <PUBCHEM_BOND_UDEF_STEREO_COUNT>  (1) 
0

>  <PUBCHEM_ISOTOPIC_ATOM_COUNT>  (1) 
0

>  <PUBCHEM_COMPONENT_COUNT>  (1) 
1

>  <PUBCHEM_CACTVS_TAUTO_COUNT>  (1) 
3

>  <PUBCHEM_CONFORMER_ID>  (1) 
000005BB00000006

>  <PUBCHEM_MMFF94_ENERGY>  (1) 
15.4636

>  <PUBCHEM_FEATURE_SELFOVERLAP>  (1) 
76.765

>  <PUBCHEM_SHAPE_FINGERPRINT>  (1) 
1100329 8 14957124914461872476
11370993 144 17632307730699249867
11552529 35 16843881095348043639
11796584 16 18122629341197097078
12363563 72 18262805197721011419
12500047 106 18194681471171162301
12553582 1 18194134116608061295
12633257 1 17632024159815714419
12714826 92 18341338824582481589
12788726 201 18261969534260068411
13583140 156 17917700284704040148
13675066 3 17989200417957250020
14178342 30 18335415708404746862
15375358 24 17630872821228871636
15885798 251 18339083808481967271
16752209 62 17821999935247482067
1813 80 18041562550095087719
18785283 64 17914605297275295392
19049666 15 18059013852437650148
193927 3 18115034116239718771
200 152 15719108037667930492
20403669 9 18410293652905664235
20600515 1 17606946563123254841
20645477 70 16629389239296158932
21065199 12 18201996612620311666
21065201 7 18339360739251234630
23503958 8 18261390018559894402
23557571 272 18335974363259269737
23559900 14 18410289237425888245
23598288 3 16589430769896257988
23845131 108 17622181070533069721
312423 11 18041294234903706436
314173 85 18338523036018949275
4921388 177 18262523589183433789
5104073 3 18129655306207456386
5352402 22 17846789515553719102
59755656 520 18119804708435825517
602551 16 18408604743010394586
6049 1 18131353003120308480
7970288 3 18042126621073007643
81228 2 18334296466156395757
9709674 26 18201995491449335380

>  <PUBCHEM_SHAPE_MULTIPOLES>  (1) 
396.48
9.78
2.97
1.4
3.99
1.49
0.25
-5.5
2.07
-5.45
-0.04
1.1
-0.28
1.37

>  <PUBCHEM_SHAPE_SELFOVERLAP>  (1) 
838.85

>  <PUBCHEM_SHAPE_VOLUME>  (1) 
224.6

>  <PUBCHEM_COORDINATE_TYPE>  (1) 
2
5
10

$$$$
