1468
     RDKit          3D

 17 19  0  0  1  0  0  0  0  0999 V2000
   -3.2728    1.1903    1.4238 O   0  0  0  0  0  0  0  0  0  0  0  0
   -2.3339   -2.0931    0.5983 O   0  0  0  0  0  0  0  0  0  0  0  0
   -0.1138    1.1090   -0.1725 N   0  0  0  0  0  0  0  0  0  0  0  0
    1.9467    1.9386   -0.0003 N   0  0  0  0  0  0  0  0  0  0  0  0
    0.3845   -1.2672   -0.1063 N   0  0  0  0  0  0  0  0  0  0  0  0
    2.7832   -1.6626    0.1081 N   0  0  0  0  0  0  0  0  0  0  0  0
    4.3733    0.1214    0.2326 N   0  0  0  0  0  0  0  0  0  0  0  0
   -1.5744    1.0819   -0.3000 C   0  0  0  0  0  0  0  0  0  0  0  0
   -2.2857    0.3313    0.8496 C   0  0  0  0  0  0  0  0  0  0  0  0
   -2.9801   -0.8878    0.2190 C   0  0  0  0  0  0  0  0  0  0  0  0
   -2.0414    0.3718   -1.5329 C   0  0  0  0  0  0  0  0  0  0  0  0
   -2.8022   -0.6885   -1.2490 C   0  0  0  0  0  0  0  0  0  0  0  0
    0.7200    0.0316   -0.0891 C   0  0  0  0  0  0  0  0  0  0  0  0
    0.6680    2.2312   -0.1157 C   0  0  0  0  0  0  0  0  0  0  0  0
    1.9935    0.5672    0.0176 C   0  0  0  0  0  0  0  0  0  0  0  0
    3.0485   -0.3340    0.1190 C   0  0  0  0  0  0  0  0  0  0  0  0
    1.4868   -2.0410   -0.0023 C   0  0  0  0  0  0  0  0  0  0  0  0
  1  9  1  0
  2 10  1  0
  3  8  1  0
  3 13  1  0
  3 14  1  0
  4 14  2  0
  4 15  1  0
  5 13  1  0
  5 17  2  0
  6 16  2  0
  6 17  1  0
  7 16  1  0
  8  9  1  0
  8 11  1  0
  9 10  1  0
 10 12  1  0
 11 12  2  0
 13 15  2  0
 15 16  1  0
M  END
>  <PUBCHEM_COMPOUND_CID>  (1) 
1468

>  <PUBCHEM_CONFORMER_RMSD>  (1) 
0.6

>  <PUBCHEM_CONFORMER_DIVERSEORDER>  (1) 
4
5
6
18
17
9
21
12
1
24
23
11
20
10
16
15
25
2
3
14
7
22
8
13
19

>  <PUBCHEM_MMFF94_PARTIAL_CHARGES>  (1) 
25
1 -0.68
10 0.42
11 -0.29
12 -0.29
13 0.11
14 0.04
15 0.23
16 0.41
17 0.47
2 -0.68
21 0.15
22 0.15
23 0.15
24 0.4
25 0.4
26 0.15
27 0.4
28 0.4
3 0.05
4 -0.57
5 -0.57
6 -0.62
7 -0.9
8 0.39
9 0.28

>  <PUBCHEM_EFFECTIVE_ROTOR_COUNT>  (1) 
1.6

>  <PUBCHEM_PHARMACOPHORE_FEATURES>  (1) 
12
1 1 acceptor
1 1 donor
1 2 acceptor
1 2 donor
1 7 cation
1 7 donor
3 3 4 14 cation
3 3 5 13 cation
3 5 6 17 cation
5 3 4 13 14 15 rings
5 8 9 10 11 12 rings
6 5 6 13 15 16 17 rings

>  <PUBCHEM_HEAVY_ATOM_COUNT>  (1) 
17

>  <PUBCHEM_ATOM_DEF_STEREO_COUNT>  (1) 
0

>  <PUBCHEM_ATOM_UDEF_STEREO_COUNT>  (1) 
3

>  <PUBCHEM_BOND_DEF_STEREO_COUNT>  (1) 
0

>  <PUBCHEM_BOND_UDEF_STEREO_COUNT>  (1) 
0

>  <PUBCHEM_ISOTOPIC_ATOM_COUNT>  (1) 
0

>  <PUBCHEM_COMPONENT_COUNT>  (1) 
1

>  <PUBCHEM_CACTVS_TAUTO_COUNT>  (1) 
3

>  <PUBCHEM_CONFORMER_ID>  (1) 
000005BC00000004

>  <PUBCHEM_MMFF94_ENERGY>  (1) 
33.7119

>  <PUBCHEM_FEATURE_SELFOVERLAP>  (1) 
61.502

>  <PUBCHEM_SHAPE_FINGERPRINT>  (1) 
10967382 1 18409727387247682646
11132069 177 18408879616717173874
11578080 2 17343462779488736937
12251169 10 18341060652831293121
12382932 28 18341616949553240795
12553582 1 18337674096803668194
12696612 119 18412271635431379237
13140716 1 18337954605402408968
13583140 156 14188709863409185358
14178342 30 18412539907652365578
14289901 80 16702008795233831594
15309172 13 18341891900575102390
15375462 189 18188214204021891498
16945 1 18335419049878812108
17844478 74 17749118750912418029
19433438 48 18272360949797747586
200 152 18129930287067008119
20201158 50 18334287673846592455
21501502 16 18335711597170344633
22445834 79 18343586235266585937
22721475 48 18334579040000928623
2334 1 17976819010542323668
2748010 2 18120089747923564036
34934 24 18267581316869939576
77492 1 17846495954475526053
81228 2 17834949776851236336
8809292 202 18041561450335949115

>  <PUBCHEM_SHAPE_MULTIPOLES>  (1) 
313.21
5.83
2.12
1.01
1.9
0.1
0.11
0.95
-0.63
0.42
-0.16
-1.08
-0.09
-0.18

>  <PUBCHEM_SHAPE_SELFOVERLAP>  (1) 
691.846

>  <PUBCHEM_SHAPE_VOLUME>  (1) 
167

>  <PUBCHEM_COORDINATE_TYPE>  (1) 
2
5
10

$$$$
