14682
     RDKit          3D

 21 23  0  0  0  0  0  0  0  0999 V2000
    5.5577   -0.9148   -0.0033 F   0  0  0  0  0  0  0  0  0  0  0  0
   -0.9121   -0.2956   -0.0078 C   0  0  0  0  0  0  0  0  0  0  0  0
   -2.3693   -0.5768   -0.0035 C   0  0  0  0  0  0  0  0  0  0  0  0
   -0.3790    1.0926   -0.0029 C   0  0  0  0  0  0  0  0  0  0  0  0
   -0.0114   -1.3177    0.0028 C   0  0  0  0  0  0  0  0  0  0  0  0
    1.4392   -1.2119    0.0004 C   0  0  0  0  0  0  0  0  0  0  0  0
   -3.0298   -0.6972   -1.2094 C   0  0  0  0  0  0  0  0  0  0  0  0
   -0.1359    1.7073    1.2074 C   0  0  0  0  0  0  0  0  0  0  0  0
   -3.0203   -0.7101    1.2064 C   0  0  0  0  0  0  0  0  0  0  0  0
   -0.1449    1.7195   -1.2085 C   0  0  0  0  0  0  0  0  0  0  0  0
    2.1338   -1.1643   -1.2083 C   0  0  0  0  0  0  0  0  0  0  0  0
    2.1357   -1.1586    1.2077 C   0  0  0  0  0  0  0  0  0  0  0  0
   -4.3993   -0.9622   -1.2056 C   0  0  0  0  0  0  0  0  0  0  0  0
    0.3646    3.0093    1.2122 C   0  0  0  0  0  0  0  0  0  0  0  0
   -4.3897   -0.9752    1.2104 C   0  0  0  0  0  0  0  0  0  0  0  0
    0.3558    3.0214   -1.2038 C   0  0  0  0  0  0  0  0  0  0  0  0
   -5.0792   -1.1010    0.0044 C   0  0  0  0  0  0  0  0  0  0  0  0
    0.6105    3.6663    0.0067 C   0  0  0  0  0  0  0  0  0  0  0  0
    3.5251   -1.0635   -1.2095 C   0  0  0  0  0  0  0  0  0  0  0  0
    3.5269   -1.0575    1.2065 C   0  0  0  0  0  0  0  0  0  0  0  0
    4.2217   -1.0100   -0.0021 C   0  0  0  0  0  0  0  0  0  0  0  0
  1 21  1  0
  2  3  1  0
  2  4  1  0
  2  5  2  3
  3  7  2  0
  3  9  1  0
  4  8  2  0
  4 10  1  0
  5  6  1  0
  6 11  2  0
  6 12  1  0
  7 13  1  0
  8 14  1  0
  9 15  2  0
 10 16  2  0
 11 19  1  0
 12 20  2  0
 13 17  2  0
 14 18  2  0
 15 17  1  0
 16 18  1  0
 19 21  2  0
 20 21  1  0
M  END
>  <PUBCHEM_COMPOUND_CID>  (1) 
14682

>  <PUBCHEM_CONFORMER_RMSD>  (1) 
0.6

>  <PUBCHEM_CONFORMER_DIVERSEORDER>  (1) 
1
2

>  <PUBCHEM_MMFF94_PARTIAL_CHARGES>  (1) 
36
1 -0.19
10 -0.15
11 -0.15
12 -0.15
13 -0.15
14 -0.15
15 -0.15
16 -0.15
17 -0.15
18 -0.15
19 -0.15
2 -0.06
20 -0.15
21 0.19
22 0.15
23 0.15
24 0.15
25 0.15
26 0.15
27 0.15
28 0.15
29 0.15
3 0.03
30 0.15
31 0.15
32 0.15
33 0.15
34 0.15
35 0.15
36 0.15
4 0.03
5 -0.18
6 0.03
7 -0.15
8 -0.15
9 -0.15

>  <PUBCHEM_EFFECTIVE_ROTOR_COUNT>  (1) 
3

>  <PUBCHEM_PHARMACOPHORE_FEATURES>  (1) 
3
6 3 7 9 13 15 17 rings
6 4 8 10 14 16 18 rings
6 6 11 12 19 20 21 rings

>  <PUBCHEM_HEAVY_ATOM_COUNT>  (1) 
21

>  <PUBCHEM_ATOM_DEF_STEREO_COUNT>  (1) 
0

>  <PUBCHEM_ATOM_UDEF_STEREO_COUNT>  (1) 
0

>  <PUBCHEM_BOND_DEF_STEREO_COUNT>  (1) 
0

>  <PUBCHEM_BOND_UDEF_STEREO_COUNT>  (1) 
0

>  <PUBCHEM_ISOTOPIC_ATOM_COUNT>  (1) 
0

>  <PUBCHEM_COMPONENT_COUNT>  (1) 
1

>  <PUBCHEM_CACTVS_TAUTO_COUNT>  (1) 
1

>  <PUBCHEM_CONFORMER_ID>  (1) 
0000395A00000001

>  <PUBCHEM_MMFF94_ENERGY>  (1) 
72.4775

>  <PUBCHEM_FEATURE_SELFOVERLAP>  (1) 
15.223

>  <PUBCHEM_SHAPE_FINGERPRINT>  (1) 
11045515 52 18334011666215446388
12553582 1 18410857646515006995
12707595 3 18334576867122315539
12788726 201 18043803191367557369
13134695 92 18339357565144107813
13140716 1 18266744778196368347
13149001 5 18116721896400068075
13294875 104 17627233690669574929
133893 2 17903890585835811999
13544653 18 18413109441864595095
13681431 1 18410862104616973389
13911987 19 18115888406699336438
14170010 4 18340481283518501433
14181834 199 18196925780772581045
14347329 18 16010968928869983229
14347332 77 18195530286323197126
14955137 171 18200046130411425523
1601671 61 18340487751628394909
167882 2 18120936367434843460
17357779 13 18270664399187735629
17492 54 18189915269307442868
17980427 23 16343986914525509073
1813 80 18343028782665672871
18186145 218 11458429050292905999
18222031 100 18343292678346866311
18785283 64 17899421075569974437
200 152 17458345212940121474
20097449 115 18409166610516032161
20510252 161 18265051341104829554
20600515 1 18338815466950933790
20721686 146 15051464772945536441
21029758 27 18408323289334330023
21041028 32 18412271635990996737
21304303 282 17105896593063110476
22112679 90 18126316105935790449
22182313 1 18191839358230982692
23175994 123 18334017181444142551
23402539 116 18340768152605319006
23419403 2 18193245633550154492
23557571 272 18341332172179397614
23558518 356 17257074983911731711
23559900 14 17023463179088865167
283562 15 18263926540625355242
314173 85 18343026557751443463
5895379 119 16915133688403482137
621550 34 17846493700171798070
6442390 28 17119747080750770688
6443956 14 18342172301799738361
7164475 11 18046058268674182634
7364860 26 18198344155115053357
7399639 24 17917143893635594422
7471813 234 18131346449585647317
7495541 125 17895485837929423323
81228 2 18122353367344972513
9981440 41 13628085578532795743

>  <PUBCHEM_SHAPE_MULTIPOLES>  (1) 
424.9
8.54
3.17
1.46
1.76
4.69
0
-7.57
0.01
-1.43
0
0.16
0.11
0.01

>  <PUBCHEM_SHAPE_SELFOVERLAP>  (1) 
935.922

>  <PUBCHEM_SHAPE_VOLUME>  (1) 
229.4

>  <PUBCHEM_COORDINATE_TYPE>  (1) 
2
5
10

$$$$
