14688
     RDKit          3D

 22 25  0  0  1  0  0  0  0  0999 V2000
   -4.5804   -1.5988    0.8639 O   0  0  0  0  0  0  0  0  0  0  0  0
   -5.2652    1.3723    0.8461 O   0  0  0  0  0  0  0  0  0  0  0  0
    4.8592   -2.0790    0.1346 O   0  0  0  0  0  0  0  0  0  0  0  0
    5.8180    0.5044    0.4859 O   0  0  0  0  0  0  0  0  0  0  0  0
   -2.6193   -0.8489   -0.4301 C   0  0  0  0  0  0  0  0  0  0  0  0
   -2.0532    0.5764   -0.7335 C   0  0  0  0  0  0  0  0  0  0  0  0
   -0.6367    0.8186   -0.1554 C   0  0  0  0  0  0  0  0  0  0  0  0
    0.2617   -0.4110   -0.4114 C   0  0  0  0  0  0  0  0  0  0  0  0
   -4.0771   -0.5792    0.0178 C   0  0  0  0  0  0  0  0  0  0  0  0
   -1.7896   -1.5518    0.6678 C   0  0  0  0  0  0  0  0  0  0  0  0
   -3.0846    1.5718   -0.1616 C   0  0  0  0  0  0  0  0  0  0  0  0
   -3.9941    0.7550    0.7423 C   0  0  0  0  0  0  0  0  0  0  0  0
   -0.2902   -1.6289    0.3609 C   0  0  0  0  0  0  0  0  0  0  0  0
    0.0091    2.0714   -0.7610 C   0  0  0  0  0  0  0  0  0  0  0  0
   -2.6443   -1.7290   -1.6937 C   0  0  0  0  0  0  0  0  0  0  0  0
    1.7405   -0.1544   -0.1500 C   0  0  0  0  0  0  0  0  0  0  0  0
    1.3380    2.3595   -0.0702 C   0  0  0  0  0  0  0  0  0  0  0  0
    2.2417    1.1554   -0.0163 C   0  0  0  0  0  0  0  0  0  0  0  0
    2.6494   -1.2276   -0.1165 C   0  0  0  0  0  0  0  0  0  0  0  0
    3.6130    1.3577    0.2127 C   0  0  0  0  0  0  0  0  0  0  0  0
    4.0115   -1.0132    0.0979 C   0  0  0  0  0  0  0  0  0  0  0  0
    4.4926    0.2792    0.2700 C   0  0  0  0  0  0  0  0  0  0  0  0
  1  9  1  0
  2 12  1  0
  3 21  1  0
  4 22  1  0
  5  6  1  0
  5  9  1  0
  5 10  1  0
  5 15  1  0
  6  7  1  0
  6 11  1  0
  7  8  1  0
  7 14  1  0
  8 13  1  0
  8 16  1  0
  9 12  1  0
 10 13  1  0
 11 12  1  0
 14 17  1  0
 16 18  2  0
 16 19  1  0
 17 18  1  0
 18 20  1  0
 19 21  2  0
 20 22  2  0
 21 22  1  0
M  END
>  <PUBCHEM_COMPOUND_CID>  (1) 
14688

>  <PUBCHEM_CONFORMER_RMSD>  (1) 
0.6

>  <PUBCHEM_CONFORMER_DIVERSEORDER>  (1) 
8
4
33
1
34
26
23
31
10
29
20
30
15
32
9
6
7
11
24
28
21
25
14
2
17
3
12
16
5
27
13
22
19
18

>  <PUBCHEM_MMFF94_PARTIAL_CHARGES>  (1) 
20
1 -0.68
12 0.28
16 -0.14
17 0.14
18 -0.14
19 -0.15
2 -0.68
20 -0.15
21 0.08
22 0.08
3 -0.53
4 -0.53
41 0.4
42 0.4
43 0.15
44 0.15
45 0.45
46 0.45
8 0.14
9 0.28

>  <PUBCHEM_EFFECTIVE_ROTOR_COUNT>  (1) 
1.4

>  <PUBCHEM_PHARMACOPHORE_FEATURES>  (1) 
10
1 1 acceptor
1 1 donor
1 2 acceptor
1 2 donor
1 3 donor
1 4 donor
5 5 6 9 11 12 rings
6 16 18 19 20 21 22 rings
6 5 6 7 8 10 13 rings
6 7 8 14 16 17 18 rings

>  <PUBCHEM_HEAVY_ATOM_COUNT>  (1) 
22

>  <PUBCHEM_ATOM_DEF_STEREO_COUNT>  (1) 
1

>  <PUBCHEM_ATOM_UDEF_STEREO_COUNT>  (1) 
5

>  <PUBCHEM_BOND_DEF_STEREO_COUNT>  (1) 
0

>  <PUBCHEM_BOND_UDEF_STEREO_COUNT>  (1) 
0

>  <PUBCHEM_ISOTOPIC_ATOM_COUNT>  (1) 
0

>  <PUBCHEM_COMPONENT_COUNT>  (1) 
1

>  <PUBCHEM_CACTVS_TAUTO_COUNT>  (1) 
31

>  <PUBCHEM_CONFORMER_ID>  (1) 
0000396000000008

>  <PUBCHEM_MMFF94_ENERGY>  (1) 
76.1892

>  <PUBCHEM_FEATURE_SELFOVERLAP>  (1) 
50.898

>  <PUBCHEM_SHAPE_FINGERPRINT>  (1) 
10062212 137 18271519875068674679
10906281 52 18261403303685083416
11132069 177 18410846651372017732
11578080 2 17273959414837464112
12107183 9 17982455888593091970
12236239 1 18201998820455041439
12251169 10 18413389851789636773
12553582 1 18188760657227572082
12788726 201 17988093192558174792
13140716 1 18410858776112232081
13583140 156 15625931058427252126
13675066 3 18412545426796012801
14004511 7 18342459257227980471
14341114 176 18410300176844604729
14790565 3 17760092109361604204
14866123 147 17405432100911758506
15196674 1 18409449184766798800
15209289 33 18260267468875281043
15209294 21 18273218573521154441
15256400 18 18411421678578484937
15442244 35 18411418427340781548
15536298 74 18413670223075647324
15788980 27 17917992784677202830
15848702 151 18272371953461872574
16945 1 18120936371629103293
17492 89 18268428112670030991
17804303 29 18408890645908528805
1813 80 17385444319390435932
18186145 218 17749382672210109790
18769570 83 15984546594522391721
19141452 34 18343580733181501367
19591789 44 18334856095535770322
200 152 18060132163105723062
20028762 73 18269557320166213999
21267235 1 18408611378845669022
21279426 13 18191864526680756628
21403212 168 18266743489969754833
21421861 104 17969493819692569978
23184049 59 18341896285694292798
23402539 116 18411692201446236470
23559900 14 18338229372283722646
296302 2 16200433576163225221
335352 9 18337673001582019229
34934 24 18336539409472937269
350125 39 18410014373094773389
4214541 1 18411981364446113753
5104073 3 18411135835672405818
5924683 9 17774148132586739407
9709674 26 18409450323355547686

>  <PUBCHEM_SHAPE_MULTIPOLES>  (1) 
429.27
10.48
2.3
0.93
4.07
0.22
-0.18
-0.98
2.51
-0.01
-0.11
-0.79
-0.18
-0.3

>  <PUBCHEM_SHAPE_SELFOVERLAP>  (1) 
937.54

>  <PUBCHEM_SHAPE_VOLUME>  (1) 
232

>  <PUBCHEM_COORDINATE_TYPE>  (1) 
2
5
10

$$$$
