14684
     RDKit          3D

 21 24  0  0  1  0  0  0  0  0999 V2000
    0.4885   -0.2921    1.3040 N   0  0  0  0  0  0  0  0  0  0  0  0
    0.8167   -2.8093   -0.6190 N   0  0  0  0  0  0  0  0  0  0  0  0
   -1.3078   -2.6819    0.2265 N   0  0  0  0  0  0  0  0  0  0  0  0
   -0.6103    0.4620    1.9030 C   0  0  0  0  0  0  0  0  0  0  0  0
    1.5058    0.3159    0.5588 C   0  0  0  0  0  0  0  0  0  0  0  0
    0.2489    2.5774    0.1773 C   0  0  0  0  0  0  0  0  0  0  0  0
   -1.5477    0.9501    0.8344 C   0  0  0  0  0  0  0  0  0  0  0  0
    1.4274    1.6298    0.0138 C   0  0  0  0  0  0  0  0  0  0  0  0
   -1.1114    1.9643   -0.0316 C   0  0  0  0  0  0  0  0  0  0  0  0
    0.5187   -1.7299    1.5673 C   0  0  0  0  0  0  0  0  0  0  0  0
    2.7050   -0.3969    0.2984 C   0  0  0  0  0  0  0  0  0  0  0  0
   -2.8137    0.3790    0.6586 C   0  0  0  0  0  0  0  0  0  0  0  0
    2.5219    2.1583   -0.7138 C   0  0  0  0  0  0  0  0  0  0  0  0
   -1.9551    2.4021   -1.0603 C   0  0  0  0  0  0  0  0  0  0  0  0
    0.0348   -2.4272    0.3468 C   0  0  0  0  0  0  0  0  0  0  0  0
    3.7683    0.1384   -0.4340 C   0  0  0  0  0  0  0  0  0  0  0  0
    3.6776    1.4210   -0.9397 C   0  0  0  0  0  0  0  0  0  0  0  0
   -3.6464    0.8224   -0.3679 C   0  0  0  0  0  0  0  0  0  0  0  0
   -3.2176    1.8323   -1.2264 C   0  0  0  0  0  0  0  0  0  0  0  0
   -0.0948   -3.4383   -1.5891 C   0  0  0  0  0  0  0  0  0  0  0  0
   -1.4088   -3.2776   -0.9074 C   0  0  0  0  0  0  0  0  0  0  0  0
  1  4  1  0
  1  5  1  0
  1 10  1  0
  2 15  2  0
  2 20  1  0
  3 15  1  0
  3 21  2  0
  4  7  1  0
  5  8  2  0
  5 11  1  0
  6  8  1  0
  6  9  1  0
  7  9  2  0
  7 12  1  0
  8 13  1  0
  9 14  1  0
 10 15  1  0
 11 16  2  0
 12 18  2  0
 13 17  2  0
 14 19  2  0
 16 17  1  0
 18 19  1  0
 20 21  1  0
M  END
>  <PUBCHEM_COMPOUND_CID>  (1) 
14684

>  <PUBCHEM_CONFORMER_RMSD>  (1) 
0.6

>  <PUBCHEM_CONFORMER_DIVERSEORDER>  (1) 
2
20
17
27
29
21
4
14
3
5
23
7
32
30
25
31
24
11
16
8
22
18
6
12
9
26
28
19
13
10
15
1

>  <PUBCHEM_MMFF94_PARTIAL_CHARGES>  (1) 
30
1 -0.84
10 0.43
11 -0.15
12 -0.15
13 -0.15
14 -0.15
15 0.6
16 -0.15
17 -0.15
18 -0.15
19 -0.15
2 -0.7
20 0.31
21 0.33
28 0.15
29 0.15
3 -0.66
30 0.15
31 0.15
32 0.15
33 0.15
34 0.15
35 0.15
38 0.06
4 0.51
5 0.1
6 0.29
7 -0.14
8 -0.14
9 -0.14

>  <PUBCHEM_EFFECTIVE_ROTOR_COUNT>  (1) 
2.8

>  <PUBCHEM_PHARMACOPHORE_FEATURES>  (1) 
7
1 1 cation
1 3 acceptor
3 2 3 15 cation
5 2 3 15 20 21 rings
6 5 8 11 13 16 17 rings
6 7 9 12 14 18 19 rings
7 1 4 5 6 7 8 9 rings

>  <PUBCHEM_HEAVY_ATOM_COUNT>  (1) 
21

>  <PUBCHEM_ATOM_DEF_STEREO_COUNT>  (1) 
0

>  <PUBCHEM_ATOM_UDEF_STEREO_COUNT>  (1) 
0

>  <PUBCHEM_BOND_DEF_STEREO_COUNT>  (1) 
0

>  <PUBCHEM_BOND_UDEF_STEREO_COUNT>  (1) 
0

>  <PUBCHEM_ISOTOPIC_ATOM_COUNT>  (1) 
0

>  <PUBCHEM_COMPONENT_COUNT>  (1) 
1

>  <PUBCHEM_CACTVS_TAUTO_COUNT>  (1) 
1

>  <PUBCHEM_CONFORMER_ID>  (1) 
0000395C00000002

>  <PUBCHEM_MMFF94_ENERGY>  (1) 
74.4924

>  <PUBCHEM_FEATURE_SELFOVERLAP>  (1) 
35.544

>  <PUBCHEM_SHAPE_FINGERPRINT>  (1) 
104564 63 17979077407156990638
10871710 139 17324667937955145148
10930396 42 15678822305484760912
11578080 2 17199392838481297144
116883 192 17692247860369060173
11796584 16 15979978175740077701
12422481 6 18050321268549847827
12715332 25 18412268345824164048
13149001 5 17916296311255627456
13836976 161 18337376155128203197
14251751 93 18335136518181878175
15210252 30 17323206669948055767
16945 1 18342741810178627480
17357779 13 17553753354402230719
17492 54 18262230135954229319
17921350 177 14433531352512250143
17980427 23 17393561884588931568
20602899 9 18130801035709168098
20645477 70 18118394047907559005
20905425 154 17607799500483641704
21160774 45 18337675325027418229
21524375 3 18333454226958273440
22889148 1 18047784720661601340
23419403 2 17254902542034825339
238 59 17900226794397169533
26353 1 17402893821993800734
2748010 2 18260562137886491344
298252 57 18334010584036694808
3060560 45 18336818689331171092
35225 105 18340772649119178030
5262128 65 17616246984042813977
81228 2 17760928841313283985
8272917 22 18195526979082016237
90525 40 18408601435700934201

>  <PUBCHEM_SHAPE_MULTIPOLES>  (1) 
417.23
5.01
4.26
1.45
1.05
3.84
-0.22
-3.29
1.66
-0.92
1.82
-0.26
0.38
-0.13

>  <PUBCHEM_SHAPE_SELFOVERLAP>  (1) 
921.942

>  <PUBCHEM_SHAPE_VOLUME>  (1) 
217.2

>  <PUBCHEM_COORDINATE_TYPE>  (1) 
2
5
10

$$$$
