14691
     RDKit          3D

 22 24  0  0  0  0  0  0  0  0999 V2000
    5.6311    0.5700   -0.3063 O   0  0  0  0  0  0  0  0  0  0  0  0
    0.0479    0.1508   -0.0436 C   0  0  0  0  0  0  0  0  0  0  0  0
    1.5291    0.2616   -0.1140 C   0  0  0  0  0  0  0  0  0  0  0  0
   -0.6396   -1.1639   -0.0023 C   0  0  0  0  0  0  0  0  0  0  0  0
   -0.6721    1.3073   -0.0371 C   0  0  0  0  0  0  0  0  0  0  0  0
   -2.1197    1.4419    0.0078 C   0  0  0  0  0  0  0  0  0  0  0  0
    2.1355    0.3030   -1.3515 C   0  0  0  0  0  0  0  0  0  0  0  0
    2.2472    0.3198    1.0618 C   0  0  0  0  0  0  0  0  0  0  0  0
   -0.8923   -1.7471    1.2230 C   0  0  0  0  0  0  0  0  0  0  0  0
   -1.0058   -1.7639   -1.1904 C   0  0  0  0  0  0  0  0  0  0  0  0
    3.5249    0.4073   -1.4165 C   0  0  0  0  0  0  0  0  0  0  0  0
    3.6367    0.4242    0.9970 C   0  0  0  0  0  0  0  0  0  0  0  0
    4.2757    0.4680   -0.2423 C   0  0  0  0  0  0  0  0  0  0  0  0
   -2.8538    1.4788   -1.1778 C   0  0  0  0  0  0  0  0  0  0  0  0
   -2.7740    1.5340    1.2363 C   0  0  0  0  0  0  0  0  0  0  0  0
   -1.5382   -2.9828    1.2620 C   0  0  0  0  0  0  0  0  0  0  0  0
   -1.6518   -2.9996   -1.1512 C   0  0  0  0  0  0  0  0  0  0  0  0
   -1.9179   -3.6090    0.0750 C   0  0  0  0  0  0  0  0  0  0  0  0
   -4.2420    1.6082   -1.1349 C   0  0  0  0  0  0  0  0  0  0  0  0
   -4.1622    1.6634    1.2791 C   0  0  0  0  0  0  0  0  0  0  0  0
   -4.8962    1.7004    0.0935 C   0  0  0  0  0  0  0  0  0  0  0  0
    6.3374    0.6276    0.9322 C   0  0  0  0  0  0  0  0  0  0  0  0
  1 13  1  0
  1 22  1  0
  2  3  1  0
  2  4  1  0
  2  5  2  0
  3  7  2  0
  3  8  1  0
  4  9  2  0
  4 10  1  0
  5  6  1  0
  6 14  2  0
  6 15  1  0
  7 11  1  0
  8 12  2  0
  9 16  1  0
 10 17  2  0
 11 13  2  0
 12 13  1  0
 14 19  1  0
 15 20  2  0
 16 18  2  0
 17 18  1  0
 19 21  2  0
 20 21  1  0
M  END
>  <PUBCHEM_COMPOUND_CID>  (1) 
14691

>  <PUBCHEM_CONFORMER_RMSD>  (1) 
0.6

>  <PUBCHEM_CONFORMER_DIVERSEORDER>  (1) 
1
2
4
3
5
6

>  <PUBCHEM_MMFF94_PARTIAL_CHARGES>  (1) 
37
1 -0.36
10 -0.15
11 -0.15
12 -0.15
13 0.08
14 -0.15
15 -0.15
16 -0.15
17 -0.15
18 -0.15
19 -0.15
2 -0.06
20 -0.15
21 -0.15
22 0.28
23 0.15
24 0.15
25 0.15
26 0.15
27 0.15
28 0.15
29 0.15
3 0.03
30 0.15
31 0.15
32 0.15
33 0.15
34 0.15
35 0.15
36 0.15
37 0.15
4 0.03
5 -0.18
6 0.03
7 -0.15
8 -0.15
9 -0.15

>  <PUBCHEM_EFFECTIVE_ROTOR_COUNT>  (1) 
4

>  <PUBCHEM_PHARMACOPHORE_FEATURES>  (1) 
4
1 1 acceptor
6 3 7 8 11 12 13 rings
6 4 9 10 16 17 18 rings
6 6 14 15 19 20 21 rings

>  <PUBCHEM_HEAVY_ATOM_COUNT>  (1) 
22

>  <PUBCHEM_ATOM_DEF_STEREO_COUNT>  (1) 
0

>  <PUBCHEM_ATOM_UDEF_STEREO_COUNT>  (1) 
0

>  <PUBCHEM_BOND_DEF_STEREO_COUNT>  (1) 
0

>  <PUBCHEM_BOND_UDEF_STEREO_COUNT>  (1) 
1

>  <PUBCHEM_ISOTOPIC_ATOM_COUNT>  (1) 
0

>  <PUBCHEM_COMPONENT_COUNT>  (1) 
1

>  <PUBCHEM_CACTVS_TAUTO_COUNT>  (1) 
1

>  <PUBCHEM_CONFORMER_ID>  (1) 
0000396300000001

>  <PUBCHEM_MMFF94_ENERGY>  (1) 
86.3268

>  <PUBCHEM_FEATURE_SELFOVERLAP>  (1) 
20.297

>  <PUBCHEM_SHAPE_FINGERPRINT>  (1) 
10291535 26 17847061107773570424
10906281 52 17846511326496366120
11405975 8 18412259576044466200
11578080 2 17701258280939263057
121448 382 18413101754426841589
12293681 4 17989211434411643768
12597179 24 18272655614777618014
12643181 29 18342184315894189846
12714826 92 18127990791336530702
12788726 201 18046921638420292003
13052359 8 18335703870930620819
13140716 1 18338238288182674800
13149001 5 18200584912562884057
133893 2 17686911518518138219
13583140 156 16515399668677286101
13681431 1 17185872797130309023
15131766 46 15070340222741649430
15309172 13 18335707087829574397
16752209 62 18336256963580864851
17980427 23 17968940928811057676
18222031 100 8285900351407918161
200 152 13614235984245830564
20197701 30 18263361404412040015
204376 136 18335421219106341417
20554085 129 18128517298482052609
20600515 1 17104219146324757571
20602899 9 16056876944336908679
21033648 29 18190441819102547252
21424621 283 18059300846537650601
21524375 3 18337111159750992521
22182313 1 18056508142811196479
22224240 67 18411707561098957529
22956985 138 17680999483346439307
23227448 37 18189060943987362540
23402539 116 18131345285095947116
23419403 2 16771533243494147107
23557571 272 18201156675909904996
23558518 356 17825958297245221128
23559900 14 18272660026552445612
23598288 3 18265623271555344374
3729539 64 17834416530997539198
3759504 43 18334296457144143159
404807 14 15044727846613099230
474229 33 18335143081619757177
484985 159 17168141311979417027
53917941 68 18335967740472161245
559249 180 18335696131621196954
59755656 520 18341332206148622301
633830 44 17915185615717635165
6669772 16 18339362942137694606
81228 2 18192989537909222275

>  <PUBCHEM_SHAPE_MULTIPOLES>  (1) 
446.88
10.27
3.21
1.47
12.97
4.02
0.04
-7.49
-1.04
-4.72
-0.16
-0.18
0.08
0

>  <PUBCHEM_SHAPE_SELFOVERLAP>  (1) 
977.085

>  <PUBCHEM_SHAPE_VOLUME>  (1) 
243.5

>  <PUBCHEM_COORDINATE_TYPE>  (1) 
2
5
10

$$$$
