14696
     RDKit          3D

 23 25  0  0  1  0  0  0  0  0999 V2000
   -7.4863    1.6498    0.8174 F   0  0  0  0  0  0  0  0  0  0  0  0
   -2.2591   -0.4343   -1.9553 O   0  0  0  0  0  0  0  0  0  0  0  0
    1.5542   -0.8076    0.0989 N   0  0  0  0  0  0  0  0  0  0  0  0
    3.7560   -0.1110    0.4988 C   0  0  0  0  0  0  0  0  0  0  0  0
    3.5764   -1.5079    1.1407 C   0  0  0  0  0  0  0  0  0  0  0  0
    2.2972    0.3930    0.4843 C   0  0  0  0  0  0  0  0  0  0  0  0
    4.6469    0.7754    1.3914 C   0  0  0  0  0  0  0  0  0  0  0  0
    4.2755   -0.2594   -0.9591 C   0  0  0  0  0  0  0  0  0  0  0  0
    2.1139   -1.8947    0.9035 C   0  0  0  0  0  0  0  0  0  0  0  0
    5.1564    2.0571    0.7334 C   0  0  0  0  0  0  0  0  0  0  0  0
    5.7955   -0.3458   -1.1100 C   0  0  0  0  0  0  0  0  0  0  0  0
    6.4990    1.8590    0.0318 C   0  0  0  0  0  0  0  0  0  0  0  0
    6.4513    1.0280   -1.2459 C   0  0  0  0  0  0  0  0  0  0  0  0
    0.1176   -0.6610    0.2718 C   0  0  0  0  0  0  0  0  0  0  0  0
   -0.6001   -1.9423   -0.1575 C   0  0  0  0  0  0  0  0  0  0  0  0
   -2.1194   -1.8384    0.0027 C   0  0  0  0  0  0  0  0  0  0  0  0
   -2.7484   -0.7688   -0.8790 C   0  0  0  0  0  0  0  0  0  0  0  0
   -4.0135   -0.1231   -0.4259 C   0  0  0  0  0  0  0  0  0  0  0  0
   -4.8858   -0.8514    0.3514 C   0  0  0  0  0  0  0  0  0  0  0  0
   -4.2626    1.1781   -0.8017 C   0  0  0  0  0  0  0  0  0  0  0  0
   -6.0693   -0.2471    0.7753 C   0  0  0  0  0  0  0  0  0  0  0  0
   -5.4461    1.7825   -0.3778 C   0  0  0  0  0  0  0  0  0  0  0  0
   -6.3496    1.0699    0.4108 C   0  0  0  0  0  0  0  0  0  0  0  0
  1 23  1  0
  2 17  2  0
  3  6  1  0
  3  9  1  0
  3 14  1  0
  4  5  1  0
  4  6  1  0
  4  7  1  0
  4  8  1  0
  5  9  1  0
  7 10  1  0
  8 11  1  0
 10 12  1  0
 11 13  1  0
 12 13  1  0
 14 15  1  0
 15 16  1  0
 16 17  1  0
 17 18  1  0
 18 19  2  0
 18 20  1  0
 19 21  1  0
 20 22  2  0
 21 23  2  0
 22 23  1  0
M  END
>  <PUBCHEM_COMPOUND_CID>  (1) 
14696

>  <PUBCHEM_CONFORMER_RMSD>  (1) 
0.8

>  <PUBCHEM_CONFORMER_DIVERSEORDER>  (1) 
1
180
156
339
6
207
109
336
330
4
181
383
8
337
127
347
15
381
62
227
30
2
56
308
289
23
196
364
173
148
205
159
58
33
256
326
249
98
255
174
186
70
340
362
178
377
254
101
78
137
155
63
114
236
9
360
372
102
232
292
338
29
64
327
335
36
278
371
234
192
231
176
151
219
316
283
91
300
351
154
276
367
282
318
296
158
75
139
348
59
333
359
285
373
376
206
195
43
32
277
92
172
247
37
147
191
164
290
49
60
242
18
345
378
24
220
261
197
352
233
246
185
77
133
112
160
42
272
270
31
280
41
66
189
85
210
279
306
240
39
47
302
201
320
183
107
184
225
228
80
230
134
171
311
202
353
258
309
108
332
10
262
74
286
299
248
307
356
334
305
329
369
152
5
150
68
211
287
128
103
323
222
358
380
264
113
168
229
325
28
153
177
20
212
48
274
3
35
221
310
226
118
350
121
50
224
34
129
157
166
297
321
266
301
298
295
203
214
13
55
355
182
11
341
259
179
61
322
198
14
343
124
331
293
81
366
374
216
361
111
144
363
342
365
271
84
187
190
260
79
319
90
26
275
46
294
143
251
52
346
65
132
328
57
44
89
71
375
193
312
88
126
263
106
51
115
324
16
199
379
162
344
223
96
188
237
269
110
368
382
268
117
116
252
175
314
76
38
244
167
250
136
273
218
217
267
239
349
86
243
131
241
135
204
93
208
357
354
170
21
53
141
304
17
100
169
235
370
82
213
288
138
253
291
265
145
303
130
315
209
194
119
215
122
40
95
245
19
317
105
284
12
22
140
281
83
87
313
27
125
149
45
54
123
142
67
104
25
257
94
7
165
69
146
238
200
73
161
72
163
97
120
99

>  <PUBCHEM_MMFF94_PARTIAL_CHARGES>  (1) 
18
1 -0.19
14 0.27
16 0.06
17 0.42
18 0.09
19 -0.15
2 -0.57
20 -0.15
21 -0.15
22 -0.15
23 0.19
3 -0.81
48 0.15
49 0.15
50 0.15
51 0.15
6 0.27
9 0.27

>  <PUBCHEM_EFFECTIVE_ROTOR_COUNT>  (1) 
7

>  <PUBCHEM_PHARMACOPHORE_FEATURES>  (1) 
5
1 2 acceptor
1 3 cation
5 3 4 5 6 9 rings
6 18 19 20 21 22 23 rings
7 4 7 8 10 11 12 13 rings

>  <PUBCHEM_HEAVY_ATOM_COUNT>  (1) 
23

>  <PUBCHEM_ATOM_DEF_STEREO_COUNT>  (1) 
0

>  <PUBCHEM_ATOM_UDEF_STEREO_COUNT>  (1) 
0

>  <PUBCHEM_BOND_DEF_STEREO_COUNT>  (1) 
0

>  <PUBCHEM_BOND_UDEF_STEREO_COUNT>  (1) 
0

>  <PUBCHEM_ISOTOPIC_ATOM_COUNT>  (1) 
0

>  <PUBCHEM_COMPONENT_COUNT>  (1) 
1

>  <PUBCHEM_CACTVS_TAUTO_COUNT>  (1) 
2

>  <PUBCHEM_CONFORMER_ID>  (1) 
0000396800000001

>  <PUBCHEM_MMFF94_ENERGY>  (1) 
56.9538

>  <PUBCHEM_FEATURE_SELFOVERLAP>  (1) 
25.372

>  <PUBCHEM_SHAPE_FINGERPRINT>  (1) 
10 15 18040718052741426617
10066227 112 18060702805314124392
10378564 45 17775568646223279652
106641 1 17386014983669233043
10670039 82 17060347271088212097
10753850 27 8934995980377264205
11719270 70 8574715693473303744
11724838 91 16081374098127531430
11796584 16 15267060380812563022
11991303 11 16630518575118472455
12516196 113 12035451631869014383
12555020 224 12967127229175429685
12596602 18 16443342048948747121
12623949 98 12396839084101805160
12730499 353 18334580135882734226
12788726 201 17774724173141517393
13668630 136 10735878365597216541
13885169 86 18187652452396390428
13914758 101 11743849045144119155
14211702 104 8574429858972990081
14251740 57 11603087337631954248
14251752 14 14692577597986843803
14251757 52 18412827975488498641
14251764 18 18187083971136605563
14341114 176 17895478021136066279
14341114 328 16660363688161405459
14848160 23 8070029956302695695
14849402 71 17386580192148465500
14933364 13 18411141337451625613
15081414 286 18114175324823037852
15183329 4 15985108500382001853
15188451 53 8646775477996734870
15419008 91 9871188250559964162
15575132 122 18271806762211119633
15778101 99 18411138073345468227
17857418 61 11167949064971300436
18222031 100 11311781700392623378
190975 80 13984670277695668305
19377110 9 16008743623923614146
19958102 18 12679461963425251657
2026 5 8790886268581007065
20281389 69 18333729108912128209
20567600 234 11674885528646098190
20621476 66 18411984675786751741
21033648 29 18271236248761534066
21315763 87 12251901499344663692
21623969 137 12829481554543029896
22061861 79 12967127215947753001
2215653 11 14189577442301911446
22224240 67 17748828514772304931
22289505 5 17989205988930928800
23081809 10 18335972125629015039
23198884 109 15769775767212172865
23559900 14 12103548806272039887
25122255 55 9079116691354138993
29717793 49 12751241415391393346
3004659 81 11887952155160034906
3014063 24 8790886272010005433
312425 54 12108051246057163917
3663271 9 17749106677991269835
4340502 62 16008745819126702146
5104073 3 16661473022321261200
5385378 56 18040429976379240514
559249 180 9367352535684760899
5718773 13 9439135242814749844
59682541 52 15626226784158062196
59755656 215 11815905543448850964
6438161 24 8646480805134305561
960060 61 14836123290842934794
9689198 14 18342184362415474057

>  <PUBCHEM_SHAPE_MULTIPOLES>  (1) 
455.21
20.47
2.08
1.27
8.83
0.11
0.21
12.79
-0.71
-0.17
-0.32
-0.82
0.02
-0.23

>  <PUBCHEM_SHAPE_SELFOVERLAP>  (1) 
947.961

>  <PUBCHEM_SHAPE_VOLUME>  (1) 
260

>  <PUBCHEM_COORDINATE_TYPE>  (1) 
2
5
10

$$$$
