1469
     RDKit          3D

 26 26  0  0  1  0  0  0  0  0999 V2000
   -0.2913    2.0447   -1.6595 O   0  0  0  0  0  0  0  0  0  0  0  0
   -3.0974    2.1023   -0.5444 O   0  0  0  0  0  0  0  0  0  0  0  0
   -1.5412   -0.7974    3.8788 O   0  0  0  0  0  0  0  0  0  0  0  0
    2.5925    2.7312   -1.7332 C   0  0  0  0  0  0  0  0  0  0  0  0
    1.6060    3.1280   -0.6249 C   0  0  0  0  0  0  0  0  0  0  0  0
    3.3802    1.4302   -1.5441 C   0  0  0  0  0  0  0  0  0  0  0  0
    0.4231    2.1682   -0.4342 C   0  0  0  0  0  0  0  0  0  0  0  0
    4.1823    1.3814   -0.2397 C   0  0  0  0  0  0  0  0  0  0  0  0
   -0.1518   -2.7369   -1.0399 C   0  0  0  0  0  0  0  0  0  0  0  0
    0.8537   -2.3172    0.0341 C   0  0  0  0  0  0  0  0  0  0  0  0
   -0.5511    2.7180    0.6190 C   0  0  0  0  0  0  0  0  0  0  0  0
   -1.3067   -1.7378   -1.1422 C   0  0  0  0  0  0  0  0  0  0  0  0
    1.9951   -3.3317    0.1548 C   0  0  0  0  0  0  0  0  0  0  0  0
    5.0506    0.1247   -0.1058 C   0  0  0  0  0  0  0  0  0  0  0  0
   -2.3264   -2.1759   -2.1954 C   0  0  0  0  0  0  0  0  0  0  0  0
    3.0113   -2.9666    1.2445 C   0  0  0  0  0  0  0  0  0  0  0  0
   -1.4725    1.6485    1.1584 C   0  0  0  0  0  0  0  0  0  0  0  0
    4.2471   -1.1445   -0.0551 C   0  0  0  0  0  0  0  0  0  0  0  0
    3.8173   -1.7047    1.0858 C   0  0  0  0  0  0  0  0  0  0  0  0
   -3.5122   -1.2175   -2.3217 C   0  0  0  0  0  0  0  0  0  0  0  0
   -2.7007    1.3925    0.5487 C   0  0  0  0  0  0  0  0  0  0  0  0
   -1.0825    0.9126    2.2774 C   0  0  0  0  0  0  0  0  0  0  0  0
   -4.5169   -1.6387   -3.3834 C   0  0  0  0  0  0  0  0  0  0  0  0
   -1.9207   -0.0792    2.7867 C   0  0  0  0  0  0  0  0  0  0  0  0
   -3.5390    0.4007    1.0581 C   0  0  0  0  0  0  0  0  0  0  0  0
   -3.1490   -0.3350    2.1771 C   0  0  0  0  0  0  0  0  0  0  0  0
  1  7  1  0
  2 21  1  0
  3 24  1  0
  4  5  1  0
  4  6  1  0
  5  7  1  0
  6  8  1  0
  7 11  1  0
  8 14  1  0
  9 10  1  0
  9 12  1  0
 10 13  1  0
 11 17  1  0
 12 15  1  0
 13 16  1  0
 14 18  1  0
 15 20  1  0
 16 19  1  0
 17 21  2  0
 17 22  1  0
 18 19  2  0
 20 23  1  0
 21 25  1  0
 22 24  2  0
 24 26  1  0
 25 26  2  0
M  END
>  <PUBCHEM_COMPOUND_CID>  (1) 
1469

>  <PUBCHEM_CONFORMER_RMSD>  (1) 
1.6

>  <PUBCHEM_CONFORMER_DIVERSEORDER>  (1) 
1
39
21
71
92
35
78
31
144
105
133
73
75
70
89
28
141
32
76
34
103
74
121
27
43
138
109
20
24
135
142
67
56
37
108
2
110
36
148
50
111
85
86
134
3
22
88
9
15
113
19
63
131
107
93
38
123
149
143
23
82
6
40
10
69
60
132
65
99
55
127
25
146
114
97
126
17
139
137
102
98
59
42
52
58
41
91
45
106
53
79
54
129
101
13
57
33
118
44
119
11
49
130
30
7
122
104
136
72
46
48
120
66
12
80
140
94
112
61
100
81
68
96
124
115
4
29
87
64
147
83
95
5
125
84
8
145
14
77
62
18
16
117
51
128
47
90
116
26

>  <PUBCHEM_MMFF94_PARTIAL_CHARGES>  (1) 
23
1 -0.68
11 0.14
14 0.14
16 0.14
17 -0.14
18 -0.29
19 -0.29
2 -0.53
21 0.08
22 -0.15
24 0.08
25 -0.15
26 -0.15
3 -0.53
52 0.15
55 0.15
56 0.4
57 0.15
61 0.15
62 0.15
63 0.45
64 0.45
7 0.28

>  <PUBCHEM_EFFECTIVE_ROTOR_COUNT>  (1) 
15

>  <PUBCHEM_PHARMACOPHORE_FEATURES>  (1) 
8
1 1 acceptor
1 1 donor
1 2 donor
1 23 hydrophobe
1 3 donor
3 4 5 6 hydrophobe
3 8 14 18 hydrophobe
6 17 21 22 24 25 26 rings

>  <PUBCHEM_HEAVY_ATOM_COUNT>  (1) 
26

>  <PUBCHEM_ATOM_DEF_STEREO_COUNT>  (1) 
0

>  <PUBCHEM_ATOM_UDEF_STEREO_COUNT>  (1) 
1

>  <PUBCHEM_BOND_DEF_STEREO_COUNT>  (1) 
0

>  <PUBCHEM_BOND_UDEF_STEREO_COUNT>  (1) 
1

>  <PUBCHEM_ISOTOPIC_ATOM_COUNT>  (1) 
0

>  <PUBCHEM_COMPONENT_COUNT>  (1) 
1

>  <PUBCHEM_CACTVS_TAUTO_COUNT>  (1) 
13

>  <PUBCHEM_CONFORMER_ID>  (1) 
000005BD00000001

>  <PUBCHEM_MMFF94_ENERGY>  (1) 
25.2795

>  <PUBCHEM_FEATURE_SELFOVERLAP>  (1) 
40.597

>  <PUBCHEM_SHAPE_FINGERPRINT>  (1) 
10708813 3 18412821387345893574
12156800 1 16748113374727602314
12539773 59 17988091083227773090
12633257 1 17465677688845506520
13615921 28 16736619054876042602
13642711 20 16954487266565855677
14251757 17 16515955991253225671
14464042 87 18129933593601274878
14840074 17 18271538498115305617
15003188 3 16537107017623113928
21315764 21 17970328520157211452
21315764 371 17917698111614008594
23419403 2 17675929802754995815
23559900 14 17750814309686639524
3493558 16 14965317693307394600
35225 105 16599331108000822830
463206 1 18340769337789095145
469060 322 18194376958222159874
6287921 2 17270347295965586591

>  <PUBCHEM_SHAPE_MULTIPOLES>  (1) 
517.46
8.39
4.37
3.25
4.52
0.71
-1.05
1.97
2.57
1.72
1.38
-4.18
0.75
-4.17

>  <PUBCHEM_SHAPE_SELFOVERLAP>  (1) 
1008.162

>  <PUBCHEM_SHAPE_VOLUME>  (1) 
311.2

>  <PUBCHEM_COORDINATE_TYPE>  (1) 
2
5
10

$$$$
