14697
     RDKit          3D

 23 25  0  0  1  0  0  0  0  0999 V2000
   -4.8969   -0.7066   -0.2412 O   0  0  0  0  0  0  0  0  0  0  0  0
   -3.0180   -1.8047   -1.0161 O   0  0  0  0  0  0  0  0  0  0  0  0
   -1.2780   -0.1666    0.2241 C   0  0  0  0  0  0  0  0  0  0  0  0
   -0.3527    1.0971    0.2539 C   0  0  0  0  0  0  0  0  0  0  0  0
   -2.8009    0.1354    0.4196 C   0  0  0  0  0  0  0  0  0  0  0  0
   -0.8096    2.0585   -0.8886 C   0  0  0  0  0  0  0  0  0  0  0  0
   -0.7428   -1.2693    1.1497 C   0  0  0  0  0  0  0  0  0  0  0  0
   -3.1942    1.5137   -0.1603 C   0  0  0  0  0  0  0  0  0  0  0  0
   -2.2806    1.9408   -1.3010 C   0  0  0  0  0  0  0  0  0  0  0  0
    1.1271    0.6935    0.0723 C   0  0  0  0  0  0  0  0  0  0  0  0
    0.6254   -1.7416    0.6726 C   0  0  0  0  0  0  0  0  0  0  0  0
   -0.4080    1.8526    1.6069 C   0  0  0  0  0  0  0  0  0  0  0  0
    1.5677   -0.6250    0.3087 C   0  0  0  0  0  0  0  0  0  0  0  0
   -3.3101    0.0252    1.8667 C   0  0  0  0  0  0  0  0  0  0  0  0
   -3.5558   -0.9157   -0.3700 C   0  0  0  0  0  0  0  0  0  0  0  0
    2.0896    1.6632   -0.2797 C   0  0  0  0  0  0  0  0  0  0  0  0
    2.9287   -0.9451    0.1520 C   0  0  0  0  0  0  0  0  0  0  0  0
    3.8574    0.0275   -0.2088 C   0  0  0  0  0  0  0  0  0  0  0  0
    3.4379    1.3336   -0.4217 C   0  0  0  0  0  0  0  0  0  0  0  0
    5.2963   -0.3318   -0.3635 C   0  0  0  0  0  0  0  0  0  0  0  0
   -5.7336   -1.6331   -0.9410 C   0  0  0  0  0  0  0  0  0  0  0  0
    5.5293   -1.3624   -1.4846 C   0  0  0  0  0  0  0  0  0  0  0  0
    5.9215   -0.8392    0.9500 C   0  0  0  0  0  0  0  0  0  0  0  0
  1 15  1  0
  1 21  1  0
  2 15  2  0
  3  4  1  0
  3  5  1  0
  3  7  1  0
  4  6  1  0
  4 10  1  0
  4 12  1  0
  5  8  1  0
  5 14  1  0
  5 15  1  0
  6  9  1  0
  7 11  1  0
  8  9  1  0
 10 13  2  0
 10 16  1  0
 11 13  1  0
 13 17  1  0
 16 19  2  0
 17 18  2  0
 18 19  1  0
 18 20  1  0
 20 22  1  0
 20 23  1  0
M  END
>  <PUBCHEM_COMPOUND_CID>  (1) 
14697

>  <PUBCHEM_CONFORMER_RMSD>  (1) 
0.8

>  <PUBCHEM_CONFORMER_DIVERSEORDER>  (1) 
1
2
3

>  <PUBCHEM_MMFF94_PARTIAL_CHARGES>  (1) 
17
1 -0.43
10 -0.14
11 0.14
13 -0.14
15 0.66
16 -0.15
17 -0.15
18 -0.14
19 -0.15
2 -0.57
20 0.14
21 0.28
4 0.14
41 0.15
42 0.15
43 0.15
5 0.06

>  <PUBCHEM_EFFECTIVE_ROTOR_COUNT>  (1) 
4.2

>  <PUBCHEM_PHARMACOPHORE_FEATURES>  (1) 
5
1 2 acceptor
3 20 22 23 hydrophobe
6 10 13 16 17 18 19 rings
6 3 4 5 6 8 9 rings
6 3 4 7 10 11 13 rings

>  <PUBCHEM_HEAVY_ATOM_COUNT>  (1) 
23

>  <PUBCHEM_ATOM_DEF_STEREO_COUNT>  (1) 
3

>  <PUBCHEM_ATOM_UDEF_STEREO_COUNT>  (1) 
0

>  <PUBCHEM_BOND_DEF_STEREO_COUNT>  (1) 
0

>  <PUBCHEM_BOND_UDEF_STEREO_COUNT>  (1) 
0

>  <PUBCHEM_ISOTOPIC_ATOM_COUNT>  (1) 
0

>  <PUBCHEM_COMPONENT_COUNT>  (1) 
1

>  <PUBCHEM_CACTVS_TAUTO_COUNT>  (1) 
1

>  <PUBCHEM_CONFORMER_ID>  (1) 
0000396900000001

>  <PUBCHEM_MMFF94_ENERGY>  (1) 
80.9431

>  <PUBCHEM_FEATURE_SELFOVERLAP>  (1) 
25.41

>  <PUBCHEM_SHAPE_FINGERPRINT>  (1) 
10366900 7 17821730532980475688
11578080 2 18129077036000961673
12011746 2 18040713684374610071
12166972 35 16805890687959175503
12236239 1 18202286935298282427
12403259 226 18335414677855884004
12403259 415 18334859403167165704
12403260 363 18259701186238435892
13140716 1 18190192358827015402
13224815 77 18341889693098964960
13288520 33 18131353003267670351
13583140 156 15574716927791871536
13862211 1 18335136484365679666
14251751 93 18411695461374023558
14347332 77 18267021661736903902
15163728 17 14997103784661310119
15196674 1 18334858316323921700
15209289 33 18411423912029713066
15788980 27 18335424547684740808
15848702 151 18059866034353194286
16752209 62 18186513294204553730
16945 1 18041562545626196257
17349148 13 18335987493596422106
17357779 13 18113890602814173469
18222031 100 18410296896238345380
19784866 240 18201723976733827623
200 152 18343863312080838384
20028762 73 18273212019417521894
20871999 31 17895184481559512765
21267235 1 18410017654143845431
21637258 2 17131826595182655119
221357 26 18409164419924332461
22224240 67 10519990374823508903
22393880 68 18334566911071469652
23402539 116 18187079533923744420
23557571 272 18202848733857635510
23559900 14 18262237849821396816
25147074 1 17751064826269068329
2838139 119 13479401782494746327
2871803 45 18260821627109580293
3286 77 17846215608943475545
4098825 35 16516790482668119087
4325135 7 18342457088813140076
465052 167 17773879886399431335
5104073 3 18334580140014217312
59755656 215 18333729091933115567
9709674 26 18336553797782112374

>  <PUBCHEM_SHAPE_MULTIPOLES>  (1) 
461.59
11.48
2.16
1.33
6.9
0.48
0.22
-5.81
-2.95
-1.01
-0.37
-0.4
-0.01
-0.27

>  <PUBCHEM_SHAPE_SELFOVERLAP>  (1) 
977.747

>  <PUBCHEM_SHAPE_VOLUME>  (1) 
257.6

>  <PUBCHEM_COORDINATE_TYPE>  (1) 
2
5
10

$$$$
