14695
     RDKit          3D

 19 20  0  0  1  0  0  0  0  0999 V2000
   -5.8828    1.3190   -0.3884 O   0  0  0  0  0  0  0  0  0  0  0  0
   -5.1976    0.5471    1.6320 O   0  0  0  0  0  0  0  0  0  0  0  0
   -3.0990   -0.7949   -0.1544 C   0  0  0  0  0  0  0  0  0  0  0  0
   -2.3211    0.4494   -0.6096 C   0  0  0  0  0  0  0  0  0  0  0  0
   -4.6216   -0.7123   -0.3719 C   0  0  0  0  0  0  0  0  0  0  0  0
   -0.8273    0.3334   -0.4405 C   0  0  0  0  0  0  0  0  0  0  0  0
   -5.2969   -2.0121    0.0603 C   0  0  0  0  0  0  0  0  0  0  0  0
   -0.2427    0.7441    0.7480 C   0  0  0  0  0  0  0  0  0  0  0  0
   -0.0628   -0.1820   -1.4761 C   0  0  0  0  0  0  0  0  0  0  0  0
    1.9201    0.1199   -0.1295 C   0  0  0  0  0  0  0  0  0  0  0  0
   -5.2395    0.4320    0.4140 C   0  0  0  0  0  0  0  0  0  0  0  0
    1.1392    0.6367    0.9044 C   0  0  0  0  0  0  0  0  0  0  0  0
    1.3191   -0.2894   -1.3197 C   0  0  0  0  0  0  0  0  0  0  0  0
    3.3534    0.0086    0.0328 C   0  0  0  0  0  0  0  0  0  0  0  0
    4.1815    1.0668   -0.3415 C   0  0  0  0  0  0  0  0  0  0  0  0
    3.9074   -1.1567    0.5629 C   0  0  0  0  0  0  0  0  0  0  0  0
    5.5635    0.9597   -0.1858 C   0  0  0  0  0  0  0  0  0  0  0  0
    5.2895   -1.2637    0.7187 C   0  0  0  0  0  0  0  0  0  0  0  0
    6.1175   -0.2055    0.3445 C   0  0  0  0  0  0  0  0  0  0  0  0
  1 11  1  0
  2 11  2  0
  3  4  1  0
  3  5  1  0
  4  6  1  0
  5  7  1  0
  5 11  1  0
  6  8  2  0
  6  9  1  0
  8 12  1  0
  9 13  2  0
 10 12  2  0
 10 13  1  0
 10 14  1  0
 14 15  2  0
 14 16  1  0
 15 17  1  0
 16 18  2  0
 17 19  2  0
 18 19  1  0
M  END
>  <PUBCHEM_COMPOUND_CID>  (1) 
14695

>  <PUBCHEM_CONFORMER_RMSD>  (1) 
0.6

>  <PUBCHEM_CONFORMER_DIVERSEORDER>  (1) 
1
18
19
20
10
24
6
11
13
14
12
8
22
16
25
23
21
4
15
2
17
7
3
9
5

>  <PUBCHEM_MMFF94_PARTIAL_CHARGES>  (1) 
25
1 -0.65
11 0.66
12 -0.15
13 -0.15
15 -0.15
16 -0.15
17 -0.15
18 -0.15
19 -0.15
2 -0.57
28 0.15
29 0.15
30 0.15
31 0.15
32 0.15
33 0.15
34 0.5
35 0.15
36 0.15
37 0.15
4 0.14
5 0.06
6 -0.14
8 -0.15
9 -0.15

>  <PUBCHEM_EFFECTIVE_ROTOR_COUNT>  (1) 
5

>  <PUBCHEM_PHARMACOPHORE_FEATURES>  (1) 
6
1 1 acceptor
1 2 acceptor
1 7 hydrophobe
3 1 2 11 anion
6 14 15 16 17 18 19 rings
6 6 8 9 10 12 13 rings

>  <PUBCHEM_HEAVY_ATOM_COUNT>  (1) 
19

>  <PUBCHEM_ATOM_DEF_STEREO_COUNT>  (1) 
0

>  <PUBCHEM_ATOM_UDEF_STEREO_COUNT>  (1) 
1

>  <PUBCHEM_BOND_DEF_STEREO_COUNT>  (1) 
0

>  <PUBCHEM_BOND_UDEF_STEREO_COUNT>  (1) 
0

>  <PUBCHEM_ISOTOPIC_ATOM_COUNT>  (1) 
0

>  <PUBCHEM_COMPONENT_COUNT>  (1) 
1

>  <PUBCHEM_CACTVS_TAUTO_COUNT>  (1) 
1

>  <PUBCHEM_CONFORMER_ID>  (1) 
0000396700000001

>  <PUBCHEM_MMFF94_ENERGY>  (1) 
49.5432

>  <PUBCHEM_FEATURE_SELFOVERLAP>  (1) 
30.505

>  <PUBCHEM_SHAPE_FINGERPRINT>  (1) 
11089746 13 12751518479136049558
11287383 113 17967532389373902156
11315181 36 18272932752522602833
11796584 16 18409165502325253771
12091667 2 17385721400668057485
12107183 9 17616248087801871984
12236239 1 18342739633009658988
12403259 415 12540698154165359751
12507557 5 16988846099048917611
12596602 18 18341612637342954378
13533116 47 18334293133493876538
1420 363 16370445548812864544
14251764 18 18343867732245718755
14341114 176 18334016081637167732
14350574 20 14129066919600303077
15142383 8 18338509751395147356
15716309 27 18260550043653769747
15788980 27 17967253100635687623
1601671 61 17060342915785748872
17093844 174 18259697905131159697
17834072 33 18260265257046166844
17844677 252 18186240619320972781
18222031 100 14707208803839674222
19141452 34 17603588555648677874
19489759 90 16702019769144226803
200 152 17313100843543977372
20281389 69 18413669106600889545
20645477 70 18040991801151411322
21150785 3 12319445589708375021
21267235 1 18342741789674104798
220451 1 18334019392998813638
22182313 1 16701469944115561780
23035841 295 15502375612788963817
23081809 10 18341328971980219884
23402539 116 18333446547746587277
23522609 53 18193302812418396748
23536379 177 18260828189476866569
23559900 14 17531532095993701788
26918003 58 18273213097374353363
2838139 119 10952051156180044786
314173 85 16515399673029964231
4072396 5 17489583429364835822
4340502 62 18333445461478732874
4463277 17 17775283889485639536
465052 167 18272653476221235142
5104073 3 18201721807785854259
542803 24 18131633387037909580
7495541 125 18341891943545900368

>  <PUBCHEM_SHAPE_MULTIPOLES>  (1) 
379.27
15.98
1.32
1.11
4.99
0.38
-0.03
1.49
2.97
0.6
0.1
0.38
-0.05
-0.66

>  <PUBCHEM_SHAPE_SELFOVERLAP>  (1) 
802.25

>  <PUBCHEM_SHAPE_VOLUME>  (1) 
213.5

>  <PUBCHEM_COORDINATE_TYPE>  (1) 
2
5
10

$$$$
