14692
     RDKit          3D

 22 25  0  0  0  0  0  0  0  0999 V2000
    4.4405   -2.0177    0.0020 N   0  0  0  0  0  0  0  0  0  0  0  0
   -4.4382    2.0163    0.0020 N   0  0  0  0  0  0  0  0  0  0  0  0
    0.5479   -0.4158   -0.0023 N   0  0  0  0  0  0  0  0  0  0  0  0
   -0.5606    0.4232   -0.0023 N   0  0  0  0  0  0  0  0  0  0  0  0
    4.2245    0.2027   -0.0003 C   0  0  0  0  0  0  0  0  0  0  0  0
   -4.2215   -0.2041    0.0000 C   0  0  0  0  0  0  0  0  0  0  0  0
    5.1535   -0.8401    0.0014 C   0  0  0  0  0  0  0  0  0  0  0  0
   -5.1509    0.8384    0.0012 C   0  0  0  0  0  0  0  0  0  0  0  0
    2.9310   -0.3903   -0.0007 C   0  0  0  0  0  0  0  0  0  0  0  0
   -2.9437    0.3973    0.0000 C   0  0  0  0  0  0  0  0  0  0  0  0
    3.0966   -1.7562    0.0008 C   0  0  0  0  0  0  0  0  0  0  0  0
   -3.0943    1.7551    0.0011 C   0  0  0  0  0  0  0  0  0  0  0  0
    4.6956    1.5306   -0.0013 C   0  0  0  0  0  0  0  0  0  0  0  0
   -4.6923   -1.5322   -0.0009 C   0  0  0  0  0  0  0  0  0  0  0  0
    6.5355   -0.6203    0.0020 C   0  0  0  0  0  0  0  0  0  0  0  0
   -6.5329    0.6182    0.0015 C   0  0  0  0  0  0  0  0  0  0  0  0
    6.0754    1.7656   -0.0006 C   0  0  0  0  0  0  0  0  0  0  0  0
   -6.0720   -1.7676   -0.0007 C   0  0  0  0  0  0  0  0  0  0  0  0
    6.9794    0.7052    0.0011 C   0  0  0  0  0  0  0  0  0  0  0  0
   -6.9763   -0.7075    0.0006 C   0  0  0  0  0  0  0  0  0  0  0  0
    1.6550    0.2673   -0.0028 C   0  0  0  0  0  0  0  0  0  0  0  0
   -1.6521   -0.2680   -0.0018 C   0  0  0  0  0  0  0  0  0  0  0  0
  1  7  1  0
  1 11  1  0
  2  8  1  0
  2 12  1  0
  3  4  1  0
  3 21  2  0
  4 22  2  0
  5  7  2  0
  5  9  1  0
  5 13  1  0
  6  8  2  0
  6 10  1  0
  6 14  1  0
  7 15  1  0
  8 16  1  0
  9 11  2  0
  9 21  1  0
 10 12  2  0
 10 22  1  0
 13 17  2  0
 14 18  2  0
 15 19  2  0
 16 20  2  0
 17 19  1  0
 18 20  1  0
M  END
>  <PUBCHEM_COMPOUND_CID>  (1) 
14692

>  <PUBCHEM_CONFORMER_RMSD>  (1) 
0.6

>  <PUBCHEM_CONFORMER_DIVERSEORDER>  (1) 
1
10
11
5
4
9
8
6
3
7
2

>  <PUBCHEM_MMFF94_PARTIAL_CHARGES>  (1) 
34
1 0.03
10 -0.09
11 -0.3
12 -0.3
13 -0.15
14 -0.15
15 -0.15
16 -0.15
17 -0.15
18 -0.15
19 -0.15
2 0.03
20 -0.15
21 0.48
22 0.48
23 0.27
24 0.27
25 0.15
26 0.15
27 0.15
28 0.15
29 0.15
3 -0.45
30 0.15
31 0.15
32 0.15
33 0.15
34 0.15
35 0.06
36 0.06
4 -0.45
7 -0.15
8 -0.15
9 -0.09

>  <PUBCHEM_EFFECTIVE_ROTOR_COUNT>  (1) 
3

>  <PUBCHEM_PHARMACOPHORE_FEATURES>  (1) 
10
1 1 cation
1 1 donor
1 2 cation
1 2 donor
1 3 acceptor
1 4 acceptor
5 1 5 7 9 11 rings
5 2 6 8 10 12 rings
6 5 7 13 15 17 19 rings
6 6 8 14 16 18 20 rings

>  <PUBCHEM_HEAVY_ATOM_COUNT>  (1) 
22

>  <PUBCHEM_ATOM_DEF_STEREO_COUNT>  (1) 
0

>  <PUBCHEM_ATOM_UDEF_STEREO_COUNT>  (1) 
0

>  <PUBCHEM_BOND_DEF_STEREO_COUNT>  (1) 
0

>  <PUBCHEM_BOND_UDEF_STEREO_COUNT>  (1) 
2

>  <PUBCHEM_ISOTOPIC_ATOM_COUNT>  (1) 
0

>  <PUBCHEM_COMPONENT_COUNT>  (1) 
1

>  <PUBCHEM_CACTVS_TAUTO_COUNT>  (1) 
3

>  <PUBCHEM_CONFORMER_ID>  (1) 
0000396400000001

>  <PUBCHEM_MMFF94_ENERGY>  (1) 
37.4316

>  <PUBCHEM_FEATURE_SELFOVERLAP>  (1) 
52.4

>  <PUBCHEM_SHAPE_FINGERPRINT>  (1) 
10299344 5 18202284714742272027
10595046 47 18410573967992720120
10638233 991 15769774697396142832
10835480 77 18337948992149451245
10968037 39 18408884049550749631
11315181 36 18343866624307712897
11524674 6 16271927138660026055
11719270 70 18272647927340253582
11724838 91 18334573581746244604
12091667 2 17385444311195944669
12107183 9 17618221702372655832
12166972 35 18408325505606832068
12236239 1 18410573976561516572
12516196 113 18413107264268846216
12596602 18 18411138017441906105
13073987 5 18410575050313909689
13288520 33 18411418419700107367
14251718 22 18410573989462268827
14251732 16 18410575114727849999
14251764 18 18410855468718096412
14461889 52 18336825390097461746
14933364 13 18412546509069943936
15183329 4 18410575067483210178
15419008 145 18261941948593150632
15537594 2 16128370458770903471
15716309 27 18272088301332310071
15840311 113 17967817194185203028
16993427 108 16592224569926576458
16993438 75 18042695089959353187
17844677 252 18411989030862841600
18335252 98 18410578413795912283
19427546 62 18335142051060006986
21315763 28 18410292493591015770
22224240 67 17967530203789332690
22896161 15 18410575114991730511
23522609 53 17986137242982300545
23536379 177 18410575063188242664
23559900 14 18338228375735499609
239999 70 18272375218407566726
3004659 81 18408041789041522362
329604 57 18202847647146916784
3383291 50 17531538689074866867
34797466 226 17775011206338697412
3545911 37 18411699894028166400
3663271 9 18412827954102995419
4073 2 18041285451822407730
4214541 1 18410855430501390021
4325135 7 18410856581114626317
497634 4 18411700942216932261
5104073 3 18411136892155200315
67856867 119 18261960768485629509

>  <PUBCHEM_SHAPE_MULTIPOLES>  (1) 
432.83
22.55
1.89
0.6
0.07
0
0
0.01
-0.01
0
0
0
0
0

>  <PUBCHEM_SHAPE_SELFOVERLAP>  (1) 
973.016

>  <PUBCHEM_SHAPE_VOLUME>  (1) 
230.7

>  <PUBCHEM_COORDINATE_TYPE>  (1) 
2
5
10

$$$$
