14715
     RDKit          3D

 25 27  0  0  0  0  0  0  0  0999 V2000
   -6.2103   -1.9933    0.3242 O   0  0  0  0  0  0  0  0  0  0  0  0
    6.1324   -1.5658    0.9906 O   0  0  0  0  0  0  0  0  0  0  0  0
   -3.7561   -0.5525    0.3774 N   0  0  0  0  0  0  0  0  0  0  0  0
    3.6040   -1.1693   -0.2550 N   0  0  0  0  0  0  0  0  0  0  0  0
   -0.2612   -0.1241   -3.1467 N   0  0  0  0  0  0  0  0  0  0  0  0
   -0.0417    0.1451   -0.5188 C   0  0  0  0  0  0  0  0  0  0  0  0
   -1.3137   -0.5129    0.1197 C   0  0  0  0  0  0  0  0  0  0  0  0
    1.1992   -0.7027   -0.0713 C   0  0  0  0  0  0  0  0  0  0  0  0
   -2.6471    0.1423   -0.2729 C   0  0  0  0  0  0  0  0  0  0  0  0
    2.5231   -0.3203   -0.7516 C   0  0  0  0  0  0  0  0  0  0  0  0
    0.1045    1.6016   -0.0423 C   0  0  0  0  0  0  0  0  0  0  0  0
   -3.8131   -1.9578   -0.0485 C   0  0  0  0  0  0  0  0  0  0  0  0
   -5.0327    0.1142    0.0853 C   0  0  0  0  0  0  0  0  0  0  0  0
    4.8612   -0.8780   -0.9577 C   0  0  0  0  0  0  0  0  0  0  0  0
    3.7837   -0.9918    1.1927 C   0  0  0  0  0  0  0  0  0  0  0  0
   -0.1645    0.0037   -1.9968 C   0  0  0  0  0  0  0  0  0  0  0  0
   -4.9849   -2.6587    0.6329 C   0  0  0  0  0  0  0  0  0  0  0  0
   -6.1753   -0.6353    0.7646 C   0  0  0  0  0  0  0  0  0  0  0  0
    5.9759   -1.7673   -0.4145 C   0  0  0  0  0  0  0  0  0  0  0  0
    4.9244   -1.8775    1.6857 C   0  0  0  0  0  0  0  0  0  0  0  0
    0.1079    2.5965   -0.9865 C   0  0  0  0  0  0  0  0  0  0  0  0
    0.2240    1.8360    1.3037 C   0  0  0  0  0  0  0  0  0  0  0  0
    0.2401    3.9163   -0.5551 C   0  0  0  0  0  0  0  0  0  0  0  0
    0.3560    3.1559    1.7352 C   0  0  0  0  0  0  0  0  0  0  0  0
    0.3641    4.1960    0.8057 C   0  0  0  0  0  0  0  0  0  0  0  0
  1 17  1  0
  1 18  1  0
  2 19  1  0
  2 20  1  0
  3  9  1  0
  3 12  1  0
  3 13  1  0
  4 10  1  0
  4 14  1  0
  4 15  1  0
  5 16  3  0
  6  7  1  0
  6  8  1  0
  6 11  1  0
  6 16  1  0
  7  9  1  0
  8 10  1  0
 11 21  2  0
 11 22  1  0
 12 17  1  0
 13 18  1  0
 14 19  1  0
 15 20  1  0
 21 23  1  0
 22 24  2  0
 23 25  2  0
 24 25  1  0
M  END
>  <PUBCHEM_COMPOUND_CID>  (1) 
14715

>  <PUBCHEM_CONFORMER_RMSD>  (1) 
1

>  <PUBCHEM_CONFORMER_DIVERSEORDER>  (1) 
1
35
22
31
18
25
5
32
26
20
9
34
12
14
33
23
15
28
29
24
7
17
2
19
8
3
16
30
6
21
27
4
11
10
13

>  <PUBCHEM_MMFF94_PARTIAL_CHARGES>  (1) 
28
1 -0.56
10 0.27
11 -0.14
12 0.27
13 0.27
14 0.27
15 0.27
16 0.36
17 0.28
18 0.28
19 0.28
2 -0.56
20 0.28
21 -0.15
22 -0.15
23 -0.15
24 -0.15
25 -0.15
3 -0.81
4 -0.81
5 -0.56
50 0.15
51 0.15
52 0.15
53 0.15
54 0.15
6 0.34
9 0.27

>  <PUBCHEM_EFFECTIVE_ROTOR_COUNT>  (1) 
9.4

>  <PUBCHEM_PHARMACOPHORE_FEATURES>  (1) 
8
1 1 acceptor
1 2 acceptor
1 3 cation
1 4 cation
1 5 acceptor
6 1 3 12 13 17 18 rings
6 11 21 22 23 24 25 rings
6 2 4 14 15 19 20 rings

>  <PUBCHEM_HEAVY_ATOM_COUNT>  (1) 
25

>  <PUBCHEM_ATOM_DEF_STEREO_COUNT>  (1) 
0

>  <PUBCHEM_ATOM_UDEF_STEREO_COUNT>  (1) 
0

>  <PUBCHEM_BOND_DEF_STEREO_COUNT>  (1) 
0

>  <PUBCHEM_BOND_UDEF_STEREO_COUNT>  (1) 
0

>  <PUBCHEM_ISOTOPIC_ATOM_COUNT>  (1) 
0

>  <PUBCHEM_COMPONENT_COUNT>  (1) 
1

>  <PUBCHEM_CACTVS_TAUTO_COUNT>  (1) 
1

>  <PUBCHEM_CONFORMER_ID>  (1) 
0000397B00000001

>  <PUBCHEM_MMFF94_ENERGY>  (1) 
61.5391

>  <PUBCHEM_FEATURE_SELFOVERLAP>  (1) 
40.597

>  <PUBCHEM_SHAPE_FINGERPRINT>  (1) 
10074138 170 17981311296968024073
11265709 11 18410297990563741744
11405975 8 18269003145368002995
11963148 33 17332803254918438063
12166972 35 17967258602298896582
12422481 6 17489304174511781140
12516196 113 18411702092777407834
12788726 201 18262522472882242986
12895836 83 9222932773834223190
13134695 92 18202282550084523325
13257819 101 12679187055347626497
13955234 65 17977391860601565169
14068700 675 18187647977572762974
14251764 30 18260543428866271755
14466204 15 18340493279430893491
14955137 171 18202289129667946135
15131766 46 15911606217649927850
15163728 17 10159425374167756787
15927050 60 17693660724743063804
17492 89 18121501529966543107
17980427 23 17561374963269666889
17980427 26 17766272459219068932
18006028 8 18411981342923947502
1813 80 18413112761963914260
19784866 140 14779540176104307855
20600515 1 18270695159981191741
20832881 197 18260831514230018459
21033648 29 16988555763322956787
23352939 185 17458071443392846100
23557571 272 18129109913568637988
23559900 14 18188770699377951275
23845131 108 17263855680368010736
249999 5 18052537960878861841
283562 15 18263649463721510074
2838139 119 10735871755437235635
3004659 81 18041002838832415454
3380486 145 17487875879080088252
3411729 13 18056478585146997640
345986 75 18115295688147835834
4409770 3 18044648694952269853
44802255 64 9510879553616835160
469060 322 18267032665437530320
497634 4 17970068847315528070
5104073 3 18127427855033208459
5219985 9 18408887334435807562
6371380 46 18261105276036451763
77188 2 18410014355403727564
8863177 126 17970361523314278531
9841814 1 18198360613476912133
9962374 69 18198340853008564911

>  <PUBCHEM_SHAPE_MULTIPOLES>  (1) 
487.81
12.95
4.06
1.71
2.45
5.47
0.81
-16.55
-4.06
-0.05
-1.28
-1
0.23
-0.01

>  <PUBCHEM_SHAPE_SELFOVERLAP>  (1) 
1007.523

>  <PUBCHEM_SHAPE_VOLUME>  (1) 
275.7

>  <PUBCHEM_COORDINATE_TYPE>  (1) 
2
5
10

$$$$
