14711
     RDKit          3D

 24 26  0  0  1  0  0  0  0  0999 V2000
    0.2041    2.4474    0.7525 N   0  0  0  0  0  0  0  0  0  0  0  0
    4.9767   -0.0435   -0.0853 N   0  0  0  0  0  0  0  0  0  0  0  0
    2.1423    1.9037   -0.6501 C   0  0  0  0  0  0  0  0  0  0  0  0
    2.4033    0.5548    0.0742 C   0  0  0  0  0  0  0  0  0  0  0  0
    0.6643    2.3053   -0.6247 C   0  0  0  0  0  0  0  0  0  0  0  0
    1.5546   -0.5776   -0.4161 C   0  0  0  0  0  0  0  0  0  0  0  0
    0.6573   -1.2545    0.4259 C   0  0  0  0  0  0  0  0  0  0  0  0
   -1.2295    2.7407    0.7885 C   0  0  0  0  0  0  0  0  0  0  0  0
   -0.1167   -2.3168   -0.0987 C   0  0  0  0  0  0  0  0  0  0  0  0
    1.6872   -0.9431   -1.7561 C   0  0  0  0  0  0  0  0  0  0  0  0
    0.9553    3.4987    1.4401 C   0  0  0  0  0  0  0  0  0  0  0  0
   -2.0368    1.6792    0.0896 C   0  0  0  0  0  0  0  0  0  0  0  0
    0.5110   -0.9004    1.7771 C   0  0  0  0  0  0  0  0  0  0  0  0
    0.0292   -2.6708   -1.4500 C   0  0  0  0  0  0  0  0  0  0  0  0
    3.8500    0.2254   -0.0139 C   0  0  0  0  0  0  0  0  0  0  0  0
    0.9257   -1.9875   -2.2721 C   0  0  0  0  0  0  0  0  0  0  0  0
   -1.0141   -2.9937    0.7430 C   0  0  0  0  0  0  0  0  0  0  0  0
   -0.3853   -1.5840    2.5991 C   0  0  0  0  0  0  0  0  0  0  0  0
   -2.3043    1.8064   -1.2664 C   0  0  0  0  0  0  0  0  0  0  0  0
   -2.5018    0.5884    0.8109 C   0  0  0  0  0  0  0  0  0  0  0  0
   -1.1464   -2.6287    2.0831 C   0  0  0  0  0  0  0  0  0  0  0  0
   -3.0521    0.8230   -1.9141 C   0  0  0  0  0  0  0  0  0  0  0  0
   -3.2495   -0.3949    0.1631 C   0  0  0  0  0  0  0  0  0  0  0  0
   -3.5246   -0.2775   -1.1994 C   0  0  0  0  0  0  0  0  0  0  0  0
  1  5  1  0
  1  8  1  0
  1 11  1  0
  2 15  3  0
  3  4  1  0
  3  5  1  0
  4  6  1  0
  4 15  1  0
  6  7  1  0
  6 10  2  0
  7  9  2  0
  7 13  1  0
  8 12  1  0
  9 14  1  0
  9 17  1  0
 10 16  1  0
 12 19  2  0
 12 20  1  0
 13 18  2  0
 14 16  2  0
 17 21  2  0
 18 21  1  0
 19 22  1  0
 20 23  2  0
 22 24  2  0
 23 24  1  0
M  END
>  <PUBCHEM_COMPOUND_CID>  (1) 
14711

>  <PUBCHEM_CONFORMER_RMSD>  (1) 
0.8

>  <PUBCHEM_CONFORMER_DIVERSEORDER>  (1) 
1
22
19
91
64
136
133
70
96
32
115
65
89
25
16
75
38
33
13
134
114
72
117
18
35
130
86
122
2
112
81
88
49
48
102
24
3
41
87
43
109
82
11
103
17
128
28
21
93
50
123
23
44
69
10
31
110
108
92
131
107
6
137
83
84
106
90
54
4
71
97
61
118
113
77
132
9
26
29
104
47
67
68
119
39
7
73
111
95
129
58
80
63
66
135
94
27
100
14
45
5
99
76
46
79
36
127
20
57
52
126
124
74
15
8
51
53
37
40
59
34
85
78
12
98
62
55
60
121
30
101
105
42
125
120
116
56

>  <PUBCHEM_MMFF94_PARTIAL_CHARGES>  (1) 
33
1 -0.81
10 -0.15
11 0.27
12 -0.14
13 -0.15
14 -0.15
15 0.36
16 -0.15
17 -0.15
18 -0.15
19 -0.15
2 -0.56
20 -0.15
21 -0.15
22 -0.15
23 -0.15
24 -0.15
32 0.15
36 0.15
37 0.15
38 0.15
39 0.15
4 0.34
40 0.15
41 0.15
42 0.15
43 0.15
44 0.15
45 0.15
46 0.15
5 0.27
6 -0.14
8 0.41

>  <PUBCHEM_EFFECTIVE_ROTOR_COUNT>  (1) 
6

>  <PUBCHEM_PHARMACOPHORE_FEATURES>  (1) 
5
1 1 cation
1 2 acceptor
6 12 19 20 22 23 24 rings
6 6 7 9 10 14 16 rings
6 7 9 13 17 18 21 rings

>  <PUBCHEM_HEAVY_ATOM_COUNT>  (1) 
24

>  <PUBCHEM_ATOM_DEF_STEREO_COUNT>  (1) 
0

>  <PUBCHEM_ATOM_UDEF_STEREO_COUNT>  (1) 
1

>  <PUBCHEM_BOND_DEF_STEREO_COUNT>  (1) 
0

>  <PUBCHEM_BOND_UDEF_STEREO_COUNT>  (1) 
0

>  <PUBCHEM_ISOTOPIC_ATOM_COUNT>  (1) 
0

>  <PUBCHEM_COMPONENT_COUNT>  (1) 
1

>  <PUBCHEM_CACTVS_TAUTO_COUNT>  (1) 
1

>  <PUBCHEM_CONFORMER_ID>  (1) 
0000397700000001

>  <PUBCHEM_MMFF94_ENERGY>  (1) 
73.6076

>  <PUBCHEM_FEATURE_SELFOVERLAP>  (1) 
25.398

>  <PUBCHEM_SHAPE_FINGERPRINT>  (1) 
10119406 146 18193853548676799110
10675989 125 17254538414750499773
10863032 1 17023453158106938409
12422481 6 17619345854708090947
13140716 1 18122917678634085400
15881359 60 16826148352308704929
16945 1 18187096065057616286
17492 54 18267295628830869029
20905425 154 18120073018899598885
22907989 373 17980523106772386868
23419403 2 18050298255887747929
238 59 18194374845430332765
2748010 2 17835528497639660461
2803657 2 16892856220955661789
35225 105 17677601141548277703

>  <PUBCHEM_SHAPE_MULTIPOLES>  (1) 
483.95
5.04
3.98
2.18
2.24
0.74
0.22
1.4
-1.58
-0.39
1.1
-0.56
-1.15
0.96

>  <PUBCHEM_SHAPE_SELFOVERLAP>  (1) 
1044.6

>  <PUBCHEM_SHAPE_VOLUME>  (1) 
263.2

>  <PUBCHEM_COORDINATE_TYPE>  (1) 
2
5
10

$$$$
