14725
     RDKit          3D

 27 30  0  0  0  0  0  0  0  0999 V2000
   -2.1685   -0.8950    1.9854 O   0  0  0  0  0  0  0  0  0  0  0  0
    2.1701   -0.8272    1.9975 O   0  0  0  0  0  0  0  0  0  0  0  0
   -0.0284    1.6052   -1.3373 O   0  0  0  0  0  0  0  0  0  0  0  0
   -1.2169    0.5106    0.3495 N   0  0  0  0  0  0  0  0  0  0  0  0
    1.1848    0.5469    0.3551 N   0  0  0  0  0  0  0  0  0  0  0  0
    0.0293   -2.3350   -0.0187 C   0  0  0  0  0  0  0  0  0  0  0  0
    1.3336   -3.1422   -0.0669 C   0  0  0  0  0  0  0  0  0  0  0  0
   -1.1899   -3.2668   -0.0092 C   0  0  0  0  0  0  0  0  0  0  0  0
    0.0116   -1.4108    1.1975 C   0  0  0  0  0  0  0  0  0  0  0  0
    1.3525   -4.1130   -1.2454 C   0  0  0  0  0  0  0  0  0  0  0  0
   -1.1669   -4.2376   -1.1876 C   0  0  0  0  0  0  0  0  0  0  0  0
    0.1347   -5.0317   -1.2373 C   0  0  0  0  0  0  0  0  0  0  0  0
   -1.2484   -0.5867    1.2282 C   0  0  0  0  0  0  0  0  0  0  0  0
    1.2451   -0.5482    1.2349 C   0  0  0  0  0  0  0  0  0  0  0  0
   -0.0213    0.9733   -0.2740 C   0  0  0  0  0  0  0  0  0  0  0  0
   -2.4568    1.1912    0.0407 C   0  0  0  0  0  0  0  0  0  0  0  0
    2.4053    1.2638    0.0509 C   0  0  0  0  0  0  0  0  0  0  0  0
   -3.6514    0.4809    0.0498 C   0  0  0  0  0  0  0  0  0  0  0  0
    3.6203    0.5892    0.0658 C   0  0  0  0  0  0  0  0  0  0  0  0
   -2.4396    2.5479   -0.2609 C   0  0  0  0  0  0  0  0  0  0  0  0
    2.3490    2.6188   -0.2534 C   0  0  0  0  0  0  0  0  0  0  0  0
   -4.8461    1.1366   -0.2473 C   0  0  0  0  0  0  0  0  0  0  0  0
    4.7964    1.2796   -0.2276 C   0  0  0  0  0  0  0  0  0  0  0  0
   -3.6345    3.2036   -0.5579 C   0  0  0  0  0  0  0  0  0  0  0  0
    3.5251    3.3091   -0.5468 C   0  0  0  0  0  0  0  0  0  0  0  0
   -4.8377    2.4978   -0.5510 C   0  0  0  0  0  0  0  0  0  0  0  0
    4.7488    2.6395   -0.5339 C   0  0  0  0  0  0  0  0  0  0  0  0
  1 13  2  0
  2 14  2  0
  3 15  2  0
  4 13  1  0
  4 15  1  0
  4 16  1  0
  5 14  1  0
  5 15  1  0
  5 17  1  0
  6  7  1  0
  6  8  1  0
  6  9  1  0
  7 10  1  0
  8 11  1  0
  9 13  1  0
  9 14  1  0
 10 12  1  0
 11 12  1  0
 16 18  2  0
 16 20  1  0
 17 19  2  0
 17 21  1  0
 18 22  1  0
 19 23  1  0
 20 24  2  0
 21 25  2  0
 22 26  2  0
 23 27  2  0
 24 26  1  0
 25 27  1  0
M  END
>  <PUBCHEM_COMPOUND_CID>  (1) 
14725

>  <PUBCHEM_CONFORMER_RMSD>  (1) 
0.8

>  <PUBCHEM_CONFORMER_DIVERSEORDER>  (1) 
1
4
9
8
2
7
5
6
3

>  <PUBCHEM_MMFF94_PARTIAL_CHARGES>  (1) 
31
1 -0.57
13 0.57
14 0.57
15 0.69
16 0.12
17 0.12
18 -0.15
19 -0.15
2 -0.57
20 -0.15
21 -0.15
22 -0.15
23 -0.15
24 -0.15
25 -0.15
26 -0.15
27 -0.15
3 -0.57
4 -0.24
40 0.15
41 0.15
42 0.15
43 0.15
44 0.15
45 0.15
46 0.15
47 0.15
48 0.15
49 0.15
5 -0.24
9 0.12

>  <PUBCHEM_EFFECTIVE_ROTOR_COUNT>  (1) 
4.8

>  <PUBCHEM_PHARMACOPHORE_FEATURES>  (1) 
8
1 1 acceptor
1 2 acceptor
1 3 acceptor
1 9 anion
6 16 18 20 22 24 26 rings
6 17 19 21 23 25 27 rings
6 4 5 9 13 14 15 rings
6 6 7 8 10 11 12 rings

>  <PUBCHEM_HEAVY_ATOM_COUNT>  (1) 
27

>  <PUBCHEM_ATOM_DEF_STEREO_COUNT>  (1) 
0

>  <PUBCHEM_ATOM_UDEF_STEREO_COUNT>  (1) 
0

>  <PUBCHEM_BOND_DEF_STEREO_COUNT>  (1) 
0

>  <PUBCHEM_BOND_UDEF_STEREO_COUNT>  (1) 
0

>  <PUBCHEM_ISOTOPIC_ATOM_COUNT>  (1) 
0

>  <PUBCHEM_COMPONENT_COUNT>  (1) 
1

>  <PUBCHEM_CACTVS_TAUTO_COUNT>  (1) 
1

>  <PUBCHEM_CONFORMER_ID>  (1) 
0000398500000001

>  <PUBCHEM_MMFF94_ENERGY>  (1) 
97.8684

>  <PUBCHEM_FEATURE_SELFOVERLAP>  (1) 
40.598

>  <PUBCHEM_SHAPE_FINGERPRINT>  (1) 
10871710 139 17903079176451263138
10930396 42 15319122616665304881
11045515 52 17330836236551308858
11115154 58 17330539356065718991
11297750 10 17685544984427057211
12035759 4 17975114745923608722
12160290 23 17828174899559225225
12788726 201 17831568039787409082
13004483 165 17620186976729295646
133893 2 17699586757045518795
13590594 115 16970563109969591953
13690498 29 17762366964717165532
13692114 37 18268690853314952487
138480 1 17762619486417077838
14508225 48 17260747872143984974
14955137 171 16898237244064073417
15131766 46 14781251171132520748
15403338 16 17025707054551038898
15420108 30 18336247012437084680
15664445 248 17761209916953260539
15705408 1 18051695442845118940
15775530 1 17973194805532457507
15878777 1 16020569644385022842
16087824 20 17977948209697057063
17539 30 17837486719300778862
18681886 176 18337941308410670072
19930381 70 17979359655618354350
20602899 9 18202290233337391339
20775438 99 17050733403418577965
21033648 29 18342453802562551768
21285901 2 17483697945316652406
21307412 95 18057634030887510174
21857420 4 16965466882201201812
22182313 1 17971218991864285683
23419403 2 17541147157152613706
23558518 356 17901381518009110260
23559900 14 17836071287522964137
23929065 36 17693073572744661432
25222932 49 15835860797050811613
255183 313 17981910823342563619
26353 1 17045693310461957822
3298306 158 18337402547633645974
376196 1 18041829632805895673
38695281 34 18411698759834975636
4017518 198 18201715112592067054
4280585 95 17474101004007564275
46194498 28 18048874105431745909
532947 4 18268720398506083110
6287921 2 18197205950316603999
6443956 14 17833270818004963940
6608658 132 16966625235145313636
6669772 16 18272095963506539510
7164475 11 17834111232021262260
7364860 26 18193555554300708661
9709674 26 18191585247281627553
9981440 41 18410293609987692377

>  <PUBCHEM_SHAPE_MULTIPOLES>  (1) 
528.08
7.86
6.34
1.29
0.67
8.02
0.41
-11.18
-1.32
-0.52
-3.42
-0.02
0.79
0.1

>  <PUBCHEM_SHAPE_SELFOVERLAP>  (1) 
1152.95

>  <PUBCHEM_SHAPE_VOLUME>  (1) 
280.8

>  <PUBCHEM_COORDINATE_TYPE>  (1) 
2
5
10

$$$$
