14728
     RDKit          3D

 27 29  0  0  0  0  0  0  0  0999 V2000
   -4.2853    3.2018   -1.2424 Cl  0  0  0  0  0  0  0  0  0  0  0  0
    2.3671    0.2867    2.3299 O   0  0  0  0  0  0  0  0  0  0  0  0
    3.4486   -0.6967   -0.7222 N   0  0  0  0  0  0  0  0  0  0  0  0
    1.0684    1.4470    0.7817 N   0  0  0  0  0  0  0  0  0  0  0  0
   -0.6732   -0.6704    2.0876 N   0  0  0  0  0  0  0  0  0  0  0  0
    2.3108    1.4157   -1.3428 C   0  0  0  0  0  0  0  0  0  0  0  0
    2.3258   -0.1127   -1.4459 C   0  0  0  0  0  0  0  0  0  0  0  0
    2.2499    1.9563    0.0855 C   0  0  0  0  0  0  0  0  0  0  0  0
   -0.2257    1.8123    0.2726 C   0  0  0  0  0  0  0  0  0  0  0  0
    4.7193   -0.2043   -1.2574 C   0  0  0  0  0  0  0  0  0  0  0  0
    3.4018   -2.1585   -0.7901 C   0  0  0  0  0  0  0  0  0  0  0  0
   -1.3698    1.0013    0.4229 C   0  0  0  0  0  0  0  0  0  0  0  0
    1.2664    0.6834    1.9379 C   0  0  0  0  0  0  0  0  0  0  0  0
   -1.3104   -0.3721    1.0060 C   0  0  0  0  0  0  0  0  0  0  0  0
    0.0388    0.3931    2.7642 C   0  0  0  0  0  0  0  0  0  0  0  0
   -0.3758    3.0279   -0.4240 C   0  0  0  0  0  0  0  0  0  0  0  0
    5.8965   -0.7536   -0.4695 C   0  0  0  0  0  0  0  0  0  0  0  0
    2.0903   -2.6919   -0.2393 C   0  0  0  0  0  0  0  0  0  0  0  0
   -2.6226    1.4422   -0.0412 C   0  0  0  0  0  0  0  0  0  0  0  0
   -2.0098   -1.4855    0.3018 C   0  0  0  0  0  0  0  0  0  0  0  0
   -1.6199    3.4499   -0.8996 C   0  0  0  0  0  0  0  0  0  0  0  0
   -2.7451    2.6630   -0.6974 C   0  0  0  0  0  0  0  0  0  0  0  0
   -2.1495   -1.4434   -1.0800 C   0  0  0  0  0  0  0  0  0  0  0  0
   -2.5136   -2.5528    1.0351 C   0  0  0  0  0  0  0  0  0  0  0  0
   -2.8033   -2.4846   -1.7388 C   0  0  0  0  0  0  0  0  0  0  0  0
   -3.1674   -3.5941    0.3762 C   0  0  0  0  0  0  0  0  0  0  0  0
   -3.3123   -3.5599   -1.0108 C   0  0  0  0  0  0  0  0  0  0  0  0
  1 22  1  0
  2 13  2  0
  3  7  1  0
  3 10  1  0
  3 11  1  0
  4  8  1  0
  4  9  1  0
  4 13  1  0
  5 14  2  0
  5 15  1  0
  6  7  1  0
  6  8  1  0
  9 12  2  0
  9 16  1  0
 10 17  1  0
 11 18  1  0
 12 14  1  0
 12 19  1  0
 13 15  1  0
 14 20  1  0
 16 21  2  0
 19 22  2  0
 20 23  2  0
 20 24  1  0
 21 22  1  0
 23 25  1  0
 24 26  2  0
 25 27  2  0
 26 27  1  0
M  END
>  <PUBCHEM_COMPOUND_CID>  (1) 
14728

>  <PUBCHEM_CONFORMER_RMSD>  (1) 
0.8

>  <PUBCHEM_CONFORMER_DIVERSEORDER>  (1) 
1
52
10
39
49
23
29
43
17
47
37
36
55
33
28
51
6
4
45
56
22
53
2
41
42
50
15
5
34
40
21
11
16
59
48
54
24
30
25
27
14
46
12
9
7
58
57
8
20
44
31
18
19
3
38
26
32
13
35

>  <PUBCHEM_MMFF94_PARTIAL_CHARGES>  (1) 
32
1 -0.18
10 0.27
11 0.27
12 0.09
13 0.57
14 0.28
15 0.31
16 -0.15
19 -0.15
2 -0.57
20 0.09
21 -0.15
22 0.18
23 -0.15
24 -0.15
25 -0.15
26 -0.15
27 -0.15
3 -0.81
4 -0.48
40 0.15
47 0.15
48 0.15
49 0.15
5 -0.7
50 0.15
51 0.15
52 0.15
53 0.15
7 0.27
8 0.3
9 0.12

>  <PUBCHEM_EFFECTIVE_ROTOR_COUNT>  (1) 
7.4

>  <PUBCHEM_PHARMACOPHORE_FEATURES>  (1) 
6
1 2 acceptor
1 3 cation
1 5 acceptor
6 20 23 24 25 26 27 rings
6 9 12 16 19 21 22 rings
7 4 5 9 12 13 14 15 rings

>  <PUBCHEM_HEAVY_ATOM_COUNT>  (1) 
27

>  <PUBCHEM_ATOM_DEF_STEREO_COUNT>  (1) 
0

>  <PUBCHEM_ATOM_UDEF_STEREO_COUNT>  (1) 
0

>  <PUBCHEM_BOND_DEF_STEREO_COUNT>  (1) 
0

>  <PUBCHEM_BOND_UDEF_STEREO_COUNT>  (1) 
0

>  <PUBCHEM_ISOTOPIC_ATOM_COUNT>  (1) 
0

>  <PUBCHEM_COMPONENT_COUNT>  (1) 
1

>  <PUBCHEM_CACTVS_TAUTO_COUNT>  (1) 
1

>  <PUBCHEM_CONFORMER_ID>  (1) 
0000398800000001

>  <PUBCHEM_MMFF94_ENERGY>  (1) 
89.1292

>  <PUBCHEM_FEATURE_SELFOVERLAP>  (1) 
30.458

>  <PUBCHEM_SHAPE_FINGERPRINT>  (1) 
10764073 3 17179738750486660465
11370993 70 18048318838773689206
11578080 2 17845934142646585137
12156800 1 18051659257867370890
12202030 40 17846215617480662592
12788726 201 18260824891332503435
13149001 5 17844510141986345859
15664445 248 17904760338620747529
1813 80 18051130590711996107
18981168 100 12685085930561312274
19930381 70 17687475971520566055
20602899 9 18198626523540258209
20691752 17 18124598836313969258
20775530 9 18130516339428520678
22393880 68 18338246990202570182
23419403 2 17417799695321347576
23557571 272 18269535273570842249
38695281 34 17903076638405660077
463206 1 18195540413238733462
6669772 16 17624657247167784731
70251023 43 18047197628775954811

>  <PUBCHEM_SHAPE_MULTIPOLES>  (1) 
536.7
7.86
4.81
2.01
8.67
0.89
-1.23
2.44
3.92
-6.39
1.74
0.25
0.08
0.9

>  <PUBCHEM_SHAPE_SELFOVERLAP>  (1) 
1128.285

>  <PUBCHEM_SHAPE_VOLUME>  (1) 
302.5

>  <PUBCHEM_COORDINATE_TYPE>  (1) 
2
5
10

$$$$
