14734
     RDKit          3D

 29 32  0  0  0  0  0  0  0  0999 V2000
    6.0059    1.3630   -0.8502 O   0  0  0  0  0  0  0  0  0  0  0  0
    1.3348   -5.3432   -0.2172 O   0  0  0  0  0  0  0  0  0  0  0  0
    3.4111    1.6677    0.2795 N   0  0  0  0  0  0  0  0  0  0  0  0
   -0.0186   -2.8420   -0.0982 N   0  0  0  0  0  0  0  0  0  0  0  0
   -0.6494    2.0378    3.0713 N   0  0  0  0  0  0  0  0  0  0  0  0
   -0.3858    0.9479    0.6694 C   0  0  0  0  0  0  0  0  0  0  0  0
    0.9719    1.4618    0.0768 C   0  0  0  0  0  0  0  0  0  0  0  0
   -0.2498   -0.6001    0.8788 C   0  0  0  0  0  0  0  0  0  0  0  0
    2.2109    1.1444    0.9287 C   0  0  0  0  0  0  0  0  0  0  0  0
   -0.1460   -1.4213   -0.4160 C   0  0  0  0  0  0  0  0  0  0  0  0
   -1.5437    1.2583   -0.2964 C   0  0  0  0  0  0  0  0  0  0  0  0
    4.5958    1.4525    1.1219 C   0  0  0  0  0  0  0  0  0  0  0  0
    3.6081    1.0420   -1.0355 C   0  0  0  0  0  0  0  0  0  0  0  0
    1.1996   -3.0945    0.6841 C   0  0  0  0  0  0  0  0  0  0  0  0
   -0.0065   -3.6519   -1.3243 C   0  0  0  0  0  0  0  0  0  0  0  0
   -2.8375    0.8812    0.0134 C   0  0  0  0  0  0  0  0  0  0  0  0
   -0.5426    1.5646    2.0165 C   0  0  0  0  0  0  0  0  0  0  0  0
   -1.1970    1.9190   -1.4532 C   0  0  0  0  0  0  0  0  0  0  0  0
    5.8365    1.9959    0.4188 C   0  0  0  0  0  0  0  0  0  0  0  0
    4.8725    1.5939   -1.6878 C   0  0  0  0  0  0  0  0  0  0  0  0
    1.3178   -4.5844    0.9926 C   0  0  0  0  0  0  0  0  0  0  0  0
    0.1392   -5.1285   -0.9678 C   0  0  0  0  0  0  0  0  0  0  0  0
   -3.8572    1.1959   -0.9162 C   0  0  0  0  0  0  0  0  0  0  0  0
   -2.1998    2.2288   -2.3670 C   0  0  0  0  0  0  0  0  0  0  0  0
   -3.1731    0.2071    1.1989 C   0  0  0  0  0  0  0  0  0  0  0  0
   -3.5218    1.8701   -2.1017 C   0  0  0  0  0  0  0  0  0  0  0  0
   -5.1824    0.8274   -0.6329 C   0  0  0  0  0  0  0  0  0  0  0  0
   -4.4950   -0.1516    1.4639 C   0  0  0  0  0  0  0  0  0  0  0  0
   -5.4979    0.1578    0.5497 C   0  0  0  0  0  0  0  0  0  0  0  0
  1 19  1  0
  1 20  1  0
  2 21  1  0
  2 22  1  0
  3  9  1  0
  3 12  1  0
  3 13  1  0
  4 10  1  0
  4 14  1  0
  4 15  1  0
  5 17  3  0
  6  7  1  0
  6  8  1  0
  6 11  1  0
  6 17  1  0
  7  9  1  0
  8 10  1  0
 11 16  1  0
 11 18  2  0
 12 19  1  0
 13 20  1  0
 14 21  1  0
 15 22  1  0
 16 23  2  0
 16 25  1  0
 18 24  1  0
 23 26  1  0
 23 27  1  0
 24 26  2  0
 25 28  2  0
 27 29  2  0
 28 29  1  0
M  END
>  <PUBCHEM_COMPOUND_CID>  (1) 
14734

>  <PUBCHEM_CONFORMER_RMSD>  (1) 
1

>  <PUBCHEM_CONFORMER_DIVERSEORDER>  (1) 
1
37
25
38
27
4
24
35
43
10
16
5
32
3
19
9
13
33
39
40
14
44
34
29
36
15
28
20
18
22
31
21
2
6
12
41
26
23
7
42
11
17
30
8

>  <PUBCHEM_MMFF94_PARTIAL_CHARGES>  (1) 
32
1 -0.56
10 0.27
11 -0.14
12 0.27
13 0.27
14 0.27
15 0.27
17 0.36
18 -0.15
19 0.28
2 -0.56
20 0.28
21 0.28
22 0.28
24 -0.15
25 -0.15
26 -0.15
27 -0.15
28 -0.15
29 -0.15
3 -0.81
4 -0.81
46 0.15
5 -0.56
55 0.15
56 0.15
57 0.15
58 0.15
59 0.15
6 0.34
60 0.15
9 0.27

>  <PUBCHEM_EFFECTIVE_ROTOR_COUNT>  (1) 
9.4

>  <PUBCHEM_PHARMACOPHORE_FEATURES>  (1) 
9
1 1 acceptor
1 2 acceptor
1 3 cation
1 4 cation
1 5 acceptor
6 1 3 12 13 19 20 rings
6 11 16 18 23 24 26 rings
6 16 23 25 27 28 29 rings
6 2 4 14 15 21 22 rings

>  <PUBCHEM_HEAVY_ATOM_COUNT>  (1) 
29

>  <PUBCHEM_ATOM_DEF_STEREO_COUNT>  (1) 
0

>  <PUBCHEM_ATOM_UDEF_STEREO_COUNT>  (1) 
0

>  <PUBCHEM_BOND_DEF_STEREO_COUNT>  (1) 
0

>  <PUBCHEM_BOND_UDEF_STEREO_COUNT>  (1) 
0

>  <PUBCHEM_ISOTOPIC_ATOM_COUNT>  (1) 
0

>  <PUBCHEM_COMPONENT_COUNT>  (1) 
1

>  <PUBCHEM_CACTVS_TAUTO_COUNT>  (1) 
1

>  <PUBCHEM_CONFORMER_ID>  (1) 
0000398E00000001

>  <PUBCHEM_MMFF94_ENERGY>  (1) 
94.2457

>  <PUBCHEM_FEATURE_SELFOVERLAP>  (1) 
45.699

>  <PUBCHEM_SHAPE_FINGERPRINT>  (1) 
10165383 225 18411701010989046137
102385 1 17977669701783047177
10815517 723 17908992346139719071
10906281 52 17749393633763734829
11488393 25 18191305979121814635
11524674 6 18341896332912643530
11578080 2 18119824512561915885
11763715 3 16770389480348704811
11991303 11 18263656224221781598
12058002 1 17556340372113691709
12977781 61 17313686857403558547
13149001 5 17915164952487718488
13383661 66 17483375797379561279
133893 2 18049172064054919912
13540713 4 17824544063858208533
13911987 19 18411135857068776341
14028597 1 17917997126815299881
140371 6 17475221410529253592
14866123 147 18125157384095029058
15463212 79 18043236037311170088
17980427 23 13334732384997605869
18915476 22 18337947871072893653
19958102 18 18338793528816980150
20602899 9 18340774818405092320
21033648 29 18340187683422989800
2260408 40 18046381620235969601
23559900 14 17755853126541476227
255183 313 18265892643203236994
3298306 158 18334853892517850926
3383291 50 18272376322441190190
3729539 64 18269569247505724782
44802255 64 18114474456694989604
46194498 28 17901925475811951533
5265222 85 18264779937447035860
550186 7 17603586339339875945
57527306 92 16342883043469128491
58260988 521 18190480400687460787
5951187 136 16379683452589729221
59755656 520 18343584079330296556
6669772 16 18342459227707120094
6679774 75 18187915154731077258
9925002 15 17540257970178895637

>  <PUBCHEM_SHAPE_MULTIPOLES>  (1) 
570.12
10.3
5.62
2.08
5.81
13.72
-0.27
-9.77
1.13
4.14
1.41
-0.83
-1.31
0.67

>  <PUBCHEM_SHAPE_SELFOVERLAP>  (1) 
1211.411

>  <PUBCHEM_SHAPE_VOLUME>  (1) 
314.5

>  <PUBCHEM_COORDINATE_TYPE>  (1) 
2
5
10

$$$$
