14749
     RDKit          3D

 35 38  0  0  1  0  0  0  0  0999 V2000
   -3.6135    1.0376    0.6165 O   0  0  0  0  0  0  0  0  0  0  0  0
   -3.1241    0.4580   -2.2813 O   0  0  0  0  0  0  0  0  0  0  0  0
   -6.2870   -0.1954   -2.2975 O   0  0  0  0  0  0  0  0  0  0  0  0
   -7.1523    1.5451   -0.1789 O   0  0  0  0  0  0  0  0  0  0  0  0
   -4.3459    1.8581    3.1043 O   0  0  0  0  0  0  0  0  0  0  0  0
   -1.3213    1.5230   -0.1599 O   0  0  0  0  0  0  0  0  0  0  0  0
   -2.7653   -2.9797    0.3066 O   0  0  0  0  0  0  0  0  0  0  0  0
   -0.2001   -3.8526    0.4078 O   0  0  0  0  0  0  0  0  0  0  0  0
    1.1771    1.9481   -0.1928 O   0  0  0  0  0  0  0  0  0  0  0  0
    2.2983   -3.2477    0.3519 O   0  0  0  0  0  0  0  0  0  0  0  0
    6.7738   -1.0322    0.1309 O   0  0  0  0  0  0  0  0  0  0  0  0
    6.7021    1.9241   -1.4456 O   0  0  0  0  0  0  0  0  0  0  0  0
    6.8443    2.2898    0.7932 O   0  0  0  0  0  0  0  0  0  0  0  0
   -4.0393   -0.2196   -1.4134 C   0  0  0  0  0  0  0  0  0  0  0  0
   -3.4709   -0.2528    0.0182 C   0  0  0  0  0  0  0  0  0  0  0  0
   -5.3750    0.5388   -1.4794 C   0  0  0  0  0  0  0  0  0  0  0  0
   -5.9800    0.7379   -0.0915 C   0  0  0  0  0  0  0  0  0  0  0  0
   -4.9727    1.4320    0.8398 C   0  0  0  0  0  0  0  0  0  0  0  0
   -2.0293   -0.7190    0.0728 C   0  0  0  0  0  0  0  0  0  0  0  0
   -5.3164    1.2033    2.3092 C   0  0  0  0  0  0  0  0  0  0  0  0
   -0.9892    0.2062   -0.0202 C   0  0  0  0  0  0  0  0  0  0  0  0
   -1.7468   -2.0760    0.2160 C   0  0  0  0  0  0  0  0  0  0  0  0
    0.3406   -0.2286    0.0303 C   0  0  0  0  0  0  0  0  0  0  0  0
    0.6237   -1.5886    0.1738 C   0  0  0  0  0  0  0  0  0  0  0  0
   -0.4231   -2.5136    0.2667 C   0  0  0  0  0  0  0  0  0  0  0  0
    1.4354    0.7581   -0.0697 C   0  0  0  0  0  0  0  0  0  0  0  0
    2.8339    0.2854   -0.0165 C   0  0  0  0  0  0  0  0  0  0  0  0
    2.0222   -2.0611    0.2276 C   0  0  0  0  0  0  0  0  0  0  0  0
    3.1170   -1.0745    0.1268 C   0  0  0  0  0  0  0  0  0  0  0  0
    3.8806    1.2103   -0.1115 C   0  0  0  0  0  0  0  0  0  0  0  0
    4.4467   -1.5095    0.1756 C   0  0  0  0  0  0  0  0  0  0  0  0
    5.2044    0.7726   -0.0626 C   0  0  0  0  0  0  0  0  0  0  0  0
    5.4868   -0.5844    0.0807 C   0  0  0  0  0  0  0  0  0  0  0  0
    3.6559    2.6846   -0.2675 C   0  0  0  0  0  0  0  0  0  0  0  0
    6.3093    1.7225   -0.1604 C   0  0  0  0  0  0  0  0  0  0  0  0
  1 15  1  0
  1 18  1  0
  2 14  1  0
  3 16  1  0
  4 17  1  0
  5 20  1  0
  6 21  1  0
  7 22  1  0
  8 25  1  0
  9 26  2  0
 10 28  2  0
 11 33  1  0
 12 35  1  0
 13 35  2  0
 14 15  1  0
 14 16  1  0
 15 19  1  0
 16 17  1  0
 17 18  1  0
 18 20  1  0
 19 21  2  0
 19 22  1  0
 21 23  1  0
 22 25  2  0
 23 24  2  0
 23 26  1  0
 24 25  1  0
 24 28  1  0
 26 27  1  0
 27 29  2  0
 27 30  1  0
 28 29  1  0
 29 31  1  0
 30 32  2  0
 30 34  1  0
 31 33  2  0
 32 33  1  0
 32 35  1  0
M  END
>  <PUBCHEM_COMPOUND_CID>  (1) 
14749

>  <PUBCHEM_CONFORMER_RMSD>  (1) 
0.8

>  <PUBCHEM_CONFORMER_DIVERSEORDER>  (1) 
2
8
10
4
3
9
5
7
1
6

>  <PUBCHEM_MMFF94_PARTIAL_CHARGES>  (1) 
45
1 -0.56
10 -0.57
11 -0.53
12 -0.65
13 -0.57
14 0.28
15 0.42
16 0.28
17 0.28
18 0.28
19 -0.14
2 -0.68
20 0.28
21 0.08
22 0.08
23 0.09
24 0.09
25 0.08
26 0.4
27 0.09
28 0.4
29 0.09
3 -0.68
30 -0.14
31 -0.15
32 0.09
33 0.08
34 0.14
35 0.63
4 -0.68
43 0.4
44 0.4
45 0.4
46 0.4
47 0.45
48 0.45
49 0.15
5 -0.68
50 0.45
54 0.45
55 0.5
6 -0.53
7 -0.53
8 -0.53
9 -0.57

>  <PUBCHEM_EFFECTIVE_ROTOR_COUNT>  (1) 
4.2

>  <PUBCHEM_PHARMACOPHORE_FEATURES>  (1) 
22
1 1 acceptor
1 10 acceptor
1 11 donor
1 12 acceptor
1 13 acceptor
1 2 acceptor
1 2 donor
1 3 acceptor
1 3 donor
1 4 acceptor
1 4 donor
1 5 acceptor
1 5 donor
1 6 donor
1 7 donor
1 8 donor
1 9 acceptor
3 12 13 35 anion
6 1 14 15 16 17 18 rings
6 19 21 22 23 24 25 rings
6 23 24 26 27 28 29 rings
6 27 29 30 31 32 33 rings

>  <PUBCHEM_HEAVY_ATOM_COUNT>  (1) 
35

>  <PUBCHEM_ATOM_DEF_STEREO_COUNT>  (1) 
5

>  <PUBCHEM_ATOM_UDEF_STEREO_COUNT>  (1) 
0

>  <PUBCHEM_BOND_DEF_STEREO_COUNT>  (1) 
0

>  <PUBCHEM_BOND_UDEF_STEREO_COUNT>  (1) 
0

>  <PUBCHEM_ISOTOPIC_ATOM_COUNT>  (1) 
0

>  <PUBCHEM_COMPONENT_COUNT>  (1) 
1

>  <PUBCHEM_CACTVS_TAUTO_COUNT>  (1) 
600

>  <PUBCHEM_CONFORMER_ID>  (1) 
0000399D00000002

>  <PUBCHEM_MMFF94_ENERGY>  (1) 
134.7153

>  <PUBCHEM_FEATURE_SELFOVERLAP>  (1) 
111.782

>  <PUBCHEM_SHAPE_FINGERPRINT>  (1) 
10 15 17167864188194602580
10835480 77 18268142231890031976
10906281 52 18270976690707723806
11007060 377 18334856143228335915
11135609 187 18410002235416851285
11135926 11 18408604751948586182
12236239 1 17988637480677662821
12422481 6 17458351861374961711
12788726 201 17560811974181583409
12838862 33 18336808871627061756
13140716 1 18335426802205292706
13627175 23 18201162066679521697
14394314 77 18271250430987347009
14790565 3 18267872687456445209
14856354 85 17203603840042139295
15064981 113 16916503623851667165
15183329 4 18413671305592210700
15196674 1 18336547218151113034
15274700 147 15588533691539470556
15419008 47 13830126183618887339
1577012 14 18202003213864077217
16112460 7 18411421700369774480
18608769 82 18336547235383970291
20511986 3 17988067916506630881
20715895 44 18408600384008751742
21033648 144 18334571343910320447
21033648 29 18265605667001330120
21033650 10 16271939185827026011
21236236 1 18336827597663457703
21279426 13 18409732876659265174
21298829 104 18411418405887531236
21756936 100 17988937677886198531
21792961 116 17677333789294597762
23522609 53 17988100923304343152
23559900 14 18268421498689037224
23569917 315 18411140238247258751
23569943 247 17840311016960688814
249057 3 18335421262673270838
335352 9 18409449168589581070
350125 39 18407759222663310932
3633792 109 18338226082106854173
3680242 22 18261387820243637834
397830 11 16733564817178694064
4073 2 18041283252619804058
4093350 32 17704075079848627678
5104073 3 18334293214976942810
57527293 21 16663214757105507625
6328613 192 18410859897489144824
6608658 132 17704077248902681577

>  <PUBCHEM_SHAPE_MULTIPOLES>  (1) 
643.98
17.47
3.14
1.46
2.8
2.03
-0.27
-11.21
1.37
2.05
-0.66
-3.37
-0.8
-1.48

>  <PUBCHEM_SHAPE_SELFOVERLAP>  (1) 
1440.172

>  <PUBCHEM_SHAPE_VOLUME>  (1) 
336.7

>  <PUBCHEM_COORDINATE_TYPE>  (1) 
2
5
10

$$$$
