14747
     RDKit          3D

 32 36  0  0  1  0  0  0  0  0999 V2000
    0.8524    1.5872   -1.6651 O   0  0  0  0  0  0  0  0  0  0  0  0
    3.6020    1.9389   -0.2361 O   0  0  0  0  0  0  0  0  0  0  0  0
   -6.7026   -0.8836    1.0025 O   0  0  0  0  0  0  0  0  0  0  0  0
    5.5096   -2.5718    0.5408 O   0  0  0  0  0  0  0  0  0  0  0  0
    7.3985   -1.2599    0.4560 O   0  0  0  0  0  0  0  0  0  0  0  0
    3.1447    4.0907    0.4855 O   0  0  0  0  0  0  0  0  0  0  0  0
   -7.2768    1.3584    0.9400 O   0  0  0  0  0  0  0  0  0  0  0  0
    0.7625    0.9088   -0.4059 C   0  0  0  0  0  0  0  0  0  0  0  0
   -0.7338    0.5851   -0.1047 C   0  0  0  0  0  0  0  0  0  0  0  0
    1.6865   -0.3701   -0.4417 C   0  0  0  0  0  0  0  0  0  0  0  0
   -1.2767   -0.5291   -1.0392 C   0  0  0  0  0  0  0  0  0  0  0  0
   -2.8046   -0.8679   -0.8024 C   0  0  0  0  0  0  0  0  0  0  0  0
   -3.6494    0.4499   -0.8103 C   0  0  0  0  0  0  0  0  0  0  0  0
    2.7054   -0.1268    0.7230 C   0  0  0  0  0  0  0  0  0  0  0  0
    0.8751   -1.6519   -0.1554 C   0  0  0  0  0  0  0  0  0  0  0  0
   -0.3607   -1.7799   -1.0428 C   0  0  0  0  0  0  0  0  0  0  0  0
    1.3692    1.8353    0.6814 C   0  0  0  0  0  0  0  0  0  0  0  0
   -1.6224    1.8366   -0.2028 C   0  0  0  0  0  0  0  0  0  0  0  0
    2.8227    1.3968    0.8198 C   0  0  0  0  0  0  0  0  0  0  0  0
   -3.0718    1.5230    0.1282 C   0  0  0  0  0  0  0  0  0  0  0  0
   -3.0380   -1.6166    0.5428 C   0  0  0  0  0  0  0  0  0  0  0  0
    2.3988   -0.5435   -1.8094 C   0  0  0  0  0  0  0  0  0  0  0  0
   -5.1313    0.2078   -0.4655 C   0  0  0  0  0  0  0  0  0  0  0  0
   -3.2742   -1.7699   -1.9778 C   0  0  0  0  0  0  0  0  0  0  0  0
   -4.5144   -1.8442    0.8730 C   0  0  0  0  0  0  0  0  0  0  0  0
   -5.3250   -0.5550    0.8434 C   0  0  0  0  0  0  0  0  0  0  0  0
    4.0192   -0.8370    0.6430 C   0  0  0  0  0  0  0  0  0  0  0  0
    4.1042   -2.3114    0.6200 C   0  0  0  0  0  0  0  0  0  0  0  0
    5.2279   -0.2845    0.5850 C   0  0  0  0  0  0  0  0  0  0  0  0
    6.1880   -1.3876    0.5197 C   0  0  0  0  0  0  0  0  0  0  0  0
    3.6731    3.2982   -0.2784 C   0  0  0  0  0  0  0  0  0  0  0  0
   -7.5582    0.1739    1.0330 C   0  0  0  0  0  0  0  0  0  0  0  0
  1  8  1  0
  2 19  1  0
  2 31  1  0
  3 26  1  0
  3 32  1  0
  4 28  1  0
  4 30  1  0
  5 30  2  0
  6 31  2  0
  7 32  2  0
  8  9  1  0
  8 10  1  0
  8 17  1  0
  9 11  1  0
  9 18  1  0
 10 14  1  0
 10 15  1  0
 10 22  1  0
 11 12  1  0
 11 16  1  0
 12 13  1  0
 12 21  1  0
 12 24  1  0
 13 20  1  0
 13 23  1  0
 14 19  1  0
 14 27  1  0
 15 16  1  0
 17 19  1  0
 18 20  1  0
 21 25  1  0
 23 26  1  0
 25 26  1  0
 27 28  1  0
 27 29  2  0
 29 30  1  0
M  END
>  <PUBCHEM_COMPOUND_CID>  (1) 
14747

>  <PUBCHEM_CONFORMER_RMSD>  (1) 
1

>  <PUBCHEM_CONFORMER_DIVERSEORDER>  (1) 
1
7
13
14
11
18
21
9
15
16
5
10
12
20
19
3
17
8
4
6
2

>  <PUBCHEM_MMFF94_PARTIAL_CHARGES>  (1) 
21
1 -0.68
14 0.14
19 0.28
2 -0.43
26 0.28
27 -0.28
28 0.42
29 -0.14
3 -0.43
30 0.71
31 0.66
32 0.66
4 -0.43
5 -0.57
6 -0.57
61 0.4
64 0.15
65 0.06
66 0.06
7 -0.57
8 0.28

>  <PUBCHEM_EFFECTIVE_ROTOR_COUNT>  (1) 
7.6

>  <PUBCHEM_PHARMACOPHORE_FEATURES>  (1) 
10
1 1 acceptor
1 1 donor
1 5 acceptor
1 6 acceptor
1 7 acceptor
5 4 27 28 29 30 rings
5 8 10 14 17 19 rings
6 12 13 21 23 25 26 rings
6 8 9 10 11 15 16 rings
6 9 11 12 13 18 20 rings

>  <PUBCHEM_HEAVY_ATOM_COUNT>  (1) 
32

>  <PUBCHEM_ATOM_DEF_STEREO_COUNT>  (1) 
7

>  <PUBCHEM_ATOM_UDEF_STEREO_COUNT>  (1) 
2

>  <PUBCHEM_BOND_DEF_STEREO_COUNT>  (1) 
0

>  <PUBCHEM_BOND_UDEF_STEREO_COUNT>  (1) 
0

>  <PUBCHEM_ISOTOPIC_ATOM_COUNT>  (1) 
0

>  <PUBCHEM_COMPONENT_COUNT>  (1) 
1

>  <PUBCHEM_CACTVS_TAUTO_COUNT>  (1) 
1

>  <PUBCHEM_CONFORMER_ID>  (1) 
0000399B00000001

>  <PUBCHEM_MMFF94_ENERGY>  (1) 
115.3686

>  <PUBCHEM_FEATURE_SELFOVERLAP>  (1) 
50.884

>  <PUBCHEM_SHAPE_FINGERPRINT>  (1) 
11135609 12 18410293583943094464
11135926 11 18192138520415956980
11456790 92 18272100383818976929
12107183 9 18343301448901972635
12107698 1 18409167697332434985
12166972 35 17240769483900755085
12422481 6 18411982468806466821
12616971 3 18272646878913929319
12633257 1 17561080340933527139
12788726 201 17560817545107652657
13140716 1 18340206409606305679
13224815 77 18340207496237812741
13533116 47 18334577970575274976
13540713 5 17915166043314005158
13583140 156 18188475900716551551
13673619 4 17967813817211428870
13685833 64 18113900437872647146
13782708 43 17530955886980671371
13785724 45 18127138476578343718
14341114 176 18412259532588040010
14767858 380 11314313849490157035
14790565 3 17545043066105423036
14849402 71 18335987562247840132
14955137 171 18340769252501730750
15348495 7 18334297612849347699
15361156 5 17604439608029975539
15475509 35 17023169514641151728
15475509 84 18201443545086835921
15927050 60 17979634864881046382
17349148 13 17703501147494901708
1813 80 17458905938611790694
21033648 29 17559651998357473066
21049683 271 18187369831533966884
21130935 74 18335707195620625259
21150785 3 14345801543291970658
21267235 1 18411137992648346930
21781055 127 16845033241767818144
21792934 111 18410849950550823737
23522609 53 18199209419184885857
23559900 14 18335972112685616872
23569917 315 17917989512488222383
24771293 8 18129079282853601336
25147074 1 17987792046451406631
3178227 256 18409731742381606810
335352 9 18341606005971289719
3411729 13 18267588090719310476
350125 39 18411418414645881132
3680242 22 18343868835546178257
392239 28 18341622516532593579
4073 2 18042129932212184946
4093350 32 17489310815464832332
4516262 110 18120647191545218516
465052 167 18410011010082581190
5104073 3 18129094688036388435
57724786 102 18337670926965160861
6058803 2 17770768315046070327
6086070 43 16845003632564044497

>  <PUBCHEM_SHAPE_MULTIPOLES>  (1) 
617.46
16.41
3.01
1.3
9.63
2.12
0.44
-4.15
-7.19
-3.77
-0.15
0.75
-0.31
-0.75

>  <PUBCHEM_SHAPE_SELFOVERLAP>  (1) 
1333.356

>  <PUBCHEM_SHAPE_VOLUME>  (1) 
335

>  <PUBCHEM_COORDINATE_TYPE>  (1) 
2
5
10

$$$$
