14756
     RDKit          3D

 12 12  0  0  0  0  0  0  0  0999 V2000
    2.3506   -0.0902   -0.0880 S   0  0  0  0  0  0  0  0  0  0  0  0
    2.8110   -0.1567    1.4794 O   0  0  0  0  0  0  0  0  0  0  0  0
    2.6246   -1.3976   -0.6667 O   0  0  0  0  0  0  0  0  0  0  0  0
    2.9182    1.1140   -0.6745 O   0  0  0  0  0  0  0  0  0  0  0  0
   -1.6090   -0.8033   -0.0072 C   0  0  0  0  0  0  0  0  0  0  0  0
   -2.1475    0.4833    0.0147 C   0  0  0  0  0  0  0  0  0  0  0  0
    0.6191    0.1301   -0.0486 C   0  0  0  0  0  0  0  0  0  0  0  0
   -0.2257   -0.9800   -0.0389 C   0  0  0  0  0  0  0  0  0  0  0  0
   -1.3029    1.5932    0.0050 C   0  0  0  0  0  0  0  0  0  0  0  0
    0.0804    1.4166   -0.0267 C   0  0  0  0  0  0  0  0  0  0  0  0
   -2.4936   -2.0065    0.0027 C   0  0  0  0  0  0  0  0  0  0  0  0
   -3.6251    0.6973    0.0488 C   0  0  0  0  0  0  0  0  0  0  0  0
  1  2  1  0
  1  3  2  0
  1  4  2  0
  1  7  1  0
  5  6  2  0
  5  8  1  0
  5 11  1  0
  6  9  1  0
  6 12  1  0
  7  8  2  0
  7 10  1  0
  9 10  2  0
M  END
>  <PUBCHEM_COMPOUND_CID>  (1) 
14756

>  <PUBCHEM_CONFORMER_RMSD>  (1) 
0.4

>  <PUBCHEM_CONFORMER_DIVERSEORDER>  (1) 
1
2

>  <PUBCHEM_MMFF94_PARTIAL_CHARGES>  (1) 
16
1 1.49
10 -0.15
11 0.14
12 0.14
13 0.15
14 0.15
15 0.15
2 -0.68
22 0.5
3 -0.65
4 -0.65
5 -0.14
6 -0.14
7 -0.01
8 -0.15
9 -0.15

>  <PUBCHEM_EFFECTIVE_ROTOR_COUNT>  (1) 
1

>  <PUBCHEM_PHARMACOPHORE_FEATURES>  (1) 
5
1 2 acceptor
1 3 acceptor
1 4 acceptor
4 1 2 3 4 anion
6 5 6 7 8 9 10 rings

>  <PUBCHEM_HEAVY_ATOM_COUNT>  (1) 
12

>  <PUBCHEM_ATOM_DEF_STEREO_COUNT>  (1) 
0

>  <PUBCHEM_ATOM_UDEF_STEREO_COUNT>  (1) 
0

>  <PUBCHEM_BOND_DEF_STEREO_COUNT>  (1) 
0

>  <PUBCHEM_BOND_UDEF_STEREO_COUNT>  (1) 
0

>  <PUBCHEM_ISOTOPIC_ATOM_COUNT>  (1) 
0

>  <PUBCHEM_COMPONENT_COUNT>  (1) 
1

>  <PUBCHEM_CACTVS_TAUTO_COUNT>  (1) 
1

>  <PUBCHEM_CONFORMER_ID>  (1) 
000039A400000001

>  <PUBCHEM_MMFF94_ENERGY>  (1) 
21.3784

>  <PUBCHEM_FEATURE_SELFOVERLAP>  (1) 
25.428

>  <PUBCHEM_SHAPE_FINGERPRINT>  (1) 
10857977 72 18270674371922253882
11132069 177 18411975849818823601
12032990 46 18410583868409405851
12382932 28 18341608239333184354
12716758 59 18340768130945469875
12932764 1 17385722478377775182
14325111 11 18410296895558090749
15775835 57 18040720268248316396
16945 1 18337106774510359469
193761 8 17978793742232249061
20201158 50 18201159849690530278
20645476 183 17458925785012366111
20715346 28 17846779649823721538
20871998 184 18201443622712186231
21501502 16 18264770033310076997
23402539 116 18271231730329578317
23402655 69 18123170322704127053
23463225 33 18335419028251033738
23552423 10 18260270788658063022
23559900 14 18342458111067909014
2748010 2 18195521713188022845
3248919 1 18412256242321344374
369184 2 17167859759740195049
5084963 1 18199753531352970920

>  <PUBCHEM_SHAPE_MULTIPOLES>  (1) 
233.2
5.15
1.77
0.8
0.67
0.29
-0.17
0.23
-0.11
-0.76
0.13
0.53
0.03
-0.04

>  <PUBCHEM_SHAPE_SELFOVERLAP>  (1) 
471.252

>  <PUBCHEM_SHAPE_VOLUME>  (1) 
137.9

>  <PUBCHEM_COORDINATE_TYPE>  (1) 
2
5
10

$$$$
