14768
     RDKit          3D

  4  3  0  0  0  0  0  0  0  0999 V2000
    0.0000    0.0565    0.3613 Si  0  0  0  0  0  4  0  0  0  0  0  0
    1.3698   -0.7516   -0.1142 O   0  0  0  0  0  0  0  0  0  0  0  0
   -1.3705   -0.7506   -0.1142 O   0  0  0  0  0  0  0  0  0  0  0  0
    0.0006    1.4457   -0.1328 O   0  0  0  0  0  0  0  0  0  0  0  0
  1  2  1  0
  1  3  1  0
  1  4  2  0
M  END
>  <PUBCHEM_COMPOUND_CID>  (1) 
14768

>  <PUBCHEM_CONFORMER_RMSD>  (1) 
0.4

>  <PUBCHEM_CONFORMER_DIVERSEORDER>  (1) 
1

>  <PUBCHEM_EFFECTIVE_ROTOR_COUNT>  (1) 
0

>  <PUBCHEM_PHARMACOPHORE_FEATURES>  (1) 
0

>  <PUBCHEM_HEAVY_ATOM_COUNT>  (1) 
4

>  <PUBCHEM_ATOM_DEF_STEREO_COUNT>  (1) 
0

>  <PUBCHEM_ATOM_UDEF_STEREO_COUNT>  (1) 
0

>  <PUBCHEM_BOND_DEF_STEREO_COUNT>  (1) 
0

>  <PUBCHEM_BOND_UDEF_STEREO_COUNT>  (1) 
0

>  <PUBCHEM_ISOTOPIC_ATOM_COUNT>  (1) 
0

>  <PUBCHEM_COMPONENT_COUNT>  (1) 
1

>  <PUBCHEM_CACTVS_TAUTO_COUNT>  (1) 
1

>  <PUBCHEM_CONFORMER_ID>  (1) 
000039B000000001

>  <PUBCHEM_MMFF94_ENERGY>  (1) 
-0.0315

>  <PUBCHEM_FEATURE_SELFOVERLAP>  (1) 
0

>  <PUBCHEM_SHAPE_FINGERPRINT>  (1) 
139733 1 8862943874637815843
20096714 4 17255113974695265721
21015797 1 9295018937556396960
5943 1 17697923346065344737

>  <PUBCHEM_SHAPE_MULTIPOLES>  (1) 
82.92
1.37
1.27
0.76
0
0.38
-0.16
-0.5
0.09
0
0.08
0
0.01
0

>  <PUBCHEM_SHAPE_SELFOVERLAP>  (1) 
133.711

>  <PUBCHEM_SHAPE_VOLUME>  (1) 
57.3

>  <PUBCHEM_COORDINATE_TYPE>  (1) 
2
5
10

$$$$
