14764
     RDKit          3D

 28 31  0  0  1  0  0  0  0  0999 V2000
   -0.7227    2.2403   -2.3792 O   0  0  0  0  0  0  0  0  0  0  0  0
   -1.3490   -3.4020   -0.3864 O   0  0  0  0  0  0  0  0  0  0  0  0
    1.6633    2.8082   -0.9046 N   0  0  0  0  0  0  0  0  0  0  0  0
   -4.3665    1.0935    0.7308 N   0  0  0  0  0  0  0  0  0  0  0  0
    2.0779    1.8820    1.4875 C   0  0  0  0  0  0  0  0  0  0  0  0
    2.7306    0.9692    0.4241 C   0  0  0  0  0  0  0  0  0  0  0  0
    0.3635    2.5156   -0.2442 C   0  0  0  0  0  0  0  0  0  0  0  0
    0.5714    1.9213    1.1673 C   0  0  0  0  0  0  0  0  0  0  0  0
    2.5158    1.5982   -0.9702 C   0  0  0  0  0  0  0  0  0  0  0  0
    2.6118    3.3174    1.3485 C   0  0  0  0  0  0  0  0  0  0  0  0
    2.3795    3.8160   -0.0867 C   0  0  0  0  0  0  0  0  0  0  0  0
    4.2083    0.6978    0.6997 C   0  0  0  0  0  0  0  0  0  0  0  0
   -0.5400    1.6297   -1.1058 C   0  0  0  0  0  0  0  0  0  0  0  0
   -1.8834    1.4028   -0.4598 C   0  0  0  0  0  0  0  0  0  0  0  0
    4.8029   -0.2314   -0.3407 C   0  0  0  0  0  0  0  0  0  0  0  0
   -2.3469    0.1223   -0.1554 C   0  0  0  0  0  0  0  0  0  0  0  0
   -2.6441    2.5214   -0.1765 C   0  0  0  0  0  0  0  0  0  0  0  0
   -3.6162    0.0113    0.4501 C   0  0  0  0  0  0  0  0  0  0  0  0
   -1.5904   -1.0287   -0.4338 C   0  0  0  0  0  0  0  0  0  0  0  0
   -3.8730    2.3130    0.4162 C   0  0  0  0  0  0  0  0  0  0  0  0
   -4.0860   -1.2627    0.7576 C   0  0  0  0  0  0  0  0  0  0  0  0
   -2.0846   -2.2904   -0.1156 C   0  0  0  0  0  0  0  0  0  0  0  0
   -3.3341   -2.4072    0.4807 C   0  0  0  0  0  0  0  0  0  0  0  0
    0.0713   -3.2640   -0.3612 C   0  0  0  0  0  0  0  0  0  0  0  0
    0.6848   -4.5994    0.0420 C   0  0  0  0  0  0  0  0  0  0  0  0
    2.2195   -4.5754    0.1259 C   0  0  0  0  0  0  0  0  0  0  0  0
    2.8077   -4.1671   -1.2268 C   0  0  0  0  0  0  0  0  0  0  0  0
    2.7286   -3.6318    1.2164 C   0  0  0  0  0  0  0  0  0  0  0  0
  1 13  1  0
  2 22  1  0
  2 24  1  0
  3  7  1  0
  3  9  1  0
  3 11  1  0
  4 18  2  0
  4 20  1  0
  5  6  1  0
  5  8  1  0
  5 10  1  0
  6  9  1  0
  6 12  1  0
  7  8  1  0
  7 13  1  0
 10 11  1  0
 12 15  1  0
 13 14  1  0
 14 16  2  0
 14 17  1  0
 16 18  1  0
 16 19  1  0
 17 20  2  0
 18 21  1  0
 19 22  2  0
 21 23  2  0
 22 23  1  0
 24 25  1  0
 25 26  1  0
 26 27  1  0
 26 28  1  0
M  END
>  <PUBCHEM_COMPOUND_CID>  (1) 
14764

>  <PUBCHEM_CONFORMER_RMSD>  (1) 
1

>  <PUBCHEM_CONFORMER_DIVERSEORDER>  (1) 
1
104
98
87
93
61
27
110
73
81
35
108
57
30
55
45
67
69
94
74
89
28
65
53
23
66
29
39
86
97
102
83
43
22
52
11
96
36
63
16
51
4
48
40
85
19
25
58
18
72
41
109
90
8
6
95
54
100
5
99
79
2
106
31
75
68
105
101
21
44
3
64
50
9
10
12
77
24
20
92
91
80
17
103
38
107
78
82
34
62
59
49
111
70
13
33
15
42
14
7
26
71
88
56
46
76
37
84
47
60
32

>  <PUBCHEM_MMFF94_PARTIAL_CHARGES>  (1) 
23
1 -0.68
11 0.27
13 0.42
14 -0.14
17 -0.15
18 0.31
19 -0.15
2 -0.36
20 0.16
21 -0.15
22 0.08
23 -0.15
24 0.28
3 -0.81
4 -0.62
46 0.4
47 0.15
48 0.15
49 0.15
50 0.15
51 0.15
7 0.27
9 0.27

>  <PUBCHEM_EFFECTIVE_ROTOR_COUNT>  (1) 
8.2

>  <PUBCHEM_PHARMACOPHORE_FEATURES>  (1) 
10
1 1 acceptor
1 1 donor
1 15 hydrophobe
1 2 acceptor
1 3 cation
1 4 acceptor
3 26 27 28 hydrophobe
6 16 18 19 21 22 23 rings
6 4 14 16 17 18 20 rings
8 3 5 6 7 8 9 10 11 rings

>  <PUBCHEM_HEAVY_ATOM_COUNT>  (1) 
28

>  <PUBCHEM_ATOM_DEF_STEREO_COUNT>  (1) 
0

>  <PUBCHEM_ATOM_UDEF_STEREO_COUNT>  (1) 
4

>  <PUBCHEM_BOND_DEF_STEREO_COUNT>  (1) 
0

>  <PUBCHEM_BOND_UDEF_STEREO_COUNT>  (1) 
0

>  <PUBCHEM_ISOTOPIC_ATOM_COUNT>  (1) 
0

>  <PUBCHEM_COMPONENT_COUNT>  (1) 
1

>  <PUBCHEM_CACTVS_TAUTO_COUNT>  (1) 
1

>  <PUBCHEM_CONFORMER_ID>  (1) 
000039AC00000001

>  <PUBCHEM_MMFF94_ENERGY>  (1) 
90.4544

>  <PUBCHEM_FEATURE_SELFOVERLAP>  (1) 
50.777

>  <PUBCHEM_SHAPE_FINGERPRINT>  (1) 
10006869 2 15817059874007668961
11285246 1 16830901498443160271
11513181 2 17769384051988809150
12156800 1 15360559546138883722
12422481 6 18193531417075259562
12633257 1 17987535851636655137
12788726 201 16822493571173586778
13122387 1 17689995631497040718
13140716 1 18267873959172790593
13583140 156 17630598144563587384
14081887 123 17621873618670655041
14363568 33 18339378361186052482
14787075 74 15457885691490258197
14856354 85 17548982612489748748
1813 80 17242441948667032533
19591789 44 18338800133838494363
19930381 70 18122905322071508643
20775530 9 18120374250926448110
21344244 246 18265878208836247669
21421861 104 15599490385498085795
23559900 14 18127707112757508125
3027735 51 18195500771154425975
392239 28 14810795576335419497
463206 1 18336551500017249122
5265222 85 18265069079652357724
532947 4 18194677073625479837
5776283 40 18050590700928311924
6004065 56 17690830174171492765
6433294 58 18266740169511511882

>  <PUBCHEM_SHAPE_MULTIPOLES>  (1) 
554.53
7.65
7.11
1.28
1.24
6.78
-0.21
0.11
1.52
-5.48
-0.11
-0.45
-0.58
0.79

>  <PUBCHEM_SHAPE_SELFOVERLAP>  (1) 
1181.953

>  <PUBCHEM_SHAPE_VOLUME>  (1) 
304.9

>  <PUBCHEM_COORDINATE_TYPE>  (1) 
2
5
10

$$$$
