14818
     RDKit          3D

  7  9  0  0  0  0  0  0  0  0999 V2000
   -0.7229   -1.6532    0.7757 S   0  0  0  0  0  0  0  0  0  0  0  0
   -0.7228    1.4984    1.0439 S   0  0  0  0  0  0  0  0  0  0  0  0
   -0.7236    0.1549   -1.8193 S   0  0  0  0  0  0  0  0  0  0  0  0
    1.2943   -1.1838    0.5546 P   0  0  0  0  0  0  0  0  0  0  0  0
    1.2944    1.0724    0.7475 P   0  0  0  0  0  0  0  0  0  0  0  0
    1.2939    0.1113   -1.3028 P   0  0  0  0  0  0  0  0  0  0  0  0
   -1.7133   -0.0001    0.0004 P   0  0  0  0  0  0  0  0  0  0  0  0
  1  4  1  0
  1  7  1  0
  2  5  1  0
  2  7  1  0
  3  6  1  0
  3  7  1  0
  4  5  1  0
  4  6  1  0
  5  6  1  0
M  END
>  <PUBCHEM_COMPOUND_CID>  (1) 
14818

>  <PUBCHEM_CONFORMER_RMSD>  (1) 
0.4

>  <PUBCHEM_CONFORMER_DIVERSEORDER>  (1) 
1

>  <PUBCHEM_MMFF94_PARTIAL_CHARGES>  (1) 
7
1 -0.19
2 -0.19
3 -0.19
4 0.09
5 0.09
6 0.09
7 0.28

>  <PUBCHEM_EFFECTIVE_ROTOR_COUNT>  (1) 
0

>  <PUBCHEM_PHARMACOPHORE_FEATURES>  (1) 
1
7 1 2 3 4 5 6 7 rings

>  <PUBCHEM_HEAVY_ATOM_COUNT>  (1) 
7

>  <PUBCHEM_ATOM_DEF_STEREO_COUNT>  (1) 
0

>  <PUBCHEM_ATOM_UDEF_STEREO_COUNT>  (1) 
0

>  <PUBCHEM_BOND_DEF_STEREO_COUNT>  (1) 
0

>  <PUBCHEM_BOND_UDEF_STEREO_COUNT>  (1) 
0

>  <PUBCHEM_ISOTOPIC_ATOM_COUNT>  (1) 
0

>  <PUBCHEM_COMPONENT_COUNT>  (1) 
1

>  <PUBCHEM_CACTVS_TAUTO_COUNT>  (1) 
1

>  <PUBCHEM_CONFORMER_ID>  (1) 
000039E200000001

>  <PUBCHEM_MMFF94_ENERGY>  (1) 
11.3034

>  <PUBCHEM_FEATURE_SELFOVERLAP>  (1) 
5.074

>  <PUBCHEM_SHAPE_FINGERPRINT>  (1) 
12423570 1 17313370262368036041
137420 1 9187334078807713030
18185500 45 13626299735420440077
5084963 1 8613639951136516517

>  <PUBCHEM_SHAPE_MULTIPOLES>  (1) 
171
2.05
1.77
1.77
0.05
0.08
0.89
0
0
-0.04
-0.89
-0.04
-0.08
0

>  <PUBCHEM_SHAPE_SELFOVERLAP>  (1) 
254.621

>  <PUBCHEM_SHAPE_VOLUME>  (1) 
127.8

>  <PUBCHEM_COORDINATE_TYPE>  (1) 
2
5
10

$$$$
