1481
     RDKit          3D

 22 22  0  0  1  0  0  0  0  0999 V2000
    3.7658   -2.4837    0.9059 Cl  0  0  0  0  0  0  0  0  0  0  0  0
    4.3439    3.5258   -0.6831 Cl  0  0  0  0  0  0  0  0  0  0  0  0
    6.8761    1.5173   -0.8377 Cl  0  0  0  0  0  0  0  0  0  0  0  0
   -1.5227   -1.2365   -0.5649 O   0  0  0  0  0  0  0  0  0  0  0  0
    1.5981   -0.3962    0.9494 O   0  0  0  0  0  0  0  0  0  0  0  0
   -0.3521   -2.2297    1.1590 O   0  0  0  0  0  0  0  0  0  0  0  0
   -4.2423   -0.3626    0.0330 C   0  0  0  0  0  0  0  0  0  0  0  0
   -3.8930   -1.5784   -0.8340 C   0  0  0  0  0  0  0  0  0  0  0  0
   -5.5669    0.2668   -0.4058 C   0  0  0  0  0  0  0  0  0  0  0  0
   -2.5560   -2.2085   -0.4323 C   0  0  0  0  0  0  0  0  0  0  0  0
   -5.9510    1.5059    0.4077 C   0  0  0  0  0  0  0  0  0  0  0  0
   -7.2358    2.1780   -0.0780 C   0  0  0  0  0  0  0  0  0  0  0  0
   -2.2228   -3.4038   -1.3148 C   0  0  0  0  0  0  0  0  0  0  0  0
   -7.5340    3.4418    0.7143 C   0  0  0  0  0  0  0  0  0  0  0  0
   -0.4711   -1.3657    0.3009 C   0  0  0  0  0  0  0  0  0  0  0  0
    0.5278   -0.2706    0.0344 C   0  0  0  0  0  0  0  0  0  0  0  0
    2.8318    0.0431    0.5335 C   0  0  0  0  0  0  0  0  0  0  0  0
    3.9232   -0.8227    0.4670 C   0  0  0  0  0  0  0  0  0  0  0  0
    2.9811    1.3826    0.1742 C   0  0  0  0  0  0  0  0  0  0  0  0
    4.2221    1.8562   -0.2517 C   0  0  0  0  0  0  0  0  0  0  0  0
    5.1643   -0.3491    0.0412 C   0  0  0  0  0  0  0  0  0  0  0  0
    5.3137    0.9903   -0.3182 C   0  0  0  0  0  0  0  0  0  0  0  0
  1 18  1  0
  2 20  1  0
  3 22  1  0
  4 10  1  0
  4 15  1  0
  5 16  1  0
  5 17  1  0
  6 15  2  0
  7  8  1  0
  7  9  1  0
  8 10  1  0
  9 11  1  0
 10 13  1  0
 11 12  1  0
 12 14  1  0
 15 16  1  0
 17 18  2  0
 17 19  1  0
 18 21  1  0
 19 20  2  0
 20 22  1  0
 21 22  2  0
M  END
>  <PUBCHEM_COMPOUND_CID>  (1) 
1481

>  <PUBCHEM_CONFORMER_RMSD>  (1) 
1

>  <PUBCHEM_CONFORMER_DIVERSEORDER>  (1) 
1
239
72
95
303
191
37
187
350
155
90
121
236
88
139
168
268
39
212
34
103
119
55
307
161
329
17
200
42
180
148
151
194
205
369
220
181
357
8
150
385
230
136
160
41
207
32
310
28
206
330
254
84
244
98
54
224
302
360
64
53
320
18
372
132
240
322
223
14
124
167
308
46
217
315
275
348
389
377
172
370
82
195
122
138
7
45
309
347
141
26
137
102
218
282
114
16
153
145
323
189
373
261
129
57
61
44
253
33
177
229
159
74
325
87
99
93
49
68
228
10
134
120
247
249
284
312
147
279
175
3
80
208
182
23
62
227
293
69
345
35
201
77
225
123
91
361
327
190
342
12
221
83
324
196
336
157
106
52
107
304
292
173
56
267
165
19
334
185
183
67
115
214
11
264
170
259
109
238
295
265
94
204
101
382
149
313
274
210
222
242
318
38
270
133
29
388
127
9
371
234
319
366
383
211
144
346
390
186
63
163
51
59
179
273
378
169
30
126
263
76
237
226
111
171
380
266
294
368
25
130
333
43
283
384
197
192
27
73
24
258
105
50
364
166
341
317
110
48
193
117
113
245
337
164
176
241
146
277
178
71
349
305
375
65
297
184
60
21
213
286
198
356
351
358
251
158
262
202
40
36
328
100
271
281
353
367
116
188
314
58
257
252
278
154
31
75
256
255
22
339
344
162
199
272
269
289
301
125
243
6
20
231
290
232
140
233
338
112
2
246
363
66
321
5
306
70
354
89
108
362
299
296
143
335
142
13
15
135
340
47
386
300
215
343
152
276
374
311
216
248
104
365
92
280
128
332
79
118
316
379
235
355
331
285
86
288
96
174
326
81
352
4
219
209
85
376
203
287
131
250
381
78
291
156
298
359
260
387
97

>  <PUBCHEM_MMFF94_PARTIAL_CHARGES>  (1) 
17
1 -0.18
10 0.28
15 0.66
16 0.34
17 0.08
18 0.18
19 -0.15
2 -0.18
20 0.18
21 -0.15
22 0.18
3 -0.18
4 -0.43
42 0.15
43 0.15
5 -0.36
6 -0.57

>  <PUBCHEM_EFFECTIVE_ROTOR_COUNT>  (1) 
10

>  <PUBCHEM_PHARMACOPHORE_FEATURES>  (1) 
5
1 14 hydrophobe
1 5 acceptor
1 6 acceptor
5 7 8 9 11 12 hydrophobe
6 17 18 19 20 21 22 rings

>  <PUBCHEM_HEAVY_ATOM_COUNT>  (1) 
22

>  <PUBCHEM_ATOM_DEF_STEREO_COUNT>  (1) 
0

>  <PUBCHEM_ATOM_UDEF_STEREO_COUNT>  (1) 
1

>  <PUBCHEM_BOND_DEF_STEREO_COUNT>  (1) 
0

>  <PUBCHEM_BOND_UDEF_STEREO_COUNT>  (1) 
0

>  <PUBCHEM_ISOTOPIC_ATOM_COUNT>  (1) 
0

>  <PUBCHEM_COMPONENT_COUNT>  (1) 
1

>  <PUBCHEM_CACTVS_TAUTO_COUNT>  (1) 
1

>  <PUBCHEM_CONFORMER_ID>  (1) 
000005C900000001

>  <PUBCHEM_MMFF94_ENERGY>  (1) 
36.607

>  <PUBCHEM_FEATURE_SELFOVERLAP>  (1) 
25.379

>  <PUBCHEM_SHAPE_FINGERPRINT>  (1) 
10595046 47 18194113242740136862
10906281 52 17822579421135930462
12107183 9 18267013964654512227
12788726 201 17775291538321007026
13167372 99 18410009931391655744
13785724 45 17834390125312165426
13885169 86 18408328791768250081
14257110 125 18413106135736679285
14790565 3 18409446977638931311
15183329 4 18273214213881240567
15188451 53 9583524200268388231
1577012 14 18412821374729997171
17844677 252 18192999437487222534
20526848 3 18410294684167053849
20621476 66 18411139126044764521
20691028 202 18412539908423154489
23402655 69 18338230578805815278
23559900 14 16414633912259440770
270888 7 18340486665455674465
2838139 119 18272082804180281589
3472631 163 18412545418543701727
5104073 3 17677040364985426650
543358 83 18409163333915200658
57724786 102 18336260155179084415
59682541 52 16271649962665821637
6327066 14 18340484479364741909
6328613 192 18410856585642189213
633830 44 18260819445066571826
8272917 22 18409727370558872118

>  <PUBCHEM_SHAPE_MULTIPOLES>  (1) 
440.75
20.07
4.09
0.99
21.31
0.96
0.04
20.8
0.82
3.09
0.49
-0.05
-0.36
-3.34

>  <PUBCHEM_SHAPE_SELFOVERLAP>  (1) 
853.37

>  <PUBCHEM_SHAPE_VOLUME>  (1) 
269.3

>  <PUBCHEM_COORDINATE_TYPE>  (1) 
2
5
10

$$$$
