14847
     RDKit          3D

 31 34  0  0  1  0  0  0  0  0999 V2000
    5.3965   -0.3882    2.2687 P   0  0  0  0  0  0  0  0  0  0  0  0
    3.1193   -0.1597   -2.0696 O   0  0  0  0  0  0  0  0  0  0  0  0
    5.4074   -0.5882    0.6673 O   0  0  0  0  0  0  0  0  0  0  0  0
    4.2664    1.8362    0.1651 O   0  0  0  0  0  0  0  0  0  0  0  0
    4.7275   -2.0383   -3.4336 O   0  0  0  0  0  0  0  0  0  0  0  0
    4.6443   -1.7232    2.7853 O   0  0  0  0  0  0  0  0  0  0  0  0
    6.9350   -0.6377    2.7001 O   0  0  0  0  0  0  0  0  0  0  0  0
    4.7973    0.9021    2.7467 O   0  0  0  0  0  0  0  0  0  0  0  0
   -5.0324    1.9274    0.3682 O   0  0  0  0  0  0  0  0  0  0  0  0
    1.1356    0.3853   -0.8854 N   0  0  0  0  0  0  0  0  0  0  0  0
   -0.6749   -0.8990   -0.6576 N   0  0  0  0  0  0  0  0  0  0  0  0
    0.1396    2.5721   -0.5275 N   0  0  0  0  0  0  0  0  0  0  0  0
   -2.2572    2.3977   -0.1024 N   0  0  0  0  0  0  0  0  0  0  0  0
   -3.3935    0.2982   -0.0644 N   0  0  0  0  0  0  0  0  0  0  0  0
   -6.2671   -2.5543    0.8892 N   0  0  0  0  0  0  0  0  0  0  0  0
    4.1706   -0.5852   -0.0128 C   0  0  0  0  0  0  0  0  0  0  0  0
    3.3938    0.7077    0.1512 C   0  0  0  0  0  0  0  0  0  0  0  0
    2.5347    0.7505   -1.1137 C   0  0  0  0  0  0  0  0  0  0  0  0
    4.3459   -0.6675   -1.5192 C   0  0  0  0  0  0  0  0  0  0  0  0
    4.5905   -2.0782   -2.0239 C   0  0  0  0  0  0  0  0  0  0  0  0
    0.0964    1.2350   -0.6268 C   0  0  0  0  0  0  0  0  0  0  0  0
    0.6205   -0.8853   -0.8941 C   0  0  0  0  0  0  0  0  0  0  0  0
   -1.0155    0.4196   -0.4886 C   0  0  0  0  0  0  0  0  0  0  0  0
   -2.2264    1.0480   -0.2161 C   0  0  0  0  0  0  0  0  0  0  0  0
   -1.0895    3.0661   -0.2628 C   0  0  0  0  0  0  0  0  0  0  0  0
   -4.6869    0.7615    0.2097 C   0  0  0  0  0  0  0  0  0  0  0  0
   -5.7264   -0.2927    0.3427 C   0  0  0  0  0  0  0  0  0  0  0  0
   -7.0373    0.0010    0.0581 C   0  0  0  0  0  0  0  0  0  0  0  0
   -5.3722   -1.5508    0.7480 C   0  0  0  0  0  0  0  0  0  0  0  0
   -7.9873   -1.0054    0.1917 C   0  0  0  0  0  0  0  0  0  0  0  0
   -7.5547   -2.2547    0.6066 C   0  0  0  0  0  0  0  0  0  0  0  0
  1  3  1  0
  1  6  1  0
  1  7  1  0
  1  8  2  0
  2 18  1  0
  2 19  1  0
  3 16  1  0
  4 17  1  0
  5 20  1  0
  9 26  2  0
 10 18  1  0
 10 21  1  0
 10 22  1  0
 11 22  2  0
 11 23  1  0
 12 21  1  0
 12 25  2  0
 13 24  2  0
 13 25  1  0
 14 24  1  0
 14 26  1  0
 15 29  2  0
 15 31  1  0
 16 17  1  0
 16 19  1  0
 17 18  1  0
 19 20  1  0
 21 23  2  0
 23 24  1  0
 26 27  1  0
 27 28  2  0
 27 29  1  0
 28 30  1  0
 30 31  2  0
M  END
>  <PUBCHEM_COMPOUND_CID>  (1) 
14847

>  <PUBCHEM_CONFORMER_RMSD>  (1) 
1

>  <PUBCHEM_CONFORMER_DIVERSEORDER>  (1) 
1
26
21
27
37
29
28
30
20
25
10
13
31
23
15
36
24
33
22
6
16
19
32
14
40
3
17
38
39
12
4
9
41
18
5
34
2
35
8
11
7

>  <PUBCHEM_MMFF94_PARTIAL_CHARGES>  (1) 
42
1 1.51
10 0.05
11 -0.57
12 -0.57
13 -0.62
14 -0.55
15 -0.62
16 0.28
17 0.28
18 0.54
19 0.28
2 -0.56
20 0.28
21 0.11
22 0.04
23 0.23
24 0.43
25 0.47
26 0.54
27 0.09
28 -0.15
29 0.16
3 -0.55
30 -0.15
31 0.16
38 0.4
39 0.15
4 -0.68
40 0.4
41 0.15
42 0.5
43 0.5
44 0.37
45 0.15
46 0.15
47 0.15
48 0.15
5 -0.68
6 -0.77
7 -0.77
8 -0.7
9 -0.57

>  <PUBCHEM_EFFECTIVE_ROTOR_COUNT>  (1) 
8

>  <PUBCHEM_PHARMACOPHORE_FEATURES>  (1) 
19
1 14 donor
1 15 acceptor
1 2 acceptor
1 4 acceptor
1 4 donor
1 5 acceptor
1 5 donor
1 6 acceptor
1 7 acceptor
1 8 acceptor
1 9 acceptor
3 10 11 22 cation
3 10 12 21 cation
3 12 13 25 cation
4 1 6 7 8 anion
5 10 11 21 22 23 rings
5 2 16 17 18 19 rings
6 12 13 21 23 24 25 rings
6 15 27 28 29 30 31 rings

>  <PUBCHEM_HEAVY_ATOM_COUNT>  (1) 
31

>  <PUBCHEM_ATOM_DEF_STEREO_COUNT>  (1) 
4

>  <PUBCHEM_ATOM_UDEF_STEREO_COUNT>  (1) 
0

>  <PUBCHEM_BOND_DEF_STEREO_COUNT>  (1) 
0

>  <PUBCHEM_BOND_UDEF_STEREO_COUNT>  (1) 
0

>  <PUBCHEM_ISOTOPIC_ATOM_COUNT>  (1) 
0

>  <PUBCHEM_COMPONENT_COUNT>  (1) 
1

>  <PUBCHEM_CACTVS_TAUTO_COUNT>  (1) 
4

>  <PUBCHEM_CONFORMER_ID>  (1) 
000039FF00000001

>  <PUBCHEM_MMFF94_ENERGY>  (1) 
46.8074

>  <PUBCHEM_FEATURE_SELFOVERLAP>  (1) 
97.075

>  <PUBCHEM_SHAPE_FINGERPRINT>  (1) 
10 15 18130500928847940113
10165383 225 17489309733286269052
11443803 9 18117013259557104724
11578080 2 16271632503655840318
11719270 70 18410576197788193735
1200032 147 14189289405216461584
12035758 1 17846205683358359704
12120059 9 18200579338259739111
12342043 65 17702116763666269206
12422481 6 17561090181093974039
12661589 4 18335146350022220094
13533116 47 17240201040974461336
13540713 4 17915460480644797124
13782708 43 17846227592171237639
13862211 1 18334862723202668285
14849402 71 14692279703730391755
15119646 104 17095520673872871755
15131766 46 15481802693497442376
15183329 4 17530972401683526143
15188451 53 17894904118499153760
15475509 35 17968363603106042736
17857418 61 17676205766950847947
18222031 100 18040447585080373149
18608769 82 18272376369279122870
1979834 28 17847061099516139660
20028762 73 18408608067199660627
21033648 29 17418093188101894673
21130935 74 17703801310354950071
21585480 29 17345743230902465287
21792934 111 18131632249668447049
21814621 53 17560245704555577707
22149856 69 18059314101533965923
2215653 11 13117999980918319961
23081809 10 16950289481610939173
23522609 53 17096957692679205765
23569914 152 12687854522684141659
255183 313 17774992518756722791
29717793 49 14923942344872184463
3004659 81 18113912575629379247
3383291 50 18337397136614040099
3633792 109 15285356202226475540
394071 54 15697996362089784448
397830 11 17704348896729792171
4058900 60 10807671012225677197
4340502 62 17060337431138821046
5104073 3 17775010020632032393
531348 171 17022894628713913063
563151 74 16200146621130426982
58083652 198 15697713706223667129
59682541 52 14923943457305741151
60123966 16 13045954512195723486
6201320 221 17169803671077809995
96874 4 17604136073842679579

>  <PUBCHEM_SHAPE_MULTIPOLES>  (1) 
564.97
20.82
2.58
2.26
24.03
0.77
-0.35
-13.48
-8.35
1.89
0.16
-7.51
-1.49
1.34

>  <PUBCHEM_SHAPE_SELFOVERLAP>  (1) 
1217.511

>  <PUBCHEM_SHAPE_VOLUME>  (1) 
312.5

>  <PUBCHEM_COORDINATE_TYPE>  (1) 
2
5
10

$$$$
