1484
     RDKit          3D

 18 20  0  0  1  0  0  0  0  0999 V2000
   -0.0740    0.5579   -0.2937 N   0  0  0  0  0  0  0  0  0  0  0  0
    0.9027   -2.0354    0.1882 N   0  0  0  0  0  0  0  0  0  0  0  0
    3.1181   -1.1962    0.1989 N   0  0  0  0  0  0  0  0  0  0  0  0
    3.5474    1.1551   -0.0798 N   0  0  0  0  0  0  0  0  0  0  0  0
    1.7565    2.6625   -0.4206 N   0  0  0  0  0  0  0  0  0  0  0  0
    5.3082   -0.3573    0.2427 N   0  0  0  0  0  0  0  0  0  0  0  0
   -0.9603   -0.5882   -0.4705 C   0  0  0  0  0  0  0  0  0  0  0  0
   -0.5005   -1.7500    0.4251 C   0  0  0  0  0  0  0  0  0  0  0  0
   -2.3965   -0.1969   -0.1913 C   0  0  0  0  0  0  0  0  0  0  0  0
    1.2842    0.3165   -0.1633 C   0  0  0  0  0  0  0  0  0  0  0  0
    1.7889   -0.9654    0.0777 C   0  0  0  0  0  0  0  0  0  0  0  0
    2.2190    1.3384   -0.2103 C   0  0  0  0  0  0  0  0  0  0  0  0
   -3.4345   -0.8071   -0.8950 C   0  0  0  0  0  0  0  0  0  0  0  0
   -2.6802    0.7736    0.7690 C   0  0  0  0  0  0  0  0  0  0  0  0
   -4.7573   -0.4464   -0.6382 C   0  0  0  0  0  0  0  0  0  0  0  0
   -4.0029    1.1343    1.0259 C   0  0  0  0  0  0  0  0  0  0  0  0
    3.9225   -0.1196    0.1131 C   0  0  0  0  0  0  0  0  0  0  0  0
   -5.0414    0.5243    0.3222 C   0  0  0  0  0  0  0  0  0  0  0  0
  1  7  1  0
  1 10  1  0
  2  8  1  0
  2 11  1  0
  3 11  1  0
  3 17  2  0
  4 12  2  0
  4 17  1  0
  5 12  1  0
  6 17  1  0
  7  8  1  0
  7  9  1  0
  9 13  2  0
  9 14  1  0
 10 11  2  0
 10 12  1  0
 13 15  1  0
 14 16  2  0
 15 18  2  0
 16 18  1  0
M  END
>  <PUBCHEM_COMPOUND_CID>  (1) 
1484

>  <PUBCHEM_CONFORMER_RMSD>  (1) 
0.6

>  <PUBCHEM_CONFORMER_DIVERSEORDER>  (1) 
3
2
4
1

>  <PUBCHEM_MMFF94_PARTIAL_CHARGES>  (1) 
29
1 -0.87
10 0.1
11 0.41
12 0.41
13 -0.15
14 -0.15
15 -0.15
16 -0.15
17 0.72
18 -0.15
2 -0.87
22 0.4
23 0.4
24 0.15
25 0.15
26 0.15
27 0.15
28 0.15
29 0.4
3 -0.62
30 0.4
31 0.4
32 0.4
4 -0.62
5 -0.9
6 -0.9
7 0.51
8 0.37
9 -0.14

>  <PUBCHEM_EFFECTIVE_ROTOR_COUNT>  (1) 
1.8

>  <PUBCHEM_PHARMACOPHORE_FEATURES>  (1) 
10
1 1 cation
1 1 donor
1 2 donor
1 5 cation
1 5 donor
1 6 donor
4 3 4 6 17 cation
6 1 2 7 8 10 11 rings
6 3 4 10 11 12 17 rings
6 9 13 14 15 16 18 rings

>  <PUBCHEM_HEAVY_ATOM_COUNT>  (1) 
18

>  <PUBCHEM_ATOM_DEF_STEREO_COUNT>  (1) 
0

>  <PUBCHEM_ATOM_UDEF_STEREO_COUNT>  (1) 
1

>  <PUBCHEM_BOND_DEF_STEREO_COUNT>  (1) 
0

>  <PUBCHEM_BOND_UDEF_STEREO_COUNT>  (1) 
0

>  <PUBCHEM_ISOTOPIC_ATOM_COUNT>  (1) 
0

>  <PUBCHEM_COMPONENT_COUNT>  (1) 
1

>  <PUBCHEM_CACTVS_TAUTO_COUNT>  (1) 
17

>  <PUBCHEM_CONFORMER_ID>  (1) 
000005CC00000003

>  <PUBCHEM_MMFF94_ENERGY>  (1) 
74.0812

>  <PUBCHEM_FEATURE_SELFOVERLAP>  (1) 
50.792

>  <PUBCHEM_SHAPE_FINGERPRINT>  (1) 
10062212 137 18130783486541394575
10354089 29 18410016519929328283
10366900 7 17167860863800036913
11471102 20 18335417971884101934
12107183 9 17550956892790396099
12236239 1 18202843249310940543
12251169 10 18409731755123713279
12507557 5 18408602574115135617
12644460 14 18040710334168491170
13140716 1 18261956374654405506
13862211 1 18335414630858897298
14004511 7 18342178873125522697
14251717 144 18408882932015331375
15196674 1 18337954596516854028
15536298 74 18273217456402382918
15848702 151 18201723886202268350
17802600 8 18411133636849973261
18186145 218 18410291415116361815
19050596 39 18342741823464033505
200 152 18343857832156152031
20279233 1 16877664548236736315
20300324 65 17775564269435301231
20612939 158 18261394485600435796
21033648 29 17313649529942937077
21267235 1 18413396435905988127
21524375 3 18411419535574329623
21641784 216 17677349207931890044
21709351 56 18410004438592656325
22854114 111 18409169909156300009
22854114 59 18260548909550164963
23184049 59 18260831513765748981
23402539 116 17846773014304854405
23402655 69 18343018891355905703
23557571 272 16559035978127105649
23558518 356 17754455982301911074
23559900 14 18200590427643484576
26918003 58 18041001739378283953
335352 9 18408603669537648166
3545911 37 18343585131639429847
4214541 1 18413106169642594213
474 4 18408605889719059809
4990 188 17846224349328315662
5104073 3 18336825402385972482
633830 44 18413395340741932695
69090 78 18411696612425466383
9971528 1 18343303648204595108
9981440 41 17333635576123860560
9999458 23 17458345269085562582

>  <PUBCHEM_SHAPE_MULTIPOLES>  (1) 
340.55
9.99
1.81
0.82
1.5
0.36
-0.02
1.14
-0.51
-0.88
-0.01
0.61
0.04
-0.93

>  <PUBCHEM_SHAPE_SELFOVERLAP>  (1) 
744.366

>  <PUBCHEM_SHAPE_VOLUME>  (1) 
174.9

>  <PUBCHEM_COORDINATE_TYPE>  (1) 
2
5
10

$$$$
