14855
     RDKit          3D

  9  9  0  0  0  0  0  0  0  0999 V2000
    3.2165   -0.4417    0.0004 Cl  0  0  0  0  0  0  0  0  0  0  0  0
   -2.5083    0.8697    0.0013 O   0  0  0  0  0  0  0  0  0  0  0  0
   -0.7698   -0.7808   -0.0006 C   0  0  0  0  0  0  0  0  0  0  0  0
   -1.1836    0.5513   -0.0009 C   0  0  0  0  0  0  0  0  0  0  0  0
    0.5908   -1.0886    0.0000 C   0  0  0  0  0  0  0  0  0  0  0  0
   -1.7696   -1.8897    0.0000 C   0  0  0  0  0  0  0  0  0  0  0  0
   -0.2370    1.5757   -0.0005 C   0  0  0  0  0  0  0  0  0  0  0  0
    1.5375   -0.0640    0.0003 C   0  0  0  0  0  0  0  0  0  0  0  0
    1.1235    1.2681    0.0000 C   0  0  0  0  0  0  0  0  0  0  0  0
  1  8  1  0
  2  4  1  0
  3  4  2  0
  3  5  1  0
  3  6  1  0
  4  7  1  0
  5  8  2  0
  7  9  2  0
  8  9  1  0
M  END
>  <PUBCHEM_COMPOUND_CID>  (1) 
14855

>  <PUBCHEM_CONFORMER_RMSD>  (1) 
0.4

>  <PUBCHEM_CONFORMER_DIVERSEORDER>  (1) 
1

>  <PUBCHEM_MMFF94_PARTIAL_CHARGES>  (1) 
13
1 -0.18
10 0.15
14 0.15
15 0.15
16 0.45
2 -0.53
3 -0.14
4 0.08
5 -0.15
6 0.14
7 -0.15
8 0.18
9 -0.15

>  <PUBCHEM_EFFECTIVE_ROTOR_COUNT>  (1) 
0

>  <PUBCHEM_PHARMACOPHORE_FEATURES>  (1) 
2
1 2 donor
6 3 4 5 7 8 9 rings

>  <PUBCHEM_HEAVY_ATOM_COUNT>  (1) 
9

>  <PUBCHEM_ATOM_DEF_STEREO_COUNT>  (1) 
0

>  <PUBCHEM_ATOM_UDEF_STEREO_COUNT>  (1) 
0

>  <PUBCHEM_BOND_DEF_STEREO_COUNT>  (1) 
0

>  <PUBCHEM_BOND_UDEF_STEREO_COUNT>  (1) 
0

>  <PUBCHEM_ISOTOPIC_ATOM_COUNT>  (1) 
0

>  <PUBCHEM_COMPONENT_COUNT>  (1) 
1

>  <PUBCHEM_CACTVS_TAUTO_COUNT>  (1) 
3

>  <PUBCHEM_CONFORMER_ID>  (1) 
00003A0700000001

>  <PUBCHEM_MMFF94_ENERGY>  (1) 
20.3299

>  <PUBCHEM_FEATURE_SELFOVERLAP>  (1) 
10.148

>  <PUBCHEM_SHAPE_FINGERPRINT>  (1) 
12423570 1 12857308454148267807
14128692 85 18337397161654868812
15310529 11 16588304926039884064
16714656 1 18338237059573504068
16945 1 18338517439222849380
18185500 45 18407757036482499322
193761 8 18122344837408131653
20871998 184 18273497896455609670
21040471 1 18338517421932197413
23235685 24 18340482249211098088
23402655 69 17978772529806233805
23552423 10 18188209930719218710
2748010 2 18339076128526495684
5084963 1 18128822017515683618

>  <PUBCHEM_SHAPE_MULTIPOLES>  (1) 
181.22
3.43
1.8
0.61
1.65
0.06
0
0.68
0
-0.72
0
0.04
0.01
0

>  <PUBCHEM_SHAPE_SELFOVERLAP>  (1) 
367.309

>  <PUBCHEM_SHAPE_VOLUME>  (1) 
107.6

>  <PUBCHEM_COORDINATE_TYPE>  (1) 
2
5
10

$$$$
