14856
     RDKit          3D

  9  9  0  0  0  0  0  0  0  0999 V2000
    2.7876   -0.4963    0.0017 Cl  0  0  0  0  0  0  0  0  0  0  0  0
   -2.3080   -1.0516    0.0002 O   0  0  0  0  0  0  0  0  0  0  0  0
    0.0723   -0.7507   -0.0010 C   0  0  0  0  0  0  0  0  0  0  0  0
   -1.2215   -0.2292    0.0002 C   0  0  0  0  0  0  0  0  0  0  0  0
    1.1708    0.1092   -0.0016 C   0  0  0  0  0  0  0  0  0  0  0  0
    0.2586   -2.2356    0.0001 C   0  0  0  0  0  0  0  0  0  0  0  0
   -1.4167    1.1520    0.0009 C   0  0  0  0  0  0  0  0  0  0  0  0
    0.9753    1.4903   -0.0009 C   0  0  0  0  0  0  0  0  0  0  0  0
   -0.3184    2.0118    0.0004 C   0  0  0  0  0  0  0  0  0  0  0  0
  1  5  1  0
  2  4  1  0
  3  4  2  0
  3  5  1  0
  3  6  1  0
  4  7  1  0
  5  8  2  0
  7  9  2  0
  8  9  1  0
M  END
>  <PUBCHEM_COMPOUND_CID>  (1) 
14856

>  <PUBCHEM_CONFORMER_RMSD>  (1) 
0.4

>  <PUBCHEM_CONFORMER_DIVERSEORDER>  (1) 
1

>  <PUBCHEM_MMFF94_PARTIAL_CHARGES>  (1) 
13
1 -0.18
13 0.15
14 0.15
15 0.15
16 0.45
2 -0.53
3 -0.14
4 0.08
5 0.18
6 0.14
7 -0.15
8 -0.15
9 -0.15

>  <PUBCHEM_EFFECTIVE_ROTOR_COUNT>  (1) 
0

>  <PUBCHEM_PHARMACOPHORE_FEATURES>  (1) 
2
1 2 donor
6 3 4 5 7 8 9 rings

>  <PUBCHEM_HEAVY_ATOM_COUNT>  (1) 
9

>  <PUBCHEM_ATOM_DEF_STEREO_COUNT>  (1) 
0

>  <PUBCHEM_ATOM_UDEF_STEREO_COUNT>  (1) 
0

>  <PUBCHEM_BOND_DEF_STEREO_COUNT>  (1) 
0

>  <PUBCHEM_BOND_UDEF_STEREO_COUNT>  (1) 
0

>  <PUBCHEM_ISOTOPIC_ATOM_COUNT>  (1) 
0

>  <PUBCHEM_COMPONENT_COUNT>  (1) 
1

>  <PUBCHEM_CACTVS_TAUTO_COUNT>  (1) 
3

>  <PUBCHEM_CONFORMER_ID>  (1) 
00003A0800000001

>  <PUBCHEM_MMFF94_ENERGY>  (1) 
23.9408

>  <PUBCHEM_FEATURE_SELFOVERLAP>  (1) 
10.148

>  <PUBCHEM_SHAPE_FINGERPRINT>  (1) 
12423570 1 15755171271608105852
16945 1 18194402186690932996
18185500 45 18338234847464815087
193761 8 17834395622705662791
21040471 1 17762337320188093541
23552423 10 18117568323043201630
241688 4 18410855468728880097
2748010 2 18410006675832936069
5084963 1 18202283627740947898

>  <PUBCHEM_SHAPE_MULTIPOLES>  (1) 
181.22
2.7
2.21
0.61
1.15
0.25
0
0.22
0
-0.35
0
0.03
-0.02
0

>  <PUBCHEM_SHAPE_SELFOVERLAP>  (1) 
368.09

>  <PUBCHEM_SHAPE_VOLUME>  (1) 
107.1

>  <PUBCHEM_COORDINATE_TYPE>  (1) 
2
5
10

$$$$
