1485
     RDKit          3D

 10 10  0  0  0  0  0  0  0  0999 V2000
    1.2961   -2.3458   -0.1017 Cl  0  0  0  0  0  0  0  0  0  0  0  0
   -3.5827   -0.1047    0.2791 Cl  0  0  0  0  0  0  0  0  0  0  0  0
    2.9732    0.7011    0.8562 N   0  0  0  0  0  0  0  0  0  0  0  0
    0.8726    0.3411   -0.2660 C   0  0  0  0  0  0  0  0  0  0  0  0
    2.3437    0.5321   -0.4495 C   0  0  0  0  0  0  0  0  0  0  0  0
    0.3138   -0.9264   -0.1020 C   0  0  0  0  0  0  0  0  0  0  0  0
    0.0539    1.4704   -0.2613 C   0  0  0  0  0  0  0  0  0  0  0  0
   -1.0640   -1.0647    0.0667 C   0  0  0  0  0  0  0  0  0  0  0  0
   -1.3238    1.3321   -0.0928 C   0  0  0  0  0  0  0  0  0  0  0  0
   -1.8828    0.0647    0.0712 C   0  0  0  0  0  0  0  0  0  0  0  0
  1  6  1  0
  2 10  1  0
  3  5  1  0
  4  5  1  0
  4  6  2  0
  4  7  1  0
  6  8  1  0
  7  9  2  0
  8 10  2  0
  9 10  1  0
M  END
>  <PUBCHEM_COMPOUND_CID>  (1) 
1485

>  <PUBCHEM_CONFORMER_RMSD>  (1) 
0.4

>  <PUBCHEM_CONFORMER_DIVERSEORDER>  (1) 
2
3
1

>  <PUBCHEM_MMFF94_PARTIAL_CHARGES>  (1) 
15
1 -0.18
10 0.18
13 0.15
14 0.15
15 0.15
16 0.36
17 0.36
2 -0.18
3 -0.99
4 -0.14
5 0.41
6 0.18
7 -0.15
8 -0.15
9 -0.15

>  <PUBCHEM_EFFECTIVE_ROTOR_COUNT>  (1) 
1

>  <PUBCHEM_PHARMACOPHORE_FEATURES>  (1) 
3
1 3 cation
1 3 donor
6 4 6 7 8 9 10 rings

>  <PUBCHEM_HEAVY_ATOM_COUNT>  (1) 
10

>  <PUBCHEM_ATOM_DEF_STEREO_COUNT>  (1) 
0

>  <PUBCHEM_ATOM_UDEF_STEREO_COUNT>  (1) 
0

>  <PUBCHEM_BOND_DEF_STEREO_COUNT>  (1) 
0

>  <PUBCHEM_BOND_UDEF_STEREO_COUNT>  (1) 
0

>  <PUBCHEM_ISOTOPIC_ATOM_COUNT>  (1) 
0

>  <PUBCHEM_COMPONENT_COUNT>  (1) 
1

>  <PUBCHEM_CACTVS_TAUTO_COUNT>  (1) 
1

>  <PUBCHEM_CONFORMER_ID>  (1) 
000005CD00000002

>  <PUBCHEM_MMFF94_ENERGY>  (1) 
19.654

>  <PUBCHEM_FEATURE_SELFOVERLAP>  (1) 
15.223

>  <PUBCHEM_SHAPE_FINGERPRINT>  (1) 
10219947 1 18335422399926922649
10857977 72 18336264634471252097
13380535 76 18336264625923820731
161256 15 18267029357811493494
16945 1 18409454708326954069
193761 8 17977386036203645413
20645477 70 18339640024174848479
21040471 1 18410017632431385396
21501502 16 18194690254363107381
23235685 24 18408603694748210933
23402655 69 18267007394409344157
23552423 10 18116163159693142535
241688 4 17901957339425207576
2748010 2 18191870015875749149
29004967 10 18261403247227918953
369184 2 18131345340988121848
5084963 1 18272101491007973548
528862 383 18334852784047354859
528886 8 18411136982465635299
53812653 166 18343863346414235753
7364860 26 18200594666422907542

>  <PUBCHEM_SHAPE_MULTIPOLES>  (1) 
204.55
4.17
1.89
0.72
1.66
0.83
0.04
-0.33
0.7
-0.78
-0.09
-0.2
-0.06
0.18

>  <PUBCHEM_SHAPE_SELFOVERLAP>  (1) 
404.221

>  <PUBCHEM_SHAPE_VOLUME>  (1) 
123.7

>  <PUBCHEM_COORDINATE_TYPE>  (1) 
2
5
10

$$$$
