14867
     RDKit          3D

 13 13  0  0  1  0  0  0  0  0999 V2000
    3.3952    1.0388   -0.8786 O   0  0  0  0  0  0  0  0  0  0  0  0
   -2.1679    0.4580   -0.0297 C   0  0  0  0  0  0  0  0  0  0  0  0
   -1.0766    0.4342    1.0651 C   0  0  0  0  0  0  0  0  0  0  0  0
   -2.7899   -0.9402   -0.2279 C   0  0  0  0  0  0  0  0  0  0  0  0
    0.2545   -0.1043    0.5989 C   0  0  0  0  0  0  0  0  0  0  0  0
   -3.2278    1.5001    0.3465 C   0  0  0  0  0  0  0  0  0  0  0  0
    1.2116    0.7482    0.0698 C   0  0  0  0  0  0  0  0  0  0  0  0
   -3.8719   -0.9837   -1.2987 C   0  0  0  0  0  0  0  0  0  0  0  0
    0.4915   -1.4662    0.7139 C   0  0  0  0  0  0  0  0  0  0  0  0
    2.4343    0.2273   -0.3541 C   0  0  0  0  0  0  0  0  0  0  0  0
    0.9475    2.2152   -0.0509 C   0  0  0  0  0  0  0  0  0  0  0  0
    1.7140   -1.9870    0.2898 C   0  0  0  0  0  0  0  0  0  0  0  0
    2.6855   -1.1403   -0.2440 C   0  0  0  0  0  0  0  0  0  0  0  0
  1 10  1  0
  2  3  1  0
  2  4  1  0
  2  6  1  0
  3  5  1  0
  4  8  1  0
  5  7  2  0
  5  9  1  0
  7 10  1  0
  7 11  1  0
  9 12  2  0
 10 13  2  0
 12 13  1  0
M  END
>  <PUBCHEM_COMPOUND_CID>  (1) 
14867

>  <PUBCHEM_CONFORMER_RMSD>  (1) 
0.6

>  <PUBCHEM_CONFORMER_DIVERSEORDER>  (1) 
3
18
13
17
14
22
6
12
19
10
4
20
15
21
5
11
16
7
8
9
1
2

>  <PUBCHEM_MMFF94_PARTIAL_CHARGES>  (1) 
13
1 -0.53
10 0.08
11 0.14
12 -0.15
13 -0.15
25 0.15
29 0.15
3 0.14
30 0.15
31 0.45
5 -0.14
7 -0.14
9 -0.15

>  <PUBCHEM_EFFECTIVE_ROTOR_COUNT>  (1) 
3

>  <PUBCHEM_PHARMACOPHORE_FEATURES>  (1) 
4
1 1 donor
1 6 hydrophobe
1 8 hydrophobe
6 5 7 9 10 12 13 rings

>  <PUBCHEM_HEAVY_ATOM_COUNT>  (1) 
13

>  <PUBCHEM_ATOM_DEF_STEREO_COUNT>  (1) 
0

>  <PUBCHEM_ATOM_UDEF_STEREO_COUNT>  (1) 
1

>  <PUBCHEM_BOND_DEF_STEREO_COUNT>  (1) 
0

>  <PUBCHEM_BOND_UDEF_STEREO_COUNT>  (1) 
0

>  <PUBCHEM_ISOTOPIC_ATOM_COUNT>  (1) 
0

>  <PUBCHEM_COMPONENT_COUNT>  (1) 
1

>  <PUBCHEM_CACTVS_TAUTO_COUNT>  (1) 
9

>  <PUBCHEM_CONFORMER_ID>  (1) 
00003A1300000003

>  <PUBCHEM_MMFF94_ENERGY>  (1) 
29.8414

>  <PUBCHEM_FEATURE_SELFOVERLAP>  (1) 
20.298

>  <PUBCHEM_SHAPE_FINGERPRINT>  (1) 
11031198 65 18114762450720106417
11769659 78 18130499756343057887
12138202 97 17386292119795688187
12400797 292 18127686247910943511
12897270 3 18335978783144269795
12932764 1 18131353007641817633
13296908 3 16702293555686391915
13764800 53 14129622082994359949
14128692 85 18201434761904361147
14250199 8 18337109089730068189
14251717 144 18408036325299861342
14576447 43 18342731957439228471
15757776 16 18411412912724118814
15775835 57 18409457963885836205
16945 1 18338802341472653746
18186145 218 17313392188197389130
19422 9 18343021056151505975
21501502 16 18410008797852410483
21634736 98 18055907942653610351
23402539 116 18412263909476251820
23402655 69 18337108969434067077
23552423 10 18411696604172752209
23598291 2 18270120098240620279
25 1 18186810161959022096
2748010 2 17545333328742548192
3082319 5 18411134723587053311
57096353 35 18412263973415419327
63268167 104 18337680732306809080
7832392 63 18339643322192805817
8030462 33 18413100676231800963
9939556 21 18340486639015619945

>  <PUBCHEM_SHAPE_MULTIPOLES>  (1) 
261.66
5.8
2.04
0.98
3.3
0.22
0.05
-0.47
2.09
-0.44
0
0.33
-0.1
-0.91

>  <PUBCHEM_SHAPE_SELFOVERLAP>  (1) 
527.858

>  <PUBCHEM_SHAPE_VOLUME>  (1) 
155

>  <PUBCHEM_COORDINATE_TYPE>  (1) 
2
5
10

$$$$
