14863
     RDKit          3D

 12 12  0  0  0  0  0  0  0  0999 V2000
    5.2812   -0.0820   -0.1715 O   0  0  0  0  0  0  0  0  0  0  0  0
    0.4923   -0.0846    0.9482 C   0  0  0  0  0  0  0  0  0  0  0  0
    1.5253   -0.1868   -0.1762 C   0  0  0  0  0  0  0  0  0  0  0  0
   -0.9166   -0.1773    0.4206 C   0  0  0  0  0  0  0  0  0  0  0  0
    2.9475   -0.0557    0.3648 C   0  0  0  0  0  0  0  0  0  0  0  0
   -1.6025    0.9679    0.0407 C   0  0  0  0  0  0  0  0  0  0  0  0
    3.9842   -0.1984   -0.7404 C   0  0  0  0  0  0  0  0  0  0  0  0
   -1.5080   -1.4296    0.3247 C   0  0  0  0  0  0  0  0  0  0  0  0
   -2.9056    0.8589   -0.4449 C   0  0  0  0  0  0  0  0  0  0  0  0
   -0.9769    2.3205    0.1403 C   0  0  0  0  0  0  0  0  0  0  0  0
   -2.8111   -1.5385   -0.1609 C   0  0  0  0  0  0  0  0  0  0  0  0
   -3.5098   -0.3945   -0.5456 C   0  0  0  0  0  0  0  0  0  0  0  0
  1  7  1  0
  2  3  1  0
  2  4  1  0
  3  5  1  0
  4  6  2  0
  4  8  1  0
  5  7  1  0
  6  9  1  0
  6 10  1  0
  8 11  2  0
  9 12  2  0
 11 12  1  0
M  END
>  <PUBCHEM_COMPOUND_CID>  (1) 
14863

>  <PUBCHEM_CONFORMER_RMSD>  (1) 
0.6

>  <PUBCHEM_CONFORMER_DIVERSEORDER>  (1) 
2
18
22
21
8
12
9
5
6
13
17
11
4
20
10
16
15
1
14
19
7
3

>  <PUBCHEM_MMFF94_PARTIAL_CHARGES>  (1) 
15
1 -0.68
10 0.14
11 -0.15
12 -0.15
2 0.14
21 0.15
22 0.15
26 0.15
27 0.15
28 0.4
4 -0.14
6 -0.14
7 0.28
8 -0.15
9 -0.15

>  <PUBCHEM_EFFECTIVE_ROTOR_COUNT>  (1) 
4

>  <PUBCHEM_PHARMACOPHORE_FEATURES>  (1) 
3
1 1 acceptor
1 1 donor
6 4 6 8 9 11 12 rings

>  <PUBCHEM_HEAVY_ATOM_COUNT>  (1) 
12

>  <PUBCHEM_ATOM_DEF_STEREO_COUNT>  (1) 
0

>  <PUBCHEM_ATOM_UDEF_STEREO_COUNT>  (1) 
0

>  <PUBCHEM_BOND_DEF_STEREO_COUNT>  (1) 
0

>  <PUBCHEM_BOND_UDEF_STEREO_COUNT>  (1) 
0

>  <PUBCHEM_ISOTOPIC_ATOM_COUNT>  (1) 
0

>  <PUBCHEM_COMPONENT_COUNT>  (1) 
1

>  <PUBCHEM_CACTVS_TAUTO_COUNT>  (1) 
1

>  <PUBCHEM_CONFORMER_ID>  (1) 
00003A0F00000002

>  <PUBCHEM_MMFF94_ENERGY>  (1) 
23.0386

>  <PUBCHEM_FEATURE_SELFOVERLAP>  (1) 
15.223

>  <PUBCHEM_SHAPE_FINGERPRINT>  (1) 
13024252 1 17458067062605220931
14911166 2 18337098034747615671
15775835 57 17530962440963081996
16945 1 18263905744709848739
17134986 127 17327738397026720485
17870717 6 18200047161461832134
187816 3 18260264161829603723
1986462 14 18341616997198749110
20201158 50 18060138730126692358
20300324 65 18409450288948057204
20645476 183 17676481765886863363
20645477 56 18338520733362804992
20871999 31 18336535071824890061
21061003 4 16845573136130890994
21119208 17 18186519912527734022
22213442 358 18269271438198427813
23402539 116 18411131428999016852
23557571 272 18272939301693900380
23559900 14 18341888572634493290
2748010 2 17975113651302527515
4175511 318 18259980457553772943
528716 315 18334859428482827595
573450 72 18261662680785940306

>  <PUBCHEM_SHAPE_MULTIPOLES>  (1) 
241.09
7.62
1.61
0.82
10.97
0.63
0.03
-1.25
-1.99
-1.53
0.06
0.1
-0.03
0.06

>  <PUBCHEM_SHAPE_SELFOVERLAP>  (1) 
482.303

>  <PUBCHEM_SHAPE_VOLUME>  (1) 
143.2

>  <PUBCHEM_COORDINATE_TYPE>  (1) 
2
5
10

$$$$
