14861
     RDKit          3D

 12 11  0  0  1  0  0  0  0  0999 V2000
    1.9287    1.4682   -0.5066 O   0  0  0  0  0  0  0  0  0  0  0  0
    2.8058   -1.1733   -1.1245 O   0  0  0  0  0  0  0  0  0  0  0  0
   -0.9307    0.7796   -0.0053 C   0  0  0  0  0  0  0  0  0  0  0  0
    0.2483   -0.2266   -0.0802 C   0  0  0  0  0  0  0  0  0  0  0  0
    1.6180    0.3524    0.3232 C   0  0  0  0  0  0  0  0  0  0  0  0
   -2.2041    0.1814   -0.6717 C   0  0  0  0  0  0  0  0  0  0  0  0
    2.7385   -0.6954    0.2160 C   0  0  0  0  0  0  0  0  0  0  0  0
   -1.1691    1.2600    1.4328 C   0  0  0  0  0  0  0  0  0  0  0  0
   -3.3341    1.2075   -0.7956 C   0  0  0  0  0  0  0  0  0  0  0  0
    4.1001   -0.1245    0.6005 C   0  0  0  0  0  0  0  0  0  0  0  0
   -2.6986   -1.0238    0.0255 C   0  0  0  0  0  0  0  0  0  0  0  0
   -3.1028   -2.0056    0.5861 C   0  0  0  0  0  0  0  0  0  0  0  0
  1  5  1  0
  2  7  1  0
  3  4  1  0
  3  6  1  0
  3  8  1  0
  4  5  1  0
  5  7  1  0
  6  9  1  0
  6 11  1  0
  7 10  1  0
 11 12  3  0
M  END
>  <PUBCHEM_COMPOUND_CID>  (1) 
14861

>  <PUBCHEM_CONFORMER_RMSD>  (1) 
0.6

>  <PUBCHEM_CONFORMER_DIVERSEORDER>  (1) 
3
127
88
108
148
26
5
52
115
105
101
61
149
147
62
72
95
145
124
99
2
78
86
93
142
54
138
113
135
131
79
92
77
140
98
107
122
91
144
63
143
51
114
28
60
133
130
146
83
29
41
68
21
106
125
6
102
110
128
85
56
111
103
123
49
9
65
17
64
46
8
14
90
58
136
137
69
35
139
34
73
1
94
121
67
141
27
33
112
22
23
44
32
70
109
20
11
76
117
45
47
116
50
13
126
10
96
104
19
75
100
57
82
74
118
31
87
42
55
81
48
43
37
15
134
132
71
120
4
89
129
39
30
66
38
97
53
119
24
40
59
80
18
7
84
16
12
36
25

>  <PUBCHEM_MMFF94_PARTIAL_CHARGES>  (1) 
10
1 -0.68
11 -0.2
12 -0.18
2 -0.68
28 0.4
29 0.4
30 0.18
5 0.28
6 0.2
7 0.28

>  <PUBCHEM_EFFECTIVE_ROTOR_COUNT>  (1) 
4

>  <PUBCHEM_PHARMACOPHORE_FEATURES>  (1) 
8
1 1 acceptor
1 1 donor
1 12 hydrophobe
1 2 acceptor
1 2 donor
1 8 hydrophobe
1 9 hydrophobe
4 3 4 6 11 hydrophobe

>  <PUBCHEM_HEAVY_ATOM_COUNT>  (1) 
12

>  <PUBCHEM_ATOM_DEF_STEREO_COUNT>  (1) 
0

>  <PUBCHEM_ATOM_UDEF_STEREO_COUNT>  (1) 
4

>  <PUBCHEM_BOND_DEF_STEREO_COUNT>  (1) 
0

>  <PUBCHEM_BOND_UDEF_STEREO_COUNT>  (1) 
0

>  <PUBCHEM_ISOTOPIC_ATOM_COUNT>  (1) 
0

>  <PUBCHEM_COMPONENT_COUNT>  (1) 
1

>  <PUBCHEM_CACTVS_TAUTO_COUNT>  (1) 
1

>  <PUBCHEM_CONFORMER_ID>  (1) 
00003A0D00000003

>  <PUBCHEM_MMFF94_ENERGY>  (1) 
19.7525

>  <PUBCHEM_FEATURE_SELFOVERLAP>  (1) 
40.76

>  <PUBCHEM_SHAPE_FINGERPRINT>  (1) 
11769659 78 18261669376065090763
12500047 106 18188478086923242765
12716758 59 18334847317081254433
12932764 1 17167852054711388325
13296908 3 18411134757561747627
14325111 11 18334009518800324436
15375358 24 18201145577376860606
15775835 57 17676483900152916762
18186145 218 12973894693248230078
19107657 162 18273217486678267502
20201158 50 18342734100633053751
20279233 1 18272084980969155958
20281407 28 17274816960903019598
20645477 56 18187922833678271285
20645477 70 17416961738538182246
20653085 51 17821731619934606253
21061003 4 17775003543916263057
22169311 21 18411410683667753550
22485316 2 18041271085319916754
22959321 105 18335700572042134168
23402539 116 15357687566222531990
23559900 14 18339633452790184154
3248919 1 18201441350341975516
3312278 4 18411697673261042755
57812782 119 18409724071374466742
58051976 378 17899700342864592196
8030462 33 17775290426167329588
81228 2 17773323339646461273
93112 12 18259981569960923309
9939556 21 18113054934995336181

>  <PUBCHEM_SHAPE_MULTIPOLES>  (1) 
235.22
6.75
1.65
1.04
3.35
0.34
-0.14
1.62
0.27
-1.27
-0.13
-0.12
-0.15
0.55

>  <PUBCHEM_SHAPE_SELFOVERLAP>  (1) 
437.943

>  <PUBCHEM_SHAPE_VOLUME>  (1) 
147.3

>  <PUBCHEM_COORDINATE_TYPE>  (1) 
2
5
10

$$$$
