14874
     RDKit          3D

 20 21  0  0  0  0  0  0  0  0999 V2000
   -3.1201   -1.9723   -0.0869 S   0  0  0  0  0  0  0  0  0  0  0  0
   -3.4661   -2.2735    1.4824 O   0  0  0  0  0  0  0  0  0  0  0  0
   -4.2702   -1.2801   -0.6499 O   0  0  0  0  0  0  0  0  0  0  0  0
   -2.6292   -3.2037   -0.6855 O   0  0  0  0  0  0  0  0  0  0  0  0
   -0.9493    1.4131   -0.0081 C   0  0  0  0  0  0  0  0  0  0  0  0
    0.3754    0.9467   -0.0018 C   0  0  0  0  0  0  0  0  0  0  0  0
   -1.2764    2.8745    0.0124 C   0  0  0  0  0  0  0  0  0  0  0  0
    0.6184   -0.4473   -0.0222 C   0  0  0  0  0  0  0  0  0  0  0  0
    3.0128   -0.0185    0.0098 C   0  0  0  0  0  0  0  0  0  0  0  0
    4.4130   -0.5308    0.0155 C   0  0  0  0  0  0  0  0  0  0  0  0
    1.9431   -0.9137   -0.0161 C   0  0  0  0  0  0  0  0  0  0  0  0
   -2.0191    0.5179   -0.0340 C   0  0  0  0  0  0  0  0  0  0  0  0
   -1.7800   -0.8530   -0.0541 C   0  0  0  0  0  0  0  0  0  0  0  0
    1.4641    1.8334    0.0241 C   0  0  0  0  0  0  0  0  0  0  0  0
   -0.4704   -1.3340   -0.0482 C   0  0  0  0  0  0  0  0  0  0  0  0
    2.7738    1.3525    0.0300 C   0  0  0  0  0  0  0  0  0  0  0  0
   -2.0355    3.3195   -1.2492 C   0  0  0  0  0  0  0  0  0  0  0  0
   -2.0625    3.2780    1.2713 C   0  0  0  0  0  0  0  0  0  0  0  0
    4.7517   -1.3338   -1.2549 C   0  0  0  0  0  0  0  0  0  0  0  0
    4.7266   -1.3749    1.2655 C   0  0  0  0  0  0  0  0  0  0  0  0
  1  2  1  0
  1  3  2  0
  1  4  2  0
  1 13  1  0
  5  6  2  0
  5  7  1  0
  5 12  1  0
  6  8  1  0
  6 14  1  0
  7 17  1  0
  7 18  1  0
  8 11  1  0
  8 15  2  0
  9 10  1  0
  9 11  2  0
  9 16  1  0
 10 19  1  0
 10 20  1  0
 12 13  2  0
 13 15  1  0
 14 16  2  0
M  END
>  <PUBCHEM_COMPOUND_CID>  (1) 
14874

>  <PUBCHEM_CONFORMER_RMSD>  (1) 
0.6

>  <PUBCHEM_CONFORMER_DIVERSEORDER>  (1) 
1
4
2
3

>  <PUBCHEM_MMFF94_PARTIAL_CHARGES>  (1) 
20
1 1.49
10 0.14
11 -0.15
12 -0.15
13 -0.01
14 -0.15
15 -0.15
16 -0.15
2 -0.68
23 0.15
24 0.15
25 0.15
26 0.15
27 0.15
3 -0.65
4 -0.65
40 0.5
5 -0.14
7 0.14
9 -0.14

>  <PUBCHEM_EFFECTIVE_ROTOR_COUNT>  (1) 
3

>  <PUBCHEM_PHARMACOPHORE_FEATURES>  (1) 
8
1 2 acceptor
1 3 acceptor
1 4 acceptor
3 10 19 20 hydrophobe
3 7 17 18 hydrophobe
4 1 2 3 4 anion
6 5 6 8 12 13 15 rings
6 6 8 9 11 14 16 rings

>  <PUBCHEM_HEAVY_ATOM_COUNT>  (1) 
20

>  <PUBCHEM_ATOM_DEF_STEREO_COUNT>  (1) 
0

>  <PUBCHEM_ATOM_UDEF_STEREO_COUNT>  (1) 
0

>  <PUBCHEM_BOND_DEF_STEREO_COUNT>  (1) 
0

>  <PUBCHEM_BOND_UDEF_STEREO_COUNT>  (1) 
0

>  <PUBCHEM_ISOTOPIC_ATOM_COUNT>  (1) 
0

>  <PUBCHEM_COMPONENT_COUNT>  (1) 
1

>  <PUBCHEM_CACTVS_TAUTO_COUNT>  (1) 
1

>  <PUBCHEM_CONFORMER_ID>  (1) 
00003A1A00000001

>  <PUBCHEM_MMFF94_ENERGY>  (1) 
51.2108

>  <PUBCHEM_FEATURE_SELFOVERLAP>  (1) 
40.678

>  <PUBCHEM_SHAPE_FINGERPRINT>  (1) 
10062212 137 18042681702998815234
10319926 262 18125976332201801930
10618630 7 18337951310998799950
10967382 1 17906451382903403108
11543360 7 15719674367803285790
11578080 2 17416663908399958985
116883 192 18413392050891916286
12032990 46 18337113491675926939
12553582 1 18338802324520215766
12643181 29 17908146478601781486
12788726 201 18408890654809758434
13004483 165 18340199791071849251
13052359 8 18191863431490677377
13134695 92 18055628675759555581
13140716 1 18410859897203957825
13583140 156 14692296101293015194
138480 1 15817346845925255421
13955234 65 17259906742118868763
14178342 30 18266162956172018090
14508225 48 18409721893874027717
14790565 3 17185315881237485381
14866123 147 18268153054606036595
15042514 8 18265336118484109984
15885798 251 18338237175500892795
16752209 62 18335972087021450938
16945 1 18411136887955372644
17357779 13 18340753918956710205
19591789 44 17475524871438115229
20510252 161 18342172284751465392
20645477 70 18267579289677245486
20739085 24 18121527861972483555
20871999 31 18337968800802033342
21041028 32 18265911305273942595
21267235 1 18338524130782344831
21478907 32 18410289211877506839
21501502 16 18408892836727198892
21524375 3 17973165028286979377
221490 88 17759242186429688843
2255824 54 17256529046350156637
23184049 29 18410853283012564736
2334 1 18194402418845786461
23402539 116 18272078401585576447
23419403 2 14006502184898116963
23557571 272 18059021570931679196
23558518 356 18334017198566229912
23559900 14 18340476838127487040
25147074 1 18261120664651098228
2748010 2 18267292313084480469
283562 15 18409728456483653459
3091708 16 8989165636443193449
312423 11 18261689133399864684
335352 9 18411135805955871917
350125 39 18411704287832938528
352729 6 18269557143560072292
458136 41 16893441741363098193
5104073 3 18340761539035711266
54173680 148 18411136909472556520
559249 180 17972871467799844618
58779409 54 18338783533958687629
59755656 520 17982459191492026969
68521 5 18409166606146997605
7164475 11 18408603677990452140
7364860 26 17476639153907061889
81228 2 18408893923169087697
9709674 26 18272086033679112406

>  <PUBCHEM_SHAPE_MULTIPOLES>  (1) 
397.83
8.06
3.83
1.05
8.19
1.26
0.11
-4.69
0.03
-5.27
-0.01
0.02
0.05
0.06

>  <PUBCHEM_SHAPE_SELFOVERLAP>  (1) 
832.854

>  <PUBCHEM_SHAPE_VOLUME>  (1) 
228.5

>  <PUBCHEM_COORDINATE_TYPE>  (1) 
2
5
10

$$$$
