14880
     RDKit          3D

 20 23  0  0  1  0  0  0  0  0999 V2000
   -5.0360    0.2883    0.6322 O   0  0  0  0  0  0  0  0  0  0  0  0
    5.8484   -0.1372    0.1593 O   0  0  0  0  0  0  0  0  0  0  0  0
   -2.7418   -0.6078    0.4411 C   0  0  0  0  0  0  0  0  0  0  0  0
   -2.0723    0.7541    0.1538 C   0  0  0  0  0  0  0  0  0  0  0  0
   -0.5465    0.7454    0.3633 C   0  0  0  0  0  0  0  0  0  0  0  0
    0.1702   -0.3997   -0.3941 C   0  0  0  0  0  0  0  0  0  0  0  0
   -4.1335   -0.4255   -0.2099 C   0  0  0  0  0  0  0  0  0  0  0  0
   -1.9751   -1.7596   -0.2511 C   0  0  0  0  0  0  0  0  0  0  0  0
   -2.5487    1.1233   -1.2606 C   0  0  0  0  0  0  0  0  0  0  0  0
   -0.4666   -1.7439    0.0093 C   0  0  0  0  0  0  0  0  0  0  0  0
   -3.8819    0.3977   -1.4756 C   0  0  0  0  0  0  0  0  0  0  0  0
    0.0945    2.0852   -0.0080 C   0  0  0  0  0  0  0  0  0  0  0  0
   -2.8445   -0.8825    1.9506 C   0  0  0  0  0  0  0  0  0  0  0  0
    1.6857   -0.3325   -0.2122 C   0  0  0  0  0  0  0  0  0  0  0  0
    1.5355    2.1226    0.4898 C   0  0  0  0  0  0  0  0  0  0  0  0
    2.3161    0.8722    0.1688 C   0  0  0  0  0  0  0  0  0  0  0  0
    2.4983   -1.4415   -0.5089 C   0  0  0  0  0  0  0  0  0  0  0  0
    3.7149    0.9195    0.3033 C   0  0  0  0  0  0  0  0  0  0  0  0
    3.8875   -1.3783   -0.3816 C   0  0  0  0  0  0  0  0  0  0  0  0
    4.4959   -0.1998    0.0306 C   0  0  0  0  0  0  0  0  0  0  0  0
  1  7  1  0
  2 20  1  0
  3  4  1  0
  3  7  1  0
  3  8  1  0
  3 13  1  0
  4  5  1  0
  4  9  1  0
  5  6  1  0
  5 12  1  0
  6 10  1  0
  6 14  1  0
  7 11  1  0
  8 10  1  0
  9 11  1  0
 12 15  1  0
 14 16  2  0
 14 17  1  0
 15 16  1  0
 16 18  1  0
 17 19  2  0
 18 20  2  0
 19 20  1  0
M  END
>  <PUBCHEM_COMPOUND_CID>  (1) 
14880

>  <PUBCHEM_CONFORMER_RMSD>  (1) 
0.6

>  <PUBCHEM_CONFORMER_DIVERSEORDER>  (1) 
1
2

>  <PUBCHEM_MMFF94_PARTIAL_CHARGES>  (1) 
16
1 -0.68
14 -0.14
15 0.14
16 -0.14
17 -0.15
18 -0.15
19 -0.15
2 -0.53
20 0.08
40 0.4
41 0.15
42 0.15
43 0.15
44 0.45
6 0.14
7 0.28

>  <PUBCHEM_EFFECTIVE_ROTOR_COUNT>  (1) 
1.4

>  <PUBCHEM_PHARMACOPHORE_FEATURES>  (1) 
7
1 1 acceptor
1 1 donor
1 2 donor
5 3 4 7 9 11 rings
6 14 16 17 18 19 20 rings
6 3 4 5 6 8 10 rings
6 5 6 12 14 15 16 rings

>  <PUBCHEM_HEAVY_ATOM_COUNT>  (1) 
20

>  <PUBCHEM_ATOM_DEF_STEREO_COUNT>  (1) 
4

>  <PUBCHEM_ATOM_UDEF_STEREO_COUNT>  (1) 
0

>  <PUBCHEM_BOND_DEF_STEREO_COUNT>  (1) 
0

>  <PUBCHEM_BOND_UDEF_STEREO_COUNT>  (1) 
0

>  <PUBCHEM_ISOTOPIC_ATOM_COUNT>  (1) 
0

>  <PUBCHEM_COMPONENT_COUNT>  (1) 
1

>  <PUBCHEM_CACTVS_TAUTO_COUNT>  (1) 
9

>  <PUBCHEM_CONFORMER_ID>  (1) 
00003A2000000001

>  <PUBCHEM_MMFF94_ENERGY>  (1) 
65.486

>  <PUBCHEM_FEATURE_SELFOVERLAP>  (1) 
35.728

>  <PUBCHEM_SHAPE_FINGERPRINT>  (1) 
10 15 18262508300234231136
10366900 7 17822006545054379899
10906281 52 18270419251366031260
10967382 1 18413108355543830862
11132069 177 18342170098802768642
11471102 20 18342454863671674028
11796584 16 17240476980049577594
12011746 2 18411133623748456060
12186901 62 17312814966616165653
12236239 1 17060621096580364293
12403259 415 18335411374709347037
124424 183 18333729130418600138
12507557 5 18271807964157832186
12553582 1 18271540748889379356
12596602 18 16128366112643976362
13140716 1 18198341951907308258
13296908 3 18334297582235690210
13583140 156 17748823025097062914
13675066 3 18187366570788079866
13862211 1 18341606006472663542
14115302 16 18186810200909146590
14289901 80 14836410245891881998
14386348 63 18409168809544400042
15099037 51 18409726262071525389
15163728 17 15794232075652958671
15196674 1 18340768259768043466
15309172 13 18201446890881689231
15375358 24 18410851062414116038
15653759 3 17967816076126817073
15788980 27 16877943828305641568
15848702 151 17775292620705707655
16945 1 18271533086203512585
17349148 13 17989483026367548446
17357779 13 18338786845283767820
17804303 29 18335424603202863101
18186145 218 18410287012975323799
18219364 16 18410580604002275947
19141452 34 18343303699538734143
200 152 17775280569174985895
20279233 1 18409732858919960246
20645477 70 18413670210275252142
21029758 11 18272646835653318600
21033648 29 18336251397218898673
21267235 1 18341058458234990406
21279426 13 18120933910581103455
221490 88 18265616670174701194
23175994 123 18410017628031137381
23184049 59 18272658947497737159
23402539 116 18059851748954227628
23493267 7 17676200247823037433
23557571 272 17822007588562868276
23559900 14 18270392910495590224
26918003 58 18186522111704009434
2748010 2 18409728495080005372
2871803 45 18410292467926765526
335352 9 18412826888792902340
34934 24 18413101775796481574
4921388 177 16153717543492013339
5104073 3 18341048639596854722
542803 24 14779548976360272734
69090 78 18343578559928309351
8809292 202 18262238923024975370
9709674 26 18192147311707063675

>  <PUBCHEM_SHAPE_MULTIPOLES>  (1) 
399.85
9.44
1.89
1.09
4.55
0.26
0.14
-1.02
-0.05
0.44
0.01
-1.2
-0.04
0.84

>  <PUBCHEM_SHAPE_SELFOVERLAP>  (1) 
871.309

>  <PUBCHEM_SHAPE_VOLUME>  (1) 
216.6

>  <PUBCHEM_COORDINATE_TYPE>  (1) 
2
5
10

$$$$
