14886
     RDKit          3D

 36 39  0  0  0  0  0  0  0  0999 V2000
    0.1415    5.4456    0.0077 N   0  0  0  0  0  0  0  0  0  0  0  0
    5.0500   -2.6200    0.0916 N   0  0  0  0  0  0  0  0  0  0  0  0
   -3.7352   -2.0579   -2.2030 N   0  0  0  0  0  0  0  0  0  0  0  0
    0.0261   -0.0250    0.1333 C   0  0  0  0  0  0  0  0  0  0  0  0
   -1.2574   -0.7083    0.1756 C   0  0  0  0  0  0  0  0  0  0  0  0
    0.0548    1.3355    0.1015 C   0  0  0  0  0  0  0  0  0  0  0  0
    1.3604   -0.7146    0.1220 C   0  0  0  0  0  0  0  0  0  0  0  0
   -3.7355   -2.0273    0.2589 C   0  0  0  0  0  0  0  0  0  0  0  0
   -3.1274   -1.7187   -0.9689 C   0  0  0  0  0  0  0  0  0  0  0  0
   -3.0857   -1.6662    1.4631 C   0  0  0  0  0  0  0  0  0  0  0  0
   -1.8964   -1.0634   -1.0087 C   0  0  0  0  0  0  0  0  0  0  0  0
   -1.8470   -1.0071    1.4042 C   0  0  0  0  0  0  0  0  0  0  0  0
    0.1144    4.1622    0.0375 C   0  0  0  0  0  0  0  0  0  0  0  0
    3.7966   -1.9731    0.1019 C   0  0  0  0  0  0  0  0  0  0  0  0
    1.3274    2.0398    0.0601 C   0  0  0  0  0  0  0  0  0  0  0  0
   -1.1870    2.0940    0.1093 C   0  0  0  0  0  0  0  0  0  0  0  0
    1.9625   -0.9844    1.3247 C   0  0  0  0  0  0  0  0  0  0  0  0
    1.9131   -1.0411   -1.0902 C   0  0  0  0  0  0  0  0  0  0  0  0
    1.3780    3.3786    0.0297 C   0  0  0  0  0  0  0  0  0  0  0  0
   -1.1810    3.4337    0.0795 C   0  0  0  0  0  0  0  0  0  0  0  0
    3.2017   -1.6246    1.3144 C   0  0  0  0  0  0  0  0  0  0  0  0
    3.1523   -1.6814   -1.1003 C   0  0  0  0  0  0  0  0  0  0  0  0
    1.4237    6.1947   -0.0344 C   0  0  0  0  0  0  0  0  0  0  0  0
   -1.1081    6.2491    0.0138 C   0  0  0  0  0  0  0  0  0  0  0  0
    6.1854   -2.0096   -0.5710 C   0  0  0  0  0  0  0  0  0  0  0  0
    5.2223   -3.8969    0.7552 C   0  0  0  0  0  0  0  0  0  0  0  0
   -4.9742   -2.6865    0.3178 C   0  0  0  0  0  0  0  0  0  0  0  0
   -3.6937   -1.9749    2.6909 C   0  0  0  0  0  0  0  0  0  0  0  0
   -3.1393   -1.7560   -3.4637 C   0  0  0  0  0  0  0  0  0  0  0  0
   -5.5638   -2.9853    1.5464 C   0  0  0  0  0  0  0  0  0  0  0  0
   -4.9248   -2.6302    2.7307 C   0  0  0  0  0  0  0  0  0  0  0  0
    1.8393    6.3925   -1.4764 C   0  0  0  0  0  0  0  0  0  0  0  0
   -1.5139    6.5307    1.4446 C   0  0  0  0  0  0  0  0  0  0  0  0
    6.9330   -1.1110    0.3955 C   0  0  0  0  0  0  0  0  0  0  0  0
    4.9055   -5.0299   -0.2019 C   0  0  0  0  0  0  0  0  0  0  0  0
   -4.0176   -2.2633   -4.5913 C   0  0  0  0  0  0  0  0  0  0  0  0
  1 13  2  3
  1 23  1  0
  1 24  1  0
  2 14  1  0
  2 25  1  0
  2 26  1  0
  3  9  1  0
  3 29  1  0
  4  5  1  0
  4  6  2  3
  4  7  1  0
  5 11  2  0
  5 12  1  0
  6 15  1  0
  6 16  1  0
  7 17  2  0
  7 18  1  0
  8  9  2  0
  8 10  1  0
  8 27  1  0
  9 11  1  0
 10 12  2  0
 10 28  1  0
 13 19  1  0
 13 20  1  0
 14 21  2  0
 14 22  1  0
 15 19  2  0
 16 20  2  0
 17 21  1  0
 18 22  2  0
 23 32  1  0
 24 33  1  0
 25 34  1  0
 26 35  1  0
 27 30  2  0
 28 31  2  0
 29 36  1  0
 30 31  1  0
M  CHG  1   1   1
M  END
>  <PUBCHEM_COMPOUND_CID>  (1) 
14886

>  <PUBCHEM_CONFORMER_RMSD>  (1) 
1

>  <PUBCHEM_CONFORMER_DIVERSEORDER>  (1) 
2
4
3
1

>  <PUBCHEM_MMFF94_PARTIAL_CHARGES>  (1) 
43
1 -0.09
11 -0.15
12 -0.15
13 0.37
14 0.1
15 -0.15
16 -0.15
17 -0.15
18 -0.15
19 -0.14
2 -0.84
20 -0.14
21 -0.15
22 -0.15
23 0.35
24 0.35
25 0.37
26 0.37
27 -0.15
28 -0.15
29 0.37
3 -0.87
30 -0.15
31 -0.15
37 0.15
38 0.15
39 0.15
4 -0.06
40 0.15
41 0.15
42 0.15
43 0.15
44 0.15
45 0.15
46 0.15
5 0.03
55 0.4
56 0.15
57 0.15
60 0.15
61 0.15
7 0.03
9 0.1

>  <PUBCHEM_EFFECTIVE_ROTOR_COUNT>  (1) 
9

>  <PUBCHEM_PHARMACOPHORE_FEATURES>  (1) 
7
1 2 cation
1 3 cation
1 3 donor
6 5 8 9 10 11 12 rings
6 6 13 15 16 19 20 rings
6 7 14 17 18 21 22 rings
6 8 10 27 28 30 31 rings

>  <PUBCHEM_HEAVY_ATOM_COUNT>  (1) 
36

>  <PUBCHEM_ATOM_DEF_STEREO_COUNT>  (1) 
0

>  <PUBCHEM_ATOM_UDEF_STEREO_COUNT>  (1) 
0

>  <PUBCHEM_BOND_DEF_STEREO_COUNT>  (1) 
0

>  <PUBCHEM_BOND_UDEF_STEREO_COUNT>  (1) 
0

>  <PUBCHEM_ISOTOPIC_ATOM_COUNT>  (1) 
0

>  <PUBCHEM_COMPONENT_COUNT>  (1) 
1

>  <PUBCHEM_CACTVS_TAUTO_COUNT>  (1) 
1

>  <PUBCHEM_CONFORMER_ID>  (1) 
00003A2600000002

>  <PUBCHEM_MMFF94_ENERGY>  (1) 
151.7197

>  <PUBCHEM_FEATURE_SELFOVERLAP>  (1) 
35.549

>  <PUBCHEM_SHAPE_FINGERPRINT>  (1) 
10074138 170 17975969865464421536
10369192 42 17177156375872995605
10411042 1 18409456894386492042
10985338 8 16982706451889538921
11763715 3 18119277037401295486
11991303 11 17689163309810603230
12342043 65 17677903507768708355
12633046 712 18260831531668857135
12788726 201 18047457938175105267
13673619 4 17531538680253011219
13690498 29 18055649330505897390
13757389 114 17832442899204038268
15200665 1 17908138776943762466
15219462 58 17683557252566698699
17980427 26 17836664280529722885
1813 80 18271824418273040606
18393751 57 17399529926636837392
19304671 126 17467861581543692575
19311894 1 17982134900708887157
20101258 96 18411422778379834496
21120745 212 18263376814971177072
21133665 82 16826433615769610158
23559900 14 17314231253631315099
244849 19 17897148338323588615
25019877 29 17406551412144292556
3418910 222 18334586742138397916
376196 1 16818492315843741917
4046055 4 18264208019575032876
4408954 64 17393941302453515923
513202 73 18198066872090578254
5219985 13 17329146867617531484
59025328 239 17841392021457692647
6058803 2 17770794712833715915
613672 6 18264747961542345130
6673363 416 18265917838831725884
6677587 24 16033715882474871141
6679774 75 16386205630848608147
6697151 62 18337374050890192379
6700243 42 17553250611658834334
9981440 41 17037271597228976904

>  <PUBCHEM_SHAPE_MULTIPOLES>  (1) 
725.92
11.62
10.47
2.63
8.05
27.27
-2.97
-22.59
1.42
5.46
0.52
-5.89
-2.92
-0.85

>  <PUBCHEM_SHAPE_SELFOVERLAP>  (1) 
1555.483

>  <PUBCHEM_SHAPE_VOLUME>  (1) 
399.7

>  <PUBCHEM_COORDINATE_TYPE>  (1) 
2
5
10

$$$$
