14893
     RDKit          3D

 20 23  0  0  1  0  0  0  0  0999 V2000
    3.0958    0.0263   -1.5109 O   0  0  0  0  0  0  0  0  0  0  0  0
   -3.9312   -0.0783   -0.5639 O   0  0  0  0  0  0  0  0  0  0  0  0
   -3.9491   -2.3188   -0.3815 O   0  0  0  0  0  0  0  0  0  0  0  0
    0.9992    1.2634    0.2264 N   0  0  0  0  0  0  0  0  0  0  0  0
    0.3610   -0.0772    0.1692 C   0  0  0  0  0  0  0  0  0  0  0  0
    0.8423   -0.6805    1.5193 C   0  0  0  0  0  0  0  0  0  0  0  0
    0.9140   -0.9060   -1.0244 C   0  0  0  0  0  0  0  0  0  0  0  0
    0.7572    0.5069    2.4788 C   0  0  0  0  0  0  0  0  0  0  0  0
   -1.1731    0.0022    0.0559 C   0  0  0  0  0  0  0  0  0  0  0  0
    0.9875    1.7390    1.6131 C   0  0  0  0  0  0  0  0  0  0  0  0
    0.4573    2.2215   -0.7307 C   0  0  0  0  0  0  0  0  0  0  0  0
   -1.7984    1.1346   -0.3070 C   0  0  0  0  0  0  0  0  0  0  0  0
    2.4339   -1.1250   -0.9944 C   0  0  0  0  0  0  0  0  0  0  0  0
    2.2431   -1.2478    1.4925 C   0  0  0  0  0  0  0  0  0  0  0  0
   -1.0581    2.4054   -0.6231 C   0  0  0  0  0  0  0  0  0  0  0  0
   -1.9892   -1.2057    0.4062 C   0  0  0  0  0  0  0  0  0  0  0  0
    2.9581   -1.4258    0.3744 C   0  0  0  0  0  0  0  0  0  0  0  0
   -3.2895    1.1990   -0.3768 C   0  0  0  0  0  0  0  0  0  0  0  0
   -3.3577   -1.2523   -0.2257 C   0  0  0  0  0  0  0  0  0  0  0  0
    4.4966   -0.1808   -1.5974 C   0  0  0  0  0  0  0  0  0  0  0  0
  1 13  1  0
  1 20  1  0
  2 18  1  0
  2 19  1  0
  3 19  2  0
  4  5  1  0
  4 10  1  0
  4 11  1  0
  5  6  1  0
  5  7  1  0
  5  9  1  0
  6  8  1  0
  6 14  1  0
  7 13  1  0
  8 10  1  0
  9 12  2  0
  9 16  1  0
 11 15  1  0
 12 15  1  0
 12 18  1  0
 13 17  1  0
 14 17  2  0
 16 19  1  0
M  END
>  <PUBCHEM_COMPOUND_CID>  (1) 
14893

>  <PUBCHEM_CONFORMER_RMSD>  (1) 
0.6

>  <PUBCHEM_CONFORMER_DIVERSEORDER>  (1) 
1
2
3

>  <PUBCHEM_MMFF94_PARTIAL_CHARGES>  (1) 
20
1 -0.56
10 0.27
11 0.27
12 -0.28
13 0.42
14 -0.29
15 0.14
16 0.2
17 -0.29
18 0.42
19 0.66
2 -0.43
20 0.28
3 -0.57
31 0.15
36 0.15
4 -0.81
5 0.41
6 0.14
9 -0.28

>  <PUBCHEM_EFFECTIVE_ROTOR_COUNT>  (1) 
2.8

>  <PUBCHEM_PHARMACOPHORE_FEATURES>  (1) 
7
1 1 acceptor
1 3 acceptor
1 4 cation
5 4 5 6 8 10 rings
6 2 9 12 16 18 19 rings
6 4 5 9 11 12 15 rings
6 5 6 7 13 14 17 rings

>  <PUBCHEM_HEAVY_ATOM_COUNT>  (1) 
20

>  <PUBCHEM_ATOM_DEF_STEREO_COUNT>  (1) 
2

>  <PUBCHEM_ATOM_UDEF_STEREO_COUNT>  (1) 
1

>  <PUBCHEM_BOND_DEF_STEREO_COUNT>  (1) 
0

>  <PUBCHEM_BOND_UDEF_STEREO_COUNT>  (1) 
0

>  <PUBCHEM_ISOTOPIC_ATOM_COUNT>  (1) 
0

>  <PUBCHEM_COMPONENT_COUNT>  (1) 
1

>  <PUBCHEM_CACTVS_TAUTO_COUNT>  (1) 
1

>  <PUBCHEM_CONFORMER_ID>  (1) 
00003A2D00000001

>  <PUBCHEM_MMFF94_ENERGY>  (1) 
46.9292

>  <PUBCHEM_FEATURE_SELFOVERLAP>  (1) 
36.04

>  <PUBCHEM_SHAPE_FINGERPRINT>  (1) 
10764073 3 8932237241152369548
10863032 1 18335141951594971996
11578080 2 16663419179683515756
11725454 13 13190907600676630598
12054548 360 18412545418126989652
121448 382 16081662195553156553
12423570 1 12165862588277484672
12553582 1 18408040736674717147
12716301 132 17833523740308434585
12892183 10 9799108713944480116
13134695 92 15554724464819330833
13140716 1 18410566289282285033
13571099 52 12324243875267517506
14115302 16 18047178657726092632
14251764 30 15553905324915506892
14790565 3 17905335026652250221
14817 1 15589153352371929120
16752209 62 17898830380628916181
16945 1 18198343944408409448
17492 54 18119831332742330366
17804303 29 18273211980893749011
1813 80 15123525691858070284
19752476 56 12180934603867706375
19765921 60 16443353078218839944
19862831 5 17458057149625704775
20691752 17 17821722870948983281
20871999 31 18334579031927952591
22112679 90 17750787749217704969
23175994 123 16988572272665188268
23382010 3 17240491341871315610
23402539 116 17895203190410407510
23419403 2 17775273968079550432
23557571 272 18127118694100701512
23559900 14 18124872353291280390
2748010 2 18338217363138366741
34934 24 18114185194199194853
4340502 62 15358563842978901465
474 4 16515984613331985628
568465 68 17488729104139570866
576247 118 17417531319878754088
5845 1 15728475911117465314
5895379 119 14855210739407484863
633830 44 16081943528912023254
7364860 26 18197773512827849249
77492 1 17313946294871066299
81228 2 16913694281226320488
84936 31 17059763537867361016
9981440 41 17387714905908135476

>  <PUBCHEM_SHAPE_MULTIPOLES>  (1) 
389
6.15
2.23
1.73
1.13
0.6
-0.82
-2.75
3
1.18
0.13
-1.65
0.15
-0.07

>  <PUBCHEM_SHAPE_SELFOVERLAP>  (1) 
842.427

>  <PUBCHEM_SHAPE_VOLUME>  (1) 
210.5

>  <PUBCHEM_COORDINATE_TYPE>  (1) 
2
5
10

$$$$
