14891
     RDKit          3D

 13 12  0  0  0  0  0  0  0  0999 V2000
   -6.3546    0.6558    0.0834 O   0  0  0  0  0  0  0  0  0  0  0  0
   -5.2162   -1.3228    0.1363 O   0  0  0  0  0  0  0  0  0  0  0  0
    1.1045    0.4488   -0.1570 C   0  0  0  0  0  0  0  0  0  0  0  0
   -0.2228   -0.3171   -0.1514 C   0  0  0  0  0  0  0  0  0  0  0  0
    2.3329   -0.4648   -0.1565 C   0  0  0  0  0  0  0  0  0  0  0  0
   -1.4523    0.5908   -0.0744 C   0  0  0  0  0  0  0  0  0  0  0  0
    3.6602    0.3020   -0.1643 C   0  0  0  0  0  0  0  0  0  0  0  0
   -2.7423   -0.2295    0.0040 C   0  0  0  0  0  0  0  0  0  0  0  0
    4.8904   -0.6087   -0.1367 C   0  0  0  0  0  0  0  0  0  0  0  0
   -3.9729    0.6707    0.0485 C   0  0  0  0  0  0  0  0  0  0  0  0
    6.1582    0.1907   -0.2200 C   0  0  0  0  0  0  0  0  0  0  0  0
   -5.3176   -0.0623    0.0929 C   0  0  0  0  0  0  0  0  0  0  0  0
    7.1326    0.1463    0.6954 C   0  0  0  0  0  0  0  0  0  0  0  0
  1 12  1  0
  2 12  2  0
  3  4  1  0
  3  5  1  0
  4  6  1  0
  5  7  1  0
  6  8  1  0
  7  9  1  0
  8 10  1  0
  9 11  1  0
 10 12  1  0
 11 13  2  0
M  CHG  1   1  -1
M  END
>  <PUBCHEM_COMPOUND_CID>  (1) 
14891

>  <PUBCHEM_CONFORMER_RMSD>  (1) 
0.8

>  <PUBCHEM_CONFORMER_DIVERSEORDER>  (1) 
1
313
247
5
49
177
319
48
15
203
81
2
50
62
263
152
132
25
305
146
254
174
60
8
77
96
171
142
155
120
216
240
58
298
100
69
228
55
292
18
59
277
303
300
89
72
163
179
27
64
238
208
311
141
12
133
261
13
139
136
214
113
63
294
290
17
291
187
215
3
90
47
51
16
267
88
99
125
218
123
186
45
82
301
288
190
198
24
270
23
85
9
41
78
160
106
307
148
34
222
312
56
92
44
94
37
168
101
95
266
310
255
206
296
232
275
61
258
28
170
165
147
108
14
32
239
306
93
269
21
178
196
128
282
235
138
75
233
321
6
46
241
302
33
248
145
103
97
259
119
210
57
260
195
225
229
70
285
316
207
91
7
181
53
84
193
176
205
110
39
129
159
29
135
265
317
114
264
154
79
227
111
19
164
217
157
320
71
194
180
66
68
230
140
35
295
268
272
242
318
109
197
4
308
281
86
172
236
246
231
162
134
309
199
65
280
36
26
80
20
274
223
287
252
226
130
221
67
11
52
289
131
211
118
149
284
297
189
200
150
22
98
112
73
279
191
76
144
124
31
219
256
40
167
204
234
83
121
30
273
153
249
38
188
224
293
212
169
237
192
151
161
202
184
201
105
87
166
156
262
182
243
250
116
314
10
253
299
185
102
245
54
43
276
304
251
271
42
143
117
315
244
127
137
175
74
209
126
122
257
158
220
283
107
213
115
183
104
278
173
286

>  <PUBCHEM_MMFF94_PARTIAL_CHARGES>  (1) 
10
1 -0.9
10 -0.11
11 -0.29
12 0.91
13 -0.3
2 -0.9
30 0.15
31 0.15
32 0.15
9 0.14

>  <PUBCHEM_EFFECTIVE_ROTOR_COUNT>  (1) 
9

>  <PUBCHEM_PHARMACOPHORE_FEATURES>  (1) 
4
1 1 acceptor
1 13 hydrophobe
1 2 acceptor
3 1 2 12 anion

>  <PUBCHEM_HEAVY_ATOM_COUNT>  (1) 
13

>  <PUBCHEM_ATOM_DEF_STEREO_COUNT>  (1) 
0

>  <PUBCHEM_ATOM_UDEF_STEREO_COUNT>  (1) 
0

>  <PUBCHEM_BOND_DEF_STEREO_COUNT>  (1) 
0

>  <PUBCHEM_BOND_UDEF_STEREO_COUNT>  (1) 
0

>  <PUBCHEM_ISOTOPIC_ATOM_COUNT>  (1) 
0

>  <PUBCHEM_COMPONENT_COUNT>  (1) 
1

>  <PUBCHEM_CACTVS_TAUTO_COUNT>  (1) 
1

>  <PUBCHEM_CONFORMER_ID>  (1) 
00003A2B00000001

>  <PUBCHEM_MMFF94_ENERGY>  (1) 
4.3983

>  <PUBCHEM_FEATURE_SELFOVERLAP>  (1) 
20.352

>  <PUBCHEM_SHAPE_FINGERPRINT>  (1) 
11315181 36 17775567551091035041
12091667 2 17095241415331199133
13533116 47 17022892425237545656
14123238 8 18410576175590053374
1420 363 18130792260869449390
14251718 22 18409730659928177802
14251732 16 18341894138484853848
14251764 46 18410572889934797173
15716309 27 18113898260429547466
17834072 33 18335704974320270308
17834076 25 11167941359652271676
20621476 8 11097843073739040767
20767249 213 16702301261021205592
21130983 4 16415478272954473448
22224240 67 17704065205697851430
23035841 295 14923945652118484081
23218964 4 7997971271643585956
23402539 116 18187363238188805495
23521765 1 18341895186071888540
42788 4 18409449185204694228
4463277 17 18272369771813664760
57583515 80 16950001426506791481
8209 1 18410573985183190677

>  <PUBCHEM_SHAPE_MULTIPOLES>  (1) 
255.8
19.42
0.88
0.66
5.76
0.1
-0.02
-0.11
-2.39
-0.6
-0.01
0.37
-0.01
0.11

>  <PUBCHEM_SHAPE_SELFOVERLAP>  (1) 
467.533

>  <PUBCHEM_SHAPE_VOLUME>  (1) 
162

>  <PUBCHEM_COORDINATE_TYPE>  (1) 
2
5
10

$$$$
