1489
     RDKit          3D

 15 15  0  0  0  0  0  0  0  0999 V2000
    1.2354   -2.6370   -0.0739 Cl  0  0  0  0  0  0  0  0  0  0  0  0
    5.5119    0.5302   -0.9066 Cl  0  0  0  0  0  0  0  0  0  0  0  0
   -0.0086   -0.1165    0.9919 O   0  0  0  0  0  0  0  0  0  0  0  0
   -5.7474    0.7964   -0.8650 O   0  0  0  0  0  0  0  0  0  0  0  0
   -4.9548   -1.0764    0.1460 O   0  0  0  0  0  0  0  0  0  0  0  0
   -2.3385   -0.0380    0.3737 C   0  0  0  0  0  0  0  0  0  0  0  0
   -0.9945    0.6789    0.3495 C   0  0  0  0  0  0  0  0  0  0  0  0
   -3.4453    0.7835   -0.2897 C   0  0  0  0  0  0  0  0  0  0  0  0
    1.2801    0.0121    0.5421 C   0  0  0  0  0  0  0  0  0  0  0  0
   -4.7661    0.0485   -0.2956 C   0  0  0  0  0  0  0  0  0  0  0  0
    1.9700   -1.0791    0.0246 C   0  0  0  0  0  0  0  0  0  0  0  0
    1.8862    1.2621    0.6154 C   0  0  0  0  0  0  0  0  0  0  0  0
    3.2806   -0.9189   -0.4247 C   0  0  0  0  0  0  0  0  0  0  0  0
    3.1969    1.4223    0.1661 C   0  0  0  0  0  0  0  0  0  0  0  0
    3.8942    0.3319   -0.3539 C   0  0  0  0  0  0  0  0  0  0  0  0
  1 11  1  0
  2 15  1  0
  3  7  1  0
  3  9  1  0
  4 10  1  0
  5 10  2  0
  6  7  1  0
  6  8  1  0
  8 10  1  0
  9 11  2  0
  9 12  1  0
 11 13  1  0
 12 14  2  0
 13 15  2  0
 14 15  1  0
M  END
>  <PUBCHEM_COMPOUND_CID>  (1) 
1489

>  <PUBCHEM_CONFORMER_RMSD>  (1) 
0.6

>  <PUBCHEM_CONFORMER_DIVERSEORDER>  (1) 
1
171
81
136
84
21
167
45
7
52
153
68
163
132
106
134
100
152
172
118
127
42
156
111
144
35
98
129
146
34
169
66
155
91
19
143
131
166
115
107
10
138
73
135
160
72
79
130
12
56
145
133
140
128
159
147
88
53
61
50
116
58
51
2
117
85
150
15
108
96
101
82
123
137
36
162
148
158
30
86
170
27
44
71
60
33
22
20
120
63
76
49
139
92
157
126
43
40
95
70
80
69
168
6
165
97
23
38
59
121
8
149
110
161
109
83
67
114
28
105
99
25
9
64
124
26
112
14
113
32
11
119
24
17
62
103
89
16
151
141
65
74
3
154
164
125
46
55
37
18
122
78
47
77
13
142
39
90
5
93
54
94
31
4
57
75
41
48
87
104
102
29

>  <PUBCHEM_MMFF94_PARTIAL_CHARGES>  (1) 
18
1 -0.18
10 0.66
11 0.18
12 -0.15
13 -0.15
14 -0.15
15 0.18
2 -0.18
22 0.15
23 0.15
24 0.15
25 0.5
3 -0.36
4 -0.65
5 -0.57
7 0.28
8 0.06
9 0.08

>  <PUBCHEM_EFFECTIVE_ROTOR_COUNT>  (1) 
5

>  <PUBCHEM_PHARMACOPHORE_FEATURES>  (1) 
5
1 3 acceptor
1 4 acceptor
1 5 acceptor
3 4 5 10 anion
6 9 11 12 13 14 15 rings

>  <PUBCHEM_HEAVY_ATOM_COUNT>  (1) 
15

>  <PUBCHEM_ATOM_DEF_STEREO_COUNT>  (1) 
0

>  <PUBCHEM_ATOM_UDEF_STEREO_COUNT>  (1) 
0

>  <PUBCHEM_BOND_DEF_STEREO_COUNT>  (1) 
0

>  <PUBCHEM_BOND_UDEF_STEREO_COUNT>  (1) 
0

>  <PUBCHEM_ISOTOPIC_ATOM_COUNT>  (1) 
0

>  <PUBCHEM_COMPONENT_COUNT>  (1) 
1

>  <PUBCHEM_CACTVS_TAUTO_COUNT>  (1) 
1

>  <PUBCHEM_CONFORMER_ID>  (1) 
000005D100000001

>  <PUBCHEM_MMFF94_ENERGY>  (1) 
32.7327

>  <PUBCHEM_FEATURE_SELFOVERLAP>  (1) 
25.43

>  <PUBCHEM_SHAPE_FINGERPRINT>  (1) 
10693767 8 17988365841567217454
11089746 13 14418135162040310558
114248 4 18408605872428440281
11471102 20 18411983546532106312
12251169 10 8286195046008752704
12507557 5 8070029969688855055
12616999 72 18410292488890035530
12714333 28 17967252000744511564
12730499 353 18334863813802822715
13675066 3 10447926183457377161
13836976 161 18412548725663238366
14251717 144 18341895164802910314
14251718 22 18260551147233362045
14576447 43 18060700576563396038
14911166 2 18343310279787106772
15048467 5 14418140651678493044
15188451 53 12103547698871916133
15885798 251 10447937161056357410
17834072 33 18343017813630331189
19784866 140 17560807597672808544
200 152 18060703879192897281
20645477 70 18341050713929174183
21054139 6 18342449391509357983
21618674 57 12247683772624217447
21637258 2 15482674525025066868
22289505 5 18262509304233360725
23402539 116 17385442150141605542
23402655 69 18411699863836775297
23557571 272 17603864460474636717
23559900 14 18411976988112108561
23590187 302 18060135440160631768
2871803 45 18342177734843164220
29717793 49 17060344006549446381
3060560 45 18412825789782375878
33382 64 14692025617865330204
33824 294 18411417298059905274
4072396 5 18334564730024408690
42 15 11095884873789798169
4463277 17 9223229646648218818
4990 188 17989213641839697340
522135 26 18272647930964599729
58051976 378 18342460330790638326
9971528 1 12396291535235987698

>  <PUBCHEM_SHAPE_MULTIPOLES>  (1) 
294.82
11.86
1.72
0.85
12.29
1.15
-0.02
-2.33
-4.24
-0.99
0.03
-0.13
-0.1
0.3

>  <PUBCHEM_SHAPE_SELFOVERLAP>  (1) 
583.334

>  <PUBCHEM_SHAPE_VOLUME>  (1) 
176.9

>  <PUBCHEM_COORDINATE_TYPE>  (1) 
2
5
10

$$$$
