14906
     RDKit          3D

  9  9  0  0  0  0  0  0  0  0999 V2000
   -0.8825   -2.3681    0.0827 Cl  0  0  0  0  0  0  0  0  0  0  0  0
   -0.4476    0.3303    0.2037 C   0  0  0  0  0  0  0  0  0  0  0  0
    0.0975   -0.9440    0.0464 C   0  0  0  0  0  0  0  0  0  0  0  0
    0.3803    1.4524    0.1676 C   0  0  0  0  0  0  0  0  0  0  0  0
    1.4706   -1.0960   -0.1472 C   0  0  0  0  0  0  0  0  0  0  0  0
    1.7534    1.3001   -0.0258 C   0  0  0  0  0  0  0  0  0  0  0  0
    2.2984    0.0260   -0.1832 C   0  0  0  0  0  0  0  0  0  0  0  0
   -1.8755    0.5452    0.4088 C   0  0  0  0  0  0  0  0  0  0  0  0
   -2.7946    0.7541   -0.5529 C   0  0  0  0  0  0  0  0  0  0  0  0
  1  3  1  0
  2  3  2  0
  2  4  1  0
  2  8  1  0
  3  5  1  0
  4  6  2  0
  5  7  2  0
  6  7  1  0
  8  9  2  0
M  END
>  <PUBCHEM_COMPOUND_CID>  (1) 
14906

>  <PUBCHEM_CONFORMER_RMSD>  (1) 
0.4

>  <PUBCHEM_CONFORMER_DIVERSEORDER>  (1) 
1
2

>  <PUBCHEM_MMFF94_PARTIAL_CHARGES>  (1) 
16
1 -0.18
10 0.15
11 0.15
12 0.15
13 0.15
14 0.15
15 0.15
16 0.15
2 0.03
3 0.18
4 -0.15
5 -0.15
6 -0.15
7 -0.15
8 -0.18
9 -0.3

>  <PUBCHEM_EFFECTIVE_ROTOR_COUNT>  (1) 
1

>  <PUBCHEM_PHARMACOPHORE_FEATURES>  (1) 
2
1 9 hydrophobe
6 2 3 4 5 6 7 rings

>  <PUBCHEM_HEAVY_ATOM_COUNT>  (1) 
9

>  <PUBCHEM_ATOM_DEF_STEREO_COUNT>  (1) 
0

>  <PUBCHEM_ATOM_UDEF_STEREO_COUNT>  (1) 
0

>  <PUBCHEM_BOND_DEF_STEREO_COUNT>  (1) 
0

>  <PUBCHEM_BOND_UDEF_STEREO_COUNT>  (1) 
0

>  <PUBCHEM_ISOTOPIC_ATOM_COUNT>  (1) 
0

>  <PUBCHEM_COMPONENT_COUNT>  (1) 
1

>  <PUBCHEM_CACTVS_TAUTO_COUNT>  (1) 
1

>  <PUBCHEM_CONFORMER_ID>  (1) 
00003A3A00000001

>  <PUBCHEM_MMFF94_ENERGY>  (1) 
25.0479

>  <PUBCHEM_FEATURE_SELFOVERLAP>  (1) 
10.148

>  <PUBCHEM_SHAPE_FINGERPRINT>  (1) 
11206711 2 17978518859655655420
12423570 1 12427298403226729622
12897270 3 18337388228138964285
16945 1 18411707568987024880
18185500 45 17764590915239962875
193761 8 18122907800425614560
21040471 1 18410576214387313784
23402655 69 18195512715654057597
23552423 10 18117561949285094198
241688 4 17331124888523749546
2748010 2 18196943377364291020
29004967 10 18264215724656762601
5084963 1 18059008367732784049

>  <PUBCHEM_SHAPE_MULTIPOLES>  (1) 
187.09
3.16
2.05
0.69
0.83
1.1
-0.01
-0.92
-0.45
0.26
0.05
0.12
-0.03
0.14

>  <PUBCHEM_SHAPE_SELFOVERLAP>  (1) 
377.378

>  <PUBCHEM_SHAPE_VOLUME>  (1) 
107.1

>  <PUBCHEM_COORDINATE_TYPE>  (1) 
2
5
10

$$$$
