14903
     RDKit          3D

  8  7  0  0  1  0  0  0  0  0999 V2000
   -0.0237   -0.1091   -0.2598 O   0  0  0  0  0  0  0  0  0  0  0  0
    2.2043   -1.7191    0.1123 O   0  0  0  0  0  0  0  0  0  0  0  0
    1.1600    0.4301    0.3265 C   0  0  0  0  0  0  0  0  0  0  0  0
    2.3566   -0.3420   -0.2145 C   0  0  0  0  0  0  0  0  0  0  0  0
    1.2498    1.9090   -0.0180 C   0  0  0  0  0  0  0  0  0  0  0  0
   -1.1850    0.5463    0.2259 C   0  0  0  0  0  0  0  0  0  0  0  0
   -2.3849   -0.0606   -0.4223 C   0  0  0  0  0  0  0  0  0  0  0  0
   -3.3770   -0.6546    0.2499 C   0  0  0  0  0  0  0  0  0  0  0  0
  1  3  1  0
  1  6  1  0
  2  4  1  0
  3  4  1  0
  3  5  1  0
  6  7  1  0
  7  8  2  0
M  END
>  <PUBCHEM_COMPOUND_CID>  (1) 
14903

>  <PUBCHEM_CONFORMER_RMSD>  (1) 
0.6

>  <PUBCHEM_CONFORMER_DIVERSEORDER>  (1) 
1
14
24
19
3
7
16
22
2
12
6
23
10
8
13
18
17
5
9
11
21
20
4
15

>  <PUBCHEM_MMFF94_PARTIAL_CHARGES>  (1) 
11
1 -0.56
17 0.15
18 0.4
19 0.15
2 -0.68
20 0.15
3 0.28
4 0.28
6 0.42
7 -0.29
8 -0.3

>  <PUBCHEM_EFFECTIVE_ROTOR_COUNT>  (1) 
4

>  <PUBCHEM_PHARMACOPHORE_FEATURES>  (1) 
4
1 1 acceptor
1 2 acceptor
1 2 donor
1 8 hydrophobe

>  <PUBCHEM_HEAVY_ATOM_COUNT>  (1) 
8

>  <PUBCHEM_ATOM_DEF_STEREO_COUNT>  (1) 
0

>  <PUBCHEM_ATOM_UDEF_STEREO_COUNT>  (1) 
1

>  <PUBCHEM_BOND_DEF_STEREO_COUNT>  (1) 
0

>  <PUBCHEM_BOND_UDEF_STEREO_COUNT>  (1) 
0

>  <PUBCHEM_ISOTOPIC_ATOM_COUNT>  (1) 
0

>  <PUBCHEM_COMPONENT_COUNT>  (1) 
1

>  <PUBCHEM_CACTVS_TAUTO_COUNT>  (1) 
1

>  <PUBCHEM_CONFORMER_ID>  (1) 
00003A3700000001

>  <PUBCHEM_MMFF94_ENERGY>  (1) 
13.4868

>  <PUBCHEM_FEATURE_SELFOVERLAP>  (1) 
20.302

>  <PUBCHEM_SHAPE_FINGERPRINT>  (1) 
12932741 1 17749384905898896393
12932764 1 17775002444526181485
14325111 11 18411418457858992805
20653091 64 18341899588624506752
20871998 22 18128259991317957998
23552333 60 18060144279234865080
23552423 10 18410855503336369141
23552449 11 18261660541296147152
29004967 10 18410008814990140256

>  <PUBCHEM_SHAPE_MULTIPOLES>  (1) 
152.9
4.69
1.5
0.66
3.26
0.15
0
-1.51
-0.04
-1.26
-0.04
0.08
0.02
0.03

>  <PUBCHEM_SHAPE_SELFOVERLAP>  (1) 
274.341

>  <PUBCHEM_SHAPE_VOLUME>  (1) 
99.2

>  <PUBCHEM_COORDINATE_TYPE>  (1) 
2
5
10

$$$$
