14932
     RDKit          3D

 19 18  0  0  1  0  0  0  0  0999 V2000
   -4.1528   -1.1645   -0.6751 N   0  0  0  0  0  0  0  0  0  0  0  0
   -5.9281    2.0812   -0.1644 N   0  0  0  0  0  0  0  0  0  0  0  0
    1.1023   -0.4550    0.1871 C   0  0  0  0  0  0  0  0  0  0  0  0
    0.0843   -1.5301    0.5741 C   0  0  0  0  0  0  0  0  0  0  0  0
    2.5561   -0.9191    0.3146 C   0  0  0  0  0  0  0  0  0  0  0  0
   -1.3500   -1.0243    0.3981 C   0  0  0  0  0  0  0  0  0  0  0  0
    3.5758    0.1786   -0.0015 C   0  0  0  0  0  0  0  0  0  0  0  0
   -2.3687   -2.1100    0.7585 C   0  0  0  0  0  0  0  0  0  0  0  0
    5.0072   -0.3215    0.2112 C   0  0  0  0  0  0  0  0  0  0  0  0
   -3.8178   -1.6288    0.6656 C   0  0  0  0  0  0  0  0  0  0  0  0
    6.0735    0.7294   -0.1115 C   0  0  0  0  0  0  0  0  0  0  0  0
    7.5048    0.2072    0.0303 C   0  0  0  0  0  0  0  0  0  0  0  0
   -5.2815   -0.2329   -0.6312 C   0  0  0  0  0  0  0  0  0  0  0  0
   -4.8066    1.1485   -0.1909 C   0  0  0  0  0  0  0  0  0  0  0  0
    8.5249    1.2731   -0.3731 C   0  0  0  0  0  0  0  0  0  0  0  0
   -4.4629   -2.2963   -1.5504 C   0  0  0  0  0  0  0  0  0  0  0  0
    9.9484    0.7488   -0.2712 C   0  0  0  0  0  0  0  0  0  0  0  0
   -5.4483    3.4638   -0.1877 C   0  0  0  0  0  0  0  0  0  0  0  0
   -6.7605    1.8520    1.0176 C   0  0  0  0  0  0  0  0  0  0  0  0
  1 10  1  0
  1 13  1  0
  1 16  1  0
  2 14  1  0
  2 18  1  0
  2 19  1  0
  3  4  1  0
  3  5  1  0
  4  6  1  0
  5  7  1  0
  6  8  1  0
  7  9  1  0
  8 10  1  0
  9 11  1  0
 11 12  1  0
 12 15  1  0
 13 14  1  0
 15 17  1  0
M  END
>  <PUBCHEM_COMPOUND_CID>  (1) 
14932

>  <PUBCHEM_CONFORMER_RMSD>  (1) 
1.4

>  <PUBCHEM_CONFORMER_DIVERSEORDER>  (1) 
1
9
26
42
2
38
28
17
12
4
34
35
32
24
39
16
27
3
6
29
11
8
13
31
23
46
36
10
30
20
37
5
44
43
41
21
40
14
18
25
45
7
47
15
19
22
33

>  <PUBCHEM_MMFF94_PARTIAL_CHARGES>  (1) 
8
1 -0.81
10 0.27
13 0.27
14 0.27
16 0.27
18 0.27
19 0.27
2 -0.81

>  <PUBCHEM_EFFECTIVE_ROTOR_COUNT>  (1) 
14

>  <PUBCHEM_PHARMACOPHORE_FEATURES>  (1) 
3
1 1 cation
1 17 hydrophobe
1 2 cation

>  <PUBCHEM_HEAVY_ATOM_COUNT>  (1) 
19

>  <PUBCHEM_ATOM_DEF_STEREO_COUNT>  (1) 
0

>  <PUBCHEM_ATOM_UDEF_STEREO_COUNT>  (1) 
0

>  <PUBCHEM_BOND_DEF_STEREO_COUNT>  (1) 
0

>  <PUBCHEM_BOND_UDEF_STEREO_COUNT>  (1) 
0

>  <PUBCHEM_ISOTOPIC_ATOM_COUNT>  (1) 
0

>  <PUBCHEM_COMPONENT_COUNT>  (1) 
1

>  <PUBCHEM_CACTVS_TAUTO_COUNT>  (1) 
1

>  <PUBCHEM_CONFORMER_ID>  (1) 
00003A5400000001

>  <PUBCHEM_MMFF94_ENERGY>  (1) 
12.308

>  <PUBCHEM_FEATURE_SELFOVERLAP>  (1) 
15.223

>  <PUBCHEM_SHAPE_FINGERPRINT>  (1) 
10087517 78 18333728009696276669
11315181 36 17895191151395913551
12082328 90 18411417336472329870
12091667 2 18410293657110967330
125118 31 18262238937097170524
12895837 130 18411702089041291525
14251764 46 17749105633977294755
14344974 204 7853559228045348720
14671636 106 9727342538117927616
14729087 3 18334010614639340650
15183329 4 17821999939542280450
155225 5 18267866069187084121
15604295 49 18268987752253518248
1577012 14 18334008385514676962
15778101 99 18408324388993917411
1754908 1 10737280282521511588
195137 175 18040156245375958564
20621476 66 18408888399904364025
21095123 145 12396304764294428626
21756936 100 18260551122012555147
23081809 10 18261944207054825690
270888 7 18263641763319882169
2838139 119 18410012186597496300
44555599 121 18040723601818581044
445580 204 18409166601778385064
59567204 34 18410856551156084241
5969126 39 14405191646749732994
6327066 14 18265890264746552941
636775 72 18409166627833700952
9980921 7 17967526836841636653

>  <PUBCHEM_SHAPE_MULTIPOLES>  (1) 
381.05
28.59
2.81
0.94
61.61
1.59
-0.13
19.32
-3.33
-7.85
-0.13
-1.23
-0.34
-1.32

>  <PUBCHEM_SHAPE_SELFOVERLAP>  (1) 
688.259

>  <PUBCHEM_SHAPE_VOLUME>  (1) 
245.6

>  <PUBCHEM_COORDINATE_TYPE>  (1) 
2
5
10

$$$$
