14947
     RDKit          3D

 44 50  0  0  1  0  0  0  0  0999 V2000
   -2.4012    0.3753    1.6304 O   0  0  0  0  0  0  0  0  0  0  0  0
    3.2122   -1.7352    1.2406 O   0  0  0  0  0  0  0  0  0  0  0  0
   -6.5696    1.7669   -0.1479 O   0  0  0  0  0  0  0  0  0  0  0  0
   -4.6388    1.8528    1.8243 O   0  0  0  0  0  0  0  0  0  0  0  0
    3.1477   -2.2831   -1.5391 O   0  0  0  0  0  0  0  0  0  0  0  0
    3.4772   -4.3654    1.8569 O   0  0  0  0  0  0  0  0  0  0  0  0
   -1.7196   -2.1359   -1.9957 N   0  0  0  0  0  0  0  0  0  0  0  0
    3.0861    4.1244   -0.7084 N   0  0  0  0  0  0  0  0  0  0  0  0
   -1.7961   -1.3798   -0.7048 C   0  0  0  0  0  0  0  0  0  0  0  0
    3.3801    3.1131    0.3498 C   0  0  0  0  0  0  0  0  0  0  0  0
   -3.0671   -0.5155   -0.5420 C   0  0  0  0  0  0  0  0  0  0  0  0
   -2.3738   -1.4369   -3.1063 C   0  0  0  0  0  0  0  0  0  0  0  0
    3.3575    1.6588   -0.1500 C   0  0  0  0  0  0  0  0  0  0  0  0
   -3.8568   -1.2935   -2.8071 C   0  0  0  0  0  0  0  0  0  0  0  0
   -4.0488   -0.4942   -1.5529 C   0  0  0  0  0  0  0  0  0  0  0  0
   -1.6898   -2.4025    0.4753 C   0  0  0  0  0  0  0  0  0  0  0  0
    3.7609    3.7845   -1.9700 C   0  0  0  0  0  0  0  0  0  0  0  0
    3.1942    2.4872   -2.5299 C   0  0  0  0  0  0  0  0  0  0  0  0
    3.2724    1.3736   -1.5261 C   0  0  0  0  0  0  0  0  0  0  0  0
    2.4633    3.3239    1.6014 C   0  0  0  0  0  0  0  0  0  0  0  0
   -3.2755    0.3282    0.5719 C   0  0  0  0  0  0  0  0  0  0  0  0
   -0.3406   -2.4439   -2.3912 C   0  0  0  0  0  0  0  0  0  0  0  0
   -0.3050   -2.8969    0.8472 C   0  0  0  0  0  0  0  0  0  0  0  0
    3.4231    0.5816    0.7513 C   0  0  0  0  0  0  0  0  0  0  0  0
   -5.2210    0.2664   -1.4058 C   0  0  0  0  0  0  0  0  0  0  0  0
    1.1089    2.6469    1.5906 C   0  0  0  0  0  0  0  0  0  0  0  0
    3.5004    5.4778   -0.3131 C   0  0  0  0  0  0  0  0  0  0  0  0
    3.2040    0.0453   -1.9742 C   0  0  0  0  0  0  0  0  0  0  0  0
   -4.4468    1.0839    0.7141 C   0  0  0  0  0  0  0  0  0  0  0  0
    3.2813   -0.7321    0.2982 C   0  0  0  0  0  0  0  0  0  0  0  0
   -5.4197    1.0503   -0.2752 C   0  0  0  0  0  0  0  0  0  0  0  0
    3.2090   -1.0081   -1.0661 C   0  0  0  0  0  0  0  0  0  0  0  0
    0.7998   -2.0352    0.9134 C   0  0  0  0  0  0  0  0  0  0  0  0
   -0.1164   -4.2475    1.1757 C   0  0  0  0  0  0  0  0  0  0  0  0
    0.7597    1.8117    2.6616 C   0  0  0  0  0  0  0  0  0  0  0  0
    0.1978    2.8066    0.5396 C   0  0  0  0  0  0  0  0  0  0  0  0
   -1.3047    1.2044    1.5585 C   0  0  0  0  0  0  0  0  0  0  0  0
    2.0789   -2.5275    1.2142 C   0  0  0  0  0  0  0  0  0  0  0  0
   -0.4328    1.0936    2.6434 C   0  0  0  0  0  0  0  0  0  0  0  0
   -1.0030    2.0872    0.5194 C   0  0  0  0  0  0  0  0  0  0  0  0
    2.2473   -3.8723    1.5397 C   0  0  0  0  0  0  0  0  0  0  0  0
    1.1485   -4.7293    1.5229 C   0  0  0  0  0  0  0  0  0  0  0  0
   -7.6698    1.1203    0.4895 C   0  0  0  0  0  0  0  0  0  0  0  0
    4.3870   -2.9301   -1.8240 C   0  0  0  0  0  0  0  0  0  0  0  0
  1 21  1  0
  1 37  1  0
  2 30  1  0
  2 38  1  0
  3 31  1  0
  3 43  1  0
  4 29  1  0
  5 32  1  0
  5 44  1  0
  6 41  1  0
  7  9  1  0
  7 12  1  0
  7 22  1  0
  8 10  1  0
  8 17  1  0
  8 27  1  0
  9 11  1  0
  9 16  1  0
 10 13  1  0
 10 20  1  0
 11 15  1  0
 11 21  2  0
 12 14  1  0
 13 19  2  0
 13 24  1  0
 14 15  1  0
 15 25  2  0
 16 23  1  0
 17 18  1  0
 18 19  1  0
 19 28  1  0
 20 26  1  0
 21 29  1  0
 23 33  1  0
 23 34  2  0
 24 30  2  0
 25 31  1  0
 26 35  2  0
 26 36  1  0
 28 32  2  0
 29 31  2  0
 30 32  1  0
 33 38  2  0
 34 42  1  0
 35 39  1  0
 36 40  2  0
 37 39  2  0
 37 40  1  0
 38 41  1  0
 41 42  2  0
M  END
>  <PUBCHEM_COMPOUND_CID>  (1) 
14947

>  <PUBCHEM_CONFORMER_RMSD>  (1) 
1

>  <PUBCHEM_CONFORMER_DIVERSEORDER>  (1) 
3
1
5
9
7
10
13
8
4
12
2
11
6

>  <PUBCHEM_MMFF94_PARTIAL_CHARGES>  (1) 
56
1 -0.17
10 0.41
11 -0.14
12 0.27
13 -0.14
14 0.14
15 -0.14
16 0.14
17 0.27
18 0.14
19 -0.14
2 -0.17
20 0.14
21 0.08
22 0.27
23 -0.14
24 -0.15
25 -0.15
26 -0.14
27 0.27
28 -0.15
29 0.08
3 -0.36
30 0.08
31 0.08
32 0.08
33 -0.15
34 -0.15
35 -0.15
36 -0.15
37 0.08
38 0.08
39 -0.15
4 -0.53
40 -0.15
41 0.08
42 -0.15
43 0.28
44 0.28
5 -0.36
6 -0.53
62 0.15
63 0.15
67 0.15
68 0.15
69 0.15
7 -0.81
70 0.15
71 0.15
72 0.15
73 0.15
74 0.15
75 0.45
8 -0.81
82 0.45
9 0.41

>  <PUBCHEM_EFFECTIVE_ROTOR_COUNT>  (1) 
4

>  <PUBCHEM_PHARMACOPHORE_FEATURES>  (1) 
14
1 1 acceptor
1 2 acceptor
1 3 acceptor
1 4 donor
1 5 acceptor
1 6 donor
1 7 cation
1 8 cation
6 11 15 21 25 29 31 rings
6 13 19 24 28 30 32 rings
6 23 33 34 38 41 42 rings
6 26 35 36 37 39 40 rings
6 7 9 11 12 14 15 rings
6 8 10 13 17 18 19 rings

>  <PUBCHEM_HEAVY_ATOM_COUNT>  (1) 
44

>  <PUBCHEM_ATOM_DEF_STEREO_COUNT>  (1) 
2

>  <PUBCHEM_ATOM_UDEF_STEREO_COUNT>  (1) 
0

>  <PUBCHEM_BOND_DEF_STEREO_COUNT>  (1) 
0

>  <PUBCHEM_BOND_UDEF_STEREO_COUNT>  (1) 
0

>  <PUBCHEM_ISOTOPIC_ATOM_COUNT>  (1) 
0

>  <PUBCHEM_COMPONENT_COUNT>  (1) 
1

>  <PUBCHEM_CACTVS_TAUTO_COUNT>  (1) 
8

>  <PUBCHEM_CONFORMER_ID>  (1) 
00003A6300000003

>  <PUBCHEM_MMFF94_ENERGY>  (1) 
180.2863

>  <PUBCHEM_FEATURE_SELFOVERLAP>  (1) 
71.094

>  <PUBCHEM_SHAPE_FINGERPRINT>  (1) 
10675989 125 18413389864659513673
11093857 51 16917069915341749549
11434127 23 17548138191590794820
11445158 3 18195510529578520455
12156800 1 12887980194657405410
12608794 3 18043227185262292656
12741549 16 17391616801422357475
14068700 675 18057327176395197378
14415361 192 18046916978491364509
15001296 14 18131060550877089393
16067689 68 16744759118005428440
19319366 153 18410575097716779587
20511986 3 18059559317774953293
20764821 26 18121203535727525666
27425 322 18265335204152519829
35225 105 16689596150886141518
354706 132 17829067733451301860
4173938 77 18337406936922001853
474144 1 18271239422589423611
9831354 38 17914365513588189164

>  <PUBCHEM_SHAPE_MULTIPOLES>  (1) 
860.32
11.04
6.52
2.89
17.18
1.71
-1.04
-7.85
-3.57
-8.61
1.88
-0.23
0.63
-2.6

>  <PUBCHEM_SHAPE_SELFOVERLAP>  (1) 
1901.125

>  <PUBCHEM_SHAPE_VOLUME>  (1) 
460.7

>  <PUBCHEM_COORDINATE_TYPE>  (1) 
2
5
10

$$$$
