14959
     RDKit          3D

 34 37  0  0  0  0  0  0  0  0999 V2000
    0.7123    1.2711   -1.7684 O   0  0  0  0  0  0  0  0  0  0  0  0
   -0.0299    0.3291    1.8297 O   0  0  0  0  0  0  0  0  0  0  0  0
    3.2743    2.1633    2.0596 O   0  0  0  0  0  0  0  0  0  0  0  0
   -1.7923    3.8867   -0.6704 O   0  0  0  0  0  0  0  0  0  0  0  0
   -1.0472   -1.5612   -3.4672 O   0  0  0  0  0  0  0  0  0  0  0  0
   -1.4371   -3.2794    3.5482 O   0  0  0  0  0  0  0  0  0  0  0  0
   -0.3395   -2.8632   -1.7405 O   0  0  0  0  0  0  0  0  0  0  0  0
   -3.0365   -1.6922    3.2311 O   0  0  0  0  0  0  0  0  0  0  0  0
    1.9842    1.7407    0.1507 N   0  0  0  0  0  0  0  0  0  0  0  0
   -0.8799    2.1397    0.5948 N   0  0  0  0  0  0  0  0  0  0  0  0
    3.5515    0.1056    1.0091 N   0  0  0  0  0  0  0  0  0  0  0  0
   -2.8098    1.8028   -0.8599 N   0  0  0  0  0  0  0  0  0  0  0  0
    2.1048   -1.3761   -1.8159 N   0  0  0  0  0  0  0  0  0  0  0  0
   -2.1899   -1.3262    0.5873 N   0  0  0  0  0  0  0  0  0  0  0  0
    3.6310   -1.9739   -0.3048 N   0  0  0  0  0  0  0  0  0  0  0  0
   -3.6733   -0.5019   -0.8584 N   0  0  0  0  0  0  0  0  0  0  0  0
    1.3706    3.0590    0.2739 C   0  0  0  0  0  0  0  0  0  0  0  0
    0.1152    3.0293    1.1293 C   0  0  0  0  0  0  0  0  0  0  0  0
    2.2212   -0.3239   -0.9535 C   0  0  0  0  0  0  0  0  0  0  0  0
   -1.8815   -0.0047    0.4351 C   0  0  0  0  0  0  0  0  0  0  0  0
    1.5524    0.9368   -0.9376 C   0  0  0  0  0  0  0  0  0  0  0  0
   -0.8483    0.7781    1.0319 C   0  0  0  0  0  0  0  0  0  0  0  0
    3.1609   -0.7157   -0.0395 C   0  0  0  0  0  0  0  0  0  0  0  0
   -2.8041    0.4754   -0.4538 C   0  0  0  0  0  0  0  0  0  0  0  0
    2.9660    1.3892    1.1463 C   0  0  0  0  0  0  0  0  0  0  0  0
   -1.8361    2.6948   -0.3451 C   0  0  0  0  0  0  0  0  0  0  0  0
    2.9733   -2.3450   -1.3838 C   0  0  0  0  0  0  0  0  0  0  0  0
   -3.2754   -1.5780   -0.2115 C   0  0  0  0  0  0  0  0  0  0  0  0
    1.2424   -1.4761   -2.9691 C   0  0  0  0  0  0  0  0  0  0  0  0
   -1.5198   -2.2946    1.4219 C   0  0  0  0  0  0  0  0  0  0  0  0
    4.5566   -0.3484    1.9622 C   0  0  0  0  0  0  0  0  0  0  0  0
   -3.8100    2.2759   -1.8089 C   0  0  0  0  0  0  0  0  0  0  0  0
   -0.1019   -2.0590   -2.6292 C   0  0  0  0  0  0  0  0  0  0  0  0
   -2.1040   -2.3580    2.8065 C   0  0  0  0  0  0  0  0  0  0  0  0
  1 21  2  0
  2 22  2  0
  3 25  2  0
  4 26  2  0
  5 33  1  0
  6 34  1  0
  7 33  2  0
  8 34  2  0
  9 17  1  0
  9 21  1  0
  9 25  1  0
 10 18  1  0
 10 22  1  0
 10 26  1  0
 11 23  1  0
 11 25  1  0
 11 31  1  0
 12 24  1  0
 12 26  1  0
 12 32  1  0
 13 19  1  0
 13 27  1  0
 13 29  1  0
 14 20  1  0
 14 28  1  0
 14 30  1  0
 15 23  1  0
 15 27  2  0
 16 24  1  0
 16 28  2  0
 17 18  1  0
 19 21  1  0
 19 23  2  0
 20 22  1  0
 20 24  2  0
 29 33  1  0
 30 34  1  0
M  END
>  <PUBCHEM_COMPOUND_CID>  (1) 
14959

>  <PUBCHEM_CONFORMER_RMSD>  (1) 
1

>  <PUBCHEM_CONFORMER_DIVERSEORDER>  (1) 
1
16
34
39
14
35
41
33
15
10
40
18
25
13
36
9
28
17
26
11
20
32
2
7
29
30
12
27
21
22
4
31
37
6
24
8
3
5
38
23
19

>  <PUBCHEM_MMFF94_PARTIAL_CHARGES>  (1) 
38
1 -0.57
10 -0.42
11 -0.42
12 -0.42
13 0.05
14 0.05
15 -0.57
16 -0.57
17 0.3
18 0.3
19 -0.24
2 -0.57
20 -0.24
21 0.71
22 0.71
23 0.29
24 0.29
25 0.69
26 0.69
27 0.04
28 0.04
29 0.32
3 -0.57
30 0.32
31 0.3
32 0.3
33 0.66
34 0.66
39 0.15
4 -0.57
40 0.15
5 -0.65
51 0.5
52 0.5
6 -0.65
7 -0.57
8 -0.57
9 -0.42

>  <PUBCHEM_EFFECTIVE_ROTOR_COUNT>  (1) 
7

>  <PUBCHEM_PHARMACOPHORE_FEATURES>  (1) 
16
1 1 acceptor
1 2 acceptor
1 3 acceptor
1 4 acceptor
1 5 acceptor
1 6 acceptor
1 7 acceptor
1 8 acceptor
3 13 15 27 cation
3 14 16 28 cation
3 5 7 33 anion
3 6 8 34 anion
5 13 15 19 23 27 rings
5 14 16 20 24 28 rings
6 10 12 20 22 24 26 rings
6 9 11 19 21 23 25 rings

>  <PUBCHEM_HEAVY_ATOM_COUNT>  (1) 
34

>  <PUBCHEM_ATOM_DEF_STEREO_COUNT>  (1) 
0

>  <PUBCHEM_ATOM_UDEF_STEREO_COUNT>  (1) 
0

>  <PUBCHEM_BOND_DEF_STEREO_COUNT>  (1) 
0

>  <PUBCHEM_BOND_UDEF_STEREO_COUNT>  (1) 
0

>  <PUBCHEM_ISOTOPIC_ATOM_COUNT>  (1) 
0

>  <PUBCHEM_COMPONENT_COUNT>  (1) 
1

>  <PUBCHEM_CACTVS_TAUTO_COUNT>  (1) 
1

>  <PUBCHEM_CONFORMER_ID>  (1) 
00003A6F00000001

>  <PUBCHEM_MMFF94_ENERGY>  (1) 
49.7997

>  <PUBCHEM_FEATURE_SELFOVERLAP>  (1) 
81.546

>  <PUBCHEM_SHAPE_FINGERPRINT>  (1) 
11370993 70 17915720021128315076
11578080 2 16227148445107904092
11828532 37 17679571506042771807
12422481 6 18272104772974813835
13140716 1 17916308234121705444
14114207 22 12522321148631251354
15664445 248 16740903108601964393
17974551 9 18045501915622112770
20600515 1 17894906300870145108
23559900 14 18341041926995909072
238 59 17630877205989223414
35225 105 18048007719806354078
469060 322 17622144085767180390

>  <PUBCHEM_SHAPE_MULTIPOLES>  (1) 
612.9
6.36
4.18
3.29
2.31
1.37
0.78
-0.25
1.21
-1.32
0.33
-1.05
-3.26
3.12

>  <PUBCHEM_SHAPE_SELFOVERLAP>  (1) 
1341.967

>  <PUBCHEM_SHAPE_VOLUME>  (1) 
330.2

>  <PUBCHEM_COORDINATE_TYPE>  (1) 
2
5
10

$$$$
