14951
     RDKit          3D

 42 45  0  0  1  0  0  0  0  0999 V2000
    0.2889    0.8377   -0.2181 O   0  0  0  0  0  0  0  0  0  0  0  0
    3.8839    0.5624    0.3294 O   0  0  0  0  0  0  0  0  0  0  0  0
   -0.6128   -0.8322   -1.6094 O   0  0  0  0  0  0  0  0  0  0  0  0
   -3.7334   -0.7965    0.1599 O   0  0  0  0  0  0  0  0  0  0  0  0
    3.2021    2.2539   -1.8664 O   0  0  0  0  0  0  0  0  0  0  0  0
    4.3839   -1.6849    0.8758 O   0  0  0  0  0  0  0  0  0  0  0  0
   -5.2090    1.0526    0.2121 O   0  0  0  0  0  0  0  0  0  0  0  0
   -1.4525   -2.0775    0.9947 O   0  0  0  0  0  0  0  0  0  0  0  0
    8.1556   -0.1612    0.1416 O   0  0  0  0  0  0  0  0  0  0  0  0
    6.9302   -1.9169   -1.7770 O   0  0  0  0  0  0  0  0  0  0  0  0
   -7.3812   -1.7881    2.2852 O   0  0  0  0  0  0  0  0  0  0  0  0
   -2.1483   -0.8261   -3.9756 O   0  0  0  0  0  0  0  0  0  0  0  0
   -8.1460   -1.0873   -0.3961 O   0  0  0  0  0  0  0  0  0  0  0  0
    3.2053   -3.6595   -0.5951 O   0  0  0  0  0  0  0  0  0  0  0  0
    1.1982    2.0011    2.4128 N   0  0  0  0  0  0  0  0  0  0  0  0
    0.4688    3.8111    0.0691 N   0  0  0  0  0  0  0  0  0  0  0  0
    6.2540    1.4255    1.6674 N   0  0  0  0  0  0  0  0  0  0  0  0
   -4.5315   -1.5205    2.8041 N   0  0  0  0  0  0  0  0  0  0  0  0
   -6.0038    2.1815   -2.2350 N   0  0  0  0  0  0  0  0  0  0  0  0
    1.6716    0.9516   -0.5391 C   0  0  0  0  0  0  0  0  0  0  0  0
    2.5274    0.7750    0.7273 C   0  0  0  0  0  0  0  0  0  0  0  0
    2.4701    1.9775    1.6886 C   0  0  0  0  0  0  0  0  0  0  0  0
    1.9147    2.2952   -1.2468 C   0  0  0  0  0  0  0  0  0  0  0  0
    1.8513    3.5136   -0.3061 C   0  0  0  0  0  0  0  0  0  0  0  0
    2.7277    3.2999    0.9415 C   0  0  0  0  0  0  0  0  0  0  0  0
   -0.1440   -0.5159   -0.2835 C   0  0  0  0  0  0  0  0  0  0  0  0
   -2.4812   -0.3032   -0.2659 C   0  0  0  0  0  0  0  0  0  0  0  0
   -1.3363   -0.7022    0.6434 C   0  0  0  0  0  0  0  0  0  0  0  0
   -2.0491   -0.9118   -1.5900 C   0  0  0  0  0  0  0  0  0  0  0  0
    4.5564   -0.3105    1.2346 C   0  0  0  0  0  0  0  0  0  0  0  0
    6.0518    0.0224    1.3045 C   0  0  0  0  0  0  0  0  0  0  0  0
   -4.4218    0.1411    0.9848 C   0  0  0  0  0  0  0  0  0  0  0  0
    6.7429   -0.2943   -0.0262 C   0  0  0  0  0  0  0  0  0  0  0  0
   -5.3145   -0.5794    2.0025 C   0  0  0  0  0  0  0  0  0  0  0  0
    6.4328   -1.7332   -0.4538 C   0  0  0  0  0  0  0  0  0  0  0  0
    4.9256   -2.0125   -0.4083 C   0  0  0  0  0  0  0  0  0  0  0  0
   -6.4686   -1.3020    1.2992 C   0  0  0  0  0  0  0  0  0  0  0  0
   -2.6182   -0.1896   -2.7984 C   0  0  0  0  0  0  0  0  0  0  0  0
   -7.2146   -0.3327    0.3754 C   0  0  0  0  0  0  0  0  0  0  0  0
   -6.2425    0.4144   -0.5458 C   0  0  0  0  0  0  0  0  0  0  0  0
    4.6082   -3.4833   -0.6645 C   0  0  0  0  0  0  0  0  0  0  0  0
   -6.9423    1.5048   -1.3527 C   0  0  0  0  0  0  0  0  0  0  0  0
  1 20  1  0
  1 26  1  0
  2 21  1  0
  2 30  1  0
  3 26  1  0
  3 29  1  0
  4 27  1  0
  4 32  1  0
  5 23  1  0
  6 30  1  0
  6 36  1  0
  7 32  1  0
  7 40  1  0
  8 28  1  0
  9 33  1  0
 10 35  1  0
 11 37  1  0
 12 38  1  0
 13 39  1  0
 14 41  1  0
 15 22  1  0
 16 24  1  0
 17 31  1  0
 18 34  1  0
 19 42  1  0
 20 21  1  0
 20 23  1  0
 21 22  1  0
 22 25  1  0
 23 24  1  0
 24 25  1  0
 26 28  1  0
 27 28  1  0
 27 29  1  0
 29 38  1  0
 30 31  1  0
 31 33  1  0
 32 34  1  0
 33 35  1  0
 34 37  1  0
 35 36  1  0
 36 41  1  0
 37 39  1  0
 39 40  1  0
 40 42  1  0
M  END
>  <PUBCHEM_COMPOUND_CID>  (1) 
14951

>  <PUBCHEM_CONFORMER_RMSD>  (1) 
1.2

>  <PUBCHEM_CONFORMER_DIVERSEORDER>  (1) 
1
81
63
30
74
31
62
86
35
18
78
46
80
45
64
72
24
79
89
76
67
91
23
53
16
77
38
66
70
37
48
32
87
71
82
41
56
15
88
17
60
51
83
2
33
54
39
69
21
92
75
65
90
26
36
61
6
25
49
14
85
8
84
29
68
34
27
57
20
47
55
73
28
22
10
5
4
40
52
43
58
12
42
7
9
50
44
3
19
59
13
11

>  <PUBCHEM_MMFF94_PARTIAL_CHARGES>  (1) 
59
1 -0.56
10 -0.68
11 -0.68
12 -0.68
13 -0.68
14 -0.68
15 -0.99
16 -0.99
17 -0.99
18 -0.99
19 -0.99
2 -0.56
20 0.28
21 0.28
22 0.27
23 0.28
24 0.27
26 0.56
27 0.28
28 0.28
29 0.28
3 -0.56
30 0.56
31 0.27
32 0.56
33 0.28
34 0.27
35 0.28
36 0.28
37 0.28
38 0.28
39 0.28
4 -0.56
40 0.28
41 0.28
42 0.27
5 -0.68
58 0.36
59 0.36
6 -0.56
61 0.36
62 0.36
66 0.4
7 -0.56
71 0.4
72 0.36
73 0.36
78 0.36
79 0.36
8 -0.68
80 0.4
81 0.4
82 0.4
83 0.4
84 0.4
85 0.36
86 0.36
87 0.4
9 -0.68

>  <PUBCHEM_EFFECTIVE_ROTOR_COUNT>  (1) 
13.6

>  <PUBCHEM_PHARMACOPHORE_FEATURES>  (1) 
36
1 1 acceptor
1 10 acceptor
1 10 donor
1 11 acceptor
1 11 donor
1 12 acceptor
1 12 donor
1 13 acceptor
1 13 donor
1 14 acceptor
1 14 donor
1 15 cation
1 15 donor
1 16 cation
1 16 donor
1 17 cation
1 17 donor
1 18 cation
1 18 donor
1 19 cation
1 19 donor
1 2 acceptor
1 3 acceptor
1 4 acceptor
1 5 acceptor
1 5 donor
1 6 acceptor
1 7 acceptor
1 8 acceptor
1 8 donor
1 9 acceptor
1 9 donor
5 3 26 27 28 29 rings
6 20 21 22 23 24 25 rings
6 6 30 31 33 35 36 rings
6 7 32 34 37 39 40 rings

>  <PUBCHEM_HEAVY_ATOM_COUNT>  (1) 
42

>  <PUBCHEM_ATOM_DEF_STEREO_COUNT>  (1) 
18

>  <PUBCHEM_ATOM_UDEF_STEREO_COUNT>  (1) 
1

>  <PUBCHEM_BOND_DEF_STEREO_COUNT>  (1) 
0

>  <PUBCHEM_BOND_UDEF_STEREO_COUNT>  (1) 
0

>  <PUBCHEM_ISOTOPIC_ATOM_COUNT>  (1) 
0

>  <PUBCHEM_COMPONENT_COUNT>  (1) 
1

>  <PUBCHEM_CACTVS_TAUTO_COUNT>  (1) 
1

>  <PUBCHEM_CONFORMER_ID>  (1) 
00003A6700000001

>  <PUBCHEM_MMFF94_ENERGY>  (1) 
100.1668

>  <PUBCHEM_FEATURE_SELFOVERLAP>  (1) 
182.901

>  <PUBCHEM_SHAPE_FINGERPRINT>  (1) 
10319926 262 17821723958060960553
11135609 12 18040988579435776908
12128747 34 18261671463904272363
12422481 6 17845376552716961245
13150687 139 11818995163366157400
13673619 4 17530687636149748641
13782708 43 18040439914875508443
13811026 1 18411136926573064392
14840074 17 17989202612643620350
14856354 85 15430042058908245403
15021287 119 18272364287562401893
15183329 4 16988552498894233567
15328829 1 17417799644024781647
15461852 350 13470403417850303384
15849732 13 18202281398637077558
20554085 129 13614527337568155702
21792965 131 17916290797441357671
23522609 53 15430608225169374109
23559900 14 18260547784817392427
24771750 20 17970927780365754204
394071 54 18131635573799002342
4144715 1 18187653548145632225
437795 51 18410858746253657186
437815 12 18260271840972653345
46194498 28 17458347481194102588
6371380 46 17967812777528968731
6691757 9 16343704369664384239

>  <PUBCHEM_SHAPE_MULTIPOLES>  (1) 
757.26
21.86
3.5
2.47
11.81
1.27
0.94
-8.37
-3.27
-4.48
0.28
2.94
-0.19
3.5

>  <PUBCHEM_SHAPE_SELFOVERLAP>  (1) 
1568.256

>  <PUBCHEM_SHAPE_VOLUME>  (1) 
426

>  <PUBCHEM_COORDINATE_TYPE>  (1) 
2
5
10

$$$$
