1496
     RDKit          3D

 31 35  0  0  1  0  0  0  0  0999 V2000
   -0.0879    1.3183   -0.1826 O   0  0  0  0  0  0  0  0  0  0  0  0
    6.9116   -0.6176    0.1878 N   0  0  0  0  0  0  0  0  0  0  0  0
   -6.4608   -1.3730    1.0329 N   0  0  0  0  0  0  0  0  0  0  0  0
    6.8215    1.0953    1.8481 N   0  0  0  0  0  0  0  0  0  0  0  0
   -6.4449    0.4433    2.5818 N   0  0  0  0  0  0  0  0  0  0  0  0
    6.2859   -1.8371   -0.3417 C   0  0  0  0  0  0  0  0  0  0  0  0
   -6.7676   -1.7279   -0.3596 C   0  0  0  0  0  0  0  0  0  0  0  0
    7.2289   -2.4961   -1.3699 C   0  0  0  0  0  0  0  0  0  0  0  0
    6.5976   -3.0255    0.5914 C   0  0  0  0  0  0  0  0  0  0  0  0
   -7.4236   -3.1237   -0.4038 C   0  0  0  0  0  0  0  0  0  0  0  0
   -5.5285   -2.3738   -1.0139 C   0  0  0  0  0  0  0  0  0  0  0  0
    6.9173   -3.8403   -0.6792 C   0  0  0  0  0  0  0  0  0  0  0  0
   -6.4827   -3.4440   -1.5840 C   0  0  0  0  0  0  0  0  0  0  0  0
    6.0444    0.0093    1.2154 C   0  0  0  0  0  0  0  0  0  0  0  0
   -6.2412    0.0886    1.1618 C   0  0  0  0  0  0  0  0  0  0  0  0
    4.7321    0.4923    0.6969 C   0  0  0  0  0  0  0  0  0  0  0  0
   -4.9186    0.5559    0.6550 C   0  0  0  0  0  0  0  0  0  0  0  0
    4.6923    1.4419   -0.3240 C   0  0  0  0  0  0  0  0  0  0  0  0
   -4.8584    1.5050   -0.3654 C   0  0  0  0  0  0  0  0  0  0  0  0
    3.5445   -0.0055    1.2331 C   0  0  0  0  0  0  0  0  0  0  0  0
   -3.7420    0.0436    1.2015 C   0  0  0  0  0  0  0  0  0  0  0  0
    2.2773    1.3958   -0.2727 C   0  0  0  0  0  0  0  0  0  0  0  0
   -2.4447    1.4296   -0.2928 C   0  0  0  0  0  0  0  0  0  0  0  0
    3.4649    1.8936   -0.8087 C   0  0  0  0  0  0  0  0  0  0  0  0
   -3.6215    1.9418   -0.8393 C   0  0  0  0  0  0  0  0  0  0  0  0
    2.3171    0.4462    0.7484 C   0  0  0  0  0  0  0  0  0  0  0  0
   -2.5051    0.4805    0.7277 C   0  0  0  0  0  0  0  0  0  0  0  0
    1.0078    1.8634   -0.7735 C   0  0  0  0  0  0  0  0  0  0  0  0
   -1.1715    1.8788   -0.7809 C   0  0  0  0  0  0  0  0  0  0  0  0
    0.6355    2.7658   -1.7426 C   0  0  0  0  0  0  0  0  0  0  0  0
   -0.7798    2.7757   -1.7473 C   0  0  0  0  0  0  0  0  0  0  0  0
  1 28  1  0
  1 29  1  0
  2  6  1  0
  2 14  1  0
  3  7  1  0
  3 15  1  0
  4 14  1  0
  5 15  1  0
  6  8  1  0
  6  9  1  0
  7 10  1  0
  7 11  1  0
  8 12  1  0
  9 12  1  0
 10 13  1  0
 11 13  1  0
 14 16  1  0
 15 17  1  0
 16 18  2  0
 16 20  1  0
 17 19  2  0
 17 21  1  0
 18 24  1  0
 19 25  1  0
 20 26  2  0
 21 27  2  0
 22 24  2  0
 22 26  1  0
 22 28  1  0
 23 25  2  0
 23 27  1  0
 23 29  1  0
 28 30  2  0
 29 31  2  0
 30 31  1  0
M  END
>  <PUBCHEM_COMPOUND_CID>  (1) 
1496

>  <PUBCHEM_CONFORMER_RMSD>  (1) 
1

>  <PUBCHEM_CONFORMER_DIVERSEORDER>  (1) 
1
32
18
14
29
24
5
2
23
28
13
12
9
21
19
16
25
30
8
7
33
3
31
22
15
27
11
4
26
6
20
10
17

>  <PUBCHEM_MMFF94_PARTIAL_CHARGES>  (1) 
41
1 -0.28
14 0.68
15 0.68
16 -0.14
17 -0.14
18 -0.15
19 -0.15
2 -0.84
20 -0.15
21 -0.15
22 0.05
23 0.05
24 -0.15
25 -0.15
26 -0.15
27 -0.15
28 0.09
29 0.09
3 -0.84
30 -0.15
31 -0.15
4 -0.99
46 0.36
47 0.36
5 -0.99
50 0.36
51 0.36
52 0.36
53 0.36
54 0.15
55 0.15
56 0.15
57 0.15
58 0.15
59 0.15
6 0.21
60 0.15
61 0.15
62 0.15
63 0.15
7 0.21

>  <PUBCHEM_EFFECTIVE_ROTOR_COUNT>  (1) 
9.6

>  <PUBCHEM_PHARMACOPHORE_FEATURES>  (1) 
14
1 1 acceptor
1 2 cation
1 2 donor
1 3 cation
1 3 donor
1 4 cation
1 4 donor
1 5 cation
1 5 donor
4 6 8 9 12 rings
4 7 10 11 13 rings
5 1 28 29 30 31 rings
6 16 18 20 22 24 26 rings
6 17 19 21 23 25 27 rings

>  <PUBCHEM_HEAVY_ATOM_COUNT>  (1) 
31

>  <PUBCHEM_ATOM_DEF_STEREO_COUNT>  (1) 
0

>  <PUBCHEM_ATOM_UDEF_STEREO_COUNT>  (1) 
2

>  <PUBCHEM_BOND_DEF_STEREO_COUNT>  (1) 
0

>  <PUBCHEM_BOND_UDEF_STEREO_COUNT>  (1) 
0

>  <PUBCHEM_ISOTOPIC_ATOM_COUNT>  (1) 
0

>  <PUBCHEM_COMPONENT_COUNT>  (1) 
1

>  <PUBCHEM_CACTVS_TAUTO_COUNT>  (1) 
1

>  <PUBCHEM_CONFORMER_ID>  (1) 
000005D800000001

>  <PUBCHEM_MMFF94_ENERGY>  (1) 
82.7189

>  <PUBCHEM_FEATURE_SELFOVERLAP>  (1) 
71.184

>  <PUBCHEM_SHAPE_FINGERPRINT>  (1) 
10 15 15698002967834017753
10981352 41 18410291407133335330
11103572 95 18343579621238795071
11227688 84 18042953307571103878
11331351 85 18337397054239534469
11393246 34 18409163290532634447
11497681 19 18408324389352704740
11963148 33 18116989988786685578
12120059 9 18191561134860389586
12895837 130 7997679901151987347
13627175 4 18261690263140203067
13782708 43 18411696561196965260
14415361 349 18262811786433024302
14428016 167 18409727327129274614
14556957 393 14274027554808820166
14931854 50 16660360359487684352
15188451 53 18129941308269555029
15320294 125 18128533950766877647
15352257 5 18342177748108380966
15361156 5 17750245715749935485
15510800 12 18041292031780838099
15950262 2 7853575724855489226
16994733 274 10953457448768301527
1768 124 18412543224058363398
19438510 23 10807938175864585277
20028762 73 18410008870635304598
208703 8 18263917899467848495
21033648 29 15338578080619462113
21130935 74 18344145882463977472
21267235 1 17749399147647154873
21424621 283 9727635015998978381
21585481 151 18200883872599278926
22002106 203 18187633701344818522
2303208 19 18337951165756233156
23522609 53 18048631306636613877
3383291 50 17822013142198013427
3504750 166 18413110542283779037
3711267 37 10881663691036646439
397830 11 17702655708979420753
4093350 32 11674881078943603770
474113 269 18341604959012372919
4756326 101 13551769504259142398
54076057 127 17846776318226611240
5718773 13 18336824286190314471
5719381 36 18261945250716431322
57816373 69 18410576210066200276
6712543 237 17989208127239183471
9555976 147 17703524220328729081
96874 4 18268704099516950319
9831232 110 18336548197440313902
9962374 69 18334857243114685300

>  <PUBCHEM_SHAPE_MULTIPOLES>  (1) 
612.17
25.37
4.19
1.68
4.12
3.67
-0.32
27.61
-3.52
0.52
2.59
-0.84
-0.25
-0.39

>  <PUBCHEM_SHAPE_SELFOVERLAP>  (1) 
1326.171

>  <PUBCHEM_SHAPE_VOLUME>  (1) 
337.7

>  <PUBCHEM_COORDINATE_TYPE>  (1) 
2
5
10

$$$$
