14977
     RDKit          3D

 40 42  0  0  1  0  0  0  0  0999 V2000
   -2.1468   -2.2987   -1.6198 O   0  0  0  0  0  0  0  0  0  0  0  0
    0.2797   -1.1205   -1.7425 O   0  0  0  0  0  0  0  0  0  0  0  0
   -3.4553   -2.8935    0.3055 O   0  0  0  0  0  0  0  0  0  0  0  0
    0.8470    1.3317   -0.6207 O   0  0  0  0  0  0  0  0  0  0  0  0
   -4.6439    0.6616    1.8495 O   0  0  0  0  0  0  0  0  0  0  0  0
    0.6143    3.5648   -1.1294 O   0  0  0  0  0  0  0  0  0  0  0  0
    4.3316   -0.7084   -0.1220 O   0  0  0  0  0  0  0  0  0  0  0  0
    3.5708    2.3848   -2.2773 O   0  0  0  0  0  0  0  0  0  0  0  0
   -3.7670    0.6970   -0.2749 N   0  0  0  0  0  0  0  0  0  0  0  0
   -0.4454   -2.2954    0.6372 N   0  0  0  0  0  0  0  0  0  0  0  0
   -2.3889   -1.0918    2.2965 N   0  0  0  0  0  0  0  0  0  0  0  0
   -5.1570    2.4469    0.4529 N   0  0  0  0  0  0  0  0  0  0  0  0
   -3.0523   -0.5687   -0.1378 C   0  0  0  0  0  0  0  0  0  0  0  0
   -2.1538   -0.8741   -1.4032 C   0  0  0  0  0  0  0  0  0  0  0  0
   -0.7201   -0.4442   -0.9841 C   0  0  0  0  0  0  0  0  0  0  0  0
   -2.0251   -0.4307    1.0481 C   0  0  0  0  0  0  0  0  0  0  0  0
   -0.6527   -0.8655    0.4973 C   0  0  0  0  0  0  0  0  0  0  0  0
   -4.1166   -1.6577    0.0913 C   0  0  0  0  0  0  0  0  0  0  0  0
   -2.6446   -0.2725   -2.7227 C   0  0  0  0  0  0  0  0  0  0  0  0
   -0.4424    1.0597   -1.1362 C   0  0  0  0  0  0  0  0  0  0  0  0
   -5.0492   -1.7690   -1.0958 C   0  0  0  0  0  0  0  0  0  0  0  0
   -4.5268    1.2264    0.7577 C   0  0  0  0  0  0  0  0  0  0  0  0
    0.7968   -2.9003    0.5600 C   0  0  0  0  0  0  0  0  0  0  0  0
    1.9602   -2.1399    0.3315 C   0  0  0  0  0  0  0  0  0  0  0  0
    0.9333   -4.2946    0.7060 C   0  0  0  0  0  0  0  0  0  0  0  0
    1.2589    2.6314   -0.6769 C   0  0  0  0  0  0  0  0  0  0  0  0
   -4.5765    3.4065   -0.4832 C   0  0  0  0  0  0  0  0  0  0  0  0
   -6.4284    2.8314    1.0515 C   0  0  0  0  0  0  0  0  0  0  0  0
    3.2119   -2.7504    0.2521 C   0  0  0  0  0  0  0  0  0  0  0  0
    2.1851   -4.9050    0.6268 C   0  0  0  0  0  0  0  0  0  0  0  0
    2.6223    2.7828   -0.1086 C   0  0  0  0  0  0  0  0  0  0  0  0
    3.3242   -4.1329    0.3997 C   0  0  0  0  0  0  0  0  0  0  0  0
    4.4002   -1.9461    0.0146 C   0  0  0  0  0  0  0  0  0  0  0  0
    2.7677    3.0510    1.2393 C   0  0  0  0  0  0  0  0  0  0  0  0
    3.7125    2.6504   -0.9479 C   0  0  0  0  0  0  0  0  0  0  0  0
    5.7710   -2.6078   -0.0741 C   0  0  0  0  0  0  0  0  0  0  0  0
    4.0510    3.1920    1.7678 C   0  0  0  0  0  0  0  0  0  0  0  0
    1.5936    3.1954    2.1523 C   0  0  0  0  0  0  0  0  0  0  0  0
    4.9957    2.7915   -0.4193 C   0  0  0  0  0  0  0  0  0  0  0  0
    5.1649    3.0622    0.9386 C   0  0  0  0  0  0  0  0  0  0  0  0
  1 14  1  0
  2 15  1  0
  3 18  1  0
  4 20  1  0
  4 26  1  0
  5 22  2  0
  6 26  2  0
  7 33  2  0
  8 35  1  0
  9 13  1  0
  9 22  1  0
 10 17  1  0
 10 23  1  0
 11 16  1  0
 12 22  1  0
 12 27  1  0
 12 28  1  0
 13 14  1  0
 13 16  1  0
 13 18  1  0
 14 15  1  0
 14 19  1  0
 15 17  1  0
 15 20  1  0
 16 17  1  0
 18 21  1  0
 23 24  2  0
 23 25  1  0
 24 29  1  0
 25 30  2  0
 26 31  1  0
 29 32  2  0
 29 33  1  0
 30 32  1  0
 31 34  2  0
 31 35  1  0
 33 36  1  0
 34 37  1  0
 34 38  1  0
 35 39  2  0
 37 40  2  0
 39 40  1  0
M  END
>  <PUBCHEM_COMPOUND_CID>  (1) 
14977

>  <PUBCHEM_CONFORMER_RMSD>  (1) 
1.6

>  <PUBCHEM_CONFORMER_DIVERSEORDER>  (1) 
1
254
315
22
103
325
34
66
193
244
125
323
88
235
302
118
308
153
266
140
154
167
256
10
236
217
179
127
160
188
224
294
145
295
301
39
19
37
240
232
8
63
317
84
251
175
133
44
74
65
192
195
123
91
31
116
291
73
166
292
20
275
199
239
149
135
214
335
75
136
59
196
246
271
98
96
260
216
161
51
249
286
203
219
338
17
7
289
71
198
79
231
119
182
187
341
334
237
82
47
337
111
134
60
282
124
139
227
304
265
120
238
305
280
241
11
46
201
306
336
83
38
311
56
67
297
211
110
174
97
250
176
170
247
132
76
129
105
99
100
143
299
310
157
274
183
148
269
18
212
218
42
204
57
268
279
194
92
281
290
340
270
70
25
273
298
141
328
142
234
253
321
53
130
318
223
332
215
158
43
189
185
333
293
222
6
284
267
164
109
106
233
262
259
207
85
230
172
23
126
9
41
147
112
288
121
229
27
190
261
220
40
128
213
16
55
263
48
87
313
90
278
113
177
163
86
159
162
15
180
178
89
169
245
101
150
58
303
156
314
144
287
93
52
151
5
324
272
285
45
309
104
206
300
3
138
33
258
54
29
78
243
226
255
155
257
283
64
329
77
202
173
327
200
61
102
264
24
114
137
330
205
81
2
296
26
131
21
186
225
181
277
208
248
80
115
94
221
122
210
108
36
191
62
209
32
252
320
168
276
68
72
69
307
322
326
339
165
242
331
4
95
197
50
228
319
171
312
117
316
152
28
184
12
107
49
13
35
14
146
30

>  <PUBCHEM_MMFF94_PARTIAL_CHARGES>  (1) 
53
1 -0.68
10 -0.87
11 -0.99
12 -0.66
13 0.3
14 0.28
15 0.28
16 0.27
17 0.37
18 0.28
2 -0.68
20 0.28
22 0.69
23 0.1
24 -0.15
25 -0.15
26 0.63
27 0.3
28 0.3
29 0.09
3 -0.68
30 -0.15
31 0.09
32 -0.15
33 0.42
34 -0.14
35 0.08
36 0.06
37 -0.15
38 0.14
39 -0.15
4 -0.43
40 -0.15
49 0.37
5 -0.57
50 0.4
51 0.36
52 0.36
53 0.4
54 0.4
58 0.4
59 0.15
6 -0.57
60 0.15
67 0.15
68 0.15
7 -0.57
72 0.15
76 0.15
77 0.15
78 0.45
8 -0.53
9 -0.73

>  <PUBCHEM_EFFECTIVE_ROTOR_COUNT>  (1) 
12

>  <PUBCHEM_PHARMACOPHORE_FEATURES>  (1) 
18
1 1 acceptor
1 1 donor
1 10 cation
1 10 donor
1 11 cation
1 11 donor
1 2 acceptor
1 2 donor
1 3 acceptor
1 3 donor
1 5 acceptor
1 6 acceptor
1 7 acceptor
1 8 donor
1 9 donor
5 13 14 15 16 17 rings
6 23 24 25 29 30 32 rings
6 31 34 35 37 39 40 rings

>  <PUBCHEM_HEAVY_ATOM_COUNT>  (1) 
40

>  <PUBCHEM_ATOM_DEF_STEREO_COUNT>  (1) 
1

>  <PUBCHEM_ATOM_UDEF_STEREO_COUNT>  (1) 
5

>  <PUBCHEM_BOND_DEF_STEREO_COUNT>  (1) 
0

>  <PUBCHEM_BOND_UDEF_STEREO_COUNT>  (1) 
0

>  <PUBCHEM_ISOTOPIC_ATOM_COUNT>  (1) 
0

>  <PUBCHEM_COMPONENT_COUNT>  (1) 
1

>  <PUBCHEM_CACTVS_TAUTO_COUNT>  (1) 
52

>  <PUBCHEM_CONFORMER_ID>  (1) 
00003A8100000001

>  <PUBCHEM_MMFF94_ENERGY>  (1) 
166.7961

>  <PUBCHEM_FEATURE_SELFOVERLAP>  (1) 
91.446

>  <PUBCHEM_SHAPE_FINGERPRINT>  (1) 
10190108 129 17978811304802208531
1100329 8 18267585710663577365
11049842 53 18042140876163856436
11763715 3 17058052676458201255
12128747 34 18189345588897681729
12925494 130 18410012139532308361
13140716 1 18410571769270476340
13512321 179 17699296464886676457
1361 2 18263637532128599930
13617811 41 17976815716619126583
13692114 37 17618491525336233406
14020679 6 17896331229110847555
14790565 3 18336551624423393100
14955137 171 17974020444708399923
15082195 135 18267846351276376247
15775530 1 17751615711828498388
17980427 23 17916014656612541607
19930381 70 18334852831719438286
20764821 26 18189886682168520822
21033648 29 18199183086503199728
22122407 14 18197513843653295721
22223350 30 16950572081505254419
4112364 45 18271255919891513657
469060 322 18121223083057334114
5265222 85 17976551829940493748
79837 15 17976539734504843106
9981440 41 18263927812162210315

>  <PUBCHEM_SHAPE_MULTIPOLES>  (1) 
756.3
12.07
6.72
1.82
5.61
1.56
-0.29
-6.03
1.72
-7.07
1.6
0.68
-0.84
-0.94

>  <PUBCHEM_SHAPE_SELFOVERLAP>  (1) 
1612.325

>  <PUBCHEM_SHAPE_VOLUME>  (1) 
418.4

>  <PUBCHEM_COORDINATE_TYPE>  (1) 
2
5
10

$$$$
