1499
     RDKit          3D

 28 30  0  0  1  0  0  0  0  0999 V2000
   -0.8245   -1.7435   -2.1334 O   0  0  0  0  0  0  0  0  0  0  0  0
   -5.1299    3.7680    1.5374 N   0  0  0  0  0  0  0  0  0  0  0  0
    6.9118    2.0405   -1.0726 N   0  0  0  0  0  0  0  0  0  0  0  0
   -4.0685    4.3258   -0.4684 N   0  0  0  0  0  0  0  0  0  0  0  0
    6.9440    1.5801    1.2181 N   0  0  0  0  0  0  0  0  0  0  0  0
   -1.7672   -2.4736   -0.0379 C   0  0  0  0  0  0  0  0  0  0  0  0
    0.7131   -1.6683   -0.3087 C   0  0  0  0  0  0  0  0  0  0  0  0
   -1.6441   -3.9941    0.0949 C   0  0  0  0  0  0  0  0  0  0  0  0
    1.0385   -2.4764    0.9508 C   0  0  0  0  0  0  0  0  0  0  0  0
   -0.5800   -4.4476    1.0938 C   0  0  0  0  0  0  0  0  0  0  0  0
    0.8430   -3.9837    0.7871 C   0  0  0  0  0  0  0  0  0  0  0  0
   -0.6466   -1.9552   -0.9305 C   0  0  0  0  0  0  0  0  0  0  0  0
   -3.1254   -2.0984   -0.6360 C   0  0  0  0  0  0  0  0  0  0  0  0
    0.8146   -0.1709   -0.0277 C   0  0  0  0  0  0  0  0  0  0  0  0
   -3.4672   -0.6602   -0.3669 C   0  0  0  0  0  0  0  0  0  0  0  0
    2.2453    0.2919    0.0013 C   0  0  0  0  0  0  0  0  0  0  0  0
   -4.1650   -0.3254    0.7869 C   0  0  0  0  0  0  0  0  0  0  0  0
    2.8470    0.7294   -1.1713 C   0  0  0  0  0  0  0  0  0  0  0  0
   -3.0811    0.3188   -1.2739 C   0  0  0  0  0  0  0  0  0  0  0  0
    2.9464    0.2771    1.1998 C   0  0  0  0  0  0  0  0  0  0  0  0
   -4.4818    1.0097    1.0377 C   0  0  0  0  0  0  0  0  0  0  0  0
    4.1737    1.1598   -1.1448 C   0  0  0  0  0  0  0  0  0  0  0  0
   -3.3978    1.6538   -1.0231 C   0  0  0  0  0  0  0  0  0  0  0  0
    4.2728    0.7075    1.2263 C   0  0  0  0  0  0  0  0  0  0  0  0
   -4.0982    1.9993    0.1327 C   0  0  0  0  0  0  0  0  0  0  0  0
    4.8865    1.1488    0.0540 C   0  0  0  0  0  0  0  0  0  0  0  0
   -4.4297    3.3913    0.3928 C   0  0  0  0  0  0  0  0  0  0  0  0
    6.2703    1.5957    0.0817 C   0  0  0  0  0  0  0  0  0  0  0  0
  1 12  2  0
  2 27  1  0
  3 28  1  0
  4 27  2  0
  5 28  2  0
  6  8  1  0
  6 12  1  0
  6 13  1  0
  7  9  1  0
  7 12  1  0
  7 14  1  0
  8 10  1  0
  9 11  1  0
 10 11  1  0
 13 15  1  0
 14 16  1  0
 15 17  2  0
 15 19  1  0
 16 18  2  0
 16 20  1  0
 17 21  1  0
 18 22  1  0
 19 23  2  0
 20 24  2  0
 21 25  2  0
 22 26  2  0
 23 25  1  0
 24 26  1  0
 25 27  1  0
 26 28  1  0
M  END
>  <PUBCHEM_COMPOUND_CID>  (1) 
1499

>  <PUBCHEM_CONFORMER_RMSD>  (1) 
0.8

>  <PUBCHEM_CONFORMER_DIVERSEORDER>  (1) 
1
17
82
101
43
75
12
103
109
104
99
65
83
61
116
10
53
20
135
16
6
47
133
97
14
121
11
110
76
35
60
85
28
78
112
90
77
59
118
69
9
125
111
67
39
18
5
22
84
106
54
15
93
117
114
131
29
91
64
8
70
95
7
105
4
41
58
56
62
68
40
46
119
129
122
124
94
96
66
108
127
87
86
100
130
42
80
51
52
102
63
107
23
2
38
45
50
71
79
115
88
24
123
92
19
89
113
27
25
55
73
30
33
34
132
26
3
21
36
134
81
48
120
13
31
57
49
44
72
126
37
32
98
128
74

>  <PUBCHEM_MMFF94_PARTIAL_CHARGES>  (1) 
38
1 -0.57
12 0.45
13 0.14
14 0.14
15 -0.14
16 -0.14
17 -0.15
18 -0.15
19 -0.15
2 -0.85
20 -0.15
21 -0.15
22 -0.15
23 -0.15
24 -0.15
25 0.09
26 0.09
27 0.41
28 0.41
3 -0.85
4 -0.85
43 0.15
44 0.15
45 0.15
46 0.15
47 0.15
48 0.15
49 0.15
5 -0.85
50 0.15
51 0.4
52 0.4
53 0.4
54 0.4
55 0.4
56 0.4
6 0.06
7 0.06

>  <PUBCHEM_EFFECTIVE_ROTOR_COUNT>  (1) 
7.2

>  <PUBCHEM_PHARMACOPHORE_FEATURES>  (1) 
10
1 1 acceptor
1 2 donor
1 3 donor
1 4 donor
1 5 donor
3 2 4 27 cation
3 3 5 28 cation
6 15 17 19 21 23 25 rings
6 16 18 20 22 24 26 rings
7 6 7 8 9 10 11 12 rings

>  <PUBCHEM_HEAVY_ATOM_COUNT>  (1) 
28

>  <PUBCHEM_ATOM_DEF_STEREO_COUNT>  (1) 
0

>  <PUBCHEM_ATOM_UDEF_STEREO_COUNT>  (1) 
2

>  <PUBCHEM_BOND_DEF_STEREO_COUNT>  (1) 
0

>  <PUBCHEM_BOND_UDEF_STEREO_COUNT>  (1) 
0

>  <PUBCHEM_ISOTOPIC_ATOM_COUNT>  (1) 
0

>  <PUBCHEM_COMPONENT_COUNT>  (1) 
1

>  <PUBCHEM_CACTVS_TAUTO_COUNT>  (1) 
2

>  <PUBCHEM_CONFORMER_ID>  (1) 
000005DB00000001

>  <PUBCHEM_MMFF94_ENERGY>  (1) 
85.2698

>  <PUBCHEM_FEATURE_SELFOVERLAP>  (1) 
50.832

>  <PUBCHEM_SHAPE_FINGERPRINT>  (1) 
10042902 136 8646766703304806354
10670039 82 18341610455594480564
10937287 8 18338795607465275219
11049842 53 18115892796557021974
11135609 187 18264758875930028557
11135609 201 18272655615326023505
11720765 8 17340422427889811598
12107183 9 18261659382457155738
12390115 104 18410294726578351454
12422481 6 17897421936293062682
12788726 201 17901963150679892359
13140716 1 17976260467494893011
14251764 75 18198065781416344057
14347329 18 18343578551639146448
14466204 15 18411695517593765528
14713325 29 18192152817919051466
14790565 3 18408321060562795066
14849402 71 17905892479052209739
14950920 106 16878236358317844881
15021287 119 16660633107966484148
15163728 17 18410297973489445475
16990350 14 18121502345556629136
17980427 26 18266729191185363575
19304152 47 18261687999544751905
21033650 10 18266197182729398822
21756936 100 18341327876769022342
21796203 349 16685174996970710595
23522609 53 17677063455579234772
283562 15 18337385046054092199
3418910 222 17613157790620247420
3459 39 18270946982329546400
3610482 184 17824560788302149500
397830 11 10737558489096740212
5252454 2 18271520884834590113
5283173 99 18272088370347420016
550186 7 18270970175242466214
57527306 92 16343165579498089651
57724786 102 17980478967182300345
6700243 42 17261077644550790286
7226269 152 18201719587419936064
7288768 16 18260270724761237027
7808743 9 18412262843834037697
79837 15 18188212116589424450
9849439 229 18338518521987462449
9981440 41 18334299747432172347

>  <PUBCHEM_SHAPE_MULTIPOLES>  (1) 
550.43
13.79
5.58
1.41
19.01
2.34
0.14
-18.49
-1.92
-6.72
-1.43
0.08
-0.1
-1.4

>  <PUBCHEM_SHAPE_SELFOVERLAP>  (1) 
1172.839

>  <PUBCHEM_SHAPE_VOLUME>  (1) 
302.5

>  <PUBCHEM_COORDINATE_TYPE>  (1) 
2
5
10

$$$$
