14995
     RDKit          3D

 25 27  0  0  0  0  0  0  0  0999 V2000
   -0.9096   -2.1275   -0.1064 O   0  0  0  0  0  0  0  0  0  0  0  0
   -3.6366   -1.9379   -0.0297 O   0  0  0  0  0  0  0  0  0  0  0  0
   -4.8542    0.5198    0.3098 O   0  0  0  0  0  0  0  0  0  0  0  0
    5.0327   -1.0330    1.1894 O   0  0  0  0  0  0  0  0  0  0  0  0
    4.6601   -0.7754   -1.5284 O   0  0  0  0  0  0  0  0  0  0  0  0
    0.2180    3.1212   -0.8792 C   0  0  0  0  0  0  0  0  0  0  0  0
   -0.4971    2.7681    0.4306 C   0  0  0  0  0  0  0  0  0  0  0  0
    0.7593    1.9427   -1.7067 C   0  0  0  0  0  0  0  0  0  0  0  0
   -1.3276    1.5126    0.3314 C   0  0  0  0  0  0  0  0  0  0  0  0
   -0.6991    0.2575    0.1712 C   0  0  0  0  0  0  0  0  0  0  0  0
    1.5421    0.8931   -0.9254 C   0  0  0  0  0  0  0  0  0  0  0  0
    0.7923    0.1765    0.1147 C   0  0  0  0  0  0  0  0  0  0  0  0
   -1.4862   -0.8973    0.0398 C   0  0  0  0  0  0  0  0  0  0  0  0
   -2.7263    1.5839    0.3731 C   0  0  0  0  0  0  0  0  0  0  0  0
   -2.8776   -0.8103    0.0844 C   0  0  0  0  0  0  0  0  0  0  0  0
    2.8022    0.6350   -1.3141 C   0  0  0  0  0  0  0  0  0  0  0  0
   -3.4958    0.4268    0.2529 C   0  0  0  0  0  0  0  0  0  0  0  0
    1.3441   -0.5031    1.1374 C   0  0  0  0  0  0  0  0  0  0  0  0
    3.7829   -0.3398   -0.7835 C   0  0  0  0  0  0  0  0  0  0  0  0
    2.7319   -0.7025    1.4597 C   0  0  0  0  0  0  0  0  0  0  0  0
    3.7997   -0.6833    0.6579 C   0  0  0  0  0  0  0  0  0  0  0  0
   -0.6435   -2.5597   -1.4373 C   0  0  0  0  0  0  0  0  0  0  0  0
   -4.5564   -1.9905   -1.1174 C   0  0  0  0  0  0  0  0  0  0  0  0
   -5.4573    0.4134    1.5976 C   0  0  0  0  0  0  0  0  0  0  0  0
    5.7021    0.1098    1.6781 C   0  0  0  0  0  0  0  0  0  0  0  0
  1 13  1  0
  1 22  1  0
  2 15  1  0
  2 23  1  0
  3 17  1  0
  3 24  1  0
  4 21  1  0
  4 25  1  0
  5 19  2  0
  6  7  1  0
  6  8  1  0
  7  9  1  0
  8 11  1  0
  9 10  2  0
  9 14  1  0
 10 12  1  0
 10 13  1  0
 11 12  1  0
 11 16  2  0
 12 18  2  0
 13 15  2  0
 14 17  2  0
 15 17  1  0
 16 19  1  0
 18 20  1  0
 19 21  1  0
 20 21  2  0
M  END
>  <PUBCHEM_COMPOUND_CID>  (1) 
14995

>  <PUBCHEM_CONFORMER_RMSD>  (1) 
0.8

>  <PUBCHEM_CONFORMER_DIVERSEORDER>  (1) 
1
7
11
10
12
5
6
8
9
4
3
2

>  <PUBCHEM_MMFF94_PARTIAL_CHARGES>  (1) 
28
1 -0.36
10 0.03
11 -0.14
12 -0.03
13 0.08
14 -0.15
15 0.08
16 -0.14
17 0.08
18 -0.15
19 0.54
2 -0.36
20 -0.15
21 0.09
22 0.28
23 0.28
24 0.28
25 0.28
3 -0.36
32 0.15
33 0.15
34 0.15
35 0.15
4 -0.36
5 -0.57
7 0.14
8 0.14
9 -0.14

>  <PUBCHEM_EFFECTIVE_ROTOR_COUNT>  (1) 
4.6

>  <PUBCHEM_PHARMACOPHORE_FEATURES>  (1) 
8
1 1 acceptor
1 2 acceptor
1 3 acceptor
1 4 acceptor
1 5 acceptor
6 9 10 13 14 15 17 rings
7 11 12 16 18 19 20 21 rings
7 6 7 8 9 10 11 12 rings

>  <PUBCHEM_HEAVY_ATOM_COUNT>  (1) 
25

>  <PUBCHEM_ATOM_DEF_STEREO_COUNT>  (1) 
0

>  <PUBCHEM_ATOM_UDEF_STEREO_COUNT>  (1) 
0

>  <PUBCHEM_BOND_DEF_STEREO_COUNT>  (1) 
0

>  <PUBCHEM_BOND_UDEF_STEREO_COUNT>  (1) 
0

>  <PUBCHEM_ISOTOPIC_ATOM_COUNT>  (1) 
0

>  <PUBCHEM_COMPONENT_COUNT>  (1) 
1

>  <PUBCHEM_CACTVS_TAUTO_COUNT>  (1) 
3

>  <PUBCHEM_CONFORMER_ID>  (1) 
00003A9300000001

>  <PUBCHEM_MMFF94_ENERGY>  (1) 
126.4828

>  <PUBCHEM_FEATURE_SELFOVERLAP>  (1) 
40.631

>  <PUBCHEM_SHAPE_FINGERPRINT>  (1) 
10062212 137 18339930406734122911
10369192 42 17416389078560847784
11578080 2 17897698024885639884
12236239 1 18041001717407685568
12422481 6 18123474877811089171
12553582 1 18261114071089899411
12633257 1 17988907982192209328
12788726 201 18261969431228930248
13140716 1 18342181128679835265
13583140 156 14764335076895426923
13782708 43 17775007839480204126
14910302 57 18200597969764370518
14955137 171 18267325217092478145
1601671 61 18411707551938907537
16752209 62 18411132545959844239
16945 1 18268709420137190009
17349148 13 18410016537367764287
17980427 23 18130500933322554181
1813 80 17458632147146975478
200 152 17167859730013060272
20600515 1 18202565119845066088
21033648 29 17418365917681587851
21267235 1 18041853826118602330
22112679 90 18334299747047244676
22182313 1 18051144592611264733
23366157 5 17972886035822848261
23402539 116 18412816984603650751
23419403 2 16760499626580795749
23557571 272 18059027068131544036
23559900 14 17988937677701893948
23598288 3 17317582319937458640
25147074 1 18268999859538601625
312423 11 18194128636619869511
34934 24 18265062503677619252
465052 167 18042141958869569947
5104073 3 18339651160613350473
7471813 234 18197201766870758463

>  <PUBCHEM_SHAPE_MULTIPOLES>  (1) 
485.14
10.19
2.64
1.56
1.81
0.87
-0.06
-3.56
3.61
-1.53
-0.98
1.1
-0.07
-1.31

>  <PUBCHEM_SHAPE_SELFOVERLAP>  (1) 
1043.022

>  <PUBCHEM_SHAPE_VOLUME>  (1) 
264.5

>  <PUBCHEM_COORDINATE_TYPE>  (1) 
2
5
10

$$$$
