14999
     RDKit          3D

 26 27  0  0  1  0  0  0  0  0999 V2000
   -0.9004   -0.0872    1.2662 O   0  0  0  0  0  0  0  0  0  0  0  0
    1.6315    0.1181    2.0884 O   0  0  0  0  0  0  0  0  0  0  0  0
   -0.2578    1.7789    0.0857 O   0  0  0  0  0  0  0  0  0  0  0  0
   -4.1264    0.7077   -0.2469 N   0  0  0  0  0  0  0  0  0  0  0  0
   -2.9754   -0.1486    0.0342 C   0  0  0  0  0  0  0  0  0  0  0  0
   -2.2439    0.3797    1.2688 C   0  0  0  0  0  0  0  0  0  0  0  0
    1.4085    0.0821    0.6640 C   0  0  0  0  0  0  0  0  0  0  0  0
   -4.7686    0.3073   -1.4985 C   0  0  0  0  0  0  0  0  0  0  0  0
   -5.0839    0.6565    0.8576 C   0  0  0  0  0  0  0  0  0  0  0  0
   -3.4309   -1.5962    0.2199 C   0  0  0  0  0  0  0  0  0  0  0  0
    0.0156    0.7164    0.6312 C   0  0  0  0  0  0  0  0  0  0  0  0
    1.4077   -1.3698    0.1801 C   0  0  0  0  0  0  0  0  0  0  0  0
    2.4813    0.8983   -0.0608 C   0  0  0  0  0  0  0  0  0  0  0  0
   -3.7881    0.3543   -2.6581 C   0  0  0  0  0  0  0  0  0  0  0  0
   -6.2579    1.5886    0.6100 C   0  0  0  0  0  0  0  0  0  0  0  0
    2.2062   -2.3183    0.8191 C   0  0  0  0  0  0  0  0  0  0  0  0
    2.1712    1.5572   -1.2505 C   0  0  0  0  0  0  0  0  0  0  0  0
    0.6080   -1.7449   -0.8997 C   0  0  0  0  0  0  0  0  0  0  0  0
    3.7691    0.9839    0.4686 C   0  0  0  0  0  0  0  0  0  0  0  0
    2.2055   -3.6417    0.3783 C   0  0  0  0  0  0  0  0  0  0  0  0
    3.1488    2.3013   -1.9111 C   0  0  0  0  0  0  0  0  0  0  0  0
    0.6073   -3.0683   -1.3404 C   0  0  0  0  0  0  0  0  0  0  0  0
    4.7466    1.7282   -0.1919 C   0  0  0  0  0  0  0  0  0  0  0  0
    1.5834    1.4465    2.5694 C   0  0  0  0  0  0  0  0  0  0  0  0
    1.4060   -4.0167   -0.7013 C   0  0  0  0  0  0  0  0  0  0  0  0
    4.4363    2.3869   -1.3819 C   0  0  0  0  0  0  0  0  0  0  0  0
  1  6  1  0
  1 11  1  0
  2  7  1  0
  2 24  1  0
  3 11  2  0
  4  5  1  0
  4  8  1  0
  4  9  1  0
  5  6  1  0
  5 10  1  0
  7 11  1  0
  7 12  1  0
  7 13  1  0
  8 14  1  0
  9 15  1  0
 12 16  2  0
 12 18  1  0
 13 17  2  0
 13 19  1  0
 16 20  1  0
 17 21  1  0
 18 22  2  0
 19 23  2  0
 20 25  2  0
 21 26  2  0
 22 25  1  0
 23 26  1  0
M  END
>  <PUBCHEM_COMPOUND_CID>  (1) 
14999

>  <PUBCHEM_CONFORMER_RMSD>  (1) 
1

>  <PUBCHEM_CONFORMER_DIVERSEORDER>  (1) 
1
65
111
37
88
116
41
72
5
3
117
26
123
31
75
108
67
124
54
93
112
29
57
87
15
64
21
43
20
53
8
141
89
69
9
119
76
45
71
121
14
28
143
80
40
16
10
125
2
58
47
126
115
33
60
38
73
63
51
127
52
6
129
98
17
12
56
99
100
107
39
61
19
120
34
49
86
84
24
18
139
122
79
66
4
91
128
59
27
48
23
78
83
30
104
81
92
77
22
113
82
130
36
25
137
101
42
70
133
96
109
35
103
114
90
74
131
7
135
95
32
85
11
97
132
106
134
142
94
140
118
136
55
68
138
62
46
105
13
50
102
44
110

>  <PUBCHEM_MMFF94_PARTIAL_CHARGES>  (1) 
33
1 -0.43
11 0.66
12 -0.14
13 -0.14
16 -0.15
17 -0.15
18 -0.15
19 -0.15
2 -0.56
20 -0.15
21 -0.15
22 -0.15
23 -0.15
24 0.28
25 -0.15
26 -0.15
3 -0.57
4 -0.81
43 0.15
44 0.15
45 0.15
46 0.15
47 0.15
48 0.15
49 0.15
5 0.27
50 0.15
54 0.15
55 0.15
6 0.28
7 0.63
8 0.27
9 0.27

>  <PUBCHEM_EFFECTIVE_ROTOR_COUNT>  (1) 
10

>  <PUBCHEM_PHARMACOPHORE_FEATURES>  (1) 
5
1 2 acceptor
1 3 acceptor
1 4 cation
6 12 16 18 20 22 25 rings
6 13 17 19 21 23 26 rings

>  <PUBCHEM_HEAVY_ATOM_COUNT>  (1) 
26

>  <PUBCHEM_ATOM_DEF_STEREO_COUNT>  (1) 
0

>  <PUBCHEM_ATOM_UDEF_STEREO_COUNT>  (1) 
1

>  <PUBCHEM_BOND_DEF_STEREO_COUNT>  (1) 
0

>  <PUBCHEM_BOND_UDEF_STEREO_COUNT>  (1) 
0

>  <PUBCHEM_ISOTOPIC_ATOM_COUNT>  (1) 
0

>  <PUBCHEM_COMPONENT_COUNT>  (1) 
1

>  <PUBCHEM_CACTVS_TAUTO_COUNT>  (1) 
1

>  <PUBCHEM_CONFORMER_ID>  (1) 
00003A9700000001

>  <PUBCHEM_MMFF94_ENERGY>  (1) 
83.6745

>  <PUBCHEM_FEATURE_SELFOVERLAP>  (1) 
25.372

>  <PUBCHEM_SHAPE_FINGERPRINT>  (1) 
10369192 42 17971495097831468901
10554248 39 17985542253173932285
10721379 63 18123491400639785142
10764073 3 15793666990873767986
11069576 57 18057870373462384967
11477941 20 17187881639720110758
11488393 25 18115864097389902702
12422481 6 18046033066032560322
12788726 201 17274551906224884865
12969540 114 18265892639098732308
13149001 5 17556871531045781072
133893 2 18265914461832474538
13911987 19 18192445262057444548
14251751 93 18120096336118851998
14251757 17 16127826295141688982
14790565 3 18267027339124675304
14863182 85 17702938124517227382
15163728 17 17896908592657918564
15537594 2 17703793626668395931
15849732 13 18260821619247613640
1601671 61 18336264625776244545
16752209 62 17980192307979992934
17818456 19 17270323064187403601
1813 80 17836941005088585262
20197701 30 18339645650349637502
20600515 1 16976744581651874242
20645477 70 18337391539601097107
21033648 144 17750232684914326037
21756936 100 16735524255186424068
21860390 5 17385722517254098948
22393880 68 17489297633840903277
23419403 2 17620716563424150378
23557571 272 16443928127485225507
23559900 14 18338231570452676651
25147074 1 17843698672366793185
298252 57 18117568529396661584
3052486 1 18053925519009768054
3060560 45 18408606989505189220
38695281 34 18336552719397161550
404807 78 17975686505541289103
4280585 95 17975973168521832754
44802255 64 17682149847781697198
46194498 28 18189056408765167759
5081480 168 18045509616523985143
53917941 68 18050281772278259516
57724786 102 18263928748518068181
5951187 136 16812593117985100597
633830 44 17631727296108345209
8272917 22 18335426733380067403

>  <PUBCHEM_SHAPE_MULTIPOLES>  (1) 
512.48
10.21
3.75
2.01
14.05
4.56
-0.2
-7.62
-1.87
-4.4
-1.08
0.21
-0.81
-1.13

>  <PUBCHEM_SHAPE_SELFOVERLAP>  (1) 
1070.915

>  <PUBCHEM_SHAPE_VOLUME>  (1) 
291.3

>  <PUBCHEM_COORDINATE_TYPE>  (1) 
2
5
10

$$$$
