14993
     RDKit          3D

 25 28  0  0  0  0  0  0  0  0999 V2000
   -3.1032    0.0319    2.7402 O   0  0  0  0  0  0  0  0  0  0  0  0
   -0.6484    0.0111    1.2995 N   0  0  0  0  0  0  0  0  0  0  0  0
    0.1270   -0.0006    0.0609 C   0  0  0  0  0  0  0  0  0  0  0  0
   -1.4806    1.2194    1.3827 C   0  0  0  0  0  0  0  0  0  0  0  0
   -1.4913   -1.1886    1.3989 C   0  0  0  0  0  0  0  0  0  0  0  0
    1.0597    1.2501    0.0047 C   0  0  0  0  0  0  0  0  0  0  0  0
    1.0798   -1.2369    0.0397 C   0  0  0  0  0  0  0  0  0  0  0  0
   -0.9591   -0.0254   -1.0597 C   0  0  0  0  0  0  0  0  0  0  0  0
   -2.2886    1.2032    2.6772 C   0  0  0  0  0  0  0  0  0  0  0  0
   -2.3000   -1.1481    2.6923 C   0  0  0  0  0  0  0  0  0  0  0  0
    1.3853    1.7356   -1.2248 C   0  0  0  0  0  0  0  0  0  0  0  0
    1.5124   -1.7168    1.2380 C   0  0  0  0  0  0  0  0  0  0  0  0
   -1.4137    1.1724   -1.5207 C   0  0  0  0  0  0  0  0  0  0  0  0
    1.4839    1.7708    1.1890 C   0  0  0  0  0  0  0  0  0  0  0  0
    1.4133   -1.7519   -1.1758 C   0  0  0  0  0  0  0  0  0  0  0  0
   -1.3787   -1.2433   -1.5011 C   0  0  0  0  0  0  0  0  0  0  0  0
    2.2186    2.8532   -1.2752 C   0  0  0  0  0  0  0  0  0  0  0  0
    2.3637   -2.8217    1.2191 C   0  0  0  0  0  0  0  0  0  0  0  0
   -2.3842    1.1503   -2.5222 C   0  0  0  0  0  0  0  0  0  0  0  0
    2.3171    2.8884    1.1385 C   0  0  0  0  0  0  0  0  0  0  0  0
    2.2644   -2.8570   -1.1945 C   0  0  0  0  0  0  0  0  0  0  0  0
   -2.3492   -1.2653   -2.5028 C   0  0  0  0  0  0  0  0  0  0  0  0
    2.6842    3.4295   -0.0936 C   0  0  0  0  0  0  0  0  0  0  0  0
    2.7395   -3.3917    0.0030 C   0  0  0  0  0  0  0  0  0  0  0  0
   -2.8519   -0.0684   -3.0133 C   0  0  0  0  0  0  0  0  0  0  0  0
  1  9  1  0
  1 10  1  0
  2  3  1  0
  2  4  1  0
  2  5  1  0
  3  6  1  0
  3  7  1  0
  3  8  1  0
  4  9  1  0
  5 10  1  0
  6 11  2  0
  6 14  1  0
  7 12  2  0
  7 15  1  0
  8 13  2  0
  8 16  1  0
 11 17  1  0
 12 18  1  0
 13 19  1  0
 14 20  2  0
 15 21  2  0
 16 22  2  0
 17 23  2  0
 18 24  2  0
 19 25  2  0
 20 23  1  0
 21 24  1  0
 22 25  1  0
M  END
>  <PUBCHEM_COMPOUND_CID>  (1) 
14993

>  <PUBCHEM_CONFORMER_RMSD>  (1) 
0.8

>  <PUBCHEM_CONFORMER_DIVERSEORDER>  (1) 
1

>  <PUBCHEM_MMFF94_PARTIAL_CHARGES>  (1) 
40
1 -0.56
10 0.28
11 -0.15
12 -0.15
13 -0.15
14 -0.15
15 -0.15
16 -0.15
17 -0.15
18 -0.15
19 -0.15
2 -0.81
20 -0.15
21 -0.15
22 -0.15
23 -0.15
24 -0.15
25 -0.15
3 0.7
34 0.15
35 0.15
36 0.15
37 0.15
38 0.15
39 0.15
4 0.27
40 0.15
41 0.15
42 0.15
43 0.15
44 0.15
45 0.15
46 0.15
47 0.15
48 0.15
5 0.27
6 -0.14
7 -0.14
8 -0.14
9 0.28

>  <PUBCHEM_EFFECTIVE_ROTOR_COUNT>  (1) 
5.2

>  <PUBCHEM_PHARMACOPHORE_FEATURES>  (1) 
6
1 1 acceptor
1 2 cation
6 1 2 4 5 9 10 rings
6 6 11 14 17 20 23 rings
6 7 12 15 18 21 24 rings
6 8 13 16 19 22 25 rings

>  <PUBCHEM_HEAVY_ATOM_COUNT>  (1) 
25

>  <PUBCHEM_ATOM_DEF_STEREO_COUNT>  (1) 
0

>  <PUBCHEM_ATOM_UDEF_STEREO_COUNT>  (1) 
0

>  <PUBCHEM_BOND_DEF_STEREO_COUNT>  (1) 
0

>  <PUBCHEM_BOND_UDEF_STEREO_COUNT>  (1) 
0

>  <PUBCHEM_ISOTOPIC_ATOM_COUNT>  (1) 
0

>  <PUBCHEM_COMPONENT_COUNT>  (1) 
1

>  <PUBCHEM_CACTVS_TAUTO_COUNT>  (1) 
1

>  <PUBCHEM_CONFORMER_ID>  (1) 
00003A9100000001

>  <PUBCHEM_MMFF94_ENERGY>  (1) 
132.3297

>  <PUBCHEM_FEATURE_SELFOVERLAP>  (1) 
30.448

>  <PUBCHEM_SHAPE_FINGERPRINT>  (1) 
11421498 54 17841432845738967095
11578080 2 17532113633985312437
11582403 64 17125972850731129241
12035759 4 17846490469712514428
12160290 23 17113535914554399058
12592029 89 18047159085797533998
12788726 201 17326310157455592218
13149001 5 17750506282888762807
133893 2 18411693296968825894
13681431 1 18267563750843751510
14817 1 16535435793986261861
14955137 171 17914646924024045802
16945 1 17906124656061383268
17980427 26 18126595476489192028
1813 80 17982990289904392367
18915476 22 18335692884135141991
20600515 1 17556258870771805702
20602899 9 17908125930796956164
20691752 17 16807318996360322906
20905425 154 17550440280933604721
21330990 113 17463454742353200588
229495 10 17825418247672274815
23419403 2 17967543332618191495
25222932 49 17482866702437951259
266924 78 18412543240810802575
298252 57 17395530293780450796
3493558 16 17054096517172179785
394222 165 18050253115644329674
404807 14 17913459400221716586
68419 9 17489870457391212729
6992083 37 17557696963171288479
81228 2 17413568576624502887
9981440 41 17828169389000659436

>  <PUBCHEM_SHAPE_MULTIPOLES>  (1) 
503.64
4.41
3.99
3.21
0.78
0.08
-1.13
-0.09
0.74
-5.45
0.45
3.95
0.01
-0.12

>  <PUBCHEM_SHAPE_SELFOVERLAP>  (1) 
1120.882

>  <PUBCHEM_SHAPE_VOLUME>  (1) 
265.8

>  <PUBCHEM_COORDINATE_TYPE>  (1) 
2
5
10

$$$$
