15007
     RDKit          3D

 18 18  0  0  0  0  0  0  0  0999 V2000
    0.3749   -2.3965    0.0000 O   0  0  0  0  0  0  0  0  0  0  0  0
   -1.8016    3.4707   -0.0009 O   0  0  0  0  0  0  0  0  0  0  0  0
    0.4074    4.0063   -0.0021 O   0  0  0  0  0  0  0  0  0  0  0  0
   -2.3105   -1.4631    0.0009 C   0  0  0  0  0  0  0  0  0  0  0  0
    2.6531   -0.6956   -0.0027 C   0  0  0  0  0  0  0  0  0  0  0  0
   -1.0990   -0.5162    0.0007 C   0  0  0  0  0  0  0  0  0  0  0  0
    1.2538   -0.1746   -0.0026 C   0  0  0  0  0  0  0  0  0  0  0  0
    0.1663   -1.0485   -0.0012 C   0  0  0  0  0  0  0  0  0  0  0  0
   -3.6152   -0.6374    0.0013 C   0  0  0  0  0  0  0  0  0  0  0  0
   -2.2732   -2.3542    1.2613 C   0  0  0  0  0  0  0  0  0  0  0  0
   -2.3675   -2.4057   -1.2226 C   0  0  0  0  0  0  0  0  0  0  0  0
    3.6208    0.2877    0.7247 C   0  0  0  0  0  0  0  0  0  0  0  0
    3.1828   -0.8897   -1.4567 C   0  0  0  0  0  0  0  0  0  0  0  0
    2.8534   -2.0771    0.7027 C   0  0  0  0  0  0  0  0  0  0  0  0
   -1.3469    0.8351    0.0009 C   0  0  0  0  0  0  0  0  0  0  0  0
    1.0407    1.2039   -0.0023 C   0  0  0  0  0  0  0  0  0  0  0  0
   -0.2598    1.7086   -0.0006 C   0  0  0  0  0  0  0  0  0  0  0  0
   -0.4795    3.1463   -0.0009 C   0  0  0  0  0  0  0  0  0  0  0  0
  1  8  1  0
  2 18  1  0
  3 18  2  0
  4  6  1  0
  4  9  1  0
  4 10  1  0
  4 11  1  0
  5  7  1  0
  5 12  1  0
  5 13  1  0
  5 14  1  0
  6  8  2  0
  6 15  1  0
  7  8  1  0
  7 16  2  0
 15 17  2  0
 16 17  1  0
 17 18  1  0
M  END
>  <PUBCHEM_COMPOUND_CID>  (1) 
15007

>  <PUBCHEM_CONFORMER_RMSD>  (1) 
0.6

>  <PUBCHEM_CONFORMER_DIVERSEORDER>  (1) 
1
3
2
4

>  <PUBCHEM_MMFF94_PARTIAL_CHARGES>  (1) 
16
1 -0.53
15 -0.15
16 -0.15
17 0.09
18 0.63
2 -0.65
3 -0.57
37 0.15
38 0.15
39 0.45
4 0.14
40 0.5
5 0.14
6 -0.14
7 -0.14
8 0.08

>  <PUBCHEM_EFFECTIVE_ROTOR_COUNT>  (1) 
3

>  <PUBCHEM_PHARMACOPHORE_FEATURES>  (1) 
7
1 1 donor
1 2 acceptor
1 3 acceptor
3 2 3 18 anion
4 4 9 10 11 hydrophobe
4 5 12 13 14 hydrophobe
6 6 7 8 15 16 17 rings

>  <PUBCHEM_HEAVY_ATOM_COUNT>  (1) 
18

>  <PUBCHEM_ATOM_DEF_STEREO_COUNT>  (1) 
0

>  <PUBCHEM_ATOM_UDEF_STEREO_COUNT>  (1) 
0

>  <PUBCHEM_BOND_DEF_STEREO_COUNT>  (1) 
0

>  <PUBCHEM_BOND_UDEF_STEREO_COUNT>  (1) 
0

>  <PUBCHEM_ISOTOPIC_ATOM_COUNT>  (1) 
0

>  <PUBCHEM_COMPONENT_COUNT>  (1) 
1

>  <PUBCHEM_CACTVS_TAUTO_COUNT>  (1) 
3

>  <PUBCHEM_CONFORMER_ID>  (1) 
00003A9F00000001

>  <PUBCHEM_MMFF94_ENERGY>  (1) 
85.9804

>  <PUBCHEM_FEATURE_SELFOVERLAP>  (1) 
35.578

>  <PUBCHEM_SHAPE_FINGERPRINT>  (1) 
104564 63 18338525122835004447
10967382 1 18338515364674381257
11578080 2 17129830968513803729
12553582 1 18410296942597314407
12759256 9 17979917438340879362
12788726 201 18335989657737823314
13132413 78 18341051938094748957
13140716 1 18410295834532344449
13380535 76 17619059538859910820
13538477 17 18116718396322929174
14022347 108 18336561446597081955
14178342 30 18046610219474854722
14181834 199 17832132093341443974
14648413 74 17975974581433360043
14790565 3 17904496442634936997
15042514 8 18120657933283883275
15490181 7 17546171800927155009
15490181 8 17329422848982202837
16752209 62 18193269689761770499
16945 1 18195246620268800998
18785283 64 17828494892292945073
193761 8 17906170646650667251
19591789 44 17402339170038435985
19868273 325 18410016545641174655
20510252 161 18269834224969628416
20645476 183 17687203997190654494
20645477 70 17836078249691714831
21041028 32 18265066893144303433
21524375 3 17545038204159498909
21731228 192 17618784656716132600
2255824 54 17907860952415186887
2334 1 18266461090635740513
23388829 49 18198336458322383034
23402539 116 18270388508090684694
23419403 2 17556259012626811785
23557571 272 18342178830703474516
23558518 356 17831300497695487203
23559900 14 17696192501255453782
23598291 2 17842007864286427855
238 59 16094859242885382101
2748010 2 18340481261363215412
3071541 12 17978513362155798205
3084891 72 18264199232499635307
3091708 16 9353384339047765904
31174 14 17685514430097758619
34934 24 18410846689858035211
350125 39 17689443689090585784
352729 6 17834113043980528753
4175511 71 18268163109024015591
58807428 26 17255109052662686722
6992083 37 18129956666650852667
7364860 26 17835525199125642325
7832392 63 18341049722234651947
81228 2 18338804415920862649

>  <PUBCHEM_SHAPE_MULTIPOLES>  (1) 
352.82
5.05
4.09
0.96
0.72
4.85
-0.13
-3.4
0.01
-0.73
0.1
0.11
-0.6
0.04

>  <PUBCHEM_SHAPE_SELFOVERLAP>  (1) 
737.516

>  <PUBCHEM_SHAPE_VOLUME>  (1) 
203.4

>  <PUBCHEM_COORDINATE_TYPE>  (1) 
2
5
10

$$$$
