15016
     RDKit          3D

 13 12  0  0  0  0  0  0  0  0999 V2000
   -5.0183   -0.8704    0.7384 O   0  0  0  0  0  0  0  0  0  0  0  0
    5.3680    1.2107   -0.5107 O   0  0  0  0  0  0  0  0  0  0  0  0
    4.1890    0.7775    1.3779 O   0  0  0  0  0  0  0  0  0  0  0  0
    0.1515   -0.8167   -0.0002 C   0  0  0  0  0  0  0  0  0  0  0  0
   -0.9520    0.1607   -0.4133 C   0  0  0  0  0  0  0  0  0  0  0  0
    1.5450   -0.3739   -0.4513 C   0  0  0  0  0  0  0  0  0  0  0  0
   -2.3245   -0.3217    0.0683 C   0  0  0  0  0  0  0  0  0  0  0  0
    2.7031   -1.3060   -0.0697 C   0  0  0  0  0  0  0  0  0  0  0  0
   -3.4530    0.6191   -0.3506 C   0  0  0  0  0  0  0  0  0  0  0  0
    4.0829   -0.7884   -0.4847 C   0  0  0  0  0  0  0  0  0  0  0  0
   -4.8289    0.1729    0.1152 C   0  0  0  0  0  0  0  0  0  0  0  0
    4.5163    0.4658    0.2416 C   0  0  0  0  0  0  0  0  0  0  0  0
   -5.9792    1.0703   -0.2609 C   0  0  0  0  0  0  0  0  0  0  0  0
  1 11  2  0
  2 12  1  0
  3 12  2  0
  4  5  1  0
  4  6  1  0
  5  7  1  0
  6  8  1  0
  7  9  1  0
  8 10  1  0
  9 11  1  0
 10 12  1  0
 11 13  1  0
M  END
>  <PUBCHEM_COMPOUND_CID>  (1) 
15016

>  <PUBCHEM_CONFORMER_RMSD>  (1) 
0.8

>  <PUBCHEM_CONFORMER_DIVERSEORDER>  (1) 
1
296
50
17
290
238
2
125
90
364
256
224
5
207
278
314
232
141
7
156
133
26
199
3
365
331
298
69
228
164
109
35
360
358
147
38
41
377
36
255
77
4
293
286
183
154
14
30
259
229
373
145
337
16
122
32
51
79
233
13
161
273
10
291
187
288
103
200
85
197
346
15
225
369
111
263
260
333
99
72
275
258
137
227
68
88
105
39
97
300
301
185
179
357
94
194
366
45
274
31
302
126
117
276
201
354
330
118
383
328
189
19
363
320
336
190
310
22
70
168
262
327
308
240
355
135
353
113
264
57
76
267
101
108
315
20
136
344
167
47
6
265
251
134
160
60
356
92
150
279
142
322
206
144
282
8
25
62
220
83
371
247
124
53
382
307
226
166
284
61
196
312
81
115
123
305
222
55
175
132
74
27
235
129
157
361
176
71
104
326
43
66
44
379
239
143
139
48
376
347
100
59
205
93
244
352
130
182
172
110
313
236
304
349
114
243
283
246
128
285
316
140
146
37
12
375
127
306
270
63
56
362
107
295
341
211
381
191
87
214
106
321
289
121
319
89
257
339
148
86
242
324
202
173
40
280
297
21
348
367
80
277
33
323
163
169
178
250
73
49
231
332
209
370
149
120
351
153
11
24
204
309
329
378
28
287
218
368
345
52
131
215
162
343
325
203
193
46
67
112
272
102
212
334
64
234
174
138
340
84
248
151
29
350
78
23
380
9
318
338
230
65
198
18
116
384
294
195
374
317
219
95
34
335
241
223
216
372
188
170
311
303
237
91
181
180
261
177
96
249
268
119
192
342
54
159
269
82
245
253
213
299
155
210
171
252
186
208
75
221
359
58
98
217
254
271
292
281
165
184
266
152
158
42

>  <PUBCHEM_MMFF94_PARTIAL_CHARGES>  (1) 
9
1 -0.57
10 0.06
11 0.45
12 0.66
13 0.06
2 -0.65
3 -0.57
31 0.5
9 0.06

>  <PUBCHEM_EFFECTIVE_ROTOR_COUNT>  (1) 
8

>  <PUBCHEM_PHARMACOPHORE_FEATURES>  (1) 
4
1 1 acceptor
1 2 acceptor
1 3 acceptor
3 2 3 12 anion

>  <PUBCHEM_HEAVY_ATOM_COUNT>  (1) 
13

>  <PUBCHEM_ATOM_DEF_STEREO_COUNT>  (1) 
0

>  <PUBCHEM_ATOM_UDEF_STEREO_COUNT>  (1) 
0

>  <PUBCHEM_BOND_DEF_STEREO_COUNT>  (1) 
0

>  <PUBCHEM_BOND_UDEF_STEREO_COUNT>  (1) 
0

>  <PUBCHEM_ISOTOPIC_ATOM_COUNT>  (1) 
0

>  <PUBCHEM_COMPONENT_COUNT>  (1) 
1

>  <PUBCHEM_CACTVS_TAUTO_COUNT>  (1) 
3

>  <PUBCHEM_CONFORMER_ID>  (1) 
00003AA800000001

>  <PUBCHEM_MMFF94_ENERGY>  (1) 
5.0992

>  <PUBCHEM_FEATURE_SELFOVERLAP>  (1) 
20.356

>  <PUBCHEM_SHAPE_FINGERPRINT>  (1) 
10912923 1 17060337388553371927
11128504 68 15339114662839803056
11287383 113 18409169921803896619
11401426 45 17822011995694769935
117890 112 18335984181950017333
11858739 19 12324232858639525746
12596602 18 17313104167706577808
13237642 15 18335423473753188403
13955234 65 17988924423507249270
14123238 8 18343864416008687863
14251718 22 18201717371243087359
14251732 16 18336549421115687123
16079462 125 18262507122864539645
17834072 33 17418368108404493583
17834072 8 10663822953708448427
17834076 25 18059856164354642174
20369508 70 9439404610499822710
20605781 2 18411981390717077380
20621476 30 9582646799281795989
20645477 56 18413105074067419631
20645477 70 17916872309662728422
212847 35 18343299267480332472
21354914 41 9799688199516806711
21354914 88 11314307239461388430
22224240 67 13767926871561310692
23218964 4 10159704577375676131
23272321 79 18334579087393177629
23402539 116 14779264220434970231
23557571 272 17823143315433635463
23590187 198 14273454769153144649
2916195 48 18335136514029400585
300161 21 18059848467783992263
32948 21 12031795755390063586
42 15 12324240555358141430
42788 4 18412263913481153095
449060 50 18411419501029916702
465052 167 8142085377461900328
4990 188 10087640407479028580
522135 26 16773796979053420614
5374978 207 17240480295537222748
542803 24 16917069945237701403
59345606 91 18411982455520748765

>  <PUBCHEM_SHAPE_MULTIPOLES>  (1) 
249.93
15.02
1.17
0.82
6.08
0
-0.13
4.51
-0.83
-0.62
-0.01
-0.4
0.08
0.68

>  <PUBCHEM_SHAPE_SELFOVERLAP>  (1) 
460.877

>  <PUBCHEM_SHAPE_VOLUME>  (1) 
157.3

>  <PUBCHEM_COORDINATE_TYPE>  (1) 
2
5
10

$$$$
