15019
     RDKit          3D

 20 23  0  0  1  0  0  0  0  0999 V2000
   -4.9224   -1.1849    0.3367 O   0  0  0  0  0  0  0  0  0  0  0  0
    5.8244   -0.2541    0.1734 O   0  0  0  0  0  0  0  0  0  0  0  0
   -2.7223   -0.4318   -0.4677 C   0  0  0  0  0  0  0  0  0  0  0  0
   -1.9969    0.9236   -0.3428 C   0  0  0  0  0  0  0  0  0  0  0  0
   -4.1521   -0.0550   -0.0284 C   0  0  0  0  0  0  0  0  0  0  0  0
   -2.6226    1.5927    0.8997 C   0  0  0  0  0  0  0  0  0  0  0  0
   -2.0672   -1.4657    0.4674 C   0  0  0  0  0  0  0  0  0  0  0  0
   -3.9611    0.8979    1.1461 C   0  0  0  0  0  0  0  0  0  0  0  0
   -0.4898    0.8479   -0.2441 C   0  0  0  0  0  0  0  0  0  0  0  0
   -0.5777   -1.6507    0.1797 C   0  0  0  0  0  0  0  0  0  0  0  0
   -2.7379   -0.9514   -1.9150 C   0  0  0  0  0  0  0  0  0  0  0  0
    0.1985   -0.3589    0.0079 C   0  0  0  0  0  0  0  0  0  0  0  0
    0.2371    2.0348   -0.4048 C   0  0  0  0  0  0  0  0  0  0  0  0
    1.6284   -0.3695    0.0501 C   0  0  0  0  0  0  0  0  0  0  0  0
    2.3321    0.8505   -0.1171 C   0  0  0  0  0  0  0  0  0  0  0  0
    1.6261    2.0368   -0.3364 C   0  0  0  0  0  0  0  0  0  0  0  0
    2.4029   -1.5382    0.2454 C   0  0  0  0  0  0  0  0  0  0  0  0
    3.7364    0.8731   -0.0701 C   0  0  0  0  0  0  0  0  0  0  0  0
    3.7988   -1.5017    0.2874 C   0  0  0  0  0  0  0  0  0  0  0  0
    4.4654   -0.2952    0.1325 C   0  0  0  0  0  0  0  0  0  0  0  0
  1  5  1  0
  2 20  1  0
  3  4  1  0
  3  5  1  0
  3  7  1  0
  3 11  1  0
  4  6  1  0
  4  9  1  0
  5  8  1  0
  6  8  1  0
  7 10  1  0
  9 12  2  0
  9 13  1  0
 10 12  1  0
 12 14  1  0
 13 16  2  0
 14 15  2  0
 14 17  1  0
 15 16  1  0
 15 18  1  0
 17 19  2  0
 18 20  2  0
 19 20  1  0
M  END
>  <PUBCHEM_COMPOUND_CID>  (1) 
15019

>  <PUBCHEM_CONFORMER_RMSD>  (1) 
0.6

>  <PUBCHEM_CONFORMER_DIVERSEORDER>  (1) 
1
2
4
3
5

>  <PUBCHEM_MMFF94_PARTIAL_CHARGES>  (1) 
20
1 -0.68
10 0.14
12 -0.14
13 -0.15
16 -0.15
17 -0.15
18 -0.15
19 -0.15
2 -0.53
20 0.08
34 0.15
35 0.4
36 0.15
37 0.15
38 0.15
39 0.15
4 0.14
40 0.45
5 0.28
9 -0.14

>  <PUBCHEM_EFFECTIVE_ROTOR_COUNT>  (1) 
1

>  <PUBCHEM_PHARMACOPHORE_FEATURES>  (1) 
7
1 1 acceptor
1 1 donor
1 2 donor
5 3 4 5 6 8 rings
6 14 15 17 18 19 20 rings
6 3 4 7 9 10 12 rings
6 9 12 13 14 15 16 rings

>  <PUBCHEM_HEAVY_ATOM_COUNT>  (1) 
20

>  <PUBCHEM_ATOM_DEF_STEREO_COUNT>  (1) 
1

>  <PUBCHEM_ATOM_UDEF_STEREO_COUNT>  (1) 
2

>  <PUBCHEM_BOND_DEF_STEREO_COUNT>  (1) 
0

>  <PUBCHEM_BOND_UDEF_STEREO_COUNT>  (1) 
0

>  <PUBCHEM_ISOTOPIC_ATOM_COUNT>  (1) 
0

>  <PUBCHEM_COMPONENT_COUNT>  (1) 
1

>  <PUBCHEM_CACTVS_TAUTO_COUNT>  (1) 
3

>  <PUBCHEM_CONFORMER_ID>  (1) 
00003AAB00000001

>  <PUBCHEM_MMFF94_ENERGY>  (1) 
68.4272

>  <PUBCHEM_FEATURE_SELFOVERLAP>  (1) 
35.707

>  <PUBCHEM_SHAPE_FINGERPRINT>  (1) 
10062212 137 18272928336694926887
10366900 7 15574709222963472521
10967382 1 18408040710725169050
11132069 177 18340199705056471656
11578080 2 17914300620600817633
12107183 9 17621607115944274098
12236239 1 18201719570208171069
12251169 10 18411985753813071433
12403814 3 17530685389902971733
12553582 1 18335132073354924312
12670546 56 17917704721115334001
13140716 1 18263647427901652464
13221675 6 18408603647440163150
13288520 33 18410012117788296884
13760787 5 18187086165516909844
13862211 1 18334290955623612850
14004511 7 18343587334530300457
14790565 3 18336557122319564380
15196674 1 18409450258571978320
15209289 33 18409731763745393963
15209294 21 18059298656040681577
15375462 189 18186800236569156688
15442244 35 18411139108490362024
15536298 74 18341894112683602896
15788980 27 16443059487571747938
15848702 151 18201723899092340894
16945 1 18262230122615912781
17349148 13 18336817667281876826
17804303 29 18413393141602820504
1813 80 17968107378215639364
18186145 218 17749102314130513978
18522853 276 18412826888792947513
200 152 18343297080587689159
20028762 73 18271807994745888703
21033648 29 17386271169013816189
21267235 1 18409175406799016834
221490 88 18116158959294254922
23184049 59 18410576175685128886
23402539 116 18341606010229287926
23463225 33 18408888421078474700
23557571 272 16415482657699299057
23559900 14 18340479092616214936
2748010 2 17113816289360125180
296302 2 14620794894434897404
335352 9 18408322181058629789
34797466 226 16558194925131903352
34934 24 18191583047741660545
350125 39 18410295804947991193
4214541 1 18410856538254851329
5104073 3 18410856559703230488
69090 78 18411135839935970651
7364860 26 18339359798606424128
8809292 202 18041282170187617106
9709674 26 18411987948663179262
9981440 41 17331108906861439960

>  <PUBCHEM_SHAPE_MULTIPOLES>  (1) 
399.85
9.36
1.98
0.97
4.38
0.32
-0.25
-1.73
1.23
0.05
0.03
-0.93
-0.06
-0.73

>  <PUBCHEM_SHAPE_SELFOVERLAP>  (1) 
890.944

>  <PUBCHEM_SHAPE_VOLUME>  (1) 
213.6

>  <PUBCHEM_COORDINATE_TYPE>  (1) 
2
5
10

$$$$
