15015
     RDKit          3D

 22 26  0  0  1  0  0  0  0  0999 V2000
    1.5949    1.0164    1.1984 O   0  0  0  0  0  0  0  0  0  0  0  0
    1.8670    2.9633   -0.5831 O   0  0  0  0  0  0  0  0  0  0  0  0
    3.8220   -0.7909    0.7809 O   0  0  0  0  0  0  0  0  0  0  0  0
   -3.5267   -0.7514    0.4245 N   0  0  0  0  0  0  0  0  0  0  0  0
   -0.7365    0.5736    0.6677 C   0  0  0  0  0  0  0  0  0  0  0  0
   -1.6890    0.6478   -0.5148 C   0  0  0  0  0  0  0  0  0  0  0  0
   -2.3215   -0.7946   -0.4067 C   0  0  0  0  0  0  0  0  0  0  0  0
    0.3327    1.6713    0.8267 C   0  0  0  0  0  0  0  0  0  0  0  0
   -1.6409    0.3262    1.9462 C   0  0  0  0  0  0  0  0  0  0  0  0
    0.2225   -0.5637    0.2862 C   0  0  0  0  0  0  0  0  0  0  0  0
   -1.4697   -1.8477   -1.1464 C   0  0  0  0  0  0  0  0  0  0  0  0
   -3.2088    0.1281    1.6150 C   0  0  0  0  0  0  0  0  0  0  0  0
   -0.0500   -1.6786   -0.5509 C   0  0  0  0  0  0  0  0  0  0  0  0
    0.5112    2.5481   -0.4450 C   0  0  0  0  0  0  0  0  0  0  0  0
   -1.0071    1.0850   -1.7851 C   0  0  0  0  0  0  0  0  0  0  0  0
    1.5031   -0.2421    0.6672 C   0  0  0  0  0  0  0  0  0  0  0  0
    0.0174    1.9522   -1.7409 C   0  0  0  0  0  0  0  0  0  0  0  0
   -4.7055   -0.3124   -0.3038 C   0  0  0  0  0  0  0  0  0  0  0  0
    1.0064   -2.5376   -0.8435 C   0  0  0  0  0  0  0  0  0  0  0  0
    2.5561   -1.0906    0.3951 C   0  0  0  0  0  0  0  0  0  0  0  0
    2.2954   -2.2526   -0.3499 C   0  0  0  0  0  0  0  0  0  0  0  0
    4.6270   -0.0499   -0.1378 C   0  0  0  0  0  0  0  0  0  0  0  0
  1  8  1  0
  1 16  1  0
  2 14  1  0
  3 20  1  0
  3 22  1  0
  4  7  1  0
  4 12  1  0
  4 18  1  0
  5  6  1  0
  5  8  1  0
  5  9  1  0
  5 10  1  0
  6  7  1  0
  6 15  1  0
  7 11  1  0
  8 14  1  0
  9 12  1  0
 10 13  2  0
 10 16  1  0
 11 13  1  0
 13 19  1  0
 14 17  1  0
 15 17  2  0
 16 20  2  0
 19 21  2  0
 20 21  1  0
M  END
>  <PUBCHEM_COMPOUND_CID>  (1) 
15015

>  <PUBCHEM_CONFORMER_RMSD>  (1) 
0.6

>  <PUBCHEM_CONFORMER_DIVERSEORDER>  (1) 
1
2

>  <PUBCHEM_MMFF94_PARTIAL_CHARGES>  (1) 
26
1 -0.36
10 -0.14
11 0.14
12 0.27
13 -0.14
14 0.42
15 -0.29
16 0.08
17 -0.29
18 0.27
19 -0.15
2 -0.68
20 0.08
21 -0.15
22 0.28
3 -0.36
33 0.15
34 0.15
38 0.15
39 0.15
4 -0.81
40 0.4
5 0.14
6 0.14
7 0.27
8 0.28

>  <PUBCHEM_EFFECTIVE_ROTOR_COUNT>  (1) 
2.2

>  <PUBCHEM_PHARMACOPHORE_FEATURES>  (1) 
10
1 1 acceptor
1 2 acceptor
1 2 donor
1 3 acceptor
1 4 cation
5 1 5 8 10 16 rings
6 10 13 16 19 20 21 rings
6 4 5 6 7 9 12 rings
6 5 6 7 10 11 13 rings
6 5 6 8 14 15 17 rings

>  <PUBCHEM_HEAVY_ATOM_COUNT>  (1) 
22

>  <PUBCHEM_ATOM_DEF_STEREO_COUNT>  (1) 
4

>  <PUBCHEM_ATOM_UDEF_STEREO_COUNT>  (1) 
1

>  <PUBCHEM_BOND_DEF_STEREO_COUNT>  (1) 
0

>  <PUBCHEM_BOND_UDEF_STEREO_COUNT>  (1) 
0

>  <PUBCHEM_ISOTOPIC_ATOM_COUNT>  (1) 
0

>  <PUBCHEM_COMPONENT_COUNT>  (1) 
1

>  <PUBCHEM_CACTVS_TAUTO_COUNT>  (1) 
1

>  <PUBCHEM_CONFORMER_ID>  (1) 
00003AA700000001

>  <PUBCHEM_MMFF94_ENERGY>  (1) 
150.6591

>  <PUBCHEM_FEATURE_SELFOVERLAP>  (1) 
52.207

>  <PUBCHEM_SHAPE_FINGERPRINT>  (1) 
10863032 1 17914053092833701721
10948715 1 17905334274858127029
12011746 2 18272932700308041527
12403814 3 18334570218317548078
12423570 1 14399831806826641617
12592029 89 17755034316685404421
13027679 85 18201429290000065841
13132413 78 17988648454182155513
13140716 1 18199173173918549098
13172582 1 18412821404167352162
13681431 1 18042145231160123077
14142880 1 18198337351855312344
14181834 199 18335712692592733621
144361 1 18118107302462202144
14790565 3 18343027717772792032
14955137 171 18198650845707544194
1601671 61 18339361860021648405
16945 1 18059557079938314267
17357779 13 18264754502971877933
17492 54 18115602563924917484
1813 80 18263379026383352167
19868273 325 18261955128755134870
20600515 1 17386872541881414197
2334 1 17910381020249732234
23419403 2 17912049838588035385
23557571 272 18042689395089991894
2748010 2 17982443798386922670
5845 1 11089613246300629981
7364860 26 18337111297032054285
81228 2 17609233250808676641

>  <PUBCHEM_SHAPE_MULTIPOLES>  (1) 
430.16
5.77
2.66
1.53
0.16
0.65
0.04
-1.73
1.06
1.39
-1.08
-0.7
0.46
-0.14

>  <PUBCHEM_SHAPE_SELFOVERLAP>  (1) 
961.509

>  <PUBCHEM_SHAPE_VOLUME>  (1) 
227.3

>  <PUBCHEM_COORDINATE_TYPE>  (1) 
2
5
10

$$$$
