15029
     RDKit          3D

 18 19  0  0  1  0  0  0  0  0999 V2000
   -2.6156    0.0659    1.0313 S   0  0  0  0  0  0  0  0  0  0  0  0
    2.7899    0.9994    1.5456 O   0  0  0  0  0  0  0  0  0  0  0  0
    3.4479    1.5616   -0.7036 O   0  0  0  0  0  0  0  0  0  0  0  0
    0.6973   -3.2479    0.2994 O   0  0  0  0  0  0  0  0  0  0  0  0
   -1.0194   -3.9318   -0.9004 O   0  0  0  0  0  0  0  0  0  0  0  0
   -0.5058   -3.2415   -0.0057 N   0  0  0  0  0  0  0  0  0  0  0  0
   -3.6610    3.6567   -0.5197 N   0  0  0  0  0  0  0  0  0  0  0  0
   -1.4714   -0.9978    0.0524 C   0  0  0  0  0  0  0  0  0  0  0  0
   -0.1661   -0.3151   -0.1857 C   0  0  0  0  0  0  0  0  0  0  0  0
   -1.4027   -2.3596    0.7696 C   0  0  0  0  0  0  0  0  0  0  0  0
    0.6633   -0.0081    0.8957 C   0  0  0  0  0  0  0  0  0  0  0  0
    1.8602    0.6232    0.6256 C   0  0  0  0  0  0  0  0  0  0  0  0
    0.2179    0.0130   -1.4978 C   0  0  0  0  0  0  0  0  0  0  0  0
    2.2359    0.9444   -0.6587 C   0  0  0  0  0  0  0  0  0  0  0  0
    1.4355    0.6521   -1.7438 C   0  0  0  0  0  0  0  0  0  0  0  0
   -2.6949    1.4493   -0.1231 C   0  0  0  0  0  0  0  0  0  0  0  0
    3.7932    1.5927    0.6962 C   0  0  0  0  0  0  0  0  0  0  0  0
   -3.6041    2.5433    0.4227 C   0  0  0  0  0  0  0  0  0  0  0  0
  1  8  1  0
  1 16  1  0
  2 12  1  0
  2 17  1  0
  3 14  1  0
  3 17  1  0
  4  6  1  0
  5  6  2  0
  6 10  1  0
  7 18  1  0
  8  9  1  0
  8 10  1  0
  9 11  1  0
  9 13  2  0
 11 12  2  0
 12 14  1  0
 13 15  1  0
 14 15  2  0
 16 18  1  0
M  CHG  2   4  -1   6   1
M  END
>  <PUBCHEM_COMPOUND_CID>  (1) 
15029

>  <PUBCHEM_CONFORMER_RMSD>  (1) 
0.8

>  <PUBCHEM_CONFORMER_DIVERSEORDER>  (1) 
1
23
20
29
25
40
30
27
26
34
39
31
21
8
22
42
38
28
4
41
32
7
35
18
43
44
5
36
2
33
11
37
16
14
19
3
10
24
12
9
45
13
15
6
17

>  <PUBCHEM_MMFF94_PARTIAL_CHARGES>  (1) 
23
1 -0.46
10 0.24
11 -0.15
12 0.08
13 -0.15
14 0.08
15 -0.15
16 0.23
17 0.56
18 0.27
2 -0.36
22 0.15
23 0.15
24 0.15
3 -0.36
31 0.36
32 0.36
4 -0.52
5 -0.52
6 0.8
7 -0.99
8 0.37
9 -0.14

>  <PUBCHEM_EFFECTIVE_ROTOR_COUNT>  (1) 
6.6

>  <PUBCHEM_PHARMACOPHORE_FEATURES>  (1) 
9
1 2 acceptor
1 3 acceptor
1 4 acceptor
1 4 anion
1 5 acceptor
1 7 cation
1 7 donor
5 2 3 12 14 17 rings
6 9 11 12 13 14 15 rings

>  <PUBCHEM_HEAVY_ATOM_COUNT>  (1) 
18

>  <PUBCHEM_ATOM_DEF_STEREO_COUNT>  (1) 
0

>  <PUBCHEM_ATOM_UDEF_STEREO_COUNT>  (1) 
1

>  <PUBCHEM_BOND_DEF_STEREO_COUNT>  (1) 
0

>  <PUBCHEM_BOND_UDEF_STEREO_COUNT>  (1) 
0

>  <PUBCHEM_ISOTOPIC_ATOM_COUNT>  (1) 
0

>  <PUBCHEM_COMPONENT_COUNT>  (1) 
1

>  <PUBCHEM_CACTVS_TAUTO_COUNT>  (1) 
2

>  <PUBCHEM_CONFORMER_ID>  (1) 
00003AB500000001

>  <PUBCHEM_MMFF94_ENERGY>  (1) 
37.1793

>  <PUBCHEM_FEATURE_SELFOVERLAP>  (1) 
45.905

>  <PUBCHEM_SHAPE_FINGERPRINT>  (1) 
11582403 64 16913646061644305992
11725454 13 17273385409875671056
12173636 292 18338230578251680612
12500047 106 18412548734300749200
12788726 201 17974291220182779463
13132413 78 17116079088527208433
13134695 92 17258210771054667045
13294875 104 18126849283133289132
13380537 58 18410864294949781773
13583140 156 17701524329063131968
14170010 4 17689713065756652273
14178000 22 18412257346128127833
14178342 30 18264197192516302826
16945 1 18194686101303850922
18410436 195 17185599014402939783
18785283 64 18047202851593512273
20510252 161 18341904042695555281
20600515 1 17694802000654204387
20671657 1 17907302048943482933
21304303 282 17910915237135350149
21524375 3 18272929384698861869
21650355 55 17834391602584755347
21731228 192 18334579005979053953
22112679 90 17614866418324003847
23402539 116 18056477494404574415
23419403 2 17176008029902340582
23493267 7 18129677420872763184
23557571 272 17767421431858627212
305870 269 18337955580301852097
6442390 28 18198366042721763067
6443956 14 17473826121878746027
6992083 37 17968087685537398636
7364860 26 17906734704974390497
81228 2 17837793466145010811
84936 182 18055352440353133625
90316 7 17978518864114321795

>  <PUBCHEM_SHAPE_MULTIPOLES>  (1) 
340.84
5.63
4.13
1.34
0.31
3.23
0.21
-6.83
-0.98
-3.72
0.51
0.62
-0.16
0.34

>  <PUBCHEM_SHAPE_SELFOVERLAP>  (1) 
700.387

>  <PUBCHEM_SHAPE_VOLUME>  (1) 
200.1

>  <PUBCHEM_COORDINATE_TYPE>  (1) 
2
5
10

$$$$
