15034
     RDKit          3D

  9  9  0  0  0  0  0  0  0  0999 V2000
    2.1567   -2.0179   -0.0010 Br  0  0  0  0  0  0  0  0  0  0  0  0
   -3.3595   -0.6397   -0.0002 Br  0  0  0  0  0  0  0  0  0  0  0  0
    2.4200    1.0454    0.0005 F   0  0  0  0  0  0  0  0  0  0  0  0
    0.8018   -0.6990    0.0006 C   0  0  0  0  0  0  0  0  0  0  0  0
   -0.5386   -1.0853    0.0007 C   0  0  0  0  0  0  0  0  0  0  0  0
    1.1374    0.6550    0.0000 C   0  0  0  0  0  0  0  0  0  0  0  0
   -1.5432   -0.1175    0.0002 C   0  0  0  0  0  0  0  0  0  0  0  0
    0.1328    1.6227   -0.0005 C   0  0  0  0  0  0  0  0  0  0  0  0
   -1.2074    1.2364   -0.0004 C   0  0  0  0  0  0  0  0  0  0  0  0
  1  4  1  0
  2  7  1  0
  3  6  1  0
  4  5  2  0
  4  6  1  0
  5  7  1  0
  6  8  2  0
  7  9  2  0
  8  9  1  0
M  END
>  <PUBCHEM_COMPOUND_CID>  (1) 
15034

>  <PUBCHEM_CONFORMER_RMSD>  (1) 
0.4

>  <PUBCHEM_CONFORMER_DIVERSEORDER>  (1) 
1

>  <PUBCHEM_MMFF94_PARTIAL_CHARGES>  (1) 
12
1 -0.11
10 0.15
11 0.15
12 0.15
2 -0.11
3 -0.19
4 0.11
5 -0.15
6 0.19
7 0.11
8 -0.15
9 -0.15

>  <PUBCHEM_EFFECTIVE_ROTOR_COUNT>  (1) 
0

>  <PUBCHEM_PHARMACOPHORE_FEATURES>  (1) 
3
1 1 hydrophobe
1 2 hydrophobe
6 4 5 6 7 8 9 rings

>  <PUBCHEM_HEAVY_ATOM_COUNT>  (1) 
9

>  <PUBCHEM_ATOM_DEF_STEREO_COUNT>  (1) 
0

>  <PUBCHEM_ATOM_UDEF_STEREO_COUNT>  (1) 
0

>  <PUBCHEM_BOND_DEF_STEREO_COUNT>  (1) 
0

>  <PUBCHEM_BOND_UDEF_STEREO_COUNT>  (1) 
0

>  <PUBCHEM_ISOTOPIC_ATOM_COUNT>  (1) 
0

>  <PUBCHEM_COMPONENT_COUNT>  (1) 
1

>  <PUBCHEM_CACTVS_TAUTO_COUNT>  (1) 
1

>  <PUBCHEM_CONFORMER_ID>  (1) 
00003ABA00000001

>  <PUBCHEM_MMFF94_ENERGY>  (1) 
15.4008

>  <PUBCHEM_FEATURE_SELFOVERLAP>  (1) 
15.223

>  <PUBCHEM_SHAPE_FINGERPRINT>  (1) 
12423570 1 11732204001134522939
14128692 85 18267028258410674374
161256 15 18410857633550464230
16945 1 18338516460023033925
193761 8 18266740173268376420
20645477 70 18411131438375578071
20871998 184 17913480242807018774
20871998 22 18198629834585483910
21040471 1 17545884188236716257
23235685 24 18264764539915030061
23402655 69 18340470211509771701
23552423 10 18261398788856758286
241688 4 18192432974144902401
2748010 2 18338229354206983397
29004967 10 18334298716381382553
5084963 1 18200590285381971571
68250623 7 18268157473968738537

>  <PUBCHEM_SHAPE_MULTIPOLES>  (1) 
189.83
3.93
1.99
0.64
1.68
0.06
0
-1.78
0
-0.88
0
0.04
-0.05
0

>  <PUBCHEM_SHAPE_SELFOVERLAP>  (1) 
366.65

>  <PUBCHEM_SHAPE_VOLUME>  (1) 
120

>  <PUBCHEM_COORDINATE_TYPE>  (1) 
2
5
10

$$$$
