15037
     RDKit          3D

 11 12  0  0  0  0  0  0  0  0999 V2000
    2.0937   -1.0554    0.0850 O   0  0  0  0  0  0  0  0  0  0  0  0
   -1.2058   -0.2556    0.4561 N   0  0  0  0  0  0  0  0  0  0  0  0
    0.0030   -0.5897    1.1739 C   0  0  0  0  0  0  0  0  0  0  0  0
    1.2188   -0.0984    0.4381 C   0  0  0  0  0  0  0  0  0  0  0  0
   -1.8077   -1.0456   -0.4883 C   0  0  0  0  0  0  0  0  0  0  0  0
   -1.9260    0.8995    0.6151 C   0  0  0  0  0  0  0  0  0  0  0  0
    1.6089    1.1389    0.0570 C   0  0  0  0  0  0  0  0  0  0  0  0
   -2.9285   -0.3843   -0.9396 C   0  0  0  0  0  0  0  0  0  0  0  0
   -3.0034    0.8462   -0.2414 C   0  0  0  0  0  0  0  0  0  0  0  0
    2.8480    0.9481   -0.5997 C   0  0  0  0  0  0  0  0  0  0  0  0
    3.0990   -0.4036   -0.5563 C   0  0  0  0  0  0  0  0  0  0  0  0
  1  4  1  0
  1 11  1  0
  2  3  1  0
  2  5  1  0
  2  6  1  0
  3  4  1  0
  4  7  2  0
  5  8  2  0
  6  9  2  0
  7 10  1  0
  8  9  1  0
 10 11  2  0
M  END
>  <PUBCHEM_COMPOUND_CID>  (1) 
15037

>  <PUBCHEM_CONFORMER_RMSD>  (1) 
0.4

>  <PUBCHEM_CONFORMER_DIVERSEORDER>  (1) 
1
5
3
4
6
2

>  <PUBCHEM_MMFF94_PARTIAL_CHARGES>  (1) 
18
1 -0.28
10 -0.15
11 -0.01
14 0.15
15 0.15
16 0.15
17 0.15
18 0.15
19 0.15
2 0.05
20 0.15
3 0.44
4 -0.04
5 -0.3
6 -0.3
7 -0.15
8 -0.15
9 -0.15

>  <PUBCHEM_EFFECTIVE_ROTOR_COUNT>  (1) 
2

>  <PUBCHEM_PHARMACOPHORE_FEATURES>  (1) 
4
1 1 acceptor
1 2 cation
5 1 4 7 10 11 rings
5 2 5 6 8 9 rings

>  <PUBCHEM_HEAVY_ATOM_COUNT>  (1) 
11

>  <PUBCHEM_ATOM_DEF_STEREO_COUNT>  (1) 
0

>  <PUBCHEM_ATOM_UDEF_STEREO_COUNT>  (1) 
0

>  <PUBCHEM_BOND_DEF_STEREO_COUNT>  (1) 
0

>  <PUBCHEM_BOND_UDEF_STEREO_COUNT>  (1) 
0

>  <PUBCHEM_ISOTOPIC_ATOM_COUNT>  (1) 
0

>  <PUBCHEM_COMPONENT_COUNT>  (1) 
1

>  <PUBCHEM_CACTVS_TAUTO_COUNT>  (1) 
1

>  <PUBCHEM_CONFORMER_ID>  (1) 
00003ABD00000001

>  <PUBCHEM_MMFF94_ENERGY>  (1) 
5.7177

>  <PUBCHEM_FEATURE_SELFOVERLAP>  (1) 
20.297

>  <PUBCHEM_SHAPE_FINGERPRINT>  (1) 
10857977 72 13695879103648562899
11031198 65 17749115452108522371
12382932 28 8070034367202349845
12696612 119 8646766707589367106
12897270 3 18271804674191654261
12932764 1 17917432050800201907
13296908 3 14333408934628534448
13764800 53 15068621531274577653
14390081 3 17385719197133615149
15775835 57 18187646881823463125
18186145 218 18040154002537769046
20279233 1 14692567702092088909
20281407 28 13110971919947362188
20361792 2 14620796015547956009
20645464 45 14490186090252045857
20653085 51 18334299747147276673
20711985 344 15194461714667233643
21028194 46 16805041817563591075
21119208 17 18271807899727996021
230 275 17530957003808967184
23402655 69 18410292480226430021
23552423 10 18341044104275166387
25 1 17895479133004984498
3248919 1 18335135405822252306
369184 2 8430319030578388275
549884 4 18335416872156508032
63268167 104 18260266326181982064
8030462 33 18343301474312826818
81228 2 14548197384342952323

>  <PUBCHEM_SHAPE_MULTIPOLES>  (1) 
215.52
5.43
1.2
0.98
0.29
0.09
0.07
0.5
-1.7
0.04
-0.03
-0.16
-0.08
-0.3

>  <PUBCHEM_SHAPE_SELFOVERLAP>  (1) 
464.193

>  <PUBCHEM_SHAPE_VOLUME>  (1) 
121.5

>  <PUBCHEM_COORDINATE_TYPE>  (1) 
2
5
10

$$$$
