15041
     RDKit          3D

 15 15  0  0  0  0  0  0  0  0999 V2000
   -0.8190    2.6882    0.4938 Cl  0  0  0  0  0  0  0  0  0  0  0  0
   -0.8178   -2.6889    0.4930 Cl  0  0  0  0  0  0  0  0  0  0  0  0
    2.2848   -2.7211   -0.1393 Cl  0  0  0  0  0  0  0  0  0  0  0  0
    2.2833    2.7217   -0.1390 Cl  0  0  0  0  0  0  0  0  0  0  0  0
    3.8300    0.0008   -0.4549 Cl  0  0  0  0  0  0  0  0  0  0  0  0
   -1.9502   -0.0007    0.7243 O   0  0  0  0  0  0  0  0  0  0  0  0
   -2.3732    0.0017   -1.5782 O   0  0  0  0  0  0  0  0  0  0  0  0
   -0.6111   -0.0003    0.4510 C   0  0  0  0  0  0  0  0  0  0  0  0
    0.0719    1.2078    0.3118 C   0  0  0  0  0  0  0  0  0  0  0  0
    0.0725   -1.2082    0.3113 C   0  0  0  0  0  0  0  0  0  0  0  0
    1.4392   -1.2080    0.0325 C   0  0  0  0  0  0  0  0  0  0  0  0
    1.4385    1.2081    0.0329 C   0  0  0  0  0  0  0  0  0  0  0  0
    2.1223    0.0003   -0.1068 C   0  0  0  0  0  0  0  0  0  0  0  0
   -2.7634   -0.0006   -0.4182 C   0  0  0  0  0  0  0  0  0  0  0  0
   -4.2079   -0.0010   -0.0143 C   0  0  0  0  0  0  0  0  0  0  0  0
  1  9  1  0
  2 10  1  0
  3 11  1  0
  4 12  1  0
  5 13  1  0
  6  8  1  0
  6 14  1  0
  7 14  2  0
  8  9  2  0
  8 10  1  0
  9 12  1  0
 10 11  2  0
 11 13  1  0
 12 13  2  0
 14 15  1  0
M  END
>  <PUBCHEM_COMPOUND_CID>  (1) 
15041

>  <PUBCHEM_CONFORMER_RMSD>  (1) 
0.6

>  <PUBCHEM_CONFORMER_DIVERSEORDER>  (1) 
1
2
3

>  <PUBCHEM_MMFF94_PARTIAL_CHARGES>  (1) 
15
1 -0.18
10 0.18
11 0.18
12 0.18
13 0.18
14 0.66
15 0.06
2 -0.18
3 -0.18
4 -0.18
5 -0.18
6 -0.23
7 -0.57
8 0.08
9 0.18

>  <PUBCHEM_EFFECTIVE_ROTOR_COUNT>  (1) 
2

>  <PUBCHEM_PHARMACOPHORE_FEATURES>  (1) 
2
1 7 acceptor
6 8 9 10 11 12 13 rings

>  <PUBCHEM_HEAVY_ATOM_COUNT>  (1) 
15

>  <PUBCHEM_ATOM_DEF_STEREO_COUNT>  (1) 
0

>  <PUBCHEM_ATOM_UDEF_STEREO_COUNT>  (1) 
0

>  <PUBCHEM_BOND_DEF_STEREO_COUNT>  (1) 
0

>  <PUBCHEM_BOND_UDEF_STEREO_COUNT>  (1) 
0

>  <PUBCHEM_ISOTOPIC_ATOM_COUNT>  (1) 
0

>  <PUBCHEM_COMPONENT_COUNT>  (1) 
1

>  <PUBCHEM_CACTVS_TAUTO_COUNT>  (1) 
1

>  <PUBCHEM_CONFORMER_ID>  (1) 
00003AC100000001

>  <PUBCHEM_MMFF94_ENERGY>  (1) 
41.099

>  <PUBCHEM_FEATURE_SELFOVERLAP>  (1) 
10.148

>  <PUBCHEM_SHAPE_FINGERPRINT>  (1) 
10967382 1 18410578396378263368
11206711 2 18337680711048477804
11471102 20 18337105675204349647
12423570 1 11804547446615256843
13140716 1 18266457796833492986
13380535 76 18409729590655784266
13897977 150 18265897032707415864
14115302 16 18187941606964049798
14576447 43 18201143451800994903
14617773 55 17986394377914276312
14911166 2 18410300224410738542
15219456 202 18191310583284232865
16945 1 18410582781640079930
18186145 218 18409441518487779861
193761 8 17834117437874244160
20201158 50 18408324384429755674
20588541 1 18408045130061900314
20645477 70 18410566259286352007
21501502 16 18123194498288227088
22112679 90 17905319629014022330
22182313 1 17979932819114372180
2334 1 17978798140204666896
23388829 49 18342732984194673368
23402539 116 18341887447026163486
23419403 2 16314072346448170466
23526114 1 18122911099102916168
23559900 14 18341339998306195172
238 59 17829846037259080991
241688 4 17906172854469202864
25 1 18336542802228095269
2748010 2 18051140477694705456
353137 74 18337105661918690009
5255222 1 17187855753333992144
528886 8 18411980277782477819
7364860 26 18413387635876421960
77492 1 17703794713004958729
81228 2 17402599758525863536

>  <PUBCHEM_SHAPE_MULTIPOLES>  (1) 
306.3
5.3
3.16
0.85
2.17
0
-0.17
0
-1.17
-1.63
0.42
0.35
0
0

>  <PUBCHEM_SHAPE_SELFOVERLAP>  (1) 
598.075

>  <PUBCHEM_SHAPE_VOLUME>  (1) 
188.8

>  <PUBCHEM_COORDINATE_TYPE>  (1) 
2
5
10

$$$$
