15049
     RDKit          3D

 15 15  0  0  0  0  0  0  0  0999 V2000
   -1.1908    0.0276    0.6822 P   0  0  0  0  0  0  0  0  0  0  0  0
   -1.1822   -1.5856    0.4387 O   0  0  0  0  0  0  0  0  0  0  0  0
   -2.6326    0.4381    0.0371 O   0  0  0  0  0  0  0  0  0  0  0  0
   -1.1714    0.3311    2.1621 O   0  0  0  0  0  0  0  0  0  0  0  0
   -0.0478    0.6989   -0.3030 N   0  0  0  0  0  0  0  0  0  0  0  0
    1.3477    0.5219   -0.1983 C   0  0  0  0  0  0  0  0  0  0  0  0
   -1.4580   -2.1100   -0.8494 C   0  0  0  0  0  0  0  0  0  0  0  0
   -2.9610    1.8112   -0.0933 C   0  0  0  0  0  0  0  0  0  0  0  0
    2.1991    1.1287   -1.1216 C   0  0  0  0  0  0  0  0  0  0  0  0
    1.8760   -0.2605    0.8286 C   0  0  0  0  0  0  0  0  0  0  0  0
   -1.3844   -3.6210   -0.7927 C   0  0  0  0  0  0  0  0  0  0  0  0
   -4.3371    1.9323   -0.7125 C   0  0  0  0  0  0  0  0  0  0  0  0
    3.5789    0.9529   -1.0183 C   0  0  0  0  0  0  0  0  0  0  0  0
    3.2561   -0.4361    0.9319 C   0  0  0  0  0  0  0  0  0  0  0  0
    4.1074    0.1706    0.0084 C   0  0  0  0  0  0  0  0  0  0  0  0
  1  2  1  0
  1  3  1  0
  1  4  2  0
  1  5  1  0
  2  7  1  0
  3  8  1  0
  5  6  1  0
  6  9  2  0
  6 10  1  0
  7 11  1  0
  8 12  1  0
  9 13  1  0
 10 14  2  0
 13 15  2  0
 14 15  1  0
M  END
>  <PUBCHEM_COMPOUND_CID>  (1) 
15049

>  <PUBCHEM_CONFORMER_RMSD>  (1) 
0.6

>  <PUBCHEM_CONFORMER_DIVERSEORDER>  (1) 
1
24
77
58
75
55
9
71
76
34
4
80
33
30
28
41
31
40
73
8
47
37
79
2
3
56
19
72
20
62
17
78
21
74
12
59
35
14
49
29
27
15
68
26
64
51
6
57
38
52
22
60
25
13
5
43
44
63
36
32
66
46
50
23
67
61
42
7
45
70
10
54
48
11
65
18
16
69
53
39

>  <PUBCHEM_MMFF94_PARTIAL_CHARGES>  (1) 
19
1 1.52
10 -0.15
13 -0.15
14 -0.15
15 -0.15
16 0.4
2 -0.55
21 0.15
22 0.15
29 0.15
3 -0.55
30 0.15
31 0.15
4 -0.7
5 -0.78
6 0.1
7 0.28
8 0.28
9 -0.15

>  <PUBCHEM_EFFECTIVE_ROTOR_COUNT>  (1) 
6

>  <PUBCHEM_PHARMACOPHORE_FEATURES>  (1) 
2
1 4 acceptor
6 6 9 10 13 14 15 rings

>  <PUBCHEM_HEAVY_ATOM_COUNT>  (1) 
15

>  <PUBCHEM_ATOM_DEF_STEREO_COUNT>  (1) 
0

>  <PUBCHEM_ATOM_UDEF_STEREO_COUNT>  (1) 
0

>  <PUBCHEM_BOND_DEF_STEREO_COUNT>  (1) 
0

>  <PUBCHEM_BOND_UDEF_STEREO_COUNT>  (1) 
0

>  <PUBCHEM_ISOTOPIC_ATOM_COUNT>  (1) 
0

>  <PUBCHEM_COMPONENT_COUNT>  (1) 
1

>  <PUBCHEM_CACTVS_TAUTO_COUNT>  (1) 
2

>  <PUBCHEM_CONFORMER_ID>  (1) 
00003AC900000001

>  <PUBCHEM_MMFF94_ENERGY>  (1) 
22.114

>  <PUBCHEM_FEATURE_SELFOVERLAP>  (1) 
10.148

>  <PUBCHEM_SHAPE_FINGERPRINT>  (1) 
12138202 97 18272938227762049063
12500047 106 18342451547898840690
12592029 89 18263367993066069067
12932764 1 18265911318037778304
13931106 250 17845080947387946791
15279307 12 18334855013388628098
15669948 3 18337112366520738764
15852999 172 18060143102419126918
15906896 17 18261116317727528347
16752209 62 18269825553557660847
167882 2 18122065303814992678
17844478 74 12324241659011723172
18186145 218 17846775192038260233
187816 3 17703504415938984505
19868273 293 18410858763042466956
20602899 9 18131075900599503847
20645476 183 18409166610463369111
21486144 27 15719397265023732396
21524375 3 18188487978470633417
23402539 116 18271514326134809485
23419403 2 13468117601879913999
23557571 272 17987230213263497456
23559900 14 18060419119447017208
23598291 2 18113328730670884670
298252 57 18335415730106398025
3248919 1 17417828248390629024
3250762 1 17698138979668518857
53748568 43 18187650240778071174
58051976 100 18260551134016131479
69090 78 18261105249422544645
74978 22 18341613758630234816
7832392 63 18187083979389209484
81228 2 18055912349590859603
81539 233 18192143790361096509
88987 49 18341887545657332912

>  <PUBCHEM_SHAPE_MULTIPOLES>  (1) 
289.95
7.03
2.71
1.3
1.11
3.17
-0.4
-4.07
1.17
-3.41
1.2
0.12
-0.02
-0.62

>  <PUBCHEM_SHAPE_SELFOVERLAP>  (1) 
559.335

>  <PUBCHEM_SHAPE_VOLUME>  (1) 
176.7

>  <PUBCHEM_COORDINATE_TYPE>  (1) 
2
5
10

$$$$
