1504
     RDKit          3D

 25 28  0  0  0  0  0  0  0  0999 V2000
    1.6594   -1.1415   -0.0806 O   0  0  0  0  0  0  0  0  0  0  0  0
   -1.6895    1.2214   -0.2236 N   0  0  0  0  0  0  0  0  0  0  0  0
   -0.9671   -0.6944    0.6407 N   0  0  0  0  0  0  0  0  0  0  0  0
   -7.3768   -1.2208   -0.1235 N   0  0  0  0  0  0  0  0  0  0  0  0
   -6.8868    0.9275   -0.9016 N   0  0  0  0  0  0  0  0  0  0  0  0
   -0.6167    0.5014    0.2231 C   0  0  0  0  0  0  0  0  0  0  0  0
   -2.8065    0.4381   -0.0852 C   0  0  0  0  0  0  0  0  0  0  0  0
    0.7221    1.0390    0.2157 C   0  0  0  0  0  0  0  0  0  0  0  0
   -2.3294   -0.7523    0.4562 C   0  0  0  0  0  0  0  0  0  0  0  0
    1.8325    0.2065    0.0640 C   0  0  0  0  0  0  0  0  0  0  0  0
    3.1176    0.7490    0.0595 C   0  0  0  0  0  0  0  0  0  0  0  0
   -4.1522    0.6618   -0.3780 C   0  0  0  0  0  0  0  0  0  0  0  0
    0.9012    2.4157    0.3629 C   0  0  0  0  0  0  0  0  0  0  0  0
   -3.2344   -1.7922    0.7281 C   0  0  0  0  0  0  0  0  0  0  0  0
   -5.0390   -0.3840   -0.1012 C   0  0  0  0  0  0  0  0  0  0  0  0
    4.2843   -0.0967   -0.0967 C   0  0  0  0  0  0  0  0  0  0  0  0
    3.2945    2.1248    0.2069 C   0  0  0  0  0  0  0  0  0  0  0  0
   -4.5904   -1.5899    0.4421 C   0  0  0  0  0  0  0  0  0  0  0  0
    2.1864    2.9580    0.3584 C   0  0  0  0  0  0  0  0  0  0  0  0
    4.9052   -0.6385    1.0272 C   0  0  0  0  0  0  0  0  0  0  0  0
    4.7817   -0.3666   -1.3704 C   0  0  0  0  0  0  0  0  0  0  0  0
   -6.4556   -0.2086   -0.3839 C   0  0  0  0  0  0  0  0  0  0  0  0
    6.0278   -1.4528    0.8770 C   0  0  0  0  0  0  0  0  0  0  0  0
    5.9043   -1.1809   -1.5204 C   0  0  0  0  0  0  0  0  0  0  0  0
    6.5273   -1.7240   -0.3966 C   0  0  0  0  0  0  0  0  0  0  0  0
  1 10  1  0
  2  6  1  0
  2  7  1  0
  3  6  2  0
  3  9  1  0
  4 22  1  0
  5 22  2  0
  6  8  1  0
  7  9  2  0
  7 12  1  0
  8 10  2  0
  8 13  1  0
  9 14  1  0
 10 11  1  0
 11 16  1  0
 11 17  2  0
 12 15  2  0
 13 19  2  0
 14 18  2  0
 15 18  1  0
 15 22  1  0
 16 20  2  0
 16 21  1  0
 17 19  1  0
 20 23  1  0
 21 24  2  0
 23 25  2  0
 24 25  1  0
M  END
>  <PUBCHEM_COMPOUND_CID>  (1) 
1504

>  <PUBCHEM_CONFORMER_RMSD>  (1) 
0.6

>  <PUBCHEM_CONFORMER_DIVERSEORDER>  (1) 
2
3
6
1
4
5

>  <PUBCHEM_MMFF94_PARTIAL_CHARGES>  (1) 
39
1 -0.53
10 0.08
12 -0.15
13 -0.15
14 -0.15
15 0.09
17 -0.15
18 -0.15
19 -0.15
2 0.03
20 -0.15
21 -0.15
22 0.41
23 -0.15
24 -0.15
25 -0.15
26 0.27
27 0.15
28 0.15
29 0.15
3 -0.57
30 0.15
31 0.15
32 0.15
33 0.15
34 0.15
35 0.45
36 0.15
37 0.15
38 0.15
39 0.4
4 -0.85
40 0.4
41 0.4
5 -0.85
6 0.13
7 -0.15
8 0.05
9 0.23

>  <PUBCHEM_EFFECTIVE_ROTOR_COUNT>  (1) 
3

>  <PUBCHEM_PHARMACOPHORE_FEATURES>  (1) 
10
1 1 donor
1 2 donor
1 4 donor
1 5 donor
3 2 3 6 cation
3 4 5 22 cation
5 2 3 6 7 9 rings
6 16 20 21 23 24 25 rings
6 7 9 12 14 15 18 rings
6 8 10 11 13 17 19 rings

>  <PUBCHEM_HEAVY_ATOM_COUNT>  (1) 
25

>  <PUBCHEM_ATOM_DEF_STEREO_COUNT>  (1) 
0

>  <PUBCHEM_ATOM_UDEF_STEREO_COUNT>  (1) 
0

>  <PUBCHEM_BOND_DEF_STEREO_COUNT>  (1) 
0

>  <PUBCHEM_BOND_UDEF_STEREO_COUNT>  (1) 
0

>  <PUBCHEM_ISOTOPIC_ATOM_COUNT>  (1) 
0

>  <PUBCHEM_COMPONENT_COUNT>  (1) 
1

>  <PUBCHEM_CACTVS_TAUTO_COUNT>  (1) 
15

>  <PUBCHEM_CONFORMER_ID>  (1) 
000005E000000002

>  <PUBCHEM_MMFF94_ENERGY>  (1) 
78.5058

>  <PUBCHEM_FEATURE_SELFOVERLAP>  (1) 
50.898

>  <PUBCHEM_SHAPE_FINGERPRINT>  (1) 
10 15 11095877168634417046
10162869 55 9583226229398246025
10411042 1 18341051818664158072
10670039 82 16732975389057666709
11181472 205 14057819606109484239
11524674 6 17775846826749851623
11719270 70 18130786746031851598
11796584 16 17749113309526828474
11963148 33 18411132528839069414
12166972 35 18187086165264079149
12236239 1 17131836477881180385
12516196 113 18343863312576769144
12596602 18 14045743703222349358
12616971 3 17774716558544218373
12954195 1 18337107857333241765
13533116 47 17917428765356338808
13668630 136 18060139834102248695
13685833 64 18342458140531228282
13782708 43 18338518676806901379
13862211 1 18411982425783187730
13914758 101 17275109388784852841
14251752 14 17821726105090752495
14341114 328 13470681538979392526
15183329 4 18260831470842352323
15188451 53 17561082475827744098
15961568 22 11887958774084875826
18222031 100 18273502265011959552
19784866 240 18343590628897031416
20028762 73 18060420226905839846
20832881 197 18335420175096986048
21130935 74 18201720695294904803
21267235 1 18412268323990468915
21279426 13 18335134311133216241
21315764 119 17458346312224857079
21344244 78 17203604887734967976
21682296 61 17988655038499084166
21781051 124 17604159215511585779
221357 26 18408603660409792492
2215653 11 18410011048288699199
2303208 19 17968385653541928187
23522609 53 18120125881168005620
23559900 14 18336543931994788017
23569943 247 17769951081913858174
29717793 49 18272934929227198076
3004659 81 18114183030152504894
3103668 31 18116710708374954301
328311 84 18334018320006076155
335352 9 18409165515315092191
3383291 50 18343018904642598179
3411729 13 18266170829164161008
4073 2 17896883359614226240
4340502 62 13830132780562053132
437815 12 18342741801477870804
44062 13 18337111271405019595
465052 167 18343588443265002214
5104073 3 18342463689634471281
542803 24 14779263124743224535
5758199 1 7853570227661093733
59755656 215 18260546697558066259
59755656 520 16587740945832746483
6138700 20 18408885105385133003
6438161 24 18259978267542685346
6695519 79 17118624990727502504
7970288 3 18339927013858327598
86090 222 17059513850334285206
8863177 126 18043826482986273243
8988823 20 16917343766820165456
960060 61 17603874412156265782
9663363 56 18342171147165120478
9709674 26 18118406382583718971

>  <PUBCHEM_SHAPE_MULTIPOLES>  (1) 
488.69
18.29
2.26
0.97
11.88
1.25
0.16
-9.59
3.65
-1.7
-0.31
-0.99
-0.24
0.98

>  <PUBCHEM_SHAPE_SELFOVERLAP>  (1) 
1103.583

>  <PUBCHEM_SHAPE_VOLUME>  (1) 
257.3

>  <PUBCHEM_COORDINATE_TYPE>  (1) 
2
5
10

$$$$
