15045
     RDKit          3D

 20 21  0  0  0  0  0  0  0  0999 V2000
   -2.3162   -1.6853   -0.1508 S   0  0  0  0  0  0  0  0  0  0  0  0
    0.3340   -0.4601   -1.2098 O   0  0  0  0  0  0  0  0  0  0  0  0
   -2.0925   -1.9709   -1.5549 O   0  0  0  0  0  0  0  0  0  0  0  0
   -3.0888   -2.5969    0.6707 O   0  0  0  0  0  0  0  0  0  0  0  0
    2.6034   -0.2028    0.3515 N   0  0  0  0  0  0  0  0  0  0  0  0
    1.4106   -0.7236    0.8210 N   0  0  0  0  0  0  0  0  0  0  0  0
   -0.8161   -1.3722    0.6062 N   0  0  0  0  0  0  0  0  0  0  0  0
    5.0709    1.6864   -0.2558 C   0  0  0  0  0  0  0  0  0  0  0  0
    5.2424    0.3206   -0.9168 C   0  0  0  0  0  0  0  0  0  0  0  0
    3.6524    2.0171    0.1997 C   0  0  0  0  0  0  0  0  0  0  0  0
    5.0659   -0.8254    0.0748 C   0  0  0  0  0  0  0  0  0  0  0  0
    2.9888    0.9833    1.1134 C   0  0  0  0  0  0  0  0  0  0  0  0
    3.6145   -1.2596    0.3009 C   0  0  0  0  0  0  0  0  0  0  0  0
    0.3355   -0.8113   -0.0333 C   0  0  0  0  0  0  0  0  0  0  0  0
   -3.0759   -0.0917   -0.0677 C   0  0  0  0  0  0  0  0  0  0  0  0
   -2.8856    0.8031   -1.1068 C   0  0  0  0  0  0  0  0  0  0  0  0
   -3.8472    0.2329    1.0351 C   0  0  0  0  0  0  0  0  0  0  0  0
   -3.4847    2.0610   -1.0409 C   0  0  0  0  0  0  0  0  0  0  0  0
   -4.4463    1.4908    1.1008 C   0  0  0  0  0  0  0  0  0  0  0  0
   -4.2651    2.4049    0.0628 C   0  0  0  0  0  0  0  0  0  0  0  0
  1  3  2  0
  1  4  2  0
  1  7  1  0
  1 15  1  0
  2 14  2  0
  5  6  1  0
  5 12  1  0
  5 13  1  0
  6 14  1  0
  7 14  1  0
  8  9  1  0
  8 10  1  0
  9 11  1  0
 10 12  1  0
 11 13  1  0
 15 16  2  0
 15 17  1  0
 16 18  1  0
 17 19  2  0
 18 20  2  0
 19 20  1  0
M  END
>  <PUBCHEM_COMPOUND_CID>  (1) 
15045

>  <PUBCHEM_CONFORMER_RMSD>  (1) 
0.8

>  <PUBCHEM_CONFORMER_DIVERSEORDER>  (1) 
1
51
34
10
58
37
50
23
33
43
45
52
27
28
39
47
54
16
42
11
6
21
3
40
36
24
7
41
56
31
57
49
44
22
30
15
38
48
18
13
17
8
55
29
14
25
20
35
26
12
32
19
4
53
46
5
9
2

>  <PUBCHEM_MMFF94_PARTIAL_CHARGES>  (1) 
23
1 1.45
12 0.27
13 0.27
14 0.87
15 -0.01
16 -0.15
17 -0.15
18 -0.15
19 -0.15
2 -0.57
20 -0.15
3 -0.65
33 0.37
34 0.42
35 0.15
36 0.15
37 0.15
38 0.15
39 0.15
4 -0.65
5 -0.55
6 -0.42
7 -0.79

>  <PUBCHEM_EFFECTIVE_ROTOR_COUNT>  (1) 
6.4

>  <PUBCHEM_PHARMACOPHORE_FEATURES>  (1) 
7
1 2 acceptor
1 3 acceptor
1 4 acceptor
1 6 donor
1 7 donor
6 15 16 17 18 19 20 rings
7 5 8 9 10 11 12 13 rings

>  <PUBCHEM_HEAVY_ATOM_COUNT>  (1) 
20

>  <PUBCHEM_ATOM_DEF_STEREO_COUNT>  (1) 
0

>  <PUBCHEM_ATOM_UDEF_STEREO_COUNT>  (1) 
0

>  <PUBCHEM_BOND_DEF_STEREO_COUNT>  (1) 
0

>  <PUBCHEM_BOND_UDEF_STEREO_COUNT>  (1) 
0

>  <PUBCHEM_ISOTOPIC_ATOM_COUNT>  (1) 
0

>  <PUBCHEM_COMPONENT_COUNT>  (1) 
1

>  <PUBCHEM_CACTVS_TAUTO_COUNT>  (1) 
3

>  <PUBCHEM_CONFORMER_ID>  (1) 
00003AC500000001

>  <PUBCHEM_MMFF94_ENERGY>  (1) 
19.4463

>  <PUBCHEM_FEATURE_SELFOVERLAP>  (1) 
35.586

>  <PUBCHEM_SHAPE_FINGERPRINT>  (1) 
11370993 144 18334859359631443166
11405975 8 18409442579613805426
11552529 35 18341326815991481359
11595378 159 16515676715669386684
12107183 9 18047464530981852346
12596602 18 15574724602904158500
12633257 1 18263067847687109538
12892183 10 17023471820293643345
13073987 5 18334573590368211194
14123255 352 18409166576172157053
146900 427 12685394941148442526
14848178 5 10015581688365852084
15239154 128 18335137609536120412
15788980 27 15698001842626062088
17349148 13 11743836984696461022
17834072 32 18410854317978500189
17844677 252 18337679723406089290
18186145 218 18343298180447535250
200 152 9295280634366965059
20621476 91 12180423416596184140
20645477 56 18336551534223740031
21033648 29 18261941947728123201
21864079 5 18187633717690711088
22182937 141 18412263939388224041
23227448 37 18409166627811926461
23402539 116 11887679463845326714
23402655 69 18342176687583293976
23403322 49 9871456622128738641
23557571 272 18271534190120773695
23559900 14 18129383709661352798
25122255 55 10665494207177878360
27216 239 18333452015588218649
4214541 1 18410575097695784426
5104073 3 18334007320352030650
5281201 14 18270403909874653886
543358 83 18411138005396001458
57724786 102 18127701417730184145
633830 44 18334289881892526626
77779 3 18409449215327669458
90127 26 18337962276461932354

>  <PUBCHEM_SHAPE_MULTIPOLES>  (1) 
382.89
12.45
2.56
1.18
9.21
0.08
-0.15
5.61
0.21
-1.9
-0.09
-0.62
0.04
-0.04

>  <PUBCHEM_SHAPE_SELFOVERLAP>  (1) 
771.485

>  <PUBCHEM_SHAPE_VOLUME>  (1) 
221.8

>  <PUBCHEM_COORDINATE_TYPE>  (1) 
2
5
10

$$$$
