15048
     RDKit          3D

 11 12  0  0  0  0  0  0  0  0999 V2000
    2.0670    0.6603   -0.0001 N   0  0  0  0  0  0  0  0  0  0  0  0
   -0.7054   -1.4503   -0.0001 N   0  0  0  0  0  0  0  0  0  0  0  0
   -1.6074    0.8165    0.0001 N   0  0  0  0  0  0  0  0  0  0  0  0
    1.7239   -1.5421    0.0000 N   0  0  0  0  0  0  0  0  0  0  0  0
   -0.1905    2.7510    0.0000 N   0  0  0  0  0  0  0  0  0  0  0  0
    0.7111    0.4964    0.0001 C   0  0  0  0  0  0  0  0  0  0  0  0
    0.5232   -0.8793    0.0001 C   0  0  0  0  0  0  0  0  0  0  0  0
   -0.3685    1.3576    0.0000 C   0  0  0  0  0  0  0  0  0  0  0  0
   -1.6983   -0.5349    0.0000 C   0  0  0  0  0  0  0  0  0  0  0  0
    2.6305   -0.5883    0.0000 C   0  0  0  0  0  0  0  0  0  0  0  0
   -3.0857   -1.0868    0.0000 C   0  0  0  0  0  0  0  0  0  0  0  0
  1  6  1  0
  1 10  1  0
  2  7  1  0
  2  9  2  0
  3  8  2  0
  3  9  1  0
  4  7  1  0
  4 10  2  0
  5  8  1  0
  6  7  2  0
  6  8  1  0
  9 11  1  0
M  END
>  <PUBCHEM_COMPOUND_CID>  (1) 
15048

>  <PUBCHEM_CONFORMER_RMSD>  (1) 
0.4

>  <PUBCHEM_CONFORMER_DIVERSEORDER>  (1) 
1

>  <PUBCHEM_MMFF94_PARTIAL_CHARGES>  (1) 
15
1 0.03
10 0.04
11 0.14
12 0.27
13 0.15
17 0.4
18 0.4
2 -0.57
3 -0.62
4 -0.57
5 -0.9
6 -0.15
7 0.48
8 0.41
9 0.48

>  <PUBCHEM_EFFECTIVE_ROTOR_COUNT>  (1) 
0

>  <PUBCHEM_PHARMACOPHORE_FEATURES>  (1) 
8
1 1 donor
1 5 cation
1 5 donor
3 1 4 10 cation
3 2 3 9 cation
3 2 4 7 cation
5 1 4 6 7 10 rings
6 2 3 6 7 8 9 rings

>  <PUBCHEM_HEAVY_ATOM_COUNT>  (1) 
11

>  <PUBCHEM_ATOM_DEF_STEREO_COUNT>  (1) 
0

>  <PUBCHEM_ATOM_UDEF_STEREO_COUNT>  (1) 
0

>  <PUBCHEM_BOND_DEF_STEREO_COUNT>  (1) 
0

>  <PUBCHEM_BOND_UDEF_STEREO_COUNT>  (1) 
0

>  <PUBCHEM_ISOTOPIC_ATOM_COUNT>  (1) 
0

>  <PUBCHEM_COMPONENT_COUNT>  (1) 
1

>  <PUBCHEM_CACTVS_TAUTO_COUNT>  (1) 
8

>  <PUBCHEM_CONFORMER_ID>  (1) 
00003AC800000001

>  <PUBCHEM_MMFF94_ENERGY>  (1) 
20.374

>  <PUBCHEM_FEATURE_SELFOVERLAP>  (1) 
41.254

>  <PUBCHEM_SHAPE_FINGERPRINT>  (1) 
10857977 72 18339630217883218794
16945 1 18266459999814163687
18185500 45 18339080496439670382
193761 8 17762056536680115975
20871998 184 18201434714554310446
21040471 1 17617940231954759780
23552423 10 18188496769999630558
23559900 14 17263287225263807782
241688 4 18410575046082356593
2748010 2 18411696569438532413
29004967 10 18336549416393419619
5084963 1 18201438021816284738

>  <PUBCHEM_SHAPE_MULTIPOLES>  (1) 
201.47
3.45
2.07
0.58
0.8
1.31
0
-1.54
0
0.06
0
0.01
-0.01
0

>  <PUBCHEM_SHAPE_SELFOVERLAP>  (1) 
441.142

>  <PUBCHEM_SHAPE_VOLUME>  (1) 
108.6

>  <PUBCHEM_COORDINATE_TYPE>  (1) 
2
5
10

$$$$
