15040
     RDKit          3D

 20 20  0  0  0  0  0  0  0  0999 V2000
    0.6116   -2.9496   -0.1802 Cl  0  0  0  0  0  0  0  0  0  0  0  0
   -0.0526    2.3284   -0.9653 Cl  0  0  0  0  0  0  0  0  0  0  0  0
    3.0041    2.8428   -0.3189 Cl  0  0  0  0  0  0  0  0  0  0  0  0
    3.6763   -2.4995    0.4764 Cl  0  0  0  0  0  0  0  0  0  0  0  0
    4.8655    0.4119    0.4040 Cl  0  0  0  0  0  0  0  0  0  0  0  0
   -2.0564   -0.4792    0.2711 P   0  0  0  0  0  0  0  0  0  0  0  0
   -0.8371   -0.4865   -0.8105 O   0  0  0  0  0  0  0  0  0  0  0  0
   -1.8096   -1.5185    1.3420 O   0  0  0  0  0  0  0  0  0  0  0  0
   -3.4270   -0.7894   -0.6544 N   0  0  0  0  0  0  0  0  0  0  0  0
   -2.1393    1.1009    0.8075 N   0  0  0  0  0  0  0  0  0  0  0  0
   -3.6397    0.0355   -1.8475 C   0  0  0  0  0  0  0  0  0  0  0  0
   -4.7001   -0.8945    0.0681 C   0  0  0  0  0  0  0  0  0  0  0  0
   -1.0654    1.6347    1.6404 C   0  0  0  0  0  0  0  0  0  0  0  0
   -3.4263    1.6578    1.2175 C   0  0  0  0  0  0  0  0  0  0  0  0
    0.4864   -0.2780   -0.5285 C   0  0  0  0  0  0  0  0  0  0  0  0
    1.3073   -1.3578   -0.2091 C   0  0  0  0  0  0  0  0  0  0  0  0
    1.0089    1.0136   -0.5618 C   0  0  0  0  0  0  0  0  0  0  0  0
    2.3573    1.2261   -0.2746 C   0  0  0  0  0  0  0  0  0  0  0  0
    2.6556   -1.1454    0.0783 C   0  0  0  0  0  0  0  0  0  0  0  0
    3.1807    0.1466    0.0454 C   0  0  0  0  0  0  0  0  0  0  0  0
  1 16  1  0
  2 17  1  0
  3 18  1  0
  4 19  1  0
  5 20  1  0
  6  7  1  0
  6  8  2  0
  6  9  1  0
  6 10  1  0
  7 15  1  0
  9 11  1  0
  9 12  1  0
 10 13  1  0
 10 14  1  0
 15 16  2  0
 15 17  1  0
 16 19  1  0
 17 18  2  0
 18 20  1  0
 19 20  2  0
M  END
>  <PUBCHEM_COMPOUND_CID>  (1) 
15040

>  <PUBCHEM_CONFORMER_RMSD>  (1) 
0.6

>  <PUBCHEM_CONFORMER_DIVERSEORDER>  (1) 
5
2
6
4
1
3

>  <PUBCHEM_MMFF94_PARTIAL_CHARGES>  (1) 
20
1 -0.18
10 -0.81
11 0.27
12 0.27
13 0.27
14 0.27
15 0.08
16 0.18
17 0.18
18 0.18
19 0.18
2 -0.18
20 0.18
3 -0.18
4 -0.18
5 -0.18
6 1.51
7 -0.35
8 -0.7
9 -0.81

>  <PUBCHEM_EFFECTIVE_ROTOR_COUNT>  (1) 
4

>  <PUBCHEM_PHARMACOPHORE_FEATURES>  (1) 
1
6 15 16 17 18 19 20 rings

>  <PUBCHEM_HEAVY_ATOM_COUNT>  (1) 
20

>  <PUBCHEM_ATOM_DEF_STEREO_COUNT>  (1) 
0

>  <PUBCHEM_ATOM_UDEF_STEREO_COUNT>  (1) 
0

>  <PUBCHEM_BOND_DEF_STEREO_COUNT>  (1) 
0

>  <PUBCHEM_BOND_UDEF_STEREO_COUNT>  (1) 
0

>  <PUBCHEM_ISOTOPIC_ATOM_COUNT>  (1) 
0

>  <PUBCHEM_COMPONENT_COUNT>  (1) 
1

>  <PUBCHEM_CACTVS_TAUTO_COUNT>  (1) 
1

>  <PUBCHEM_CONFORMER_ID>  (1) 
00003AC000000005

>  <PUBCHEM_MMFF94_ENERGY>  (1) 
63.7695

>  <PUBCHEM_FEATURE_SELFOVERLAP>  (1) 
5.074

>  <PUBCHEM_SHAPE_FINGERPRINT>  (1) 
10062212 137 18201716220107222019
10967382 1 18408884070688028126
11578080 2 17699528581793168073
12011746 2 18335421275093929726
12236239 1 17988923392244911463
12251169 10 18338244777698586304
12553582 1 18118409436580065066
12633257 1 18124038918770391954
13009979 54 17987241028054393938
13140716 1 18338526239600146794
13583140 156 17458623475185843048
14178342 30 18055915394390103322
14251757 17 17825643605112704917
14787075 74 17631443643593726256
14790565 3 18263938777441362548
15209294 21 18059849559322766688
15375462 478 18202282502628243495
15442244 35 18339928086992645682
16945 1 18260271824177769508
17349148 13 18409441513976294329
17492 89 18271813371881081535
17834072 14 18188198823633124015
192875 21 18340197518643766139
19591789 44 18267024951919203582
200 152 18272360980273865087
20600515 1 16008758991301087468
20645477 70 18259979392417817846
20739085 24 18264777571536707830
21267235 1 18340779211813569463
21501502 16 18341337703622547025
23388829 49 18272087192982600541
23402539 116 17917425458146734957
23419403 2 17696708321292610393
23557571 272 16271933705042294601
23559900 14 18409722950541230314
23598288 3 17774715364901811271
2748010 2 18262249926973819822
312423 11 18272384052384537286
3286 77 17774703295569189538
474 4 18410014338059574577
5104073 3 18341614763372910707
7471813 234 17916562311517528253
7832392 63 18054519001811726785
9709674 26 18411146813677840123

>  <PUBCHEM_SHAPE_MULTIPOLES>  (1) 
403.09
7.99
3
1.26
1.45
0.14
0.05
0.61
0.42
-2.02
0.1
1.22
-0.36
-0.83

>  <PUBCHEM_SHAPE_SELFOVERLAP>  (1) 
766.216

>  <PUBCHEM_SHAPE_VOLUME>  (1) 
253.9

>  <PUBCHEM_COORDINATE_TYPE>  (1) 
2
5
10

$$$$
