15053
     RDKit          3D

 12 13  0  0  1  0  0  0  0  0999 V2000
    0.6834   -1.1558   -0.1048 O   0  0  0  0  0  0  0  0  0  0  0  0
    0.2211    1.6865    0.0037 O   0  0  0  0  0  0  0  0  0  0  0  0
    4.1385    0.0768    0.2598 N   0  0  0  0  0  0  0  0  0  0  0  0
    1.6997   -0.2153    0.2693 C   0  0  0  0  0  0  0  0  0  0  0  0
    1.4559    1.1122   -0.4362 C   0  0  0  0  0  0  0  0  0  0  0  0
    3.0459   -0.8094   -0.1183 C   0  0  0  0  0  0  0  0  0  0  0  0
   -0.5715   -0.6092   -0.0472 C   0  0  0  0  0  0  0  0  0  0  0  0
   -0.7951    0.7679    0.0164 C   0  0  0  0  0  0  0  0  0  0  0  0
   -1.6512   -1.4926   -0.0649 C   0  0  0  0  0  0  0  0  0  0  0  0
   -2.0971    1.2608    0.1070 C   0  0  0  0  0  0  0  0  0  0  0  0
   -2.9534   -0.9982    0.0120 C   0  0  0  0  0  0  0  0  0  0  0  0
   -3.1759    0.3762    0.1032 C   0  0  0  0  0  0  0  0  0  0  0  0
  1  4  1  0
  1  7  1  0
  2  5  1  0
  2  8  1  0
  3  6  1  0
  4  5  1  0
  4  6  1  0
  7  8  2  0
  7  9  1  0
  8 10  1  0
  9 11  2  0
 10 12  2  0
 11 12  1  0
M  END
>  <PUBCHEM_COMPOUND_CID>  (1) 
15053

>  <PUBCHEM_CONFORMER_RMSD>  (1) 
0.4

>  <PUBCHEM_CONFORMER_DIVERSEORDER>  (1) 
1
7
5
4
2
3
8
6

>  <PUBCHEM_MMFF94_PARTIAL_CHARGES>  (1) 
18
1 -0.36
10 -0.15
11 -0.15
12 -0.15
18 0.15
19 0.15
2 -0.36
20 0.36
21 0.36
22 0.15
23 0.15
3 -0.99
4 0.28
5 0.28
6 0.27
7 0.08
8 0.08
9 -0.15

>  <PUBCHEM_EFFECTIVE_ROTOR_COUNT>  (1) 
1.8

>  <PUBCHEM_PHARMACOPHORE_FEATURES>  (1) 
6
1 1 acceptor
1 2 acceptor
1 3 cation
1 3 donor
6 1 2 4 5 7 8 rings
6 7 8 9 10 11 12 rings

>  <PUBCHEM_HEAVY_ATOM_COUNT>  (1) 
12

>  <PUBCHEM_ATOM_DEF_STEREO_COUNT>  (1) 
0

>  <PUBCHEM_ATOM_UDEF_STEREO_COUNT>  (1) 
1

>  <PUBCHEM_BOND_DEF_STEREO_COUNT>  (1) 
0

>  <PUBCHEM_BOND_UDEF_STEREO_COUNT>  (1) 
0

>  <PUBCHEM_ISOTOPIC_ATOM_COUNT>  (1) 
0

>  <PUBCHEM_COMPONENT_COUNT>  (1) 
1

>  <PUBCHEM_CACTVS_TAUTO_COUNT>  (1) 
1

>  <PUBCHEM_CONFORMER_ID>  (1) 
00003ACD00000001

>  <PUBCHEM_MMFF94_ENERGY>  (1) 
32.0447

>  <PUBCHEM_FEATURE_SELFOVERLAP>  (1) 
30.488

>  <PUBCHEM_SHAPE_FINGERPRINT>  (1) 
11132069 177 18411133619669727352
12032990 46 18411144627475994462
12932764 1 17167852075959202517
13024252 1 15791452608714912675
14128692 85 18410014372429920845
14144814 61 18408885113932609810
14325111 11 18411700954753115792
14993402 34 18409445869094263991
15536298 74 18341897454458517356
16945 1 18410862040318772157
193761 8 17834114529986277262
20201158 50 18411981347298081471
20871998 184 18202283610693142615
21501502 16 18266182905767554485
21501925 9 18338228374996650826
23402539 116 18202273702746597877
23402655 69 18196073462463257997
23463225 33 18335984194676540190
23552423 10 18188772889120156317
23559900 14 18270679767324460526
2748010 2 18266456692810756125
369184 2 15841831140361735423
5084963 1 18343021107711965707
528886 8 18411412891196437363
6333449 129 18342734096311446223
7364860 26 18197498643558513880
75552 356 18412545400915426171
8809292 202 18115312305471580627

>  <PUBCHEM_SHAPE_MULTIPOLES>  (1) 
230.23
5.46
1.56
0.63
3.13
0.13
-0.01
-0.67
0.34
-0.47
-0.06
0.02
0.01
-0.09

>  <PUBCHEM_SHAPE_SELFOVERLAP>  (1) 
489.867

>  <PUBCHEM_SHAPE_VOLUME>  (1) 
127.8

>  <PUBCHEM_COORDINATE_TYPE>  (1) 
2
5
10

$$$$
