1505
     RDKit          3D

 19 21  0  0  0  0  0  0  0  0999 V2000
    2.9946   -2.0342    0.6607 O   0  0  0  0  0  0  0  0  0  0  0  0
    0.1970    0.9489    0.1475 N   0  0  0  0  0  0  0  0  0  0  0  0
    0.5357   -1.1930   -0.3400 N   0  0  0  0  0  0  0  0  0  0  0  0
   -4.9807    1.8446    0.4428 N   0  0  0  0  0  0  0  0  0  0  0  0
   -5.8076   -0.2690   -0.0209 N   0  0  0  0  0  0  0  0  0  0  0  0
   -1.0532    0.3945    0.0456 C   0  0  0  0  0  0  0  0  0  0  0  0
   -0.8150   -0.9427   -0.2593 C   0  0  0  0  0  0  0  0  0  0  0  0
    1.1121   -0.0384   -0.0909 C   0  0  0  0  0  0  0  0  0  0  0  0
   -2.3329    0.9317    0.1897 C   0  0  0  0  0  0  0  0  0  0  0  0
    2.5325    0.2127   -0.0592 C   0  0  0  0  0  0  0  0  0  0  0  0
   -3.4075    0.0541    0.0119 C   0  0  0  0  0  0  0  0  0  0  0  0
   -1.9063   -1.8102   -0.4344 C   0  0  0  0  0  0  0  0  0  0  0  0
   -3.2002   -1.2928   -0.2946 C   0  0  0  0  0  0  0  0  0  0  0  0
    3.4298   -0.7890    0.3146 C   0  0  0  0  0  0  0  0  0  0  0  0
    3.0088    1.4776   -0.4080 C   0  0  0  0  0  0  0  0  0  0  0  0
   -4.7592    0.5535    0.1467 C   0  0  0  0  0  0  0  0  0  0  0  0
    4.7995   -0.5265    0.3396 C   0  0  0  0  0  0  0  0  0  0  0  0
    4.3786    1.7401   -0.3829 C   0  0  0  0  0  0  0  0  0  0  0  0
    5.2740    0.7381   -0.0091 C   0  0  0  0  0  0  0  0  0  0  0  0
  1 14  1  0
  2  6  1  0
  2  8  1  0
  3  7  1  0
  3  8  2  0
  4 16  2  0
  5 16  1  0
  6  7  2  0
  6  9  1  0
  7 12  1  0
  8 10  1  0
  9 11  2  0
 10 14  2  0
 10 15  1  0
 11 13  1  0
 11 16  1  0
 12 13  2  0
 14 17  1  0
 15 18  2  0
 17 19  2  0
 18 19  1  0
M  CHG  1   4   1
M  END
>  <PUBCHEM_COMPOUND_CID>  (1) 
1505

>  <PUBCHEM_CONFORMER_RMSD>  (1) 
0.6

>  <PUBCHEM_CONFORMER_DIVERSEORDER>  (1) 
1
4
3
2
5

>  <PUBCHEM_MMFF94_PARTIAL_CHARGES>  (1) 
32
1 -0.53
10 0.05
11 -0.02
12 -0.15
13 -0.15
14 0.08
15 -0.15
16 0.73
17 -0.15
18 -0.15
19 -0.15
2 0.03
20 0.27
21 0.15
22 0.15
23 0.15
24 0.15
25 0.15
26 0.15
27 0.15
28 0.45
29 0.45
3 -0.57
30 0.45
31 0.45
32 0.45
4 -0.75
5 -0.75
6 -0.15
7 0.23
8 0.13
9 -0.15

>  <PUBCHEM_EFFECTIVE_ROTOR_COUNT>  (1) 
2

>  <PUBCHEM_PHARMACOPHORE_FEATURES>  (1) 
9
1 1 donor
1 2 donor
1 4 donor
1 5 donor
3 2 3 8 cation
3 4 5 16 cation
5 2 3 6 7 8 rings
6 10 14 15 17 18 19 rings
6 6 7 9 11 12 13 rings

>  <PUBCHEM_HEAVY_ATOM_COUNT>  (1) 
19

>  <PUBCHEM_ATOM_DEF_STEREO_COUNT>  (1) 
0

>  <PUBCHEM_ATOM_UDEF_STEREO_COUNT>  (1) 
0

>  <PUBCHEM_BOND_DEF_STEREO_COUNT>  (1) 
0

>  <PUBCHEM_BOND_UDEF_STEREO_COUNT>  (1) 
0

>  <PUBCHEM_ISOTOPIC_ATOM_COUNT>  (1) 
0

>  <PUBCHEM_COMPONENT_COUNT>  (1) 
1

>  <PUBCHEM_CACTVS_TAUTO_COUNT>  (1) 
26

>  <PUBCHEM_CONFORMER_ID>  (1) 
000005E100000001

>  <PUBCHEM_MMFF94_ENERGY>  (1) 
50.7495

>  <PUBCHEM_FEATURE_SELFOVERLAP>  (1) 
45.827

>  <PUBCHEM_SHAPE_FINGERPRINT>  (1) 
10354089 29 18261114080038640584
10366900 7 13758363292982977614
10616163 171 18340487884461995886
11089746 13 18060411439412768408
12107183 9 17761491391792431977
12236239 1 18410573989456974466
12390115 104 17773614740867514833
12403814 3 18114177536683806741
12670546 56 17603860066654475057
12788726 201 17632021844622484232
13167823 11 18410009957230148102
13533116 47 17632015243521681966
13675066 3 17676210160654762861
13760787 19 18411981398974839150
13760787 5 18409721868114402855
13785724 45 17618503181798386010
15196674 1 18411418440209865622
15242433 33 18410856572720000238
17834072 33 18410853291291146071
1813 80 16660648431782146430
18186145 218 17603859027129945098
19050596 39 18335979844032866434
19784866 9 18410572868613130170
200 152 18272367598343668746
20645477 70 18410575050731082846
21033648 29 17458890613783837469
21267235 1 18409736136402039138
212847 35 18343301465981667032
21421861 104 17968929778722431922
23402539 116 18131062732345825621
23402655 69 18411699919998333004
23559900 14 18059582334768313734
26918003 58 17676489462151272616
300161 21 18341324561180740308
3004659 81 18411703158656998582
335352 9 18410293606219842798
34797466 226 16988288689081555620
34934 24 18341327877138060006
3545911 37 18410576197471117276
4073 2 17895762910580415226
4214541 1 18411136948148140365
4340502 62 17385730184018830475
474 4 17895479240727592828
5104073 3 18335699485573619234
542803 24 18201720660576021749
543358 83 18410294696893420914
59755656 215 18272098162930695574
633830 44 18334575776306091654
77779 3 18409730690103770598
8272917 22 18409731725444492854
9709674 26 18410580612782582182

>  <PUBCHEM_SHAPE_MULTIPOLES>  (1) 
365.22
12.13
1.79
0.68
2.67
0.14
-0.01
-3.24
0.76
-0.16
0
-0.11
0.03
-0.92

>  <PUBCHEM_SHAPE_SELFOVERLAP>  (1) 
818.711

>  <PUBCHEM_SHAPE_VOLUME>  (1) 
194.8

>  <PUBCHEM_COORDINATE_TYPE>  (1) 
2
5
10

$$$$
