15056
     RDKit          3D

 21 23  0  0  1  0  0  0  0  0999 V2000
   -5.2068   -0.5721    0.7758 N   0  0  0  0  0  0  0  0  0  0  0  0
   -1.6504    0.5343   -0.3068 C   0  0  0  0  0  0  0  0  0  0  0  0
   -0.5367   -0.3873    0.3199 C   0  0  0  0  0  0  0  0  0  0  0  0
   -3.1040   -0.0549   -0.3837 C   0  0  0  0  0  0  0  0  0  0  0  0
   -0.6257   -1.7780   -0.3664 C   0  0  0  0  0  0  0  0  0  0  0  0
   -3.0518   -1.4781   -0.9889 C   0  0  0  0  0  0  0  0  0  0  0  0
   -1.5697    1.9421    0.3055 C   0  0  0  0  0  0  0  0  0  0  0  0
   -2.0243   -2.3888   -0.3337 C   0  0  0  0  0  0  0  0  0  0  0  0
    0.8417    0.2806    0.0952 C   0  0  0  0  0  0  0  0  0  0  0  0
   -3.8566   -0.0760    0.9599 C   0  0  0  0  0  0  0  0  0  0  0  0
   -0.2401    2.6013   -0.0507 C   0  0  0  0  0  0  0  0  0  0  0  0
   -0.6344   -0.5787    1.8534 C   0  0  0  0  0  0  0  0  0  0  0  0
   -3.9641    0.8050   -1.3492 C   0  0  0  0  0  0  0  0  0  0  0  0
    0.9554    1.6830   -0.0287 C   0  0  0  0  0  0  0  0  0  0  0  0
    2.0263   -0.4832    0.0834 C   0  0  0  0  0  0  0  0  0  0  0  0
    2.2236    2.2707   -0.1915 C   0  0  0  0  0  0  0  0  0  0  0  0
    3.2779    0.1150   -0.0741 C   0  0  0  0  0  0  0  0  0  0  0  0
    3.3770    1.4923   -0.2140 C   0  0  0  0  0  0  0  0  0  0  0  0
    4.5101   -0.7262   -0.0854 C   0  0  0  0  0  0  0  0  0  0  0  0
    4.5327   -1.7209   -1.2611 C   0  0  0  0  0  0  0  0  0  0  0  0
    4.7200   -1.4800    1.2413 C   0  0  0  0  0  0  0  0  0  0  0  0
  1 10  1  0
  2  3  1  0
  2  4  1  0
  2  7  1  0
  3  5  1  0
  3  9  1  0
  3 12  1  0
  4  6  1  0
  4 10  1  0
  4 13  1  0
  5  8  1  0
  6  8  1  0
  7 11  1  0
  9 14  2  0
  9 15  1  0
 11 14  1  0
 14 16  1  0
 15 17  2  0
 16 18  2  0
 17 18  1  0
 17 19  1  0
 19 20  1  0
 19 21  1  0
M  END
>  <PUBCHEM_COMPOUND_CID>  (1) 
15056

>  <PUBCHEM_CONFORMER_RMSD>  (1) 
0.6

>  <PUBCHEM_CONFORMER_DIVERSEORDER>  (1) 
1
3
2

>  <PUBCHEM_MMFF94_PARTIAL_CHARGES>  (1) 
16
1 -0.99
10 0.27
11 0.14
14 -0.14
15 -0.15
16 -0.15
17 -0.14
18 -0.15
19 0.14
3 0.14
41 0.15
42 0.15
43 0.36
44 0.36
45 0.15
9 -0.14

>  <PUBCHEM_EFFECTIVE_ROTOR_COUNT>  (1) 
3.2

>  <PUBCHEM_PHARMACOPHORE_FEATURES>  (1) 
6
1 1 cation
1 1 donor
3 19 20 21 hydrophobe
6 2 3 4 5 6 8 rings
6 2 3 7 9 11 14 rings
6 9 14 15 16 17 18 rings

>  <PUBCHEM_HEAVY_ATOM_COUNT>  (1) 
21

>  <PUBCHEM_ATOM_DEF_STEREO_COUNT>  (1) 
3

>  <PUBCHEM_ATOM_UDEF_STEREO_COUNT>  (1) 
0

>  <PUBCHEM_BOND_DEF_STEREO_COUNT>  (1) 
0

>  <PUBCHEM_BOND_UDEF_STEREO_COUNT>  (1) 
0

>  <PUBCHEM_ISOTOPIC_ATOM_COUNT>  (1) 
0

>  <PUBCHEM_COMPONENT_COUNT>  (1) 
1

>  <PUBCHEM_CACTVS_TAUTO_COUNT>  (1) 
1

>  <PUBCHEM_CONFORMER_ID>  (1) 
00003AD000000001

>  <PUBCHEM_MMFF94_ENERGY>  (1) 
73.6614

>  <PUBCHEM_FEATURE_SELFOVERLAP>  (1) 
30.482

>  <PUBCHEM_SHAPE_FINGERPRINT>  (1) 
10062212 137 18336820914224275177
10863032 1 18127691741052958061
10906281 52 18044381754308418912
10967382 1 18411418453121089332
11578080 2 17272282728535397209
116883 192 18341897351278848420
12236239 1 17847064394061627457
12422481 6 18056499256818753481
12553582 1 18410572860350392334
12592029 89 18409735027889436291
12715332 25 18343582962533388791
12788726 201 18341901753536294552
13140716 1 18341048635133166194
13533116 47 16630252394478695054
13675066 3 18187081801555791225
13862211 1 18411131424968235047
14289901 80 15195297455447837992
14790565 3 18340495461027009433
15099037 51 18410569565930836199
15196674 1 18410854399508785565
15442244 35 18411981381779119604
15536298 74 18341046410725169992
15848702 151 18130794421106195582
16752209 62 18263913354796116496
16945 1 18411411813233583433
17349148 13 17846785095910837766
17492 89 18269273628859440414
1813 80 18040725744616384452
18186145 218 17676758863948501199
19141452 34 18131634491113790079
19591789 44 18336828701338073635
19862831 5 17968089815862198292
200 152 18201716245318109832
20028762 73 18201718492145961495
20281475 54 18272369827447636661
20645477 70 18410860984057530294
20775438 99 16833417099600934039
21267235 1 18410583876519383458
21501502 16 18196654214084890757
21634736 98 18335140916792911172
221490 88 18192152805149414338
23184049 59 18412271657080392913
2334 1 18122903397878355886
23366157 5 18043243750935653796
23402539 116 18271515421076715069
23493267 7 17749098955777539417
23557571 272 17917435264132162324
23559900 14 18272081743239164944
2748010 2 18194680590676174388
296302 2 12463571785595142713
3004659 81 18334295362396961966
335352 9 18411698751461429621
34797466 226 14924237027037243703
34934 24 18267864063716060968
5104073 3 18341611580854898291
5281201 14 17821728364027532564
559249 180 17972027051470008378
633830 44 17676478480083537341
8863177 126 17896897627775743315
9709674 26 18337110193457346886
9981440 41 17258206896435828864

>  <PUBCHEM_SHAPE_MULTIPOLES>  (1) 
427.19
9.11
2.51
1.17
2.52
0.64
0.21
-3.55
-0.34
0.63
-0.34
-0.23
-0.36
-0.03

>  <PUBCHEM_SHAPE_SELFOVERLAP>  (1) 
899.106

>  <PUBCHEM_SHAPE_VOLUME>  (1) 
239

>  <PUBCHEM_COORDINATE_TYPE>  (1) 
2
5
10

$$$$
