1506
     RDKit          3D

 19 21  0  0  0  0  0  0  0  0999 V2000
    2.9952   -2.0358    0.6596 O   0  0  0  0  0  0  0  0  0  0  0  0
    0.2008    0.9502    0.1477 N   0  0  0  0  0  0  0  0  0  0  0  0
    0.5378   -1.1915   -0.3418 N   0  0  0  0  0  0  0  0  0  0  0  0
   -5.8649   -0.2750   -0.0167 N   0  0  0  0  0  0  0  0  0  0  0  0
   -4.9668    1.8340    0.4377 N   0  0  0  0  0  0  0  0  0  0  0  0
   -1.0498    0.3969    0.0456 C   0  0  0  0  0  0  0  0  0  0  0  0
   -0.8127   -0.9402   -0.2605 C   0  0  0  0  0  0  0  0  0  0  0  0
    1.1151   -0.0376   -0.0918 C   0  0  0  0  0  0  0  0  0  0  0  0
    2.5359    0.2121   -0.0593 C   0  0  0  0  0  0  0  0  0  0  0  0
   -2.3290    0.9349    0.1904 C   0  0  0  0  0  0  0  0  0  0  0  0
   -3.4044    0.0584    0.0121 C   0  0  0  0  0  0  0  0  0  0  0  0
   -1.9047   -1.8067   -0.4362 C   0  0  0  0  0  0  0  0  0  0  0  0
   -3.1982   -1.2885   -0.2956 C   0  0  0  0  0  0  0  0  0  0  0  0
    3.4319   -0.7908    0.3143 C   0  0  0  0  0  0  0  0  0  0  0  0
    3.0136    1.4766   -0.4072 C   0  0  0  0  0  0  0  0  0  0  0  0
   -4.7630    0.5608    0.1511 C   0  0  0  0  0  0  0  0  0  0  0  0
    4.8019   -0.5298    0.3400 C   0  0  0  0  0  0  0  0  0  0  0  0
    4.3836    1.7376   -0.3814 C   0  0  0  0  0  0  0  0  0  0  0  0
    5.2778    0.7344   -0.0078 C   0  0  0  0  0  0  0  0  0  0  0  0
  1 14  1  0
  2  6  1  0
  2  8  1  0
  3  7  1  0
  3  8  2  0
  4 16  1  0
  5 16  2  0
  6  7  2  0
  6 10  1  0
  7 12  1  0
  8  9  1  0
  9 14  2  0
  9 15  1  0
 10 11  2  0
 11 13  1  0
 11 16  1  0
 12 13  2  0
 14 17  1  0
 15 18  2  0
 17 19  2  0
 18 19  1  0
M  END
>  <PUBCHEM_COMPOUND_CID>  (1) 
1506

>  <PUBCHEM_CONFORMER_RMSD>  (1) 
0.6

>  <PUBCHEM_CONFORMER_DIVERSEORDER>  (1) 
1
3
2
4

>  <PUBCHEM_MMFF94_PARTIAL_CHARGES>  (1) 
31
1 -0.53
10 -0.15
11 0.09
12 -0.15
13 -0.15
14 0.08
15 -0.15
16 0.41
17 -0.15
18 -0.15
19 -0.15
2 0.03
20 0.27
21 0.15
22 0.15
23 0.15
24 0.15
25 0.15
26 0.15
27 0.15
28 0.45
29 0.4
3 -0.57
30 0.4
31 0.4
4 -0.85
5 -0.85
6 -0.15
7 0.23
8 0.13
9 0.05

>  <PUBCHEM_EFFECTIVE_ROTOR_COUNT>  (1) 
2

>  <PUBCHEM_PHARMACOPHORE_FEATURES>  (1) 
9
1 1 donor
1 2 donor
1 4 donor
1 5 donor
3 2 3 8 cation
3 4 5 16 cation
5 2 3 6 7 8 rings
6 6 7 10 11 12 13 rings
6 9 14 15 17 18 19 rings

>  <PUBCHEM_HEAVY_ATOM_COUNT>  (1) 
19

>  <PUBCHEM_ATOM_DEF_STEREO_COUNT>  (1) 
0

>  <PUBCHEM_ATOM_UDEF_STEREO_COUNT>  (1) 
0

>  <PUBCHEM_BOND_DEF_STEREO_COUNT>  (1) 
0

>  <PUBCHEM_BOND_UDEF_STEREO_COUNT>  (1) 
0

>  <PUBCHEM_ISOTOPIC_ATOM_COUNT>  (1) 
0

>  <PUBCHEM_COMPONENT_COUNT>  (1) 
1

>  <PUBCHEM_CACTVS_TAUTO_COUNT>  (1) 
15

>  <PUBCHEM_CONFORMER_ID>  (1) 
000005E200000001

>  <PUBCHEM_MMFF94_ENERGY>  (1) 
51.2999

>  <PUBCHEM_FEATURE_SELFOVERLAP>  (1) 
45.823

>  <PUBCHEM_SHAPE_FINGERPRINT>  (1) 
10354089 29 18261114080043921832
10366900 7 13758081818011535222
10616163 171 18340487884472538902
11089746 13 18060411439418049664
12107183 9 17761491391792431977
12236239 1 18410573985162007178
12390115 104 17773614740872796081
12403814 3 18186235126421499125
12670546 56 17604142641126989249
12788726 201 17632021844627752504
13167823 11 18410009957230148106
13533116 47 17632015243521681974
13675066 3 17676210160654769357
13760787 19 18411981394679865358
13760787 5 18409721868114396359
13785724 45 17618503181787830018
15196674 1 18411418440209859126
15242433 33 18411138047675611894
17834072 33 18410853291291139583
1813 80 16732706025814799614
18186145 218 17603859027124670346
19050596 39 18335979844032866434
19784866 9 18410572868613123674
200 152 18272367598343668746
20645477 70 18410575050731082838
21033648 29 17459172088760554613
21267235 1 18409736136402039138
212847 35 18343301465981673528
21421861 104 17968929778717157178
23402539 116 18131062732345825621
23402655 69 18411699920003607756
23559900 14 18059582334773581990
26918003 58 17676489462146004368
300161 21 18341324561186021548
3004659 81 18411421683669725430
335352 9 18410293606235673542
34797466 226 16988288689065737852
34934 24 18341327877138053510
3545911 37 18410576197471110780
4073 2 17967819405122500650
4214541 1 18411136948100706565
4340502 62 17385730188308516523
474 4 17895479240732867580
5104073 3 18335416911111622090
542803 24 18202002135552732397
543358 83 18410294696898695666
59755656 215 18272098162925414326
633830 44 18334856151792286542
77779 3 18409730690114320102
8272917 22 18409731725444486366
9709674 26 18410298038304793238

>  <PUBCHEM_SHAPE_MULTIPOLES>  (1) 
365.22
12.16
1.78
0.68
2.85
0.14
-0.01
-3.22
0.76
-0.17
0
-0.11
0.03
-0.91

>  <PUBCHEM_SHAPE_SELFOVERLAP>  (1) 
817.584

>  <PUBCHEM_SHAPE_VOLUME>  (1) 
195.1

>  <PUBCHEM_COORDINATE_TYPE>  (1) 
2
5
10

$$$$
