15061
     RDKit          3D

 14 13  0  0  0  0  0  0  0  0999 V2000
    3.6645    1.5399    0.2536 O   0  0  0  0  0  0  0  0  0  0  0  0
   -3.6782    1.5581   -0.1814 O   0  0  0  0  0  0  0  0  0  0  0  0
    5.1953   -0.9245   -0.2111 N   0  0  0  0  0  0  0  0  0  0  0  0
   -5.1595   -0.9554    0.2040 N   0  0  0  0  0  0  0  0  0  0  0  0
    6.2227   -0.9940   -0.5363 N   0  0  0  0  0  0  0  0  0  0  0  0
   -6.1737   -1.0599    0.5602 N   0  0  0  0  0  0  0  0  0  0  0  0
    0.6974    0.4227   -0.2361 C   0  0  0  0  0  0  0  0  0  0  0  0
   -0.7586    0.4796    0.2424 C   0  0  0  0  0  0  0  0  0  0  0  0
    1.7603    0.3665    0.8780 C   0  0  0  0  0  0  0  0  0  0  0  0
   -1.7775    0.4400   -0.9087 C   0  0  0  0  0  0  0  0  0  0  0  0
    3.2140    0.3691    0.3973 C   0  0  0  0  0  0  0  0  0  0  0  0
   -3.2252    0.4030   -0.4148 C   0  0  0  0  0  0  0  0  0  0  0  0
    3.8066   -0.8306    0.2295 C   0  0  0  0  0  0  0  0  0  0  0  0
   -3.7882   -0.8144   -0.2765 C   0  0  0  0  0  0  0  0  0  0  0  0
  1 11  1  0
  2 12  1  0
  3  5  3  0
  3 13  1  0
  4  6  3  0
  4 14  1  0
  7  8  1  0
  7  9  1  0
  8 10  1  0
  9 11  1  0
 10 12  1  0
 11 13  2  0
 12 14  2  0
M  CHG  4   1  -1   2  -1   3   1   4   1
M  END
>  <PUBCHEM_COMPOUND_CID>  (1) 
15061

>  <PUBCHEM_CONFORMER_RMSD>  (1) 
0.6

>  <PUBCHEM_CONFORMER_DIVERSEORDER>  (1) 
1
92
111
56
117
4
108
123
19
49
120
32
95
55
76
21
18
67
22
97
91
2
84
106
27
77
28
65
110
42
96
15
94
109
116
83
52
89
113
44
85
88
73
10
129
68
8
37
16
107
61
24
29
45
53
31
87
82
70
17
81
124
127
99
103
102
115
33
78
80
122
66
35
119
58
105
125
69
128
51
9
118
112
36
14
126
101
93
59
71
26
48
104
39
57
114
40
62
7
3
46
50
25
90
75
121
100
38
54
6
30
43
63
60
79
41
74
23
86
64
20
11
34
13
72
98
12
5
47

>  <PUBCHEM_MMFF94_PARTIAL_CHARGES>  (1) 
14
1 -0.85
10 0.14
11 -0.29
12 -0.29
13 -0.02
14 -0.02
2 -0.85
23 0.15
24 0.15
3 1.36
4 1.36
5 -0.49
6 -0.49
9 0.14

>  <PUBCHEM_EFFECTIVE_ROTOR_COUNT>  (1) 
5

>  <PUBCHEM_PHARMACOPHORE_FEATURES>  (1) 
1
4 7 8 9 10 hydrophobe

>  <PUBCHEM_HEAVY_ATOM_COUNT>  (1) 
14

>  <PUBCHEM_ATOM_DEF_STEREO_COUNT>  (1) 
0

>  <PUBCHEM_ATOM_UDEF_STEREO_COUNT>  (1) 
0

>  <PUBCHEM_BOND_DEF_STEREO_COUNT>  (1) 
0

>  <PUBCHEM_BOND_UDEF_STEREO_COUNT>  (1) 
2

>  <PUBCHEM_ISOTOPIC_ATOM_COUNT>  (1) 
0

>  <PUBCHEM_COMPONENT_COUNT>  (1) 
1

>  <PUBCHEM_CACTVS_TAUTO_COUNT>  (1) 
1

>  <PUBCHEM_CONFORMER_ID>  (1) 
00003AD500000001

>  <PUBCHEM_MMFF94_ENERGY>  (1) 
18.1768

>  <PUBCHEM_FEATURE_SELFOVERLAP>  (1) 
5.074

>  <PUBCHEM_SHAPE_FINGERPRINT>  (1) 
10366900 7 16153426146914521144
10680689 15 17748826285293972381
11128504 68 17022910055619359438
11401426 45 10447928377863749523
12596602 18 15697990877153283275
12714333 28 11891332058262128087
13288520 33 18333732412332718645
13760787 5 17489297616059920276
13955234 65 18130497643994621944
14123238 8 15574712495322188161
1420 363 18114181955851622347
14251718 22 18113620075782816614
14251764 18 15697991972385105436
14350574 20 18408604760374691574
14455015 7 18343584031774471694
15501527 24 15864072070079234246
17834072 33 18335703862430201316
17844677 252 18411986857599035249
19433438 28 18341889688519316888
20621476 21 18041574636429243987
20645477 70 18413389826610611566
20767249 213 8935000369570297859
21150785 3 16588030134101039742
2297311 6 18334297552556145109
23402539 116 17676483908811345452
23402655 69 12324238356202919600
23590187 90 11314312762815964838
300161 21 9295289430291338037
42 15 18202282515608090797
465052 167 18272371949879113822

>  <PUBCHEM_SHAPE_MULTIPOLES>  (1) 
256.45
14.62
1.28
0.8
0.57
0.14
-0.01
-6.55
0
-0.1
0.01
-0.02
0.01
0.8

>  <PUBCHEM_SHAPE_SELFOVERLAP>  (1) 
490.376

>  <PUBCHEM_SHAPE_VOLUME>  (1) 
154.5

>  <PUBCHEM_COORDINATE_TYPE>  (1) 
2
5
10

$$$$
