15060
     RDKit          3D

 19 20  0  0  1  0  0  0  0  0999 V2000
    1.9077   -1.7886   -1.3208 O   0  0  0  0  0  0  0  0  0  0  0  0
    0.0516   -2.1551    0.6920 N   0  0  0  0  0  0  0  0  0  0  0  0
    1.0586   -1.2084    0.7593 N   0  0  0  0  0  0  0  0  0  0  0  0
    2.9629    0.6006    1.0001 N   0  0  0  0  0  0  0  0  0  0  0  0
   -1.2540   -1.5008    0.8173 C   0  0  0  0  0  0  0  0  0  0  0  0
   -1.4311   -0.4827   -0.3241 C   0  0  0  0  0  0  0  0  0  0  0  0
   -2.7345    0.2767   -0.2602 C   0  0  0  0  0  0  0  0  0  0  0  0
   -2.3359   -2.5809    0.8117 C   0  0  0  0  0  0  0  0  0  0  0  0
   -3.8492   -0.2323   -0.9075 C   0  0  0  0  0  0  0  0  0  0  0  0
   -2.7925    1.4683    0.4448 C   0  0  0  0  0  0  0  0  0  0  0  0
   -5.0535    0.4690   -0.8485 C   0  0  0  0  0  0  0  0  0  0  0  0
   -3.9968    2.1695    0.5038 C   0  0  0  0  0  0  0  0  0  0  0  0
   -5.1274    1.6698   -0.1427 C   0  0  0  0  0  0  0  0  0  0  0  0
    1.9401   -1.1024   -0.3022 C   0  0  0  0  0  0  0  0  0  0  0  0
    3.0071   -0.0789   -0.1514 C   0  0  0  0  0  0  0  0  0  0  0  0
    3.9177    0.0852   -1.1604 C   0  0  0  0  0  0  0  0  0  0  0  0
    4.8945    1.0561   -0.9686 C   0  0  0  0  0  0  0  0  0  0  0  0
    3.9279    1.5354    1.1511 C   0  0  0  0  0  0  0  0  0  0  0  0
    4.9067    1.7995    0.2064 C   0  0  0  0  0  0  0  0  0  0  0  0
  1 14  2  0
  2  3  1  0
  2  5  1  0
  3 14  1  0
  4 15  2  0
  4 18  1  0
  5  6  1  0
  5  8  1  0
  6  7  1  0
  7  9  2  0
  7 10  1  0
  9 11  1  0
 10 12  2  0
 11 13  2  0
 12 13  1  0
 14 15  1  0
 15 16  1  0
 16 17  2  0
 17 19  1  0
 18 19  2  0
M  END
>  <PUBCHEM_COMPOUND_CID>  (1) 
15060

>  <PUBCHEM_CONFORMER_RMSD>  (1) 
0.8

>  <PUBCHEM_CONFORMER_DIVERSEORDER>  (1) 
1
69
46
57
64
79
35
77
51
65
72
55
17
83
53
33
19
39
73
95
75
28
76
21
38
67
85
80
48
37
44
94
34
74
82
90
11
91
92
14
84
45
20
89
15
66
23
47
97
2
78
70
58
3
87
29
61
26
81
54
13
32
31
36
7
71
5
10
60
40
42
41
86
12
27
30
96
43
56
25
22
24
88
4
99
49
68
8
59
6
18
98
9
63
93
16
62
52
50

>  <PUBCHEM_MMFF94_PARTIAL_CHARGES>  (1) 
29
1 -0.57
10 -0.15
11 -0.15
12 -0.15
13 -0.15
14 0.54
15 0.4
16 -0.15
17 -0.15
18 0.16
19 -0.15
2 -0.64
26 0.36
27 0.15
28 0.15
29 0.37
3 -0.42
30 0.15
31 0.15
32 0.15
33 0.15
34 0.15
35 0.15
36 0.15
4 -0.62
5 0.27
6 0.14
7 -0.14
9 -0.15

>  <PUBCHEM_EFFECTIVE_ROTOR_COUNT>  (1) 
6

>  <PUBCHEM_PHARMACOPHORE_FEATURES>  (1) 
6
1 1 acceptor
1 2 donor
1 3 donor
1 4 acceptor
6 4 15 16 17 18 19 rings
6 7 9 10 11 12 13 rings

>  <PUBCHEM_HEAVY_ATOM_COUNT>  (1) 
19

>  <PUBCHEM_ATOM_DEF_STEREO_COUNT>  (1) 
0

>  <PUBCHEM_ATOM_UDEF_STEREO_COUNT>  (1) 
1

>  <PUBCHEM_BOND_DEF_STEREO_COUNT>  (1) 
0

>  <PUBCHEM_BOND_UDEF_STEREO_COUNT>  (1) 
0

>  <PUBCHEM_ISOTOPIC_ATOM_COUNT>  (1) 
0

>  <PUBCHEM_COMPONENT_COUNT>  (1) 
1

>  <PUBCHEM_CACTVS_TAUTO_COUNT>  (1) 
2

>  <PUBCHEM_CONFORMER_ID>  (1) 
00003AD400000001

>  <PUBCHEM_MMFF94_ENERGY>  (1) 
40.4391

>  <PUBCHEM_FEATURE_SELFOVERLAP>  (1) 
31.943

>  <PUBCHEM_SHAPE_FINGERPRINT>  (1) 
10498660 4 18410575097611583344
10670039 82 18261683579975964164
10968037 57 9079114475414615421
11405975 8 18333449829181236026
11543360 7 17560794429529997599
12403259 415 18270129040599965874
12596602 18 16153433873771754704
12633257 1 17821722875365374252
12730499 353 18343311361433582823
12892183 10 13912316876448912342
13103583 49 12396571884720270479
1420 369 9943803391539710525
14251751 18 9511467710211011788
14251764 30 12902092121821359664
14251764 38 18194400219733568220
14468879 13 18343305885434689599
14528608 73 18130782365249267717
14739800 52 18339341051163614936
14848178 96 18409449163466347444
15210252 30 18411421722109056568
15342168 16 18187646852164757045
15342816 4 11959737058046388502
15885798 251 9871745801986556547
1741750 31 18334575750172446939
17780758 139 11819260170630938444
17834072 32 18261396701729713700
1798214 55 18333732394604372557
20374829 77 10519989257520075397
204376 136 18040153994343681283
20645477 70 17203619164089753652
221357 26 17704353264305857144
22182937 141 18410019861624959305
23227448 37 18338234976588342165
235170 7 16774082864397438453
23557571 272 18265064693805153663
23559900 14 18340768127052091810
2838139 119 18342450465620193468
328317 168 18335135393164125577
341906 21 18260826059584492520
3472631 163 18187364358758739909
351380 3 11240001161140243020
4028521 119 18343866623321327608
474 4 18333171660975486485
5104073 3 18113337492240678011
5352402 22 11963383034098266392
5924683 9 13984956164142168041
59682541 52 17631738149485051364
6328613 192 18187654630883611524
633830 44 18196651800962279407
7808743 9 18259990404872415244
960060 61 12535336922161363696
9981440 41 18335415798441441899

>  <PUBCHEM_SHAPE_MULTIPOLES>  (1) 
370.2
12.19
2.5
1.16
1.45
0.65
0.07
-8.73
2.07
-1.09
-0.69
0.55
0.1
0.59

>  <PUBCHEM_SHAPE_SELFOVERLAP>  (1) 
779.641

>  <PUBCHEM_SHAPE_VOLUME>  (1) 
206.4

>  <PUBCHEM_COORDINATE_TYPE>  (1) 
2
5
10

$$$$
