1507
     RDKit          3D

 19 21  0  0  0  0  0  0  0  0999 V2000
   -2.8471    2.0177    0.6535 O   0  0  0  0  0  0  0  0  0  0  0  0
   -0.5190    1.0215   -0.3110 N   0  0  0  0  0  0  0  0  0  0  0  0
    5.0935   -1.7565    0.4317 N   0  0  0  0  0  0  0  0  0  0  0  0
    5.8423    0.3796   -0.0605 N   0  0  0  0  0  0  0  0  0  0  0  0
    1.0784   -0.4889    0.0690 C   0  0  0  0  0  0  0  0  0  0  0  0
    0.8458    0.8508   -0.2496 C   0  0  0  0  0  0  0  0  0  0  0  0
   -1.1553   -0.1606   -0.0428 C   0  0  0  0  0  0  0  0  0  0  0  0
   -0.1932   -1.1147    0.1965 C   0  0  0  0  0  0  0  0  0  0  0  0
   -2.5940   -0.2710   -0.0380 C   0  0  0  0  0  0  0  0  0  0  0  0
    2.4091   -0.9349    0.1945 C   0  0  0  0  0  0  0  0  0  0  0  0
    1.8815    1.7704   -0.4499 C   0  0  0  0  0  0  0  0  0  0  0  0
    3.4552   -0.0262   -0.0028 C   0  0  0  0  0  0  0  0  0  0  0  0
    3.1931    1.3051   -0.3201 C   0  0  0  0  0  0  0  0  0  0  0  0
   -3.3957    0.8176    0.3089 C   0  0  0  0  0  0  0  0  0  0  0  0
   -3.1852   -1.4866   -0.3859 C   0  0  0  0  0  0  0  0  0  0  0  0
    4.8239   -0.4767    0.1247 C   0  0  0  0  0  0  0  0  0  0  0  0
   -4.7848    0.6910    0.3081 C   0  0  0  0  0  0  0  0  0  0  0  0
   -4.5743   -1.6133   -0.3867 C   0  0  0  0  0  0  0  0  0  0  0  0
   -5.3742   -0.5246   -0.0397 C   0  0  0  0  0  0  0  0  0  0  0  0
  1 14  1  0
  2  6  1  0
  2  7  1  0
  3 16  2  0
  4 16  1  0
  5  6  2  0
  5  8  1  0
  5 10  1  0
  6 11  1  0
  7  8  2  0
  7  9  1  0
  9 14  2  0
  9 15  1  0
 10 12  2  0
 11 13  2  0
 12 13  1  0
 12 16  1  0
 14 17  1  0
 15 18  2  0
 17 19  2  0
 18 19  1  0
M  CHG  1   3   1
M  END
>  <PUBCHEM_COMPOUND_CID>  (1) 
1507

>  <PUBCHEM_CONFORMER_RMSD>  (1) 
0.6

>  <PUBCHEM_CONFORMER_DIVERSEORDER>  (1) 
1
2

>  <PUBCHEM_MMFF94_PARTIAL_CHARGES>  (1) 
32
1 -0.53
10 -0.15
11 -0.15
12 -0.02
13 -0.15
14 0.08
15 -0.15
16 0.73
17 -0.15
18 -0.15
19 -0.15
2 0.03
20 0.15
21 0.27
22 0.15
23 0.15
24 0.15
25 0.15
26 0.15
27 0.15
28 0.15
29 0.45
3 -0.75
30 0.45
31 0.45
32 0.45
33 0.45
4 -0.75
6 -0.15
7 -0.2
8 -0.15
9 0.05

>  <PUBCHEM_EFFECTIVE_ROTOR_COUNT>  (1) 
2

>  <PUBCHEM_PHARMACOPHORE_FEATURES>  (1) 
9
1 1 donor
1 2 cation
1 2 donor
1 3 donor
1 4 donor
3 3 4 16 cation
5 2 5 6 7 8 rings
6 5 6 10 11 12 13 rings
6 9 14 15 17 18 19 rings

>  <PUBCHEM_HEAVY_ATOM_COUNT>  (1) 
19

>  <PUBCHEM_ATOM_DEF_STEREO_COUNT>  (1) 
0

>  <PUBCHEM_ATOM_UDEF_STEREO_COUNT>  (1) 
0

>  <PUBCHEM_BOND_DEF_STEREO_COUNT>  (1) 
0

>  <PUBCHEM_BOND_UDEF_STEREO_COUNT>  (1) 
0

>  <PUBCHEM_ISOTOPIC_ATOM_COUNT>  (1) 
0

>  <PUBCHEM_COMPONENT_COUNT>  (1) 
1

>  <PUBCHEM_CACTVS_TAUTO_COUNT>  (1) 
15

>  <PUBCHEM_CONFORMER_ID>  (1) 
000005E300000001

>  <PUBCHEM_MMFF94_ENERGY>  (1) 
52.5622

>  <PUBCHEM_FEATURE_SELFOVERLAP>  (1) 
45.817

>  <PUBCHEM_SHAPE_FINGERPRINT>  (1) 
10062212 137 18342452660116334255
10366900 7 14418127444232148941
10595046 47 18339643438019402460
10616163 171 18342176713037327487
11315181 36 18413672426230443985
11471102 20 18260266378027336868
12107183 9 17762902060910639538
12236239 1 18411138030405968083
12403259 226 18410848893371865589
13167823 11 18410854382186666819
13288520 33 18412826889051397383
13583140 156 16773787074273163022
13675066 3 17775281660196912358
13760787 5 17676775335316919164
13862211 1 18260824878558501234
14341114 176 18410860957691633987
15196674 1 18410012164843234349
15536298 74 18340486759079739688
15788980 27 18186803582164115543
15848702 151 18340770347217432958
17349148 13 18409448093850464907
17834072 33 18410576214482239908
17857418 61 18411415124484563655
17862501 102 18411418410134382697
1813 80 17603875459738071934
18186145 218 17530958124658112419
18681886 176 18342450495336486818
19050596 39 18412830204956008401
19489759 90 17131835352583950731
200 152 18413387657219448003
20612939 158 17895199947631211740
20645477 70 18334575737772698590
21033648 29 16588572206155047877
21267235 1 18410018762430017619
21641784 216 17096100091042214676
21709351 56 18261105283935140941
221490 88 18117283768189772515
22646028 1 18409448106993745157
23402539 116 18272083912028454717
23522609 53 18046094613162507252
23557571 272 17346607343598398817
23559900 14 18342450491152640177
26918003 58 18186804707920320499
29717793 49 18343863320770857383
3286 77 18341047509894075484
335352 9 18411136931611940749
34797466 226 17203335554519973828
350125 39 18410293609845189029
351380 180 18410292527449613785
3545911 37 18412826880709278591
4073 2 17968945317666182354
42 15 18412265042698810277
4214541 1 18411418393302796485
4463277 17 18408323294009189996
465052 167 18409452496624947262
474 4 17750518570737871589
5104073 3 18341053003336238537
559249 180 18337667521261784331
59755656 520 17313101965311534211
633830 44 17167860898043737037
67856867 119 18340204223199049932
7495541 125 17346594231004936139
77779 3 18411139164535764509
9709674 26 18340777004490893543
9971528 1 18114178674697412748
9981440 41 17255119467932830576

>  <PUBCHEM_SHAPE_MULTIPOLES>  (1) 
370.2
12.3
1.74
0.68
2.68
0.18
0
-2.54
0.46
-0.16
0.01
-0.1
0.03
-0.9

>  <PUBCHEM_SHAPE_SELFOVERLAP>  (1) 
829.852

>  <PUBCHEM_SHAPE_VOLUME>  (1) 
196.7

>  <PUBCHEM_COORDINATE_TYPE>  (1) 
2
5
10

$$$$
