15074
     RDKit          3D

  9  9  0  0  0  0  0  0  0  0999 V2000
   -2.3791   -1.1305    0.0088 O   0  0  0  0  0  0  0  0  0  0  0  0
    2.4953    0.0335    0.0018 N   0  0  0  0  0  0  0  0  0  0  0  0
   -2.4266    1.1622   -0.0028 N   0  0  0  0  0  0  0  0  0  0  0  0
   -0.2993   -0.0254   -0.0022 C   0  0  0  0  0  0  0  0  0  0  0  0
    0.3733    1.1917    0.0015 C   0  0  0  0  0  0  0  0  0  0  0  0
    0.4238   -1.2129   -0.0039 C   0  0  0  0  0  0  0  0  0  0  0  0
   -1.7528   -0.0558   -0.0045 C   0  0  0  0  0  0  0  0  0  0  0  0
    1.7586    1.1671    0.0034 C   0  0  0  0  0  0  0  0  0  0  0  0
    1.8069   -1.1299   -0.0021 C   0  0  0  0  0  0  0  0  0  0  0  0
  1  7  2  0
  2  8  2  0
  2  9  1  0
  3  7  1  0
  4  5  2  0
  4  6  1  0
  4  7  1  0
  5  8  1  0
  6  9  2  0
M  END
>  <PUBCHEM_COMPOUND_CID>  (1) 
15074

>  <PUBCHEM_CONFORMER_RMSD>  (1) 
0.4

>  <PUBCHEM_CONFORMER_DIVERSEORDER>  (1) 
1

>  <PUBCHEM_MMFF94_PARTIAL_CHARGES>  (1) 
15
1 -0.57
10 0.15
11 0.15
12 0.15
13 0.15
14 0.37
15 0.37
2 -0.62
3 -0.8
4 0.09
5 -0.15
6 -0.15
7 0.54
8 0.16
9 0.16

>  <PUBCHEM_EFFECTIVE_ROTOR_COUNT>  (1) 
1

>  <PUBCHEM_PHARMACOPHORE_FEATURES>  (1) 
4
1 1 acceptor
1 2 acceptor
1 3 donor
6 2 4 5 6 8 9 rings

>  <PUBCHEM_HEAVY_ATOM_COUNT>  (1) 
9

>  <PUBCHEM_ATOM_DEF_STEREO_COUNT>  (1) 
0

>  <PUBCHEM_ATOM_UDEF_STEREO_COUNT>  (1) 
0

>  <PUBCHEM_BOND_DEF_STEREO_COUNT>  (1) 
0

>  <PUBCHEM_BOND_UDEF_STEREO_COUNT>  (1) 
0

>  <PUBCHEM_ISOTOPIC_ATOM_COUNT>  (1) 
0

>  <PUBCHEM_COMPONENT_COUNT>  (1) 
1

>  <PUBCHEM_CACTVS_TAUTO_COUNT>  (1) 
2

>  <PUBCHEM_CONFORMER_ID>  (1) 
00003AE200000001

>  <PUBCHEM_MMFF94_ENERGY>  (1) 
25.7836

>  <PUBCHEM_FEATURE_SELFOVERLAP>  (1) 
20.297

>  <PUBCHEM_SHAPE_FINGERPRINT>  (1) 
12897270 3 18338231673695038543
14325111 11 18410856594221255908
16945 1 18338800151239688654
18185500 45 18340205189481756346
19973954 147 18410014346797416461
21040471 1 18266740362584281220
23402655 69 18268696239605362605
23552423 10 18333454231084389926
2748010 2 18410575084689459348
29004967 10 18409169900376409562
5084963 1 18271811284114693921

>  <PUBCHEM_SHAPE_MULTIPOLES>  (1) 
169.38
3.38
1.49
0.59
0.91
0.02
0
0.04
0
-0.1
0
-0.03
0
0

>  <PUBCHEM_SHAPE_SELFOVERLAP>  (1) 
354.13

>  <PUBCHEM_SHAPE_VOLUME>  (1) 
94.8

>  <PUBCHEM_COORDINATE_TYPE>  (1) 
2
5
10

$$$$
