15076
     RDKit          3D

 18 17  0  0  0  0  0  0  0  0999 V2000
   10.7286    0.4046   -0.0378 O   0  0  0  0  0  0  0  0  0  0  0  0
   -0.6240   -0.4230   -0.0114 C   0  0  0  0  0  0  0  0  0  0  0  0
    0.6733    0.3912   -0.0399 C   0  0  0  0  0  0  0  0  0  0  0  0
   -1.8832    0.4464    0.0299 C   0  0  0  0  0  0  0  0  0  0  0  0
    1.9343   -0.4754   -0.0069 C   0  0  0  0  0  0  0  0  0  0  0  0
   -3.1803   -0.3692    0.0456 C   0  0  0  0  0  0  0  0  0  0  0  0
    3.1994    0.3873   -0.0144 C   0  0  0  0  0  0  0  0  0  0  0  0
   -4.4770    0.4469    0.0663 C   0  0  0  0  0  0  0  0  0  0  0  0
    4.4603   -0.4792   -0.0136 C   0  0  0  0  0  0  0  0  0  0  0  0
   -5.7756   -0.3636    0.0122 C   0  0  0  0  0  0  0  0  0  0  0  0
    5.7576    0.3310    0.0687 C   0  0  0  0  0  0  0  0  0  0  0  0
   -7.0340    0.5063   -0.0441 C   0  0  0  0  0  0  0  0  0  0  0  0
    7.0563   -0.4799    0.0112 C   0  0  0  0  0  0  0  0  0  0  0  0
   -8.3003   -0.3533   -0.0042 C   0  0  0  0  0  0  0  0  0  0  0  0
    8.3169    0.3903    0.0045 C   0  0  0  0  0  0  0  0  0  0  0  0
   -9.5913    0.4678   -0.0291 C   0  0  0  0  0  0  0  0  0  0  0  0
    9.5914   -0.4461   -0.0208 C   0  0  0  0  0  0  0  0  0  0  0  0
  -10.8525   -0.3821   -0.0163 C   0  0  0  0  0  0  0  0  0  0  0  0
  1 17  1  0
  2  3  1  0
  2  4  1  0
  3  5  1  0
  4  6  1  0
  5  7  1  0
  6  8  1  0
  7  9  1  0
  8 10  1  0
  9 11  1  0
 10 12  1  0
 11 13  1  0
 12 14  1  0
 13 15  1  0
 14 16  1  0
 15 17  1  0
 16 18  1  0
M  END
>  <PUBCHEM_COMPOUND_CID>  (1) 
15076

>  <PUBCHEM_CONFORMER_RMSD>  (1) 
1.4

>  <PUBCHEM_CONFORMER_DIVERSEORDER>  (1) 
1
41
58
15
16
52
5
39
43
25
37
14
10
30
9
48
47
38
3
28
23
21
20
34
18
54
11
8
29
51
65
27
22
49
44
33
57
61
64
59
2
56
35
36
13
6
24
31
53
62
42
45
40
19
32
4
55
17
50
7
26
46
63
12
60

>  <PUBCHEM_MMFF94_PARTIAL_CHARGES>  (1) 
3
1 -0.68
17 0.28
54 0.4

>  <PUBCHEM_EFFECTIVE_ROTOR_COUNT>  (1) 
15

>  <PUBCHEM_PHARMACOPHORE_FEATURES>  (1) 
3
1 1 acceptor
1 1 donor
1 18 hydrophobe

>  <PUBCHEM_HEAVY_ATOM_COUNT>  (1) 
18

>  <PUBCHEM_ATOM_DEF_STEREO_COUNT>  (1) 
0

>  <PUBCHEM_ATOM_UDEF_STEREO_COUNT>  (1) 
0

>  <PUBCHEM_BOND_DEF_STEREO_COUNT>  (1) 
0

>  <PUBCHEM_BOND_UDEF_STEREO_COUNT>  (1) 
0

>  <PUBCHEM_ISOTOPIC_ATOM_COUNT>  (1) 
0

>  <PUBCHEM_COMPONENT_COUNT>  (1) 
1

>  <PUBCHEM_CACTVS_TAUTO_COUNT>  (1) 
1

>  <PUBCHEM_CONFORMER_ID>  (1) 
00003AE400000001

>  <PUBCHEM_MMFF94_ENERGY>  (1) 
-2.0178

>  <PUBCHEM_FEATURE_SELFOVERLAP>  (1) 
15.223

>  <PUBCHEM_SHAPE_FINGERPRINT>  (1) 
14123256 10 18410855455833194503
14251764 46 18410573985151451139
14251920 1 18410855455833207499
15510794 2 18411423903403485103
21362267 2 18114451370782875692
232437 2 18413388735019024894
23521765 1 18341894090834051079
23581129 1 18409448089539575815
33684 2 18410855460128161794
67123 10 18410855464423129095
8209 1 18410292510570346889

>  <PUBCHEM_SHAPE_MULTIPOLES>  (1) 
364.56
43.27
0.79
0.61
0.08
0
0
0.18
-0.42
0.05
0
0.05
0
0.01

>  <PUBCHEM_SHAPE_SELFOVERLAP>  (1) 
649.518

>  <PUBCHEM_SHAPE_VOLUME>  (1) 
236.7

>  <PUBCHEM_COORDINATE_TYPE>  (1) 
2
5
10

$$$$
