15079
     RDKit          3D

 15 16  0  0  0  0  0  0  0  0999 V2000
    0.0575    2.6977   -0.1316 O   0  0  0  0  0  0  0  0  0  0  0  0
    3.5031   -1.6766    0.0858 O   0  0  0  0  0  0  0  0  0  0  0  0
    3.5279    0.5158   -0.0231 O   0  0  0  0  0  0  0  0  0  0  0  0
   -2.8770   -0.5332    0.0228 N   0  0  0  0  0  0  0  0  0  0  0  0
   -1.1016    1.9414   -0.0954 N   0  0  0  0  0  0  0  0  0  0  0  0
    1.1919    1.9051   -0.0930 N   0  0  0  0  0  0  0  0  0  0  0  0
    2.8998   -0.5735    0.0299 N   0  0  0  0  0  0  0  0  0  0  0  0
   -1.4754   -0.5109    0.0230 C   0  0  0  0  0  0  0  0  0  0  0  0
   -0.7039    0.6644   -0.0335 C   0  0  0  0  0  0  0  0  0  0  0  0
    0.7538    0.6414   -0.0320 C   0  0  0  0  0  0  0  0  0  0  0  0
   -0.7223   -1.6976    0.0807 C   0  0  0  0  0  0  0  0  0  0  0  0
    1.4876   -0.5577    0.0262 C   0  0  0  0  0  0  0  0  0  0  0  0
    0.6973   -1.7201    0.0822 C   0  0  0  0  0  0  0  0  0  0  0  0
   -3.6017   -1.6559   -0.5495 C   0  0  0  0  0  0  0  0  0  0  0  0
   -3.6370    0.5596    0.6075 C   0  0  0  0  0  0  0  0  0  0  0  0
  1  5  1  0
  1  6  1  0
  2  7  1  0
  3  7  2  0
  4  8  1  0
  4 14  1  0
  4 15  1  0
  5  9  2  0
  6 10  2  0
  7 12  1  0
  8  9  1  0
  8 11  2  0
  9 10  1  0
 10 12  1  0
 11 13  1  0
 12 13  2  0
M  CHG  2   2  -1   7   1
M  END
>  <PUBCHEM_COMPOUND_CID>  (1) 
15079

>  <PUBCHEM_CONFORMER_RMSD>  (1) 
0.6

>  <PUBCHEM_CONFORMER_DIVERSEORDER>  (1) 
1
2

>  <PUBCHEM_MMFF94_PARTIAL_CHARGES>  (1) 
17
1 0.24
10 0.29
11 -0.15
12 0.13
13 -0.15
14 0.37
15 0.37
16 0.15
17 0.15
2 -0.52
3 -0.52
4 -0.84
5 -0.41
6 -0.41
7 0.91
8 0.1
9 0.29

>  <PUBCHEM_EFFECTIVE_ROTOR_COUNT>  (1) 
2

>  <PUBCHEM_PHARMACOPHORE_FEATURES>  (1) 
8
1 2 acceptor
1 2 anion
1 3 acceptor
1 4 cation
1 5 acceptor
1 6 acceptor
5 1 5 6 9 10 rings
6 8 9 10 11 12 13 rings

>  <PUBCHEM_HEAVY_ATOM_COUNT>  (1) 
15

>  <PUBCHEM_ATOM_DEF_STEREO_COUNT>  (1) 
0

>  <PUBCHEM_ATOM_UDEF_STEREO_COUNT>  (1) 
0

>  <PUBCHEM_BOND_DEF_STEREO_COUNT>  (1) 
0

>  <PUBCHEM_BOND_UDEF_STEREO_COUNT>  (1) 
0

>  <PUBCHEM_ISOTOPIC_ATOM_COUNT>  (1) 
0

>  <PUBCHEM_COMPONENT_COUNT>  (1) 
1

>  <PUBCHEM_CACTVS_TAUTO_COUNT>  (1) 
1

>  <PUBCHEM_CONFORMER_ID>  (1) 
00003AE700000001

>  <PUBCHEM_MMFF94_ENERGY>  (1) 
60.8286

>  <PUBCHEM_FEATURE_SELFOVERLAP>  (1) 
40.857

>  <PUBCHEM_SHAPE_FINGERPRINT>  (1) 
10130415 120 18260546736096435258
10219947 1 18411703183672571259
10967382 1 18338234997889007654
11132069 177 18341326699921460154
11206711 2 18334575702827105837
11471102 20 18408880741966982943
11680986 33 17976822313251108475
11806522 49 18268423714965859015
12032990 46 18410016532772480195
13380535 76 17832415780252717953
14251717 144 18338510966844381983
14993402 34 18412544352996458983
15196674 1 18410856563940064115
15375462 189 18259704475951198475
15442244 35 18412546543777627603
15536298 74 18200876304434016296
16945 1 18408039628061101091
193761 8 17617378823678560274
20510252 161 18270397175239469944
20645477 70 18193265515681728823
20871998 184 18200307693829626742
20871998 22 18342466906433145423
21501502 16 18339648970169303837
221490 88 17975413830704355675
22802520 49 17697605394211288934
2334 1 17977386358320937267
23388829 49 18410014320969492981
23402539 116 18341322319329475614
23463225 33 18409451383811205350
23559900 14 18196926679080343122
2748010 2 17617946833351122925
3071541 12 18194125354510884149
3071541 158 18187642561039020701
528886 8 18411415116052871755
53655031 270 18337112250456557475
63268167 104 18338518667884079081
7364860 26 18054225706879503585
81228 2 18193009122648901248

>  <PUBCHEM_SHAPE_MULTIPOLES>  (1) 
271.16
5.48
2.37
0.63
0.43
0.9
-0.01
-1.91
-0.12
-0.13
0.14
0.22
-0.04
-0.38

>  <PUBCHEM_SHAPE_SELFOVERLAP>  (1) 
579.045

>  <PUBCHEM_SHAPE_VOLUME>  (1) 
152.9

>  <PUBCHEM_COORDINATE_TYPE>  (1) 
2
5
10

$$$$
