15080
     RDKit          3D

 17 19  0  0  0  0  0  0  0  0999 V2000
   -0.0007   -0.8140    0.1702 S   0  0  0  0  0  0  0  0  0  0  0  0
   -0.6922    1.5994   -0.3422 N   0  0  0  0  0  0  0  0  0  0  0  0
    0.6918    1.5997   -0.3409 N   0  0  0  0  0  0  0  0  0  0  0  0
   -2.5789    0.0630   -0.0153 C   0  0  0  0  0  0  0  0  0  0  0  0
    2.5780    0.0632   -0.0132 C   0  0  0  0  0  0  0  0  0  0  0  0
   -1.1793    0.4041   -0.0894 C   0  0  0  0  0  0  0  0  0  0  0  0
    1.1794    0.4041   -0.0869 C   0  0  0  0  0  0  0  0  0  0  0  0
   -3.5295    1.0621    0.1944 C   0  0  0  0  0  0  0  0  0  0  0  0
    3.5296    1.0617    0.1985 C   0  0  0  0  0  0  0  0  0  0  0  0
   -2.9820   -1.2654   -0.1524 C   0  0  0  0  0  0  0  0  0  0  0  0
    2.9824   -1.2650   -0.1541 C   0  0  0  0  0  0  0  0  0  0  0  0
   -4.8830    0.7330    0.2673 C   0  0  0  0  0  0  0  0  0  0  0  0
    4.8833    0.7327    0.2690 C   0  0  0  0  0  0  0  0  0  0  0  0
   -4.3356   -1.5945   -0.0797 C   0  0  0  0  0  0  0  0  0  0  0  0
    4.3361   -1.5939   -0.0834 C   0  0  0  0  0  0  0  0  0  0  0  0
   -5.2860   -0.5952    0.1302 C   0  0  0  0  0  0  0  0  0  0  0  0
    5.2865   -0.5951    0.1281 C   0  0  0  0  0  0  0  0  0  0  0  0
  1  6  1  0
  1  7  1  0
  2  3  1  0
  2  6  2  0
  3  7  2  0
  4  6  1  0
  4  8  2  0
  4 10  1  0
  5  7  1  0
  5  9  2  0
  5 11  1  0
  8 12  1  0
  9 13  1  0
 10 14  2  0
 11 15  2  0
 12 16  2  0
 13 17  2  0
 14 16  1  0
 15 17  1  0
M  END
>  <PUBCHEM_COMPOUND_CID>  (1) 
15080

>  <PUBCHEM_CONFORMER_RMSD>  (1) 
0.6

>  <PUBCHEM_CONFORMER_DIVERSEORDER>  (1) 
1

>  <PUBCHEM_MMFF94_PARTIAL_CHARGES>  (1) 
27
1 -0.08
10 -0.15
11 -0.15
12 -0.15
13 -0.15
14 -0.15
15 -0.15
16 -0.15
17 -0.15
18 0.15
19 0.15
2 -0.34
20 0.15
21 0.15
22 0.15
23 0.15
24 0.15
25 0.15
26 0.15
27 0.15
3 -0.34
4 0.05
5 0.05
6 0.33
7 0.33
8 -0.15
9 -0.15

>  <PUBCHEM_EFFECTIVE_ROTOR_COUNT>  (1) 
2

>  <PUBCHEM_PHARMACOPHORE_FEATURES>  (1) 
5
1 2 acceptor
1 3 acceptor
5 1 2 3 6 7 rings
6 4 8 10 12 14 16 rings
6 5 9 11 13 15 17 rings

>  <PUBCHEM_HEAVY_ATOM_COUNT>  (1) 
17

>  <PUBCHEM_ATOM_DEF_STEREO_COUNT>  (1) 
0

>  <PUBCHEM_ATOM_UDEF_STEREO_COUNT>  (1) 
0

>  <PUBCHEM_BOND_DEF_STEREO_COUNT>  (1) 
0

>  <PUBCHEM_BOND_UDEF_STEREO_COUNT>  (1) 
0

>  <PUBCHEM_ISOTOPIC_ATOM_COUNT>  (1) 
0

>  <PUBCHEM_COMPONENT_COUNT>  (1) 
1

>  <PUBCHEM_CACTVS_TAUTO_COUNT>  (1) 
1

>  <PUBCHEM_CONFORMER_ID>  (1) 
00003AE800000001

>  <PUBCHEM_MMFF94_ENERGY>  (1) 
46.5265

>  <PUBCHEM_FEATURE_SELFOVERLAP>  (1) 
26.865

>  <PUBCHEM_SHAPE_FINGERPRINT>  (1) 
11401426 45 18335137596471766449
11806522 49 18408322211165676420
12107183 9 17622170065834378882
12236239 1 18272652350802387035
12596602 18 16774077409825908674
13167823 11 18412543214782678531
13288520 33 18410294705235390191
13675066 3 18411418431793880889
13685833 64 18334018319821479283
13862211 1 18334289868448423210
14251764 18 18201443593174636811
14252887 29 17918001555359169566
14341114 176 18343589542096186817
15196674 1 18410575084663247847
15536298 74 18413107264368774130
15788980 27 17821730528775211397
17834072 33 18413108389676598924
17844677 252 18412833481573469880
1813 80 17458348528501445644
18186145 218 16226050028116194653
18785283 64 17985530389989107400
19141452 34 18412826897868341279
200 152 18273494572023977555
20281475 54 18408886260593951861
20374829 77 18334010575304256994
20645477 70 18341614776764447926
21267235 1 18409738360688754763
221490 88 18117566338646861795
22485316 2 18411136930815199415
23402539 116 18411976966589461415
23559900 14 18342451569062850432
239999 70 18273220781619777814
26918003 58 18202281394299827787
2871803 45 18187362104238590674
300161 21 18412819187911226489
3004659 81 18260831475833768678
335352 9 18409729556891800853
33824 294 18409728444274114554
34797466 226 17203055187280900116
3545911 37 18413390933952375793
4073 2 18187369873639432698
42 15 18412265034140478725
4214541 1 18411982434098913153
42788 4 18412262839306695426
4325135 7 18187368753127377804
4463277 17 18408605859364385260
465052 167 18201443558546250182
5104073 3 18412545409505374658
5374978 207 18410569579190310456
542803 24 17385446518249861836
559249 180 18336261254722412555
57483677 66 18410009931396936954
5924683 9 17703218642027266463
7495541 125 17704067442958828010
77779 3 18412545409505328288
9709674 26 18409455782222213522
9971528 1 18186521020740300244

>  <PUBCHEM_SHAPE_MULTIPOLES>  (1) 
343.74
12.63
1.65
0.64
0.01
0.11
-0.01
2.4
-1
0
0.08
0
-0.01
0

>  <PUBCHEM_SHAPE_SELFOVERLAP>  (1) 
746.258

>  <PUBCHEM_SHAPE_VOLUME>  (1) 
189.2

>  <PUBCHEM_COORDINATE_TYPE>  (1) 
2
5
10

$$$$
