15083
     RDKit          3D

 15 16  0  0  1  0  0  0  0  0999 V2000
   -0.0483    0.3211   -0.7675 O   0  0  0  0  0  0  0  0  0  0  0  0
    1.3054   -1.9149    0.4458 O   0  0  0  0  0  0  0  0  0  0  0  0
   -3.2027    0.6126    0.5024 N   0  0  0  0  0  0  0  0  0  0  0  0
   -0.7448   -0.8062   -0.2185 C   0  0  0  0  0  0  0  0  0  0  0  0
   -2.0522   -0.9596   -0.9818 C   0  0  0  0  0  0  0  0  0  0  0  0
   -2.9002    0.3062   -0.8906 C   0  0  0  0  0  0  0  0  0  0  0  0
    0.1193   -2.0542   -0.3427 C   0  0  0  0  0  0  0  0  0  0  0  0
    1.2510    0.3839   -0.3376 C   0  0  0  0  0  0  0  0  0  0  0  0
    1.9034   -0.6964    0.2603 C   0  0  0  0  0  0  0  0  0  0  0  0
   -3.9717   -0.4728    1.1137 C   0  0  0  0  0  0  0  0  0  0  0  0
   -3.9369    1.8750    0.6051 C   0  0  0  0  0  0  0  0  0  0  0  0
    1.9265    1.5895   -0.5292 C   0  0  0  0  0  0  0  0  0  0  0  0
    3.2178   -0.5583    0.7072 C   0  0  0  0  0  0  0  0  0  0  0  0
    3.2453    1.7224   -0.0943 C   0  0  0  0  0  0  0  0  0  0  0  0
    3.8883    0.6518    0.5278 C   0  0  0  0  0  0  0  0  0  0  0  0
  1  4  1  0
  1  8  1  0
  2  7  1  0
  2  9  1  0
  3  6  1  0
  3 10  1  0
  3 11  1  0
  4  5  1  0
  4  7  1  0
  5  6  1  0
  8  9  2  0
  8 12  1  0
  9 13  1  0
 12 14  2  0
 13 15  2  0
 14 15  1  0
M  END
>  <PUBCHEM_COMPOUND_CID>  (1) 
15083

>  <PUBCHEM_CONFORMER_RMSD>  (1) 
0.6

>  <PUBCHEM_CONFORMER_DIVERSEORDER>  (1) 
8
19
3
17
14
20
2
1
23
22
6
9
4
12
11
16
7
18
10
21
5
15
13

>  <PUBCHEM_MMFF94_PARTIAL_CHARGES>  (1) 
18
1 -0.36
10 0.27
11 0.27
12 -0.15
13 -0.15
14 -0.15
15 -0.15
2 -0.36
29 0.15
3 -0.81
30 0.15
31 0.15
32 0.15
4 0.28
6 0.27
7 0.28
8 0.08
9 0.08

>  <PUBCHEM_EFFECTIVE_ROTOR_COUNT>  (1) 
3.8

>  <PUBCHEM_PHARMACOPHORE_FEATURES>  (1) 
5
1 1 acceptor
1 2 acceptor
1 3 cation
6 1 2 4 7 8 9 rings
6 8 9 12 13 14 15 rings

>  <PUBCHEM_HEAVY_ATOM_COUNT>  (1) 
15

>  <PUBCHEM_ATOM_DEF_STEREO_COUNT>  (1) 
0

>  <PUBCHEM_ATOM_UDEF_STEREO_COUNT>  (1) 
1

>  <PUBCHEM_BOND_DEF_STEREO_COUNT>  (1) 
0

>  <PUBCHEM_BOND_UDEF_STEREO_COUNT>  (1) 
0

>  <PUBCHEM_ISOTOPIC_ATOM_COUNT>  (1) 
0

>  <PUBCHEM_COMPONENT_COUNT>  (1) 
1

>  <PUBCHEM_CACTVS_TAUTO_COUNT>  (1) 
1

>  <PUBCHEM_CONFORMER_ID>  (1) 
00003AEB00000008

>  <PUBCHEM_MMFF94_ENERGY>  (1) 
44.2816

>  <PUBCHEM_FEATURE_SELFOVERLAP>  (1) 
25.413

>  <PUBCHEM_SHAPE_FINGERPRINT>  (1) 
10465860 228 18270122305421241730
10498660 4 15410340923630390609
10980938 120 18335133189877577294
11046707 91 11458413631349257048
11471102 22 18040156201518826635
11769659 78 7997975673610609054
12251169 10 18187648032943308995
12346645 44 18412823616006671487
12491281 212 18338515356221687674
12633257 1 17095532807060758313
12644460 14 17676478472137311048
13675066 3 18344146986033273506
14144814 61 18336538399886603908
15209294 21 18272639178206528600
15309172 13 18334288790421993007
15653759 3 16588017992101698677
15775835 57 18202002127221338705
16945 1 18187631497503952726
17844478 74 17168134633389063012
18186145 218 18413387652940272780
200 152 18338785828157136471
201361 129 18412826854496486722
20157964 124 18194678173696744629
20233049 118 17703503320532348880
20279233 1 16950557766785138647
21524375 3 18340482365238622775
21713013 43 10879697759739737961
22485316 2 8358262539967351231
22854114 111 18408604764242520853
22854114 59 18187364350495657539
23184049 59 18334008398067002836
23402539 116 17561075913181135988
23557571 272 15266764637669664119
2748010 2 17831838180635550038
276578 36 18412548716930891514
474 4 18408601470060711521
633830 44 18342742909674164852
9882013 296 17895199960383952115

>  <PUBCHEM_SHAPE_MULTIPOLES>  (1) 
291.97
7.53
1.97
0.99
3.1
0.04
0.01
-3.34
2.23
-0.12
0.01
0.53
0.03
-0.6

>  <PUBCHEM_SHAPE_SELFOVERLAP>  (1) 
607.618

>  <PUBCHEM_SHAPE_VOLUME>  (1) 
167

>  <PUBCHEM_COORDINATE_TYPE>  (1) 
2
5
10

$$$$
