1508
     RDKit          3D

 19 21  0  0  0  0  0  0  0  0999 V2000
   -2.8493    2.0194    0.6519 O   0  0  0  0  0  0  0  0  0  0  0  0
   -0.5211    1.0202   -0.3110 N   0  0  0  0  0  0  0  0  0  0  0  0
    5.8992    0.3866   -0.0636 N   0  0  0  0  0  0  0  0  0  0  0  0
    5.0797   -1.7465    0.4257 N   0  0  0  0  0  0  0  0  0  0  0  0
    1.0749   -0.4910    0.0717 C   0  0  0  0  0  0  0  0  0  0  0  0
    0.8435    0.8484   -0.2492 C   0  0  0  0  0  0  0  0  0  0  0  0
   -1.1585   -0.1609   -0.0409 C   0  0  0  0  0  0  0  0  0  0  0  0
   -0.1973   -1.1154    0.2000 C   0  0  0  0  0  0  0  0  0  0  0  0
   -2.5971   -0.2701   -0.0375 C   0  0  0  0  0  0  0  0  0  0  0  0
    2.4052   -0.9380    0.1981 C   0  0  0  0  0  0  0  0  0  0  0  0
    1.8801    1.7667   -0.4509 C   0  0  0  0  0  0  0  0  0  0  0  0
    3.4521   -0.0306   -0.0006 C   0  0  0  0  0  0  0  0  0  0  0  0
    3.1913    1.3004   -0.3201 C   0  0  0  0  0  0  0  0  0  0  0  0
   -3.3985    0.8195    0.3078 C   0  0  0  0  0  0  0  0  0  0  0  0
   -3.1891   -1.4855   -0.3851 C   0  0  0  0  0  0  0  0  0  0  0  0
    4.8287   -0.4846    0.1271 C   0  0  0  0  0  0  0  0  0  0  0  0
   -4.7876    0.6939    0.3056 C   0  0  0  0  0  0  0  0  0  0  0  0
   -4.5784   -1.6111   -0.3872 C   0  0  0  0  0  0  0  0  0  0  0  0
   -5.3777   -0.5214   -0.0419 C   0  0  0  0  0  0  0  0  0  0  0  0
  1 14  1  0
  2  6  1  0
  2  7  1  0
  3 16  1  0
  4 16  2  0
  5  6  2  0
  5  8  1  0
  5 10  1  0
  6 11  1  0
  7  8  2  0
  7  9  1  0
  9 14  2  0
  9 15  1  0
 10 12  2  0
 11 13  2  0
 12 13  1  0
 12 16  1  0
 14 17  1  0
 15 18  2  0
 17 19  2  0
 18 19  1  0
M  END
>  <PUBCHEM_COMPOUND_CID>  (1) 
1508

>  <PUBCHEM_CONFORMER_RMSD>  (1) 
0.6

>  <PUBCHEM_CONFORMER_DIVERSEORDER>  (1) 
1
2

>  <PUBCHEM_MMFF94_PARTIAL_CHARGES>  (1) 
31
1 -0.53
10 -0.15
11 -0.15
12 0.09
13 -0.15
14 0.08
15 -0.15
16 0.41
17 -0.15
18 -0.15
19 -0.15
2 0.03
20 0.15
21 0.27
22 0.15
23 0.15
24 0.15
25 0.15
26 0.15
27 0.15
28 0.15
29 0.45
3 -0.85
30 0.4
31 0.4
32 0.4
4 -0.85
6 -0.15
7 -0.2
8 -0.15
9 0.05

>  <PUBCHEM_EFFECTIVE_ROTOR_COUNT>  (1) 
2

>  <PUBCHEM_PHARMACOPHORE_FEATURES>  (1) 
9
1 1 donor
1 2 cation
1 2 donor
1 3 donor
1 4 donor
3 3 4 16 cation
5 2 5 6 7 8 rings
6 5 6 10 11 12 13 rings
6 9 14 15 17 18 19 rings

>  <PUBCHEM_HEAVY_ATOM_COUNT>  (1) 
19

>  <PUBCHEM_ATOM_DEF_STEREO_COUNT>  (1) 
0

>  <PUBCHEM_ATOM_UDEF_STEREO_COUNT>  (1) 
0

>  <PUBCHEM_BOND_DEF_STEREO_COUNT>  (1) 
0

>  <PUBCHEM_BOND_UDEF_STEREO_COUNT>  (1) 
0

>  <PUBCHEM_ISOTOPIC_ATOM_COUNT>  (1) 
0

>  <PUBCHEM_COMPONENT_COUNT>  (1) 
1

>  <PUBCHEM_CACTVS_TAUTO_COUNT>  (1) 
9

>  <PUBCHEM_CONFORMER_ID>  (1) 
000005E400000001

>  <PUBCHEM_MMFF94_ENERGY>  (1) 
53.1616

>  <PUBCHEM_FEATURE_SELFOVERLAP>  (1) 
45.813

>  <PUBCHEM_SHAPE_FINGERPRINT>  (1) 
10062212 137 18342452660116340751
10366900 7 14418127444232142445
10595046 47 18411701032078429396
10616163 171 18341895238065891583
11315181 36 18413390951232634321
11471102 20 18260266378016780868
12107183 9 17762902060931790514
12236239 1 18410856555350103555
12403259 226 18411130372654080041
13167823 11 18410572907215250415
13288520 33 18412826889035573135
13583140 156 16773787078583993542
13675066 3 17847057779258129622
13760787 5 17748832929354847092
13862211 1 18260824878553226490
14341114 176 18410860957691620979
15196674 1 18410012164853783845
15536298 74 18412544353112392872
15788980 27 18186803582169390295
15848702 151 18340770347227995454
17349148 13 18409448093855746163
17834072 33 18410576214508620156
17857418 61 18411415124479282399
17862501 102 18411698785604733817
1813 80 17603875459738084926
18186145 218 17530958124663387171
18681886 176 18342450495331212066
19050596 39 18412830200666315865
19489759 90 17131835352583950731
200 152 18413387652924487211
20612939 158 17895199947631211732
20645477 70 18334575737762142590
21033648 29 16588572206155047877
21267235 1 18409737287458588211
21641784 216 17168439155761885964
21709351 56 18260260854710048173
221490 88 18117283768195053763
22646028 1 18409448107004294661
23402539 116 18272083912028428741
23522609 53 18046094613157225996
23557571 272 17346607343593124065
23559900 14 18342449391699034673
26918003 58 18186803608413967467
29717793 49 18343863320776138623
3286 77 18340766034922633068
335352 9 18411136931617221989
34797466 226 17203335554535791572
350125 39 18410293609839907781
351380 180 18410292527476007025
3545911 37 18412545405732561439
4073 2 17968944218154561074
42 15 18412265038440772741
4214541 1 18411418393308071237
4463277 17 18408323293993359244
465052 167 18408889546666251182
474 4 17750519670249499365
5104073 3 18341053003336232041
559249 180 18337668620789229875
59755656 520 17385441034336728803
633830 44 17167860898049011789
67856867 119 18340204223204318188
7495541 125 17346312756086247755
77779 3 18410857689564335101
9709674 26 18412553119283523743
9971528 1 18114178674692137988
9981440 41 17255119467927549328

>  <PUBCHEM_SHAPE_MULTIPOLES>  (1) 
370.2
12.33
1.74
0.68
2.85
0.18
0
-2.51
0.44
-0.17
0.01
-0.1
0.03
-0.89

>  <PUBCHEM_SHAPE_SELFOVERLAP>  (1) 
828.737

>  <PUBCHEM_SHAPE_VOLUME>  (1) 
197.1

>  <PUBCHEM_COORDINATE_TYPE>  (1) 
2
5
10

$$$$
