151
     RDKit          3D

 20 20  0  0  1  0  0  0  0  0999 V2000
   -4.8972    1.0652    0.1703 P   0  0  0  0  0  0  0  0  0  0  0  0
   -0.6304    0.3477   -0.2274 O   0  0  0  0  0  0  0  0  0  0  0  0
   -1.0386   -3.0428    0.8485 O   0  0  0  0  0  0  0  0  0  0  0  0
    1.4138   -2.4707   -0.9702 O   0  0  0  0  0  0  0  0  0  0  0  0
   -3.3539    0.6810    0.4702 O   0  0  0  0  0  0  0  0  0  0  0  0
    3.2825    0.2959   -1.6984 O   0  0  0  0  0  0  0  0  0  0  0  0
   -4.9993    0.9178   -1.4368 O   0  0  0  0  0  0  0  0  0  0  0  0
   -5.7242   -0.2135    0.7145 O   0  0  0  0  0  0  0  0  0  0  0  0
   -5.3374    2.3929    0.7142 O   0  0  0  0  0  0  0  0  0  0  0  0
    5.4955   -0.0868    1.6758 O   0  0  0  0  0  0  0  0  0  0  0  0
    1.6838    0.6218   -0.0413 N   0  0  0  0  0  0  0  0  0  0  0  0
    5.1783    1.4450   -0.0646 N   0  0  0  0  0  0  0  0  0  0  0  0
   -0.7721   -1.9980   -0.0670 C   0  0  0  0  0  0  0  0  0  0  0  0
   -1.4026   -0.6947    0.3895 C   0  0  0  0  0  0  0  0  0  0  0  0
    0.6932   -1.6253   -0.0921 C   0  0  0  0  0  0  0  0  0  0  0  0
    0.6458   -0.1943   -0.6044 C   0  0  0  0  0  0  0  0  0  0  0  0
   -2.8605   -0.5585   -0.0111 C   0  0  0  0  0  0  0  0  0  0  0  0
    2.9291    0.8038   -0.6371 C   0  0  0  0  0  0  0  0  0  0  0  0
    3.7973    1.7586    0.1543 C   0  0  0  0  0  0  0  0  0  0  0  0
    5.8968    0.5548    0.7134 C   0  0  0  0  0  0  0  0  0  0  0  0
  1  5  1  0
  1  7  1  0
  1  8  1  0
  1  9  2  0
  2 14  1  0
  2 16  1  0
  3 13  1  0
  4 15  1  0
  5 17  1  0
  6 18  2  0
 10 20  2  0
 11 16  1  0
 11 18  1  0
 12 19  1  0
 12 20  1  0
 13 14  1  0
 13 15  1  0
 14 17  1  0
 15 16  1  0
 18 19  1  0
M  END
>  <PUBCHEM_COMPOUND_CID>  (1) 
151

>  <PUBCHEM_CONFORMER_RMSD>  (1) 
1

>  <PUBCHEM_CONFORMER_DIVERSEORDER>  (1) 
1
490
48
7
8
422
72
478
74
247
149
476
328
307
9
448
155
280
413
204
3
394
179
33
511
408
170
325
504
384
67
392
117
358
93
6
520
275
382
389
177
491
500
39
239
84
339
316
216
410
136
439
434
375
143
35
164
140
192
418
272
144
47
188
172
341
32
336
2
507
24
120
160
133
366
449
141
106
287
402
66
80
132
237
97
105
249
320
20
29
309
21
100
291
229
26
125
99
519
73
398
455
56
174
442
11
10
104
77
12
303
355
215
437
30
233
213
251
412
42
241
401
495
464
61
310
256
15
5
432
151
98
186
321

>  <PUBCHEM_MMFF94_PARTIAL_CHARGES>  (1) 
27
1 1.51
10 -0.57
11 -0.73
12 -0.73
13 0.28
14 0.28
15 0.28
16 0.58
17 0.28
18 0.57
19 0.36
2 -0.56
20 0.57
27 0.37
28 0.4
29 0.4
3 -0.68
32 0.37
33 0.5
34 0.5
35 0.06
4 -0.68
5 -0.55
6 -0.57
7 -0.77
8 -0.77
9 -0.7

>  <PUBCHEM_EFFECTIVE_ROTOR_COUNT>  (1) 
9

>  <PUBCHEM_PHARMACOPHORE_FEATURES>  (1) 
14
1 10 acceptor
1 11 donor
1 12 donor
1 2 acceptor
1 3 acceptor
1 3 donor
1 4 acceptor
1 4 donor
1 6 acceptor
1 7 acceptor
1 8 acceptor
1 9 acceptor
4 1 7 8 9 anion
5 2 13 14 15 16 rings

>  <PUBCHEM_HEAVY_ATOM_COUNT>  (1) 
20

>  <PUBCHEM_ATOM_DEF_STEREO_COUNT>  (1) 
0

>  <PUBCHEM_ATOM_UDEF_STEREO_COUNT>  (1) 
4

>  <PUBCHEM_BOND_DEF_STEREO_COUNT>  (1) 
0

>  <PUBCHEM_BOND_UDEF_STEREO_COUNT>  (1) 
0

>  <PUBCHEM_ISOTOPIC_ATOM_COUNT>  (1) 
0

>  <PUBCHEM_COMPONENT_COUNT>  (1) 
1

>  <PUBCHEM_CACTVS_TAUTO_COUNT>  (1) 
4

>  <PUBCHEM_CONFORMER_ID>  (1) 
0000009700000001

>  <PUBCHEM_MMFF94_ENERGY>  (1) 
4.0518

>  <PUBCHEM_FEATURE_SELFOVERLAP>  (1) 
71.09

>  <PUBCHEM_SHAPE_FINGERPRINT>  (1) 
10042902 136 11747235583274638985
10692045 39 18336825282617979066
12107183 9 18334286562156743698
12596602 18 16805605901399629617
13533116 47 17775287115433444086
13740256 8 8934995975718637713
14123256 34 8790594932016051377
14251740 57 10954045696253325141
14251758 9 17749384850011541822
14251764 18 18186799223294582008
14251764 30 12974153044311254880
14466204 15 18411980239128447864
15537594 2 9727638306340130925
18222031 100 8574428690809866253
19784866 34 18339647746362152345
20281389 69 18187081784265600588
20645477 56 18337398243738785477
20645477 70 17059796441680030910
212916 134 18272078427239277234
21403212 168 18188757380146361450
21452121 103 18337955584375331802
22182313 1 18125470650329903127
23016692 55 8214145170063849096
23402539 116 18342731957354657004
23559900 14 18200047230619002900
2767999 5 18342452647057547297
2838139 119 17917705816269009256
2916195 48 18202001053400653409
314173 85 8935003642293127791
314194 84 9439404648458689836
329604 57 10592047968529114200
4072396 5 18410568470983135824
495365 180 17775291547607611326
5104073 3 18262248703514536259
5207 217 11959723915647130824
56616090 46 18334016086000778214
59755656 215 18340494370336632742
59755656 520 18409444816811848639
7226269 152 18272932734757749816
7495541 125 10953731227859787484
8863177 126 11671193372821537205
9981440 41 18334583421548124827

>  <PUBCHEM_SHAPE_MULTIPOLES>  (1) 
352.65
13.51
2.37
1.1
0.02
1.31
-0.11
-9.59
3.24
0.99
0.21
-0.59
0.01
0.06

>  <PUBCHEM_SHAPE_SELFOVERLAP>  (1) 
691.944

>  <PUBCHEM_SHAPE_VOLUME>  (1) 
211.5

>  <PUBCHEM_COORDINATE_TYPE>  (1) 
2
5
10

$$$$
