15102
     RDKit          3D

 13 13  0  0  1  0  0  0  0  0999 V2000
    0.8215   -0.4998   -0.1615 N   0  0  0  0  0  0  0  0  0  0  0  0
   -2.8863   -0.5498    0.1880 N   0  0  0  0  0  0  0  0  0  0  0  0
   -5.1846   -0.2573    0.2271 N   0  0  0  0  0  0  0  0  0  0  0  0
   -3.9371    1.4609   -0.6017 N   0  0  0  0  0  0  0  0  0  0  0  0
    1.8566   -1.5185    0.0444 C   0  0  0  0  0  0  0  0  0  0  0  0
    3.2135   -1.0120   -0.4674 C   0  0  0  0  0  0  0  0  0  0  0  0
    1.1266    0.7155    0.6114 C   0  0  0  0  0  0  0  0  0  0  0  0
   -0.5007   -1.0154    0.1878 C   0  0  0  0  0  0  0  0  0  0  0  0
    3.5139    0.4053   -0.0502 C   0  0  0  0  0  0  0  0  0  0  0  0
    2.5471    1.1853    0.4614 C   0  0  0  0  0  0  0  0  0  0  0  0
   -1.5749    0.0096   -0.1468 C   0  0  0  0  0  0  0  0  0  0  0  0
    4.9224    0.8808   -0.2338 C   0  0  0  0  0  0  0  0  0  0  0  0
   -3.9180    0.1954   -0.0586 C   0  0  0  0  0  0  0  0  0  0  0  0
  1  5  1  0
  1  7  1  0
  1  8  1  0
  2 11  1  0
  2 13  2  3
  3 13  1  0
  4 13  1  0
  5  6  1  0
  6  9  1  0
  7 10  1  0
  8 11  1  0
  9 10  2  0
  9 12  1  0
M  END
>  <PUBCHEM_COMPOUND_CID>  (1) 
15102

>  <PUBCHEM_CONFORMER_RMSD>  (1) 
0.6

>  <PUBCHEM_CONFORMER_DIVERSEORDER>  (1) 
2
19
21
10
20
1
8
24
18
27
5
13
22
16
6
12
15
7
25
11
4
14
3
17
26
9
23

>  <PUBCHEM_MMFF94_PARTIAL_CHARGES>  (1) 
18
1 -0.81
10 -0.29
11 0.25
12 0.14
13 0.55
2 -0.7
22 0.15
28 0.4
29 0.4
3 -0.85
30 0.4
31 0.4
4 -0.85
5 0.27
6 0.14
7 0.41
8 0.27
9 -0.28

>  <PUBCHEM_EFFECTIVE_ROTOR_COUNT>  (1) 
3.8

>  <PUBCHEM_PHARMACOPHORE_FEATURES>  (1) 
5
1 1 cation
1 3 donor
1 4 donor
4 2 3 4 13 cation
6 1 5 6 7 9 10 rings

>  <PUBCHEM_HEAVY_ATOM_COUNT>  (1) 
13

>  <PUBCHEM_ATOM_DEF_STEREO_COUNT>  (1) 
0

>  <PUBCHEM_ATOM_UDEF_STEREO_COUNT>  (1) 
0

>  <PUBCHEM_BOND_DEF_STEREO_COUNT>  (1) 
0

>  <PUBCHEM_BOND_UDEF_STEREO_COUNT>  (1) 
0

>  <PUBCHEM_ISOTOPIC_ATOM_COUNT>  (1) 
0

>  <PUBCHEM_COMPONENT_COUNT>  (1) 
1

>  <PUBCHEM_CACTVS_TAUTO_COUNT>  (1) 
2

>  <PUBCHEM_CONFORMER_ID>  (1) 
00003AFE00000002

>  <PUBCHEM_MMFF94_ENERGY>  (1) 
22.5355

>  <PUBCHEM_FEATURE_SELFOVERLAP>  (1) 
25.428

>  <PUBCHEM_SHAPE_FINGERPRINT>  (1) 
11401426 45 17989202677294521264
114248 4 18341895203499625627
11471102 20 18343021082121574782
12251169 10 11746936499074029696
12670543 26 18271258144800299164
12815109 37 9799696990956178349
13081056 2 18410855469066502877
14123238 8 18259985989592865031
14252887 29 12757139161439994808
14415576 193 18409732854661747500
14911166 2 18130795585669937156
14993402 34 16845576430740045798
17834072 33 18131347544427664231
17834072 8 18201447982494024564
18186145 218 18271812297906492667
20279233 1 18113907064980811211
20606313 2 18343584044965133736
20645477 56 18335138717674541027
20645477 70 18202006478065830134
21119208 17 17060622213113625260
212847 35 18409728448151986680
231179 274 18409165511115011740
23402539 116 18040427828241094110
23402655 69 18201999906501687565
3060560 45 17632864127033536462
3545911 37 18341897415207446411
4047638 21 18260551134506806618
4072396 5 18342727513055146090
42788 4 18408323297924245100
449060 50 18335140907780749567
449060 62 18413390934216197810
4990 188 17917437535763647854
522135 26 18201720639296435534
58051976 100 17774715480586561383
77779 3 18411419492851276063
81539 233 18341615901929815686

>  <PUBCHEM_SHAPE_MULTIPOLES>  (1) 
247.61
10.11
1.37
0.7
7.28
0.07
0.01
-2.55
-0.95
-0.58
-0.03
-0.07
-0.06
0.44

>  <PUBCHEM_SHAPE_SELFOVERLAP>  (1) 
483.888

>  <PUBCHEM_SHAPE_VOLUME>  (1) 
148

>  <PUBCHEM_COORDINATE_TYPE>  (1) 
2
5
10

$$$$
