15101
     RDKit          3D

 12 13  0  0  0  0  0  0  0  0999 V2000
   -1.0342   -0.9824    0.0000 N   0  0  0  0  0  0  0  0  0  0  0  0
    0.1520   -0.3452    0.0000 C   0  0  0  0  0  0  0  0  0  0  0  0
    0.2407    1.0626    0.0000 C   0  0  0  0  0  0  0  0  0  0  0  0
    1.3369   -1.0760    0.0001 C   0  0  0  0  0  0  0  0  0  0  0  0
   -0.9518    1.7988   -0.0001 C   0  0  0  0  0  0  0  0  0  0  0  0
    1.4957    1.6947    0.0000 C   0  0  0  0  0  0  0  0  0  0  0  0
   -2.1617   -0.2350    0.0000 C   0  0  0  0  0  0  0  0  0  0  0  0
    2.5848   -0.4479    0.0001 C   0  0  0  0  0  0  0  0  0  0  0  0
   -2.1756    1.1451   -0.0001 C   0  0  0  0  0  0  0  0  0  0  0  0
    2.6647    0.9392    0.0001 C   0  0  0  0  0  0  0  0  0  0  0  0
    1.3030   -2.5731   -0.0003 C   0  0  0  0  0  0  0  0  0  0  0  0
   -3.4544   -0.9806    0.0002 C   0  0  0  0  0  0  0  0  0  0  0  0
  1  2  2  0
  1  7  1  0
  2  3  1  0
  2  4  1  0
  3  5  2  0
  3  6  1  0
  4  8  2  0
  4 11  1  0
  5  9  1  0
  6 10  2  0
  7  9  2  0
  7 12  1  0
  8 10  1  0
M  END
>  <PUBCHEM_COMPOUND_CID>  (1) 
15101

>  <PUBCHEM_CONFORMER_RMSD>  (1) 
0.4

>  <PUBCHEM_CONFORMER_DIVERSEORDER>  (1) 
1

>  <PUBCHEM_MMFF94_PARTIAL_CHARGES>  (1) 
16
1 -0.62
10 -0.15
11 0.14
12 0.14
13 0.15
14 0.15
15 0.15
16 0.15
17 0.15
2 0.31
4 -0.14
5 -0.15
6 -0.15
7 0.17
8 -0.15
9 -0.15

>  <PUBCHEM_EFFECTIVE_ROTOR_COUNT>  (1) 
0

>  <PUBCHEM_PHARMACOPHORE_FEATURES>  (1) 
3
1 1 acceptor
6 1 2 3 5 7 9 rings
6 2 3 4 6 8 10 rings

>  <PUBCHEM_HEAVY_ATOM_COUNT>  (1) 
12

>  <PUBCHEM_ATOM_DEF_STEREO_COUNT>  (1) 
0

>  <PUBCHEM_ATOM_UDEF_STEREO_COUNT>  (1) 
0

>  <PUBCHEM_BOND_DEF_STEREO_COUNT>  (1) 
0

>  <PUBCHEM_BOND_UDEF_STEREO_COUNT>  (1) 
0

>  <PUBCHEM_ISOTOPIC_ATOM_COUNT>  (1) 
0

>  <PUBCHEM_COMPONENT_COUNT>  (1) 
1

>  <PUBCHEM_CACTVS_TAUTO_COUNT>  (1) 
1

>  <PUBCHEM_CONFORMER_ID>  (1) 
00003AFD00000001

>  <PUBCHEM_MMFF94_ENERGY>  (1) 
34.262

>  <PUBCHEM_FEATURE_SELFOVERLAP>  (1) 
15.254

>  <PUBCHEM_SHAPE_FINGERPRINT>  (1) 
10967382 1 18338516472723228551
11206711 2 18408326557619949845
11471102 20 18410288142673074517
12423570 1 10991218466380459964
12524768 44 18052540967323826543
12897270 3 18410011039529998461
13380535 21 18266753389062042305
13380535 76 18335980973235024346
14251717 144 18267860765086271287
14325111 11 18410855481603381537
16945 1 18410855442985365284
17844478 74 18113626702801420137
17990270 104 18338234847549438538
193761 8 18194682566355992165
19973954 147 18339080359032313377
20201158 50 18335419080028050651
20645477 70 18411975858942034607
21040471 1 18122625217563736260
21501502 16 18337955580127785313
2334 1 17762337320003457731
23402655 69 18268696256843273549
23463225 33 18334852788811385312
23552423 10 18335425616693754191
23559900 14 17333085322806311934
241688 4 17904765479480232416
2748010 2 18194962937573470278
5084963 1 18202286930681555320
528886 8 18267298909953520762
7364860 26 18270961233162740270
8809292 202 18187089493768658043

>  <PUBCHEM_SHAPE_MULTIPOLES>  (1) 
241.97
4.24
2.25
0.61
1.82
0.56
0
0.55
0
-0.61
0
-0.01
-0.01
0

>  <PUBCHEM_SHAPE_SELFOVERLAP>  (1) 
527.294

>  <PUBCHEM_SHAPE_VOLUME>  (1) 
132.8

>  <PUBCHEM_COORDINATE_TYPE>  (1) 
2
5
10

$$$$
