15112
     RDKit          3D

  5  4  0  0  0  0  0  0  0  0999 V2000
    0.4448    0.0001    0.1466 N   0  0  0  0  0  0  0  0  0  0  0  0
   -2.0562   -0.0001   -0.0592 N   0  0  0  0  0  0  0  0  0  0  0  0
    1.2557   -1.2305   -0.0616 C   0  0  0  0  0  0  0  0  0  0  0  0
    1.2557    1.2304   -0.0616 C   0  0  0  0  0  0  0  0  0  0  0  0
   -0.9000    0.0001    0.0359 C   0  0  0  0  0  0  0  0  0  0  0  0
  1  3  1  0
  1  4  1  0
  1  5  1  0
  2  5  3  0
M  END
>  <PUBCHEM_COMPOUND_CID>  (1) 
15112

>  <PUBCHEM_CONFORMER_RMSD>  (1) 
0.4

>  <PUBCHEM_CONFORMER_DIVERSEORDER>  (1) 
1

>  <PUBCHEM_MMFF94_PARTIAL_CHARGES>  (1) 
5
1 -0.84
2 -0.56
3 0.36
4 0.36
5 0.68

>  <PUBCHEM_EFFECTIVE_ROTOR_COUNT>  (1) 
0

>  <PUBCHEM_PHARMACOPHORE_FEATURES>  (1) 
3
1 1 cation
1 2 acceptor
3 1 2 5 cation

>  <PUBCHEM_HEAVY_ATOM_COUNT>  (1) 
5

>  <PUBCHEM_ATOM_DEF_STEREO_COUNT>  (1) 
0

>  <PUBCHEM_ATOM_UDEF_STEREO_COUNT>  (1) 
0

>  <PUBCHEM_BOND_DEF_STEREO_COUNT>  (1) 
0

>  <PUBCHEM_BOND_UDEF_STEREO_COUNT>  (1) 
0

>  <PUBCHEM_ISOTOPIC_ATOM_COUNT>  (1) 
0

>  <PUBCHEM_COMPONENT_COUNT>  (1) 
1

>  <PUBCHEM_CACTVS_TAUTO_COUNT>  (1) 
1

>  <PUBCHEM_CONFORMER_ID>  (1) 
00003B0800000001

>  <PUBCHEM_MMFF94_ENERGY>  (1) 
4.3799

>  <PUBCHEM_FEATURE_SELFOVERLAP>  (1) 
17.164

>  <PUBCHEM_SHAPE_FINGERPRINT>  (1) 
139733 1 9006184955338436042
20096714 4 18267585886720293736
21015797 1 8646773283089085368
21040471 1 18122343746660446832
29004967 10 18337112246172211138
5943 1 14110838055945929980

>  <PUBCHEM_SHAPE_MULTIPOLES>  (1) 
92.94
2.19
1.25
0.59
1.05
0
0
0
-0.07
-0.82
-0.03
-0.03
0
0

>  <PUBCHEM_SHAPE_SELFOVERLAP>  (1) 
159.569

>  <PUBCHEM_SHAPE_VOLUME>  (1) 
61.9

>  <PUBCHEM_COORDINATE_TYPE>  (1) 
2
5
10

$$$$
