15114
     RDKit          3D

 14 15  0  0  0  0  0  0  0  0999 V2000
   -3.6078    1.1009    0.0996 O   0  0  0  0  0  0  0  0  0  0  0  0
   -0.0717   -2.3026   -0.4612 O   0  0  0  0  0  0  0  0  0  0  0  0
   -1.2227   -0.3926    0.2367 N   0  0  0  0  0  0  0  0  0  0  0  0
   -1.2443    1.0161    0.6491 C   0  0  0  0  0  0  0  0  0  0  0  0
   -2.5247   -1.0557    0.2860 C   0  0  0  0  0  0  0  0  0  0  0  0
   -2.3535    1.7625   -0.0826 C   0  0  0  0  0  0  0  0  0  0  0  0
   -3.5722   -0.2236   -0.4392 C   0  0  0  0  0  0  0  0  0  0  0  0
   -0.0859   -1.1220   -0.1161 C   0  0  0  0  0  0  0  0  0  0  0  0
    1.2151   -0.4413   -0.0712 C   0  0  0  0  0  0  0  0  0  0  0  0
    1.9670   -0.4609    1.1007 C   0  0  0  0  0  0  0  0  0  0  0  0
    1.6903    0.2198   -1.2009 C   0  0  0  0  0  0  0  0  0  0  0  0
    3.2025    0.1851    1.1433 C   0  0  0  0  0  0  0  0  0  0  0  0
    2.9259    0.8658   -1.1582 C   0  0  0  0  0  0  0  0  0  0  0  0
    3.6819    0.8485    0.0139 C   0  0  0  0  0  0  0  0  0  0  0  0
  1  6  1  0
  1  7  1  0
  2  8  2  0
  3  4  1  0
  3  5  1  0
  3  8  1  0
  4  6  1  0
  5  7  1  0
  8  9  1  0
  9 10  2  0
  9 11  1  0
 10 12  1  0
 11 13  2  0
 12 14  2  0
 13 14  1  0
M  END
>  <PUBCHEM_COMPOUND_CID>  (1) 
15114

>  <PUBCHEM_CONFORMER_RMSD>  (1) 
0.6

>  <PUBCHEM_CONFORMER_DIVERSEORDER>  (1) 
1
3
2
4

>  <PUBCHEM_MMFF94_PARTIAL_CHARGES>  (1) 
19
1 -0.56
10 -0.15
11 -0.15
12 -0.15
13 -0.15
14 -0.15
2 -0.57
23 0.15
24 0.15
25 0.15
26 0.15
27 0.15
3 -0.66
4 0.3
5 0.3
6 0.28
7 0.28
8 0.54
9 0.09

>  <PUBCHEM_EFFECTIVE_ROTOR_COUNT>  (1) 
3.2

>  <PUBCHEM_PHARMACOPHORE_FEATURES>  (1) 
4
1 1 acceptor
1 2 acceptor
6 1 3 4 5 6 7 rings
6 9 10 11 12 13 14 rings

>  <PUBCHEM_HEAVY_ATOM_COUNT>  (1) 
14

>  <PUBCHEM_ATOM_DEF_STEREO_COUNT>  (1) 
0

>  <PUBCHEM_ATOM_UDEF_STEREO_COUNT>  (1) 
0

>  <PUBCHEM_BOND_DEF_STEREO_COUNT>  (1) 
0

>  <PUBCHEM_BOND_UDEF_STEREO_COUNT>  (1) 
0

>  <PUBCHEM_ISOTOPIC_ATOM_COUNT>  (1) 
0

>  <PUBCHEM_COMPONENT_COUNT>  (1) 
1

>  <PUBCHEM_CACTVS_TAUTO_COUNT>  (1) 
1

>  <PUBCHEM_CONFORMER_ID>  (1) 
00003B0A00000001

>  <PUBCHEM_MMFF94_ENERGY>  (1) 
37.7221

>  <PUBCHEM_FEATURE_SELFOVERLAP>  (1) 
20.297

>  <PUBCHEM_SHAPE_FINGERPRINT>  (1) 
10498660 4 18341896268652125613
11132069 177 18408884018884819245
11471102 22 15430310352350268436
12138202 97 17489304252169352374
12162725 195 18040997332267168697
12251169 10 17675923183592882880
12932764 1 17632858628863733687
13538477 17 18188485916685877858
13764800 53 18339656580745857649
14144814 61 17966970525741277576
14614273 12 18337388241145198469
15775835 57 18259989279474867516
16945 1 18340772653409005882
17357779 13 15192713676427049637
17846911 113 18341890796873865969
18186145 218 17489598852328560514
19107657 47 17022894649091802340
20233049 118 18413103970540646360
21028194 46 18412826858844233970
21524375 3 18409448072439074826
22802520 49 17487922032793057524
23048698 100 17312819394279028632
23402539 116 18059847385652602764
23402655 69 14117530830395028906
23557571 272 17917715763565786375
23559900 14 18060144245776940310
305870 269 18336826390392350298
474 4 17097781428925861204
7364860 26 17984703320393862406
77492 1 17967809491952618666
81228 2 17554884743119612974

>  <PUBCHEM_SHAPE_MULTIPOLES>  (1) 
271.39
6.45
1.6
1.07
0.8
0.23
-0.02
-2.1
0.12
0.83
-0.14
-0.82
-0.06
-0.38

>  <PUBCHEM_SHAPE_SELFOVERLAP>  (1) 
568.753

>  <PUBCHEM_SHAPE_VOLUME>  (1) 
152.5

>  <PUBCHEM_COORDINATE_TYPE>  (1) 
2
5
10

$$$$
