15117
     RDKit          3D

  7  7  0  0  1  0  0  0  0  0999 V2000
    1.2847    0.1551   -0.5331 S   0  0  0  0  0  0  0  0  0  0  0  0
   -0.0986    0.9727   -0.3308 O   0  0  0  0  0  0  0  0  0  0  0  0
    0.7321   -1.2701   -0.0004 O   0  0  0  0  0  0  0  0  0  0  0  0
    2.2698    0.6655    0.4761 O   0  0  0  0  0  0  0  0  0  0  0  0
   -1.0392    0.1675    0.3852 C   0  0  0  0  0  0  0  0  0  0  0  0
   -0.6939   -1.2525   -0.0115 C   0  0  0  0  0  0  0  0  0  0  0  0
   -2.4548    0.5619    0.0146 C   0  0  0  0  0  0  0  0  0  0  0  0
  1  2  1  0
  1  3  1  0
  1  4  2  0
  2  5  1  0
  3  6  1  0
  5  6  1  0
  5  7  1  0
M  END
>  <PUBCHEM_COMPOUND_CID>  (1) 
15117

>  <PUBCHEM_CONFORMER_RMSD>  (1) 
0.4

>  <PUBCHEM_CONFORMER_DIVERSEORDER>  (1) 
1
4
2
3

>  <PUBCHEM_MMFF94_PARTIAL_CHARGES>  (1) 
6
1 0.6
2 -0.33
3 -0.33
4 -0.5
5 0.28
6 0.28

>  <PUBCHEM_EFFECTIVE_ROTOR_COUNT>  (1) 
0.8

>  <PUBCHEM_PHARMACOPHORE_FEATURES>  (1) 
2
1 4 acceptor
5 1 2 3 5 6 rings

>  <PUBCHEM_HEAVY_ATOM_COUNT>  (1) 
7

>  <PUBCHEM_ATOM_DEF_STEREO_COUNT>  (1) 
0

>  <PUBCHEM_ATOM_UDEF_STEREO_COUNT>  (1) 
2

>  <PUBCHEM_BOND_DEF_STEREO_COUNT>  (1) 
0

>  <PUBCHEM_BOND_UDEF_STEREO_COUNT>  (1) 
0

>  <PUBCHEM_ISOTOPIC_ATOM_COUNT>  (1) 
0

>  <PUBCHEM_COMPONENT_COUNT>  (1) 
1

>  <PUBCHEM_CACTVS_TAUTO_COUNT>  (1) 
1

>  <PUBCHEM_CONFORMER_ID>  (1) 
00003B0D00000001

>  <PUBCHEM_MMFF94_ENERGY>  (1) 
7.7211

>  <PUBCHEM_FEATURE_SELFOVERLAP>  (1) 
10.148

>  <PUBCHEM_SHAPE_FINGERPRINT>  (1) 
14390081 3 18201719526952815953
16714656 1 18335149708205759804
20096714 4 18411707564486277231
21040471 1 18409176510230851239
29004967 10 18113912524042330897

>  <PUBCHEM_SHAPE_MULTIPOLES>  (1) 
130.3
2.73
1.23
0.7
0.33
0.36
-0.02
-0.84
0.2
0
-0.01
-0.1
-0.04
0.08

>  <PUBCHEM_SHAPE_SELFOVERLAP>  (1) 
242.086

>  <PUBCHEM_SHAPE_VOLUME>  (1) 
83.6

>  <PUBCHEM_COORDINATE_TYPE>  (1) 
2
5
10

$$$$
