15128
     RDKit          3D

 24 24  0  0  0  0  0  0  0  0999 V2000
    4.7346    1.6772    2.5944 Cl  0  0  0  0  0  0  0  0  0  0  0  0
    5.9482    1.5038   -0.0514 Cl  0  0  0  0  0  0  0  0  0  0  0  0
   -3.3014   -2.7087    1.8621 Cl  0  0  0  0  0  0  0  0  0  0  0  0
   -5.1000   -2.2296   -0.3828 Cl  0  0  0  0  0  0  0  0  0  0  0  0
    4.4939   -0.9940    1.7051 O   0  0  0  0  0  0  0  0  0  0  0  0
   -4.3200   -0.0852    2.1138 O   0  0  0  0  0  0  0  0  0  0  0  0
    3.2547   -0.6024   -0.2307 N   0  0  0  0  0  0  0  0  0  0  0  0
   -3.5500    0.7838    0.1106 N   0  0  0  0  0  0  0  0  0  0  0  0
    2.7545    0.2731   -1.2601 C   0  0  0  0  0  0  0  0  0  0  0  0
   -3.0176    0.6169   -1.2381 C   0  0  0  0  0  0  0  0  0  0  0  0
    1.2659    0.3627   -1.2542 C   0  0  0  0  0  0  0  0  0  0  0  0
   -1.5189    0.5281   -1.2435 C   0  0  0  0  0  0  0  0  0  0  0  0
    0.5580    0.2836   -2.4534 C   0  0  0  0  0  0  0  0  0  0  0  0
   -0.8344    0.3663   -2.4481 C   0  0  0  0  0  0  0  0  0  0  0  0
    0.5815    0.5244   -0.0495 C   0  0  0  0  0  0  0  0  0  0  0  0
   -0.8109    0.6071   -0.0442 C   0  0  0  0  0  0  0  0  0  0  0  0
    2.8974   -2.0182   -0.3543 C   0  0  0  0  0  0  0  0  0  0  0  0
   -3.7941    2.1595    0.5250 C   0  0  0  0  0  0  0  0  0  0  0  0
    4.0843   -0.2128    0.8400 C   0  0  0  0  0  0  0  0  0  0  0  0
   -3.8706   -0.2662    0.9772 C   0  0  0  0  0  0  0  0  0  0  0  0
    3.9001   -2.7714   -1.2037 C   0  0  0  0  0  0  0  0  0  0  0  0
   -5.1813    2.6207    0.1281 C   0  0  0  0  0  0  0  0  0  0  0  0
    4.4628    1.2560    0.8950 C   0  0  0  0  0  0  0  0  0  0  0  0
   -3.6368   -1.6749    0.4627 C   0  0  0  0  0  0  0  0  0  0  0  0
  1 23  1  0
  2 23  1  0
  3 24  1  0
  4 24  1  0
  5 19  2  0
  6 20  2  0
  7  9  1  0
  7 17  1  0
  7 19  1  0
  8 10  1  0
  8 18  1  0
  8 20  1  0
  9 11  1  0
 10 12  1  0
 11 13  2  0
 11 15  1  0
 12 14  2  0
 12 16  1  0
 13 14  1  0
 15 16  2  0
 17 21  1  0
 18 22  1  0
 19 23  1  0
 20 24  1  0
M  END
>  <PUBCHEM_COMPOUND_CID>  (1) 
15128

>  <PUBCHEM_CONFORMER_RMSD>  (1) 
1.2

>  <PUBCHEM_CONFORMER_DIVERSEORDER>  (1) 
3
55
7
8
60
34
76
31
51
59
28
69
17
54
72
36
25
66
84
64
9
50
70
39
53
45
56
47
19
1
68
61
10
77
37
63
14
78
46
80
12
81
74
11
83
41
82
42
48
44
30
22
67
35
32
85
18
5
26
13
87
73
52
16
49
62
20
2
71
65
29
79
57
40
21
33
23
6
43
75
15
24
58
27
38
86
4

>  <PUBCHEM_MMFF94_PARTIAL_CHARGES>  (1) 
26
1 -0.29
10 0.44
11 -0.14
12 -0.14
13 -0.15
14 -0.15
15 -0.15
16 -0.15
17 0.3
18 0.3
19 0.57
2 -0.29
20 0.57
23 0.64
24 0.64
29 0.15
3 -0.29
30 0.15
31 0.15
32 0.15
4 -0.29
5 -0.57
6 -0.57
7 -0.66
8 -0.66
9 0.44

>  <PUBCHEM_EFFECTIVE_ROTOR_COUNT>  (1) 
10

>  <PUBCHEM_PHARMACOPHORE_FEATURES>  (1) 
3
1 5 acceptor
1 6 acceptor
6 11 12 13 14 15 16 rings

>  <PUBCHEM_HEAVY_ATOM_COUNT>  (1) 
24

>  <PUBCHEM_ATOM_DEF_STEREO_COUNT>  (1) 
0

>  <PUBCHEM_ATOM_UDEF_STEREO_COUNT>  (1) 
0

>  <PUBCHEM_BOND_DEF_STEREO_COUNT>  (1) 
0

>  <PUBCHEM_BOND_UDEF_STEREO_COUNT>  (1) 
0

>  <PUBCHEM_ISOTOPIC_ATOM_COUNT>  (1) 
0

>  <PUBCHEM_COMPONENT_COUNT>  (1) 
1

>  <PUBCHEM_CACTVS_TAUTO_COUNT>  (1) 
1

>  <PUBCHEM_CONFORMER_ID>  (1) 
00003B1800000003

>  <PUBCHEM_MMFF94_ENERGY>  (1) 
55.2168

>  <PUBCHEM_FEATURE_SELFOVERLAP>  (1) 
15.223

>  <PUBCHEM_SHAPE_FINGERPRINT>  (1) 
10447042 23 15430307066911251168
10928967 22 16008756809330892851
11045977 3 18270122305595497022
11370993 144 18340206271881989399
12422481 6 17459185192520671139
12523318 42 18340485664359029563
12553582 1 16443637813001764871
12596599 1 17458636652441360475
12596602 18 17203331164731360683
12616971 3 14996289093283359237
12644460 14 17274829034741943382
12892183 10 18272931630665765845
13583140 156 18131910464200224289
13675066 3 18341896238344235653
13944108 23 11160705400748401563
14251751 18 11241970391209086336
14848178 5 17676764370313359395
14848178 96 14261359024371625058
14950920 106 18336250259495359184
15537594 2 16371306423346498802
16120349 306 17676761003164241803
17349148 13 14634866414646634088
17857418 61 17022894696499771440
1813 80 16588318167423967463
19141452 34 17749392525234124773
19377110 9 18335708298561939853
20775530 9 17102302680863855347
23503953 91 18041285387297638733
23559900 14 18337685104915618238
312425 54 18260538988196778464
339767 52 17168412878556005619
3459 110 18058729242467239905
474 4 14692298309090523047
5104073 3 18271803488749227330
57724786 102 16701754760418020744
5924683 9 18410574007433604135
6034566 193 16629677499772746120
633830 44 13614530653140554724
7064713 232 18187366506400623715
90127 26 17846785078683606396

>  <PUBCHEM_SHAPE_MULTIPOLES>  (1) 
479.69
13.53
2.75
2.3
3.83
1.05
-0.1
-1.74
-6.35
-1.59
-0.7
0.68
-0.01
2.12

>  <PUBCHEM_SHAPE_SELFOVERLAP>  (1) 
932.528

>  <PUBCHEM_SHAPE_VOLUME>  (1) 
291.9

>  <PUBCHEM_COORDINATE_TYPE>  (1) 
2
5
10

$$$$
