1513
     RDKit          3D

 19 21  0  0  0  0  0  0  0  0999 V2000
    3.1184   -2.1327    0.0002 O   0  0  0  0  0  0  0  0  0  0  0  0
    0.2148    0.9607   -0.0024 N   0  0  0  0  0  0  0  0  0  0  0  0
    0.5581   -1.2352   -0.0022 N   0  0  0  0  0  0  0  0  0  0  0  0
    2.8708    1.5150   -0.0009 N   0  0  0  0  0  0  0  0  0  0  0  0
   -5.8484   -0.2881    0.0041 N   0  0  0  0  0  0  0  0  0  0  0  0
   -4.9562    1.8718   -0.0021 N   0  0  0  0  0  0  0  0  0  0  0  0
   -1.0344    0.3949   -0.0014 C   0  0  0  0  0  0  0  0  0  0  0  0
   -0.7933   -0.9761   -0.0013 C   0  0  0  0  0  0  0  0  0  0  0  0
    1.1321   -0.0530   -0.0028 C   0  0  0  0  0  0  0  0  0  0  0  0
   -2.3155    0.9479   -0.0004 C   0  0  0  0  0  0  0  0  0  0  0  0
   -3.3884    0.0506    0.0006 C   0  0  0  0  0  0  0  0  0  0  0  0
   -1.8830   -1.8632   -0.0002 C   0  0  0  0  0  0  0  0  0  0  0  0
    2.5524    0.2018   -0.0020 C   0  0  0  0  0  0  0  0  0  0  0  0
   -3.1783   -1.3304    0.0007 C   0  0  0  0  0  0  0  0  0  0  0  0
    3.4821   -0.8242   -0.0004 C   0  0  0  0  0  0  0  0  0  0  0  0
   -4.7487    0.5673    0.0024 C   0  0  0  0  0  0  0  0  0  0  0  0
    4.8293   -0.4796    0.0026 C   0  0  0  0  0  0  0  0  0  0  0  0
    4.1899    1.8113    0.0018 C   0  0  0  0  0  0  0  0  0  0  0  0
    5.1983    0.8610    0.0037 C   0  0  0  0  0  0  0  0  0  0  0  0
  1 15  1  0
  2  7  1  0
  2  9  1  0
  3  8  1  0
  3  9  2  0
  4 13  2  0
  4 18  1  0
  5 16  1  0
  6 16  2  0
  7  8  2  0
  7 10  1  0
  8 12  1  0
  9 13  1  0
 10 11  2  0
 11 14  1  0
 11 16  1  0
 12 14  2  0
 13 15  1  0
 15 17  2  0
 17 19  1  0
 18 19  2  0
M  END
>  <PUBCHEM_COMPOUND_CID>  (1) 
1513

>  <PUBCHEM_CONFORMER_RMSD>  (1) 
0.6

>  <PUBCHEM_CONFORMER_DIVERSEORDER>  (1) 
1
4
3
2
5

>  <PUBCHEM_MMFF94_PARTIAL_CHARGES>  (1) 
30
1 -0.53
10 -0.15
11 0.09
12 -0.15
13 0.36
14 -0.15
15 0.08
16 0.41
17 -0.15
18 0.16
19 -0.15
2 0.03
20 0.27
21 0.15
22 0.15
23 0.15
24 0.15
25 0.15
26 0.15
27 0.4
28 0.4
29 0.45
3 -0.57
30 0.4
4 -0.62
5 -0.85
6 -0.85
7 -0.15
8 0.23
9 0.13

>  <PUBCHEM_EFFECTIVE_ROTOR_COUNT>  (1) 
2

>  <PUBCHEM_PHARMACOPHORE_FEATURES>  (1) 
10
1 1 donor
1 2 donor
1 4 acceptor
1 5 donor
1 6 donor
3 2 3 9 cation
3 5 6 16 cation
5 2 3 7 8 9 rings
6 4 13 15 17 18 19 rings
6 7 8 10 11 12 14 rings

>  <PUBCHEM_HEAVY_ATOM_COUNT>  (1) 
19

>  <PUBCHEM_ATOM_DEF_STEREO_COUNT>  (1) 
0

>  <PUBCHEM_ATOM_UDEF_STEREO_COUNT>  (1) 
0

>  <PUBCHEM_BOND_DEF_STEREO_COUNT>  (1) 
0

>  <PUBCHEM_BOND_UDEF_STEREO_COUNT>  (1) 
0

>  <PUBCHEM_ISOTOPIC_ATOM_COUNT>  (1) 
0

>  <PUBCHEM_COMPONENT_COUNT>  (1) 
1

>  <PUBCHEM_CACTVS_TAUTO_COUNT>  (1) 
17

>  <PUBCHEM_CONFORMER_ID>  (1) 
000005E900000001

>  <PUBCHEM_MMFF94_ENERGY>  (1) 
49.1016

>  <PUBCHEM_FEATURE_SELFOVERLAP>  (1) 
50.896

>  <PUBCHEM_SHAPE_FINGERPRINT>  (1) 
10014705 185 18408602578357309861
10616163 171 18340769363770558118
11089746 13 17703783743500527984
11471102 20 18412262839955489884
12107183 9 17763747585352379785
12236239 1 18410573980867033387
12788726 201 17632303319667753632
13533116 47 17845936234274506482
13675066 3 18040723571204618083
13760787 19 18342175604782258014
13785724 45 17619348701908274634
15196674 1 18410855485924560198
15375358 24 18413393141613402574
15536298 74 18413108368655443086
17834072 33 18343580767715293415
1813 80 16732704939098247062
18186145 218 17822002129717190446
200 152 17918273164342248915
20645477 56 18333448750922391669
20645477 70 18271810081935762654
21033648 29 18188474831486504981
21267235 1 18411145722703236898
21421861 104 17823405016787279050
23402539 116 18273208695080477949
23402655 69 18413388761178946076
23559900 14 18342738516486824120
300161 21 18412819201001882688
3004659 81 18336267860645818918
335352 9 18410575072606670806
34797466 226 17417820594363424756
34934 24 18411976988154163342
3545911 37 18410576197376210668
4073 2 18040721424148595794
4214541 1 18410855468834290341
42788 4 18410855455843763493
4340502 62 16950287286982722171
474 4 17822296833293438604
495365 180 17417799682578688666
5104073 3 18408322206844381754
542803 24 17561085804163556825
543358 83 18411703154061350994
59755656 215 18410580552853091158
633830 44 18040995176378306386
69090 78 18412260640362840535
77779 3 18410293640030805130
8272917 22 18342741780467323214
9709674 26 18410862092038409870

>  <PUBCHEM_SHAPE_MULTIPOLES>  (1) 
360.24
12.05
1.85
0.59
2.37
0.17
0
-3.23
0.02
-0.25
0
-0.02
0
0

>  <PUBCHEM_SHAPE_SELFOVERLAP>  (1) 
807.158

>  <PUBCHEM_SHAPE_VOLUME>  (1) 
191.1

>  <PUBCHEM_COORDINATE_TYPE>  (1) 
2
5
10

$$$$
