15133
     RDKit          3D

 10 10  0  0  0  0  0  0  0  0999 V2000
   -2.9817    1.3535    0.7264 N   0  0  0  0  0  0  0  0  0  0  0  0
    2.9818    1.3534    0.7264 N   0  0  0  0  0  0  0  0  0  0  0  0
   -1.2080   -0.0159   -0.2783 C   0  0  0  0  0  0  0  0  0  0  0  0
    1.2080   -0.0158   -0.2783 C   0  0  0  0  0  0  0  0  0  0  0  0
   -0.0001    0.6525   -0.4782 C   0  0  0  0  0  0  0  0  0  0  0  0
   -2.4999    0.6987   -0.4909 C   0  0  0  0  0  0  0  0  0  0  0  0
    2.5000    0.6985   -0.4910 C   0  0  0  0  0  0  0  0  0  0  0  0
   -1.2079   -1.3523    0.1213 C   0  0  0  0  0  0  0  0  0  0  0  0
    1.2079   -1.3522    0.1214 C   0  0  0  0  0  0  0  0  0  0  0  0
    0.0000   -2.0205    0.3212 C   0  0  0  0  0  0  0  0  0  0  0  0
  1  6  1  0
  2  7  1  0
  3  5  2  0
  3  6  1  0
  3  8  1  0
  4  5  1  0
  4  7  1  0
  4  9  2  0
  8 10  2  0
  9 10  1  0
M  END
>  <PUBCHEM_COMPOUND_CID>  (1) 
15133

>  <PUBCHEM_CONFORMER_RMSD>  (1) 
0.4

>  <PUBCHEM_CONFORMER_DIVERSEORDER>  (1) 
1
9
5
6
2
3
4
7
8

>  <PUBCHEM_MMFF94_PARTIAL_CHARGES>  (1) 
18
1 -0.99
10 -0.15
11 0.15
16 0.15
17 0.15
18 0.15
19 0.36
2 -0.99
20 0.36
21 0.36
22 0.36
3 -0.14
4 -0.14
5 -0.15
6 0.41
7 0.41
8 -0.15
9 -0.15

>  <PUBCHEM_EFFECTIVE_ROTOR_COUNT>  (1) 
2

>  <PUBCHEM_PHARMACOPHORE_FEATURES>  (1) 
5
1 1 cation
1 1 donor
1 2 cation
1 2 donor
6 3 4 5 8 9 10 rings

>  <PUBCHEM_HEAVY_ATOM_COUNT>  (1) 
10

>  <PUBCHEM_ATOM_DEF_STEREO_COUNT>  (1) 
0

>  <PUBCHEM_ATOM_UDEF_STEREO_COUNT>  (1) 
0

>  <PUBCHEM_BOND_DEF_STEREO_COUNT>  (1) 
0

>  <PUBCHEM_BOND_UDEF_STEREO_COUNT>  (1) 
0

>  <PUBCHEM_ISOTOPIC_ATOM_COUNT>  (1) 
0

>  <PUBCHEM_COMPONENT_COUNT>  (1) 
1

>  <PUBCHEM_CACTVS_TAUTO_COUNT>  (1) 
1

>  <PUBCHEM_CONFORMER_ID>  (1) 
00003B1D00000001

>  <PUBCHEM_MMFF94_ENERGY>  (1) 
18.4594

>  <PUBCHEM_FEATURE_SELFOVERLAP>  (1) 
25.371

>  <PUBCHEM_SHAPE_FINGERPRINT>  (1) 
10857977 72 16951145979709769157
13380535 76 18408598179952414462
14325111 11 18409449189056517461
14390081 3 18272368685018101277
16945 1 17822009813144521486
20645464 45 18342458196566243756
20653085 51 17489320675818271785
21040471 1 18334580165419601302
23235685 24 18335138691430094188
241688 4 16896800160247908466
2748010 2 18334584533306675159
369184 2 18057323001470850638

>  <PUBCHEM_SHAPE_MULTIPOLES>  (1) 
195.83
3.94
1.85
0.78
0
0.75
-0.03
-2.6
-0.58
0
-0.3
0
-0.16
0

>  <PUBCHEM_SHAPE_SELFOVERLAP>  (1) 
398.007

>  <PUBCHEM_SHAPE_VOLUME>  (1) 
112.3

>  <PUBCHEM_COORDINATE_TYPE>  (1) 
2
5
10

$$$$
