15139
     RDKit          3D

 26 28  0  0  0  0  0  0  0  0999 V2000
   -9.3476   -0.4935   -0.0355 F   0  0  0  0  0  0  0  0  0  0  0  0
    4.9379    1.8189   -0.7325 O   0  0  0  0  0  0  0  0  0  0  0  0
   -3.5410    1.7033    0.8653 O   0  0  0  0  0  0  0  0  0  0  0  0
    0.7749   -1.0034   -0.1623 N   0  0  0  0  0  0  0  0  0  0  0  0
    3.5904   -0.5507    0.0028 N   0  0  0  0  0  0  0  0  0  0  0  0
    1.7071   -1.8378   -0.9306 C   0  0  0  0  0  0  0  0  0  0  0  0
    1.3028    0.3617   -0.0501 C   0  0  0  0  0  0  0  0  0  0  0  0
    3.0756   -1.9027   -0.2485 C   0  0  0  0  0  0  0  0  0  0  0  0
    2.6586    0.3707    0.6603 C   0  0  0  0  0  0  0  0  0  0  0  0
   -0.5441   -0.9932   -0.7940 C   0  0  0  0  0  0  0  0  0  0  0  0
   -1.5270   -0.1763    0.0472 C   0  0  0  0  0  0  0  0  0  0  0  0
    4.9683   -0.3962    0.1914 C   0  0  0  0  0  0  0  0  0  0  0  0
   -2.9273   -0.1367   -0.5707 C   0  0  0  0  0  0  0  0  0  0  0  0
    5.6375    0.7893   -0.1772 C   0  0  0  0  0  0  0  0  0  0  0  0
    5.7321   -1.4346    0.7623 C   0  0  0  0  0  0  0  0  0  0  0  0
   -3.9060    0.7336    0.2049 C   0  0  0  0  0  0  0  0  0  0  0  0
    7.0117    0.9296    0.0170 C   0  0  0  0  0  0  0  0  0  0  0  0
    7.1064   -1.2941    0.9563 C   0  0  0  0  0  0  0  0  0  0  0  0
    7.7461   -0.1121    0.5836 C   0  0  0  0  0  0  0  0  0  0  0  0
   -5.3588    0.4060    0.1406 C   0  0  0  0  0  0  0  0  0  0  0  0
   -5.8533   -0.1854   -1.0003 C   0  0  0  0  0  0  0  0  0  0  0  0
   -6.1527    0.7067    1.2249 C   0  0  0  0  0  0  0  0  0  0  0  0
    5.6753    2.9883   -1.0820 C   0  0  0  0  0  0  0  0  0  0  0  0
   -7.2128   -0.4919   -1.0603 C   0  0  0  0  0  0  0  0  0  0  0  0
   -7.5122    0.4000    1.1650 C   0  0  0  0  0  0  0  0  0  0  0  0
   -8.0422   -0.1995    0.0224 C   0  0  0  0  0  0  0  0  0  0  0  0
  1 26  1  0
  2 14  1  0
  2 23  1  0
  3 16  2  0
  4  6  1  0
  4  7  1  0
  4 10  1  0
  5  8  1  0
  5  9  1  0
  5 12  1  0
  6  8  1  0
  7  9  1  0
 10 11  1  0
 11 13  1  0
 12 14  2  0
 12 15  1  0
 13 16  1  0
 14 17  1  0
 15 18  2  0
 16 20  1  0
 17 19  2  0
 18 19  1  0
 20 21  2  0
 20 22  1  0
 21 24  1  0
 22 25  2  0
 24 26  2  0
 25 26  1  0
M  END
>  <PUBCHEM_COMPOUND_CID>  (1) 
15139

>  <PUBCHEM_CONFORMER_RMSD>  (1) 
1

>  <PUBCHEM_CONFORMER_DIVERSEORDER>  (1) 
4
197
135
123
40
43
211
37
49
223
60
58
167
208
175
189
216
33
190
106
109
165
3
184
136
162
89
5
26
21
87
152
178
65
193
88
75
7
218
224
192
29
69
68
182
53
92
126
156
95
206
59
83
71
185
98
130
195
169
221
201
181
179
2
160
38
139
188
228
11
210
45
79
183
50
96
119
203
85
161
145
187
94
166
115
118
113
205
72
226
32
101
137
191
18
212
154
111
15
225
204
112
91
66
143
157
222
168
220
74
129
30
108
138
100
199
56
110
134
140
73
200
177
120
62
127
46
219
116
51
14
125
227
207
131
132
176
141
24
171
146
174
44
64
93
9
170
76
103
27
158
104
217
180
16
151
144
47
19
23
172
90
155
121
122
213
8
61
70
82
1
55
31
198
36
54
194
57
42
186
147
114
35
102
77
164
97
39
48
80
150
34
99
105
117
209
10
13
128
81
28
215
22
133
124
17
6
52
173
12
84
196
41
86
202
149
163
20
153
142
148
159
78
214
63
67
25
107

>  <PUBCHEM_MMFF94_PARTIAL_CHARGES>  (1) 
33
1 -0.19
10 0.27
12 0.1
13 0.06
14 0.08
15 -0.15
16 0.42
17 -0.15
18 -0.15
19 -0.15
2 -0.36
20 0.09
21 -0.15
22 -0.15
23 0.28
24 -0.15
25 -0.15
26 0.19
3 -0.57
4 -0.81
41 0.15
42 0.15
43 0.15
44 0.15
45 0.15
46 0.15
5 -0.84
50 0.15
51 0.15
6 0.27
7 0.27
8 0.37
9 0.37

>  <PUBCHEM_EFFECTIVE_ROTOR_COUNT>  (1) 
8.2

>  <PUBCHEM_PHARMACOPHORE_FEATURES>  (1) 
7
1 2 acceptor
1 3 acceptor
1 4 cation
1 5 cation
6 12 14 15 17 18 19 rings
6 20 21 22 24 25 26 rings
6 4 5 6 7 8 9 rings

>  <PUBCHEM_HEAVY_ATOM_COUNT>  (1) 
26

>  <PUBCHEM_ATOM_DEF_STEREO_COUNT>  (1) 
0

>  <PUBCHEM_ATOM_UDEF_STEREO_COUNT>  (1) 
0

>  <PUBCHEM_BOND_DEF_STEREO_COUNT>  (1) 
0

>  <PUBCHEM_BOND_UDEF_STEREO_COUNT>  (1) 
0

>  <PUBCHEM_ISOTOPIC_ATOM_COUNT>  (1) 
0

>  <PUBCHEM_COMPONENT_COUNT>  (1) 
1

>  <PUBCHEM_CACTVS_TAUTO_COUNT>  (1) 
2

>  <PUBCHEM_CONFORMER_ID>  (1) 
00003B2300000004

>  <PUBCHEM_MMFF94_ENERGY>  (1) 
86.4231

>  <PUBCHEM_FEATURE_SELFOVERLAP>  (1) 
35.524

>  <PUBCHEM_SHAPE_FINGERPRINT>  (1) 
10 15 18113901567311850239
10162869 55 18409720790014437966
10299344 5 18273494576551040287
10319688 140 12966587304547802204
106641 1 18114181947177298035
11315181 36 17917711293707370867
11524674 6 15357701890133604867
11638347 137 17675925369736908026
11724838 91 18341892991349044151
13885169 127 13840261468897802959
14123256 10 18059855069517776723
14251764 18 18343863311880339418
14251764 46 18412824686091955106
14429380 56 18261664952159099268
14849402 71 18201717396396258721
15131766 46 16808155772549793748
15183329 4 16702307857790272730
15301273 46 15936125261828385734
15419008 47 16587735443441518709
15510794 2 15647049336172200634
15840311 113 18334860541633952692
15849732 13 16153428346190919419
16120349 18 18334010618327861100
18335252 98 18059859463581050783
20157964 124 18408604752027778818
20281389 69 18412259532609470304
21150785 3 16343704339382847526
21315759 40 18272650147078040785
21315763 28 18334011662036555816
22149856 69 17560531594373572939
22224240 67 17894630357252344131
28498 318 8430320138495431939
3711267 37 17131562691128429121
397830 11 17096381694150537968
4017518 198 15502379997581380706
4073 2 18261677068320428387
4325135 7 18131349709476062839
4340502 62 17748828497355344818
4625314 4 18335137588092991111
5758199 1 17917992767761493431
59682541 35 18342457062921906779

>  <PUBCHEM_SHAPE_MULTIPOLES>  (1) 
506.09
28.89
1.81
1.06
28.15
0.75
-0.02
2.71
-3.82
-3.88
0.46
0.57
0.08
-2.15

>  <PUBCHEM_SHAPE_SELFOVERLAP>  (1) 
1067.634

>  <PUBCHEM_SHAPE_VOLUME>  (1) 
285

>  <PUBCHEM_COORDINATE_TYPE>  (1) 
2
5
10

$$$$
