15141
     RDKit          3D

 12 12  0  0  1  0  0  0  0  0999 V2000
   -1.9075    0.3667    0.1611 C   0  0  0  0  0  0  0  0  0  0  0  0
   -0.4084    0.1248    0.1196 C   0  0  0  0  0  0  0  0  0  0  0  0
   -2.7381   -0.9131   -0.0646 C   0  0  0  0  0  0  0  0  0  0  0  0
    0.4415    1.1200   -0.3239 C   0  0  0  0  0  0  0  0  0  0  0  0
   -2.3106    1.0242    1.4866 C   0  0  0  0  0  0  0  0  0  0  0  0
    0.0641   -1.1065    0.5348 C   0  0  0  0  0  0  0  0  0  0  0  0
   -2.4166   -1.6104   -1.3810 C   0  0  0  0  0  0  0  0  0  0  0  0
    1.8144    0.8758   -0.3538 C   0  0  0  0  0  0  0  0  0  0  0  0
    2.3123   -0.3596    0.0605 C   0  0  0  0  0  0  0  0  0  0  0  0
    1.4370   -1.3507    0.5048 C   0  0  0  0  0  0  0  0  0  0  0  0
   -0.0682    2.4500   -0.7729 C   0  0  0  0  0  0  0  0  0  0  0  0
    3.7801   -0.6212    0.0288 C   0  0  0  0  0  0  0  0  0  0  0  0
  1  2  1  0
  1  3  1  0
  1  5  1  0
  2  4  2  0
  2  6  1  0
  3  7  1  0
  4  8  1  0
  4 11  1  0
  6 10  2  0
  8  9  2  0
  9 10  1  0
  9 12  1  0
M  END
>  <PUBCHEM_COMPOUND_CID>  (1) 
15141

>  <PUBCHEM_CONFORMER_RMSD>  (1) 
0.6

>  <PUBCHEM_CONFORMER_DIVERSEORDER>  (1) 
2
3
4
6
1
5

>  <PUBCHEM_MMFF94_PARTIAL_CHARGES>  (1) 
12
1 0.14
10 -0.15
11 0.14
12 0.14
19 0.15
2 -0.14
23 0.15
24 0.15
4 -0.14
6 -0.15
8 -0.15
9 -0.14

>  <PUBCHEM_EFFECTIVE_ROTOR_COUNT>  (1) 
2

>  <PUBCHEM_PHARMACOPHORE_FEATURES>  (1) 
3
1 5 hydrophobe
1 7 hydrophobe
6 2 4 6 8 9 10 rings

>  <PUBCHEM_HEAVY_ATOM_COUNT>  (1) 
12

>  <PUBCHEM_ATOM_DEF_STEREO_COUNT>  (1) 
0

>  <PUBCHEM_ATOM_UDEF_STEREO_COUNT>  (1) 
1

>  <PUBCHEM_BOND_DEF_STEREO_COUNT>  (1) 
0

>  <PUBCHEM_BOND_UDEF_STEREO_COUNT>  (1) 
0

>  <PUBCHEM_ISOTOPIC_ATOM_COUNT>  (1) 
0

>  <PUBCHEM_COMPONENT_COUNT>  (1) 
1

>  <PUBCHEM_CACTVS_TAUTO_COUNT>  (1) 
1

>  <PUBCHEM_CONFORMER_ID>  (1) 
00003B2500000002

>  <PUBCHEM_MMFF94_ENERGY>  (1) 
31.8474

>  <PUBCHEM_FEATURE_SELFOVERLAP>  (1) 
15.223

>  <PUBCHEM_SHAPE_FINGERPRINT>  (1) 
11132069 177 18340764849927975056
11206711 2 18041559135749081140
11769659 78 18131061675451671726
12423570 1 18195536887001362210
12932764 1 18338233748359408362
14128692 85 18271237347830264119
14993402 34 18409728482242836222
16945 1 18041001721987411490
18534176 82 15502374526030271379
19026448 4 16702304533970985978
193761 8 17540529124401739690
20871998 184 18121503453277941652
22112679 90 18342470256465444605
23402539 116 18261106345171929182
23552423 10 18194118757799268047
241688 4 18408316692080142152
2748010 2 16965493841631751140
449060 23 18202284723026479294
5084963 1 18410852195974174425
528886 8 18333730191275522563
63268167 104 18261954171051430301
6992083 37 18271257031770863761

>  <PUBCHEM_SHAPE_MULTIPOLES>  (1) 
246.95
4.59
1.97
1.08
1.78
0.74
0.03
-1.66
0.05
-0.44
-0.48
-0.76
0.02
-0.91

>  <PUBCHEM_SHAPE_SELFOVERLAP>  (1) 
500.187

>  <PUBCHEM_SHAPE_VOLUME>  (1) 
142.8

>  <PUBCHEM_COORDINATE_TYPE>  (1) 
2
5
10

$$$$
