1514
     RDKit          3D

 23 25  0  0  0  0  0  0  0  0999 V2000
    0.1377    0.6198    0.6412 S   0  0  0  0  0  0  0  0  0  0  0  0
   -2.8238    1.0423    0.6604 S   0  0  0  0  0  0  0  0  0  0  0  0
   -5.5795    0.3952   -0.0885 S   0  0  0  0  0  0  0  0  0  0  0  0
    0.4491    1.7709   -0.1823 O   0  0  0  0  0  0  0  0  0  0  0  0
    0.1008    0.6944    2.0877 O   0  0  0  0  0  0  0  0  0  0  0  0
    5.2211    1.4217   -1.1173 O   0  0  0  0  0  0  0  0  0  0  0  0
   -5.6339    1.8230    0.2035 O   0  0  0  0  0  0  0  0  0  0  0  0
   -6.1824   -0.1365   -1.3043 O   0  0  0  0  0  0  0  0  0  0  0  0
    1.0713   -0.7291    0.1523 N   0  0  0  0  0  0  0  0  0  0  0  0
   -6.2459   -0.4401    1.2564 N   0  0  0  0  0  0  0  0  0  0  0  0
   -1.4777    0.1574    0.1585 C   0  0  0  0  0  0  0  0  0  0  0  0
   -1.7837   -0.9011   -0.6509 C   0  0  0  0  0  0  0  0  0  0  0  0
    0.5732   -1.6388   -0.8476 C   0  0  0  0  0  0  0  0  0  0  0  0
   -0.7320   -1.7168   -1.1660 C   0  0  0  0  0  0  0  0  0  0  0  0
    2.4995   -0.5993    0.2649 C   0  0  0  0  0  0  0  0  0  0  0  0
   -3.1815   -1.0045   -0.8744 C   0  0  0  0  0  0  0  0  0  0  0  0
   -3.8730   -0.0074   -0.2113 C   0  0  0  0  0  0  0  0  0  0  0  0
    3.1774    0.3609   -0.4891 C   0  0  0  0  0  0  0  0  0  0  0  0
    3.2130   -1.4341    1.1278 C   0  0  0  0  0  0  0  0  0  0  0  0
    4.5625    0.4859   -0.3806 C   0  0  0  0  0  0  0  0  0  0  0  0
    4.5978   -1.3091    1.2362 C   0  0  0  0  0  0  0  0  0  0  0  0
    5.2727   -0.3491    0.4821 C   0  0  0  0  0  0  0  0  0  0  0  0
    6.6372    1.4944   -0.9586 C   0  0  0  0  0  0  0  0  0  0  0  0
  1  4  2  0
  1  5  2  0
  1  9  1  0
  1 11  1  0
  2 11  1  0
  2 17  1  0
  3  7  2  0
  3  8  2  0
  3 10  1  0
  3 17  1  0
  6 20  1  0
  6 23  1  0
  9 13  1  0
  9 15  1  0
 11 12  2  0
 12 14  1  0
 12 16  1  0
 13 14  2  0
 15 18  2  0
 15 19  1  0
 16 17  2  0
 18 20  1  0
 19 21  2  0
 20 22  2  0
 21 22  1  0
M  END
>  <PUBCHEM_COMPOUND_CID>  (1) 
1514

>  <PUBCHEM_CONFORMER_RMSD>  (1) 
0.6

>  <PUBCHEM_CONFORMER_DIVERSEORDER>  (1) 
1
8
14
2
5
11
12
6
13
3
4
10
7
9

>  <PUBCHEM_MMFF94_PARTIAL_CHARGES>  (1) 
32
1 1.5
10 -0.98
11 -0.02
12 -0.05
13 0.04
14 -0.1
15 0.2
16 -0.15
17 -0.02
18 -0.15
19 -0.15
2 -0.08
20 0.08
21 -0.15
22 -0.15
23 0.28
24 0.15
25 0.15
26 0.15
27 0.15
28 0.15
29 0.15
3 1.5
30 0.15
31 0.42
32 0.42
4 -0.65
5 -0.65
6 -0.36
7 -0.65
8 -0.65
9 -0.53

>  <PUBCHEM_EFFECTIVE_ROTOR_COUNT>  (1) 
3.2

>  <PUBCHEM_PHARMACOPHORE_FEATURES>  (1) 
9
1 10 donor
1 4 acceptor
1 5 acceptor
1 6 acceptor
1 7 acceptor
1 8 acceptor
5 2 11 12 16 17 rings
6 1 9 11 12 13 14 rings
6 15 18 19 20 21 22 rings

>  <PUBCHEM_HEAVY_ATOM_COUNT>  (1) 
23

>  <PUBCHEM_ATOM_DEF_STEREO_COUNT>  (1) 
0

>  <PUBCHEM_ATOM_UDEF_STEREO_COUNT>  (1) 
0

>  <PUBCHEM_BOND_DEF_STEREO_COUNT>  (1) 
0

>  <PUBCHEM_BOND_UDEF_STEREO_COUNT>  (1) 
0

>  <PUBCHEM_ISOTOPIC_ATOM_COUNT>  (1) 
0

>  <PUBCHEM_COMPONENT_COUNT>  (1) 
1

>  <PUBCHEM_CACTVS_TAUTO_COUNT>  (1) 
1

>  <PUBCHEM_CONFORMER_ID>  (1) 
000005EA00000001

>  <PUBCHEM_MMFF94_ENERGY>  (1) 
73.2669

>  <PUBCHEM_FEATURE_SELFOVERLAP>  (1) 
45.75

>  <PUBCHEM_SHAPE_FINGERPRINT>  (1) 
10554248 39 18195794194550715311
10670039 82 17775015539971365464
10906281 52 18270694090644701899
11287383 113 17385725798413979243
11646440 116 16917352558671130355
12011746 2 16559034895842852220
12236239 1 18409165506762113102
12390115 104 16844461440377345753
12596602 18 17822011995431000273
12616971 3 18334283267584816622
12730499 353 16950282893368471098
12788726 201 18130795520771220312
13533116 47 16950558823558123154
13760787 5 18334002887418500278
13862211 1 17988633095764168191
14251732 16 17821733866159992395
14251764 18 18342176666361574305
14341114 176 17748829600639225975
14341114 328 18334010583941956842
14573314 32 15769779039307358851
14790565 3 18342741801625622353
15048467 5 18333731329431416949
15183329 4 18343863325140060701
15475509 8 16845029951738603360
1601671 61 18060415794366967331
21033648 29 16226316080166026357
21150785 3 18335978753401226575
21267235 1 18262238825042665170
22079108 93 17095242548891342042
221357 26 14405188352678537058
2215653 11 15698001838315322708
23081809 10 18412820266385887155
23402539 116 17418080019273001695
23536379 177 17967530147411445369
23559900 14 17060054908538386192
23569914 2 16811180455428191645
23569943 247 15697178222249092167
3004659 81 18272088241603960862
3472631 163 18341618174336663652
34797466 226 16487252222672370176
350125 39 18272932709367786433
4340502 62 17022621979193674794
474 4 17895196671077436844
5104073 3 17749664203649091594
542803 24 18410009927365544799
59755656 215 16415483735393245079
7495541 125 18113623417198742689
8272917 22 18187926136740353746

>  <PUBCHEM_SHAPE_MULTIPOLES>  (1) 
445.57
15.3
1.67
1.3
2.9
0.03
-0.26
4.5
1.51
-0.61
0.22
-0.33
-0.09
-1.75

>  <PUBCHEM_SHAPE_SELFOVERLAP>  (1) 
927.498

>  <PUBCHEM_SHAPE_VOLUME>  (1) 
252.8

>  <PUBCHEM_COORDINATE_TYPE>  (1) 
2
5
10

$$$$
