15140
     RDKit          3D

 13 13  0  0  0  0  0  0  0  0999 V2000
    4.8489    0.0588    0.0013 Cl  0  0  0  0  0  0  0  0  0  0  0  0
   -1.0540    0.3374   -0.0045 N   0  0  0  0  0  0  0  0  0  0  0  0
   -3.1726   -0.7484    0.0019 N   0  0  0  0  0  0  0  0  0  0  0  0
   -1.2552   -2.0617    0.0118 N   0  0  0  0  0  0  0  0  0  0  0  0
   -4.2833    1.4937   -0.0042 N   0  0  0  0  0  0  0  0  0  0  0  0
    0.3429    0.2724   -0.0027 C   0  0  0  0  0  0  0  0  0  0  0  0
    1.0404    0.2316   -1.2100 C   0  0  0  0  0  0  0  0  0  0  0  0
    1.0387    0.2474    1.2060 C   0  0  0  0  0  0  0  0  0  0  0  0
    2.4337    0.1656   -1.2085 C   0  0  0  0  0  0  0  0  0  0  0  0
    2.4321    0.1815    1.2076 C   0  0  0  0  0  0  0  0  0  0  0  0
    3.1296    0.1406    0.0002 C   0  0  0  0  0  0  0  0  0  0  0  0
   -1.7373   -0.7752    0.0027 C   0  0  0  0  0  0  0  0  0  0  0  0
   -3.7638    0.4561   -0.0019 C   0  0  0  0  0  0  0  0  0  0  0  0
  1 11  1  0
  2  6  1  0
  2 12  2  0
  3 12  1  0
  3 13  1  0
  4 12  1  0
  5 13  3  0
  6  7  2  0
  6  8  1  0
  7  9  1  0
  8 10  2  0
  9 11  2  0
 10 11  1  0
M  END
>  <PUBCHEM_COMPOUND_CID>  (1) 
15140

>  <PUBCHEM_CONFORMER_RMSD>  (1) 
0.6

>  <PUBCHEM_CONFORMER_DIVERSEORDER>  (1) 
1
2
4
3

>  <PUBCHEM_MMFF94_PARTIAL_CHARGES>  (1) 
20
1 -0.18
10 -0.15
11 0.18
12 0.55
13 0.62
14 0.15
15 0.15
16 0.15
17 0.15
18 0.4
19 0.4
2 -0.63
20 0.4
3 -0.51
4 -0.85
5 -0.56
6 0.18
7 -0.15
8 -0.15
9 -0.15

>  <PUBCHEM_EFFECTIVE_ROTOR_COUNT>  (1) 
2

>  <PUBCHEM_PHARMACOPHORE_FEATURES>  (1) 
5
1 3 donor
1 4 donor
1 5 acceptor
4 2 3 4 12 cation
6 6 7 8 9 10 11 rings

>  <PUBCHEM_HEAVY_ATOM_COUNT>  (1) 
13

>  <PUBCHEM_ATOM_DEF_STEREO_COUNT>  (1) 
0

>  <PUBCHEM_ATOM_UDEF_STEREO_COUNT>  (1) 
0

>  <PUBCHEM_BOND_DEF_STEREO_COUNT>  (1) 
0

>  <PUBCHEM_BOND_UDEF_STEREO_COUNT>  (1) 
0

>  <PUBCHEM_ISOTOPIC_ATOM_COUNT>  (1) 
0

>  <PUBCHEM_COMPONENT_COUNT>  (1) 
1

>  <PUBCHEM_CACTVS_TAUTO_COUNT>  (1) 
3

>  <PUBCHEM_CONFORMER_ID>  (1) 
00003B2400000001

>  <PUBCHEM_MMFF94_ENERGY>  (1) 
39.7803

>  <PUBCHEM_FEATURE_SELFOVERLAP>  (1) 
25.417

>  <PUBCHEM_SHAPE_FINGERPRINT>  (1) 
11062470 55 18131634491018500044
11401426 45 15985099708853017576
11471102 20 16128655254353575224
12119455 92 16917344827349864268
124424 183 17704354372633733490
12500047 106 18343861138658828534
12932764 1 17313651750298266044
14251717 144 15267344006992920980
15048467 5 18409166632518584124
15375358 24 17632577158482443146
16945 1 15769507524924205956
18175812 5 17774718766130949764
18186145 218 17632302259248310435
19422 9 17458633366569612107
20201158 50 17203615886502367486
20233049 118 18409728447856866912
20279233 1 17632865238812978150
20645477 70 16630253510810911590
22485316 2 18202561791720002814
23402539 116 18271799112230430061
23402655 69 15625946387513866745
23559900 14 18202006517258138038
23598291 2 17677900217174393454
77492 1 17676203602160619471

>  <PUBCHEM_SHAPE_MULTIPOLES>  (1) 
249.48
7.99
1.13
1.08
1.45
0.38
-0.01
-1.69
-0.02
1.23
0.01
-0.81
-0.09
0.03

>  <PUBCHEM_SHAPE_SELFOVERLAP>  (1) 
507.733

>  <PUBCHEM_SHAPE_VOLUME>  (1) 
142.8

>  <PUBCHEM_COORDINATE_TYPE>  (1) 
2
5
10

$$$$
