15157
     RDKit          3D

  5  4  0  0  0  0  0  0  0  0999 V2000
    2.0486    1.0564    0.1780 Cl  0  0  0  0  0  0  0  0  0  0  0  0
    0.7318   -1.8406    0.2165 Cl  0  0  0  0  0  0  0  0  0  0  0  0
    0.4413    0.0274   -0.6954 P   0  0  0  0  0  0  0  0  0  0  0  0
   -0.9383    0.6683    0.3500 C   0  0  0  0  0  0  0  0  0  0  0  0
   -2.2835    0.0886   -0.0491 C   0  0  0  0  0  0  0  0  0  0  0  0
  1  3  1  0
  2  3  1  0
  3  4  1  0
  4  5  1  0
M  END
>  <PUBCHEM_COMPOUND_CID>  (1) 
15157

>  <PUBCHEM_CONFORMER_RMSD>  (1) 
0.4

>  <PUBCHEM_CONFORMER_DIVERSEORDER>  (1) 
1
2
3

>  <PUBCHEM_MMFF94_PARTIAL_CHARGES>  (1) 
4
1 -0.21
2 -0.21
3 0.26
4 0.17

>  <PUBCHEM_EFFECTIVE_ROTOR_COUNT>  (1) 
1

>  <PUBCHEM_PHARMACOPHORE_FEATURES>  (1) 
0

>  <PUBCHEM_HEAVY_ATOM_COUNT>  (1) 
5

>  <PUBCHEM_ATOM_DEF_STEREO_COUNT>  (1) 
0

>  <PUBCHEM_ATOM_UDEF_STEREO_COUNT>  (1) 
0

>  <PUBCHEM_BOND_DEF_STEREO_COUNT>  (1) 
0

>  <PUBCHEM_BOND_UDEF_STEREO_COUNT>  (1) 
0

>  <PUBCHEM_ISOTOPIC_ATOM_COUNT>  (1) 
0

>  <PUBCHEM_COMPONENT_COUNT>  (1) 
1

>  <PUBCHEM_CACTVS_TAUTO_COUNT>  (1) 
1

>  <PUBCHEM_CONFORMER_ID>  (1) 
00003B3500000001

>  <PUBCHEM_MMFF94_ENERGY>  (1) 
-0.5355

>  <PUBCHEM_FEATURE_SELFOVERLAP>  (1) 
0

>  <PUBCHEM_SHAPE_FINGERPRINT>  (1) 
139733 1 10445629264490176831
20096714 4 18131072649187973940
21040471 1 18265339576090921828
23552449 11 18116423739727785275
24536 1 16915382083109223733
5460574 1 11458412553249461077
5943 1 11604220817586056486

>  <PUBCHEM_SHAPE_MULTIPOLES>  (1) 
110.49
2.78
1.65
0.79
0.81
0.99
-0.08
-0.95
0.19
-0.81
0.22
-0.06
-0.01
-0.02

>  <PUBCHEM_SHAPE_SELFOVERLAP>  (1) 
155.46

>  <PUBCHEM_SHAPE_VOLUME>  (1) 
87

>  <PUBCHEM_COORDINATE_TYPE>  (1) 
2
5
10

$$$$
