1515
     RDKit          3D

 16 17  0  0  1  0  0  0  0  0999 V2000
    1.3559    2.5999   -0.4910 O   0  0  0  0  0  0  0  0  0  0  0  0
    2.3200   -0.5647   -1.7346 O   0  0  0  0  0  0  0  0  0  0  0  0
    4.7532   -1.0198    0.3502 O   0  0  0  0  0  0  0  0  0  0  0  0
    1.1541   -0.4880    1.0177 N   0  0  0  0  0  0  0  0  0  0  0  0
   -5.0724   -0.8144   -0.3293 N   0  0  0  0  0  0  0  0  0  0  0  0
    0.3671    0.6720    0.5513 C   0  0  0  0  0  0  0  0  0  0  0  0
    2.5465   -0.1579    0.6650 C   0  0  0  0  0  0  0  0  0  0  0  0
    1.0990    1.2119   -0.6885 C   0  0  0  0  0  0  0  0  0  0  0  0
    2.4203    0.4444   -0.7355 C   0  0  0  0  0  0  0  0  0  0  0  0
   -1.0691    0.2796    0.3191 C   0  0  0  0  0  0  0  0  0  0  0  0
    3.4483   -1.3789    0.7715 C   0  0  0  0  0  0  0  0  0  0  0  0
   -2.0852    0.8756    1.0663 C   0  0  0  0  0  0  0  0  0  0  0  0
   -1.3829   -0.6801   -0.6435 C   0  0  0  0  0  0  0  0  0  0  0  0
   -3.4145    0.5119    0.8513 C   0  0  0  0  0  0  0  0  0  0  0  0
   -2.7121   -1.0436   -0.8587 C   0  0  0  0  0  0  0  0  0  0  0  0
   -3.7280   -0.4477   -0.1112 C   0  0  0  0  0  0  0  0  0  0  0  0
  1  8  1  0
  2  9  1  0
  3 11  1  0
  4  6  1  0
  4  7  1  0
  5 16  1  0
  6  8  1  0
  6 10  1  0
  7  9  1  0
  7 11  1  0
  8  9  1  0
 10 12  2  0
 10 13  1  0
 12 14  1  0
 13 15  2  0
 14 16  2  0
 15 16  1  0
M  END
>  <PUBCHEM_COMPOUND_CID>  (1) 
1515

>  <PUBCHEM_CONFORMER_RMSD>  (1) 
0.6

>  <PUBCHEM_CONFORMER_DIVERSEORDER>  (1) 
3
11
27
37
54
38
42
13
39
31
17
20
19
41
21
14
44
57
45
15
55
9
53
47
49
32
24
50
5
46
18
28
40
34
1
33
29
26
56
2
23
12
58
16
51
22
7
10
35
48
8
4
6
30
52
36
25
43

>  <PUBCHEM_MMFF94_PARTIAL_CHARGES>  (1) 
26
1 -0.68
10 -0.14
11 0.28
12 -0.15
13 -0.15
14 -0.15
15 -0.15
16 0.1
2 -0.68
21 0.36
24 0.4
25 0.4
26 0.15
27 0.15
28 0.4
29 0.15
3 -0.68
30 0.15
31 0.4
32 0.4
4 -0.9
5 -0.9
6 0.41
7 0.27
8 0.28
9 0.28

>  <PUBCHEM_EFFECTIVE_ROTOR_COUNT>  (1) 
3

>  <PUBCHEM_PHARMACOPHORE_FEATURES>  (1) 
12
1 1 acceptor
1 1 donor
1 2 acceptor
1 2 donor
1 3 acceptor
1 3 donor
1 4 cation
1 4 donor
1 5 cation
1 5 donor
5 4 6 7 8 9 rings
6 10 12 13 14 15 16 rings

>  <PUBCHEM_HEAVY_ATOM_COUNT>  (1) 
16

>  <PUBCHEM_ATOM_DEF_STEREO_COUNT>  (1) 
0

>  <PUBCHEM_ATOM_UDEF_STEREO_COUNT>  (1) 
4

>  <PUBCHEM_BOND_DEF_STEREO_COUNT>  (1) 
0

>  <PUBCHEM_BOND_UDEF_STEREO_COUNT>  (1) 
0

>  <PUBCHEM_ISOTOPIC_ATOM_COUNT>  (1) 
0

>  <PUBCHEM_COMPONENT_COUNT>  (1) 
1

>  <PUBCHEM_CACTVS_TAUTO_COUNT>  (1) 
1

>  <PUBCHEM_CONFORMER_ID>  (1) 
000005EB00000003

>  <PUBCHEM_MMFF94_ENERGY>  (1) 
47.9071

>  <PUBCHEM_FEATURE_SELFOVERLAP>  (1) 
60.899

>  <PUBCHEM_SHAPE_FINGERPRINT>  (1) 
11471102 20 17603587443410052680
11578080 2 18266713875210757097
12119455 92 12679172800430278562
12236239 1 18412263934570841819
12251169 10 15339111364241577051
13581323 91 17489588965440406657
13690532 89 18410289211972387555
14115302 16 18271523199531662583
14252887 29 14189304784745210421
14350558 41 17632304479271648759
15219456 202 15430327956983377796
15375358 24 15339120126286038857
16945 1 18261121776382671329
1813 80 18336835186907041254
18186145 218 16153699930147603917
19049666 15 15840163095148960745
19422 9 18410296943061070507
19784866 240 18333730195718630947
200 152 17967529060742599411
20279233 1 16271928216263935823
20361792 2 18334009475935054084
20559304 39 17917999420396627761
20645477 70 17894909646027228419
20671657 53 18335138691588531501
20711985 327 18411136918289247088
21296965 67 18260823753197785784
21501925 9 17917709106239759977
22112679 90 18192449488764056488
2255824 54 18335708307410200636
22646028 28 18410290311262573171
232386 152 17917988407936619126
23402539 116 18338230467009642890
23532345 12 18343019982467710721
23557571 272 16415213268613204337
23559900 14 16916519042926093036
23598291 2 18339939150596772285
296302 2 12175621776482122467
3286 77 18040432213508100997
42 15 17917991676728751227
465052 167 18337117868991621011
474 4 18047193239272814748
4990 188 15864067672180520235
69090 78 15554441908143766679
7364860 26 17845373426018199960
74978 22 18262804080786616147
77492 1 18412552024040028257
9981440 41 17473255956307181736

>  <PUBCHEM_SHAPE_MULTIPOLES>  (1) 
301.7
7.93
1.5
1.18
2.11
0.65
0.14
-3.41
-0.5
-0.64
0.2
-0.38
-0.04
-1

>  <PUBCHEM_SHAPE_SELFOVERLAP>  (1) 
634.138

>  <PUBCHEM_SHAPE_VOLUME>  (1) 
171.3

>  <PUBCHEM_COORDINATE_TYPE>  (1) 
2
5
10

$$$$
