15163
     RDKit          3D

 10 10  0  0  0  0  0  0  0  0999 V2000
   -1.9706    1.3994   -0.5093 O   0  0  0  0  0  0  0  0  0  0  0  0
    1.8183   -1.0690   -0.0308 N   0  0  0  0  0  0  0  0  0  0  0  0
   -0.0960    0.0566   -0.0125 C   0  0  0  0  0  0  0  0  0  0  0  0
    0.4554   -1.2040   -0.0771 C   0  0  0  0  0  0  0  0  0  0  0  0
    0.9730    0.9821    0.0757 C   0  0  0  0  0  0  0  0  0  0  0  0
    2.1453    0.2588    0.0623 C   0  0  0  0  0  0  0  0  0  0  0  0
   -1.5049    0.3338   -0.0325 C   0  0  0  0  0  0  0  0  0  0  0  0
   -0.1716   -2.5365   -0.1798 C   0  0  0  0  0  0  0  0  0  0  0  0
    0.8644    2.4519    0.1683 C   0  0  0  0  0  0  0  0  0  0  0  0
   -2.5132   -0.6732    0.5357 C   0  0  0  0  0  0  0  0  0  0  0  0
  1  7  2  0
  2  4  1  0
  2  6  1  0
  3  4  2  0
  3  5  1  0
  3  7  1  0
  4  8  1  0
  5  6  2  0
  5  9  1  0
  7 10  1  0
M  END
>  <PUBCHEM_COMPOUND_CID>  (1) 
15163

>  <PUBCHEM_CONFORMER_RMSD>  (1) 
0.4

>  <PUBCHEM_CONFORMER_DIVERSEORDER>  (1) 
1
3
5
4
2

>  <PUBCHEM_MMFF94_PARTIAL_CHARGES>  (1) 
12
1 -0.57
10 0.06
11 0.27
12 0.15
2 0.03
3 -0.09
4 -0.33
5 -0.18
6 -0.3
7 0.6
8 0.18
9 0.18

>  <PUBCHEM_EFFECTIVE_ROTOR_COUNT>  (1) 
1

>  <PUBCHEM_PHARMACOPHORE_FEATURES>  (1) 
4
1 1 acceptor
1 2 cation
1 2 donor
5 2 3 4 5 6 rings

>  <PUBCHEM_HEAVY_ATOM_COUNT>  (1) 
10

>  <PUBCHEM_ATOM_DEF_STEREO_COUNT>  (1) 
0

>  <PUBCHEM_ATOM_UDEF_STEREO_COUNT>  (1) 
0

>  <PUBCHEM_BOND_DEF_STEREO_COUNT>  (1) 
0

>  <PUBCHEM_BOND_UDEF_STEREO_COUNT>  (1) 
0

>  <PUBCHEM_ISOTOPIC_ATOM_COUNT>  (1) 
0

>  <PUBCHEM_COMPONENT_COUNT>  (1) 
1

>  <PUBCHEM_CACTVS_TAUTO_COUNT>  (1) 
5

>  <PUBCHEM_CONFORMER_ID>  (1) 
00003B3B00000001

>  <PUBCHEM_MMFF94_ENERGY>  (1) 
13.3321

>  <PUBCHEM_FEATURE_SELFOVERLAP>  (1) 
20.297

>  <PUBCHEM_SHAPE_FINGERPRINT>  (1) 
12423570 1 18193273215924509688
16945 1 18266455588893358678
18185500 45 18198056967631132151
193761 8 17979071914178486606
21040471 1 18411134783590020756
23552423 10 17183354919523388774
2748010 2 18339078190184514374
29004967 10 18339644417076663290
5084963 1 18131068281174364587
5255222 1 18122908886904894220
66348 1 18051412868430560553

>  <PUBCHEM_SHAPE_MULTIPOLES>  (1) 
194.94
2.81
2.42
0.66
0.52
0.3
0.01
-0.6
0.33
0.07
-0.22
0.1
-0.05
0.08

>  <PUBCHEM_SHAPE_SELFOVERLAP>  (1) 
402.105

>  <PUBCHEM_SHAPE_VOLUME>  (1) 
114.5

>  <PUBCHEM_COORDINATE_TYPE>  (1) 
2
5
10

$$$$
