15164
     RDKit          3D

 12 12  0  0  0  0  0  0  0  0999 V2000
    1.7117   -2.1365    0.0321 C   0  0  0  0  0  0  0  0  0  0  0  0
    2.2960   -0.8193   -0.4929 C   0  0  0  0  0  0  0  0  0  0  0  0
    0.2437   -2.0673    0.4790 C   0  0  0  0  0  0  0  0  0  0  0  0
    2.4222    0.2686    0.5820 C   0  0  0  0  0  0  0  0  0  0  0  0
   -0.7338   -1.7313   -0.6538 C   0  0  0  0  0  0  0  0  0  0  0  0
    2.2545    1.6966    0.0459 C   0  0  0  0  0  0  0  0  0  0  0  0
   -2.1863   -1.6094   -0.1731 C   0  0  0  0  0  0  0  0  0  0  0  0
    0.8725    2.0170   -0.5406 C   0  0  0  0  0  0  0  0  0  0  0  0
   -2.4856   -0.3484    0.6488 C   0  0  0  0  0  0  0  0  0  0  0  0
   -0.2740    1.9301    0.4744 C   0  0  0  0  0  0  0  0  0  0  0  0
   -2.5192    0.9104   -0.1740 C   0  0  0  0  0  0  0  0  0  0  0  0
   -1.6016    1.8896   -0.2277 C   0  0  0  0  0  0  0  0  0  0  0  0
  1  2  1  0
  1  3  1  0
  2  4  1  0
  3  5  1  0
  4  6  1  0
  5  7  1  0
  6  8  1  0
  7  9  1  0
  8 10  1  0
  9 11  1  0
 10 12  1  0
 11 12  2  0
M  END
>  <PUBCHEM_COMPOUND_CID>  (1) 
15164

>  <PUBCHEM_CONFORMER_RMSD>  (1) 
0.6

>  <PUBCHEM_CONFORMER_DIVERSEORDER>  (1) 
1

>  <PUBCHEM_MMFF94_PARTIAL_CHARGES>  (1) 
6
10 0.14
11 -0.29
12 -0.29
33 0.15
34 0.15
9 0.14

>  <PUBCHEM_EFFECTIVE_ROTOR_COUNT>  (1) 
2

>  <PUBCHEM_PHARMACOPHORE_FEATURES>  (1) 
0

>  <PUBCHEM_HEAVY_ATOM_COUNT>  (1) 
12

>  <PUBCHEM_ATOM_DEF_STEREO_COUNT>  (1) 
0

>  <PUBCHEM_ATOM_UDEF_STEREO_COUNT>  (1) 
0

>  <PUBCHEM_BOND_DEF_STEREO_COUNT>  (1) 
0

>  <PUBCHEM_BOND_UDEF_STEREO_COUNT>  (1) 
1

>  <PUBCHEM_ISOTOPIC_ATOM_COUNT>  (1) 
0

>  <PUBCHEM_COMPONENT_COUNT>  (1) 
1

>  <PUBCHEM_CACTVS_TAUTO_COUNT>  (1) 
1

>  <PUBCHEM_CONFORMER_ID>  (1) 
00003B3C00000001

>  <PUBCHEM_MMFF94_ENERGY>  (1) 
9.3483

>  <PUBCHEM_FEATURE_SELFOVERLAP>  (1) 
0

>  <PUBCHEM_SHAPE_FINGERPRINT>  (1) 
12382932 28 18342451577689558776
12696612 119 18408888451106400438
13618510 140 18409729603218653444
13897977 150 18265892467410511237
1420 336 18122906430188771779
14251711 518 18411130307991914479
14251717 144 18339919411602007855
15775835 57 18198633305002909449
16945 1 18410573937933191157
19930374 2 17972565872022964376
20201158 50 18337105674835253385
22802520 49 17266392270888619279
2334 1 18338797939109965644
2748010 2 18266740186158247868
2897 32 18337110175924043372
66348 1 18050568439136876528

>  <PUBCHEM_SHAPE_MULTIPOLES>  (1) 
246.95
3.99
3.15
0.81
0.24
0.06
0.01
-0.09
0.16
-0.3
-0.14
0
0.03
0.01

>  <PUBCHEM_SHAPE_SELFOVERLAP>  (1) 
460.752

>  <PUBCHEM_SHAPE_VOLUME>  (1) 
151.6

>  <PUBCHEM_COORDINATE_TYPE>  (1) 
2
5
10

$$$$
