15169
     RDKit          3D

 27 31  0  0  1  0  0  0  0  0999 V2000
   -1.2436    0.4098    0.9469 O   0  0  0  0  0  0  0  0  0  0  0  0
   -2.4705   -1.7924    0.2653 O   0  0  0  0  0  0  0  0  0  0  0  0
   -2.2208    2.6072   -0.6802 O   0  0  0  0  0  0  0  0  0  0  0  0
   -2.7716   -4.0092   -0.3107 O   0  0  0  0  0  0  0  0  0  0  0  0
   -3.2751    2.9096    1.3877 O   0  0  0  0  0  0  0  0  0  0  0  0
    3.9013   -0.5901    0.7253 N   0  0  0  0  0  0  0  0  0  0  0  0
    1.0009   -0.5281    0.8279 C   0  0  0  0  0  0  0  0  0  0  0  0
    1.7812   -1.6681    0.1556 C   0  0  0  0  0  0  0  0  0  0  0  0
    3.0867   -1.0382   -0.4300 C   0  0  0  0  0  0  0  0  0  0  0  0
   -0.4649   -0.8034    1.2372 C   0  0  0  0  0  0  0  0  0  0  0  0
    1.8424    0.0575    1.9789 C   0  0  0  0  0  0  0  0  0  0  0  0
    0.7281    0.5235   -0.1963 C   0  0  0  0  0  0  0  0  0  0  0  0
    2.7973    0.0684   -1.5019 C   0  0  0  0  0  0  0  0  0  0  0  0
    3.2618    0.4504    1.5368 C   0  0  0  0  0  0  0  0  0  0  0  0
    1.5526    0.8760   -1.2495 C   0  0  0  0  0  0  0  0  0  0  0  0
   -1.0984   -2.0454    0.5576 C   0  0  0  0  0  0  0  0  0  0  0  0
    0.9326   -2.4043   -0.8494 C   0  0  0  0  0  0  0  0  0  0  0  0
   -0.5331    1.0506   -0.0318 C   0  0  0  0  0  0  0  0  0  0  0  0
   -0.3877   -2.5557   -0.6677 C   0  0  0  0  0  0  0  0  0  0  0  0
    5.2664   -0.2211    0.3652 C   0  0  0  0  0  0  0  0  0  0  0  0
    1.1098    1.8987   -2.0901 C   0  0  0  0  0  0  0  0  0  0  0  0
   -0.9884    2.0665   -0.8431 C   0  0  0  0  0  0  0  0  0  0  0  0
   -0.1451    2.5025   -1.8731 C   0  0  0  0  0  0  0  0  0  0  0  0
   -3.1929   -2.8701   -0.1614 C   0  0  0  0  0  0  0  0  0  0  0  0
   -4.6087   -2.4573   -0.4282 C   0  0  0  0  0  0  0  0  0  0  0  0
   -2.4224    3.2240    0.5680 C   0  0  0  0  0  0  0  0  0  0  0  0
   -1.4375    4.3388    0.7609 C   0  0  0  0  0  0  0  0  0  0  0  0
  1 10  1  0
  1 18  1  0
  2 16  1  0
  2 24  1  0
  3 22  1  0
  3 26  1  0
  4 24  2  0
  5 26  2  0
  6  9  1  0
  6 14  1  0
  6 20  1  0
  7  8  1  0
  7 10  1  0
  7 11  1  0
  7 12  1  0
  8  9  1  0
  8 17  1  0
  9 13  1  0
 10 16  1  0
 11 14  1  0
 12 15  2  0
 12 18  1  0
 13 15  1  0
 15 21  1  0
 16 19  1  0
 17 19  2  0
 18 22  2  0
 21 23  2  0
 22 23  1  0
 24 25  1  0
 26 27  1  0
M  END
>  <PUBCHEM_COMPOUND_CID>  (1) 
15169

>  <PUBCHEM_CONFORMER_RMSD>  (1) 
0.8

>  <PUBCHEM_CONFORMER_DIVERSEORDER>  (1) 
1
9
7
10
4
17
16
13
6
5
15
12
14
2
8
3
11

>  <PUBCHEM_MMFF94_PARTIAL_CHARGES>  (1) 
30
1 -0.36
10 0.28
12 -0.14
13 0.14
14 0.27
15 -0.14
16 0.42
17 -0.29
18 0.08
19 -0.29
2 -0.43
20 0.27
21 -0.15
22 0.08
23 -0.15
24 0.66
25 0.06
26 0.66
27 0.06
3 -0.23
38 0.15
39 0.15
4 -0.57
43 0.15
44 0.15
5 -0.57
6 -0.81
7 0.14
8 0.14
9 0.27

>  <PUBCHEM_EFFECTIVE_ROTOR_COUNT>  (1) 
5.2

>  <PUBCHEM_PHARMACOPHORE_FEATURES>  (1) 
9
1 1 acceptor
1 4 acceptor
1 5 acceptor
1 6 cation
5 1 7 10 12 18 rings
6 12 15 18 21 22 23 rings
6 6 7 8 9 11 14 rings
6 7 8 10 16 17 19 rings
6 7 8 9 12 13 15 rings

>  <PUBCHEM_HEAVY_ATOM_COUNT>  (1) 
27

>  <PUBCHEM_ATOM_DEF_STEREO_COUNT>  (1) 
3

>  <PUBCHEM_ATOM_UDEF_STEREO_COUNT>  (1) 
2

>  <PUBCHEM_BOND_DEF_STEREO_COUNT>  (1) 
0

>  <PUBCHEM_BOND_UDEF_STEREO_COUNT>  (1) 
0

>  <PUBCHEM_ISOTOPIC_ATOM_COUNT>  (1) 
0

>  <PUBCHEM_COMPONENT_COUNT>  (1) 
1

>  <PUBCHEM_CACTVS_TAUTO_COUNT>  (1) 
1

>  <PUBCHEM_CONFORMER_ID>  (1) 
00003B4100000001

>  <PUBCHEM_MMFF94_ENERGY>  (1) 
103.5659

>  <PUBCHEM_FEATURE_SELFOVERLAP>  (1) 
47.789

>  <PUBCHEM_SHAPE_FINGERPRINT>  (1) 
10064457 181 18053387586982376640
10165383 225 18051704243813615616
104564 63 18410860966324091607
10863032 1 18268705005427631486
10948715 1 18055064359863966172
11578080 2 18130523954732142208
12035758 1 17616249187751875738
12035759 4 18045237165120608156
12293681 160 17182251507949803236
12293681 4 17916582012828330256
12553582 1 18194982939742914195
12788726 201 18264503929978932572
13004483 165 18263907999336064218
13009979 54 18264781032547495819
13134695 92 17978500155178842495
13140716 1 18264218069988409795
13149001 5 17552656754667784286
13533116 47 16971949594686501273
13583140 156 17338139811591357273
14955137 171 17543909470059479594
16945 1 18339091397456895290
17093844 170 18338789010479859423
17357779 13 18269253802952395831
17980427 26 17191479236863959456
1979834 28 17615719257591688489
20600515 1 17682087191997156922
22112679 90 18263378034245692402
229495 10 17416385766444112904
23419403 2 17252252933591502909
23557571 272 18411129268593881250
238 59 16746184694051909461
244849 19 17489310733675818222
25147074 1 17968672583327720692
2748010 2 17611763205451994885
3052486 1 18260829267730150175
3380486 77 17460011050117603362
4340502 62 17984141461573020489
5845 1 17619868032404991214
6287921 2 17617676358007606093
6442390 28 18052262786713950937
7471813 234 18191583266404989862
81228 2 18260264148575411115
84936 182 17040077005457232807

>  <PUBCHEM_SHAPE_MULTIPOLES>  (1) 
521.32
6.28
4.8
1.65
1.68
2.06
-0.14
-3.17
0.99
-6.8
-0.26
0.76
0.92
-1.03

>  <PUBCHEM_SHAPE_SELFOVERLAP>  (1) 
1160.702

>  <PUBCHEM_SHAPE_VOLUME>  (1) 
273.1

>  <PUBCHEM_COORDINATE_TYPE>  (1) 
2
5
10

$$$$
