15162
     RDKit          3D

 12 12  0  0  0  0  0  0  0  0999 V2000
    2.9250   -1.2100    0.0631 O   0  0  0  0  0  0  0  0  0  0  0  0
    0.3731    1.3612    0.0209 N   0  0  0  0  0  0  0  0  0  0  0  0
   -1.2698   -0.1091   -0.2454 C   0  0  0  0  0  0  0  0  0  0  0  0
   -0.0406   -0.8110   -0.1848 C   0  0  0  0  0  0  0  0  0  0  0  0
   -0.9844    1.2322   -0.1155 C   0  0  0  0  0  0  0  0  0  0  0  0
    0.9584    0.1226   -0.0193 C   0  0  0  0  0  0  0  0  0  0  0  0
   -2.6120   -0.7023   -0.4160 C   0  0  0  0  0  0  0  0  0  0  0  0
    0.1353   -2.2756   -0.2807 C   0  0  0  0  0  0  0  0  0  0  0  0
   -1.8664    2.4151   -0.1065 C   0  0  0  0  0  0  0  0  0  0  0  0
   -3.2899   -1.0515    0.9109 C   0  0  0  0  0  0  0  0  0  0  0  0
    2.3683   -0.0854    0.0967 C   0  0  0  0  0  0  0  0  0  0  0  0
    3.3031    1.1139    0.2767 C   0  0  0  0  0  0  0  0  0  0  0  0
  1 11  2  0
  2  5  1  0
  2  6  1  0
  3  4  1  0
  3  5  2  0
  3  7  1  0
  4  6  2  0
  4  8  1  0
  5  9  1  0
  6 11  1  0
  7 10  1  0
 11 12  1  0
M  END
>  <PUBCHEM_COMPOUND_CID>  (1) 
15162

>  <PUBCHEM_CONFORMER_RMSD>  (1) 
0.6

>  <PUBCHEM_CONFORMER_DIVERSEORDER>  (1) 
1
6
4
5
3
2

>  <PUBCHEM_MMFF94_PARTIAL_CHARGES>  (1) 
12
1 -0.57
11 0.59
12 0.06
15 0.27
2 0.03
3 -0.18
4 -0.18
5 -0.33
6 -0.24
7 0.18
8 0.18
9 0.18

>  <PUBCHEM_EFFECTIVE_ROTOR_COUNT>  (1) 
2

>  <PUBCHEM_PHARMACOPHORE_FEATURES>  (1) 
5
1 1 acceptor
1 10 hydrophobe
1 2 cation
1 2 donor
5 2 3 4 5 6 rings

>  <PUBCHEM_HEAVY_ATOM_COUNT>  (1) 
12

>  <PUBCHEM_ATOM_DEF_STEREO_COUNT>  (1) 
0

>  <PUBCHEM_ATOM_UDEF_STEREO_COUNT>  (1) 
0

>  <PUBCHEM_BOND_DEF_STEREO_COUNT>  (1) 
0

>  <PUBCHEM_BOND_UDEF_STEREO_COUNT>  (1) 
0

>  <PUBCHEM_ISOTOPIC_ATOM_COUNT>  (1) 
0

>  <PUBCHEM_COMPONENT_COUNT>  (1) 
1

>  <PUBCHEM_CACTVS_TAUTO_COUNT>  (1) 
10

>  <PUBCHEM_CONFORMER_ID>  (1) 
00003B3A00000001

>  <PUBCHEM_MMFF94_ENERGY>  (1) 
10.4713

>  <PUBCHEM_FEATURE_SELFOVERLAP>  (1) 
25.371

>  <PUBCHEM_SHAPE_FINGERPRINT>  (1) 
10219947 1 18340210790430522067
11132069 177 18201996685302576322
12032990 46 18409173237455585871
12138202 97 17897719865041505965
12423570 1 14439002346331014396
12932764 1 17704061915546992132
13380535 21 18051989021218905927
13380535 76 18050558552465046157
14325111 11 18411415081809164740
14614273 12 18189042110602988957
14648413 74 17980481165667524538
16945 1 18267578181733431692
17844478 74 18409172133717211921
193761 8 18051130294116457927
20510252 161 18344145895122461368
20871998 184 18341895182003716341
21040471 1 17978791212079890861
21501502 16 18193834834464572587
2334 1 18411696569644494468
23402539 116 18269540779982178926
23552423 10 18263081024641498718
23559900 14 17984419643259536894
25610 137 18262523705121190029
2748010 2 18339918221452955324
369184 2 18272926120396823972
5084963 1 18131628976269987978
53812653 8 18336276737747166564

>  <PUBCHEM_SHAPE_MULTIPOLES>  (1) 
236.1
4.73
2.21
0.71
1.35
0.42
0.06
-0.27
0.91
-0.65
-0.12
-0.28
-0.08
0.31

>  <PUBCHEM_SHAPE_SELFOVERLAP>  (1) 
481.897

>  <PUBCHEM_SHAPE_VOLUME>  (1) 
140.5

>  <PUBCHEM_COORDINATE_TYPE>  (1) 
2
5
10

$$$$
