15166
     RDKit          3D

 11 11  0  0  0  0  0  0  0  0999 V2000
   -2.8314   -0.6322    0.8776 O   0  0  0  0  0  0  0  0  0  0  0  0
   -1.9262   -0.7467   -0.2230 C   0  0  0  0  0  0  0  0  0  0  0  0
   -1.7638    0.6324   -0.8885 C   0  0  0  0  0  0  0  0  0  0  0  0
   -0.6630   -1.4448    0.2962 C   0  0  0  0  0  0  0  0  0  0  0  0
   -1.2934    1.8131   -0.0213 C   0  0  0  0  0  0  0  0  0  0  0  0
    0.4449   -1.6306   -0.7416 C   0  0  0  0  0  0  0  0  0  0  0  0
    0.1209    1.7563    0.5643 C   0  0  0  0  0  0  0  0  0  0  0  0
    1.8627   -1.6777   -0.1631 C   0  0  0  0  0  0  0  0  0  0  0  0
    1.2323    1.5699   -0.4715 C   0  0  0  0  0  0  0  0  0  0  0  0
    2.3286   -0.5080    0.7166 C   0  0  0  0  0  0  0  0  0  0  0  0
    2.4884    0.8684    0.0543 C   0  0  0  0  0  0  0  0  0  0  0  0
  1  2  1  0
  2  3  1  0
  2  4  1  0
  3  5  1  0
  4  6  1  0
  5  7  1  0
  6  8  1  0
  7  9  1  0
  8 10  1  0
  9 11  1  0
 10 11  1  0
M  END
>  <PUBCHEM_COMPOUND_CID>  (1) 
15166

>  <PUBCHEM_CONFORMER_RMSD>  (1) 
0.4

>  <PUBCHEM_CONFORMER_DIVERSEORDER>  (1) 
1
18
13
40
21
43
28
20
22
36
12
29
41
23
2
44
16
14
33
17
42
34
38
11
9
24
39
30
37
31
8
3
26
25
19
27
10
7
15
32
4
35
6
5

>  <PUBCHEM_MMFF94_PARTIAL_CHARGES>  (1) 
3
1 -0.68
2 0.28
31 0.4

>  <PUBCHEM_EFFECTIVE_ROTOR_COUNT>  (1) 
2

>  <PUBCHEM_PHARMACOPHORE_FEATURES>  (1) 
2
1 1 acceptor
1 1 donor

>  <PUBCHEM_HEAVY_ATOM_COUNT>  (1) 
11

>  <PUBCHEM_ATOM_DEF_STEREO_COUNT>  (1) 
0

>  <PUBCHEM_ATOM_UDEF_STEREO_COUNT>  (1) 
0

>  <PUBCHEM_BOND_DEF_STEREO_COUNT>  (1) 
0

>  <PUBCHEM_BOND_UDEF_STEREO_COUNT>  (1) 
0

>  <PUBCHEM_ISOTOPIC_ATOM_COUNT>  (1) 
0

>  <PUBCHEM_COMPONENT_COUNT>  (1) 
1

>  <PUBCHEM_CACTVS_TAUTO_COUNT>  (1) 
1

>  <PUBCHEM_CONFORMER_ID>  (1) 
00003B3E00000001

>  <PUBCHEM_MMFF94_ENERGY>  (1) 
22.9786

>  <PUBCHEM_FEATURE_SELFOVERLAP>  (1) 
10.148

>  <PUBCHEM_SHAPE_FINGERPRINT>  (1) 
12696612 119 18409455760372356462
14251711 518 18265601242757844378
14251717 144 18340762762758920799
15775835 57 18196095675157918740
16945 1 18336541724207050252
17990270 104 18409164381359238812
18185500 45 17834951254240390702
19973954 147 18339079268152974182
20201158 50 18408877425914678679
20651381 6 18267300941557623068
22802520 49 17409663055704319494
23552423 10 18261393312762815412
241688 4 17475231302033939656
2748010 2 18267581321343865284
2897 32 18336824320281183412
5084963 1 18202276987753481498
528862 383 18190179168623525233
66348 1 17907294347497038782

>  <PUBCHEM_SHAPE_MULTIPOLES>  (1) 
220.51
3.54
2.35
0.9
0.04
0.27
0.01
-0.34
-0.44
-0.24
0.09
0.14
-0.04
0.18

>  <PUBCHEM_SHAPE_SELFOVERLAP>  (1) 
411.407

>  <PUBCHEM_SHAPE_VOLUME>  (1) 
136.6

>  <PUBCHEM_COORDINATE_TYPE>  (1) 
2
5
10

$$$$
