1517
     RDKit          3D

 38 40  0  0  0  0  0  0  0  0999 V2000
    1.7401   -5.2441   -0.0316 Cl  0  0  0  0  0  0  0  0  0  0  0  0
    4.7338    3.3170    0.3224 Cl  0  0  0  0  0  0  0  0  0  0  0  0
    7.5363    3.6714   -1.2021 Cl  0  0  0  0  0  0  0  0  0  0  0  0
   -2.3274   -2.1781   -0.2862 F   0  0  0  0  0  0  0  0  0  0  0  0
   -5.0017    2.6182   -0.3028 O   0  0  0  0  0  0  0  0  0  0  0  0
    3.7422   -1.8445    0.8265 O   0  0  0  0  0  0  0  0  0  0  0  0
   -7.5801    0.4597   -1.5444 O   0  0  0  0  0  0  0  0  0  0  0  0
   -7.4132    2.7065   -1.3380 O   0  0  0  0  0  0  0  0  0  0  0  0
    1.7435   -0.6360    0.7606 N   0  0  0  0  0  0  0  0  0  0  0  0
    3.8150    0.4565    0.4903 N   0  0  0  0  0  0  0  0  0  0  0  0
    1.0920    0.6371    0.6207 C   0  0  0  0  0  0  0  0  0  0  0  0
    0.8932    1.3460    1.9590 C   0  0  0  0  0  0  0  0  0  0  0  0
    0.2198    2.7281    1.8487 C   0  0  0  0  0  0  0  0  0  0  0  0
    0.8735   -1.8019    0.9599 C   0  0  0  0  0  0  0  0  0  0  0  0
    0.4587   -2.4550   -0.3562 C   0  0  0  0  0  0  0  0  0  0  0  0
   -1.1585    2.6994    1.2804 C   0  0  0  0  0  0  0  0  0  0  0  0
    3.1654   -0.7612    0.7085 C   0  0  0  0  0  0  0  0  0  0  0  0
   -0.4580   -3.6381   -0.1629 C   0  0  0  0  0  0  0  0  0  0  0  0
   -1.3485    2.8188   -0.0964 C   0  0  0  0  0  0  0  0  0  0  0  0
   -2.2581    2.5527    2.1259 C   0  0  0  0  0  0  0  0  0  0  0  0
   -5.5153    1.3363   -0.6661 C   0  0  0  0  0  0  0  0  0  0  0  0
   -3.7375    2.6453    0.2183 C   0  0  0  0  0  0  0  0  0  0  0  0
   -2.6379    2.7917   -0.6275 C   0  0  0  0  0  0  0  0  0  0  0  0
   -3.5476    2.5257    1.5949 C   0  0  0  0  0  0  0  0  0  0  0  0
    0.0428   -4.9306   -0.0088 C   0  0  0  0  0  0  0  0  0  0  0  0
   -1.8349   -3.4163   -0.1400 C   0  0  0  0  0  0  0  0  0  0  0  0
   -5.5605    0.4718    0.5904 C   0  0  0  0  0  0  0  0  0  0  0  0
   -4.6052    0.7500   -1.7414 C   0  0  0  0  0  0  0  0  0  0  0  0
    5.0486    0.6721   -0.1728 C   0  0  0  0  0  0  0  0  0  0  0  0
   -0.8332   -6.0016    0.1681 C   0  0  0  0  0  0  0  0  0  0  0  0
   -2.7110   -4.4872    0.0370 C   0  0  0  0  0  0  0  0  0  0  0  0
   -6.9149    1.5945   -1.2085 C   0  0  0  0  0  0  0  0  0  0  0  0
   -2.2102   -5.7799    0.1911 C   0  0  0  0  0  0  0  0  0  0  0  0
    5.5890    1.9492   -0.3222 C   0  0  0  0  0  0  0  0  0  0  0  0
    5.7258   -0.4360   -0.6822 C   0  0  0  0  0  0  0  0  0  0  0  0
    6.8068    2.1185   -0.9810 C   0  0  0  0  0  0  0  0  0  0  0  0
    6.9435   -0.2666   -1.3411 C   0  0  0  0  0  0  0  0  0  0  0  0
    7.4840    1.0106   -1.4905 C   0  0  0  0  0  0  0  0  0  0  0  0
  1 25  1  0
  2 34  1  0
  3 36  1  0
  4 26  1  0
  5 21  1  0
  5 22  1  0
  6 17  2  0
  7 32  1  0
  8 32  2  0
  9 11  1  0
  9 14  1  0
  9 17  1  0
 10 17  1  0
 10 29  1  0
 11 12  1  0
 12 13  1  0
 13 16  1  0
 14 15  1  0
 15 18  1  0
 16 19  2  0
 16 20  1  0
 18 25  2  0
 18 26  1  0
 19 23  1  0
 20 24  2  0
 21 27  1  0
 21 28  1  0
 21 32  1  0
 22 23  2  0
 22 24  1  0
 25 30  1  0
 26 31  2  0
 29 34  2  0
 29 35  1  0
 30 33  2  0
 31 33  1  0
 34 36  1  0
 35 37  2  0
 36 38  2  0
 37 38  1  0
M  END
>  <PUBCHEM_COMPOUND_CID>  (1) 
1517

>  <PUBCHEM_CONFORMER_RMSD>  (1) 
1.2

>  <PUBCHEM_CONFORMER_DIVERSEORDER>  (1) 
3
76
227
67
24
170
143
136
286
201
44
64
48
96
161
104
284
118
36
168
263
204
90
73
191
93
133
23
217
237
53
236
267
51
258
34
158
279
230
285
115
234
37
50
233
224
112
163
26
75
203
260
47
171
156
58
189
106
223
249
218
57
21
146
89
60
179
70
92
125
244
169
265
251
215
46
248
84
20
121
199
194
132
246
212
253
119
122
250
176
94
207
100
147
35
266
200
43
61
38
97
287
42
155
242
142
19
128
113
252
173
209
98
144
11
261
219
160
272
111
172
29
15
107
195
275
28
39
166
239
192
117
157
30
82
129
99
241
135
247
86
74
130
109
283
159
148
13
257
225
202
188
274
52
277
278
208
31
141
139
27
54
243
152
25
273
193
240
235
154
214
181
126
59
280
114
180
226
63
80
259
14
123
222
271
177
116
216
186
33
231
9
269
7
78
213
134
10
79
4
205
81
85
190
62
167
105
88
197
137
138
32
153
165
5
149
16
66
174
110
56
77
276
18
184
131
262
145
196
140
91
206
72
8
210
187
175
150
120
281
83
12
102
228
2
1
255
178
87
49
68
198
103
164
183
185
162
232
41
264
71
65
182
127
40
270
256
211
17
268
245
69
101
282
55
95
221
6
229
45
124
220
108
151
254
238
22

>  <PUBCHEM_MMFF94_PARTIAL_CHARGES>  (1) 
47
1 -0.18
10 -0.55
11 0.3
13 0.14
14 0.3
15 0.14
16 -0.14
17 0.69
18 -0.14
19 -0.15
2 -0.18
20 -0.15
21 0.34
22 0.08
23 -0.15
24 -0.15
25 0.18
26 0.19
29 0.12
3 -0.18
30 -0.15
31 -0.15
32 0.66
33 -0.15
34 0.18
35 -0.15
36 0.18
37 -0.15
38 -0.15
4 -0.19
49 0.15
5 -0.36
50 0.15
51 0.15
52 0.15
53 0.37
6 -0.57
60 0.15
61 0.15
62 0.15
63 0.15
64 0.15
65 0.15
66 0.5
7 -0.65
8 -0.57
9 -0.66

>  <PUBCHEM_EFFECTIVE_ROTOR_COUNT>  (1) 
13

>  <PUBCHEM_PHARMACOPHORE_FEATURES>  (1) 
10
1 10 donor
1 5 acceptor
1 6 acceptor
1 7 acceptor
1 8 acceptor
3 21 27 28 hydrophobe
3 7 8 32 anion
6 16 19 20 22 23 24 rings
6 18 25 26 30 31 33 rings
6 29 34 35 36 37 38 rings

>  <PUBCHEM_HEAVY_ATOM_COUNT>  (1) 
38

>  <PUBCHEM_ATOM_DEF_STEREO_COUNT>  (1) 
0

>  <PUBCHEM_ATOM_UDEF_STEREO_COUNT>  (1) 
0

>  <PUBCHEM_BOND_DEF_STEREO_COUNT>  (1) 
0

>  <PUBCHEM_BOND_UDEF_STEREO_COUNT>  (1) 
0

>  <PUBCHEM_ISOTOPIC_ATOM_COUNT>  (1) 
0

>  <PUBCHEM_COMPONENT_COUNT>  (1) 
1

>  <PUBCHEM_CACTVS_TAUTO_COUNT>  (1) 
2

>  <PUBCHEM_CONFORMER_ID>  (1) 
000005ED00000003

>  <PUBCHEM_MMFF94_ENERGY>  (1) 
115.5906

>  <PUBCHEM_FEATURE_SELFOVERLAP>  (1) 
50.817

>  <PUBCHEM_SHAPE_FINGERPRINT>  (1) 
11136131 41 18046337539869155602
11204353 107 18336548338314320154
11991303 11 18334021622324171642
13165053 182 17826516862000682588
13911987 19 18411703154003595361
14068700 686 18116712915971774301
14190465 44 18271517681269080992
14251757 5 18340768251125666890
14931854 50 18201428143892923877
15276724 80 18197229259367824522
15444296 7 17896332470040105645
15444296 8 17841153573331413566
15538507 32 18410855503284355741
15705408 1 17547313115904426438
15890870 6 18410009936541236983
16993438 75 18262522614785430267
18365409 1 18336549433705054207
19319366 153 18269823242901795935
19958102 18 18340499876426579918
20737093 15 18263903541782439285
21133410 230 18262534705682987643
21133410 52 17763731101269352219
21772528 278 18341905081682197004
3103668 31 18194123142708468611
5265222 85 18409163325241084509
563151 97 18268999678860578681
5776283 40 18341326794785663825
86090 222 17844502514456829233

>  <PUBCHEM_SHAPE_MULTIPOLES>  (1) 
746.92
18.69
8.56
1.57
12.5
16.27
-0.23
-21.7
12.77
-5.77
-0.65
-0.74
-1.49
-0.18

>  <PUBCHEM_SHAPE_SELFOVERLAP>  (1) 
1556.077

>  <PUBCHEM_SHAPE_VOLUME>  (1) 
427.2

>  <PUBCHEM_COORDINATE_TYPE>  (1) 
2
5
10

$$$$
