15171
     RDKit          3D

 12 12  0  0  0  0  0  0  0  0999 V2000
   -4.3559    0.3679    0.0620 Cl  0  0  0  0  0  0  0  0  0  0  0  0
    2.0805   -1.7446   -0.4009 O   0  0  0  0  0  0  0  0  0  0  0  0
    2.1425    1.7003    0.4134 O   0  0  0  0  0  0  0  0  0  0  0  0
    1.4854   -0.4865   -0.1063 N   0  0  0  0  0  0  0  0  0  0  0  0
    0.1055   -0.2848   -0.0670 C   0  0  0  0  0  0  0  0  0  0  0  0
   -0.4267    0.9618   -0.3955 C   0  0  0  0  0  0  0  0  0  0  0  0
   -0.7419   -1.3299    0.3012 C   0  0  0  0  0  0  0  0  0  0  0  0
   -1.8063    1.1637   -0.3556 C   0  0  0  0  0  0  0  0  0  0  0  0
   -2.1216   -1.1281    0.3409 C   0  0  0  0  0  0  0  0  0  0  0  0
   -2.6538    0.1187    0.0124 C   0  0  0  0  0  0  0  0  0  0  0  0
    2.4177    0.5317    0.1408 C   0  0  0  0  0  0  0  0  0  0  0  0
    3.8745    0.1300    0.0546 C   0  0  0  0  0  0  0  0  0  0  0  0
  1 10  1  0
  2  4  1  0
  3 11  2  0
  4  5  1  0
  4 11  1  0
  5  6  2  0
  5  7  1  0
  6  8  1  0
  7  9  2  0
  8 10  2  0
  9 10  1  0
 11 12  1  0
M  END
>  <PUBCHEM_COMPOUND_CID>  (1) 
15171

>  <PUBCHEM_CONFORMER_RMSD>  (1) 
0.6

>  <PUBCHEM_CONFORMER_DIVERSEORDER>  (1) 
1
3
2
6
5
4

>  <PUBCHEM_MMFF94_PARTIAL_CHARGES>  (1) 
17
1 -0.18
10 0.18
11 0.57
12 0.06
13 0.15
14 0.15
15 0.15
16 0.15
2 -0.44
20 0.4
3 -0.57
4 -0.14
5 0.12
6 -0.15
7 -0.15
8 -0.15
9 -0.15

>  <PUBCHEM_EFFECTIVE_ROTOR_COUNT>  (1) 
2

>  <PUBCHEM_PHARMACOPHORE_FEATURES>  (1) 
2
1 3 acceptor
6 5 6 7 8 9 10 rings

>  <PUBCHEM_HEAVY_ATOM_COUNT>  (1) 
12

>  <PUBCHEM_ATOM_DEF_STEREO_COUNT>  (1) 
0

>  <PUBCHEM_ATOM_UDEF_STEREO_COUNT>  (1) 
0

>  <PUBCHEM_BOND_DEF_STEREO_COUNT>  (1) 
0

>  <PUBCHEM_BOND_UDEF_STEREO_COUNT>  (1) 
0

>  <PUBCHEM_ISOTOPIC_ATOM_COUNT>  (1) 
0

>  <PUBCHEM_COMPONENT_COUNT>  (1) 
1

>  <PUBCHEM_CACTVS_TAUTO_COUNT>  (1) 
1

>  <PUBCHEM_CONFORMER_ID>  (1) 
00003B4300000001

>  <PUBCHEM_MMFF94_ENERGY>  (1) 
40.5894

>  <PUBCHEM_FEATURE_SELFOVERLAP>  (1) 
10.148

>  <PUBCHEM_SHAPE_FINGERPRINT>  (1) 
10608611 8 18410289220267156756
10857977 72 18113899415770436513
11062470 55 18273496771448114093
11132069 177 18337665420669309889
11471102 20 18341611494897288996
12032990 46 18261402135111081027
12251169 10 18261385667990112504
12932764 1 16371273528318527324
13380535 76 18410572889982698666
14325111 11 18409729530525891205
15219456 202 18411983524709246622
15775835 57 18186801365839600264
16945 1 18411138051828043941
17846911 113 18409724067216792497
18175812 5 18338799017167882124
18186145 218 18271248210045200765
19026448 5 17275384275213113687
19973954 147 18411702054122513648
200 152 17846774126743562487
20201158 50 18412545409647844058
20528008 55 18410289233452375209
20588541 1 18409731763703137308
20645464 45 18410858767485205247
20645477 70 18270677550699661383
20871998 184 18268718392598392431
21501502 16 18266456692626048772
23235685 24 18409441496828255389
23402539 116 18411125944747753509
23402655 69 18271236132824108973
23552423 10 18113903774988356918
2748010 2 18190175681305396445
369184 2 18334008410825265147
53812653 166 18410572894308963880
6333449 129 18410008875172546759
69090 78 18341607127358907543
7364860 26 18266173937976554482

>  <PUBCHEM_SHAPE_MULTIPOLES>  (1) 
232.1
6.34
1.51
0.66
0.42
0.16
0
-0.89
0.33
-0.28
0
0.02
-0.01
0.39

>  <PUBCHEM_SHAPE_SELFOVERLAP>  (1) 
470.218

>  <PUBCHEM_SHAPE_VOLUME>  (1) 
136.6

>  <PUBCHEM_COORDINATE_TYPE>  (1) 
2
5
10

$$$$
