15174
     RDKit          3D

 23 25  0  0  1  0  0  0  0  0999 V2000
   -0.6667    2.4566   -2.0671 O   0  0  0  0  0  0  0  0  0  0  0  0
    2.8186   -0.3841    0.1446 N   0  0  0  0  0  0  0  0  0  0  0  0
   -2.3684    2.9945   -0.6388 N   0  0  0  0  0  0  0  0  0  0  0  0
   -0.5056    1.6279    0.2364 C   0  0  0  0  0  0  0  0  0  0  0  0
    0.8310    0.9934   -0.2771 C   0  0  0  0  0  0  0  0  0  0  0  0
    1.5909    0.1373    0.7447 C   0  0  0  0  0  0  0  0  0  0  0  0
    3.7014    0.7189   -0.2605 C   0  0  0  0  0  0  0  0  0  0  0  0
    3.4994   -1.2949    1.0757 C   0  0  0  0  0  0  0  0  0  0  0  0
    4.9689    0.1919   -0.9348 C   0  0  0  0  0  0  0  0  0  0  0  0
    4.7604   -1.8878    0.4447 C   0  0  0  0  0  0  0  0  0  0  0  0
    5.7067   -0.7938   -0.0358 C   0  0  0  0  0  0  0  0  0  0  0  0
   -1.4567    0.5207    0.7227 C   0  0  0  0  0  0  0  0  0  0  0  0
   -0.1647    2.6972    1.3031 C   0  0  0  0  0  0  0  0  0  0  0  0
   -1.1676    2.3879   -0.9452 C   0  0  0  0  0  0  0  0  0  0  0  0
   -1.8600   -0.4872   -0.1346 C   0  0  0  0  0  0  0  0  0  0  0  0
   -1.8603    0.6118    2.0361 C   0  0  0  0  0  0  0  0  0  0  0  0
   -2.7356   -1.4759    0.3738 C   0  0  0  0  0  0  0  0  0  0  0  0
   -2.7211   -0.3607    2.5359 C   0  0  0  0  0  0  0  0  0  0  0  0
   -1.4387   -0.5649   -1.4720 C   0  0  0  0  0  0  0  0  0  0  0  0
   -3.1569   -1.3984    1.7114 C   0  0  0  0  0  0  0  0  0  0  0  0
   -3.1643   -2.5133   -0.4703 C   0  0  0  0  0  0  0  0  0  0  0  0
   -1.8747   -1.6025   -2.2965 C   0  0  0  0  0  0  0  0  0  0  0  0
   -2.7359   -2.5748   -1.7966 C   0  0  0  0  0  0  0  0  0  0  0  0
  1 14  2  0
  2  6  1  0
  2  7  1  0
  2  8  1  0
  3 14  1  0
  4  5  1  0
  4 12  1  0
  4 13  1  0
  4 14  1  0
  5  6  1  0
  7  9  1  0
  8 10  1  0
  9 11  1  0
 10 11  1  0
 12 15  1  0
 12 16  2  0
 15 17  2  0
 15 19  1  0
 16 18  1  0
 17 20  1  0
 17 21  1  0
 18 20  2  0
 19 22  2  0
 21 23  2  0
 22 23  1  0
M  END
>  <PUBCHEM_COMPOUND_CID>  (1) 
15174

>  <PUBCHEM_CONFORMER_RMSD>  (1) 
0.8

>  <PUBCHEM_CONFORMER_DIVERSEORDER>  (1) 
1
26
18
9
34
40
3
2
22
28
33
4
16
21
35
23
27
30
31
19
37
20
5
38
29
25
15
8
14
6
24
39
13
11
7
17
10
36
12
32

>  <PUBCHEM_MMFF94_PARTIAL_CHARGES>  (1) 
25
1 -0.57
12 -0.14
14 0.57
16 -0.15
18 -0.15
19 -0.15
2 -0.81
20 -0.15
21 -0.15
22 -0.15
23 -0.15
3 -0.8
4 0.2
41 0.15
42 0.15
43 0.15
44 0.15
45 0.37
46 0.37
47 0.15
48 0.15
49 0.15
6 0.27
7 0.27
8 0.27

>  <PUBCHEM_EFFECTIVE_ROTOR_COUNT>  (1) 
6.2

>  <PUBCHEM_PHARMACOPHORE_FEATURES>  (1) 
7
1 1 acceptor
1 13 hydrophobe
1 2 cation
1 3 donor
6 12 15 16 17 18 20 rings
6 15 17 19 21 22 23 rings
6 2 7 8 9 10 11 rings

>  <PUBCHEM_HEAVY_ATOM_COUNT>  (1) 
23

>  <PUBCHEM_ATOM_DEF_STEREO_COUNT>  (1) 
0

>  <PUBCHEM_ATOM_UDEF_STEREO_COUNT>  (1) 
1

>  <PUBCHEM_BOND_DEF_STEREO_COUNT>  (1) 
0

>  <PUBCHEM_BOND_UDEF_STEREO_COUNT>  (1) 
0

>  <PUBCHEM_ISOTOPIC_ATOM_COUNT>  (1) 
0

>  <PUBCHEM_COMPONENT_COUNT>  (1) 
1

>  <PUBCHEM_CACTVS_TAUTO_COUNT>  (1) 
2

>  <PUBCHEM_CONFORMER_ID>  (1) 
00003B4600000001

>  <PUBCHEM_MMFF94_ENERGY>  (1) 
76.7989

>  <PUBCHEM_FEATURE_SELFOVERLAP>  (1) 
35.546

>  <PUBCHEM_SHAPE_FINGERPRINT>  (1) 
10291535 26 11674888813821260766
10928967 22 18343024385295148566
11370993 144 15913059681516530730
11552529 35 16988839518821864582
11578080 2 17986934427392986081
12553582 1 18338231673748169458
12633257 1 16271380706475799419
12714826 92 18342452630177981744
12788726 201 18189036621745528185
13224815 77 18335696144542645586
13544653 18 18261394502716617740
13911987 19 17029957035990413020
14251751 93 18340207371942710882
14674994 50 16987412352717982119
16945 1 17558578973993178641
17780758 139 17346881118374123930
1813 80 18267319787710471182
18927931 339 18186810145470522242
19377110 9 18271803571445317360
19765921 60 8285666164200056079
20101258 96 18334018293788314668
20291156 8 18200590431558630486
20602899 9 17702648952990264317
20681651 13 18129933499713153690
20775530 9 17839447135680694918
21095088 737 11531069407279764630
21304303 282 16737160108659264980
235170 7 16370727058656215978
23598288 3 18336836277517660096
23728640 28 18196076751495193379
3027735 51 18129360645264967743
484985 159 17703782583506184006

>  <PUBCHEM_SHAPE_MULTIPOLES>  (1) 
457.5
8.63
3.09
2.13
16.21
1.01
0.11
-5.8
0.87
-2.42
-1.14
-2.16
-0.08
-0.89

>  <PUBCHEM_SHAPE_SELFOVERLAP>  (1) 
978.489

>  <PUBCHEM_SHAPE_VOLUME>  (1) 
253.2

>  <PUBCHEM_COORDINATE_TYPE>  (1) 
2
5
10

$$$$
