15172
     RDKit          3D

 11 11  0  0  1  0  0  0  0  0999 V2000
    3.6718    0.4214    1.1791 O   0  0  0  0  0  0  0  0  0  0  0  0
    3.0799    0.2578   -0.1070 C   0  0  0  0  0  0  0  0  0  0  0  0
   -0.8100    0.2645   -0.1577 C   0  0  0  0  0  0  0  0  0  0  0  0
    1.6446   -0.1381    0.0896 C   0  0  0  0  0  0  0  0  0  0  0  0
    0.6111    0.6065   -0.3341 C   0  0  0  0  0  0  0  0  0  0  0  0
    3.8449   -0.8104   -0.8772 C   0  0  0  0  0  0  0  0  0  0  0  0
   -1.1660   -1.0506    0.0970 C   0  0  0  0  0  0  0  0  0  0  0  0
   -1.7662    1.2638   -0.2489 C   0  0  0  0  0  0  0  0  0  0  0  0
   -2.5123   -1.3749    0.2647 C   0  0  0  0  0  0  0  0  0  0  0  0
   -3.1125    0.9397   -0.0812 C   0  0  0  0  0  0  0  0  0  0  0  0
   -3.4855   -0.3796    0.1756 C   0  0  0  0  0  0  0  0  0  0  0  0
  1  2  1  0
  2  4  1  0
  2  6  1  0
  3  5  1  0
  3  7  2  0
  3  8  1  0
  4  5  2  0
  7  9  1  0
  8 10  2  0
  9 11  2  0
 10 11  1  0
M  END
>  <PUBCHEM_COMPOUND_CID>  (1) 
15172

>  <PUBCHEM_CONFORMER_RMSD>  (1) 
0.4

>  <PUBCHEM_CONFORMER_DIVERSEORDER>  (1) 
1
2
3

>  <PUBCHEM_MMFF94_PARTIAL_CHARGES>  (1) 
18
1 -0.68
10 -0.15
11 -0.15
13 0.15
14 0.15
18 0.15
19 0.15
2 0.42
20 0.15
21 0.15
22 0.15
23 0.4
3 0.03
4 -0.29
5 -0.18
7 -0.15
8 -0.15
9 -0.15

>  <PUBCHEM_EFFECTIVE_ROTOR_COUNT>  (1) 
2

>  <PUBCHEM_PHARMACOPHORE_FEATURES>  (1) 
3
1 1 acceptor
1 1 donor
6 3 7 8 9 10 11 rings

>  <PUBCHEM_HEAVY_ATOM_COUNT>  (1) 
11

>  <PUBCHEM_ATOM_DEF_STEREO_COUNT>  (1) 
0

>  <PUBCHEM_ATOM_UDEF_STEREO_COUNT>  (1) 
0

>  <PUBCHEM_BOND_DEF_STEREO_COUNT>  (1) 
0

>  <PUBCHEM_BOND_UDEF_STEREO_COUNT>  (1) 
1

>  <PUBCHEM_ISOTOPIC_ATOM_COUNT>  (1) 
0

>  <PUBCHEM_COMPONENT_COUNT>  (1) 
1

>  <PUBCHEM_CACTVS_TAUTO_COUNT>  (1) 
1

>  <PUBCHEM_CONFORMER_ID>  (1) 
00003B4400000001

>  <PUBCHEM_MMFF94_ENERGY>  (1) 
24.2893

>  <PUBCHEM_FEATURE_SELFOVERLAP>  (1) 
15.223

>  <PUBCHEM_SHAPE_FINGERPRINT>  (1) 
10608611 8 18342735213145757808
10751810 167 17968107412332680150
11062470 55 16630527332108485721
11132069 177 18409164415613579561
12032990 46 18411427219122921223
12932764 1 17240478109240717548
13024252 1 14490190510258702941
13296908 3 18272653450229625262
14144814 61 18113897152201319728
14325111 11 18410293601196725484
14577589 140 18272653458767091959
15219456 202 18130791135530047622
190213 19 17967533475784298278
1986462 14 18409453561338571126
20201158 50 18272937102427921830
20279233 1 18202844357544462718
20281407 28 18411706508045706722
20645464 45 18131639967312805647
20645477 70 17274823498302193774
20715346 28 18131068247020335060
20871998 184 18270967959150312279
23402539 116 18272645754244349557
23552423 10 17823985743267264613
23559900 14 18341049632277390900
3248919 1 18409163329203105772
369184 2 16989126461238721135
43471831 8 18114458977032260547
449060 50 17988358277960425152
7364860 26 18193847161189972260

>  <PUBCHEM_SHAPE_MULTIPOLES>  (1) 
220.51
7.16
1.25
0.8
4.64
0.11
-0.06
0.59
-0.19
-0.82
0.04
0.61
0
0.49

>  <PUBCHEM_SHAPE_SELFOVERLAP>  (1) 
447.882

>  <PUBCHEM_SHAPE_VOLUME>  (1) 
129.3

>  <PUBCHEM_COORDINATE_TYPE>  (1) 
2
5
10

$$$$
