15180
     RDKit          3D

 17 17  0  0  0  0  0  0  0  0999 V2000
   -4.1381    3.4095   -0.4716 Cl  0  0  0  0  0  0  0  0  0  0  0  0
   -3.8111   -3.6900   -0.2687 Cl  0  0  0  0  0  0  0  0  0  0  0  0
    3.7799    0.2584    1.0761 S   0  0  0  0  0  0  0  0  0  0  0  0
    3.8656    0.4006   -1.5637 O   0  0  0  0  0  0  0  0  0  0  0  0
   -2.0964   -0.0433   -0.0040 N   0  0  0  0  0  0  0  0  0  0  0  0
   -2.9602    1.0747    0.3192 C   0  0  0  0  0  0  0  0  0  0  0  0
   -2.6718   -1.2298   -0.6054 C   0  0  0  0  0  0  0  0  0  0  0  0
   -0.7109    0.0278    0.2511 C   0  0  0  0  0  0  0  0  0  0  0  0
   -3.0699    2.0362   -0.8538 C   0  0  0  0  0  0  0  0  0  0  0  0
   -3.0926   -2.2313    0.4586 C   0  0  0  0  0  0  0  0  0  0  0  0
   -0.1641    1.1791    0.8179 C   0  0  0  0  0  0  0  0  0  0  0  0
    0.1125   -1.0532   -0.0639 C   0  0  0  0  0  0  0  0  0  0  0  0
    1.2061    1.2494    1.0695 C   0  0  0  0  0  0  0  0  0  0  0  0
    1.4827   -0.9829    0.1880 C   0  0  0  0  0  0  0  0  0  0  0  0
    2.0294    0.1684    0.7546 C   0  0  0  0  0  0  0  0  0  0  0  0
    4.4455    0.0448   -0.5447 C   0  0  0  0  0  0  0  0  0  0  0  0
    5.7934   -0.6184   -0.5594 C   0  0  0  0  0  0  0  0  0  0  0  0
  1  9  1  0
  2 10  1  0
  3 15  1  0
  3 16  1  0
  4 16  2  0
  5  6  1  0
  5  7  1  0
  5  8  1  0
  6  9  1  0
  7 10  1  0
  8 11  2  0
  8 12  1  0
 11 13  1  0
 12 14  2  0
 13 15  2  0
 14 15  1  0
 16 17  1  0
M  END
>  <PUBCHEM_COMPOUND_CID>  (1) 
15180

>  <PUBCHEM_CONFORMER_RMSD>  (1) 
0.8

>  <PUBCHEM_CONFORMER_DIVERSEORDER>  (1) 
3
56
117
95
78
54
70
101
105
76
109
4
84
114
41
51
60
62
111
108
49
96
90
46
99
110
39
59
89
88
72
50
48
83
87
94
67
11
37
80
43
69
10
92
68
98
82
2
81
8
42
66
115
102
86
53
26
116
9
75
61
13
85
32
97
47
30
79
93
27
24
23
103
19
112
58
1
74
7
57
25
71
14
29
45
100
22
65
15
12
44
107
91
16
5
34
106
73
20
21
52
63
113
64
31
36
55
6
18
77
33
104
17
38
40
35
28

>  <PUBCHEM_MMFF94_PARTIAL_CHARGES>  (1) 
21
1 -0.29
10 0.29
11 -0.15
12 -0.15
13 -0.15
14 -0.15
15 0.1
16 0.65
17 0.06
2 -0.29
22 0.15
23 0.15
28 0.15
29 0.15
3 -0.24
4 -0.57
5 -0.84
6 0.37
7 0.37
8 0.1
9 0.29

>  <PUBCHEM_EFFECTIVE_ROTOR_COUNT>  (1) 
7

>  <PUBCHEM_PHARMACOPHORE_FEATURES>  (1) 
2
1 5 cation
6 8 11 12 13 14 15 rings

>  <PUBCHEM_HEAVY_ATOM_COUNT>  (1) 
17

>  <PUBCHEM_ATOM_DEF_STEREO_COUNT>  (1) 
0

>  <PUBCHEM_ATOM_UDEF_STEREO_COUNT>  (1) 
0

>  <PUBCHEM_BOND_DEF_STEREO_COUNT>  (1) 
0

>  <PUBCHEM_BOND_UDEF_STEREO_COUNT>  (1) 
0

>  <PUBCHEM_ISOTOPIC_ATOM_COUNT>  (1) 
0

>  <PUBCHEM_COMPONENT_COUNT>  (1) 
1

>  <PUBCHEM_CACTVS_TAUTO_COUNT>  (1) 
1

>  <PUBCHEM_CONFORMER_ID>  (1) 
00003B4C00000003

>  <PUBCHEM_MMFF94_ENERGY>  (1) 
47.5676

>  <PUBCHEM_FEATURE_SELFOVERLAP>  (1) 
10.148

>  <PUBCHEM_SHAPE_FINGERPRINT>  (1) 
10680689 15 18335706052320041016
11056379 131 18408605894030358039
11543360 7 16733538450690987882
11796584 16 18341050697646181670
12032990 46 18129946800994818906
12500047 106 18338510842284977521
12788726 201 18260819424224387827
13296908 3 17846776338693905024
13760787 19 18187362091285013386
14911166 2 18059287656714001096
15842332 3 17604408726840175211
17539 30 18339630248802629703
18186145 218 18201717353825926024
19026448 5 17603297146755067802
1986462 14 18342178886047412810
200 152 15410607052435874160
20602899 9 15338538484803971933
20645477 56 18337108956565067201
20645477 70 16773793684734344532
20871999 31 18409165510787977173
21065201 7 18341040883112686562
21426921 1 18409166632149052719
22094290 60 18335702792418939467
22182313 1 17987500667169484392
22943178 12 18059846311784197976
23402539 116 18408603643994444204
23493267 7 18410569548471457243
23557571 272 18343023276454464853
2748010 2 18058713831803016897
3057174 1 17905586832421005367
5104073 3 18060135462294890954
56616090 163 18339362942279508533
58051976 100 18411132554428193141
59554788 170 18124594447025768879
59755656 520 18130232532716695297
6049 1 18059006310491065329
633830 44 17023194786307783298
77188 2 17977102693812803863

>  <PUBCHEM_SHAPE_MULTIPOLES>  (1) 
346.59
10.24
3.29
1.08
9.92
0.84
0.07
0.31
2.9
-8.14
0.47
0.8
-0.24
0.73

>  <PUBCHEM_SHAPE_SELFOVERLAP>  (1) 
663.025

>  <PUBCHEM_SHAPE_VOLUME>  (1) 
215.8

>  <PUBCHEM_COORDINATE_TYPE>  (1) 
2
5
10

$$$$
