15185
     RDKit          3D

 23 24  0  0  1  0  0  0  0  0999 V2000
   -0.6081    1.6213   -0.9085 O   0  0  0  0  0  0  0  0  0  0  0  0
   -2.4365    1.6958    1.2213 O   0  0  0  0  0  0  0  0  0  0  0  0
    3.5807    1.0239    2.2805 O   0  0  0  0  0  0  0  0  0  0  0  0
    4.7276   -1.5862   -1.3369 O   0  0  0  0  0  0  0  0  0  0  0  0
    1.2855    2.9096   -0.6066 O   0  0  0  0  0  0  0  0  0  0  0  0
    4.1229   -0.2911    0.4691 N   0  0  0  0  0  0  0  0  0  0  0  0
   -1.3596   -0.2824    0.3416 C   0  0  0  0  0  0  0  0  0  0  0  0
   -1.8273   -1.0401   -0.9047 C   0  0  0  0  0  0  0  0  0  0  0  0
   -3.0522   -1.9190   -0.6114 C   0  0  0  0  0  0  0  0  0  0  0  0
   -0.1766    0.6223    0.0098 C   0  0  0  0  0  0  0  0  0  0  0  0
   -3.7903   -0.3077    1.2082 C   0  0  0  0  0  0  0  0  0  0  0  0
   -4.2025   -1.0651   -0.0577 C   0  0  0  0  0  0  0  0  0  0  0  0
   -2.5295    0.5052    0.9258 C   0  0  0  0  0  0  0  0  0  0  0  0
    0.9689   -0.1753   -0.6147 C   0  0  0  0  0  0  0  0  0  0  0  0
    1.5072   -1.2510    0.3324 C   0  0  0  0  0  0  0  0  0  0  0  0
   -3.4938   -2.6618   -1.8716 C   0  0  0  0  0  0  0  0  0  0  0  0
   -4.9329    0.5729    1.7053 C   0  0  0  0  0  0  0  0  0  0  0  0
    2.0014   -0.6616    1.6496 C   0  0  0  0  0  0  0  0  0  0  0  0
    2.6217   -2.0735   -0.3065 C   0  0  0  0  0  0  0  0  0  0  0  0
    3.2859    0.1193    1.4997 C   0  0  0  0  0  0  0  0  0  0  0  0
    3.9087   -1.2981   -0.4644 C   0  0  0  0  0  0  0  0  0  0  0  0
    0.3402    2.5305   -1.2847 C   0  0  0  0  0  0  0  0  0  0  0  0
    0.0585    3.0120   -2.6757 C   0  0  0  0  0  0  0  0  0  0  0  0
  1 10  1  0
  1 22  1  0
  2 13  2  0
  3 20  2  0
  4 21  2  0
  5 22  2  0
  6 20  1  0
  6 21  1  0
  7  8  1  0
  7 10  1  0
  7 13  1  0
  8  9  1  0
  9 12  1  0
  9 16  1  0
 10 14  1  0
 11 12  1  0
 11 13  1  0
 11 17  1  0
 14 15  1  0
 15 18  1  0
 15 19  1  0
 18 20  1  0
 19 21  1  0
 22 23  1  0
M  END
>  <PUBCHEM_COMPOUND_CID>  (1) 
15185

>  <PUBCHEM_CONFORMER_RMSD>  (1) 
0.8

>  <PUBCHEM_CONFORMER_DIVERSEORDER>  (1) 
6
92
8
48
94
119
105
16
112
113
99
35
69
57
88
27
9
56
111
91
45
85
89
95
3
118
34
103
10
60
79
51
77
72
76
24
97
58
61
90
14
53
107
114
80
62
86
5
18
38
19
25
96
7
55
116
70
43
17
93
42
74
13
54
87
49
115
41
30
33
98
2
44
71
29
28
50
75
32
84
21
109
22
82
23
67
15
4
52
102
110
64
117
26
20
106
63
31
40
65
101
66
47
37
11
68
78
83
59
46
36
12
81
1
73
39
100
108
104

>  <PUBCHEM_MMFF94_PARTIAL_CHARGES>  (1) 
17
1 -0.43
10 0.28
11 0.06
13 0.45
18 0.06
19 0.06
2 -0.57
20 0.57
21 0.57
22 0.66
23 0.06
3 -0.57
4 -0.57
45 0.37
5 -0.57
6 -0.49
7 0.06

>  <PUBCHEM_EFFECTIVE_ROTOR_COUNT>  (1) 
6.8

>  <PUBCHEM_PHARMACOPHORE_FEATURES>  (1) 
7
1 2 acceptor
1 3 acceptor
1 4 acceptor
1 5 acceptor
1 6 donor
6 6 15 18 19 20 21 rings
6 7 8 9 11 12 13 rings

>  <PUBCHEM_HEAVY_ATOM_COUNT>  (1) 
23

>  <PUBCHEM_ATOM_DEF_STEREO_COUNT>  (1) 
0

>  <PUBCHEM_ATOM_UDEF_STEREO_COUNT>  (1) 
4

>  <PUBCHEM_BOND_DEF_STEREO_COUNT>  (1) 
0

>  <PUBCHEM_BOND_UDEF_STEREO_COUNT>  (1) 
0

>  <PUBCHEM_ISOTOPIC_ATOM_COUNT>  (1) 
0

>  <PUBCHEM_COMPONENT_COUNT>  (1) 
1

>  <PUBCHEM_CACTVS_TAUTO_COUNT>  (1) 
6

>  <PUBCHEM_CONFORMER_ID>  (1) 
00003B5100000006

>  <PUBCHEM_MMFF94_ENERGY>  (1) 
47.5277

>  <PUBCHEM_FEATURE_SELFOVERLAP>  (1) 
35.523

>  <PUBCHEM_SHAPE_FINGERPRINT>  (1) 
10369192 42 17415822842820236624
11370993 144 17560804290474358715
11552529 35 17131542929630659607
11578080 2 18053915572256511297
12160290 23 17681252383277696044
12403259 327 17060625460309497747
12553582 1 18040715861543409395
12633257 1 17703225096645849699
12707595 3 17675926520893404243
12788726 201 17314510327140850677
13009979 54 18271818976928901487
133893 2 17751924872053420893
13583140 156 16343124926735456474
13681431 1 18040999608484044829
13911987 19 16951430809035313518
14341114 176 17632867403597970930
14863182 85 17628067120536222406
14955137 171 18264795231956938907
1813 80 18260265261066775509
18222031 100 18334012795897366003
200 152 16443070469449910538
20361792 2 18114178635947449423
20600515 1 18187638163039696738
20691752 17 18334007302940435474
21033648 29 17987227829609565193
21065198 57 17561083596381984067
21304303 282 16014326814973002877
21524375 3 9871746888507663915
22112679 90 18337404785000507237
23402539 116 17967819289142565262
23419403 2 17479400981076740509
23559900 14 17489870414663501762
23566358 27 17754198658179220919
23598288 3 17608361346872833726
23598291 2 18338521949239158503
23622692 88 18410303484654899889
25147074 1 18198355137947601639
312423 11 18193568980885492671
5104073 3 17703785929180582994
59554788 62 18337658746274255579
6049 1 18196640814441067848
6287921 2 18200029672349597680
7615 1 18198347449776670463
81228 2 17897154715600923533

>  <PUBCHEM_SHAPE_MULTIPOLES>  (1) 
439
8.71
2.94
2.08
0.16
1.95
0.11
-4.57
-2.5
-0.11
2.42
0.12
0.76
-0.96

>  <PUBCHEM_SHAPE_SELFOVERLAP>  (1) 
902.015

>  <PUBCHEM_SHAPE_VOLUME>  (1) 
249.1

>  <PUBCHEM_COORDINATE_TYPE>  (1) 
2
5
10

$$$$
