15199
     RDKit          3D

  6  6  0  0  1  0  0  0  0  0999 V2000
   -1.4062   -1.2888   -0.0583 O   0  0  0  0  0  0  0  0  0  0  0  0
    0.7520   -0.0598    0.4710 C   0  0  0  0  0  0  0  0  0  0  0  0
    0.5831    1.3744   -0.0861 C   0  0  0  0  0  0  0  0  0  0  0  0
   -0.9555    1.2094   -0.1289 C   0  0  0  0  0  0  0  0  0  0  0  0
   -0.7158   -0.3006    0.0670 C   0  0  0  0  0  0  0  0  0  0  0  0
    1.7424   -0.9345   -0.2647 C   0  0  0  0  0  0  0  0  0  0  0  0
  1  5  2  0
  2  3  1  0
  2  5  1  0
  2  6  1  0
  3  4  1  0
  4  5  1  0
M  END
>  <PUBCHEM_COMPOUND_CID>  (1) 
15199

>  <PUBCHEM_CONFORMER_RMSD>  (1) 
0.4

>  <PUBCHEM_CONFORMER_DIVERSEORDER>  (1) 
1

>  <PUBCHEM_MMFF94_PARTIAL_CHARGES>  (1) 
4
1 -0.57
2 0.05
4 0.05
5 0.46

>  <PUBCHEM_EFFECTIVE_ROTOR_COUNT>  (1) 
0.6

>  <PUBCHEM_PHARMACOPHORE_FEATURES>  (1) 
2
1 1 acceptor
4 2 3 4 5 rings

>  <PUBCHEM_HEAVY_ATOM_COUNT>  (1) 
6

>  <PUBCHEM_ATOM_DEF_STEREO_COUNT>  (1) 
0

>  <PUBCHEM_ATOM_UDEF_STEREO_COUNT>  (1) 
1

>  <PUBCHEM_BOND_DEF_STEREO_COUNT>  (1) 
0

>  <PUBCHEM_BOND_UDEF_STEREO_COUNT>  (1) 
0

>  <PUBCHEM_ISOTOPIC_ATOM_COUNT>  (1) 
0

>  <PUBCHEM_COMPONENT_COUNT>  (1) 
1

>  <PUBCHEM_CACTVS_TAUTO_COUNT>  (1) 
3

>  <PUBCHEM_CONFORMER_ID>  (1) 
00003B5F00000001

>  <PUBCHEM_MMFF94_ENERGY>  (1) 
7.2698

>  <PUBCHEM_FEATURE_SELFOVERLAP>  (1) 
10.148

>  <PUBCHEM_SHAPE_FINGERPRINT>  (1) 
139733 1 9151179752695335786
16714656 1 18049168760987705044
20096714 4 17542227861255548424
21015797 1 9727098450045499729
21040471 1 17833263125776558808
29004967 10 18047193230613542091
5943 1 12291747641573277008

>  <PUBCHEM_SHAPE_MULTIPOLES>  (1) 
117.61
1.82
1.53
0.66
0.75
0.12
-0.02
0.19
0.18
-0.46
0.07
0.06
-0.03
0.05

>  <PUBCHEM_SHAPE_SELFOVERLAP>  (1) 
226.006

>  <PUBCHEM_SHAPE_VOLUME>  (1) 
71.5

>  <PUBCHEM_COORDINATE_TYPE>  (1) 
2
5
10

$$$$
