1519
     RDKit          3D

 41 44  0  0  1  0  0  0  0  0999 V2000
    0.2921    2.7963   -0.7592 S   0  0  0  0  0  0  0  0  0  0  0  0
    3.2371   -0.5545    0.4123 O   0  0  0  0  0  0  0  0  0  0  0  0
   -3.0459    1.7110   -1.7619 O   0  0  0  0  0  0  0  0  0  0  0  0
    5.7790   -1.2253   -3.1718 O   0  0  0  0  0  0  0  0  0  0  0  0
   -2.7053   -1.1825    1.4587 O   0  0  0  0  0  0  0  0  0  0  0  0
    0.9605    0.2135   -0.7963 N   0  0  0  0  0  0  0  0  0  0  0  0
    4.4852    0.4359   -1.2850 N   0  0  0  0  0  0  0  0  0  0  0  0
   -1.7897   -0.6927   -0.6184 N   0  0  0  0  0  0  0  0  0  0  0  0
   -3.0420    2.2312    0.4996 N   0  0  0  0  0  0  0  0  0  0  0  0
    2.0170    2.3526   -0.3330 C   0  0  0  0  0  0  0  0  0  0  0  0
    2.1715    0.9978   -1.0511 C   0  0  0  0  0  0  0  0  0  0  0  0
   -0.1787    1.0736   -1.1287 C   0  0  0  0  0  0  0  0  0  0  0  0
   -1.4008    0.6615   -0.3243 C   0  0  0  0  0  0  0  0  0  0  0  0
    2.9785    3.4038   -0.8875 C   0  0  0  0  0  0  0  0  0  0  0  0
    2.1215    2.2828    1.1970 C   0  0  0  0  0  0  0  0  0  0  0  0
    3.3344    0.1988   -0.5530 C   0  0  0  0  0  0  0  0  0  0  0  0
   -2.5860    1.5678   -0.6310 C   0  0  0  0  0  0  0  0  0  0  0  0
    5.7521   -0.1946   -0.9923 C   0  0  0  0  0  0  0  0  0  0  0  0
    6.5649    0.6529   -0.0010 C   0  0  0  0  0  0  0  0  0  0  0  0
   -2.4184   -1.5135    0.3111 C   0  0  0  0  0  0  0  0  0  0  0  0
    6.5393   -0.4110   -2.2860 C   0  0  0  0  0  0  0  0  0  0  0  0
   -4.1297    3.1805    0.4610 C   0  0  0  0  0  0  0  0  0  0  0  0
   -2.7191   -2.8840   -0.2647 C   0  0  0  0  0  0  0  0  0  0  0  0
    7.5913   -0.1504    0.7624 C   0  0  0  0  0  0  0  0  0  0  0  0
   -5.4596    2.5204    0.6843 C   0  0  0  0  0  0  0  0  0  0  0  0
   -4.1869   -3.2201   -0.2701 C   0  0  0  0  0  0  0  0  0  0  0  0
    7.2484   -0.7462    1.9762 C   0  0  0  0  0  0  0  0  0  0  0  0
    8.8818   -0.2969    0.2536 C   0  0  0  0  0  0  0  0  0  0  0  0
    8.1960   -1.4883    2.6812 C   0  0  0  0  0  0  0  0  0  0  0  0
    9.8293   -1.0390    0.9586 C   0  0  0  0  0  0  0  0  0  0  0  0
   -6.1892    2.0365   -0.4017 C   0  0  0  0  0  0  0  0  0  0  0  0
   -5.9655    2.3905    1.9778 C   0  0  0  0  0  0  0  0  0  0  0  0
   -4.7596   -3.8612    0.8284 C   0  0  0  0  0  0  0  0  0  0  0  0
   -4.9741   -2.8898   -1.3733 C   0  0  0  0  0  0  0  0  0  0  0  0
    9.4863   -1.6347    2.1724 C   0  0  0  0  0  0  0  0  0  0  0  0
   -7.4246    1.4230   -0.1944 C   0  0  0  0  0  0  0  0  0  0  0  0
   -7.2009    1.7769    2.1851 C   0  0  0  0  0  0  0  0  0  0  0  0
   -6.1193   -4.1724    0.8236 C   0  0  0  0  0  0  0  0  0  0  0  0
   -6.3339   -3.2009   -1.3779 C   0  0  0  0  0  0  0  0  0  0  0  0
   -7.9304    1.2931    1.0989 C   0  0  0  0  0  0  0  0  0  0  0  0
   -6.9064   -3.8422   -0.2794 C   0  0  0  0  0  0  0  0  0  0  0  0
  1 10  1  0
  1 12  1  0
  2 16  2  0
  3 17  2  0
  4 21  1  0
  5 20  2  0
  6 11  1  0
  6 12  1  0
  7 16  1  0
  7 18  1  0
  8 13  1  0
  8 20  1  0
  9 17  1  0
  9 22  1  0
 10 11  1  0
 10 14  1  0
 10 15  1  0
 11 16  1  0
 12 13  1  0
 13 17  1  0
 18 19  1  0
 18 21  1  0
 19 24  1  0
 20 23  1  0
 22 25  1  0
 23 26  1  0
 24 27  2  0
 24 28  1  0
 25 31  2  0
 25 32  1  0
 26 33  2  0
 26 34  1  0
 27 29  1  0
 28 30  2  0
 29 35  2  0
 30 35  1  0
 31 36  1  0
 32 37  2  0
 33 38  1  0
 34 39  2  0
 36 40  2  0
 37 40  1  0
 38 41  2  0
 39 41  1  0
M  END
>  <PUBCHEM_COMPOUND_CID>  (1) 
1519

>  <PUBCHEM_CONFORMER_RMSD>  (1) 
2

>  <PUBCHEM_CONFORMER_DIVERSEORDER>  (1) 
1
54
35
61
8
16
82
19
75
93
68
90
41
5
63
81
84
31
57
17
25
99
53
83
42
52
21
39
34
97
85
105
79
91
14
50
12
66
70
56
71
64
20
67
32
100
101
80
26
96
76
95
49
24
69
72
65
60
98
28
107
18
51
40
37
77
102
94
86
4
46
43
106
27
48
30
87
38
103
44
29
36
104
88
74
11
73
78
59
33
2
6
7
15
92
9
55
10
13
45
22
58
47
89
23
62
3

>  <PUBCHEM_MMFF94_PARTIAL_CHARGES>  (1) 
59
1 -0.46
10 0.23
11 0.33
12 0.5
13 0.36
16 0.57
17 0.57
18 0.3
19 0.14
2 -0.57
20 0.57
21 0.28
22 0.44
23 0.2
24 -0.14
25 -0.14
26 -0.14
27 -0.15
28 -0.15
29 -0.15
3 -0.57
30 -0.15
31 -0.15
32 -0.15
33 -0.15
34 -0.15
35 -0.15
36 -0.15
37 -0.15
38 -0.15
39 -0.15
4 -0.68
40 -0.15
41 -0.15
44 0.36
5 -0.57
52 0.37
53 0.37
57 0.37
6 -0.9
64 0.4
65 0.15
66 0.15
67 0.15
68 0.15
69 0.15
7 -0.73
70 0.15
71 0.15
72 0.15
73 0.15
74 0.15
75 0.15
76 0.15
77 0.15
78 0.15
79 0.15
8 -0.73
9 -0.73

>  <PUBCHEM_EFFECTIVE_ROTOR_COUNT>  (1) 
16

>  <PUBCHEM_PHARMACOPHORE_FEATURES>  (1) 
15
1 2 acceptor
1 3 acceptor
1 4 acceptor
1 4 donor
1 5 acceptor
1 6 cation
1 6 donor
1 7 donor
1 8 donor
1 9 donor
3 10 14 15 hydrophobe
5 1 6 10 11 12 rings
6 24 27 28 29 30 35 rings
6 25 31 32 36 37 40 rings
6 26 33 34 38 39 41 rings

>  <PUBCHEM_HEAVY_ATOM_COUNT>  (1) 
41

>  <PUBCHEM_ATOM_DEF_STEREO_COUNT>  (1) 
0

>  <PUBCHEM_ATOM_UDEF_STEREO_COUNT>  (1) 
4

>  <PUBCHEM_BOND_DEF_STEREO_COUNT>  (1) 
0

>  <PUBCHEM_BOND_UDEF_STEREO_COUNT>  (1) 
0

>  <PUBCHEM_ISOTOPIC_ATOM_COUNT>  (1) 
0

>  <PUBCHEM_COMPONENT_COUNT>  (1) 
1

>  <PUBCHEM_CACTVS_TAUTO_COUNT>  (1) 
8

>  <PUBCHEM_CONFORMER_ID>  (1) 
000005EF00000001

>  <PUBCHEM_MMFF94_ENERGY>  (1) 
99.2543

>  <PUBCHEM_FEATURE_SELFOVERLAP>  (1) 
76.129

>  <PUBCHEM_SHAPE_FINGERPRINT>  (1) 
10050765 1 18266748054639431693
12498461 61 18408316671069633402
13383668 254 15339119061071424579
13383668 90 13407085803931062825
14040222 383 18341893009029917498
14279260 333 18412536623068462391
18603816 31 18187083958177837921
3383291 50 18341901753520281785
3504750 166 18268422607265392215
5080951 261 18342442743437430975
6636735 143 17346023567744470650
6691757 9 18342171138411772505

>  <PUBCHEM_SHAPE_MULTIPOLES>  (1) 
804.21
30.45
5.02
2.12
47.25
3.19
-0.14
14.01
-13.79
-13.6
-0.28
3.11
0.37
-4.26

>  <PUBCHEM_SHAPE_SELFOVERLAP>  (1) 
1684.029

>  <PUBCHEM_SHAPE_VOLUME>  (1) 
454.4

>  <PUBCHEM_COORDINATE_TYPE>  (1) 
2
5
10

$$$$
