15190
     RDKit          3D

 32 33  0  0  0  0  0  0  0  0999 V2000
   -2.6680   -2.8995   -0.2226 O   0  0  0  0  0  0  0  0  0  0  0  0
   -0.5342    1.2147   -1.3826 O   0  0  0  0  0  0  0  0  0  0  0  0
   -0.1760   -3.1969    0.9226 O   0  0  0  0  0  0  0  0  0  0  0  0
   -4.7439    1.2577    0.8877 O   0  0  0  0  0  0  0  0  0  0  0  0
    1.8127   -0.0423   -2.0773 O   0  0  0  0  0  0  0  0  0  0  0  0
    4.2396   -1.6320    1.7357 O   0  0  0  0  0  0  0  0  0  0  0  0
   -3.1339    3.3453   -1.2036 O   0  0  0  0  0  0  0  0  0  0  0  0
    4.7427   -0.1475   -1.6625 O   0  0  0  0  0  0  0  0  0  0  0  0
   -0.4412   -1.6178   -1.4247 C   0  0  0  0  0  0  0  0  0  0  0  0
   -1.5902   -0.8488   -0.8081 C   0  0  0  0  0  0  0  0  0  0  0  0
    0.8013   -1.6164   -0.5928 C   0  0  0  0  0  0  0  0  0  0  0  0
   -2.6582   -1.5353   -0.2305 C   0  0  0  0  0  0  0  0  0  0  0  0
   -1.5807    0.5460   -0.8169 C   0  0  0  0  0  0  0  0  0  0  0  0
   -2.6392    1.2543   -0.2482 C   0  0  0  0  0  0  0  0  0  0  0  0
   -3.7169   -0.8270    0.3381 C   0  0  0  0  0  0  0  0  0  0  0  0
   -3.7073    0.5677    0.3293 C   0  0  0  0  0  0  0  0  0  0  0  0
    1.8867   -0.8201   -0.9584 C   0  0  0  0  0  0  0  0  0  0  0  0
    0.8742   -2.4127    0.5501 C   0  0  0  0  0  0  0  0  0  0  0  0
    3.0449   -0.8203   -0.1811 C   0  0  0  0  0  0  0  0  0  0  0  0
   -2.6288    2.7133   -0.2564 C   0  0  0  0  0  0  0  0  0  0  0  0
   -1.9898    3.4795    0.9138 C   0  0  0  0  0  0  0  0  0  0  0  0
    3.1177   -1.6167    0.9617 C   0  0  0  0  0  0  0  0  0  0  0  0
    2.0323   -2.4128    1.3273 C   0  0  0  0  0  0  0  0  0  0  0  0
   -4.8621   -1.5635    0.9566 C   0  0  0  0  0  0  0  0  0  0  0  0
    4.2074    0.0312   -0.5709 C   0  0  0  0  0  0  0  0  0  0  0  0
    4.6911    1.0965    0.4016 C   0  0  0  0  0  0  0  0  0  0  0  0
   -1.4192    4.8383    0.5072 C   0  0  0  0  0  0  0  0  0  0  0  0
    5.2950    2.3031   -0.3171 C   0  0  0  0  0  0  0  0  0  0  0  0
   -0.7698    5.5453    1.6856 C   0  0  0  0  0  0  0  0  0  0  0  0
   -3.2749   -3.5478   -1.3375 C   0  0  0  0  0  0  0  0  0  0  0  0
    5.8025    3.3425    0.6691 C   0  0  0  0  0  0  0  0  0  0  0  0
   -0.0138   -3.9781    2.1046 C   0  0  0  0  0  0  0  0  0  0  0  0
  1 12  1  0
  1 30  1  0
  2 13  1  0
  3 18  1  0
  3 32  1  0
  4 16  1  0
  5 17  1  0
  6 22  1  0
  7 20  2  0
  8 25  2  0
  9 10  1  0
  9 11  1  0
 10 12  2  0
 10 13  1  0
 11 17  2  0
 11 18  1  0
 12 15  1  0
 13 14  2  0
 14 16  1  0
 14 20  1  0
 15 16  2  0
 15 24  1  0
 17 19  1  0
 18 23  2  0
 19 22  2  0
 19 25  1  0
 20 21  1  0
 21 27  1  0
 22 23  1  0
 25 26  1  0
 26 28  1  0
 27 29  1  0
 28 31  1  0
M  END
>  <PUBCHEM_COMPOUND_CID>  (1) 
15190

>  <PUBCHEM_CONFORMER_RMSD>  (1) 
1

>  <PUBCHEM_CONFORMER_DIVERSEORDER>  (1) 
1
43
10
37
44
45
48
47
2
8
35
38
27
17
36
21
55
39
14
20
56
4
52
15
51
5
41
9
3
18
40
29
19
11
46
54
42
24
31
32
16
23
34
30
6
7
50
53
12
28
22
33
26
49
13
25

>  <PUBCHEM_MMFF94_PARTIAL_CHARGES>  (1) 
33
1 -0.36
10 -0.14
11 -0.14
12 0.08
13 0.08
14 0.09
15 -0.14
16 0.08
17 0.08
18 0.08
19 0.09
2 -0.53
20 0.42
21 0.06
22 0.08
23 -0.15
24 0.14
25 0.42
26 0.06
3 -0.36
30 0.28
32 0.28
37 0.15
4 -0.53
47 0.45
48 0.45
49 0.45
5 -0.53
59 0.45
6 -0.53
7 -0.57
8 -0.57
9 0.29

>  <PUBCHEM_EFFECTIVE_ROTOR_COUNT>  (1) 
10

>  <PUBCHEM_PHARMACOPHORE_FEATURES>  (1) 
12
1 1 acceptor
1 2 donor
1 29 hydrophobe
1 3 acceptor
1 31 hydrophobe
1 4 donor
1 5 donor
1 6 donor
1 7 acceptor
1 8 acceptor
6 10 12 13 14 15 16 rings
6 11 17 18 19 22 23 rings

>  <PUBCHEM_HEAVY_ATOM_COUNT>  (1) 
32

>  <PUBCHEM_ATOM_DEF_STEREO_COUNT>  (1) 
0

>  <PUBCHEM_ATOM_UDEF_STEREO_COUNT>  (1) 
0

>  <PUBCHEM_BOND_DEF_STEREO_COUNT>  (1) 
0

>  <PUBCHEM_BOND_UDEF_STEREO_COUNT>  (1) 
0

>  <PUBCHEM_ISOTOPIC_ATOM_COUNT>  (1) 
0

>  <PUBCHEM_COMPONENT_COUNT>  (1) 
1

>  <PUBCHEM_CACTVS_TAUTO_COUNT>  (1) 
484

>  <PUBCHEM_CONFORMER_ID>  (1) 
00003B5600000001

>  <PUBCHEM_MMFF94_ENERGY>  (1) 
110.7832

>  <PUBCHEM_FEATURE_SELFOVERLAP>  (1) 
60.907

>  <PUBCHEM_SHAPE_FINGERPRINT>  (1) 
10006869 2 18338515215031124807
1100329 8 17972892637540750031
11059048 146 17910684163542595584
12788726 201 18336274487110489155
12978246 48 18266456508058928720
13140716 1 18264502830963111871
13782708 43 17060064756556226407
13965767 371 17109605168526713589
14394314 77 18336550516733170481
14739800 52 18266163106696190784
14787075 74 18192145121484752486
15961568 22 18199188580251160836
18603816 31 12180944589819475344
20511986 3 18040704862817979639
20739085 24 17459196179422008798
21344244 246 16758580055768556167
21756936 100 18410289246791243902
21864079 5 18341886356120411748
23559900 14 17910116802515180887
392239 28 18190466154180537474
469060 322 17822301218381324909
5104073 3 18186520981732192986
7097593 13 17465938264026681259
7808743 9 18343301461596820882

>  <PUBCHEM_SHAPE_MULTIPOLES>  (1) 
611.59
10.15
6.45
1.63
10.23
7.83
0.1
3.59
0.6
-2.81
3.21
0.41
-0.65
-0.72

>  <PUBCHEM_SHAPE_SELFOVERLAP>  (1) 
1293.953

>  <PUBCHEM_SHAPE_VOLUME>  (1) 
343

>  <PUBCHEM_COORDINATE_TYPE>  (1) 
2
5
10

$$$$
