15193
     RDKit          3D

 15 17  0  0  0  0  0  0  0  0999 V2000
   -1.4378    2.6526   -0.0008 F   0  0  0  0  0  0  0  0  0  0  0  0
    0.3850   -2.9330   -0.0004 O   0  0  0  0  0  0  0  0  0  0  0  0
   -0.6851    0.3986   -0.0003 C   0  0  0  0  0  0  0  0  0  0  0  0
    0.7543    0.5467   -0.0003 C   0  0  0  0  0  0  0  0  0  0  0  0
   -1.0078   -0.9696   -0.0001 C   0  0  0  0  0  0  0  0  0  0  0  0
    1.3487   -0.7270   -0.0004 C   0  0  0  0  0  0  0  0  0  0  0  0
    0.2610   -1.7280   -0.0003 C   0  0  0  0  0  0  0  0  0  0  0  0
   -1.6992    1.3400   -0.0002 C   0  0  0  0  0  0  0  0  0  0  0  0
    1.5553    1.6748    0.0003 C   0  0  0  0  0  0  0  0  0  0  0  0
   -2.3045   -1.4422    0.0005 C   0  0  0  0  0  0  0  0  0  0  0  0
    2.7146   -0.9257    0.0000 C   0  0  0  0  0  0  0  0  0  0  0  0
   -3.0243    0.8868    0.0003 C   0  0  0  0  0  0  0  0  0  0  0  0
   -3.3231   -0.4894    0.0008 C   0  0  0  0  0  0  0  0  0  0  0  0
    2.9451    1.5010    0.0006 C   0  0  0  0  0  0  0  0  0  0  0  0
    3.5179    0.2145    0.0004 C   0  0  0  0  0  0  0  0  0  0  0  0
  1  8  1  0
  2  7  2  0
  3  4  1  0
  3  5  2  0
  3  8  1  0
  4  6  2  0
  4  9  1  0
  5  7  1  0
  5 10  1  0
  6  7  1  0
  6 11  1  0
  8 12  2  0
  9 14  2  0
 10 13  2  0
 11 15  2  0
 12 13  1  0
 14 15  1  0
M  END
>  <PUBCHEM_COMPOUND_CID>  (1) 
15193

>  <PUBCHEM_CONFORMER_RMSD>  (1) 
0.4

>  <PUBCHEM_CONFORMER_DIVERSEORDER>  (1) 
1

>  <PUBCHEM_MMFF94_PARTIAL_CHARGES>  (1) 
20
1 -0.19
10 -0.15
11 -0.15
12 -0.15
13 -0.15
14 -0.15
15 -0.15
16 0.15
17 0.15
18 0.15
19 0.15
2 -0.57
20 0.15
21 0.15
22 0.15
5 0.09
6 0.09
7 0.4
8 0.19
9 -0.15

>  <PUBCHEM_EFFECTIVE_ROTOR_COUNT>  (1) 
0

>  <PUBCHEM_PHARMACOPHORE_FEATURES>  (1) 
4
1 2 acceptor
5 3 4 5 6 7 rings
6 3 5 8 10 12 13 rings
6 4 6 9 11 14 15 rings

>  <PUBCHEM_HEAVY_ATOM_COUNT>  (1) 
15

>  <PUBCHEM_ATOM_DEF_STEREO_COUNT>  (1) 
0

>  <PUBCHEM_ATOM_UDEF_STEREO_COUNT>  (1) 
0

>  <PUBCHEM_BOND_DEF_STEREO_COUNT>  (1) 
0

>  <PUBCHEM_BOND_UDEF_STEREO_COUNT>  (1) 
0

>  <PUBCHEM_ISOTOPIC_ATOM_COUNT>  (1) 
0

>  <PUBCHEM_COMPONENT_COUNT>  (1) 
1

>  <PUBCHEM_CACTVS_TAUTO_COUNT>  (1) 
1

>  <PUBCHEM_CONFORMER_ID>  (1) 
00003B5900000001

>  <PUBCHEM_MMFF94_ENERGY>  (1) 
50.289

>  <PUBCHEM_FEATURE_SELFOVERLAP>  (1) 
20.466

>  <PUBCHEM_SHAPE_FINGERPRINT>  (1) 
10411042 1 15240041364661359152
10608611 8 18411133649539748288
10967382 1 18410575123328366567
11132069 177 18341889722868213456
11471102 20 18410569561772999317
13140716 1 18410576210144951507
13380535 76 18409164390007481531
13897977 150 18410571777839012861
14144814 61 18410011048315131400
14325111 11 18410574011011114080
14614273 12 18260821562690612197
15196674 1 18410855485908573541
15309172 13 18411146856537433235
15442244 35 18265893554021244098
15536298 74 18343302570120272406
15775835 57 18341337755140984081
16945 1 18338798892793243367
18186145 218 18271814514146475652
193761 8 18050285864674924839
20510252 161 18271810158923303736
21267235 1 18410302435865598343
21501502 16 18266175037387351267
2334 1 18266459995535014149
23402539 116 18270952574170879918
23463225 33 18334853875322235546
23559900 14 18271812273191756542
238 59 15804363885765866533
2748010 2 18338237192664703791
335352 9 18122624959432948412
43471831 8 18335416850771589442
5104073 3 18410856572530006193
528886 8 18411132562844048019
53812653 166 18342172263276375440
54173680 148 18048599519044897370
7364860 26 18197498419977433022
81228 2 17764014066619767890
8809292 202 18261117386826134515

>  <PUBCHEM_SHAPE_MULTIPOLES>  (1) 
295.55
5.11
2.44
0.6
0.54
0.28
0
-0.9
0
-0.21
0
0.01
0
0

>  <PUBCHEM_SHAPE_SELFOVERLAP>  (1) 
676.122

>  <PUBCHEM_SHAPE_VOLUME>  (1) 
154.8

>  <PUBCHEM_COORDINATE_TYPE>  (1) 
2
5
10

$$$$
