15200
     RDKit          3D

 12 11  0  0  1  0  0  0  0  0999 V2000
   -0.8255    0.9524   -1.2189 O   0  0  0  0  0  0  0  0  0  0  0  0
    1.7879    0.6119   -1.2586 O   0  0  0  0  0  0  0  0  0  0  0  0
   -3.2397    1.0683    0.1491 O   0  0  0  0  0  0  0  0  0  0  0  0
    4.0542   -0.3406    0.0735 O   0  0  0  0  0  0  0  0  0  0  0  0
   -1.3076   -1.8082    1.0505 O   0  0  0  0  0  0  0  0  0  0  0  0
   -1.4366   -1.6354   -1.2027 O   0  0  0  0  0  0  0  0  0  0  0  0
   -0.9006    0.3647    0.0805 C   0  0  0  0  0  0  0  0  0  0  0  0
    0.4672    0.5735    0.7701 C   0  0  0  0  0  0  0  0  0  0  0  0
    1.6756   -0.0121    0.0191 C   0  0  0  0  0  0  0  0  0  0  0  0
   -2.0058    1.0951    0.8608 C   0  0  0  0  0  0  0  0  0  0  0  0
    2.9701    0.2423    0.7889 C   0  0  0  0  0  0  0  0  0  0  0  0
   -1.2391   -1.1121   -0.1123 C   0  0  0  0  0  0  0  0  0  0  0  0
  1  7  1  0
  2  9  1  0
  3 10  1  0
  4 11  1  0
  5 12  1  0
  6 12  2  0
  7  8  1  0
  7 10  1  0
  7 12  1  0
  8  9  1  0
  9 11  1  0
M  END
>  <PUBCHEM_COMPOUND_CID>  (1) 
15200

>  <PUBCHEM_CONFORMER_RMSD>  (1) 
0.6

>  <PUBCHEM_CONFORMER_DIVERSEORDER>  (1) 
9
24
3
111
128
87
36
5
124
131
121
135
38
90
117
106
65
84
33
127
132
119
80
133
58
56
123
95
86
105
47
71
69
112
26
89
60
104
97
20
91
61
126
130
116
93
66
19
77
96
113
92
79
82
46
110
14
51
109
125
68
41
108
98
134
21
30
78
88
120
75
118
4
67
107
76
94
136
99
53
137
103
28
62
100
49
83
115
81
55
70
17
2
43
138
37
18
16
29
74
35
34
114
12
25
1
101
57
129
40
39
7
8
11
63
73
50
27
32
72
52
10
48
44
85
59
6
54
31
102
22
122
64
23
45
13
15
42

>  <PUBCHEM_MMFF94_PARTIAL_CHARGES>  (1) 
16
1 -0.68
10 0.28
11 0.28
12 0.66
2 -0.68
20 0.4
21 0.4
22 0.4
23 0.4
24 0.5
3 -0.68
4 -0.68
5 -0.65
6 -0.57
7 0.34
9 0.28

>  <PUBCHEM_EFFECTIVE_ROTOR_COUNT>  (1) 
5

>  <PUBCHEM_PHARMACOPHORE_FEATURES>  (1) 
11
1 1 acceptor
1 1 donor
1 2 acceptor
1 2 donor
1 3 acceptor
1 3 donor
1 4 acceptor
1 4 donor
1 5 acceptor
1 6 acceptor
3 5 6 12 anion

>  <PUBCHEM_HEAVY_ATOM_COUNT>  (1) 
12

>  <PUBCHEM_ATOM_DEF_STEREO_COUNT>  (1) 
0

>  <PUBCHEM_ATOM_UDEF_STEREO_COUNT>  (1) 
2

>  <PUBCHEM_BOND_DEF_STEREO_COUNT>  (1) 
0

>  <PUBCHEM_BOND_UDEF_STEREO_COUNT>  (1) 
0

>  <PUBCHEM_ISOTOPIC_ATOM_COUNT>  (1) 
0

>  <PUBCHEM_COMPONENT_COUNT>  (1) 
1

>  <PUBCHEM_CACTVS_TAUTO_COUNT>  (1) 
1

>  <PUBCHEM_CONFORMER_ID>  (1) 
00003B6000000009

>  <PUBCHEM_MMFF94_ENERGY>  (1) 
20.0795

>  <PUBCHEM_FEATURE_SELFOVERLAP>  (1) 
55.928

>  <PUBCHEM_SHAPE_FINGERPRINT>  (1) 
12138202 97 17989481918313433117
12423570 1 15877507921866432949
124424 183 17632294541313424888
12932764 1 17968084314410194352
13024252 1 13912319079793456673
14577589 140 18342179959810446274
14993402 34 18113333111716692845
15775835 57 18337668616108985065
16945 1 18190199939249107001
17844478 74 13406799917072917572
20201158 50 17131834244318851312
20279233 1 17275107219763018974
20524608 308 18060415819968096071
20645464 45 17632865213106380288
20653085 51 15481847670473911369
20871998 184 18200881771990791567
23235685 24 18271519797674886736
23402539 116 17703496706309307065
3248919 1 18261383512116847016
366044 4 18202281356098796201
369184 2 17704068516732326170
528862 383 17824255999605009595
6333449 129 17989202659645186107

>  <PUBCHEM_SHAPE_MULTIPOLES>  (1) 
211.74
4.74
1.45
1.14
3.94
0.57
0.17
-0.59
-0.46
-1.21
-0.08
-0.05
0.06
-0.06

>  <PUBCHEM_SHAPE_SELFOVERLAP>  (1) 
406.566

>  <PUBCHEM_SHAPE_VOLUME>  (1) 
128.6

>  <PUBCHEM_COORDINATE_TYPE>  (1) 
2
5
10

$$$$
