15209
     RDKit          3D

 31 35  0  0  1  0  0  0  0  0999 V2000
    3.7973    2.5166    1.6635 F   0  0  0  0  0  0  0  0  0  0  0  0
   -2.7844    0.5421   -1.1985 O   0  0  0  0  0  0  0  0  0  0  0  0
   -3.3393    2.3038    0.2549 O   0  0  0  0  0  0  0  0  0  0  0  0
    0.7682   -2.8775    0.6493 O   0  0  0  0  0  0  0  0  0  0  0  0
   -4.8910   -0.6696    0.9805 O   0  0  0  0  0  0  0  0  0  0  0  0
   -5.2423   -2.5025   -1.0487 O   0  0  0  0  0  0  0  0  0  0  0  0
    5.8540    0.6662   -2.3823 O   0  0  0  0  0  0  0  0  0  0  0  0
   -1.4261   -0.6722    0.4799 C   0  0  0  0  0  0  0  0  0  0  0  0
   -0.5410    0.5827    0.6561 C   0  0  0  0  0  0  0  0  0  0  0  0
    0.8917    0.2594    1.0999 C   0  0  0  0  0  0  0  0  0  0  0  0
   -2.7725    0.0091    0.1236 C   0  0  0  0  0  0  0  0  0  0  0  0
    1.5600   -0.6429   -0.0031 C   0  0  0  0  0  0  0  0  0  0  0  0
   -1.3991    1.5121    1.5166 C   0  0  0  0  0  0  0  0  0  0  0  0
   -2.8426    1.2286    1.0467 C   0  0  0  0  0  0  0  0  0  0  0  0
   -0.7935   -1.5323   -0.6315 C   0  0  0  0  0  0  0  0  0  0  0  0
    0.6880   -1.8829   -0.3615 C   0  0  0  0  0  0  0  0  0  0  0  0
    3.0761   -0.9293    0.3239 C   0  0  0  0  0  0  0  0  0  0  0  0
    1.6959    1.5523    1.3388 C   0  0  0  0  0  0  0  0  0  0  0  0
   -1.5937   -1.4960    1.7860 C   0  0  0  0  0  0  0  0  0  0  0  0
    3.7314    0.4534    0.4663 C   0  0  0  0  0  0  0  0  0  0  0  0
    3.1811    1.3004    1.5872 C   0  0  0  0  0  0  0  0  0  0  0  0
   -3.9573   -0.9072    0.2157 C   0  0  0  0  0  0  0  0  0  0  0  0
   -3.3191    1.8658   -1.1050 C   0  0  0  0  0  0  0  0  0  0  0  0
    3.7959   -1.7514   -0.7821 C   0  0  0  0  0  0  0  0  0  0  0  0
    3.2788   -1.7347    1.6330 C   0  0  0  0  0  0  0  0  0  0  0  0
    4.1145   -0.9450   -2.0274 C   0  0  0  0  0  0  0  0  0  0  0  0
    4.6300    0.9576   -0.3956 C   0  0  0  0  0  0  0  0  0  0  0  0
   -3.9320   -2.1278   -0.6796 C   0  0  0  0  0  0  0  0  0  0  0  0
   -2.4443    2.8105   -1.9197 C   0  0  0  0  0  0  0  0  0  0  0  0
   -4.7491    1.8701   -1.6381 C   0  0  0  0  0  0  0  0  0  0  0  0
    4.9645    0.2407   -1.6490 C   0  0  0  0  0  0  0  0  0  0  0  0
  1 21  1  0
  2 11  1  0
  2 23  1  0
  3 14  1  0
  3 23  1  0
  4 16  1  0
  5 22  2  0
  6 28  1  0
  7 31  2  0
  8  9  1  0
  8 11  1  0
  8 15  1  0
  8 19  1  0
  9 10  1  0
  9 13  1  0
 10 12  1  0
 10 18  1  0
 11 14  1  0
 11 22  1  0
 12 16  1  0
 12 17  1  0
 13 14  1  0
 15 16  1  0
 17 20  1  0
 17 24  1  0
 17 25  1  0
 18 21  1  0
 20 21  1  0
 20 27  2  0
 22 28  1  0
 23 29  1  0
 23 30  1  0
 24 26  1  0
 26 31  1  0
 27 31  1  0
M  END
>  <PUBCHEM_COMPOUND_CID>  (1) 
15209

>  <PUBCHEM_CONFORMER_RMSD>  (1) 
0.8

>  <PUBCHEM_CONFORMER_DIVERSEORDER>  (1) 
1
2
4
3

>  <PUBCHEM_MMFF94_PARTIAL_CHARGES>  (1) 
22
1 -0.34
11 0.34
14 0.28
16 0.28
17 0.14
2 -0.56
20 -0.28
21 0.48
22 0.45
23 0.56
26 0.06
27 -0.14
28 0.34
3 -0.56
31 0.49
4 -0.68
5 -0.57
52 0.4
55 0.15
6 -0.68
64 0.4
7 -0.57

>  <PUBCHEM_EFFECTIVE_ROTOR_COUNT>  (1) 
4

>  <PUBCHEM_PHARMACOPHORE_FEATURES>  (1) 
14
1 2 acceptor
1 3 acceptor
1 4 acceptor
1 4 donor
1 5 acceptor
1 6 acceptor
1 6 donor
1 7 acceptor
3 23 29 30 hydrophobe
5 2 3 11 14 23 rings
5 8 9 11 13 14 rings
6 10 12 17 18 20 21 rings
6 17 20 24 26 27 31 rings
6 8 9 10 12 15 16 rings

>  <PUBCHEM_HEAVY_ATOM_COUNT>  (1) 
31

>  <PUBCHEM_ATOM_DEF_STEREO_COUNT>  (1) 
9

>  <PUBCHEM_ATOM_UDEF_STEREO_COUNT>  (1) 
0

>  <PUBCHEM_BOND_DEF_STEREO_COUNT>  (1) 
0

>  <PUBCHEM_BOND_UDEF_STEREO_COUNT>  (1) 
0

>  <PUBCHEM_ISOTOPIC_ATOM_COUNT>  (1) 
0

>  <PUBCHEM_COMPONENT_COUNT>  (1) 
1

>  <PUBCHEM_CACTVS_TAUTO_COUNT>  (1) 
6

>  <PUBCHEM_CONFORMER_ID>  (1) 
00003B6900000001

>  <PUBCHEM_MMFF94_ENERGY>  (1) 
108.7309

>  <PUBCHEM_FEATURE_SELFOVERLAP>  (1) 
71.829

>  <PUBCHEM_SHAPE_FINGERPRINT>  (1) 
10366900 7 18262240031121367218
10498660 4 18334579010279354348
10670039 82 18113341916547317292
11578080 2 18116723898213108549
11595378 159 16443344230575888221
12403259 415 18412263947503547785
12553582 1 17703791384136415504
12596602 18 15791737437565436977
12788726 201 17531245097520146305
13224815 77 18272366460240613154
13583140 156 18265035977563914499
13617811 41 17967811704293345183
13944108 23 16533970093754116381
14289901 80 17385725764043639578
14739800 52 17313381292673013500
14790565 3 17910390585960065545
15082195 135 18186793695038884485
15163728 17 17750518369085327253
17349148 13 17530683229729788679
17980427 23 16950291697776978783
1813 80 18187925153419033599
18186145 218 18273213088678917512
18608769 82 18266472085905480146
20645477 70 17774725359253967496
20775438 99 16770659032480287268
21033648 29 18409726279151570608
221357 26 17988932171084074856
22182313 1 18200864175372513232
22393880 68 18413386523268941174
22907989 373 18188226393181268623
23559900 14 18125433112458193242
23566358 2 17988073508522024920
238 59 17917138412855929996
350125 39 18412553098071768777
3633792 109 15358239555446093195
460360 51 18265325127805536258
46194498 28 18058454381972384076
469060 322 18041575710391853745
497634 4 17846511347981050435
5252454 2 18191027807149085905
59755656 215 18272375278130621399
633830 44 17775002366852949064
7237137 82 18410013239017367543
7808743 9 18041289863085636148
9709674 26 18129944597613279618

>  <PUBCHEM_SHAPE_MULTIPOLES>  (1) 
595.48
11.19
2.86
2
2.52
0.01
0.35
-1.08
5.2
-1.96
0.29
1.27
-0.65
0.87

>  <PUBCHEM_SHAPE_SELFOVERLAP>  (1) 
1297.385

>  <PUBCHEM_SHAPE_VOLUME>  (1) 
327

>  <PUBCHEM_COORDINATE_TYPE>  (1) 
2
5
10

$$$$
