1520
     RDKit          3D

  8  7  0  0  0  0  0  0  0  0999 V2000
   -4.5596   -0.3387   -0.0090 S   0  0  0  0  0  0  0  0  0  0  0  0
   -0.5759    0.4302    0.0130 N   0  0  0  0  0  0  0  0  0  0  0  0
    1.8742    0.3666    0.0068 C   0  0  0  0  0  0  0  0  0  0  0  0
    0.5845   -0.4523   -0.0077 C   0  0  0  0  0  0  0  0  0  0  0  0
    3.1050   -0.5409    0.0070 C   0  0  0  0  0  0  0  0  0  0  0  0
   -1.8129   -0.3380    0.0101 C   0  0  0  0  0  0  0  0  0  0  0  0
    4.3930    0.2668   -0.0143 C   0  0  0  0  0  0  0  0  0  0  0  0
   -3.0084    0.6063   -0.0059 C   0  0  0  0  0  0  0  0  0  0  0  0
  1  8  1  0
  2  4  1  0
  2  6  1  0
  3  4  1  0
  3  5  1  0
  5  7  1  0
  6  8  1  0
M  END
>  <PUBCHEM_COMPOUND_CID>  (1) 
1520

>  <PUBCHEM_CONFORMER_RMSD>  (1) 
0.6

>  <PUBCHEM_CONFORMER_DIVERSEORDER>  (1) 
1
56
51
24
53
69
59
31
13
72
4
48
64
3
67
34
74
52
14
65
35
50
66
61
73
71
16
47
62
68
2
54
11
55
63
60
15
20
58
9
57
27
5
70
23
26
37
12
10
22
39
21
28
44
30
8
25
19
36
49
43
33
17
7
18
41
38
32
42
29
46
6
45
40

>  <PUBCHEM_MMFF94_PARTIAL_CHARGES>  (1) 
7
1 -0.41
15 0.36
2 -0.9
23 0.18
4 0.27
6 0.27
8 0.23

>  <PUBCHEM_EFFECTIVE_ROTOR_COUNT>  (1) 
5

>  <PUBCHEM_PHARMACOPHORE_FEATURES>  (1) 
3
1 2 cation
1 2 donor
1 7 hydrophobe

>  <PUBCHEM_HEAVY_ATOM_COUNT>  (1) 
8

>  <PUBCHEM_ATOM_DEF_STEREO_COUNT>  (1) 
0

>  <PUBCHEM_ATOM_UDEF_STEREO_COUNT>  (1) 
0

>  <PUBCHEM_BOND_DEF_STEREO_COUNT>  (1) 
0

>  <PUBCHEM_BOND_UDEF_STEREO_COUNT>  (1) 
0

>  <PUBCHEM_ISOTOPIC_ATOM_COUNT>  (1) 
0

>  <PUBCHEM_COMPONENT_COUNT>  (1) 
1

>  <PUBCHEM_CACTVS_TAUTO_COUNT>  (1) 
1

>  <PUBCHEM_CONFORMER_ID>  (1) 
000005F000000001

>  <PUBCHEM_MMFF94_ENERGY>  (1) 
-4.0542

>  <PUBCHEM_FEATURE_SELFOVERLAP>  (1) 
15.223

>  <PUBCHEM_SHAPE_FINGERPRINT>  (1) 
11062470 55 18410575080378667620
14123238 8 18411138047517226421
14325111 11 18410575063346601930
17834076 25 13901908916365029232
18342897 14 17418377982555393217
190213 19 15357700772909298401
20645477 70 18271528581331854950
20719005 15 18410575088963340450
22485316 2 18040431092469103515
23402539 116 18335695049183514863
42788 4 18410573985457445229

>  <PUBCHEM_SHAPE_MULTIPOLES>  (1) 
163.5
9.43
0.8
0.62
0.83
0.01
0
0.16
-0.05
0.08
0
0.05
0.01
0

>  <PUBCHEM_SHAPE_SELFOVERLAP>  (1) 
273.28

>  <PUBCHEM_SHAPE_VOLUME>  (1) 
112.8

>  <PUBCHEM_COORDINATE_TYPE>  (1) 
2
5
10

$$$$
