15202
     RDKit          3D

 12 13  0  0  0  0  0  0  0  0999 V2000
   -4.0978    0.5275   -0.0702 O   0  0  0  0  0  0  0  0  0  0  0  0
    1.4245   -0.7156    0.0854 C   0  0  0  0  0  0  0  0  0  0  0  0
    2.1625   -0.2819   -1.1937 C   0  0  0  0  0  0  0  0  0  0  0  0
    2.1949   -0.0640    1.2527 C   0  0  0  0  0  0  0  0  0  0  0  0
    3.5383    0.1570   -0.7159 C   0  0  0  0  0  0  0  0  0  0  0  0
    3.2390    0.8397    0.6070 C   0  0  0  0  0  0  0  0  0  0  0  0
   -0.0504   -0.3834    0.0441 C   0  0  0  0  0  0  0  0  0  0  0  0
   -0.9972   -1.4032    0.1353 C   0  0  0  0  0  0  0  0  0  0  0  0
   -0.4628    0.9425   -0.0854 C   0  0  0  0  0  0  0  0  0  0  0  0
   -2.3575   -1.0968    0.0969 C   0  0  0  0  0  0  0  0  0  0  0  0
   -1.8231    1.2490   -0.1237 C   0  0  0  0  0  0  0  0  0  0  0  0
   -2.7705    0.2292   -0.0325 C   0  0  0  0  0  0  0  0  0  0  0  0
  1 12  1  0
  2  3  1  0
  2  4  1  0
  2  7  1  0
  3  5  1  0
  4  6  1  0
  5  6  1  0
  7  8  2  0
  7  9  1  0
  8 10  1  0
  9 11  2  0
 10 12  2  0
 11 12  1  0
M  END
>  <PUBCHEM_COMPOUND_CID>  (1) 
15202

>  <PUBCHEM_CONFORMER_RMSD>  (1) 
0.6

>  <PUBCHEM_CONFORMER_DIVERSEORDER>  (1) 
1
2
3

>  <PUBCHEM_MMFF94_PARTIAL_CHARGES>  (1) 
13
1 -0.53
10 -0.15
11 -0.15
12 0.08
2 0.14
22 0.15
23 0.15
24 0.15
25 0.15
26 0.45
7 -0.14
8 -0.15
9 -0.15

>  <PUBCHEM_EFFECTIVE_ROTOR_COUNT>  (1) 
2

>  <PUBCHEM_PHARMACOPHORE_FEATURES>  (1) 
3
1 1 donor
5 2 3 4 5 6 rings
6 7 8 9 10 11 12 rings

>  <PUBCHEM_HEAVY_ATOM_COUNT>  (1) 
12

>  <PUBCHEM_ATOM_DEF_STEREO_COUNT>  (1) 
0

>  <PUBCHEM_ATOM_UDEF_STEREO_COUNT>  (1) 
0

>  <PUBCHEM_BOND_DEF_STEREO_COUNT>  (1) 
0

>  <PUBCHEM_BOND_UDEF_STEREO_COUNT>  (1) 
0

>  <PUBCHEM_ISOTOPIC_ATOM_COUNT>  (1) 
0

>  <PUBCHEM_COMPONENT_COUNT>  (1) 
1

>  <PUBCHEM_CACTVS_TAUTO_COUNT>  (1) 
2

>  <PUBCHEM_CONFORMER_ID>  (1) 
00003B6200000001

>  <PUBCHEM_MMFF94_ENERGY>  (1) 
28.4069

>  <PUBCHEM_FEATURE_SELFOVERLAP>  (1) 
15.223

>  <PUBCHEM_SHAPE_FINGERPRINT>  (1) 
10219947 1 15140676995103541874
10608611 8 18273210906798932592
10857977 72 18339639039793445907
11031198 65 17060339643268498124
11062470 55 16950001430680368013
11132069 177 18411414037847249281
11543360 7 16271909533367500237
12897270 3 18343868813991895438
12932764 1 18060698394488186918
13538477 17 17821729467818218506
13764800 53 18334868224628545787
14144814 61 18187081745557504233
14325111 11 18409448050958729665
14993402 34 18114184137679106637
15219456 202 17989208174499316586
15669948 3 18335135444429796818
15775835 57 17967533471568575616
16945 1 18408039615413439599
17846911 113 18411130329672141601
18175812 5 18060701718834753934
18186145 218 17988082188561408745
200 152 15841551859875903830
20201158 50 17846502521564859190
20279233 1 17989488532658033750
20528008 55 18343297076477383621
20645464 45 18202558492689188931
20645476 183 17676777547156933231
20645477 70 16988568952676685150
20871998 184 18199473332161382711
23402539 116 18342447149873428900
23557571 272 18128543845416289798
23559900 14 18413672409746829070
2748010 2 18122338249302599145
3248919 1 16415765227761087114
369184 2 15140679189441440007
6333449 129 18343017822009412031
7364860 26 18267018354443358890
77492 1 17385722521459453186

>  <PUBCHEM_SHAPE_MULTIPOLES>  (1) 
241.09
6.09
1.24
0.95
0.55
0.06
0.01
-1.13
-0.25
0.54
0.03
-0.8
0.02
0.23

>  <PUBCHEM_SHAPE_SELFOVERLAP>  (1) 
508.065

>  <PUBCHEM_SHAPE_VOLUME>  (1) 
137.4

>  <PUBCHEM_COORDINATE_TYPE>  (1) 
2
5
10

$$$$
