15204
     RDKit          3D

 13 13  0  0  0  0  0  0  0  0999 V2000
   -0.1759   -1.7034    0.0743 O   0  0  0  0  0  0  0  0  0  0  0  0
   -2.6131   -0.4406   -0.2574 O   0  0  0  0  0  0  0  0  0  0  0  0
    3.2414    0.4980   -0.2892 O   0  0  0  0  0  0  0  0  0  0  0  0
    2.4254   -1.2911    0.8509 O   0  0  0  0  0  0  0  0  0  0  0  0
   -0.2337   -0.3425    0.0010 C   0  0  0  0  0  0  0  0  0  0  0  0
    0.9325    0.4175    0.0919 C   0  0  0  0  0  0  0  0  0  0  0  0
   -1.4662    0.2889   -0.1669 C   0  0  0  0  0  0  0  0  0  0  0  0
    0.8664    1.8087    0.0150 C   0  0  0  0  0  0  0  0  0  0  0  0
   -1.5323    1.6801   -0.2439 C   0  0  0  0  0  0  0  0  0  0  0  0
   -0.3660    2.4399   -0.1529 C   0  0  0  0  0  0  0  0  0  0  0  0
    2.2299   -0.2208    0.2686 C   0  0  0  0  0  0  0  0  0  0  0  0
   -0.0099   -2.4102   -1.1522 C   0  0  0  0  0  0  0  0  0  0  0  0
   -3.2983   -0.7245    0.9608 C   0  0  0  0  0  0  0  0  0  0  0  0
  1  5  1  0
  1 12  1  0
  2  7  1  0
  2 13  1  0
  3 11  1  0
  4 11  2  0
  5  6  2  0
  5  7  1  0
  6  8  1  0
  6 11  1  0
  7  9  2  0
  8 10  2  0
  9 10  1  0
M  END
>  <PUBCHEM_COMPOUND_CID>  (1) 
15204

>  <PUBCHEM_CONFORMER_RMSD>  (1) 
0.6

>  <PUBCHEM_CONFORMER_DIVERSEORDER>  (1) 
2
1
3
4
5

>  <PUBCHEM_MMFF94_PARTIAL_CHARGES>  (1) 
17
1 -0.36
10 -0.15
11 0.63
12 0.28
13 0.28
14 0.15
15 0.15
16 0.15
2 -0.36
23 0.5
3 -0.65
4 -0.57
5 0.08
6 0.09
7 0.08
8 -0.15
9 -0.15

>  <PUBCHEM_EFFECTIVE_ROTOR_COUNT>  (1) 
3

>  <PUBCHEM_PHARMACOPHORE_FEATURES>  (1) 
6
1 1 acceptor
1 2 acceptor
1 3 acceptor
1 4 acceptor
3 3 4 11 anion
6 5 6 7 8 9 10 rings

>  <PUBCHEM_HEAVY_ATOM_COUNT>  (1) 
13

>  <PUBCHEM_ATOM_DEF_STEREO_COUNT>  (1) 
0

>  <PUBCHEM_ATOM_UDEF_STEREO_COUNT>  (1) 
0

>  <PUBCHEM_BOND_DEF_STEREO_COUNT>  (1) 
0

>  <PUBCHEM_BOND_UDEF_STEREO_COUNT>  (1) 
0

>  <PUBCHEM_ISOTOPIC_ATOM_COUNT>  (1) 
0

>  <PUBCHEM_COMPONENT_COUNT>  (1) 
1

>  <PUBCHEM_CACTVS_TAUTO_COUNT>  (1) 
1

>  <PUBCHEM_CONFORMER_ID>  (1) 
00003B6400000002

>  <PUBCHEM_MMFF94_ENERGY>  (1) 
58.2744

>  <PUBCHEM_FEATURE_SELFOVERLAP>  (1) 
30.514

>  <PUBCHEM_SHAPE_FINGERPRINT>  (1) 
10219947 1 18412549829385501987
12382932 28 18267873774510458617
12423570 1 13716949500074702669
12524768 44 18270397325236160420
13172582 1 18342740757863829099
13380535 21 17910127819121728961
13380535 76 17906157461217035237
14993402 34 18341612676129431079
15490181 8 17763175843807001460
16945 1 18335413629455998232
193761 8 13078876681431922237
20871998 184 18341324488166276892
2334 1 18410570656773641644
23463225 33 18263641771155189474
23552423 10 18043249033496936362
23559900 14 17263002456073450838
2748010 2 18338787936263450428
5084963 1 17988637519105527993
53812653 11 18271814578465392869
53812654 25 18267849735446419434

>  <PUBCHEM_SHAPE_MULTIPOLES>  (1) 
244.06
3.85
2.47
0.84
0.15
0.13
0.01
-0.72
-0.97
0.1
0.57
0.13
-0.34
0.04

>  <PUBCHEM_SHAPE_SELFOVERLAP>  (1) 
509.363

>  <PUBCHEM_SHAPE_VOLUME>  (1) 
139.1

>  <PUBCHEM_COORDINATE_TYPE>  (1) 
2
5
10

$$$$
