15207
     RDKit          3D

 13 13  0  0  0  0  0  0  0  0999 V2000
    2.0431   -0.0751   -0.8320 O   0  0  0  0  0  0  0  0  0  0  0  0
   -3.7614   -0.4019    0.3493 O   0  0  0  0  0  0  0  0  0  0  0  0
   -2.4636   -2.0812   -0.2120 O   0  0  0  0  0  0  0  0  0  0  0  0
    2.4935   -0.4428    1.4356 O   0  0  0  0  0  0  0  0  0  0  0  0
   -2.6381   -0.8631    0.0331 N   0  0  0  0  0  0  0  0  0  0  0  0
    0.8156    0.4010   -0.4868 C   0  0  0  0  0  0  0  0  0  0  0  0
   -1.5301    0.0211   -0.0505 C   0  0  0  0  0  0  0  0  0  0  0  0
   -0.2722   -0.4682   -0.4025 C   0  0  0  0  0  0  0  0  0  0  0  0
    0.6452    1.7594   -0.2192 C   0  0  0  0  0  0  0  0  0  0  0  0
   -1.7003    1.3795    0.2172 C   0  0  0  0  0  0  0  0  0  0  0  0
   -0.6127    2.2487    0.1329 C   0  0  0  0  0  0  0  0  0  0  0  0
    2.8269   -0.4859    0.2587 C   0  0  0  0  0  0  0  0  0  0  0  0
    4.1540   -0.9916   -0.2238 C   0  0  0  0  0  0  0  0  0  0  0  0
  1  6  1  0
  1 12  1  0
  2  5  1  0
  3  5  2  0
  4 12  2  0
  5  7  1  0
  6  8  2  0
  6  9  1  0
  7  8  1  0
  7 10  2  0
  9 11  2  0
 10 11  1  0
 12 13  1  0
M  CHG  2   2  -1   5   1
M  END
>  <PUBCHEM_COMPOUND_CID>  (1) 
15207

>  <PUBCHEM_CONFORMER_RMSD>  (1) 
0.6

>  <PUBCHEM_CONFORMER_DIVERSEORDER>  (1) 
1
13
8
10
7
9
12
5
14
6
4
11
2
3

>  <PUBCHEM_MMFF94_PARTIAL_CHARGES>  (1) 
17
1 -0.23
10 -0.15
11 -0.15
12 0.66
13 0.06
14 0.15
15 0.15
16 0.15
17 0.15
2 -0.52
3 -0.52
4 -0.57
5 0.91
6 0.08
7 0.13
8 -0.15
9 -0.15

>  <PUBCHEM_EFFECTIVE_ROTOR_COUNT>  (1) 
3

>  <PUBCHEM_PHARMACOPHORE_FEATURES>  (1) 
5
1 2 acceptor
1 2 anion
1 3 acceptor
1 4 acceptor
6 6 7 8 9 10 11 rings

>  <PUBCHEM_HEAVY_ATOM_COUNT>  (1) 
13

>  <PUBCHEM_ATOM_DEF_STEREO_COUNT>  (1) 
0

>  <PUBCHEM_ATOM_UDEF_STEREO_COUNT>  (1) 
0

>  <PUBCHEM_BOND_DEF_STEREO_COUNT>  (1) 
0

>  <PUBCHEM_BOND_UDEF_STEREO_COUNT>  (1) 
0

>  <PUBCHEM_ISOTOPIC_ATOM_COUNT>  (1) 
0

>  <PUBCHEM_COMPONENT_COUNT>  (1) 
1

>  <PUBCHEM_CACTVS_TAUTO_COUNT>  (1) 
1

>  <PUBCHEM_CONFORMER_ID>  (1) 
00003B6700000001

>  <PUBCHEM_MMFF94_ENERGY>  (1) 
39.5688

>  <PUBCHEM_FEATURE_SELFOVERLAP>  (1) 
25.453

>  <PUBCHEM_SHAPE_FINGERPRINT>  (1) 
10130415 120 18409171043154240785
10857977 72 18272364261275528992
12932764 1 17604149203905699892
14128692 85 18259988197100735692
15375462 189 18114181955693535891
16945 1 18339929190673056021
19422 9 18188778232603005822
20645477 70 18048309235449043287
20871998 184 18201155451569951980
20871998 22 18340487867091520848
21501925 9 18198898304754201791
232386 152 18409736183071556407
23402539 116 18201430342973850933
23552423 10 17974294519071090845
23559900 14 18340761526008325130
23598294 1 18265046929767202600
2748010 2 18339913909195364621
5902787 121 18336545044206519363
7364860 26 18197218263798405160
75552 356 18339642243849715028
81228 2 18269286668226715273

>  <PUBCHEM_SHAPE_MULTIPOLES>  (1) 
239.08
5.67
1.9
0.81
2.64
0.55
0.13
-3.18
0.57
-1.17
-0.04
0.43
-0.03
-0.15

>  <PUBCHEM_SHAPE_SELFOVERLAP>  (1) 
498.597

>  <PUBCHEM_SHAPE_VOLUME>  (1) 
134.8

>  <PUBCHEM_COORDINATE_TYPE>  (1) 
2
5
10

$$$$
