15205
     RDKit          3D

 12 11  0  0  0  0  0  0  0  0999 V2000
   -0.5773   -1.7636   -0.6374 O   0  0  0  0  0  0  0  0  0  0  0  0
    4.3110   -0.7061   -0.0366 O   0  0  0  0  0  0  0  0  0  0  0  0
    3.2779    1.2399    0.5119 O   0  0  0  0  0  0  0  0  0  0  0  0
   -1.7973    0.1069   -0.0142 N   0  0  0  0  0  0  0  0  0  0  0  0
   -1.8867    1.4853    0.4623 C   0  0  0  0  0  0  0  0  0  0  0  0
   -3.0760   -0.5406   -0.2811 C   0  0  0  0  0  0  0  0  0  0  0  0
   -0.6088   -0.5983   -0.2337 C   0  0  0  0  0  0  0  0  0  0  0  0
    0.6844    0.1593    0.0502 C   0  0  0  0  0  0  0  0  0  0  0  0
    1.9439   -0.6678   -0.2098 C   0  0  0  0  0  0  0  0  0  0  0  0
   -1.8919    2.4676   -0.6968 C   0  0  0  0  0  0  0  0  0  0  0  0
   -3.5941   -1.2614    0.9519 C   0  0  0  0  0  0  0  0  0  0  0  0
    3.2148    0.0787    0.1333 C   0  0  0  0  0  0  0  0  0  0  0  0
  1  7  2  0
  2 12  1  0
  3 12  2  0
  4  5  1  0
  4  6  1  0
  4  7  1  0
  5 10  1  0
  6 11  1  0
  7  8  1  0
  8  9  1  0
  9 12  1  0
M  END
>  <PUBCHEM_COMPOUND_CID>  (1) 
15205

>  <PUBCHEM_CONFORMER_RMSD>  (1) 
0.6

>  <PUBCHEM_CONFORMER_DIVERSEORDER>  (1) 
1
72
71
2
19
13
27
45
43
24
57
84
69
39
50
48
76
70
37
63
36
60
15
67
40
21
30
25
77
74
7
82
20
29
5
83
75
18
33
78
68
16
80
81
61
51
9
11
49
38
12
53
85
34
46
58
56
52
35
4
3
79
6
73
32
55
42
65
44
28
62
59
47
8
66
54
41
64
10
22
17
26
23
14
31

>  <PUBCHEM_MMFF94_PARTIAL_CHARGES>  (1) 
11
1 -0.57
12 0.66
2 -0.65
27 0.5
3 -0.57
4 -0.66
5 0.3
6 0.3
7 0.57
8 0.06
9 0.06

>  <PUBCHEM_EFFECTIVE_ROTOR_COUNT>  (1) 
6

>  <PUBCHEM_PHARMACOPHORE_FEATURES>  (1) 
4
1 1 acceptor
1 2 acceptor
1 3 acceptor
3 2 3 12 anion

>  <PUBCHEM_HEAVY_ATOM_COUNT>  (1) 
12

>  <PUBCHEM_ATOM_DEF_STEREO_COUNT>  (1) 
0

>  <PUBCHEM_ATOM_UDEF_STEREO_COUNT>  (1) 
0

>  <PUBCHEM_BOND_DEF_STEREO_COUNT>  (1) 
0

>  <PUBCHEM_BOND_UDEF_STEREO_COUNT>  (1) 
0

>  <PUBCHEM_ISOTOPIC_ATOM_COUNT>  (1) 
0

>  <PUBCHEM_COMPONENT_COUNT>  (1) 
1

>  <PUBCHEM_CACTVS_TAUTO_COUNT>  (1) 
1

>  <PUBCHEM_CONFORMER_ID>  (1) 
00003B6500000001

>  <PUBCHEM_MMFF94_ENERGY>  (1) 
12.197

>  <PUBCHEM_FEATURE_SELFOVERLAP>  (1) 
20.357

>  <PUBCHEM_SHAPE_FINGERPRINT>  (1) 
10608611 8 18341889680330230832
11062470 55 10447931667750974866
12932764 1 17774712121784894326
14144814 61 18410290290119805714
14325111 11 18341331106795178500
14614273 12 18337672988934487469
17802600 8 18342167873883303656
17844478 74 18411704304764335809
18186145 218 17916872313862158422
18380122 1 18270976665038257311
1986462 14 18339366262489487158
20645477 56 18130781309182821104
20871998 184 18341897385474933031
21028194 46 18342740697918825326
21061003 4 17846499248900123761
2306618 200 18201158750210583801
23402539 116 18411975884685302087
2748010 2 18199192780290943207
3248919 1 16805616836543945010
6333449 129 18340482266412202869
81228 2 17483368083127556238

>  <PUBCHEM_SHAPE_MULTIPOLES>  (1) 
224.37
6.81
1.93
0.79
5.25
1.07
0.04
-1.01
1.11
-1.56
-0.22
-0.34
-0.01
0.61

>  <PUBCHEM_SHAPE_SELFOVERLAP>  (1) 
419.701

>  <PUBCHEM_SHAPE_VOLUME>  (1) 
140.1

>  <PUBCHEM_COORDINATE_TYPE>  (1) 
2
5
10

$$$$
