15215
     RDKit          3D

 20 20  0  0  0  0  0  0  0  0999 V2000
   -2.3400   -0.2118   -0.1056 O   0  0  0  0  0  0  0  0  0  0  0  0
    2.3050   -0.2441    0.1164 O   0  0  0  0  0  0  0  0  0  0  0  0
   -3.4170    1.5646    0.8863 O   0  0  0  0  0  0  0  0  0  0  0  0
    3.5778    1.6296   -0.2933 O   0  0  0  0  0  0  0  0  0  0  0  0
   -3.2321   -2.4242   -0.5023 C   0  0  0  0  0  0  0  0  0  0  0  0
    3.1116   -2.5154    0.3958 C   0  0  0  0  0  0  0  0  0  0  0  0
   -3.4948   -1.0243    0.0593 C   0  0  0  0  0  0  0  0  0  0  0  0
    3.4855   -1.0539    0.1334 C   0  0  0  0  0  0  0  0  0  0  0  0
   -2.0759   -3.1101    0.2285 C   0  0  0  0  0  0  0  0  0  0  0  0
   -4.4952   -3.2783   -0.4168 C   0  0  0  0  0  0  0  0  0  0  0  0
    2.1924   -3.0608   -0.6992 C   0  0  0  0  0  0  0  0  0  0  0  0
    4.3689   -3.3747    0.5099 C   0  0  0  0  0  0  0  0  0  0  0  0
   -1.1715    1.8070    0.1218 C   0  0  0  0  0  0  0  0  0  0  0  0
    1.2079    1.8053   -0.1002 C   0  0  0  0  0  0  0  0  0  0  0  0
    0.0190    1.1093    0.1185 C   0  0  0  0  0  0  0  0  0  0  0  0
   -2.4374    1.0664    0.3537 C   0  0  0  0  0  0  0  0  0  0  0  0
    2.4768    1.0945   -0.1081 C   0  0  0  0  0  0  0  0  0  0  0  0
   -1.2250    3.1705   -0.0842 C   0  0  0  0  0  0  0  0  0  0  0  0
    1.1802    3.1839   -0.3110 C   0  0  0  0  0  0  0  0  0  0  0  0
   -0.0363    3.8665   -0.3029 C   0  0  0  0  0  0  0  0  0  0  0  0
  1  7  1  0
  1 16  1  0
  2  8  1  0
  2 17  1  0
  3 16  2  0
  4 17  2  0
  5  7  1  0
  5  9  1  0
  5 10  1  0
  6  8  1  0
  6 11  1  0
  6 12  1  0
 13 15  2  0
 13 16  1  0
 13 18  1  0
 14 15  1  0
 14 17  1  0
 14 19  2  0
 18 20  2  0
 19 20  1  0
M  END
>  <PUBCHEM_COMPOUND_CID>  (1) 
15215

>  <PUBCHEM_CONFORMER_RMSD>  (1) 
0.8

>  <PUBCHEM_CONFORMER_DIVERSEORDER>  (1) 
1
162
187
110
32
89
6
193
156
97
164
128
3
38
171
120
169
142
215
198
81
75
53
99
119
189
212
206
100
211
122
104
21
113
175
40
83
168
146
65
130
35
31
79
194
73
14
149
77
210
23
76
39
191
68
131
9
201
10
214
143
90
118
5
180
177
55
109
108
155
150
125
158
98
126
147
71
195
69
190
165
124
26
135
74
61
114
153
48
202
151
107
163
67
186
102
170
167
115
20
63
101
159
174
141
50
183
200
58
203
27
36
52
34
154
117
152
91
7
172
123
133
103
196
185
60
213
15
93
137
92
127
176
29
37
46
13
78
16
139
134
80
54
111
12
208
72
17
84
188
161
24
70
33
8
179
209
43
144
140
160
2
197
28
148
136
145
56
42
199
184
129
182
116
204
82
121
205
138
49
166
18
47
87
30
51
4
66
45
22
105
95
11
88
44
85
132
181
94
62
25
86
207
19
112
57
64
41
178
157
59
173
96
192
106

>  <PUBCHEM_MMFF94_PARTIAL_CHARGES>  (1) 
18
1 -0.43
13 0.09
14 0.09
15 -0.15
16 0.63
17 0.63
18 -0.15
19 -0.15
2 -0.43
20 -0.15
3 -0.57
39 0.15
4 -0.57
40 0.15
41 0.15
42 0.15
7 0.28
8 0.28

>  <PUBCHEM_EFFECTIVE_ROTOR_COUNT>  (1) 
8

>  <PUBCHEM_PHARMACOPHORE_FEATURES>  (1) 
5
1 3 acceptor
1 4 acceptor
3 5 9 10 hydrophobe
3 6 11 12 hydrophobe
6 13 14 15 18 19 20 rings

>  <PUBCHEM_HEAVY_ATOM_COUNT>  (1) 
20

>  <PUBCHEM_ATOM_DEF_STEREO_COUNT>  (1) 
0

>  <PUBCHEM_ATOM_UDEF_STEREO_COUNT>  (1) 
0

>  <PUBCHEM_BOND_DEF_STEREO_COUNT>  (1) 
0

>  <PUBCHEM_BOND_UDEF_STEREO_COUNT>  (1) 
0

>  <PUBCHEM_ISOTOPIC_ATOM_COUNT>  (1) 
0

>  <PUBCHEM_COMPONENT_COUNT>  (1) 
1

>  <PUBCHEM_CACTVS_TAUTO_COUNT>  (1) 
1

>  <PUBCHEM_CONFORMER_ID>  (1) 
00003B6F00000001

>  <PUBCHEM_MMFF94_ENERGY>  (1) 
45.3121

>  <PUBCHEM_FEATURE_SELFOVERLAP>  (1) 
25.371

>  <PUBCHEM_SHAPE_FINGERPRINT>  (1) 
10616163 171 18413112766280175526
11014199 57 18410856534076519638
12038231 1 18410576145531206659
12107183 9 18341345439929461387
12553582 1 18410299115839722990
12633257 1 18198350550036436115
12839892 36 18267284595550567480
12990986 174 18265892467410810210
13122387 1 18050568443448311254
13140716 1 18341891844682407826
138480 1 14880312198737383726
14178342 30 18341323495897495792
14251705 54 18338515347452742823
14251757 5 17907883711916777102
14429380 30 18335420162529400626
14844126 61 17902224512546172450
14863182 85 17903920307110311380
14916288 52 18339081462986731534
15110567 62 17545603817483708907
15403338 16 14573514455906249603
16719943 64 16896804562748369750
17859628 97 17472419846322152363
19141452 34 18268712701692658009
19427546 62 16752683388115129693
19591789 44 17330558648567317947
19930381 70 18049439550350378395
20028762 73 17695910312611947870
20775530 9 18411980273472173291
23559900 14 18050840319705748417
556388 4 18195242441455974327
56633871 153 18269281171011559035
59682541 52 17837738452684747759
7097593 13 18340498841070760793
9709674 26 17693371140942009734

>  <PUBCHEM_SHAPE_MULTIPOLES>  (1) 
388.11
7.8
6.14
0.73
0.13
0.48
0
9.29
0.34
-0.1
-0.51
0.05
0.11
-1.09

>  <PUBCHEM_SHAPE_SELFOVERLAP>  (1) 
786.234

>  <PUBCHEM_SHAPE_VOLUME>  (1) 
227.9

>  <PUBCHEM_COORDINATE_TYPE>  (1) 
2
5
10

$$$$
