15217
     RDKit          3D

 17 18  0  0  0  0  0  0  0  0999 V2000
    5.9986   -0.1083    0.0005 Cl  0  0  0  0  0  0  0  0  0  0  0  0
   -0.4035    1.6091    0.0278 O   0  0  0  0  0  0  0  0  0  0  0  0
   -0.6200   -1.9358    0.0140 O   0  0  0  0  0  0  0  0  0  0  0  0
    0.1064    0.2942   -0.0070 N   0  0  0  0  0  0  0  0  0  0  0  0
    1.5254    0.1973   -0.0057 C   0  0  0  0  0  0  0  0  0  0  0  0
   -2.2547   -0.3322    0.0023 C   0  0  0  0  0  0  0  0  0  0  0  0
   -0.8533   -0.7201    0.0078 C   0  0  0  0  0  0  0  0  0  0  0  0
    2.1117   -1.0533    0.0125 C   0  0  0  0  0  0  0  0  0  0  0  0
    2.2766    1.3567   -0.0222 C   0  0  0  0  0  0  0  0  0  0  0  0
   -2.9270   -0.1637   -1.2083 C   0  0  0  0  0  0  0  0  0  0  0  0
   -2.9271   -0.1288    1.2075 C   0  0  0  0  0  0  0  0  0  0  0  0
    3.5034   -1.1485    0.0144 C   0  0  0  0  0  0  0  0  0  0  0  0
    3.6682    1.2617   -0.0205 C   0  0  0  0  0  0  0  0  0  0  0  0
    4.2817    0.0091   -0.0022 C   0  0  0  0  0  0  0  0  0  0  0  0
   -4.2713    0.2083   -1.2138 C   0  0  0  0  0  0  0  0  0  0  0  0
   -4.2715    0.2429    1.2019 C   0  0  0  0  0  0  0  0  0  0  0  0
   -4.9436    0.4114   -0.0088 C   0  0  0  0  0  0  0  0  0  0  0  0
  1 14  1  0
  2  4  1  0
  3  7  2  0
  4  5  1  0
  4  7  1  0
  5  8  2  0
  5  9  1  0
  6  7  1  0
  6 10  2  0
  6 11  1  0
  8 12  1  0
  9 13  2  0
 10 15  1  0
 11 16  2  0
 12 14  2  0
 13 14  1  0
 15 17  2  0
 16 17  1  0
M  END
>  <PUBCHEM_COMPOUND_CID>  (1) 
15217

>  <PUBCHEM_CONFORMER_RMSD>  (1) 
0.6

>  <PUBCHEM_CONFORMER_DIVERSEORDER>  (1) 
1
6
11
2
4
5
3
7
9
13
14
10
12
8

>  <PUBCHEM_MMFF94_PARTIAL_CHARGES>  (1) 
27
1 -0.18
10 -0.15
11 -0.15
12 -0.15
13 -0.15
14 0.18
15 -0.15
16 -0.15
17 -0.15
18 0.15
19 0.15
2 -0.44
20 0.15
21 0.15
22 0.15
23 0.15
24 0.15
25 0.15
26 0.15
27 0.4
3 -0.57
4 -0.14
5 0.12
6 0.09
7 0.54
8 -0.15
9 -0.15

>  <PUBCHEM_EFFECTIVE_ROTOR_COUNT>  (1) 
3

>  <PUBCHEM_PHARMACOPHORE_FEATURES>  (1) 
3
1 3 acceptor
6 5 8 9 12 13 14 rings
6 6 10 11 15 16 17 rings

>  <PUBCHEM_HEAVY_ATOM_COUNT>  (1) 
17

>  <PUBCHEM_ATOM_DEF_STEREO_COUNT>  (1) 
0

>  <PUBCHEM_ATOM_UDEF_STEREO_COUNT>  (1) 
0

>  <PUBCHEM_BOND_DEF_STEREO_COUNT>  (1) 
0

>  <PUBCHEM_BOND_UDEF_STEREO_COUNT>  (1) 
0

>  <PUBCHEM_ISOTOPIC_ATOM_COUNT>  (1) 
0

>  <PUBCHEM_COMPONENT_COUNT>  (1) 
1

>  <PUBCHEM_CACTVS_TAUTO_COUNT>  (1) 
1

>  <PUBCHEM_CONFORMER_ID>  (1) 
00003B7100000001

>  <PUBCHEM_MMFF94_ENERGY>  (1) 
58.78

>  <PUBCHEM_FEATURE_SELFOVERLAP>  (1) 
15.223

>  <PUBCHEM_SHAPE_FINGERPRINT>  (1) 
10680689 15 17458344165141758811
11089746 13 17704069612444956512
11287383 113 16515692160508608148
11315181 36 17060618919031899970
11401426 45 18131347514062076100
11471102 20 18410572890377869884
12107183 9 16410159724156675954
12236239 1 17775847908384556062
128620 24 10375872974048178624
13675066 3 17894633685809358465
13760787 5 18412265055705252420
14004511 7 18202285814005824033
15196674 1 18338517559803674050
15375358 24 18187364333009982842
15653759 3 17022623087342507969
17834072 33 16845287276346141552
18186145 218 18410575093279530303
19489759 90 15410896249441808659
200 152 18060133232536735924
20279233 1 17894633651544695619
20645477 56 17894907455546155551
20645477 70 18336260146251955414
21033648 29 18114165450166197085
21267235 1 18410583868430413890
21641784 216 18115606863446605460
2297311 6 16298392335799788807
23175994 123 18186525401765308029
23402539 116 17775001280131134348
23402655 69 18343861104319922900
23536379 177 16272212968448477342
23557571 272 16660359247101626134
23559900 14 18272083955226274856
26918003 58 18186241736027852104
300161 21 17561078090301988362
3268164 11 15626221278500904489
3545911 37 18409168826481786523
5104073 3 18337951320026598234
542803 24 17561366188208005240
573450 72 16845570885911094247
633830 44 18201168667416579567
69090 78 18342172284471896774
9971528 1 17989207041007940496

>  <PUBCHEM_SHAPE_MULTIPOLES>  (1) 
335
11.63
1.31
0.96
4.06
0.04
0
-0.91
0.03
0.76
0
-1.29
-0.01
-0.03

>  <PUBCHEM_SHAPE_SELFOVERLAP>  (1) 
713.4

>  <PUBCHEM_SHAPE_VOLUME>  (1) 
187.2

>  <PUBCHEM_COORDINATE_TYPE>  (1) 
2
5
10

$$$$
