15229
     RDKit          3D

 13 12  0  0  0  0  0  0  0  0999 V2000
    4.0504   -1.2974   -0.0308 O   0  0  0  0  0  0  0  0  0  0  0  0
   -0.9594   -0.3378    0.0117 C   0  0  0  0  0  0  0  0  0  0  0  0
   -2.2612    0.4664    0.0224 C   0  0  0  0  0  0  0  0  0  0  0  0
    0.2608    0.5845   -0.0378 C   0  0  0  0  0  0  0  0  0  0  0  0
   -3.4833   -0.4534    0.0387 C   0  0  0  0  0  0  0  0  0  0  0  0
    1.5911   -0.1709   -0.0815 C   0  0  0  0  0  0  0  0  0  0  0  0
   -4.7847    0.3500    0.0155 C   0  0  0  0  0  0  0  0  0  0  0  0
    2.8087    0.7465   -0.0580 C   0  0  0  0  0  0  0  0  0  0  0  0
   -6.0054   -0.5697   -0.0015 C   0  0  0  0  0  0  0  0  0  0  0  0
    4.0874   -0.0670   -0.0264 C   0  0  0  0  0  0  0  0  0  0  0  0
   -7.3017    0.2245    0.0091 C   0  0  0  0  0  0  0  0  0  0  0  0
    5.3888    0.7134    0.0429 C   0  0  0  0  0  0  0  0  0  0  0  0
    6.6086   -0.1890    0.0956 C   0  0  0  0  0  0  0  0  0  0  0  0
  1 10  2  0
  2  3  1  0
  2  4  1  0
  3  5  1  0
  4  6  1  0
  5  7  1  0
  6  8  1  0
  7  9  1  0
  8 10  1  0
  9 11  1  0
 10 12  1  0
 12 13  1  0
M  END
>  <PUBCHEM_COMPOUND_CID>  (1) 
15229

>  <PUBCHEM_CONFORMER_RMSD>  (1) 
1

>  <PUBCHEM_CONFORMER_DIVERSEORDER>  (1) 
1
16
17
68
160
143
58
18
102
111
59
83
81
62
13
71
28
127
116
6
23
150
73
61
26
38
4
163
41
154
21
84
27
46
10
162
51
35
40
7
138
34
87
85
151
53
14
91
131
15
92
152
126
103
130
114
86
96
149
45
159
55
98
8
50
9
124
44
129
25
54
12
24
109
119
153
42
5
19
144
148
105
158
128
70
33
48
139
112
122
134
147
106
89
11
157
141
29
110
82
31
69
140
136
101
22
113
20
108
100
156
117
161
90
49
95
123
79
120
121
93
65
63
39
78
30
94
72
155
32
132
146
36
2
118
145
3
52
60
74
56
66
164
142
125
99
57
115
37
75
133
135
64
67
47
80
104
88
137
107
76
97
43
77

>  <PUBCHEM_MMFF94_PARTIAL_CHARGES>  (1) 
4
1 -0.57
10 0.45
12 0.06
8 0.06

>  <PUBCHEM_EFFECTIVE_ROTOR_COUNT>  (1) 
9

>  <PUBCHEM_PHARMACOPHORE_FEATURES>  (1) 
3
1 1 acceptor
1 11 hydrophobe
1 13 hydrophobe

>  <PUBCHEM_HEAVY_ATOM_COUNT>  (1) 
13

>  <PUBCHEM_ATOM_DEF_STEREO_COUNT>  (1) 
0

>  <PUBCHEM_ATOM_UDEF_STEREO_COUNT>  (1) 
0

>  <PUBCHEM_BOND_DEF_STEREO_COUNT>  (1) 
0

>  <PUBCHEM_BOND_UDEF_STEREO_COUNT>  (1) 
0

>  <PUBCHEM_ISOTOPIC_ATOM_COUNT>  (1) 
0

>  <PUBCHEM_COMPONENT_COUNT>  (1) 
1

>  <PUBCHEM_CACTVS_TAUTO_COUNT>  (1) 
3

>  <PUBCHEM_CONFORMER_ID>  (1) 
00003B7D00000001

>  <PUBCHEM_MMFF94_ENERGY>  (1) 
-1.5547

>  <PUBCHEM_FEATURE_SELFOVERLAP>  (1) 
15.223

>  <PUBCHEM_SHAPE_FINGERPRINT>  (1) 
12091667 2 17894630358185500617
12815109 37 18410856568229724165
13533116 47 13829862266193890300
14123238 8 17917994974978576932
1420 363 17749394767354772283
14251718 22 18260547826938864041
14251764 18 18413672400402598417
14251764 46 16415480450101913670
17834072 33 18343018925626018580
17834076 25 14333410051372817837
20645477 70 18337390427558209334
20767249 213 9367343738853104507
22224240 67 16343979217479670030
23402539 116 18131064952785784949
23521765 1 18341894095134319105
33684 2 18410572881350137322
42788 4 18410575089000393644
4463277 17 18411699889838908537
8209 1 18409729565096580701

>  <PUBCHEM_SHAPE_MULTIPOLES>  (1) 
261.66
19.64
0.9
0.61
9.31
0.07
0
0.65
0.41
-0.42
0
0.02
-0.01
0

>  <PUBCHEM_SHAPE_SELFOVERLAP>  (1) 
471.557

>  <PUBCHEM_SHAPE_VOLUME>  (1) 
168.5

>  <PUBCHEM_COORDINATE_TYPE>  (1) 
2
5
10

$$$$
