15221
     RDKit          3D

  8  7  0  0  1  0  0  0  0  0999 V2000
   -1.1593    1.9223   -0.9938 Br  0  0  0  0  0  0  0  0  0  0  0  0
    1.1721   -1.9867   -0.9221 Br  0  0  0  0  0  0  0  0  0  0  0  0
   -3.3601   -0.5294    0.6028 Br  0  0  0  0  0  0  0  0  0  0  0  0
    3.3369    0.6482    0.5846 Br  0  0  0  0  0  0  0  0  0  0  0  0
   -0.7610    0.0515   -0.4850 C   0  0  0  0  0  0  0  0  0  0  0  0
    0.7703   -0.1003   -0.4777 C   0  0  0  0  0  0  0  0  0  0  0  0
   -1.4392   -0.2568    0.8452 C   0  0  0  0  0  0  0  0  0  0  0  0
    1.4403    0.2513    0.8460 C   0  0  0  0  0  0  0  0  0  0  0  0
  1  5  1  0
  2  6  1  0
  3  7  1  0
  4  8  1  0
  5  6  1  0
  5  7  1  0
  6  8  1  0
M  END
>  <PUBCHEM_COMPOUND_CID>  (1) 
15221

>  <PUBCHEM_CONFORMER_RMSD>  (1) 
0.6

>  <PUBCHEM_CONFORMER_DIVERSEORDER>  (1) 
2
19
24
23
12
40
18
21
28
29
7
15
57
52
11
14
27
37
47
54
3
26
5
1
53
39
31
33
50
43
45
44
46
4
13
49
22
16
30
10
6
41
48
17
35
32
56
55
20
9
38
34
25
42
51
8
36

>  <PUBCHEM_MMFF94_PARTIAL_CHARGES>  (1) 
8
1 -0.23
2 -0.23
3 -0.23
4 -0.23
5 0.23
6 0.23
7 0.23
8 0.23

>  <PUBCHEM_EFFECTIVE_ROTOR_COUNT>  (1) 
3

>  <PUBCHEM_PHARMACOPHORE_FEATURES>  (1) 
4
1 1 hydrophobe
1 2 hydrophobe
1 3 hydrophobe
1 4 hydrophobe

>  <PUBCHEM_HEAVY_ATOM_COUNT>  (1) 
8

>  <PUBCHEM_ATOM_DEF_STEREO_COUNT>  (1) 
0

>  <PUBCHEM_ATOM_UDEF_STEREO_COUNT>  (1) 
2

>  <PUBCHEM_BOND_DEF_STEREO_COUNT>  (1) 
0

>  <PUBCHEM_BOND_UDEF_STEREO_COUNT>  (1) 
0

>  <PUBCHEM_ISOTOPIC_ATOM_COUNT>  (1) 
0

>  <PUBCHEM_COMPONENT_COUNT>  (1) 
1

>  <PUBCHEM_CACTVS_TAUTO_COUNT>  (1) 
1

>  <PUBCHEM_CONFORMER_ID>  (1) 
00003B7500000002

>  <PUBCHEM_MMFF94_ENERGY>  (1) 
11.5312

>  <PUBCHEM_FEATURE_SELFOVERLAP>  (1) 
20.3

>  <PUBCHEM_SHAPE_FINGERPRINT>  (1) 
10219947 1 18337675324974417347
11062470 55 14779257644127591232
12932741 1 18193838132835711589
12932764 1 18270100414616603464
14128692 85 15068627148653872851
15219456 202 18340204068463585164
170605 34 16773805813294622858
18380122 1 18410293596817297247
20211469 26 15936677225408536056
20711978 78 17559681637541589015
20711985 327 17968664933679560761
20711985 344 17533235076064001365
21930827 45 17754742623949828773
23211744 41 18336537253256968914
23235685 24 17703787059035659690
23526113 38 17548412605361260535
23552449 11 17751654366728905177
29004967 10 18336274508785584339
3250762 1 18050285868932936581
528862 383 17774726372328373838
81228 2 17896333415291684285

>  <PUBCHEM_SHAPE_MULTIPOLES>  (1) 
188.41
4.8
1.87
1.24
0.1
0.09
-0.07
-0.14
1.9
-0.11
-0.93
0.03
-0.03
1.04

>  <PUBCHEM_SHAPE_SELFOVERLAP>  (1) 
288.712

>  <PUBCHEM_SHAPE_VOLUME>  (1) 
139.3

>  <PUBCHEM_COORDINATE_TYPE>  (1) 
2
5
10

$$$$
