15234
     RDKit          3D

 13 12  0  0  0  0  0  0  0  0999 V2000
   -0.0021    0.0874    0.0014 O   0  0  0  0  0  0  0  0  0  0  0  0
   -1.2917   -1.8357    0.0046 O   0  0  0  0  0  0  0  0  0  0  0  0
    1.2910   -1.8332    0.0026 O   0  0  0  0  0  0  0  0  0  0  0  0
   -2.3629    0.3565    0.0053 C   0  0  0  0  0  0  0  0  0  0  0  0
    2.3582    0.3609   -0.0020 C   0  0  0  0  0  0  0  0  0  0  0  0
   -2.3033    1.2431   -1.2493 C   0  0  0  0  0  0  0  0  0  0  0  0
   -3.6758   -0.4382   -0.0082 C   0  0  0  0  0  0  0  0  0  0  0  0
   -2.2914    1.2511    1.2506 C   0  0  0  0  0  0  0  0  0  0  0  0
    2.2962    1.2478    1.2492 C   0  0  0  0  0  0  0  0  0  0  0  0
    2.3092    1.2220   -1.2715 C   0  0  0  0  0  0  0  0  0  0  0  0
    3.6757   -0.4313    0.0130 C   0  0  0  0  0  0  0  0  0  0  0  0
   -1.1762   -0.6163    0.0031 C   0  0  0  0  0  0  0  0  0  0  0  0
    1.1732   -0.6141    0.0013 C   0  0  0  0  0  0  0  0  0  0  0  0
  1 12  1  0
  1 13  1  0
  2 12  2  0
  3 13  2  0
  4  6  1  0
  4  7  1  0
  4  8  1  0
  4 12  1  0
  5  9  1  0
  5 10  1  0
  5 11  1  0
  5 13  1  0
M  END
>  <PUBCHEM_COMPOUND_CID>  (1) 
15234

>  <PUBCHEM_CONFORMER_RMSD>  (1) 
0.6

>  <PUBCHEM_CONFORMER_DIVERSEORDER>  (1) 
1
12
13
4
5
8
9
3
6
7
10
11
2

>  <PUBCHEM_MMFF94_PARTIAL_CHARGES>  (1) 
7
1 -0.3
12 0.66
13 0.66
2 -0.57
3 -0.57
4 0.06
5 0.06

>  <PUBCHEM_EFFECTIVE_ROTOR_COUNT>  (1) 
4

>  <PUBCHEM_PHARMACOPHORE_FEATURES>  (1) 
4
1 2 acceptor
1 3 acceptor
4 4 6 7 8 hydrophobe
4 5 9 10 11 hydrophobe

>  <PUBCHEM_HEAVY_ATOM_COUNT>  (1) 
13

>  <PUBCHEM_ATOM_DEF_STEREO_COUNT>  (1) 
0

>  <PUBCHEM_ATOM_UDEF_STEREO_COUNT>  (1) 
0

>  <PUBCHEM_BOND_DEF_STEREO_COUNT>  (1) 
0

>  <PUBCHEM_BOND_UDEF_STEREO_COUNT>  (1) 
0

>  <PUBCHEM_ISOTOPIC_ATOM_COUNT>  (1) 
0

>  <PUBCHEM_COMPONENT_COUNT>  (1) 
1

>  <PUBCHEM_CACTVS_TAUTO_COUNT>  (1) 
1

>  <PUBCHEM_CONFORMER_ID>  (1) 
00003B8200000001

>  <PUBCHEM_MMFF94_ENERGY>  (1) 
29.7004

>  <PUBCHEM_FEATURE_SELFOVERLAP>  (1) 
20.31

>  <PUBCHEM_SHAPE_FINGERPRINT>  (1) 
124424 183 16878212070356296516
12932764 1 18411131441847066567
13380535 76 18410573985152100738
14144814 61 18408602530917484378
14325111 11 18410575080373386371
14390081 3 18202280316326443945
15375358 24 9223230728141070878
15775835 57 18410578383203405889
16945 1 18411700988875535793
17802600 8 18410848867353563808
18186145 218 18130787837079651145
200 152 18201707462700619191
20281407 28 11458424626344176568
21028194 46 18410290315457021231
21524375 3 18410575088963866635
21947302 44 17702659007492990552
230 275 18410851062350793008
23402539 116 17704061889603173717
23557571 272 17557988630305794222
2748010 2 18127406984758013632
3248919 1 18410577279391419142
5084963 1 18334857220711277969
7364860 26 18200594679318527854
8030462 33 18130787832700151309
81228 2 17905322184335551083

>  <PUBCHEM_SHAPE_MULTIPOLES>  (1) 
249.93
5.9
1.61
1.11
0
0.31
0.01
-0.61
0.01
-0.01
-0.01
0.01
-0.63
0

>  <PUBCHEM_SHAPE_SELFOVERLAP>  (1) 
485.231

>  <PUBCHEM_SHAPE_VOLUME>  (1) 
153

>  <PUBCHEM_COORDINATE_TYPE>  (1) 
2
5
10

$$$$
