15237
     RDKit          3D

 19 18  0  0  0  0  0  0  0  0999 V2000
    4.7733    3.4069   -1.0190 O   0  0  0  0  0  0  0  0  0  0  0  0
    4.7099   -2.8630   -0.7177 O   0  0  0  0  0  0  0  0  0  0  0  0
    4.6918   -0.1215    0.1076 N   0  0  0  0  0  0  0  0  0  0  0  0
   -2.3489    0.1953    0.7423 C   0  0  0  0  0  0  0  0  0  0  0  0
   -0.9893   -0.3838    0.3408 C   0  0  0  0  0  0  0  0  0  0  0  0
   -3.5190   -0.3951   -0.0477 C   0  0  0  0  0  0  0  0  0  0  0  0
    0.1837    0.2245    1.1127 C   0  0  0  0  0  0  0  0  0  0  0  0
   -4.8475    0.2404    0.3721 C   0  0  0  0  0  0  0  0  0  0  0  0
   -6.0140   -0.3263   -0.4405 C   0  0  0  0  0  0  0  0  0  0  0  0
    1.5053   -0.4406    0.7240 C   0  0  0  0  0  0  0  0  0  0  0  0
   -7.3736    0.2531   -0.0395 C   0  0  0  0  0  0  0  0  0  0  0  0
    2.6841    0.1845    1.4682 C   0  0  0  0  0  0  0  0  0  0  0  0
   -8.5419   -0.3316   -0.8341 C   0  0  0  0  0  0  0  0  0  0  0  0
    3.9551   -0.5208    1.0902 C   0  0  0  0  0  0  0  0  0  0  0  0
    4.3767    1.0490   -0.7572 C   0  0  0  0  0  0  0  0  0  0  0  0
    5.9446   -0.8593   -0.2217 C   0  0  0  0  0  0  0  0  0  0  0  0
   -9.8583    0.3269   -0.4499 C   0  0  0  0  0  0  0  0  0  0  0  0
    5.0294    2.2891   -0.1764 C   0  0  0  0  0  0  0  0  0  0  0  0
    5.6384   -1.9276   -1.2542 C   0  0  0  0  0  0  0  0  0  0  0  0
  1 18  1  0
  2 19  1  0
  3 14  2  3
  3 15  1  0
  3 16  1  0
  4  5  1  0
  4  6  1  0
  5  7  1  0
  6  8  1  0
  7 10  1  0
  8  9  1  0
  9 11  1  0
 10 12  1  0
 11 13  1  0
 12 14  1  0
 13 17  1  0
 15 18  1  0
 16 19  1  0
M  CHG  1   3   1
M  END
>  <PUBCHEM_COMPOUND_CID>  (1) 
15237

>  <PUBCHEM_CONFORMER_RMSD>  (1) 
1.2

>  <PUBCHEM_CONFORMER_DIVERSEORDER>  (1) 
1
58
92
44
29
42
5
67
76
61
99
22
19
54
16
52
47
17
13
89
107
31
90
109
77
21
4
101
114
55
25
27
39
96
104
79
74
66
48
83
37
8
70
78
3
110
85
108
105
36
57
63
35
103
60
94
10
75
71
51
68
64
24
45
50
28
11
95
43
98
18
112
33
23
86
106
100
38
72
41
84
40
88
26
62
2
97
65
14
73
111
30
69
7
80
9
20
6
49
82
46
15
93
113
53
32
59
87
91
102
56
34
12
81

>  <PUBCHEM_MMFF94_PARTIAL_CHARGES>  (1) 
12
1 -0.68
12 0.06
14 0.28
15 0.35
16 0.35
18 0.28
19 0.28
2 -0.68
3 -0.09
40 0.06
52 0.4
53 0.4

>  <PUBCHEM_EFFECTIVE_ROTOR_COUNT>  (1) 
14

>  <PUBCHEM_PHARMACOPHORE_FEATURES>  (1) 
5
1 1 acceptor
1 1 donor
1 17 hydrophobe
1 2 acceptor
1 2 donor

>  <PUBCHEM_HEAVY_ATOM_COUNT>  (1) 
19

>  <PUBCHEM_ATOM_DEF_STEREO_COUNT>  (1) 
0

>  <PUBCHEM_ATOM_UDEF_STEREO_COUNT>  (1) 
0

>  <PUBCHEM_BOND_DEF_STEREO_COUNT>  (1) 
0

>  <PUBCHEM_BOND_UDEF_STEREO_COUNT>  (1) 
0

>  <PUBCHEM_ISOTOPIC_ATOM_COUNT>  (1) 
0

>  <PUBCHEM_COMPONENT_COUNT>  (1) 
1

>  <PUBCHEM_CACTVS_TAUTO_COUNT>  (1) 
1

>  <PUBCHEM_CONFORMER_ID>  (1) 
00003B8500000001

>  <PUBCHEM_MMFF94_ENERGY>  (1) 
14.5112

>  <PUBCHEM_FEATURE_SELFOVERLAP>  (1) 
25.371

>  <PUBCHEM_SHAPE_FINGERPRINT>  (1) 
10 15 11746939776719528523
10066227 49 17988926613908863799
11135609 127 18270956977246250352
11638347 137 9799695899966153837
125118 31 13407069272290580239
13533116 47 18201722851457716256
14251757 52 18040710394667363001
14251764 46 18410007732727096491
1754908 1 9367339376163527093
20157964 124 18410014351540549372
20281389 69 17095795565039244065
20812841 46 17458332058310031832
21130983 4 14129061396436085619
21360442 33 18265331716449567570
21360442 67 18408604764681390811
221357 26 18333732399358678564
22224240 67 15357693090315255777
22956985 138 15982598191230209902
23035841 295 16200428079602131247
23081809 10 17775576325192243425
28498 318 17632292346827885419
29717793 49 18413110550240217290
3004659 81 18201721726472028090
33532 11 17632572730672361351
34797466 226 18334293175773395893
5283156 175 17846499210667235339
59521099 67 18272649061301680832
59682541 52 18410860953839713430
6438161 24 18201714008110166898

>  <PUBCHEM_SHAPE_MULTIPOLES>  (1) 
374.29
27.42
2.05
1.17
63.38
0.88
-0.11
-0.33
9.85
-6.88
1.12
-1.11
-0.01
-0.16

>  <PUBCHEM_SHAPE_SELFOVERLAP>  (1) 
681.421

>  <PUBCHEM_SHAPE_VOLUME>  (1) 
239.1

>  <PUBCHEM_COORDINATE_TYPE>  (1) 
2
5
10

$$$$
