15248
     RDKit          3D

 20 21  0  0  1  0  0  0  0  0999 V2000
   -1.8197    0.3646    0.6890 O   0  0  0  0  0  0  0  0  0  0  0  0
   -3.5739    0.4678   -1.5948 O   0  0  0  0  0  0  0  0  0  0  0  0
   -1.6066    3.1396    0.9301 O   0  0  0  0  0  0  0  0  0  0  0  0
    7.0930   -1.1628    0.1816 O   0  0  0  0  0  0  0  0  0  0  0  0
    1.4384    1.3044   -0.1132 N   0  0  0  0  0  0  0  0  0  0  0  0
   -1.5669    1.1988   -0.4501 C   0  0  0  0  0  0  0  0  0  0  0  0
   -0.7764    2.4080    0.0278 C   0  0  0  0  0  0  0  0  0  0  0  0
    0.5201    2.0330    0.7512 C   0  0  0  0  0  0  0  0  0  0  0  0
   -2.8870    1.6151   -1.0849 C   0  0  0  0  0  0  0  0  0  0  0  0
    2.6792    0.9978    0.5858 C   0  0  0  0  0  0  0  0  0  0  0  0
    3.6269    0.2247   -0.3294 C   0  0  0  0  0  0  0  0  0  0  0  0
   -2.7485   -0.6063    0.4216 C   0  0  0  0  0  0  0  0  0  0  0  0
    4.9324   -0.1152    0.3878 C   0  0  0  0  0  0  0  0  0  0  0  0
   -3.5911   -0.5619   -0.6912 C   0  0  0  0  0  0  0  0  0  0  0  0
    5.9023   -0.8495   -0.5287 C   0  0  0  0  0  0  0  0  0  0  0  0
   -2.8385   -1.6661    1.3245 C   0  0  0  0  0  0  0  0  0  0  0  0
   -4.4937   -1.5993   -0.9261 C   0  0  0  0  0  0  0  0  0  0  0  0
   -3.7511   -2.6963    1.0964 C   0  0  0  0  0  0  0  0  0  0  0  0
   -4.5735   -2.6657   -0.0301 C   0  0  0  0  0  0  0  0  0  0  0  0
    8.0345   -1.8306   -0.6474 C   0  0  0  0  0  0  0  0  0  0  0  0
  1  6  1  0
  1 12  1  0
  2  9  1  0
  2 14  1  0
  3  7  1  0
  4 15  1  0
  4 20  1  0
  5  8  1  0
  5 10  1  0
  6  7  1  0
  6  9  1  0
  7  8  1  0
 10 11  1  0
 11 13  1  0
 12 14  2  0
 12 16  1  0
 13 15  1  0
 14 17  1  0
 16 18  2  0
 17 19  2  0
 18 19  1  0
M  END
>  <PUBCHEM_COMPOUND_CID>  (1) 
15248

>  <PUBCHEM_CONFORMER_RMSD>  (1) 
1

>  <PUBCHEM_CONFORMER_DIVERSEORDER>  (1) 
3
21
544
62
594
701
17
574
539
570
386
30
766
228
29
613
36
220
637
27
188
263
553
465
32
22
10
247
83
362
700
490
345
44
168
751
755
144
335
651
515
417
175
46
2
453
451
743
185
440
128
683
40
88
184
620
864
51
52
259
415
6
265
631
800
111
1
234
713
466
775
108
324
28
145
659
826
485
366
136
11
8
64
39
756
840
813
137
381
9
50
526
14
31
161
439
677
438
68
738
735
494
410
120
99
187
851
458
79
393
303
195
606
377
281
849
307
356
268
647
255
863
390
4
285
736
621
679
7
364
314
163
15
261
554
409
47
254
566
57
357
180
116
207
387
557
603
520
600
407
110
154
85
397
186
157
394
568
657
304
23
240
129
251
411
191
291
90
791
43
551
406
532
164
653
378
37
96
595
121
547
58
746
674
810
452
623
42
276
399
590
496
257
586
49
537
687
224
384
698
682
283
423
745
638

>  <PUBCHEM_MMFF94_PARTIAL_CHARGES>  (1) 
24
1 -0.36
10 0.27
12 0.08
14 0.08
15 0.28
16 -0.15
17 -0.15
18 -0.15
19 -0.15
2 -0.36
20 0.28
29 0.36
3 -0.68
34 0.4
37 0.15
38 0.15
39 0.15
4 -0.56
40 0.15
5 -0.9
6 0.28
7 0.28
8 0.27
9 0.28

>  <PUBCHEM_EFFECTIVE_ROTOR_COUNT>  (1) 
8.8

>  <PUBCHEM_PHARMACOPHORE_FEATURES>  (1) 
9
1 1 acceptor
1 2 acceptor
1 3 acceptor
1 3 donor
1 4 acceptor
1 5 cation
1 5 donor
6 1 2 6 9 12 14 rings
6 12 14 16 17 18 19 rings

>  <PUBCHEM_HEAVY_ATOM_COUNT>  (1) 
20

>  <PUBCHEM_ATOM_DEF_STEREO_COUNT>  (1) 
0

>  <PUBCHEM_ATOM_UDEF_STEREO_COUNT>  (1) 
2

>  <PUBCHEM_BOND_DEF_STEREO_COUNT>  (1) 
0

>  <PUBCHEM_BOND_UDEF_STEREO_COUNT>  (1) 
0

>  <PUBCHEM_ISOTOPIC_ATOM_COUNT>  (1) 
0

>  <PUBCHEM_COMPONENT_COUNT>  (1) 
1

>  <PUBCHEM_CACTVS_TAUTO_COUNT>  (1) 
1

>  <PUBCHEM_CONFORMER_ID>  (1) 
00003B9000000003

>  <PUBCHEM_MMFF94_ENERGY>  (1) 
43.863

>  <PUBCHEM_FEATURE_SELFOVERLAP>  (1) 
45.717

>  <PUBCHEM_SHAPE_FINGERPRINT>  (1) 
10968037 57 18339081617990695651
11809386 21 18336261241858350154
12363563 72 18340211906979542249
12403259 118 12103563125497241747
12633257 1 15913046581539048500
12760667 363 18411139155872165411
13631057 29 18409730647597267994
14251740 79 18040437693833792466
14420673 8 18336551607576184219
14866123 147 18412549782631589545
14931854 50 17967800652762834627
14950920 106 14979661243740878782
15183329 4 16660359269531666506
15250474 111 18043522808204421610
15352361 1 18410574032517579706
17780758 139 17775573021956217336
17870717 6 18040710385707851351
18927931 339 18273218569215397484
20281389 69 9007052466582661710
21054139 6 18114183004794586818
21307412 95 18189045551473679847
2303208 19 17346323640656872190
23379529 103 17972041606549945115
23403322 49 18408881871311318513
23559900 14 18262509420144866381
25122255 55 18341900662904550358
270888 7 8862677788592516062
3004659 81 18040992973223373504
329604 57 18409454713170528188
484985 159 18411705361616395811
5104073 3 18060420210137154672
531348 171 17242162454054658732
5365585 94 18408893927327151778
5486654 36 18272095993307813193
5718773 13 18270675501652426343
6431902 208 18341895169588839046
7970288 3 18269272524825978806
9980921 52 17408523296318938055

>  <PUBCHEM_SHAPE_MULTIPOLES>  (1) 
383.13
16.19
3.22
1.16
41.61
0.41
-0.05
-16.06
-3.46
-2.82
0.66
-1.05
-0.06
1.4

>  <PUBCHEM_SHAPE_SELFOVERLAP>  (1) 
779.132

>  <PUBCHEM_SHAPE_VOLUME>  (1) 
222.3

>  <PUBCHEM_COORDINATE_TYPE>  (1) 
2
5
10

$$$$
