1524
     RDKit          3D

 36 39  0  0  1  0  0  0  0  0999 V2000
    5.9858   -3.2504    2.2293 Br  0  0  0  0  0  0  0  0  0  0  0  0
    0.5899   -1.6151   -0.8982 S   0  0  0  0  0  0  0  0  0  0  0  0
   -2.5617    1.4409    1.8425 O   0  0  0  0  0  0  0  0  0  0  0  0
   -1.9079   -0.0055   -2.1171 O   0  0  0  0  0  0  0  0  0  0  0  0
   -3.7180   -3.3606    0.4937 O   0  0  0  0  0  0  0  0  0  0  0  0
   -0.1019   -0.6428   -0.0703 O   0  0  0  0  0  0  0  0  0  0  0  0
    0.9473   -1.2880   -2.2676 O   0  0  0  0  0  0  0  0  0  0  0  0
   -2.0327    2.9122    0.1178 N   0  0  0  0  0  0  0  0  0  0  0  0
   -3.5331   -0.0401   -0.4224 N   0  0  0  0  0  0  0  0  0  0  0  0
   -4.0456   -1.0356    0.3927 N   0  0  0  0  0  0  0  0  0  0  0  0
   -2.5305   -1.9607   -0.9725 N   0  0  0  0  0  0  0  0  0  0  0  0
    5.4823    3.0129   -1.3190 N   0  0  0  0  0  0  0  0  0  0  0  0
    4.5803    1.0493   -0.3663 N   0  0  0  0  0  0  0  0  0  0  0  0
    0.3926    2.9376    0.5133 C   0  0  0  0  0  0  0  0  0  0  0  0
    0.6975    2.9088   -0.9905 C   0  0  0  0  0  0  0  0  0  0  0  0
    1.5137    3.6470    1.2846 C   0  0  0  0  0  0  0  0  0  0  0  0
    3.1751    2.9902   -0.5025 C   0  0  0  0  0  0  0  0  0  0  0  0
    2.0617    2.2849   -1.2769 C   0  0  0  0  0  0  0  0  0  0  0  0
    2.8782    3.0242    0.9969 C   0  0  0  0  0  0  0  0  0  0  0  0
   -0.9532    3.6104    0.7777 C   0  0  0  0  0  0  0  0  0  0  0  0
    4.4786    2.2892   -0.7326 C   0  0  0  0  0  0  0  0  0  0  0  0
   -3.8243    1.3529   -0.1803 C   0  0  0  0  0  0  0  0  0  0  0  0
   -2.7447    1.8843    0.7117 C   0  0  0  0  0  0  0  0  0  0  0  0
   -5.2896   -0.8574    1.1082 C   0  0  0  0  0  0  0  0  0  0  0  0
   -2.5783   -0.6002   -1.2834 C   0  0  0  0  0  0  0  0  0  0  0  0
   -5.1189    1.5546    0.5272 C   0  0  0  0  0  0  0  0  0  0  0  0
   -3.4476   -2.2567    0.0385 C   0  0  0  0  0  0  0  0  0  0  0  0
   -1.6852   -2.9330   -1.6340 C   0  0  0  0  0  0  0  0  0  0  0  0
   -5.7800    0.5499    1.1134 C   0  0  0  0  0  0  0  0  0  0  0  0
   -0.3537   -3.1073   -0.9290 C   0  0  0  0  0  0  0  0  0  0  0  0
    2.0700   -2.0626   -0.0410 C   0  0  0  0  0  0  0  0  0  0  0  0
    3.1698   -2.5436   -0.7515 C   0  0  0  0  0  0  0  0  0  0  0  0
    2.1375   -1.9350    1.3463 C   0  0  0  0  0  0  0  0  0  0  0  0
    4.3371   -2.8969   -0.0747 C   0  0  0  0  0  0  0  0  0  0  0  0
    3.3048   -2.2884    2.0232 C   0  0  0  0  0  0  0  0  0  0  0  0
    4.4046   -2.7694    1.3127 C   0  0  0  0  0  0  0  0  0  0  0  0
  1 36  1  0
  2  6  2  0
  2  7  2  0
  2 30  1  0
  2 31  1  0
  3 23  2  0
  4 25  2  0
  5 27  2  0
  8 20  1  0
  8 23  1  0
  9 10  1  0
  9 22  1  0
  9 25  1  0
 10 24  1  0
 10 27  1  0
 11 25  1  0
 11 27  1  0
 11 28  1  0
 12 21  1  0
 13 21  2  0
 14 15  1  0
 14 16  1  0
 14 20  1  0
 15 18  1  0
 16 19  1  0
 17 18  1  0
 17 19  1  0
 17 21  1  0
 22 23  1  0
 22 26  1  0
 24 29  1  0
 26 29  2  0
 28 30  1  0
 31 32  2  0
 31 33  1  0
 32 34  1  0
 33 35  2  0
 34 36  2  0
 35 36  1  0
M  END
>  <PUBCHEM_COMPOUND_CID>  (1) 
1524

>  <PUBCHEM_CONFORMER_RMSD>  (1) 
1.2

>  <PUBCHEM_CONFORMER_DIVERSEORDER>  (1) 
1
63
192
134
203
152
69
11
206
26
67
100
101
173
126
50
229
202
12
166
108
74
207
200
181
220
128
72
106
196
161
85
115
36
225
131
49
8
145
39
154
228
22
204
123
146
5
107
151
149
97
138
58
77
222
165
184
156
190
93
219
142
135
25
140
61
98
160
221
130
159
188
30
7
157
124
194
90
119
177
51
120
210
23
121
191
169
147
186
224
158
182
81
44
38
83
223
92
95
73
227
59
94
205
13
52
209
175
66
137
217
122
144
68
164
178
116
64
53
208
226
211
114
91
111
79
176
43
15
218
33
180
2
215
48
62
37
168
143
112
198
214
76
139
197
193
41
179
46
150
80
86
183
40
19
104
32
105
153
127
136
212
24
148
171
141
84
42
28
88
16
102
118
189
4
45
185
9
78
129
117
170
187
113
132
60
109
89
87
133
155
34
29
18
10
27
55
82
213
162
110
163
103
174
70
172
21
65
125
31
195
96
35
14
47
75
201
99
167
20
199
71
216
3
54
56
17
57
6

>  <PUBCHEM_MMFF94_PARTIAL_CHARGES>  (1) 
41
1 -0.11
10 -0.36
11 -0.42
12 -0.85
13 -0.85
17 0.06
2 1.2
20 0.3
21 0.44
22 0.5
23 0.57
24 0.44
25 0.69
26 -0.29
27 0.69
28 0.3
29 -0.29
3 -0.57
30 0.11
31 -0.01
32 -0.15
33 -0.15
34 -0.15
35 -0.15
36 0.11
4 -0.57
49 0.37
5 -0.57
53 0.15
54 0.4
55 0.4
58 0.15
59 0.4
6 -0.65
62 0.15
63 0.15
64 0.15
65 0.15
7 -0.65
8 -0.73
9 -0.36

>  <PUBCHEM_EFFECTIVE_ROTOR_COUNT>  (1) 
10.6

>  <PUBCHEM_PHARMACOPHORE_FEATURES>  (1) 
14
1 1 hydrophobe
1 12 donor
1 13 donor
1 3 acceptor
1 4 acceptor
1 5 acceptor
1 6 acceptor
1 7 acceptor
1 8 donor
3 12 13 21 cation
5 9 10 11 25 27 rings
6 14 15 16 17 18 19 rings
6 31 32 33 34 35 36 rings
6 9 10 22 24 26 29 rings

>  <PUBCHEM_HEAVY_ATOM_COUNT>  (1) 
36

>  <PUBCHEM_ATOM_DEF_STEREO_COUNT>  (1) 
0

>  <PUBCHEM_ATOM_UDEF_STEREO_COUNT>  (1) 
1

>  <PUBCHEM_BOND_DEF_STEREO_COUNT>  (1) 
0

>  <PUBCHEM_BOND_UDEF_STEREO_COUNT>  (1) 
0

>  <PUBCHEM_ISOTOPIC_ATOM_COUNT>  (1) 
0

>  <PUBCHEM_COMPONENT_COUNT>  (1) 
1

>  <PUBCHEM_CACTVS_TAUTO_COUNT>  (1) 
2

>  <PUBCHEM_CONFORMER_ID>  (1) 
000005F400000001

>  <PUBCHEM_MMFF94_ENERGY>  (1) 
57.8072

>  <PUBCHEM_FEATURE_SELFOVERLAP>  (1) 
71.199

>  <PUBCHEM_SHAPE_FINGERPRINT>  (1) 
10190108 129 17832159577560500915
1100329 8 18340208471264090341
11135926 11 18336260240904824924
11513181 2 17989489610594748798
12107698 1 18262238803108620411
12156800 1 16342317765469099232
12422481 6 18197753588959431658
13140716 1 18412267233739052663
14117953 113 17981603767298200389
14950920 106 18187079525123404675
15001296 14 18410016533225842660
15264996 142 18048899402536380386
15274700 242 18122327228934340120
15297060 5 17775293772194812314
15351339 4 18268147742137517232
15406563 185 17771632536509896880
16112460 7 18200048248194131281
17627616 140 18337390543210706800
19319366 153 18190465050748521292
20764821 26 18342461408906460117
21033648 29 17414979276034282987
21360443 120 18115034116941390868
21927370 108 17897431798087049074
25019877 29 16844708843109868543
463206 1 18411703175357249072
469060 322 16953947415342125798
474144 1 18410009931961446040
56638632 33 18336257972866343057
57091435 65 18340763848757736840

>  <PUBCHEM_SHAPE_MULTIPOLES>  (1) 
691.42
11.88
6.1
1.86
0.25
2.81
0.04
-4.43
5.04
5.47
0.33
1.06
-0.65
-3.31

>  <PUBCHEM_SHAPE_SELFOVERLAP>  (1) 
1441.751

>  <PUBCHEM_SHAPE_VOLUME>  (1) 
395.9

>  <PUBCHEM_COORDINATE_TYPE>  (1) 
2
5
10

$$$$
