15245
     RDKit          3D

  8  7  0  0  0  0  0  0  0  0999 V2000
   -3.5778    1.1864   -0.2139 Cl  0  0  0  0  0  0  0  0  0  0  0  0
    3.3707    0.2735   -0.9820 F   0  0  0  0  0  0  0  0  0  0  0  0
   -0.6700   -0.0155    0.3945 C   0  0  0  0  0  0  0  0  0  0  0  0
    0.7453   -0.4274   -0.0172 C   0  0  0  0  0  0  0  0  0  0  0  0
   -1.7255   -0.8331   -0.3561 C   0  0  0  0  0  0  0  0  0  0  0  0
    1.8020    0.3561    0.7635 C   0  0  0  0  0  0  0  0  0  0  0  0
   -3.1535   -0.5163    0.0767 C   0  0  0  0  0  0  0  0  0  0  0  0
    3.2087   -0.0237    0.3345 C   0  0  0  0  0  0  0  0  0  0  0  0
  1  7  1  0
  2  8  1  0
  3  4  1  0
  3  5  1  0
  4  6  1  0
  5  7  1  0
  6  8  1  0
M  END
>  <PUBCHEM_COMPOUND_CID>  (1) 
15245

>  <PUBCHEM_CONFORMER_RMSD>  (1) 
0.6

>  <PUBCHEM_CONFORMER_DIVERSEORDER>  (1) 
1
71
36
52
72
4
49
3
43
42
5
66
77
2
70
67
30
75
78
76
10
15
69
32
31
79
37
74
24
17
41
33
45
80
28
57
47
54
48
34
23
55
51
44
60
12
68
25
53
22
64
73
82
9
18
46
38
16
63
58
59
14
56
26
8
27
81
29
62
39
50
7
6
11
20
19
65
13
61
40
21
35

>  <PUBCHEM_MMFF94_PARTIAL_CHARGES>  (1) 
4
1 -0.29
2 -0.34
7 0.29
8 0.34

>  <PUBCHEM_EFFECTIVE_ROTOR_COUNT>  (1) 
5

>  <PUBCHEM_PHARMACOPHORE_FEATURES>  (1) 
1
4 3 4 5 6 hydrophobe

>  <PUBCHEM_HEAVY_ATOM_COUNT>  (1) 
8

>  <PUBCHEM_ATOM_DEF_STEREO_COUNT>  (1) 
0

>  <PUBCHEM_ATOM_UDEF_STEREO_COUNT>  (1) 
0

>  <PUBCHEM_BOND_DEF_STEREO_COUNT>  (1) 
0

>  <PUBCHEM_BOND_UDEF_STEREO_COUNT>  (1) 
0

>  <PUBCHEM_ISOTOPIC_ATOM_COUNT>  (1) 
0

>  <PUBCHEM_COMPONENT_COUNT>  (1) 
1

>  <PUBCHEM_CACTVS_TAUTO_COUNT>  (1) 
1

>  <PUBCHEM_CONFORMER_ID>  (1) 
00003B8D00000001

>  <PUBCHEM_MMFF94_ENERGY>  (1) 
-0.6531

>  <PUBCHEM_FEATURE_SELFOVERLAP>  (1) 
5.074

>  <PUBCHEM_SHAPE_FINGERPRINT>  (1) 
10149128 111 17822016393155887605
11062470 55 17967249805957986547
12932764 1 18272925050934318579
14325111 11 18411415124495113187
14390081 3 18343574145065542641
177051 138 10159700200598448604
190213 19 17749104499999790363
20645477 70 16702028560689133078
20651381 32 16773795900452003378
20711983 171 18260828176655248901
20765181 27 18131622383574284025
21293036 1 16988835090741763029
3248919 1 17749097911541291403
5460574 1 17704070724192684946

>  <PUBCHEM_SHAPE_MULTIPOLES>  (1) 
159.23
6.88
0.98
0.82
0.44
0.1
-0.05
1.44
-0.86
-0.84
-0.04
0.38
0.05
0.11

>  <PUBCHEM_SHAPE_SELFOVERLAP>  (1) 
271.059

>  <PUBCHEM_SHAPE_VOLUME>  (1) 
107.3

>  <PUBCHEM_COORDINATE_TYPE>  (1) 
2
5
10

$$$$
