15246
     RDKit          3D

  5  4  0  0  0  0  0  0  0  0999 V2000
    0.8276   -0.9182   -0.3670 S   0  0  0  0  0  0  0  0  0  0  0  0
   -0.5622    0.0300    0.3389 C   0  0  0  0  0  0  0  0  0  0  0  0
   -0.5658    1.4415   -0.2357 C   0  0  0  0  0  0  0  0  0  0  0  0
   -1.8740   -0.6905    0.0526 C   0  0  0  0  0  0  0  0  0  0  0  0
    2.1744    0.1372    0.2113 C   0  0  0  0  0  0  0  0  0  0  0  0
  1  2  1  0
  1  5  1  0
  2  3  1  0
  2  4  1  0
M  END
>  <PUBCHEM_COMPOUND_CID>  (1) 
15246

>  <PUBCHEM_CONFORMER_RMSD>  (1) 
0.4

>  <PUBCHEM_CONFORMER_DIVERSEORDER>  (1) 
1
2
3

>  <PUBCHEM_MMFF94_PARTIAL_CHARGES>  (1) 
3
1 -0.46
2 0.23
5 0.23

>  <PUBCHEM_EFFECTIVE_ROTOR_COUNT>  (1) 
1

>  <PUBCHEM_PHARMACOPHORE_FEATURES>  (1) 
2
1 5 hydrophobe
3 2 3 4 hydrophobe

>  <PUBCHEM_HEAVY_ATOM_COUNT>  (1) 
5

>  <PUBCHEM_ATOM_DEF_STEREO_COUNT>  (1) 
0

>  <PUBCHEM_ATOM_UDEF_STEREO_COUNT>  (1) 
0

>  <PUBCHEM_BOND_DEF_STEREO_COUNT>  (1) 
0

>  <PUBCHEM_BOND_UDEF_STEREO_COUNT>  (1) 
0

>  <PUBCHEM_ISOTOPIC_ATOM_COUNT>  (1) 
0

>  <PUBCHEM_COMPONENT_COUNT>  (1) 
1

>  <PUBCHEM_CACTVS_TAUTO_COUNT>  (1) 
1

>  <PUBCHEM_CONFORMER_ID>  (1) 
00003B8E00000001

>  <PUBCHEM_MMFF94_ENERGY>  (1) 
6.6363

>  <PUBCHEM_FEATURE_SELFOVERLAP>  (1) 
10.149

>  <PUBCHEM_SHAPE_FINGERPRINT>  (1) 
139733 1 9511468805322177123
16714656 1 18342178916159650262
20096714 4 17760931744763897032
21040471 1 17831584167199675300
23552449 1 18336822000904079836
24536 1 17344343346188193554
29004967 10 18336273434827606091
5460574 1 8502382126211102506
5943 1 16159015896805543145

>  <PUBCHEM_SHAPE_MULTIPOLES>  (1) 
106.75
2.5
1.32
0.71
0.67
0.33
-0.02
-0.32
0.2
-0.26
-0.16
0.03
-0.02
0.14

>  <PUBCHEM_SHAPE_SELFOVERLAP>  (1) 
167.311

>  <PUBCHEM_SHAPE_VOLUME>  (1) 
78.2

>  <PUBCHEM_COORDINATE_TYPE>  (1) 
2
5
10

$$$$
