15253
     RDKit          3D

 24 24  0  0  0  0  0  0  0  0999 V2000
    3.2822   -1.9719    0.4291 I   0  0  0  0  0  0  0  0  0  0  0  0
   -0.1652    2.9841    1.2515 I   0  0  0  0  0  0  0  0  0  0  0  0
   -2.8009   -2.4688    0.4797 I   0  0  0  0  0  0  0  0  0  0  0  0
   -2.9483    1.1272   -0.2571 O   0  0  0  0  0  0  0  0  0  0  0  0
   -3.0779    0.8623    2.0259 O   0  0  0  0  0  0  0  0  0  0  0  0
    4.8257    2.7619    0.3316 O   0  0  0  0  0  0  0  0  0  0  0  0
    0.3216   -3.4424   -2.0510 O   0  0  0  0  0  0  0  0  0  0  0  0
   -3.6238    3.0468   -2.1854 O   0  0  0  0  0  0  0  0  0  0  0  0
    2.9052    1.6435   -0.3648 N   0  0  0  0  0  0  0  0  0  0  0  0
    0.3218   -3.2422    0.2963 N   0  0  0  0  0  0  0  0  0  0  0  0
    1.2521    0.2982    0.8149 C   0  0  0  0  0  0  0  0  0  0  0  0
    2.4890    1.1416    0.9164 C   0  0  0  0  0  0  0  0  0  0  0  0
    0.2111   -1.8603    0.5084 C   0  0  0  0  0  0  0  0  0  0  0  0
   -1.1562    0.1046    0.8353 C   0  0  0  0  0  0  0  0  0  0  0  0
    1.3608   -1.0763    0.6038 C   0  0  0  0  0  0  0  0  0  0  0  0
   -0.0064    0.8887    0.9307 C   0  0  0  0  0  0  0  0  0  0  0  0
   -1.0473   -1.2699    0.6242 C   0  0  0  0  0  0  0  0  0  0  0  0
   -2.4765    0.7244    0.9586 C   0  0  0  0  0  0  0  0  0  0  0  0
    4.0444    2.4154   -0.5504 C   0  0  0  0  0  0  0  0  0  0  0  0
    0.3669   -3.9222   -0.9229 C   0  0  0  0  0  0  0  0  0  0  0  0
   -4.2363    1.7521   -0.2672 C   0  0  0  0  0  0  0  0  0  0  0  0
   -4.5922    2.1290   -1.6924 C   0  0  0  0  0  0  0  0  0  0  0  0
    4.2605    2.7859   -1.9933 C   0  0  0  0  0  0  0  0  0  0  0  0
    0.4898   -5.4118   -0.7217 C   0  0  0  0  0  0  0  0  0  0  0  0
  1 15  1  0
  2 16  1  0
  3 17  1  0
  4 18  1  0
  4 21  1  0
  5 18  2  0
  6 19  2  0
  7 20  2  0
  8 22  1  0
  9 12  1  0
  9 19  1  0
 10 13  1  0
 10 20  1  0
 11 12  1  0
 11 15  2  0
 11 16  1  0
 13 15  1  0
 13 17  2  0
 14 16  2  0
 14 17  1  0
 14 18  1  0
 19 23  1  0
 20 24  1  0
 21 22  1  0
M  END
>  <PUBCHEM_COMPOUND_CID>  (1) 
15253

>  <PUBCHEM_CONFORMER_RMSD>  (1) 
1

>  <PUBCHEM_CONFORMER_DIVERSEORDER>  (1) 
1
10
28
36
43
39
26
42
40
29
18
23
38
14
31
30
32
35
20
5
41
17
8
37
11
7
21
34
16
2
4
9
19
6
33
13
27
24
22
25
15
3
12

>  <PUBCHEM_MMFF94_PARTIAL_CHARGES>  (1) 
27
1 -0.08
10 -0.55
11 -0.14
12 0.44
13 0.12
14 0.09
15 0.08
16 0.08
17 0.08
18 0.63
19 0.57
2 -0.08
20 0.57
21 0.28
22 0.28
23 0.06
24 0.06
27 0.37
28 0.37
3 -0.08
39 0.4
4 -0.43
5 -0.57
6 -0.57
7 -0.57
8 -0.68
9 -0.73

>  <PUBCHEM_EFFECTIVE_ROTOR_COUNT>  (1) 
9

>  <PUBCHEM_PHARMACOPHORE_FEATURES>  (1) 
11
1 1 hydrophobe
1 10 donor
1 2 hydrophobe
1 3 hydrophobe
1 5 acceptor
1 6 acceptor
1 7 acceptor
1 8 acceptor
1 8 donor
1 9 donor
6 11 13 14 15 16 17 rings

>  <PUBCHEM_HEAVY_ATOM_COUNT>  (1) 
24

>  <PUBCHEM_ATOM_DEF_STEREO_COUNT>  (1) 
0

>  <PUBCHEM_ATOM_UDEF_STEREO_COUNT>  (1) 
0

>  <PUBCHEM_BOND_DEF_STEREO_COUNT>  (1) 
0

>  <PUBCHEM_BOND_UDEF_STEREO_COUNT>  (1) 
0

>  <PUBCHEM_ISOTOPIC_ATOM_COUNT>  (1) 
0

>  <PUBCHEM_COMPONENT_COUNT>  (1) 
1

>  <PUBCHEM_CACTVS_TAUTO_COUNT>  (1) 
4

>  <PUBCHEM_CONFORMER_ID>  (1) 
00003B9500000001

>  <PUBCHEM_MMFF94_ENERGY>  (1) 
95.0766

>  <PUBCHEM_FEATURE_SELFOVERLAP>  (1) 
55.822

>  <PUBCHEM_SHAPE_FINGERPRINT>  (1) 
10871710 139 17754465877611090636
12160290 23 18053659458428122802
13140716 1 18342464720326622706
13583140 156 17459196183289130505
13899415 180 17330538857611537679
13911987 19 18411705417293559225
140371 6 18124033425307007146
14508225 48 17259056299280087246
14790565 3 18198927948370442779
16945 1 18125449613442495747
19591789 44 18270414900374841394
21304303 282 17981291759530623934
22907989 373 18191861447563777653
23114952 82 18191866713215099733
2334 1 18341896345766157362
23559900 14 18340767031950963138
26353 1 16972792399616202422
2748010 2 18342178890131715459
3057174 1 18413390921194308926
352729 6 18341615875853907586
394222 165 18113612370300635408
46194498 28 18046050576683200765
59554788 191 18410567358302575290

>  <PUBCHEM_SHAPE_MULTIPOLES>  (1) 
490.41
7.65
6.37
1.73
0.74
6.72
0.77
-9.16
3.16
1.39
2.85
-0.67
-1.01
0.48

>  <PUBCHEM_SHAPE_SELFOVERLAP>  (1) 
943.671

>  <PUBCHEM_SHAPE_VOLUME>  (1) 
307.6

>  <PUBCHEM_COORDINATE_TYPE>  (1) 
2
5
10

$$$$
