15259
     RDKit          3D

 12 11  0  0  1  0  0  0  0  0999 V2000
   -0.8981    2.0253    1.2112 O   0  0  0  0  0  0  0  0  0  0  0  0
    3.6158   -1.0277   -1.2939 O   0  0  0  0  0  0  0  0  0  0  0  0
   -1.6024    0.6909   -0.6904 C   0  0  0  0  0  0  0  0  0  0  0  0
   -0.4348    1.4241    0.0022 C   0  0  0  0  0  0  0  0  0  0  0  0
   -2.2269   -0.4312    0.1536 C   0  0  0  0  0  0  0  0  0  0  0  0
   -3.3612   -1.1242   -0.6035 C   0  0  0  0  0  0  0  0  0  0  0  0
    0.0958    2.5409   -0.9026 C   0  0  0  0  0  0  0  0  0  0  0  0
   -3.9619   -2.2595    0.2103 C   0  0  0  0  0  0  0  0  0  0  0  0
    0.6624    0.4946    0.3268 C   0  0  0  0  0  0  0  0  0  0  0  0
    1.5580   -0.2621    0.5884 C   0  0  0  0  0  0  0  0  0  0  0  0
    2.6526   -1.1910    0.9061 C   0  0  0  0  0  0  0  0  0  0  0  0
    3.9007   -0.8800    0.0917 C   0  0  0  0  0  0  0  0  0  0  0  0
  1  4  1  0
  2 12  1  0
  3  4  1  0
  3  5  1  0
  4  7  1  0
  4  9  1  0
  5  6  1  0
  6  8  1  0
  9 10  3  0
 10 11  1  0
 11 12  1  0
M  END
>  <PUBCHEM_COMPOUND_CID>  (1) 
15259

>  <PUBCHEM_CONFORMER_RMSD>  (1) 
0.6

>  <PUBCHEM_CONFORMER_DIVERSEORDER>  (1) 
1
29
18
16
26
20
14
23
21
25
3
22
27
11
5
2
19
8
28
4
6
24
17
12
15
13
9
10
7

>  <PUBCHEM_MMFF94_PARTIAL_CHARGES>  (1) 
9
1 -0.68
10 -0.2
11 0.2
12 0.28
2 -0.68
25 0.4
30 0.4
4 0.48
9 -0.2

>  <PUBCHEM_EFFECTIVE_ROTOR_COUNT>  (1) 
4

>  <PUBCHEM_PHARMACOPHORE_FEATURES>  (1) 
5
1 1 acceptor
1 1 donor
1 2 acceptor
1 2 donor
1 8 hydrophobe

>  <PUBCHEM_HEAVY_ATOM_COUNT>  (1) 
12

>  <PUBCHEM_ATOM_DEF_STEREO_COUNT>  (1) 
0

>  <PUBCHEM_ATOM_UDEF_STEREO_COUNT>  (1) 
1

>  <PUBCHEM_BOND_DEF_STEREO_COUNT>  (1) 
0

>  <PUBCHEM_BOND_UDEF_STEREO_COUNT>  (1) 
0

>  <PUBCHEM_ISOTOPIC_ATOM_COUNT>  (1) 
0

>  <PUBCHEM_COMPONENT_COUNT>  (1) 
1

>  <PUBCHEM_CACTVS_TAUTO_COUNT>  (1) 
1

>  <PUBCHEM_CONFORMER_ID>  (1) 
00003B9B00000001

>  <PUBCHEM_MMFF94_ENERGY>  (1) 
7.7031

>  <PUBCHEM_FEATURE_SELFOVERLAP>  (1) 
25.371

>  <PUBCHEM_SHAPE_FINGERPRINT>  (1) 
11127187 94 18260817164712549455
11543360 7 15791729736937358635
12841375 25 18334572477612627727
12932764 1 18045786676654298304
13533116 47 17907865355812337099
14128692 85 18334011709270698597
14251710 61 18412828018586026847
14252887 29 18201998884415736698
18186145 218 11458697245082667547
19766037 51 18187930624664485075
19782 4 9151181930481566887
20281407 28 18412257307410079762
20388580 30 18335984289113092903
20645477 70 17973992145184827727
20671657 53 18186797015127432653
20708731 107 18044654449954601893
20871998 22 18338227275606381313
20871999 31 18040707044318175935
21665056 4 17473822827454343647
23382010 3 15936408982925318835
23557571 272 18126836115512983632
449060 23 18341897367962936054
7364860 26 18051691337020101169

>  <PUBCHEM_SHAPE_MULTIPOLES>  (1) 
235.22
6.71
2.5
1.05
0.48
1.09
-0.05
-6.79
-1.03
-1.07
-0.07
0.4
0.14
-0.02

>  <PUBCHEM_SHAPE_SELFOVERLAP>  (1) 
435.843

>  <PUBCHEM_SHAPE_VOLUME>  (1) 
148.2

>  <PUBCHEM_COORDINATE_TYPE>  (1) 
2
5
10

$$$$
