15252
     RDKit          3D

 13 12  0  0  0  0  0  0  0  0999 V2000
    0.0761   -0.1253    0.4405 N   0  0  0  0  0  0  0  0  0  0  0  0
    1.0397    3.8806   -0.9421 N   0  0  0  0  0  0  0  0  0  0  0  0
    3.5847   -2.2672   -0.9694 N   0  0  0  0  0  0  0  0  0  0  0  0
   -1.3140    0.2660    0.6417 C   0  0  0  0  0  0  0  0  0  0  0  0
    0.9704    0.7283    1.2246 C   0  0  0  0  0  0  0  0  0  0  0  0
    0.2729   -1.5311    0.7985 C   0  0  0  0  0  0  0  0  0  0  0  0
   -2.2367   -0.5878   -0.2263 C   0  0  0  0  0  0  0  0  0  0  0  0
    0.8436    2.2024    0.8338 C   0  0  0  0  0  0  0  0  0  0  0  0
    1.7235   -1.9752    0.5988 C   0  0  0  0  0  0  0  0  0  0  0  0
   -3.7027   -0.2079   -0.0144 C   0  0  0  0  0  0  0  0  0  0  0  0
    1.1631    2.4586   -0.6402 C   0  0  0  0  0  0  0  0  0  0  0  0
    2.2043   -1.8122   -0.8443 C   0  0  0  0  0  0  0  0  0  0  0  0
   -4.6251   -1.0291   -0.9013 C   0  0  0  0  0  0  0  0  0  0  0  0
  1  4  1  0
  1  5  1  0
  1  6  1  0
  2 11  1  0
  3 12  1  0
  4  7  1  0
  5  8  1  0
  6  9  1  0
  7 10  1  0
  8 11  1  0
  9 12  1  0
 10 13  1  0
M  END
>  <PUBCHEM_COMPOUND_CID>  (1) 
15252

>  <PUBCHEM_CONFORMER_RMSD>  (1) 
0.8

>  <PUBCHEM_CONFORMER_DIVERSEORDER>  (1) 
1
56
26
131
61
114
48
122
73
3
42
117
109
33
77
118
22
95
108
63
18
130
120
121
84
107
2
72
123
57
19
7
75
125
101
99
27
54
55
64
25
106
97
15
69
74
127
76
128
28
41
110
88
30
133
34
111
102
17
96
104
40
87
43
83
80
67
116
126
70
50
112
119
62
103
47
113
92
105
132
45
5
78
71
66
38
81
35
115
90
98
46
89
4
32
82
9
12
14
86
60
129
53
10
65
124
79
100
68
8
58
49
93
94
31
29
85
36
13
16
52
24
23
59
91
44
6
39
11
37
21
20
51

>  <PUBCHEM_MMFF94_PARTIAL_CHARGES>  (1) 
12
1 -0.81
11 0.27
12 0.27
2 -0.99
3 -0.99
35 0.36
36 0.36
37 0.36
38 0.36
4 0.27
5 0.27
6 0.27

>  <PUBCHEM_EFFECTIVE_ROTOR_COUNT>  (1) 
9

>  <PUBCHEM_PHARMACOPHORE_FEATURES>  (1) 
6
1 1 cation
1 13 hydrophobe
1 2 cation
1 2 donor
1 3 cation
1 3 donor

>  <PUBCHEM_HEAVY_ATOM_COUNT>  (1) 
13

>  <PUBCHEM_ATOM_DEF_STEREO_COUNT>  (1) 
0

>  <PUBCHEM_ATOM_UDEF_STEREO_COUNT>  (1) 
0

>  <PUBCHEM_BOND_DEF_STEREO_COUNT>  (1) 
0

>  <PUBCHEM_BOND_UDEF_STEREO_COUNT>  (1) 
0

>  <PUBCHEM_ISOTOPIC_ATOM_COUNT>  (1) 
0

>  <PUBCHEM_COMPONENT_COUNT>  (1) 
1

>  <PUBCHEM_CACTVS_TAUTO_COUNT>  (1) 
1

>  <PUBCHEM_CONFORMER_ID>  (1) 
00003B9400000001

>  <PUBCHEM_MMFF94_ENERGY>  (1) 
1.974

>  <PUBCHEM_FEATURE_SELFOVERLAP>  (1) 
30.446

>  <PUBCHEM_SHAPE_FINGERPRINT>  (1) 
1 1 18196079169487915080
14004458 79 17977386027682146452
15502722 9 18266178512253367943
17041 50 18264757788780121085
17134986 127 17901382621377855573
20388580 30 18272933817099856247
20645477 70 18270664472919961751
20671657 1 18200592626513466691
20671657 53 18339070493867305795
20708731 107 18341328985065640027
20711985 344 17904482900570410674
20871999 31 18195810674197940975
21499 59 17902500825204151813
21524375 3 17684916295561037289
2255824 54 18409724088913506347
23402539 116 18196658389215855670
23419403 2 17557676124454302896
23557571 272 18197208145097906258
23595355 12 18266456696905432490
23598291 2 18272657818522627681
2748010 2 18195223560594819689
3060560 45 18192704768307772780
312423 11 18201444709897964179
3250762 1 17973461080361801850
4175511 376 18267038317239795846
57210444 14 17831880305442920972
58051976 378 18120077627832037079
58734987 36 18410012109014103122
7364860 26 18201431532141598195
81228 2 17907584627072356266
81539 233 18119799464106020877

>  <PUBCHEM_SHAPE_MULTIPOLES>  (1) 
252.59
5.75
3.67
1.17
8.11
3.21
0
-3.77
2.44
-4.44
1.28
-0.42
0.09
0.08

>  <PUBCHEM_SHAPE_SELFOVERLAP>  (1) 
454.843

>  <PUBCHEM_SHAPE_VOLUME>  (1) 
161.8

>  <PUBCHEM_COORDINATE_TYPE>  (1) 
2
5
10

$$$$
