15257
     RDKit          3D

  8  8  0  0  0  0  0  0  0  0999 V2000
   -1.2048    1.0363    0.0003 N   0  0  0  0  0  0  0  0  0  0  0  0
    1.2050    1.0363   -0.0004 N   0  0  0  0  0  0  0  0  0  0  0  0
   -1.1679   -0.3124    0.0006 C   0  0  0  0  0  0  0  0  0  0  0  0
    1.1679   -0.3124   -0.0002 C   0  0  0  0  0  0  0  0  0  0  0  0
   -0.0001   -1.0473    0.0006 C   0  0  0  0  0  0  0  0  0  0  0  0
   -2.4819   -1.0190   -0.0008 C   0  0  0  0  0  0  0  0  0  0  0  0
    2.4818   -1.0192   -0.0001 C   0  0  0  0  0  0  0  0  0  0  0  0
    0.0001    1.6377    0.0000 C   0  0  0  0  0  0  0  0  0  0  0  0
  1  3  2  0
  1  8  1  0
  2  4  1  0
  2  8  2  0
  3  5  1  0
  3  6  1  0
  4  5  2  0
  4  7  1  0
M  END
>  <PUBCHEM_COMPOUND_CID>  (1) 
15257

>  <PUBCHEM_CONFORMER_RMSD>  (1) 
0.4

>  <PUBCHEM_CONFORMER_DIVERSEORDER>  (1) 
1

>  <PUBCHEM_MMFF94_PARTIAL_CHARGES>  (1) 
10
1 -0.62
16 0.15
2 -0.62
3 0.17
4 0.17
5 -0.15
6 0.14
7 0.14
8 0.47
9 0.15

>  <PUBCHEM_EFFECTIVE_ROTOR_COUNT>  (1) 
0

>  <PUBCHEM_PHARMACOPHORE_FEATURES>  (1) 
3
1 1 acceptor
3 1 2 8 cation
6 1 2 3 4 5 8 rings

>  <PUBCHEM_HEAVY_ATOM_COUNT>  (1) 
8

>  <PUBCHEM_ATOM_DEF_STEREO_COUNT>  (1) 
0

>  <PUBCHEM_ATOM_UDEF_STEREO_COUNT>  (1) 
0

>  <PUBCHEM_BOND_DEF_STEREO_COUNT>  (1) 
0

>  <PUBCHEM_BOND_UDEF_STEREO_COUNT>  (1) 
0

>  <PUBCHEM_ISOTOPIC_ATOM_COUNT>  (1) 
0

>  <PUBCHEM_COMPONENT_COUNT>  (1) 
1

>  <PUBCHEM_CACTVS_TAUTO_COUNT>  (1) 
1

>  <PUBCHEM_CONFORMER_ID>  (1) 
00003B9900000001

>  <PUBCHEM_MMFF94_ENERGY>  (1) 
16.7608

>  <PUBCHEM_FEATURE_SELFOVERLAP>  (1) 
15.223

>  <PUBCHEM_SHAPE_FINGERPRINT>  (1) 
10857977 72 18340190934764947538
16714656 1 18194969530516996606
18185500 45 18336265639293126162
21040471 1 17113537576005466913
23552423 10 18116159861548870094
241688 4 18409166580203348008
29004967 10 18263646336705483731

>  <PUBCHEM_SHAPE_MULTIPOLES>  (1) 
154.67
2.89
1.61
0.6
0
0.5
0
-1.35
0
0
0
0
-0.02
0

>  <PUBCHEM_SHAPE_SELFOVERLAP>  (1) 
314.411

>  <PUBCHEM_SHAPE_VOLUME>  (1) 
88.9

>  <PUBCHEM_COORDINATE_TYPE>  (1) 
2
5
10

$$$$
