15266
     RDKit          3D

 17 16  0  0  0  0  0  0  0  0999 V2000
    1.4455    0.4782    0.1316 C   0  0  0  0  0  0  0  0  0  0  0  0
    0.1486   -0.2746   -0.1808 C   0  0  0  0  0  0  0  0  0  0  0  0
    2.7068   -0.2938   -0.2671 C   0  0  0  0  0  0  0  0  0  0  0  0
   -1.1464    0.4561    0.1890 C   0  0  0  0  0  0  0  0  0  0  0  0
    3.9682    0.5176    0.0420 C   0  0  0  0  0  0  0  0  0  0  0  0
   -2.4028   -0.3732   -0.0870 C   0  0  0  0  0  0  0  0  0  0  0  0
    5.2709   -0.2304   -0.2606 C   0  0  0  0  0  0  0  0  0  0  0  0
   -3.7038    0.3830    0.2016 C   0  0  0  0  0  0  0  0  0  0  0  0
    6.5330    0.5921    0.0165 C   0  0  0  0  0  0  0  0  0  0  0  0
   -4.9967   -0.3635   -0.1402 C   0  0  0  0  0  0  0  0  0  0  0  0
    7.8356   -0.1792   -0.2768 C   0  0  0  0  0  0  0  0  0  0  0  0
   -6.2622    0.4185    0.2198 C   0  0  0  0  0  0  0  0  0  0  0  0
   -7.5221   -0.3693   -0.1481 C   0  0  0  0  0  0  0  0  0  0  0  0
    7.9687   -1.4479    0.5672 C   0  0  0  0  0  0  0  0  0  0  0  0
    9.0455    0.7263   -0.0340 C   0  0  0  0  0  0  0  0  0  0  0  0
   -8.8175    0.3831    0.1634 C   0  0  0  0  0  0  0  0  0  0  0  0
  -10.0712   -0.4228   -0.1363 C   0  0  0  0  0  0  0  0  0  0  0  0
  1  2  1  0
  1  3  1  0
  2  4  1  0
  3  5  1  0
  4  6  1  0
  5  7  1  0
  6  8  1  0
  7  9  1  0
  8 10  1  0
  9 11  1  0
 10 12  1  0
 11 14  1  0
 11 15  1  0
 12 13  1  0
 13 16  1  0
 16 17  1  0
M  END
>  <PUBCHEM_COMPOUND_CID>  (1) 
15266

>  <PUBCHEM_CONFORMER_RMSD>  (1) 
1.4

>  <PUBCHEM_CONFORMER_DIVERSEORDER>  (1) 
1
35
24
19
9
45
20
7
25
42
2
4
17
12
32
26
27
13
5
22
34
40
18
6
16
10
37
8
33
3
36
30
31
41
11
23
44
29
15
14
38
39
28
21
43

>  <PUBCHEM_MMFF94_PARTIAL_CHARGES>  (1) 
0

>  <PUBCHEM_EFFECTIVE_ROTOR_COUNT>  (1) 
13

>  <PUBCHEM_PHARMACOPHORE_FEATURES>  (1) 
2
1 17 hydrophobe
3 11 14 15 hydrophobe

>  <PUBCHEM_HEAVY_ATOM_COUNT>  (1) 
17

>  <PUBCHEM_ATOM_DEF_STEREO_COUNT>  (1) 
0

>  <PUBCHEM_ATOM_UDEF_STEREO_COUNT>  (1) 
0

>  <PUBCHEM_BOND_DEF_STEREO_COUNT>  (1) 
0

>  <PUBCHEM_BOND_UDEF_STEREO_COUNT>  (1) 
0

>  <PUBCHEM_ISOTOPIC_ATOM_COUNT>  (1) 
0

>  <PUBCHEM_COMPONENT_COUNT>  (1) 
1

>  <PUBCHEM_CACTVS_TAUTO_COUNT>  (1) 
1

>  <PUBCHEM_CONFORMER_ID>  (1) 
00003BA200000001

>  <PUBCHEM_MMFF94_ENERGY>  (1) 
0.1716

>  <PUBCHEM_FEATURE_SELFOVERLAP>  (1) 
10.149

>  <PUBCHEM_SHAPE_FINGERPRINT>  (1) 
11638347 137 18408323259655018674
14123256 10 18410856559645064333
14251764 18 18131352990435535506
14251764 46 18410856563934763374
15510794 2 17967537878743462371
16120349 18 18409729599704843156
20621476 8 18040433287460934551
21095086 128 18113898265009507403
21362267 20 18335984255319221643
21362267 313 17702952409224578010
232437 2 18412826893768526647
23521765 1 18341895194867525477
23581129 1 18409449189051210093
246663 6 16443066097230997901
28498 318 18113335297717811894
33684 2 18410855460128161795
5283156 175 18335421257818880942
67123 10 18341895203525999381
8209 1 18410856563934763373

>  <PUBCHEM_SHAPE_MULTIPOLES>  (1) 
349.85
37.27
0.91
0.66
19.49
0.13
0.01
2.39
0.4
-1.11
0.07
-0.15
0.03
-0.5

>  <PUBCHEM_SHAPE_SELFOVERLAP>  (1) 
623.496

>  <PUBCHEM_SHAPE_VOLUME>  (1) 
228.5

>  <PUBCHEM_COORDINATE_TYPE>  (1) 
2
5
10

$$$$
