15267
     RDKit          3D

 16 15  0  0  0  0  0  0  0  0999 V2000
    0.8454    0.5891   -0.0279 C   0  0  0  0  0  0  0  0  0  0  0  0
    2.1523   -0.2034    0.0466 C   0  0  0  0  0  0  0  0  0  0  0  0
   -0.4054   -0.2928    0.0265 C   0  0  0  0  0  0  0  0  0  0  0  0
    3.3676    0.7228   -0.0433 C   0  0  0  0  0  0  0  0  0  0  0  0
   -1.7121    0.5035    0.0264 C   0  0  0  0  0  0  0  0  0  0  0  0
    4.6760   -0.0705   -0.0017 C   0  0  0  0  0  0  0  0  0  0  0  0
   -2.9280   -0.4269    0.0688 C   0  0  0  0  0  0  0  0  0  0  0  0
    5.8910    0.8607   -0.0542 C   0  0  0  0  0  0  0  0  0  0  0  0
   -4.2350    0.3688    0.0361 C   0  0  0  0  0  0  0  0  0  0  0  0
    7.2376    0.1135   -0.0418 C   0  0  0  0  0  0  0  0  0  0  0  0
   -5.4881   -0.5105    0.1067 C   0  0  0  0  0  0  0  0  0  0  0  0
   -6.7931    0.2826   -0.0038 C   0  0  0  0  0  0  0  0  0  0  0  0
    7.3150   -0.8359   -1.2402 C   0  0  0  0  0  0  0  0  0  0  0  0
    7.4596   -0.6707    1.2523 C   0  0  0  0  0  0  0  0  0  0  0  0
   -8.0416   -0.6037   -0.0050 C   0  0  0  0  0  0  0  0  0  0  0  0
   -9.3413    0.1735   -0.1455 C   0  0  0  0  0  0  0  0  0  0  0  0
  1  2  1  0
  1  3  1  0
  2  4  1  0
  3  5  1  0
  4  6  1  0
  5  7  1  0
  6  8  1  0
  7  9  1  0
  8 10  1  0
  9 11  1  0
 10 13  1  0
 10 14  1  0
 11 12  1  0
 12 15  1  0
 15 16  1  0
M  END
>  <PUBCHEM_COMPOUND_CID>  (1) 
15267

>  <PUBCHEM_CONFORMER_RMSD>  (1) 
1

>  <PUBCHEM_CONFORMER_DIVERSEORDER>  (1) 
1
270
153
47
46
105
226
275
134
8
6
263
185
179
50
108
184
113
74
3
229
37
144
18
268
29
189
5
259
70
21
87
27
131
215
118
52
254
95
10
230
26
56
76
231
149
2
111
4
67
199
9
252
194
39
71
107
119
117
210
248
214
222
102
88
63
265
133
164
106
36
191
146
60
81
213
25
89
32
79
167
233
66
82
35
20
142
178
183
195
200
15
158
110
255
151
112
239
16
188
209
23
161
44
274
258
64
256
116
61
12
204
59
266
170
54
7
86
30
165
77
198
42
220
14
138
69
201
238
219
128
97
78
172
159
235
261
245
221
171
96
17
224
250
65
58
85
34
192
73
218
99
45
101
156
19
223
49
207
174
186
121
126
100
162
62
51
33
249
257
123
90
150
48
130
236
31
180
38
28
242
41
160
251
83
104
94
72
109
129
43
80
24
155
124
234
227
132
168
206
53
115
154
40
253
68
55
122
57
175
216
13
141
139
228
75
208
260
125
135
217
169
157
22
237
103
143
136
176
225
148
211
98
163
11
91
127
182
240
202
120
114
264
244
193
205
241
145
262
92
247
147
196
187
173
246
140
166
273
190
84
212
243
271
267
181
203
232
177
152
93
269
272
197
137

>  <PUBCHEM_MMFF94_PARTIAL_CHARGES>  (1) 
0

>  <PUBCHEM_EFFECTIVE_ROTOR_COUNT>  (1) 
12

>  <PUBCHEM_PHARMACOPHORE_FEATURES>  (1) 
2
1 16 hydrophobe
3 10 13 14 hydrophobe

>  <PUBCHEM_HEAVY_ATOM_COUNT>  (1) 
16

>  <PUBCHEM_ATOM_DEF_STEREO_COUNT>  (1) 
0

>  <PUBCHEM_ATOM_UDEF_STEREO_COUNT>  (1) 
0

>  <PUBCHEM_BOND_DEF_STEREO_COUNT>  (1) 
0

>  <PUBCHEM_BOND_UDEF_STEREO_COUNT>  (1) 
0

>  <PUBCHEM_ISOTOPIC_ATOM_COUNT>  (1) 
0

>  <PUBCHEM_COMPONENT_COUNT>  (1) 
1

>  <PUBCHEM_CACTVS_TAUTO_COUNT>  (1) 
1

>  <PUBCHEM_CONFORMER_ID>  (1) 
00003BA300000001

>  <PUBCHEM_MMFF94_ENERGY>  (1) 
0.1188

>  <PUBCHEM_FEATURE_SELFOVERLAP>  (1) 
10.149

>  <PUBCHEM_SHAPE_FINGERPRINT>  (1) 
11315181 36 18343869940164773433
11638347 137 15698006215250962158
12091667 2 17894349987010149297
13885169 127 18201722830262662497
14123256 10 18343019991294749161
14251764 18 18040997323814345393
14251764 46 18343301470476756344
14428016 248 15285363903624732957
155225 1 11097866199098873550
16120349 18 13254788053840499554
17834076 25 18410575093268928728
18006028 8 18202563986406340025
20621476 8 17894909629327049903
21150785 3 15285357323202084733
21315763 28 18260547835903669925
22224240 67 15626503899605856477
23035841 295 18410573998041640778
232437 2 18040154029188716507
23521765 1 18341895199447329353
246663 6 18410577287986576519
28498 318 18272371957740710205
33532 11 18131352982041280294
33684 2 18410573985151451147
4325135 7 18408041814658241495
5283156 175 18410856551055136224
59682541 35 9583514326723994549
59755656 520 17821723974750778115
67123 10 11815894566023612233
8209 1 18334013899978124701

>  <PUBCHEM_SHAPE_MULTIPOLES>  (1) 
329.27
31.4
0.88
0.81
23.69
0
0
-3.87
0.61
-0.52
0.02
-1.42
-0.15
0.09

>  <PUBCHEM_SHAPE_SELFOVERLAP>  (1) 
587.768

>  <PUBCHEM_SHAPE_VOLUME>  (1) 
215.1

>  <PUBCHEM_COORDINATE_TYPE>  (1) 
2
5
10

$$$$
