1526
     RDKit          3D

 33 34  0  0  1  0  0  0  0  0999 V2000
    5.3324    1.4616    0.8143 S   0  0  0  0  0  0  0  0  0  0  0  0
   -3.4509    2.5508    2.0969 F   0  0  0  0  0  0  0  0  0  0  0  0
   -3.7495    0.4512    2.5947 F   0  0  0  0  0  0  0  0  0  0  0  0
   -5.3516    1.5866    1.6463 F   0  0  0  0  0  0  0  0  0  0  0  0
   -3.8646   -0.0445   -0.2355 O   0  0  0  0  0  0  0  0  0  0  0  0
    0.3565    1.5655    0.2763 O   0  0  0  0  0  0  0  0  0  0  0  0
    3.1891    1.0447   -1.4639 O   0  0  0  0  0  0  0  0  0  0  0  0
    4.0098    2.0514    0.8963 O   0  0  0  0  0  0  0  0  0  0  0  0
    6.2069    1.4172    1.9701 O   0  0  0  0  0  0  0  0  0  0  0  0
   -1.5050    1.0892   -1.0324 N   0  0  0  0  0  0  0  0  0  0  0  0
    1.6679   -0.6120   -0.7885 N   0  0  0  0  0  0  0  0  0  0  0  0
    2.4153   -2.3456    0.6862 N   0  0  0  0  0  0  0  0  0  0  0  0
    5.2257   -0.0958    0.1268 N   0  0  0  0  0  0  0  0  0  0  0  0
   -3.5671   -4.3616   -0.2111 N   0  0  0  0  0  0  0  0  0  0  0  0
   -3.0989    2.9982   -1.2229 C   0  0  0  0  0  0  0  0  0  0  0  0
   -2.4532    1.9186   -0.3341 C   0  0  0  0  0  0  0  0  0  0  0  0
   -3.9569    2.3606   -2.3203 C   0  0  0  0  0  0  0  0  0  0  0  0
   -2.0840    3.9579   -1.8523 C   0  0  0  0  0  0  0  0  0  0  0  0
   -3.4871    0.9967    0.3028 C   0  0  0  0  0  0  0  0  0  0  0  0
    0.5729   -0.0045   -1.5471 C   0  0  0  0  0  0  0  0  0  0  0  0
   -0.1681    0.9798   -0.6674 C   0  0  0  0  0  0  0  0  0  0  0  0
    1.4911   -1.7937   -0.0439 C   0  0  0  0  0  0  0  0  0  0  0  0
   -4.0090    1.3951    1.6554 C   0  0  0  0  0  0  0  0  0  0  0  0
    2.9117    0.0358   -0.8213 C   0  0  0  0  0  0  0  0  0  0  0  0
    3.9275   -0.6215    0.0207 C   0  0  0  0  0  0  0  0  0  0  0  0
    0.1765   -2.4615   -0.0868 C   0  0  0  0  0  0  0  0  0  0  0  0
    3.6357   -1.7273    0.7051 C   0  0  0  0  0  0  0  0  0  0  0  0
   -0.8071   -2.1260    0.8435 C   0  0  0  0  0  0  0  0  0  0  0  0
   -0.0831   -3.4284   -1.0582 C   0  0  0  0  0  0  0  0  0  0  0  0
   -2.0503   -2.7572    0.8026 C   0  0  0  0  0  0  0  0  0  0  0  0
   -1.3262   -4.0597   -1.0991 C   0  0  0  0  0  0  0  0  0  0  0  0
   -2.3097   -3.7241   -0.1688 C   0  0  0  0  0  0  0  0  0  0  0  0
    6.2035    2.3024   -0.4846 C   0  0  0  0  0  0  0  0  0  0  0  0
  1  8  2  0
  1  9  2  0
  1 13  1  0
  1 33  1  0
  2 23  1  0
  3 23  1  0
  4 23  1  0
  5 19  2  0
  6 21  2  0
  7 24  2  0
 10 16  1  0
 10 21  1  0
 11 20  1  0
 11 22  1  0
 11 24  1  0
 12 22  2  0
 12 27  1  0
 13 25  1  0
 14 32  1  0
 15 16  1  0
 15 17  1  0
 15 18  1  0
 16 19  1  0
 19 23  1  0
 20 21  1  0
 22 26  1  0
 24 25  1  0
 25 27  2  0
 26 28  2  0
 26 29  1  0
 28 30  1  0
 29 31  2  0
 30 32  2  0
 31 32  1  0
M  END
>  <PUBCHEM_COMPOUND_CID>  (1) 
1526

>  <PUBCHEM_CONFORMER_RMSD>  (1) 
1

>  <PUBCHEM_CONFORMER_DIVERSEORDER>  (1) 
2
45
64
153
212
16
47
22
180
23
168
225
138
154
230
172
218
78
49
163
161
109
107
252
66
248
34
103
158
65
118
120
228
189
73
122
124
43
217
96
31
185
26
72
56
235
160
246
194
250
234
19
130
100
171
178
93
128
141
209
173
175
8
101
112
243
208
21
60
205
145
192
38
198
69
169
36
190
90
245
159
87
132
247
156
137
54
108
42
41
4
210
40
135
214
142
149
197
136
32
129
187
25
241
238
77
28
213
104
86
184
48
216
79
126
63
199
207
139
105
24
219
80
53
222
20
18
98
114
166
233
229
95
17
85
186
71
220
91
111
29
211
81
7
200
67
221
50
94
74
102
57
193
75
152
13
244
146
182
188
82
226
223
97
5
15
12
181
143
121
125
174
115
117
88
206
127
251
106
231
179
11
237
191
202
83
44
76
116
215
134
58
1
167
203
148
131
164
165
39
59
204
6
92
236
249
162
151
123
144
37
70
9
239
201
147
99
68
183
176
89
113
84
140
33
150
119
224
177
155
3
14
110
196
170
227
35
27
52
46
195
10
240
62
55
242
51
61
133
232
157
30

>  <PUBCHEM_MMFF94_PARTIAL_CHARGES>  (1) 
39
1 1.33
10 -0.73
11 -0.42
12 -0.62
13 -0.75
14 -0.9
16 0.36
19 0.45
2 -0.34
20 0.36
21 0.57
22 0.42
23 1.08
24 0.62
25 0.21
26 0.09
27 0.02
28 -0.15
29 -0.15
3 -0.34
30 -0.15
31 -0.15
32 0.1
33 0.11
36 0.37
4 -0.34
45 0.15
46 0.42
47 0.15
48 0.15
49 0.15
5 -0.57
50 0.15
54 0.4
55 0.4
6 -0.57
7 -0.57
8 -0.65
9 -0.65

>  <PUBCHEM_EFFECTIVE_ROTOR_COUNT>  (1) 
10

>  <PUBCHEM_PHARMACOPHORE_FEATURES>  (1) 
12
1 10 donor
1 13 donor
1 14 cation
1 14 donor
1 5 acceptor
1 6 acceptor
1 7 acceptor
1 8 acceptor
1 9 acceptor
3 15 17 18 hydrophobe
6 11 12 22 24 25 27 rings
6 26 28 29 30 31 32 rings

>  <PUBCHEM_HEAVY_ATOM_COUNT>  (1) 
33

>  <PUBCHEM_ATOM_DEF_STEREO_COUNT>  (1) 
0

>  <PUBCHEM_ATOM_UDEF_STEREO_COUNT>  (1) 
1

>  <PUBCHEM_BOND_DEF_STEREO_COUNT>  (1) 
0

>  <PUBCHEM_BOND_UDEF_STEREO_COUNT>  (1) 
0

>  <PUBCHEM_ISOTOPIC_ATOM_COUNT>  (1) 
0

>  <PUBCHEM_COMPONENT_COUNT>  (1) 
1

>  <PUBCHEM_CACTVS_TAUTO_COUNT>  (1) 
12

>  <PUBCHEM_CONFORMER_ID>  (1) 
000005F600000002

>  <PUBCHEM_MMFF94_ENERGY>  (1) 
95.1805

>  <PUBCHEM_FEATURE_SELFOVERLAP>  (1) 
60.921

>  <PUBCHEM_SHAPE_FINGERPRINT>  (1) 
10675989 125 17253131048509492301
11115154 58 17483369187662464423
11370993 70 18045494219029376613
11578080 2 18130788992848100954
12156800 1 17830971975942071523
12390115 104 18339650057218003396
12422481 6 18114474382910619890
12788726 201 17899705853866776572
131258 38 14857846500506577211
14028597 1 17314768875587462810
14068700 675 17837491117643091831
17138139 8 17768485575058488823
1979834 28 17904237791920416153
21033648 144 18412821378792927630
21033648 29 18264759983435407100
23569914 2 16843287256559295928
25019877 29 17273156780741761511
376196 1 17608919894558811701
469060 322 18045796825303673851
50009960 94 16809293775911860179
59025328 239 11748372547233072107
59755656 520 18342748403454138356
6004065 56 18334864939918048017
6287921 2 17909286688938259599
633830 44 17702668718055285460
653340 110 18339918346207577290
9709674 26 17468479214482330325
9862522 239 18260548892344097607
9981440 41 18044644313995983013

>  <PUBCHEM_SHAPE_MULTIPOLES>  (1) 
606.9
11.39
5.51
1.84
13.37
3.54
-0.53
-9.17
-4.35
-5.61
1.75
-1.79
-1.32
0.42

>  <PUBCHEM_SHAPE_SELFOVERLAP>  (1) 
1265.828

>  <PUBCHEM_SHAPE_VOLUME>  (1) 
347.2

>  <PUBCHEM_COORDINATE_TYPE>  (1) 
2
5
10

$$$$
