15261
     RDKit          3D

 11 10  0  0  1  0  0  0  0  0999 V2000
   -1.0413   -1.3592    1.3495 O   0  0  0  0  0  0  0  0  0  0  0  0
    3.8008   -0.4776    0.4880 O   0  0  0  0  0  0  0  0  0  0  0  0
   -0.9983   -0.9926   -0.0294 C   0  0  0  0  0  0  0  0  0  0  0  0
   -2.2465   -0.1559   -0.3796 C   0  0  0  0  0  0  0  0  0  0  0  0
   -2.3758    1.1435    0.4281 C   0  0  0  0  0  0  0  0  0  0  0  0
   -0.9794   -2.2817   -0.8569 C   0  0  0  0  0  0  0  0  0  0  0  0
   -3.6357    1.9072    0.0476 C   0  0  0  0  0  0  0  0  0  0  0  0
    0.2400   -0.2324   -0.2782 C   0  0  0  0  0  0  0  0  0  0  0  0
    2.4861    1.1501   -0.7027 C   0  0  0  0  0  0  0  0  0  0  0  0
    1.2498    0.3880   -0.4735 C   0  0  0  0  0  0  0  0  0  0  0  0
    3.5003    0.9104    0.4071 C   0  0  0  0  0  0  0  0  0  0  0  0
  1  3  1  0
  2 11  1  0
  3  4  1  0
  3  6  1  0
  3  8  1  0
  4  5  1  0
  5  7  1  0
  8 10  3  0
  9 10  1  0
  9 11  1  0
M  END
>  <PUBCHEM_COMPOUND_CID>  (1) 
15261

>  <PUBCHEM_CONFORMER_RMSD>  (1) 
0.6

>  <PUBCHEM_CONFORMER_DIVERSEORDER>  (1) 
1
14
18
17
10
7
16
12
5
11
19
9
6
15
2
3
8
13
4

>  <PUBCHEM_MMFF94_PARTIAL_CHARGES>  (1) 
9
1 -0.68
10 -0.2
11 0.28
2 -0.68
22 0.4
27 0.4
3 0.48
8 -0.2
9 0.2

>  <PUBCHEM_EFFECTIVE_ROTOR_COUNT>  (1) 
3

>  <PUBCHEM_PHARMACOPHORE_FEATURES>  (1) 
5
1 1 acceptor
1 1 donor
1 2 acceptor
1 2 donor
1 7 hydrophobe

>  <PUBCHEM_HEAVY_ATOM_COUNT>  (1) 
11

>  <PUBCHEM_ATOM_DEF_STEREO_COUNT>  (1) 
0

>  <PUBCHEM_ATOM_UDEF_STEREO_COUNT>  (1) 
1

>  <PUBCHEM_BOND_DEF_STEREO_COUNT>  (1) 
0

>  <PUBCHEM_BOND_UDEF_STEREO_COUNT>  (1) 
0

>  <PUBCHEM_ISOTOPIC_ATOM_COUNT>  (1) 
0

>  <PUBCHEM_COMPONENT_COUNT>  (1) 
1

>  <PUBCHEM_CACTVS_TAUTO_COUNT>  (1) 
1

>  <PUBCHEM_CONFORMER_ID>  (1) 
00003B9D00000001

>  <PUBCHEM_MMFF94_ENERGY>  (1) 
7.8147

>  <PUBCHEM_FEATURE_SELFOVERLAP>  (1) 
25.371

>  <PUBCHEM_SHAPE_FINGERPRINT>  (1) 
122479 349 18408327687365348201
124424 183 17489868233220736624
12500047 106 18201433705801212142
12932764 1 18055927721315358228
13380535 76 18411420570808959207
14897335 6 18342173328433461605
15775835 57 18409166571893202361
15852999 172 17489593350575792126
170605 34 18265339404730157725
18186145 218 17845388664609229501
18511873 20 18335135371810712464
20524608 308 18271807968394965622
20645477 56 18201162151687531672
20653085 51 18342470213679009639
207724 885 17676487276123909508
20871999 31 11527946717105244425
21028194 46 18337682935904600037
21524375 3 18336827503094620725
23402539 116 18200863084967693959
23500284 214 18271536341978822233
305870 269 18338234839064921023
3248919 1 17678168507112850460
449060 23 8286193955335362449
59915604 170 15051723201138350154

>  <PUBCHEM_SHAPE_MULTIPOLES>  (1) 
214.64
6.06
2.04
0.93
3.49
0.56
-0.12
-3.65
-0.67
-1.59
0.2
0.03
0.21
-0.26

>  <PUBCHEM_SHAPE_SELFOVERLAP>  (1) 
398.067

>  <PUBCHEM_SHAPE_VOLUME>  (1) 
133.6

>  <PUBCHEM_COORDINATE_TYPE>  (1) 
2
5
10

$$$$
