1527
     RDKit          3D

 14 14  0  0  1  0  0  0  0  0999 V2000
    0.7839    1.1229    1.6152 O   0  0  0  0  0  0  0  0  0  0  0  0
    2.4530    2.0814   -0.3796 O   0  0  0  0  0  0  0  0  0  0  0  0
    3.8517   -0.3570   -1.0313 O   0  0  0  0  0  0  0  0  0  0  0  0
   -3.4746   -1.0593   -0.9811 O   0  0  0  0  0  0  0  0  0  0  0  0
    0.7923   -1.6429    0.6394 N   0  0  0  0  0  0  0  0  0  0  0  0
   -2.3775    0.2812    0.5771 N   0  0  0  0  0  0  0  0  0  0  0  0
   -0.1373   -0.5976    0.1783 C   0  0  0  0  0  0  0  0  0  0  0  0
    0.5153    0.7949    0.2499 C   0  0  0  0  0  0  0  0  0  0  0  0
    1.8150    0.8200   -0.5598 C   0  0  0  0  0  0  0  0  0  0  0  0
    2.7507   -0.3095   -0.1255 C   0  0  0  0  0  0  0  0  0  0  0  0
    2.0210   -1.6541   -0.1544 C   0  0  0  0  0  0  0  0  0  0  0  0
   -1.4101   -0.6737    1.0230 C   0  0  0  0  0  0  0  0  0  0  0  0
   -3.3377    0.0110   -0.3943 C   0  0  0  0  0  0  0  0  0  0  0  0
   -4.2456    1.1825   -0.6569 C   0  0  0  0  0  0  0  0  0  0  0  0
  1  8  1  0
  2  9  1  0
  3 10  1  0
  4 13  2  0
  5  7  1  0
  5 11  1  0
  6 12  1  0
  6 13  1  0
  7  8  1  0
  7 12  1  0
  8  9  1  0
  9 10  1  0
 10 11  1  0
 13 14  1  0
M  END
>  <PUBCHEM_COMPOUND_CID>  (1) 
1527

>  <PUBCHEM_CONFORMER_RMSD>  (1) 
0.6

>  <PUBCHEM_CONFORMER_DIVERSEORDER>  (1) 
1
83
157
89
158
145
25
155
146
133
140
27
105
156
43
162
74
152
85
33
150
151
4
144
69
138
35
106
102
88
123
54
81
120
104
160
110
98
153
126
130
75
59
79
137
52
135
78
103
101
17
159
32
147
119
77
61
67
31
161
42
149
11
15
115
6
148
116
58
56
128
82
39
71
97
66
99
8
94
95
30
62
14
136
109
80
49
5
141
100
20
23
36
28
143
21
129
113
53
48
50
122
10
92
16
45
44
29
73
108
47
96
142
72
118
125
86
139
114
132
7
134
131
24
37
26
40
91
65
2
84
63
34
127
68
107
111
64
46
117
87
154
57
55
124
60
41
22
38
76
18
93
51
121
9
3
13
70
90
112
12
19

>  <PUBCHEM_MMFF94_PARTIAL_CHARGES>  (1) 
19
1 -0.68
10 0.28
11 0.27
12 0.3
13 0.57
14 0.06
2 -0.68
21 0.36
24 0.4
25 0.4
26 0.37
27 0.4
3 -0.68
4 -0.57
5 -0.9
6 -0.73
7 0.27
8 0.28
9 0.28

>  <PUBCHEM_EFFECTIVE_ROTOR_COUNT>  (1) 
4.2

>  <PUBCHEM_PHARMACOPHORE_FEATURES>  (1) 
11
1 1 acceptor
1 1 donor
1 2 acceptor
1 2 donor
1 3 acceptor
1 3 donor
1 4 acceptor
1 5 cation
1 5 donor
1 6 donor
6 5 7 8 9 10 11 rings

>  <PUBCHEM_HEAVY_ATOM_COUNT>  (1) 
14

>  <PUBCHEM_ATOM_DEF_STEREO_COUNT>  (1) 
0

>  <PUBCHEM_ATOM_UDEF_STEREO_COUNT>  (1) 
4

>  <PUBCHEM_BOND_DEF_STEREO_COUNT>  (1) 
0

>  <PUBCHEM_BOND_UDEF_STEREO_COUNT>  (1) 
0

>  <PUBCHEM_ISOTOPIC_ATOM_COUNT>  (1) 
0

>  <PUBCHEM_COMPONENT_COUNT>  (1) 
1

>  <PUBCHEM_CACTVS_TAUTO_COUNT>  (1) 
2

>  <PUBCHEM_CONFORMER_ID>  (1) 
000005F700000001

>  <PUBCHEM_MMFF94_ENERGY>  (1) 
18.2417

>  <PUBCHEM_FEATURE_SELFOVERLAP>  (1) 
55.838

>  <PUBCHEM_SHAPE_FINGERPRINT>  (1) 
10608611 8 18187086191186389053
11401426 45 18412542094249661090
11471102 20 18262236625196210510
12138202 97 17241058689766104210
12654215 9 18334579036080520644
12932764 1 18059570334766383547
13571099 22 18340774741053242630
13705890 14 17560802164396767414
14252887 29 10087643714551203140
14911166 2 18336557049030365566
14993402 34 17775004565844400102
15279308 100 18114468949855942510
15775835 57 18411136922715862527
16945 1 18336841822399495738
18186145 218 18339091457196144816
20201158 50 18335426733549041290
20645476 183 18272926116513833679
20645477 70 18273498970292190935
21119208 17 18201718427604348295
21501925 9 10159691400579438397
231179 274 16370719327223992333
23402539 116 18113612370310735940
23402655 69 18337389340593496829
23557571 272 17168440341077750523
25 1 18041280976334304179
2748010 2 18049462610108190834
276578 36 14851605449232466489
528886 8 18186241736059526394
93112 12 18411416211527832709
9882013 296 8358248251054353557

>  <PUBCHEM_SHAPE_MULTIPOLES>  (1) 
254.67
6.65
1.65
1.06
4.82
0.17
-0.21
0.93
2.73
-0.73
0.02
0.07
0.06
0.07

>  <PUBCHEM_SHAPE_SELFOVERLAP>  (1) 
503.074

>  <PUBCHEM_SHAPE_VOLUME>  (1) 
150.1

>  <PUBCHEM_COORDINATE_TYPE>  (1) 
2
5
10

$$$$
