15273
     RDKit          3D

 13 12  0  0  0  0  0  0  0  0999 V2000
    5.6622    0.7498   -0.6854 Cl  0  0  0  0  0  0  0  0  0  0  0  0
    4.2080   -1.7591   -0.7404 Cl  0  0  0  0  0  0  0  0  0  0  0  0
    4.4508   -0.2923    1.7520 Cl  0  0  0  0  0  0  0  0  0  0  0  0
   -6.2348   -1.5042   -0.2515 Cl  0  0  0  0  0  0  0  0  0  0  0  0
   -0.9078   -0.0053    0.2391 C   0  0  0  0  0  0  0  0  0  0  0  0
    0.3722    0.6735   -0.2557 C   0  0  0  0  0  0  0  0  0  0  0  0
   -2.1851    0.7183   -0.1999 C   0  0  0  0  0  0  0  0  0  0  0  0
    1.6522   -0.0558    0.1731 C   0  0  0  0  0  0  0  0  0  0  0  0
   -3.4674    0.0268    0.2713 C   0  0  0  0  0  0  0  0  0  0  0  0
    2.9319    0.6102   -0.3585 C   0  0  0  0  0  0  0  0  0  0  0  0
   -4.7106    0.7775   -0.2179 C   0  0  0  0  0  0  0  0  0  0  0  0
    4.2456   -0.1153   -0.0164 C   0  0  0  0  0  0  0  0  0  0  0  0
   -6.0171    0.1759    0.2901 C   0  0  0  0  0  0  0  0  0  0  0  0
  1 12  1  0
  2 12  1  0
  3 12  1  0
  4 13  1  0
  5  6  1  0
  5  7  1  0
  6  8  1  0
  7  9  1  0
  8 10  1  0
  9 11  1  0
 10 12  1  0
 11 13  1  0
M  END
>  <PUBCHEM_COMPOUND_CID>  (1) 
15273

>  <PUBCHEM_CONFORMER_RMSD>  (1) 
0.8

>  <PUBCHEM_CONFORMER_DIVERSEORDER>  (1) 
1
95
88
61
8
52
31
10
110
43
78
107
64
14
42
44
18
56
98
101
68
73
40
79
125
39
17
104
86
3
114
91
99
115
47
7
113
49
23
5
124
82
97
53
58
26
9
87
22
12
108
32
13
33
29
35
11
67
116
51
37
2
76
69
19
72
25
62
77
120
102
90
74
27
112
111
81
93
83
119
60
36
70
15
16
94
28
54
117
41
21
63
66
122
34
105
38
123
103
84
24
118
45
20
71
6
4
65
89
106
30
96
109
46
121
55
92
59
80
48
57
85
75
100
50

>  <PUBCHEM_MMFF94_PARTIAL_CHARGES>  (1) 
6
1 -0.29
12 0.87
13 0.29
2 -0.29
3 -0.29
4 -0.29

>  <PUBCHEM_EFFECTIVE_ROTOR_COUNT>  (1) 
8

>  <PUBCHEM_PHARMACOPHORE_FEATURES>  (1) 
0

>  <PUBCHEM_HEAVY_ATOM_COUNT>  (1) 
13

>  <PUBCHEM_ATOM_DEF_STEREO_COUNT>  (1) 
0

>  <PUBCHEM_ATOM_UDEF_STEREO_COUNT>  (1) 
0

>  <PUBCHEM_BOND_DEF_STEREO_COUNT>  (1) 
0

>  <PUBCHEM_BOND_UDEF_STEREO_COUNT>  (1) 
0

>  <PUBCHEM_ISOTOPIC_ATOM_COUNT>  (1) 
0

>  <PUBCHEM_COMPONENT_COUNT>  (1) 
1

>  <PUBCHEM_CACTVS_TAUTO_COUNT>  (1) 
1

>  <PUBCHEM_CONFORMER_ID>  (1) 
00003BA900000001

>  <PUBCHEM_MMFF94_ENERGY>  (1) 
5.2293

>  <PUBCHEM_FEATURE_SELFOVERLAP>  (1) 
0

>  <PUBCHEM_SHAPE_FINGERPRINT>  (1) 
10912923 1 18113900433525081817
11287383 113 18202001053548008553
12091667 2 17822013112528840969
13533116 47 17417816089211867174
14123238 8 18259423022243485093
1420 363 17060342937466053829
14251718 22 18335422378541692061
14251732 16 18270962452738176105
17834072 33 18408604785901960757
17834076 25 18202566176839342548
20281389 69 16298663881292653197
20621476 30 18335423521552509043
20621476 8 11023842664477692409
20645477 70 18340772525272377694
21150785 3 17822013154903416895
220451 1 17632579353152768007
22896161 15 18338518646319532837
23402539 116 18113894958216940613
300161 21 15357696422276362808
42788 4 18113620079550464541
465052 167 17632301155447100990
49783359 22 18131631197459287055
522135 26 18060701663691171406
57483677 66 18342738507665125375

>  <PUBCHEM_SHAPE_MULTIPOLES>  (1) 
275.01
17.37
1.27
1.01
14.53
0.59
0.38
3.21
-0.38
0.01
-0.28
-1.45
0.1
-0.14

>  <PUBCHEM_SHAPE_SELFOVERLAP>  (1) 
465.777

>  <PUBCHEM_SHAPE_VOLUME>  (1) 
182.6

>  <PUBCHEM_COORDINATE_TYPE>  (1) 
2
5
10

$$$$
