15278
     RDKit          3D

 12 13  0  0  0  0  0  0  0  0999 V2000
    0.9453    1.0436    0.1392 O   0  0  0  0  0  0  0  0  0  0  0  0
   -1.5988    2.3508    0.0209 O   0  0  0  0  0  0  0  0  0  0  0  0
    1.9625    0.0124   -0.0178 C   0  0  0  0  0  0  0  0  0  0  0  0
    1.3044   -1.3720    0.1885 C   0  0  0  0  0  0  0  0  0  0  0  0
   -0.1233   -0.9996    0.0696 C   0  0  0  0  0  0  0  0  0  0  0  0
   -0.2506    0.3790    0.0704 C   0  0  0  0  0  0  0  0  0  0  0  0
    2.5534    0.1524   -1.4265 C   0  0  0  0  0  0  0  0  0  0  0  0
    3.0466    0.2708    1.0296 C   0  0  0  0  0  0  0  0  0  0  0  0
   -1.2393   -1.8150    0.0128 C   0  0  0  0  0  0  0  0  0  0  0  0
   -1.4842    0.9991    0.0155 C   0  0  0  0  0  0  0  0  0  0  0  0
   -2.4971   -1.2103   -0.0522 C   0  0  0  0  0  0  0  0  0  0  0  0
   -2.6188    0.1887   -0.0501 C   0  0  0  0  0  0  0  0  0  0  0  0
  1  3  1  0
  1  6  1  0
  2 10  1  0
  3  4  1  0
  3  7  1  0
  3  8  1  0
  4  5  1  0
  5  6  2  0
  5  9  1  0
  6 10  1  0
  9 11  2  0
 10 12  2  0
 11 12  1  0
M  END
>  <PUBCHEM_COMPOUND_CID>  (1) 
15278

>  <PUBCHEM_CONFORMER_RMSD>  (1) 
0.4

>  <PUBCHEM_CONFORMER_DIVERSEORDER>  (1) 
1

>  <PUBCHEM_MMFF94_PARTIAL_CHARGES>  (1) 
14
1 -0.36
10 0.08
11 -0.15
12 -0.15
2 -0.53
21 0.15
22 0.15
23 0.15
24 0.45
3 0.28
4 0.14
5 -0.14
6 0.08
9 -0.15

>  <PUBCHEM_EFFECTIVE_ROTOR_COUNT>  (1) 
0.6

>  <PUBCHEM_PHARMACOPHORE_FEATURES>  (1) 
5
1 1 acceptor
1 2 donor
3 3 7 8 hydrophobe
5 1 3 4 5 6 rings
6 5 6 9 10 11 12 rings

>  <PUBCHEM_HEAVY_ATOM_COUNT>  (1) 
12

>  <PUBCHEM_ATOM_DEF_STEREO_COUNT>  (1) 
0

>  <PUBCHEM_ATOM_UDEF_STEREO_COUNT>  (1) 
0

>  <PUBCHEM_BOND_DEF_STEREO_COUNT>  (1) 
0

>  <PUBCHEM_BOND_UDEF_STEREO_COUNT>  (1) 
0

>  <PUBCHEM_ISOTOPIC_ATOM_COUNT>  (1) 
0

>  <PUBCHEM_COMPONENT_COUNT>  (1) 
1

>  <PUBCHEM_CACTVS_TAUTO_COUNT>  (1) 
9

>  <PUBCHEM_CONFORMER_ID>  (1) 
00003BAE00000001

>  <PUBCHEM_MMFF94_ENERGY>  (1) 
35.6788

>  <PUBCHEM_FEATURE_SELFOVERLAP>  (1) 
25.471

>  <PUBCHEM_SHAPE_FINGERPRINT>  (1) 
10857977 72 18269264823838106891
11206711 2 18410293614250439317
12423570 1 8691655515391678484
12524768 44 18055357091512051303
12716758 59 18270125608393634142
12897270 3 18411421734465515087
12932764 1 18131637772336811790
15219456 202 17846780719845383302
15775835 57 18337961094807790681
16945 1 18410295830290098259
193761 8 18050566236251508187
20645464 45 17989481931277443178
20871998 184 18201155563350261055
21040471 1 18266179439639100336
22802520 49 18058465226263653030
2334 1 17834113422016525275
23402539 116 18128234848405321055
23552423 10 18187650141598489826
23559900 14 18057331575006724606
2748010 2 18122065303951570935
369184 2 18272363183117412034
5084963 1 18201731655766087578
53812653 8 18261686933885927252
6333449 129 18343013406608802515
7364860 26 18199463256210375538
8030462 33 18407760322058803238
81228 2 18411986875147643593

>  <PUBCHEM_SHAPE_MULTIPOLES>  (1) 
235.22
4.17
1.79
0.88
1.05
0.3
-0.16
0.12
0.02
-1.08
0.06
0.74
0.02
-0.02

>  <PUBCHEM_SHAPE_SELFOVERLAP>  (1) 
507.746

>  <PUBCHEM_SHAPE_VOLUME>  (1) 
132.2

>  <PUBCHEM_COORDINATE_TYPE>  (1) 
2
5
10

$$$$
