15272
     RDKit          3D

  7  6  0  0  0  0  0  0  0  0999 V2000
    2.6301    1.0200    0.0003 Cl  0  0  0  0  0  0  0  0  0  0  0  0
    1.3844   -1.6411   -0.0003 Cl  0  0  0  0  0  0  0  0  0  0  0  0
   -2.2922    0.9873    0.0003 O   0  0  0  0  0  0  0  0  0  0  0  0
   -1.5557   -1.1669    0.0004 O   0  0  0  0  0  0  0  0  0  0  0  0
   -0.0098    0.6978   -0.0009 C   0  0  0  0  0  0  0  0  0  0  0  0
   -1.3324    0.0307   -0.0004 C   0  0  0  0  0  0  0  0  0  0  0  0
    1.1755    0.0722    0.0005 C   0  0  0  0  0  0  0  0  0  0  0  0
  1  7  1  0
  2  7  1  0
  3  6  1  0
  4  6  2  0
  5  6  1  0
  5  7  2  3
M  END
>  <PUBCHEM_COMPOUND_CID>  (1) 
15272

>  <PUBCHEM_CONFORMER_RMSD>  (1) 
0.4

>  <PUBCHEM_CONFORMER_DIVERSEORDER>  (1) 
1
2

>  <PUBCHEM_MMFF94_PARTIAL_CHARGES>  (1) 
9
1 -0.14
2 -0.14
3 -0.65
4 -0.57
5 -0.14
6 0.71
7 0.28
8 0.15
9 0.5

>  <PUBCHEM_EFFECTIVE_ROTOR_COUNT>  (1) 
1

>  <PUBCHEM_PHARMACOPHORE_FEATURES>  (1) 
3
1 3 acceptor
1 4 acceptor
3 3 4 6 anion

>  <PUBCHEM_HEAVY_ATOM_COUNT>  (1) 
7

>  <PUBCHEM_ATOM_DEF_STEREO_COUNT>  (1) 
0

>  <PUBCHEM_ATOM_UDEF_STEREO_COUNT>  (1) 
0

>  <PUBCHEM_BOND_DEF_STEREO_COUNT>  (1) 
0

>  <PUBCHEM_BOND_UDEF_STEREO_COUNT>  (1) 
0

>  <PUBCHEM_ISOTOPIC_ATOM_COUNT>  (1) 
0

>  <PUBCHEM_COMPONENT_COUNT>  (1) 
1

>  <PUBCHEM_CACTVS_TAUTO_COUNT>  (1) 
1

>  <PUBCHEM_CONFORMER_ID>  (1) 
00003BA800000001

>  <PUBCHEM_MMFF94_ENERGY>  (1) 
10.3815

>  <PUBCHEM_FEATURE_SELFOVERLAP>  (1) 
15.28

>  <PUBCHEM_SHAPE_FINGERPRINT>  (1) 
14325111 11 18338799026348848576
14390081 3 18271804648522506112
16714656 1 18122628515971824230
20096714 4 18410857633381639569
21040471 1 18338517564072144160
23552423 10 18334859385501642590
23552449 11 18116986694171346234
24536 1 18338219501504487947
29004967 10 18114472205351599152
5460574 1 9295298234990093088

>  <PUBCHEM_SHAPE_MULTIPOLES>  (1) 
136.06
3.32
1.54
0.6
0.08
0.59
0
-0.93
0
0.43
0
0.08
0
0

>  <PUBCHEM_SHAPE_SELFOVERLAP>  (1) 
240.338

>  <PUBCHEM_SHAPE_VOLUME>  (1) 
89.4

>  <PUBCHEM_COORDINATE_TYPE>  (1) 
2
5
10

$$$$
