15287
     RDKit          3D

  7  6  0  0  1  0  0  0  0  0999 V2000
    0.8675   -0.1113    0.1823 O   0  0  0  0  0  0  0  0  0  0  0  0
   -1.5731   -1.3582   -0.2455 O   0  0  0  0  0  0  0  0  0  0  0  0
   -1.5251   -0.0634    0.3521 C   0  0  0  0  0  0  0  0  0  0  0  0
   -0.2828    0.6543   -0.1602 C   0  0  0  0  0  0  0  0  0  0  0  0
   -2.7941    0.6929   -0.0105 C   0  0  0  0  0  0  0  0  0  0  0  0
    2.0616    0.5217   -0.2547 C   0  0  0  0  0  0  0  0  0  0  0  0
    3.2460   -0.3361    0.1365 C   0  0  0  0  0  0  0  0  0  0  0  0
  1  4  1  0
  1  6  1  0
  2  3  1  0
  3  4  1  0
  3  5  1  0
  6  7  1  0
M  END
>  <PUBCHEM_COMPOUND_CID>  (1) 
15287

>  <PUBCHEM_CONFORMER_RMSD>  (1) 
0.4

>  <PUBCHEM_CONFORMER_DIVERSEORDER>  (1) 
1
8
7
18
4
23
2
19
24
13
6
16
17
21
10
5
22
14
15
20
12
11
9
3

>  <PUBCHEM_MMFF94_PARTIAL_CHARGES>  (1) 
6
1 -0.56
19 0.4
2 -0.68
3 0.28
4 0.28
6 0.28

>  <PUBCHEM_EFFECTIVE_ROTOR_COUNT>  (1) 
3

>  <PUBCHEM_PHARMACOPHORE_FEATURES>  (1) 
3
1 1 acceptor
1 2 acceptor
1 2 donor

>  <PUBCHEM_HEAVY_ATOM_COUNT>  (1) 
7

>  <PUBCHEM_ATOM_DEF_STEREO_COUNT>  (1) 
0

>  <PUBCHEM_ATOM_UDEF_STEREO_COUNT>  (1) 
1

>  <PUBCHEM_BOND_DEF_STEREO_COUNT>  (1) 
0

>  <PUBCHEM_BOND_UDEF_STEREO_COUNT>  (1) 
0

>  <PUBCHEM_ISOTOPIC_ATOM_COUNT>  (1) 
0

>  <PUBCHEM_COMPONENT_COUNT>  (1) 
1

>  <PUBCHEM_CACTVS_TAUTO_COUNT>  (1) 
1

>  <PUBCHEM_CONFORMER_ID>  (1) 
00003BB700000001

>  <PUBCHEM_MMFF94_ENERGY>  (1) 
7.455

>  <PUBCHEM_FEATURE_SELFOVERLAP>  (1) 
15.227

>  <PUBCHEM_SHAPE_FINGERPRINT>  (1) 
11062470 55 16558747897264061153
12932741 1 17561080353834259928
12932764 1 17675916604014325676
14325111 11 18409731776719875512
14390081 3 18343580750266639264
16714656 1 18407760317953648973
23552423 10 18187928447020698150
29004967 10 16702311165136610450
3248919 1 17346327002688037900
5460574 1 9223230741115766976

>  <PUBCHEM_SHAPE_MULTIPOLES>  (1) 
132.32
4.84
0.99
0.63
2
0.2
-0.01
-0.05
-0.13
-0.38
0.08
-0.01
-0.01
-0.12

>  <PUBCHEM_SHAPE_SELFOVERLAP>  (1) 
230.168

>  <PUBCHEM_SHAPE_VOLUME>  (1) 
88.7

>  <PUBCHEM_COORDINATE_TYPE>  (1) 
2
5
10

$$$$
