15299
     RDKit          3D

 10  9  0  0  0  0  0  0  0  0999 V2000
   -1.0539   -1.2980    1.4527 Cl  0  0  0  0  0  0  0  0  0  0  0  0
   -1.0539   -1.2962   -1.4524 Cl  0  0  0  0  0  0  0  0  0  0  0  0
    1.0539    1.2964    1.4541 Cl  0  0  0  0  0  0  0  0  0  0  0  0
    1.0539    1.2981   -1.4509 Cl  0  0  0  0  0  0  0  0  0  0  0  0
   -3.4914    0.3723   -0.0035 Cl  0  0  0  0  0  0  0  0  0  0  0  0
    3.4915   -0.3728   -0.0038 Cl  0  0  0  0  0  0  0  0  0  0  0  0
   -0.7496   -0.2472    0.0008 C   0  0  0  0  0  0  0  0  0  0  0  0
    0.7496    0.2473    0.0011 C   0  0  0  0  0  0  0  0  0  0  0  0
   -1.7815    0.9087    0.0015 C   0  0  0  0  0  0  0  0  0  0  0  0
    1.7815   -0.9087    0.0004 C   0  0  0  0  0  0  0  0  0  0  0  0
  1  7  1  0
  2  7  1  0
  3  8  1  0
  4  8  1  0
  5  9  1  0
  6 10  1  0
  7  8  1  0
  7  9  1  0
  8 10  1  0
M  END
>  <PUBCHEM_COMPOUND_CID>  (1) 
15299

>  <PUBCHEM_CONFORMER_RMSD>  (1) 
0.6

>  <PUBCHEM_CONFORMER_DIVERSEORDER>  (1) 
1
15
11
12
2
3
14
10
16
4
5
9
8
13
6
7

>  <PUBCHEM_MMFF94_PARTIAL_CHARGES>  (1) 
10
1 -0.29
10 0.29
2 -0.29
3 -0.29
4 -0.29
5 -0.29
6 -0.29
7 0.58
8 0.58
9 0.29

>  <PUBCHEM_EFFECTIVE_ROTOR_COUNT>  (1) 
3

>  <PUBCHEM_PHARMACOPHORE_FEATURES>  (1) 
0

>  <PUBCHEM_HEAVY_ATOM_COUNT>  (1) 
10

>  <PUBCHEM_ATOM_DEF_STEREO_COUNT>  (1) 
0

>  <PUBCHEM_ATOM_UDEF_STEREO_COUNT>  (1) 
0

>  <PUBCHEM_BOND_DEF_STEREO_COUNT>  (1) 
0

>  <PUBCHEM_BOND_UDEF_STEREO_COUNT>  (1) 
0

>  <PUBCHEM_ISOTOPIC_ATOM_COUNT>  (1) 
0

>  <PUBCHEM_COMPONENT_COUNT>  (1) 
1

>  <PUBCHEM_CACTVS_TAUTO_COUNT>  (1) 
1

>  <PUBCHEM_CONFORMER_ID>  (1) 
00003BC300000001

>  <PUBCHEM_MMFF94_ENERGY>  (1) 
21.431

>  <PUBCHEM_FEATURE_SELFOVERLAP>  (1) 
0

>  <PUBCHEM_SHAPE_FINGERPRINT>  (1) 
11062470 55 15985098591834408105
14648413 74 17823148984606050484
15775835 57 18202566193744814221
16945 1 18338797805960691714
20082192 1 17097476850675882430
207724 885 17749393641577637292
23235685 24 17967245390731606267
24536 1 17897154943207348576
29004967 10 17822300050281699202
5084963 1 18335421231964940909
528886 8 17966971621269051026
68250623 7 17415539163438105708

>  <PUBCHEM_SHAPE_MULTIPOLES>  (1) 
217.01
4.33
1.53
1.51
0
0
0
0
-0.01
0
0
0
0
0

>  <PUBCHEM_SHAPE_SELFOVERLAP>  (1) 
354.068

>  <PUBCHEM_SHAPE_VOLUME>  (1) 
151.8

>  <PUBCHEM_COORDINATE_TYPE>  (1) 
2
5
10

$$$$
