15295
     RDKit          3D

 10 10  0  0  0  0  0  0  0  0999 V2000
    1.7394    0.1051    0.0000 P   0  0  0  0  0  0  0  0  0  0  0  0
    2.1901   -0.8148    1.2568 O   0  0  0  0  0  0  0  0  0  0  0  0
    2.1894   -0.8151   -1.2569 O   0  0  0  0  0  0  0  0  0  0  0  0
    2.4003    1.4533   -0.0002 O   0  0  0  0  0  0  0  0  0  0  0  0
   -0.0256    0.0532    0.0001 C   0  0  0  0  0  0  0  0  0  0  0  0
   -0.7585    1.2400    0.0000 C   0  0  0  0  0  0  0  0  0  0  0  0
   -0.6869   -1.1748    0.0002 C   0  0  0  0  0  0  0  0  0  0  0  0
   -2.1528    1.1988    0.0000 C   0  0  0  0  0  0  0  0  0  0  0  0
   -2.0812   -1.2162    0.0000 C   0  0  0  0  0  0  0  0  0  0  0  0
   -2.8141   -0.0293    0.0000 C   0  0  0  0  0  0  0  0  0  0  0  0
  1  2  1  0
  1  3  1  0
  1  4  2  0
  1  5  1  0
  5  6  2  0
  5  7  1  0
  6  8  1  0
  7  9  2  0
  8 10  2  0
  9 10  1  0
M  END
>  <PUBCHEM_COMPOUND_CID>  (1) 
15295

>  <PUBCHEM_CONFORMER_RMSD>  (1) 
0.4

>  <PUBCHEM_CONFORMER_DIVERSEORDER>  (1) 
1

>  <PUBCHEM_MMFF94_PARTIAL_CHARGES>  (1) 
17
1 1.38
10 -0.15
11 0.15
12 0.15
13 0.15
14 0.15
15 0.15
16 0.5
17 0.5
2 -0.77
3 -0.77
4 -0.7
5 -0.14
6 -0.15
7 -0.15
8 -0.15
9 -0.15

>  <PUBCHEM_EFFECTIVE_ROTOR_COUNT>  (1) 
1

>  <PUBCHEM_PHARMACOPHORE_FEATURES>  (1) 
5
1 2 acceptor
1 3 acceptor
1 4 acceptor
4 1 2 3 4 anion
6 5 6 7 8 9 10 rings

>  <PUBCHEM_HEAVY_ATOM_COUNT>  (1) 
10

>  <PUBCHEM_ATOM_DEF_STEREO_COUNT>  (1) 
0

>  <PUBCHEM_ATOM_UDEF_STEREO_COUNT>  (1) 
0

>  <PUBCHEM_BOND_DEF_STEREO_COUNT>  (1) 
0

>  <PUBCHEM_BOND_UDEF_STEREO_COUNT>  (1) 
0

>  <PUBCHEM_ISOTOPIC_ATOM_COUNT>  (1) 
0

>  <PUBCHEM_COMPONENT_COUNT>  (1) 
1

>  <PUBCHEM_CACTVS_TAUTO_COUNT>  (1) 
1

>  <PUBCHEM_CONFORMER_ID>  (1) 
00003BBF00000001

>  <PUBCHEM_MMFF94_ENERGY>  (1) 
-15.9751

>  <PUBCHEM_FEATURE_SELFOVERLAP>  (1) 
25.413

>  <PUBCHEM_SHAPE_FINGERPRINT>  (1) 
10857977 72 18270955847167963931
12524768 44 18341054098447377237
12897270 3 18341620364147251620
12932764 1 18040438763201494869
14325111 11 18410855456165757217
15310529 11 16805610243811252781
15775835 57 18113622239918988404
16945 1 18338516318452513543
19973954 147 18343308049939704220
20201158 50 18130792226451792854
20645464 45 18060126622619023378
20653085 51 18199481990809741425
20871998 184 18057047019715471175
21040471 1 18194402186880635681
23552423 10 18187367691663735317
2748010 2 18411138056402664173
29004967 10 16917347034715153859
3248919 1 18060133224089232641
369184 2 18114174246469637481
5084963 1 17916872313492873779
8030462 33 17894915126373648119

>  <PUBCHEM_SHAPE_MULTIPOLES>  (1) 
192.04
4.05
1.49
0.84
0.47
0.16
0
0.08
0
-0.17
0
0.52
-0.2
0

>  <PUBCHEM_SHAPE_SELFOVERLAP>  (1) 
380.042

>  <PUBCHEM_SHAPE_VOLUME>  (1) 
114.3

>  <PUBCHEM_COORDINATE_TYPE>  (1) 
2
5
10

$$$$
