15298
     RDKit          3D

  8  7  0  0  0  0  0  0  0  0999 V2000
    0.4849    2.1238    0.3579 Cl  0  0  0  0  0  0  0  0  0  0  0  0
   -0.4835   -2.1187    0.3698 Cl  0  0  0  0  0  0  0  0  0  0  0  0
    2.5387   -0.3808   -1.2322 Cl  0  0  0  0  0  0  0  0  0  0  0  0
   -2.5426    0.3647   -1.2329 Cl  0  0  0  0  0  0  0  0  0  0  0  0
    0.5584    0.3816    0.4330 C   0  0  0  0  0  0  0  0  0  0  0  0
   -0.5571   -0.3760    0.4357 C   0  0  0  0  0  0  0  0  0  0  0  0
    1.9641   -0.1457    0.4340 C   0  0  0  0  0  0  0  0  0  0  0  0
   -1.9628    0.1511    0.4346 C   0  0  0  0  0  0  0  0  0  0  0  0
  1  5  1  0
  2  6  1  0
  3  7  1  0
  4  8  1  0
  5  6  2  0
  5  7  1  0
  6  8  1  0
M  END
>  <PUBCHEM_COMPOUND_CID>  (1) 
15298

>  <PUBCHEM_CONFORMER_RMSD>  (1) 
0.4

>  <PUBCHEM_CONFORMER_DIVERSEORDER>  (1) 
1
5
6
7
4
2
3

>  <PUBCHEM_MMFF94_PARTIAL_CHARGES>  (1) 
6
1 -0.14
2 -0.14
3 -0.29
4 -0.29
7 0.43
8 0.43

>  <PUBCHEM_EFFECTIVE_ROTOR_COUNT>  (1) 
2

>  <PUBCHEM_PHARMACOPHORE_FEATURES>  (1) 
0

>  <PUBCHEM_HEAVY_ATOM_COUNT>  (1) 
8

>  <PUBCHEM_ATOM_DEF_STEREO_COUNT>  (1) 
0

>  <PUBCHEM_ATOM_UDEF_STEREO_COUNT>  (1) 
0

>  <PUBCHEM_BOND_DEF_STEREO_COUNT>  (1) 
0

>  <PUBCHEM_BOND_UDEF_STEREO_COUNT>  (1) 
1

>  <PUBCHEM_ISOTOPIC_ATOM_COUNT>  (1) 
0

>  <PUBCHEM_COMPONENT_COUNT>  (1) 
1

>  <PUBCHEM_CACTVS_TAUTO_COUNT>  (1) 
1

>  <PUBCHEM_CONFORMER_ID>  (1) 
00003BC200000001

>  <PUBCHEM_MMFF94_ENERGY>  (1) 
7.186

>  <PUBCHEM_FEATURE_SELFOVERLAP>  (1) 
0

>  <PUBCHEM_SHAPE_FINGERPRINT>  (1) 
14390081 3 15647060368982860669
15310529 11 16878234133481957330
161256 15 17760101999974123163
16714656 1 18337971003502927930
20653085 51 16298971774211748452
20711978 78 17413329196627092947
21040471 1 18260819414895630251
21293036 1 18408606976055603029
24536 1 17986677175651191265
29004967 10 17989494038821775698
5084963 1 18201429324723560761

>  <PUBCHEM_SHAPE_MULTIPOLES>  (1) 
172.12
3.38
1.89
1.16
0.01
0.01
0.43
-0.01
1.58
-0.01
-0.41
0
-0.01
0.4

>  <PUBCHEM_SHAPE_SELFOVERLAP>  (1) 
285.79

>  <PUBCHEM_SHAPE_VOLUME>  (1) 
118.4

>  <PUBCHEM_COORDINATE_TYPE>  (1) 
2
5
10

$$$$
