153
     RDKit          2D

 19 20  0  0  1  0  0  0  0  0999 V2000
    0.0000    0.0000    0.0000 P   0  0  0  0  0  0  0  0  0  0  0  0
    0.0000    0.0000    0.0000 O   0  0  0  0  0  0  0  0  0  0  0  0
    0.0000    0.0000    0.0000 O   0  0  0  0  0  0  0  0  0  0  0  0
    0.0000    0.0000    0.0000 O   0  0  0  0  0  0  0  0  0  0  0  0
    0.0000    0.0000    0.0000 O   0  0  0  0  0  0  0  0  0  0  0  0
    0.0000    0.0000    0.0000 O   0  0  0  0  0  0  0  0  0  0  0  0
    0.0000    0.0000    0.0000 O   0  0  0  0  0  0  0  0  0  0  0  0
    0.0000    0.0000    0.0000 O   0  0  0  0  0  0  0  0  0  0  0  0
    0.0000    0.0000    0.0000 N   0  0  0  0  0  0  0  0  0  0  0  0
    0.0000    0.0000    0.0000 N   0  0  0  0  0  0  0  0  0  0  0  0
    0.0000    0.0000    0.0000 N   0  0  0  0  0  0  0  0  0  0  0  0
    0.0000    0.0000    0.0000 C   0  0  0  0  0  0  0  0  0  0  0  0
    0.0000    0.0000    0.0000 C   0  0  0  0  0  0  0  0  0  0  0  0
    0.0000    0.0000    0.0000 C   0  0  0  0  0  0  0  0  0  0  0  0
    0.0000    0.0000    0.0000 C   0  0  0  0  0  0  0  0  0  0  0  0
    0.0000    0.0000    0.0000 C   0  0  0  0  0  0  0  0  0  0  0  0
    0.0000    0.0000    0.0000 C   0  0  0  0  0  0  0  0  0  0  0  0
    0.0000    0.0000    0.0000 C   0  0  0  0  0  0  0  0  0  0  0  0
    0.0000    0.0000    0.0000 C   0  0  0  0  0  0  0  0  0  0  0  0
  1  5  1  0
  1  6  1  0
  1  7  1  0
  1  8  2  0
  2 14  1  0
  2 15  1  0
  3 12  1  0
  4 13  1  0
  5 16  1  0
  9 15  1  0
  9 17  1  0
  9 18  1  0
 10 18  2  0
 10 19  1  0
 11 17  1  0
 12 13  1  0
 12 14  1  0
 13 15  1  0
 14 16  1  0
 17 19  2  0
M  END
>  <PUBCHEM_COMPOUND_CID>  (1) 
153

>  <PUBCHEM_CONFORMER_RMSD>  (1) 
0.8

>  <PUBCHEM_CONFORMER_DIVERSEORDER>  (1) 
36
104
159
51
156
123
137
83
47
37
162
189
114
93
66
120
144
127
101
14
97
165
31
22
145
99
17
174
54
57
42
44
153
63
171
50
187
168
1
6
89
106
64
107
39
130
46
105
28
129
81
33
138
121
87
149
141
154
102
13
112
65
34
48
122
184
5
111
135
62
183
43
117
161
15
23
152
45
91
40
77
96
134
164
21
88
133
155
12
169
103
108
8
52
181
148
160
29
7
132
177
78
2
73
67
94
92
173
143
24
109
170
79
136
180
116
115
100
20
146
30
126
158
16
19
72
147
185
49
18
186
11
140
61
76
110
38
75
172
179
142
175
27
74
82
4
3
68
119
131
118
55
32
59
113
167
150
95
176
85
58
163
188
86
182
84
80
71
25
35
151
90
70
69
128
26
166
98
157
41
178
9
10
60
56
53
139
125
124

>  <PUBCHEM_MMFF94_PARTIAL_CHARGES>  (1) 
27
1 1.51
10 -0.57
11 -0.88
12 0.28
13 0.28
14 0.28
15 0.54
16 0.28
17 -0.07
18 0.04
19 0.08
2 -0.56
26 0.4
27 0.4
28 0.15
29 0.15
3 -0.68
30 0.4
31 0.4
32 0.5
33 0.5
4 -0.68
5 -0.55
6 -0.77
7 -0.77
8 -0.7
9 0.05

>  <PUBCHEM_EFFECTIVE_ROTOR_COUNT>  (1) 
5

>  <PUBCHEM_PHARMACOPHORE_FEATURES>  (1) 
14
1 11 cation
1 11 donor
1 2 acceptor
1 3 acceptor
1 3 donor
1 4 acceptor
1 4 donor
1 6 acceptor
1 7 acceptor
1 8 acceptor
3 9 10 18 cation
4 1 6 7 8 anion
5 2 12 13 14 15 rings
5 9 10 17 18 19 rings

>  <PUBCHEM_HEAVY_ATOM_COUNT>  (1) 
19

>  <PUBCHEM_ATOM_DEF_STEREO_COUNT>  (1) 
0

>  <PUBCHEM_ATOM_UDEF_STEREO_COUNT>  (1) 
4

>  <PUBCHEM_BOND_DEF_STEREO_COUNT>  (1) 
0

>  <PUBCHEM_BOND_UDEF_STEREO_COUNT>  (1) 
0

>  <PUBCHEM_ISOTOPIC_ATOM_COUNT>  (1) 
0

>  <PUBCHEM_COMPONENT_COUNT>  (1) 
1

>  <PUBCHEM_CACTVS_TAUTO_COUNT>  (1) 
1

$$$$
