15308
     RDKit          3D

  8  7  0  0  0  0  0  0  0  0999 V2000
   -3.3001   -0.6517    0.1487 O   0  0  0  0  0  0  0  0  0  0  0  0
   -2.2114    1.3356   -0.0267 O   0  0  0  0  0  0  0  0  0  0  0  0
    0.3296    0.1562   -0.1450 C   0  0  0  0  0  0  0  0  0  0  0  0
    1.6144   -0.6773   -0.1825 C   0  0  0  0  0  0  0  0  0  0  0  0
   -0.9190   -0.7044    0.0264 C   0  0  0  0  0  0  0  0  0  0  0  0
    2.8225    0.1949   -0.3599 C   0  0  0  0  0  0  0  0  0  0  0  0
   -2.1857    0.1138    0.0432 C   0  0  0  0  0  0  0  0  0  0  0  0
    3.8499    0.2328    0.4958 C   0  0  0  0  0  0  0  0  0  0  0  0
  1  7  1  0
  2  7  2  0
  3  4  1  0
  3  5  1  0
  4  6  1  0
  5  7  1  0
  6  8  2  0
M  END
>  <PUBCHEM_COMPOUND_CID>  (1) 
15308

>  <PUBCHEM_CONFORMER_RMSD>  (1) 
0.6

>  <PUBCHEM_CONFORMER_DIVERSEORDER>  (1) 
1
20
17
21
4
16
23
3
6
12
5
18
19
13
7
8
9
15
10
22
11
2
14

>  <PUBCHEM_MMFF94_PARTIAL_CHARGES>  (1) 
11
1 -0.65
15 0.15
16 0.15
17 0.15
18 0.5
2 -0.57
4 0.14
5 0.06
6 -0.29
7 0.66
8 -0.3

>  <PUBCHEM_EFFECTIVE_ROTOR_COUNT>  (1) 
4

>  <PUBCHEM_PHARMACOPHORE_FEATURES>  (1) 
5
1 1 acceptor
1 2 acceptor
1 8 hydrophobe
3 1 2 7 anion
4 3 4 5 6 hydrophobe

>  <PUBCHEM_HEAVY_ATOM_COUNT>  (1) 
8

>  <PUBCHEM_ATOM_DEF_STEREO_COUNT>  (1) 
0

>  <PUBCHEM_ATOM_UDEF_STEREO_COUNT>  (1) 
0

>  <PUBCHEM_BOND_DEF_STEREO_COUNT>  (1) 
0

>  <PUBCHEM_BOND_UDEF_STEREO_COUNT>  (1) 
0

>  <PUBCHEM_ISOTOPIC_ATOM_COUNT>  (1) 
0

>  <PUBCHEM_COMPONENT_COUNT>  (1) 
1

>  <PUBCHEM_CACTVS_TAUTO_COUNT>  (1) 
1

>  <PUBCHEM_CONFORMER_ID>  (1) 
00003BCC00000001

>  <PUBCHEM_MMFF94_ENERGY>  (1) 
2.7693

>  <PUBCHEM_FEATURE_SELFOVERLAP>  (1) 
25.43

>  <PUBCHEM_SHAPE_FINGERPRINT>  (1) 
11062470 55 13686301283380981130
12932764 1 17203317901697738238
14325111 11 18411419484060900918
14390081 3 18343582919404205320
21293036 1 16272204206446064198
3248919 1 17313115137131912778
5460574 1 9079116648187967374

>  <PUBCHEM_SHAPE_MULTIPOLES>  (1) 
152.9
6.26
0.95
0.65
1.89
0.13
0
0.5
0.72
-0.44
-0.01
0.23
0
0.1

>  <PUBCHEM_SHAPE_SELFOVERLAP>  (1) 
278.27

>  <PUBCHEM_SHAPE_VOLUME>  (1) 
97.2

>  <PUBCHEM_COORDINATE_TYPE>  (1) 
2
5
10

$$$$
