15309
     RDKit          3D

 17 17  0  0  0  0  0  0  0  0999 V2000
   -3.5103   -0.0100   -0.1238 Si  0  0  0  0  0  4  0  0  0  0  0  0
    5.0740   -0.9775    0.3889 O   0  0  0  0  0  0  0  0  0  0  0  0
    1.8158    0.0802    0.2310 N   0  0  0  0  0  0  0  0  0  0  0  0
   -1.9357   -0.0355    0.8941 C   0  0  0  0  0  0  0  0  0  0  0  0
   -3.5065   -1.4556   -1.3183 C   0  0  0  0  0  0  0  0  0  0  0  0
   -3.6061    1.5962   -1.0870 C   0  0  0  0  0  0  0  0  0  0  0  0
   -4.9933   -0.1447    1.0160 C   0  0  0  0  0  0  0  0  0  0  0  0
   -0.6326    0.0678    0.0925 C   0  0  0  0  0  0  0  0  0  0  0  0
   -3.4318   -2.8366   -0.6801 C   0  0  0  0  0  0  0  0  0  0  0  0
   -3.6179    2.8672   -0.2478 C   0  0  0  0  0  0  0  0  0  0  0  0
   -6.3533   -0.1371    0.3304 C   0  0  0  0  0  0  0  0  0  0  0  0
    0.5871   -0.0109    1.0110 C   0  0  0  0  0  0  0  0  0  0  0  0
    2.9860   -0.0181    1.0917 C   0  0  0  0  0  0  0  0  0  0  0  0
    4.2562    0.0842    0.2922 C   0  0  0  0  0  0  0  0  0  0  0  0
    4.7415    1.0524   -0.5166 C   0  0  0  0  0  0  0  0  0  0  0  0
    5.9851    0.5578   -0.9766 C   0  0  0  0  0  0  0  0  0  0  0  0
    6.1416   -0.6800   -0.3976 C   0  0  0  0  0  0  0  0  0  0  0  0
  1  4  1  0
  1  5  1  0
  1  6  1  0
  1  7  1  0
  2 14  1  0
  2 17  1  0
  3 12  1  0
  3 13  1  0
  4  8  1  0
  5  9  1  0
  6 10  1  0
  7 11  1  0
  8 12  1  0
 13 14  1  0
 14 15  2  0
 15 16  1  0
 16 17  2  0
M  END
>  <PUBCHEM_COMPOUND_CID>  (1) 
15309

>  <PUBCHEM_CONFORMER_RMSD>  (1) 
0.8

>  <PUBCHEM_CONFORMER_DIVERSEORDER>  (1) 
1
77
25
66
36
103
78
26
86
111
24
72
16
57
109
21
54
30
22
52
76
23
89
75
56
59
33
73
91
2
63
71
61
101
55
68
47
51
74
41
29
99
95
107
31
84
35
14
92
15
46
108
53
98
48
40
100
102
60
110
7
50
58
44
45
39
65
96
49
19
11
34
64
93
67
106
97
80
8
70
69
32
88
12
62
79
10
28
38
6
5
43
85
17
94
105
18
20
90
37
87
27
9
83
3
81
42
104
82
4
13

>  <PUBCHEM_MMFF94_PARTIAL_CHARGES>  (1) 
17
1 0.32
12 0.27
13 0.45
14 -0.04
15 -0.15
16 -0.15
17 -0.01
2 -0.28
3 -0.9
39 0.36
4 -0.08
42 0.15
43 0.15
44 0.15
5 -0.08
6 -0.08
7 -0.08

>  <PUBCHEM_EFFECTIVE_ROTOR_COUNT>  (1) 
9

>  <PUBCHEM_PHARMACOPHORE_FEATURES>  (1) 
4
1 2 acceptor
1 3 cation
1 3 donor
5 2 14 15 16 17 rings

>  <PUBCHEM_HEAVY_ATOM_COUNT>  (1) 
17

>  <PUBCHEM_ATOM_DEF_STEREO_COUNT>  (1) 
0

>  <PUBCHEM_ATOM_UDEF_STEREO_COUNT>  (1) 
0

>  <PUBCHEM_BOND_DEF_STEREO_COUNT>  (1) 
0

>  <PUBCHEM_BOND_UDEF_STEREO_COUNT>  (1) 
0

>  <PUBCHEM_ISOTOPIC_ATOM_COUNT>  (1) 
0

>  <PUBCHEM_COMPONENT_COUNT>  (1) 
1

>  <PUBCHEM_CACTVS_TAUTO_COUNT>  (1) 
1

>  <PUBCHEM_CONFORMER_ID>  (1) 
00003BCD00000001

>  <PUBCHEM_MMFF94_ENERGY>  (1) 
-2.2084

>  <PUBCHEM_FEATURE_SELFOVERLAP>  (1) 
20.297

>  <PUBCHEM_SHAPE_FINGERPRINT>  (1) 
10680689 15 18410853274295756993
10803635 8 18273209764121061574
10912923 1 17313097519239544120
11315181 36 10375866390079727935
11524674 6 16702304572626043327
12091667 2 18260268551470582394
12390115 104 18200880548611181097
13533116 47 9295020042117729932
14251752 14 18411697643839830238
14251757 5 18411417353773284315
15183329 4 18411134732303939294
17834072 33 18335420179782174032
17844677 252 18411421713297055800
17857418 61 12391510871658531156
20645477 56 18342173341740538365
20645477 70 16370996361742726210
220451 1 18342462547495007434
2297311 6 18411702093346931641
23035841 295 18201721755808675531
23402539 116 18259983765016161564
23402655 69 18260266326867537448
23557571 272 18201442458470249557
23559900 14 17632004359878823592
497634 4 16877942729005029903
531348 171 18337388223517053202
542803 24 18113900450767910128
543368 44 17676770958740301052
54446538 1 17967535670724018436
58051976 100 18201152247830472763
5924683 9 10087632711098445013
59755656 215 17846223232589560231
59755656 520 17632576038102725071

>  <PUBCHEM_SHAPE_MULTIPOLES>  (1) 
357.21
17.1
2
1.17
19.93
0.11
-0.04
-0.4
-2.09
-3.26
-0.78
-0.37
-0.07
-0.48

>  <PUBCHEM_SHAPE_SELFOVERLAP>  (1) 
673.604

>  <PUBCHEM_SHAPE_VOLUME>  (1) 
222.6

>  <PUBCHEM_COORDINATE_TYPE>  (1) 
2
5
10

$$$$
