15306
     RDKit          3D

  6  5  0  0  0  0  0  0  0  0999 V2000
   -2.5740    0.8312    0.0035 O   0  0  0  0  0  0  0  0  0  0  0  0
    1.9597   -0.4590   -0.1602 C   0  0  0  0  0  0  0  0  0  0  0  0
    0.5547   -0.5699    0.3536 C   0  0  0  0  0  0  0  0  0  0  0  0
    2.5240    0.9352    0.0642 C   0  0  0  0  0  0  0  0  0  0  0  0
   -0.5330   -0.3075   -0.3857 C   0  0  0  0  0  0  0  0  0  0  0  0
   -1.9315   -0.4301    0.1246 C   0  0  0  0  0  0  0  0  0  0  0  0
  1  6  1  0
  2  3  1  0
  2  4  1  0
  3  5  2  0
  5  6  1  0
M  END
>  <PUBCHEM_COMPOUND_CID>  (1) 
15306

>  <PUBCHEM_CONFORMER_RMSD>  (1) 
0.4

>  <PUBCHEM_CONFORMER_DIVERSEORDER>  (1) 
1
2

>  <PUBCHEM_MMFF94_PARTIAL_CHARGES>  (1) 
8
1 -0.68
13 0.15
16 0.4
2 0.14
3 -0.29
5 -0.29
6 0.42
9 0.15

>  <PUBCHEM_EFFECTIVE_ROTOR_COUNT>  (1) 
2

>  <PUBCHEM_PHARMACOPHORE_FEATURES>  (1) 
3
1 1 acceptor
1 1 donor
1 4 hydrophobe

>  <PUBCHEM_HEAVY_ATOM_COUNT>  (1) 
6

>  <PUBCHEM_ATOM_DEF_STEREO_COUNT>  (1) 
0

>  <PUBCHEM_ATOM_UDEF_STEREO_COUNT>  (1) 
0

>  <PUBCHEM_BOND_DEF_STEREO_COUNT>  (1) 
0

>  <PUBCHEM_BOND_UDEF_STEREO_COUNT>  (1) 
1

>  <PUBCHEM_ISOTOPIC_ATOM_COUNT>  (1) 
0

>  <PUBCHEM_COMPONENT_COUNT>  (1) 
1

>  <PUBCHEM_CACTVS_TAUTO_COUNT>  (1) 
1

>  <PUBCHEM_CONFORMER_ID>  (1) 
00003BCA00000001

>  <PUBCHEM_MMFF94_ENERGY>  (1) 
-0.6503

>  <PUBCHEM_FEATURE_SELFOVERLAP>  (1) 
15.223

>  <PUBCHEM_SHAPE_FINGERPRINT>  (1) 
139733 1 18408322189764816362
14390081 3 18412823603148331713
16714656 1 17275106145451495621
20096714 4 18410854386623766598
21040471 1 18334297612574936674
29004967 10 8286199444245141782
5460574 1 9007062361306538287

>  <PUBCHEM_SHAPE_MULTIPOLES>  (1) 
117.61
3.96
0.98
0.66
0.29
0.14
0
1.22
-0.05
-0.11
-0.02
-0.04
-0.04
0.04

>  <PUBCHEM_SHAPE_SELFOVERLAP>  (1) 
204.139

>  <PUBCHEM_SHAPE_VOLUME>  (1) 
78.3

>  <PUBCHEM_COORDINATE_TYPE>  (1) 
2
5
10

$$$$
