15311
     RDKit          3D

 20 21  0  0  0  0  0  0  0  0999 V2000
   -7.1112    0.1976   -0.0641 F   0  0  0  0  0  0  0  0  0  0  0  0
    4.4994   -0.1032    0.0294 N   0  0  0  0  0  0  0  0  0  0  0  0
   -1.0531    0.5782   -0.1963 N   0  0  0  0  0  0  0  0  0  0  0  0
   -1.6293   -0.4763    0.1604 N   0  0  0  0  0  0  0  0  0  0  0  0
    5.3654    0.6245   -0.8769 C   0  0  0  0  0  0  0  0  0  0  0  0
    5.0900   -0.9989    1.0039 C   0  0  0  0  0  0  0  0  0  0  0  0
    3.1006    0.0685   -0.0273 C   0  0  0  0  0  0  0  0  0  0  0  0
    2.4080   -0.2332   -1.1998 C   0  0  0  0  0  0  0  0  0  0  0  0
    2.4099    0.5402    1.0889 C   0  0  0  0  0  0  0  0  0  0  0  0
    5.7519    1.9598   -0.2705 C   0  0  0  0  0  0  0  0  0  0  0  0
    5.1883   -2.4005    0.4328 C   0  0  0  0  0  0  0  0  0  0  0  0
    1.0246   -0.0635   -1.2560 C   0  0  0  0  0  0  0  0  0  0  0  0
    1.0265    0.7099    1.0328 C   0  0  0  0  0  0  0  0  0  0  0  0
    0.3338    0.4080   -0.1397 C   0  0  0  0  0  0  0  0  0  0  0  0
   -3.0232   -0.3047    0.1036 C   0  0  0  0  0  0  0  0  0  0  0  0
   -3.7087   -0.6072   -1.0688 C   0  0  0  0  0  0  0  0  0  0  0  0
   -3.7074    0.1662    1.2199 C   0  0  0  0  0  0  0  0  0  0  0  0
   -5.0919   -0.4369   -1.1256 C   0  0  0  0  0  0  0  0  0  0  0  0
   -5.0907    0.3366    1.1631 C   0  0  0  0  0  0  0  0  0  0  0  0
   -5.7829    0.0350   -0.0097 C   0  0  0  0  0  0  0  0  0  0  0  0
  1 20  1  0
  2  5  1  0
  2  6  1  0
  2  7  1  0
  3  4  2  0
  3 14  1  0
  4 15  1  0
  5 10  1  0
  6 11  1  0
  7  8  2  0
  7  9  1  0
  8 12  1  0
  9 13  2  0
 12 14  2  0
 13 14  1  0
 15 16  2  0
 15 17  1  0
 16 18  1  0
 17 19  2  0
 18 20  2  0
 19 20  1  0
M  END
>  <PUBCHEM_COMPOUND_CID>  (1) 
15311

>  <PUBCHEM_CONFORMER_RMSD>  (1) 
0.8

>  <PUBCHEM_CONFORMER_DIVERSEORDER>  (1) 
1
2
3

>  <PUBCHEM_MMFF94_PARTIAL_CHARGES>  (1) 
26
1 -0.19
12 -0.15
13 -0.15
14 0.18
15 0.18
16 -0.15
17 -0.15
18 -0.15
19 -0.15
2 -0.84
20 0.19
25 0.15
26 0.15
3 -0.18
33 0.15
34 0.15
35 0.15
36 0.15
37 0.15
38 0.15
4 -0.18
5 0.37
6 0.37
7 0.1
8 -0.15
9 -0.15

>  <PUBCHEM_EFFECTIVE_ROTOR_COUNT>  (1) 
5

>  <PUBCHEM_PHARMACOPHORE_FEATURES>  (1) 
3
1 2 cation
6 15 16 17 18 19 20 rings
6 7 8 9 12 13 14 rings

>  <PUBCHEM_HEAVY_ATOM_COUNT>  (1) 
20

>  <PUBCHEM_ATOM_DEF_STEREO_COUNT>  (1) 
0

>  <PUBCHEM_ATOM_UDEF_STEREO_COUNT>  (1) 
0

>  <PUBCHEM_BOND_DEF_STEREO_COUNT>  (1) 
0

>  <PUBCHEM_BOND_UDEF_STEREO_COUNT>  (1) 
0

>  <PUBCHEM_ISOTOPIC_ATOM_COUNT>  (1) 
0

>  <PUBCHEM_COMPONENT_COUNT>  (1) 
1

>  <PUBCHEM_CACTVS_TAUTO_COUNT>  (1) 
1

>  <PUBCHEM_CONFORMER_ID>  (1) 
00003BCF00000001

>  <PUBCHEM_MMFF94_ENERGY>  (1) 
62.4524

>  <PUBCHEM_FEATURE_SELFOVERLAP>  (1) 
15.223

>  <PUBCHEM_SHAPE_FINGERPRINT>  (1) 
10 15 15554151637005916618
10912923 1 18202847660205410898
11315181 36 16343989134891407227
11719270 70 16917068828208855071
11796584 16 18408888442791292218
12107183 9 16267456326470282963
12166972 35 13039190320439661402
12236239 1 18409167705990960627
12516196 113 17749389290812878453
12596602 18 18334297591147424203
12916748 109 16081084874797470092
13073987 5 15285624470484705989
13533116 47 18334575712124175322
13955234 65 18333726923865681186
1420 363 16225766311361584833
14251764 18 18060697312071772395
15048467 5 18338801216808718876
15183329 4 17775851211599489705
15788980 27 17676206879220874295
17834072 33 17275105058677343105
17844677 252 17821729395004299756
18222031 100 17275389815583970664
19489759 90 16415480446060303491
20281389 69 18273214188370283129
20645477 70 18040714732647596554
21267235 1 14707216504985008845
21709351 56 16774074085879930293
220451 1 18342459261317485958
22061861 79 17821728308219434802
2297311 6 15719395006377376183
2303208 19 16805614645962989995
23081809 10 18273496771210724289
23402539 116 17131827673425135389
23522609 53 18057911149607885089
23536379 177 18187364315951380809
23559900 14 16558741360840645755
26918003 58 17132112464037490199
29717793 49 17675926473606540022
300161 21 18260828237085406194
3004659 81 17418376917329878168
34797466 226 16877949342985751254
3545911 37 14779264216097466957
4072396 5 17346595245097480070
4214541 1 16702025275334517801
4340502 62 18113332042723426066
465052 167 18202283606783322982
5104073 3 17203040902494091251
542803 24 18202003239522870749
59755656 215 15338848559572455924
59755656 520 18409443701122846663
67856867 119 16988268898093613929

>  <PUBCHEM_SHAPE_MULTIPOLES>  (1) 
389.37
17.02
1.3
1.27
9.45
0.33
0
0.45
0.25
-2.75
0.16
0.03
0.05
-1.35

>  <PUBCHEM_SHAPE_SELFOVERLAP>  (1) 
818.237

>  <PUBCHEM_SHAPE_VOLUME>  (1) 
222.2

>  <PUBCHEM_COORDINATE_TYPE>  (1) 
2
5
10

$$$$
