15317
     RDKit          3D

 10 10  0  0  0  0  0  0  0  0999 V2000
    0.0409    0.3275   -0.3751 C   0  0  0  0  0  0  0  0  0  0  0  0
   -0.4611   -0.9506   -0.1292 C   0  0  0  0  0  0  0  0  0  0  0  0
    1.4591    0.5277   -0.7978 C   0  0  0  0  0  0  0  0  0  0  0  0
   -0.7854    1.4416   -0.2271 C   0  0  0  0  0  0  0  0  0  0  0  0
   -1.7892   -1.1143    0.2646 C   0  0  0  0  0  0  0  0  0  0  0  0
    0.4039   -2.1586   -0.2819 C   0  0  0  0  0  0  0  0  0  0  0  0
   -2.1133    1.2778    0.1668 C   0  0  0  0  0  0  0  0  0  0  0  0
   -2.6153   -0.0001    0.4126 C   0  0  0  0  0  0  0  0  0  0  0  0
    2.3985    0.7127    0.3647 C   0  0  0  0  0  0  0  0  0  0  0  0
    3.4618   -0.0637    0.6025 C   0  0  0  0  0  0  0  0  0  0  0  0
  1  2  2  0
  1  3  1  0
  1  4  1  0
  2  5  1  0
  2  6  1  0
  3  9  1  0
  4  7  2  0
  5  8  2  0
  7  8  1  0
  9 10  2  0
M  END
>  <PUBCHEM_COMPOUND_CID>  (1) 
15317

>  <PUBCHEM_CONFORMER_RMSD>  (1) 
0.4

>  <PUBCHEM_CONFORMER_DIVERSEORDER>  (1) 
4
5
8
2
9
6
7
1
3

>  <PUBCHEM_MMFF94_PARTIAL_CHARGES>  (1) 
17
1 -0.14
10 -0.3
13 0.15
14 0.15
18 0.15
19 0.15
2 -0.14
20 0.15
21 0.15
22 0.15
3 0.28
4 -0.15
5 -0.15
6 0.14
7 -0.15
8 -0.15
9 -0.29

>  <PUBCHEM_EFFECTIVE_ROTOR_COUNT>  (1) 
2

>  <PUBCHEM_PHARMACOPHORE_FEATURES>  (1) 
2
1 10 hydrophobe
6 1 2 4 5 7 8 rings

>  <PUBCHEM_HEAVY_ATOM_COUNT>  (1) 
10

>  <PUBCHEM_ATOM_DEF_STEREO_COUNT>  (1) 
0

>  <PUBCHEM_ATOM_UDEF_STEREO_COUNT>  (1) 
0

>  <PUBCHEM_BOND_DEF_STEREO_COUNT>  (1) 
0

>  <PUBCHEM_BOND_UDEF_STEREO_COUNT>  (1) 
0

>  <PUBCHEM_ISOTOPIC_ATOM_COUNT>  (1) 
0

>  <PUBCHEM_COMPONENT_COUNT>  (1) 
1

>  <PUBCHEM_CACTVS_TAUTO_COUNT>  (1) 
1

>  <PUBCHEM_CONFORMER_ID>  (1) 
00003BD500000004

>  <PUBCHEM_MMFF94_ENERGY>  (1) 
21.7617

>  <PUBCHEM_FEATURE_SELFOVERLAP>  (1) 
10.148

>  <PUBCHEM_SHAPE_FINGERPRINT>  (1) 
10857977 72 18340490066178145033
12423570 1 10811635919236214197
13024252 1 14273726344087942853
13380535 76 18336824187342775991
14325111 11 18411699876763966168
15076042 46 18335704978810377288
15775835 57 18411983563664489984
16945 1 18337966644221957261
20645464 45 17988925591452705092
20653085 51 13973699363611323584
20871998 184 18127415767945392334
21040471 1 18338249184223969845
23463225 33 18260828164113218658
23552423 10 18187375323868275046
2748010 2 18047766909769698229
369184 2 18130783494735729128
5084963 1 18129961034241923252
54338 74 18051397762999010079
7364860 26 17984988081030993591

>  <PUBCHEM_SHAPE_MULTIPOLES>  (1) 
205.8
4.15
1.76
0.79
2.48
0.67
0.02
-0.69
-1.18
-0.42
0.14
0.19
-0.03
0.04

>  <PUBCHEM_SHAPE_SELFOVERLAP>  (1) 
418.812

>  <PUBCHEM_SHAPE_VOLUME>  (1) 
116.2

>  <PUBCHEM_COORDINATE_TYPE>  (1) 
2
5
10

$$$$
