1531
     RDKit          3D

  7  6  0  0  0  0  0  0  0  0999 V2000
   -2.1637   -0.8538   -0.0477 O   0  0  0  0  0  0  0  0  0  0  0  0
    2.1714   -0.7782   -0.0089 O   0  0  0  0  0  0  0  0  0  0  0  0
    0.6244    1.5114    0.6040 N   0  0  0  0  0  0  0  0  0  0  0  0
   -0.0093    0.3201    0.0194 C   0  0  0  0  0  0  0  0  0  0  0  0
   -1.4633    0.2431    0.5271 C   0  0  0  0  0  0  0  0  0  0  0  0
    0.8206   -0.9163    0.4149 C   0  0  0  0  0  0  0  0  0  0  0  0
    0.0198    0.4736   -1.5090 C   0  0  0  0  0  0  0  0  0  0  0  0
  1  5  1  0
  2  6  1  0
  3  4  1  0
  4  5  1  0
  4  6  1  0
  4  7  1  0
M  END
>  <PUBCHEM_COMPOUND_CID>  (1) 
1531

>  <PUBCHEM_CONFORMER_RMSD>  (1) 
0.4

>  <PUBCHEM_CONFORMER_DIVERSEORDER>  (1) 
4
5
9
8
2
6
3
7
1

>  <PUBCHEM_MMFF94_PARTIAL_CHARGES>  (1) 
10
1 -0.68
15 0.36
16 0.36
17 0.4
18 0.4
2 -0.68
3 -0.99
4 0.27
5 0.28
6 0.28

>  <PUBCHEM_EFFECTIVE_ROTOR_COUNT>  (1) 
2

>  <PUBCHEM_PHARMACOPHORE_FEATURES>  (1) 
6
1 1 acceptor
1 1 donor
1 2 acceptor
1 2 donor
1 3 cation
1 3 donor

>  <PUBCHEM_HEAVY_ATOM_COUNT>  (1) 
7

>  <PUBCHEM_ATOM_DEF_STEREO_COUNT>  (1) 
0

>  <PUBCHEM_ATOM_UDEF_STEREO_COUNT>  (1) 
0

>  <PUBCHEM_BOND_DEF_STEREO_COUNT>  (1) 
0

>  <PUBCHEM_BOND_UDEF_STEREO_COUNT>  (1) 
0

>  <PUBCHEM_ISOTOPIC_ATOM_COUNT>  (1) 
0

>  <PUBCHEM_COMPONENT_COUNT>  (1) 
1

>  <PUBCHEM_CACTVS_TAUTO_COUNT>  (1) 
1

>  <PUBCHEM_CONFORMER_ID>  (1) 
000005FB00000004

>  <PUBCHEM_MMFF94_ENERGY>  (1) 
7.445

>  <PUBCHEM_FEATURE_SELFOVERLAP>  (1) 
30.449

>  <PUBCHEM_SHAPE_FINGERPRINT>  (1) 
137420 1 10147687125574120805
139733 1 10303802181544205443
21040471 1 17757840300360748433
23552449 11 18336530720527296371
29004967 10 18271801294184443178
5943 1 8636269845972117276

>  <PUBCHEM_SHAPE_MULTIPOLES>  (1) 
127.34
2.16
1.21
1.05
0.18
0.11
0.26
-0.91
-0.03
-0.17
-0.07
0.01
0.38
0

>  <PUBCHEM_SHAPE_SELFOVERLAP>  (1) 
229.13

>  <PUBCHEM_SHAPE_VOLUME>  (1) 
83.2

>  <PUBCHEM_COORDINATE_TYPE>  (1) 
2
5
10

$$$$
