15321
     RDKit          3D

 16 17  0  0  0  0  0  0  0  0999 V2000
   -6.1040   -0.0001    0.0000 N   0  0  0  0  0  0  0  0  0  0  0  0
    6.1040    0.0000   -0.0001 N   0  0  0  0  0  0  0  0  0  0  0  0
   -0.7234    0.0000    0.0000 C   0  0  0  0  0  0  0  0  0  0  0  0
    0.7233    0.0000    0.0000 C   0  0  0  0  0  0  0  0  0  0  0  0
   -1.4208    1.1668    0.3126 C   0  0  0  0  0  0  0  0  0  0  0  0
    1.4208    1.1668   -0.3125 C   0  0  0  0  0  0  0  0  0  0  0  0
   -1.4208   -1.1668   -0.3126 C   0  0  0  0  0  0  0  0  0  0  0  0
    1.4208   -1.1668    0.3126 C   0  0  0  0  0  0  0  0  0  0  0  0
   -2.8157    1.1669    0.3127 C   0  0  0  0  0  0  0  0  0  0  0  0
    2.8158    1.1668   -0.3126 C   0  0  0  0  0  0  0  0  0  0  0  0
   -2.8157   -1.1668   -0.3127 C   0  0  0  0  0  0  0  0  0  0  0  0
    2.8157   -1.1668    0.3127 C   0  0  0  0  0  0  0  0  0  0  0  0
   -3.5131    0.0001    0.0000 C   0  0  0  0  0  0  0  0  0  0  0  0
    3.5131    0.0000    0.0000 C   0  0  0  0  0  0  0  0  0  0  0  0
   -4.9419    0.0000    0.0000 C   0  0  0  0  0  0  0  0  0  0  0  0
    4.9419    0.0000    0.0000 C   0  0  0  0  0  0  0  0  0  0  0  0
  1 15  3  0
  2 16  3  0
  3  4  1  0
  3  5  2  0
  3  7  1  0
  4  6  2  0
  4  8  1  0
  5  9  1  0
  6 10  1  0
  7 11  2  0
  8 12  2  0
  9 13  2  0
 10 14  2  0
 11 13  1  0
 12 14  1  0
 13 15  1  0
 14 16  1  0
M  END
>  <PUBCHEM_COMPOUND_CID>  (1) 
15321

>  <PUBCHEM_CONFORMER_RMSD>  (1) 
0.6

>  <PUBCHEM_CONFORMER_DIVERSEORDER>  (1) 
1

>  <PUBCHEM_MMFF94_PARTIAL_CHARGES>  (1) 
22
1 -0.56
10 -0.15
11 -0.15
12 -0.15
13 0.07
14 0.07
15 0.48
16 0.48
17 0.15
18 0.15
19 0.15
2 -0.56
20 0.15
21 0.15
22 0.15
23 0.15
24 0.15
5 -0.15
6 -0.15
7 -0.15
8 -0.15
9 -0.15

>  <PUBCHEM_EFFECTIVE_ROTOR_COUNT>  (1) 
1

>  <PUBCHEM_PHARMACOPHORE_FEATURES>  (1) 
4
1 1 acceptor
1 2 acceptor
6 3 5 7 9 11 13 rings
6 4 6 8 10 12 14 rings

>  <PUBCHEM_HEAVY_ATOM_COUNT>  (1) 
16

>  <PUBCHEM_ATOM_DEF_STEREO_COUNT>  (1) 
0

>  <PUBCHEM_ATOM_UDEF_STEREO_COUNT>  (1) 
0

>  <PUBCHEM_BOND_DEF_STEREO_COUNT>  (1) 
0

>  <PUBCHEM_BOND_UDEF_STEREO_COUNT>  (1) 
0

>  <PUBCHEM_ISOTOPIC_ATOM_COUNT>  (1) 
0

>  <PUBCHEM_COMPONENT_COUNT>  (1) 
1

>  <PUBCHEM_CACTVS_TAUTO_COUNT>  (1) 
1

>  <PUBCHEM_CONFORMER_ID>  (1) 
00003BD900000001

>  <PUBCHEM_MMFF94_ENERGY>  (1) 
42.6456

>  <PUBCHEM_FEATURE_SELFOVERLAP>  (1) 
20.297

>  <PUBCHEM_SHAPE_FINGERPRINT>  (1) 
10968037 39 18411419527121246303
11401426 45 18410291424043847794
12107183 9 17618221710962590465
12236239 1 18410573980856483849
12251169 10 18410855464423129231
13288520 33 18344148089708006181
13533116 47 15841278043359113214
17802600 8 18410853265400341249
17834072 33 18410855490245687092
17834076 25 18410573989446450927
18186145 218 17749379420861701543
18522853 276 18413671309502088640
200 152 18413666907408387065
20510252 161 17988647324843185649
20645477 70 18262515884139173082
21267235 1 18410582785539512099
2297311 6 17917722287848111660
23402539 116 18060132154937781917
23402655 69 18336823104773809693
23557571 272 17561369448072709688
23559900 14 18271800289167565728
26918003 58 17968098637867410411
34797466 226 17274830185951830108
3545911 37 18410856559655769750
4214541 1 18411419492535011777
42788 4 18410855460128174789
4463277 17 18410575084663351748
474 4 17823142383515811668
5104073 3 18338797939104678817
59755656 215 18271813389123877782
59755656 520 17095238146576868075
69090 78 18342736325790025487

>  <PUBCHEM_SHAPE_MULTIPOLES>  (1) 
319.31
11.62
1.31
0.66
0
0
0
0
0
0
0
0
0
-0.4

>  <PUBCHEM_SHAPE_SELFOVERLAP>  (1) 
697.187

>  <PUBCHEM_SHAPE_VOLUME>  (1) 
169.4

>  <PUBCHEM_COORDINATE_TYPE>  (1) 
2
5
10

$$$$
