15326
     RDKit          3D

 10 10  0  0  0  0  0  0  0  0999 V2000
   -3.4690   -0.5398    0.2043 O   0  0  0  0  0  0  0  0  0  0  0  0
    2.8713   -0.1846    0.0437 N   0  0  0  0  0  0  0  0  0  0  0  0
   -1.9268    1.4341   -0.4762 N   0  0  0  0  0  0  0  0  0  0  0  0
   -2.1007   -0.8151    0.2909 N   0  0  0  0  0  0  0  0  0  0  0  0
    0.0897    0.0831   -0.0278 C   0  0  0  0  0  0  0  0  0  0  0  0
    0.6773   -1.1581   -0.2464 C   0  0  0  0  0  0  0  0  0  0  0  0
    0.8912    1.1906    0.2263 C   0  0  0  0  0  0  0  0  0  0  0  0
   -1.3570    0.2224   -0.0653 C   0  0  0  0  0  0  0  0  0  0  0  0
    2.0599   -1.2381   -0.2004 C   0  0  0  0  0  0  0  0  0  0  0  0
    2.2642    1.0054    0.2511 C   0  0  0  0  0  0  0  0  0  0  0  0
  1  4  1  0
  2  9  2  0
  2 10  1  0
  3  8  1  0
  4  8  2  0
  5  6  2  0
  5  7  1  0
  5  8  1  0
  6  9  1  0
  7 10  2  0
M  END
>  <PUBCHEM_COMPOUND_CID>  (1) 
15326

>  <PUBCHEM_CONFORMER_RMSD>  (1) 
0.4

>  <PUBCHEM_CONFORMER_DIVERSEORDER>  (1) 
1

>  <PUBCHEM_MMFF94_PARTIAL_CHARGES>  (1) 
17
1 -0.34
10 0.16
11 0.15
12 0.15
13 0.15
14 0.15
15 0.4
16 0.4
17 0.4
2 -0.62
3 -0.85
4 -0.51
5 0.09
6 -0.15
7 -0.15
8 0.41
9 0.16

>  <PUBCHEM_EFFECTIVE_ROTOR_COUNT>  (1) 
1

>  <PUBCHEM_PHARMACOPHORE_FEATURES>  (1) 
5
1 1 anion
1 2 acceptor
1 3 donor
3 3 4 8 cation
6 2 5 6 7 9 10 rings

>  <PUBCHEM_HEAVY_ATOM_COUNT>  (1) 
10

>  <PUBCHEM_ATOM_DEF_STEREO_COUNT>  (1) 
0

>  <PUBCHEM_ATOM_UDEF_STEREO_COUNT>  (1) 
0

>  <PUBCHEM_BOND_DEF_STEREO_COUNT>  (1) 
0

>  <PUBCHEM_BOND_UDEF_STEREO_COUNT>  (1) 
1

>  <PUBCHEM_ISOTOPIC_ATOM_COUNT>  (1) 
0

>  <PUBCHEM_COMPONENT_COUNT>  (1) 
1

>  <PUBCHEM_CACTVS_TAUTO_COUNT>  (1) 
5

>  <PUBCHEM_CONFORMER_ID>  (1) 
00003BDE00000001

>  <PUBCHEM_MMFF94_ENERGY>  (1) 
30.9324

>  <PUBCHEM_FEATURE_SELFOVERLAP>  (1) 
25.371

>  <PUBCHEM_SHAPE_FINGERPRINT>  (1) 
10857977 72 18335975445527400088
12897270 3 18409165519462262333
12932764 1 17632287990871275700
14325111 11 18411418422993040664
16945 1 18339636840939021334
19973954 147 18410012100371434060
20201158 50 18410012134868225099
20871998 22 17914343377100066726
21040471 1 18341045341409954700
23402655 69 18198326382915208813
23552423 10 18188214204069337830
2748010 2 18340201882541528940
29004967 10 18342457011028695514
5084963 1 18411703205194724696

>  <PUBCHEM_SHAPE_MULTIPOLES>  (1) 
184.98
4.29
1.43
0.63
2.02
0.1
0.01
-0.44
-0.25
-0.26
0.07
0.01
0.02
0.34

>  <PUBCHEM_SHAPE_SELFOVERLAP>  (1) 
382.767

>  <PUBCHEM_SHAPE_VOLUME>  (1) 
104.7

>  <PUBCHEM_COORDINATE_TYPE>  (1) 
2
5
10

$$$$
