15327
     RDKit          3D

 11 11  0  0  0  0  0  0  0  0999 V2000
    1.2707   -0.2132   -0.9319 C   0  0  0  0  0  0  0  0  0  0  0  0
    2.2447    0.0474    0.2192 C   0  0  0  0  0  0  0  0  0  0  0  0
   -0.1524   -0.3156   -0.4455 C   0  0  0  0  0  0  0  0  0  0  0  0
    3.6794    0.1852   -0.2899 C   0  0  0  0  0  0  0  0  0  0  0  0
   -0.9342    0.8282   -0.3782 C   0  0  0  0  0  0  0  0  0  0  0  0
   -0.6574   -1.5523   -0.0719 C   0  0  0  0  0  0  0  0  0  0  0  0
   -2.2507    0.7330    0.0728 C   0  0  0  0  0  0  0  0  0  0  0  0
    4.6470    0.4847    0.8440 C   0  0  0  0  0  0  0  0  0  0  0  0
   -1.9739   -1.6474    0.3790 C   0  0  0  0  0  0  0  0  0  0  0  0
   -2.7706   -0.5049    0.4514 C   0  0  0  0  0  0  0  0  0  0  0  0
   -3.1026    1.9548    0.1512 C   0  0  0  0  0  0  0  0  0  0  0  0
  1  2  1  0
  1  3  1  0
  2  4  1  0
  3  5  2  0
  3  6  1  0
  4  8  1  0
  5  7  1  0
  6  9  2  0
  7 10  2  0
  7 11  1  0
  9 10  1  0
M  END
>  <PUBCHEM_COMPOUND_CID>  (1) 
15327

>  <PUBCHEM_CONFORMER_RMSD>  (1) 
0.6

>  <PUBCHEM_CONFORMER_DIVERSEORDER>  (1) 
1
7
3
5
8
6
2
4

>  <PUBCHEM_MMFF94_PARTIAL_CHARGES>  (1) 
12
1 0.14
10 -0.15
11 0.14
18 0.15
19 0.15
23 0.15
24 0.15
3 -0.14
5 -0.15
6 -0.15
7 -0.14
9 -0.15

>  <PUBCHEM_EFFECTIVE_ROTOR_COUNT>  (1) 
3

>  <PUBCHEM_PHARMACOPHORE_FEATURES>  (1) 
2
1 8 hydrophobe
6 3 5 6 7 9 10 rings

>  <PUBCHEM_HEAVY_ATOM_COUNT>  (1) 
11

>  <PUBCHEM_ATOM_DEF_STEREO_COUNT>  (1) 
0

>  <PUBCHEM_ATOM_UDEF_STEREO_COUNT>  (1) 
0

>  <PUBCHEM_BOND_DEF_STEREO_COUNT>  (1) 
0

>  <PUBCHEM_BOND_UDEF_STEREO_COUNT>  (1) 
0

>  <PUBCHEM_ISOTOPIC_ATOM_COUNT>  (1) 
0

>  <PUBCHEM_COMPONENT_COUNT>  (1) 
1

>  <PUBCHEM_CACTVS_TAUTO_COUNT>  (1) 
1

>  <PUBCHEM_CONFORMER_ID>  (1) 
00003BDF00000001

>  <PUBCHEM_MMFF94_ENERGY>  (1) 
17.697

>  <PUBCHEM_FEATURE_SELFOVERLAP>  (1) 
10.148

>  <PUBCHEM_SHAPE_FINGERPRINT>  (1) 
10608611 8 18343865515594343936
122479 349 18272087175866372488
12251169 10 18261114088422905364
124424 183 18060134319706644432
12932764 1 17703511073259502254
13024252 1 13406786727576524295
13296909 8 18408321111680416149
14325111 11 18411140199454162318
14445660 50 18187083962330419052
14577589 140 12901546853620261985
14897335 6 18337107856942331983
15219456 202 18202010884675609662
15775835 57 18261394403642369304
16945 1 18264508298335407231
17846911 113 18340768152404741905
18186145 218 16128381497543748340
19422 9 17821732766843523682
20510252 161 18343027674753956233
20645464 45 18201444678830834279
20645477 56 18412831269665013512
20645477 70 16773805745218621126
20871998 184 18270409407069393727
21040471 1 18191323588983314311
23402539 116 18340197579480339631
23403322 49 11098122354509917200
23500284 214 18272658896106043857
23559900 14 18269567061541373046
2748010 2 18047494248234924383
3086196 2 18263644128976534771
6333449 129 18413108364080758119
75552 356 18335423490706048158
90316 7 17821722810846114188

>  <PUBCHEM_SHAPE_MULTIPOLES>  (1) 
226.37
6.92
1.6
0.84
8.38
0.02
-0.02
2.29
1.84
-1.83
0.13
0.34
-0.01
0.27

>  <PUBCHEM_SHAPE_SELFOVERLAP>  (1) 
451.235

>  <PUBCHEM_SHAPE_VOLUME>  (1) 
131.4

>  <PUBCHEM_COORDINATE_TYPE>  (1) 
2
5
10

$$$$
