15328
     RDKit          3D

 11 11  0  0  0  0  0  0  0  0999 V2000
    2.3502   -0.0206    0.2544 C   0  0  0  0  0  0  0  0  0  0  0  0
    1.4054   -0.0446   -0.9491 C   0  0  0  0  0  0  0  0  0  0  0  0
    3.8128   -0.0054   -0.1898 C   0  0  0  0  0  0  0  0  0  0  0  0
   -0.0403   -0.0237   -0.5234 C   0  0  0  0  0  0  0  0  0  0  0  0
   -0.7029   -1.2217   -0.2999 C   0  0  0  0  0  0  0  0  0  0  0  0
   -0.6853    1.1936   -0.3616 C   0  0  0  0  0  0  0  0  0  0  0  0
    4.7563    0.0595    1.0006 C   0  0  0  0  0  0  0  0  0  0  0  0
   -2.7010    0.0154    0.2602 C   0  0  0  0  0  0  0  0  0  0  0  0
   -2.0408   -1.2020    0.0940 C   0  0  0  0  0  0  0  0  0  0  0  0
   -2.0233    1.2131    0.0324 C   0  0  0  0  0  0  0  0  0  0  0  0
   -4.1311    0.0364    0.6823 C   0  0  0  0  0  0  0  0  0  0  0  0
  1  2  1  0
  1  3  1  0
  2  4  1  0
  3  7  1  0
  4  5  2  0
  4  6  1  0
  5  9  1  0
  6 10  2  0
  8  9  2  0
  8 10  1  0
  8 11  1  0
M  END
>  <PUBCHEM_COMPOUND_CID>  (1) 
15328

>  <PUBCHEM_CONFORMER_RMSD>  (1) 
0.6

>  <PUBCHEM_CONFORMER_DIVERSEORDER>  (1) 
1
3
2
4

>  <PUBCHEM_MMFF94_PARTIAL_CHARGES>  (1) 
12
10 -0.15
11 0.14
18 0.15
19 0.15
2 0.14
23 0.15
24 0.15
4 -0.14
5 -0.15
6 -0.15
8 -0.14
9 -0.15

>  <PUBCHEM_EFFECTIVE_ROTOR_COUNT>  (1) 
3

>  <PUBCHEM_PHARMACOPHORE_FEATURES>  (1) 
2
1 7 hydrophobe
6 4 5 6 8 9 10 rings

>  <PUBCHEM_HEAVY_ATOM_COUNT>  (1) 
11

>  <PUBCHEM_ATOM_DEF_STEREO_COUNT>  (1) 
0

>  <PUBCHEM_ATOM_UDEF_STEREO_COUNT>  (1) 
0

>  <PUBCHEM_BOND_DEF_STEREO_COUNT>  (1) 
0

>  <PUBCHEM_BOND_UDEF_STEREO_COUNT>  (1) 
0

>  <PUBCHEM_ISOTOPIC_ATOM_COUNT>  (1) 
0

>  <PUBCHEM_COMPONENT_COUNT>  (1) 
1

>  <PUBCHEM_CACTVS_TAUTO_COUNT>  (1) 
1

>  <PUBCHEM_CONFORMER_ID>  (1) 
00003BE000000001

>  <PUBCHEM_MMFF94_ENERGY>  (1) 
17.7113

>  <PUBCHEM_FEATURE_SELFOVERLAP>  (1) 
10.148

>  <PUBCHEM_SHAPE_FINGERPRINT>  (1) 
11062470 55 16845577504239263587
11132069 177 18343304768631857687
11401426 45 18412260632468945949
12119455 92 17275101704386766125
12251169 10 18410574002684839196
13024252 1 14490189397550937045
13214271 11 16988559125912817525
13897977 58 18338240461493817564
15219456 202 17987805098719855918
16945 1 18338252508887268679
17846911 113 18272934907805031057
200 152 14996279223701447712
20528008 55 18272366485947152084
20645464 45 17989209247861332647
20645477 70 13767918006395105080
21119208 17 11239998953774524376
21293036 1 10159699075353699951
22485316 2 14923943466159322480
22926399 37 14405183980090534714
23402539 116 18342730824126602781
23403322 49 12901811789094881168
2748010 2 17976557022138183927
42 15 18186520986396191026

>  <PUBCHEM_SHAPE_MULTIPOLES>  (1) 
226.37
7.73
1.15
0.89
6.47
0.01
-0.02
-0.16
-3.01
-0.72
0.07
0.37
-0.01
0.04

>  <PUBCHEM_SHAPE_SELFOVERLAP>  (1) 
451.213

>  <PUBCHEM_SHAPE_VOLUME>  (1) 
130

>  <PUBCHEM_COORDINATE_TYPE>  (1) 
2
5
10

$$$$
