15339
     RDKit          3D

 26 28  0  0  0  0  0  0  0  0999 V2000
   -6.5003   -0.6977    1.7683 Cl  0  0  0  0  0  0  0  0  0  0  0  0
    1.7076   -4.2548   -0.1705 O   0  0  0  0  0  0  0  0  0  0  0  0
   -1.6978    2.4722   -1.5331 O   0  0  0  0  0  0  0  0  0  0  0  0
    5.2122    1.6807    0.6829 O   0  0  0  0  0  0  0  0  0  0  0  0
    3.2347    1.2197    1.7767 O   0  0  0  0  0  0  0  0  0  0  0  0
   -0.2965    0.8647   -0.7744 N   0  0  0  0  0  0  0  0  0  0  0  0
    1.9421    0.6820   -0.6667 C   0  0  0  0  0  0  0  0  0  0  0  0
    1.3961   -0.6179   -0.5543 C   0  0  0  0  0  0  0  0  0  0  0  0
    0.0013   -0.4935   -0.6184 C   0  0  0  0  0  0  0  0  0  0  0  0
    0.8967    1.5620   -0.7921 C   0  0  0  0  0  0  0  0  0  0  0  0
    3.3787    1.0307   -0.6474 C   0  0  0  0  0  0  0  0  0  0  0  0
    1.9740   -1.8956   -0.4006 C   0  0  0  0  0  0  0  0  0  0  0  0
   -0.8252   -1.6311   -0.5414 C   0  0  0  0  0  0  0  0  0  0  0  0
    0.9881    3.0350   -0.9322 C   0  0  0  0  0  0  0  0  0  0  0  0
   -1.5774    1.4525   -0.8620 C   0  0  0  0  0  0  0  0  0  0  0  0
    1.1511   -3.0205   -0.3187 C   0  0  0  0  0  0  0  0  0  0  0  0
   -0.2297   -2.8875   -0.3895 C   0  0  0  0  0  0  0  0  0  0  0  0
   -2.7919    0.9212   -0.2138 C   0  0  0  0  0  0  0  0  0  0  0  0
    3.8976    1.3124    0.7525 C   0  0  0  0  0  0  0  0  0  0  0  0
   -2.6858    0.2114    0.9794 C   0  0  0  0  0  0  0  0  0  0  0  0
   -4.0383    1.1337   -0.7975 C   0  0  0  0  0  0  0  0  0  0  0  0
   -3.8339   -0.2896    1.5931 C   0  0  0  0  0  0  0  0  0  0  0  0
   -5.1864    0.6327   -0.1838 C   0  0  0  0  0  0  0  0  0  0  0  0
   -5.0843   -0.0788    1.0117 C   0  0  0  0  0  0  0  0  0  0  0  0
    3.1309   -4.3206   -0.1047 C   0  0  0  0  0  0  0  0  0  0  0  0
    5.8364    1.9767    1.9365 C   0  0  0  0  0  0  0  0  0  0  0  0
  1 24  1  0
  2 16  1  0
  2 25  1  0
  3 15  2  0
  4 19  1  0
  4 26  1  0
  5 19  2  0
  6  9  1  0
  6 10  1  0
  6 15  1  0
  7  8  1  0
  7 10  2  0
  7 11  1  0
  8  9  2  0
  8 12  1  0
  9 13  1  0
 10 14  1  0
 11 19  1  0
 12 16  2  0
 13 17  2  0
 15 18  1  0
 16 17  1  0
 18 20  2  0
 18 21  1  0
 20 22  1  0
 21 23  2  0
 22 24  2  0
 23 24  1  0
M  END
>  <PUBCHEM_COMPOUND_CID>  (1) 
15339

>  <PUBCHEM_CONFORMER_RMSD>  (1) 
0.8

>  <PUBCHEM_CONFORMER_DIVERSEORDER>  (1) 
1
44
40
16
49
32
7
56
66
26
62
59
20
41
43
64
11
19
25
8
68
31
42
37
53
47
46
23
10
45
58
36
52
39
12
3
29
54
18
67
34
63
27
9
51
22
24
57
28
55
38
33
48
14
61
17
6
15
5
50
30
21
13
60
65
4
35
2

>  <PUBCHEM_MMFF94_PARTIAL_CHARGES>  (1) 
32
1 -0.18
10 -0.33
11 0.24
12 -0.15
13 -0.15
14 0.18
15 0.49
16 0.08
17 -0.15
18 0.09
19 0.66
2 -0.36
20 -0.15
21 -0.15
22 -0.15
23 -0.15
24 0.18
25 0.28
26 0.28
29 0.15
3 -0.57
30 0.15
34 0.15
35 0.15
36 0.15
37 0.15
38 0.15
4 -0.43
5 -0.57
6 0.29
7 -0.18
9 -0.15

>  <PUBCHEM_EFFECTIVE_ROTOR_COUNT>  (1) 
6

>  <PUBCHEM_PHARMACOPHORE_FEATURES>  (1) 
6
1 2 acceptor
1 3 acceptor
1 5 acceptor
5 6 7 8 9 10 rings
6 18 20 21 22 23 24 rings
6 8 9 12 13 16 17 rings

>  <PUBCHEM_HEAVY_ATOM_COUNT>  (1) 
26

>  <PUBCHEM_ATOM_DEF_STEREO_COUNT>  (1) 
0

>  <PUBCHEM_ATOM_UDEF_STEREO_COUNT>  (1) 
0

>  <PUBCHEM_BOND_DEF_STEREO_COUNT>  (1) 
0

>  <PUBCHEM_BOND_UDEF_STEREO_COUNT>  (1) 
0

>  <PUBCHEM_ISOTOPIC_ATOM_COUNT>  (1) 
0

>  <PUBCHEM_COMPONENT_COUNT>  (1) 
1

>  <PUBCHEM_CACTVS_TAUTO_COUNT>  (1) 
1

>  <PUBCHEM_CONFORMER_ID>  (1) 
00003BEB00000001

>  <PUBCHEM_MMFF94_ENERGY>  (1) 
78.2275

>  <PUBCHEM_FEATURE_SELFOVERLAP>  (1) 
30.536

>  <PUBCHEM_SHAPE_FINGERPRINT>  (1) 
10074138 170 18048296036877172346
10165383 225 18343026631319847168
10493431 412 18341609373468528172
11070050 100 18131623508966648530
11578080 2 18200026215054639625
11963148 33 18114471166376683267
12035758 1 18338232777386173936
12293681 25 17533813504985021907
12422481 6 18261656109375370074
12596602 18 17418104226114902899
12633257 1 17750243654603152305
12788726 201 17477487972304109382
12839892 36 18335701710314125259
12892183 10 18270411503519745249
13140716 1 18122628511487414181
13540713 4 18117272554257048821
14028597 1 17632296731878810282
14444916 359 18413108369262085114
14787075 74 17703788171427401897
14790565 3 18119262902152767524
14863182 85 18261972793971610494
14955137 171 18261117404597094148
15420108 30 18271802466690130518
15475509 84 17625274008877669849
15927050 60 18342734152885389830
16728300 4 17460006566450886184
16994733 274 15841550812099082776
17913733 40 18342454846265062290
17974551 9 17402100666378769905
1813 80 11963662284076066296
1979834 28 18336276699197819489
20028762 73 18126569152898717311
20511986 3 18202563969917079987
20603629 256 18199194996726280291
20642791 13 17913201255069956030
20771845 171 17750254602242928254
21033648 29 18199165408565534824
21197605 99 17901973038491478987
21304303 172 17693090082403527798
21637258 2 14924209565111578192
221490 88 18117849798009421551
22182313 1 18188766137278762244
22224240 67 18271523203747560825
22956985 138 17824258203256120082
23559900 14 17897451588309320543
25222932 49 17024323027008966731
255183 313 18268135625871095368
2748010 2 18190738631142877516
283562 15 16174261149231963332
2838139 119 16056599902141273320
3421961 26 18264779757258667799
392239 28 17845101838546146505
427121 178 18130794481399150952
4340502 62 18130235942561720123
465052 167 17604153730500679481
469060 322 18191291866449883647
474 4 17346031294010932368
5104073 3 18266467512339952921
5265222 85 18336551620940750868
5385378 56 18341902874079361458
58807428 26 18339355361978761634
59755656 520 17917712443566538404
6669772 16 18342747312801900014
6679774 75 18041000661864661410
7288768 16 17056082441583263104
9709674 26 18115594734415898885

>  <PUBCHEM_SHAPE_MULTIPOLES>  (1) 
508.48
11.21
4.16
1.5
7.5
5.22
0.68
-4.09
7.91
-5.63
-0.81
0.03
-0.79
2.27

>  <PUBCHEM_SHAPE_SELFOVERLAP>  (1) 
1098.5

>  <PUBCHEM_SHAPE_VOLUME>  (1) 
281.6

>  <PUBCHEM_COORDINATE_TYPE>  (1) 
2
5
10

$$$$
