15344
     RDKit          3D

 18 18  0  0  0  0  0  0  0  0999 V2000
   -2.3978    4.0287    0.6684 Cl  0  0  0  0  0  0  0  0  0  0  0  0
   -5.7251   -2.0359    0.1768 Cl  0  0  0  0  0  0  0  0  0  0  0  0
    0.0984    0.1021   -1.5327 O   0  0  0  0  0  0  0  0  0  0  0  0
   -2.3016    0.0864   -0.2619 N   0  0  0  0  0  0  0  0  0  0  0  0
    1.1445   -1.0926    0.1949 N   0  0  0  0  0  0  0  0  0  0  0  0
   -1.3335   -0.9560    0.0632 C   0  0  0  0  0  0  0  0  0  0  0  0
   -1.8871    1.3691    0.3081 C   0  0  0  0  0  0  0  0  0  0  0  0
   -3.6332   -0.2791    0.2230 C   0  0  0  0  0  0  0  0  0  0  0  0
    0.0283   -0.5793   -0.5063 C   0  0  0  0  0  0  0  0  0  0  0  0
   -2.8865    2.4644   -0.0293 C   0  0  0  0  0  0  0  0  0  0  0  0
   -4.1090   -1.5752   -0.4141 C   0  0  0  0  0  0  0  0  0  0  0  0
    2.4437   -0.4567    0.1068 C   0  0  0  0  0  0  0  0  0  0  0  0
    1.0792   -2.3482    0.9590 C   0  0  0  0  0  0  0  0  0  0  0  0
    2.4855    0.8952   -0.1030 C   0  0  0  0  0  0  0  0  0  0  0  0
    3.5558   -1.2437    0.2388 C   0  0  0  0  0  0  0  0  0  0  0  0
    3.7359    1.5075   -0.1874 C   0  0  0  0  0  0  0  0  0  0  0  0
    4.8063   -0.6312    0.1544 C   0  0  0  0  0  0  0  0  0  0  0  0
    4.8962    0.7444   -0.0586 C   0  0  0  0  0  0  0  0  0  0  0  0
  1 10  1  0
  2 11  1  0
  3  9  2  0
  4  6  1  0
  4  7  1  0
  4  8  1  0
  5  9  1  0
  5 12  1  0
  5 13  1  0
  6  9  1  0
  7 10  1  0
  8 11  1  0
 12 14  2  0
 12 15  1  0
 14 16  1  0
 15 17  2  0
 16 18  2  0
 17 18  1  0
M  END
>  <PUBCHEM_COMPOUND_CID>  (1) 
15344

>  <PUBCHEM_CONFORMER_RMSD>  (1) 
0.8

>  <PUBCHEM_CONFORMER_DIVERSEORDER>  (1) 
7
20
55
42
58
67
36
2
39
22
66
11
15
6
8
19
56
57
46
21
35
49
9
24
33
60
64
43
29
4
1
62
41
31
45
34
28
23
37
65
50
30
3
52
14
40
54
51
13
32
59
17
47
16
18
48
61
38
53
25
44
10
27
12
5
63
26

>  <PUBCHEM_MMFF94_PARTIAL_CHARGES>  (1) 
23
1 -0.29
10 0.29
11 0.29
12 0.12
13 0.3
14 -0.15
15 -0.15
16 -0.15
17 -0.15
18 -0.15
2 -0.29
3 -0.57
32 0.15
33 0.15
34 0.15
35 0.15
36 0.15
4 -0.81
5 -0.48
6 0.33
7 0.27
8 0.27
9 0.57

>  <PUBCHEM_EFFECTIVE_ROTOR_COUNT>  (1) 
8

>  <PUBCHEM_PHARMACOPHORE_FEATURES>  (1) 
3
1 3 acceptor
1 4 cation
6 12 14 15 16 17 18 rings

>  <PUBCHEM_HEAVY_ATOM_COUNT>  (1) 
18

>  <PUBCHEM_ATOM_DEF_STEREO_COUNT>  (1) 
0

>  <PUBCHEM_ATOM_UDEF_STEREO_COUNT>  (1) 
0

>  <PUBCHEM_BOND_DEF_STEREO_COUNT>  (1) 
0

>  <PUBCHEM_BOND_UDEF_STEREO_COUNT>  (1) 
0

>  <PUBCHEM_ISOTOPIC_ATOM_COUNT>  (1) 
0

>  <PUBCHEM_COMPONENT_COUNT>  (1) 
1

>  <PUBCHEM_CACTVS_TAUTO_COUNT>  (1) 
1

>  <PUBCHEM_CONFORMER_ID>  (1) 
00003BF000000007

>  <PUBCHEM_MMFF94_ENERGY>  (1) 
61.9315

>  <PUBCHEM_FEATURE_SELFOVERLAP>  (1) 
15.223

>  <PUBCHEM_SHAPE_FINGERPRINT>  (1) 
10366900 7 18334581282037174114
10670039 82 18262533554315118124
11045515 52 18261104232053457021
12107183 9 17688304595250120714
12403260 363 18334292067903792682
12633257 1 17899407585156565992
12788726 201 18335693936903419843
12916748 109 18412828014696747722
13073987 5 18410849937702403458
14289901 80 18409728426371312339
14787075 74 18262798613361943467
15196674 1 18410292484911624720
15375358 24 11963383033697242488
17492 89 18340205180866233974
17834072 32 17980764839842168377
200 152 18334007324578717823
201361 129 18190743029521600130
20286276 3 18124321510502675607
20510252 161 18341896277325904321
21267235 1 18411143545655984334
21652331 79 18341611568049136368
221357 26 18343586261141982156
22182937 141 18127416657209669369
22485316 2 9295286140794619822
23402539 116 18271802462906301223
23557571 272 18342744009597131973
23558518 356 18263092011326201387
26918003 58 17894912979502189867
3286 77 18334571339646806398
4214541 1 18410292467388786260
474229 33 18335983172337816875
5104073 3 18339636742386908898
5283173 99 18115010936807546973
5486654 2 18336550537696745647
7495541 125 17560516325754734034
77779 3 18411138004926347030

>  <PUBCHEM_SHAPE_MULTIPOLES>  (1) 
358.34
10.82
3.26
0.83
0.47
3.53
0.08
-2.9
-0.3
4.11
-0.89
0.04
-0.04
-0.75

>  <PUBCHEM_SHAPE_SELFOVERLAP>  (1) 
700.836

>  <PUBCHEM_SHAPE_VOLUME>  (1) 
218.7

>  <PUBCHEM_COORDINATE_TYPE>  (1) 
2
5
10

$$$$
