15348
     RDKit          3D

  8  8  0  0  0  0  0  0  0  0999 V2000
   -0.7214   -1.2066   -0.0002 N   0  0  0  0  0  0  0  0  0  0  0  0
   -2.7717    0.0074    0.0004 N   0  0  0  0  0  0  0  0  0  0  0  0
    1.3740   -0.0007   -0.0004 C   0  0  0  0  0  0  0  0  0  0  0  0
    0.6867    1.2080   -0.0002 C   0  0  0  0  0  0  0  0  0  0  0  0
   -0.7038    1.2108    0.0000 C   0  0  0  0  0  0  0  0  0  0  0  0
    0.6300   -1.1696   -0.0001 C   0  0  0  0  0  0  0  0  0  0  0  0
   -1.3547   -0.0123   -0.0001 C   0  0  0  0  0  0  0  0  0  0  0  0
    2.8609   -0.0371    0.0006 C   0  0  0  0  0  0  0  0  0  0  0  0
  1  6  2  0
  1  7  1  0
  2  7  1  0
  3  4  2  0
  3  6  1  0
  3  8  1  0
  4  5  1  0
  5  7  2  0
M  END
>  <PUBCHEM_COMPOUND_CID>  (1) 
15348

>  <PUBCHEM_CONFORMER_RMSD>  (1) 
0.4

>  <PUBCHEM_CONFORMER_DIVERSEORDER>  (1) 
1

>  <PUBCHEM_MMFF94_PARTIAL_CHARGES>  (1) 
13
1 -0.62
10 0.15
11 0.15
15 0.4
16 0.4
2 -0.9
3 -0.14
4 -0.15
5 -0.15
6 0.16
7 0.41
8 0.14
9 0.15

>  <PUBCHEM_EFFECTIVE_ROTOR_COUNT>  (1) 
0

>  <PUBCHEM_PHARMACOPHORE_FEATURES>  (1) 
3
1 2 donor
3 1 2 7 cation
6 1 3 4 5 6 7 rings

>  <PUBCHEM_HEAVY_ATOM_COUNT>  (1) 
8

>  <PUBCHEM_ATOM_DEF_STEREO_COUNT>  (1) 
0

>  <PUBCHEM_ATOM_UDEF_STEREO_COUNT>  (1) 
0

>  <PUBCHEM_BOND_DEF_STEREO_COUNT>  (1) 
0

>  <PUBCHEM_BOND_UDEF_STEREO_COUNT>  (1) 
0

>  <PUBCHEM_ISOTOPIC_ATOM_COUNT>  (1) 
0

>  <PUBCHEM_COMPONENT_COUNT>  (1) 
1

>  <PUBCHEM_CACTVS_TAUTO_COUNT>  (1) 
2

>  <PUBCHEM_CONFORMER_ID>  (1) 
00003BF400000001

>  <PUBCHEM_MMFF94_ENERGY>  (1) 
25.1235

>  <PUBCHEM_FEATURE_SELFOVERLAP>  (1) 
15.223

>  <PUBCHEM_SHAPE_FINGERPRINT>  (1) 
16714656 1 18410576184412096580
18185500 45 18410008857697174494
21040471 1 18410856576840770752
23235685 24 18410852157324782380
23402655 69 18195226838509903021
23552423 10 18116433837491121742
29004967 10 18261118460583483857
5084963 1 18272089387610752888

>  <PUBCHEM_SHAPE_MULTIPOLES>  (1) 
154.67
3.18
1.31
0.6
0.22
0.04
0
-0.08
0
-0.04
0
0.04
0.01
0

>  <PUBCHEM_SHAPE_SELFOVERLAP>  (1) 
317.321

>  <PUBCHEM_SHAPE_VOLUME>  (1) 
88.3

>  <PUBCHEM_COORDINATE_TYPE>  (1) 
2
5
10

$$$$
