15342
     RDKit          3D

  8  7  0  0  1  0  0  0  0  0999 V2000
   -1.1810    0.4475    0.2057 C   0  0  0  0  0  0  0  0  0  0  0  0
    0.2481    0.4565   -0.2787 C   0  0  0  0  0  0  0  0  0  0  0  0
   -1.8592    1.7762   -0.1353 C   0  0  0  0  0  0  0  0  0  0  0  0
    2.7321    0.3685    0.0539 C   0  0  0  0  0  0  0  0  0  0  0  0
    1.3111    0.3534    0.5338 C   0  0  0  0  0  0  0  0  0  0  0  0
   -1.9437   -0.6975   -0.4119 C   0  0  0  0  0  0  0  0  0  0  0  0
    3.2258   -1.0348   -0.2613 C   0  0  0  0  0  0  0  0  0  0  0  0
   -2.5332   -1.6698    0.2938 C   0  0  0  0  0  0  0  0  0  0  0  0
  1  2  1  0
  1  3  1  0
  1  6  1  0
  2  5  2  0
  4  5  1  0
  4  7  1  0
  6  8  2  0
M  END
>  <PUBCHEM_COMPOUND_CID>  (1) 
15342

>  <PUBCHEM_CONFORMER_RMSD>  (1) 
0.6

>  <PUBCHEM_CONFORMER_DIVERSEORDER>  (1) 
1
4
11
9
12
8
7
3
2
10
6
5

>  <PUBCHEM_MMFF94_PARTIAL_CHARGES>  (1) 
11
1 0.28
10 0.15
16 0.15
17 0.15
2 -0.29
21 0.15
22 0.15
4 0.14
5 -0.29
6 -0.29
8 -0.3

>  <PUBCHEM_EFFECTIVE_ROTOR_COUNT>  (1) 
3

>  <PUBCHEM_PHARMACOPHORE_FEATURES>  (1) 
3
1 3 hydrophobe
1 7 hydrophobe
1 8 hydrophobe

>  <PUBCHEM_HEAVY_ATOM_COUNT>  (1) 
8

>  <PUBCHEM_ATOM_DEF_STEREO_COUNT>  (1) 
0

>  <PUBCHEM_ATOM_UDEF_STEREO_COUNT>  (1) 
0

>  <PUBCHEM_BOND_DEF_STEREO_COUNT>  (1) 
0

>  <PUBCHEM_BOND_UDEF_STEREO_COUNT>  (1) 
1

>  <PUBCHEM_ISOTOPIC_ATOM_COUNT>  (1) 
0

>  <PUBCHEM_COMPONENT_COUNT>  (1) 
1

>  <PUBCHEM_CACTVS_TAUTO_COUNT>  (1) 
1

>  <PUBCHEM_CONFORMER_ID>  (1) 
00003BEE00000001

>  <PUBCHEM_MMFF94_ENERGY>  (1) 
2.7765

>  <PUBCHEM_FEATURE_SELFOVERLAP>  (1) 
15.223

>  <PUBCHEM_SHAPE_FINGERPRINT>  (1) 
12716758 59 18340198579490294649
12897270 3 18261105305167247250
12932741 1 18130493176542883288
12932764 1 17531524287505702860
14325111 11 18411418397703148360
15310529 11 18271525385675232668
20281407 28 18271247234739542899
20871998 184 18272373087628501415
23552423 10 18260548926619199414
3248919 1 18339067233955213180

>  <PUBCHEM_SHAPE_MULTIPOLES>  (1) 
164.64
4.95
1.64
0.71
3.07
0.03
-0.01
1.75
0.16
-1.26
0
0
0.02
0.27

>  <PUBCHEM_SHAPE_SELFOVERLAP>  (1) 
296.037

>  <PUBCHEM_SHAPE_VOLUME>  (1) 
105.4

>  <PUBCHEM_COORDINATE_TYPE>  (1) 
2
5
10

$$$$
