15349
     RDKit          3D

 13 13  0  0  0  0  0  0  0  0999 V2000
    2.1477   -0.1356    0.3964 O   0  0  0  0  0  0  0  0  0  0  0  0
    0.3493    2.2302    0.5124 O   0  0  0  0  0  0  0  0  0  0  0  0
    1.7489    0.6903   -1.7405 O   0  0  0  0  0  0  0  0  0  0  0  0
   -1.0260    0.3460    0.0391 C   0  0  0  0  0  0  0  0  0  0  0  0
   -1.0761   -0.9244   -0.5349 C   0  0  0  0  0  0  0  0  0  0  0  0
   -2.1722    0.8986    0.6108 C   0  0  0  0  0  0  0  0  0  0  0  0
    0.2210    1.0940    0.0421 C   0  0  0  0  0  0  0  0  0  0  0  0
    3.3762   -0.7361   -0.0225 C   0  0  0  0  0  0  0  0  0  0  0  0
   -2.2722   -1.6420   -0.5375 C   0  0  0  0  0  0  0  0  0  0  0  0
   -3.3682    0.1808    0.6082 C   0  0  0  0  0  0  0  0  0  0  0  0
   -3.4182   -1.0895    0.0341 C   0  0  0  0  0  0  0  0  0  0  0  0
    1.4779    0.5229   -0.5681 C   0  0  0  0  0  0  0  0  0  0  0  0
    4.0118   -1.4352    1.1603 C   0  0  0  0  0  0  0  0  0  0  0  0
  1  8  1  0
  1 12  1  0
  2  7  2  0
  3 12  2  0
  4  5  2  0
  4  6  1  0
  4  7  1  0
  5  9  1  0
  6 10  2  0
  7 12  1  0
  8 13  1  0
  9 11  2  0
 10 11  1  0
M  END
>  <PUBCHEM_COMPOUND_CID>  (1) 
15349

>  <PUBCHEM_CONFORMER_RMSD>  (1) 
0.6

>  <PUBCHEM_CONFORMER_DIVERSEORDER>  (1) 
1
10
8
34
7
15
27
32
19
6
30
14
16
22
31
29
4
11
3
25
23
24
18
13
26
20
28
21
17
33
5
12
9
2
35

>  <PUBCHEM_MMFF94_PARTIAL_CHARGES>  (1) 
17
1 -0.43
10 -0.15
11 -0.15
12 0.72
14 0.15
15 0.15
18 0.15
19 0.15
2 -0.57
20 0.15
3 -0.57
4 0.09
5 -0.15
6 -0.15
7 0.48
8 0.28
9 -0.15

>  <PUBCHEM_EFFECTIVE_ROTOR_COUNT>  (1) 
4

>  <PUBCHEM_PHARMACOPHORE_FEATURES>  (1) 
3
1 2 acceptor
1 3 acceptor
6 4 5 6 9 10 11 rings

>  <PUBCHEM_HEAVY_ATOM_COUNT>  (1) 
13

>  <PUBCHEM_ATOM_DEF_STEREO_COUNT>  (1) 
0

>  <PUBCHEM_ATOM_UDEF_STEREO_COUNT>  (1) 
0

>  <PUBCHEM_BOND_DEF_STEREO_COUNT>  (1) 
0

>  <PUBCHEM_BOND_UDEF_STEREO_COUNT>  (1) 
0

>  <PUBCHEM_ISOTOPIC_ATOM_COUNT>  (1) 
0

>  <PUBCHEM_COMPONENT_COUNT>  (1) 
1

>  <PUBCHEM_CACTVS_TAUTO_COUNT>  (1) 
1

>  <PUBCHEM_CONFORMER_ID>  (1) 
00003BF500000001

>  <PUBCHEM_MMFF94_ENERGY>  (1) 
26.8056

>  <PUBCHEM_FEATURE_SELFOVERLAP>  (1) 
15.224

>  <PUBCHEM_SHAPE_FINGERPRINT>  (1) 
10130415 120 18410298020739120115
11578080 2 18042664196475487164
11769659 78 18260263036437272490
12251169 10 17704064110327950170
12382932 28 18201721708611455946
12932764 1 18265908015223706397
14144814 61 18271535281226985579
15375462 189 18335988639988686840
16945 1 18130804364456463677
18186145 218 13551195463708164046
18511873 20 18261395516218110377
19422 9 18114473335165316267
20361792 2 17603862282757269198
20645464 45 17060621088080210931
20645476 183 18044113447131355679
20671657 53 17167861933431496894
20715346 28 16486988283830727829
21501502 16 17986113126645298641
21501925 9 18059288876547516331
21650355 55 18271516507851303032
22959321 94 18337947896827159266
232386 152 18413390955611978198
23402539 116 18059283267927344093
23463225 33 18410859845332248462
23552423 10 17979359990688885861
23559900 14 17916600721948035924
5902787 121 18200597011210839338
7364860 26 17915182548852594408
81228 2 17415865512296994201
90316 7 18341050696875964272

>  <PUBCHEM_SHAPE_MULTIPOLES>  (1) 
249.93
6.38
1.72
1.04
2.99
0.2
-0.2
-3.31
1.7
-0.04
0.14
0.56
0.01
-0.96

>  <PUBCHEM_SHAPE_SELFOVERLAP>  (1) 
515.65

>  <PUBCHEM_SHAPE_VOLUME>  (1) 
143.3

>  <PUBCHEM_COORDINATE_TYPE>  (1) 
2
5
10

$$$$
