15350
     RDKit          3D

 11 10  0  0  1  0  0  0  0  0999 V2000
    2.2780    0.9841    0.4231 O   0  0  0  0  0  0  0  0  0  0  0  0
   -2.6942    0.7018   -0.7154 O   0  0  0  0  0  0  0  0  0  0  0  0
    2.6964   -0.9540   -0.7556 O   0  0  0  0  0  0  0  0  0  0  0  0
   -2.2091   -0.4276    1.2360 O   0  0  0  0  0  0  0  0  0  0  0  0
    0.5539   -0.6233    0.3518 C   0  0  0  0  0  0  0  0  0  0  0  0
   -0.4275    0.4228   -0.1905 C   0  0  0  0  0  0  0  0  0  0  0  0
    0.2097   -2.0325   -0.1311 C   0  0  0  0  0  0  0  0  0  0  0  0
    1.9665   -0.2522   -0.0678 C   0  0  0  0  0  0  0  0  0  0  0  0
   -1.8601    0.1607    0.2220 C   0  0  0  0  0  0  0  0  0  0  0  0
    3.5802    1.4718    0.0847 C   0  0  0  0  0  0  0  0  0  0  0  0
   -4.0937    0.5485   -0.4571 C   0  0  0  0  0  0  0  0  0  0  0  0
  1  8  1  0
  1 10  1  0
  2  9  1  0
  2 11  1  0
  3  8  2  0
  4  9  2  0
  5  6  1  0
  5  7  1  0
  5  8  1  0
  6  9  1  0
M  END
>  <PUBCHEM_COMPOUND_CID>  (1) 
15350

>  <PUBCHEM_CONFORMER_RMSD>  (1) 
0.6

>  <PUBCHEM_CONFORMER_DIVERSEORDER>  (1) 
1
29
35
21
9
43
42
46
22
10
23
27
45
13
37
6
28
19
12
4
26
34
39
14
24
38
25
3
32
7
33
44
11
36
40
16
18
31
8
17
20
41
2
15
30
5

>  <PUBCHEM_MMFF94_PARTIAL_CHARGES>  (1) 
10
1 -0.43
10 0.28
11 0.28
2 -0.43
3 -0.57
4 -0.57
5 0.06
6 0.06
8 0.66
9 0.66

>  <PUBCHEM_EFFECTIVE_ROTOR_COUNT>  (1) 
5

>  <PUBCHEM_PHARMACOPHORE_FEATURES>  (1) 
3
1 3 acceptor
1 4 acceptor
1 7 hydrophobe

>  <PUBCHEM_HEAVY_ATOM_COUNT>  (1) 
11

>  <PUBCHEM_ATOM_DEF_STEREO_COUNT>  (1) 
0

>  <PUBCHEM_ATOM_UDEF_STEREO_COUNT>  (1) 
1

>  <PUBCHEM_BOND_DEF_STEREO_COUNT>  (1) 
0

>  <PUBCHEM_BOND_UDEF_STEREO_COUNT>  (1) 
0

>  <PUBCHEM_ISOTOPIC_ATOM_COUNT>  (1) 
0

>  <PUBCHEM_COMPONENT_COUNT>  (1) 
1

>  <PUBCHEM_CACTVS_TAUTO_COUNT>  (1) 
1

>  <PUBCHEM_CONFORMER_ID>  (1) 
00003BF600000001

>  <PUBCHEM_MMFF94_ENERGY>  (1) 
15.9142

>  <PUBCHEM_FEATURE_SELFOVERLAP>  (1) 
15.223

>  <PUBCHEM_SHAPE_FINGERPRINT>  (1) 
10857977 72 17604159210751919819
12897270 3 18338517443617926591
12932741 1 18261403225463029539
12932764 1 18114189613688783283
13380535 76 18272086141169488470
14325111 11 18410855477313312231
14390081 3 18261390018675997093
14897335 6 18272082851166290022
15775835 57 18272085019613214749
170605 34 18410851066524402018
18175812 5 18186524293193987335
18186145 218 18201168693038501660
18342897 55 18411408519088502839
20279233 1 18259988175467487747
20606313 2 18412258437155582300
20645477 70 18271525295164700983
20715346 28 18261122897300583258
21293036 1 18273491299517399709
21499 59 18341325673434741461
23402655 69 18272080566238758397
3248919 1 17489592242279134726
5084963 1 17703786964346048818
6333449 129 18127695035477516282

>  <PUBCHEM_SHAPE_MULTIPOLES>  (1) 
202.9
6.16
1.5
0.83
2.02
0.51
0.09
-2.96
-0.72
-0.93
-0.09
0.27
0.06
0.52

>  <PUBCHEM_SHAPE_SELFOVERLAP>  (1) 
383.877

>  <PUBCHEM_SHAPE_VOLUME>  (1) 
126.2

>  <PUBCHEM_COORDINATE_TYPE>  (1) 
2
5
10

$$$$
