15356
     RDKit          3D

  7  6  0  0  0  0  0  0  0  0999 V2000
   -0.7441    0.9433    0.0018 N   0  0  0  0  0  0  0  0  0  0  0  0
    0.8020   -0.8503    0.0014 N   0  0  0  0  0  0  0  0  0  0  0  0
    1.5245    1.4376   -0.0017 N   0  0  0  0  0  0  0  0  0  0  0  0
   -2.6201   -0.7125   -0.0014 N   0  0  0  0  0  0  0  0  0  0  0  0
    0.5955    0.4271    0.0005 C   0  0  0  0  0  0  0  0  0  0  0  0
    2.1889   -1.2969   -0.0006 C   0  0  0  0  0  0  0  0  0  0  0  0
   -1.7467    0.0516    0.0000 C   0  0  0  0  0  0  0  0  0  0  0  0
  1  5  1  0
  1  7  1  0
  2  5  2  0
  2  6  1  0
  3  5  1  0
  4  7  3  0
M  END
>  <PUBCHEM_COMPOUND_CID>  (1) 
15356

>  <PUBCHEM_CONFORMER_RMSD>  (1) 
0.4

>  <PUBCHEM_CONFORMER_DIVERSEORDER>  (1) 
1
3
2
4

>  <PUBCHEM_MMFF94_PARTIAL_CHARGES>  (1) 
10
1 -0.51
12 0.4
13 0.4
2 -0.7
3 -0.85
4 -0.56
5 0.55
6 0.25
7 0.62
8 0.4

>  <PUBCHEM_EFFECTIVE_ROTOR_COUNT>  (1) 
1

>  <PUBCHEM_PHARMACOPHORE_FEATURES>  (1) 
4
1 1 donor
1 3 donor
1 4 acceptor
4 1 2 3 5 cation

>  <PUBCHEM_HEAVY_ATOM_COUNT>  (1) 
7

>  <PUBCHEM_ATOM_DEF_STEREO_COUNT>  (1) 
0

>  <PUBCHEM_ATOM_UDEF_STEREO_COUNT>  (1) 
0

>  <PUBCHEM_BOND_DEF_STEREO_COUNT>  (1) 
0

>  <PUBCHEM_BOND_UDEF_STEREO_COUNT>  (1) 
0

>  <PUBCHEM_ISOTOPIC_ATOM_COUNT>  (1) 
0

>  <PUBCHEM_COMPONENT_COUNT>  (1) 
1

>  <PUBCHEM_CACTVS_TAUTO_COUNT>  (1) 
3

>  <PUBCHEM_CONFORMER_ID>  (1) 
00003BFC00000001

>  <PUBCHEM_MMFF94_ENERGY>  (1) 
21.7563

>  <PUBCHEM_FEATURE_SELFOVERLAP>  (1) 
20.343

>  <PUBCHEM_SHAPE_FINGERPRINT>  (1) 
139733 1 9222930582936256227
21040471 1 17978511163111365664
23552423 10 18260552203505172999
23552449 11 18261097578436601562
24536 1 18339062827155282633
29004967 10 18341610356931539074

>  <PUBCHEM_SHAPE_MULTIPOLES>  (1) 
124.13
3.23
1.39
0.56
0.99
0.18
0
-1.24
0
-0.68
0
-0.02
-0.01
0

>  <PUBCHEM_SHAPE_SELFOVERLAP>  (1) 
228.781

>  <PUBCHEM_SHAPE_VOLUME>  (1) 
75

>  <PUBCHEM_COORDINATE_TYPE>  (1) 
2
5
10

$$$$
