15357
     RDKit          3D

 11 10  0  0  0  0  0  0  0  0999 V2000
    2.1619   -0.3079   -0.0002 O   0  0  0  0  0  0  0  0  0  0  0  0
   -2.4139   -0.3768   -0.0001 O   0  0  0  0  0  0  0  0  0  0  0  0
   -1.2352    0.4810    0.0000 O   0  0  0  0  0  0  0  0  0  0  0  0
    1.0552    1.7247   -0.0005 O   0  0  0  0  0  0  0  0  0  0  0  0
   -0.1281   -1.5549   -0.0008 O   0  0  0  0  0  0  0  0  0  0  0  0
    3.4323    0.3505    0.0006 C   0  0  0  0  0  0  0  0  0  0  0  0
   -3.5246    0.5091    0.0007 C   0  0  0  0  0  0  0  0  0  0  0  0
    4.5287   -0.6932    0.0011 C   0  0  0  0  0  0  0  0  0  0  0  0
   -4.8026   -0.3023    0.0007 C   0  0  0  0  0  0  0  0  0  0  0  0
    1.0895    0.5093   -0.0007 C   0  0  0  0  0  0  0  0  0  0  0  0
   -0.1632   -0.3395   -0.0008 C   0  0  0  0  0  0  0  0  0  0  0  0
  1  6  1  0
  1 10  1  0
  2  3  1  0
  2  7  1  0
  3 11  1  0
  4 10  2  0
  5 11  2  0
  6  8  1  0
  7  9  1  0
 10 11  1  0
M  END
>  <PUBCHEM_COMPOUND_CID>  (1) 
15357

>  <PUBCHEM_CONFORMER_RMSD>  (1) 
0.6

>  <PUBCHEM_CONFORMER_DIVERSEORDER>  (1) 
1
186
204
97
200
153
133
188
35
95
156
194
59
115
180
195
227
65
20
38
18
148
5
3
131
207
215
209
83
137
112
26
100
132
58
90
184
225
77
171
222
173
166
68
39
160
106
44
147
118
142
134
101
122
6
88
187
193
136
51
111
216
140
164
45
139
4
108
66
84
79
221
165
11
228
69
37
87
117
163
190
80
63
9
116
199
179
145
154
124
135
64
67
105
217
48
197
159
214
196
10
34
78
32
223
71
33
231
42
158
17
168
162
151
232
62
182
23
74
233
22
15
211
144
2
143
16
76
191
50
198
61
14
119
24
181
28
47
185
202
157
229
110
235
161
138
152
218
56
43
93
52
130
212
226
27
128
104
57
155
102
53
192
113
86
174
36
19
125
98
54
49
121
167
21
25
146
72
120
30
55
219
213
175
172
224
89
126
92
70
94
234
75
183
114
81
149
220
99
230
176
150
96
85
208
12
103
141
13
127
206
169
40
91
203
29
8
170
60
205
109
189
178
7
201
123
82
73
210
41
31
177
46
107
129

>  <PUBCHEM_MMFF94_PARTIAL_CHARGES>  (1) 
9
1 -0.43
10 0.72
11 0.72
2 -0.28
3 -0.15
4 -0.57
5 -0.57
6 0.28
7 0.28

>  <PUBCHEM_EFFECTIVE_ROTOR_COUNT>  (1) 
6

>  <PUBCHEM_PHARMACOPHORE_FEATURES>  (1) 
2
1 4 acceptor
1 5 acceptor

>  <PUBCHEM_HEAVY_ATOM_COUNT>  (1) 
11

>  <PUBCHEM_ATOM_DEF_STEREO_COUNT>  (1) 
0

>  <PUBCHEM_ATOM_UDEF_STEREO_COUNT>  (1) 
0

>  <PUBCHEM_BOND_DEF_STEREO_COUNT>  (1) 
0

>  <PUBCHEM_BOND_UDEF_STEREO_COUNT>  (1) 
0

>  <PUBCHEM_ISOTOPIC_ATOM_COUNT>  (1) 
0

>  <PUBCHEM_COMPONENT_COUNT>  (1) 
1

>  <PUBCHEM_CACTVS_TAUTO_COUNT>  (1) 
1

>  <PUBCHEM_CONFORMER_ID>  (1) 
00003BFD00000001

>  <PUBCHEM_MMFF94_ENERGY>  (1) 
7.0324

>  <PUBCHEM_FEATURE_SELFOVERLAP>  (1) 
10.149

>  <PUBCHEM_SHAPE_FINGERPRINT>  (1) 
10219947 1 18411984654422671988
11062470 55 12895072920397144429
12032990 46 18410578357739466326
12932764 1 16733529628796077947
13690532 89 18410855451691311970
14123238 8 17132113554489587589
14325111 11 18410575127881861665
14993402 34 18409732863325476436
17834076 25 12895071825238512722
18342897 14 18409730651248721841
20645477 70 18342177713653742854
20719005 15 18410856555365960258
23402539 116 16630520718259951837
23402655 69 18340477873467644413
366044 4 18410855468829346962

>  <PUBCHEM_SHAPE_MULTIPOLES>  (1) 
197.03
8.76
1.15
0.57
2.8
0.1
0
-1.16
-0.01
-0.32
0
-0.01
0
0

>  <PUBCHEM_SHAPE_SELFOVERLAP>  (1) 
368.165

>  <PUBCHEM_SHAPE_VOLUME>  (1) 
123

>  <PUBCHEM_COORDINATE_TYPE>  (1) 
2
5
10

$$$$
