15352
     RDKit          3D

 17 20  0  0  0  0  0  0  0  0999 V2000
   -3.7457   -1.5548    0.0001 N   0  0  0  0  0  0  0  0  0  0  0  0
   -0.4604    0.2371    0.0000 C   0  0  0  0  0  0  0  0  0  0  0  0
    0.9287   -0.0428    0.0000 C   0  0  0  0  0  0  0  0  0  0  0  0
   -1.3953   -0.8243    0.0000 C   0  0  0  0  0  0  0  0  0  0  0  0
   -0.9115    1.5776    0.0000 C   0  0  0  0  0  0  0  0  0  0  0  0
    1.3797   -1.3833    0.0000 C   0  0  0  0  0  0  0  0  0  0  0  0
    1.8636    1.0186    0.0000 C   0  0  0  0  0  0  0  0  0  0  0  0
   -2.7669   -0.5309   -0.0001 C   0  0  0  0  0  0  0  0  0  0  0  0
   -0.9299   -2.1461   -0.0001 C   0  0  0  0  0  0  0  0  0  0  0  0
    0.4389   -2.4218    0.0000 C   0  0  0  0  0  0  0  0  0  0  0  0
    0.0294    2.6162    0.0000 C   0  0  0  0  0  0  0  0  0  0  0  0
    1.3981    2.3405    0.0000 C   0  0  0  0  0  0  0  0  0  0  0  0
   -2.2896    1.8382    0.0000 C   0  0  0  0  0  0  0  0  0  0  0  0
    2.7578   -1.6438    0.0000 C   0  0  0  0  0  0  0  0  0  0  0  0
    3.2350    0.7253    0.0000 C   0  0  0  0  0  0  0  0  0  0  0  0
   -3.2093    0.7908    0.0000 C   0  0  0  0  0  0  0  0  0  0  0  0
    3.6775   -0.5965    0.0000 C   0  0  0  0  0  0  0  0  0  0  0  0
  1  8  1  0
  2  3  2  0
  2  4  1  0
  2  5  1  0
  3  6  1  0
  3  7  1  0
  4  8  2  0
  4  9  1  0
  5 11  2  0
  5 13  1  0
  6 10  1  0
  6 14  2  0
  7 12  2  0
  7 15  1  0
  8 16  1  0
  9 10  2  0
 11 12  1  0
 13 16  2  0
 14 17  1  0
 15 17  2  0
M  END
>  <PUBCHEM_COMPOUND_CID>  (1) 
15352

>  <PUBCHEM_CONFORMER_RMSD>  (1) 
0.4

>  <PUBCHEM_CONFORMER_DIVERSEORDER>  (1) 
1

>  <PUBCHEM_MMFF94_PARTIAL_CHARGES>  (1) 
22
1 -0.9
10 -0.15
11 -0.15
12 -0.15
13 -0.15
14 -0.15
15 -0.15
16 -0.15
17 -0.15
18 0.15
19 0.15
20 0.15
21 0.15
22 0.15
23 0.15
24 0.15
25 0.15
26 0.15
27 0.4
28 0.4
8 0.1
9 -0.15

>  <PUBCHEM_EFFECTIVE_ROTOR_COUNT>  (1) 
0

>  <PUBCHEM_PHARMACOPHORE_FEATURES>  (1) 
6
1 1 cation
1 1 donor
6 2 3 4 6 9 10 rings
6 2 3 5 7 11 12 rings
6 2 4 5 8 13 16 rings
6 3 6 7 14 15 17 rings

>  <PUBCHEM_HEAVY_ATOM_COUNT>  (1) 
17

>  <PUBCHEM_ATOM_DEF_STEREO_COUNT>  (1) 
0

>  <PUBCHEM_ATOM_UDEF_STEREO_COUNT>  (1) 
0

>  <PUBCHEM_BOND_DEF_STEREO_COUNT>  (1) 
0

>  <PUBCHEM_BOND_UDEF_STEREO_COUNT>  (1) 
0

>  <PUBCHEM_ISOTOPIC_ATOM_COUNT>  (1) 
0

>  <PUBCHEM_COMPONENT_COUNT>  (1) 
1

>  <PUBCHEM_CACTVS_TAUTO_COUNT>  (1) 
1

>  <PUBCHEM_CONFORMER_ID>  (1) 
00003BF800000001

>  <PUBCHEM_MMFF94_ENERGY>  (1) 
71.3149

>  <PUBCHEM_FEATURE_SELFOVERLAP>  (1) 
30.578

>  <PUBCHEM_SHAPE_FINGERPRINT>  (1) 
10411042 1 18410575041724780455
10967382 1 18410573976645977542
11132069 177 18339355258561767632
11471102 20 18410287004469811333
11578080 2 17273386544258785569
11680986 33 18120938574878676387
12382932 28 18340204064195011224
13132413 78 18412545401015958468
13140716 1 18339078159977344784
13221675 6 18410855477350410910
14790565 3 18266479717899185268
15196674 1 18410856559708380836
15442244 35 18122062005554136410
15536298 74 18343582949648291968
16945 1 18266741474690680036
193761 8 17906172111218405094
19591789 44 18410858737373383654
20510252 161 18272089387763909440
20905425 154 18052820243514873014
21267235 1 18410865347211851734
21501502 16 18409732828696758168
22721475 48 18409735074996380432
2334 1 18410855451554064460
23402539 116 18342164549641959246
23419403 2 16112529919377497064
23463225 33 18336547131697495856
23559900 14 18343022156617675542
238 59 17467306138380603893
2748010 2 18411135796959670628
335352 9 17978510836503707189
34934 24 18265606589807297193
350125 39 18410016575980641977
5104073 3 18411136918167675330
528886 8 18339355267019774944
589210 1 17906173206429732394
7364860 26 18197779006122688776
8809292 202 18261680280918464235
9709674 26 18411986870721281558

>  <PUBCHEM_SHAPE_MULTIPOLES>  (1) 
344.87
5.25
2.92
0.61
0.2
0.32
0
-0.86
0
0.14
0
-0.02
0.01
0

>  <PUBCHEM_SHAPE_SELFOVERLAP>  (1) 
806.395

>  <PUBCHEM_SHAPE_VOLUME>  (1) 
173.8

>  <PUBCHEM_COORDINATE_TYPE>  (1) 
2
5
10

$$$$
