15362
     RDKit          3D

 11 12  0  0  1  0  0  0  0  0999 V2000
   -2.1665    0.2082   -0.3203 N   0  0  0  0  0  0  0  0  0  0  0  0
   -1.9933   -1.0791    0.3638 C   0  0  0  0  0  0  0  0  0  0  0  0
   -0.6736   -1.7254   -0.0695 C   0  0  0  0  0  0  0  0  0  0  0  0
   -1.1374    1.1641    0.1255 C   0  0  0  0  0  0  0  0  0  0  0  0
    0.4911   -0.7715   -0.0136 C   0  0  0  0  0  0  0  0  0  0  0  0
    0.2682    0.6153    0.0347 C   0  0  0  0  0  0  0  0  0  0  0  0
   -3.5033    0.7493   -0.0777 C   0  0  0  0  0  0  0  0  0  0  0  0
    1.8024   -1.2613   -0.0702 C   0  0  0  0  0  0  0  0  0  0  0  0
    1.3629    1.4899    0.0635 C   0  0  0  0  0  0  0  0  0  0  0  0
    2.8844   -0.3817   -0.0527 C   0  0  0  0  0  0  0  0  0  0  0  0
    2.6650    0.9923    0.0166 C   0  0  0  0  0  0  0  0  0  0  0  0
  1  2  1  0
  1  4  1  0
  1  7  1  0
  2  3  1  0
  3  5  1  0
  4  6  1  0
  5  6  2  0
  5  8  1  0
  6  9  1  0
  8 10  2  0
  9 11  2  0
 10 11  1  0
M  END
>  <PUBCHEM_COMPOUND_CID>  (1) 
15362

>  <PUBCHEM_CONFORMER_RMSD>  (1) 
0.4

>  <PUBCHEM_CONFORMER_DIVERSEORDER>  (1) 
1
2
3

>  <PUBCHEM_MMFF94_PARTIAL_CHARGES>  (1) 
15
1 -0.81
10 -0.15
11 -0.15
2 0.27
21 0.15
22 0.15
23 0.15
24 0.15
3 0.14
4 0.41
5 -0.14
6 -0.14
7 0.27
8 -0.15
9 -0.15

>  <PUBCHEM_EFFECTIVE_ROTOR_COUNT>  (1) 
0.8

>  <PUBCHEM_PHARMACOPHORE_FEATURES>  (1) 
3
1 1 cation
6 1 2 3 4 5 6 rings
6 5 6 8 9 10 11 rings

>  <PUBCHEM_HEAVY_ATOM_COUNT>  (1) 
11

>  <PUBCHEM_ATOM_DEF_STEREO_COUNT>  (1) 
0

>  <PUBCHEM_ATOM_UDEF_STEREO_COUNT>  (1) 
0

>  <PUBCHEM_BOND_DEF_STEREO_COUNT>  (1) 
0

>  <PUBCHEM_BOND_UDEF_STEREO_COUNT>  (1) 
0

>  <PUBCHEM_ISOTOPIC_ATOM_COUNT>  (1) 
0

>  <PUBCHEM_COMPONENT_COUNT>  (1) 
1

>  <PUBCHEM_CACTVS_TAUTO_COUNT>  (1) 
1

>  <PUBCHEM_CONFORMER_ID>  (1) 
00003C0200000001

>  <PUBCHEM_MMFF94_ENERGY>  (1) 
26.1931

>  <PUBCHEM_FEATURE_SELFOVERLAP>  (1) 
15.245

>  <PUBCHEM_SHAPE_FINGERPRINT>  (1) 
10130415 120 18335414617578025418
10608611 8 18410007771149920645
11471102 20 18338793421205407469
12897270 3 18411139142807843884
13380535 21 18337123352846751662
13380535 76 18411415115868385143
14325111 11 18410574006768920309
14911166 2 18339648849762552774
15775835 57 18335144197583377372
16945 1 18411421695889846122
17844478 74 18114194072196912043
193761 8 17834394905567417677
19973954 147 18337676428701930024
20201158 50 18412262804984062198
21040471 1 18338797930767957376
21501502 16 18337669835916704646
23235685 24 18411131429120491681
23402655 69 18341883062102139285
23552423 10 18189054355543953046
23559900 14 18342466946227015900
241688 4 17260193189997554554
2748010 2 18339082721237913534
5084963 1 18130504132793172984
528886 8 18411414012050896424
53812653 166 18342171193819099200
63268167 104 18412548695171192696

>  <PUBCHEM_SHAPE_MULTIPOLES>  (1) 
221.39
4.55
1.73
0.63
1.35
0.21
0.01
-0.84
-0.12
-0.09
0.03
0.03
0.01
0.12

>  <PUBCHEM_SHAPE_SELFOVERLAP>  (1) 
465.411

>  <PUBCHEM_SHAPE_VOLUME>  (1) 
125.6

>  <PUBCHEM_COORDINATE_TYPE>  (1) 
2
5
10

$$$$
