15363
     RDKit          3D

 12 13  0  0  0  0  0  0  0  0999 V2000
    1.4529    0.8093   -0.0003 O   0  0  0  0  0  0  0  0  0  0  0  0
    1.3841   -1.4267   -0.0004 N   0  0  0  0  0  0  0  0  0  0  0  0
    2.7115   -1.0402    0.0003 N   0  0  0  0  0  0  0  0  0  0  0  0
    3.7337    1.1458    0.0011 N   0  0  0  0  0  0  0  0  0  0  0  0
   -0.7330   -0.1079   -0.0008 C   0  0  0  0  0  0  0  0  0  0  0  0
    0.6945   -0.3164   -0.0006 C   0  0  0  0  0  0  0  0  0  0  0  0
   -1.2495    1.1877   -0.0009 C   0  0  0  0  0  0  0  0  0  0  0  0
   -1.5969   -1.2030    0.0000 C   0  0  0  0  0  0  0  0  0  0  0  0
   -2.6299    1.3884    0.0000 C   0  0  0  0  0  0  0  0  0  0  0  0
   -2.9773   -1.0025    0.0008 C   0  0  0  0  0  0  0  0  0  0  0  0
   -3.4937    0.2933    0.0008 C   0  0  0  0  0  0  0  0  0  0  0  0
    2.7036    0.2723    0.0000 C   0  0  0  0  0  0  0  0  0  0  0  0
  1  6  1  0
  1 12  1  0
  2  3  1  0
  2  6  2  0
  3 12  2  0
  4 12  1  0
  5  6  1  0
  5  7  2  0
  5  8  1  0
  7  9  1  0
  8 10  2  0
  9 11  2  0
 10 11  1  0
M  END
>  <PUBCHEM_COMPOUND_CID>  (1) 
15363

>  <PUBCHEM_CONFORMER_RMSD>  (1) 
0.4

>  <PUBCHEM_CONFORMER_DIVERSEORDER>  (1) 
1

>  <PUBCHEM_MMFF94_PARTIAL_CHARGES>  (1) 
19
1 -0.28
10 -0.15
11 -0.15
12 0.56
13 0.15
14 0.15
15 0.15
16 0.15
17 0.15
18 0.4
19 0.4
2 -0.34
3 -0.34
4 -0.88
5 0.05
6 0.43
7 -0.15
8 -0.15
9 -0.15

>  <PUBCHEM_EFFECTIVE_ROTOR_COUNT>  (1) 
1

>  <PUBCHEM_PHARMACOPHORE_FEATURES>  (1) 
4
1 4 donor
3 3 4 12 cation
5 1 2 3 6 12 rings
6 5 7 8 9 10 11 rings

>  <PUBCHEM_HEAVY_ATOM_COUNT>  (1) 
12

>  <PUBCHEM_ATOM_DEF_STEREO_COUNT>  (1) 
0

>  <PUBCHEM_ATOM_UDEF_STEREO_COUNT>  (1) 
0

>  <PUBCHEM_BOND_DEF_STEREO_COUNT>  (1) 
0

>  <PUBCHEM_BOND_UDEF_STEREO_COUNT>  (1) 
0

>  <PUBCHEM_ISOTOPIC_ATOM_COUNT>  (1) 
0

>  <PUBCHEM_COMPONENT_COUNT>  (1) 
1

>  <PUBCHEM_CACTVS_TAUTO_COUNT>  (1) 
2

>  <PUBCHEM_CONFORMER_ID>  (1) 
00003C0300000001

>  <PUBCHEM_MMFF94_ENERGY>  (1) 
20.9521

>  <PUBCHEM_FEATURE_SELFOVERLAP>  (1) 
20.297

>  <PUBCHEM_SHAPE_FINGERPRINT>  (1) 
10608611 8 18410852135823890460
12897270 3 18411699897959026423
12932764 1 17604147008660206415
13380535 76 18409728469394993818
14144814 61 18409449163397450993
14325111 11 18410575067504367201
14445660 50 18271535238446254417
14897335 6 18410851053512828164
15442244 35 18122906421788630930
15669948 3 18271517688877807327
15775835 57 18413674612284291017
16945 1 18410856602863762629
18186145 218 18336830783958888108
19973954 147 18411703144980877325
20201158 50 18412543206408794435
20528008 55 18411412912903330365
20645477 70 18342173306869513223
20871998 184 18201162160741917623
21501502 16 18411416172477611395
23402539 116 18336534018999051447
23402655 69 18270669888694088229
23463225 33 18336262336611052986
23552423 10 18260831483912065259
23559900 14 18270393876863069178
2748010 2 18338800017932217871
3248919 1 17631732660332138831
3312278 4 18411140268337201891
369184 2 18410011009881893723
57096353 35 18338796826766229583
6333449 129 18412542128551221293
7364860 26 18269554949280228830

>  <PUBCHEM_SHAPE_MULTIPOLES>  (1) 
226.14
5.96
1.49
0.59
1.82
0.01
0
-0.9
0
-0.19
0
-0.07
0
0

>  <PUBCHEM_SHAPE_SELFOVERLAP>  (1) 
492.854

>  <PUBCHEM_SHAPE_VOLUME>  (1) 
123.7

>  <PUBCHEM_COORDINATE_TYPE>  (1) 
2
5
10

$$$$
