15361
     RDKit          3D

  9  9  0  0  0  0  0  0  0  0999 V2000
    2.8456   -1.5972   -0.0008 Br  0  0  0  0  0  0  0  0  0  0  0  0
   -2.8448   -1.5987   -0.0008 Br  0  0  0  0  0  0  0  0  0  0  0  0
   -0.0004    1.4391    0.0001 C   0  0  0  0  0  0  0  0  0  0  0  0
   -1.2081    0.7413    0.0003 C   0  0  0  0  0  0  0  0  0  0  0  0
    1.2077    0.7420    0.0002 C   0  0  0  0  0  0  0  0  0  0  0  0
   -0.0010    2.9308   -0.0006 C   0  0  0  0  0  0  0  0  0  0  0  0
    1.2083   -0.6530    0.0005 C   0  0  0  0  0  0  0  0  0  0  0  0
   -1.2078   -0.6536    0.0005 C   0  0  0  0  0  0  0  0  0  0  0  0
    0.0004   -1.3508    0.0006 C   0  0  0  0  0  0  0  0  0  0  0  0
  1  7  1  0
  2  8  1  0
  3  4  2  0
  3  5  1  0
  3  6  1  0
  4  8  1  0
  5  7  2  0
  7  9  1  0
  8  9  2  0
M  END
>  <PUBCHEM_COMPOUND_CID>  (1) 
15361

>  <PUBCHEM_CONFORMER_RMSD>  (1) 
0.4

>  <PUBCHEM_CONFORMER_DIVERSEORDER>  (1) 
1

>  <PUBCHEM_MMFF94_PARTIAL_CHARGES>  (1) 
12
1 -0.11
10 0.15
11 0.15
15 0.15
2 -0.11
3 -0.14
4 -0.15
5 -0.15
6 0.14
7 0.11
8 0.11
9 -0.15

>  <PUBCHEM_EFFECTIVE_ROTOR_COUNT>  (1) 
0

>  <PUBCHEM_PHARMACOPHORE_FEATURES>  (1) 
3
1 1 hydrophobe
1 2 hydrophobe
6 3 4 5 7 8 9 rings

>  <PUBCHEM_HEAVY_ATOM_COUNT>  (1) 
9

>  <PUBCHEM_ATOM_DEF_STEREO_COUNT>  (1) 
0

>  <PUBCHEM_ATOM_UDEF_STEREO_COUNT>  (1) 
0

>  <PUBCHEM_BOND_DEF_STEREO_COUNT>  (1) 
0

>  <PUBCHEM_BOND_UDEF_STEREO_COUNT>  (1) 
0

>  <PUBCHEM_ISOTOPIC_ATOM_COUNT>  (1) 
0

>  <PUBCHEM_COMPONENT_COUNT>  (1) 
1

>  <PUBCHEM_CACTVS_TAUTO_COUNT>  (1) 
1

>  <PUBCHEM_CONFORMER_ID>  (1) 
00003C0100000001

>  <PUBCHEM_MMFF94_ENERGY>  (1) 
17.7199

>  <PUBCHEM_FEATURE_SELFOVERLAP>  (1) 
15.223

>  <PUBCHEM_SHAPE_FINGERPRINT>  (1) 
1 1 17762054745594052461
12423570 1 17980173594574888787
12716758 59 17693096262803249318
16945 1 18122343467418877378
19021347 4 16897645190794413026
193761 8 18410573985151931844
20645477 70 18049431845537869039
20871998 184 18129095628518266086
20871998 22 18341901791837598070
21040471 1 17473825022409244736
23552423 10 18260272914999456686
23552449 1 18339077064882139606
241688 4 18410575054598308250
2748010 2 18411971464440910556
81228 2 18194684769668791066

>  <PUBCHEM_SHAPE_MULTIPOLES>  (1) 
197.1
3.43
2.83
0.65
0
2.11
0
-3.23
0
0
0
0
-0.05
0

>  <PUBCHEM_SHAPE_SELFOVERLAP>  (1) 
377.109

>  <PUBCHEM_SHAPE_VOLUME>  (1) 
123.4

>  <PUBCHEM_COORDINATE_TYPE>  (1) 
2
5
10

$$$$
