15366
     RDKit          3D

 11 12  0  0  0  0  0  0  0  0999 V2000
   -1.6103   -2.1448   -0.0001 O   0  0  0  0  0  0  0  0  0  0  0  0
   -1.3108   -0.9008    0.0002 N   0  0  0  0  0  0  0  0  0  0  0  0
    0.0155   -0.4651    0.0001 C   0  0  0  0  0  0  0  0  0  0  0  0
    0.3043    0.9196    0.0001 C   0  0  0  0  0  0  0  0  0  0  0  0
   -0.7545    1.8360    0.0000 C   0  0  0  0  0  0  0  0  0  0  0  0
    1.0559   -1.4040    0.0000 C   0  0  0  0  0  0  0  0  0  0  0  0
    1.6466    1.3300    0.0000 C   0  0  0  0  0  0  0  0  0  0  0  0
   -2.3345    0.0268    0.0000 C   0  0  0  0  0  0  0  0  0  0  0  0
   -2.0717    1.3903   -0.0001 C   0  0  0  0  0  0  0  0  0  0  0  0
    2.3824   -0.9752   -0.0001 C   0  0  0  0  0  0  0  0  0  0  0  0
    2.6771    0.3872    0.0000 C   0  0  0  0  0  0  0  0  0  0  0  0
  1  2  1  0
  2  3  2  0
  2  8  1  0
  3  4  1  0
  3  6  1  0
  4  5  2  0
  4  7  1  0
  5  9  1  0
  6 10  2  0
  7 11  2  0
  8  9  2  0
 10 11  1  0
M  CHG  2   1  -1   2   1
M  END
>  <PUBCHEM_COMPOUND_CID>  (1) 
15366

>  <PUBCHEM_CONFORMER_RMSD>  (1) 
0.4

>  <PUBCHEM_CONFORMER_DIVERSEORDER>  (1) 
1

>  <PUBCHEM_MMFF94_PARTIAL_CHARGES>  (1) 
17
1 -0.75
10 -0.15
11 -0.15
12 0.15
13 0.15
14 0.15
15 0.15
16 0.15
17 0.15
18 0.15
2 0.57
3 0.09
5 -0.15
6 -0.15
7 -0.15
8 -0.06
9 -0.15

>  <PUBCHEM_EFFECTIVE_ROTOR_COUNT>  (1) 
0

>  <PUBCHEM_PHARMACOPHORE_FEATURES>  (1) 
3
1 1 anion
6 2 3 4 5 8 9 rings
6 3 4 6 7 10 11 rings

>  <PUBCHEM_HEAVY_ATOM_COUNT>  (1) 
11

>  <PUBCHEM_ATOM_DEF_STEREO_COUNT>  (1) 
0

>  <PUBCHEM_ATOM_UDEF_STEREO_COUNT>  (1) 
0

>  <PUBCHEM_BOND_DEF_STEREO_COUNT>  (1) 
0

>  <PUBCHEM_BOND_UDEF_STEREO_COUNT>  (1) 
0

>  <PUBCHEM_ISOTOPIC_ATOM_COUNT>  (1) 
0

>  <PUBCHEM_COMPONENT_COUNT>  (1) 
1

>  <PUBCHEM_CACTVS_TAUTO_COUNT>  (1) 
1

>  <PUBCHEM_CONFORMER_ID>  (1) 
00003C0600000001

>  <PUBCHEM_MMFF94_ENERGY>  (1) 
31.0194

>  <PUBCHEM_FEATURE_SELFOVERLAP>  (1) 
15.251

>  <PUBCHEM_SHAPE_FINGERPRINT>  (1) 
12423570 1 17414984756306466263
12524768 44 18340491066763061214
12897270 3 18410856598495000900
14325111 11 18338797797392278373
16945 1 18410855438790637764
18185500 45 18338517567934601327
193761 8 15456213033481671584
19973954 147 18410577305361695988
20871998 184 18201441410508623143
21040471 1 18338798888461443748
21501502 16 18411136939610901300
23552423 10 18260831544036163836
23559900 14 18199196101493030054
241688 4 15168261112902457257
2748010 2 18195244644473107604
369184 2 18411416176725125400
5084963 1 17986103015875422657
528886 8 18411414024993846560
66348 1 18411135878595684700

>  <PUBCHEM_SHAPE_MULTIPOLES>  (1) 
215.52
3.49
2.03
0.6
0.54
0.33
0
-0.08
0
-0.49
0
0.02
-0.03
0

>  <PUBCHEM_SHAPE_SELFOVERLAP>  (1) 
472.276

>  <PUBCHEM_SHAPE_VOLUME>  (1) 
116.7

>  <PUBCHEM_COORDINATE_TYPE>  (1) 
2
5
10

$$$$
