15375
     RDKit          3D

  8  7  0  0  0  0  0  0  0  0999 V2000
   -2.6458   -0.4601   -0.0137 O   0  0  0  0  0  0  0  0  0  0  0  0
    0.8508    0.5312   -0.0001 O   0  0  0  0  0  0  0  0  0  0  0  0
    2.3071   -1.2518    0.0035 O   0  0  0  0  0  0  0  0  0  0  0  0
    3.0737    0.9159   -0.0038 N   0  0  0  0  0  0  0  0  0  0  0  0
   -1.5413    0.4362    0.0030 C   0  0  0  0  0  0  0  0  0  0  0  0
   -0.2537   -0.3652    0.0039 C   0  0  0  0  0  0  0  0  0  0  0  0
   -3.8830    0.2380    0.0071 C   0  0  0  0  0  0  0  0  0  0  0  0
    2.0924   -0.0443    0.0002 C   0  0  0  0  0  0  0  0  0  0  0  0
  1  5  1  0
  1  7  1  0
  2  6  1  0
  2  8  1  0
  3  8  2  0
  4  8  1  0
  5  6  1  0
M  END
>  <PUBCHEM_COMPOUND_CID>  (1) 
15375

>  <PUBCHEM_CONFORMER_RMSD>  (1) 
0.6

>  <PUBCHEM_CONFORMER_DIVERSEORDER>  (1) 
2
7
24
18
28
21
6
20
16
23
19
4
8
3
5
14
22
1
9
15
27
29
11
12
13
17
26
10
25

>  <PUBCHEM_MMFF94_PARTIAL_CHARGES>  (1) 
10
1 -0.56
16 0.37
17 0.37
2 -0.43
3 -0.57
4 -0.8
5 0.28
6 0.28
7 0.28
8 0.78

>  <PUBCHEM_EFFECTIVE_ROTOR_COUNT>  (1) 
4

>  <PUBCHEM_PHARMACOPHORE_FEATURES>  (1) 
3
1 1 acceptor
1 3 acceptor
1 4 donor

>  <PUBCHEM_HEAVY_ATOM_COUNT>  (1) 
8

>  <PUBCHEM_ATOM_DEF_STEREO_COUNT>  (1) 
0

>  <PUBCHEM_ATOM_UDEF_STEREO_COUNT>  (1) 
0

>  <PUBCHEM_BOND_DEF_STEREO_COUNT>  (1) 
0

>  <PUBCHEM_BOND_UDEF_STEREO_COUNT>  (1) 
0

>  <PUBCHEM_ISOTOPIC_ATOM_COUNT>  (1) 
0

>  <PUBCHEM_COMPONENT_COUNT>  (1) 
1

>  <PUBCHEM_CACTVS_TAUTO_COUNT>  (1) 
2

>  <PUBCHEM_CONFORMER_ID>  (1) 
00003C0F00000002

>  <PUBCHEM_MMFF94_ENERGY>  (1) 
12.3011

>  <PUBCHEM_FEATURE_SELFOVERLAP>  (1) 
15.223

>  <PUBCHEM_SHAPE_FINGERPRINT>  (1) 
11062470 55 18411700993508119681
12932764 1 17346588677796890273
14325111 11 18410573985494394467
14390081 3 18411417323523675921
5460574 1 9295291642199274593

>  <PUBCHEM_SHAPE_MULTIPOLES>  (1) 
142.05
6.11
0.93
0.57
3.09
0.09
0
-0.47
0
-0.56
0
0.05
-0.01
0

>  <PUBCHEM_SHAPE_SELFOVERLAP>  (1) 
257.558

>  <PUBCHEM_SHAPE_VOLUME>  (1) 
91.3

>  <PUBCHEM_COORDINATE_TYPE>  (1) 
2
5
10

$$$$
