15381
     RDKit          3D

  9 10  0  0  1  0  0  0  0  0999 V2000
    2.4296   -0.1455   -0.0122 O   0  0  0  0  0  0  0  0  0  0  0  0
   -0.9563   -1.0866    0.0100 N   0  0  0  0  0  0  0  0  0  0  0  0
    0.3673    1.1495   -0.0093 C   0  0  0  0  0  0  0  0  0  0  0  0
    1.1851    0.0274    0.6556 C   0  0  0  0  0  0  0  0  0  0  0  0
   -0.9413    1.2931    0.7806 C   0  0  0  0  0  0  0  0  0  0  0  0
   -0.0006    0.7111   -1.4377 C   0  0  0  0  0  0  0  0  0  0  0  0
    0.3878   -1.2881    0.5985 C   0  0  0  0  0  0  0  0  0  0  0  0
   -1.6762   -0.0579    0.7931 C   0  0  0  0  0  0  0  0  0  0  0  0
   -0.7955   -0.6032   -1.3786 C   0  0  0  0  0  0  0  0  0  0  0  0
  1  4  1  0
  2  7  1  0
  2  8  1  0
  2  9  1  0
  3  4  1  0
  3  5  1  0
  3  6  1  0
  4  7  1  0
  5  8  1  0
  6  9  1  0
M  END
>  <PUBCHEM_COMPOUND_CID>  (1) 
15381

>  <PUBCHEM_CONFORMER_RMSD>  (1) 
0.4

>  <PUBCHEM_CONFORMER_DIVERSEORDER>  (1) 
2
1

>  <PUBCHEM_MMFF94_PARTIAL_CHARGES>  (1) 
7
1 -0.68
2 -0.81
22 0.4
4 0.28
7 0.27
8 0.27
9 0.27

>  <PUBCHEM_EFFECTIVE_ROTOR_COUNT>  (1) 
1.2

>  <PUBCHEM_PHARMACOPHORE_FEATURES>  (1) 
4
1 1 acceptor
1 1 donor
1 2 cation
8 2 3 4 5 6 7 8 9 rings

>  <PUBCHEM_HEAVY_ATOM_COUNT>  (1) 
9

>  <PUBCHEM_ATOM_DEF_STEREO_COUNT>  (1) 
0

>  <PUBCHEM_ATOM_UDEF_STEREO_COUNT>  (1) 
1

>  <PUBCHEM_BOND_DEF_STEREO_COUNT>  (1) 
0

>  <PUBCHEM_BOND_UDEF_STEREO_COUNT>  (1) 
0

>  <PUBCHEM_ISOTOPIC_ATOM_COUNT>  (1) 
0

>  <PUBCHEM_COMPONENT_COUNT>  (1) 
1

>  <PUBCHEM_CACTVS_TAUTO_COUNT>  (1) 
1

>  <PUBCHEM_CONFORMER_ID>  (1) 
00003C1500000002

>  <PUBCHEM_MMFF94_ENERGY>  (1) 
22.4336

>  <PUBCHEM_FEATURE_SELFOVERLAP>  (1) 
20.297

>  <PUBCHEM_SHAPE_FINGERPRINT>  (1) 
12423570 1 16676349264336844549
13024252 1 13334736799902102408
137420 1 17047952252927309237
16945 1 18341906159713265017
21040471 1 18126855893082839073
29004967 10 16443073819387140880
369184 2 18059276709137295146
5084963 1 15840978967120775513
5943 1 17751669716498967845
68250623 7 17556862421108662815

>  <PUBCHEM_SHAPE_MULTIPOLES>  (1) 
174.37
1.88
1.35
1.3
0.8
0.03
-0.49
-0.09
0.37
-0.17
0.11
-0.28
0.05
-0.21

>  <PUBCHEM_SHAPE_SELFOVERLAP>  (1) 
360.275

>  <PUBCHEM_SHAPE_VOLUME>  (1) 
96.7

>  <PUBCHEM_COORDINATE_TYPE>  (1) 
2
5
10

$$$$
