15384
     RDKit          3D

 11 11  0  0  0  0  0  0  0  0999 V2000
   -2.8445   -1.5746    0.0009 O   0  0  0  0  0  0  0  0  0  0  0  0
    1.8019   -0.1917    0.0001 N   0  0  0  0  0  0  0  0  0  0  0  0
    0.3099    0.1497    0.0006 C   0  0  0  0  0  0  0  0  0  0  0  0
    2.4419    0.4034    1.2510 C   0  0  0  0  0  0  0  0  0  0  0  0
    2.4372    0.3851   -1.2620 C   0  0  0  0  0  0  0  0  0  0  0  0
    2.0493   -1.6989    0.0101 C   0  0  0  0  0  0  0  0  0  0  0  0
   -0.5578   -0.8904    0.0002 C   0  0  0  0  0  0  0  0  0  0  0  0
   -0.0173    1.4643    0.0004 C   0  0  0  0  0  0  0  0  0  0  0  0
   -1.9173   -0.5784   -0.0004 C   0  0  0  0  0  0  0  0  0  0  0  0
   -1.3767    1.7764   -0.0002 C   0  0  0  0  0  0  0  0  0  0  0  0
   -2.3267    0.7550   -0.0005 C   0  0  0  0  0  0  0  0  0  0  0  0
  1  9  1  0
  2  3  1  0
  2  4  1  0
  2  5  1  0
  2  6  1  0
  3  7  2  0
  3  8  1  0
  7  9  1  0
  8 10  2  0
  9 11  2  0
 10 11  1  0
M  CHG  1   2   1
M  END
>  <PUBCHEM_COMPOUND_CID>  (1) 
15384

>  <PUBCHEM_CONFORMER_RMSD>  (1) 
0.4

>  <PUBCHEM_CONFORMER_DIVERSEORDER>  (1) 
1
2

>  <PUBCHEM_MMFF94_PARTIAL_CHARGES>  (1) 
16
1 -0.53
10 -0.15
11 -0.15
2 -0.87
21 0.15
22 0.15
23 0.15
24 0.15
25 0.45
3 0.36
4 0.5
5 0.5
6 0.5
7 -0.15
8 -0.15
9 0.08

>  <PUBCHEM_EFFECTIVE_ROTOR_COUNT>  (1) 
1

>  <PUBCHEM_PHARMACOPHORE_FEATURES>  (1) 
3
1 1 donor
1 2 cation
6 3 7 8 9 10 11 rings

>  <PUBCHEM_HEAVY_ATOM_COUNT>  (1) 
11

>  <PUBCHEM_ATOM_DEF_STEREO_COUNT>  (1) 
0

>  <PUBCHEM_ATOM_UDEF_STEREO_COUNT>  (1) 
0

>  <PUBCHEM_BOND_DEF_STEREO_COUNT>  (1) 
0

>  <PUBCHEM_BOND_UDEF_STEREO_COUNT>  (1) 
0

>  <PUBCHEM_ISOTOPIC_ATOM_COUNT>  (1) 
0

>  <PUBCHEM_COMPONENT_COUNT>  (1) 
1

>  <PUBCHEM_CACTVS_TAUTO_COUNT>  (1) 
3

>  <PUBCHEM_CONFORMER_ID>  (1) 
00003C1800000001

>  <PUBCHEM_MMFF94_ENERGY>  (1) 
47.7938

>  <PUBCHEM_FEATURE_SELFOVERLAP>  (1) 
15.223

>  <PUBCHEM_SHAPE_FINGERPRINT>  (1) 
10857977 72 18341321292615650289
12423570 1 9574601779647305828
12716758 59 18267017254683220105
12897270 3 18409456903012986004
12932764 1 17917712400448157526
14128692 85 18266752448527423805
16945 1 18410573998268624005
19973954 147 18341610378353712512
20645464 45 17846488223576448416
20871998 184 18201717349414862095
21040471 1 18122343480235434853
23552423 10 18187368670927101050
23559900 14 17840306624020904726
2748010 2 18412543171975216191
29004967 10 18341328980512125539
3248919 1 17894911832128463907
369184 2 18130777915557380929
5084963 1 18118687612715605880
8030462 33 18411698759803320702

>  <PUBCHEM_SHAPE_MULTIPOLES>  (1) 
215.52
4.02
1.74
0.9
0.09
0.13
0.01
0.74
0
-0.58
0
0.73
-0.16
0

>  <PUBCHEM_SHAPE_SELFOVERLAP>  (1) 
439.546

>  <PUBCHEM_SHAPE_VOLUME>  (1) 
128.3

>  <PUBCHEM_COORDINATE_TYPE>  (1) 
2
5
10

$$$$
