15380
     RDKit          3D

  5  4  0  0  0  0  0  0  0  0999 V2000
   -1.4930   -0.7334    0.0002 S   0  0  0  0  0  0  0  0  0  0  0  0
    1.4930   -0.7336    0.0001 S   0  0  0  0  0  0  0  0  0  0  0  0
    0.0000    0.2998   -0.0015 C   0  0  0  0  0  0  0  0  0  0  0  0
   -2.7322    0.5835    0.0006 C   0  0  0  0  0  0  0  0  0  0  0  0
    2.7322    0.5836    0.0006 C   0  0  0  0  0  0  0  0  0  0  0  0
  1  3  1  0
  1  4  1  0
  2  3  1  0
  2  5  1  0
M  END
>  <PUBCHEM_COMPOUND_CID>  (1) 
15380

>  <PUBCHEM_CONFORMER_RMSD>  (1) 
0.4

>  <PUBCHEM_CONFORMER_DIVERSEORDER>  (1) 
1
4
5
2
3

>  <PUBCHEM_MMFF94_PARTIAL_CHARGES>  (1) 
5
1 -0.46
2 -0.46
3 0.46
4 0.23
5 0.23

>  <PUBCHEM_EFFECTIVE_ROTOR_COUNT>  (1) 
2

>  <PUBCHEM_PHARMACOPHORE_FEATURES>  (1) 
2
1 4 hydrophobe
1 5 hydrophobe

>  <PUBCHEM_HEAVY_ATOM_COUNT>  (1) 
5

>  <PUBCHEM_ATOM_DEF_STEREO_COUNT>  (1) 
0

>  <PUBCHEM_ATOM_UDEF_STEREO_COUNT>  (1) 
0

>  <PUBCHEM_BOND_DEF_STEREO_COUNT>  (1) 
0

>  <PUBCHEM_BOND_UDEF_STEREO_COUNT>  (1) 
0

>  <PUBCHEM_ISOTOPIC_ATOM_COUNT>  (1) 
0

>  <PUBCHEM_COMPONENT_COUNT>  (1) 
1

>  <PUBCHEM_CACTVS_TAUTO_COUNT>  (1) 
1

>  <PUBCHEM_CONFORMER_ID>  (1) 
00003C1400000001

>  <PUBCHEM_MMFF94_ENERGY>  (1) 
6.2689

>  <PUBCHEM_FEATURE_SELFOVERLAP>  (1) 
10.149

>  <PUBCHEM_SHAPE_FINGERPRINT>  (1) 
12932741 1 15769764805780692394
139733 1 9295289443160285731
14390081 3 18343017808902990081
16714656 1 18409448068354902749
20096714 4 18410293622571380594
29004967 10 15647053746190749634
5460574 1 9295289439023502531

>  <PUBCHEM_SHAPE_MULTIPOLES>  (1) 
110.6
4.41
1.03
0.65
0
0.1
0
-1.07
0
0
0
0
0.02
0

>  <PUBCHEM_SHAPE_SELFOVERLAP>  (1) 
159.854

>  <PUBCHEM_SHAPE_VOLUME>  (1) 
84.7

>  <PUBCHEM_COORDINATE_TYPE>  (1) 
2
5
10

$$$$
