15385
     RDKit          3D

  7  6  0  0  0  0  0  0  0  0999 V2000
    2.3592   -1.3323    0.0776 Cl  0  0  0  0  0  0  0  0  0  0  0  0
   -3.3317   -0.3934   -0.0221 Cl  0  0  0  0  0  0  0  0  0  0  0  0
    0.9807    0.1805   -0.0132 S   0  0  0  0  0  0  0  0  0  0  0  0
    1.1259    0.8936    1.2415 O   0  0  0  0  0  0  0  0  0  0  0  0
    1.2197    0.8275   -1.2892 O   0  0  0  0  0  0  0  0  0  0  0  0
   -0.6084   -0.5866   -0.0523 C   0  0  0  0  0  0  0  0  0  0  0  0
   -1.7455    0.4107    0.0577 C   0  0  0  0  0  0  0  0  0  0  0  0
  1  3  1  0
  2  7  1  0
  3  4  2  0
  3  5  2  0
  3  6  1  0
  6  7  1  0
M  END
>  <PUBCHEM_COMPOUND_CID>  (1) 
15385

>  <PUBCHEM_CONFORMER_RMSD>  (1) 
0.4

>  <PUBCHEM_CONFORMER_DIVERSEORDER>  (1) 
1
7
6
8
4
5
2
9
3

>  <PUBCHEM_MMFF94_PARTIAL_CHARGES>  (1) 
7
1 -0.19
2 -0.29
3 1.38
4 -0.65
5 -0.65
6 0.11
7 0.29

>  <PUBCHEM_EFFECTIVE_ROTOR_COUNT>  (1) 
2

>  <PUBCHEM_PHARMACOPHORE_FEATURES>  (1) 
0

>  <PUBCHEM_HEAVY_ATOM_COUNT>  (1) 
7

>  <PUBCHEM_ATOM_DEF_STEREO_COUNT>  (1) 
0

>  <PUBCHEM_ATOM_UDEF_STEREO_COUNT>  (1) 
0

>  <PUBCHEM_BOND_DEF_STEREO_COUNT>  (1) 
0

>  <PUBCHEM_BOND_UDEF_STEREO_COUNT>  (1) 
0

>  <PUBCHEM_ISOTOPIC_ATOM_COUNT>  (1) 
0

>  <PUBCHEM_COMPONENT_COUNT>  (1) 
1

>  <PUBCHEM_CACTVS_TAUTO_COUNT>  (1) 
1

>  <PUBCHEM_CONFORMER_ID>  (1) 
00003C1900000001

>  <PUBCHEM_MMFF94_ENERGY>  (1) 
1.7138

>  <PUBCHEM_FEATURE_SELFOVERLAP>  (1) 
0

>  <PUBCHEM_SHAPE_FINGERPRINT>  (1) 
12932741 1 16154002321467314171
12932764 1 18130792299914467183
23552449 11 17561079215541241483
24536 1 17968652838714051527
29004967 10 17749399113634971898
5084963 1 18334295344863651555
5460574 1 8718830885938500427
5943 1 11255579978633479200

>  <PUBCHEM_SHAPE_MULTIPOLES>  (1) 
139.91
4.25
1.15
0.95
3.15
0.15
-0.02
1.35
0.01
-0.62
0.01
-0.39
-0.3
-0.05

>  <PUBCHEM_SHAPE_SELFOVERLAP>  (1) 
224.915

>  <PUBCHEM_SHAPE_VOLUME>  (1) 
99.9

>  <PUBCHEM_COORDINATE_TYPE>  (1) 
2
5
10

$$$$
