15395
     RDKit          3D

  7  6  0  0  0  0  0  0  0  0999 V2000
    0.6575    1.3692    0.0084 O   0  0  0  0  0  0  0  0  0  0  0  0
   -1.9538    0.3765   -0.0217 C   0  0  0  0  0  0  0  0  0  0  0  0
   -0.7669   -0.5834    0.0028 C   0  0  0  0  0  0  0  0  0  0  0  0
   -3.2765   -0.3714    0.0116 C   0  0  0  0  0  0  0  0  0  0  0  0
    0.5661    0.1446    0.0032 C   0  0  0  0  0  0  0  0  0  0  0  0
    1.7725   -0.7298   -0.0023 C   0  0  0  0  0  0  0  0  0  0  0  0
    3.0012   -0.2057   -0.0019 C   0  0  0  0  0  0  0  0  0  0  0  0
  1  5  2  0
  2  3  1  0
  2  4  1  0
  3  5  1  0
  5  6  1  0
  6  7  2  0
M  END
>  <PUBCHEM_COMPOUND_CID>  (1) 
15395

>  <PUBCHEM_CONFORMER_RMSD>  (1) 
0.4

>  <PUBCHEM_CONFORMER_DIVERSEORDER>  (1) 
1
27
28
18
37
20
39
25
6
34
36
4
35
33
21
10
40
3
42
2
5
32
12
15
11
30
14
38
24
9
44
26
7
29
16
31
19
13
17
41
43
22
23
8

>  <PUBCHEM_MMFF94_PARTIAL_CHARGES>  (1) 
8
1 -0.57
15 0.15
16 0.15
17 0.15
3 0.06
5 0.49
6 -0.14
7 -0.3

>  <PUBCHEM_EFFECTIVE_ROTOR_COUNT>  (1) 
3

>  <PUBCHEM_PHARMACOPHORE_FEATURES>  (1) 
3
1 1 acceptor
1 4 hydrophobe
1 7 hydrophobe

>  <PUBCHEM_HEAVY_ATOM_COUNT>  (1) 
7

>  <PUBCHEM_ATOM_DEF_STEREO_COUNT>  (1) 
0

>  <PUBCHEM_ATOM_UDEF_STEREO_COUNT>  (1) 
0

>  <PUBCHEM_BOND_DEF_STEREO_COUNT>  (1) 
0

>  <PUBCHEM_BOND_UDEF_STEREO_COUNT>  (1) 
0

>  <PUBCHEM_ISOTOPIC_ATOM_COUNT>  (1) 
0

>  <PUBCHEM_COMPONENT_COUNT>  (1) 
1

>  <PUBCHEM_CACTVS_TAUTO_COUNT>  (1) 
2

>  <PUBCHEM_CONFORMER_ID>  (1) 
00003C2300000001

>  <PUBCHEM_MMFF94_ENERGY>  (1) 
4.2752

>  <PUBCHEM_FEATURE_SELFOVERLAP>  (1) 
15.223

>  <PUBCHEM_SHAPE_FINGERPRINT>  (1) 
11062470 55 17418092113568643123
12932764 1 15769485448227945031
14325111 11 18410573976772604071
29004967 10 18410014316764144642
5460574 1 9295286144678143431

>  <PUBCHEM_SHAPE_MULTIPOLES>  (1) 
138.19
4.76
0.98
0.6
1.16
0.2
0
-0.77
0
-0.12
0
0.01
-0.02
0.01

>  <PUBCHEM_SHAPE_SELFOVERLAP>  (1) 
248.955

>  <PUBCHEM_SHAPE_VOLUME>  (1) 
89.1

>  <PUBCHEM_COORDINATE_TYPE>  (1) 
2
5
10

$$$$
