15391
     RDKit          3D

  8  7  0  0  0  0  0  0  0  0999 V2000
    1.1485   -0.0369    0.0390 P   0  0  0  0  0  0  0  0  0  0  0  0
   -0.2869    0.6133    0.3954 O   0  0  0  0  0  0  0  0  0  0  0  0
    2.2033    0.8998    0.8296 O   0  0  0  0  0  0  0  0  0  0  0  0
    1.3576    0.3900   -1.5066 O   0  0  0  0  0  0  0  0  0  0  0  0
    1.2666   -1.5080    0.3117 O   0  0  0  0  0  0  0  0  0  0  0  0
   -1.4399    0.1093   -0.2719 C   0  0  0  0  0  0  0  0  0  0  0  0
   -1.5893   -1.3726    0.0367 C   0  0  0  0  0  0  0  0  0  0  0  0
   -2.6599    0.9052    0.1661 C   0  0  0  0  0  0  0  0  0  0  0  0
  1  2  1  0
  1  3  1  0
  1  4  1  0
  1  5  2  0
  2  6  1  0
  6  7  1  0
  6  8  1  0
M  END
>  <PUBCHEM_COMPOUND_CID>  (1) 
15391

>  <PUBCHEM_CONFORMER_RMSD>  (1) 
0.4

>  <PUBCHEM_CONFORMER_DIVERSEORDER>  (1) 
1
2
3

>  <PUBCHEM_MMFF94_PARTIAL_CHARGES>  (1) 
8
1 1.51
16 0.5
17 0.5
2 -0.55
3 -0.77
4 -0.77
5 -0.7
6 0.28

>  <PUBCHEM_EFFECTIVE_ROTOR_COUNT>  (1) 
2

>  <PUBCHEM_PHARMACOPHORE_FEATURES>  (1) 
5
1 3 acceptor
1 4 acceptor
1 5 acceptor
3 6 7 8 hydrophobe
4 1 3 4 5 anion

>  <PUBCHEM_HEAVY_ATOM_COUNT>  (1) 
8

>  <PUBCHEM_ATOM_DEF_STEREO_COUNT>  (1) 
0

>  <PUBCHEM_ATOM_UDEF_STEREO_COUNT>  (1) 
0

>  <PUBCHEM_BOND_DEF_STEREO_COUNT>  (1) 
0

>  <PUBCHEM_BOND_UDEF_STEREO_COUNT>  (1) 
0

>  <PUBCHEM_ISOTOPIC_ATOM_COUNT>  (1) 
0

>  <PUBCHEM_COMPONENT_COUNT>  (1) 
1

>  <PUBCHEM_CACTVS_TAUTO_COUNT>  (1) 
1

>  <PUBCHEM_CONFORMER_ID>  (1) 
00003C1F00000001

>  <PUBCHEM_MMFF94_ENERGY>  (1) 
-21.191

>  <PUBCHEM_FEATURE_SELFOVERLAP>  (1) 
25.407

>  <PUBCHEM_SHAPE_FINGERPRINT>  (1) 
12932741 1 17845946198577138101
14390081 3 18202277017939487585
18185500 45 18334294275174292703
21040471 1 18409452462090602727
23211744 41 17701249472019074704
23235687 12 17312820506728279983
23552423 10 18186523189582804819
24536 1 17603871125852286459
29004967 10 16226321530236820880
5084963 1 17969510294844004441

>  <PUBCHEM_SHAPE_MULTIPOLES>  (1) 
145.01
3.29
1.33
0.92
0.79
0.49
-0.28
-0.75
0.28
0.17
0.17
-0.45
-0.15
-0.01

>  <PUBCHEM_SHAPE_SELFOVERLAP>  (1) 
251.114

>  <PUBCHEM_SHAPE_VOLUME>  (1) 
97.5

>  <PUBCHEM_COORDINATE_TYPE>  (1) 
2
5
10

$$$$
