15399
     RDKit          3D

 14 15  0  0  0  0  0  0  0  0999 V2000
   -1.6397   -2.2903   -0.3483 O   0  0  0  0  0  0  0  0  0  0  0  0
   -1.6399    2.2903    0.3487 O   0  0  0  0  0  0  0  0  0  0  0  0
   -1.1187    0.0001   -0.0002 N   0  0  0  0  0  0  0  0  0  0  0  0
    0.3137    0.0002   -0.0002 C   0  0  0  0  0  0  0  0  0  0  0  0
    1.0110   -1.1178    0.4575 C   0  0  0  0  0  0  0  0  0  0  0  0
    1.0113    1.1180   -0.4578 C   0  0  0  0  0  0  0  0  0  0  0  0
    3.1034   -0.0001    0.0002 C   0  0  0  0  0  0  0  0  0  0  0  0
   -1.9143   -1.1178   -0.1520 C   0  0  0  0  0  0  0  0  0  0  0  0
   -1.9144    1.1178    0.1519 C   0  0  0  0  0  0  0  0  0  0  0  0
    2.4060   -1.1180    0.4577 C   0  0  0  0  0  0  0  0  0  0  0  0
    2.4061    1.1179   -0.4578 C   0  0  0  0  0  0  0  0  0  0  0  0
   -3.3096   -0.6595   -0.0839 C   0  0  0  0  0  0  0  0  0  0  0  0
   -3.3096    0.6593    0.0840 C   0  0  0  0  0  0  0  0  0  0  0  0
    4.5950    0.0000    0.0002 C   0  0  0  0  0  0  0  0  0  0  0  0
  1  8  2  0
  2  9  2  0
  3  4  1  0
  3  8  1  0
  3  9  1  0
  4  5  2  0
  4  6  1  0
  5 10  1  0
  6 11  2  0
  7 10  2  0
  7 11  1  0
  7 14  1  0
  8 12  1  0
  9 13  1  0
 12 13  2  0
M  END
>  <PUBCHEM_COMPOUND_CID>  (1) 
15399

>  <PUBCHEM_CONFORMER_RMSD>  (1) 
0.4

>  <PUBCHEM_CONFORMER_DIVERSEORDER>  (1) 
1
2
3

>  <PUBCHEM_MMFF94_PARTIAL_CHARGES>  (1) 
20
1 -0.57
10 -0.15
11 -0.15
12 -0.14
13 -0.14
14 0.14
15 0.15
16 0.15
17 0.15
18 0.15
19 0.15
2 -0.57
20 0.15
3 -0.24
4 0.12
5 -0.15
6 -0.15
7 -0.14
8 0.62
9 0.62

>  <PUBCHEM_EFFECTIVE_ROTOR_COUNT>  (1) 
1.2

>  <PUBCHEM_PHARMACOPHORE_FEATURES>  (1) 
4
1 1 acceptor
1 2 acceptor
5 3 8 9 12 13 rings
6 4 5 6 7 10 11 rings

>  <PUBCHEM_HEAVY_ATOM_COUNT>  (1) 
14

>  <PUBCHEM_ATOM_DEF_STEREO_COUNT>  (1) 
0

>  <PUBCHEM_ATOM_UDEF_STEREO_COUNT>  (1) 
0

>  <PUBCHEM_BOND_DEF_STEREO_COUNT>  (1) 
0

>  <PUBCHEM_BOND_UDEF_STEREO_COUNT>  (1) 
0

>  <PUBCHEM_ISOTOPIC_ATOM_COUNT>  (1) 
0

>  <PUBCHEM_COMPONENT_COUNT>  (1) 
1

>  <PUBCHEM_CACTVS_TAUTO_COUNT>  (1) 
1

>  <PUBCHEM_CONFORMER_ID>  (1) 
00003C2700000001

>  <PUBCHEM_MMFF94_ENERGY>  (1) 
39.2261

>  <PUBCHEM_FEATURE_SELFOVERLAP>  (1) 
20.297

>  <PUBCHEM_SHAPE_FINGERPRINT>  (1) 
11132069 177 18409442601056778728
12251169 10 18409166601920673348
12932764 1 17274809247358124738
13221675 6 18409451383858801514
13380535 76 18412263921765515871
14144814 61 18409448050974554058
14325111 11 18408604777285691308
15442244 35 18192992617406093786
15536298 74 18412545414475476806
15669948 3 18342168990216208455
15775835 57 18335425638179296033
16945 1 18411982463846874246
18522853 276 18410009940229555632
200 152 18410564107164546559
20510252 161 18130509621941108913
20871998 184 18202285840039787991
21267235 1 18336837467054925899
22445834 79 18261390014201662450
23402539 116 18201430381391114837
23402655 69 18334852784094697933
23463225 33 18334856082840467078
23552423 10 18117841220774835525
23559900 14 18273493477709423136
2748010 2 18051969526430934081
3312278 4 18335421300431203731
5104073 3 18409448093908468592
57096353 35 18336266867695821958
69090 78 18341890788262877807
8809292 202 18188494691119518970
9709674 26 18342181067864951934

>  <PUBCHEM_SHAPE_MULTIPOLES>  (1) 
271.39
6.54
1.8
0.68
3.23
0
0
0
0
-0.91
0
0.07
0
-0.51

>  <PUBCHEM_SHAPE_SELFOVERLAP>  (1) 
591.228

>  <PUBCHEM_SHAPE_VOLUME>  (1) 
147.1

>  <PUBCHEM_COORDINATE_TYPE>  (1) 
2
5
10

$$$$
