15390
     RDKit          3D

 14 13  0  0  0  0  0  0  0  0999 V2000
    0.3253   -0.0762    1.0949 P   0  0  0  0  0  0  0  0  0  0  0  0
    1.6287   -0.6073    0.2923 O   0  0  0  0  0  0  0  0  0  0  0  0
   -0.1852    1.1604    0.1808 O   0  0  0  0  0  0  0  0  0  0  0  0
   -0.7876   -1.2325    0.8691 O   0  0  0  0  0  0  0  0  0  0  0  0
    0.5757    0.2716    2.5349 O   0  0  0  0  0  0  0  0  0  0  0  0
    2.7525    0.2499    0.1874 C   0  0  0  0  0  0  0  0  0  0  0  0
   -1.3970    1.8052    0.5335 C   0  0  0  0  0  0  0  0  0  0  0  0
   -1.1189   -1.6552   -0.4427 C   0  0  0  0  0  0  0  0  0  0  0  0
    3.8191   -0.4498   -0.5876 C   0  0  0  0  0  0  0  0  0  0  0  0
   -1.6592    2.9019   -0.4444 C   0  0  0  0  0  0  0  0  0  0  0  0
   -2.1616   -2.7196   -0.3547 C   0  0  0  0  0  0  0  0  0  0  0  0
    4.3309    0.0079   -1.7355 C   0  0  0  0  0  0  0  0  0  0  0  0
   -2.7475    2.9677   -1.2193 C   0  0  0  0  0  0  0  0  0  0  0  0
   -3.3754   -2.6239   -0.9086 C   0  0  0  0  0  0  0  0  0  0  0  0
  1  2  1  0
  1  3  1  0
  1  4  1  0
  1  5  2  0
  2  6  1  0
  3  7  1  0
  4  8  1  0
  6  9  1  0
  7 10  1  0
  8 11  1  0
  9 12  2  0
 10 13  2  0
 11 14  2  0
M  END
>  <PUBCHEM_COMPOUND_CID>  (1) 
15390

>  <PUBCHEM_CONFORMER_RMSD>  (1) 
0.8

>  <PUBCHEM_CONFORMER_DIVERSEORDER>  (1) 
1
62
2
23
52
68
42
15
53
17
55
4
49
36
66
16
59
47
71
12
67
39
64
45
28
69
30
51
60
29
21
73
61
20
10
35
31
65
54
70
63
8
7
50
22
24
43
6
32
27
46
5
57
40
14
25
11
58
18
3
72
48
56
9
34
33
38
44
26
19
41
37
13

>  <PUBCHEM_MMFF94_PARTIAL_CHARGES>  (1) 
23
1 1.51
10 -0.29
11 -0.29
12 -0.3
13 -0.3
14 -0.3
2 -0.55
21 0.15
22 0.15
23 0.15
24 0.15
25 0.15
26 0.15
27 0.15
28 0.15
29 0.15
3 -0.55
4 -0.55
5 -0.7
6 0.42
7 0.42
8 0.42
9 -0.29

>  <PUBCHEM_EFFECTIVE_ROTOR_COUNT>  (1) 
9

>  <PUBCHEM_PHARMACOPHORE_FEATURES>  (1) 
4
1 12 hydrophobe
1 13 hydrophobe
1 14 hydrophobe
1 5 acceptor

>  <PUBCHEM_HEAVY_ATOM_COUNT>  (1) 
14

>  <PUBCHEM_ATOM_DEF_STEREO_COUNT>  (1) 
0

>  <PUBCHEM_ATOM_UDEF_STEREO_COUNT>  (1) 
0

>  <PUBCHEM_BOND_DEF_STEREO_COUNT>  (1) 
0

>  <PUBCHEM_BOND_UDEF_STEREO_COUNT>  (1) 
0

>  <PUBCHEM_ISOTOPIC_ATOM_COUNT>  (1) 
0

>  <PUBCHEM_COMPONENT_COUNT>  (1) 
1

>  <PUBCHEM_CACTVS_TAUTO_COUNT>  (1) 
1

>  <PUBCHEM_CONFORMER_ID>  (1) 
00003C1E00000001

>  <PUBCHEM_MMFF94_ENERGY>  (1) 
9.384

>  <PUBCHEM_FEATURE_SELFOVERLAP>  (1) 
20.297

>  <PUBCHEM_SHAPE_FINGERPRINT>  (1) 
12138202 97 18268438940529594654
12596602 18 13480788181628406247
12617007 42 18051404369059833055
14004458 79 18410581716182326725
14648413 74 17255109576759842907
14817 1 13310222539436204433
15502708 8 18411700984606903444
17041 50 18048861185933106431
20339313 130 17980480388516139275
20602899 9 17914060797915340402
20671657 53 18052829331407390319
20711985 344 18336254721581315947
21524375 3 17826515466051479216
22620623 9 18343025492694266183
22713019 5 18261391203981579819
23382010 3 18057871455762253808
23419403 2 17345741014255754233
23526113 38 17417230075288782472
23530152 11 17979058402380198053
23557571 272 18269825583732877152
298252 57 18044942268492786880
3060560 45 17541934295750727604
57262259 84 18342744035061065391
68419 9 17897417572004715130
81228 2 18338517550796943689
88987 49 18338223883025251456

>  <PUBCHEM_SHAPE_MULTIPOLES>  (1) 
268.49
6.21
3.67
1.6
6.76
0.95
0.59
-1.36
-4.2
-6.42
-1.5
0.67
0.24
0.13

>  <PUBCHEM_SHAPE_SELFOVERLAP>  (1) 
485.66

>  <PUBCHEM_SHAPE_VOLUME>  (1) 
170.9

>  <PUBCHEM_COORDINATE_TYPE>  (1) 
2
5
10

$$$$
