154
     RDKit          3D

 20 20  0  0  1  0  0  0  0  0999 V2000
   -4.1587    1.3621    0.1235 P   0  0  0  0  0  0  0  0  0  0  0  0
   -0.1321   -0.1636   -0.4617 O   0  0  0  0  0  0  0  0  0  0  0  0
   -0.9706   -3.1885    1.2587 O   0  0  0  0  0  0  0  0  0  0  0  0
    1.3470   -3.3840   -0.7936 O   0  0  0  0  0  0  0  0  0  0  0  0
   -2.6740    0.7667    0.3699 O   0  0  0  0  0  0  0  0  0  0  0  0
   -4.4572    0.9600   -1.4142 O   0  0  0  0  0  0  0  0  0  0  0  0
   -5.1165    0.3642    0.9615 O   0  0  0  0  0  0  0  0  0  0  0  0
   -4.3180    2.8204    0.4397 O   0  0  0  0  0  0  0  0  0  0  0  0
    4.1937    0.6149    2.0633 O   0  0  0  0  0  0  0  0  0  0  0  0
    2.3243   -0.3939   -0.5189 N   0  0  0  0  0  0  0  0  0  0  0  0
    1.8304    1.4685   -1.9592 N   0  0  0  0  0  0  0  0  0  0  0  0
    3.8111    2.1664    0.3539 N   0  0  0  0  0  0  0  0  0  0  0  0
   -0.6309   -2.3794    0.1496 C   0  0  0  0  0  0  0  0  0  0  0  0
   -0.9901   -0.9273    0.3991 C   0  0  0  0  0  0  0  0  0  0  0  0
    0.8649   -2.2822   -0.0451 C   0  0  0  0  0  0  0  0  0  0  0  0
    1.0097   -0.9732   -0.8141 C   0  0  0  0  0  0  0  0  0  0  0  0
   -2.4417   -0.6049    0.0944 C   0  0  0  0  0  0  0  0  0  0  0  0
    2.6011    0.7275   -1.0922 C   0  0  0  0  0  0  0  0  0  0  0  0
    3.9702    1.3030   -0.7795 C   0  0  0  0  0  0  0  0  0  0  0  0
    3.9372    1.7437    1.6648 C   0  0  0  0  0  0  0  0  0  0  0  0
  1  5  1  0
  1  6  1  0
  1  7  1  0
  1  8  2  0
  2 14  1  0
  2 16  1  0
  3 13  1  0
  4 15  1  0
  5 17  1  0
  9 20  2  0
 10 16  1  0
 10 18  2  0
 11 18  1  0
 12 19  1  0
 12 20  1  0
 13 14  1  0
 13 15  1  0
 14 17  1  0
 15 16  1  0
 18 19  1  0
M  END
>  <PUBCHEM_COMPOUND_CID>  (1) 
154

>  <PUBCHEM_CONFORMER_RMSD>  (1) 
1

>  <PUBCHEM_CONFORMER_DIVERSEORDER>  (1) 
1
322
19
116
266
112
141
235
174
14
77
267
85
294
268
29
145
336
179
299
126
195
72
12
188
218
35
89
301
288
226
167
247
253
16
62
257
157
97
146
280
131
312
300
32
314
18
78
114
76
319
171
49
313
127
249
225
214
269
215
147
26
213
292
84
252
306
233
165
182
316
250
44
107
293
255
52
237
337
70
290
289
202
331
132
108
139
223
155
284
11
275
153
311
94
241
258
136
140
265
298
222
305
121
135
271
164
227
51
22
93
207
91
304
65
332
98
307
231
123
128
95
183
134
106
38
37
260
4
142
308
82
309
23
5
189
286
327
291
205
149
335
224
190
200
180
81
10
232
7
63
230
104
228
256
119
198
117
103
259
148
219
168
248
27
100
285
193
274
246
326
151
92
96
28
75
270
264
272
317
243
199
186
211
105
2
150
201
283
31
30
262
110
42
334
323
263
55
206
172
25
166
177
234
83
122
64
173
152
261
156
50
34
45
297
209
68
320
80
303
240
208
39
176
9
87
321
58
101
282
59
154
115
324
40
43
53
279
120
73
276
163
328
278
129
24
277
33
47
296
220
203
118
242
178
133
315
125
137
254
185
36
130
8
333
79
41
229
71
330
159
187
21
160
99
17
175
48
6
287
124
273
162
216
88
245
325
169
3
281
204
194
251
302
46
236
74
318
109
158
143
57
13
191
111
239
90
181
217
192
161
197
170
238
310
86
67
244
221
113
56
61
102
210
54
295
329
20
138
15
66
69
184
144
196
212
60

>  <PUBCHEM_MMFF94_PARTIAL_CHARGES>  (1) 
28
1 1.51
10 -0.7
11 -0.85
12 -0.73
13 0.28
14 0.28
15 0.28
16 0.53
17 0.28
18 0.44
19 0.36
2 -0.56
20 0.57
27 0.4
28 0.4
3 -0.68
31 0.4
32 0.4
33 0.37
34 0.5
35 0.5
36 0.06
4 -0.68
5 -0.55
6 -0.77
7 -0.77
8 -0.7
9 -0.57

>  <PUBCHEM_EFFECTIVE_ROTOR_COUNT>  (1) 
8

>  <PUBCHEM_PHARMACOPHORE_FEATURES>  (1) 
14
1 11 donor
1 12 donor
1 2 acceptor
1 3 acceptor
1 3 donor
1 4 acceptor
1 4 donor
1 6 acceptor
1 7 acceptor
1 8 acceptor
1 9 acceptor
3 10 11 18 cation
4 1 6 7 8 anion
5 2 13 14 15 16 rings

>  <PUBCHEM_HEAVY_ATOM_COUNT>  (1) 
20

>  <PUBCHEM_ATOM_DEF_STEREO_COUNT>  (1) 
0

>  <PUBCHEM_ATOM_UDEF_STEREO_COUNT>  (1) 
4

>  <PUBCHEM_BOND_DEF_STEREO_COUNT>  (1) 
0

>  <PUBCHEM_BOND_UDEF_STEREO_COUNT>  (1) 
1

>  <PUBCHEM_ISOTOPIC_ATOM_COUNT>  (1) 
0

>  <PUBCHEM_COMPONENT_COUNT>  (1) 
1

>  <PUBCHEM_CACTVS_TAUTO_COUNT>  (1) 
4

>  <PUBCHEM_CONFORMER_ID>  (1) 
0000009A00000001

>  <PUBCHEM_MMFF94_ENERGY>  (1) 
8.0031

>  <PUBCHEM_FEATURE_SELFOVERLAP>  (1) 
71.087

>  <PUBCHEM_SHAPE_FINGERPRINT>  (1) 
10042902 136 11602831167785075609
10692045 39 18269543975897231730
10764073 3 15290379733266968718
11543360 7 15769777965771529557
11725454 13 17846495967439542916
12403259 327 15936705838280558921
12633257 1 16877939460091955584
12769317 202 18270394993058992833
12788726 201 17465115129349584562
13965767 371 18187918461396230444
14178342 30 18116430543462696042
14251740 57 11026385834883937457
14251764 30 14418680399939189064
14251764 38 17986099944937590993
14461889 52 18187097139859809233
14848178 96 18412830153016071817
14957384 54 18195238039452138864
15664445 248 11239415130328485802
173720 79 18114451366497463011
1741750 31 18337955691733702922
1813 80 8574714619530402321
19752476 56 17703232797522062136
212916 134 18340479058356274600
21304303 282 17700097132346825702
21427221 339 17894900876305117640
21452121 103 18338513015353657275
21524375 3 18334019418963932775
23559900 14 18272099326966968380
23598291 2 17315925648272571180
2838139 119 17346303938999080232
314173 85 8358265834354928045
43658 37 18343021081942233239
474 4 18261400996823265949
495365 180 17989491822961808822
5104073 3 18189911820680579313
5352402 22 13984652668488224856
7808743 9 18192723460464653612
84936 182 18199191697943438257
9862522 239 17968359213396336413
9981440 41 18341044207043210803

>  <PUBCHEM_SHAPE_MULTIPOLES>  (1) 
353.54
9.37
3.38
1.48
5.19
2.23
0.17
-9.6
2.12
0.29
0.42
-1.41
-0.5
0.76

>  <PUBCHEM_SHAPE_SELFOVERLAP>  (1) 
693.515

>  <PUBCHEM_SHAPE_VOLUME>  (1) 
211.9

>  <PUBCHEM_COORDINATE_TYPE>  (1) 
2
5
10

$$$$
