15404
     RDKit          3D

  8  7  0  0  0  0  0  0  0  0999 V2000
    1.3076    0.0746    0.2613 C   0  0  0  0  0  0  0  0  0  0  0  0
    0.1019    0.1014   -0.6834 C   0  0  0  0  0  0  0  0  0  0  0  0
    2.5925   -0.2751   -0.4913 C   0  0  0  0  0  0  0  0  0  0  0  0
   -1.1855    0.4756    0.0175 C   0  0  0  0  0  0  0  0  0  0  0  0
   -1.9959   -0.6210    0.6702 C   0  0  0  0  0  0  0  0  0  0  0  0
    3.7996   -0.2682    0.4333 C   0  0  0  0  0  0  0  0  0  0  0  0
   -3.0225   -1.2407   -0.2681 C   0  0  0  0  0  0  0  0  0  0  0  0
   -1.5978    1.7534    0.0605 C   0  0  0  0  0  0  0  0  0  0  0  0
  1  2  1  0
  1  3  1  0
  2  4  1  0
  3  6  1  0
  4  5  1  0
  4  8  2  0
  5  7  1  0
M  END
>  <PUBCHEM_COMPOUND_CID>  (1) 
15404

>  <PUBCHEM_CONFORMER_RMSD>  (1) 
0.6

>  <PUBCHEM_CONFORMER_DIVERSEORDER>  (1) 
1
25
23
26
37
22
2
18
29
40
19
32
27
36
31
12
30
33
11
28
15
41
38
17
5
9
39
10
35
21
24
20
3
8
34
14
16
7
4
13
6

>  <PUBCHEM_MMFF94_PARTIAL_CHARGES>  (1) 
6
2 0.14
23 0.15
24 0.15
4 -0.28
5 0.14
8 -0.3

>  <PUBCHEM_EFFECTIVE_ROTOR_COUNT>  (1) 
4

>  <PUBCHEM_PHARMACOPHORE_FEATURES>  (1) 
4
1 6 hydrophobe
1 7 hydrophobe
1 8 hydrophobe
5 1 2 3 4 5 hydrophobe

>  <PUBCHEM_HEAVY_ATOM_COUNT>  (1) 
8

>  <PUBCHEM_ATOM_DEF_STEREO_COUNT>  (1) 
0

>  <PUBCHEM_ATOM_UDEF_STEREO_COUNT>  (1) 
0

>  <PUBCHEM_BOND_DEF_STEREO_COUNT>  (1) 
0

>  <PUBCHEM_BOND_UDEF_STEREO_COUNT>  (1) 
0

>  <PUBCHEM_ISOTOPIC_ATOM_COUNT>  (1) 
0

>  <PUBCHEM_COMPONENT_COUNT>  (1) 
1

>  <PUBCHEM_CACTVS_TAUTO_COUNT>  (1) 
1

>  <PUBCHEM_CONFORMER_ID>  (1) 
00003C2C00000001

>  <PUBCHEM_MMFF94_ENERGY>  (1) 
0.5409

>  <PUBCHEM_FEATURE_SELFOVERLAP>  (1) 
20.317

>  <PUBCHEM_SHAPE_FINGERPRINT>  (1) 
10857977 72 18273492390275556208
11062470 55 17530681030595575047
12932764 1 18340778052583602786
14325111 11 18410293575896387566
20211469 26 18114175345965590334
20711978 1 18336265742446337204
3248919 1 17603595110106063098

>  <PUBCHEM_SHAPE_MULTIPOLES>  (1) 
164.64
5.61
1.29
0.8
4.15
0.41
-0.01
-1.78
0.47
-1.27
0
0.04
-0.05
-0.05

>  <PUBCHEM_SHAPE_SELFOVERLAP>  (1) 
290.71

>  <PUBCHEM_SHAPE_VOLUME>  (1) 
109.4

>  <PUBCHEM_COORDINATE_TYPE>  (1) 
2
5
10

$$$$
