15400
     RDKit          3D

 14 15  0  0  0  0  0  0  0  0999 V2000
    4.8079    0.0000   -0.0001 Cl  0  0  0  0  0  0  0  0  0  0  0  0
   -1.6565    2.2903    0.3483 O   0  0  0  0  0  0  0  0  0  0  0  0
   -1.6559   -2.2903   -0.3486 O   0  0  0  0  0  0  0  0  0  0  0  0
   -1.1351    0.0001    0.0002 N   0  0  0  0  0  0  0  0  0  0  0  0
    0.2973    0.0002    0.0002 C   0  0  0  0  0  0  0  0  0  0  0  0
   -1.9309    1.1177    0.1519 C   0  0  0  0  0  0  0  0  0  0  0  0
   -1.9307   -1.1178   -0.1519 C   0  0  0  0  0  0  0  0  0  0  0  0
    0.9947    1.1181   -0.4575 C   0  0  0  0  0  0  0  0  0  0  0  0
    0.9948   -1.1179    0.4577 C   0  0  0  0  0  0  0  0  0  0  0  0
   -3.3261    0.6591    0.0839 C   0  0  0  0  0  0  0  0  0  0  0  0
   -3.3259   -0.6595   -0.0840 C   0  0  0  0  0  0  0  0  0  0  0  0
    2.3896    1.1179   -0.4576 C   0  0  0  0  0  0  0  0  0  0  0  0
    2.3896   -1.1178    0.4577 C   0  0  0  0  0  0  0  0  0  0  0  0
    3.0870    0.0000   -0.0001 C   0  0  0  0  0  0  0  0  0  0  0  0
  1 14  1  0
  2  6  2  0
  3  7  2  0
  4  5  1  0
  4  6  1  0
  4  7  1  0
  5  8  2  0
  5  9  1  0
  6 10  1  0
  7 11  1  0
  8 12  1  0
  9 13  2  0
 10 11  2  0
 12 14  2  0
 13 14  1  0
M  END
>  <PUBCHEM_COMPOUND_CID>  (1) 
15400

>  <PUBCHEM_CONFORMER_RMSD>  (1) 
0.4

>  <PUBCHEM_CONFORMER_DIVERSEORDER>  (1) 
1
2
3

>  <PUBCHEM_MMFF94_PARTIAL_CHARGES>  (1) 
20
1 -0.18
10 -0.14
11 -0.14
12 -0.15
13 -0.15
14 0.18
15 0.15
16 0.15
17 0.15
18 0.15
19 0.15
2 -0.57
20 0.15
3 -0.57
4 -0.24
5 0.12
6 0.62
7 0.62
8 -0.15
9 -0.15

>  <PUBCHEM_EFFECTIVE_ROTOR_COUNT>  (1) 
1.2

>  <PUBCHEM_PHARMACOPHORE_FEATURES>  (1) 
4
1 2 acceptor
1 3 acceptor
5 4 6 7 10 11 rings
6 5 8 9 12 13 14 rings

>  <PUBCHEM_HEAVY_ATOM_COUNT>  (1) 
14

>  <PUBCHEM_ATOM_DEF_STEREO_COUNT>  (1) 
0

>  <PUBCHEM_ATOM_UDEF_STEREO_COUNT>  (1) 
0

>  <PUBCHEM_BOND_DEF_STEREO_COUNT>  (1) 
0

>  <PUBCHEM_BOND_UDEF_STEREO_COUNT>  (1) 
0

>  <PUBCHEM_ISOTOPIC_ATOM_COUNT>  (1) 
0

>  <PUBCHEM_COMPONENT_COUNT>  (1) 
1

>  <PUBCHEM_CACTVS_TAUTO_COUNT>  (1) 
1

>  <PUBCHEM_CONFORMER_ID>  (1) 
00003C2800000001

>  <PUBCHEM_MMFF94_ENERGY>  (1) 
37.42

>  <PUBCHEM_FEATURE_SELFOVERLAP>  (1) 
20.297

>  <PUBCHEM_SHAPE_FINGERPRINT>  (1) 
11132069 177 18409161126095911800
12251169 10 18409166601899574348
12932764 1 17203032024458631406
13221675 6 18409169908919020622
13380535 76 18412263921744416855
14144814 61 18409448050958736298
14325111 11 18408887356016256012
15442244 35 18192992617406100290
15536298 74 18412545410201608518
15669948 3 18341887515260603295
15775835 57 18335144163207873113
16945 1 18411981364345795975
18522853 276 18410009940245366880
200 152 18410564107143447543
20510252 161 18130509617635592113
20871998 184 18202285844355860791
21267235 1 18336837467054919411
22445834 79 18261108539209134042
23402539 116 18201430381359485805
23402655 69 18335696101102674077
23463225 33 18334856078513864238
23552423 10 18117841220806477541
23559900 14 18273212007048798264
2748010 2 17977948977677772151
3312278 4 18335421300420647731
5104073 3 18409730681292264904
57096353 35 18264209273631546254
8809292 202 18188494691124787226
9709674 26 18342463642363839878
9981440 41 17324928552571461752

>  <PUBCHEM_SHAPE_MULTIPOLES>  (1) 
273.26
6.81
1.8
0.68
4.16
0
0
0
0
-0.95
0
0.08
0
-0.51

>  <PUBCHEM_SHAPE_SELFOVERLAP>  (1) 
588.159

>  <PUBCHEM_SHAPE_VOLUME>  (1) 
151.8

>  <PUBCHEM_COORDINATE_TYPE>  (1) 
2
5
10

$$$$
