15403
     RDKit          3D

 11 11  0  0  0  0  0  0  0  0999 V2000
    2.6623    1.3880    0.0736 S   0  0  0  0  0  0  0  0  0  0  0  0
    1.5978   -1.3533   -0.0629 S   0  0  0  0  0  0  0  0  0  0  0  0
   -0.8344   -0.2575   -0.0140 O   0  0  0  0  0  0  0  0  0  0  0  0
   -2.4169    1.4151    0.0631 O   0  0  0  0  0  0  0  0  0  0  0  0
    0.0607    0.8197    0.0407 N   0  0  0  0  0  0  0  0  0  0  0  0
   -3.0058   -0.8242   -0.0460 N   0  0  0  0  0  0  0  0  0  0  0  0
    3.8591    0.0857   -0.3378 C   0  0  0  0  0  0  0  0  0  0  0  0
    3.3706   -1.2019    0.2990 C   0  0  0  0  0  0  0  0  0  0  0  0
    1.2606    0.3543    0.0199 C   0  0  0  0  0  0  0  0  0  0  0  0
   -2.1137    0.2271    0.0075 C   0  0  0  0  0  0  0  0  0  0  0  0
   -4.4402   -0.6530   -0.0431 C   0  0  0  0  0  0  0  0  0  0  0  0
  1  7  1  0
  1  9  1  0
  2  8  1  0
  2  9  1  0
  3  5  1  0
  3 10  1  0
  4 10  2  0
  5  9  2  3
  6 10  1  0
  6 11  1  0
  7  8  1  0
M  END
>  <PUBCHEM_COMPOUND_CID>  (1) 
15403

>  <PUBCHEM_CONFORMER_RMSD>  (1) 
0.6

>  <PUBCHEM_CONFORMER_DIVERSEORDER>  (1) 
1
13
16
15
14
12
7
11
4
9
8
10
5
2
3
6

>  <PUBCHEM_MMFF94_PARTIAL_CHARGES>  (1) 
12
1 -0.37
10 0.78
11 0.3
16 0.37
2 -0.37
3 -0.09
4 -0.57
5 -0.51
6 -0.73
7 0.23
8 0.23
9 0.73

>  <PUBCHEM_EFFECTIVE_ROTOR_COUNT>  (1) 
3.8

>  <PUBCHEM_PHARMACOPHORE_FEATURES>  (1) 
4
1 4 acceptor
1 5 acceptor
1 6 donor
5 1 2 7 8 9 rings

>  <PUBCHEM_HEAVY_ATOM_COUNT>  (1) 
11

>  <PUBCHEM_ATOM_DEF_STEREO_COUNT>  (1) 
0

>  <PUBCHEM_ATOM_UDEF_STEREO_COUNT>  (1) 
0

>  <PUBCHEM_BOND_DEF_STEREO_COUNT>  (1) 
0

>  <PUBCHEM_BOND_UDEF_STEREO_COUNT>  (1) 
0

>  <PUBCHEM_ISOTOPIC_ATOM_COUNT>  (1) 
0

>  <PUBCHEM_COMPONENT_COUNT>  (1) 
1

>  <PUBCHEM_CACTVS_TAUTO_COUNT>  (1) 
2

>  <PUBCHEM_CONFORMER_ID>  (1) 
00003C2B00000001

>  <PUBCHEM_MMFF94_ENERGY>  (1) 
10.4558

>  <PUBCHEM_FEATURE_SELFOVERLAP>  (1) 
20.312

>  <PUBCHEM_SHAPE_FINGERPRINT>  (1) 
11062470 55 12107781921558692351
12032990 46 18341616988461218878
12932764 1 17417800760114501481
14144814 61 18412544288682426920
14251717 144 18409446990323658982
14252887 29 17775012275701034462
14325111 11 18410575080600369608
15477762 27 18409168809813464382
177051 138 18343302552565999798
190213 19 17704354351132451656
20201158 50 18335141985717703874
20279233 1 16008469836880347776
20645477 70 18410289190434598431
20871998 22 18200036110500475126
21501925 9 18410565180806169626
22485316 2 18411978091976504791
22959321 4 18410009923112853538
23402655 69 18410007723941924637
3248919 1 17560803173671909812
581208 293 18337667615713842786

>  <PUBCHEM_SHAPE_MULTIPOLES>  (1) 
212.37
7.81
1.47
0.62
5.19
0.06
0
-1.29
0.19
-0.65
-0.05
-0.16
-0.02
-0.11

>  <PUBCHEM_SHAPE_SELFOVERLAP>  (1) 
392.455

>  <PUBCHEM_SHAPE_VOLUME>  (1) 
135.5

>  <PUBCHEM_COORDINATE_TYPE>  (1) 
2
5
10

$$$$
