15418
     RDKit          3D

  8  7  0  0  0  0  0  0  0  0999 V2000
    1.4419   -1.6101    0.6399 Cl  0  0  0  0  0  0  0  0  0  0  0  0
   -1.4418   -1.6100   -0.6400 Cl  0  0  0  0  0  0  0  0  0  0  0  0
    3.2339    0.8735   -0.1654 Cl  0  0  0  0  0  0  0  0  0  0  0  0
   -3.2340    0.8734    0.1653 Cl  0  0  0  0  0  0  0  0  0  0  0  0
    0.7222   -0.1438    0.0460 C   0  0  0  0  0  0  0  0  0  0  0  0
   -0.7221   -0.1437   -0.0458 C   0  0  0  0  0  0  0  0  0  0  0  0
    1.5218    0.8804   -0.2768 C   0  0  0  0  0  0  0  0  0  0  0  0
   -1.5219    0.8803    0.2767 C   0  0  0  0  0  0  0  0  0  0  0  0
  1  5  1  0
  2  6  1  0
  3  7  1  0
  4  8  1  0
  5  6  1  0
  5  7  2  0
  6  8  2  0
M  END
>  <PUBCHEM_COMPOUND_CID>  (1) 
15418

>  <PUBCHEM_CONFORMER_RMSD>  (1) 
0.4

>  <PUBCHEM_CONFORMER_DIVERSEORDER>  (1) 
1
3
2

>  <PUBCHEM_MMFF94_PARTIAL_CHARGES>  (1) 
10
1 -0.14
10 0.15
2 -0.14
3 -0.14
4 -0.14
5 0.14
6 0.14
7 -0.01
8 -0.01
9 0.15

>  <PUBCHEM_EFFECTIVE_ROTOR_COUNT>  (1) 
1

>  <PUBCHEM_PHARMACOPHORE_FEATURES>  (1) 
0

>  <PUBCHEM_HEAVY_ATOM_COUNT>  (1) 
8

>  <PUBCHEM_ATOM_DEF_STEREO_COUNT>  (1) 
0

>  <PUBCHEM_ATOM_UDEF_STEREO_COUNT>  (1) 
0

>  <PUBCHEM_BOND_DEF_STEREO_COUNT>  (1) 
0

>  <PUBCHEM_BOND_UDEF_STEREO_COUNT>  (1) 
2

>  <PUBCHEM_ISOTOPIC_ATOM_COUNT>  (1) 
0

>  <PUBCHEM_COMPONENT_COUNT>  (1) 
1

>  <PUBCHEM_CACTVS_TAUTO_COUNT>  (1) 
1

>  <PUBCHEM_CONFORMER_ID>  (1) 
00003C3A00000001

>  <PUBCHEM_MMFF94_ENERGY>  (1) 
15.3678

>  <PUBCHEM_FEATURE_SELFOVERLAP>  (1) 
0

>  <PUBCHEM_SHAPE_FINGERPRINT>  (1) 
12716758 59 18060424642068136398
14325111 11 18411702041591013665
14390081 3 18343021103180024248
14897335 6 18411693283698854084
15775835 57 18410859858174984705
170605 34 18408046203777305144
20653085 51 18268727154389399568
21040471 1 18272366443224228523
23235685 24 18410853261105192069
23552423 10 18408037420606387430
29004967 10 17095528357221100336
5084963 1 18127697247417270344
528862 383 18188206494444942098

>  <PUBCHEM_SHAPE_MULTIPOLES>  (1) 
172.12
4.58
1.7
0.77
0
0.72
0
-2.03
0
0
0
0
0.15
-0.6

>  <PUBCHEM_SHAPE_SELFOVERLAP>  (1) 
294.388

>  <PUBCHEM_SHAPE_VOLUME>  (1) 
114.6

>  <PUBCHEM_COORDINATE_TYPE>  (1) 
2
5
10

$$$$
