15411
     RDKit          3D

  8  8  0  0  0  0  0  0  0  0999 V2000
   -1.0791    0.0010    0.0476 S   0  0  0  0  0  0  0  0  0  0  0  0
   -0.0839   -1.2059   -0.4267 O   0  0  0  0  0  0  0  0  0  0  0  0
   -2.2307    0.0233   -0.8317 O   0  0  0  0  0  0  0  0  0  0  0  0
   -1.2286   -0.0299    1.4885 O   0  0  0  0  0  0  0  0  0  0  0  0
    1.3717    1.2205    0.2086 C   0  0  0  0  0  0  0  0  0  0  0  0
   -0.0167    1.3638   -0.3955 C   0  0  0  0  0  0  0  0  0  0  0  0
    2.0486   -0.0761   -0.2324 C   0  0  0  0  0  0  0  0  0  0  0  0
    1.2187   -1.2967    0.1416 C   0  0  0  0  0  0  0  0  0  0  0  0
  1  2  1  0
  1  3  2  0
  1  4  2  0
  1  6  1  0
  2  8  1  0
  5  6  1  0
  5  7  1  0
  7  8  1  0
M  END
>  <PUBCHEM_COMPOUND_CID>  (1) 
15411

>  <PUBCHEM_CONFORMER_RMSD>  (1) 
0.4

>  <PUBCHEM_CONFORMER_DIVERSEORDER>  (1) 
1
3
4
2

>  <PUBCHEM_MMFF94_PARTIAL_CHARGES>  (1) 
6
1 1.38
2 -0.46
3 -0.65
4 -0.65
6 0.11
8 0.28

>  <PUBCHEM_EFFECTIVE_ROTOR_COUNT>  (1) 
1

>  <PUBCHEM_PHARMACOPHORE_FEATURES>  (1) 
3
1 3 acceptor
1 4 acceptor
6 1 2 5 6 7 8 rings

>  <PUBCHEM_HEAVY_ATOM_COUNT>  (1) 
8

>  <PUBCHEM_ATOM_DEF_STEREO_COUNT>  (1) 
0

>  <PUBCHEM_ATOM_UDEF_STEREO_COUNT>  (1) 
0

>  <PUBCHEM_BOND_DEF_STEREO_COUNT>  (1) 
0

>  <PUBCHEM_BOND_UDEF_STEREO_COUNT>  (1) 
0

>  <PUBCHEM_ISOTOPIC_ATOM_COUNT>  (1) 
0

>  <PUBCHEM_COMPONENT_COUNT>  (1) 
1

>  <PUBCHEM_CACTVS_TAUTO_COUNT>  (1) 
1

>  <PUBCHEM_CONFORMER_ID>  (1) 
00003C3300000001

>  <PUBCHEM_MMFF94_ENERGY>  (1) 
2.5028

>  <PUBCHEM_FEATURE_SELFOVERLAP>  (1) 
15.24

>  <PUBCHEM_SHAPE_FINGERPRINT>  (1) 
137420 1 11103469012681880196
18185500 45 18272645761942837814
20096714 4 18340770450317435006
21040471 1 18193832876022730812
24536 1 17603878762283013812
29004967 10 18259994768342604832
5084963 1 18195536015138851182
5943 1 12239998237901410177

>  <PUBCHEM_SHAPE_MULTIPOLES>  (1) 
150.88
2.43
1.42
0.93
0.21
0.08
-0.25
-0.06
0.22
-0.48
0.08
0.39
-0.01
0.06

>  <PUBCHEM_SHAPE_SELFOVERLAP>  (1) 
281.93

>  <PUBCHEM_SHAPE_VOLUME>  (1) 
93.8

>  <PUBCHEM_COORDINATE_TYPE>  (1) 
2
5
10

$$$$
