15419
     RDKit          3D

 16 17  0  0  0  0  0  0  0  0999 V2000
    6.0441   -0.2559   -0.1037 O   0  0  0  0  0  0  0  0  0  0  0  0
    0.4195    0.1241    0.4158 N   0  0  0  0  0  0  0  0  0  0  0  0
   -1.9571   -1.8163    0.1763 N   0  0  0  0  0  0  0  0  0  0  0  0
   -1.2625    1.7930    0.0503 N   0  0  0  0  0  0  0  0  0  0  0  0
   -4.0593   -1.1706   -0.1876 N   0  0  0  0  0  0  0  0  0  0  0  0
   -3.6111    1.2173   -0.2729 N   0  0  0  0  0  0  0  0  0  0  0  0
   -1.9174   -0.4535    0.0947 C   0  0  0  0  0  0  0  0  0  0  0  0
    1.5051    1.0669    0.5215 C   0  0  0  0  0  0  0  0  0  0  0  0
   -0.8994    0.4886    0.1900 C   0  0  0  0  0  0  0  0  0  0  0  0
    2.7758    0.3211    0.7889 C   0  0  0  0  0  0  0  0  0  0  0  0
   -3.2343   -0.0762   -0.1315 C   0  0  0  0  0  0  0  0  0  0  0  0
    3.6528   -0.1601   -0.1137 C   0  0  0  0  0  0  0  0  0  0  0  0
    4.8709   -0.9225    0.3436 C   0  0  0  0  0  0  0  0  0  0  0  0
   -3.2607   -2.1994    0.0011 C   0  0  0  0  0  0  0  0  0  0  0  0
    3.5037   -0.0276   -1.6045 C   0  0  0  0  0  0  0  0  0  0  0  0
   -2.5700    2.0709   -0.1682 C   0  0  0  0  0  0  0  0  0  0  0  0
  1 13  1  0
  2  8  1  0
  2  9  1  0
  3  7  1  0
  3 14  1  0
  4  9  1  0
  4 16  2  0
  5 11  1  0
  5 14  2  0
  6 11  2  0
  6 16  1  0
  7  9  2  0
  7 11  1  0
  8 10  1  0
 10 12  2  0
 12 13  1  0
 12 15  1  0
M  END
>  <PUBCHEM_COMPOUND_CID>  (1) 
15419

>  <PUBCHEM_CONFORMER_RMSD>  (1) 
0.6

>  <PUBCHEM_CONFORMER_DIVERSEORDER>  (1) 
1
45
74
64
41
37
8
60
71
22
15
43
54
24
35
10
47
38
40
23
42
30
11
3
25
48
16
67
56
9
31
19
66
63
57
68
32
59
55
18
53
21
69
12
49
58
20
5
28
44
62
34
51
29
13
52
50
39
33
14
7
2
46
72
27
4
65
6
26
17
36
73
61
70

>  <PUBCHEM_MMFF94_PARTIAL_CHARGES>  (1) 
22
1 -0.68
10 -0.29
11 0.48
12 -0.28
13 0.42
14 0.04
15 0.14
16 0.47
19 0.4
2 -0.87
20 0.15
21 0.27
24 0.15
28 0.15
29 0.4
3 0.03
4 -0.62
5 -0.57
6 -0.57
7 -0.15
8 0.51
9 0.41

>  <PUBCHEM_EFFECTIVE_ROTOR_COUNT>  (1) 
4

>  <PUBCHEM_PHARMACOPHORE_FEATURES>  (1) 
10
1 1 acceptor
1 1 donor
1 15 hydrophobe
1 2 donor
1 3 donor
3 2 4 9 cation
3 3 5 14 cation
3 4 6 16 cation
5 3 5 7 11 14 rings
6 4 6 7 9 11 16 rings

>  <PUBCHEM_HEAVY_ATOM_COUNT>  (1) 
16

>  <PUBCHEM_ATOM_DEF_STEREO_COUNT>  (1) 
0

>  <PUBCHEM_ATOM_UDEF_STEREO_COUNT>  (1) 
0

>  <PUBCHEM_BOND_DEF_STEREO_COUNT>  (1) 
0

>  <PUBCHEM_BOND_UDEF_STEREO_COUNT>  (1) 
1

>  <PUBCHEM_ISOTOPIC_ATOM_COUNT>  (1) 
0

>  <PUBCHEM_COMPONENT_COUNT>  (1) 
1

>  <PUBCHEM_CACTVS_TAUTO_COUNT>  (1) 
8

>  <PUBCHEM_CONFORMER_ID>  (1) 
00003C3B00000001

>  <PUBCHEM_MMFF94_ENERGY>  (1) 
25.6082

>  <PUBCHEM_FEATURE_SELFOVERLAP>  (1) 
50.987

>  <PUBCHEM_SHAPE_FINGERPRINT>  (1) 
10616163 171 18410011031104133322
10680689 15 18334861606004964232
11458722 379 18335136492407131083
12032990 46 18339360893812126027
12236239 1 17603586309369965932
12757275 245 18409448098171851459
13167823 11 18261108548405860010
13288520 33 18412544318615348554
13296908 3 18271520995896922360
14251731 8 18411981338913615372
14386348 63 17775288253145863094
14508225 48 18337376249850027901
15375358 24 17775281634659145732
17804303 29 18413670231671045201
17834072 33 18260833722186125708
17870717 6 18342750576354266438
18186145 218 15068628205759256644
19141452 34 17917151723276617727
1986462 14 18410573980898818309
20279233 1 17846500314099225756
20300324 65 18334296474276676088
20325693 3 18334861597562579509
20374829 77 18341047501435879583
20432913 95 16272210786436208182
20645477 56 18337953381379265081
20645477 70 16558188177674621284
20871999 31 18334575741571650724
21267235 1 18336269028586909707
22094290 60 18408040719009161641
221490 88 18338238292482403896
22485316 2 18409728435625631522
2297311 6 18413113865649073036
2306618 200 18201725029037953257
23175994 123 17203609289321993993
23402539 116 18186517688151341124
23403322 49 18413669114794938314
23557571 272 18272091569966205856
23559900 14 18341320180404204776
4214541 1 18410572868840028736
4921388 177 16733276727989264778
5104073 3 18342454863571571600
559249 180 18261948527791691530
573450 72 18261383408937437882
58051976 100 18335419049973601798
633830 44 16371015066119609880
67856867 119 18188492501446048196
7062679 117 18408606976736104302
9709674 26 18194115446052500402

>  <PUBCHEM_SHAPE_MULTIPOLES>  (1) 
298.5
10.52
1.88
0.85
12.41
0.1
0.23
3.04
0.99
-2.61
-0.02
0.79
-0.03
0.14

>  <PUBCHEM_SHAPE_SELFOVERLAP>  (1) 
627.988

>  <PUBCHEM_SHAPE_VOLUME>  (1) 
166.7

>  <PUBCHEM_COORDINATE_TYPE>  (1) 
2
5
10

$$$$
