15416
     RDKit          3D

 12 11  0  0  1  0  0  0  0  0999 V2000
    2.2614   -2.2562    0.1409 Br  0  0  0  0  0  0  0  0  0  0  0  0
   -0.7140    0.6762   -0.1870 N   0  0  0  0  0  0  0  0  0  0  0  0
    0.5157    0.0389    0.3016 C   0  0  0  0  0  0  0  0  0  0  0  0
   -1.8479   -0.2313   -0.0345 C   0  0  0  0  0  0  0  0  0  0  0  0
    1.7373    0.9902    0.1399 C   0  0  0  0  0  0  0  0  0  0  0  0
    0.6550   -1.3039   -0.4211 C   0  0  0  0  0  0  0  0  0  0  0  0
   -3.1226    0.6031    0.1298 C   0  0  0  0  0  0  0  0  0  0  0  0
   -1.9481   -1.1024   -1.2912 C   0  0  0  0  0  0  0  0  0  0  0  0
   -1.6318   -1.1123    1.2015 C   0  0  0  0  0  0  0  0  0  0  0  0
   -0.9535    1.9263    0.5286 C   0  0  0  0  0  0  0  0  0  0  0  0
    2.0531    1.3551   -1.3151 C   0  0  0  0  0  0  0  0  0  0  0  0
    2.9954    0.4162    0.8066 C   0  0  0  0  0  0  0  0  0  0  0  0
  1  6  1  0
  2  3  1  0
  2  4  1  0
  2 10  1  0
  3  5  1  0
  3  6  1  0
  4  7  1  0
  4  8  1  0
  4  9  1  0
  5 11  1  0
  5 12  1  0
M  END
>  <PUBCHEM_COMPOUND_CID>  (1) 
15416

>  <PUBCHEM_CONFORMER_RMSD>  (1) 
0.6

>  <PUBCHEM_CONFORMER_DIVERSEORDER>  (1) 
2
4
5
1
3

>  <PUBCHEM_MMFF94_PARTIAL_CHARGES>  (1) 
6
1 -0.23
10 0.27
2 -0.81
3 0.27
4 0.27
6 0.23

>  <PUBCHEM_EFFECTIVE_ROTOR_COUNT>  (1) 
4

>  <PUBCHEM_PHARMACOPHORE_FEATURES>  (1) 
4
1 1 hydrophobe
1 2 cation
3 5 11 12 hydrophobe
4 4 7 8 9 hydrophobe

>  <PUBCHEM_HEAVY_ATOM_COUNT>  (1) 
12

>  <PUBCHEM_ATOM_DEF_STEREO_COUNT>  (1) 
0

>  <PUBCHEM_ATOM_UDEF_STEREO_COUNT>  (1) 
1

>  <PUBCHEM_BOND_DEF_STEREO_COUNT>  (1) 
0

>  <PUBCHEM_BOND_UDEF_STEREO_COUNT>  (1) 
0

>  <PUBCHEM_ISOTOPIC_ATOM_COUNT>  (1) 
0

>  <PUBCHEM_COMPONENT_COUNT>  (1) 
1

>  <PUBCHEM_CACTVS_TAUTO_COUNT>  (1) 
1

>  <PUBCHEM_CONFORMER_ID>  (1) 
00003C3800000002

>  <PUBCHEM_MMFF94_ENERGY>  (1) 
78.766

>  <PUBCHEM_FEATURE_SELFOVERLAP>  (1) 
20.298

>  <PUBCHEM_SHAPE_FINGERPRINT>  (1) 
11031198 65 18337681896437897541
12423570 1 12647724156008313548
12524768 44 18340206271903302639
12932764 1 17988649622196748080
13380535 220 17977391529524806812
14128692 85 18200311018298129750
15775835 57 18060697316567180378
16945 1 18409450327228170993
18186145 218 17968933077241204685
19786989 88 17531249516682609487
20082192 1 17385452037177329038
20201158 50 18333728022269786075
20511035 2 18198070174597577620
21501502 16 18269559329713951464
23235685 24 18261391182369482720
23235687 12 17241045508542692173
23552423 10 18408043996069266918
241688 4 17901667060008178792
2748010 2 18122341268385111460
3248919 1 18186798118791576753
369184 2 17989200469037856857
5084963 1 18191591843639347985
528862 383 18409444765504303826
7364860 26 18200873981236517202
8030462 33 18413113857090852060

>  <PUBCHEM_SHAPE_MULTIPOLES>  (1) 
247.92
4.31
2.12
1.13
0.11
0.36
-0.17
0.12
0.25
-0.97
-0.05
0.02
0.04
-0.37

>  <PUBCHEM_SHAPE_SELFOVERLAP>  (1) 
457.471

>  <PUBCHEM_SHAPE_VOLUME>  (1) 
163.4

>  <PUBCHEM_COORDINATE_TYPE>  (1) 
2
5
10

$$$$
