15420
     RDKit          3D

 11 11  0  0  0  0  0  0  0  0999 V2000
   -4.0156    0.0339    0.6606 O   0  0  0  0  0  0  0  0  0  0  0  0
    2.3396   -0.0209    0.2504 C   0  0  0  0  0  0  0  0  0  0  0  0
    1.3908   -0.0436   -0.9501 C   0  0  0  0  0  0  0  0  0  0  0  0
    3.8006   -0.0058   -0.1986 C   0  0  0  0  0  0  0  0  0  0  0  0
   -0.0535   -0.0227   -0.5195 C   0  0  0  0  0  0  0  0  0  0  0  0
    4.7481    0.0578    0.9888 C   0  0  0  0  0  0  0  0  0  0  0  0
   -0.7149   -1.2208   -0.2956 C   0  0  0  0  0  0  0  0  0  0  0  0
   -0.6977    1.1943   -0.3546 C   0  0  0  0  0  0  0  0  0  0  0  0
   -2.0516   -1.2015    0.1026 C   0  0  0  0  0  0  0  0  0  0  0  0
   -2.0344    1.2138    0.0437 C   0  0  0  0  0  0  0  0  0  0  0  0
   -2.7113    0.0157    0.2723 C   0  0  0  0  0  0  0  0  0  0  0  0
  1 11  1  0
  2  3  1  0
  2  4  1  0
  3  5  1  0
  4  6  1  0
  5  7  2  0
  5  8  1  0
  7  9  1  0
  8 10  2  0
  9 11  2  0
 10 11  1  0
M  END
>  <PUBCHEM_COMPOUND_CID>  (1) 
15420

>  <PUBCHEM_CONFORMER_RMSD>  (1) 
0.6

>  <PUBCHEM_CONFORMER_DIVERSEORDER>  (1) 
1
3
2
4

>  <PUBCHEM_MMFF94_PARTIAL_CHARGES>  (1) 
13
1 -0.53
10 -0.15
11 0.08
21 0.15
22 0.15
23 0.15
24 0.15
25 0.45
3 0.14
5 -0.14
7 -0.15
8 -0.15
9 -0.15

>  <PUBCHEM_EFFECTIVE_ROTOR_COUNT>  (1) 
3

>  <PUBCHEM_PHARMACOPHORE_FEATURES>  (1) 
3
1 1 donor
1 6 hydrophobe
6 5 7 8 9 10 11 rings

>  <PUBCHEM_HEAVY_ATOM_COUNT>  (1) 
11

>  <PUBCHEM_ATOM_DEF_STEREO_COUNT>  (1) 
0

>  <PUBCHEM_ATOM_UDEF_STEREO_COUNT>  (1) 
0

>  <PUBCHEM_BOND_DEF_STEREO_COUNT>  (1) 
0

>  <PUBCHEM_BOND_UDEF_STEREO_COUNT>  (1) 
0

>  <PUBCHEM_ISOTOPIC_ATOM_COUNT>  (1) 
0

>  <PUBCHEM_COMPONENT_COUNT>  (1) 
1

>  <PUBCHEM_CACTVS_TAUTO_COUNT>  (1) 
2

>  <PUBCHEM_CONFORMER_ID>  (1) 
00003C3C00000001

>  <PUBCHEM_MMFF94_ENERGY>  (1) 
17.1996

>  <PUBCHEM_FEATURE_SELFOVERLAP>  (1) 
15.223

>  <PUBCHEM_SHAPE_FINGERPRINT>  (1) 
11132069 177 18343023293576025734
11401426 45 18412260632453121725
12119455 92 17274820225088720925
12251169 10 18410292527755601316
13024252 1 14490189397540387541
13214271 11 17060616719887441933
13897977 58 18338239366319368092
15219456 202 17987805098767328694
16945 1 18338252508845070679
17846911 113 18273215283217366409
200 152 14996279223754188728
20528008 55 18272085011002096452
20645464 45 17989209247866607414
20645477 70 13767918006421491848
20871998 184 18200881784881221951
21119208 17 11455891360465429808
21293036 1 10159697980052649943
22485316 2 14996282535242539336
22926399 37 14477240474653751650
23402539 116 18343011199570573693
23403322 49 12829754195078058736
2748010 2 17976557022111803671
369184 2 18342457032382206231
42 15 18259984851642978450

>  <PUBCHEM_SHAPE_MULTIPOLES>  (1) 
220.51
7.38
1.15
0.87
6.75
0
0
-0.13
-2.73
-0.77
0.06
0.37
0
0.03

>  <PUBCHEM_SHAPE_SELFOVERLAP>  (1) 
442.691

>  <PUBCHEM_SHAPE_VOLUME>  (1) 
130.9

>  <PUBCHEM_COORDINATE_TYPE>  (1) 
2
5
10

$$$$
