15423
     RDKit          3D

 16 17  0  0  0  0  0  0  0  0999 V2000
    0.0519    1.4981    0.0000 O   0  0  0  0  0  0  0  0  0  0  0  0
    0.9085   -0.6511   -0.0008 N   0  0  0  0  0  0  0  0  0  0  0  0
    2.3537    1.2644    0.0002 N   0  0  0  0  0  0  0  0  0  0  0  0
    3.2900   -0.9449   -0.0001 N   0  0  0  0  0  0  0  0  0  0  0  0
    1.8525   -2.7977   -0.0005 N   0  0  0  0  0  0  0  0  0  0  0  0
    4.6770    0.9460    0.0008 N   0  0  0  0  0  0  0  0  0  0  0  0
   -3.7020   -0.2732    0.0004 C   0  0  0  0  0  0  0  0  0  0  0  0
   -1.1789    0.9171   -0.0003 C   0  0  0  0  0  0  0  0  0  0  0  0
   -3.0708    0.0238    1.2082 C   0  0  0  0  0  0  0  0  0  0  0  0
   -3.0718    0.0249   -1.2079 C   0  0  0  0  0  0  0  0  0  0  0  0
   -1.8093    0.6190    1.2078 C   0  0  0  0  0  0  0  0  0  0  0  0
   -1.8102    0.6201   -1.2083 C   0  0  0  0  0  0  0  0  0  0  0  0
   -5.0506   -0.9092    0.0007 C   0  0  0  0  0  0  0  0  0  0  0  0
    1.1574    0.6641   -0.0002 C   0  0  0  0  0  0  0  0  0  0  0  0
    2.0253   -1.3965   -0.0006 C   0  0  0  0  0  0  0  0  0  0  0  0
    3.3771    0.3951    0.0004 C   0  0  0  0  0  0  0  0  0  0  0  0
  1  8  1  0
  1 14  1  0
  2 14  2  0
  2 15  1  0
  3 14  1  0
  3 16  2  0
  4 15  2  0
  4 16  1  0
  5 15  1  0
  6 16  1  0
  7  9  2  0
  7 10  1  0
  7 13  1  0
  8 11  2  0
  8 12  1  0
  9 11  1  0
 10 12  2  0
M  END
>  <PUBCHEM_COMPOUND_CID>  (1) 
15423

>  <PUBCHEM_CONFORMER_RMSD>  (1) 
0.6

>  <PUBCHEM_CONFORMER_DIVERSEORDER>  (1) 
1
4
5
2
6
3

>  <PUBCHEM_MMFF94_PARTIAL_CHARGES>  (1) 
24
1 -0.17
10 -0.15
11 -0.15
12 -0.15
13 0.14
14 0.7
15 0.72
16 0.72
17 0.15
18 0.15
19 0.15
2 -0.62
20 0.15
24 0.4
25 0.4
26 0.4
27 0.4
3 -0.62
4 -0.62
5 -0.9
6 -0.9
7 -0.14
8 0.08
9 -0.15

>  <PUBCHEM_EFFECTIVE_ROTOR_COUNT>  (1) 
2

>  <PUBCHEM_PHARMACOPHORE_FEATURES>  (1) 
6
1 5 donor
1 6 donor
4 2 4 5 15 cation
4 3 4 6 16 cation
6 2 3 4 14 15 16 rings
6 7 8 9 10 11 12 rings

>  <PUBCHEM_HEAVY_ATOM_COUNT>  (1) 
16

>  <PUBCHEM_ATOM_DEF_STEREO_COUNT>  (1) 
0

>  <PUBCHEM_ATOM_UDEF_STEREO_COUNT>  (1) 
0

>  <PUBCHEM_BOND_DEF_STEREO_COUNT>  (1) 
0

>  <PUBCHEM_BOND_UDEF_STEREO_COUNT>  (1) 
0

>  <PUBCHEM_ISOTOPIC_ATOM_COUNT>  (1) 
0

>  <PUBCHEM_COMPONENT_COUNT>  (1) 
1

>  <PUBCHEM_CACTVS_TAUTO_COUNT>  (1) 
5

>  <PUBCHEM_CONFORMER_ID>  (1) 
00003C3F00000001

>  <PUBCHEM_MMFF94_ENERGY>  (1) 
54.9421

>  <PUBCHEM_FEATURE_SELFOVERLAP>  (1) 
30.489

>  <PUBCHEM_SHAPE_FINGERPRINT>  (1) 
12236239 1 17775570857482818041
12251169 10 15769776879403227505
12932764 1 17489294266027536536
13296908 3 18335417907359385189
14004511 7 11241967070829575085
14251717 144 18410575101880001378
14252887 29 17775014487229163046
14386348 63 17894634764183773011
15207287 21 17894631482448931563
15375358 24 17894911828049657505
15375462 189 17989481922655788539
19422 9 17846224306252002778
19433438 38 18040708160851391197
200 152 18341890801342873961
20201158 50 18186523202425184083
20279233 1 17603589629374268321
20344682 1 17822288019677565253
204376 136 18337673139379648880
20645477 70 18338227159647792743
22169311 14 12031784786090893565
22445834 79 18131634461148849313
22485316 2 18410854352543538141
23402539 116 16370994222500677125
23557571 272 17095517375095402045
23559900 14 15864069910154153164
25610 137 18411418401518327645
2871803 45 18335137570454263759
33824 294 18408040710540845266
474 4 17629748226865889888
474229 33 18336265738673427458
581208 293 18410293614292585016
77492 1 17703790314520831341
81228 2 17242176747184289053
9709674 26 18187651275638498795

>  <PUBCHEM_SHAPE_MULTIPOLES>  (1) 
298.5
8.47
1.65
0.99
0.76
1.05
0
1.13
0
-1.38
0
0.97
-0.13
0

>  <PUBCHEM_SHAPE_SELFOVERLAP>  (1) 
640.995

>  <PUBCHEM_SHAPE_VOLUME>  (1) 
160.3

>  <PUBCHEM_COORDINATE_TYPE>  (1) 
2
5
10

$$$$
