15431
     RDKit          3D

  7  7  0  0  0  0  0  0  0  0999 V2000
   -0.3202   -0.2380    0.2971 C   0  0  0  0  0  0  0  0  0  0  0  0
    0.7654   -1.2263   -0.1177 C   0  0  0  0  0  0  0  0  0  0  0  0
    0.2136    1.0809   -0.2524 C   0  0  0  0  0  0  0  0  0  0  0  0
    2.0675   -0.4647    0.1105 C   0  0  0  0  0  0  0  0  0  0  0  0
    1.7100    1.0207    0.0357 C   0  0  0  0  0  0  0  0  0  0  0  0
   -1.6946   -0.5980   -0.2396 C   0  0  0  0  0  0  0  0  0  0  0  0
   -2.7417    0.4255    0.1665 C   0  0  0  0  0  0  0  0  0  0  0  0
  1  2  1  0
  1  3  1  0
  1  6  1  0
  2  4  1  0
  3  5  1  0
  4  5  1  0
  6  7  1  0
M  END
>  <PUBCHEM_COMPOUND_CID>  (1) 
15431

>  <PUBCHEM_CONFORMER_RMSD>  (1) 
0.4

>  <PUBCHEM_CONFORMER_DIVERSEORDER>  (1) 
1
5
4
2
3

>  <PUBCHEM_MMFF94_PARTIAL_CHARGES>  (1) 
0

>  <PUBCHEM_EFFECTIVE_ROTOR_COUNT>  (1) 
2

>  <PUBCHEM_PHARMACOPHORE_FEATURES>  (1) 
2
1 7 hydrophobe
5 1 2 3 4 5 rings

>  <PUBCHEM_HEAVY_ATOM_COUNT>  (1) 
7

>  <PUBCHEM_ATOM_DEF_STEREO_COUNT>  (1) 
0

>  <PUBCHEM_ATOM_UDEF_STEREO_COUNT>  (1) 
0

>  <PUBCHEM_BOND_DEF_STEREO_COUNT>  (1) 
0

>  <PUBCHEM_BOND_UDEF_STEREO_COUNT>  (1) 
0

>  <PUBCHEM_ISOTOPIC_ATOM_COUNT>  (1) 
0

>  <PUBCHEM_COMPONENT_COUNT>  (1) 
1

>  <PUBCHEM_CACTVS_TAUTO_COUNT>  (1) 
1

>  <PUBCHEM_CONFORMER_ID>  (1) 
00003C4700000001

>  <PUBCHEM_MMFF94_ENERGY>  (1) 
5.8519

>  <PUBCHEM_FEATURE_SELFOVERLAP>  (1) 
10.148

>  <PUBCHEM_SHAPE_FINGERPRINT>  (1) 
14390081 3 18201717400885897729
18185500 45 18342736329747252639
20096714 4 18338799034326632611
21040471 1 18194402414450566380
23552423 10 18334577949095202622
24536 1 18189045563719459411
29004967 10 18260270732781257739
5460574 1 9367348136973501115

>  <PUBCHEM_SHAPE_MULTIPOLES>  (1) 
144.06
3.23
1.26
0.65
1.6
0.03
0
0.26
-0.16
-0.36
0.06
0.02
0
-0.06

>  <PUBCHEM_SHAPE_SELFOVERLAP>  (1) 
273.189

>  <PUBCHEM_SHAPE_VOLUME>  (1) 
87.8

>  <PUBCHEM_COORDINATE_TYPE>  (1) 
2
5
10

$$$$
