15435
     RDKit          3D

 12 13  0  0  0  0  0  0  0  0999 V2000
   -0.5600   -0.9709   -0.0001 O   0  0  0  0  0  0  0  0  0  0  0  0
   -3.4890    1.0428    0.0004 O   0  0  0  0  0  0  0  0  0  0  0  0
    0.8523    0.7925   -0.0002 C   0  0  0  0  0  0  0  0  0  0  0  0
    0.7499   -0.5949   -0.0002 C   0  0  0  0  0  0  0  0  0  0  0  0
   -1.2977    0.1700   -0.0002 C   0  0  0  0  0  0  0  0  0  0  0  0
   -0.4821    1.2778   -0.0004 C   0  0  0  0  0  0  0  0  0  0  0  0
    2.1333    1.3715    0.0000 C   0  0  0  0  0  0  0  0  0  0  0  0
    1.8433   -1.4591   -0.0001 C   0  0  0  0  0  0  0  0  0  0  0  0
   -2.7151    0.0436    0.0000 C   0  0  0  0  0  0  0  0  0  0  0  0
    3.2526    0.5277    0.0005 C   0  0  0  0  0  0  0  0  0  0  0  0
    3.1075   -0.8619    0.0001 C   0  0  0  0  0  0  0  0  0  0  0  0
   -3.3950   -1.3391    0.0002 C   0  0  0  0  0  0  0  0  0  0  0  0
  1  4  1  0
  1  5  1  0
  2  9  2  0
  3  4  2  0
  3  6  1  0
  3  7  1  0
  4  8  1  0
  5  6  2  0
  5  9  1  0
  7 10  2  0
  8 11  2  0
  9 12  1  0
 10 11  1  0
M  END
>  <PUBCHEM_COMPOUND_CID>  (1) 
15435

>  <PUBCHEM_CONFORMER_RMSD>  (1) 
0.4

>  <PUBCHEM_CONFORMER_DIVERSEORDER>  (1) 
1
3
2
4

>  <PUBCHEM_MMFF94_PARTIAL_CHARGES>  (1) 
16
1 -0.28
10 -0.15
11 -0.15
12 0.06
13 0.15
14 0.15
15 0.15
16 0.15
17 0.15
2 -0.57
4 0.14
5 0.05
6 -0.15
7 -0.15
8 -0.15
9 0.59

>  <PUBCHEM_EFFECTIVE_ROTOR_COUNT>  (1) 
1

>  <PUBCHEM_PHARMACOPHORE_FEATURES>  (1) 
4
1 1 acceptor
1 2 acceptor
5 1 3 4 5 6 rings
6 3 4 7 8 10 11 rings

>  <PUBCHEM_HEAVY_ATOM_COUNT>  (1) 
12

>  <PUBCHEM_ATOM_DEF_STEREO_COUNT>  (1) 
0

>  <PUBCHEM_ATOM_UDEF_STEREO_COUNT>  (1) 
0

>  <PUBCHEM_BOND_DEF_STEREO_COUNT>  (1) 
0

>  <PUBCHEM_BOND_UDEF_STEREO_COUNT>  (1) 
0

>  <PUBCHEM_ISOTOPIC_ATOM_COUNT>  (1) 
0

>  <PUBCHEM_COMPONENT_COUNT>  (1) 
1

>  <PUBCHEM_CACTVS_TAUTO_COUNT>  (1) 
2

>  <PUBCHEM_CONFORMER_ID>  (1) 
00003C4B00000001

>  <PUBCHEM_MMFF94_ENERGY>  (1) 
20.317

>  <PUBCHEM_FEATURE_SELFOVERLAP>  (1) 
20.399

>  <PUBCHEM_SHAPE_FINGERPRINT>  (1) 
10219947 1 18202002109862030494
10608611 8 18409443700246977869
11471102 20 18410288090669366756
11769659 78 18410005533392656291
11806522 49 18265891543997869415
12032990 46 18411143545091423382
12932764 1 17458337503483854923
13296908 3 18411702084261105319
13380535 76 18336545027327356570
14144814 61 18412826880308410569
14325111 11 18410855481724460481
16945 1 18410573968282844292
17844478 74 18040439880077686173
18186145 218 18113616759535353119
193761 8 17473825026598716998
200 152 18130779101654118079
20201158 50 18408604738404281802
20645477 70 18411976932377896967
20871998 22 18054510197556479646
21501502 16 18409449193493896433
21501925 9 18338225046317972690
23402539 116 17458615718685967684
23402655 69 18340754946103039221
23463225 33 18409729551652490134
23552423 10 18333452044872105254
2748010 2 18410574032396111007
3248919 1 17313391161858239945
3312278 4 18412829079437232649
528886 8 18411695487075092850
8809292 202 18260554411187357427

>  <PUBCHEM_SHAPE_MULTIPOLES>  (1) 
235.22
5.77
1.56
0.6
2.42
0.08
0
0.56
0
-0.13
0
-0.03
0
0

>  <PUBCHEM_SHAPE_SELFOVERLAP>  (1) 
513.948

>  <PUBCHEM_SHAPE_VOLUME>  (1) 
129.7

>  <PUBCHEM_COORDINATE_TYPE>  (1) 
2
5
10

$$$$
