15437
     RDKit          3D

 13 12  0  0  1  0  0  0  0  0999 V2000
    3.0175   -0.7655    0.6675 S   0  0  0  0  0  0  0  0  0  0  0  0
    4.3020   -0.6983   -0.0836 O   0  0  0  0  0  0  0  0  0  0  0  0
   -1.5891    0.1367    0.6631 O   0  0  0  0  0  0  0  0  0  0  0  0
   -2.6911    0.0195   -1.3561 O   0  0  0  0  0  0  0  0  0  0  0  0
   -0.4635    0.2992   -0.1555 N   0  0  0  0  0  0  0  0  0  0  0  0
   -3.8129   -0.1612    0.6648 N   0  0  0  0  0  0  0  0  0  0  0  0
    1.9750    0.6161    0.0274 C   0  0  0  0  0  0  0  0  0  0  0  0
    2.5285    1.9511    0.5302 C   0  0  0  0  0  0  0  0  0  0  0  0
    1.9969    0.5716   -1.5021 C   0  0  0  0  0  0  0  0  0  0  0  0
    0.5795    0.4282    0.5976 C   0  0  0  0  0  0  0  0  0  0  0  0
    2.0030   -2.0659   -0.0682 C   0  0  0  0  0  0  0  0  0  0  0  0
   -2.6962   -0.0002   -0.1290 C   0  0  0  0  0  0  0  0  0  0  0  0
   -5.1497   -0.3312    0.1437 C   0  0  0  0  0  0  0  0  0  0  0  0
  1  2  2  0
  1  7  1  0
  1 11  1  0
  3  5  1  0
  3 12  1  0
  4 12  2  0
  5 10  2  0
  6 12  1  0
  6 13  1  0
  7  8  1  0
  7  9  1  0
  7 10  1  0
M  END
>  <PUBCHEM_COMPOUND_CID>  (1) 
15437

>  <PUBCHEM_CONFORMER_RMSD>  (1) 
0.6

>  <PUBCHEM_CONFORMER_DIVERSEORDER>  (1) 
3
99
50
62
9
96
47
91
89
30
31
100
8
97
26
88
25
11
69
94
90
17
29
86
76
81
60
14
80
39
74
16
41
93
87
58
95
10
101
70
66
71
43
78
23
4
42
92
20
72
28
27
61
77
12
5
52
53
36
48
75
83
55
51
18
79
15
21
85
65
33
84
49
68
38
54
34
32
82
37
73
56
35
2
6
44
98
57
63
45
46
22
59
7
64
19
67
1
40
13
24

>  <PUBCHEM_MMFF94_PARTIAL_CHARGES>  (1) 
13
1 0.11
10 0.33
11 0.19
12 0.78
13 0.3
2 -0.5
20 0.06
24 0.37
3 -0.09
4 -0.57
5 -0.51
6 -0.73
7 0.25

>  <PUBCHEM_EFFECTIVE_ROTOR_COUNT>  (1) 
5

>  <PUBCHEM_PHARMACOPHORE_FEATURES>  (1) 
5
1 2 acceptor
1 4 acceptor
1 5 acceptor
1 6 donor
3 7 8 9 hydrophobe

>  <PUBCHEM_HEAVY_ATOM_COUNT>  (1) 
13

>  <PUBCHEM_ATOM_DEF_STEREO_COUNT>  (1) 
0

>  <PUBCHEM_ATOM_UDEF_STEREO_COUNT>  (1) 
0

>  <PUBCHEM_BOND_DEF_STEREO_COUNT>  (1) 
0

>  <PUBCHEM_BOND_UDEF_STEREO_COUNT>  (1) 
1

>  <PUBCHEM_ISOTOPIC_ATOM_COUNT>  (1) 
0

>  <PUBCHEM_COMPONENT_COUNT>  (1) 
1

>  <PUBCHEM_CACTVS_TAUTO_COUNT>  (1) 
2

>  <PUBCHEM_CONFORMER_ID>  (1) 
00003C4D00000003

>  <PUBCHEM_MMFF94_ENERGY>  (1) 
20.08

>  <PUBCHEM_FEATURE_SELFOVERLAP>  (1) 
25.388

>  <PUBCHEM_SHAPE_FINGERPRINT>  (1) 
12932764 1 18272649065010260213
14251717 144 18410856538307839234
14252887 29 17346607348072616486
14344429 50 18342178877832044188
14350558 41 18335424543115622850
15477762 27 18260831471211773250
17834074 16 18260272958086520427
18186145 218 18341890822485420613
20201158 50 18261114041236541002
20645477 70 18412825789471386215
20671657 53 18336549305183049768
20871998 22 18057328288744494678
21730867 7 18334855052037740664
22485316 2 18412260679634490731
2255824 54 18271247226402887288
23402655 69 10881397638674883315
23557571 272 17167858639196752071
23598291 2 17989198295800502533
42 15 18412265017219078987
522135 26 18410294713851698553

>  <PUBCHEM_SHAPE_MULTIPOLES>  (1) 
243.81
8.56
1.45
1.05
10.28
0.18
-0.34
1.52
0.52
-1.86
0.13
-0.12
-0.14
0.06

>  <PUBCHEM_SHAPE_SELFOVERLAP>  (1) 
449.836

>  <PUBCHEM_SHAPE_VOLUME>  (1) 
156.2

>  <PUBCHEM_COORDINATE_TYPE>  (1) 
2
5
10

$$$$
