15430
     RDKit          3D

 22 24  0  0  1  0  0  0  0  0999 V2000
    7.5305    0.5407   -1.2570 Cl  0  0  0  0  0  0  0  0  0  0  0  0
   -5.3679    0.8672    0.7217 O   0  0  0  0  0  0  0  0  0  0  0  0
   -3.5687   -0.0834   -0.3628 N   0  0  0  0  0  0  0  0  0  0  0  0
   -1.1437   -1.1763    0.6620 N   0  0  0  0  0  0  0  0  0  0  0  0
   -2.3913   -0.0934   -1.2183 C   0  0  0  0  0  0  0  0  0  0  0  0
   -3.6043   -1.3922    0.2638 C   0  0  0  0  0  0  0  0  0  0  0  0
   -2.5139   -1.4593   -1.9111 C   0  0  0  0  0  0  0  0  0  0  0  0
   -3.3245   -2.3241   -0.9235 C   0  0  0  0  0  0  0  0  0  0  0  0
   -1.1631   -0.0378   -0.2804 C   0  0  0  0  0  0  0  0  0  0  0  0
   -2.4555   -1.4203    1.2978 C   0  0  0  0  0  0  0  0  0  0  0  0
   -4.3874    0.9697   -0.0172 C   0  0  0  0  0  0  0  0  0  0  0  0
   -0.0867   -1.0290    1.6566 C   0  0  0  0  0  0  0  0  0  0  0  0
   -4.0211    2.3028   -0.6155 C   0  0  0  0  0  0  0  0  0  0  0  0
    1.2670   -0.9566    1.0144 C   0  0  0  0  0  0  0  0  0  0  0  0
   -5.0161    3.3534   -0.1846 C   0  0  0  0  0  0  0  0  0  0  0  0
    2.0922    0.0933    1.1531 C   0  0  0  0  0  0  0  0  0  0  0  0
    3.4344    0.2038    0.5576 C   0  0  0  0  0  0  0  0  0  0  0  0
    3.7672   -0.5984   -0.5224 C   0  0  0  0  0  0  0  0  0  0  0  0
    4.3405    1.1083    1.0887 C   0  0  0  0  0  0  0  0  0  0  0  0
    5.0388   -0.4937   -1.0859 C   0  0  0  0  0  0  0  0  0  0  0  0
    5.6122    1.2132    0.5251 C   0  0  0  0  0  0  0  0  0  0  0  0
    5.9614    0.4122   -0.5623 C   0  0  0  0  0  0  0  0  0  0  0  0
  1 22  1  0
  2 11  2  0
  3  5  1  0
  3  6  1  0
  3 11  1  0
  4  9  1  0
  4 10  1  0
  4 12  1  0
  5  7  1  0
  5  9  1  0
  6  8  1  0
  6 10  1  0
  7  8  1  0
 11 13  1  0
 12 14  1  0
 13 15  1  0
 14 16  2  0
 16 17  1  0
 17 18  2  0
 17 19  1  0
 18 20  1  0
 19 21  2  0
 20 22  2  0
 21 22  1  0
M  END
>  <PUBCHEM_COMPOUND_CID>  (1) 
15430

>  <PUBCHEM_CONFORMER_RMSD>  (1) 
0.8

>  <PUBCHEM_CONFORMER_DIVERSEORDER>  (1) 
1
8
6
17
7
5
11
13
18
12
9
10
16
15
14
2
4
3

>  <PUBCHEM_MMFF94_PARTIAL_CHARGES>  (1) 
25
1 -0.18
10 0.27
11 0.57
12 0.41
13 0.06
14 -0.29
16 -0.18
17 0.03
18 -0.15
19 -0.15
2 -0.57
20 -0.15
21 -0.15
22 0.18
3 -0.66
37 0.15
4 -0.81
41 0.15
42 0.15
43 0.15
44 0.15
45 0.15
5 0.3
6 0.3
9 0.27

>  <PUBCHEM_EFFECTIVE_ROTOR_COUNT>  (1) 
6.2

>  <PUBCHEM_PHARMACOPHORE_FEATURES>  (1) 
5
1 15 hydrophobe
1 2 acceptor
1 4 cation
6 17 18 19 20 21 22 rings
8 3 4 5 6 7 8 9 10 rings

>  <PUBCHEM_HEAVY_ATOM_COUNT>  (1) 
22

>  <PUBCHEM_ATOM_DEF_STEREO_COUNT>  (1) 
0

>  <PUBCHEM_ATOM_UDEF_STEREO_COUNT>  (1) 
0

>  <PUBCHEM_BOND_DEF_STEREO_COUNT>  (1) 
0

>  <PUBCHEM_BOND_UDEF_STEREO_COUNT>  (1) 
1

>  <PUBCHEM_ISOTOPIC_ATOM_COUNT>  (1) 
0

>  <PUBCHEM_COMPONENT_COUNT>  (1) 
1

>  <PUBCHEM_CACTVS_TAUTO_COUNT>  (1) 
1

>  <PUBCHEM_CONFORMER_ID>  (1) 
00003C4600000001

>  <PUBCHEM_MMFF94_ENERGY>  (1) 
61.1511

>  <PUBCHEM_FEATURE_SELFOVERLAP>  (1) 
25.371

>  <PUBCHEM_SHAPE_FINGERPRINT>  (1) 
106641 1 16371016213345298817
10670039 82 18113614582388029668
10753850 27 11239698800412843917
107951 10 18272651247049456007
10803635 8 17846778516232196926
12390115 104 18335704893285772857
12555020 224 15339114641396576301
12596602 18 7997976760933654676
12633257 1 16877664586596088686
12895837 130 18336834181610725292
13690498 29 17702655704600057535
14251752 14 18343022156174628654
14251757 5 18130784538576812961
14848178 5 10231742401568676305
15183329 4 17489591125714043672
15788980 27 17917993910343749634
16120349 67 17559124164252310553
17844677 252 18342177821112028664
17857418 61 12679463075758256852
18222031 100 12391514200548154474
21033648 29 18342730862865886432
21709351 56 17988644142456775372
21756936 100 18187364320399283787
22061861 79 17060621105497535084
22393880 68 17917704734496276878
23081809 10 18113328735445724682
23198884 109 18333453148916226674
23402539 116 18410571816831296210
23559900 14 16056588907119791570
29717793 49 15554457293012279528
3004659 81 17131834274905998262
392239 28 13840277982619820417
4015057 19 14620498073598515866
4098825 35 18336832996500438006
46194498 28 17843953973770688016
484985 159 15338558357802663119
5104073 3 17603298233207773082
5283173 99 18341892991755408088
531348 171 18342174449468061070
542803 24 18186518830581032170
559249 180 14979690865877085938
59755656 520 17603305947080098458
633830 44 18335133224342940594
6608658 132 18265315258556447725
7288768 16 17458628857254690313
76465 3 10951753197418804795
7808743 9 18334851672109793681

>  <PUBCHEM_SHAPE_MULTIPOLES>  (1) 
438.79
16.55
2.31
1.52
21.72
1.45
-0.08
8.3
-4.56
-4.99
-0.26
0.34
-0.51
0.17

>  <PUBCHEM_SHAPE_SELFOVERLAP>  (1) 
915.194

>  <PUBCHEM_SHAPE_VOLUME>  (1) 
250.9

>  <PUBCHEM_COORDINATE_TYPE>  (1) 
2
5
10

$$$$
