15438
     RDKit          3D

 14 13  0  0  0  0  0  0  0  0999 V2000
   -2.8096   -0.6903   -0.0788 S   0  0  0  0  0  0  0  0  0  0  0  0
   -2.7764   -1.5033    1.1176 O   0  0  0  0  0  0  0  0  0  0  0  0
   -4.0556   -0.1874   -0.6156 O   0  0  0  0  0  0  0  0  0  0  0  0
    1.7690   -0.2202    0.5846 O   0  0  0  0  0  0  0  0  0  0  0  0
    2.9895    0.7703   -1.0995 O   0  0  0  0  0  0  0  0  0  0  0  0
    0.6988    0.4351   -0.0388 N   0  0  0  0  0  0  0  0  0  0  0  0
    3.9827   -0.5786    0.5027 N   0  0  0  0  0  0  0  0  0  0  0  0
   -1.7394    0.7122    0.1961 C   0  0  0  0  0  0  0  0  0  0  0  0
   -2.2934    1.5514    1.3482 C   0  0  0  0  0  0  0  0  0  0  0  0
   -1.6700    1.5483   -1.0824 C   0  0  0  0  0  0  0  0  0  0  0  0
   -0.3852    0.1662    0.6122 C   0  0  0  0  0  0  0  0  0  0  0  0
   -1.9716   -1.5740   -1.3682 C   0  0  0  0  0  0  0  0  0  0  0  0
    2.9192    0.0608   -0.1005 C   0  0  0  0  0  0  0  0  0  0  0  0
    5.3420   -0.4905    0.0224 C   0  0  0  0  0  0  0  0  0  0  0  0
  1  2  2  0
  1  3  2  0
  1  8  1  0
  1 12  1  0
  4  6  1  0
  4 13  1  0
  5 13  2  0
  6 11  2  0
  7 13  1  0
  7 14  1  0
  8  9  1  0
  8 10  1  0
  8 11  1  0
M  END
>  <PUBCHEM_COMPOUND_CID>  (1) 
15438

>  <PUBCHEM_CONFORMER_RMSD>  (1) 
0.6

>  <PUBCHEM_CONFORMER_DIVERSEORDER>  (1) 
3
76
99
93
19
74
49
75
38
104
82
103
98
42
65
15
95
10
52
80
100
40
97
57
32
77
61
51
86
7
105
81
90
102
18
27
71
69
84
89
59
11
33
55
50
58
30
79
70
94
29
96
9
85
24
31
25
72
92
83
14
47
6
88
87
68
106
73
12
16
101
67
37
34
23
91
48
21
64
78
4
20
2
41
63
54
17
66
35
62
43
39
53
28
26
8
22
56
46
44
13
60
45
5
36
1

>  <PUBCHEM_MMFF94_PARTIAL_CHARGES>  (1) 
14
1 1.09
11 0.33
12 0.11
13 0.78
14 0.3
2 -0.65
21 0.06
25 0.37
3 -0.65
4 -0.09
5 -0.57
6 -0.51
7 -0.73
8 0.17

>  <PUBCHEM_EFFECTIVE_ROTOR_COUNT>  (1) 
5

>  <PUBCHEM_PHARMACOPHORE_FEATURES>  (1) 
6
1 2 acceptor
1 3 acceptor
1 5 acceptor
1 6 acceptor
1 7 donor
3 8 9 10 hydrophobe

>  <PUBCHEM_HEAVY_ATOM_COUNT>  (1) 
14

>  <PUBCHEM_ATOM_DEF_STEREO_COUNT>  (1) 
0

>  <PUBCHEM_ATOM_UDEF_STEREO_COUNT>  (1) 
0

>  <PUBCHEM_BOND_DEF_STEREO_COUNT>  (1) 
0

>  <PUBCHEM_BOND_UDEF_STEREO_COUNT>  (1) 
1

>  <PUBCHEM_ISOTOPIC_ATOM_COUNT>  (1) 
0

>  <PUBCHEM_COMPONENT_COUNT>  (1) 
1

>  <PUBCHEM_CACTVS_TAUTO_COUNT>  (1) 
2

>  <PUBCHEM_CONFORMER_ID>  (1) 
00003C4E00000003

>  <PUBCHEM_MMFF94_ENERGY>  (1) 
18.6518

>  <PUBCHEM_FEATURE_SELFOVERLAP>  (1) 
30.48

>  <PUBCHEM_SHAPE_FINGERPRINT>  (1) 
10680689 15 17917714595709078866
12916754 54 18186526531103985520
12932764 1 18260828168360914768
13024252 1 15719395019167299777
14123260 362 7853579045076348302
17834072 33 18412828015134688780
18186145 218 16443336619935595788
200 152 17748824128782221499
20112054 13 13758086185534183339
20279233 1 17060341807789480292
20645477 56 17917436362974228305
21119208 17 17967246498827945942
2306618 200 18334575698696188169
23380061 127 18060136514050116240
23402539 116 17968091993917091116
23402655 69 17095517366716171308
23557571 272 18340205198494093524
23559900 14 18187359982704185496
58051976 100 18408605838089794590

>  <PUBCHEM_SHAPE_MULTIPOLES>  (1) 
258.52
8.52
1.48
1.19
12.29
0.05
0.11
1.89
-0.29
-1.61
0.06
-0.57
-0.08
-0.32

>  <PUBCHEM_SHAPE_SELFOVERLAP>  (1) 
486.424

>  <PUBCHEM_SHAPE_VOLUME>  (1) 
163.2

>  <PUBCHEM_COORDINATE_TYPE>  (1) 
2
5
10

$$$$
