15436
     RDKit          3D

  8  7  0  0  0  0  0  0  0  0999 V2000
   -1.7607    0.7473   -0.7011 S   0  0  0  0  0  0  0  0  0  0  0  0
    2.8696    0.2978   -0.2983 O   0  0  0  0  0  0  0  0  0  0  0  0
    1.7050   -0.0103    0.4088 N   0  0  0  0  0  0  0  0  0  0  0  0
   -0.6666   -0.5444   -0.0004 C   0  0  0  0  0  0  0  0  0  0  0  0
   -1.0474   -1.8966   -0.6048 C   0  0  0  0  0  0  0  0  0  0  0  0
   -0.8340   -0.5694    1.5194 C   0  0  0  0  0  0  0  0  0  0  0  0
    0.7458   -0.1973   -0.4379 C   0  0  0  0  0  0  0  0  0  0  0  0
   -1.0117    2.1729    0.1143 C   0  0  0  0  0  0  0  0  0  0  0  0
  1  4  1  0
  1  8  1  0
  2  3  1  0
  3  7  2  0
  4  5  1  0
  4  6  1  0
  4  7  1  0
M  END
>  <PUBCHEM_COMPOUND_CID>  (1) 
15436

>  <PUBCHEM_CONFORMER_RMSD>  (1) 
0.4

>  <PUBCHEM_CONFORMER_DIVERSEORDER>  (1) 
2
4
1
5
3

>  <PUBCHEM_MMFF94_PARTIAL_CHARGES>  (1) 
8
1 -0.46
15 0.06
19 0.4
2 -0.34
3 -0.51
4 0.29
7 0.33
8 0.23

>  <PUBCHEM_EFFECTIVE_ROTOR_COUNT>  (1) 
2

>  <PUBCHEM_PHARMACOPHORE_FEATURES>  (1) 
4
1 2 anion
1 3 acceptor
1 8 hydrophobe
3 4 5 6 hydrophobe

>  <PUBCHEM_HEAVY_ATOM_COUNT>  (1) 
8

>  <PUBCHEM_ATOM_DEF_STEREO_COUNT>  (1) 
0

>  <PUBCHEM_ATOM_UDEF_STEREO_COUNT>  (1) 
0

>  <PUBCHEM_BOND_DEF_STEREO_COUNT>  (1) 
0

>  <PUBCHEM_BOND_UDEF_STEREO_COUNT>  (1) 
1

>  <PUBCHEM_ISOTOPIC_ATOM_COUNT>  (1) 
0

>  <PUBCHEM_COMPONENT_COUNT>  (1) 
1

>  <PUBCHEM_CACTVS_TAUTO_COUNT>  (1) 
2

>  <PUBCHEM_CONFORMER_ID>  (1) 
00003C4C00000002

>  <PUBCHEM_MMFF94_ENERGY>  (1) 
17.9239

>  <PUBCHEM_FEATURE_SELFOVERLAP>  (1) 
20.297

>  <PUBCHEM_SHAPE_FINGERPRINT>  (1) 
100427 49 17759817230720586125
13024252 1 17385723633608043522
16714656 1 18412821395761761125
20653085 51 18056486049504362308
21040471 1 18268137661179126596
23552449 1 18340479088162537196
24536 1 17313383478299046866
5084963 1 17678740025093504261
5943 1 13151897791554053939
68250623 7 18044089047548870763

>  <PUBCHEM_SHAPE_MULTIPOLES>  (1) 
157.64
2.61
1.87
1.08
2.31
0.19
0.39
0.86
-0.44
-1.03
-0.17
-0.29
-0.24
-0.02

>  <PUBCHEM_SHAPE_SELFOVERLAP>  (1) 
275.662

>  <PUBCHEM_SHAPE_VOLUME>  (1) 
106.5

>  <PUBCHEM_COORDINATE_TYPE>  (1) 
2
5
10

$$$$
