15439
     RDKit          3D

 10  9  0  0  0  0  0  0  0  0999 V2000
   -0.5876    0.1630   -0.4777 C   0  0  0  0  0  0  0  0  0  0  0  0
    0.6254    0.3131    0.4441 C   0  0  0  0  0  0  0  0  0  0  0  0
   -1.9278    0.2316    0.2646 C   0  0  0  0  0  0  0  0  0  0  0  0
    1.9350    0.1980   -0.3437 C   0  0  0  0  0  0  0  0  0  0  0  0
   -3.1742    0.0681   -0.6119 C   0  0  0  0  0  0  0  0  0  0  0  0
    3.1799    0.3159    0.5415 C   0  0  0  0  0  0  0  0  0  0  0  0
   -4.4553    0.2033    0.1572 C   0  0  0  0  0  0  0  0  0  0  0  0
    4.4603    0.1340   -0.2195 C   0  0  0  0  0  0  0  0  0  0  0  0
   -5.3778   -0.7610    0.2500 C   0  0  0  0  0  0  0  0  0  0  0  0
    5.3223   -0.8660   -0.0045 C   0  0  0  0  0  0  0  0  0  0  0  0
  1  2  1  0
  1  3  1  0
  2  4  1  0
  3  5  1  0
  4  6  1  0
  5  7  1  0
  6  8  1  0
  7  9  2  0
  8 10  2  0
M  END
>  <PUBCHEM_COMPOUND_CID>  (1) 
15439

>  <PUBCHEM_CONFORMER_RMSD>  (1) 
0.6

>  <PUBCHEM_CONFORMER_DIVERSEORDER>  (1) 
5
47
77
151
93
65
176
8
104
206
1
103
121
162
16
143
25
60
117
159
150
126
64
82
80
134
6
56
22
194
50
48
154
122
7
10
174
2
39
196
31
142
186
204
38
152
28
71
102
200
45
119
68
91
177
53
13
192
44
144
84
70
180
55
92
115
175
49
163
118
112
83
137
87
170
98
155
190
35
57
29
128
23
203
63
74
69
182
208
178
9
21
198
27
136
147
168
85
169
24
14
130
181
19
125
51
97
4
99
185
158
20
195
205
140
18
131
12
148
149
183
179
139
120
133
67
109
129
199
161
11
17
86
116
145
95
191
33
54
184
171
172
106
127
46
78
153
173
58
132
202
114
75
59
207
30
72
101
197
146
52
189
36
32
123
135
124
43
40
73
166
138
160
88
165
201
100
107
81
111
89
37
26
187
41
3
141
79
94
108
15
96
76
156
157
62
66
113
61
34
193
42
164
90
167
188
110
105

>  <PUBCHEM_MMFF94_PARTIAL_CHARGES>  (1) 
12
10 -0.3
23 0.15
24 0.15
25 0.15
26 0.15
27 0.15
28 0.15
5 0.14
6 0.14
7 -0.29
8 -0.29
9 -0.3

>  <PUBCHEM_EFFECTIVE_ROTOR_COUNT>  (1) 
7

>  <PUBCHEM_PHARMACOPHORE_FEATURES>  (1) 
2
1 10 hydrophobe
1 9 hydrophobe

>  <PUBCHEM_HEAVY_ATOM_COUNT>  (1) 
10

>  <PUBCHEM_ATOM_DEF_STEREO_COUNT>  (1) 
0

>  <PUBCHEM_ATOM_UDEF_STEREO_COUNT>  (1) 
0

>  <PUBCHEM_BOND_DEF_STEREO_COUNT>  (1) 
0

>  <PUBCHEM_BOND_UDEF_STEREO_COUNT>  (1) 
0

>  <PUBCHEM_ISOTOPIC_ATOM_COUNT>  (1) 
0

>  <PUBCHEM_COMPONENT_COUNT>  (1) 
1

>  <PUBCHEM_CACTVS_TAUTO_COUNT>  (1) 
1

>  <PUBCHEM_CONFORMER_ID>  (1) 
00003C4F00000005

>  <PUBCHEM_MMFF94_ENERGY>  (1) 
0.87

>  <PUBCHEM_FEATURE_SELFOVERLAP>  (1) 
10.149

>  <PUBCHEM_SHAPE_FINGERPRINT>  (1) 
11062470 55 10807937071973489477
11401426 45 11600004349465327921
114248 4 16081088181822041452
117890 112 10447932767067475795
12714333 28 11530483337274113550
12815109 37 10735878369770754163
14123238 8 15140679180745971411
1420 363 17822016419210430619
14251718 22 12179850511003132961
14455015 7 18412268319859356722
15501527 16 10951783967060898643
17834072 33 13551482483097432427
17834076 25 18410293609686381258
18342897 14 12463570677229966155
187816 3 14923944548507184581
20645477 70 14707474855557306776
20719005 15 18410292514496107520
20767249 213 9799691498151962235
20828058 44 16128370501889368197
22485316 2 10447929468548462253
23402539 116 18411132533364917485
23402655 69 13695858230091751563
42 15 17846499231408835852
42788 4 18410293613986688269
49783359 22 18202280338313288711
57483677 66 18335136492386005882
59345606 91 8286199444202969678

>  <PUBCHEM_SHAPE_MULTIPOLES>  (1) 
205.8
13.15
0.79
0.76
0.42
0.1
-0.01
3.42
0.49
-0.11
0.02
0.04
-0.02
0.13

>  <PUBCHEM_SHAPE_SELFOVERLAP>  (1) 
365.721

>  <PUBCHEM_SHAPE_VOLUME>  (1) 
133.7

>  <PUBCHEM_COORDINATE_TYPE>  (1) 
2
5
10

$$$$
