15446
     RDKit          3D

  9  9  0  0  0  0  0  0  0  0999 V2000
    1.3368    2.2799   -0.0008 F   0  0  0  0  0  0  0  0  0  0  0  0
    1.3173   -2.2910   -0.0008 F   0  0  0  0  0  0  0  0  0  0  0  0
   -0.6902   -1.1968    0.0005 N   0  0  0  0  0  0  0  0  0  0  0  0
   -0.6799    1.2027    0.0005 N   0  0  0  0  0  0  0  0  0  0  0  0
    1.3929   -0.0059    0.0004 N   0  0  0  0  0  0  0  0  0  0  0  0
   -2.6997    0.0112   -0.0009 N   0  0  0  0  0  0  0  0  0  0  0  0
   -1.2881    0.0055    0.0005 C   0  0  0  0  0  0  0  0  0  0  0  0
    0.6603    1.1193    0.0004 C   0  0  0  0  0  0  0  0  0  0  0  0
    0.6507   -1.1248    0.0003 C   0  0  0  0  0  0  0  0  0  0  0  0
  1  8  1  0
  2  9  1  0
  3  7  2  0
  3  9  1  0
  4  7  1  0
  4  8  2  0
  5  8  1  0
  5  9  2  0
  6  7  1  0
M  END
>  <PUBCHEM_COMPOUND_CID>  (1) 
15446

>  <PUBCHEM_CONFORMER_RMSD>  (1) 
0.4

>  <PUBCHEM_CONFORMER_DIVERSEORDER>  (1) 
1

>  <PUBCHEM_MMFF94_PARTIAL_CHARGES>  (1) 
11
1 -0.19
10 0.4
11 0.4
2 -0.19
3 -0.62
4 -0.62
5 -0.62
6 -0.9
7 0.72
8 0.81
9 0.81

>  <PUBCHEM_EFFECTIVE_ROTOR_COUNT>  (1) 
0

>  <PUBCHEM_PHARMACOPHORE_FEATURES>  (1) 
3
1 6 donor
4 3 4 6 7 cation
6 3 4 5 7 8 9 rings

>  <PUBCHEM_HEAVY_ATOM_COUNT>  (1) 
9

>  <PUBCHEM_ATOM_DEF_STEREO_COUNT>  (1) 
0

>  <PUBCHEM_ATOM_UDEF_STEREO_COUNT>  (1) 
0

>  <PUBCHEM_BOND_DEF_STEREO_COUNT>  (1) 
0

>  <PUBCHEM_BOND_UDEF_STEREO_COUNT>  (1) 
0

>  <PUBCHEM_ISOTOPIC_ATOM_COUNT>  (1) 
0

>  <PUBCHEM_COMPONENT_COUNT>  (1) 
1

>  <PUBCHEM_CACTVS_TAUTO_COUNT>  (1) 
3

>  <PUBCHEM_CONFORMER_ID>  (1) 
00003C5600000001

>  <PUBCHEM_MMFF94_ENERGY>  (1) 
17.7781

>  <PUBCHEM_FEATURE_SELFOVERLAP>  (1) 
15.223

>  <PUBCHEM_SHAPE_FINGERPRINT>  (1) 
18185500 45 18195247715438125111
21040471 1 17906452477972435456
23552423 10 17396716284744004366
241688 4 17906171754604166689
2748010 2 18121503723850058926
29004967 10 18336267838490429203

>  <PUBCHEM_SHAPE_MULTIPOLES>  (1) 
150.74
2.25
2.11
0.55
1.45
0
0
0
0
-1.3
0
0.01
0
0

>  <PUBCHEM_SHAPE_SELFOVERLAP>  (1) 
313.901

>  <PUBCHEM_SHAPE_VOLUME>  (1) 
84.9

>  <PUBCHEM_COORDINATE_TYPE>  (1) 
2
5
10

$$$$
