15444
     RDKit          3D

 22 25  0  0  1  0  0  0  0  0999 V2000
   -4.3236   -2.3098   -0.1405 F   0  0  0  0  0  0  0  0  0  0  0  0
    4.9272   -1.5511    0.7609 O   0  0  0  0  0  0  0  0  0  0  0  0
   -5.1600   -0.1452    1.1690 O   0  0  0  0  0  0  0  0  0  0  0  0
    0.9295    1.0999   -0.5425 C   0  0  0  0  0  0  0  0  0  0  0  0
    0.1373   -0.2409   -0.5368 C   0  0  0  0  0  0  0  0  0  0  0  0
    2.4571    0.9105   -0.3867 C   0  0  0  0  0  0  0  0  0  0  0  0
    2.9301   -0.1084    0.6752 C   0  0  0  0  0  0  0  0  0  0  0  0
   -1.4210   -0.0036   -0.6580 C   0  0  0  0  0  0  0  0  0  0  0  0
   -1.8953    1.0186    0.4176 C   0  0  0  0  0  0  0  0  0  0  0  0
    0.5688   -1.1156    0.6587 C   0  0  0  0  0  0  0  0  0  0  0  0
    2.0744   -1.3907    0.6507 C   0  0  0  0  0  0  0  0  0  0  0  0
    0.3821    2.1012    0.4909 C   0  0  0  0  0  0  0  0  0  0  0  0
    3.1071    0.4168   -1.7001 C   0  0  0  0  0  0  0  0  0  0  0  0
    4.3842   -0.3631    0.2143 C   0  0  0  0  0  0  0  0  0  0  0  0
   -1.1180    2.3366    0.3493 C   0  0  0  0  0  0  0  0  0  0  0  0
    4.3150   -0.4284   -1.3062 C   0  0  0  0  0  0  0  0  0  0  0  0
   -2.2271   -1.3154   -0.4373 C   0  0  0  0  0  0  0  0  0  0  0  0
    2.9638    0.4609    2.1036 C   0  0  0  0  0  0  0  0  0  0  0  0
   -1.7106    0.4996   -2.1016 C   0  0  0  0  0  0  0  0  0  0  0  0
   -3.4066    1.2790    0.3676 C   0  0  0  0  0  0  0  0  0  0  0  0
   -3.7406   -1.1280   -0.4914 C   0  0  0  0  0  0  0  0  0  0  0  0
   -4.1739   -0.0227    0.4432 C   0  0  0  0  0  0  0  0  0  0  0  0
  1 21  1  0
  2 14  1  0
  3 22  2  0
  4  5  1  0
  4  6  1  0
  4 12  1  0
  5  8  1  0
  5 10  1  0
  6  7  1  0
  6 13  1  0
  7 11  1  0
  7 14  1  0
  7 18  1  0
  8  9  1  0
  8 17  1  0
  8 19  1  0
  9 15  1  0
  9 20  1  0
 10 11  1  0
 12 15  1  0
 13 16  1  0
 14 16  1  0
 17 21  1  0
 20 22  1  0
 21 22  1  0
M  END
>  <PUBCHEM_COMPOUND_CID>  (1) 
15444

>  <PUBCHEM_CONFORMER_RMSD>  (1) 
0.6

>  <PUBCHEM_CONFORMER_DIVERSEORDER>  (1) 
2
29
63
32
62
43
21
31
53
56
15
48
3
38
33
61
59
12
46
23
20
10
22
17
49
58
57
50
36
6
27
19
9
28
47
16
64
25
42
39
60
11
37
52
4
24
51
14
35
18
44
34
45
8
5
55
26
7
13
41
40
1
54
30

>  <PUBCHEM_MMFF94_PARTIAL_CHARGES>  (1) 
8
1 -0.34
14 0.28
2 -0.68
20 0.06
21 0.4
22 0.45
3 -0.57
51 0.4

>  <PUBCHEM_EFFECTIVE_ROTOR_COUNT>  (1) 
2

>  <PUBCHEM_PHARMACOPHORE_FEATURES>  (1) 
7
1 2 acceptor
1 2 donor
1 3 acceptor
5 6 7 13 14 16 rings
6 4 5 6 7 10 11 rings
6 4 5 8 9 12 15 rings
6 8 9 17 20 21 22 rings

>  <PUBCHEM_HEAVY_ATOM_COUNT>  (1) 
22

>  <PUBCHEM_ATOM_DEF_STEREO_COUNT>  (1) 
3

>  <PUBCHEM_ATOM_UDEF_STEREO_COUNT>  (1) 
5

>  <PUBCHEM_BOND_DEF_STEREO_COUNT>  (1) 
0

>  <PUBCHEM_BOND_UDEF_STEREO_COUNT>  (1) 
0

>  <PUBCHEM_ISOTOPIC_ATOM_COUNT>  (1) 
0

>  <PUBCHEM_COMPONENT_COUNT>  (1) 
1

>  <PUBCHEM_CACTVS_TAUTO_COUNT>  (1) 
3

>  <PUBCHEM_CONFORMER_ID>  (1) 
00003C5400000002

>  <PUBCHEM_MMFF94_ENERGY>  (1) 
75.1576

>  <PUBCHEM_FEATURE_SELFOVERLAP>  (1) 
35.747

>  <PUBCHEM_SHAPE_FINGERPRINT>  (1) 
10062212 137 18333449816021501073
11132069 177 18272650147505367009
11543360 7 15791729736868234671
11552529 35 15122650587702146215
11578080 2 17970041466261505308
11615757 297 17676488332743639676
12011746 2 18272088263057386589
12236239 1 18114468893857960821
12403814 3 17531246141223436653
12553582 1 18409164428841353321
12596599 1 17988378047309734395
12633257 1 18271254889009301625
12714826 92 18041267808144007421
12788726 201 18339659848921194328
128620 24 17967533475958358700
13009979 54 18117834392409805530
13140716 1 18201156658804226961
13224815 77 18334287673772512004
13296908 3 18131062753551610556
13583140 156 18058998485055396257
13675066 3 17418094334040302967
13760787 5 17822012029490142463
14787075 74 18259988209916890514
15196674 1 18412262869498248961
15209289 33 18261114084265237811
15375358 24 11963397353329372632
15375462 189 18260828198304145691
15788980 27 17603581915618448295
16752209 62 18337099086577000021
16945 1 18337942420395710108
17349148 13 17895191078444442194
17804303 29 18202005447299675673
1813 80 18041290893234332796
18186145 218 18261387883924335436
19141452 34 17346598586407787999
200 152 17458064850238289924
20028762 73 17915180350447232591
20281475 54 18260545653864935807
20645477 70 15936410022734633634
21033648 29 16056595405199315603
21267235 1 18410022030646870395
22646028 28 18407758127557153782
22950370 63 18409736178861049775
23366157 5 18121220050083078221
23402539 116 18343858909575823446
23557571 272 17988645147046774952
23559900 14 18059303067378211540
23622692 88 18342464742681880801
296302 2 12679457590805302180
312423 11 16805603612460908076
3286 77 18336823199067852901
465052 167 18262251005342875019
474 4 17678752360936619276
5104073 3 18201443639965655539

>  <PUBCHEM_SHAPE_MULTIPOLES>  (1) 
433.74
9.27
1.88
1.49
1.11
0.25
0.23
-3.53
-1.25
0.98
-0.26
-0.86
0.13
-0.39

>  <PUBCHEM_SHAPE_SELFOVERLAP>  (1) 
925.821

>  <PUBCHEM_SHAPE_VOLUME>  (1) 
239.8

>  <PUBCHEM_COORDINATE_TYPE>  (1) 
2
5
10

$$$$
