15440
     RDKit          3D

  9  9  0  0  0  0  0  0  0  0999 V2000
   -4.2672   -0.0172    0.1931 Br  0  0  0  0  0  0  0  0  0  0  0  0
   -0.0598   -0.2613   -0.2855 C   0  0  0  0  0  0  0  0  0  0  0  0
    0.3949    1.1037    0.2487 C   0  0  0  0  0  0  0  0  0  0  0  0
    0.9060   -1.3696    0.1546 C   0  0  0  0  0  0  0  0  0  0  0  0
    1.8352    1.4144   -0.1520 C   0  0  0  0  0  0  0  0  0  0  0  0
    2.3456   -1.0548   -0.2457 C   0  0  0  0  0  0  0  0  0  0  0  0
    2.7909    0.3065    0.2795 C   0  0  0  0  0  0  0  0  0  0  0  0
   -1.4834   -0.5729    0.1727 C   0  0  0  0  0  0  0  0  0  0  0  0
   -2.4622    0.4513   -0.3655 C   0  0  0  0  0  0  0  0  0  0  0  0
  1  9  1  0
  2  3  1  0
  2  4  1  0
  2  8  1  0
  3  5  1  0
  4  6  1  0
  5  7  1  0
  6  7  1  0
  8  9  1  0
M  END
>  <PUBCHEM_COMPOUND_CID>  (1) 
15440

>  <PUBCHEM_CONFORMER_RMSD>  (1) 
0.6

>  <PUBCHEM_CONFORMER_DIVERSEORDER>  (1) 
1
5
7
2
6
3
8
4

>  <PUBCHEM_MMFF94_PARTIAL_CHARGES>  (1) 
2
1 -0.23
9 0.23

>  <PUBCHEM_EFFECTIVE_ROTOR_COUNT>  (1) 
3.2

>  <PUBCHEM_PHARMACOPHORE_FEATURES>  (1) 
2
1 1 hydrophobe
6 2 3 4 5 6 7 rings

>  <PUBCHEM_HEAVY_ATOM_COUNT>  (1) 
9

>  <PUBCHEM_ATOM_DEF_STEREO_COUNT>  (1) 
0

>  <PUBCHEM_ATOM_UDEF_STEREO_COUNT>  (1) 
0

>  <PUBCHEM_BOND_DEF_STEREO_COUNT>  (1) 
0

>  <PUBCHEM_BOND_UDEF_STEREO_COUNT>  (1) 
0

>  <PUBCHEM_ISOTOPIC_ATOM_COUNT>  (1) 
0

>  <PUBCHEM_COMPONENT_COUNT>  (1) 
1

>  <PUBCHEM_CACTVS_TAUTO_COUNT>  (1) 
1

>  <PUBCHEM_CONFORMER_ID>  (1) 
00003C5000000001

>  <PUBCHEM_MMFF94_ENERGY>  (1) 
4.7232

>  <PUBCHEM_FEATURE_SELFOVERLAP>  (1) 
10.148

>  <PUBCHEM_SHAPE_FINGERPRINT>  (1) 
10219947 1 18202566150890184263
11062470 55 14692569927175233529
11471102 20 18411133628296650213
12932764 1 17749381555877360943
14251717 144 18411976971053448095
14325111 11 18410574011422401853
15775835 57 18200876287328000181
17844478 74 18040719143352013253
20201158 50 18335139773941252779
20606313 2 18411135844336368013
20645477 70 18339636742629982239
20871998 22 17983861086266323094
21040471 1 18194681703557974700
23235685 24 18337946887393605000
23402655 69 18341605997977648749
29004967 10 18408323276575989826

>  <PUBCHEM_SHAPE_MULTIPOLES>  (1) 
191.16
5.93
1.38
0.69
6.35
0.04
0
0.16
-0.28
-0.87
0
0.07
0.01
0.1

>  <PUBCHEM_SHAPE_SELFOVERLAP>  (1) 
349.109

>  <PUBCHEM_SHAPE_VOLUME>  (1) 
122.7

>  <PUBCHEM_COORDINATE_TYPE>  (1) 
2
5
10

$$$$
