15442
     RDKit          3D

  6  5  0  0  0  0  0  0  0  0999 V2000
    1.9758   -0.7597    0.0026 Cl  0  0  0  0  0  0  0  0  0  0  0  0
   -2.3020   -0.0998    0.0012 Cl  0  0  0  0  0  0  0  0  0  0  0  0
    0.3210    0.8649    1.0916 F   0  0  0  0  0  0  0  0  0  0  0  0
    0.3267    0.8681   -1.0903 F   0  0  0  0  0  0  0  0  0  0  0  0
    0.4070    0.0650   -0.0003 C   0  0  0  0  0  0  0  0  0  0  0  0
   -0.7285   -0.9384   -0.0048 C   0  0  0  0  0  0  0  0  0  0  0  0
  1  5  1  0
  2  6  1  0
  3  5  1  0
  4  5  1  0
  5  6  1  0
M  END
>  <PUBCHEM_COMPOUND_CID>  (1) 
15442

>  <PUBCHEM_CONFORMER_RMSD>  (1) 
0.4

>  <PUBCHEM_CONFORMER_DIVERSEORDER>  (1) 
1
2
3

>  <PUBCHEM_MMFF94_PARTIAL_CHARGES>  (1) 
6
1 -0.29
2 -0.29
3 -0.34
4 -0.34
5 0.97
6 0.29

>  <PUBCHEM_EFFECTIVE_ROTOR_COUNT>  (1) 
1

>  <PUBCHEM_PHARMACOPHORE_FEATURES>  (1) 
0

>  <PUBCHEM_HEAVY_ATOM_COUNT>  (1) 
6

>  <PUBCHEM_ATOM_DEF_STEREO_COUNT>  (1) 
0

>  <PUBCHEM_ATOM_UDEF_STEREO_COUNT>  (1) 
0

>  <PUBCHEM_BOND_DEF_STEREO_COUNT>  (1) 
0

>  <PUBCHEM_BOND_UDEF_STEREO_COUNT>  (1) 
0

>  <PUBCHEM_ISOTOPIC_ATOM_COUNT>  (1) 
0

>  <PUBCHEM_COMPONENT_COUNT>  (1) 
1

>  <PUBCHEM_CACTVS_TAUTO_COUNT>  (1) 
1

>  <PUBCHEM_CONFORMER_ID>  (1) 
00003C5200000001

>  <PUBCHEM_MMFF94_ENERGY>  (1) 
2.7795

>  <PUBCHEM_FEATURE_SELFOVERLAP>  (1) 
0

>  <PUBCHEM_SHAPE_FINGERPRINT>  (1) 
139733 1 9295283945718301826
16714656 1 18040713610917099839
20096714 4 17532377654488907207
24536 1 17825377746457746495
29004967 10 17676776408984980938
5460574 1 9223230749758552995
5943 1 15479814823713469476

>  <PUBCHEM_SHAPE_MULTIPOLES>  (1) 
112.67
2.58
1.03
0.88
0.64
0.02
0
0.6
0
-0.11
0
-0.08
-0.24
0

>  <PUBCHEM_SHAPE_SELFOVERLAP>  (1) 
188.843

>  <PUBCHEM_SHAPE_VOLUME>  (1) 
78.9

>  <PUBCHEM_COORDINATE_TYPE>  (1) 
2
5
10

$$$$
