15445
     RDKit          3D

 21 23  0  0  0  0  0  0  0  0999 V2000
    0.0049   -4.9804    0.0003 F   0  0  0  0  0  0  0  0  0  0  0  0
   -2.3414   -0.9896   -0.0893 N   0  0  0  0  0  0  0  0  0  0  0  0
    2.3446   -0.9853    0.0891 N   0  0  0  0  0  0  0  0  0  0  0  0
    0.0016   -0.9558    0.0002 N   0  0  0  0  0  0  0  0  0  0  0  0
    1.2024   -3.0327    0.0456 N   0  0  0  0  0  0  0  0  0  0  0  0
   -1.1954   -3.0349   -0.0458 N   0  0  0  0  0  0  0  0  0  0  0  0
   -2.6507    0.3865   -0.1018 C   0  0  0  0  0  0  0  0  0  0  0  0
    2.6499    0.3887    0.1017 C   0  0  0  0  0  0  0  0  0  0  0  0
   -1.1220   -1.6926   -0.0428 C   0  0  0  0  0  0  0  0  0  0  0  0
    1.1235   -1.6923    0.0427 C   0  0  0  0  0  0  0  0  0  0  0  0
   -3.8468    0.8378    0.4563 C   0  0  0  0  0  0  0  0  0  0  0  0
   -1.7605    1.2962   -0.6726 C   0  0  0  0  0  0  0  0  0  0  0  0
    3.8453    0.8459   -0.4567 C   0  0  0  0  0  0  0  0  0  0  0  0
    1.7582    1.2989    0.6729 C   0  0  0  0  0  0  0  0  0  0  0  0
   -4.1529    2.1987    0.4432 C   0  0  0  0  0  0  0  0  0  0  0  0
   -2.0666    2.6570   -0.6855 C   0  0  0  0  0  0  0  0  0  0  0  0
    4.1480    2.2075   -0.4435 C   0  0  0  0  0  0  0  0  0  0  0  0
    2.0609    2.6605    0.6859 C   0  0  0  0  0  0  0  0  0  0  0  0
   -3.2628    3.1082   -0.1275 C   0  0  0  0  0  0  0  0  0  0  0  0
    3.2558    3.1147    0.1277 C   0  0  0  0  0  0  0  0  0  0  0  0
    0.0041   -3.6369   -0.0003 C   0  0  0  0  0  0  0  0  0  0  0  0
  1 21  1  0
  2  7  1  0
  2  9  1  0
  3  8  1  0
  3 10  1  0
  4  9  2  0
  4 10  1  0
  5 10  2  0
  5 21  1  0
  6  9  1  0
  6 21  2  0
  7 11  2  0
  7 12  1  0
  8 13  2  0
  8 14  1  0
 11 15  1  0
 12 16  2  0
 13 17  1  0
 14 18  2  0
 15 19  2  0
 16 19  1  0
 17 20  2  0
 18 20  1  0
M  END
>  <PUBCHEM_COMPOUND_CID>  (1) 
15445

>  <PUBCHEM_CONFORMER_RMSD>  (1) 
0.6

>  <PUBCHEM_CONFORMER_DIVERSEORDER>  (1) 
2
32
5
19
11
29
31
18
33
6
10
35
20
30
27
1
39
17
25
12
34
40
42
24
13
15
21
14
16
38
41
23
8
22
37
26
9
28
7
36
4
3

>  <PUBCHEM_MMFF94_PARTIAL_CHARGES>  (1) 
33
1 -0.19
10 0.72
11 -0.15
12 -0.15
13 -0.15
14 -0.15
15 -0.15
16 -0.15
17 -0.15
18 -0.15
19 -0.15
2 -0.6
20 -0.15
21 0.81
22 0.4
23 0.4
24 0.15
25 0.15
26 0.15
27 0.15
28 0.15
29 0.15
3 -0.6
30 0.15
31 0.15
32 0.15
33 0.15
4 -0.62
5 -0.62
6 -0.62
7 0.1
8 0.1
9 0.72

>  <PUBCHEM_EFFECTIVE_ROTOR_COUNT>  (1) 
4

>  <PUBCHEM_PHARMACOPHORE_FEATURES>  (1) 
7
1 2 donor
1 3 donor
4 2 4 6 9 cation
4 3 4 5 10 cation
6 4 5 6 9 10 21 rings
6 7 11 12 15 16 19 rings
6 8 13 14 17 18 20 rings

>  <PUBCHEM_HEAVY_ATOM_COUNT>  (1) 
21

>  <PUBCHEM_ATOM_DEF_STEREO_COUNT>  (1) 
0

>  <PUBCHEM_ATOM_UDEF_STEREO_COUNT>  (1) 
0

>  <PUBCHEM_BOND_DEF_STEREO_COUNT>  (1) 
0

>  <PUBCHEM_BOND_UDEF_STEREO_COUNT>  (1) 
0

>  <PUBCHEM_ISOTOPIC_ATOM_COUNT>  (1) 
0

>  <PUBCHEM_COMPONENT_COUNT>  (1) 
1

>  <PUBCHEM_CACTVS_TAUTO_COUNT>  (1) 
5

>  <PUBCHEM_CONFORMER_ID>  (1) 
00003C5500000002

>  <PUBCHEM_MMFF94_ENERGY>  (1) 
73.8284

>  <PUBCHEM_FEATURE_SELFOVERLAP>  (1) 
35.564

>  <PUBCHEM_SHAPE_FINGERPRINT>  (1) 
10006869 2 18263356057431847939
10064457 181 18410295852097894020
10165383 225 18410586075500947725
10411042 1 17185877190998189611
10498660 4 17976529830241543660
1100329 8 18339078169095170026
11211813 163 17973467648417013140
12107183 9 18335687353108769904
12173636 292 18338793524021209965
12403260 363 18338779178693316902
12788726 201 18052521459777839207
13140716 1 18411410683456614392
138480 1 17762336911923353957
14466204 15 18193267495450220570
151778 21 18337959982527857801
18785283 64 18192438459134631041
19591789 44 18410859858174737857
19611394 137 15376829381342834432
19930381 70 18265894657933801881
20621476 13 17903627484956670381
21041028 32 17041478315704883663
21524375 3 18261386754384853258
21860390 5 17767115402627446813
22182937 141 18269845378788777392
23559900 14 17904476308412906321
238 59 17685173276297119989
23845131 108 18408046204400044635
3091708 16 9264465729923914178
350125 39 18409731763544829795
474 4 18339920394875238033
5048184 11 18411700993287158281
5939293 188 17833544600763922875
6442390 28 18338807796334242625
7364860 26 18050286968745355063
7808743 9 18192998347072464196
81228 2 17762326320560389121
9981440 41 18408879646502396715

>  <PUBCHEM_SHAPE_MULTIPOLES>  (1) 
399.99
7.13
5.66
0.73
0.02
5.83
0
-8.21
0
-0.01
0
0
-0.3
0.09

>  <PUBCHEM_SHAPE_SELFOVERLAP>  (1) 
869.85

>  <PUBCHEM_SHAPE_VOLUME>  (1) 
214.8

>  <PUBCHEM_COORDINATE_TYPE>  (1) 
2
5
10

$$$$
