15455
     RDKit          3D

 17 16  0  0  0  0  0  0  0  0999 V2000
    1.5478    0.5789    0.3613 P   0  0  0  0  0  0  0  0  0  0  0  0
   -1.5098   -0.4391    0.4044 P   0  0  0  0  0  0  0  0  0  0  0  0
    1.8415   -0.5905    1.4400 O   0  0  0  0  0  0  0  0  0  0  0  0
    2.6855    0.3217   -0.7597 O   0  0  0  0  0  0  0  0  0  0  0  0
   -1.9578    0.8815    1.2245 O   0  0  0  0  0  0  0  0  0  0  0  0
   -2.6133   -0.5157   -0.7762 O   0  0  0  0  0  0  0  0  0  0  0  0
    1.5174    1.9696    0.9266 O   0  0  0  0  0  0  0  0  0  0  0  0
   -1.3789   -1.6852    1.2317 O   0  0  0  0  0  0  0  0  0  0  0  0
    0.0100    0.0621   -0.4427 C   0  0  0  0  0  0  0  0  0  0  0  0
    2.0169   -1.9178    0.9762 C   0  0  0  0  0  0  0  0  0  0  0  0
    2.8541    1.2772   -1.7922 C   0  0  0  0  0  0  0  0  0  0  0  0
   -2.2316    2.0711    0.5052 C   0  0  0  0  0  0  0  0  0  0  0  0
   -2.6463   -1.6640   -1.6057 C   0  0  0  0  0  0  0  0  0  0  0  0
    2.2771   -2.8238    2.1607 C   0  0  0  0  0  0  0  0  0  0  0  0
    3.9676    0.8199   -2.7101 C   0  0  0  0  0  0  0  0  0  0  0  0
   -2.6272    3.1580    1.4818 C   0  0  0  0  0  0  0  0  0  0  0  0
   -3.7533   -1.5039   -2.6258 C   0  0  0  0  0  0  0  0  0  0  0  0
  1  3  1  0
  1  4  1  0
  1  7  2  0
  1  9  1  0
  2  5  1  0
  2  6  1  0
  2  8  2  0
  2  9  1  0
  3 10  1  0
  4 11  1  0
  5 12  1  0
  6 13  1  0
 10 14  1  0
 11 15  1  0
 12 16  1  0
 13 17  1  0
M  END
>  <PUBCHEM_COMPOUND_CID>  (1) 
15455

>  <PUBCHEM_CONFORMER_RMSD>  (1) 
0.8

>  <PUBCHEM_CONFORMER_DIVERSEORDER>  (1) 
3
206
64
148
70
177
89
138
72
199
144
156
143
21
22
194
198
36
80
102
146
52
201
61
90
31
99
16
145
83
37
5
34
142
74
207
13
113
79
204
123
82
54
183
187
75
58
189
95
125
215
108
133
193
115
25
14
166
27
51
53
92
170
77
178
93
60
214
188
131
122
4
147
149
7
126
101
42
119
104
200
88
220
155
46
151
24
219
197
78
208
171
19
98
124
106
47
87
209
162
32
84
121
136
152
174
57
154
96
86
18
164
140
181
160
196
132
65
163
186
139
211
165
17
62
157
114
56
176
182
49
205
212
128
100
222
111
38
180
30
173
110
39
63
175
73
117
161
71
112
202
35
184
55
172
40
23
97
218
68
153
69
94
168
26
134
10
185
50
135
118
29
129
85
195
45
81
15
190
141
150
130
67
158
120
20
210
59
169
48
116
127
159
43
66
192
217
28
33
107
105
11
137
41
203
109
221
9
167
8
76
191
216
12
44
179
1
2
213
91
6
103

>  <PUBCHEM_MMFF94_PARTIAL_CHARGES>  (1) 
12
1 1.24
10 0.28
11 0.28
12 0.28
13 0.28
2 1.24
3 -0.55
4 -0.55
5 -0.55
6 -0.55
7 -0.7
8 -0.7

>  <PUBCHEM_EFFECTIVE_ROTOR_COUNT>  (1) 
10

>  <PUBCHEM_PHARMACOPHORE_FEATURES>  (1) 
2
1 7 acceptor
1 8 acceptor

>  <PUBCHEM_HEAVY_ATOM_COUNT>  (1) 
17

>  <PUBCHEM_ATOM_DEF_STEREO_COUNT>  (1) 
0

>  <PUBCHEM_ATOM_UDEF_STEREO_COUNT>  (1) 
0

>  <PUBCHEM_BOND_DEF_STEREO_COUNT>  (1) 
0

>  <PUBCHEM_BOND_UDEF_STEREO_COUNT>  (1) 
0

>  <PUBCHEM_ISOTOPIC_ATOM_COUNT>  (1) 
0

>  <PUBCHEM_COMPONENT_COUNT>  (1) 
1

>  <PUBCHEM_CACTVS_TAUTO_COUNT>  (1) 
1

>  <PUBCHEM_CONFORMER_ID>  (1) 
00003C5F00000003

>  <PUBCHEM_MMFF94_ENERGY>  (1) 
4.3061

>  <PUBCHEM_FEATURE_SELFOVERLAP>  (1) 
10.149

>  <PUBCHEM_SHAPE_FINGERPRINT>  (1) 
10756046 70 18046912571559187700
12173636 292 17826829045977279916
12202030 40 15984829271604654255
14022347 108 17915735582137999279
15342816 4 17842249726779845815
15842332 3 18336826390207305187
15852999 172 17533469447775869394
19786989 88 17240772795483881674
201361 129 17969810517369033456
20645476 183 17972625228133145009
20711985 344 18131356327756967285
21524375 3 18053388691401135545
23419403 2 16681110334495413498
23557571 272 16701722892114125529
23598291 2 18191318090966278476
23598294 1 18130517366051557819
266924 78 17604154726806354963
2748010 2 16464167589141174315
31174 14 13326292661980204566
633830 44 18043560290151424500
6992083 37 17907557156635630043
7615 1 18336255747999105289
8030462 33 18408882970638219547
81228 2 17703503385484112219
88987 49 17917423164486590033

>  <PUBCHEM_SHAPE_MULTIPOLES>  (1) 
322.34
6.33
3.13
2.75
0.41
0.43
-1.57
0.22
-4.2
-1.09
1.78
0.72
-0.75
-4.53

>  <PUBCHEM_SHAPE_SELFOVERLAP>  (1) 
563.911

>  <PUBCHEM_SHAPE_VOLUME>  (1) 
212.4

>  <PUBCHEM_COORDINATE_TYPE>  (1) 
2
5
10

$$$$
