15450
     RDKit          3D

  9  8  0  0  0  0  0  0  0  0999 V2000
    4.5233   -0.1842   -0.5951 O   0  0  0  0  0  0  0  0  0  0  0  0
   -1.5557    0.2775    0.8731 C   0  0  0  0  0  0  0  0  0  0  0  0
   -2.9469    0.0394    0.2560 C   0  0  0  0  0  0  0  0  0  0  0  0
   -0.3599    0.0191   -0.0509 C   0  0  0  0  0  0  0  0  0  0  0  0
    0.9943    0.2092    0.6347 C   0  0  0  0  0  0  0  0  0  0  0  0
    2.1466   -0.0560   -0.3331 C   0  0  0  0  0  0  0  0  0  0  0  0
   -3.0472   -1.4026   -0.2498 C   0  0  0  0  0  0  0  0  0  0  0  0
   -3.2532    1.0092   -0.8857 C   0  0  0  0  0  0  0  0  0  0  0  0
    3.4988    0.0884    0.3508 C   0  0  0  0  0  0  0  0  0  0  0  0
  1  9  1  0
  2  3  1  0
  2  4  1  0
  3  7  1  0
  3  8  1  0
  4  5  1  0
  5  6  1  0
  6  9  1  0
M  END
>  <PUBCHEM_COMPOUND_CID>  (1) 
15450

>  <PUBCHEM_CONFORMER_RMSD>  (1) 
0.6

>  <PUBCHEM_CONFORMER_DIVERSEORDER>  (1) 
1
13
9
8
6
7
12
3
10
11
2
4
5

>  <PUBCHEM_MMFF94_PARTIAL_CHARGES>  (1) 
3
1 -0.68
27 0.4
9 0.28

>  <PUBCHEM_EFFECTIVE_ROTOR_COUNT>  (1) 
5

>  <PUBCHEM_PHARMACOPHORE_FEATURES>  (1) 
4
1 1 acceptor
1 1 donor
3 3 7 8 hydrophobe
5 2 3 4 5 6 hydrophobe

>  <PUBCHEM_HEAVY_ATOM_COUNT>  (1) 
9

>  <PUBCHEM_ATOM_DEF_STEREO_COUNT>  (1) 
0

>  <PUBCHEM_ATOM_UDEF_STEREO_COUNT>  (1) 
0

>  <PUBCHEM_BOND_DEF_STEREO_COUNT>  (1) 
0

>  <PUBCHEM_BOND_UDEF_STEREO_COUNT>  (1) 
0

>  <PUBCHEM_ISOTOPIC_ATOM_COUNT>  (1) 
0

>  <PUBCHEM_COMPONENT_COUNT>  (1) 
1

>  <PUBCHEM_CACTVS_TAUTO_COUNT>  (1) 
1

>  <PUBCHEM_CONFORMER_ID>  (1) 
00003C5A00000001

>  <PUBCHEM_MMFF94_ENERGY>  (1) 
4.2291

>  <PUBCHEM_FEATURE_SELFOVERLAP>  (1) 
20.301

>  <PUBCHEM_SHAPE_FINGERPRINT>  (1) 
11062470 55 17095243614006301520
12932764 1 18261384559804128321
14325111 11 18412825793734510122
190213 19 17989486325171294736
1986462 14 18410294717951519511
20211469 26 16988841665898999280
20645477 56 18335138649055648477
20711985 327 14549016606525985584
22485316 2 18411133628439120450
23402539 116 17967526870583474638
3248919 1 17775571935260990664

>  <PUBCHEM_SHAPE_MULTIPOLES>  (1) 
179.35
7.88
0.97
0.9
6.2
0.16
-0.04
0.3
1.67
-1.08
0.16
-0.16
-0.09
0.19

>  <PUBCHEM_SHAPE_SELFOVERLAP>  (1) 
315.292

>  <PUBCHEM_SHAPE_VOLUME>  (1) 
118.7

>  <PUBCHEM_COORDINATE_TYPE>  (1) 
2
5
10

$$$$
