15452
     RDKit          3D

  9  8  0  0  0  0  0  0  0  0999 V2000
   -0.0005    0.4192   -0.0003 O   0  0  0  0  0  0  0  0  0  0  0  0
    3.1545   -1.2147   -0.8601 N   0  0  0  0  0  0  0  0  0  0  0  0
   -3.1549   -1.2139    0.8607 N   0  0  0  0  0  0  0  0  0  0  0  0
    1.0609    1.2196    0.5056 C   0  0  0  0  0  0  0  0  0  0  0  0
   -1.0603    1.2190   -0.5060 C   0  0  0  0  0  0  0  0  0  0  0  0
    2.1705    0.3219    1.0350 C   0  0  0  0  0  0  0  0  0  0  0  0
   -2.1702    0.3215   -1.0350 C   0  0  0  0  0  0  0  0  0  0  0  0
    2.7199   -0.5364   -0.0251 C   0  0  0  0  0  0  0  0  0  0  0  0
   -2.7199   -0.5362    0.0253 C   0  0  0  0  0  0  0  0  0  0  0  0
  1  4  1  0
  1  5  1  0
  2  8  3  0
  3  9  3  0
  4  6  1  0
  5  7  1  0
  6  8  1  0
  7  9  1  0
M  END
>  <PUBCHEM_COMPOUND_CID>  (1) 
15452

>  <PUBCHEM_CONFORMER_RMSD>  (1) 
0.6

>  <PUBCHEM_CONFORMER_DIVERSEORDER>  (1) 
1
5
17
12
2
10
15
8
14
7
3
16
9
11
6
13
4

>  <PUBCHEM_MMFF94_PARTIAL_CHARGES>  (1) 
9
1 -0.56
2 -0.56
3 -0.56
4 0.28
5 0.28
6 0.2
7 0.2
8 0.36
9 0.36

>  <PUBCHEM_EFFECTIVE_ROTOR_COUNT>  (1) 
4

>  <PUBCHEM_PHARMACOPHORE_FEATURES>  (1) 
3
1 1 acceptor
1 2 acceptor
1 3 acceptor

>  <PUBCHEM_HEAVY_ATOM_COUNT>  (1) 
9

>  <PUBCHEM_ATOM_DEF_STEREO_COUNT>  (1) 
0

>  <PUBCHEM_ATOM_UDEF_STEREO_COUNT>  (1) 
0

>  <PUBCHEM_BOND_DEF_STEREO_COUNT>  (1) 
0

>  <PUBCHEM_BOND_UDEF_STEREO_COUNT>  (1) 
0

>  <PUBCHEM_ISOTOPIC_ATOM_COUNT>  (1) 
0

>  <PUBCHEM_COMPONENT_COUNT>  (1) 
1

>  <PUBCHEM_CACTVS_TAUTO_COUNT>  (1) 
1

>  <PUBCHEM_CONFORMER_ID>  (1) 
00003C5C00000001

>  <PUBCHEM_MMFF94_ENERGY>  (1) 
6.0007

>  <PUBCHEM_FEATURE_SELFOVERLAP>  (1) 
15.223

>  <PUBCHEM_SHAPE_FINGERPRINT>  (1) 
12932741 1 18262219084676640573
14390081 3 9439409042410108765
18342897 55 13406796622759064168
19766037 51 18338532892462491494
20279233 1 18338781377710791011
20711983 138 18341046320361876457
20711985 344 18121767340374429916
3248919 1 18338501002246149857
528716 315 16588032311591241651

>  <PUBCHEM_SHAPE_MULTIPOLES>  (1) 
169.38
5.64
1.33
1.04
0
0.02
0
-2.69
0
0
0
0
-0.08
1.03

>  <PUBCHEM_SHAPE_SELFOVERLAP>  (1) 
310.107

>  <PUBCHEM_SHAPE_VOLUME>  (1) 
103.3

>  <PUBCHEM_COORDINATE_TYPE>  (1) 
2
5
10

$$$$
