15467
     RDKit          3D

 23 25  0  0  0  0  0  0  0  0999 V2000
    1.5038   -2.4150    1.0931 O   0  0  0  0  0  0  0  0  0  0  0  0
   -3.6254    2.2970   -0.5622 O   0  0  0  0  0  0  0  0  0  0  0  0
   -0.0568   -0.7802    0.5692 N   0  0  0  0  0  0  0  0  0  0  0  0
    1.7443    1.6481    0.7702 N   0  0  0  0  0  0  0  0  0  0  0  0
   -2.7216   -3.3329   -0.0987 N   0  0  0  0  0  0  0  0  0  0  0  0
   -1.1343   -1.7404    0.8629 C   0  0  0  0  0  0  0  0  0  0  0  0
   -0.4613    0.5792    0.3054 C   0  0  0  0  0  0  0  0  0  0  0  0
   -1.6776   -2.3662   -0.4132 C   0  0  0  0  0  0  0  0  0  0  0  0
    0.3666    1.6960    0.5081 C   0  0  0  0  0  0  0  0  0  0  0  0
    1.2466   -1.2995    0.6250 C   0  0  0  0  0  0  0  0  0  0  0  0
    2.4081   -0.6013    0.0427 C   0  0  0  0  0  0  0  0  0  0  0  0
    2.6728    0.7474    0.2466 C   0  0  0  0  0  0  0  0  0  0  0  0
   -1.8083    0.8291   -0.0615 C   0  0  0  0  0  0  0  0  0  0  0  0
   -0.1820    2.9974    0.3721 C   0  0  0  0  0  0  0  0  0  0  0  0
   -2.3247    2.1186   -0.2065 C   0  0  0  0  0  0  0  0  0  0  0  0
    3.3608   -1.4112   -0.6084 C   0  0  0  0  0  0  0  0  0  0  0  0
    3.9091    1.2628   -0.1979 C   0  0  0  0  0  0  0  0  0  0  0  0
   -1.5103    3.2098    0.0221 C   0  0  0  0  0  0  0  0  0  0  0  0
   -3.2229   -3.9671   -1.3195 C   0  0  0  0  0  0  0  0  0  0  0  0
   -3.8196   -2.6900    0.6260 C   0  0  0  0  0  0  0  0  0  0  0  0
    4.5706   -0.8822   -1.0534 C   0  0  0  0  0  0  0  0  0  0  0  0
    4.8502    0.4587   -0.8394 C   0  0  0  0  0  0  0  0  0  0  0  0
   -4.0880    3.6417   -0.6825 C   0  0  0  0  0  0  0  0  0  0  0  0
  1 10  2  0
  2 15  1  0
  2 23  1  0
  3  6  1  0
  3  7  1  0
  3 10  1  0
  4  9  1  0
  4 12  1  0
  5  8  1  0
  5 19  1  0
  5 20  1  0
  6  8  1  0
  7  9  2  0
  7 13  1  0
  9 14  1  0
 10 11  1  0
 11 12  2  0
 11 16  1  0
 12 17  1  0
 13 15  2  0
 14 18  2  0
 15 18  1  0
 16 21  2  0
 17 22  2  0
 21 22  1  0
M  END
>  <PUBCHEM_COMPOUND_CID>  (1) 
15467

>  <PUBCHEM_CONFORMER_RMSD>  (1) 
0.8

>  <PUBCHEM_CONFORMER_DIVERSEORDER>  (1) 
1
7
3
5
4
6
2
8

>  <PUBCHEM_MMFF94_PARTIAL_CHARGES>  (1) 
31
1 -0.57
10 0.54
11 0.09
12 0.1
13 -0.15
14 -0.15
15 0.08
16 -0.15
17 -0.15
18 -0.15
19 0.27
2 -0.36
20 0.27
21 -0.15
22 -0.15
23 0.28
28 0.4
29 0.15
3 -0.48
30 0.15
31 0.15
32 0.15
33 0.15
4 -0.6
40 0.15
41 0.15
5 -0.81
6 0.3
7 0.12
8 0.27
9 0.1

>  <PUBCHEM_EFFECTIVE_ROTOR_COUNT>  (1) 
4.4

>  <PUBCHEM_PHARMACOPHORE_FEATURES>  (1) 
8
1 1 acceptor
1 2 acceptor
1 4 cation
1 4 donor
1 5 cation
6 11 12 16 17 21 22 rings
6 7 9 13 14 15 18 rings
7 3 4 7 9 10 11 12 rings

>  <PUBCHEM_HEAVY_ATOM_COUNT>  (1) 
23

>  <PUBCHEM_ATOM_DEF_STEREO_COUNT>  (1) 
0

>  <PUBCHEM_ATOM_UDEF_STEREO_COUNT>  (1) 
0

>  <PUBCHEM_BOND_DEF_STEREO_COUNT>  (1) 
0

>  <PUBCHEM_BOND_UDEF_STEREO_COUNT>  (1) 
0

>  <PUBCHEM_ISOTOPIC_ATOM_COUNT>  (1) 
0

>  <PUBCHEM_COMPONENT_COUNT>  (1) 
1

>  <PUBCHEM_CACTVS_TAUTO_COUNT>  (1) 
2

>  <PUBCHEM_CONFORMER_ID>  (1) 
00003C6B00000001

>  <PUBCHEM_MMFF94_ENERGY>  (1) 
114.4285

>  <PUBCHEM_FEATURE_SELFOVERLAP>  (1) 
40.612

>  <PUBCHEM_SHAPE_FINGERPRINT>  (1) 
10411042 1 18122063371095514050
1100329 8 17974281028363043266
11014199 57 17907022034261226779
11045515 52 18195251246028206859
11578080 2 17345461768614847691
116883 192 18266738176324588793
12553582 1 18265608973578119379
12788726 201 18261672696169815002
13140716 1 18410846660246730992
13690498 29 18197528210619912598
138480 1 16537077309249365869
14251757 5 18409724084860983207
14537116 161 17693041519851709847
14790565 3 18052264998802034553
15081414 286 17688873459763612323
15210252 30 17678727062919284677
16087824 20 18410298004651533945
16945 1 18338235938872006672
17357779 13 18192708071121695047
17539 30 18340199786692479591
1813 80 17982195579300189911
18681886 176 17759792646697055906
19591789 44 18338796694213073641
20775438 99 17913169218649984359
21344244 181 17914623761054578511
21524375 3 17827365379975773530
21641784 216 17970363713430731268
22182313 1 18129088086792869752
22620623 9 18341625831714596062
23227448 37 18409453570292808116
23419403 2 17488454355313800624
23557571 272 18341908415177847958
23558518 356 18261390117518598544
23559900 14 18342740664408523352
25147074 1 17967526836445750322
266924 87 18049718813176033365
2748010 2 18268422615438426672
3060560 45 17903637376212955876
352729 6 18123183494582339763
394222 165 17608371237876796025
46194498 28 17329682819396228383
58779409 54 18411699868258206744
58779409 8 18337387150033672765
59025328 239 17268319023830729895
59554788 170 18124035899181801942
6443956 14 17905039605963188791
7164475 11 18410295839449985606
9709674 26 18271531897177891588

>  <PUBCHEM_SHAPE_MULTIPOLES>  (1) 
446.65
8.04
5.14
0.99
4.47
0.51
0.08
0.78
2.93
-8.36
0.86
0
0.42
0.37

>  <PUBCHEM_SHAPE_SELFOVERLAP>  (1) 
958.811

>  <PUBCHEM_SHAPE_VOLUME>  (1) 
246.4

>  <PUBCHEM_COORDINATE_TYPE>  (1) 
2
5
10

$$$$
