15466
     RDKit          3D

 10 10  0  0  0  0  0  0  0  0999 V2000
    2.1467    0.9607   -0.0003 O   0  0  0  0  0  0  0  0  0  0  0  0
    0.7248   -0.8646    0.0001 N   0  0  0  0  0  0  0  0  0  0  0  0
   -1.6443   -0.4828    0.0005 N   0  0  0  0  0  0  0  0  0  0  0  0
   -0.1291    1.3779   -0.0003 N   0  0  0  0  0  0  0  0  0  0  0  0
   -2.4491    1.7198    0.0000 N   0  0  0  0  0  0  0  0  0  0  0  0
   -0.5556   -1.2691    0.0005 C   0  0  0  0  0  0  0  0  0  0  0  0
    0.8613    0.4713   -0.0004 C   0  0  0  0  0  0  0  0  0  0  0  0
   -1.3543    0.8283    0.0001 C   0  0  0  0  0  0  0  0  0  0  0  0
   -0.7928   -2.7409   -0.0006 C   0  0  0  0  0  0  0  0  0  0  0  0
    3.1923   -0.0006    0.0005 C   0  0  0  0  0  0  0  0  0  0  0  0
  1  7  1  0
  1 10  1  0
  2  6  2  0
  2  7  1  0
  3  6  1  0
  3  8  2  0
  4  7  2  0
  4  8  1  0
  5  8  1  0
  6  9  1  0
M  END
>  <PUBCHEM_COMPOUND_CID>  (1) 
15466

>  <PUBCHEM_CONFORMER_RMSD>  (1) 
0.4

>  <PUBCHEM_CONFORMER_DIVERSEORDER>  (1) 
1
2

>  <PUBCHEM_MMFF94_PARTIAL_CHARGES>  (1) 
12
1 -0.36
10 0.28
17 0.4
18 0.4
2 -0.62
3 -0.62
4 -0.62
5 -0.9
6 0.48
7 0.7
8 0.72
9 0.14

>  <PUBCHEM_EFFECTIVE_ROTOR_COUNT>  (1) 
1

>  <PUBCHEM_PHARMACOPHORE_FEATURES>  (1) 
3
1 5 donor
4 3 4 5 8 cation
6 2 3 4 6 7 8 rings

>  <PUBCHEM_HEAVY_ATOM_COUNT>  (1) 
10

>  <PUBCHEM_ATOM_DEF_STEREO_COUNT>  (1) 
0

>  <PUBCHEM_ATOM_UDEF_STEREO_COUNT>  (1) 
0

>  <PUBCHEM_BOND_DEF_STEREO_COUNT>  (1) 
0

>  <PUBCHEM_BOND_UDEF_STEREO_COUNT>  (1) 
0

>  <PUBCHEM_ISOTOPIC_ATOM_COUNT>  (1) 
0

>  <PUBCHEM_COMPONENT_COUNT>  (1) 
1

>  <PUBCHEM_CACTVS_TAUTO_COUNT>  (1) 
4

>  <PUBCHEM_CONFORMER_ID>  (1) 
00003C6A00000001

>  <PUBCHEM_MMFF94_ENERGY>  (1) 
29.1553

>  <PUBCHEM_FEATURE_SELFOVERLAP>  (1) 
15.223

>  <PUBCHEM_SHAPE_FINGERPRINT>  (1) 
12423570 1 12566881288245050873
12716758 59 18413386553439155362
14325111 11 18410293575564292544
16945 1 18338517572261204102
18185500 45 17259064519831459614
193761 8 17978228592933948709
20871998 184 18128542758874090030
21040471 1 18410575067541381408
23235685 24 18339074882907085800
23552423 10 17971753526276945054
241688 4 17906169912200476683
2748010 2 18337961073464861983
528862 383 17972030336539643682

>  <PUBCHEM_SHAPE_MULTIPOLES>  (1) 
180
3.32
2.29
0.57
2.6
1.29
0
-0.99
0
-1.55
0
0.01
0.03
0

>  <PUBCHEM_SHAPE_SELFOVERLAP>  (1) 
365.841

>  <PUBCHEM_SHAPE_VOLUME>  (1) 
102.2

>  <PUBCHEM_COORDINATE_TYPE>  (1) 
2
5
10

$$$$
