15477
     RDKit          3D

  9  9  0  0  0  0  0  0  0  0999 V2000
   -2.1930   -1.0769    0.4314 O   0  0  0  0  0  0  0  0  0  0  0  0
   -1.9970    0.9199   -0.4698 O   0  0  0  0  0  0  0  0  0  0  0  0
    0.8012    0.7563    0.0805 N   0  0  0  0  0  0  0  0  0  0  0  0
    0.5336   -1.4368   -0.1450 N   0  0  0  0  0  0  0  0  0  0  0  0
   -1.4750   -0.1411   -0.0230 N   0  0  0  0  0  0  0  0  0  0  0  0
   -0.0823   -0.2811   -0.0306 C   0  0  0  0  0  0  0  0  0  0  0  0
    2.0607    0.2284    0.0343 C   0  0  0  0  0  0  0  0  0  0  0  0
    0.4821    2.1574    0.2271 C   0  0  0  0  0  0  0  0  0  0  0  0
    1.8698   -1.1262   -0.1047 C   0  0  0  0  0  0  0  0  0  0  0  0
  1  5  1  0
  2  5  2  0
  3  6  1  0
  3  7  1  0
  3  8  1  0
  4  6  2  0
  4  9  1  0
  5  6  1  0
  7  9  2  0
M  CHG  2   1  -1   5   1
M  END
>  <PUBCHEM_COMPOUND_CID>  (1) 
15477

>  <PUBCHEM_CONFORMER_RMSD>  (1) 
0.4

>  <PUBCHEM_CONFORMER_DIVERSEORDER>  (1) 
2
3
1

>  <PUBCHEM_MMFF94_PARTIAL_CHARGES>  (1) 
11
1 -0.52
10 0.15
14 0.15
2 -0.52
3 0.05
4 -0.57
5 0.96
6 0.27
7 -0.3
8 0.26
9 0.08

>  <PUBCHEM_EFFECTIVE_ROTOR_COUNT>  (1) 
1

>  <PUBCHEM_PHARMACOPHORE_FEATURES>  (1) 
4
1 1 acceptor
1 2 acceptor
4 3 4 5 6 cation
5 3 4 6 7 9 rings

>  <PUBCHEM_HEAVY_ATOM_COUNT>  (1) 
9

>  <PUBCHEM_ATOM_DEF_STEREO_COUNT>  (1) 
0

>  <PUBCHEM_ATOM_UDEF_STEREO_COUNT>  (1) 
0

>  <PUBCHEM_BOND_DEF_STEREO_COUNT>  (1) 
0

>  <PUBCHEM_BOND_UDEF_STEREO_COUNT>  (1) 
0

>  <PUBCHEM_ISOTOPIC_ATOM_COUNT>  (1) 
0

>  <PUBCHEM_COMPONENT_COUNT>  (1) 
1

>  <PUBCHEM_CACTVS_TAUTO_COUNT>  (1) 
1

>  <PUBCHEM_CONFORMER_ID>  (1) 
00003C7500000002

>  <PUBCHEM_MMFF94_ENERGY>  (1) 
15.5219

>  <PUBCHEM_FEATURE_SELFOVERLAP>  (1) 
20.377

>  <PUBCHEM_SHAPE_FINGERPRINT>  (1) 
18185500 45 18341612581518720550
21040471 1 18195525024502202504
23552423 10 18116160978192777382
2748010 2 18411980247849497478
29004967 10 18412546496311545290
5084963 1 18058168516921775259

>  <PUBCHEM_SHAPE_MULTIPOLES>  (1) 
158.53
2.7
1.79
0.61
0.77
0.77
0
-0.57
0.02
-0.19
-0.1
0.03
0.02
0.24

>  <PUBCHEM_SHAPE_SELFOVERLAP>  (1) 
327.134

>  <PUBCHEM_SHAPE_VOLUME>  (1) 
92.6

>  <PUBCHEM_COORDINATE_TYPE>  (1) 
2
5
10

$$$$
