15478
     RDKit          3D

 28 32  0  0  1  0  0  0  0  0999 V2000
   -1.5563    1.5115    0.5643 O   0  0  0  0  0  0  0  0  0  0  0  0
   -0.7737   -3.2526   -0.0322 O   0  0  0  0  0  0  0  0  0  0  0  0
    6.3507    0.4417   -0.6922 O   0  0  0  0  0  0  0  0  0  0  0  0
   -5.8841   -0.2747    0.4367 O   0  0  0  0  0  0  0  0  0  0  0  0
   -6.1841    1.9996    0.2527 O   0  0  0  0  0  0  0  0  0  0  0  0
   -0.6778    0.5549   -0.0489 C   0  0  0  0  0  0  0  0  0  0  0  0
    0.7265    0.7088    0.6032 C   0  0  0  0  0  0  0  0  0  0  0  0
   -1.2917   -0.8654    0.1197 C   0  0  0  0  0  0  0  0  0  0  0  0
    1.7229   -0.4174    0.1992 C   0  0  0  0  0  0  0  0  0  0  0  0
    3.1393   -0.2480    0.8755 C   0  0  0  0  0  0  0  0  0  0  0  0
   -0.2497   -1.9493   -0.2912 C   0  0  0  0  0  0  0  0  0  0  0  0
    3.6976    1.1804    0.5732 C   0  0  0  0  0  0  0  0  0  0  0  0
    1.0872   -1.7991    0.4369 C   0  0  0  0  0  0  0  0  0  0  0  0
   -2.4594   -0.8615   -0.9231 C   0  0  0  0  0  0  0  0  0  0  0  0
   -0.7241    0.7866   -1.5710 C   0  0  0  0  0  0  0  0  0  0  0  0
    1.3274    2.1053    0.3461 C   0  0  0  0  0  0  0  0  0  0  0  0
    2.7055    2.2810    0.9752 C   0  0  0  0  0  0  0  0  0  0  0  0
   -1.9216   -0.0186   -2.0957 C   0  0  0  0  0  0  0  0  0  0  0  0
    4.1737   -1.2941    0.3633 C   0  0  0  0  0  0  0  0  0  0  0  0
   -1.7980   -1.1336    1.5560 C   0  0  0  0  0  0  0  0  0  0  0  0
    4.1238    1.3569   -0.9039 C   0  0  0  0  0  0  0  0  0  0  0  0
    3.0528   -0.4513    2.4114 C   0  0  0  0  0  0  0  0  0  0  0  0
    4.5708   -1.1163   -1.1012 C   0  0  0  0  0  0  0  0  0  0  0  0
    5.1059    0.2851   -1.3703 C   0  0  0  0  0  0  0  0  0  0  0  0
   -3.7721   -0.3085   -0.4462 C   0  0  0  0  0  0  0  0  0  0  0  0
   -4.8240   -1.1810    0.1143 C   0  0  0  0  0  0  0  0  0  0  0  0
   -4.1584    0.9644   -0.4572 C   0  0  0  0  0  0  0  0  0  0  0  0
   -5.5092    0.9952    0.1057 C   0  0  0  0  0  0  0  0  0  0  0  0
  1  6  1  0
  2 11  1  0
  3 24  1  0
  4 26  1  0
  4 28  1  0
  5 28  2  0
  6  7  1  0
  6  8  1  0
  6 15  1  0
  7  9  1  0
  7 16  1  0
  8 11  1  0
  8 14  1  0
  8 20  1  0
  9 10  1  0
  9 13  1  0
 10 12  1  0
 10 19  1  0
 10 22  1  0
 11 13  1  0
 12 17  1  0
 12 21  1  0
 14 18  1  0
 14 25  1  0
 15 18  1  0
 16 17  1  0
 19 23  1  0
 21 24  1  0
 23 24  1  0
 25 26  1  0
 25 27  2  0
 27 28  1  0
M  END
>  <PUBCHEM_COMPOUND_CID>  (1) 
15478

>  <PUBCHEM_CONFORMER_RMSD>  (1) 
0.8

>  <PUBCHEM_CONFORMER_DIVERSEORDER>  (1) 
1
2

>  <PUBCHEM_MMFF94_PARTIAL_CHARGES>  (1) 
17
1 -0.68
11 0.28
14 0.14
2 -0.68
24 0.28
25 -0.28
26 0.42
27 -0.14
28 0.71
3 -0.68
4 -0.43
5 -0.57
57 0.4
58 0.4
6 0.28
61 0.15
62 0.4

>  <PUBCHEM_EFFECTIVE_ROTOR_COUNT>  (1) 
3.6

>  <PUBCHEM_PHARMACOPHORE_FEATURES>  (1) 
12
1 1 acceptor
1 1 donor
1 2 acceptor
1 2 donor
1 3 acceptor
1 3 donor
1 5 acceptor
5 4 25 26 27 28 rings
5 6 8 14 15 18 rings
6 10 12 19 21 23 24 rings
6 6 7 8 9 11 13 rings
6 7 9 10 12 16 17 rings

>  <PUBCHEM_HEAVY_ATOM_COUNT>  (1) 
28

>  <PUBCHEM_ATOM_DEF_STEREO_COUNT>  (1) 
9

>  <PUBCHEM_ATOM_UDEF_STEREO_COUNT>  (1) 
0

>  <PUBCHEM_BOND_DEF_STEREO_COUNT>  (1) 
0

>  <PUBCHEM_BOND_UDEF_STEREO_COUNT>  (1) 
0

>  <PUBCHEM_ISOTOPIC_ATOM_COUNT>  (1) 
0

>  <PUBCHEM_COMPONENT_COUNT>  (1) 
1

>  <PUBCHEM_CACTVS_TAUTO_COUNT>  (1) 
1

>  <PUBCHEM_CONFORMER_ID>  (1) 
00003C7600000001

>  <PUBCHEM_MMFF94_ENERGY>  (1) 
97.6566

>  <PUBCHEM_FEATURE_SELFOVERLAP>  (1) 
61.131

>  <PUBCHEM_SHAPE_FINGERPRINT>  (1) 
10165383 225 18259707796161183374
10674148 151 18343026563022174852
11578080 2 16270503365153447386
11796584 16 15051732010248065708
12011746 2 18411987952994472110
12166972 35 16343415198490946089
12236239 1 18113618980286555182
12403259 415 18334004004268415189
12553582 1 18340753914857122612
12596602 18 13984661438774513573
12788726 201 18202006482202470648
128620 24 14779541283825899700
13140716 1 18264754635889426482
13224815 77 17895184537177529966
13583140 156 16629103580525416363
14251758 9 17418372480681382677
14787075 74 14345800465323705733
14790565 3 18409453583014302757
14840074 17 17749113296419925839
15099037 51 18413671322318269310
15183329 4 16343987983534281557
15238133 3 18334848399260039120
15475509 8 17987817206248708308
15788980 27 13902190400353687151
1601671 61 18409165489397543149
16752209 62 18342453708230682040
16945 1 18265307608454327670
17349148 13 11743845788978634050
1813 80 16515398586635489885
18186145 218 18339908402941432332
18608769 82 18263649635082501290
192875 21 12319459917597870850
19319366 153 17603579730039550314
20691752 17 17314491816068895834
20739085 24 18261111850834972333
20832881 197 18201438047707271464
21033648 29 18340483464918926129
21279426 13 18342461396127202805
21285901 2 17988092075966514956
22149856 69 11098137692107351765
23522609 53 17969523553076426925
23559900 14 17988639744268008520
3004659 81 18335143051776922094
3009799 131 9871474180113189803
335352 9 18413386523279653286
350125 39 18409729530315225916
404807 14 14255776666319410844
4058900 60 18188779323339966075
4325135 7 13406793349967760132
495365 180 17203038690675214474
5104073 3 18335412496054014425
542803 24 18113336409834682237
58260988 393 14923941211132843725
59755656 215 17631738166570084885
633830 44 18272357711413414693
6913067 236 9727633877864117763

>  <PUBCHEM_SHAPE_MULTIPOLES>  (1) 
546.88
12.33
2.23
1.5
5.18
0.35
0.03
-3.06
-1.28
0.08
0.29
-0.95
0.04
0

>  <PUBCHEM_SHAPE_SELFOVERLAP>  (1) 
1185.665

>  <PUBCHEM_SHAPE_VOLUME>  (1) 
297.9

>  <PUBCHEM_COORDINATE_TYPE>  (1) 
2
5
10

$$$$
