15471
     RDKit          3D

 23 25  0  0  0  0  0  0  0  0999 V2000
   -0.2008    5.2278    0.8067 Cl  0  0  0  0  0  0  0  0  0  0  0  0
    0.1708   -2.7127   -1.0689 O   0  0  0  0  0  0  0  0  0  0  0  0
    0.7559   -0.5316   -0.5183 N   0  0  0  0  0  0  0  0  0  0  0  0
   -1.9177    0.6753   -0.8576 N   0  0  0  0  0  0  0  0  0  0  0  0
    4.3146   -1.4851   -0.0001 N   0  0  0  0  0  0  0  0  0  0  0  0
    2.1538   -0.8145   -0.8733 C   0  0  0  0  0  0  0  0  0  0  0  0
    0.4440    0.8227   -0.1387 C   0  0  0  0  0  0  0  0  0  0  0  0
   -0.8197    1.4127   -0.3654 C   0  0  0  0  0  0  0  0  0  0  0  0
    2.9475   -1.2032    0.3673 C   0  0  0  0  0  0  0  0  0  0  0  0
   -2.3553   -0.4945   -0.2154 C   0  0  0  0  0  0  0  0  0  0  0  0
   -1.4767   -1.5544    0.0225 C   0  0  0  0  0  0  0  0  0  0  0  0
   -0.1314   -1.6179   -0.5832 C   0  0  0  0  0  0  0  0  0  0  0  0
    1.4792    1.6361    0.3813 C   0  0  0  0  0  0  0  0  0  0  0  0
   -0.9814    2.7891   -0.0651 C   0  0  0  0  0  0  0  0  0  0  0  0
   -2.8853    1.3710   -1.7102 C   0  0  0  0  0  0  0  0  0  0  0  0
   -3.6769   -0.6207    0.2628 C   0  0  0  0  0  0  0  0  0  0  0  0
   -1.9036   -2.6949    0.7279 C   0  0  0  0  0  0  0  0  0  0  0  0
    1.2878    2.9850    0.6770 C   0  0  0  0  0  0  0  0  0  0  0  0
    0.0546    3.5651    0.4489 C   0  0  0  0  0  0  0  0  0  0  0  0
   -4.0986   -1.7514    0.9654 C   0  0  0  0  0  0  0  0  0  0  0  0
   -3.2078   -2.7876    1.2046 C   0  0  0  0  0  0  0  0  0  0  0  0
    5.1036   -1.8963    1.1690 C   0  0  0  0  0  0  0  0  0  0  0  0
    4.9434   -0.3200   -0.6372 C   0  0  0  0  0  0  0  0  0  0  0  0
  1 19  1  0
  2 12  2  0
  3  6  1  0
  3  7  1  0
  3 12  1  0
  4  8  1  0
  4 10  1  0
  4 15  1  0
  5  9  1  0
  5 22  1  0
  5 23  1  0
  6  9  1  0
  7  8  2  0
  7 13  1  0
  8 14  1  0
 10 11  2  0
 10 16  1  0
 11 12  1  0
 11 17  1  0
 13 18  2  0
 14 19  2  0
 16 20  2  0
 17 21  2  0
 18 19  1  0
 20 21  1  0
M  END
>  <PUBCHEM_COMPOUND_CID>  (1) 
15471

>  <PUBCHEM_CONFORMER_RMSD>  (1) 
0.6

>  <PUBCHEM_CONFORMER_DIVERSEORDER>  (1) 
5
7
1
4
3
8
9
2
6

>  <PUBCHEM_MMFF94_PARTIAL_CHARGES>  (1) 
30
1 -0.18
10 0.1
11 0.09
12 0.54
13 -0.15
14 -0.15
15 0.37
16 -0.15
17 -0.15
18 -0.15
19 0.18
2 -0.57
20 -0.15
21 -0.15
22 0.27
23 0.27
28 0.15
29 0.15
3 -0.48
33 0.15
34 0.15
35 0.15
36 0.15
37 0.15
4 -0.57
5 -0.81
6 0.3
7 0.12
8 0.1
9 0.27

>  <PUBCHEM_EFFECTIVE_ROTOR_COUNT>  (1) 
3.4

>  <PUBCHEM_PHARMACOPHORE_FEATURES>  (1) 
6
1 2 acceptor
1 4 cation
1 5 cation
6 10 11 16 17 20 21 rings
6 7 8 13 14 18 19 rings
7 3 4 7 8 10 11 12 rings

>  <PUBCHEM_HEAVY_ATOM_COUNT>  (1) 
23

>  <PUBCHEM_ATOM_DEF_STEREO_COUNT>  (1) 
0

>  <PUBCHEM_ATOM_UDEF_STEREO_COUNT>  (1) 
0

>  <PUBCHEM_BOND_DEF_STEREO_COUNT>  (1) 
0

>  <PUBCHEM_BOND_UDEF_STEREO_COUNT>  (1) 
0

>  <PUBCHEM_ISOTOPIC_ATOM_COUNT>  (1) 
0

>  <PUBCHEM_COMPONENT_COUNT>  (1) 
1

>  <PUBCHEM_CACTVS_TAUTO_COUNT>  (1) 
1

>  <PUBCHEM_CONFORMER_ID>  (1) 
00003C6F00000005

>  <PUBCHEM_MMFF94_ENERGY>  (1) 
112.19

>  <PUBCHEM_FEATURE_SELFOVERLAP>  (1) 
30.465

>  <PUBCHEM_SHAPE_FINGERPRINT>  (1) 
10411042 1 18411982481074729455
10906281 52 18199192789055360373
1100329 8 18338805502964833129
11036077 51 17760644772371609074
11578080 2 17460009967801273029
11680986 33 18266447875095392741
12035758 1 18409735024110745273
12293681 160 17834085599477566093
12403259 226 18262796397385782591
12553582 1 18341328985403659606
12633257 1 18340226145181361291
12788726 201 18051397488200413009
13027679 85 18411135831525364757
13140716 1 18411421691494970489
138480 1 15167705863910079320
14142880 1 18058738979242489627
14223421 5 17904199583342906067
14363568 33 18050298255982939952
14787075 74 18042131019477460666
14790565 3 17978797800465563337
15042514 8 18265618688967508034
15420108 30 17628083613226099182
17780758 139 17971167272306561618
17804303 29 18335145327397516815
19591789 44 17401770117195541156
20510252 161 18266180534892956918
20600515 1 18262534606159443175
21041028 32 18412552028145130345
21339142 51 18335978683985599271
22182313 1 18265597948196240077
2297311 6 18340503187926090654
23366157 5 17830174958354374846
23419403 2 18189600813018130751
23557571 272 18198354974506924678
23558518 356 17691684489656692974
23559900 14 18041274486417083143
23845131 108 17184483014391050801
2748010 2 18339631343407490333
283562 15 18051681149368503917
3091708 16 8920196544855757320
352729 6 18266460910605804134
43471831 8 17258220099344072391
4409770 3 18188484662655563455
458136 41 17617389814711146649
58807428 26 17040348022215062178
69474 34 18411428336294693707
7097593 13 17979916330329046426
7226269 152 18265042536189569166
79837 15 17763183540725883128
81228 2 17984149149406250572
9981440 41 17767103333827964258

>  <PUBCHEM_SHAPE_MULTIPOLES>  (1) 
454.39
7.27
5.28
1.16
6.47
7.26
-0.11
-7.6
1.34
-0.16
1.9
-0.32
-0.11
1.05

>  <PUBCHEM_SHAPE_SELFOVERLAP>  (1) 
968.095

>  <PUBCHEM_SHAPE_VOLUME>  (1) 
254.7

>  <PUBCHEM_COORDINATE_TYPE>  (1) 
2
5
10

$$$$
