15473
     RDKit          3D

 24 26  0  0  0  0  0  0  0  0999 V2000
    0.2280   -2.5111    0.5390 O   0  0  0  0  0  0  0  0  0  0  0  0
    4.9069   -1.6836   -0.8414 O   0  0  0  0  0  0  0  0  0  0  0  0
   -0.9821   -0.6713   -0.2047 N   0  0  0  0  0  0  0  0  0  0  0  0
    0.6673    1.4130    1.0812 N   0  0  0  0  0  0  0  0  0  0  0  0
   -4.4545   -1.9605    0.3633 N   0  0  0  0  0  0  0  0  0  0  0  0
   -2.1679   -1.5208   -0.3841 C   0  0  0  0  0  0  0  0  0  0  0  0
   -1.1494    0.7377   -0.4546 C   0  0  0  0  0  0  0  0  0  0  0  0
   -0.4002    1.7311    0.2147 C   0  0  0  0  0  0  0  0  0  0  0  0
    1.7370    0.6098    0.6537 C   0  0  0  0  0  0  0  0  0  0  0  0
    1.5115   -0.6609    0.1187 C   0  0  0  0  0  0  0  0  0  0  0  0
   -3.2794   -1.1256    0.5771 C   0  0  0  0  0  0  0  0  0  0  0  0
    0.1953   -1.3268    0.1895 C   0  0  0  0  0  0  0  0  0  0  0  0
   -2.1858    1.1531   -1.3248 C   0  0  0  0  0  0  0  0  0  0  0  0
   -0.7301    3.0906   -0.0169 C   0  0  0  0  0  0  0  0  0  0  0  0
    2.5815   -1.4323   -0.3721 C   0  0  0  0  0  0  0  0  0  0  0  0
    3.0686    1.0754    0.6943 C   0  0  0  0  0  0  0  0  0  0  0  0
    0.9114    2.2978    2.2235 C   0  0  0  0  0  0  0  0  0  0  0  0
   -2.4809    2.4984   -1.5409 C   0  0  0  0  0  0  0  0  0  0  0  0
    3.8839   -0.9433   -0.3366 C   0  0  0  0  0  0  0  0  0  0  0  0
   -1.7535    3.4708   -0.8815 C   0  0  0  0  0  0  0  0  0  0  0  0
    4.1292    0.3105    0.2043 C   0  0  0  0  0  0  0  0  0  0  0  0
   -4.9291   -1.8403   -1.0167 C   0  0  0  0  0  0  0  0  0  0  0  0
   -5.5212   -1.6000    1.2994 C   0  0  0  0  0  0  0  0  0  0  0  0
    6.2135   -1.1120   -0.7844 C   0  0  0  0  0  0  0  0  0  0  0  0
  1 12  2  0
  2 19  1  0
  2 24  1  0
  3  6  1  0
  3  7  1  0
  3 12  1  0
  4  8  1  0
  4  9  1  0
  4 17  1  0
  5 11  1  0
  5 22  1  0
  5 23  1  0
  6 11  1  0
  7  8  2  0
  7 13  1  0
  8 14  1  0
  9 10  2  0
  9 16  1  0
 10 12  1  0
 10 15  1  0
 13 18  2  0
 14 20  2  0
 15 19  2  0
 16 21  2  0
 18 20  1  0
 19 21  1  0
M  END
>  <PUBCHEM_COMPOUND_CID>  (1) 
15473

>  <PUBCHEM_CONFORMER_RMSD>  (1) 
0.8

>  <PUBCHEM_CONFORMER_DIVERSEORDER>  (1) 
1
7
6
4
3
2
5
8

>  <PUBCHEM_MMFF94_PARTIAL_CHARGES>  (1) 
31
1 -0.57
10 0.09
11 0.27
12 0.54
13 -0.15
14 -0.15
15 -0.15
16 -0.15
17 0.37
18 -0.15
19 0.08
2 -0.36
20 -0.15
21 -0.15
22 0.27
23 0.27
24 0.28
29 0.15
3 -0.48
30 0.15
31 0.15
32 0.15
36 0.15
37 0.15
38 0.15
4 -0.57
5 -0.81
6 0.3
7 0.12
8 0.1
9 0.1

>  <PUBCHEM_EFFECTIVE_ROTOR_COUNT>  (1) 
4.4

>  <PUBCHEM_PHARMACOPHORE_FEATURES>  (1) 
7
1 1 acceptor
1 2 acceptor
1 4 cation
1 5 cation
6 7 8 13 14 18 20 rings
6 9 10 15 16 19 21 rings
7 3 4 7 8 9 10 12 rings

>  <PUBCHEM_HEAVY_ATOM_COUNT>  (1) 
24

>  <PUBCHEM_ATOM_DEF_STEREO_COUNT>  (1) 
0

>  <PUBCHEM_ATOM_UDEF_STEREO_COUNT>  (1) 
0

>  <PUBCHEM_BOND_DEF_STEREO_COUNT>  (1) 
0

>  <PUBCHEM_BOND_UDEF_STEREO_COUNT>  (1) 
0

>  <PUBCHEM_ISOTOPIC_ATOM_COUNT>  (1) 
0

>  <PUBCHEM_COMPONENT_COUNT>  (1) 
1

>  <PUBCHEM_CACTVS_TAUTO_COUNT>  (1) 
1

>  <PUBCHEM_CONFORMER_ID>  (1) 
00003C7100000001

>  <PUBCHEM_MMFF94_ENERGY>  (1) 
124.6274

>  <PUBCHEM_FEATURE_SELFOVERLAP>  (1) 
35.539

>  <PUBCHEM_SHAPE_FINGERPRINT>  (1) 
10165383 225 18046628893259733444
10688039 33 18261114092854892789
10764073 3 14829985614809514447
12293681 160 17338417996591328224
12553582 1 18335409210346640091
12714826 92 18410289190201989490
12788726 201 18113334193632012835
13140716 1 18268699520453675688
13540713 4 18270944787870465056
14022347 108 17968927733811382345
14251764 30 18187938329904711115
14347332 77 18337953385938197478
14713325 29 18263932033476907532
14790565 3 17254558721619541173
14955137 171 18117572927543789027
15081414 286 18193277618524820945
15848702 151 17917152792333077783
16945 1 18121488055989049000
17357779 13 18336811087834922461
17980427 26 16412366791796413537
1813 80 18188772876472787157
19591789 44 18411415128979990931
20510252 161 18410008832138308968
20739085 24 18118128193758500169
21285901 2 18341902908586948822
21641784 216 18042141932535595620
221357 26 18413384332814807262
221490 88 18342734092676108740
22182313 1 18268124587325532064
23352939 185 18267881629768512776
23419403 2 17917131884089357409
23557571 272 18409173181794961414
23559900 14 18056471756929465082
23845131 108 17689724056747326705
2748010 2 18194935613150171765
283562 15 18334018254706133219
2871803 45 18335131012034038379
350125 39 18410018719300840748
3737641 26 18337399244772841723
394222 165 17105375368658804736
469060 322 18115606871223461145
5104073 3 18271518694569775954
57262259 84 18411424977155455892
59554788 170 18411136978175890854
7237137 82 18337682931862684932

>  <PUBCHEM_SHAPE_MULTIPOLES>  (1) 
467.23
9.96
3.54
1.34
3.63
2.4
0.31
-8.75
-1.41
-2.75
-0.28
-0.52
0.67
2.04

>  <PUBCHEM_SHAPE_SELFOVERLAP>  (1) 
1001.531

>  <PUBCHEM_SHAPE_VOLUME>  (1) 
258.5

>  <PUBCHEM_COORDINATE_TYPE>  (1) 
2
5
10

$$$$
