15475
     RDKit          3D

  9  8  0  0  0  0  0  0  0  0999 V2000
   -2.8938    1.2848   -0.0202 O   0  0  0  0  0  0  0  0  0  0  0  0
    2.0812    0.2594    0.0995 C   0  0  0  0  0  0  0  0  0  0  0  0
    3.4647   -0.3410   -0.1519 C   0  0  0  0  0  0  0  0  0  0  0  0
    1.0285   -0.3702   -0.8149 C   0  0  0  0  0  0  0  0  0  0  0  0
    4.5086    0.2556    0.7790 C   0  0  0  0  0  0  0  0  0  0  0  0
   -0.3361    0.1969   -0.5456 C   0  0  0  0  0  0  0  0  0  0  0  0
   -1.3665   -0.5410   -0.1118 C   0  0  0  0  0  0  0  0  0  0  0  0
   -2.6943    0.0829    0.1409 C   0  0  0  0  0  0  0  0  0  0  0  0
   -3.7923   -0.8275    0.6249 C   0  0  0  0  0  0  0  0  0  0  0  0
  1  8  2  0
  2  3  1  0
  2  4  1  0
  3  5  1  0
  4  6  1  0
  6  7  2  0
  7  8  1  0
  8  9  1  0
M  END
>  <PUBCHEM_COMPOUND_CID>  (1) 
15475

>  <PUBCHEM_CONFORMER_RMSD>  (1) 
0.6

>  <PUBCHEM_CONFORMER_DIVERSEORDER>  (1) 
2
31
19
14
15
18
9
11
29
17
32
16
10
12
27
24
20
5
25
1
21
30
28
6
3
23
7
4
26
8
13
22

>  <PUBCHEM_MMFF94_PARTIAL_CHARGES>  (1) 
8
1 -0.57
19 0.15
20 0.15
4 0.14
6 -0.29
7 -0.14
8 0.49
9 0.06

>  <PUBCHEM_EFFECTIVE_ROTOR_COUNT>  (1) 
4

>  <PUBCHEM_PHARMACOPHORE_FEATURES>  (1) 
3
1 1 acceptor
1 5 hydrophobe
4 2 3 4 6 hydrophobe

>  <PUBCHEM_HEAVY_ATOM_COUNT>  (1) 
9

>  <PUBCHEM_ATOM_DEF_STEREO_COUNT>  (1) 
0

>  <PUBCHEM_ATOM_UDEF_STEREO_COUNT>  (1) 
0

>  <PUBCHEM_BOND_DEF_STEREO_COUNT>  (1) 
0

>  <PUBCHEM_BOND_UDEF_STEREO_COUNT>  (1) 
1

>  <PUBCHEM_ISOTOPIC_ATOM_COUNT>  (1) 
0

>  <PUBCHEM_COMPONENT_COUNT>  (1) 
1

>  <PUBCHEM_CACTVS_TAUTO_COUNT>  (1) 
5

>  <PUBCHEM_CONFORMER_ID>  (1) 
00003C7300000002

>  <PUBCHEM_MMFF94_ENERGY>  (1) 
3.0835

>  <PUBCHEM_FEATURE_SELFOVERLAP>  (1) 
15.223

>  <PUBCHEM_SHAPE_FINGERPRINT>  (1) 
11062470 55 13398632753418280610
12932764 1 17775280556089741022
14325111 11 18413109437580092966
177051 138 17821451274201751138
18342897 14 17203614791201181408
190213 19 18040434386719406574
20211469 26 17676204701867562519
20645464 45 18130793351933619439
20645477 70 13118269378737047664
20711985 327 16660369181524648430
20828058 21 18410299111966814102
20828058 44 18040714770895840970
21119208 17 9583523118078937634
21293036 1 10807931574605163774
22485316 2 15502371249007069962
23402539 116 18410284831559329095
449060 50 17989205975665932652
528716 315 10447925083576438725

>  <PUBCHEM_SHAPE_MULTIPOLES>  (1) 
179.35
8.33
0.9
0.84
3.55
0.11
0
-0.07
2.67
-0.6
0.02
0.21
-0.05
0.36

>  <PUBCHEM_SHAPE_SELFOVERLAP>  (1) 
324.981

>  <PUBCHEM_SHAPE_VOLUME>  (1) 
115.2

>  <PUBCHEM_COORDINATE_TYPE>  (1) 
2
5
10

$$$$
