15486
     RDKit          3D

  8  7  0  0  0  0  0  0  0  0999 V2000
   -0.5134   -0.4534   -0.6989 N   0  0  0  0  0  0  0  0  0  0  0  0
    1.4382    0.6512   -0.5016 N   0  0  0  0  0  0  0  0  0  0  0  0
   -2.7773    0.0637   -0.4838 N   0  0  0  0  0  0  0  0  0  0  0  0
   -1.3902    0.7239    1.2060 N   0  0  0  0  0  0  0  0  0  0  0  0
    1.1780   -1.4414    0.6330 N   0  0  0  0  0  0  0  0  0  0  0  0
    0.7583   -0.3982   -0.1639 C   0  0  0  0  0  0  0  0  0  0  0  0
   -1.4869    0.0869   -0.0114 C   0  0  0  0  0  0  0  0  0  0  0  0
    2.7933    0.7672    0.0205 C   0  0  0  0  0  0  0  0  0  0  0  0
  1  6  1  0
  1  7  2  0
  2  6  2  0
  2  8  1  0
  3  7  1  0
  4  7  1  0
  5  6  1  0
M  END
>  <PUBCHEM_COMPOUND_CID>  (1) 
15486

>  <PUBCHEM_CONFORMER_RMSD>  (1) 
0.4

>  <PUBCHEM_CONFORMER_DIVERSEORDER>  (1) 
1
6
3
5
2
4

>  <PUBCHEM_MMFF94_PARTIAL_CHARGES>  (1) 
14
1 -0.66
12 0.4
13 0.4
14 0.4
15 0.4
16 0.4
17 0.4
2 -0.7
3 -0.85
4 -0.85
5 -0.85
6 0.71
7 0.55
8 0.25

>  <PUBCHEM_EFFECTIVE_ROTOR_COUNT>  (1) 
1

>  <PUBCHEM_PHARMACOPHORE_FEATURES>  (1) 
5
1 3 donor
1 4 donor
1 5 donor
4 1 2 5 6 cation
4 1 3 4 7 cation

>  <PUBCHEM_HEAVY_ATOM_COUNT>  (1) 
8

>  <PUBCHEM_ATOM_DEF_STEREO_COUNT>  (1) 
0

>  <PUBCHEM_ATOM_UDEF_STEREO_COUNT>  (1) 
0

>  <PUBCHEM_BOND_DEF_STEREO_COUNT>  (1) 
0

>  <PUBCHEM_BOND_UDEF_STEREO_COUNT>  (1) 
0

>  <PUBCHEM_ISOTOPIC_ATOM_COUNT>  (1) 
0

>  <PUBCHEM_COMPONENT_COUNT>  (1) 
1

>  <PUBCHEM_CACTVS_TAUTO_COUNT>  (1) 
5

>  <PUBCHEM_CONFORMER_ID>  (1) 
00003C7E00000001

>  <PUBCHEM_MMFF94_ENERGY>  (1) 
27.1072

>  <PUBCHEM_FEATURE_SELFOVERLAP>  (1) 
25.473

>  <PUBCHEM_SHAPE_FINGERPRINT>  (1) 
12897270 3 16773800324189443908
14390081 3 18272087210009761577
16714656 1 16702023110101307837
20096714 4 18343309175358052028
20653085 51 17344939444973661520
21040471 1 18187932845236118350
23552423 10 17559405651638662263
23552449 11 17678161720526725714
24536 1 17631170779878263423
29004967 10 17530971258610061812
5084963 1 18410859905641047772
5460574 1 12540689331869880276

>  <PUBCHEM_SHAPE_MULTIPOLES>  (1) 
139.73
3.61
1.03
0.88
0.08
0.24
-0.15
-0.97
0.21
0.43
-0.2
-0.21
-0.05
-0.31

>  <PUBCHEM_SHAPE_SELFOVERLAP>  (1) 
262.292

>  <PUBCHEM_SHAPE_VOLUME>  (1) 
84.3

>  <PUBCHEM_COORDINATE_TYPE>  (1) 
2
5
10

$$$$
