15488
     RDKit          3D

 24 25  0  0  0  0  0  0  0  0999 V2000
    0.5282   -0.9106   -1.2464 O   0  0  0  0  0  0  0  0  0  0  0  0
   -1.8741   -1.5016   -0.0532 N   0  0  0  0  0  0  0  0  0  0  0  0
    1.5426   -0.2403    0.7644 N   0  0  0  0  0  0  0  0  0  0  0  0
   -2.2262   -0.4727   -1.1180 C   0  0  0  0  0  0  0  0  0  0  0  0
   -1.4570   -2.8027   -0.7234 C   0  0  0  0  0  0  0  0  0  0  0  0
   -3.0872   -1.7523    0.8310 C   0  0  0  0  0  0  0  0  0  0  0  0
   -0.7259   -0.9785    0.7978 C   0  0  0  0  0  0  0  0  0  0  0  0
   -2.6506    0.8465   -0.5432 C   0  0  0  0  0  0  0  0  0  0  0  0
   -2.6022   -3.3177   -1.5677 C   0  0  0  0  0  0  0  0  0  0  0  0
   -2.7311   -2.7756    1.8871 C   0  0  0  0  0  0  0  0  0  0  0  0
    0.5070   -0.7128   -0.0361 C   0  0  0  0  0  0  0  0  0  0  0  0
   -1.6976    1.8284   -0.2952 C   0  0  0  0  0  0  0  0  0  0  0  0
   -3.9931    1.0755   -0.2627 C   0  0  0  0  0  0  0  0  0  0  0  0
    2.8495    0.1210    0.3595 C   0  0  0  0  0  0  0  0  0  0  0  0
   -2.0924    3.0547    0.2396 C   0  0  0  0  0  0  0  0  0  0  0  0
   -4.3879    2.3019    0.2719 C   0  0  0  0  0  0  0  0  0  0  0  0
   -3.4376    3.2914    0.5231 C   0  0  0  0  0  0  0  0  0  0  0  0
    3.8506   -0.8390    0.3522 C   0  0  0  0  0  0  0  0  0  0  0  0
    3.1075    1.4292   -0.0225 C   0  0  0  0  0  0  0  0  0  0  0  0
    5.1391   -0.4827   -0.0459 C   0  0  0  0  0  0  0  0  0  0  0  0
    4.3961    1.7855   -0.4206 C   0  0  0  0  0  0  0  0  0  0  0  0
    3.5899   -2.2526    0.7612 C   0  0  0  0  0  0  0  0  0  0  0  0
    2.0406    2.4758   -0.0205 C   0  0  0  0  0  0  0  0  0  0  0  0
    5.4118    0.8294   -0.4324 C   0  0  0  0  0  0  0  0  0  0  0  0
  1 11  2  0
  2  4  1  0
  2  5  1  0
  2  6  1  0
  2  7  1  0
  3 11  1  0
  3 14  1  0
  4  8  1  0
  5  9  1  0
  6 10  1  0
  7 11  1  0
  8 12  2  0
  8 13  1  0
 12 15  1  0
 13 16  2  0
 14 18  2  0
 14 19  1  0
 15 17  2  0
 16 17  1  0
 18 20  1  0
 18 22  1  0
 19 21  2  0
 19 23  1  0
 20 24  2  0
 21 24  1  0
M  CHG  1   2   1
M  END
>  <PUBCHEM_COMPOUND_CID>  (1) 
15488

>  <PUBCHEM_CONFORMER_RMSD>  (1) 
0.8

>  <PUBCHEM_CONFORMER_DIVERSEORDER>  (1) 
1
5
10
9
6
12
3
11
4
8
7
2

>  <PUBCHEM_MMFF94_PARTIAL_CHARGES>  (1) 
31
1 -0.57
11 0.57
12 -0.15
13 -0.15
14 0.12
15 -0.15
16 -0.15
17 -0.15
18 -0.14
19 -0.14
2 -1.01
20 -0.15
21 -0.15
22 0.14
23 0.14
24 -0.15
3 -0.55
39 0.15
4 0.65
40 0.15
41 0.37
42 0.15
43 0.15
44 0.15
45 0.15
46 0.15
5 0.5
53 0.15
6 0.5
7 0.56
8 -0.14

>  <PUBCHEM_EFFECTIVE_ROTOR_COUNT>  (1) 
8

>  <PUBCHEM_PHARMACOPHORE_FEATURES>  (1) 
5
1 1 acceptor
1 2 cation
1 3 donor
6 14 18 19 20 21 24 rings
6 8 12 13 15 16 17 rings

>  <PUBCHEM_HEAVY_ATOM_COUNT>  (1) 
24

>  <PUBCHEM_ATOM_DEF_STEREO_COUNT>  (1) 
0

>  <PUBCHEM_ATOM_UDEF_STEREO_COUNT>  (1) 
0

>  <PUBCHEM_BOND_DEF_STEREO_COUNT>  (1) 
0

>  <PUBCHEM_BOND_UDEF_STEREO_COUNT>  (1) 
0

>  <PUBCHEM_ISOTOPIC_ATOM_COUNT>  (1) 
0

>  <PUBCHEM_COMPONENT_COUNT>  (1) 
1

>  <PUBCHEM_CACTVS_TAUTO_COUNT>  (1) 
2

>  <PUBCHEM_CONFORMER_ID>  (1) 
00003C8000000001

>  <PUBCHEM_MMFF94_ENERGY>  (1) 
113.198

>  <PUBCHEM_FEATURE_SELFOVERLAP>  (1) 
25.371

>  <PUBCHEM_SHAPE_FINGERPRINT>  (1) 
10616163 171 18410856585741967852
11405975 8 18334290942812609746
11552529 35 18337383958699015518
11763715 3 17905898319912158415
12107183 9 18048871906092232746
12553582 1 18049998093260866930
12633257 1 18115014191959999930
12788726 201 18264474243382020571
13140716 1 18335413535615434624
138480 1 16972240964834117573
14251757 5 18340771446882398776
14341114 176 18261119564448237464
14787075 74 18411975846278554997
14790565 3 18196376918170342752
17492 89 18408322207240728034
17844677 252 18337679714979600558
18785283 64 17908427948692225915
19930381 70 17330828540054394905
20101258 96 18050855712773643899
20775438 99 16763612396044949463
21033648 144 18334283271827218844
21033648 29 17702927211331616528
21524375 3 18192989327577007551
22182937 141 18410017615399560201
22393880 68 18342741853876970860
23227448 37 18410576167200903797
23557571 272 18338806722339315062
23558518 356 18041285468907058402
23559900 14 18201431472766702960
23598288 3 18338803419794548047
474 4 18124593085700627017
5081480 168 17199144065638564790
5104073 3 18260541247819217592
5309563 4 17760653959159377827
543358 83 18335983065654061834
7832392 63 18409726253687663248
9981440 41 18341891836409192363

>  <PUBCHEM_SHAPE_MULTIPOLES>  (1) 
478.08
10.17
4.15
1.15
10.33
0.04
-0.04
-3.29
-0.17
-4.6
-0.14
-0.81
0.97
-0.77

>  <PUBCHEM_SHAPE_SELFOVERLAP>  (1) 
996.227

>  <PUBCHEM_SHAPE_VOLUME>  (1) 
273.1

>  <PUBCHEM_COORDINATE_TYPE>  (1) 
2
5
10

$$$$
