15484
     RDKit          3D

 19 18  0  0  0  0  0  0  0  0999 V2000
    4.1657   -0.7090   -0.4168 N   0  0  0  0  0  0  0  0  0  0  0  0
    6.2989   -0.8576    0.6607 N   0  0  0  0  0  0  0  0  0  0  0  0
    5.6529    0.9424   -0.7366 N   0  0  0  0  0  0  0  0  0  0  0  0
    4.7979    2.1148    1.1813 N   0  0  0  0  0  0  0  0  0  0  0  0
    5.6400    3.2705   -0.5993 N   0  0  0  0  0  0  0  0  0  0  0  0
   -2.5748   -1.1098   -0.1987 C   0  0  0  0  0  0  0  0  0  0  0  0
   -3.6422   -0.0793    0.1850 C   0  0  0  0  0  0  0  0  0  0  0  0
   -1.1593   -0.6978    0.2128 C   0  0  0  0  0  0  0  0  0  0  0  0
   -5.0926   -0.4707   -0.1200 C   0  0  0  0  0  0  0  0  0  0  0  0
   -0.0912   -1.7223   -0.1826 C   0  0  0  0  0  0  0  0  0  0  0  0
   -6.1046    0.6230    0.2306 C   0  0  0  0  0  0  0  0  0  0  0  0
    1.3281   -1.3002    0.2063 C   0  0  0  0  0  0  0  0  0  0  0  0
   -7.5436    0.2657   -0.1559 C   0  0  0  0  0  0  0  0  0  0  0  0
    2.3565   -2.3459   -0.2379 C   0  0  0  0  0  0  0  0  0  0  0  0
   -8.5541    1.3668    0.1680 C   0  0  0  0  0  0  0  0  0  0  0  0
    3.7761   -1.9850    0.1850 C   0  0  0  0  0  0  0  0  0  0  0  0
   -9.9732    0.9318   -0.1654 C   0  0  0  0  0  0  0  0  0  0  0  0
    5.3503   -0.2690   -0.1472 C   0  0  0  0  0  0  0  0  0  0  0  0
    5.3690    2.0317   -0.0694 C   0  0  0  0  0  0  0  0  0  0  0  0
  1 16  1  0
  1 18  2  0
  2 18  1  0
  3 18  1  0
  3 19  2  0
  4 19  1  0
  5 19  1  0
  6  7  1  0
  6  8  1  0
  7  9  1  0
  8 10  1  0
  9 11  1  0
 10 12  1  0
 11 13  1  0
 12 14  1  0
 13 15  1  0
 14 16  1  0
 15 17  1  0
M  END
>  <PUBCHEM_COMPOUND_CID>  (1) 
15484

>  <PUBCHEM_CONFORMER_RMSD>  (1) 
1.2

>  <PUBCHEM_CONFORMER_DIVERSEORDER>  (1) 
1
108
192
102
6
144
213
44
197
24
29
189
134
79
155
80
200
130
50
176
16
202
2
46
190
47
56
154
170
199
211
54
216
179
62
132
100
5
123
203
116
148
19
135
97
140
89
174
18
143
67
76
166
99
12
181
149
150
27
195
121
104
117
84
201
10
60
182
137
25
127
38
164
72
171
4
183
33
82
151
41
208
152
7
105
35
133
48
55
111
11
113
196
3
98
187
119
184
66
165
57
40
90
61
93
92
156
20
59
175
169
9
138
37
30
91
85
147
129
32
159
142
23
214
204
206
212
86
88
128
45
158
71
194
13
145
36
146
106
177
118
14
8
109
131
167
141
120
101
75
43
73
163
215
136
39
125
74
63
210
186
15
28
65
188
162
126
64
110
21
26
53
68
205
153
173
139
94
31
172
207
58
96
157
69
124
52
78
178
87
185
114
198
95
51
103
191
193
17
107
81
83
160
77
34
42
112
209
70
115
180
122
22
49
161
168

>  <PUBCHEM_MMFF94_PARTIAL_CHARGES>  (1) 
14
1 -0.7
16 0.25
18 0.71
19 0.55
2 -0.85
3 -0.66
4 -0.85
45 0.4
46 0.4
47 0.4
48 0.4
49 0.4
5 -0.85
50 0.4

>  <PUBCHEM_EFFECTIVE_ROTOR_COUNT>  (1) 
12

>  <PUBCHEM_PHARMACOPHORE_FEATURES>  (1) 
6
1 17 hydrophobe
1 2 donor
1 4 donor
1 5 donor
4 1 2 3 18 cation
4 3 4 5 19 cation

>  <PUBCHEM_HEAVY_ATOM_COUNT>  (1) 
19

>  <PUBCHEM_ATOM_DEF_STEREO_COUNT>  (1) 
0

>  <PUBCHEM_ATOM_UDEF_STEREO_COUNT>  (1) 
0

>  <PUBCHEM_BOND_DEF_STEREO_COUNT>  (1) 
0

>  <PUBCHEM_BOND_UDEF_STEREO_COUNT>  (1) 
0

>  <PUBCHEM_ISOTOPIC_ATOM_COUNT>  (1) 
0

>  <PUBCHEM_COMPONENT_COUNT>  (1) 
1

>  <PUBCHEM_CACTVS_TAUTO_COUNT>  (1) 
5

>  <PUBCHEM_CONFORMER_ID>  (1) 
00003C7C00000001

>  <PUBCHEM_MMFF94_ENERGY>  (1) 
23.6717

>  <PUBCHEM_FEATURE_SELFOVERLAP>  (1) 
30.548

>  <PUBCHEM_SHAPE_FINGERPRINT>  (1) 
10411042 1 17905890276394025694
11211813 74 18410009910861363717
11315181 36 18343303636300764787
11638347 137 16371007360711112571
125118 31 18408887309109440233
13533116 47 17168135690368308306
13617811 41 15626507185482697633
14142895 15 18412544349677236519
14251757 52 18408321082106216617
14251764 46 18200872885598370286
14429380 56 18409439293916033117
14598715 104 17313653868640556669
15183329 4 17560807640707137905
155225 6 18044665436687596492
16120349 18 18410570683060221853
17810953 82 18262241135787772852
18335252 114 18202287987918756470
19427546 62 18410857668264669830
20157964 124 18411420574867056310
20281389 69 18187082815648023647
20397935 70 12179838390821591352
20621476 38 8935002568667218035
20771845 171 17346324756357119039
21150785 3 17632574934290874583
22224240 67 17748829597283710395
23524908 199 17845948377455035900
270888 7 18266461104480913764
33532 11 9367343726480080973
3472631 163 18272655675049500598
34797466 226 18202006486803224063
444735 82 18260834791322149141
445580 126 18341886412229078928
465052 167 8142090858019433674
5047190 47 18130502050236292769
5312510 48 18342175613435671648
59521099 67 17418092093080504496
59682541 35 17894638046393238627
59682541 52 16343708729018674748
60111433 81 18055914544399327928
6438161 24 11600007617866849478
67123 10 18410573973654120911

>  <PUBCHEM_SHAPE_MULTIPOLES>  (1) 
366.11
28.69
2.64
0.74
54.77
1.47
-0.05
18.59
0.48
-6.2
0.13
-0.53
0.16
-0.39

>  <PUBCHEM_SHAPE_SELFOVERLAP>  (1) 
677.619

>  <PUBCHEM_SHAPE_VOLUME>  (1) 
225.4

>  <PUBCHEM_COORDINATE_TYPE>  (1) 
2
5
10

$$$$
