1549
     RDKit          3D

 32 34  0  0  1  0  0  0  0  0999 V2000
   -0.0833    1.6994    2.8584 Cl  0  0  0  0  0  0  0  0  0  0  0  0
   -3.1523   -1.5856    0.7903 P   0  0  0  0  0  0  0  0  0  0  0  0
   -3.7966    1.2098    0.1300 P   0  0  0  0  0  0  0  0  0  0  0  0
   -1.8237    2.2895   -1.7793 P   0  0  0  0  0  0  0  0  0  0  0  0
    0.5096   -1.4573   -0.9227 O   0  0  0  0  0  0  0  0  0  0  0  0
    3.3401   -3.6189   -0.7651 O   0  0  0  0  0  0  0  0  0  0  0  0
    0.9362   -4.4427    1.0201 O   0  0  0  0  0  0  0  0  0  0  0  0
   -2.2701   -1.8153   -0.5466 O   0  0  0  0  0  0  0  0  0  0  0  0
   -4.1200   -0.3434    0.4293 O   0  0  0  0  0  0  0  0  0  0  0  0
   -4.1657   -2.8462    0.8245 O   0  0  0  0  0  0  0  0  0  0  0  0
   -2.3541   -1.3981    2.0477 O   0  0  0  0  0  0  0  0  0  0  0  0
   -2.7025    1.1417   -1.0568 O   0  0  0  0  0  0  0  0  0  0  0  0
   -2.9320    1.6793    1.4126 O   0  0  0  0  0  0  0  0  0  0  0  0
   -4.9919    2.0652   -0.1710 O   0  0  0  0  0  0  0  0  0  0  0  0
   -0.8535    2.8075   -0.5948 O   0  0  0  0  0  0  0  0  0  0  0  0
   -0.8295    1.4562   -2.7430 O   0  0  0  0  0  0  0  0  0  0  0  0
   -2.6279    3.3589   -2.4581 O   0  0  0  0  0  0  0  0  0  0  0  0
    2.6441   -0.4489   -0.7690 N   0  0  0  0  0  0  0  0  0  0  0  0
    4.2169    1.1296   -0.8673 N   0  0  0  0  0  0  0  0  0  0  0  0
    1.2327    0.4793    0.9768 N   0  0  0  0  0  0  0  0  0  0  0  0
    2.1146    2.6024    1.7958 N   0  0  0  0  0  0  0  0  0  0  0  0
    4.1218    3.5785    0.9336 N   0  0  0  0  0  0  0  0  0  0  0  0
    2.2978   -2.8549   -0.1844 C   0  0  0  0  0  0  0  0  0  0  0  0
    0.9995   -3.6307   -0.1368 C   0  0  0  0  0  0  0  0  0  0  0  0
    1.9239   -1.6816   -1.0812 C   0  0  0  0  0  0  0  0  0  0  0  0
   -0.0259   -2.5095   -0.1021 C   0  0  0  0  0  0  0  0  0  0  0  0
   -1.3879   -2.9216   -0.6312 C   0  0  0  0  0  0  0  0  0  0  0  0
    2.2980    0.4900    0.1617 C   0  0  0  0  0  0  0  0  0  0  0  0
    3.8039   -0.0196   -1.3597 C   0  0  0  0  0  0  0  0  0  0  0  0
    3.2851    1.4597    0.0845 C   0  0  0  0  0  0  0  0  0  0  0  0
    3.1668    2.5473    0.9439 C   0  0  0  0  0  0  0  0  0  0  0  0
    1.2261    1.5801    1.7598 C   0  0  0  0  0  0  0  0  0  0  0  0
  1 32  1  0
  2  8  1  0
  2  9  1  0
  2 10  1  0
  2 11  2  0
  3  9  1  0
  3 12  1  0
  3 13  1  0
  3 14  2  0
  4 12  1  0
  4 15  1  0
  4 16  1  0
  4 17  2  0
  5 25  1  0
  5 26  1  0
  6 23  1  0
  7 24  1  0
  8 27  1  0
 18 25  1  0
 18 28  1  0
 18 29  1  0
 19 29  2  0
 19 30  1  0
 20 28  1  0
 20 32  2  0
 21 31  2  0
 21 32  1  0
 22 31  1  0
 23 24  1  0
 23 25  1  0
 24 26  1  0
 26 27  1  0
 28 30  2  0
 30 31  1  0
M  END
>  <PUBCHEM_COMPOUND_CID>  (1) 
1549

>  <PUBCHEM_CONFORMER_RMSD>  (1) 
1.6

>  <PUBCHEM_CONFORMER_DIVERSEORDER>  (1) 
7
23
71
77
104
85
171
98
155
33
116
87
84
42
174
134
115
68
25
39
56
35
153
114
18
139
55
10
13
123
111
128
43
157
125
58
178
21
60
72
112
44
32
127
69
156
19
86
145
1
120
175
113
135
94
47
5
51
24
45
74
80
119
159
101
38
173
99
169
15
140
73
63
136
167
75
52
148
59
46
9
95
3
83
109
163
11
81
162
92
177
2
152
107
41
20
138
29
124
14
158
28
27
170
141
12
22
130
53
82
110
62
26
79
176
16
78
90
4
54
166
149
17
65
76
106
131
164
93
88
151
100
30
161
122
168
142
165
6
117
102
34
105
57
67
50
49
31
132
64
70
144
147
129
121
97
96
154
48
8
37
36
179
40
91
66
118
146
172
103
61
150
89
143
137
108
126
133
160

>  <PUBCHEM_MMFF94_PARTIAL_CHARGES>  (1) 
41
1 -0.18
10 -0.77
11 -0.7
12 -0.54
13 -0.77
14 -0.7
15 -0.77
16 -0.77
17 -0.7
18 0.05
19 -0.57
2 1.51
20 -0.57
21 -0.62
22 -0.9
23 0.28
24 0.28
25 0.54
26 0.28
27 0.28
28 0.11
29 0.04
3 1.51
30 0.23
31 0.41
32 0.8
39 0.4
4 1.51
40 0.4
41 0.15
42 0.4
43 0.4
44 0.5
45 0.5
46 0.5
47 0.5
5 -0.56
6 -0.68
7 -0.68
8 -0.55
9 -0.54

>  <PUBCHEM_EFFECTIVE_ROTOR_COUNT>  (1) 
9

>  <PUBCHEM_PHARMACOPHORE_FEATURES>  (1) 
21
1 10 acceptor
1 11 acceptor
1 13 acceptor
1 14 acceptor
1 15 acceptor
1 16 acceptor
1 17 acceptor
1 22 cation
1 22 donor
1 5 acceptor
1 6 acceptor
1 6 donor
1 7 acceptor
1 7 donor
3 18 19 29 cation
3 18 20 28 cation
3 20 21 32 cation
4 4 15 16 17 anion
5 18 19 28 29 30 rings
5 5 23 24 25 26 rings
6 20 21 28 30 31 32 rings

>  <PUBCHEM_HEAVY_ATOM_COUNT>  (1) 
32

>  <PUBCHEM_ATOM_DEF_STEREO_COUNT>  (1) 
0

>  <PUBCHEM_ATOM_UDEF_STEREO_COUNT>  (1) 
4

>  <PUBCHEM_BOND_DEF_STEREO_COUNT>  (1) 
0

>  <PUBCHEM_BOND_UDEF_STEREO_COUNT>  (1) 
0

>  <PUBCHEM_ISOTOPIC_ATOM_COUNT>  (1) 
0

>  <PUBCHEM_COMPONENT_COUNT>  (1) 
1

>  <PUBCHEM_CACTVS_TAUTO_COUNT>  (1) 
3

>  <PUBCHEM_CONFORMER_ID>  (1) 
0000060D00000007

>  <PUBCHEM_MMFF94_ENERGY>  (1) 
-9.8724

>  <PUBCHEM_FEATURE_SELFOVERLAP>  (1) 
107.245

>  <PUBCHEM_SHAPE_FINGERPRINT>  (1) 
10165383 225 18410020913823758444
1100329 8 18196946461251764002
11370993 70 18342457096743769585
11513181 2 17266678595231060676
12156800 1 15608574344028214560
12633257 1 17910405991621731259
13402501 40 18410296891300053309
14279260 333 17488487264186951516
20600515 1 16536178496879384955
20764821 26 18342447171042511568
20775438 99 17832377066277862687
23536364 44 17982757194077685670
238 59 18126257793317631717
35225 105 17323461644570588388
3524813 1 18270408303130650315
469060 322 18044960071306256603
5252454 2 18411143506679239773
6287921 2 17979641460875283300
6442390 28 18338517572593578700

>  <PUBCHEM_SHAPE_MULTIPOLES>  (1) 
570.76
7.75
5.49
2.14
2.75
3.25
0.07
-3.15
-0.21
-1.38
0.1
0.64
-1.85
2.64

>  <PUBCHEM_SHAPE_SELFOVERLAP>  (1) 
1157.025

>  <PUBCHEM_SHAPE_VOLUME>  (1) 
335.9

>  <PUBCHEM_COORDINATE_TYPE>  (1) 
2
5
10

$$$$
