155
     RDKit          3D

 12 12  0  0  0  0  0  0  0  0999 V2000
   -3.3143   -0.8664    0.0014 O   0  0  0  0  0  0  0  0  0  0  0  0
   -1.4973   -2.2167   -0.0024 O   0  0  0  0  0  0  0  0  0  0  0  0
    3.1169    0.6871   -0.0006 O   0  0  0  0  0  0  0  0  0  0  0  0
   -1.7779    1.4100    0.0002 N   0  0  0  0  0  0  0  0  0  0  0  0
    1.1243   -0.5729    0.0005 N   0  0  0  0  0  0  0  0  0  0  0  0
    0.4196    1.7303   -0.0006 N   0  0  0  0  0  0  0  0  0  0  0  0
    3.2002   -1.5957    0.0010 N   0  0  0  0  0  0  0  0  0  0  0  0
   -1.2182    0.1636    0.0011 C   0  0  0  0  0  0  0  0  0  0  0  0
    0.1386    0.3869    0.0004 C   0  0  0  0  0  0  0  0  0  0  0  0
   -0.7561    2.3183   -0.0007 C   0  0  0  0  0  0  0  0  0  0  0  0
   -1.9546   -1.0587   -0.0002 C   0  0  0  0  0  0  0  0  0  0  0  0
    2.5188   -0.3858    0.0001 C   0  0  0  0  0  0  0  0  0  0  0  0
  1 11  1  0
  2 11  2  0
  3 12  2  0
  4  8  1  0
  4 10  1  0
  5  9  1  0
  5 12  1  0
  6  9  1  0
  6 10  2  0
  7 12  1  0
  8  9  2  0
  8 11  1  0
M  END
>  <PUBCHEM_COMPOUND_CID>  (1) 
155

>  <PUBCHEM_CONFORMER_RMSD>  (1) 
0.6

>  <PUBCHEM_CONFORMER_DIVERSEORDER>  (1) 
1
5
6
4
7
8
2
3

>  <PUBCHEM_MMFF94_PARTIAL_CHARGES>  (1) 
18
1 -0.65
10 0.04
11 0.81
12 0.69
13 0.27
14 0.37
15 0.15
16 0.37
17 0.37
18 0.5
2 -0.57
3 -0.57
4 0.03
5 -0.49
6 -0.57
7 -0.8
8 -0.24
9 0.29

>  <PUBCHEM_EFFECTIVE_ROTOR_COUNT>  (1) 
3

>  <PUBCHEM_PHARMACOPHORE_FEATURES>  (1) 
9
1 1 acceptor
1 2 acceptor
1 3 acceptor
1 4 donor
1 5 donor
1 7 donor
3 1 2 11 anion
3 4 6 10 cation
5 4 6 8 9 10 rings

>  <PUBCHEM_HEAVY_ATOM_COUNT>  (1) 
12

>  <PUBCHEM_ATOM_DEF_STEREO_COUNT>  (1) 
0

>  <PUBCHEM_ATOM_UDEF_STEREO_COUNT>  (1) 
0

>  <PUBCHEM_BOND_DEF_STEREO_COUNT>  (1) 
0

>  <PUBCHEM_BOND_UDEF_STEREO_COUNT>  (1) 
0

>  <PUBCHEM_ISOTOPIC_ATOM_COUNT>  (1) 
0

>  <PUBCHEM_COMPONENT_COUNT>  (1) 
1

>  <PUBCHEM_CACTVS_TAUTO_COUNT>  (1) 
13

>  <PUBCHEM_CONFORMER_ID>  (1) 
0000009B00000001

>  <PUBCHEM_MMFF94_ENERGY>  (1) 
15.0314

>  <PUBCHEM_FEATURE_SELFOVERLAP>  (1) 
45.778

>  <PUBCHEM_SHAPE_FINGERPRINT>  (1) 
10857977 72 18341319085197703944
12716758 59 18267016150897743600
12932764 1 17531810117700421556
14128692 85 18266182918457271076
16945 1 18338799047296151397
19973954 147 18339643339551821572
20201158 50 18336261361563858010
20645477 70 17399783295595372159
20711985 365 18337389340292634350
20871998 184 18201156563903275479
20871998 22 18340779233494140671
23526114 1 17689717884092500581
23552423 10 18259989249573295452
2748010 2 18339359669292727020
6333449 129 18339638928077011684
81228 2 18408606928853498673

>  <PUBCHEM_SHAPE_MULTIPOLES>  (1) 
209.42
4.48
2.24
0.56
2.47
0.37
0
-2.02
0
-0.78
0
-0.01
0.02
0

>  <PUBCHEM_SHAPE_SELFOVERLAP>  (1) 
438.566

>  <PUBCHEM_SHAPE_VOLUME>  (1) 
119

>  <PUBCHEM_COORDINATE_TYPE>  (1) 
2
5
10

$$$$
