15503
     RDKit          3D

 22 23  0  0  0  0  0  0  0  0999 V2000
    3.3029   -3.0498    0.0069 O   0  0  0  0  0  0  0  0  0  0  0  0
    1.1050   -3.0029    0.0715 O   0  0  0  0  0  0  0  0  0  0  0  0
    4.8168    2.9506   -0.1060 O   0  0  0  0  0  0  0  0  0  0  0  0
    5.8388    1.0029   -0.1154 O   0  0  0  0  0  0  0  0  0  0  0  0
   -0.1953   -0.8895    0.0866 N   0  0  0  0  0  0  0  0  0  0  0  0
   -1.3240   -0.1584    0.0547 N   0  0  0  0  0  0  0  0  0  0  0  0
    2.2165   -2.4267    0.0312 N   0  0  0  0  0  0  0  0  0  0  0  0
    4.7943    1.6967   -0.0923 N   0  0  0  0  0  0  0  0  0  0  0  0
    1.0603   -0.2617    0.0404 C   0  0  0  0  0  0  0  0  0  0  0  0
    2.2462   -1.0041    0.0129 C   0  0  0  0  0  0  0  0  0  0  0  0
    1.1247    1.1358    0.0234 C   0  0  0  0  0  0  0  0  0  0  0  0
   -3.7092    0.0140    0.0288 C   0  0  0  0  0  0  0  0  0  0  0  0
    3.4809   -0.3568   -0.0311 C   0  0  0  0  0  0  0  0  0  0  0  0
    3.5376    1.0368   -0.0479 C   0  0  0  0  0  0  0  0  0  0  0  0
   -2.4883   -0.7726    0.0994 C   0  0  0  0  0  0  0  0  0  0  0  0
    2.3595    1.7832   -0.0205 C   0  0  0  0  0  0  0  0  0  0  0  0
   -4.8594   -0.5330   -0.5396 C   0  0  0  0  0  0  0  0  0  0  0  0
   -3.7299    1.3159    0.5291 C   0  0  0  0  0  0  0  0  0  0  0  0
   -2.5948   -2.2970    0.2219 C   0  0  0  0  0  0  0  0  0  0  0  0
   -6.0305    0.2219   -0.6077 C   0  0  0  0  0  0  0  0  0  0  0  0
   -4.9009    2.0707    0.4611 C   0  0  0  0  0  0  0  0  0  0  0  0
   -6.0512    1.5237   -0.1073 C   0  0  0  0  0  0  0  0  0  0  0  0
  1  7  1  0
  2  7  2  0
  3  8  1  0
  4  8  2  0
  5  6  1  0
  5  9  1  0
  6 15  2  0
  7 10  1  0
  8 14  1  0
  9 10  2  0
  9 11  1  0
 10 13  1  0
 11 16  2  0
 12 15  1  0
 12 17  2  0
 12 18  1  0
 13 14  2  0
 14 16  1  0
 15 19  1  0
 17 20  1  0
 18 21  2  0
 20 22  2  0
 21 22  1  0
M  CHG  4   1  -1   3  -1   7   1   8   1
M  END
>  <PUBCHEM_COMPOUND_CID>  (1) 
15503

>  <PUBCHEM_CONFORMER_RMSD>  (1) 
0.8

>  <PUBCHEM_CONFORMER_DIVERSEORDER>  (1) 
1
2
3

>  <PUBCHEM_MMFF94_PARTIAL_CHARGES>  (1) 
31
1 -0.52
10 0.13
11 -0.15
12 0.09
13 -0.15
14 0.13
15 0.3
16 -0.15
17 -0.15
18 -0.15
19 0.06
2 -0.52
20 -0.15
21 -0.15
22 -0.15
23 0.15
24 0.15
25 0.15
26 0.4
27 0.15
28 0.15
3 -0.52
32 0.15
33 0.15
34 0.15
4 -0.52
5 -0.46
6 -0.49
7 0.91
8 0.91
9 0.1

>  <PUBCHEM_EFFECTIVE_ROTOR_COUNT>  (1) 
5

>  <PUBCHEM_PHARMACOPHORE_FEATURES>  (1) 
10
1 1 acceptor
1 1 anion
1 2 acceptor
1 3 acceptor
1 3 anion
1 4 acceptor
1 5 donor
1 6 acceptor
6 12 17 18 20 21 22 rings
6 9 10 11 13 14 16 rings

>  <PUBCHEM_HEAVY_ATOM_COUNT>  (1) 
22

>  <PUBCHEM_ATOM_DEF_STEREO_COUNT>  (1) 
0

>  <PUBCHEM_ATOM_UDEF_STEREO_COUNT>  (1) 
0

>  <PUBCHEM_BOND_DEF_STEREO_COUNT>  (1) 
0

>  <PUBCHEM_BOND_UDEF_STEREO_COUNT>  (1) 
1

>  <PUBCHEM_ISOTOPIC_ATOM_COUNT>  (1) 
0

>  <PUBCHEM_COMPONENT_COUNT>  (1) 
1

>  <PUBCHEM_CACTVS_TAUTO_COUNT>  (1) 
1

>  <PUBCHEM_CONFORMER_ID>  (1) 
00003C8F00000001

>  <PUBCHEM_MMFF94_ENERGY>  (1) 
87.7138

>  <PUBCHEM_FEATURE_SELFOVERLAP>  (1) 
50.908

>  <PUBCHEM_SHAPE_FINGERPRINT>  (1) 
10411042 1 17833831573953686170
10595046 47 18342453747370443813
10693767 8 18059581218414713150
11089746 13 17917706924555064480
12107183 9 17693662511433784417
12236239 1 17988922258294274463
12730499 353 18408893948664546011
12788726 201 17345760681423037281
13073987 5 18410295788015561291
13167823 11 18343015550552214631
13533116 47 18343297042608288187
14528608 73 18341894103866841141
14790565 3 18192717958653901372
15081414 286 18260271819587975141
15196674 1 18411419467318875113
1601671 61 18334858342183461324
17844677 252 18339649919689340171
18335252 98 18336269033514996675
18608769 82 18265618861309941387
20157964 124 18410008798285031269
20554085 129 17845922036056346234
20612939 158 18339080393534593479
20645477 56 18259984886160829341
20645477 70 18272653398373955159
21033648 144 18261386733479781407
21033650 10 15051463665614301603
21120745 212 15948202005243020762
21421861 104 17968648299324043034
22393880 68 18059854025313300783
23402655 69 18342455958671985287
23559900 14 18272082739091491355
245318 6 17461737373568122885
3004659 81 18341613646744794378
335352 9 18410576189535349718
34934 24 18411134749056423471
3545911 37 18409731789842199713
4072396 5 18337098026242116194
4073 2 18114187466205388899
4214541 1 18411136952891455053
474 4 18187366562266807849
5104073 3 18260271819988466891
543358 83 18340489971620351138
59755656 215 18410016511940813028
633830 44 18341330089188681798
67856867 119 18341041943558164931
8272917 22 18412263904680462398
9709674 26 18410860958298931947
9971528 1 18041002795586824061

>  <PUBCHEM_SHAPE_MULTIPOLES>  (1) 
409.35
14.13
3.02
0.65
6.99
1.19
0
-8.21
-1.27
-2.83
0.16
0.36
-0.04
-0.45

>  <PUBCHEM_SHAPE_SELFOVERLAP>  (1) 
878.26

>  <PUBCHEM_SHAPE_VOLUME>  (1) 
226.2

>  <PUBCHEM_COORDINATE_TYPE>  (1) 
2
5
10

$$$$
