15504
     RDKit          3D

  8  8  0  0  0  0  0  0  0  0999 V2000
   -0.6005   -0.2675   -0.2400 C   0  0  0  0  0  0  0  0  0  0  0  0
   -0.1332    1.1012    0.2738 C   0  0  0  0  0  0  0  0  0  0  0  0
    0.3874   -1.3696    0.1654 C   0  0  0  0  0  0  0  0  0  0  0  0
    1.2891    1.4187   -0.1821 C   0  0  0  0  0  0  0  0  0  0  0  0
    1.8090   -1.0479   -0.2901 C   0  0  0  0  0  0  0  0  0  0  0  0
    2.2666    0.3169    0.2150 C   0  0  0  0  0  0  0  0  0  0  0  0
   -2.0038   -0.5857    0.2728 C   0  0  0  0  0  0  0  0  0  0  0  0
   -3.0146    0.4340   -0.2147 C   0  0  0  0  0  0  0  0  0  0  0  0
  1  2  1  0
  1  3  1  0
  1  7  1  0
  2  4  1  0
  3  5  1  0
  4  6  1  0
  5  6  1  0
  7  8  1  0
M  END
>  <PUBCHEM_COMPOUND_CID>  (1) 
15504

>  <PUBCHEM_CONFORMER_RMSD>  (1) 
0.4

>  <PUBCHEM_CONFORMER_DIVERSEORDER>  (1) 
1
8
9
2
4
3
5
6
7

>  <PUBCHEM_MMFF94_PARTIAL_CHARGES>  (1) 
0

>  <PUBCHEM_EFFECTIVE_ROTOR_COUNT>  (1) 
2.2

>  <PUBCHEM_PHARMACOPHORE_FEATURES>  (1) 
2
1 8 hydrophobe
6 1 2 3 4 5 6 rings

>  <PUBCHEM_HEAVY_ATOM_COUNT>  (1) 
8

>  <PUBCHEM_ATOM_DEF_STEREO_COUNT>  (1) 
0

>  <PUBCHEM_ATOM_UDEF_STEREO_COUNT>  (1) 
0

>  <PUBCHEM_BOND_DEF_STEREO_COUNT>  (1) 
0

>  <PUBCHEM_BOND_UDEF_STEREO_COUNT>  (1) 
0

>  <PUBCHEM_ISOTOPIC_ATOM_COUNT>  (1) 
0

>  <PUBCHEM_COMPONENT_COUNT>  (1) 
1

>  <PUBCHEM_CACTVS_TAUTO_COUNT>  (1) 
1

>  <PUBCHEM_CONFORMER_ID>  (1) 
00003C9000000001

>  <PUBCHEM_MMFF94_ENERGY>  (1) 
2.0112

>  <PUBCHEM_FEATURE_SELFOVERLAP>  (1) 
10.148

>  <PUBCHEM_SHAPE_FINGERPRINT>  (1) 
14325111 11 18338234967982459653
14390081 3 18412542128524977457
18185500 45 18342737420605655278
21040471 1 18194965377267829552
23235685 24 18338793515631429768
23402655 69 18341036429690783493
23552333 60 18341612573065910440
23552423 10 18335143093797907231
241688 4 17978235958944909696
29004967 10 18408326583400140426
5084963 1 18270965764152543771

>  <PUBCHEM_SHAPE_MULTIPOLES>  (1) 
164.64
3.58
1.48
0.67
1.99
0.05
0
0.23
0.13
-0.51
0
0
0
0.1

>  <PUBCHEM_SHAPE_SELFOVERLAP>  (1) 
310.609

>  <PUBCHEM_SHAPE_VOLUME>  (1) 
101.4

>  <PUBCHEM_COORDINATE_TYPE>  (1) 
2
5
10

$$$$
