15507
     RDKit          3D

  9  9  0  0  1  0  0  0  0  0999 V2000
   -0.0001    0.8467    0.2122 C   0  0  0  0  0  0  0  0  0  0  0  0
    1.2794    0.0980   -0.2590 C   0  0  0  0  0  0  0  0  0  0  0  0
   -1.2794    0.0977   -0.2589 C   0  0  0  0  0  0  0  0  0  0  0  0
    1.2548   -1.3738    0.1826 C   0  0  0  0  0  0  0  0  0  0  0  0
   -1.2544   -1.3741    0.1830 C   0  0  0  0  0  0  0  0  0  0  0  0
    0.0002   -2.0887   -0.2958 C   0  0  0  0  0  0  0  0  0  0  0  0
   -0.0004    2.3050   -0.2693 C   0  0  0  0  0  0  0  0  0  0  0  0
    2.5716    0.7449    0.2528 C   0  0  0  0  0  0  0  0  0  0  0  0
   -2.5717    0.7444    0.2525 C   0  0  0  0  0  0  0  0  0  0  0  0
  1  2  1  0
  1  3  1  0
  1  7  1  0
  2  4  1  0
  2  8  1  0
  3  5  1  0
  3  9  1  0
  4  6  1  0
  5  6  1  0
M  END
>  <PUBCHEM_COMPOUND_CID>  (1) 
15507

>  <PUBCHEM_CONFORMER_RMSD>  (1) 
0.4

>  <PUBCHEM_CONFORMER_DIVERSEORDER>  (1) 
3
4
8
6
5
2
1
7

>  <PUBCHEM_MMFF94_PARTIAL_CHARGES>  (1) 
0

>  <PUBCHEM_EFFECTIVE_ROTOR_COUNT>  (1) 
1.2

>  <PUBCHEM_PHARMACOPHORE_FEATURES>  (1) 
1
6 1 2 3 4 5 6 rings

>  <PUBCHEM_HEAVY_ATOM_COUNT>  (1) 
9

>  <PUBCHEM_ATOM_DEF_STEREO_COUNT>  (1) 
0

>  <PUBCHEM_ATOM_UDEF_STEREO_COUNT>  (1) 
2

>  <PUBCHEM_BOND_DEF_STEREO_COUNT>  (1) 
0

>  <PUBCHEM_BOND_UDEF_STEREO_COUNT>  (1) 
0

>  <PUBCHEM_ISOTOPIC_ATOM_COUNT>  (1) 
0

>  <PUBCHEM_COMPONENT_COUNT>  (1) 
1

>  <PUBCHEM_CACTVS_TAUTO_COUNT>  (1) 
1

>  <PUBCHEM_CONFORMER_ID>  (1) 
00003C9300000003

>  <PUBCHEM_MMFF94_ENERGY>  (1) 
12.3618

>  <PUBCHEM_FEATURE_SELFOVERLAP>  (1) 
5.074

>  <PUBCHEM_SHAPE_FINGERPRINT>  (1) 
12423570 1 11848862910622801838
161256 15 18052266093717059661
16945 1 18408323289144451973
18185500 45 18337387252901696126
193761 8 17689997834392757244
21040471 1 18411420630664155646
23235685 24 18411133632275197257
23552423 10 17830463777809538111
241688 4 16898493408149298347
2748010 2 18411423907655890687
29004967 10 18260839167518880753
66348 1 18411139116948258824

>  <PUBCHEM_SHAPE_MULTIPOLES>  (1) 
185.22
2.8
2.32
0.68
0
0.07
0
-0.65
0.34
0
-0.18
0
0
0

>  <PUBCHEM_SHAPE_SELFOVERLAP>  (1) 
352.635

>  <PUBCHEM_SHAPE_VOLUME>  (1) 
114.6

>  <PUBCHEM_COORDINATE_TYPE>  (1) 
2
5
10

$$$$
