15508
     RDKit          3D

 10 10  0  0  0  0  0  0  0  0999 V2000
    0.0950    0.4851    0.0306 C   0  0  0  0  0  0  0  0  0  0  0  0
    1.2944    1.2780    0.5555 C   0  0  0  0  0  0  0  0  0  0  0  0
    0.3039   -1.0263    0.2314 C   0  0  0  0  0  0  0  0  0  0  0  0
   -1.2043    0.9452    0.6877 C   0  0  0  0  0  0  0  0  0  0  0  0
    2.5871    0.9081   -0.1774 C   0  0  0  0  0  0  0  0  0  0  0  0
    1.7701   -1.4601    0.1477 C   0  0  0  0  0  0  0  0  0  0  0  0
    2.5974   -0.5221   -0.7193 C   0  0  0  0  0  0  0  0  0  0  0  0
   -2.4507    0.2344    0.1384 C   0  0  0  0  0  0  0  0  0  0  0  0
   -2.6084    0.4143   -1.3722 C   0  0  0  0  0  0  0  0  0  0  0  0
   -2.3845   -1.2567    0.4775 C   0  0  0  0  0  0  0  0  0  0  0  0
  1  2  1  0
  1  3  1  0
  1  4  1  0
  2  5  1  0
  3  6  1  0
  4  8  1  0
  5  7  1  0
  6  7  1  0
  8  9  1  0
  8 10  1  0
M  END
>  <PUBCHEM_COMPOUND_CID>  (1) 
15508

>  <PUBCHEM_CONFORMER_RMSD>  (1) 
0.6

>  <PUBCHEM_CONFORMER_DIVERSEORDER>  (1) 
1
3
2

>  <PUBCHEM_MMFF94_PARTIAL_CHARGES>  (1) 
0

>  <PUBCHEM_EFFECTIVE_ROTOR_COUNT>  (1) 
3.2

>  <PUBCHEM_PHARMACOPHORE_FEATURES>  (1) 
2
3 8 9 10 hydrophobe
6 1 2 3 5 6 7 rings

>  <PUBCHEM_HEAVY_ATOM_COUNT>  (1) 
10

>  <PUBCHEM_ATOM_DEF_STEREO_COUNT>  (1) 
0

>  <PUBCHEM_ATOM_UDEF_STEREO_COUNT>  (1) 
0

>  <PUBCHEM_BOND_DEF_STEREO_COUNT>  (1) 
0

>  <PUBCHEM_BOND_UDEF_STEREO_COUNT>  (1) 
0

>  <PUBCHEM_ISOTOPIC_ATOM_COUNT>  (1) 
0

>  <PUBCHEM_COMPONENT_COUNT>  (1) 
1

>  <PUBCHEM_CACTVS_TAUTO_COUNT>  (1) 
1

>  <PUBCHEM_CONFORMER_ID>  (1) 
00003C9400000001

>  <PUBCHEM_MMFF94_ENERGY>  (1) 
26.6335

>  <PUBCHEM_FEATURE_SELFOVERLAP>  (1) 
10.148

>  <PUBCHEM_SHAPE_FINGERPRINT>  (1) 
12716758 59 17676764284497902747
12897270 3 18408604759863118605
12932741 1 18334855026183404367
12932764 1 17748830691576639451
14128692 85 17846777382159967636
14325111 11 18410298042261611256
14390081 3 14129066914851759229
15310529 11 17095245783001767915
15775835 57 18260272936110121015
16945 1 18410857629202703984
17844478 74 18041574627780552603
20201158 50 18410572868491875547
20653085 51 17095808698600842629
21040471 1 18266180706976232144
23402655 69 18340757157847614293
23552423 10 18408329890524925768
2748010 2 18195813087858486050
29004967 10 18342178868735629584
3248919 1 18342172250106617336
5084963 1 18113909293973599634
8030462 33 18272931604917249033

>  <PUBCHEM_SHAPE_MULTIPOLES>  (1) 
205.8
4.45
1.5
0.97
0.52
0.24
-0.23
0.15
-0.94
-0.36
0.23
0.42
-0.1
0.31

>  <PUBCHEM_SHAPE_SELFOVERLAP>  (1) 
392.616

>  <PUBCHEM_SHAPE_VOLUME>  (1) 
126.2

>  <PUBCHEM_COORDINATE_TYPE>  (1) 
2
5
10

$$$$
