15516
     RDKit          3D

 11 12  0  0  0  0  0  0  0  0999 V2000
    3.4440    0.7718    0.0002 F   0  0  0  0  0  0  0  0  0  0  0  0
   -1.6721   -1.0204   -0.0004 O   0  0  0  0  0  0  0  0  0  0  0  0
   -1.4195    1.2319   -0.0002 N   0  0  0  0  0  0  0  0  0  0  0  0
   -3.6033    0.2233    0.0004 N   0  0  0  0  0  0  0  0  0  0  0  0
   -0.1836    0.6319    0.0000 C   0  0  0  0  0  0  0  0  0  0  0  0
   -0.3342   -0.7470    0.0000 C   0  0  0  0  0  0  0  0  0  0  0  0
    1.1103    1.1723   -0.0001 C   0  0  0  0  0  0  0  0  0  0  0  0
    0.7148   -1.6580    0.0001 C   0  0  0  0  0  0  0  0  0  0  0  0
   -2.2508    0.2131    0.0001 C   0  0  0  0  0  0  0  0  0  0  0  0
    2.1954    0.2838   -0.0001 C   0  0  0  0  0  0  0  0  0  0  0  0
    1.9990   -1.1027    0.0001 C   0  0  0  0  0  0  0  0  0  0  0  0
  1 10  1  0
  2  6  1  0
  2  9  1  0
  3  5  1  0
  3  9  2  0
  4  9  1  0
  5  6  2  0
  5  7  1  0
  6  8  1  0
  7 10  2  0
  8 11  2  0
 10 11  1  0
M  END
>  <PUBCHEM_COMPOUND_CID>  (1) 
15516

>  <PUBCHEM_CONFORMER_RMSD>  (1) 
0.4

>  <PUBCHEM_CONFORMER_DIVERSEORDER>  (1) 
1

>  <PUBCHEM_MMFF94_PARTIAL_CHARGES>  (1) 
16
1 -0.19
10 0.19
11 -0.15
12 0.15
13 0.15
14 0.15
15 0.4
16 0.4
2 -0.28
3 -0.57
4 -0.88
5 0.23
6 0.14
7 -0.15
8 -0.15
9 0.56

>  <PUBCHEM_EFFECTIVE_ROTOR_COUNT>  (1) 
0

>  <PUBCHEM_PHARMACOPHORE_FEATURES>  (1) 
4
1 4 donor
3 3 4 9 cation
5 2 3 5 6 9 rings
6 5 6 7 8 10 11 rings

>  <PUBCHEM_HEAVY_ATOM_COUNT>  (1) 
11

>  <PUBCHEM_ATOM_DEF_STEREO_COUNT>  (1) 
0

>  <PUBCHEM_ATOM_UDEF_STEREO_COUNT>  (1) 
0

>  <PUBCHEM_BOND_DEF_STEREO_COUNT>  (1) 
0

>  <PUBCHEM_BOND_UDEF_STEREO_COUNT>  (1) 
0

>  <PUBCHEM_ISOTOPIC_ATOM_COUNT>  (1) 
0

>  <PUBCHEM_COMPONENT_COUNT>  (1) 
1

>  <PUBCHEM_CACTVS_TAUTO_COUNT>  (1) 
2

>  <PUBCHEM_CONFORMER_ID>  (1) 
00003C9C00000001

>  <PUBCHEM_MMFF94_ENERGY>  (1) 
15.8924

>  <PUBCHEM_FEATURE_SELFOVERLAP>  (1) 
20.415

>  <PUBCHEM_SHAPE_FINGERPRINT>  (1) 
10219947 1 18260831496606991685
11471102 20 18410569548930379885
12897270 3 18411138030337363796
13380535 76 18409728477958567658
14325111 11 18410855443053956549
15775835 57 18342459261338376924
16945 1 18410573989451699685
193761 8 17762338015840803264
20645477 70 18339355246199488615
21040471 1 18338799017473921474
23235685 24 18409161134316607168
23402655 69 18340754954750898669
23463225 33 18334571305281799762
23552423 10 18262802835066927510
2748010 2 18193837033376915660
29004967 10 18259992552018063369
369184 2 16370719344319445648
5084963 1 18272088253691790610
528886 8 18411414037826020418
53812653 166 18271519892401557288

>  <PUBCHEM_SHAPE_MULTIPOLES>  (1) 
203.27
4.31
1.46
0.58
1.11
0.26
0
-0.73
0
-0.43
0
-0.02
0.01
0

>  <PUBCHEM_SHAPE_SELFOVERLAP>  (1) 
451.543

>  <PUBCHEM_SHAPE_VOLUME>  (1) 
111.3

>  <PUBCHEM_COORDINATE_TYPE>  (1) 
2
5
10

$$$$
