15511
     RDKit          3D

  6  5  0  0  0  0  0  0  0  0999 V2000
   -0.6327    1.7420   -0.0866 S   0  0  0  0  0  0  0  0  0  0  0  0
   -0.4137   -0.0820    0.0025 C   0  0  0  0  0  0  0  0  0  0  0  0
    0.9365   -0.5038   -0.6237 C   0  0  0  0  0  0  0  0  0  0  0  0
   -0.5207   -0.5011    1.4740 C   0  0  0  0  0  0  0  0  0  0  0  0
   -1.5615   -0.7233   -0.7932 C   0  0  0  0  0  0  0  0  0  0  0  0
    2.1922    0.0683    0.0270 C   0  0  0  0  0  0  0  0  0  0  0  0
  1  2  1  0
  2  3  1  0
  2  4  1  0
  2  5  1  0
  3  6  1  0
M  END
>  <PUBCHEM_COMPOUND_CID>  (1) 
15511

>  <PUBCHEM_CONFORMER_RMSD>  (1) 
0.4

>  <PUBCHEM_CONFORMER_DIVERSEORDER>  (1) 
1
3
2

>  <PUBCHEM_MMFF94_PARTIAL_CHARGES>  (1) 
3
1 -0.41
18 0.18
2 0.23

>  <PUBCHEM_EFFECTIVE_ROTOR_COUNT>  (1) 
1

>  <PUBCHEM_PHARMACOPHORE_FEATURES>  (1) 
2
1 6 hydrophobe
3 2 4 5 hydrophobe

>  <PUBCHEM_HEAVY_ATOM_COUNT>  (1) 
6

>  <PUBCHEM_ATOM_DEF_STEREO_COUNT>  (1) 
0

>  <PUBCHEM_ATOM_UDEF_STEREO_COUNT>  (1) 
0

>  <PUBCHEM_BOND_DEF_STEREO_COUNT>  (1) 
0

>  <PUBCHEM_BOND_UDEF_STEREO_COUNT>  (1) 
0

>  <PUBCHEM_ISOTOPIC_ATOM_COUNT>  (1) 
0

>  <PUBCHEM_COMPONENT_COUNT>  (1) 
1

>  <PUBCHEM_CACTVS_TAUTO_COUNT>  (1) 
1

>  <PUBCHEM_CONFORMER_ID>  (1) 
00003C9700000001

>  <PUBCHEM_MMFF94_ENERGY>  (1) 
11.5071

>  <PUBCHEM_FEATURE_SELFOVERLAP>  (1) 
10.149

>  <PUBCHEM_SHAPE_FINGERPRINT>  (1) 
16714656 1 18272364235648104749
20096714 4 17760370993839149036
21040471 1 17908986504503447108
23552449 1 18271517624548223780
24536 1 17822593632702762598
29004967 10 18340207521707176195
5943 1 12638392412055774993

>  <PUBCHEM_SHAPE_MULTIPOLES>  (1) 
127.33
2.09
1.38
1.15
1.22
0.8
0.38
-0.14
-0.32
-0.53
-0.06
-0.27
-0.3
-0.03

>  <PUBCHEM_SHAPE_SELFOVERLAP>  (1) 
213.628

>  <PUBCHEM_SHAPE_VOLUME>  (1) 
89.5

>  <PUBCHEM_COORDINATE_TYPE>  (1) 
2
5
10

$$$$
