15510
     RDKit          3D

  6  6  0  0  0  0  0  0  0  0999 V2000
    2.0049    0.0001   -0.7402 S   0  0  0  0  0  0  0  0  0  0  0  0
    0.7906    0.0012    0.6234 C   0  0  0  0  0  0  0  0  0  0  0  0
   -0.1582   -1.1894    0.5263 C   0  0  0  0  0  0  0  0  0  0  0  0
   -0.1612    1.1895    0.5270 C   0  0  0  0  0  0  0  0  0  0  0  0
   -1.2386   -0.7653   -0.4668 C   0  0  0  0  0  0  0  0  0  0  0  0
   -1.2375    0.7639   -0.4697 C   0  0  0  0  0  0  0  0  0  0  0  0
  1  2  1  0
  2  3  1  0
  2  4  1  0
  3  5  1  0
  4  6  1  0
  5  6  1  0
M  END
>  <PUBCHEM_COMPOUND_CID>  (1) 
15510

>  <PUBCHEM_CONFORMER_RMSD>  (1) 
0.4

>  <PUBCHEM_CONFORMER_DIVERSEORDER>  (1) 
2
1

>  <PUBCHEM_MMFF94_PARTIAL_CHARGES>  (1) 
3
1 -0.41
16 0.18
2 0.23

>  <PUBCHEM_EFFECTIVE_ROTOR_COUNT>  (1) 
1

>  <PUBCHEM_PHARMACOPHORE_FEATURES>  (1) 
1
5 2 3 4 5 6 rings

>  <PUBCHEM_HEAVY_ATOM_COUNT>  (1) 
6

>  <PUBCHEM_ATOM_DEF_STEREO_COUNT>  (1) 
0

>  <PUBCHEM_ATOM_UDEF_STEREO_COUNT>  (1) 
0

>  <PUBCHEM_BOND_DEF_STEREO_COUNT>  (1) 
0

>  <PUBCHEM_BOND_UDEF_STEREO_COUNT>  (1) 
0

>  <PUBCHEM_ISOTOPIC_ATOM_COUNT>  (1) 
0

>  <PUBCHEM_COMPONENT_COUNT>  (1) 
1

>  <PUBCHEM_CACTVS_TAUTO_COUNT>  (1) 
1

>  <PUBCHEM_CONFORMER_ID>  (1) 
00003C9600000002

>  <PUBCHEM_MMFF94_ENERGY>  (1) 
8.8909

>  <PUBCHEM_FEATURE_SELFOVERLAP>  (1) 
5.074

>  <PUBCHEM_SHAPE_FINGERPRINT>  (1) 
16714656 1 18410864260553081165
20096714 4 17676771963772859876
21015797 1 8861218831272576569
21040471 1 18122889959094660665
29004967 10 16845288380004952498
5943 1 13268376995109368818

>  <PUBCHEM_SHAPE_MULTIPOLES>  (1) 
127.33
2
1.28
0.96
0.93
0
0.02
0
0.68
-0.32
-0.14
0.11
0
0

>  <PUBCHEM_SHAPE_SELFOVERLAP>  (1) 
233.609

>  <PUBCHEM_SHAPE_VOLUME>  (1) 
83.8

>  <PUBCHEM_COORDINATE_TYPE>  (1) 
2
5
10

$$$$
