15514
     RDKit          3D

 11 12  0  0  0  0  0  0  0  0999 V2000
   -2.7039   -0.9813   -0.3368 C   0  0  0  0  0  0  0  0  0  0  0  0
   -2.9122    0.3613    0.3519 C   0  0  0  0  0  0  0  0  0  0  0  0
   -1.3663   -1.5919    0.0773 C   0  0  0  0  0  0  0  0  0  0  0  0
   -1.8311    1.3530   -0.0736 C   0  0  0  0  0  0  0  0  0  0  0  0
   -0.2194   -0.6141    0.0113 C   0  0  0  0  0  0  0  0  0  0  0  0
   -0.4387    0.7757   -0.0191 C   0  0  0  0  0  0  0  0  0  0  0  0
    1.0953   -1.1035    0.0393 C   0  0  0  0  0  0  0  0  0  0  0  0
    0.6614    1.6457   -0.0577 C   0  0  0  0  0  0  0  0  0  0  0  0
    2.1801   -0.2277    0.0113 C   0  0  0  0  0  0  0  0  0  0  0  0
    1.9632    1.1461   -0.0395 C   0  0  0  0  0  0  0  0  0  0  0  0
    3.5717   -0.7633    0.0356 C   0  0  0  0  0  0  0  0  0  0  0  0
  1  2  1  0
  1  3  1  0
  2  4  1  0
  3  5  1  0
  4  6  1  0
  5  6  2  0
  5  7  1  0
  6  8  1  0
  7  9  2  0
  8 10  2  0
  9 10  1  0
  9 11  1  0
M  END
>  <PUBCHEM_COMPOUND_CID>  (1) 
15514

>  <PUBCHEM_CONFORMER_RMSD>  (1) 
0.4

>  <PUBCHEM_CONFORMER_DIVERSEORDER>  (1) 
1

>  <PUBCHEM_MMFF94_PARTIAL_CHARGES>  (1) 
12
10 -0.15
11 0.14
20 0.15
21 0.15
22 0.15
3 0.14
4 0.14
5 -0.14
6 -0.14
7 -0.15
8 -0.15
9 -0.14

>  <PUBCHEM_EFFECTIVE_ROTOR_COUNT>  (1) 
0.8

>  <PUBCHEM_PHARMACOPHORE_FEATURES>  (1) 
2
6 1 2 3 4 5 6 rings
6 5 6 7 8 9 10 rings

>  <PUBCHEM_HEAVY_ATOM_COUNT>  (1) 
11

>  <PUBCHEM_ATOM_DEF_STEREO_COUNT>  (1) 
0

>  <PUBCHEM_ATOM_UDEF_STEREO_COUNT>  (1) 
0

>  <PUBCHEM_BOND_DEF_STEREO_COUNT>  (1) 
0

>  <PUBCHEM_BOND_UDEF_STEREO_COUNT>  (1) 
0

>  <PUBCHEM_ISOTOPIC_ATOM_COUNT>  (1) 
0

>  <PUBCHEM_COMPONENT_COUNT>  (1) 
1

>  <PUBCHEM_CACTVS_TAUTO_COUNT>  (1) 
1

>  <PUBCHEM_CONFORMER_ID>  (1) 
00003C9A00000001

>  <PUBCHEM_MMFF94_ENERGY>  (1) 
20.489

>  <PUBCHEM_FEATURE_SELFOVERLAP>  (1) 
10.17

>  <PUBCHEM_SHAPE_FINGERPRINT>  (1) 
11132069 177 18412257311958079160
11206711 2 18335417950203544013
12032990 46 18411144606191062038
12932764 1 17385714798876042440
14128692 85 18411983589202262836
14325111 11 18411138051823009512
15775835 57 18261397693682224297
16945 1 18409728443545652973
17844478 74 17967543380321852201
193761 8 17833834146121098890
19973954 147 18337674246916578929
20201158 50 18412825763522234375
20871998 184 18202282515371026055
21040471 1 18410575050308810180
21501502 16 18339645653990470573
23402655 69 18123452909792329365
23463225 33 18336264553056770826
23552423 10 18189054359606727358
23559900 14 18270116800375948830
241688 4 18335698360049769321
2748010 2 18266177420893714516
369184 2 18272931647982791209
5084963 1 18343300383465012721
528886 8 18410851023474456955
63268167 104 18410295856059973681
7364860 26 18198624522169783616
8809292 202 18260271888196513011

>  <PUBCHEM_SHAPE_MULTIPOLES>  (1) 
226.37
4.64
1.74
0.64
1.08
0.18
0
-0.86
0.07
-0.2
-0.03
-0.06
-0.01
-0.11

>  <PUBCHEM_SHAPE_SELFOVERLAP>  (1) 
477.138

>  <PUBCHEM_SHAPE_VOLUME>  (1) 
122.5

>  <PUBCHEM_COORDINATE_TYPE>  (1) 
2
5
10

$$$$
