15525
     RDKit          3D

 20 22  0  0  1  0  0  0  0  0999 V2000
    0.7017    2.1297   -1.2925 O   0  0  0  0  0  0  0  0  0  0  0  0
   -0.2328   -2.3639   -0.4536 O   0  0  0  0  0  0  0  0  0  0  0  0
   -4.6124    0.4740    0.9447 O   0  0  0  0  0  0  0  0  0  0  0  0
    0.0947   -0.0672   -0.7898 N   0  0  0  0  0  0  0  0  0  0  0  0
   -2.2613   -0.2131   -0.5052 N   0  0  0  0  0  0  0  0  0  0  0  0
    2.7976   -0.5095   -0.0245 C   0  0  0  0  0  0  0  0  0  0  0  0
    2.1712    0.8929    0.1969 C   0  0  0  0  0  0  0  0  0  0  0  0
    1.6695   -1.3548    0.5968 C   0  0  0  0  0  0  0  0  0  0  0  0
    1.6496    0.8391    1.6546 C   0  0  0  0  0  0  0  0  0  0  0  0
    1.3270   -0.6391    1.9129 C   0  0  0  0  0  0  0  0  0  0  0  0
    0.9313    1.0686   -0.7095 C   0  0  0  0  0  0  0  0  0  0  0  0
    0.4186   -1.3356   -0.2702 C   0  0  0  0  0  0  0  0  0  0  0  0
    4.1183   -0.7248    0.7545 C   0  0  0  0  0  0  0  0  0  0  0  0
    3.1019   -0.8574   -1.4941 C   0  0  0  0  0  0  0  0  0  0  0  0
    3.1356    2.0643   -0.0011 C   0  0  0  0  0  0  0  0  0  0  0  0
   -1.1921    0.0841   -1.4561 C   0  0  0  0  0  0  0  0  0  0  0  0
   -2.2181    0.7132    0.6347 C   0  0  0  0  0  0  0  0  0  0  0  0
   -3.5753   -0.1453   -1.1596 C   0  0  0  0  0  0  0  0  0  0  0  0
   -3.3496    0.3910    1.6066 C   0  0  0  0  0  0  0  0  0  0  0  0
   -4.6754   -0.4463   -0.1456 C   0  0  0  0  0  0  0  0  0  0  0  0
  1 11  2  0
  2 12  2  0
  3 19  1  0
  3 20  1  0
  4 11  1  0
  4 12  1  0
  4 16  1  0
  5 16  1  0
  5 17  1  0
  5 18  1  0
  6  7  1  0
  6  8  1  0
  6 13  1  0
  6 14  1  0
  7  9  1  0
  7 11  1  0
  7 15  1  0
  8 10  1  0
  8 12  1  0
  9 10  1  0
 17 19  1  0
 18 20  1  0
M  END
>  <PUBCHEM_COMPOUND_CID>  (1) 
15525

>  <PUBCHEM_CONFORMER_RMSD>  (1) 
0.6

>  <PUBCHEM_CONFORMER_DIVERSEORDER>  (1) 
1
13
25
11
18
29
26
21
12
16
7
24
27
28
23
2
15
19
17
22
9
3
14
10
20
8
6
30
4
5

>  <PUBCHEM_MMFF94_PARTIAL_CHARGES>  (1) 
14
1 -0.57
11 0.57
12 0.57
16 0.57
17 0.27
18 0.27
19 0.28
2 -0.57
20 0.28
3 -0.56
4 -0.42
5 -0.81
7 0.06
8 0.06

>  <PUBCHEM_EFFECTIVE_ROTOR_COUNT>  (1) 
4

>  <PUBCHEM_PHARMACOPHORE_FEATURES>  (1) 
7
1 1 acceptor
1 2 acceptor
1 3 acceptor
1 5 cation
3 6 13 14 hydrophobe
6 3 5 17 18 19 20 rings
8 4 6 7 8 9 10 11 12 rings

>  <PUBCHEM_HEAVY_ATOM_COUNT>  (1) 
20

>  <PUBCHEM_ATOM_DEF_STEREO_COUNT>  (1) 
0

>  <PUBCHEM_ATOM_UDEF_STEREO_COUNT>  (1) 
2

>  <PUBCHEM_BOND_DEF_STEREO_COUNT>  (1) 
0

>  <PUBCHEM_BOND_UDEF_STEREO_COUNT>  (1) 
0

>  <PUBCHEM_ISOTOPIC_ATOM_COUNT>  (1) 
0

>  <PUBCHEM_COMPONENT_COUNT>  (1) 
1

>  <PUBCHEM_CACTVS_TAUTO_COUNT>  (1) 
1

>  <PUBCHEM_CONFORMER_ID>  (1) 
00003CA500000001

>  <PUBCHEM_MMFF94_ENERGY>  (1) 
61.3425

>  <PUBCHEM_FEATURE_SELFOVERLAP>  (1) 
35.522

>  <PUBCHEM_SHAPE_FINGERPRINT>  (1) 
10064457 181 18201721777352349963
10366900 7 16805322210725416681
10498660 4 16343707608523016321
10646746 165 16272209665312600409
10863032 1 18198624522142916170
10948715 1 18126285483325190240
11067466 332 16950280706802660660
11471102 22 18187358801118329781
12011746 2 17167859751345627827
12236239 1 18060133241580208391
12491281 212 17702945962610255836
12633257 1 17821737126198523473
12670545 47 17603590767925775403
13140716 1 18263917895046014530
13224815 77 18342455963341466373
15163728 17 17340395322446366320
15209289 33 18202000993155066470
15309172 13 18334853913903270079
15375358 24 16226040115859092153
15775835 57 17704356571741437201
16945 1 18409442558307552910
1813 80 18127702534886125966
18186145 218 18343581837009124023
20233049 118 15769774628492140162
21503847 285 18341622481624332577
23184049 59 18408038524296645749
23419403 2 16237946748603415924
23493267 7 16806716270809581972
23557571 272 16153974751745330671
23559900 14 15554184613295511981
3286 77 18113616755467180704
474 4 18124028202785673448
633830 44 18202570570511602991
9981440 41 16767852112549285674

>  <PUBCHEM_SHAPE_MULTIPOLES>  (1) 
384.02
7.5
1.71
1.62
7.22
0.01
-0.21
0.26
-0.97
-1.07
0.22
-0.11
0.22
-0.56

>  <PUBCHEM_SHAPE_SELFOVERLAP>  (1) 
814.312

>  <PUBCHEM_SHAPE_VOLUME>  (1) 
216.5

>  <PUBCHEM_COORDINATE_TYPE>  (1) 
2
5
10

$$$$
