15522
     RDKit          3D

 12 12  0  0  1  0  0  0  0  0999 V2000
   -2.7098    1.4052    0.6477 O   0  0  0  0  0  0  0  0  0  0  0  0
    2.6867    1.4407   -0.6300 O   0  0  0  0  0  0  0  0  0  0  0  0
   -2.1393    0.4397   -1.3368 O   0  0  0  0  0  0  0  0  0  0  0  0
    2.1431    0.4252    1.3371 O   0  0  0  0  0  0  0  0  0  0  0  0
   -0.5836    0.4088    0.5170 C   0  0  0  0  0  0  0  0  0  0  0  0
    0.5662    0.4317   -0.4990 C   0  0  0  0  0  0  0  0  0  0  0  0
   -0.7127   -0.9057    1.2926 C   0  0  0  0  0  0  0  0  0  0  0  0
    0.7104   -0.8609   -1.3072 C   0  0  0  0  0  0  0  0  0  0  0  0
   -0.6043   -2.1469    0.4119 C   0  0  0  0  0  0  0  0  0  0  0  0
    0.6540   -2.1174   -0.4441 C   0  0  0  0  0  0  0  0  0  0  0  0
   -1.8733    0.7338   -0.1809 C   0  0  0  0  0  0  0  0  0  0  0  0
    1.8625    0.7458    0.1917 C   0  0  0  0  0  0  0  0  0  0  0  0
  1 11  1  0
  2 12  1  0
  3 11  2  0
  4 12  2  0
  5  6  1  0
  5  7  1  0
  5 11  1  0
  6  8  1  0
  6 12  1  0
  7  9  1  0
  8 10  1  0
  9 10  1  0
M  END
>  <PUBCHEM_COMPOUND_CID>  (1) 
15522

>  <PUBCHEM_CONFORMER_RMSD>  (1) 
0.6

>  <PUBCHEM_CONFORMER_DIVERSEORDER>  (1) 
1
9
17
3
7
8
4
18
19
6
5
16
10
2
12
15
13
14
11

>  <PUBCHEM_MMFF94_PARTIAL_CHARGES>  (1) 
10
1 -0.65
11 0.66
12 0.66
2 -0.65
23 0.5
24 0.5
3 -0.57
4 -0.57
5 0.06
6 0.06

>  <PUBCHEM_EFFECTIVE_ROTOR_COUNT>  (1) 
3.2

>  <PUBCHEM_PHARMACOPHORE_FEATURES>  (1) 
7
1 1 acceptor
1 2 acceptor
1 3 acceptor
1 4 acceptor
3 1 3 11 anion
3 2 4 12 anion
6 5 6 7 8 9 10 rings

>  <PUBCHEM_HEAVY_ATOM_COUNT>  (1) 
12

>  <PUBCHEM_ATOM_DEF_STEREO_COUNT>  (1) 
0

>  <PUBCHEM_ATOM_UDEF_STEREO_COUNT>  (1) 
2

>  <PUBCHEM_BOND_DEF_STEREO_COUNT>  (1) 
0

>  <PUBCHEM_BOND_UDEF_STEREO_COUNT>  (1) 
0

>  <PUBCHEM_ISOTOPIC_ATOM_COUNT>  (1) 
0

>  <PUBCHEM_COMPONENT_COUNT>  (1) 
1

>  <PUBCHEM_CACTVS_TAUTO_COUNT>  (1) 
1

>  <PUBCHEM_CONFORMER_ID>  (1) 
00003CA200000001

>  <PUBCHEM_MMFF94_ENERGY>  (1) 
13.1466

>  <PUBCHEM_FEATURE_SELFOVERLAP>  (1) 
35.634

>  <PUBCHEM_SHAPE_FINGERPRINT>  (1) 
10702982 57 17753572928103271499
12138202 97 18335419127014189366
12423570 1 12358244528673666743
13024252 1 16808400976100231962
137420 1 16243157046260137726
14817 1 14181755709576074083
16945 1 18191297174417628454
20653085 51 17203333354916456712
21040471 1 18412545435449257352
21922407 69 15215016174031139391
23211744 41 17894908490881427365
23235685 24 18410864260516534568
241688 4 17185040466590511098
2748010 2 18338256914964915350
5084963 1 18266155314760468916

>  <PUBCHEM_SHAPE_MULTIPOLES>  (1) 
223.48
3.02
1.98
1.27
0.05
1.13
0
-2.08
0.01
-0.03
0
0
0.1
0.19

>  <PUBCHEM_SHAPE_SELFOVERLAP>  (1) 
452.865

>  <PUBCHEM_SHAPE_VOLUME>  (1) 
127.7

>  <PUBCHEM_COORDINATE_TYPE>  (1) 
2
5
10

$$$$
