15527
     RDKit          3D

 12 12  0  0  0  0  0  0  0  0999 V2000
   -1.5887   -1.8032   -0.0020 O   0  0  0  0  0  0  0  0  0  0  0  0
    4.2640    0.6488   -0.0008 N   0  0  0  0  0  0  0  0  0  0  0  0
   -2.2574    0.5126    0.0024 C   0  0  0  0  0  0  0  0  0  0  0  0
   -3.6984    0.0022    0.0159 C   0  0  0  0  0  0  0  0  0  0  0  0
   -1.2453   -0.6234   -0.0002 C   0  0  0  0  0  0  0  0  0  0  0  0
    0.2090   -0.2875    0.0003 C   0  0  0  0  0  0  0  0  0  0  0  0
   -4.6959    1.1487   -0.0148 C   0  0  0  0  0  0  0  0  0  0  0  0
    0.5793    1.0377    0.0029 C   0  0  0  0  0  0  0  0  0  0  0  0
    1.1229   -1.3163   -0.0027 C   0  0  0  0  0  0  0  0  0  0  0  0
    2.8899    0.3314   -0.0004 C   0  0  0  0  0  0  0  0  0  0  0  0
    1.9384    1.3515    0.0024 C   0  0  0  0  0  0  0  0  0  0  0  0
    2.4821   -1.0026   -0.0030 C   0  0  0  0  0  0  0  0  0  0  0  0
  1  5  2  0
  2 10  1  0
  3  4  1  0
  3  5  1  0
  4  7  1  0
  5  6  1  0
  6  8  2  0
  6  9  1  0
  8 11  1  0
  9 12  2  0
 10 11  2  0
 10 12  1  0
M  END
>  <PUBCHEM_COMPOUND_CID>  (1) 
15527

>  <PUBCHEM_CONFORMER_RMSD>  (1) 
0.6

>  <PUBCHEM_CONFORMER_DIVERSEORDER>  (1) 
1
10
5
11
13
3
12
2
4
9
7
8
6

>  <PUBCHEM_MMFF94_PARTIAL_CHARGES>  (1) 
16
1 -0.57
10 0.1
11 -0.15
12 -0.15
2 -0.9
20 0.15
21 0.15
22 0.15
23 0.15
24 0.4
25 0.4
3 0.06
5 0.42
6 0.09
8 -0.15
9 -0.15

>  <PUBCHEM_EFFECTIVE_ROTOR_COUNT>  (1) 
3

>  <PUBCHEM_PHARMACOPHORE_FEATURES>  (1) 
5
1 1 acceptor
1 2 cation
1 2 donor
1 7 hydrophobe
6 6 8 9 10 11 12 rings

>  <PUBCHEM_HEAVY_ATOM_COUNT>  (1) 
12

>  <PUBCHEM_ATOM_DEF_STEREO_COUNT>  (1) 
0

>  <PUBCHEM_ATOM_UDEF_STEREO_COUNT>  (1) 
0

>  <PUBCHEM_BOND_DEF_STEREO_COUNT>  (1) 
0

>  <PUBCHEM_BOND_UDEF_STEREO_COUNT>  (1) 
0

>  <PUBCHEM_ISOTOPIC_ATOM_COUNT>  (1) 
0

>  <PUBCHEM_COMPONENT_COUNT>  (1) 
1

>  <PUBCHEM_CACTVS_TAUTO_COUNT>  (1) 
7

>  <PUBCHEM_CONFORMER_ID>  (1) 
00003CA700000001

>  <PUBCHEM_MMFF94_ENERGY>  (1) 
35.0324

>  <PUBCHEM_FEATURE_SELFOVERLAP>  (1) 
25.371

>  <PUBCHEM_SHAPE_FINGERPRINT>  (1) 
10608611 8 18410571837989868393
10980938 120 18335983082000461699
11062470 55 17918274250889866521
11401426 45 18272928345538036440
11471102 20 18411134706069658437
12932764 1 17096071576036748007
13380535 76 18411700997597683495
13922767 16 18413385440715850937
14144814 61 18411702062859959593
14325111 11 18410575085227483875
14897335 6 18412823599053765991
14993402 34 16630806616493736828
15442244 35 18124597474756030227
15775835 57 18408887347289028495
16945 1 18410573981178276196
18186145 218 18341335487915060613
20645477 70 18269835328913717791
23402539 116 18202556276918743405
23402655 69 18272082765256641717
23559900 14 18272936068459219656
25 1 18409164398444337895
2748010 2 18123753316282753436
4047638 21 18410578366028642577
528886 8 18411695513082351410
53812653 166 18412822516853785464
69090 78 18412821396020490303
7364860 26 18269273474235063350

>  <PUBCHEM_SHAPE_MULTIPOLES>  (1) 
236.1
7.39
1.51
0.6
4.72
0.25
0
-2.56
-0.01
-0.1
0
0.02
-0.01
0.01

>  <PUBCHEM_SHAPE_SELFOVERLAP>  (1) 
483.128

>  <PUBCHEM_SHAPE_VOLUME>  (1) 
137.2

>  <PUBCHEM_COORDINATE_TYPE>  (1) 
2
5
10

$$$$
