15526
     RDKit          3D

 18 19  0  0  1  0  0  0  0  0999 V2000
   -1.8878   -1.3695    1.2487 O   0  0  0  0  0  0  0  0  0  0  0  0
   -0.2168   -0.1711    0.1592 N   0  0  0  0  0  0  0  0  0  0  0  0
   -3.8043   -0.2611   -0.1922 N   0  0  0  0  0  0  0  0  0  0  0  0
    2.2557   -0.6575    0.5006 C   0  0  0  0  0  0  0  0  0  0  0  0
    2.5878    0.1156   -0.8117 C   0  0  0  0  0  0  0  0  0  0  0  0
    1.6582    1.3333   -0.5862 C   0  0  0  0  0  0  0  0  0  0  0  0
    2.3434    0.4471    1.5868 C   0  0  0  0  0  0  0  0  0  0  0  0
    1.9504    1.7475    0.8711 C   0  0  0  0  0  0  0  0  0  0  0  0
    0.7976   -1.1901    0.4671 C   0  0  0  0  0  0  0  0  0  0  0  0
    0.1728    0.9529   -0.7085 C   0  0  0  0  0  0  0  0  0  0  0  0
    3.2020   -1.8189    0.8141 C   0  0  0  0  0  0  0  0  0  0  0  0
    4.0663    0.5687   -0.9059 C   0  0  0  0  0  0  0  0  0  0  0  0
    2.2964   -0.6571   -2.1115 C   0  0  0  0  0  0  0  0  0  0  0  0
   -1.5427   -0.4331    0.5233 C   0  0  0  0  0  0  0  0  0  0  0  0
   -2.5873    0.5123   -0.0167 C   0  0  0  0  0  0  0  0  0  0  0  0
   -2.8022    1.6549    0.9549 C   0  0  0  0  0  0  0  0  0  0  0  0
   -3.5888   -1.3654   -1.1318 C   0  0  0  0  0  0  0  0  0  0  0  0
   -4.9006    0.5916   -0.6611 C   0  0  0  0  0  0  0  0  0  0  0  0
  1 14  2  0
  2  9  1  0
  2 10  1  0
  2 14  1  0
  3 15  1  0
  3 17  1  0
  3 18  1  0
  4  5  1  0
  4  7  1  0
  4  9  1  0
  4 11  1  0
  5  6  1  0
  5 12  1  0
  5 13  1  0
  6  8  1  0
  6 10  1  0
  7  8  1  0
 14 15  1  0
 15 16  1  0
M  END
>  <PUBCHEM_COMPOUND_CID>  (1) 
15526

>  <PUBCHEM_CONFORMER_RMSD>  (1) 
0.6

>  <PUBCHEM_CONFORMER_DIVERSEORDER>  (1) 
3
20
47
48
58
54
32
57
24
22
35
39
52
26
59
44
33
56
53
49
55
29
21
12
30
42
43
51
28
16
4
8
46
23
38
1
2
15
19
31
7
17
40
50
9
36
10
14
27
41
13
6
25
5
37
11
34
18
45

>  <PUBCHEM_MMFF94_PARTIAL_CHARGES>  (1) 
9
1 -0.57
10 0.3
14 0.57
15 0.33
17 0.27
18 0.27
2 -0.66
3 -0.81
9 0.3

>  <PUBCHEM_EFFECTIVE_ROTOR_COUNT>  (1) 
4.2

>  <PUBCHEM_PHARMACOPHORE_FEATURES>  (1) 
4
1 1 acceptor
1 3 cation
3 5 12 13 hydrophobe
8 2 4 5 6 7 8 9 10 rings

>  <PUBCHEM_HEAVY_ATOM_COUNT>  (1) 
18

>  <PUBCHEM_ATOM_DEF_STEREO_COUNT>  (1) 
0

>  <PUBCHEM_ATOM_UDEF_STEREO_COUNT>  (1) 
3

>  <PUBCHEM_BOND_DEF_STEREO_COUNT>  (1) 
0

>  <PUBCHEM_BOND_UDEF_STEREO_COUNT>  (1) 
0

>  <PUBCHEM_ISOTOPIC_ATOM_COUNT>  (1) 
0

>  <PUBCHEM_COMPONENT_COUNT>  (1) 
1

>  <PUBCHEM_CACTVS_TAUTO_COUNT>  (1) 
1

>  <PUBCHEM_CONFORMER_ID>  (1) 
00003CA600000003

>  <PUBCHEM_MMFF94_ENERGY>  (1) 
70.1483

>  <PUBCHEM_FEATURE_SELFOVERLAP>  (1) 
20.297

>  <PUBCHEM_SHAPE_FINGERPRINT>  (1) 
10646746 165 18131347488466677177
11471102 20 17967250879942481654
12423570 1 11724819840541712096
12500047 106 17968096472940408819
12932764 1 18272376381810258659
13134695 92 17968085396493818638
13224815 77 18341053003568320491
13296908 3 17917711348655800223
13571099 22 18040996224049477403
13693222 15 13183018501726111935
13705890 14 16917075438484925550
14115302 16 17749114370024754994
14144814 61 18113059333078711993
14289901 80 16128653072335972515
15375462 6 17346598594834393073
15775835 57 17385725828373164073
16752209 62 17749944436947944301
16945 1 17750254589748039092
1813 80 17388816375867224322
18186145 218 18342174471185016473
19862831 5 18186800275229182147
200 152 18342730832705994111
20233049 118 17603587443420875516
20523700 14 17894918454967988846
20645477 70 18272936033033812983
212847 35 18186798037635883365
21501502 16 18336548205307600568
231179 274 15864069905605497924
23402539 116 18341887519534192501
23402655 69 18335699421328580725
23557571 272 17916295212076074931
23559900 14 17561363997627023812
2748010 2 17900274292107932568
296302 2 17458341970054754981
3060560 45 17917994983990589782
3286 77 18270666598115831226
57812782 119 17418091014231108037
74978 22 18041003985287470377
8030462 33 18408608075683281811

>  <PUBCHEM_SHAPE_MULTIPOLES>  (1) 
354.6
7.79
1.69
1.48
6.88
0.13
0.19
-0.35
1.57
-0.1
-0.27
-0.91
-0.26
-0.35

>  <PUBCHEM_SHAPE_SELFOVERLAP>  (1) 
728.201

>  <PUBCHEM_SHAPE_VOLUME>  (1) 
207.1

>  <PUBCHEM_COORDINATE_TYPE>  (1) 
2
5
10

$$$$
