15537
     RDKit          3D

 50 54  0  0  1  0  0  0  0  0999 V2000
    6.4273    0.2605   -0.4185 S   0  0  0  0  0  0  0  0  0  0  0  0
    2.7198   -2.6232    0.2332 S   0  0  0  0  0  0  0  0  0  0  0  0
    7.8821    0.9971   -0.5371 O   0  0  0  0  0  0  0  0  0  0  0  0
    2.2035   -1.3211   -0.6101 O   0  0  0  0  0  0  0  0  0  0  0  0
    6.6521   -1.0201    0.2362 O   0  0  0  0  0  0  0  0  0  0  0  0
    5.7814    0.3245   -1.7203 O   0  0  0  0  0  0  0  0  0  0  0  0
    2.4744   -2.3420    1.6402 O   0  0  0  0  0  0  0  0  0  0  0  0
    4.0552   -2.9626   -0.2333 O   0  0  0  0  0  0  0  0  0  0  0  0
    2.3997    3.7803   -0.6883 N   0  0  0  0  0  0  0  0  0  0  0  0
   -2.7138   -4.7157    0.2570 N   0  0  0  0  0  0  0  0  0  0  0  0
   -7.0978    3.7523    0.1934 N   0  0  0  0  0  0  0  0  0  0  0  0
   -2.4420    0.9223   -0.0827 C   0  0  0  0  0  0  0  0  0  0  0  0
    1.1926    3.0664   -0.5373 C   0  0  0  0  0  0  0  0  0  0  0  0
   -2.6448   -3.3094    0.1722 C   0  0  0  0  0  0  0  0  0  0  0  0
   -1.1689    1.6735   -0.2415 C   0  0  0  0  0  0  0  0  0  0  0  0
   -2.5132   -0.5598    0.0061 C   0  0  0  0  0  0  0  0  0  0  0  0
    3.1427    4.2201    0.4757 C   0  0  0  0  0  0  0  0  0  0  0  0
   -1.6163   -5.4712    0.8273 C   0  0  0  0  0  0  0  0  0  0  0  0
    2.9199    4.0711   -2.0096 C   0  0  0  0  0  0  0  0  0  0  0  0
   -3.8890   -5.4224   -0.2125 C   0  0  0  0  0  0  0  0  0  0  0  0
   -3.5885    1.6191   -0.0152 C   0  0  0  0  0  0  0  0  0  0  0  0
    0.7060    2.7812    0.7385 C   0  0  0  0  0  0  0  0  0  0  0  0
   -2.7223   -2.6812   -1.0708 C   0  0  0  0  0  0  0  0  0  0  0  0
    0.4844    2.6472   -1.6636 C   0  0  0  0  0  0  0  0  0  0  0  0
   -2.5011   -2.5468    1.3313 C   0  0  0  0  0  0  0  0  0  0  0  0
   -0.4883    2.0765    0.8881 C   0  0  0  0  0  0  0  0  0  0  0  0
   -2.6557   -1.2904   -1.1548 C   0  0  0  0  0  0  0  0  0  0  0  0
   -0.7102    1.9427   -1.5139 C   0  0  0  0  0  0  0  0  0  0  0  0
   -2.4345   -1.1561    1.2473 C   0  0  0  0  0  0  0  0  0  0  0  0
    3.9777    3.0962    1.0237 C   0  0  0  0  0  0  0  0  0  0  0  0
   -0.3457   -5.2108    0.0666 C   0  0  0  0  0  0  0  0  0  0  0  0
   -4.8582    0.9256    0.1401 C   0  0  0  0  0  0  0  0  0  0  0  0
   -3.5677    3.0718   -0.0966 C   0  0  0  0  0  0  0  0  0  0  0  0
    2.3695    5.3756   -2.5478 C   0  0  0  0  0  0  0  0  0  0  0  0
   -4.9946   -5.4095    0.8228 C   0  0  0  0  0  0  0  0  0  0  0  0
    4.7174    2.3048    0.1545 C   0  0  0  0  0  0  0  0  0  0  0  0
    0.4862   -4.1696    0.4574 C   0  0  0  0  0  0  0  0  0  0  0  0
    3.9996    2.8638    2.3927 C   0  0  0  0  0  0  0  0  0  0  0  0
   -0.0191   -6.0154   -1.0173 C   0  0  0  0  0  0  0  0  0  0  0  0
   -6.0019    3.0863    0.1288 C   0  0  0  0  0  0  0  0  0  0  0  0
    5.4927    1.2626    0.6634 C   0  0  0  0  0  0  0  0  0  0  0  0
    1.6653   -3.9289   -0.2479 C   0  0  0  0  0  0  0  0  0  0  0  0
   -6.0130    1.6017    0.2105 C   0  0  0  0  0  0  0  0  0  0  0  0
   -4.6996    3.7860   -0.0301 C   0  0  0  0  0  0  0  0  0  0  0  0
    4.7747    1.8215    2.9015 C   0  0  0  0  0  0  0  0  0  0  0  0
    1.1598   -5.7744   -1.7228 C   0  0  0  0  0  0  0  0  0  0  0  0
    5.5212    1.0210    2.0368 C   0  0  0  0  0  0  0  0  0  0  0  0
    2.0021   -4.7312   -1.3381 C   0  0  0  0  0  0  0  0  0  0  0  0
   -8.4103    3.0745    0.3509 C   0  0  0  0  0  0  0  0  0  0  0  0
   -7.1109    5.2356    0.1139 C   0  0  0  0  0  0  0  0  0  0  0  0
  1  3  1  0
  1  5  2  0
  1  6  2  0
  1 41  1  0
  2  4  1  0
  2  7  2  0
  2  8  2  0
  2 42  1  0
  9 13  1  0
  9 17  1  0
  9 19  1  0
 10 14  1  0
 10 18  1  0
 10 20  1  0
 11 40  2  3
 11 49  1  0
 11 50  1  0
 12 15  1  0
 12 16  1  0
 12 21  2  3
 13 22  2  0
 13 24  1  0
 14 23  2  0
 14 25  1  0
 15 26  2  0
 15 28  1  0
 16 27  2  0
 16 29  1  0
 17 30  1  0
 18 31  1  0
 19 34  1  0
 20 35  1  0
 21 32  1  0
 21 33  1  0
 22 26  1  0
 23 27  1  0
 24 28  2  0
 25 29  2  0
 30 36  2  0
 30 38  1  0
 31 37  2  0
 31 39  1  0
 32 43  2  0
 33 44  2  0
 36 41  1  0
 37 42  1  0
 38 45  2  0
 39 46  2  0
 40 43  1  0
 40 44  1  0
 41 47  2  0
 42 48  2  0
 45 47  1  0
 46 48  1  0
M  CHG  1  11   1
M  END
>  <PUBCHEM_COMPOUND_CID>  (1) 
15537

>  <PUBCHEM_CONFORMER_RMSD>  (1) 
1.4

>  <PUBCHEM_CONFORMER_DIVERSEORDER>  (1) 
1
32
82
79
116
83
96
173
196
142
113
185
74
151
184
188
190
108
19
89
85
2
51
64
154
159
138
170
198
15
161
68
155
124
141
150
183
10
9
120
62
128
199
81
137
98
73
166
65
201
200
30
127
121
57
78
76
123
147
193
110
172
17
180
67
100
204
66
101
53
12
136
28
149
103
191
139
87
75
60
86
99
133
202
156
11
167
181
104
72
157
174
132
50
148
203
186
171
165
129
31
111
20
117
59
102
140
168
125
33
71
69
178
112
175
43
44
24
131
35
194
114
4
126
160
143
88
197
47
92
6
176
84
115
49
164
42
163
21
25
177
118
70
130
192
105
97
152
27
8
179
119
144
145
52
182
95
3
39
41
63
90
91
26
22
162
189
169
38
48
5
61
106
158
187
134
77
54
13
93
153
58
135
23
205
37
29
46
55
109
146
107
34
80
195
18
45
14
16
7
94
36
40
56
122

>  <PUBCHEM_MMFF94_PARTIAL_CHARGES>  (1) 
69
1 1.49
10 -0.84
11 -0.09
12 -0.06
13 0.1
14 0.1
15 0.03
16 0.03
17 0.51
18 0.51
19 0.37
2 1.49
20 0.37
22 -0.15
23 -0.15
24 -0.15
25 -0.15
26 -0.15
27 -0.15
28 -0.15
29 -0.15
3 -0.68
30 -0.14
31 -0.14
32 -0.15
33 -0.15
36 -0.15
37 -0.15
38 -0.15
39 -0.15
4 -0.68
40 0.37
41 -0.01
42 -0.01
43 -0.14
44 -0.14
45 -0.15
46 -0.15
47 -0.15
48 -0.15
49 0.35
5 -0.65
50 0.35
59 0.15
6 -0.65
60 0.15
61 0.15
62 0.15
63 0.15
64 0.15
65 0.15
66 0.15
67 0.15
68 0.15
7 -0.65
75 0.15
76 0.15
77 0.15
78 0.15
79 0.15
8 -0.65
80 0.15
81 0.15
82 0.15
83 0.15
84 0.15
9 -0.84
91 0.5
92 0.5

>  <PUBCHEM_EFFECTIVE_ROTOR_COUNT>  (1) 
12

>  <PUBCHEM_PHARMACOPHORE_FEATURES>  (1) 
15
1 10 cation
1 3 acceptor
1 4 acceptor
1 5 acceptor
1 6 acceptor
1 7 acceptor
1 8 acceptor
1 9 cation
4 1 3 5 6 anion
4 2 4 7 8 anion
6 13 15 22 24 26 28 rings
6 14 16 23 25 27 29 rings
6 21 32 33 40 43 44 rings
6 30 36 38 41 45 47 rings
6 31 37 39 42 46 48 rings

>  <PUBCHEM_HEAVY_ATOM_COUNT>  (1) 
50

>  <PUBCHEM_ATOM_DEF_STEREO_COUNT>  (1) 
0

>  <PUBCHEM_ATOM_UDEF_STEREO_COUNT>  (1) 
0

>  <PUBCHEM_BOND_DEF_STEREO_COUNT>  (1) 
0

>  <PUBCHEM_BOND_UDEF_STEREO_COUNT>  (1) 
0

>  <PUBCHEM_ISOTOPIC_ATOM_COUNT>  (1) 
0

>  <PUBCHEM_COMPONENT_COUNT>  (1) 
1

>  <PUBCHEM_CACTVS_TAUTO_COUNT>  (1) 
1

>  <PUBCHEM_CONFORMER_ID>  (1) 
00003CB100000001

>  <PUBCHEM_MMFF94_ENERGY>  (1) 
181.5084

>  <PUBCHEM_FEATURE_SELFOVERLAP>  (1) 
76.238

>  <PUBCHEM_SHAPE_FINGERPRINT>  (1) 
10290309 65 18119522133735886420
10653451 467 18117565016182043689
10864689 126 18340497673193006502
11093857 5 18268984444679515272
13008946 267 17907863908271299353
13165053 371 17836082274424510081
1361 2 18266458694186375489
14040221 299 18196926687739206926
14040222 383 18410577309466863304
15001296 14 17468184991853027746
15320467 1 18339079268406350598
15439362 3 18265894645602937393
15538507 32 18122346770165111566
15927050 60 18342451535478370583
16664035 1 17185874442625581495
19301679 30 18049165772075939835
20764821 26 17617383222337170422
3534868 343 17324087417591631669
354706 109 18127104546367717496
463206 1 17110151075992259227
5776283 40 18123202212324778638
6058803 2 17898291860081138533
86090 222 18271808970071735972
9961470 85 18341324531158304002

>  <PUBCHEM_SHAPE_MULTIPOLES>  (1) 
986.52
16.31
11.71
1.77
2.65
13.2
0.12
-19.09
3.38
9.58
-2.75
-2.75
-1.05
0.81

>  <PUBCHEM_SHAPE_SELFOVERLAP>  (1) 
2109.412

>  <PUBCHEM_SHAPE_VOLUME>  (1) 
550.2

>  <PUBCHEM_COORDINATE_TYPE>  (1) 
2
5
10

$$$$
