15548
     RDKit          3D

 26 28  0  0  1  0  0  0  0  0999 V2000
    3.4121   -1.4373    1.6566 O   0  0  0  0  0  0  0  0  0  0  0  0
    3.7360   -1.7943   -1.0792 O   0  0  0  0  0  0  0  0  0  0  0  0
   -1.8201   -2.7655    0.1248 O   0  0  0  0  0  0  0  0  0  0  0  0
   -4.1331   -1.7950   -1.0727 O   0  0  0  0  0  0  0  0  0  0  0  0
   -0.3930    3.1072   -0.1477 N   0  0  0  0  0  0  0  0  0  0  0  0
    0.3042    2.3150    0.9015 C   0  0  0  0  0  0  0  0  0  0  0  0
    1.2255    1.2170    0.3635 C   0  0  0  0  0  0  0  0  0  0  0  0
    0.4439    3.3193   -1.3346 C   0  0  0  0  0  0  0  0  0  0  0  0
    0.7570    1.9779   -1.9895 C   0  0  0  0  0  0  0  0  0  0  0  0
    1.4375    1.0589   -1.0170 C   0  0  0  0  0  0  0  0  0  0  0  0
   -0.7648    1.6893    1.8182 C   0  0  0  0  0  0  0  0  0  0  0  0
    1.9223    0.3754    1.2481 C   0  0  0  0  0  0  0  0  0  0  0  0
   -0.8419    4.4084    0.3627 C   0  0  0  0  0  0  0  0  0  0  0  0
   -1.6576    0.7609    1.0517 C   0  0  0  0  0  0  0  0  0  0  0  0
    2.2686    0.0335   -1.4909 C   0  0  0  0  0  0  0  0  0  0  0  0
    2.7610   -0.6331    0.7703 C   0  0  0  0  0  0  0  0  0  0  0  0
    2.9266   -0.8102   -0.5992 C   0  0  0  0  0  0  0  0  0  0  0  0
   -1.3225   -0.5848    0.9419 C   0  0  0  0  0  0  0  0  0  0  0  0
   -2.8141    1.2523    0.4547 C   0  0  0  0  0  0  0  0  0  0  0  0
   -2.1529   -1.4484    0.2278 C   0  0  0  0  0  0  0  0  0  0  0  0
   -3.6444    0.3888   -0.2595 C   0  0  0  0  0  0  0  0  0  0  0  0
   -3.3138   -0.9617   -0.3730 C   0  0  0  0  0  0  0  0  0  0  0  0
    2.7418   -2.6284    2.0642 C   0  0  0  0  0  0  0  0  0  0  0  0
    5.1064   -1.4607   -1.2925 C   0  0  0  0  0  0  0  0  0  0  0  0
   -1.0087   -3.1440   -0.9854 C   0  0  0  0  0  0  0  0  0  0  0  0
   -5.1762   -2.4403   -0.3449 C   0  0  0  0  0  0  0  0  0  0  0  0
  1 16  1  0
  1 23  1  0
  2 17  1  0
  2 24  1  0
  3 20  1  0
  3 25  1  0
  4 22  1  0
  4 26  1  0
  5  6  1  0
  5  8  1  0
  5 13  1  0
  6  7  1  0
  6 11  1  0
  7 10  2  0
  7 12  1  0
  8  9  1  0
  9 10  1  0
 10 15  1  0
 11 14  1  0
 12 16  2  0
 14 18  2  0
 14 19  1  0
 15 17  2  0
 16 17  1  0
 18 20  1  0
 19 21  2  0
 20 22  2  0
 21 22  1  0
M  END
>  <PUBCHEM_COMPOUND_CID>  (1) 
15548

>  <PUBCHEM_CONFORMER_RMSD>  (1) 
0.8

>  <PUBCHEM_CONFORMER_DIVERSEORDER>  (1) 
10
26
72
46
35
2
71
69
47
67
45
16
19
3
79
30
36
48
64
12
5
31
9
29
73
33
11
74
25
1
18
13
56
27
53
76
32
68
62
77
20
4
52
28
63
8
23
24
70
66
49
61
34
43
75
65
21
14
60
7
44
42
15
80
38
55
51
22
58
37
6
78
54
17
41
57
39
40
50
59

>  <PUBCHEM_MMFF94_PARTIAL_CHARGES>  (1) 
31
1 -0.36
10 -0.14
11 0.14
12 -0.15
13 0.27
14 -0.14
15 -0.15
16 0.08
17 0.08
18 -0.15
19 -0.15
2 -0.36
20 0.08
21 -0.15
22 0.08
23 0.28
24 0.28
25 0.28
26 0.28
3 -0.36
34 0.15
38 0.15
39 0.15
4 -0.36
40 0.15
41 0.15
5 -0.81
6 0.41
7 -0.14
8 0.27
9 0.14

>  <PUBCHEM_EFFECTIVE_ROTOR_COUNT>  (1) 
6.8

>  <PUBCHEM_PHARMACOPHORE_FEATURES>  (1) 
8
1 1 acceptor
1 2 acceptor
1 3 acceptor
1 4 acceptor
1 5 cation
6 14 18 19 20 21 22 rings
6 5 6 7 8 9 10 rings
6 7 10 12 15 16 17 rings

>  <PUBCHEM_HEAVY_ATOM_COUNT>  (1) 
26

>  <PUBCHEM_ATOM_DEF_STEREO_COUNT>  (1) 
0

>  <PUBCHEM_ATOM_UDEF_STEREO_COUNT>  (1) 
1

>  <PUBCHEM_BOND_DEF_STEREO_COUNT>  (1) 
0

>  <PUBCHEM_BOND_UDEF_STEREO_COUNT>  (1) 
0

>  <PUBCHEM_ISOTOPIC_ATOM_COUNT>  (1) 
0

>  <PUBCHEM_COMPONENT_COUNT>  (1) 
1

>  <PUBCHEM_CACTVS_TAUTO_COUNT>  (1) 
1

>  <PUBCHEM_CONFORMER_ID>  (1) 
00003CBC0000000A

>  <PUBCHEM_MMFF94_ENERGY>  (1) 
116.7683

>  <PUBCHEM_FEATURE_SELFOVERLAP>  (1) 
40.627

>  <PUBCHEM_SHAPE_FINGERPRINT>  (1) 
104564 63 18120098286118140344
11578080 2 18116692076801210908
12035759 4 17968672510175898910
12156800 1 16385568107240186403
12403259 327 16198202533931678738
12422481 6 17326063849676701585
12553582 1 18334020458150612530
12633257 1 17916583116486777690
12788726 201 18192437367996952248
13004483 165 18190717809304722792
13911987 19 16519108343431650782
14251757 17 14418136175515572102
14341114 328 11671772806284063071
16752209 62 18121781629872619912
17980427 23 17474070655636301889
18981168 100 15069174744621781385
20567600 347 17111274776801544979
20600515 1 18271226309632510115
20626108 58 18272645796692881815
20775438 99 17550650550027895055
20775530 9 18411696612636560575
21452121 199 18339641238764506001
23419403 2 17483347029303301673
23559900 14 17988641840254247016
238 59 17682690866651019891
3027735 51 17908409265420367325
35225 105 17842263783922825814
4280585 95 18409167710560254148
460360 51 18196943382297913019
484985 159 17103933960702947658
8988823 20 11887138534663907699
90525 40 17755317672900190184

>  <PUBCHEM_SHAPE_MULTIPOLES>  (1) 
506.61
7.36
4.49
1.78
0.98
2.54
-0.18
-7.89
1.76
1.39
0.33
-1.35
-0.06
-1.27

>  <PUBCHEM_SHAPE_SELFOVERLAP>  (1) 
1077.18

>  <PUBCHEM_SHAPE_VOLUME>  (1) 
284.8

>  <PUBCHEM_COORDINATE_TYPE>  (1) 
2
5
10

$$$$
