1554
     RDKit          2D

 16 15  0  0  1  0  0  0  0  0999 V2000
    0.0000    0.0000    0.0000 P   0  0  0  0  0  0  0  0  0  0  0  0
    0.0000    0.0000    0.0000 O   0  0  0  0  0  0  0  0  0  0  0  0
    0.0000    0.0000    0.0000 O   0  0  0  0  0  0  0  0  0  0  0  0
    0.0000    0.0000    0.0000 O   0  0  0  0  0  0  0  0  0  0  0  0
    0.0000    0.0000    0.0000 O   0  0  0  0  0  0  0  0  0  0  0  0
    0.0000    0.0000    0.0000 O   0  0  0  0  0  0  0  0  0  0  0  0
    0.0000    0.0000    0.0000 O   0  0  0  0  0  0  0  0  0  0  0  0
    0.0000    0.0000    0.0000 O   0  0  0  0  0  0  0  0  0  0  0  0
    0.0000    0.0000    0.0000 O   0  0  0  0  0  0  0  0  0  0  0  0
    0.0000    0.0000    0.0000 N   0  0  0  0  0  0  0  0  0  0  0  0
    0.0000    0.0000    0.0000 C   0  0  0  0  0  0  0  0  0  0  0  0
    0.0000    0.0000    0.0000 C   0  0  0  0  0  0  0  0  0  0  0  0
    0.0000    0.0000    0.0000 C   0  0  0  0  0  0  0  0  0  0  0  0
    0.0000    0.0000    0.0000 C   0  0  0  0  0  0  0  0  0  0  0  0
    0.0000    0.0000    0.0000 C   0  0  0  0  0  0  0  0  0  0  0  0
    0.0000    0.0000    0.0000 C   0  0  0  0  0  0  0  0  0  0  0  0
  1  5  1  0
  1  7  1  0
  1  8  1  0
  1  9  2  0
  2 11  1  0
  3 12  1  0
  4 14  1  0
  5 15  1  0
  6 16  1  0
 10 13  1  0
 11 12  1  0
 11 13  1  0
 12 14  1  0
 13 16  1  0
 14 15  1  0
M  END
>  <PUBCHEM_COMPOUND_CID>  (1) 
1554

>  <PUBCHEM_CONFORMER_RMSD>  (1) 
0.8

>  <PUBCHEM_CONFORMER_DIVERSEORDER>  (1) 
16
107
340
267
218
84
269
29
63
347
167
239
115
381
37
272
137
380
120
390
331
365
2
99
117
223
74
10
299
211
386
286
362
54
260
229
319
373
330
369
322
33
79
318
8
317
288
389
53
235
262
220
387
1
97
396
253
39
73
75
100
7
241
3
21
131
78
372
360
263
13
140
238
352
210
350
202
136
196
367
338
12
62
119
231
230
247
179
336
91
224
325
195
130
153
287
240
69
181
351
356
19
49
334
298
189
343
388
397
197
11
232
261
207
105
265
264
146
18
226
147
339
64
280
103
310
123
125
326
83
243
192
378
154
266
56
25
6
392
70
42
41
208
370
143
256
277
200
327
358
245
31
306
142
80
284
71
296
328
249
185
183
297
273
395
101
323
255
109
164
225
295
180
43
193
15
371
17
104
278
165
26
212
305
124
158
379
35
274
355
309
391
177
259
98
254
346
96
85
205
184
364
293
144
384
20
366
354
159
324
55
30
289
237
60
93
133
385
311
126
335
393
48
66
127
113
172
337
234
171
216
353
302
321
307
332
214
40
114
151
173
45
314
89
182
206
106
111
174
377
221
281
168
51
28
394
47
283
58
129
52
227
175
88
290
81
361
95
251
291
233
94
139
257
357
374
316
169
186
32
166
198
134
258
246
215
329
383
122
61
345
108
163
138
342
152
303
77
313
57
276
282
375
141
341
268
44
312
304
348
300
76
359
4
271
242
252
308
209
236
161
244
5
112
248
67
349
187
363
132
135
213
50
86
38
87
382
315
110
116
82
344
150
228
9
320
178
156
92
128
219
194
279
68
188
170
294
368
376
160
285
36
157
148
162
222
292
333
72
121
23
14
65
176
155
46
275
217
301
22
199
34
190
24
203
191
250
59
145
27
270
149
102
201
118
204
90

>  <PUBCHEM_MMFF94_PARTIAL_CHARGES>  (1) 
24
1 1.51
10 -0.99
11 0.28
12 0.28
13 0.27
14 0.28
15 0.28
16 0.28
2 -0.68
25 0.36
26 0.36
27 0.4
28 0.4
29 0.4
3 -0.68
30 0.4
31 0.5
32 0.5
4 -0.68
5 -0.55
6 -0.68
7 -0.77
8 -0.77
9 -0.7

>  <PUBCHEM_EFFECTIVE_ROTOR_COUNT>  (1) 
7

>  <PUBCHEM_PHARMACOPHORE_FEATURES>  (1) 
14
1 10 cation
1 10 donor
1 2 acceptor
1 2 donor
1 3 acceptor
1 3 donor
1 4 acceptor
1 4 donor
1 6 acceptor
1 6 donor
1 7 acceptor
1 8 acceptor
1 9 acceptor
4 1 7 8 9 anion

>  <PUBCHEM_HEAVY_ATOM_COUNT>  (1) 
16

>  <PUBCHEM_ATOM_DEF_STEREO_COUNT>  (1) 
0

>  <PUBCHEM_ATOM_UDEF_STEREO_COUNT>  (1) 
4

>  <PUBCHEM_BOND_DEF_STEREO_COUNT>  (1) 
0

>  <PUBCHEM_BOND_UDEF_STEREO_COUNT>  (1) 
0

>  <PUBCHEM_ISOTOPIC_ATOM_COUNT>  (1) 
0

>  <PUBCHEM_COMPONENT_COUNT>  (1) 
1

>  <PUBCHEM_CACTVS_TAUTO_COUNT>  (1) 
1

$$$$
