15542
     RDKit          3D

 13 13  0  0  0  0  0  0  0  0999 V2000
    0.9008   -1.6835   -1.2015 O   0  0  0  0  0  0  0  0  0  0  0  0
    1.6532    0.1829   -0.0118 N   0  0  0  0  0  0  0  0  0  0  0  0
    3.0715   -0.0372   -0.2576 C   0  0  0  0  0  0  0  0  0  0  0  0
    1.3252    1.3576    0.7931 C   0  0  0  0  0  0  0  0  0  0  0  0
    0.6627   -0.6797   -0.5167 C   0  0  0  0  0  0  0  0  0  0  0  0
   -0.7324   -0.4026   -0.2147 C   0  0  0  0  0  0  0  0  0  0  0  0
    3.6939   -0.9007    0.8201 C   0  0  0  0  0  0  0  0  0  0  0  0
    1.1186    2.5833   -0.0726 C   0  0  0  0  0  0  0  0  0  0  0  0
   -1.4830    0.4073   -1.0672 C   0  0  0  0  0  0  0  0  0  0  0  0
   -1.3206   -0.9472    0.9270 C   0  0  0  0  0  0  0  0  0  0  0  0
   -2.8213    0.6730   -0.7778 C   0  0  0  0  0  0  0  0  0  0  0  0
   -2.6591   -0.6815    1.2161 C   0  0  0  0  0  0  0  0  0  0  0  0
   -3.4094    0.1285    0.3637 C   0  0  0  0  0  0  0  0  0  0  0  0
  1  5  2  0
  2  3  1  0
  2  4  1  0
  2  5  1  0
  3  7  1  0
  4  8  1  0
  5  6  1  0
  6  9  2  0
  6 10  1  0
  9 11  1  0
 10 12  2  0
 11 13  2  0
 12 13  1  0
M  END
>  <PUBCHEM_COMPOUND_CID>  (1) 
15542

>  <PUBCHEM_CONFORMER_RMSD>  (1) 
0.6

>  <PUBCHEM_CONFORMER_DIVERSEORDER>  (1) 
1
6
5
2
3
4

>  <PUBCHEM_MMFF94_PARTIAL_CHARGES>  (1) 
16
1 -0.57
10 -0.15
11 -0.15
12 -0.15
13 -0.15
2 -0.66
24 0.15
25 0.15
26 0.15
27 0.15
28 0.15
3 0.3
4 0.3
5 0.54
6 0.09
9 -0.15

>  <PUBCHEM_EFFECTIVE_ROTOR_COUNT>  (1) 
4

>  <PUBCHEM_PHARMACOPHORE_FEATURES>  (1) 
2
1 1 acceptor
6 6 9 10 11 12 13 rings

>  <PUBCHEM_HEAVY_ATOM_COUNT>  (1) 
13

>  <PUBCHEM_ATOM_DEF_STEREO_COUNT>  (1) 
0

>  <PUBCHEM_ATOM_UDEF_STEREO_COUNT>  (1) 
0

>  <PUBCHEM_BOND_DEF_STEREO_COUNT>  (1) 
0

>  <PUBCHEM_BOND_UDEF_STEREO_COUNT>  (1) 
0

>  <PUBCHEM_ISOTOPIC_ATOM_COUNT>  (1) 
0

>  <PUBCHEM_COMPONENT_COUNT>  (1) 
1

>  <PUBCHEM_CACTVS_TAUTO_COUNT>  (1) 
1

>  <PUBCHEM_CONFORMER_ID>  (1) 
00003CB600000001

>  <PUBCHEM_MMFF94_ENERGY>  (1) 
31.3798

>  <PUBCHEM_FEATURE_SELFOVERLAP>  (1) 
10.148

>  <PUBCHEM_SHAPE_FINGERPRINT>  (1) 
10130415 120 18334007264327557592
10219947 1 18201718436120553062
10465860 250 18187354394914407608
10857977 72 17531534290690010209
12251169 10 18337677532540349259
124424 183 18188201026972523666
12696612 119 18339368564249326093
12932764 1 18262241130622328042
13581323 91 17240486909480987819
15219456 202 18261110836974569145
15653759 3 18040434412262487113
15775835 57 16128383648868767683
16945 1 18130794446817846991
17357990 137 16772698639508773977
17841504 4 18261955249109366240
18175812 5 18261677077299973279
19422 9 15285362795053885850
20201158 50 18410013208683687635
20511035 2 18265052624936060828
20645464 45 18261396620315011643
20671657 1 18124879211984845260
21061003 4 18341057336847424112
21130352 189 18410287021381038296
21501502 16 18194686088440139023
21524375 3 17478053121454963032
23175994 123 18337111168414832164
23402539 116 18260818285968032551
31174 14 18191314985863185689
3286 77 18410008883809804701
449060 23 14923943444584532234
5084963 1 17987507276928772383
77492 1 16630807690367390695
81228 2 18052266089849854056

>  <PUBCHEM_SHAPE_MULTIPOLES>  (1) 
256.68
5.44
1.73
1.15
0.75
1.05
-0.02
-0.78
1.01
0.86
0.08
-0.27
-0.22
0.52

>  <PUBCHEM_SHAPE_SELFOVERLAP>  (1) 
518.876

>  <PUBCHEM_SHAPE_VOLUME>  (1) 
150.8

>  <PUBCHEM_COORDINATE_TYPE>  (1) 
2
5
10

$$$$
