15547
     RDKit          3D

 23 24  0  0  0  0  0  0  0  0999 V2000
   -2.6808   -1.6024    0.3882 O   0  0  0  0  0  0  0  0  0  0  0  0
   -3.3422    0.9869   -0.3622 O   0  0  0  0  0  0  0  0  0  0  0  0
    2.3977   -1.6046    0.5809 O   0  0  0  0  0  0  0  0  0  0  0  0
    4.7992   -0.9234   -0.1915 O   0  0  0  0  0  0  0  0  0  0  0  0
    5.3204    1.2495    0.4135 O   0  0  0  0  0  0  0  0  0  0  0  0
    1.3315    2.1484   -0.5135 N   0  0  0  0  0  0  0  0  0  0  0  0
    0.6354   -0.0988    0.0908 C   0  0  0  0  0  0  0  0  0  0  0  0
    0.3109    1.2169   -0.2903 C   0  0  0  0  0  0  0  0  0  0  0  0
   -1.7049   -0.6775    0.1657 C   0  0  0  0  0  0  0  0  0  0  0  0
   -2.0374    0.6241   -0.2111 C   0  0  0  0  0  0  0  0  0  0  0  0
   -0.3681   -1.0444    0.3181 C   0  0  0  0  0  0  0  0  0  0  0  0
   -1.0344    1.5683   -0.4385 C   0  0  0  0  0  0  0  0  0  0  0  0
   -2.6623   -2.7722   -0.4270 C   0  0  0  0  0  0  0  0  0  0  0  0
   -3.8205    2.0443    0.4664 C   0  0  0  0  0  0  0  0  0  0  0  0
    2.0687   -0.4725    0.2494 C   0  0  0  0  0  0  0  0  0  0  0  0
    3.0841    0.5892   -0.0115 C   0  0  0  0  0  0  0  0  0  0  0  0
    2.6468    1.8039   -0.3686 C   0  0  0  0  0  0  0  0  0  0  0  0
   -2.4761   -3.9958    0.4572 C   0  0  0  0  0  0  0  0  0  0  0  0
   -3.9525   -2.8439   -1.2295 C   0  0  0  0  0  0  0  0  0  0  0  0
   -4.2762    3.2005   -0.4107 C   0  0  0  0  0  0  0  0  0  0  0  0
   -4.9465    1.5217    1.3454 C   0  0  0  0  0  0  0  0  0  0  0  0
    4.5267    0.3741    0.1018 C   0  0  0  0  0  0  0  0  0  0  0  0
    6.1805   -1.2924   -0.1231 C   0  0  0  0  0  0  0  0  0  0  0  0
  1  9  1  0
  1 13  1  0
  2 10  1  0
  2 14  1  0
  3 15  2  0
  4 22  1  0
  4 23  1  0
  5 22  2  0
  6  8  1  0
  6 17  1  0
  7  8  2  0
  7 11  1  0
  7 15  1  0
  8 12  1  0
  9 10  1  0
  9 11  2  0
 10 12  2  0
 13 18  1  0
 13 19  1  0
 14 20  1  0
 14 21  1  0
 15 16  1  0
 16 17  2  0
 16 22  1  0
M  END
>  <PUBCHEM_COMPOUND_CID>  (1) 
15547

>  <PUBCHEM_CONFORMER_RMSD>  (1) 
0.8

>  <PUBCHEM_CONFORMER_DIVERSEORDER>  (1) 
1
5
14
13
19
11
17
8
18
12
16
10
7
4
3
2
9
15
6

>  <PUBCHEM_MMFF94_PARTIAL_CHARGES>  (1) 
23
1 -0.36
10 0.08
11 -0.15
12 -0.15
13 0.28
14 0.28
15 0.47
16 0.03
17 -0.05
2 -0.36
22 0.71
23 0.28
24 0.15
25 0.15
28 0.4
29 0.15
3 -0.57
4 -0.43
5 -0.57
6 -0.6
7 0.09
8 0.1
9 0.08

>  <PUBCHEM_EFFECTIVE_ROTOR_COUNT>  (1) 
6

>  <PUBCHEM_PHARMACOPHORE_FEATURES>  (1) 
11
1 1 acceptor
1 16 anion
1 2 acceptor
1 3 acceptor
1 5 acceptor
1 6 cation
1 6 donor
3 13 18 19 hydrophobe
3 14 20 21 hydrophobe
6 6 7 8 15 16 17 rings
6 7 8 9 10 11 12 rings

>  <PUBCHEM_HEAVY_ATOM_COUNT>  (1) 
23

>  <PUBCHEM_ATOM_DEF_STEREO_COUNT>  (1) 
0

>  <PUBCHEM_ATOM_UDEF_STEREO_COUNT>  (1) 
0

>  <PUBCHEM_BOND_DEF_STEREO_COUNT>  (1) 
0

>  <PUBCHEM_BOND_UDEF_STEREO_COUNT>  (1) 
0

>  <PUBCHEM_ISOTOPIC_ATOM_COUNT>  (1) 
0

>  <PUBCHEM_COMPONENT_COUNT>  (1) 
1

>  <PUBCHEM_CACTVS_TAUTO_COUNT>  (1) 
4

>  <PUBCHEM_CONFORMER_ID>  (1) 
00003CBB00000001

>  <PUBCHEM_MMFF94_ENERGY>  (1) 
79.4441

>  <PUBCHEM_FEATURE_SELFOVERLAP>  (1) 
55.849

>  <PUBCHEM_SHAPE_FINGERPRINT>  (1) 
10062212 137 18260827124588643354
10493431 412 18338520746711709873
10616163 171 18411418453079313647
1100329 8 18410578383309284472
11405975 8 18412824686012769104
12293681 4 17632303345527416521
12616971 3 17530685412058348468
12643181 29 18339645517554324486
13140716 1 18337958985973950424
13544592 145 18127986208595902870
13583140 156 17417521531785475432
138480 1 16968856663875644459
14178342 30 18337092570905786520
14790565 3 18122066390383858376
14866123 147 18410012130890087387
15042514 8 18336835290154944227
15131766 46 15504660513725501535
15196674 1 18409448111758288756
15927050 60 18339642214307982511
17492 89 18193276510465612430
19141452 34 18410014312537820516
200 152 18268422623833208343
20286276 3 18337960115961649860
20739085 24 17831322509408270937
20775438 99 15969013055435019143
21033648 29 18268135483874431433
21065198 57 18411699907034660504
21236236 1 18413387661498734007
21267235 1 18335427888895282923
21307412 95 17914353281479313902
21478907 32 18193839473525397271
221490 88 17974007546441393026
22224240 67 18270691870769375489
23402539 116 18271800177472328053
23557571 272 18201723989217874130
23558518 356 18043819894611506729
23559900 14 18267854167599799105
23622692 118 18269549601834630807
25147074 1 18188781685076509501
312423 11 18043259130653845564
335352 9 18336828581226338436
34934 24 18262233326951490512
350125 39 18410577331537818217
4214541 1 18411981364414484688
5104073 3 18411412943305653920
532947 4 18052543162484911023
53777708 50 18191596452023569604
559249 180 18411697651955355502
5924683 9 18270960258099558695
59755656 215 18196376918855333302
59755656 520 18337948996523247533
633830 44 17240491320892500696
7164475 11 18193556898641160445
7226269 152 17988361447145695296
7832392 63 18409165506551272408
9709674 26 18263365953009344138

>  <PUBCHEM_SHAPE_MULTIPOLES>  (1) 
439
11.35
3.85
0.85
11.53
2.51
-0.02
-1
-0.73
-6.05
0.34
-0.75
0.06
-0.8

>  <PUBCHEM_SHAPE_SELFOVERLAP>  (1) 
923.901

>  <PUBCHEM_SHAPE_VOLUME>  (1) 
247.6

>  <PUBCHEM_COORDINATE_TYPE>  (1) 
2
5
10

$$$$
