15557
     RDKit          3D

 23 24  0  0  0  0  0  0  0  0999 V2000
   -2.9913    0.1128   -2.4263 O   0  0  0  0  0  0  0  0  0  0  0  0
    1.1151   -2.3945    0.1600 O   0  0  0  0  0  0  0  0  0  0  0  0
    1.1475    2.3919    0.3304 O   0  0  0  0  0  0  0  0  0  0  0  0
    2.4382   -0.0275    0.7237 O   0  0  0  0  0  0  0  0  0  0  0  0
    4.6498   -0.0275    0.3078 O   0  0  0  0  0  0  0  0  0  0  0  0
    3.1976    0.0462   -1.4809 O   0  0  0  0  0  0  0  0  0  0  0  0
   -3.8635    0.0496   -0.2751 N   0  0  0  0  0  0  0  0  0  0  0  0
   -5.1218   -0.4079    1.6644 C   0  0  0  0  0  0  0  0  0  0  0  0
   -6.0435    0.1862    0.6068 C   0  0  0  0  0  0  0  0  0  0  0  0
   -3.7395    0.0070    1.1806 C   0  0  0  0  0  0  0  0  0  0  0  0
   -5.2600   -0.0235   -0.6795 C   0  0  0  0  0  0  0  0  0  0  0  0
   -2.8377    0.0772   -1.2070 C   0  0  0  0  0  0  0  0  0  0  0  0
   -1.4563    0.0495   -0.7000 C   0  0  0  0  0  0  0  0  0  0  0  0
   -0.7991    1.2440   -0.4193 C   0  0  0  0  0  0  0  0  0  0  0  0
   -0.8148   -1.1703   -0.5061 C   0  0  0  0  0  0  0  0  0  0  0  0
    0.4951   -1.1960   -0.0273 C   0  0  0  0  0  0  0  0  0  0  0  0
    0.5109    1.2183    0.0593 C   0  0  0  0  0  0  0  0  0  0  0  0
    1.1580   -0.0017    0.2554 C   0  0  0  0  0  0  0  0  0  0  0  0
    0.9732   -3.0043    1.4414 C   0  0  0  0  0  0  0  0  0  0  0  0
    1.0147    2.9107    1.6522 C   0  0  0  0  0  0  0  0  0  0  0  0
    3.4189    0.0015   -0.2773 C   0  0  0  0  0  0  0  0  0  0  0  0
    5.7623   -0.0023   -0.5925 C   0  0  0  0  0  0  0  0  0  0  0  0
    7.0460   -0.0394    0.2091 C   0  0  0  0  0  0  0  0  0  0  0  0
  1 12  2  0
  2 16  1  0
  2 19  1  0
  3 17  1  0
  3 20  1  0
  4 18  1  0
  4 21  1  0
  5 21  1  0
  5 22  1  0
  6 21  2  0
  7 10  1  0
  7 11  1  0
  7 12  1  0
  8  9  1  0
  8 10  1  0
  9 11  1  0
 12 13  1  0
 13 14  2  0
 13 15  1  0
 14 17  1  0
 15 16  2  0
 16 18  1  0
 17 18  2  0
 22 23  1  0
M  END
>  <PUBCHEM_COMPOUND_CID>  (1) 
15557

>  <PUBCHEM_CONFORMER_RMSD>  (1) 
1

>  <PUBCHEM_CONFORMER_DIVERSEORDER>  (1) 
1
8
18
5
14
15
9
11
13
16
10
7
6
12
2
17
3
4

>  <PUBCHEM_MMFF94_PARTIAL_CHARGES>  (1) 
22
1 -0.57
10 0.3
11 0.3
12 0.54
13 0.09
14 -0.15
15 -0.15
16 0.08
17 0.08
18 0.08
19 0.28
2 -0.36
20 0.28
21 0.87
22 0.28
3 -0.36
32 0.15
33 0.15
4 -0.23
5 -0.43
6 -0.57
7 -0.66

>  <PUBCHEM_EFFECTIVE_ROTOR_COUNT>  (1) 
9

>  <PUBCHEM_PHARMACOPHORE_FEATURES>  (1) 
5
1 1 acceptor
1 2 acceptor
1 3 acceptor
5 7 8 9 10 11 rings
6 13 14 15 16 17 18 rings

>  <PUBCHEM_HEAVY_ATOM_COUNT>  (1) 
23

>  <PUBCHEM_ATOM_DEF_STEREO_COUNT>  (1) 
0

>  <PUBCHEM_ATOM_UDEF_STEREO_COUNT>  (1) 
0

>  <PUBCHEM_BOND_DEF_STEREO_COUNT>  (1) 
0

>  <PUBCHEM_BOND_UDEF_STEREO_COUNT>  (1) 
0

>  <PUBCHEM_ISOTOPIC_ATOM_COUNT>  (1) 
0

>  <PUBCHEM_COMPONENT_COUNT>  (1) 
1

>  <PUBCHEM_CACTVS_TAUTO_COUNT>  (1) 
1

>  <PUBCHEM_CONFORMER_ID>  (1) 
00003CC500000001

>  <PUBCHEM_MMFF94_ENERGY>  (1) 
83.9079

>  <PUBCHEM_FEATURE_SELFOVERLAP>  (1) 
25.373

>  <PUBCHEM_SHAPE_FINGERPRINT>  (1) 
10366900 7 18260543433904693129
10906281 52 18058182772762509268
11578080 2 17901120929527048752
11646440 116 18272376381968689864
12035758 1 18336262452817802800
12236239 1 17489587878935064965
12553582 1 18270946982170919981
12592029 89 17240201006883651106
13140716 1 18267017448030497635
13533116 47 18341045221853010186
13590594 115 18060142033046844609
14713325 29 17677886834119908148
14790565 3 18411426111080167112
14849402 71 18058453290555501249
14955137 171 17988652903699520257
15048467 5 15913611657580181650
15475509 8 17559980777993399908
15527383 91 18341896307491324265
1601671 61 18202284684308125399
16945 1 18339342124578085245
17980427 23 10159706836244300171
1813 80 18059587870675332940
19141452 34 17060336340206468196
200 152 11602818008622029767
20832881 197 18273497896629767432
21503847 285 17989487446179111713
21521721 280 18334582381960557056
22224240 67 18260550047764276875
23402539 116 17989201551923425620
23536379 177 16056883520190216566
23557571 272 16515682200452997623
23558518 356 17908133631383362503
23559900 14 16588019130668965349
23569943 247 17702114555890698510
23622692 88 17346601880711357845
2748010 2 18048299334915754173
3178227 256 18335713757607479769
347723 3 18131071528454632774
4325135 7 16008751311978416607
474 4 17986379195643085665
474229 33 17967255303600930898
59755656 215 18335990770694106774
59755656 520 18341893004223864287
7495541 125 17530971322966272517

>  <PUBCHEM_SHAPE_MULTIPOLES>  (1) 
433.13
12.97
2.1
1.49
5.43
0.1
0.14
0.19
-0.64
1.26
-1.3
-1.28
-0.07
0.21

>  <PUBCHEM_SHAPE_SELFOVERLAP>  (1) 
901.317

>  <PUBCHEM_SHAPE_VOLUME>  (1) 
247.5

>  <PUBCHEM_COORDINATE_TYPE>  (1) 
2
5
10

$$$$
