15559
     RDKit          3D

  9  8  0  0  0  0  0  0  0  0999 V2000
    1.6175   -1.3679    0.0878 O   0  0  0  0  0  0  0  0  0  0  0  0
   -2.6179    1.3322    0.0507 O   0  0  0  0  0  0  0  0  0  0  0  0
    0.0734    0.4901    0.0528 C   0  0  0  0  0  0  0  0  0  0  0  0
   -1.0650   -0.5253    0.0362 C   0  0  0  0  0  0  0  0  0  0  0  0
    1.4550   -0.1501    0.0347 C   0  0  0  0  0  0  0  0  0  0  0  0
    2.6229    0.8195   -0.0458 C   0  0  0  0  0  0  0  0  0  0  0  0
   -2.4430    0.1160   -0.0070 C   0  0  0  0  0  0  0  0  0  0  0  0
    3.9672    0.1158   -0.0894 C   0  0  0  0  0  0  0  0  0  0  0  0
   -3.6102   -0.8303   -0.1199 C   0  0  0  0  0  0  0  0  0  0  0  0
  1  5  2  0
  2  7  2  0
  3  4  1  0
  3  5  1  0
  4  7  1  0
  5  6  1  0
  6  8  1  0
  7  9  1  0
M  END
>  <PUBCHEM_COMPOUND_CID>  (1) 
15559

>  <PUBCHEM_CONFORMER_RMSD>  (1) 
0.6

>  <PUBCHEM_CONFORMER_DIVERSEORDER>  (1) 
1
78
45
22
75
2
79
3
60
23
59
6
57
19
76
14
27
49
18
48
17
47
73
12
11
72
30
50
67
34
42
68
5
51
64
21
52
40
62
44
24
38
31
71
46
32
29
20
16
13
69
66
35
61
8
26
53
43
70
77
33
10
15
55
58
28
74
65
54
36
9
4
37
25
56
7
41
63
39

>  <PUBCHEM_MMFF94_PARTIAL_CHARGES>  (1) 
8
1 -0.57
2 -0.57
3 0.06
4 0.06
5 0.45
6 0.06
7 0.45
9 0.06

>  <PUBCHEM_EFFECTIVE_ROTOR_COUNT>  (1) 
4

>  <PUBCHEM_PHARMACOPHORE_FEATURES>  (1) 
3
1 1 acceptor
1 2 acceptor
1 8 hydrophobe

>  <PUBCHEM_HEAVY_ATOM_COUNT>  (1) 
9

>  <PUBCHEM_ATOM_DEF_STEREO_COUNT>  (1) 
0

>  <PUBCHEM_ATOM_UDEF_STEREO_COUNT>  (1) 
0

>  <PUBCHEM_BOND_DEF_STEREO_COUNT>  (1) 
0

>  <PUBCHEM_BOND_UDEF_STEREO_COUNT>  (1) 
0

>  <PUBCHEM_ISOTOPIC_ATOM_COUNT>  (1) 
0

>  <PUBCHEM_COMPONENT_COUNT>  (1) 
1

>  <PUBCHEM_CACTVS_TAUTO_COUNT>  (1) 
9

>  <PUBCHEM_CONFORMER_ID>  (1) 
00003CC700000001

>  <PUBCHEM_MMFF94_ENERGY>  (1) 
4.4027

>  <PUBCHEM_FEATURE_SELFOVERLAP>  (1) 
15.223

>  <PUBCHEM_SHAPE_FINGERPRINT>  (1) 
10219947 1 16588023520030505182
11062470 55 12324235074905908278
12932764 1 17274810359712391435
14325111 11 18410855447248534658
14390081 3 18412261739821662305
15310529 11 18343016679653541407
170605 34 18335421283493901602
190213 19 17704355467839844348
20645477 70 18339355254546959991
21293036 1 17775568666954337140
22485316 2 10231762167197849092
23552423 10 18263643961683800267
3248919 1 17168154428951319579
5460574 1 9367349236411243377

>  <PUBCHEM_SHAPE_MULTIPOLES>  (1) 
173.48
6.73
1.13
0.6
0.71
0
0
-0.02
-0.31
-0.26
0.02
0.01
0
-0.08

>  <PUBCHEM_SHAPE_SELFOVERLAP>  (1) 
318.172

>  <PUBCHEM_SHAPE_VOLUME>  (1) 
110

>  <PUBCHEM_COORDINATE_TYPE>  (1) 
2
5
10

$$$$
