15577
     RDKit          3D

 17 17  0  0  0  0  0  0  0  0999 V2000
    5.9374   -1.1948    0.7691 Cl  0  0  0  0  0  0  0  0  0  0  0  0
   -2.7813   -0.2947   -0.2763 O   0  0  0  0  0  0  0  0  0  0  0  0
    0.6109    0.6320   -0.9009 O   0  0  0  0  0  0  0  0  0  0  0  0
   -1.7839    1.7757   -0.4939 O   0  0  0  0  0  0  0  0  0  0  0  0
   -5.1224   -0.7424    0.1320 C   0  0  0  0  0  0  0  0  0  0  0  0
   -4.0447    0.3252   -0.0760 C   0  0  0  0  0  0  0  0  0  0  0  0
   -4.8272   -1.5997    1.3647 C   0  0  0  0  0  0  0  0  0  0  0  0
   -6.4991   -0.0931    0.2545 C   0  0  0  0  0  0  0  0  0  0  0  0
    1.8577    0.2158   -0.5005 C   0  0  0  0  0  0  0  0  0  0  0  0
    2.5761    0.9486    0.4358 C   0  0  0  0  0  0  0  0  0  0  0  0
   -0.4676   -0.2525   -0.6711 C   0  0  0  0  0  0  0  0  0  0  0  0
   -1.7246    0.5537   -0.4755 C   0  0  0  0  0  0  0  0  0  0  0  0
    2.3836   -0.9471   -1.0496 C   0  0  0  0  0  0  0  0  0  0  0  0
    3.8407    0.5114    0.8303 C   0  0  0  0  0  0  0  0  0  0  0  0
    2.0192    2.2013    1.0278 C   0  0  0  0  0  0  0  0  0  0  0  0
    3.6484   -1.3843   -0.6553 C   0  0  0  0  0  0  0  0  0  0  0  0
    4.3767   -0.6552    0.2848 C   0  0  0  0  0  0  0  0  0  0  0  0
  1 17  1  0
  2  6  1  0
  2 12  1  0
  3  9  1  0
  3 11  1  0
  4 12  2  0
  5  6  1  0
  5  7  1  0
  5  8  1  0
  9 10  2  0
  9 13  1  0
 10 14  1  0
 10 15  1  0
 11 12  1  0
 13 16  2  0
 14 17  2  0
 16 17  1  0
M  END
>  <PUBCHEM_COMPOUND_CID>  (1) 
15577

>  <PUBCHEM_CONFORMER_RMSD>  (1) 
0.8

>  <PUBCHEM_CONFORMER_DIVERSEORDER>  (1) 
1
53
134
96
112
113
115
121
141
131
51
103
88
129
8
116
57
43
139
69
49
136
5
14
59
65
138
16
81
12
31
117
21
39
100
27
11
20
62
122
35
85
123
38
36
10
13
2
79
94
58
63
74
133
90
17
75
108
126
48
118
86
107
124
89
105
76
80
45
87
24
67
60
97
4
25
91
54
32
61
52
70
127
23
99
104
19
47
50
84
3
128
73
119
109
26
22
66
28
33
137
9
40
7
42
64
120
68
41
44
132
71
111
125
106
93
18
37
6
78
140
34
114
15
95
46
72
110
82
98
92
101
83
77
135
30
56
102
29
55
130

>  <PUBCHEM_MMFF94_PARTIAL_CHARGES>  (1) 
17
1 -0.18
10 -0.14
11 0.34
12 0.66
13 -0.15
14 -0.15
15 0.14
16 -0.15
17 0.18
2 -0.43
29 0.15
3 -0.36
30 0.15
34 0.15
4 -0.57
6 0.28
9 0.08

>  <PUBCHEM_EFFECTIVE_ROTOR_COUNT>  (1) 
6

>  <PUBCHEM_PHARMACOPHORE_FEATURES>  (1) 
4
1 3 acceptor
1 4 acceptor
3 5 7 8 hydrophobe
6 9 10 13 14 16 17 rings

>  <PUBCHEM_HEAVY_ATOM_COUNT>  (1) 
17

>  <PUBCHEM_ATOM_DEF_STEREO_COUNT>  (1) 
0

>  <PUBCHEM_ATOM_UDEF_STEREO_COUNT>  (1) 
0

>  <PUBCHEM_BOND_DEF_STEREO_COUNT>  (1) 
0

>  <PUBCHEM_BOND_UDEF_STEREO_COUNT>  (1) 
0

>  <PUBCHEM_ISOTOPIC_ATOM_COUNT>  (1) 
0

>  <PUBCHEM_COMPONENT_COUNT>  (1) 
1

>  <PUBCHEM_CACTVS_TAUTO_COUNT>  (1) 
1

>  <PUBCHEM_CONFORMER_ID>  (1) 
00003CD900000001

>  <PUBCHEM_MMFF94_ENERGY>  (1) 
37.9025

>  <PUBCHEM_FEATURE_SELFOVERLAP>  (1) 
20.305

>  <PUBCHEM_SHAPE_FINGERPRINT>  (1) 
10354089 29 17203609289759583366
10688039 33 18343021068936805041
10693767 8 13551736398155573424
11045977 3 18410575123892862747
11545043 162 18260263036664353145
12251169 10 17917990589832844332
12596602 18 16057162813561359319
12633257 1 17988920110747543918
12916748 109 12103852263397189103
13668630 136 15647057062417471971
13675066 3 18409449219791195181
13968360 50 11025790990956972728
14252887 29 17846783962498485790
14341114 176 18272652359297486512
14528608 73 11530486640030143643
15183329 4 14273725249646931095
15188451 53 18337106878196684307
15348495 7 18340210803795297043
15475509 35 17823398450088251962
15880784 105 18272091655992074771
17844677 252 17967536770383437069
18222031 100 16732982024781956580
18785283 64 18270674411178976552
19050596 39 17561078150563419117
200 152 14345791639086550853
20281389 69 12751518466130107706
20645477 56 10303807688230264733
21267235 1 18201722813256678254
21637258 2 16950552252268741874
22224240 67 17846205675348939814
23402539 116 17967810531550924015
23402655 69 11169909485239137420
23503953 91 17346593105860797399
23559900 14 17749675202728169589
26918003 58 18412545414348934811
2916195 48 11959726071124737795
29717793 49 15574715764093338214
300161 21 15410892942775894493
3004659 81 16370445570308936367
3060560 45 11891335340218295320
33382 64 17677327204835323082
3472631 163 12751227129944999786
351380 3 16008749126240931155
42 15 18410856555466141765
465052 167 18409166598190442310
5104073 3 18200022924998115856
5374978 207 18343302578388674477
59755656 215 17968371252458977579
59755656 520 13614516346683860229
7495541 125 18408324410537143556
960060 61 13695582273984531531

>  <PUBCHEM_SHAPE_MULTIPOLES>  (1) 
334.11
14.45
1.65
1.09
13.35
0.49
-0.14
-6.02
-4.59
-0.82
-0.36
-0.14
-0.13
1.11

>  <PUBCHEM_SHAPE_SELFOVERLAP>  (1) 
666.193

>  <PUBCHEM_SHAPE_VOLUME>  (1) 
199.4

>  <PUBCHEM_COORDINATE_TYPE>  (1) 
2
5
10

$$$$
