15573
     RDKit          3D

 12 13  0  0  1  0  0  0  0  0999 V2000
   -1.0031   -0.3345    0.6852 O   0  0  0  0  0  0  0  0  0  0  0  0
   -0.3391    1.7809   -0.0986 O   0  0  0  0  0  0  0  0  0  0  0  0
    1.4584   -0.3708   -0.8988 O   0  0  0  0  0  0  0  0  0  0  0  0
   -3.5754   -1.5439    0.3913 O   0  0  0  0  0  0  0  0  0  0  0  0
   -2.1290    0.3372    0.1149 C   0  0  0  0  0  0  0  0  0  0  0  0
    0.0118    0.6789    0.7534 C   0  0  0  0  0  0  0  0  0  0  0  0
   -1.4914    1.3381   -0.8184 C   0  0  0  0  0  0  0  0  0  0  0  0
   -3.0444   -0.6507   -0.5761 C   0  0  0  0  0  0  0  0  0  0  0  0
    1.3597    0.1309    0.3589 C   0  0  0  0  0  0  0  0  0  0  0  0
    2.5589    0.0234    1.0207 C   0  0  0  0  0  0  0  0  0  0  0  0
    3.4555   -0.5849    0.1101 C   0  0  0  0  0  0  0  0  0  0  0  0
    2.7382   -0.8047   -1.0427 C   0  0  0  0  0  0  0  0  0  0  0  0
  1  5  1  0
  1  6  1  0
  2  6  1  0
  2  7  1  0
  3  9  1  0
  3 12  1  0
  4  8  1  0
  5  7  1  0
  5  8  1  0
  6  9  1  0
  9 10  2  0
 10 11  1  0
 11 12  2  0
M  END
>  <PUBCHEM_COMPOUND_CID>  (1) 
15573

>  <PUBCHEM_CONFORMER_RMSD>  (1) 
0.6

>  <PUBCHEM_CONFORMER_DIVERSEORDER>  (1) 
3
5
19
18
38
11
26
35
8
27
30
17
20
4
6
22
28
23
12
16
36
24
21
15
37
9
34
29
1
13
25
2
14
32
7
10
33
31

>  <PUBCHEM_MMFF94_PARTIAL_CHARGES>  (1) 
16
1 -0.56
10 -0.15
11 -0.15
12 -0.01
19 0.15
2 -0.56
20 0.15
21 0.15
22 0.4
3 -0.28
4 -0.68
5 0.28
6 0.74
7 0.28
8 0.28
9 -0.04

>  <PUBCHEM_EFFECTIVE_ROTOR_COUNT>  (1) 
3

>  <PUBCHEM_PHARMACOPHORE_FEATURES>  (1) 
7
1 1 acceptor
1 2 acceptor
1 3 acceptor
1 4 acceptor
1 4 donor
5 1 2 5 6 7 rings
5 3 9 10 11 12 rings

>  <PUBCHEM_HEAVY_ATOM_COUNT>  (1) 
12

>  <PUBCHEM_ATOM_DEF_STEREO_COUNT>  (1) 
0

>  <PUBCHEM_ATOM_UDEF_STEREO_COUNT>  (1) 
2

>  <PUBCHEM_BOND_DEF_STEREO_COUNT>  (1) 
0

>  <PUBCHEM_BOND_UDEF_STEREO_COUNT>  (1) 
0

>  <PUBCHEM_ISOTOPIC_ATOM_COUNT>  (1) 
0

>  <PUBCHEM_COMPONENT_COUNT>  (1) 
1

>  <PUBCHEM_CACTVS_TAUTO_COUNT>  (1) 
1

>  <PUBCHEM_CONFORMER_ID>  (1) 
00003CD500000003

>  <PUBCHEM_MMFF94_ENERGY>  (1) 
15.6015

>  <PUBCHEM_FEATURE_SELFOVERLAP>  (1) 
35.568

>  <PUBCHEM_SHAPE_FINGERPRINT>  (1) 
10857977 72 18272642446206986232
12251169 10 13326567479941923635
12897270 3 18261109642999742244
12932764 1 18115027394468012608
13296908 3 18202279186697199974
14390081 3 11097850791984993799
15775835 57 11024110936271332582
16945 1 17312825969784353152
17844478 74 17918273130072272264
18186145 218 12252177442176351331
20201158 50 18131066009015553662
20279233 1 18060128804404237951
20281407 28 18343022189980570003
20361792 2 18335138734733000127
20645477 70 16987993878041097685
20653085 51 13334740115500790927
21028194 46 8070027787344113697
21061003 4 17346591971936631856
23402539 116 18113612366110759502
23402655 69 14707196708811283623
23552423 10 17315344826417055027
23557571 272 18410004408375267716
23559900 14 18263630793857084674
29004967 10 17489580139245820200
305870 269 9799422100212110717
449060 23 18340483460845608195
8030462 33 17240485771451713616
81228 2 18268148660854785073

>  <PUBCHEM_SHAPE_MULTIPOLES>  (1) 
223.48
5.68
1.31
1.03
0.28
0.17
0.07
-2.66
0.11
0.86
0.12
-0.29
-0.02
0.56

>  <PUBCHEM_SHAPE_SELFOVERLAP>  (1) 
468.677

>  <PUBCHEM_SHAPE_VOLUME>  (1) 
128

>  <PUBCHEM_COORDINATE_TYPE>  (1) 
2
5
10

$$$$
