15578
     RDKit          3D

 17 17  0  0  0  0  0  0  0  0999 V2000
   -6.0885    1.1458    0.9369 Cl  0  0  0  0  0  0  0  0  0  0  0  0
    2.6286    0.3130   -0.1632 O   0  0  0  0  0  0  0  0  0  0  0  0
   -0.7664   -0.4807   -0.9402 O   0  0  0  0  0  0  0  0  0  0  0  0
    1.6141   -1.6949   -0.6807 O   0  0  0  0  0  0  0  0  0  0  0  0
    4.9432    0.6891    0.3207 C   0  0  0  0  0  0  0  0  0  0  0  0
    6.3252    0.0552    0.4508 C   0  0  0  0  0  0  0  0  0  0  0  0
    3.8839   -0.3416   -0.0431 C   0  0  0  0  0  0  0  0  0  0  0  0
    7.3871    1.0947    0.7717 C   0  0  0  0  0  0  0  0  0  0  0  0
   -2.0131   -0.1129   -0.4947 C   0  0  0  0  0  0  0  0  0  0  0  0
   -2.7452   -0.9633    0.3239 C   0  0  0  0  0  0  0  0  0  0  0  0
    0.3179    0.3511   -0.5785 C   0  0  0  0  0  0  0  0  0  0  0  0
    1.5656   -0.4874   -0.4895 C   0  0  0  0  0  0  0  0  0  0  0  0
   -2.5236    1.1213   -0.8769 C   0  0  0  0  0  0  0  0  0  0  0  0
   -4.0089   -0.5734    0.7676 C   0  0  0  0  0  0  0  0  0  0  0  0
   -2.2028   -2.2911    0.7390 C   0  0  0  0  0  0  0  0  0  0  0  0
   -3.7872    1.5112   -0.4331 C   0  0  0  0  0  0  0  0  0  0  0  0
   -4.5299    0.6639    0.3892 C   0  0  0  0  0  0  0  0  0  0  0  0
  1 17  1  0
  2  7  1  0
  2 12  1  0
  3  9  1  0
  3 11  1  0
  4 12  2  0
  5  6  1  0
  5  7  1  0
  6  8  1  0
  9 10  2  0
  9 13  1  0
 10 14  1  0
 10 15  1  0
 11 12  1  0
 13 16  2  0
 14 17  2  0
 16 17  1  0
M  END
>  <PUBCHEM_COMPOUND_CID>  (1) 
15578

>  <PUBCHEM_CONFORMER_RMSD>  (1) 
0.8

>  <PUBCHEM_CONFORMER_DIVERSEORDER>  (1) 
1
60
175
124
165
274
92
59
73
6
223
80
67
281
78
226
216
291
283
70
126
278
52
46
256
138
112
16
301
259
113
243
156
81
162
25
176
41
45
166
184
62
237
260
100
268
48
74
117
169
147
109
151
101
154
286
35
178
12
106
2
282
28
75
50
64
105
311
185
20
72
58
31
235
302
47
30
21
57
314
38
288
130
129
37
212
163
220
255
77
196
295
179
190
98
7
186
84
221
275
119
197
27
299
89
180
207
155
142
285
192
111
164
229
241
94
267
296
139
218
127
22
177
10
40
122
68
231
97
242
211
258
279
55
253
205
188
201
230
14
199
51
33
34
17
249
110
150
143
245
210
145
224
289
102
123
120
108
246
193
290
13
18
195
9
29
135
187
191
313
76
71
140
79
87
148
204
297
294
85
206
65
234
233
61
157
217
115
152
128
146
252
99
228
53
183
104
208
277
213
136
284
5
24
303
293
280
304
232
209
82
248
219
238
194
23
149
214
54
36
91
8
236
215
298
269
305
172
309
95
227
168
141
43
19
44
133
170
15
103
271
200
182
4
264
26
11
251
287
263
307
171
222
66
90
144
137
167
86
161
88
261
181
3
189
306
225
153
240
69
158
63
300
93
96
254
173
107
39
125
276
244
312
116
198
265
118
310
203
159
239
83
257
121
292
272
160
266
308
270
56
49
273
174
134
262
32
247
42
132
250
131
202
114

>  <PUBCHEM_MMFF94_PARTIAL_CHARGES>  (1) 
17
1 -0.18
10 -0.14
11 0.34
12 0.66
13 -0.15
14 -0.15
15 0.14
16 -0.15
17 0.18
2 -0.43
29 0.15
3 -0.36
30 0.15
34 0.15
4 -0.57
7 0.28
9 0.08

>  <PUBCHEM_EFFECTIVE_ROTOR_COUNT>  (1) 
7

>  <PUBCHEM_PHARMACOPHORE_FEATURES>  (1) 
4
1 3 acceptor
1 4 acceptor
1 8 hydrophobe
6 9 10 13 14 16 17 rings

>  <PUBCHEM_HEAVY_ATOM_COUNT>  (1) 
17

>  <PUBCHEM_ATOM_DEF_STEREO_COUNT>  (1) 
0

>  <PUBCHEM_ATOM_UDEF_STEREO_COUNT>  (1) 
0

>  <PUBCHEM_BOND_DEF_STEREO_COUNT>  (1) 
0

>  <PUBCHEM_BOND_UDEF_STEREO_COUNT>  (1) 
0

>  <PUBCHEM_ISOTOPIC_ATOM_COUNT>  (1) 
0

>  <PUBCHEM_COMPONENT_COUNT>  (1) 
1

>  <PUBCHEM_CACTVS_TAUTO_COUNT>  (1) 
1

>  <PUBCHEM_CONFORMER_ID>  (1) 
00003CDA00000001

>  <PUBCHEM_MMFF94_ENERGY>  (1) 
33.1567

>  <PUBCHEM_FEATURE_SELFOVERLAP>  (1) 
20.305

>  <PUBCHEM_SHAPE_FINGERPRINT>  (1) 
10 15 18187367644830844080
106641 1 18412831304910728753
11315181 36 17822008752303384500
12251169 10 18113904861936615655
12616971 3 16732986461757707406
13214271 11 18411415128731980606
13288520 33 7925912582394324259
13668630 136 12685089272673765856
13862211 1 11746932080201820792
1420 363 13623529048392606224
14251718 22 9655576318813649520
14251764 18 18408323306324243192
14341114 176 18261393317632769628
14350574 20 11169917190473821998
14844126 61 18042127733601159403
14849402 71 17386576907321566204
14933364 13 18408323298773785516
15048467 5 17846779602900906304
15348495 7 18337667633474091176
15501527 16 18412544301514691628
15716309 27 16443343178983802424
17780758 139 17458345268673969665
17834072 8 11455890265438842168
1813 80 15357983309239362494
18335252 98 15841553003149491159
19784866 170 18411135818840689126
19784866 240 12757156766273356135
20281389 69 18341610404609007848
20300324 65 11167945761872716643
20612939 158 15410626843861296772
20645477 56 18334856100104699989
20871999 31 11743842426705115067
21307412 95 9222931644833292561
21637258 2 14418426528833216673
220451 1 17676203581519414970
221357 26 9511458909738983434
22224240 67 18407757049320103938
23198884 109 13973968714127491820
23402539 116 18040711493535165743
23559900 14 18191324696964201166
351380 3 13984659257147249032
3545911 37 18410577262564919516
5104073 3 18115873984045708033
5364581 5 18118399785978780104
5924683 9 18339076120137625279

>  <PUBCHEM_SHAPE_MULTIPOLES>  (1) 
334.11
16.49
1.61
0.97
25.44
0.61
-0.03
-7.26
-6.74
-1.37
-0.15
-0.35
-0.04
0.7

>  <PUBCHEM_SHAPE_SELFOVERLAP>  (1) 
663.017

>  <PUBCHEM_SHAPE_VOLUME>  (1) 
199.8

>  <PUBCHEM_COORDINATE_TYPE>  (1) 
2
5
10

$$$$
