15579
     RDKit          3D

 18 18  0  0  0  0  0  0  0  0999 V2000
   -4.2520   -3.0501   -0.6039 Cl  0  0  0  0  0  0  0  0  0  0  0  0
   -0.7655    1.3438    1.1319 O   0  0  0  0  0  0  0  0  0  0  0  0
    1.7514    0.6281    0.0424 O   0  0  0  0  0  0  0  0  0  0  0  0
    0.6208    0.9927   -1.9305 O   0  0  0  0  0  0  0  0  0  0  0  0
   -0.1227    2.0925    0.1090 C   0  0  0  0  0  0  0  0  0  0  0  0
    3.6988   -0.7449    0.3511 C   0  0  0  0  0  0  0  0  0  0  0  0
   -1.2009    2.7389   -0.7591 C   0  0  0  0  0  0  0  0  0  0  0  0
    0.7483    3.1524    0.7760 C   0  0  0  0  0  0  0  0  0  0  0  0
    0.7654    1.1753   -0.7275 C   0  0  0  0  0  0  0  0  0  0  0  0
    2.6735   -0.2232   -0.6456 C   0  0  0  0  0  0  0  0  0  0  0  0
    4.7271   -1.6506   -0.3204 C   0  0  0  0  0  0  0  0  0  0  0  0
   -1.5795    0.3177    0.7282 C   0  0  0  0  0  0  0  0  0  0  0  0
    5.7741   -2.1348    0.6700 C   0  0  0  0  0  0  0  0  0  0  0  0
   -1.0490   -0.9562    0.5603 C   0  0  0  0  0  0  0  0  0  0  0  0
   -2.9269    0.5622    0.4889 C   0  0  0  0  0  0  0  0  0  0  0  0
   -1.8774   -1.9998    0.1474 C   0  0  0  0  0  0  0  0  0  0  0  0
   -3.7552   -0.4815    0.0761 C   0  0  0  0  0  0  0  0  0  0  0  0
   -3.2303   -1.7624   -0.0946 C   0  0  0  0  0  0  0  0  0  0  0  0
  1 18  1  0
  2  5  1  0
  2 12  1  0
  3  9  1  0
  3 10  1  0
  4  9  2  0
  5  7  1  0
  5  8  1  0
  5  9  1  0
  6 10  1  0
  6 11  1  0
 11 13  1  0
 12 14  2  0
 12 15  1  0
 14 16  1  0
 15 17  2  0
 16 18  2  0
 17 18  1  0
M  END
>  <PUBCHEM_COMPOUND_CID>  (1) 
15579

>  <PUBCHEM_CONFORMER_RMSD>  (1) 
0.8

>  <PUBCHEM_CONFORMER_DIVERSEORDER>  (1) 
1
87
49
107
135
44
31
41
94
99
109
62
137
105
150
27
81
136
126
11
2
72
133
60
22
156
38
89
70
14
34
130
29
118
36
152
149
75
9
117
26
79
120
39
158
134
123
82
51
63
124
5
57
98
64
147
153
106
128
115
127
121
91
71
8
144
15
78
151
61
21
33
47
104
116
100
3
125
95
92
18
145
148
20
80
108
74
73
157
97
132
54
96
40
111
88
43
25
52
93
46
6
154
42
146
69
83
155
68
10
122
28
114
19
65
23
141
101
4
30
143
84
142
59
35
48
37
138
55
86
24
17
113
103
90
140
56
16
76
131
66
12
45
129
50
112
58
77
53
67
32
7
110
119
13
85
139
102

>  <PUBCHEM_MMFF94_PARTIAL_CHARGES>  (1) 
17
1 -0.18
10 0.28
12 0.08
14 -0.15
15 -0.15
16 -0.15
17 -0.15
18 0.18
2 -0.36
3 -0.43
34 0.15
35 0.15
36 0.15
37 0.15
4 -0.57
5 0.34
9 0.66

>  <PUBCHEM_EFFECTIVE_ROTOR_COUNT>  (1) 
7

>  <PUBCHEM_PHARMACOPHORE_FEATURES>  (1) 
5
1 13 hydrophobe
1 2 acceptor
1 4 acceptor
3 5 7 8 hydrophobe
6 12 14 15 16 17 18 rings

>  <PUBCHEM_HEAVY_ATOM_COUNT>  (1) 
18

>  <PUBCHEM_ATOM_DEF_STEREO_COUNT>  (1) 
0

>  <PUBCHEM_ATOM_UDEF_STEREO_COUNT>  (1) 
0

>  <PUBCHEM_BOND_DEF_STEREO_COUNT>  (1) 
0

>  <PUBCHEM_BOND_UDEF_STEREO_COUNT>  (1) 
0

>  <PUBCHEM_ISOTOPIC_ATOM_COUNT>  (1) 
0

>  <PUBCHEM_COMPONENT_COUNT>  (1) 
1

>  <PUBCHEM_CACTVS_TAUTO_COUNT>  (1) 
1

>  <PUBCHEM_CONFORMER_ID>  (1) 
00003CDB00000001

>  <PUBCHEM_MMFF94_ENERGY>  (1) 
49.1283

>  <PUBCHEM_FEATURE_SELFOVERLAP>  (1) 
25.371

>  <PUBCHEM_SHAPE_FINGERPRINT>  (1) 
10062212 137 18409735071197597291
11046707 91 18410014299821736666
11578080 2 18114167666570120188
12633257 1 17988375766945669312
13004483 165 18411976970842204482
14178342 30 17631476526005684387
15352361 1 18411981381805831186
17492 89 18123748922800995031
17977361 122 18335703810453185466
20600515 1 18059307452155218328
20621476 91 18338215117335007122
20671657 53 18339082708579845503
20681677 274 18341607093363133832
21452121 71 18338810012548111652
21650355 55 18270121201947423984
22620623 9 17386271104509815468
23402539 116 18271239430863061439
23419403 2 18267560546445331516
23526113 38 17750517466941475137
23559900 14 18411693271484333104
24859131 72 18272090453100473454
257057 1 18411703226553633444
5104073 3 17915192423731462403
559249 180 17680144076247584850
5924683 9 18339074870618224570
7364860 26 17981891053228388929
76465 3 18340766030638098271
88748 71 18191311674581323395

>  <PUBCHEM_SHAPE_MULTIPOLES>  (1) 
354.69
8.84
3.63
1.06
10.3
0.87
-0.24
-11.17
0.48
-0.99
-0.07
0.13
0.33
-0.7

>  <PUBCHEM_SHAPE_SELFOVERLAP>  (1) 
710.234

>  <PUBCHEM_SHAPE_VOLUME>  (1) 
210.8

>  <PUBCHEM_COORDINATE_TYPE>  (1) 
2
5
10

$$$$
