15584
     RDKit          3D

 22 23  0  0  0  0  0  0  0  0999 V2000
   -1.4557    1.6751   -0.1582 O   0  0  0  0  0  0  0  0  0  0  0  0
    1.1320   -0.3073    0.6776 O   0  0  0  0  0  0  0  0  0  0  0  0
    0.8885   -0.2695   -1.6408 O   0  0  0  0  0  0  0  0  0  0  0  0
    6.5445    0.7404   -0.0521 N   0  0  0  0  0  0  0  0  0  0  0  0
   -4.2119    1.2428    0.3691 C   0  0  0  0  0  0  0  0  0  0  0  0
   -3.2383    0.1251    0.1876 C   0  0  0  0  0  0  0  0  0  0  0  0
   -1.8925    0.3848   -0.0715 C   0  0  0  0  0  0  0  0  0  0  0  0
   -0.9980   -0.6724   -0.2394 C   0  0  0  0  0  0  0  0  0  0  0  0
   -3.6898   -1.1914    0.2790 C   0  0  0  0  0  0  0  0  0  0  0  0
   -4.8441    1.2483    1.7731 C   0  0  0  0  0  0  0  0  0  0  0  0
   -5.3170    1.2388   -0.7031 C   0  0  0  0  0  0  0  0  0  0  0  0
   -1.4495   -1.9891   -0.1480 C   0  0  0  0  0  0  0  0  0  0  0  0
   -2.7954   -2.2485    0.1112 C   0  0  0  0  0  0  0  0  0  0  0  0
   -0.5156   -3.1424   -0.3226 C   0  0  0  0  0  0  0  0  0  0  0  0
    0.4093   -0.3966   -0.5082 C   0  0  0  0  0  0  0  0  0  0  0  0
   -1.4873    2.2820   -1.4471 C   0  0  0  0  0  0  0  0  0  0  0  0
    2.4921   -0.0437    0.4952 C   0  0  0  0  0  0  0  0  0  0  0  0
    2.9124    1.2670    0.4557 C   0  0  0  0  0  0  0  0  0  0  0  0
    3.3586   -1.1056    0.3608 C   0  0  0  0  0  0  0  0  0  0  0  0
    5.1717    0.4750    0.1327 C   0  0  0  0  0  0  0  0  0  0  0  0
    4.2698    1.5298    0.2720 C   0  0  0  0  0  0  0  0  0  0  0  0
    4.7162   -0.8426    0.1771 C   0  0  0  0  0  0  0  0  0  0  0  0
  1  7  1  0
  1 16  1  0
  2 15  1  0
  2 17  1  0
  3 15  2  0
  4 20  1  0
  5  6  1  0
  5 10  1  0
  5 11  1  0
  6  7  2  0
  6  9  1  0
  7  8  1  0
  8 12  2  0
  8 15  1  0
  9 13  2  0
 12 13  1  0
 12 14  1  0
 17 18  2  0
 17 19  1  0
 18 21  1  0
 19 22  2  0
 20 21  2  0
 20 22  1  0
M  END
>  <PUBCHEM_COMPOUND_CID>  (1) 
15584

>  <PUBCHEM_CONFORMER_RMSD>  (1) 
0.8

>  <PUBCHEM_CONFORMER_DIVERSEORDER>  (1) 
2
16
13
7
14
20
6
18
11
19
17
12
10
9
15
8
3
4
1
5

>  <PUBCHEM_MMFF94_PARTIAL_CHARGES>  (1) 
28
1 -0.36
12 -0.14
13 -0.15
14 0.14
15 0.63
16 0.28
17 0.08
18 -0.15
19 -0.15
2 -0.23
20 0.1
21 -0.15
22 -0.15
24 0.15
3 -0.57
31 0.15
38 0.15
39 0.15
4 -0.9
40 0.15
41 0.15
42 0.4
43 0.4
5 0.14
6 -0.14
7 0.08
8 0.09
9 -0.15

>  <PUBCHEM_EFFECTIVE_ROTOR_COUNT>  (1) 
5

>  <PUBCHEM_PHARMACOPHORE_FEATURES>  (1) 
7
1 1 acceptor
1 3 acceptor
1 4 cation
1 4 donor
3 5 10 11 hydrophobe
6 17 18 19 20 21 22 rings
6 6 7 8 9 12 13 rings

>  <PUBCHEM_HEAVY_ATOM_COUNT>  (1) 
22

>  <PUBCHEM_ATOM_DEF_STEREO_COUNT>  (1) 
0

>  <PUBCHEM_ATOM_UDEF_STEREO_COUNT>  (1) 
0

>  <PUBCHEM_BOND_DEF_STEREO_COUNT>  (1) 
0

>  <PUBCHEM_BOND_UDEF_STEREO_COUNT>  (1) 
0

>  <PUBCHEM_ISOTOPIC_ATOM_COUNT>  (1) 
0

>  <PUBCHEM_COMPONENT_COUNT>  (1) 
1

>  <PUBCHEM_CACTVS_TAUTO_COUNT>  (1) 
1

>  <PUBCHEM_CONFORMER_ID>  (1) 
00003CE000000002

>  <PUBCHEM_MMFF94_ENERGY>  (1) 
94.5225

>  <PUBCHEM_FEATURE_SELFOVERLAP>  (1) 
35.52

>  <PUBCHEM_SHAPE_FINGERPRINT>  (1) 
10366900 7 17632571639407458609
10411042 1 17763180637418538287
11089746 13 17632287995741275720
11552529 35 18129094700747404967
11595378 159 17313370202740063192
12011746 2 18341606014883360501
12107183 9 17977662009696541698
12236239 1 17749106703318156106
12390115 104 18272385173592632283
12596602 18 15936418844207686160
12616971 3 17022622009537793150
12633257 1 18411408489092348970
12969540 114 18189312638098179613
13140716 1 18336839683933147657
13583140 156 15626215844734174831
13675066 3 17676493821949175267
14341114 176 18335706009887520784
15042514 8 18051133893721941539
15196674 1 18411135865753026394
17980427 23 18411421747835837813
1813 80 16877663461546752846
19784866 170 18335706022571897675
20600515 1 18341629117475808477
20645477 56 18408600353458833460
21033648 144 18270666671257616404
21033648 29 18262219046027735741
21236236 1 18341891926946344751
21267235 1 18263931097184872419
21637258 2 14635163369023096417
22182313 1 17825955810807018151
22224240 67 18411145706493688873
23402539 116 18342449365934232863
23557571 272 18270970153572385422
23559900 14 18202011988830559422
2748010 2 17684377157523054941
34934 24 18040708143898297315
3545911 37 18411418410630365256
4214541 1 18411980291010238466
5104073 3 18410006667722939818
59755656 215 18341618066851561838
59755656 520 18201716237129089383
633830 44 18059294270884262607
77779 3 18411699932862291746

>  <PUBCHEM_SHAPE_MULTIPOLES>  (1) 
430.16
12.04
2.49
1.05
10.03
1.2
0.03
-5.1
-2.29
-1.65
0.34
-0.85
-0.41
-0.02

>  <PUBCHEM_SHAPE_SELFOVERLAP>  (1) 
916.12

>  <PUBCHEM_SHAPE_VOLUME>  (1) 
240.4

>  <PUBCHEM_COORDINATE_TYPE>  (1) 
2
5
10

$$$$
