1559
     RDKit          3D

 27 28  0  0  1  0  0  0  0  0999 V2000
    0.9084   -1.2446   -1.3234 S   0  0  0  0  0  0  0  0  0  0  0  0
    0.9599   -1.0333   -2.7587 O   0  0  0  0  0  0  0  0  0  0  0  0
    0.6762   -2.5827   -0.8109 O   0  0  0  0  0  0  0  0  0  0  0  0
   -1.0220    3.2956   -0.1720 O   0  0  0  0  0  0  0  0  0  0  0  0
   -4.1159   -1.4928   -0.2479 O   0  0  0  0  0  0  0  0  0  0  0  0
   -2.3815    1.6086   -0.9631 O   0  0  0  0  0  0  0  0  0  0  0  0
   -2.2691   -1.7086   -1.6051 O   0  0  0  0  0  0  0  0  0  0  0  0
   -0.2253   -0.1239   -0.6278 N   0  0  0  0  0  0  0  0  0  0  0  0
   -0.7884   -0.5236    0.6542 C   0  0  0  0  0  0  0  0  0  0  0  0
    2.4612   -0.6997   -0.6644 C   0  0  0  0  0  0  0  0  0  0  0  0
    0.0221    1.3141   -0.8225 C   0  0  0  0  0  0  0  0  0  0  0  0
   -2.0080   -1.1716    0.7033 C   0  0  0  0  0  0  0  0  0  0  0  0
   -0.0699   -0.2339    1.7996 C   0  0  0  0  0  0  0  0  0  0  0  0
    3.1937    0.2411   -1.3625 C   0  0  0  0  0  0  0  0  0  0  0  0
    2.9035   -1.2287    0.5331 C   0  0  0  0  0  0  0  0  0  0  0  0
    4.8810    0.1490    0.3645 C   0  0  0  0  0  0  0  0  0  0  0  0
   -1.2775    2.0515   -0.6766 C   0  0  0  0  0  0  0  0  0  0  0  0
    4.4153    0.6696   -0.8430 C   0  0  0  0  0  0  0  0  0  0  0  0
    4.1251   -0.8000    1.0525 C   0  0  0  0  0  0  0  0  0  0  0  0
   -2.5286   -1.5441    1.9426 C   0  0  0  0  0  0  0  0  0  0  0  0
   -0.5905   -0.6066    3.0388 C   0  0  0  0  0  0  0  0  0  0  0  0
   -1.8199   -1.2615    3.1103 C   0  0  0  0  0  0  0  0  0  0  0  0
   -2.7719   -1.4821   -0.4984 C   0  0  0  0  0  0  0  0  0  0  0  0
    6.1875    0.6070    0.9192 C   0  0  0  0  0  0  0  0  0  0  0  0
   -2.1694    4.1279    0.0267 C   0  0  0  0  0  0  0  0  0  0  0  0
   -1.7207    5.4612    0.5859 C   0  0  0  0  0  0  0  0  0  0  0  0
   -4.9752   -1.7878   -1.3542 C   0  0  0  0  0  0  0  0  0  0  0  0
  1  2  2  0
  1  3  2  0
  1  8  1  0
  1 10  1  0
  4 17  1  0
  4 25  1  0
  5 23  1  0
  5 27  1  0
  6 17  2  0
  7 23  2  0
  8  9  1  0
  8 11  1  0
  9 12  2  0
  9 13  1  0
 10 14  2  0
 10 15  1  0
 11 17  1  0
 12 20  1  0
 12 23  1  0
 13 21  2  0
 14 18  1  0
 15 19  2  0
 16 18  2  0
 16 19  1  0
 16 24  1  0
 20 22  2  0
 21 22  1  0
 25 26  1  0
M  END
>  <PUBCHEM_COMPOUND_CID>  (1) 
1559

>  <PUBCHEM_CONFORMER_RMSD>  (1) 
1

>  <PUBCHEM_CONFORMER_DIVERSEORDER>  (1) 
1
62
2
29
70
73
19
23
32
40
30
54
47
66
68
18
8
26
63
35
44
56
48
71
43
25
46
37
69
50
7
75
65
41
60
64
21
38
53
36
61
59
67
6
22
49
16
11
3
17
34
9
42
12
51
31
13
20
4
10
15
33
5
39
57
14
58
24
74
72
55
52
27
28
45

>  <PUBCHEM_MMFF94_PARTIAL_CHARGES>  (1) 
34
1 1.45
10 -0.01
11 0.42
12 0.09
13 -0.15
14 -0.15
15 -0.15
16 -0.14
17 0.66
18 -0.15
19 -0.15
2 -0.65
20 -0.15
21 -0.15
22 -0.15
23 0.63
24 0.14
25 0.28
27 0.28
3 -0.65
30 0.15
31 0.15
32 0.15
33 0.15
34 0.15
35 0.15
36 0.15
37 0.15
4 -0.43
5 -0.43
6 -0.57
7 -0.57
8 -0.69
9 0.2

>  <PUBCHEM_EFFECTIVE_ROTOR_COUNT>  (1) 
9

>  <PUBCHEM_PHARMACOPHORE_FEATURES>  (1) 
6
1 2 acceptor
1 3 acceptor
1 6 acceptor
1 7 acceptor
6 10 14 15 16 18 19 rings
6 9 12 13 20 21 22 rings

>  <PUBCHEM_HEAVY_ATOM_COUNT>  (1) 
27

>  <PUBCHEM_ATOM_DEF_STEREO_COUNT>  (1) 
0

>  <PUBCHEM_ATOM_UDEF_STEREO_COUNT>  (1) 
0

>  <PUBCHEM_BOND_DEF_STEREO_COUNT>  (1) 
0

>  <PUBCHEM_BOND_UDEF_STEREO_COUNT>  (1) 
0

>  <PUBCHEM_ISOTOPIC_ATOM_COUNT>  (1) 
0

>  <PUBCHEM_COMPONENT_COUNT>  (1) 
1

>  <PUBCHEM_CACTVS_TAUTO_COUNT>  (1) 
1

>  <PUBCHEM_CONFORMER_ID>  (1) 
0000061700000001

>  <PUBCHEM_MMFF94_ENERGY>  (1) 
71.6529

>  <PUBCHEM_FEATURE_SELFOVERLAP>  (1) 
30.467

>  <PUBCHEM_SHAPE_FINGERPRINT>  (1) 
10366900 7 18187930616538378026
10906281 52 18188788200863248151
11315181 36 17168145668135862130
11578080 2 17844548607560565497
12160290 23 18044400243709904061
12293681 160 18041541591087342489
12293681 4 18188220874802473291
12403814 3 18343018921389346374
12633257 1 17023183774370507744
12788726 201 18334283258567224697
133893 2 17620215542514375705
13911987 19 18045236065762370654
14028597 1 17822286847816229505
14468879 13 18199183993141517016
17980427 23 17895201008440447044
20600515 1 17986685963392039351
21304303 282 17823684288234886661
23419403 2 16916199187820873601
23558518 356 18117562829452657644
23559900 14 16805884130076617366
4340502 62 16951697870444514061
469060 322 18272656791403178994
59554788 62 17916046623495306875
7226269 152 17749383780469856389
81228 2 17970087576966259669
9981440 41 18198050388210733368

>  <PUBCHEM_SHAPE_MULTIPOLES>  (1) 
519.3
8.61
4.1
2.44
10.44
9.03
1.29
-1.63
-0.22
-5.61
0.37
-1.05
-1.51
-0.24

>  <PUBCHEM_SHAPE_SELFOVERLAP>  (1) 
1081.151

>  <PUBCHEM_SHAPE_VOLUME>  (1) 
296

>  <PUBCHEM_COORDINATE_TYPE>  (1) 
2
5
10

$$$$
