15594
     RDKit          3D

 12 13  0  0  0  0  0  0  0  0999 V2000
    1.3718    1.1552   -0.3236 N   0  0  0  0  0  0  0  0  0  0  0  0
    1.3721   -1.1553    0.3239 N   0  0  0  0  0  0  0  0  0  0  0  0
    3.4500    0.0002   -0.0001 N   0  0  0  0  0  0  0  0  0  0  0  0
   -0.6709   -0.0001    0.0001 C   0  0  0  0  0  0  0  0  0  0  0  0
    0.7760   -0.0001    0.0000 C   0  0  0  0  0  0  0  0  0  0  0  0
   -1.3684    1.1702    0.2996 C   0  0  0  0  0  0  0  0  0  0  0  0
   -1.3683   -1.1702   -0.2995 C   0  0  0  0  0  0  0  0  0  0  0  0
   -2.7633    1.1702    0.2996 C   0  0  0  0  0  0  0  0  0  0  0  0
   -2.7632   -1.1703   -0.2997 C   0  0  0  0  0  0  0  0  0  0  0  0
   -3.4606    0.0001   -0.0002 C   0  0  0  0  0  0  0  0  0  0  0  0
    2.7123    1.0806   -0.3029 C   0  0  0  0  0  0  0  0  0  0  0  0
    2.7126   -1.0804    0.3026 C   0  0  0  0  0  0  0  0  0  0  0  0
  1  5  2  0
  1 11  1  0
  2  5  1  0
  2 12  2  0
  3 11  2  0
  3 12  1  0
  4  5  1  0
  4  6  2  0
  4  7  1  0
  6  8  1  0
  7  9  2  0
  8 10  2  0
  9 10  1  0
M  END
>  <PUBCHEM_COMPOUND_CID>  (1) 
15594

>  <PUBCHEM_CONFORMER_RMSD>  (1) 
0.4

>  <PUBCHEM_CONFORMER_DIVERSEORDER>  (1) 
2
1
3

>  <PUBCHEM_MMFF94_PARTIAL_CHARGES>  (1) 
18
1 -0.62
10 -0.15
11 0.47
12 0.47
13 0.15
14 0.15
15 0.15
16 0.15
17 0.15
18 0.15
19 0.15
2 -0.62
3 -0.62
5 0.62
6 -0.15
7 -0.15
8 -0.15
9 -0.15

>  <PUBCHEM_EFFECTIVE_ROTOR_COUNT>  (1) 
1

>  <PUBCHEM_PHARMACOPHORE_FEATURES>  (1) 
5
3 1 2 5 cation
3 1 3 11 cation
3 2 3 12 cation
6 1 2 3 5 11 12 rings
6 4 6 7 8 9 10 rings

>  <PUBCHEM_HEAVY_ATOM_COUNT>  (1) 
12

>  <PUBCHEM_ATOM_DEF_STEREO_COUNT>  (1) 
0

>  <PUBCHEM_ATOM_UDEF_STEREO_COUNT>  (1) 
0

>  <PUBCHEM_BOND_DEF_STEREO_COUNT>  (1) 
0

>  <PUBCHEM_BOND_UDEF_STEREO_COUNT>  (1) 
0

>  <PUBCHEM_ISOTOPIC_ATOM_COUNT>  (1) 
0

>  <PUBCHEM_COMPONENT_COUNT>  (1) 
1

>  <PUBCHEM_CACTVS_TAUTO_COUNT>  (1) 
1

>  <PUBCHEM_CONFORMER_ID>  (1) 
00003CEA00000002

>  <PUBCHEM_MMFF94_ENERGY>  (1) 
33.4692

>  <PUBCHEM_FEATURE_SELFOVERLAP>  (1) 
28.155

>  <PUBCHEM_SHAPE_FINGERPRINT>  (1) 
10608611 8 18411695491317799697
12932764 1 18411422816749878713
14144814 61 18410573972277098843
14325111 11 18410856559687405257
15442244 35 18194682562319390426
15669948 3 18130220561999256463
15775835 57 18410300202529992745
16945 1 18411982455431006471
18186145 218 18040433278406990542
200 152 18342443864329046511
20645477 70 18261665978978412511
20871998 184 17988364874982894703
22445834 79 18335137549048038219
23402539 116 18059846247892509837
23402655 69 18408881811160885589
23463225 33 18410010992354053342
23552423 10 18334574680756803215
23559900 14 18060134307074956738
3248919 1 18411409609730737751
3312278 4 18337955696329396147
369184 2 18335138691820256777
57096353 35 18266459982502393845
7364860 26 18272651247138184162
8030462 33 18336270123265207628

>  <PUBCHEM_SHAPE_MULTIPOLES>  (1) 
232.01
5.78
1.47
0.66
0.72
0
0
0
0
-0.14
0
-0.02
0
-0.48

>  <PUBCHEM_SHAPE_SELFOVERLAP>  (1) 
504.955

>  <PUBCHEM_SHAPE_VOLUME>  (1) 
121.8

>  <PUBCHEM_COORDINATE_TYPE>  (1) 
2
5
10

$$$$
