15600
     RDKit          3D

 10  9  0  0  0  0  0  0  0  0999 V2000
    0.6609    0.3879    0.0661 C   0  0  0  0  0  0  0  0  0  0  0  0
   -0.6429   -0.4161    0.0972 C   0  0  0  0  0  0  0  0  0  0  0  0
    1.9141   -0.4894    0.0240 C   0  0  0  0  0  0  0  0  0  0  0  0
   -1.8962    0.4625    0.0635 C   0  0  0  0  0  0  0  0  0  0  0  0
    3.1858    0.3618    0.0071 C   0  0  0  0  0  0  0  0  0  0  0  0
   -3.1992   -0.3430    0.0342 C   0  0  0  0  0  0  0  0  0  0  0  0
    4.4381   -0.5110   -0.0735 C   0  0  0  0  0  0  0  0  0  0  0  0
   -4.4498    0.5305   -0.0748 C   0  0  0  0  0  0  0  0  0  0  0  0
    5.7050    0.3295   -0.0568 C   0  0  0  0  0  0  0  0  0  0  0  0
   -5.7158   -0.3129   -0.0870 C   0  0  0  0  0  0  0  0  0  0  0  0
  1  2  1  0
  1  3  1  0
  2  4  1  0
  3  5  1  0
  4  6  1  0
  5  7  1  0
  6  8  1  0
  7  9  1  0
  8 10  1  0
M  END
>  <PUBCHEM_COMPOUND_CID>  (1) 
15600

>  <PUBCHEM_CONFORMER_RMSD>  (1) 
0.6

>  <PUBCHEM_CONFORMER_DIVERSEORDER>  (1) 
1
121
113
164
20
140
190
161
38
12
122
179
195
2
86
102
37
194
193
73
117
16
178
9
182
167
123
169
22
36
183
157
4
64
34
31
146
106
85
15
69
79
128
46
13
144
138
187
112
6
70
47
21
124
189
127
49
56
26
191
23
25
151
176
27
3
172
136
88
8
5
77
19
186
145
177
173
114
188
17
71
137
51
30
180
149
96
39
44
192
119
14
66
50
159
129
174
94
29
48
141
40
131
170
181
90
57
160
163
82
62
78
32
54
155
135
93
97
74
154
156
165
55
166
61
11
105
130
118
126
10
184
116
109
83
107
7
63
45
35
72
108
87
43
101
95
18
171
111
158
76
52
81
150
24
89
153
65
168
132
139
175
60
143
98
75
84
147
42
67
91
148
58
28
152
53
100
125
33
134
120
162
185
142
99
41
59
104
68
92
80
103
133
110
115

>  <PUBCHEM_MMFF94_PARTIAL_CHARGES>  (1) 
0

>  <PUBCHEM_EFFECTIVE_ROTOR_COUNT>  (1) 
7

>  <PUBCHEM_PHARMACOPHORE_FEATURES>  (1) 
2
1 10 hydrophobe
1 9 hydrophobe

>  <PUBCHEM_HEAVY_ATOM_COUNT>  (1) 
10

>  <PUBCHEM_ATOM_DEF_STEREO_COUNT>  (1) 
0

>  <PUBCHEM_ATOM_UDEF_STEREO_COUNT>  (1) 
0

>  <PUBCHEM_BOND_DEF_STEREO_COUNT>  (1) 
0

>  <PUBCHEM_BOND_UDEF_STEREO_COUNT>  (1) 
0

>  <PUBCHEM_ISOTOPIC_ATOM_COUNT>  (1) 
0

>  <PUBCHEM_COMPONENT_COUNT>  (1) 
1

>  <PUBCHEM_CACTVS_TAUTO_COUNT>  (1) 
1

>  <PUBCHEM_CONFORMER_ID>  (1) 
00003CF000000001

>  <PUBCHEM_MMFF94_ENERGY>  (1) 
-5.7919

>  <PUBCHEM_FEATURE_SELFOVERLAP>  (1) 
10.149

>  <PUBCHEM_SHAPE_FINGERPRINT>  (1) 
11062470 55 18410575080368118122
114248 4 18411136935110147225
12815109 37 18040434390787559549
14123238 8 18410856555344822293
1420 363 18341900701105438643
14251718 22 18410573998252721803
15501527 16 18261955138152723757
17834072 33 18201437016635558476
17834076 25 18409166614578721894
187816 3 16774080674006094275
20645477 70 18269838627728325310
20719005 15 18410855455833194496
20767249 13 18410855455843770011
20767249 213 17385726915221481668
23402539 116 18408880741935256645
366044 4 18260267451495257243
42788 4 18410012134904901388
8209 1 18408603665073641597

>  <PUBCHEM_SHAPE_MULTIPOLES>  (1) 
205.8
13.94
0.79
0.62
0.19
0
0
-0.1
-0.68
0
0
0
0
0.01

>  <PUBCHEM_SHAPE_SELFOVERLAP>  (1) 
357.081

>  <PUBCHEM_SHAPE_VOLUME>  (1) 
137.4

>  <PUBCHEM_COORDINATE_TYPE>  (1) 
2
5
10

$$$$
