1560
     RDKit          3D

 19 18  0  0  1  0  0  0  0  0999 V2000
   -7.1257   -0.8656   -1.3391 F   0  0  0  0  0  0  0  0  0  0  0  0
   -7.2131    1.3594    1.4235 O   0  0  0  0  0  0  0  0  0  0  0  0
   -7.3423    1.7671   -0.8123 O   0  0  0  0  0  0  0  0  0  0  0  0
    1.9711   -0.5461    0.2273 C   0  0  0  0  0  0  0  0  0  0  0  0
    0.6260   -0.0098   -0.2756 C   0  0  0  0  0  0  0  0  0  0  0  0
    3.2181    0.1717   -0.3000 C   0  0  0  0  0  0  0  0  0  0  0  0
   -0.5799   -0.7493    0.3084 C   0  0  0  0  0  0  0  0  0  0  0  0
    4.5235   -0.3760    0.2818 C   0  0  0  0  0  0  0  0  0  0  0  0
   -1.9243   -0.2090   -0.1909 C   0  0  0  0  0  0  0  0  0  0  0  0
    5.7704    0.3372   -0.2511 C   0  0  0  0  0  0  0  0  0  0  0  0
   -3.1734   -0.8734    0.3977 C   0  0  0  0  0  0  0  0  0  0  0  0
    7.0778   -0.2258    0.3107 C   0  0  0  0  0  0  0  0  0  0  0  0
   -4.5134   -0.3772   -0.1545 C   0  0  0  0  0  0  0  0  0  0  0  0
    8.2898    0.5126   -0.2618 C   0  0  0  0  0  0  0  0  0  0  0  0
   -5.7263   -1.0116    0.5354 C   0  0  0  0  0  0  0  0  0  0  0  0
    9.5983   -0.0690    0.2730 C   0  0  0  0  0  0  0  0  0  0  0  0
   -7.0530   -0.5034   -0.0260 C   0  0  0  0  0  0  0  0  0  0  0  0
   10.8041    0.6827   -0.2675 C   0  0  0  0  0  0  0  0  0  0  0  0
   -7.2278    0.9854    0.1210 C   0  0  0  0  0  0  0  0  0  0  0  0
  1 17  1  0
  2 19  1  0
  3 19  2  0
  4  5  1  0
  4  6  1  0
  5  7  1  0
  6  8  1  0
  7  9  1  0
  8 10  1  0
  9 11  1  0
 10 12  1  0
 11 13  1  0
 12 14  1  0
 13 15  1  0
 14 16  1  0
 15 17  1  0
 16 18  1  0
 17 19  1  0
M  END
>  <PUBCHEM_COMPOUND_CID>  (1) 
1560

>  <PUBCHEM_CONFORMER_RMSD>  (1) 
1.4

>  <PUBCHEM_CONFORMER_DIVERSEORDER>  (1) 
1
18
33
15
6
22
53
12
20
10
27
26
52
32
17
46
55
45
35
4
43
7
48
38
28
36
41
50
21
34
16
30
8
29
44
3
49
37
39
25
54
14
19
51
13
40
2
42
31
47
24
23
11
5
9

>  <PUBCHEM_MMFF94_PARTIAL_CHARGES>  (1) 
6
1 -0.34
17 0.4
19 0.66
2 -0.65
3 -0.57
50 0.5

>  <PUBCHEM_EFFECTIVE_ROTOR_COUNT>  (1) 
14

>  <PUBCHEM_PHARMACOPHORE_FEATURES>  (1) 
4
1 18 hydrophobe
1 2 acceptor
1 3 acceptor
3 2 3 19 anion

>  <PUBCHEM_HEAVY_ATOM_COUNT>  (1) 
19

>  <PUBCHEM_ATOM_DEF_STEREO_COUNT>  (1) 
0

>  <PUBCHEM_ATOM_UDEF_STEREO_COUNT>  (1) 
1

>  <PUBCHEM_BOND_DEF_STEREO_COUNT>  (1) 
0

>  <PUBCHEM_BOND_UDEF_STEREO_COUNT>  (1) 
0

>  <PUBCHEM_ISOTOPIC_ATOM_COUNT>  (1) 
0

>  <PUBCHEM_COMPONENT_COUNT>  (1) 
1

>  <PUBCHEM_CACTVS_TAUTO_COUNT>  (1) 
1

>  <PUBCHEM_CONFORMER_ID>  (1) 
0000061800000001

>  <PUBCHEM_MMFF94_ENERGY>  (1) 
1.8363

>  <PUBCHEM_FEATURE_SELFOVERLAP>  (1) 
20.354

>  <PUBCHEM_SHAPE_FINGERPRINT>  (1) 
11315181 36 16774082878057624827
11638347 137 13190332466950783016
12091667 2 18202002140865986659
12498461 61 13190634850134843809
14123256 10 8430320138991271450
14251764 18 17967811639483609602
14251764 46 18409167719250538714
14428016 248 17530690918306694612
14617042 71 17749959994327534036
14729087 3 18413388726903668657
155225 1 18412826855277604809
16120349 18 13614233807704987258
21095086 128 10592047951734373260
21150785 3 12391515286890030154
21360442 43 18201431550029473687
21362267 20 12829493670831539128
21362267 313 18335414605584479018
22224240 67 16773795909691070638
232437 2 18409167731734871346
23521765 1 18342458158291508546
23528940 14 14635163360718467025
246663 6 11746936486605852538
28498 318 18202285793301322310
33684 2 12679466383494842110
59567204 34 18341613673364424641
59682541 35 11386370357333537972
636775 8 12967118438010994717
67123 10 18334575763442113058
8209 1 18259703415758777714

>  <PUBCHEM_SHAPE_MULTIPOLES>  (1) 
372
37.75
1.11
0.84
45.87
0.29
0.04
9.94
0
-2.16
0.03
-1.25
0.08
-0.62

>  <PUBCHEM_SHAPE_SELFOVERLAP>  (1) 
682.498

>  <PUBCHEM_SHAPE_VOLUME>  (1) 
235.5

>  <PUBCHEM_COORDINATE_TYPE>  (1) 
2
5
10

$$$$
