15603
     RDKit          3D

  8  7  0  0  0  0  0  0  0  0999 V2000
   -1.2608   -0.2141    0.0215 N   0  0  0  0  0  0  0  0  0  0  0  0
    1.2569   -0.1535    0.0258 N   0  0  0  0  0  0  0  0  0  0  0  0
   -0.0506    1.8707   -0.3375 N   0  0  0  0  0  0  0  0  0  0  0  0
   -0.0177    0.4803   -0.0931 C   0  0  0  0  0  0  0  0  0  0  0  0
   -1.3649   -1.6620    0.2752 C   0  0  0  0  0  0  0  0  0  0  0  0
   -2.5189    0.5561    0.0696 C   0  0  0  0  0  0  0  0  0  0  0  0
    2.4022    0.6155    0.5505 C   0  0  0  0  0  0  0  0  0  0  0  0
    1.5539   -1.4930   -0.5120 C   0  0  0  0  0  0  0  0  0  0  0  0
  1  4  2  3
  1  5  1  0
  1  6  1  0
  2  4  1  0
  2  7  1  0
  2  8  1  0
  3  4  1  0
M  CHG  1   1   1
M  END
>  <PUBCHEM_COMPOUND_CID>  (1) 
15603

>  <PUBCHEM_CONFORMER_RMSD>  (1) 
0.4

>  <PUBCHEM_CONFORMER_DIVERSEORDER>  (1) 
1
2

>  <PUBCHEM_MMFF94_PARTIAL_CHARGES>  (1) 
10
1 -0.72
2 -0.72
21 0.45
22 0.45
3 -0.97
4 1.2
5 0.33
6 0.33
7 0.33
8 0.33

>  <PUBCHEM_EFFECTIVE_ROTOR_COUNT>  (1) 
1

>  <PUBCHEM_PHARMACOPHORE_FEATURES>  (1) 
2
1 3 donor
4 1 2 3 4 cation

>  <PUBCHEM_HEAVY_ATOM_COUNT>  (1) 
8

>  <PUBCHEM_ATOM_DEF_STEREO_COUNT>  (1) 
0

>  <PUBCHEM_ATOM_UDEF_STEREO_COUNT>  (1) 
0

>  <PUBCHEM_BOND_DEF_STEREO_COUNT>  (1) 
0

>  <PUBCHEM_BOND_UDEF_STEREO_COUNT>  (1) 
0

>  <PUBCHEM_ISOTOPIC_ATOM_COUNT>  (1) 
0

>  <PUBCHEM_COMPONENT_COUNT>  (1) 
1

>  <PUBCHEM_CACTVS_TAUTO_COUNT>  (1) 
2

>  <PUBCHEM_CONFORMER_ID>  (1) 
00003CF300000001

>  <PUBCHEM_MMFF94_ENERGY>  (1) 
21.7893

>  <PUBCHEM_FEATURE_SELFOVERLAP>  (1) 
10.148

>  <PUBCHEM_SHAPE_FINGERPRINT>  (1) 
10857977 72 18194390306979996296
16714656 1 18262808336998901711
20711978 78 17630880508892926870
21040471 1 18408889503410096807
23552423 10 18260274027142772286
24536 1 18337668740863496487
29004967 10 18409453608609507104

>  <PUBCHEM_SHAPE_MULTIPOLES>  (1) 
149.69
3.17
1.77
0.69
0.14
0.22
0.01
-0.11
0.38
0.03
-0.15
-0.13
0.03
0.35

>  <PUBCHEM_SHAPE_SELFOVERLAP>  (1) 
262.826

>  <PUBCHEM_SHAPE_VOLUME>  (1) 
98.5

>  <PUBCHEM_COORDINATE_TYPE>  (1) 
2
5
10

$$$$
