15601
     RDKit          3D

 21 20  0  0  0  0  0  0  0  0999 V2000
   -1.5982   -0.0330    0.0991 O   0  0  0  0  0  0  0  0  0  0  0  0
    1.8229   -0.7985    0.1359 O   0  0  0  0  0  0  0  0  0  0  0  0
   -2.3262    1.2398    1.8669 O   0  0  0  0  0  0  0  0  0  0  0  0
    3.0404   -0.3925   -1.7688 O   0  0  0  0  0  0  0  0  0  0  0  0
   -2.8071    1.8215   -0.3269 N   0  0  0  0  0  0  0  0  0  0  0  0
    3.7110    0.4227    0.2972 N   0  0  0  0  0  0  0  0  0  0  0  0
   -0.2697   -2.0946    0.2604 C   0  0  0  0  0  0  0  0  0  0  0  0
   -1.2588   -2.8854   -0.6466 C   0  0  0  0  0  0  0  0  0  0  0  0
   -0.9758   -0.9350    1.0034 C   0  0  0  0  0  0  0  0  0  0  0  0
    0.8781   -1.5388   -0.6247 C   0  0  0  0  0  0  0  0  0  0  0  0
    0.3682   -3.0248    1.3113 C   0  0  0  0  0  0  0  0  0  0  0  0
   -2.4590   -3.5131    0.0723 C   0  0  0  0  0  0  0  0  0  0  0  0
   -3.3857   -4.2127   -0.9125 C   0  0  0  0  0  0  0  0  0  0  0  0
   -2.2535    1.0333    0.6599 C   0  0  0  0  0  0  0  0  0  0  0  0
    2.8778   -0.2654   -0.5595 C   0  0  0  0  0  0  0  0  0  0  0  0
   -3.5640    3.0235   -0.0628 C   0  0  0  0  0  0  0  0  0  0  0  0
    4.9142    1.1010   -0.1266 C   0  0  0  0  0  0  0  0  0  0  0  0
   -2.6385    4.2310    0.0192 C   0  0  0  0  0  0  0  0  0  0  0  0
   -4.6345    3.2199   -1.1284 C   0  0  0  0  0  0  0  0  0  0  0  0
    4.6008    2.5303   -0.5513 C   0  0  0  0  0  0  0  0  0  0  0  0
    5.9575    1.0710    0.9826 C   0  0  0  0  0  0  0  0  0  0  0  0
  1  9  1  0
  1 14  1  0
  2 10  1  0
  2 15  1  0
  3 14  2  0
  4 15  2  0
  5 14  1  0
  5 16  1  0
  6 15  1  0
  6 17  1  0
  7  8  1  0
  7  9  1  0
  7 10  1  0
  7 11  1  0
  8 12  1  0
 12 13  1  0
 16 18  1  0
 16 19  1  0
 17 20  1  0
 17 21  1  0
M  END
>  <PUBCHEM_COMPOUND_CID>  (1) 
15601

>  <PUBCHEM_CONFORMER_RMSD>  (1) 
1

>  <PUBCHEM_CONFORMER_DIVERSEORDER>  (1) 
1
23
110
117
18
40
126
53
97
32
49
19
77
26
46
124
27
39
36
85
3
54
43
79
11
96
84
90
100
29
123
69
62
113
42
28
108
47
63
17
80
116
82
4
125
38
2
51
30
89
83
52
56
114
87
75
34
20
74
98
86
104
24
35
7
91
33
72
105
65
107
81
12
60
45
25
15
31
57
21
41
118
6
111
121
66
106
55
10
70
48
127
68
22
67
115
78
122
92
71
50
37
120
61
76
95
5
59
73
109
14
16
88
58
112
44
94
93
119
8
101
64
99
103
102
9
13

>  <PUBCHEM_MMFF94_PARTIAL_CHARGES>  (1) 
14
1 -0.43
10 0.28
14 0.78
15 0.78
16 0.3
17 0.3
2 -0.43
3 -0.57
38 0.37
39 0.37
4 -0.57
5 -0.73
6 -0.73
9 0.28

>  <PUBCHEM_EFFECTIVE_ROTOR_COUNT>  (1) 
12

>  <PUBCHEM_PHARMACOPHORE_FEATURES>  (1) 
8
1 11 hydrophobe
1 13 hydrophobe
1 3 acceptor
1 4 acceptor
1 5 donor
1 6 donor
3 16 18 19 hydrophobe
3 17 20 21 hydrophobe

>  <PUBCHEM_HEAVY_ATOM_COUNT>  (1) 
21

>  <PUBCHEM_ATOM_DEF_STEREO_COUNT>  (1) 
0

>  <PUBCHEM_ATOM_UDEF_STEREO_COUNT>  (1) 
0

>  <PUBCHEM_BOND_DEF_STEREO_COUNT>  (1) 
0

>  <PUBCHEM_BOND_UDEF_STEREO_COUNT>  (1) 
0

>  <PUBCHEM_ISOTOPIC_ATOM_COUNT>  (1) 
0

>  <PUBCHEM_COMPONENT_COUNT>  (1) 
1

>  <PUBCHEM_CACTVS_TAUTO_COUNT>  (1) 
3

>  <PUBCHEM_CONFORMER_ID>  (1) 
00003CF100000001

>  <PUBCHEM_MMFF94_ENERGY>  (1) 
28.1378

>  <PUBCHEM_FEATURE_SELFOVERLAP>  (1) 
40.598

>  <PUBCHEM_SHAPE_FINGERPRINT>  (1) 
10937287 8 18266739078373443581
11045515 52 17909265020353471695
11135609 127 17759782777300761205
11833330 49 18194964273556569867
12107183 9 18190165803693025362
12293681 160 17972295555482500299
12788726 201 18191011503247729914
13134695 92 17252023827283193435
13590594 115 18050009093664090219
14123255 52 18337675200457587768
14142880 1 18259980492045464471
14178000 22 18410010996601365930
14508225 48 17981600782438204903
14957384 54 18260827086271976776
15961568 22 17620478343327393188
16120349 189 18113615651618979404
17134986 127 18194406584647903327
18681886 176 17762609595371821539
20567600 299 17328582817508858828
21304303 282 18336528483008149279
23402539 116 18125719243105651662
23557571 272 17985560076565387422
23558518 356 18334017202756052810
23559900 14 17988093175937513470
23929065 36 18197192940675951130
266924 87 18340199790714075710
283562 15 18263920110648376107
3060560 45 17619069430587111343
43658 37 18264772047755318317
633830 44 17486510199665152249
7808743 9 18410294731190349592
81228 2 18124053457003268707
9981440 41 18263645056958769481

>  <PUBCHEM_SHAPE_MULTIPOLES>  (1) 
398.73
10.27
6.1
1.24
14.72
0.27
0.11
9.42
-1.05
-10.44
-0.92
-0.03
-0.16
-0.2

>  <PUBCHEM_SHAPE_SELFOVERLAP>  (1) 
756.916

>  <PUBCHEM_SHAPE_VOLUME>  (1) 
245.8

>  <PUBCHEM_COORDINATE_TYPE>  (1) 
2
5
10

$$$$
