15614
     RDKit          3D

 13 13  0  0  0  0  0  0  0  0999 V2000
    3.8396    1.4370    0.0249 O   0  0  0  0  0  0  0  0  0  0  0  0
    4.1837   -0.7312    0.1592 O   0  0  0  0  0  0  0  0  0  0  0  0
   -5.4483    0.6785    0.2289 O   0  0  0  0  0  0  0  0  0  0  0  0
    3.4170    0.2569    0.0647 N   0  0  0  0  0  0  0  0  0  0  0  0
   -0.7347   -0.4140   -0.1234 C   0  0  0  0  0  0  0  0  0  0  0  0
    2.0166    0.0307    0.0013 C   0  0  0  0  0  0  0  0  0  0  0  0
   -0.2359    0.8880   -0.1655 C   0  0  0  0  0  0  0  0  0  0  0  0
    0.1423   -1.4937   -0.0187 C   0  0  0  0  0  0  0  0  0  0  0  0
    1.1397    1.1104   -0.1034 C   0  0  0  0  0  0  0  0  0  0  0  0
    1.5178   -1.2713    0.0437 C   0  0  0  0  0  0  0  0  0  0  0  0
   -2.1690   -0.6458   -0.1887 C   0  0  0  0  0  0  0  0  0  0  0  0
   -3.1230    0.2689    0.0885 C   0  0  0  0  0  0  0  0  0  0  0  0
   -4.5457   -0.1143   -0.0117 C   0  0  0  0  0  0  0  0  0  0  0  0
  1  4  1  0
  2  4  2  0
  3 13  2  0
  4  6  1  0
  5  7  2  0
  5  8  1  0
  5 11  1  0
  6  9  2  0
  6 10  1  0
  7  9  1  0
  8 10  2  0
 11 12  2  0
 12 13  1  0
M  CHG  2   1  -1   4   1
M  END
>  <PUBCHEM_COMPOUND_CID>  (1) 
15614

>  <PUBCHEM_CONFORMER_RMSD>  (1) 
0.6

>  <PUBCHEM_CONFORMER_DIVERSEORDER>  (1) 
1

>  <PUBCHEM_MMFF94_PARTIAL_CHARGES>  (1) 
20
1 -0.52
10 -0.15
11 -0.18
12 -0.14
13 0.5
14 0.15
15 0.15
16 0.15
17 0.15
18 0.15
19 0.15
2 -0.52
20 0.06
3 -0.57
4 0.91
5 0.03
6 0.13
7 -0.15
8 -0.15
9 -0.15

>  <PUBCHEM_EFFECTIVE_ROTOR_COUNT>  (1) 
3

>  <PUBCHEM_PHARMACOPHORE_FEATURES>  (1) 
5
1 1 acceptor
1 1 anion
1 2 acceptor
1 3 acceptor
6 5 6 7 8 9 10 rings

>  <PUBCHEM_HEAVY_ATOM_COUNT>  (1) 
13

>  <PUBCHEM_ATOM_DEF_STEREO_COUNT>  (1) 
0

>  <PUBCHEM_ATOM_UDEF_STEREO_COUNT>  (1) 
0

>  <PUBCHEM_BOND_DEF_STEREO_COUNT>  (1) 
0

>  <PUBCHEM_BOND_UDEF_STEREO_COUNT>  (1) 
1

>  <PUBCHEM_ISOTOPIC_ATOM_COUNT>  (1) 
0

>  <PUBCHEM_COMPONENT_COUNT>  (1) 
1

>  <PUBCHEM_CACTVS_TAUTO_COUNT>  (1) 
1

>  <PUBCHEM_CONFORMER_ID>  (1) 
00003CFE00000001

>  <PUBCHEM_MMFF94_ENERGY>  (1) 
35.1967

>  <PUBCHEM_FEATURE_SELFOVERLAP>  (1) 
25.452

>  <PUBCHEM_SHAPE_FINGERPRINT>  (1) 
10219947 1 18334859424092784892
11062470 55 18131914866578476447
11401426 45 18272365386488252347
11471102 20 18410571790449575749
12346645 6 18272934886214410142
13380535 76 18410858767585873751
13922767 16 18341894116836197425
14325111 11 18410572933153560470
17834072 33 18131346449464081431
20279233 1 17749117677629549667
20645477 70 18341894031158800583
212847 35 18272931635161446472
23402539 116 16630239243388723277
23402655 69 18271237236815222869
23557571 272 16733263435339569327
366044 4 18411418431599007410
4047638 21 18410013251838984964
42788 4 18411419510189303337
449060 50 18408324389209889823
449060 62 18411699893959516706
4990 188 17846224357733620991
5104073 3 18409728508118090267
53655031 270 18341612590203678785
53812653 166 18412259570868238314

>  <PUBCHEM_SHAPE_MULTIPOLES>  (1) 
244.94
8.68
1.32
0.6
6.55
0.09
-0.01
-1.84
0.71
-0.75
-0.01
0.06
0.01
-0.11

>  <PUBCHEM_SHAPE_SELFOVERLAP>  (1) 
510.501

>  <PUBCHEM_SHAPE_VOLUME>  (1) 
139

>  <PUBCHEM_COORDINATE_TYPE>  (1) 
2
5
10

$$$$
