15616
     RDKit          3D

 24 25  0  0  0  0  0  0  0  0999 V2000
   -2.8467   -0.8577   -0.0227 O   0  0  0  0  0  0  0  0  0  0  0  0
    1.1506   -0.9911    0.3914 O   0  0  0  0  0  0  0  0  0  0  0  0
    2.3545   -2.9865    0.3022 O   0  0  0  0  0  0  0  0  0  0  0  0
   -1.6446   -2.0057   -1.6076 O   0  0  0  0  0  0  0  0  0  0  0  0
    6.3935    1.9960   -1.3348 O   0  0  0  0  0  0  0  0  0  0  0  0
    6.6254    2.0413    0.8477 O   0  0  0  0  0  0  0  0  0  0  0  0
   -1.1478   -2.1596    0.6533 N   0  0  0  0  0  0  0  0  0  0  0  0
    5.9821    1.7225   -0.1813 N   0  0  0  0  0  0  0  0  0  0  0  0
   -4.6969    0.5956   -0.4348 C   0  0  0  0  0  0  0  0  0  0  0  0
   -3.6697   -0.3047   -1.0560 C   0  0  0  0  0  0  0  0  0  0  0  0
   -5.9256    0.0731   -0.0466 C   0  0  0  0  0  0  0  0  0  0  0  0
   -4.4108    1.9440   -0.2527 C   0  0  0  0  0  0  0  0  0  0  0  0
    2.3625   -0.3104    0.2479 C   0  0  0  0  0  0  0  0  0  0  0  0
   -0.0324   -3.0732    0.5602 C   0  0  0  0  0  0  0  0  0  0  0  0
    4.7502    1.0314   -0.0362 C   0  0  0  0  0  0  0  0  0  0  0  0
    2.8070   -0.0128   -1.0212 C   0  0  0  0  0  0  0  0  0  0  0  0
    3.0647    0.0367    1.3807 C   0  0  0  0  0  0  0  0  0  0  0  0
   -6.8805    0.9099    0.5310 C   0  0  0  0  0  0  0  0  0  0  0  0
   -5.3657    2.7806    0.3251 C   0  0  0  0  0  0  0  0  0  0  0  0
    4.0166    0.6668   -1.1650 C   0  0  0  0  0  0  0  0  0  0  0  0
    4.2743    0.7164    1.2367 C   0  0  0  0  0  0  0  0  0  0  0  0
    1.2975   -2.3717    0.4037 C   0  0  0  0  0  0  0  0  0  0  0  0
   -6.6006    2.2635    0.7169 C   0  0  0  0  0  0  0  0  0  0  0  0
   -1.8577   -1.7044   -0.4378 C   0  0  0  0  0  0  0  0  0  0  0  0
  1 10  1  0
  1 24  1  0
  2 13  1  0
  2 22  1  0
  3 22  2  0
  4 24  2  0
  5  8  1  0
  6  8  2  0
  7 14  1  0
  7 24  1  0
  8 15  1  0
  9 10  1  0
  9 11  2  0
  9 12  1  0
 11 18  1  0
 12 19  2  0
 13 16  2  0
 13 17  1  0
 14 22  1  0
 15 20  2  0
 15 21  1  0
 16 20  1  0
 17 21  2  0
 18 23  2  0
 19 23  1  0
M  CHG  2   5  -1   8   1
M  END
>  <PUBCHEM_COMPOUND_CID>  (1) 
15616

>  <PUBCHEM_CONFORMER_RMSD>  (1) 
1

>  <PUBCHEM_CONFORMER_DIVERSEORDER>  (1) 
1
60
22
290
188
185
59
162
228
263
157
273
39
40
248
105
140
130
143
117
69
84
119
122
134
5
87
30
8
184
63
31
57
7
287
47
136
36
194
226
213
193
260
191
4
186
175
235
50
80
227
209
49
236
99
46
2
192
219
282
96
173
278
34
20
75
112
126
111
58
116
256
97
81
55
113
129
38
268
28
229
154
250
222
233
51
43
258
279
266
137
247
128
21
242
14
145
41
147
139
252
16
110
83
76
151
62
239
35
214
48
133
100
223
168
11
204
82
91
74
141
93
286
156
232
77
17
164
190
159
90
238
72
197
45
118
289
161
54
37
9
203
160
200
106
18
3
146
33
12
275
224
98
211
261
249
292
158
208
52
10
217
70
142
121
89
288
199
26
276
92
269
205
148
189
179
61
240
44
285
19
108
135
272
170
68
71
155
64
280
53
67
167
125
267
114
178
27
127
177
244
196
107
109
66
254
144
79
270
85
284
206
120
182
174
78
246
187
124
103
207
215
29
220
169
264
102
88
15
165
283
123
13
183
245
274
181
255
73
115
231
132
251
6
212
257
171
101
259
180
271
225
281
65
202
150
86
230
131
104
262
210
201
149
176
195
221
163
198
265
234
216
94
218
25
95
291
277
172
32
24
166
138
253
152
241
42
237
243
23
153
56

>  <PUBCHEM_MMFF94_PARTIAL_CHARGES>  (1) 
34
1 -0.43
10 0.42
11 -0.15
12 -0.15
13 0.08
14 0.36
15 0.13
16 -0.15
17 -0.15
18 -0.15
19 -0.15
2 -0.23
20 -0.15
21 -0.15
22 0.66
23 -0.15
24 0.78
27 0.15
28 0.15
3 -0.57
31 0.15
32 0.15
33 0.15
34 0.15
35 0.15
36 0.15
37 0.37
38 0.15
4 -0.57
5 -0.52
6 -0.52
7 -0.73
8 0.91
9 -0.14

>  <PUBCHEM_EFFECTIVE_ROTOR_COUNT>  (1) 
9

>  <PUBCHEM_PHARMACOPHORE_FEATURES>  (1) 
8
1 3 acceptor
1 4 acceptor
1 5 acceptor
1 5 anion
1 6 acceptor
1 7 donor
6 13 15 16 17 20 21 rings
6 9 11 12 18 19 23 rings

>  <PUBCHEM_HEAVY_ATOM_COUNT>  (1) 
24

>  <PUBCHEM_ATOM_DEF_STEREO_COUNT>  (1) 
0

>  <PUBCHEM_ATOM_UDEF_STEREO_COUNT>  (1) 
0

>  <PUBCHEM_BOND_DEF_STEREO_COUNT>  (1) 
0

>  <PUBCHEM_BOND_UDEF_STEREO_COUNT>  (1) 
0

>  <PUBCHEM_ISOTOPIC_ATOM_COUNT>  (1) 
0

>  <PUBCHEM_COMPONENT_COUNT>  (1) 
1

>  <PUBCHEM_CACTVS_TAUTO_COUNT>  (1) 
2

>  <PUBCHEM_CONFORMER_ID>  (1) 
00003D0000000001

>  <PUBCHEM_MMFF94_ENERGY>  (1) 
63.5441

>  <PUBCHEM_FEATURE_SELFOVERLAP>  (1) 
40.679

>  <PUBCHEM_SHAPE_FINGERPRINT>  (1) 
10721379 63 18199476459140570094
10753850 27 10159696893816236455
11720765 8 17344914001846103606
12107183 9 18115291325157830738
12293681 160 17988928876870871242
12596602 18 17458341919122095201
12633257 1 15936697050682207327
12788726 201 17346037754052903881
12895836 83 17918270974325828687
12895837 130 18128535057976707412
13540713 5 18267281227785361375
13885169 86 18260835946183074333
14251764 75 18341614789575152457
14257110 125 18410011035546208991
14294032 229 18269561709548651699
14429114 114 18339359639824847457
14848178 5 7853564713234302295
14849402 71 18116712898507204986
15183329 4 15984829220476425219
15188451 53 11818992993974837101
15728490 51 8214130842770309110
16126227 98 18338802311787794617
1768 23 17459200719386836572
18222031 100 9511460034867291303
18608769 82 18340490088333756043
19438510 23 18411981372962299570
20621476 66 18336266829579302868
21401589 2 17967812760639139107
21585480 29 13191490350466716240
21756936 100 18339920515108273423
22864921 10 18190183377813769780
23389318 12 10735873998448764504
23559900 14 9799108748663323487
23622692 118 9799695904324788403
270888 7 18410854360769618785
2838139 119 18130494297286383991
3014063 24 7997967955971369481
312425 54 13262943063022525149
38570 142 18339090306155810030
4098825 35 17846501421948042423
44062 13 10231748986523213147
445580 204 18341328972043666068
5104073 3 17967811647894911411
5385378 56 18260544503257059202
543368 44 18413667999015953989
5718773 13 9511465506708529844
57724786 102 18187358818752276010
59682541 52 16845018918368209142
636775 72 18125151891380594360
7288768 16 18040715879055828723
7808743 9 18409444825538738139
960060 61 12535332520310638699

>  <PUBCHEM_SHAPE_MULTIPOLES>  (1) 
448.73
18.72
3.33
1.18
6.88
1.34
-0.13
-19.66
0.96
-0.26
0.35
-0.89
-0.06
-1.3

>  <PUBCHEM_SHAPE_SELFOVERLAP>  (1) 
951.71

>  <PUBCHEM_SHAPE_VOLUME>  (1) 
246.9

>  <PUBCHEM_COORDINATE_TYPE>  (1) 
2
5
10

$$$$
