15627
     RDKit          3D

 12 12  0  0  0  0  0  0  0  0999 V2000
   -2.3307    0.0847   -0.0356 C   0  0  0  0  0  0  0  0  0  0  0  0
   -0.7976   -0.0212    0.0166 C   0  0  0  0  0  0  0  0  0  0  0  0
   -2.9446   -0.6706    1.1629 C   0  0  0  0  0  0  0  0  0  0  0  0
   -2.8503   -0.5391   -1.3490 C   0  0  0  0  0  0  0  0  0  0  0  0
   -2.8594    1.5359    0.0205 C   0  0  0  0  0  0  0  0  0  0  0  0
   -0.2294   -1.2696   -0.0284 C   0  0  0  0  0  0  0  0  0  0  0  0
   -0.0672    1.1373    0.1050 C   0  0  0  0  0  0  0  0  0  0  0  0
    1.1614   -1.3660    0.0183 C   0  0  0  0  0  0  0  0  0  0  0  0
    1.3236    1.0409    0.1516 C   0  0  0  0  0  0  0  0  0  0  0  0
    1.9379   -0.2109    0.1083 C   0  0  0  0  0  0  0  0  0  0  0  0
    3.3882   -0.3115    0.1559 C   0  0  0  0  0  0  0  0  0  0  0  0
    4.2681    0.5902   -0.3260 C   0  0  0  0  0  0  0  0  0  0  0  0
  1  2  1  0
  1  3  1  0
  1  4  1  0
  1  5  1  0
  2  6  2  0
  2  7  1  0
  6  8  1  0
  7  9  2  0
  8 10  2  0
  9 10  1  0
 10 11  1  0
 11 12  2  0
M  END
>  <PUBCHEM_COMPOUND_CID>  (1) 
15627

>  <PUBCHEM_CONFORMER_RMSD>  (1) 
0.6

>  <PUBCHEM_CONFORMER_DIVERSEORDER>  (1) 
1

>  <PUBCHEM_MMFF94_PARTIAL_CHARGES>  (1) 
16
1 0.14
10 0.03
11 -0.18
12 -0.3
2 -0.14
22 0.15
23 0.15
24 0.15
25 0.15
26 0.15
27 0.15
28 0.15
6 -0.15
7 -0.15
8 -0.15
9 -0.15

>  <PUBCHEM_EFFECTIVE_ROTOR_COUNT>  (1) 
2

>  <PUBCHEM_PHARMACOPHORE_FEATURES>  (1) 
3
1 12 hydrophobe
4 1 3 4 5 hydrophobe
6 2 6 7 8 9 10 rings

>  <PUBCHEM_HEAVY_ATOM_COUNT>  (1) 
12

>  <PUBCHEM_ATOM_DEF_STEREO_COUNT>  (1) 
0

>  <PUBCHEM_ATOM_UDEF_STEREO_COUNT>  (1) 
0

>  <PUBCHEM_BOND_DEF_STEREO_COUNT>  (1) 
0

>  <PUBCHEM_BOND_UDEF_STEREO_COUNT>  (1) 
0

>  <PUBCHEM_ISOTOPIC_ATOM_COUNT>  (1) 
0

>  <PUBCHEM_COMPONENT_COUNT>  (1) 
1

>  <PUBCHEM_CACTVS_TAUTO_COUNT>  (1) 
1

>  <PUBCHEM_CONFORMER_ID>  (1) 
00003D0B00000001

>  <PUBCHEM_MMFF94_ENERGY>  (1) 
43.0603

>  <PUBCHEM_FEATURE_SELFOVERLAP>  (1) 
15.223

>  <PUBCHEM_SHAPE_FINGERPRINT>  (1) 
10219947 1 18410856559987994678
11132069 177 18201993322717600032
11401426 45 18271514343356428072
11543360 7 15697709415551584776
12032990 46 18410302401875027714
12138202 97 17385990781070012683
124424 183 17821997697189491866
12932764 1 17846211150698584018
13024252 1 12396298158428953125
13214271 11 18335424556132315605
14144814 61 18408884031779984960
14289901 80 15502374547647630124
14325111 11 18410012117856881544
14993402 34 18201711877452265302
15309172 13 18272937119623706050
15775835 57 18273214166710433781
16945 1 18411976992106141906
17844478 74 18187092762433481113
18186145 218 18410577284198212940
19026448 4 16081366341379424714
19026448 5 15719110266882473034
193761 8 17618503620063313168
200 152 18271518788990607415
20201158 50 18334011674984754843
20645477 70 18199464368226980622
21501502 16 18192984929092659585
23235685 24 18410007736953257904
23402539 116 18201431459670557564
23402655 69 18196920099116839997
23463225 33 18335416803985495186
23559900 14 18272653463990233364
2748010 2 18196092131836280006
3248919 1 18113331994534481411
5084963 1 17917421077422511059
528886 8 18411132511341318297
63268167 104 18272088245144119107

>  <PUBCHEM_SHAPE_MULTIPOLES>  (1) 
246.95
6.25
1.4
0.9
3.55
0.11
-0.08
0.76
-0.36
-0.32
0.03
-0.72
-0.15
-0.06

>  <PUBCHEM_SHAPE_SELFOVERLAP>  (1) 
506.76

>  <PUBCHEM_SHAPE_VOLUME>  (1) 
141.6

>  <PUBCHEM_COORDINATE_TYPE>  (1) 
2
5
10

$$$$
