15623
     RDKit          3D

 14 15  0  0  0  0  0  0  0  0999 V2000
   -2.5181   -1.3501   -0.2943 O   0  0  0  0  0  0  0  0  0  0  0  0
   -2.5041    1.3635    0.2963 O   0  0  0  0  0  0  0  0  0  0  0  0
    3.5553    0.5495    0.5057 N   0  0  0  0  0  0  0  0  0  0  0  0
    2.3809   -1.4504   -0.2988 C   0  0  0  0  0  0  0  0  0  0  0  0
    1.0832   -0.6949   -0.1649 C   0  0  0  0  0  0  0  0  0  0  0  0
    1.0918    0.6738    0.1578 C   0  0  0  0  0  0  0  0  0  0  0  0
    3.5840   -0.5242   -0.4866 C   0  0  0  0  0  0  0  0  0  0  0  0
    2.3961    1.4221    0.2852 C   0  0  0  0  0  0  0  0  0  0  0  0
   -0.1379   -1.3670   -0.3037 C   0  0  0  0  0  0  0  0  0  0  0  0
   -0.1232    1.3571    0.2999 C   0  0  0  0  0  0  0  0  0  0  0  0
   -1.3414   -0.6794   -0.1492 C   0  0  0  0  0  0  0  0  0  0  0  0
   -1.3341    0.6813    0.1499 C   0  0  0  0  0  0  0  0  0  0  0  0
   -3.0755   -1.9421    0.8775 C   0  0  0  0  0  0  0  0  0  0  0  0
   -3.0569    1.9608   -0.8750 C   0  0  0  0  0  0  0  0  0  0  0  0
  1 11  1  0
  1 13  1  0
  2 12  1  0
  2 14  1  0
  3  7  1  0
  3  8  1  0
  4  5  1  0
  4  7  1  0
  5  6  2  0
  5  9  1  0
  6  8  1  0
  6 10  1  0
  9 11  2  0
 10 12  2  0
 11 12  1  0
M  END
>  <PUBCHEM_COMPOUND_CID>  (1) 
15623

>  <PUBCHEM_CONFORMER_RMSD>  (1) 
0.6

>  <PUBCHEM_CONFORMER_DIVERSEORDER>  (1) 
2
1

>  <PUBCHEM_MMFF94_PARTIAL_CHARGES>  (1) 
17
1 -0.36
10 -0.15
11 0.08
12 0.08
13 0.28
14 0.28
2 -0.36
21 0.36
22 0.15
23 0.15
3 -0.9
4 0.14
5 -0.14
6 -0.14
7 0.27
8 0.41
9 -0.15

>  <PUBCHEM_EFFECTIVE_ROTOR_COUNT>  (1) 
2.8

>  <PUBCHEM_PHARMACOPHORE_FEATURES>  (1) 
6
1 1 acceptor
1 2 acceptor
1 3 cation
1 3 donor
6 3 4 5 6 7 8 rings
6 5 6 9 10 11 12 rings

>  <PUBCHEM_HEAVY_ATOM_COUNT>  (1) 
14

>  <PUBCHEM_ATOM_DEF_STEREO_COUNT>  (1) 
0

>  <PUBCHEM_ATOM_UDEF_STEREO_COUNT>  (1) 
0

>  <PUBCHEM_BOND_DEF_STEREO_COUNT>  (1) 
0

>  <PUBCHEM_BOND_UDEF_STEREO_COUNT>  (1) 
0

>  <PUBCHEM_ISOTOPIC_ATOM_COUNT>  (1) 
0

>  <PUBCHEM_COMPONENT_COUNT>  (1) 
1

>  <PUBCHEM_CACTVS_TAUTO_COUNT>  (1) 
1

>  <PUBCHEM_CONFORMER_ID>  (1) 
00003D0700000002

>  <PUBCHEM_MMFF94_ENERGY>  (1) 
52.0002

>  <PUBCHEM_FEATURE_SELFOVERLAP>  (1) 
30.472

>  <PUBCHEM_SHAPE_FINGERPRINT>  (1) 
10608611 8 18412539925006547880
10922523 26 18342460348149660902
10967382 1 18196653995157642004
11206711 2 18411418444604852237
11680986 33 18270681944329690534
12032990 46 18340777030260352782
12138202 97 18261387785456325813
12500047 106 18189331286218398405
12730499 353 17611461927363193621
12932764 1 17676483900363854744
13140716 1 18341333292796421546
13296908 3 18273218590621785230
13380535 21 18339371768210266476
13380535 76 18268705022227523743
13897977 150 18342173323959386444
14325111 11 18413107273206745488
14911166 2 18197498415808722244
15219456 202 18343864420219187576
15279308 100 18265330608030682204
15775835 57 18188776037431443564
16945 1 18197212774671445198
17844478 74 18336552736545603123
18186145 218 18200032824423219140
200 152 17704064123328968103
20201158 50 18129380406466862270
20510252 161 18271809067985597952
20645477 70 17774720857811750062
20715346 28 18273213110195867314
20871998 184 18273500086946796983
21501502 16 18411700988907093356
2334 1 18413107290127950414
23402655 69 18127958721074643061
23463225 33 18410856577210035888
23552423 10 18408044026408182142
23559900 14 18270401565208074006
25 1 18051123701489611677
2748010 2 18342176669685954716
3312278 4 18412830157558361456
5104073 3 18412824677581064698
528886 8 18341605963211559320
53812653 166 18343298137460951984
6333449 129 18413387618364282301
69090 78 18341045229751426085
81228 2 18187651349064094217
8809292 202 18337398136391204178

>  <PUBCHEM_SHAPE_MULTIPOLES>  (1) 
271.39
5.72
2.15
0.79
1.26
0.01
0.01
0.04
0.06
-1.53
-0.01
-0.2
-0.01
0.93

>  <PUBCHEM_SHAPE_SELFOVERLAP>  (1) 
569.036

>  <PUBCHEM_SHAPE_VOLUME>  (1) 
153.7

>  <PUBCHEM_COORDINATE_TYPE>  (1) 
2
5
10

$$$$
