15635
     RDKit          3D

 12 13  0  0  0  0  0  0  0  0999 V2000
    3.3746    1.4540   -0.0001 Cl  0  0  0  0  0  0  0  0  0  0  0  0
   -1.8545   -1.0719   -0.0003 O   0  0  0  0  0  0  0  0  0  0  0  0
    2.9554   -1.5069   -0.0002 O   0  0  0  0  0  0  0  0  0  0  0  0
   -1.8394    1.1944    0.0000 N   0  0  0  0  0  0  0  0  0  0  0  0
   -3.9057   -0.0374   -0.0002 N   0  0  0  0  0  0  0  0  0  0  0  0
   -0.5526   -0.6597    0.0001 C   0  0  0  0  0  0  0  0  0  0  0  0
   -0.5474    0.7273    0.0001 C   0  0  0  0  0  0  0  0  0  0  0  0
    0.5861   -1.4558    0.0002 C   0  0  0  0  0  0  0  0  0  0  0  0
    0.6827    1.4004    0.0000 C   0  0  0  0  0  0  0  0  0  0  0  0
    1.8050   -0.7689    0.0001 C   0  0  0  0  0  0  0  0  0  0  0  0
    1.8550    0.6305    0.0000 C   0  0  0  0  0  0  0  0  0  0  0  0
   -2.5593    0.0941    0.0003 C   0  0  0  0  0  0  0  0  0  0  0  0
  1 11  1  0
  2  6  1  0
  2 12  1  0
  3 10  1  0
  4  7  1  0
  4 12  2  0
  5 12  1  0
  6  7  2  0
  6  8  1  0
  7  9  1  0
  8 10  2  0
  9 11  2  0
 10 11  1  0
M  END
>  <PUBCHEM_COMPOUND_CID>  (1) 
15635

>  <PUBCHEM_CONFORMER_RMSD>  (1) 
0.4

>  <PUBCHEM_CONFORMER_DIVERSEORDER>  (1) 
1

>  <PUBCHEM_MMFF94_PARTIAL_CHARGES>  (1) 
17
1 -0.18
10 0.08
11 0.18
12 0.56
13 0.15
14 0.15
15 0.4
16 0.4
17 0.45
2 -0.28
3 -0.53
4 -0.57
5 -0.88
6 0.14
7 0.23
8 -0.15
9 -0.15

>  <PUBCHEM_EFFECTIVE_ROTOR_COUNT>  (1) 
0

>  <PUBCHEM_PHARMACOPHORE_FEATURES>  (1) 
5
1 3 donor
1 5 donor
3 4 5 12 cation
5 2 4 6 7 12 rings
6 6 7 8 9 10 11 rings

>  <PUBCHEM_HEAVY_ATOM_COUNT>  (1) 
12

>  <PUBCHEM_ATOM_DEF_STEREO_COUNT>  (1) 
0

>  <PUBCHEM_ATOM_UDEF_STEREO_COUNT>  (1) 
0

>  <PUBCHEM_BOND_DEF_STEREO_COUNT>  (1) 
0

>  <PUBCHEM_BOND_UDEF_STEREO_COUNT>  (1) 
0

>  <PUBCHEM_ISOTOPIC_ATOM_COUNT>  (1) 
0

>  <PUBCHEM_COMPONENT_COUNT>  (1) 
1

>  <PUBCHEM_CACTVS_TAUTO_COUNT>  (1) 
6

>  <PUBCHEM_CONFORMER_ID>  (1) 
00003D1300000001

>  <PUBCHEM_MMFF94_ENERGY>  (1) 
19.5178

>  <PUBCHEM_FEATURE_SELFOVERLAP>  (1) 
25.49

>  <PUBCHEM_SHAPE_FINGERPRINT>  (1) 
10608611 8 18408317761627446381
11471102 20 18410569578984601453
12032990 46 18338522941007591651
13380535 21 18338245971546351170
13380535 76 18337389456478440354
14325111 11 18410855455970584901
14576447 43 17913754283754483647
14897335 6 18340200890367088676
15219456 202 18334006168852596685
15536298 74 18343584036533402756
15775835 57 18271528696757394676
16945 1 18338799047269693188
193761 8 17762055432778328516
20201158 50 18408885143886474610
20645477 70 18411976928140835015
21040471 1 18338799047522764356
21501502 16 18340208483695545489
21501925 9 18337659837554619138
23235685 24 18337385053931337472
23402655 69 18341601613032265557
23463225 33 18409164385865202714
23552423 10 18334013869681361962
2748010 2 18409729538957557404
369184 2 18411698781399411257
5084963 1 18271804575375823098
528886 8 18339074994591761104
53812653 166 18199746002428529000
63268167 104 18412547617129230592
7364860 26 18343302548745792686

>  <PUBCHEM_SHAPE_MULTIPOLES>  (1) 
227.12
5.1
1.66
0.59
1.33
0.16
0
-0.71
0
-1.01
0
-0.05
-0.02
0

>  <PUBCHEM_SHAPE_SELFOVERLAP>  (1) 
493.534

>  <PUBCHEM_SHAPE_VOLUME>  (1) 
127.7

>  <PUBCHEM_COORDINATE_TYPE>  (1) 
2
5
10

$$$$
