15636
     RDKit          3D

 13 14  0  0  0  0  0  0  0  0999 V2000
    2.8927    1.9673   -0.0550 Cl  0  0  0  0  0  0  0  0  0  0  0  0
   -2.0180   -1.2229   -0.1119 O   0  0  0  0  0  0  0  0  0  0  0  0
    2.8018   -1.0131   -0.3976 O   0  0  0  0  0  0  0  0  0  0  0  0
   -4.1156   -0.2803    0.1343 O   0  0  0  0  0  0  0  0  0  0  0  0
   -2.2030    1.0509    0.1669 N   0  0  0  0  0  0  0  0  0  0  0  0
   -0.8695    0.7627    0.0465 C   0  0  0  0  0  0  0  0  0  0  0  0
   -0.7782   -0.6025   -0.1195 C   0  0  0  0  0  0  0  0  0  0  0  0
    0.4409   -1.2267   -0.2713 C   0  0  0  0  0  0  0  0  0  0  0  0
    0.2306    1.5893    0.0727 C   0  0  0  0  0  0  0  0  0  0  0  0
    1.5821   -0.4179   -0.2495 C   0  0  0  0  0  0  0  0  0  0  0  0
    1.4775    0.9780   -0.0793 C   0  0  0  0  0  0  0  0  0  0  0  0
   -2.9002   -0.1428    0.0720 C   0  0  0  0  0  0  0  0  0  0  0  0
    3.4590   -1.4420    0.7917 C   0  0  0  0  0  0  0  0  0  0  0  0
  1 11  1  0
  2  7  1  0
  2 12  1  0
  3 10  1  0
  3 13  1  0
  4 12  2  0
  5  6  1  0
  5 12  1  0
  6  7  2  0
  6  9  1  0
  7  8  1  0
  8 10  2  0
  9 11  2  0
 10 11  1  0
M  END
>  <PUBCHEM_COMPOUND_CID>  (1) 
15636

>  <PUBCHEM_CONFORMER_RMSD>  (1) 
0.4

>  <PUBCHEM_CONFORMER_DIVERSEORDER>  (1) 
2
1

>  <PUBCHEM_MMFF94_PARTIAL_CHARGES>  (1) 
16
1 -0.18
10 0.08
11 0.18
12 0.78
13 0.28
14 0.15
15 0.15
16 0.37
2 -0.23
3 -0.36
4 -0.57
5 -0.55
6 0.12
7 0.08
8 -0.15
9 -0.15

>  <PUBCHEM_EFFECTIVE_ROTOR_COUNT>  (1) 
1

>  <PUBCHEM_PHARMACOPHORE_FEATURES>  (1) 
5
1 3 acceptor
1 4 acceptor
1 5 donor
5 2 5 6 7 12 rings
6 6 7 8 9 10 11 rings

>  <PUBCHEM_HEAVY_ATOM_COUNT>  (1) 
13

>  <PUBCHEM_ATOM_DEF_STEREO_COUNT>  (1) 
0

>  <PUBCHEM_ATOM_UDEF_STEREO_COUNT>  (1) 
0

>  <PUBCHEM_BOND_DEF_STEREO_COUNT>  (1) 
0

>  <PUBCHEM_BOND_UDEF_STEREO_COUNT>  (1) 
0

>  <PUBCHEM_ISOTOPIC_ATOM_COUNT>  (1) 
0

>  <PUBCHEM_COMPONENT_COUNT>  (1) 
1

>  <PUBCHEM_CACTVS_TAUTO_COUNT>  (1) 
2

>  <PUBCHEM_CONFORMER_ID>  (1) 
00003D1400000002

>  <PUBCHEM_MMFF94_ENERGY>  (1) 
47.2018

>  <PUBCHEM_FEATURE_SELFOVERLAP>  (1) 
25.487

>  <PUBCHEM_SHAPE_FINGERPRINT>  (1) 
10130415 120 18410575067488543179
10608611 8 18409445890775315901
11471102 20 18411416228760553293
11769659 78 18410288133861788599
12032990 46 18339930315864751775
12251169 10 18412820283465640122
12932764 1 17531239552374378055
13380535 76 18266458891870811402
14325111 11 18411703209669182845
14576447 43 17770205374258057775
15219456 202 18334005095126681437
15536298 74 18271809047027673700
15775835 57 18200037376988215637
16945 1 18268998587341928788
20201158 50 18411137996099295455
20559304 39 18410577254159744030
20645477 70 18411416215812588359
20871998 22 18198628731216472470
21501502 16 18341329014977547263
21501925 9 18411691076307255626
2334 1 18339924930044022548
23402655 69 18271800247008943309
23463225 33 18410292506106678492
23552423 10 18262521506245471732
2748010 2 18411420643506846724
5104073 3 18411142450528696705
528862 383 18336542815392636832
528886 8 18269272524719782137
53812653 166 18057321893190304296
53812654 25 18060411430458596710
63268167 104 18341055206522734833
7364860 26 18343303695496870380

>  <PUBCHEM_SHAPE_MULTIPOLES>  (1) 
246.81
5.58
1.85
0.67
1.93
0.39
-0.03
-0.88
-0.66
-1.52
-0.07
-0.23
-0.08
-0.29

>  <PUBCHEM_SHAPE_SELFOVERLAP>  (1) 
529.944

>  <PUBCHEM_SHAPE_VOLUME>  (1) 
139.8

>  <PUBCHEM_COORDINATE_TYPE>  (1) 
2
5
10

$$$$
