15639
     RDKit          3D

 20 21  0  0  1  0  0  0  0  0999 V2000
    3.1658    1.1627   -0.1361 O   0  0  0  0  0  0  0  0  0  0  0  0
    3.2261   -1.7125    0.0475 O   0  0  0  0  0  0  0  0  0  0  0  0
   -5.2670    0.3434    0.2439 O   0  0  0  0  0  0  0  0  0  0  0  0
   -7.5434   -1.1568   -0.3860 O   0  0  0  0  0  0  0  0  0  0  0  0
   -0.4254    0.4366    0.2715 N   0  0  0  0  0  0  0  0  0  0  0  0
    2.0303    0.3842    0.2661 C   0  0  0  0  0  0  0  0  0  0  0  0
    0.7780    1.1507   -0.1334 C   0  0  0  0  0  0  0  0  0  0  0  0
    2.0810   -0.9825   -0.4042 C   0  0  0  0  0  0  0  0  0  0  0  0
   -1.6221    1.1678   -0.1217 C   0  0  0  0  0  0  0  0  0  0  0  0
   -2.8725    0.3907    0.2775 C   0  0  0  0  0  0  0  0  0  0  0  0
    4.3321    0.4474   -0.0675 C   0  0  0  0  0  0  0  0  0  0  0  0
    4.3611   -0.9453    0.0324 C   0  0  0  0  0  0  0  0  0  0  0  0
   -4.1415    1.1209   -0.1408 C   0  0  0  0  0  0  0  0  0  0  0  0
    5.5247    1.1698   -0.1119 C   0  0  0  0  0  0  0  0  0  0  0  0
    5.5818   -1.6133    0.1325 C   0  0  0  0  0  0  0  0  0  0  0  0
    6.7454    0.5000   -0.0257 C   0  0  0  0  0  0  0  0  0  0  0  0
    6.7737   -0.8891    0.1019 C   0  0  0  0  0  0  0  0  0  0  0  0
   -6.4870    0.9749   -0.1209 C   0  0  0  0  0  0  0  0  0  0  0  0
   -7.6459    0.0887    0.2932 C   0  0  0  0  0  0  0  0  0  0  0  0
   -8.5952   -2.0383   -0.0183 C   0  0  0  0  0  0  0  0  0  0  0  0
  1  6  1  0
  1 11  1  0
  2  8  1  0
  2 12  1  0
  3 13  1  0
  3 18  1  0
  4 19  1  0
  4 20  1  0
  5  7  1  0
  5  9  1  0
  6  7  1  0
  6  8  1  0
  9 10  1  0
 10 13  1  0
 11 12  2  0
 11 14  1  0
 12 15  1  0
 14 16  2  0
 15 17  2  0
 16 17  1  0
 18 19  1  0
M  END
>  <PUBCHEM_COMPOUND_CID>  (1) 
15639

>  <PUBCHEM_CONFORMER_RMSD>  (1) 
1

>  <PUBCHEM_CONFORMER_DIVERSEORDER>  (1) 
1
15
43
34
9
51
25
66
82
72
81
37
85
31
60
61
86
14
63
3
67
10
16
71
79
35
80
58
17
7
77
23
24
76
84
12
30
33
11
44
65
21
18
2
52
55
45
5
74
70
42
27
4
57
73
32
20
26
69
64
50
36
41
39
29
13
68
49
6
46
22
62
56
19
8
40
53
54
75
48
59
83
28
47
78
38

>  <PUBCHEM_MMFF94_PARTIAL_CHARGES>  (1) 
24
1 -0.36
11 0.08
12 0.08
13 0.28
14 -0.15
15 -0.15
16 -0.15
17 -0.15
18 0.28
19 0.28
2 -0.36
20 0.28
28 0.36
3 -0.56
33 0.15
34 0.15
35 0.15
36 0.15
4 -0.56
5 -0.9
6 0.28
7 0.27
8 0.28
9 0.27

>  <PUBCHEM_EFFECTIVE_ROTOR_COUNT>  (1) 
9.8

>  <PUBCHEM_PHARMACOPHORE_FEATURES>  (1) 
8
1 1 acceptor
1 2 acceptor
1 3 acceptor
1 4 acceptor
1 5 cation
1 5 donor
6 1 2 6 8 11 12 rings
6 11 12 14 15 16 17 rings

>  <PUBCHEM_HEAVY_ATOM_COUNT>  (1) 
20

>  <PUBCHEM_ATOM_DEF_STEREO_COUNT>  (1) 
0

>  <PUBCHEM_ATOM_UDEF_STEREO_COUNT>  (1) 
1

>  <PUBCHEM_BOND_DEF_STEREO_COUNT>  (1) 
0

>  <PUBCHEM_BOND_UDEF_STEREO_COUNT>  (1) 
0

>  <PUBCHEM_ISOTOPIC_ATOM_COUNT>  (1) 
0

>  <PUBCHEM_COMPONENT_COUNT>  (1) 
1

>  <PUBCHEM_CACTVS_TAUTO_COUNT>  (1) 
1

>  <PUBCHEM_CONFORMER_ID>  (1) 
00003D1700000001

>  <PUBCHEM_MMFF94_ENERGY>  (1) 
44.486

>  <PUBCHEM_FEATURE_SELFOVERLAP>  (1) 
40.642

>  <PUBCHEM_SHAPE_FINGERPRINT>  (1) 
10299344 5 18343303669663548677
106641 1 18202277010040240376
11315181 36 18343023286199765041
11524674 6 16630805530800720983
11724838 91 18408886252283384300
12091667 2 17603588509432724449
12516196 113 18272087188593194473
13668630 136 18343304730040585583
13685833 64 18411700976349460001
13885169 127 18408603627084139317
13968360 50 14345788336415391873
14170010 4 18335139804417870124
14178184 131 18058448889227093423
14251764 18 18272932735005149639
14251764 46 17458064858696381649
14729087 3 9007061258354414087
15183329 4 17748823017108450379
15690457 1 18343861139455257671
15706992 2 17203317954598089936
15716309 27 18272088297422198293
20165401 70 18263919952367894466
21049683 271 18342739649821302784
21150785 3 17748543754045047877
21267235 1 18270965644547541772
21315763 28 18409448059617606344
220451 1 14764342717479015589
22224240 67 18408882949606488410
22288116 15 13190629395325086473
22896161 15 18411138043623328621
33532 11 18408884010010171530
335352 9 18335427855653753222
34797466 226 16415481563000174984
4073 2 17968384540586417754
4325135 7 18409730659743574684
5385378 56 13758085073349209725
5758199 1 12535630475335372501
59682541 35 17988637519290190178
67123 10 18410575106164626973
8209 1 18260548913734628801
999808 66 18260837038344236979

>  <PUBCHEM_SHAPE_MULTIPOLES>  (1) 
383.13
26.24
1.7
0.63
44.12
0.65
0
9.51
0.01
0.69
-0.06
0.04
0
-0.25

>  <PUBCHEM_SHAPE_SELFOVERLAP>  (1) 
774.607

>  <PUBCHEM_SHAPE_VOLUME>  (1) 
223.7

>  <PUBCHEM_COORDINATE_TYPE>  (1) 
2
5
10

$$$$
