15631
     RDKit          3D

 16 17  0  0  0  0  0  0  0  0999 V2000
    2.0610   -2.3685   -0.2897 F   0  0  0  0  0  0  0  0  0  0  0  0
   -0.4472    1.9953    0.2092 O   0  0  0  0  0  0  0  0  0  0  0  0
    0.3463   -0.1985   -0.0415 N   0  0  0  0  0  0  0  0  0  0  0  0
    1.7525   -0.0289   -0.0179 C   0  0  0  0  0  0  0  0  0  0  0  0
   -2.0228    0.2927    0.0363 C   0  0  0  0  0  0  0  0  0  0  0  0
   -0.6527    0.7788    0.0684 C   0  0  0  0  0  0  0  0  0  0  0  0
    2.5721   -1.1373   -0.1449 C   0  0  0  0  0  0  0  0  0  0  0  0
    2.2750    1.2445    0.1305 C   0  0  0  0  0  0  0  0  0  0  0  0
   -3.0468    1.1227   -0.4200 C   0  0  0  0  0  0  0  0  0  0  0  0
   -2.3132   -1.0039    0.4613 C   0  0  0  0  0  0  0  0  0  0  0  0
    3.9564   -0.9670   -0.1230 C   0  0  0  0  0  0  0  0  0  0  0  0
    3.6593    1.4146    0.1526 C   0  0  0  0  0  0  0  0  0  0  0  0
   -4.3611    0.6565   -0.4511 C   0  0  0  0  0  0  0  0  0  0  0  0
   -3.6274   -1.4700    0.4300 C   0  0  0  0  0  0  0  0  0  0  0  0
    4.4999    0.3089    0.0259 C   0  0  0  0  0  0  0  0  0  0  0  0
   -4.6514   -0.6398   -0.0262 C   0  0  0  0  0  0  0  0  0  0  0  0
  1  7  1  0
  2  6  2  0
  3  4  1  0
  3  6  1  0
  4  7  2  0
  4  8  1  0
  5  6  1  0
  5  9  2  0
  5 10  1  0
  7 11  1  0
  8 12  2  0
  9 13  1  0
 10 14  2  0
 11 15  2  0
 12 15  1  0
 13 16  2  0
 14 16  1  0
M  END
>  <PUBCHEM_COMPOUND_CID>  (1) 
15631

>  <PUBCHEM_CONFORMER_RMSD>  (1) 
0.6

>  <PUBCHEM_CONFORMER_DIVERSEORDER>  (1) 
1
5
6
2
4
3

>  <PUBCHEM_MMFF94_PARTIAL_CHARGES>  (1) 
26
1 -0.19
10 -0.15
11 -0.15
12 -0.15
13 -0.15
14 -0.15
15 -0.15
16 -0.15
17 0.37
18 0.15
19 0.15
2 -0.57
20 0.15
21 0.15
22 0.15
23 0.15
24 0.15
25 0.15
26 0.15
3 -0.55
4 0.12
5 0.09
6 0.54
7 0.19
8 -0.15
9 -0.15

>  <PUBCHEM_EFFECTIVE_ROTOR_COUNT>  (1) 
3

>  <PUBCHEM_PHARMACOPHORE_FEATURES>  (1) 
4
1 2 acceptor
1 3 donor
6 4 7 8 11 12 15 rings
6 5 9 10 13 14 16 rings

>  <PUBCHEM_HEAVY_ATOM_COUNT>  (1) 
16

>  <PUBCHEM_ATOM_DEF_STEREO_COUNT>  (1) 
0

>  <PUBCHEM_ATOM_UDEF_STEREO_COUNT>  (1) 
0

>  <PUBCHEM_BOND_DEF_STEREO_COUNT>  (1) 
0

>  <PUBCHEM_BOND_UDEF_STEREO_COUNT>  (1) 
0

>  <PUBCHEM_ISOTOPIC_ATOM_COUNT>  (1) 
0

>  <PUBCHEM_COMPONENT_COUNT>  (1) 
1

>  <PUBCHEM_CACTVS_TAUTO_COUNT>  (1) 
2

>  <PUBCHEM_CONFORMER_ID>  (1) 
00003D0F00000001

>  <PUBCHEM_MMFF94_ENERGY>  (1) 
49.1496

>  <PUBCHEM_FEATURE_SELFOVERLAP>  (1) 
20.297

>  <PUBCHEM_SHAPE_FINGERPRINT>  (1) 
10608611 8 18408881823913950869
10616163 171 18339926012534653871
11471102 20 18412543215209712636
11615757 297 17704076213160778952
13296908 3 18410012139252544777
14252887 29 17489596649347908996
15196674 1 18410011043787983914
15219456 202 18410011039503546627
15375358 24 18334857229406948099
15536298 74 18412826880366491146
15961568 22 17168428289363303900
17834074 16 18410575089074207695
18186145 218 17821722823688284837
19107657 46 18411420617758395215
19141452 34 18340491157838504723
200 152 18131630084392629849
20279233 1 18335144193304286283
20645477 56 18114178593457017957
20645477 70 18272088262382355006
21079973 296 18259987110431746819
21267235 1 18411428305739253470
221490 88 18263088875620000930
22485316 2 18411980273693225599
23402539 116 17748818627103279724
23402655 69 18413108355443474204
23557571 272 17748820800325349797
23559900 14 18409443653186583696
26918003 58 18409162208068915880
2871803 45 18408603639114141566
3268164 11 16660633056052330343
33824 294 18410854361139117850
3545911 37 18408605859533112373
4214541 1 18409166584851853293
4921388 177 16298679368728003051
5104073 3 18410575067567756120
542803 24 14634869742871599044
69090 78 18410571807846053955
77779 3 18409730664149343989
8809292 202 18260834833954972939
9709674 26 18409454673872718291

>  <PUBCHEM_SHAPE_MULTIPOLES>  (1) 
311.15
9.87
1.81
0.66
1.39
0.27
0
0.89
-0.37
-0.44
0
0.13
0.01
0.6

>  <PUBCHEM_SHAPE_SELFOVERLAP>  (1) 
673.611

>  <PUBCHEM_SHAPE_VOLUME>  (1) 
170.2

>  <PUBCHEM_COORDINATE_TYPE>  (1) 
2
5
10

$$$$
