15632
     RDKit          3D

 23 24  0  0  0  0  0  0  0  0999 V2000
   -2.8171    1.7706   -2.0591 O   0  0  0  0  0  0  0  0  0  0  0  0
   -4.2337   -1.0373   -0.2940 O   0  0  0  0  0  0  0  0  0  0  0  0
   -1.9734    0.3024    2.2269 O   0  0  0  0  0  0  0  0  0  0  0  0
    3.8533    0.1019   -0.4980 O   0  0  0  0  0  0  0  0  0  0  0  0
   -6.2011   -0.0940    0.4363 O   0  0  0  0  0  0  0  0  0  0  0  0
    7.2672   -0.5902   -0.2170 O   0  0  0  0  0  0  0  0  0  0  0  0
    6.0549    0.1388   -1.9012 O   0  0  0  0  0  0  0  0  0  0  0  0
   -2.7859    1.0741    0.1720 N   0  0  0  0  0  0  0  0  0  0  0  0
   -0.6199    0.6396    0.3448 N   0  0  0  0  0  0  0  0  0  0  0  0
    0.5526    0.2680    0.8792 N   0  0  0  0  0  0  0  0  0  0  0  0
    6.1487   -0.2448   -0.6986 N   0  0  0  0  0  0  0  0  0  0  0  0
   -0.7481    1.0795   -1.0132 C   0  0  0  0  0  0  0  0  0  0  0  0
   -2.2378    1.3607   -1.0617 C   0  0  0  0  0  0  0  0  0  0  0  0
   -1.8170    0.6339    1.0589 C   0  0  0  0  0  0  0  0  0  0  0  0
   -4.1916    1.2164    0.4957 C   0  0  0  0  0  0  0  0  0  0  0  0
   -4.9961   -0.0311    0.2155 C   0  0  0  0  0  0  0  0  0  0  0  0
    1.5464    0.3439    0.0537 C   0  0  0  0  0  0  0  0  0  0  0  0
    2.8998   -0.0161    0.4431 C   0  0  0  0  0  0  0  0  0  0  0  0
   -4.9263   -2.2559   -0.5853 C   0  0  0  0  0  0  0  0  0  0  0  0
    3.3859   -0.4644    1.6263 C   0  0  0  0  0  0  0  0  0  0  0  0
    5.0073   -0.2877    0.1042 C   0  0  0  0  0  0  0  0  0  0  0  0
    4.7729   -0.6458    1.4115 C   0  0  0  0  0  0  0  0  0  0  0  0
   -3.9410   -3.2625   -1.1400 C   0  0  0  0  0  0  0  0  0  0  0  0
  1 13  2  0
  2 16  1  0
  2 19  1  0
  3 14  2  0
  4 18  1  0
  4 21  1  0
  5 16  2  0
  6 11  1  0
  7 11  2  0
  8 13  1  0
  8 14  1  0
  8 15  1  0
  9 10  1  0
  9 12  1  0
  9 14  1  0
 10 17  2  0
 11 21  1  0
 12 13  1  0
 15 16  1  0
 17 18  1  0
 18 20  2  0
 19 23  1  0
 20 22  1  0
 21 22  2  0
M  CHG  2   6  -1  11   1
M  END
>  <PUBCHEM_COMPOUND_CID>  (1) 
15632

>  <PUBCHEM_CONFORMER_RMSD>  (1) 
0.8

>  <PUBCHEM_CONFORMER_DIVERSEORDER>  (1) 
1
90
35
100
22
34
91
62
26
36
96
70
113
16
75
79
51
10
43
49
28
74
30
48
109
71
66
64
24
47
76
17
29
32
33
57
69
54
39
78
111
72
45
8
104
44
23
13
93
83
98
81
41
88
21
46
101
52
94
89
99
65
42
73
20
87
55
19
105
58
12
77
14
50
56
112
82
5
53
27
85
106
18
31
68
84
63
15
86
59
9
97
108
60
25
61
114
4
11
103
107
110
3
92
6
38
37
80
102
2
67
40
7
95

>  <PUBCHEM_MMFF94_PARTIAL_CHARGES>  (1) 
25
1 -0.57
10 -0.51
11 0.96
12 0.36
13 0.57
14 0.69
15 0.36
16 0.66
17 0.47
18 0.05
19 0.28
2 -0.43
20 -0.15
21 0.22
22 -0.15
28 0.06
3 -0.57
31 0.15
32 0.15
4 -0.28
5 -0.57
6 -0.52
7 -0.52
8 -0.42
9 -0.3

>  <PUBCHEM_EFFECTIVE_ROTOR_COUNT>  (1) 
7.6

>  <PUBCHEM_PHARMACOPHORE_FEATURES>  (1) 
10
1 1 acceptor
1 10 acceptor
1 3 acceptor
1 4 acceptor
1 5 acceptor
1 6 acceptor
1 6 anion
1 7 acceptor
5 4 18 20 21 22 rings
5 8 9 12 13 14 rings

>  <PUBCHEM_HEAVY_ATOM_COUNT>  (1) 
23

>  <PUBCHEM_ATOM_DEF_STEREO_COUNT>  (1) 
0

>  <PUBCHEM_ATOM_UDEF_STEREO_COUNT>  (1) 
0

>  <PUBCHEM_BOND_DEF_STEREO_COUNT>  (1) 
0

>  <PUBCHEM_BOND_UDEF_STEREO_COUNT>  (1) 
1

>  <PUBCHEM_ISOTOPIC_ATOM_COUNT>  (1) 
0

>  <PUBCHEM_COMPONENT_COUNT>  (1) 
1

>  <PUBCHEM_CACTVS_TAUTO_COUNT>  (1) 
1

>  <PUBCHEM_CONFORMER_ID>  (1) 
00003D1000000001

>  <PUBCHEM_MMFF94_ENERGY>  (1) 
36.6532

>  <PUBCHEM_FEATURE_SELFOVERLAP>  (1) 
50.846

>  <PUBCHEM_SHAPE_FINGERPRINT>  (1) 
10291535 26 10881396513752258647
10366900 7 17676488350134947528
10595046 47 17168142295932751284
10968037 39 16805329889694613849
11045977 3 17561077038451856139
11315621 246 18335700576237362383
11524674 6 17346876754529109143
13288520 33 18411700993961819937
13533116 47 16877935006432390392
1420 363 17275106119924363096
14251764 30 18202003201363907380
14341114 176 15123787375656954528
14840074 17 18113898256488404427
14955137 171 17132115770714234128
15352257 5 18131356284897667150
15537594 2 18334010588548297083
15799311 1 18271537411673825894
17844677 252 15482671277760811584
17980427 23 16588313730733378295
18769570 83 8935009173947735135
200 152 17458059352870061601
20281389 69 12324239477637841870
20645477 70 16153983544070821946
21150785 3 15430039885358894089
21623969 137 16343709841605310422
220451 1 18408605829389109970
2303208 19 17203613696427671334
23035841 295 18272371962125523651
23402539 116 17240195504861694125
23522609 53 18042994006908736188
23559900 14 18058440062377443673
26918003 58 17632856434583572193
300161 21 14634873067772580280
34797466 226 18114476591320232724
4325135 7 17967253083239586166
484985 159 17345452917304760735
59755656 215 18060704978731483614
8863177 126 17489020569658858358
999808 66 16845303739161639238

>  <PUBCHEM_SHAPE_MULTIPOLES>  (1) 
412.32
16.53
1.87
1.59
17.46
1.92
0.09
6.25
2.1
-4.31
0.7
0.69
-0.38
-0.46

>  <PUBCHEM_SHAPE_SELFOVERLAP>  (1) 
870.505

>  <PUBCHEM_SHAPE_VOLUME>  (1) 
232.8

>  <PUBCHEM_COORDINATE_TYPE>  (1) 
2
5
10

$$$$
