15649
     RDKit          3D

 20 20  0  0  0  0  0  0  0  0999 V2000
   -1.2459   -2.2005   -2.4280 Cl  0  0  0  0  0  0  0  0  0  0  0  0
   -3.5503    1.6063    1.9452 Cl  0  0  0  0  0  0  0  0  0  0  0  0
    1.7117   -3.5397    1.2374 Cl  0  0  0  0  0  0  0  0  0  0  0  0
    1.6250    0.8423    2.3684 S   0  0  0  0  0  0  0  0  0  0  0  0
    1.5737    0.6219    0.4331 P   0  0  0  0  0  0  0  0  0  0  0  0
    1.2106   -0.8652   -0.1153 O   0  0  0  0  0  0  0  0  0  0  0  0
    2.9473    0.9405   -0.3780 O   0  0  0  0  0  0  0  0  0  0  0  0
    0.4987    1.5352   -0.3781 O   0  0  0  0  0  0  0  0  0  0  0  0
   -1.1691   -0.9284   -0.0066 C   0  0  0  0  0  0  0  0  0  0  0  0
    0.1260   -1.5768    0.2750 C   0  0  0  0  0  0  0  0  0  0  0  0
    4.0750    0.0979   -0.2109 C   0  0  0  0  0  0  0  0  0  0  0  0
    0.4784    2.9390   -0.1815 C   0  0  0  0  0  0  0  0  0  0  0  0
   -1.8505   -1.1528   -1.1923 C   0  0  0  0  0  0  0  0  0  0  0  0
   -1.6802   -0.0830    0.9672 C   0  0  0  0  0  0  0  0  0  0  0  0
    5.2083    0.6145   -1.0714 C   0  0  0  0  0  0  0  0  0  0  0  0
   -0.6061    3.5427   -1.0484 C   0  0  0  0  0  0  0  0  0  0  0  0
   -2.9023    0.5527    0.7487 C   0  0  0  0  0  0  0  0  0  0  0  0
   -3.0728   -0.5171   -1.4107 C   0  0  0  0  0  0  0  0  0  0  0  0
   -3.5987    0.3358   -0.4402 C   0  0  0  0  0  0  0  0  0  0  0  0
    0.2213   -2.7655    0.8862 C   0  0  0  0  0  0  0  0  0  0  0  0
  1 13  1  0
  2 17  1  0
  3 20  1  0
  4  5  2  0
  5  6  1  0
  5  7  1  0
  5  8  1  0
  6 10  1  0
  7 11  1  0
  8 12  1  0
  9 10  1  0
  9 13  2  0
  9 14  1  0
 10 20  2  0
 11 15  1  0
 12 16  1  0
 13 18  1  0
 14 17  2  0
 17 19  1  0
 18 19  2  0
M  END
>  <PUBCHEM_COMPOUND_CID>  (1) 
15649

>  <PUBCHEM_CONFORMER_RMSD>  (1) 
0.8

>  <PUBCHEM_CONFORMER_DIVERSEORDER>  (1) 
1
15
13
5
7
2
17
22
3
23
9
29
16
33
18
30
28
21
11
35
4
26
31
10
8
36
32
25
20
34
19
12
14
24
27
6

>  <PUBCHEM_MMFF94_PARTIAL_CHARGES>  (1) 
22
1 -0.18
10 0.05
11 0.28
12 0.28
13 0.18
14 -0.15
17 0.18
18 -0.15
19 -0.15
2 -0.18
20 -0.01
25 0.15
3 -0.14
32 0.15
33 0.15
34 0.15
4 -0.68
5 1.49
6 -0.35
7 -0.55
8 -0.55
9 0.03

>  <PUBCHEM_EFFECTIVE_ROTOR_COUNT>  (1) 
7

>  <PUBCHEM_PHARMACOPHORE_FEATURES>  (1) 
1
6 9 13 14 17 18 19 rings

>  <PUBCHEM_HEAVY_ATOM_COUNT>  (1) 
20

>  <PUBCHEM_ATOM_DEF_STEREO_COUNT>  (1) 
0

>  <PUBCHEM_ATOM_UDEF_STEREO_COUNT>  (1) 
0

>  <PUBCHEM_BOND_DEF_STEREO_COUNT>  (1) 
0

>  <PUBCHEM_BOND_UDEF_STEREO_COUNT>  (1) 
1

>  <PUBCHEM_ISOTOPIC_ATOM_COUNT>  (1) 
0

>  <PUBCHEM_COMPONENT_COUNT>  (1) 
1

>  <PUBCHEM_CACTVS_TAUTO_COUNT>  (1) 
1

>  <PUBCHEM_CONFORMER_ID>  (1) 
00003D2100000001

>  <PUBCHEM_MMFF94_ENERGY>  (1) 
36.6341

>  <PUBCHEM_FEATURE_SELFOVERLAP>  (1) 
5.074

>  <PUBCHEM_SHAPE_FINGERPRINT>  (1) 
10382601 240 18050875245999660505
104564 63 18261385586106698236
11578080 2 17481377713778133257
12788726 201 18409735032880592660
13965767 371 17914621544941105025
14790565 3 18262818318725463724
16945 1 17904202529643277691
20600515 1 18266479731358762748
21524375 3 18343311374529033147
23402539 116 18411702106263436716
23557571 272 17199081646768503635
23598291 2 18200302217931499071
298252 57 17774735181301081659
3084891 72 18335136514498879410
350125 39 17900275391746284331
6992083 37 18272376416122842685
74978 22 18046338910221139176
81228 2 16813201542588540306

>  <PUBCHEM_SHAPE_MULTIPOLES>  (1) 
407.29
6.43
3.68
2.01
4.74
0.2
-0.2
-1.95
1.02
0.48
0.13
-0.57
0.31
-1.67

>  <PUBCHEM_SHAPE_SELFOVERLAP>  (1) 
772.017

>  <PUBCHEM_SHAPE_VOLUME>  (1) 
255.4

>  <PUBCHEM_COORDINATE_TYPE>  (1) 
2
5
10

$$$$
