15643
     RDKit          3D

 13 13  0  0  0  0  0  0  0  0999 V2000
   -1.6027   -0.0337    0.1782 P   0  0  0  0  0  0  0  0  0  0  0  0
   -0.3036    0.7958   -0.3404 O   0  0  0  0  0  0  0  0  0  0  0  0
   -1.5012   -0.3376    1.6547 O   0  0  0  0  0  0  0  0  0  0  0  0
   -2.9223    0.8700   -0.2826 N   0  0  0  0  0  0  0  0  0  0  0  0
   -1.6396   -1.3875   -0.7941 N   0  0  0  0  0  0  0  0  0  0  0  0
    1.0022    0.4184   -0.1766 C   0  0  0  0  0  0  0  0  0  0  0  0
   -3.1853    2.1366    0.3815 C   0  0  0  0  0  0  0  0  0  0  0  0
   -2.8026   -2.2608   -0.7363 C   0  0  0  0  0  0  0  0  0  0  0  0
    1.2991   -0.7691    0.4837 C   0  0  0  0  0  0  0  0  0  0  0  0
    2.0203    1.2264   -0.6718 C   0  0  0  0  0  0  0  0  0  0  0  0
    2.6296   -1.1531    0.6512 C   0  0  0  0  0  0  0  0  0  0  0  0
    3.3508    0.8423   -0.5045 C   0  0  0  0  0  0  0  0  0  0  0  0
    3.6553   -0.3475    0.1571 C   0  0  0  0  0  0  0  0  0  0  0  0
  1  2  1  0
  1  3  2  0
  1  4  1  0
  1  5  1  0
  2  6  1  0
  4  7  1  0
  5  8  1  0
  6  9  2  0
  6 10  1  0
  9 11  1  0
 10 12  2  0
 11 13  2  0
 12 13  1  0
M  END
>  <PUBCHEM_COMPOUND_CID>  (1) 
15643

>  <PUBCHEM_CONFORMER_RMSD>  (1) 
0.6

>  <PUBCHEM_CONFORMER_DIVERSEORDER>  (1) 
2
11
1
20
16
15
12
14
18
3
19
10
7
4
9
6
17
13
5
8
21
22

>  <PUBCHEM_MMFF94_PARTIAL_CHARGES>  (1) 
20
1 1.51
10 -0.15
11 -0.15
12 -0.15
13 -0.15
14 0.36
15 0.36
2 -0.35
22 0.15
23 0.15
24 0.15
25 0.15
26 0.15
3 -0.7
4 -0.9
5 -0.9
6 0.08
7 0.27
8 0.27
9 -0.15

>  <PUBCHEM_EFFECTIVE_ROTOR_COUNT>  (1) 
4

>  <PUBCHEM_PHARMACOPHORE_FEATURES>  (1) 
1
6 6 9 10 11 12 13 rings

>  <PUBCHEM_HEAVY_ATOM_COUNT>  (1) 
13

>  <PUBCHEM_ATOM_DEF_STEREO_COUNT>  (1) 
0

>  <PUBCHEM_ATOM_UDEF_STEREO_COUNT>  (1) 
0

>  <PUBCHEM_BOND_DEF_STEREO_COUNT>  (1) 
0

>  <PUBCHEM_BOND_UDEF_STEREO_COUNT>  (1) 
0

>  <PUBCHEM_ISOTOPIC_ATOM_COUNT>  (1) 
0

>  <PUBCHEM_COMPONENT_COUNT>  (1) 
1

>  <PUBCHEM_CACTVS_TAUTO_COUNT>  (1) 
2

>  <PUBCHEM_CONFORMER_ID>  (1) 
00003D1B00000002

>  <PUBCHEM_MMFF94_ENERGY>  (1) 
19.5496

>  <PUBCHEM_FEATURE_SELFOVERLAP>  (1) 
5.074

>  <PUBCHEM_SHAPE_FINGERPRINT>  (1) 
12500047 106 18201993283677765968
12932764 1 18342186608372328384
14144814 61 18336828602131592232
14325111 11 18334859445931761196
15279307 12 18409445856267793451
15775835 57 18410015433397658220
15852999 172 17560240206728413543
17844478 74 16081375098469744309
18186145 218 16370728132376434258
18511873 20 18264204716681872224
18522853 266 18343302543886433686
19422 9 18408602582626104950
20279233 1 15985099713100492902
21501502 16 18334010609885456996
21524375 3 18191025599921128121
23402655 69 18187358818213998261
23598291 2 18334570214033299422
3248919 1 17458907149349455892
53748568 43 18335706039625257302
57812782 119 13182729312945933152
58051976 100 18409450297295295103
69090 78 18336824191711758741
74978 22 18343582945089833928
7832392 63 18409448064028572772
8030462 33 18187930646012324822
9939556 21 18408884031574302004

>  <PUBCHEM_SHAPE_MULTIPOLES>  (1) 
249.68
6.31
1.97
0.99
0.88
0.21
-0.21
-0.59
0.24
-2.01
0.28
-0.22
0.16
-1.09

>  <PUBCHEM_SHAPE_SELFOVERLAP>  (1) 
484.943

>  <PUBCHEM_SHAPE_VOLUME>  (1) 
151.4

>  <PUBCHEM_COORDINATE_TYPE>  (1) 
2
5
10

$$$$
