15648
     RDKit          3D

 29 32  0  0  0  0  0  0  0  0999 V2000
   -1.9500    4.7200   -0.4421 Cl  0  0  0  0  0  0  0  0  0  0  0  0
   -4.9184   -1.7221   -0.3340 F   0  0  0  0  0  0  0  0  0  0  0  0
    0.1890   -2.8902   -2.1943 O   0  0  0  0  0  0  0  0  0  0  0  0
    3.6537   -0.7343    0.3902 N   0  0  0  0  0  0  0  0  0  0  0  0
    6.2835    0.1677    1.1838 N   0  0  0  0  0  0  0  0  0  0  0  0
    0.4119   -0.6821   -1.4838 N   0  0  0  0  0  0  0  0  0  0  0  0
   -2.5177   -1.4558   -1.2813 N   0  0  0  0  0  0  0  0  0  0  0  0
    4.4270    0.1908   -0.4473 C   0  0  0  0  0  0  0  0  0  0  0  0
    4.0050   -0.5597    1.8047 C   0  0  0  0  0  0  0  0  0  0  0  0
    5.9315   -0.0048   -0.2310 C   0  0  0  0  0  0  0  0  0  0  0  0
    5.5093   -0.7568    2.0212 C   0  0  0  0  0  0  0  0  0  0  0  0
    2.2192   -0.5453    0.1843 C   0  0  0  0  0  0  0  0  0  0  0  0
    1.8495   -0.8377   -1.2626 C   0  0  0  0  0  0  0  0  0  0  0  0
    7.7179   -0.0232    1.3890 C   0  0  0  0  0  0  0  0  0  0  0  0
   -0.1830    0.5934   -1.1900 C   0  0  0  0  0  0  0  0  0  0  0  0
   -0.2893   -1.7653   -2.0265 C   0  0  0  0  0  0  0  0  0  0  0  0
   -1.5286    0.7434   -0.7951 C   0  0  0  0  0  0  0  0  0  0  0  0
   -1.7016   -1.4880   -2.4765 C   0  0  0  0  0  0  0  0  0  0  0  0
   -2.4189   -0.4225   -0.5151 C   0  0  0  0  0  0  0  0  0  0  0  0
    0.6027    1.7595   -1.2819 C   0  0  0  0  0  0  0  0  0  0  0  0
   -2.0715    2.0240   -0.5831 C   0  0  0  0  0  0  0  0  0  0  0  0
   -3.2402   -0.4201    0.7301 C   0  0  0  0  0  0  0  0  0  0  0  0
    0.0616    3.0266   -1.0495 C   0  0  0  0  0  0  0  0  0  0  0  0
   -1.2782    3.1597   -0.7126 C   0  0  0  0  0  0  0  0  0  0  0  0
   -4.4628   -1.0802    0.7514 C   0  0  0  0  0  0  0  0  0  0  0  0
   -2.7714    0.2439    1.8573 C   0  0  0  0  0  0  0  0  0  0  0  0
   -5.2283   -1.0763    1.9174 C   0  0  0  0  0  0  0  0  0  0  0  0
   -3.5366    0.2475    3.0237 C   0  0  0  0  0  0  0  0  0  0  0  0
   -4.7652   -0.4124    3.0537 C   0  0  0  0  0  0  0  0  0  0  0  0
  1 24  1  0
  2 25  1  0
  3 16  2  0
  4  8  1  0
  4  9  1  0
  4 12  1  0
  5 10  1  0
  5 11  1  0
  5 14  1  0
  6 13  1  0
  6 15  1  0
  6 16  1  0
  7 18  1  0
  7 19  2  0
  8 10  1  0
  9 11  1  0
 12 13  1  0
 15 17  2  0
 15 20  1  0
 16 18  1  0
 17 19  1  0
 17 21  1  0
 19 22  1  0
 20 23  2  0
 21 24  2  0
 22 25  2  0
 22 26  1  0
 23 24  1  0
 25 27  1  0
 26 28  2  0
 27 29  2  0
 28 29  1  0
M  END
>  <PUBCHEM_COMPOUND_CID>  (1) 
15648

>  <PUBCHEM_CONFORMER_RMSD>  (1) 
0.8

>  <PUBCHEM_CONFORMER_DIVERSEORDER>  (1) 
1
72
75
27
14
18
31
53
71
21
20
64
76
51
70
60
17
5
8
16
73
33
45
26
25
15
59
65
66
69
19
36
23
67
11
52
56
28
68
61
54
44
4
57
35
29
34
74
46
47
55
3
10
43
77
30
42
38
58
6
63
12
37
24
62
48
32
49
39
41
22
13
40
50
2
7
9

>  <PUBCHEM_MMFF94_PARTIAL_CHARGES>  (1) 
36
1 -0.18
10 0.27
11 0.27
12 0.27
13 0.3
14 0.27
15 0.12
16 0.57
17 0.09
18 0.31
19 0.28
2 -0.19
20 -0.15
21 -0.15
22 0.09
23 -0.15
24 0.18
25 0.19
26 -0.15
27 -0.15
28 -0.15
29 -0.15
3 -0.57
4 -0.81
47 0.15
48 0.15
49 0.15
5 -0.81
50 0.15
51 0.15
52 0.15
53 0.15
6 -0.48
7 -0.7
8 0.27
9 0.27

>  <PUBCHEM_EFFECTIVE_ROTOR_COUNT>  (1) 
5.6

>  <PUBCHEM_PHARMACOPHORE_FEATURES>  (1) 
8
1 3 acceptor
1 4 cation
1 5 cation
1 7 acceptor
6 15 17 20 21 23 24 rings
6 22 25 26 27 28 29 rings
6 4 5 8 9 10 11 rings
7 6 7 15 16 17 18 19 rings

>  <PUBCHEM_HEAVY_ATOM_COUNT>  (1) 
29

>  <PUBCHEM_ATOM_DEF_STEREO_COUNT>  (1) 
0

>  <PUBCHEM_ATOM_UDEF_STEREO_COUNT>  (1) 
0

>  <PUBCHEM_BOND_DEF_STEREO_COUNT>  (1) 
0

>  <PUBCHEM_BOND_UDEF_STEREO_COUNT>  (1) 
0

>  <PUBCHEM_ISOTOPIC_ATOM_COUNT>  (1) 
0

>  <PUBCHEM_COMPONENT_COUNT>  (1) 
1

>  <PUBCHEM_CACTVS_TAUTO_COUNT>  (1) 
1

>  <PUBCHEM_CONFORMER_ID>  (1) 
00003D2000000001

>  <PUBCHEM_MMFF94_ENERGY>  (1) 
100.3046

>  <PUBCHEM_FEATURE_SELFOVERLAP>  (1) 
40.611

>  <PUBCHEM_SHAPE_FINGERPRINT>  (1) 
10074138 170 17970911055447066041
10369192 42 16773513382684827100
10674148 151 13551464874311702855
10906281 52 18193559974133800061
11370993 144 16917352528632609438
11387372 6 17028247973977046082
11456790 92 17604451660536273785
11578080 2 17629771072039296289
117089 54 13698158516007969097
11991303 11 12103837960845604581
12422481 6 18270976651736571989
12553582 1 18192743148741899119
12633257 1 18189919654332109539
12788726 201 18115047249906747156
13009979 54 17557134314150928455
13257819 101 14404914578193039737
13540713 4 18054515707582322006
13544653 18 17167868577244841242
13965767 371 17699879249045873299
14068700 675 17385729135603470825
14840074 17 18339933730664523644
14844126 61 18187639176847449497
15475509 35 16809580726892536971
15775530 1 17768260006969508183
17980427 23 17988096581561099257
21033648 29 17773897319608213409
21304303 282 17461143371849990109
21344244 78 17983893131565763737
21796203 349 18191889979142808168
22182313 1 18127704728991844581
23379529 103 13769644350919047225
23559900 14 15719958067688763119
2838139 119 14405189434683066146
3380486 145 18413107239168722165
376196 1 17331104002172272765
392239 28 18187369873871242282
4015057 19 12324255961796534814
469060 322 18412539933443352246
484985 159 17024017168927747475
5104073 3 18116416057001808720
513202 73 18264214608429859526
633830 44 15626219096709856246
7064713 232 17775298178651682287
7226269 152 17968369032324980309
9896288 288 18189897513653924792
9981440 41 17910370823944572317

>  <PUBCHEM_SHAPE_MULTIPOLES>  (1) 
565.61
13.41
3.24
2.82
24.28
5.61
-0.11
-7.73
11.24
-3.44
0.24
-1.97
-2.04
-0.07

>  <PUBCHEM_SHAPE_SELFOVERLAP>  (1) 
1211.075

>  <PUBCHEM_SHAPE_VOLUME>  (1) 
313.5

>  <PUBCHEM_COORDINATE_TYPE>  (1) 
2
5
10

$$$$
