15657
     RDKit          3D

 15 16  0  0  0  0  0  0  0  0999 V2000
    0.4508   -2.1775   -0.5692 O   0  0  0  0  0  0  0  0  0  0  0  0
   -0.6769   -0.1580   -0.4038 N   0  0  0  0  0  0  0  0  0  0  0  0
   -2.0045   -0.6886   -0.6199 C   0  0  0  0  0  0  0  0  0  0  0  0
   -2.6389   -1.1399    0.6999 C   0  0  0  0  0  0  0  0  0  0  0  0
   -2.8931    0.3282   -1.3444 C   0  0  0  0  0  0  0  0  0  0  0  0
   -3.0335    0.0373    1.5918 C   0  0  0  0  0  0  0  0  0  0  0  0
   -3.2871    1.5032   -0.4491 C   0  0  0  0  0  0  0  0  0  0  0  0
   -3.9262    1.0294    0.8526 C   0  0  0  0  0  0  0  0  0  0  0  0
    0.4527   -0.9613   -0.3971 C   0  0  0  0  0  0  0  0  0  0  0  0
    1.7400   -0.2677   -0.1348 C   0  0  0  0  0  0  0  0  0  0  0  0
    2.7760   -0.9791    0.4339 C   0  0  0  0  0  0  0  0  0  0  0  0
    1.8584    1.0655   -0.4688 C   0  0  0  0  0  0  0  0  0  0  0  0
    3.9848   -0.3279    0.6800 C   0  0  0  0  0  0  0  0  0  0  0  0
    3.0672    1.7166   -0.2227 C   0  0  0  0  0  0  0  0  0  0  0  0
    4.1304    1.0198    0.3517 C   0  0  0  0  0  0  0  0  0  0  0  0
  1  9  2  0
  2  3  1  0
  2  9  1  0
  3  4  1  0
  3  5  1  0
  4  6  1  0
  5  7  1  0
  6  8  1  0
  7  8  1  0
  9 10  1  0
 10 11  2  0
 10 12  1  0
 11 13  1  0
 12 14  2  0
 13 15  2  0
 14 15  1  0
M  END
>  <PUBCHEM_COMPOUND_CID>  (1) 
15657

>  <PUBCHEM_CONFORMER_RMSD>  (1) 
0.6

>  <PUBCHEM_CONFORMER_DIVERSEORDER>  (1) 
1
12
9
6
7
11
8
2
10
5
4
3

>  <PUBCHEM_MMFF94_PARTIAL_CHARGES>  (1) 
16
1 -0.57
10 0.09
11 -0.15
12 -0.15
13 -0.15
14 -0.15
15 -0.15
2 -0.73
27 0.37
28 0.15
29 0.15
3 0.3
30 0.15
31 0.15
32 0.15
9 0.54

>  <PUBCHEM_EFFECTIVE_ROTOR_COUNT>  (1) 
4.2

>  <PUBCHEM_PHARMACOPHORE_FEATURES>  (1) 
4
1 1 acceptor
1 2 donor
6 10 11 12 13 14 15 rings
6 3 4 5 6 7 8 rings

>  <PUBCHEM_HEAVY_ATOM_COUNT>  (1) 
15

>  <PUBCHEM_ATOM_DEF_STEREO_COUNT>  (1) 
0

>  <PUBCHEM_ATOM_UDEF_STEREO_COUNT>  (1) 
0

>  <PUBCHEM_BOND_DEF_STEREO_COUNT>  (1) 
0

>  <PUBCHEM_BOND_UDEF_STEREO_COUNT>  (1) 
0

>  <PUBCHEM_ISOTOPIC_ATOM_COUNT>  (1) 
0

>  <PUBCHEM_COMPONENT_COUNT>  (1) 
1

>  <PUBCHEM_CACTVS_TAUTO_COUNT>  (1) 
2

>  <PUBCHEM_CONFORMER_ID>  (1) 
00003D2900000001

>  <PUBCHEM_MMFF94_ENERGY>  (1) 
25.9516

>  <PUBCHEM_FEATURE_SELFOVERLAP>  (1) 
20.297

>  <PUBCHEM_SHAPE_FINGERPRINT>  (1) 
10465860 228 18201446817977833070
10498660 4 15554166974191426801
10799339 124 18113898251707828688
11046707 91 12685087090239268992
11543360 7 13758066437454001896
12251169 10 18041001751841172863
12346177 29 14634857674435776055
124424 183 17677040265947704199
12500047 106 16226312734360037543
12507557 5 18335695078715880032
12707595 3 11169916099557481502
13296908 3 17385721400356820990
13675066 3 18342174479690529178
13693222 15 17895481422428352955
13705890 14 11527947868045469202
14004511 7 18343299266937045924
14123260 362 17417817231588362553
14144814 61 18411133671219845396
14289901 80 16877944979167018304
15239191 94 12035451631462715489
15309172 13 18410572907209910822
15342168 16 18272100387496933381
15653759 3 17313104141894263797
15775835 57 17917712392042832713
18186145 218 18202009828192561598
18915474 69 8214140759412264304
19049666 15 17388528311850985887
19107657 47 18188196650337571548
19107657 9 18130513006290668896
200 152 18341883143759271879
20279233 1 17240475910111947271
20281475 54 11097839784057764716
20291156 8 11386370343778748883
20361792 2 11746936511922300419
20645464 45 17968099686076924055
20645477 70 18262502711690669822
20871999 31 13038905517327032393
21065199 12 17967253100155802313
21524375 3 18272085036735340998
21713013 43 11671778277998636233
21731228 192 18334860532163192627
22169311 14 17603586305027415585
22485316 2 7997974574178206454
23402539 116 15626224611432098464
23557571 272 14764335081206095019
27216 239 18335142011967295713
3268164 11 15913036625979072533
4028521 119 15338844118881967081
474 4 18343021068893788091
4921388 177 14405182902449369381
5104073 3 18334849563401885496
602551 16 15502382244281785744
633830 44 18059864951994860676

>  <PUBCHEM_SHAPE_MULTIPOLES>  (1) 
297.84
8.34
1.7
1.14
1.42
0.03
-0.15
-2.85
-2.06
0.28
0.17
-1.04
0.01
-0.01

>  <PUBCHEM_SHAPE_SELFOVERLAP>  (1) 
619.619

>  <PUBCHEM_SHAPE_VOLUME>  (1) 
167.8

>  <PUBCHEM_COORDINATE_TYPE>  (1) 
2
5
10

$$$$
