15659
     RDKit          3D

 14 13  0  0  0  0  0  0  0  0999 V2000
    2.3718   -0.0042    0.0543 Si  0  0  0  0  0  4  0  0  0  0  0  0
    3.5767   -0.0083   -1.1136 O   0  0  0  0  0  0  0  0  0  0  0  0
    2.5252   -1.3705    1.0145 O   0  0  0  0  0  0  0  0  0  0  0  0
    2.5586    1.3592    1.0138 O   0  0  0  0  0  0  0  0  0  0  0  0
   -2.9648    0.0082    0.2879 N   0  0  0  0  0  0  0  0  0  0  0  0
   -6.6581   -0.0023   -0.2120 N   0  0  0  0  0  0  0  0  0  0  0  0
    0.6919    0.0271   -0.7864 C   0  0  0  0  0  0  0  0  0  0  0  0
   -0.5161    0.0336    0.1580 C   0  0  0  0  0  0  0  0  0  0  0  0
   -1.8285    0.0104   -0.6260 C   0  0  0  0  0  0  0  0  0  0  0  0
   -4.2217   -0.0244   -0.4463 C   0  0  0  0  0  0  0  0  0  0  0  0
   -5.3986    0.0124    0.5241 C   0  0  0  0  0  0  0  0  0  0  0  0
    4.9385   -0.0307   -0.7095 C   0  0  0  0  0  0  0  0  0  0  0  0
    2.4265   -2.6579    0.4227 C   0  0  0  0  0  0  0  0  0  0  0  0
    2.4986    2.6473    0.4183 C   0  0  0  0  0  0  0  0  0  0  0  0
  1  2  1  0
  1  3  1  0
  1  4  1  0
  1  7  1  0
  2 12  1  0
  3 13  1  0
  4 14  1  0
  5  9  1  0
  5 10  1  0
  6 11  1  0
  7  8  1  0
  8  9  1  0
 10 11  1  0
M  END
>  <PUBCHEM_COMPOUND_CID>  (1) 
15659

>  <PUBCHEM_CONFORMER_RMSD>  (1) 
0.8

>  <PUBCHEM_CONFORMER_DIVERSEORDER>  (1) 
1
96
77
109
50
32
54
42
25
86
45
70
71
8
4
99
35
98
16
39
84
81
18
111
106
60
6
33
3
34
73
37
102
103
112
105
79
113
59
95
53
19
83
11
2
56
62
41
68
104
88
97
64
107
69
40
27
78
26
66
108
7
48
51
52
90
58
14
94
75
36
72
100
85
49
15
47
30
87
20
110
67
22
74
17
93
28
61
23
82
92
65
38
55
63
43
24
89
31
80
9
101
13
5
44
57
12
10
21
46
76
29
91

>  <PUBCHEM_MMFF94_PARTIAL_CHARGES>  (1) 
16
1 0.97
10 0.27
11 0.27
12 0.28
13 0.28
14 0.28
2 -0.58
21 0.36
3 -0.58
35 0.36
36 0.36
4 -0.58
5 -0.9
6 -0.99
7 -0.08
9 0.27

>  <PUBCHEM_EFFECTIVE_ROTOR_COUNT>  (1) 
9

>  <PUBCHEM_PHARMACOPHORE_FEATURES>  (1) 
4
1 5 cation
1 5 donor
1 6 cation
1 6 donor

>  <PUBCHEM_HEAVY_ATOM_COUNT>  (1) 
14

>  <PUBCHEM_ATOM_DEF_STEREO_COUNT>  (1) 
0

>  <PUBCHEM_ATOM_UDEF_STEREO_COUNT>  (1) 
0

>  <PUBCHEM_BOND_DEF_STEREO_COUNT>  (1) 
0

>  <PUBCHEM_BOND_UDEF_STEREO_COUNT>  (1) 
0

>  <PUBCHEM_ISOTOPIC_ATOM_COUNT>  (1) 
0

>  <PUBCHEM_COMPONENT_COUNT>  (1) 
1

>  <PUBCHEM_CACTVS_TAUTO_COUNT>  (1) 
1

>  <PUBCHEM_CONFORMER_ID>  (1) 
00003D2B00000001

>  <PUBCHEM_MMFF94_ENERGY>  (1) 
5.2078

>  <PUBCHEM_FEATURE_SELFOVERLAP>  (1) 
20.297

>  <PUBCHEM_SHAPE_FINGERPRINT>  (1) 
10366900 7 18260555519283489209
10912923 1 17989204859391232179
12616999 72 17894916217680437254
12932764 1 18338504296612218684
13167823 11 18201433718776155415
13533116 47 18335981970311080403
13955234 65 18335416863893582666
14123238 8 16515686654460638055
14251718 22 16153433865534617935
14252887 29 16732989699587794950
17834072 33 18412822508717739223
17834076 25 18040156223289016823
18186145 218 18343010116837953229
20279233 1 15719402710894447491
20645477 70 18201721760171980887
220451 1 18410015438573755983
23402539 116 11239994521415922897
23532345 1 18337389443567229889
23557571 272 16805318864719105471
23558518 356 17690830577607897710
3060560 45 18202004326524292966
31174 14 18336818728091384692
522135 26 18410009922880738395
9999458 23 18409168852800132500

>  <PUBCHEM_SHAPE_MULTIPOLES>  (1) 
278.76
12.19
1.87
0.99
23.18
0.02
-0.02
-0.01
-0.79
-2.98
0.66
-0.58
0
0.01

>  <PUBCHEM_SHAPE_SELFOVERLAP>  (1) 
495.757

>  <PUBCHEM_SHAPE_VOLUME>  (1) 
182

>  <PUBCHEM_COORDINATE_TYPE>  (1) 
2
5
10

$$$$
