1565
     RDKit          2D

 16 17  0  0  1  0  0  0  0  0999 V2000
    0.0000    0.0000    0.0000 S   0  0  0  0  0  0  0  0  0  0  0  0
    0.0000    0.0000    0.0000 O   0  0  0  0  0  0  0  0  0  0  0  0
    0.0000    0.0000    0.0000 O   0  0  0  0  0  0  0  0  0  0  0  0
    0.0000    0.0000    0.0000 N   0  0  0  0  0  0  0  0  0  0  0  0
    0.0000    0.0000    0.0000 N   0  0  0  0  0  0  0  0  0  0  0  0
    0.0000    0.0000    0.0000 N   0  0  0  0  0  0  0  0  0  0  0  0
    0.0000    0.0000    0.0000 C   0  0  0  0  0  0  0  0  0  0  0  0
    0.0000    0.0000    0.0000 C   0  0  0  0  0  0  0  0  0  0  0  0
    0.0000    0.0000    0.0000 C   0  0  0  0  0  0  0  0  0  0  0  0
    0.0000    0.0000    0.0000 C   0  0  0  0  0  0  0  0  0  0  0  0
    0.0000    0.0000    0.0000 C   0  0  0  0  0  0  0  0  0  0  0  0
    0.0000    0.0000    0.0000 C   0  0  0  0  0  0  0  0  0  0  0  0
    0.0000    0.0000    0.0000 C   0  0  0  0  0  0  0  0  0  0  0  0
    0.0000    0.0000    0.0000 C   0  0  0  0  0  0  0  0  0  0  0  0
    0.0000    0.0000    0.0000 C   0  0  0  0  0  0  0  0  0  0  0  0
    0.0000    0.0000    0.0000 C   0  0  0  0  0  0  0  0  0  0  0  0
  1  9  1  0
  1 10  1  0
  2 16  1  0
  3 16  2  0
  4  8  1  0
  4 13  1  0
  5  7  1  0
  5 13  2  0
  6 13  1  0
  7  8  1  0
  7  9  1  0
  8 10  1  0
  9 11  1  0
 11 12  1  0
 12 14  1  0
 14 15  1  0
 15 16  1  0
M  END
>  <PUBCHEM_COMPOUND_CID>  (1) 
1565

>  <PUBCHEM_CONFORMER_RMSD>  (1) 
0.6

>  <PUBCHEM_CONFORMER_DIVERSEORDER>  (1) 
110
240
273
92
173
109
4
302
225
189
128
259
87
59
277
85
55
50
282
205
39
296
257
235
101
209
62
147
48
194
119
236
200
197
89
213
256
278
146
274
234
94
106
243
208
76
215
15
154
285
193
88
191
143
184
226
23
212
246
237
129
162
117
118
169
163
216
295
265
232
268
72
27
170
82
155
263
115
258
172
168
152
167
300
180
69
174
251
275
46
132
95
269
183
207
49
260
284
175
305
64
93
159
91
52
104
307
86
166
202
230
255
195
229
1
78
149
220
179
108
233
303
299
190
103
113
29
77
182
111
276
158
192
116
6
293
114
165
11
252
283
217
123
264
121
201
308
5
309
203
38
20
266
156
270
211
228
214
71
67
54
2
291
178
36
35
279
139
280
7
242
134
286
161
56
37
58
177
157
102
199
136
70
68
12
105
160
267
138
3
219
14
253
292
19
45
145
297
210
250
90
188
289
287
206
57
135
186
79
164
98
140
124
272
223
306
133
28
51
261
142
181
298
32
66
227
238
281
130
10
310
171
60
144
21
249
63
204
222
271
8
18
196
137
150
74
290
120
198
122
241
22
65
9
288
75
25
185
153
218
83
96
30
53
294
16
127
176
107
80
26
43
254
97
17
126
81
245
131
41
13
231
44
148
73
47
262
301
112
304
33
24
151
42
141
125
224
61
84
100
221
99
31
40
247
248
244
187
239
34

>  <PUBCHEM_MMFF94_PARTIAL_CHARGES>  (1) 
17
1 -0.46
10 0.23
13 0.55
15 0.06
16 0.66
2 -0.65
24 0.4
3 -0.57
31 0.4
32 0.4
33 0.5
4 -0.82
5 -0.7
6 -0.85
7 0.25
8 0.37
9 0.23

>  <PUBCHEM_EFFECTIVE_ROTOR_COUNT>  (1) 
5.8

>  <PUBCHEM_PHARMACOPHORE_FEATURES>  (1) 
9
1 2 acceptor
1 3 acceptor
1 4 donor
1 6 donor
3 2 3 16 anion
4 11 12 14 15 hydrophobe
4 4 5 6 13 cation
5 1 7 8 9 10 rings
5 4 5 7 8 13 rings

>  <PUBCHEM_HEAVY_ATOM_COUNT>  (1) 
16

>  <PUBCHEM_ATOM_DEF_STEREO_COUNT>  (1) 
0

>  <PUBCHEM_ATOM_UDEF_STEREO_COUNT>  (1) 
3

>  <PUBCHEM_BOND_DEF_STEREO_COUNT>  (1) 
0

>  <PUBCHEM_BOND_UDEF_STEREO_COUNT>  (1) 
0

>  <PUBCHEM_ISOTOPIC_ATOM_COUNT>  (1) 
0

>  <PUBCHEM_COMPONENT_COUNT>  (1) 
1

>  <PUBCHEM_CACTVS_TAUTO_COUNT>  (1) 
3

$$$$
