15669
     RDKit          3D

 13 12  0  0  0  0  0  0  0  0999 V2000
    2.5711    0.1665   -0.0012 F   0  0  0  0  0  0  0  0  0  0  0  0
    1.8378   -1.5697    1.0967 F   0  0  0  0  0  0  0  0  0  0  0  0
    1.8769   -1.5919   -1.0788 F   0  0  0  0  0  0  0  0  0  0  0  0
    1.4173    1.8396    0.0028 F   0  0  0  0  0  0  0  0  0  0  0  0
   -0.4805    1.7650    1.0858 F   0  0  0  0  0  0  0  0  0  0  0  0
   -0.4616    1.7858   -1.0867 F   0  0  0  0  0  0  0  0  0  0  0  0
   -3.0534   -1.6548   -0.0071 O   0  0  0  0  0  0  0  0  0  0  0  0
   -2.6511    0.5855   -0.0001 O   0  0  0  0  0  0  0  0  0  0  0  0
    0.2359   -0.2173   -0.0017 C   0  0  0  0  0  0  0  0  0  0  0  0
    1.6197   -0.8029   -0.0032 C   0  0  0  0  0  0  0  0  0  0  0  0
    0.1791    1.2821    0.0017 C   0  0  0  0  0  0  0  0  0  0  0  0
   -0.8418   -1.0236   -0.0046 C   0  0  0  0  0  0  0  0  0  0  0  0
   -2.2493   -0.5643   -0.0035 C   0  0  0  0  0  0  0  0  0  0  0  0
  1 10  1  0
  2 10  1  0
  3 10  1  0
  4 11  1  0
  5 11  1  0
  6 11  1  0
  7 13  1  0
  8 13  2  0
  9 10  1  0
  9 11  1  0
  9 12  2  3
 12 13  1  0
M  END
>  <PUBCHEM_COMPOUND_CID>  (1) 
15669

>  <PUBCHEM_CONFORMER_RMSD>  (1) 
0.6

>  <PUBCHEM_CONFORMER_DIVERSEORDER>  (1) 
1
2

>  <PUBCHEM_MMFF94_PARTIAL_CHARGES>  (1) 
15
1 -0.34
10 1.16
11 1.16
12 -0.14
13 0.71
14 0.15
15 0.5
2 -0.34
3 -0.34
4 -0.34
5 -0.34
6 -0.34
7 -0.65
8 -0.57
9 -0.28

>  <PUBCHEM_EFFECTIVE_ROTOR_COUNT>  (1) 
3

>  <PUBCHEM_PHARMACOPHORE_FEATURES>  (1) 
3
1 7 acceptor
1 8 acceptor
3 7 8 13 anion

>  <PUBCHEM_HEAVY_ATOM_COUNT>  (1) 
13

>  <PUBCHEM_ATOM_DEF_STEREO_COUNT>  (1) 
0

>  <PUBCHEM_ATOM_UDEF_STEREO_COUNT>  (1) 
0

>  <PUBCHEM_BOND_DEF_STEREO_COUNT>  (1) 
0

>  <PUBCHEM_BOND_UDEF_STEREO_COUNT>  (1) 
0

>  <PUBCHEM_ISOTOPIC_ATOM_COUNT>  (1) 
0

>  <PUBCHEM_COMPONENT_COUNT>  (1) 
1

>  <PUBCHEM_CACTVS_TAUTO_COUNT>  (1) 
1

>  <PUBCHEM_CONFORMER_ID>  (1) 
00003D3500000001

>  <PUBCHEM_MMFF94_ENERGY>  (1) 
17.0443

>  <PUBCHEM_FEATURE_SELFOVERLAP>  (1) 
15.28

>  <PUBCHEM_SHAPE_FINGERPRINT>  (1) 
1 1 17906733957265069669
12524768 44 18341334405151025687
14128692 85 18410301332190553933
161256 15 18409164441336040684
16945 1 18341339971349364009
17990270 104 18413393154545738263
20645477 70 18196086871182617055
20653091 64 18336549433757833723
20871998 22 18341619187252716654
21040471 1 17185876640677626469
23552423 10 18261395597854156997
241688 4 18265057924957300648
2748010 2 18409726279203934799
29004967 10 18343021098863801986

>  <PUBCHEM_SHAPE_MULTIPOLES>  (1) 
212.15
3.49
2.03
0.84
1.56
0.49
0
-1.45
0.01
-0.26
0.01
-0.21
0.02
0

>  <PUBCHEM_SHAPE_SELFOVERLAP>  (1) 
436.289

>  <PUBCHEM_SHAPE_VOLUME>  (1) 
122.5

>  <PUBCHEM_COORDINATE_TYPE>  (1) 
2
5
10

$$$$
