15665
     RDKit          3D

 31 34  0  0  0  0  0  0  0  0999 V2000
    3.7676    1.0468   -0.9500 O   0  0  0  0  0  0  0  0  0  0  0  0
    0.0626   -1.8969   -0.3786 O   0  0  0  0  0  0  0  0  0  0  0  0
   -1.6760   -3.3373   -0.1120 O   0  0  0  0  0  0  0  0  0  0  0  0
    6.8940   -0.2834    0.4751 N   0  0  0  0  0  0  0  0  0  0  0  0
    5.9738    0.6967   -0.0823 C   0  0  0  0  0  0  0  0  0  0  0  0
   -1.7771    0.2601   -0.1342 C   0  0  0  0  0  0  0  0  0  0  0  0
   -0.3337    0.5005   -0.3474 C   0  0  0  0  0  0  0  0  0  0  0  0
    4.6418    0.0486   -0.4244 C   0  0  0  0  0  0  0  0  0  0  0  0
    7.1294   -1.3727   -0.4756 C   0  0  0  0  0  0  0  0  0  0  0  0
    8.1632    0.3485    0.8438 C   0  0  0  0  0  0  0  0  0  0  0  0
   -2.2133   -1.0215   -0.0570 C   0  0  0  0  0  0  0  0  0  0  0  0
    0.5343   -0.5792   -0.4620 C   0  0  0  0  0  0  0  0  0  0  0  0
    2.4335    0.8675   -0.7542 C   0  0  0  0  0  0  0  0  0  0  0  0
   -2.7640    1.3385   -0.0025 C   0  0  0  0  0  0  0  0  0  0  0  0
    0.2161    1.7882   -0.4415 C   0  0  0  0  0  0  0  0  0  0  0  0
    1.9064   -0.4162   -0.6635 C   0  0  0  0  0  0  0  0  0  0  0  0
   -3.6316   -1.3205    0.1529 C   0  0  0  0  0  0  0  0  0  0  0  0
    1.5888    1.9695   -0.6432 C   0  0  0  0  0  0  0  0  0  0  0  0
   -1.2784   -2.1779   -0.1811 C   0  0  0  0  0  0  0  0  0  0  0  0
    8.0344   -2.4368    0.1218 C   0  0  0  0  0  0  0  0  0  0  0  0
    7.9454    1.4832    1.8304 C   0  0  0  0  0  0  0  0  0  0  0  0
   -3.3983    1.8276   -1.1366 C   0  0  0  0  0  0  0  0  0  0  0  0
   -3.0499    1.8549    1.2541 C   0  0  0  0  0  0  0  0  0  0  0  0
   -4.4715   -1.4735   -0.9441 C   0  0  0  0  0  0  0  0  0  0  0  0
   -4.1233   -1.4481    1.4466 C   0  0  0  0  0  0  0  0  0  0  0  0
   -4.3360    2.8528   -1.0117 C   0  0  0  0  0  0  0  0  0  0  0  0
   -3.9877    2.8799    1.3789 C   0  0  0  0  0  0  0  0  0  0  0  0
   -5.8222   -1.7580   -0.7444 C   0  0  0  0  0  0  0  0  0  0  0  0
   -5.4741   -1.7326    1.6462 C   0  0  0  0  0  0  0  0  0  0  0  0
   -4.6307    3.3788    0.2460 C   0  0  0  0  0  0  0  0  0  0  0  0
   -6.3236   -1.8876    0.5506 C   0  0  0  0  0  0  0  0  0  0  0  0
  1  8  1  0
  1 13  1  0
  2 12  1  0
  2 19  1  0
  3 19  2  0
  4  5  1  0
  4  9  1  0
  4 10  1  0
  5  8  1  0
  6  7  1  0
  6 11  2  0
  6 14  1  0
  7 12  2  0
  7 15  1  0
  9 20  1  0
 10 21  1  0
 11 17  1  0
 11 19  1  0
 12 16  1  0
 13 16  2  0
 13 18  1  0
 14 22  2  0
 14 23  1  0
 15 18  2  0
 17 24  2  0
 17 25  1  0
 22 26  1  0
 23 27  2  0
 24 28  1  0
 25 29  2  0
 26 30  2  0
 27 30  1  0
 28 31  2  0
 29 31  1  0
M  END
>  <PUBCHEM_COMPOUND_CID>  (1) 
15665

>  <PUBCHEM_CONFORMER_RMSD>  (1) 
1

>  <PUBCHEM_CONFORMER_DIVERSEORDER>  (1) 
1
3
2
4
8
7
9
12
11
10
6
5

>  <PUBCHEM_MMFF94_PARTIAL_CHARGES>  (1) 
42
1 -0.36
10 0.27
11 -0.01
12 0.08
13 0.08
14 0.03
15 -0.15
16 -0.15
17 0.03
18 -0.15
19 0.71
2 -0.23
22 -0.15
23 -0.15
24 -0.15
25 -0.15
26 -0.15
27 -0.15
28 -0.15
29 -0.15
3 -0.57
30 -0.15
31 -0.15
4 -0.81
40 0.15
41 0.15
42 0.15
49 0.15
5 0.27
50 0.15
51 0.15
52 0.15
53 0.15
54 0.15
55 0.15
56 0.15
57 0.15
58 0.15
6 -0.06
7 0.03
8 0.28
9 0.27

>  <PUBCHEM_EFFECTIVE_ROTOR_COUNT>  (1) 
8

>  <PUBCHEM_PHARMACOPHORE_FEATURES>  (1) 
7
1 1 acceptor
1 3 acceptor
1 4 cation
6 14 22 23 26 27 30 rings
6 17 24 25 28 29 31 rings
6 2 6 7 11 12 19 rings
6 7 12 13 15 16 18 rings

>  <PUBCHEM_HEAVY_ATOM_COUNT>  (1) 
31

>  <PUBCHEM_ATOM_DEF_STEREO_COUNT>  (1) 
0

>  <PUBCHEM_ATOM_UDEF_STEREO_COUNT>  (1) 
0

>  <PUBCHEM_BOND_DEF_STEREO_COUNT>  (1) 
0

>  <PUBCHEM_BOND_UDEF_STEREO_COUNT>  (1) 
0

>  <PUBCHEM_ISOTOPIC_ATOM_COUNT>  (1) 
0

>  <PUBCHEM_COMPONENT_COUNT>  (1) 
1

>  <PUBCHEM_CACTVS_TAUTO_COUNT>  (1) 
1

>  <PUBCHEM_CONFORMER_ID>  (1) 
00003D3100000001

>  <PUBCHEM_MMFF94_ENERGY>  (1) 
109.1424

>  <PUBCHEM_FEATURE_SELFOVERLAP>  (1) 
35.549

>  <PUBCHEM_SHAPE_FINGERPRINT>  (1) 
1100329 8 17831021226611875963
11135609 187 18194678160870339149
11315181 36 17822293517467799468
13073987 5 18411699868490627150
13140716 1 18120946010021369235
13811026 1 18412540990543130822
14068700 675 18339919446019879445
14394314 77 18262235517976142424
14856354 85 15502957228507034944
15021287 119 17240489104584199996
15183329 4 16226046687602147198
15439362 3 17834394515153253101
1577012 14 18041009432007947108
21033648 144 18192147097354299469
21236236 1 18410014325559840133
21267235 1 18261680345860035718
21756936 100 17631457765942236545
21927370 108 17895206532380201721
23081809 10 17822301184580717076
23559900 14 18193835074813988157
249057 25 17822019743478402860
283562 15 18410298017362342963
3383291 50 18187648050234695866
350125 39 18339090371202856917
397830 11 18201716280595895568
4197921 191 18262527004363260828
44317340 157 11674885490197042526
484985 159 16443642280448417593
5104073 3 18410293567364579714
559249 180 18334295340573933182
7226269 152 18131068178443984976

>  <PUBCHEM_SHAPE_MULTIPOLES>  (1) 
615.38
21.05
3.56
1.27
50.67
0.71
0.43
-4.89
6.51
-5.07
0.25
-0.4
0.31
0.99

>  <PUBCHEM_SHAPE_SELFOVERLAP>  (1) 
1338.098

>  <PUBCHEM_SHAPE_VOLUME>  (1) 
336.9

>  <PUBCHEM_COORDINATE_TYPE>  (1) 
2
5
10

$$$$
