15676
     RDKit          3D

 23 25  0  0  0  0  0  0  0  0999 V2000
   -4.3640   -1.2051    0.7461 N   0  0  0  0  0  0  0  0  0  0  0  0
   -0.0687   -1.2613   -2.8719 N   0  0  0  0  0  0  0  0  0  0  0  0
    0.3774   -0.3222   -0.4222 C   0  0  0  0  0  0  0  0  0  0  0  0
   -0.5967   -1.0549    0.5431 C   0  0  0  0  0  0  0  0  0  0  0  0
   -0.0533    1.1712   -0.3848 C   0  0  0  0  0  0  0  0  0  0  0  0
    1.8312   -0.7556   -0.0651 C   0  0  0  0  0  0  0  0  0  0  0  0
    0.3632    2.0890    0.5977 C   0  0  0  0  0  0  0  0  0  0  0  0
    2.8601    0.0411    0.4759 C   0  0  0  0  0  0  0  0  0  0  0  0
    1.4061    1.7464    1.6185 C   0  0  0  0  0  0  0  0  0  0  0  0
    2.7161    1.4764    0.9036 C   0  0  0  0  0  0  0  0  0  0  0  0
   -2.0280   -0.7560    0.1550 C   0  0  0  0  0  0  0  0  0  0  0  0
   -2.9783   -1.4982    1.0931 C   0  0  0  0  0  0  0  0  0  0  0  0
   -1.0395    1.6346   -1.2972 C   0  0  0  0  0  0  0  0  0  0  0  0
    2.1606   -2.1229   -0.3107 C   0  0  0  0  0  0  0  0  0  0  0  0
    0.1258   -0.8518   -1.8039 C   0  0  0  0  0  0  0  0  0  0  0  0
   -0.1614    3.4008    0.6248 C   0  0  0  0  0  0  0  0  0  0  0  0
    4.1539   -0.5101    0.6606 C   0  0  0  0  0  0  0  0  0  0  0  0
   -1.5480    2.9359   -1.2656 C   0  0  0  0  0  0  0  0  0  0  0  0
    3.4331   -2.6560   -0.0983 C   0  0  0  0  0  0  0  0  0  0  0  0
   -1.1063    3.8233   -0.3017 C   0  0  0  0  0  0  0  0  0  0  0  0
    4.4398   -1.8404    0.3772 C   0  0  0  0  0  0  0  0  0  0  0  0
   -5.2799   -1.8869    1.6622 C   0  0  0  0  0  0  0  0  0  0  0  0
   -4.6433   -1.5974   -0.6363 C   0  0  0  0  0  0  0  0  0  0  0  0
  1 12  1  0
  1 22  1  0
  1 23  1  0
  2 15  3  0
  3  4  1  0
  3  5  1  0
  3  6  1  0
  3 15  1  0
  4 11  1  0
  5  7  2  0
  5 13  1  0
  6  8  2  0
  6 14  1  0
  7  9  1  0
  7 16  1  0
  8 10  1  0
  8 17  1  0
  9 10  1  0
 11 12  1  0
 13 18  2  0
 14 19  2  0
 16 20  2  0
 17 21  2  0
 18 20  1  0
 19 21  1  0
M  END
>  <PUBCHEM_COMPOUND_CID>  (1) 
15676

>  <PUBCHEM_CONFORMER_RMSD>  (1) 
0.8

>  <PUBCHEM_CONFORMER_DIVERSEORDER>  (1) 
2
10
9
6
1
12
14
8
15
5
3
7
13
4
11

>  <PUBCHEM_MMFF94_PARTIAL_CHARGES>  (1) 
29
1 -0.81
10 0.14
12 0.27
13 -0.15
14 -0.15
15 0.36
16 -0.15
17 -0.15
18 -0.15
19 -0.15
2 -0.56
20 -0.15
21 -0.15
22 0.27
23 0.27
3 0.49
34 0.15
35 0.15
36 0.15
37 0.15
38 0.15
39 0.15
40 0.15
41 0.15
5 -0.14
6 -0.14
7 -0.14
8 -0.14
9 0.14

>  <PUBCHEM_EFFECTIVE_ROTOR_COUNT>  (1) 
4.6

>  <PUBCHEM_PHARMACOPHORE_FEATURES>  (1) 
5
1 1 cation
1 2 acceptor
6 5 7 13 16 18 20 rings
6 6 8 14 17 19 21 rings
7 3 5 6 7 8 9 10 rings

>  <PUBCHEM_HEAVY_ATOM_COUNT>  (1) 
23

>  <PUBCHEM_ATOM_DEF_STEREO_COUNT>  (1) 
0

>  <PUBCHEM_ATOM_UDEF_STEREO_COUNT>  (1) 
0

>  <PUBCHEM_BOND_DEF_STEREO_COUNT>  (1) 
0

>  <PUBCHEM_BOND_UDEF_STEREO_COUNT>  (1) 
0

>  <PUBCHEM_ISOTOPIC_ATOM_COUNT>  (1) 
0

>  <PUBCHEM_COMPONENT_COUNT>  (1) 
1

>  <PUBCHEM_CACTVS_TAUTO_COUNT>  (1) 
1

>  <PUBCHEM_CONFORMER_ID>  (1) 
00003D3C00000002

>  <PUBCHEM_MMFF94_ENERGY>  (1) 
89.8267

>  <PUBCHEM_FEATURE_SELFOVERLAP>  (1) 
25.383

>  <PUBCHEM_SHAPE_FINGERPRINT>  (1) 
10688039 33 18261114071232441337
108634 29 18123750846882293421
1100329 8 17038092923671931907
12633257 1 18057056717640609393
12788726 201 18259985946796576218
12824470 246 17459458966906246506
13134695 92 18339079410335145165
13140716 1 18054783984641522362
13544653 18 18335140894948991299
14790565 3 17616814769998431708
15420108 30 17772471437035354438
1601671 61 18048037659770472224
16945 1 18197498639020433833
17357779 13 18335688447597234725
17980427 23 17632300137761644287
20600515 1 17023457684965454267
20739085 24 17905030796700921752
21641784 216 18115045042794659164
22182313 1 17630325230220971502
229495 10 18130493206686580848
23419403 2 18340473526428172445
23559900 14 18188482472179992446
266924 78 17400895983696425087
2748010 2 18198879514499505552
3380486 145 18196347407581057061
4340502 62 17473836017669019401
5104073 3 18196640801841419242
5283268 108 18408606984735462089
5845 1 13502781325100262515
59755656 520 17613154066228441398
6443956 14 18335703896489220339
81228 2 18042135275267512801
9709674 26 17911229521552149822
9981440 41 17267477519278040962

>  <PUBCHEM_SHAPE_MULTIPOLES>  (1) 
463.37
7.56
4.05
1.65
4.44
3.69
0.76
-8.3
-3.21
1.2
-0.05
0.79
-0.22
1.66

>  <PUBCHEM_SHAPE_SELFOVERLAP>  (1) 
991.089

>  <PUBCHEM_SHAPE_VOLUME>  (1) 
251.6

>  <PUBCHEM_COORDINATE_TYPE>  (1) 
2
5
10

$$$$
