15678
     RDKit          3D

 12 11  0  0  1  0  0  0  0  0999 V2000
   -0.7960    2.5136   -0.7593 N   0  0  0  0  0  0  0  0  0  0  0  0
   -3.8496   -1.5880   -1.2851 N   0  0  0  0  0  0  0  0  0  0  0  0
    5.1681   -0.4493   -0.9238 N   0  0  0  0  0  0  0  0  0  0  0  0
   -0.7401    0.0804    0.2575 C   0  0  0  0  0  0  0  0  0  0  0  0
    0.6006   -0.1718    0.9797 C   0  0  0  0  0  0  0  0  0  0  0  0
   -1.9096   -0.1200    1.2471 C   0  0  0  0  0  0  0  0  0  0  0  0
    1.8099   -0.1091    0.0326 C   0  0  0  0  0  0  0  0  0  0  0  0
   -3.3029    0.1085    0.6479 C   0  0  0  0  0  0  0  0  0  0  0  0
    3.1301   -0.4282    0.7375 C   0  0  0  0  0  0  0  0  0  0  0  0
   -0.7714    1.4437   -0.3105 C   0  0  0  0  0  0  0  0  0  0  0  0
   -3.6070   -0.8401   -0.4318 C   0  0  0  0  0  0  0  0  0  0  0  0
    4.2680   -0.4399   -0.1918 C   0  0  0  0  0  0  0  0  0  0  0  0
  1 10  3  0
  2 11  3  0
  3 12  3  0
  4  5  1  0
  4  6  1  0
  4 10  1  0
  5  7  1  0
  6  8  1  0
  7  9  1  0
  8 11  1  0
  9 12  1  0
M  END
>  <PUBCHEM_COMPOUND_CID>  (1) 
15678

>  <PUBCHEM_CONFORMER_RMSD>  (1) 
0.6

>  <PUBCHEM_CONFORMER_DIVERSEORDER>  (1) 
2
151
72
135
102
172
116
43
94
157
110
170
92
73
66
154
50
141
28
75
149
100
164
21
4
48
91
123
51
166
31
147
10
115
88
139
78
127
18
125
167
79
161
61
140
93
39
41
32
163
1
160
33
45
108
62
98
145
156
132
129
119
7
165
117
112
87
63
152
85
111
171
44
22
59
104
53
11
162
134
86
47
107
144
105
58
155
150
95
69
118
124
146
148
35
168
77
68
169
113
30
96
29
122
54
158
90
9
120
74
38
26
142
137
64
60
57
106
121
52
143
14
81
128
6
56
15
138
153
89
37
70
126
103
65
3
55
80
17
42
84
36
5
136
109
130
34
76
19
40
83
8
133
159
101
27
67
114
82
20
12
131
49
46
99
13
25
71
97
16
23
24

>  <PUBCHEM_MMFF94_PARTIAL_CHARGES>  (1) 
9
1 -0.56
10 0.36
11 0.36
12 0.36
2 -0.56
3 -0.56
4 0.2
8 0.2
9 0.2

>  <PUBCHEM_EFFECTIVE_ROTOR_COUNT>  (1) 
5

>  <PUBCHEM_PHARMACOPHORE_FEATURES>  (1) 
5
1 1 acceptor
1 2 acceptor
1 3 acceptor
3 4 6 8 hydrophobe
3 5 7 9 hydrophobe

>  <PUBCHEM_HEAVY_ATOM_COUNT>  (1) 
12

>  <PUBCHEM_ATOM_DEF_STEREO_COUNT>  (1) 
0

>  <PUBCHEM_ATOM_UDEF_STEREO_COUNT>  (1) 
1

>  <PUBCHEM_BOND_DEF_STEREO_COUNT>  (1) 
0

>  <PUBCHEM_BOND_UDEF_STEREO_COUNT>  (1) 
0

>  <PUBCHEM_ISOTOPIC_ATOM_COUNT>  (1) 
0

>  <PUBCHEM_COMPONENT_COUNT>  (1) 
1

>  <PUBCHEM_CACTVS_TAUTO_COUNT>  (1) 
1

>  <PUBCHEM_CONFORMER_ID>  (1) 
00003D3E00000002

>  <PUBCHEM_MMFF94_ENERGY>  (1) 
6.6777

>  <PUBCHEM_FEATURE_SELFOVERLAP>  (1) 
25.373

>  <PUBCHEM_SHAPE_FINGERPRINT>  (1) 
11046707 91 18202280312058006131
12932764 1 18271515408761538458
14993402 34 18335133228548341083
17834072 33 17774724268268905704
17834074 16 17131838655208443638
18186145 218 16805324430727883433
187816 3 17675925399912123883
200 152 17967812743263928242
20711985 327 18343026622355365849
20871999 31 18187916275531852455
22485316 2 18060137613603942042
22620623 9 18269255916540412261
22926399 37 16805327695119078868
23402539 116 18187365406989092590
23557571 272 18342463586444557044
3268164 11 18114180796368721204
57096353 35 17894634729903240138
58051976 378 18186807967974993666
603831 33 18041553659581661906

>  <PUBCHEM_SHAPE_MULTIPOLES>  (1) 
232.01
8.78
1.49
1.14
7.86
1.05
0.02
-4.01
-2.68
-1.18
-0.62
-0.44
-0.2
-0.47

>  <PUBCHEM_SHAPE_SELFOVERLAP>  (1) 
434.473

>  <PUBCHEM_SHAPE_VOLUME>  (1) 
138

>  <PUBCHEM_COORDINATE_TYPE>  (1) 
2
5
10

$$$$
