1567
     RDKit          3D

  4  3  0  0  0  0  0  0  0  0999 V2000
   -1.6964    0.5628    0.1185 S   0  0  0  0  0  0  0  0  0  0  0  0
    1.3766    0.7130   -0.1644 O   0  0  0  0  0  0  0  0  0  0  0  0
   -0.5232   -0.7676   -0.2845 C   0  0  0  0  0  0  0  0  0  0  0  0
    0.8430   -0.5082    0.3304 C   0  0  0  0  0  0  0  0  0  0  0  0
  1  3  1  0
  2  4  1  0
  3  4  1  0
M  END
>  <PUBCHEM_COMPOUND_CID>  (1) 
1567

>  <PUBCHEM_CONFORMER_RMSD>  (1) 
0.4

>  <PUBCHEM_CONFORMER_DIVERSEORDER>  (1) 
2
3
1

>  <PUBCHEM_MMFF94_PARTIAL_CHARGES>  (1) 
6
1 -0.41
10 0.4
2 -0.68
3 0.23
4 0.28
9 0.18

>  <PUBCHEM_EFFECTIVE_ROTOR_COUNT>  (1) 
1

>  <PUBCHEM_PHARMACOPHORE_FEATURES>  (1) 
2
1 2 acceptor
1 2 donor

>  <PUBCHEM_HEAVY_ATOM_COUNT>  (1) 
4

>  <PUBCHEM_ATOM_DEF_STEREO_COUNT>  (1) 
0

>  <PUBCHEM_ATOM_UDEF_STEREO_COUNT>  (1) 
0

>  <PUBCHEM_BOND_DEF_STEREO_COUNT>  (1) 
0

>  <PUBCHEM_BOND_UDEF_STEREO_COUNT>  (1) 
0

>  <PUBCHEM_ISOTOPIC_ATOM_COUNT>  (1) 
0

>  <PUBCHEM_COMPONENT_COUNT>  (1) 
1

>  <PUBCHEM_CACTVS_TAUTO_COUNT>  (1) 
1

>  <PUBCHEM_CONFORMER_ID>  (1) 
0000061F00000002

>  <PUBCHEM_MMFF94_ENERGY>  (1) 
1.5628

>  <PUBCHEM_FEATURE_SELFOVERLAP>  (1) 
10.148

>  <PUBCHEM_SHAPE_FINGERPRINT>  (1) 
139733 1 10446198854399701818
20096714 4 18410856559703210033
21015797 1 9366529034938619654
5943 1 15683121365424727715

>  <PUBCHEM_SHAPE_MULTIPOLES>  (1) 
80.3
2.07
1.01
0.67
0.5
0.01
0.02
-0.54
0.08
-0.06
-0.05
0.04
0.03
-0.12

>  <PUBCHEM_SHAPE_SELFOVERLAP>  (1) 
122.636

>  <PUBCHEM_SHAPE_VOLUME>  (1) 
59.4

>  <PUBCHEM_COORDINATE_TYPE>  (1) 
2
5
10

$$$$
