15677
     RDKit          3D

 20 20  0  0  0  0  0  0  0  0999 V2000
    5.7896   -2.3100    0.0200 O   0  0  0  0  0  0  0  0  0  0  0  0
   -4.9050   -3.6656   -0.0200 O   0  0  0  0  0  0  0  0  0  0  0  0
   -0.5190    4.7166   -0.0015 O   0  0  0  0  0  0  0  0  0  0  0  0
    2.2737    1.0170   -0.0078 N   0  0  0  0  0  0  0  0  0  0  0  0
   -2.3573    0.4368    0.0076 N   0  0  0  0  0  0  0  0  0  0  0  0
   -0.0260    0.6904    0.0001 N   0  0  0  0  0  0  0  0  0  0  0  0
   -1.4695    2.6071    0.0035 N   0  0  0  0  0  0  0  0  0  0  0  0
    0.9123    2.8989   -0.0041 N   0  0  0  0  0  0  0  0  0  0  0  0
    4.0418   -0.6723   -0.0016 C   0  0  0  0  0  0  0  0  0  0  0  0
   -3.6348   -1.6348    0.0015 C   0  0  0  0  0  0  0  0  0  0  0  0
    2.5419   -0.4014   -0.0083 C   0  0  0  0  0  0  0  0  0  0  0  0
   -2.2543   -0.9889    0.0085 C   0  0  0  0  0  0  0  0  0  0  0  0
    4.3764   -2.1593   -0.0039 C   0  0  0  0  0  0  0  0  0  0  0  0
   -3.5775   -3.1579    0.0042 C   0  0  0  0  0  0  0  0  0  0  0  0
    0.9981    1.5589   -0.0036 C   0  0  0  0  0  0  0  0  0  0  0  0
   -1.2294    1.2860    0.0034 C   0  0  0  0  0  0  0  0  0  0  0  0
   -0.3520    3.3516   -0.0006 C   0  0  0  0  0  0  0  0  0  0  0  0
    6.1686   -3.6794   -0.0065 C   0  0  0  0  0  0  0  0  0  0  0  0
   -4.9205   -5.0864    0.0068 C   0  0  0  0  0  0  0  0  0  0  0  0
   -1.8573    5.1927    0.0023 C   0  0  0  0  0  0  0  0  0  0  0  0
  1 13  1  0
  1 18  1  0
  2 14  1  0
  2 19  1  0
  3 17  1  0
  3 20  1  0
  4 11  1  0
  4 15  1  0
  5 12  1  0
  5 16  1  0
  6 15  2  0
  6 16  1  0
  7 16  2  0
  7 17  1  0
  8 15  1  0
  8 17  2  0
  9 11  1  0
  9 13  1  0
 10 12  1  0
 10 14  1  0
M  END
>  <PUBCHEM_COMPOUND_CID>  (1) 
15677

>  <PUBCHEM_CONFORMER_RMSD>  (1) 
1.2

>  <PUBCHEM_CONFORMER_DIVERSEORDER>  (1) 
1
36
33
22
35
18
17
37
9
25
2
20
13
8
14
30
5
26
32
31
24
29
28
12
19
16
15
7
11
34
10
27
3
4
21
6
23

>  <PUBCHEM_MMFF94_PARTIAL_CHARGES>  (1) 
20
1 -0.56
11 0.37
12 0.37
13 0.28
14 0.28
15 0.72
16 0.72
17 0.7
18 0.28
19 0.28
2 -0.56
20 0.28
3 -0.36
33 0.4
34 0.4
4 -0.87
5 -0.87
6 -0.62
7 -0.62
8 -0.62

>  <PUBCHEM_EFFECTIVE_ROTOR_COUNT>  (1) 
11

>  <PUBCHEM_PHARMACOPHORE_FEATURES>  (1) 
7
1 1 acceptor
1 2 acceptor
1 4 donor
1 5 donor
4 4 6 8 15 cation
4 5 6 7 16 cation
6 6 7 8 15 16 17 rings

>  <PUBCHEM_HEAVY_ATOM_COUNT>  (1) 
20

>  <PUBCHEM_ATOM_DEF_STEREO_COUNT>  (1) 
0

>  <PUBCHEM_ATOM_UDEF_STEREO_COUNT>  (1) 
0

>  <PUBCHEM_BOND_DEF_STEREO_COUNT>  (1) 
0

>  <PUBCHEM_BOND_UDEF_STEREO_COUNT>  (1) 
0

>  <PUBCHEM_ISOTOPIC_ATOM_COUNT>  (1) 
0

>  <PUBCHEM_COMPONENT_COUNT>  (1) 
1

>  <PUBCHEM_CACTVS_TAUTO_COUNT>  (1) 
5

>  <PUBCHEM_CONFORMER_ID>  (1) 
00003D3D00000001

>  <PUBCHEM_MMFF94_ENERGY>  (1) 
53.9184

>  <PUBCHEM_FEATURE_SELFOVERLAP>  (1) 
35.565

>  <PUBCHEM_SHAPE_FINGERPRINT>  (1) 
10411042 1 18410575127660945698
11719270 70 17474663331316984209
12107183 9 18269854137298154875
12293681 25 18049407561380704077
12969540 37 17976257164126693215
12990986 174 18411420566614705878
13533116 47 17693945498661606243
13785724 45 18269570471308088439
138480 1 15456493700851497827
13911852 28 18339359781337202631
13955234 65 17620197967724452467
14844126 61 18191591852218714242
14866123 147 18268150860194032051
15042514 8 18338801109165381129
15250474 111 17972031436880193770
15352361 1 18410574015396297834
15927050 60 17476636482484578031
17492 89 18123469638505414803
17859628 70 17833551571775516603
19427546 62 16536231347211864149
20645477 70 17686893230822009763
20843269 155 18262226743279290570
22849339 104 17980218395668884726
23559900 14 17910100327980293736
3421961 26 18196089082446565947
5309563 4 18411418448790069286
56633871 153 18341062847718376379
6025842 7 17474388458110676127
621550 34 17326602005252881989
77188 2 18338797939321345621
7970288 3 18410854399493935570
88748 71 18264773327809046999

>  <PUBCHEM_SHAPE_MULTIPOLES>  (1) 
369.08
11.35
8.53
0.58
13.15
2.61
0
-24.89
0
-9.39
0
0
-0.03
-0.01

>  <PUBCHEM_SHAPE_SELFOVERLAP>  (1) 
718.876

>  <PUBCHEM_SHAPE_VOLUME>  (1) 
219.9

>  <PUBCHEM_COORDINATE_TYPE>  (1) 
2
5
10

$$$$
