15673
     RDKit          3D

  9  8  0  0  0  0  0  0  0  0999 V2000
    1.4526   -1.4146    1.1976 Cl  0  0  0  0  0  0  0  0  0  0  0  0
    1.3905    1.4819    1.1438 Cl  0  0  0  0  0  0  0  0  0  0  0  0
    2.4280   -0.0221   -1.1489 Cl  0  0  0  0  0  0  0  0  0  0  0  0
   -2.3248    1.4499    0.1282 Cl  0  0  0  0  0  0  0  0  0  0  0  0
   -2.3032   -1.4721    0.1865 Cl  0  0  0  0  0  0  0  0  0  0  0  0
   -0.3368   -0.0330   -1.6814 O   0  0  0  0  0  0  0  0  0  0  0  0
   -0.1670   -0.0074   -0.4583 C   0  0  0  0  0  0  0  0  0  0  0  0
    1.2266    0.0152    0.1574 C   0  0  0  0  0  0  0  0  0  0  0  0
   -1.3659    0.0023    0.4751 C   0  0  0  0  0  0  0  0  0  0  0  0
  1  8  1  0
  2  8  1  0
  3  8  1  0
  4  9  1  0
  5  9  1  0
  6  7  2  0
  7  8  1  0
  7  9  1  0
M  END
>  <PUBCHEM_COMPOUND_CID>  (1) 
15673

>  <PUBCHEM_CONFORMER_RMSD>  (1) 
0.4

>  <PUBCHEM_CONFORMER_DIVERSEORDER>  (1) 
1
3
2
8
7
11
4
9
6
10
5

>  <PUBCHEM_MMFF94_PARTIAL_CHARGES>  (1) 
9
1 -0.29
2 -0.29
3 -0.29
4 -0.29
5 -0.29
6 -0.57
7 0.45
8 0.93
9 0.64

>  <PUBCHEM_EFFECTIVE_ROTOR_COUNT>  (1) 
2

>  <PUBCHEM_PHARMACOPHORE_FEATURES>  (1) 
1
1 6 acceptor

>  <PUBCHEM_HEAVY_ATOM_COUNT>  (1) 
9

>  <PUBCHEM_ATOM_DEF_STEREO_COUNT>  (1) 
0

>  <PUBCHEM_ATOM_UDEF_STEREO_COUNT>  (1) 
0

>  <PUBCHEM_BOND_DEF_STEREO_COUNT>  (1) 
0

>  <PUBCHEM_BOND_UDEF_STEREO_COUNT>  (1) 
0

>  <PUBCHEM_ISOTOPIC_ATOM_COUNT>  (1) 
0

>  <PUBCHEM_COMPONENT_COUNT>  (1) 
1

>  <PUBCHEM_CACTVS_TAUTO_COUNT>  (1) 
2

>  <PUBCHEM_CONFORMER_ID>  (1) 
00003D3900000001

>  <PUBCHEM_MMFF94_ENERGY>  (1) 
12.1347

>  <PUBCHEM_FEATURE_SELFOVERLAP>  (1) 
5.074

>  <PUBCHEM_SHAPE_FINGERPRINT>  (1) 
12423570 1 15078509786829160469
12932741 1 18273496784090481373
12932764 1 18410295813458219969
137420 1 9540766928931771948
20082192 1 17131536349370892735
21040471 1 18265333906797440033
21922407 69 18040998483318449593
23235687 12 17313378981352146146
23552423 10 17603864464295005915
29004967 10 17560536039981338758
5084963 1 18128551524696450249

>  <PUBCHEM_SHAPE_MULTIPOLES>  (1) 
188.7
3.46
1.64
1.38
0.76
0.01
0.23
-0.03
0.13
0.48
-0.61
-0.72
-0.01
0.01

>  <PUBCHEM_SHAPE_SELFOVERLAP>  (1) 
317.136

>  <PUBCHEM_SHAPE_VOLUME>  (1) 
129.9

>  <PUBCHEM_COORDINATE_TYPE>  (1) 
2
5
10

$$$$
