15681
     RDKit          3D

 18 19  0  0  0  0  0  0  0  0999 V2000
   -1.0614    0.9364    2.1793 O   0  0  0  0  0  0  0  0  0  0  0  0
    4.6203   -1.2454   -0.4260 O   0  0  0  0  0  0  0  0  0  0  0  0
    3.1568   -2.3696    0.7631 O   0  0  0  0  0  0  0  0  0  0  0  0
   -0.1894    2.8571   -0.4858 N   0  0  0  0  0  0  0  0  0  0  0  0
    3.4889   -1.3537    0.1057 N   0  0  0  0  0  0  0  0  0  0  0  0
    0.4086    0.6546    0.3819 C   0  0  0  0  0  0  0  0  0  0  0  0
    0.7233    1.7904   -0.3286 C   0  0  0  0  0  0  0  0  0  0  0  0
   -0.9368    0.5196    1.0180 C   0  0  0  0  0  0  0  0  0  0  0  0
    1.2916   -0.3907    0.5414 C   0  0  0  0  0  0  0  0  0  0  0  0
   -2.0705   -0.0719    0.3257 C   0  0  0  0  0  0  0  0  0  0  0  0
    2.5555   -0.2936   -0.0408 C   0  0  0  0  0  0  0  0  0  0  0  0
    1.9870    1.8875   -0.9107 C   0  0  0  0  0  0  0  0  0  0  0  0
    2.9032    0.8456   -0.7670 C   0  0  0  0  0  0  0  0  0  0  0  0
   -1.9237   -0.5393   -0.9804 C   0  0  0  0  0  0  0  0  0  0  0  0
   -3.3049   -0.1724    0.9677 C   0  0  0  0  0  0  0  0  0  0  0  0
   -3.0111   -1.1069   -1.6445 C   0  0  0  0  0  0  0  0  0  0  0  0
   -4.3922   -0.7402    0.3036 C   0  0  0  0  0  0  0  0  0  0  0  0
   -4.2453   -1.2075   -1.0025 C   0  0  0  0  0  0  0  0  0  0  0  0
  1  8  2  0
  2  5  1  0
  3  5  2  0
  4  7  1  0
  5 11  1  0
  6  7  2  0
  6  8  1  0
  6  9  1  0
  7 12  1  0
  8 10  1  0
  9 11  2  0
 10 14  2  0
 10 15  1  0
 11 13  1  0
 12 13  2  0
 14 16  1  0
 15 17  2  0
 16 18  2  0
 17 18  1  0
M  CHG  2   2  -1   5   1
M  END
>  <PUBCHEM_COMPOUND_CID>  (1) 
15681

>  <PUBCHEM_CONFORMER_RMSD>  (1) 
0.6

>  <PUBCHEM_CONFORMER_DIVERSEORDER>  (1) 
1
2

>  <PUBCHEM_MMFF94_PARTIAL_CHARGES>  (1) 
28
1 -0.57
10 0.09
11 0.13
12 -0.15
13 -0.15
14 -0.15
15 -0.15
16 -0.15
17 -0.15
18 -0.15
19 0.15
2 -0.52
20 0.15
21 0.15
22 0.15
23 0.15
24 0.15
25 0.15
26 0.4
27 0.4
28 0.15
3 -0.52
4 -0.9
5 0.91
6 0.09
7 0.1
8 0.4
9 -0.15

>  <PUBCHEM_EFFECTIVE_ROTOR_COUNT>  (1) 
3

>  <PUBCHEM_PHARMACOPHORE_FEATURES>  (1) 
8
1 1 acceptor
1 2 acceptor
1 2 anion
1 3 acceptor
1 4 cation
1 4 donor
6 10 14 15 16 17 18 rings
6 6 7 9 11 12 13 rings

>  <PUBCHEM_HEAVY_ATOM_COUNT>  (1) 
18

>  <PUBCHEM_ATOM_DEF_STEREO_COUNT>  (1) 
0

>  <PUBCHEM_ATOM_UDEF_STEREO_COUNT>  (1) 
0

>  <PUBCHEM_BOND_DEF_STEREO_COUNT>  (1) 
0

>  <PUBCHEM_BOND_UDEF_STEREO_COUNT>  (1) 
0

>  <PUBCHEM_ISOTOPIC_ATOM_COUNT>  (1) 
0

>  <PUBCHEM_COMPONENT_COUNT>  (1) 
1

>  <PUBCHEM_CACTVS_TAUTO_COUNT>  (1) 
3

>  <PUBCHEM_CONFORMER_ID>  (1) 
00003D4100000001

>  <PUBCHEM_MMFF94_ENERGY>  (1) 
73.3777

>  <PUBCHEM_FEATURE_SELFOVERLAP>  (1) 
40.676

>  <PUBCHEM_SHAPE_FINGERPRINT>  (1) 
10062212 137 18060138752224059999
10610426 29 18131342012235577857
11578080 2 18129921430439061217
11769659 78 18201717362067466737
12236239 1 18202008750008012153
12553582 1 18336264557278197010
13083527 12 18263906831357894640
13911987 19 17609239070848644404
14251764 38 11965401814983908254
14576447 43 18268992157834039134
15375462 189 18059580251481905771
16752209 62 17346049900441624585
16945 1 18192429886200774241
1813 80 18342187634959072910
18186145 218 16877940551177211361
19422 9 18342462586144275891
200 152 18261394425518034674
20291156 8 18342174457730532334
20361792 2 18410853256846953261
20600515 1 16415488129482470825
20626108 58 18130494340584457215
20645477 70 18113902705551958946
20671657 53 18335137583307270399
22112679 90 18129681728197713344
221357 26 18040707074720654813
2255824 54 18196936788668525556
22646028 28 18272651255248447775
23114952 82 17168155588692905332
232386 152 17346313847250637671
23402539 116 18188772739160479754
23419403 2 17103065582993211596
23526113 38 17313672649567300904
23557571 272 15482132499730604505
23559900 14 15719389547394639600
23598291 2 18342471343213470277
3323516 105 17749108932743929571
465052 167 18199760309513484335
4990 188 17313658347821726131
5281201 14 17603583058406595663
5902787 121 16916502683137004699
633830 44 17312815009634390837
77492 1 18130239240959648169

>  <PUBCHEM_SHAPE_MULTIPOLES>  (1) 
342.86
7.78
2.09
1.37
1.46
0.53
-0.19
-4.89
1.36
-1.94
0.24
0.89
0.08
-1.18

>  <PUBCHEM_SHAPE_SELFOVERLAP>  (1) 
748.788

>  <PUBCHEM_SHAPE_VOLUME>  (1) 
186

>  <PUBCHEM_COORDINATE_TYPE>  (1) 
2
5
10

$$$$
