15680
     RDKit          3D

 16 17  0  0  0  0  0  0  0  0999 V2000
   -0.0008    2.0021   -0.6616 S   0  0  0  0  0  0  0  0  0  0  0  0
    0.0135    2.9644    0.4950 O   0  0  0  0  0  0  0  0  0  0  0  0
   -1.3143    0.8289   -0.3261 C   0  0  0  0  0  0  0  0  0  0  0  0
    1.3239    0.8171   -0.3231 C   0  0  0  0  0  0  0  0  0  0  0  0
   -3.3594   -0.9953    0.1958 C   0  0  0  0  0  0  0  0  0  0  0  0
    3.3553   -0.9983    0.1950 C   0  0  0  0  0  0  0  0  0  0  0  0
   -1.8252    0.7045    0.9659 C   0  0  0  0  0  0  0  0  0  0  0  0
    1.8222    0.0391   -1.3573 C   0  0  0  0  0  0  0  0  0  0  0  0
   -1.8262    0.0413   -1.3574 C   0  0  0  0  0  0  0  0  0  0  0  0
    1.8232    0.7036    0.9656 C   0  0  0  0  0  0  0  0  0  0  0  0
   -2.8476   -0.2077    1.2268 C   0  0  0  0  0  0  0  0  0  0  0  0
    2.8439   -0.8740   -1.0966 C   0  0  0  0  0  0  0  0  0  0  0  0
   -2.8488   -0.8709   -1.0964 C   0  0  0  0  0  0  0  0  0  0  0  0
    2.8451   -0.2095    1.2261 C   0  0  0  0  0  0  0  0  0  0  0  0
   -4.4528   -1.9707    0.4748 C   0  0  0  0  0  0  0  0  0  0  0  0
    4.4480   -1.9747    0.4737 C   0  0  0  0  0  0  0  0  0  0  0  0
  1  2  2  0
  1  3  1  0
  1  4  1  0
  3  7  2  0
  3  9  1  0
  4  8  2  0
  4 10  1  0
  5 11  2  0
  5 13  1  0
  5 15  1  0
  6 12  2  0
  6 14  1  0
  6 16  1  0
  7 11  1  0
  8 12  1  0
  9 13  2  0
 10 14  2  0
M  END
>  <PUBCHEM_COMPOUND_CID>  (1) 
15680

>  <PUBCHEM_CONFORMER_RMSD>  (1) 
0.6

>  <PUBCHEM_CONFORMER_DIVERSEORDER>  (1) 
1
2
3

>  <PUBCHEM_MMFF94_PARTIAL_CHARGES>  (1) 
24
1 0.37
10 -0.15
11 -0.15
12 -0.15
13 -0.15
14 -0.15
15 0.14
16 0.14
17 0.15
18 0.15
19 0.15
2 -0.5
20 0.15
21 0.15
22 0.15
23 0.15
24 0.15
3 0.06
4 0.06
5 -0.14
6 -0.14
7 -0.15
8 -0.15
9 -0.15

>  <PUBCHEM_EFFECTIVE_ROTOR_COUNT>  (1) 
2

>  <PUBCHEM_PHARMACOPHORE_FEATURES>  (1) 
3
1 2 acceptor
6 3 5 7 9 11 13 rings
6 4 6 8 10 12 14 rings

>  <PUBCHEM_HEAVY_ATOM_COUNT>  (1) 
16

>  <PUBCHEM_ATOM_DEF_STEREO_COUNT>  (1) 
0

>  <PUBCHEM_ATOM_UDEF_STEREO_COUNT>  (1) 
0

>  <PUBCHEM_BOND_DEF_STEREO_COUNT>  (1) 
0

>  <PUBCHEM_BOND_UDEF_STEREO_COUNT>  (1) 
0

>  <PUBCHEM_ISOTOPIC_ATOM_COUNT>  (1) 
0

>  <PUBCHEM_COMPONENT_COUNT>  (1) 
1

>  <PUBCHEM_CACTVS_TAUTO_COUNT>  (1) 
1

>  <PUBCHEM_CONFORMER_ID>  (1) 
00003D4000000001

>  <PUBCHEM_MMFF94_ENERGY>  (1) 
42.461

>  <PUBCHEM_FEATURE_SELFOVERLAP>  (1) 
15.223

>  <PUBCHEM_SHAPE_FINGERPRINT>  (1) 
10618630 7 18408605842326680998
11046707 91 18336827494346450006
11640471 11 10735588030050135932
12251169 10 16774077375397065580
12363563 72 18335419071163776963
12553582 1 18272375299214892783
12633257 1 16415192403477580770
12892183 10 16630254614449032139
13296908 3 18335695048577139005
13533116 47 18121225535515581091
14123255 52 9943808893371704755
14251764 38 11165736774800155507
15239191 94 18334583438042444275
15342168 16 10519992560592857219
15422964 175 18342464707431034519
16945 1 16702303451006452204
17834072 32 9871455535191198666
1798214 55 10375875190241104635
18186145 218 7853577962786592728
200 152 17531249443689413482
20291156 8 18408041809878198210
20361792 2 18408040723383373797
20559304 39 17773611600924427153
20645477 56 8429727557863212004
20645477 70 18044369659521802991
20671657 53 17023179414393075116
20871998 22 18409727399937600585
21524375 3 9727636081145885077
21713013 43 15647352869446783467
21731228 192 13901904509765663252
21731516 1 18335427858661648300
21756936 100 14188140471373715482
22646028 28 18334576845257095411
22926399 65 8718532939962910198
231179 274 9799694809445309262
23559900 14 18189881042813138040
25 1 11530758155046357644
270888 7 10303814276151824187
27216 239 11887372738434012615
3082319 5 15068336804580232103
31174 14 18192710270540569917
3286 77 18261673783081292631
4072396 5 17274278235641619515
5262128 65 15430044257198089487
549884 4 12829479355150379204
633830 44 11603367678246428055
6442390 28 9150603686344959157
7808743 9 10375571725295842394
7970288 3 18408606958903283442
81228 2 18196086642747503301

>  <PUBCHEM_SHAPE_MULTIPOLES>  (1) 
327.25
7.62
2.18
1.39
0.03
0.79
0.12
-6.8
-1.1
-0.01
-0.25
0
0.02
0

>  <PUBCHEM_SHAPE_SELFOVERLAP>  (1) 
682.27

>  <PUBCHEM_SHAPE_VOLUME>  (1) 
185.4

>  <PUBCHEM_COORDINATE_TYPE>  (1) 
2
5
10

$$$$
