15685
     RDKit          3D

 16 16  0  0  0  0  0  0  0  0999 V2000
    2.5167    0.9303    0.4831 O   0  0  0  0  0  0  0  0  0  0  0  0
    1.5487   -2.9802   -0.1553 O   0  0  0  0  0  0  0  0  0  0  0  0
    3.0886   -1.4528    0.1837 O   0  0  0  0  0  0  0  0  0  0  0  0
   -3.9592    1.4873    0.0597 O   0  0  0  0  0  0  0  0  0  0  0  0
   -2.7933   -0.5522   -0.1402 N   0  0  0  0  0  0  0  0  0  0  0  0
    1.8893   -1.7900    0.0430 N   0  0  0  0  0  0  0  0  0  0  0  0
    1.2172    0.5474    0.3283 C   0  0  0  0  0  0  0  0  0  0  0  0
   -1.4563   -0.1859    0.0164 C   0  0  0  0  0  0  0  0  0  0  0  0
    0.8815   -0.7889    0.1100 C   0  0  0  0  0  0  0  0  0  0  0  0
   -0.4554   -1.1554   -0.0460 C   0  0  0  0  0  0  0  0  0  0  0  0
    0.2161    1.5168    0.3906 C   0  0  0  0  0  0  0  0  0  0  0  0
   -1.1206    1.1502    0.2347 C   0  0  0  0  0  0  0  0  0  0  0  0
    3.0304    1.8708   -0.4572 C   0  0  0  0  0  0  0  0  0  0  0  0
    4.5178    1.6424   -0.6207 C   0  0  0  0  0  0  0  0  0  0  0  0
   -3.9258    0.2728   -0.1093 C   0  0  0  0  0  0  0  0  0  0  0  0
   -5.1957   -0.5127   -0.3208 C   0  0  0  0  0  0  0  0  0  0  0  0
  1  7  1  0
  1 13  1  0
  2  6  1  0
  3  6  2  0
  4 15  2  0
  5  8  1  0
  5 15  1  0
  6  9  1  0
  7  9  2  0
  7 11  1  0
  8 10  2  0
  8 12  1  0
  9 10  1  0
 11 12  2  0
 13 14  1  0
 15 16  1  0
M  CHG  2   2  -1   6   1
M  END
>  <PUBCHEM_COMPOUND_CID>  (1) 
15685

>  <PUBCHEM_CONFORMER_RMSD>  (1) 
0.6

>  <PUBCHEM_CONFORMER_DIVERSEORDER>  (1) 
1
6
13
11
8
9
4
7
12
10
5
3
2

>  <PUBCHEM_MMFF94_PARTIAL_CHARGES>  (1) 
19
1 -0.36
10 -0.15
11 -0.15
12 -0.15
13 0.28
15 0.57
16 0.06
17 0.15
18 0.15
19 0.15
2 -0.52
22 0.37
3 -0.52
4 -0.57
5 -0.55
6 0.91
7 0.08
8 0.12
9 0.13

>  <PUBCHEM_EFFECTIVE_ROTOR_COUNT>  (1) 
5

>  <PUBCHEM_PHARMACOPHORE_FEATURES>  (1) 
7
1 1 acceptor
1 2 acceptor
1 2 anion
1 3 acceptor
1 4 acceptor
1 5 donor
6 7 8 9 10 11 12 rings

>  <PUBCHEM_HEAVY_ATOM_COUNT>  (1) 
16

>  <PUBCHEM_ATOM_DEF_STEREO_COUNT>  (1) 
0

>  <PUBCHEM_ATOM_UDEF_STEREO_COUNT>  (1) 
0

>  <PUBCHEM_BOND_DEF_STEREO_COUNT>  (1) 
0

>  <PUBCHEM_BOND_UDEF_STEREO_COUNT>  (1) 
0

>  <PUBCHEM_ISOTOPIC_ATOM_COUNT>  (1) 
0

>  <PUBCHEM_COMPONENT_COUNT>  (1) 
1

>  <PUBCHEM_CACTVS_TAUTO_COUNT>  (1) 
2

>  <PUBCHEM_CONFORMER_ID>  (1) 
00003D4500000001

>  <PUBCHEM_MMFF94_ENERGY>  (1) 
55.5188

>  <PUBCHEM_FEATURE_SELFOVERLAP>  (1) 
35.625

>  <PUBCHEM_SHAPE_FINGERPRINT>  (1) 
10967382 1 18411698798452673473
10980938 120 18413103961670759907
11471102 20 18410570690922143125
12346645 6 18409164424377522564
12616999 72 18408885161124418017
12644460 14 18333735693350188088
13380535 76 18334857263761268898
14251717 144 18412259532271762603
14415576 193 18407760339243953684
14576447 43 18057870532861100911
14911166 2 18200035173733530148
15196674 1 18411135810472521249
15219456 202 18260838119647067947
15442244 35 18125722288431974281
15536298 74 18343301439958363072
16945 1 18270108144919530089
18186145 218 17749388114408252115
19422 9 18271525304345004681
20612939 158 18408887308544723636
20645476 183 17971198273031629356
20645477 70 18411415082009839343
21267235 1 18341337712523912767
21501502 16 18269841917272074529
221490 88 18337116665851989611
2255824 54 18336546010579689106
23402539 116 18199465635885839556
23402655 69 18342168965311405717
23463225 33 18270397179333924771
23559900 14 18196363728230337554
25 1 18336825380958757292
3060560 45 18336830891887244636
3071541 37 18408325497147889334
366044 4 18337391664212988752
42630746 31 18412824694481364638
449060 62 18413390942542388353
4990 188 17774731942916729332
5104073 3 18410855435102267945
537710 114 18342457057999308576
57096353 35 18272643584864014877
58051976 378 18410576222893066949
7364860 26 18340770347465118686
81539 233 18260264174608874198
8272917 22 18411704261856860823

>  <PUBCHEM_SHAPE_MULTIPOLES>  (1) 
295.83
8.3
2.31
0.67
5.76
1.26
-0.02
-2.74
-1.6
-2.12
-0.1
-0.14
-0.1
-0.44

>  <PUBCHEM_SHAPE_SELFOVERLAP>  (1) 
610.263

>  <PUBCHEM_SHAPE_VOLUME>  (1) 
169

>  <PUBCHEM_COORDINATE_TYPE>  (1) 
2
5
10

$$$$
