15693
     RDKit          3D

  9  9  0  0  0  0  0  0  0  0999 V2000
   -2.5472   -0.1349    0.5887 S   0  0  0  0  0  0  0  0  0  0  0  0
    2.2275    1.8137    0.0487 N   0  0  0  0  0  0  0  0  0  0  0  0
   -0.8024   -0.3079    0.2688 C   0  0  0  0  0  0  0  0  0  0  0  0
    1.3902    0.6788    0.0331 C   0  0  0  0  0  0  0  0  0  0  0  0
    0.0249    0.8149    0.2841 C   0  0  0  0  0  0  0  0  0  0  0  0
   -0.2645   -1.5670    0.0026 C   0  0  0  0  0  0  0  0  0  0  0  0
    1.9282   -0.5804   -0.2331 C   0  0  0  0  0  0  0  0  0  0  0  0
    1.1009   -1.7033   -0.2482 C   0  0  0  0  0  0  0  0  0  0  0  0
   -3.0576    0.9860   -0.7447 C   0  0  0  0  0  0  0  0  0  0  0  0
  1  3  1  0
  1  9  1  0
  2  4  1  0
  3  5  2  0
  3  6  1  0
  4  5  1  0
  4  7  2  0
  6  8  2  0
  7  8  1  0
M  END
>  <PUBCHEM_COMPOUND_CID>  (1) 
15693

>  <PUBCHEM_CONFORMER_RMSD>  (1) 
0.4

>  <PUBCHEM_CONFORMER_DIVERSEORDER>  (1) 
3
5
1
2
6
4

>  <PUBCHEM_MMFF94_PARTIAL_CHARGES>  (1) 
15
1 -0.33
10 0.15
11 0.15
12 0.15
13 0.15
14 0.4
15 0.4
2 -0.9
3 0.1
4 0.1
5 -0.15
6 -0.15
7 -0.15
8 -0.15
9 0.23

>  <PUBCHEM_EFFECTIVE_ROTOR_COUNT>  (1) 
1

>  <PUBCHEM_PHARMACOPHORE_FEATURES>  (1) 
4
1 2 cation
1 2 donor
1 9 hydrophobe
6 3 4 5 6 7 8 rings

>  <PUBCHEM_HEAVY_ATOM_COUNT>  (1) 
9

>  <PUBCHEM_ATOM_DEF_STEREO_COUNT>  (1) 
0

>  <PUBCHEM_ATOM_UDEF_STEREO_COUNT>  (1) 
0

>  <PUBCHEM_BOND_DEF_STEREO_COUNT>  (1) 
0

>  <PUBCHEM_BOND_UDEF_STEREO_COUNT>  (1) 
0

>  <PUBCHEM_ISOTOPIC_ATOM_COUNT>  (1) 
0

>  <PUBCHEM_COMPONENT_COUNT>  (1) 
1

>  <PUBCHEM_CACTVS_TAUTO_COUNT>  (1) 
1

>  <PUBCHEM_CONFORMER_ID>  (1) 
00003D4D00000003

>  <PUBCHEM_MMFF94_ENERGY>  (1) 
32.0492

>  <PUBCHEM_FEATURE_SELFOVERLAP>  (1) 
20.297

>  <PUBCHEM_SHAPE_FINGERPRINT>  (1) 
12897270 3 18410575050725444253
12932764 1 18041007202487182475
14325111 11 18410857693880485881
16945 1 18341057302371823098
19973954 147 18336551517033451217
21040471 1 18196376029248333538
23211744 41 18114465647136900907
23402655 69 18268418046041649269
241688 4 17548145428530930306
2748010 2 18268722773332795174
29004967 10 18338805494084286923
5084963 1 17895773840886729827

>  <PUBCHEM_SHAPE_MULTIPOLES>  (1) 
184.08
3.78
1.77
0.76
2.52
0.03
-0.02
-1.21
-0.45
-0.93
-0.09
0.33
-0.03
0.39

>  <PUBCHEM_SHAPE_SELFOVERLAP>  (1) 
360.977

>  <PUBCHEM_SHAPE_VOLUME>  (1) 
112.4

>  <PUBCHEM_COORDINATE_TYPE>  (1) 
2
5
10

$$$$
