15698
     RDKit          3D

 20 22  0  0  0  0  0  0  0  0999 V2000
    0.6178   -4.4574   -0.0001 Br  0  0  0  0  0  0  0  0  0  0  0  0
   -5.2777    2.0773   -0.0010 Br  0  0  0  0  0  0  0  0  0  0  0  0
   -2.0867   -2.7629   -0.0015 O   0  0  0  0  0  0  0  0  0  0  0  0
    4.4195    1.4059   -0.0032 O   0  0  0  0  0  0  0  0  0  0  0  0
    2.0633    1.4946    0.0007 N   0  0  0  0  0  0  0  0  0  0  0  0
    0.3580   -0.2504    0.0008 C   0  0  0  0  0  0  0  0  0  0  0  0
   -0.8723    0.5112    0.0006 C   0  0  0  0  0  0  0  0  0  0  0  0
    0.0510   -1.6221    0.0005 C   0  0  0  0  0  0  0  0  0  0  0  0
   -1.9632   -0.3751    0.0004 C   0  0  0  0  0  0  0  0  0  0  0  0
   -1.4216   -1.7504    0.0002 C   0  0  0  0  0  0  0  0  0  0  0  0
    1.6812    0.1537    0.0008 C   0  0  0  0  0  0  0  0  0  0  0  0
    1.0112   -2.6136    0.0001 C   0  0  0  0  0  0  0  0  0  0  0  0
   -1.1004    1.8759    0.0004 C   0  0  0  0  0  0  0  0  0  0  0  0
   -3.2787    0.0424    0.0000 C   0  0  0  0  0  0  0  0  0  0  0  0
    2.6757   -0.8326    0.0005 C   0  0  0  0  0  0  0  0  0  0  0  0
    2.3437   -2.2011    0.0001 C   0  0  0  0  0  0  0  0  0  0  0  0
   -2.4265    2.3265    0.0000 C   0  0  0  0  0  0  0  0  0  0  0  0
   -3.5036    1.4191   -0.0001 C   0  0  0  0  0  0  0  0  0  0  0  0
    3.3608    2.0255    0.0004 C   0  0  0  0  0  0  0  0  0  0  0  0
    3.3486    3.5336    0.0004 C   0  0  0  0  0  0  0  0  0  0  0  0
  1 12  1  0
  2 18  1  0
  3 10  2  0
  4 19  2  0
  5 11  1  0
  5 19  1  0
  6  7  1  0
  6  8  2  0
  6 11  1  0
  7  9  2  0
  7 13  1  0
  8 10  1  0
  8 12  1  0
  9 10  1  0
  9 14  1  0
 11 15  2  0
 12 16  2  0
 13 17  2  0
 14 18  2  0
 15 16  1  0
 17 18  1  0
 19 20  1  0
M  END
>  <PUBCHEM_COMPOUND_CID>  (1) 
15698

>  <PUBCHEM_CONFORMER_RMSD>  (1) 
0.6

>  <PUBCHEM_CONFORMER_DIVERSEORDER>  (1) 
1
2
3

>  <PUBCHEM_MMFF94_PARTIAL_CHARGES>  (1) 
24
1 -0.11
10 0.4
11 0.12
12 0.11
13 -0.15
14 -0.15
15 -0.15
16 -0.15
17 -0.15
18 0.11
19 0.57
2 -0.11
20 0.06
21 0.15
22 0.15
23 0.15
24 0.15
25 0.37
26 0.15
3 -0.57
4 -0.57
5 -0.55
8 0.09
9 0.09

>  <PUBCHEM_EFFECTIVE_ROTOR_COUNT>  (1) 
2

>  <PUBCHEM_PHARMACOPHORE_FEATURES>  (1) 
8
1 1 hydrophobe
1 2 hydrophobe
1 3 acceptor
1 4 acceptor
1 5 donor
5 6 7 8 9 10 rings
6 6 8 11 12 15 16 rings
6 7 9 13 14 17 18 rings

>  <PUBCHEM_HEAVY_ATOM_COUNT>  (1) 
20

>  <PUBCHEM_ATOM_DEF_STEREO_COUNT>  (1) 
0

>  <PUBCHEM_ATOM_UDEF_STEREO_COUNT>  (1) 
0

>  <PUBCHEM_BOND_DEF_STEREO_COUNT>  (1) 
0

>  <PUBCHEM_BOND_UDEF_STEREO_COUNT>  (1) 
0

>  <PUBCHEM_ISOTOPIC_ATOM_COUNT>  (1) 
0

>  <PUBCHEM_COMPONENT_COUNT>  (1) 
1

>  <PUBCHEM_CACTVS_TAUTO_COUNT>  (1) 
5

>  <PUBCHEM_CONFORMER_ID>  (1) 
00003D5200000001

>  <PUBCHEM_MMFF94_ENERGY>  (1) 
72.7382

>  <PUBCHEM_FEATURE_SELFOVERLAP>  (1) 
40.763

>  <PUBCHEM_SHAPE_FINGERPRINT>  (1) 
10319926 262 17910936261813492392
10411042 1 17402049998760672263
10608611 8 18336546006342490661
10967382 1 18266458711181543589
1100329 8 18338514132230270770
12107183 9 18335967741406435896
12173636 292 18194960966273516180
12390115 104 18197518408903123096
12403259 226 17684650926911880429
12788726 201 17541369576713918258
13140716 1 18408041814241932403
13583140 156 16950826021525633569
138480 1 17906170655118931746
13955234 65 18266181630478616745
14790565 3 18194691586452237945
15042514 8 17832708250678619954
15196674 1 18410855434970430625
15475509 35 16589157009070772945
15475509 8 17124823586154600364
16087824 20 17834677480774311359
16945 1 18338798892703981831
17980427 23 18055319541045856402
19591789 44 18267306623646219026
20510252 161 18053951932990105952
21267235 1 17835528124325977143
21501502 16 18411973672107133943
21524375 3 18272368702398307164
221490 88 18120663435601401347
2255824 54 18267584615515456222
23227448 37 18412544327236899541
2334 1 18266740366568440903
23402539 116 17838894094385032702
23557571 272 17767421432302096428
23558518 356 18188492513655606202
23559900 14 18339636720453200755
238 59 17612555996570346197
2748010 2 18337681921933920887
283562 15 18050844721836100347
3071541 12 18267587913928773358
3091708 16 9262496496251479282
335352 9 18410856513012373686
350125 39 18193561068938658861
474 4 18411698747071659393
5104073 3 18262526875704010081
5939293 188 18050282574904146862
6443956 14 17545041502915837653
7364860 26 18267304240182014780
84936 182 18272647922412115080
9709674 26 18412547599986576934
9981440 41 18337665420653245923
9999458 23 18264492788796947495

>  <PUBCHEM_SHAPE_MULTIPOLES>  (1) 
406.76
7.38
4.89
0.62
7.3
1.68
0
-6.01
0
-5
0
0.05
0.03
0

>  <PUBCHEM_SHAPE_SELFOVERLAP>  (1) 
876.758

>  <PUBCHEM_SHAPE_VOLUME>  (1) 
231.8

>  <PUBCHEM_COORDINATE_TYPE>  (1) 
2
5
10

$$$$
