15690
     RDKit          3D

 10 10  0  0  0  0  0  0  0  0999 V2000
   -2.8266    0.0002    0.0007 Cl  0  0  0  0  0  0  0  0  0  0  0  0
   -1.0802    2.7363   -0.0018 Cl  0  0  0  0  0  0  0  0  0  0  0  0
   -1.0803   -2.7366   -0.0005 Cl  0  0  0  0  0  0  0  0  0  0  0  0
    3.2895    0.0001    0.0007 Cl  0  0  0  0  0  0  0  0  0  0  0  0
    0.9793    1.2049    0.0005 N   0  0  0  0  0  0  0  0  0  0  0  0
    0.9797   -1.2048   -0.0011 N   0  0  0  0  0  0  0  0  0  0  0  0
   -1.1041   -0.0001    0.0010 C   0  0  0  0  0  0  0  0  0  0  0  0
   -0.3694    1.1678    0.0012 C   0  0  0  0  0  0  0  0  0  0  0  0
   -0.3690   -1.1680   -0.0003 C   0  0  0  0  0  0  0  0  0  0  0  0
    1.5809    0.0001   -0.0005 C   0  0  0  0  0  0  0  0  0  0  0  0
  1  7  1  0
  2  8  1  0
  3  9  1  0
  4 10  1  0
  5  8  2  0
  5 10  1  0
  6  9  1  0
  6 10  2  0
  7  8  1  0
  7  9  2  0
M  END
>  <PUBCHEM_COMPOUND_CID>  (1) 
15690

>  <PUBCHEM_CONFORMER_RMSD>  (1) 
0.4

>  <PUBCHEM_CONFORMER_DIVERSEORDER>  (1) 
1

>  <PUBCHEM_MMFF94_PARTIAL_CHARGES>  (1) 
10
1 -0.18
10 0.8
2 -0.18
3 -0.18
4 -0.18
5 -0.62
6 -0.62
7 0.18
8 0.49
9 0.49

>  <PUBCHEM_EFFECTIVE_ROTOR_COUNT>  (1) 
0

>  <PUBCHEM_PHARMACOPHORE_FEATURES>  (1) 
3
1 5 acceptor
3 5 6 10 cation
6 5 6 7 8 9 10 rings

>  <PUBCHEM_HEAVY_ATOM_COUNT>  (1) 
10

>  <PUBCHEM_ATOM_DEF_STEREO_COUNT>  (1) 
0

>  <PUBCHEM_ATOM_UDEF_STEREO_COUNT>  (1) 
0

>  <PUBCHEM_BOND_DEF_STEREO_COUNT>  (1) 
0

>  <PUBCHEM_BOND_UDEF_STEREO_COUNT>  (1) 
0

>  <PUBCHEM_ISOTOPIC_ATOM_COUNT>  (1) 
0

>  <PUBCHEM_COMPONENT_COUNT>  (1) 
1

>  <PUBCHEM_CACTVS_TAUTO_COUNT>  (1) 
1

>  <PUBCHEM_CONFORMER_ID>  (1) 
00003D4A00000001

>  <PUBCHEM_MMFF94_ENERGY>  (1) 
17.0132

>  <PUBCHEM_FEATURE_SELFOVERLAP>  (1) 
15.223

>  <PUBCHEM_SHAPE_FINGERPRINT>  (1) 
13380535 76 17903912258378145017
16945 1 18410856564119373190
193761 8 17762336912155514503
20871998 184 18201161069498308598
21040471 1 18266740173595216164
2334 1 17978228592917741184
23402539 116 18342443842384705143
23402655 69 18195509412987678933
2748010 2 18124311876705641340
5084963 1 18059011679147255552

>  <PUBCHEM_SHAPE_MULTIPOLES>  (1) 
203.31
3.5
2.77
0.62
2.04
0
0
0
0
-1.56
0
-0.02
0
0

>  <PUBCHEM_SHAPE_SELFOVERLAP>  (1) 
387.074

>  <PUBCHEM_SHAPE_VOLUME>  (1) 
124.8

>  <PUBCHEM_COORDINATE_TYPE>  (1) 
2
5
10

$$$$
