15691
     RDKit          3D

 10 10  0  0  1  0  0  0  0  0999 V2000
   -1.9295   -1.7958    0.7775 Cl  0  0  0  0  0  0  0  0  0  0  0  0
    0.5185   -1.9642   -1.4570 Cl  0  0  0  0  0  0  0  0  0  0  0  0
   -2.4809    1.5596    0.3697 Cl  0  0  0  0  0  0  0  0  0  0  0  0
    2.3184    0.4865    1.6134 Cl  0  0  0  0  0  0  0  0  0  0  0  0
   -0.6980   -0.5090    0.5615 C   0  0  0  0  0  0  0  0  0  0  0  0
    0.6565   -1.1017    0.1224 C   0  0  0  0  0  0  0  0  0  0  0  0
   -1.1999    0.5763   -0.4115 C   0  0  0  0  0  0  0  0  0  0  0  0
    1.7187    0.0076   -0.0106 C   0  0  0  0  0  0  0  0  0  0  0  0
   -0.1039    1.4942   -0.8795 C   0  0  0  0  0  0  0  0  0  0  0  0
    1.2002    1.2466   -0.6860 C   0  0  0  0  0  0  0  0  0  0  0  0
  1  5  1  0
  2  6  1  0
  3  7  1  0
  4  8  1  0
  5  6  1  0
  5  7  1  0
  6  8  1  0
  7  9  1  0
  8 10  1  0
  9 10  2  0
M  END
>  <PUBCHEM_COMPOUND_CID>  (1) 
15691

>  <PUBCHEM_CONFORMER_RMSD>  (1) 
0.4

>  <PUBCHEM_CONFORMER_DIVERSEORDER>  (1) 
1
4
12
19
10
17
6
11
20
9
18
3
2
16
13
14
15
5
7
8

>  <PUBCHEM_MMFF94_PARTIAL_CHARGES>  (1) 
12
1 -0.29
10 -0.29
15 0.15
16 0.15
2 -0.29
3 -0.29
4 -0.29
5 0.29
6 0.29
7 0.43
8 0.43
9 -0.29

>  <PUBCHEM_EFFECTIVE_ROTOR_COUNT>  (1) 
0.8

>  <PUBCHEM_PHARMACOPHORE_FEATURES>  (1) 
1
6 5 6 7 8 9 10 rings

>  <PUBCHEM_HEAVY_ATOM_COUNT>  (1) 
10

>  <PUBCHEM_ATOM_DEF_STEREO_COUNT>  (1) 
0

>  <PUBCHEM_ATOM_UDEF_STEREO_COUNT>  (1) 
4

>  <PUBCHEM_BOND_DEF_STEREO_COUNT>  (1) 
0

>  <PUBCHEM_BOND_UDEF_STEREO_COUNT>  (1) 
0

>  <PUBCHEM_ISOTOPIC_ATOM_COUNT>  (1) 
0

>  <PUBCHEM_COMPONENT_COUNT>  (1) 
1

>  <PUBCHEM_CACTVS_TAUTO_COUNT>  (1) 
1

>  <PUBCHEM_CONFORMER_ID>  (1) 
00003D4B00000001

>  <PUBCHEM_MMFF94_ENERGY>  (1) 
11.4665

>  <PUBCHEM_FEATURE_SELFOVERLAP>  (1) 
5.074

>  <PUBCHEM_SHAPE_FINGERPRINT>  (1) 
11680611 10 17749680674373781321
12423570 1 12180998469672129640
13024252 1 16519860323126799128
137420 1 15981765877596109354
14761567 1 16101071444869048773
16945 1 18114169796736027124
18185500 45 17185602858029398238
20511035 2 18341047432721619246
20653085 51 15983671524964029904
20653091 64 17459472345375652912
21040471 1 18262524680168449997
23211744 25 17328598219303364638
23211744 41 17978485582101495412
23235685 24 18337110051444072180
241688 4 17399526627731779176
2748010 2 18410584984562813414
5084963 1 18198644295908856290
53812654 25 17621311768149525439
68250623 7 17969525838346369110

>  <PUBCHEM_SHAPE_MULTIPOLES>  (1) 
213.27
2.92
2.2
1.37
0.47
0.61
0.09
-0.79
1.25
0.79
-0.47
-0.57
0.2
0.48

>  <PUBCHEM_SHAPE_SELFOVERLAP>  (1) 
387.269

>  <PUBCHEM_SHAPE_VOLUME>  (1) 
134.8

>  <PUBCHEM_COORDINATE_TYPE>  (1) 
2
5
10

$$$$
