15694
     RDKit          3D

 22 21  0  0  0  0  0  0  0  0999 V2000
   -5.4899   -0.6706    2.0765 O   0  0  0  0  0  0  0  0  0  0  0  0
   -5.7975    0.5599    0.1938 O   0  0  0  0  0  0  0  0  0  0  0  0
    0.0445   -3.2232   -0.8694 C   0  0  0  0  0  0  0  0  0  0  0  0
    1.2140   -2.6725   -0.0462 C   0  0  0  0  0  0  0  0  0  0  0  0
   -1.0464   -2.1846   -1.1393 C   0  0  0  0  0  0  0  0  0  0  0  0
    2.3533   -3.6578    0.2409 C   0  0  0  0  0  0  0  0  0  0  0  0
   -2.2101   -2.7336   -1.9680 C   0  0  0  0  0  0  0  0  0  0  0  0
    3.4611   -3.0673    1.1199 C   0  0  0  0  0  0  0  0  0  0  0  0
   -3.2842   -1.6971   -2.2596 C   0  0  0  0  0  0  0  0  0  0  0  0
    4.1234   -1.8105    0.6217 C   0  0  0  0  0  0  0  0  0  0  0  0
   -1.6724    1.9864    0.4828 C   0  0  0  0  0  0  0  0  0  0  0  0
   -3.1247    1.5573    0.2359 C   0  0  0  0  0  0  0  0  0  0  0  0
   -1.1222    2.9032   -0.6150 C   0  0  0  0  0  0  0  0  0  0  0  0
    4.2113   -0.6278    1.2498 C   0  0  0  0  0  0  0  0  0  0  0  0
   -3.6512    0.6402    1.3409 C   0  0  0  0  0  0  0  0  0  0  0  0
    4.9109    0.5660    0.6659 C   0  0  0  0  0  0  0  0  0  0  0  0
    0.2930    3.3352   -0.3592 C   0  0  0  0  0  0  0  0  0  0  0  0
    2.7960    3.4902   -0.8332 C   0  0  0  0  0  0  0  0  0  0  0  0
    1.3828    3.0569   -1.0915 C   0  0  0  0  0  0  0  0  0  0  0  0
    3.9793    1.7310    0.5054 C   0  0  0  0  0  0  0  0  0  0  0  0
    3.7119    2.3126   -0.6737 C   0  0  0  0  0  0  0  0  0  0  0  0
   -5.0831    0.2060    1.1215 C   0  0  0  0  0  0  0  0  0  0  0  0
  1 22  1  0
  2 22  2  0
  3  4  1  0
  3  5  1  0
  4  6  1  0
  5  7  1  0
  6  8  1  0
  7  9  1  0
  8 10  1  0
 10 14  2  0
 11 12  1  0
 11 13  1  0
 12 15  1  0
 13 17  1  0
 14 16  1  0
 15 22  1  0
 16 20  1  0
 17 19  2  0
 18 19  1  0
 18 21  1  0
 20 21  2  0
M  END
>  <PUBCHEM_COMPOUND_CID>  (1) 
15694

>  <PUBCHEM_CONFORMER_RMSD>  (1) 
1.4

>  <PUBCHEM_CONFORMER_DIVERSEORDER>  (1) 
2
91
30
44
6
53
52
32
109
10
88
101
25
46
131
71
20
26
83
69
15
96
82
7
23
4
129
21
107
11
92
50
127
57
97
110
51
41
47
94
98
79
105
9
16
22
81
42
62
116
124
67
36
48
18
123
31
75
61
86
103
40
114
73
24
68
99
37
106
66
28
43
39
74
108
78
100
119
19
93
70
115
113
77
130
58
13
5
122
72
29
121
33
90
117
45
64
27
125
85
34
59
80
112
56
63
55
89
38
104
76
1
111
54
118
12
17
102
126
95
84
128
8
120
65
35
60
49
14
87
3

>  <PUBCHEM_MMFF94_PARTIAL_CHARGES>  (1) 
21
1 -0.65
10 -0.29
13 0.14
14 -0.29
15 0.06
16 0.28
17 -0.29
18 0.28
19 -0.29
2 -0.57
20 -0.29
21 -0.29
22 0.66
38 0.15
47 0.15
50 0.15
53 0.15
54 0.15
55 0.15
56 0.5
8 0.14

>  <PUBCHEM_EFFECTIVE_ROTOR_COUNT>  (1) 
15

>  <PUBCHEM_PHARMACOPHORE_FEATURES>  (1) 
5
1 1 acceptor
1 2 acceptor
1 9 hydrophobe
3 1 2 22 anion
5 11 12 13 15 17 hydrophobe

>  <PUBCHEM_HEAVY_ATOM_COUNT>  (1) 
22

>  <PUBCHEM_ATOM_DEF_STEREO_COUNT>  (1) 
0

>  <PUBCHEM_ATOM_UDEF_STEREO_COUNT>  (1) 
0

>  <PUBCHEM_BOND_DEF_STEREO_COUNT>  (1) 
0

>  <PUBCHEM_BOND_UDEF_STEREO_COUNT>  (1) 
3

>  <PUBCHEM_ISOTOPIC_ATOM_COUNT>  (1) 
0

>  <PUBCHEM_COMPONENT_COUNT>  (1) 
1

>  <PUBCHEM_CACTVS_TAUTO_COUNT>  (1) 
1

>  <PUBCHEM_CONFORMER_ID>  (1) 
00003D4E00000002

>  <PUBCHEM_MMFF94_ENERGY>  (1) 
3.0032

>  <PUBCHEM_FEATURE_SELFOVERLAP>  (1) 
25.43

>  <PUBCHEM_SHAPE_FINGERPRINT>  (1) 
12717326 69 17609812977738080019
13111901 25 18200601419087644363
13642711 20 17676754410384232323
14040221 126 12622399728274413513
14725015 67 15885447306500079824
14840074 17 18342458119288545795
16120349 306 18270961378906824505
20765182 20 18194700184470115984
338550 245 18411699919708318916
373842 8 18265330617069022565
44575985 26 17768815261249285373
5047190 2 18270396217356579607
5309563 4 18263647256161242640

>  <PUBCHEM_SHAPE_MULTIPOLES>  (1) 
441.01
11.44
6.03
1.74
7.39
0.51
-0.25
-0.2
5.82
-4.43
-2.15
2
0.86
-2.95

>  <PUBCHEM_SHAPE_SELFOVERLAP>  (1) 
818.522

>  <PUBCHEM_SHAPE_VOLUME>  (1) 
275.1

>  <PUBCHEM_COORDINATE_TYPE>  (1) 
2
5
10

$$$$
