15705
     RDKit          3D

 20 21  0  0  0  0  0  0  0  0999 V2000
    3.3089    0.2745   -0.0292 O   0  0  0  0  0  0  0  0  0  0  0  0
   -5.8030    1.7314    0.0819 O   0  0  0  0  0  0  0  0  0  0  0  0
    6.7326    0.9729    0.0235 O   0  0  0  0  0  0  0  0  0  0  0  0
    4.9719    2.2869   -0.0802 O   0  0  0  0  0  0  0  0  0  0  0  0
   -4.9912   -0.4781   -0.0197 N   0  0  0  0  0  0  0  0  0  0  0  0
   -3.1299    0.9390    0.0312 N   0  0  0  0  0  0  0  0  0  0  0  0
   -1.5125   -1.3059   -0.0762 N   0  0  0  0  0  0  0  0  0  0  0  0
    5.4770    1.1281   -0.0143 N   0  0  0  0  0  0  0  0  0  0  0  0
   -2.8551   -1.4396   -0.0743 N   0  0  0  0  0  0  0  0  0  0  0  0
    2.6931   -0.9244    0.0098 C   0  0  0  0  0  0  0  0  0  0  0  0
    3.5846   -1.9536    0.0788 C   0  0  0  0  0  0  0  0  0  0  0  0
    1.2632   -1.0312   -0.0205 C   0  0  0  0  0  0  0  0  0  0  0  0
    4.6409    0.0104    0.0159 C   0  0  0  0  0  0  0  0  0  0  0  0
    4.8626   -1.3456    0.0830 C   0  0  0  0  0  0  0  0  0  0  0  0
    0.4609    0.0372   -0.0287 C   0  0  0  0  0  0  0  0  0  0  0  0
   -0.9845   -0.0695   -0.0253 C   0  0  0  0  0  0  0  0  0  0  0  0
   -1.7919    1.0376    0.0277 C   0  0  0  0  0  0  0  0  0  0  0  0
   -3.5983   -0.3168   -0.0210 C   0  0  0  0  0  0  0  0  0  0  0  0
   -5.9703    0.5173    0.0297 C   0  0  0  0  0  0  0  0  0  0  0  0
   -7.3590   -0.0706    0.0078 C   0  0  0  0  0  0  0  0  0  0  0  0
  1 10  1  0
  1 13  1  0
  2 19  2  0
  3  8  1  0
  4  8  2  0
  5 18  1  0
  5 19  1  0
  6 17  2  0
  6 18  1  0
  7  9  1  0
  7 16  2  0
  8 13  1  0
  9 18  2  0
 10 11  2  0
 10 12  1  0
 11 14  1  0
 12 15  2  0
 13 14  2  0
 15 16  1  0
 16 17  1  0
 19 20  1  0
M  CHG  2   3  -1   8   1
M  END
>  <PUBCHEM_COMPOUND_CID>  (1) 
15705

>  <PUBCHEM_CONFORMER_RMSD>  (1) 
0.8

>  <PUBCHEM_CONFORMER_DIVERSEORDER>  (1) 
1
8
10
7
12
3
11
4
13
6
2
9
5

>  <PUBCHEM_MMFF94_PARTIAL_CHARGES>  (1) 
26
1 -0.28
10 0.09
11 -0.15
12 -0.11
13 0.22
14 -0.15
15 -0.18
16 0.34
17 0.16
18 0.74
19 0.57
2 -0.57
20 0.06
21 0.15
22 0.15
23 0.15
24 0.15
25 0.15
26 0.37
3 -0.52
4 -0.52
5 -0.55
6 -0.62
7 -0.31
8 0.96
9 -0.31

>  <PUBCHEM_EFFECTIVE_ROTOR_COUNT>  (1) 
5

>  <PUBCHEM_PHARMACOPHORE_FEATURES>  (1) 
8
1 1 acceptor
1 2 acceptor
1 3 acceptor
1 3 anion
1 4 acceptor
1 5 donor
5 1 10 11 13 14 rings
6 6 7 9 16 17 18 rings

>  <PUBCHEM_HEAVY_ATOM_COUNT>  (1) 
20

>  <PUBCHEM_ATOM_DEF_STEREO_COUNT>  (1) 
0

>  <PUBCHEM_ATOM_UDEF_STEREO_COUNT>  (1) 
0

>  <PUBCHEM_BOND_DEF_STEREO_COUNT>  (1) 
0

>  <PUBCHEM_BOND_UDEF_STEREO_COUNT>  (1) 
1

>  <PUBCHEM_ISOTOPIC_ATOM_COUNT>  (1) 
0

>  <PUBCHEM_COMPONENT_COUNT>  (1) 
1

>  <PUBCHEM_CACTVS_TAUTO_COUNT>  (1) 
4

>  <PUBCHEM_CONFORMER_ID>  (1) 
00003D5900000001

>  <PUBCHEM_MMFF94_ENERGY>  (1) 
43.476

>  <PUBCHEM_FEATURE_SELFOVERLAP>  (1) 
40.688

>  <PUBCHEM_SHAPE_FINGERPRINT>  (1) 
10411042 1 17977665309039338330
10595046 47 18341892965916739923
10906281 52 17988660583570485491
10968037 39 18411981369374070839
117890 112 18410856551076241773
12107183 9 17619632380334200458
12236239 1 18409448064186704843
125118 31 18040155085234122741
13167372 99 18340206284714514080
13533116 47 18059292063403311154
13899415 154 17203610402061129233
14251732 16 18408887356385508219
14251764 18 18202566185998794515
14461889 52 18260548973753512482
14528608 73 18343020016959103590
14933364 13 18410857651004704873
15048467 5 18411981368677764497
16079462 125 17895183399027131669
17834072 33 18343299275305531919
17844677 252 18339931398312450908
18335252 98 18410298038478736835
19427546 62 18335704992191599498
20157964 124 18410857646731005466
20281389 69 18259984843158597317
20645477 70 18270964540641369630
21150785 3 15410894084725687016
21267235 1 18339647733319378094
21315763 28 18410572860054863307
220451 1 16845569803917056623
22896161 15 18410855486705236495
23081809 10 17917424298943544559
23402539 116 18201149984741300303
23536379 177 18409729526399794131
23559900 14 18343014536137832857
239999 70 18272092635234465046
29717793 49 17846221016871686766
300161 21 18410853269811158238
3004659 81 18338518543551898314
34797466 226 17846224366582167804
3545911 37 18408886239620015316
4073 2 18041285455985668642
42788 4 18410855434891309355
4325135 7 18413670218817622988
4340502 62 16950000326900491658
4463277 17 18410575072369040209
5104073 3 18261395511706989490
542803 24 17489588948218410995
6025842 7 18271527516417394318
6438161 24 12535356662770300212

>  <PUBCHEM_SHAPE_MULTIPOLES>  (1) 
363.21
18.31
1.71
0.58
9.05
0.27
0
5.3
-0.25
-1.84
0
0.02
-0.02
-0.16

>  <PUBCHEM_SHAPE_SELFOVERLAP>  (1) 
774.61

>  <PUBCHEM_SHAPE_VOLUME>  (1) 
199.8

>  <PUBCHEM_COORDINATE_TYPE>  (1) 
2
5
10

$$$$
