1570
     RDKit          3D

  8  8  0  0  0  0  0  0  0  0999 V2000
   -2.3148    1.1800    0.0217 S   0  0  0  0  0  0  0  0  0  0  0  0
   -1.4343   -1.7277   -0.0343 O   0  0  0  0  0  0  0  0  0  0  0  0
   -0.4158   -0.7645    0.0034 N   0  0  0  0  0  0  0  0  0  0  0  0
   -0.7403    0.5789    0.0074 C   0  0  0  0  0  0  0  0  0  0  0  0
    0.8538   -1.2785    0.0262 C   0  0  0  0  0  0  0  0  0  0  0  0
    0.4539    1.4930   -0.0197 C   0  0  0  0  0  0  0  0  0  0  0  0
    1.9074   -0.4536    0.0132 C   0  0  0  0  0  0  0  0  0  0  0  0
    1.6902    0.9723   -0.0180 C   0  0  0  0  0  0  0  0  0  0  0  0
  1  4  2  0
  2  3  1  0
  3  4  1  0
  3  5  1  0
  4  6  1  0
  5  7  2  0
  6  8  2  0
  7  8  1  0
M  END
>  <PUBCHEM_COMPOUND_CID>  (1) 
1570

>  <PUBCHEM_CONFORMER_RMSD>  (1) 
0.4

>  <PUBCHEM_CONFORMER_DIVERSEORDER>  (1) 
1

>  <PUBCHEM_MMFF94_PARTIAL_CHARGES>  (1) 
13
1 -0.38
10 0.15
11 0.15
12 0.15
13 0.4
2 -0.44
3 -0.13
4 0.43
5 -0.04
6 -0.14
7 -0.15
8 -0.15
9 0.15

>  <PUBCHEM_EFFECTIVE_ROTOR_COUNT>  (1) 
0

>  <PUBCHEM_PHARMACOPHORE_FEATURES>  (1) 
2
1 1 acceptor
6 3 4 5 6 7 8 rings

>  <PUBCHEM_HEAVY_ATOM_COUNT>  (1) 
8

>  <PUBCHEM_ATOM_DEF_STEREO_COUNT>  (1) 
0

>  <PUBCHEM_ATOM_UDEF_STEREO_COUNT>  (1) 
0

>  <PUBCHEM_BOND_DEF_STEREO_COUNT>  (1) 
0

>  <PUBCHEM_BOND_UDEF_STEREO_COUNT>  (1) 
0

>  <PUBCHEM_ISOTOPIC_ATOM_COUNT>  (1) 
0

>  <PUBCHEM_COMPONENT_COUNT>  (1) 
1

>  <PUBCHEM_CACTVS_TAUTO_COUNT>  (1) 
1

>  <PUBCHEM_CONFORMER_ID>  (1) 
0000062200000001

>  <PUBCHEM_MMFF94_ENERGY>  (1) 
20.9064

>  <PUBCHEM_FEATURE_SELFOVERLAP>  (1) 
10.148

>  <PUBCHEM_SHAPE_FINGERPRINT>  (1) 
18185500 45 18409727335586528418
20096714 4 18410575054677533080
21040471 1 18410856529638555872
23552423 10 18260832648001053462
2748010 2 18339363066838698452
29004967 10 18118411635196950441
5084963 1 17914326884019052225

>  <PUBCHEM_SHAPE_MULTIPOLES>  (1) 
157.64
2.72
1.81
0.61
1.01
0.41
0
-0.47
0.02
0.09
-0.02
0.01
-0.04
-0.02

>  <PUBCHEM_SHAPE_SELFOVERLAP>  (1) 
309.967

>  <PUBCHEM_SHAPE_VOLUME>  (1) 
95.7

>  <PUBCHEM_COORDINATE_TYPE>  (1) 
2
5
10

$$$$
