15716
     RDKit          3D

  9  9  0  0  1  0  0  0  0  0999 V2000
   -1.1698    0.7074    0.2996 C   0  0  0  0  0  0  0  0  0  0  0  0
   -1.2991   -0.4911   -0.6485 C   0  0  0  0  0  0  0  0  0  0  0  0
   -0.1713   -1.5168   -0.4365 C   0  0  0  0  0  0  0  0  0  0  0  0
    0.1869    1.4052    0.1013 C   0  0  0  0  0  0  0  0  0  0  0  0
    1.3484    0.4505   -0.0223 C   0  0  0  0  0  0  0  0  0  0  0  0
    1.1735   -0.8625   -0.2510 C   0  0  0  0  0  0  0  0  0  0  0  0
   -2.3184    1.6940    0.0961 C   0  0  0  0  0  0  0  0  0  0  0  0
   -0.4654   -2.4412    0.7473 C   0  0  0  0  0  0  0  0  0  0  0  0
    2.7151    1.0545    0.1140 C   0  0  0  0  0  0  0  0  0  0  0  0
  1  2  1  0
  1  4  1  0
  1  7  1  0
  2  3  1  0
  3  6  1  0
  3  8  1  0
  4  5  1  0
  5  6  2  0
  5  9  1  0
M  END
>  <PUBCHEM_COMPOUND_CID>  (1) 
15716

>  <PUBCHEM_CONFORMER_RMSD>  (1) 
0.4

>  <PUBCHEM_CONFORMER_DIVERSEORDER>  (1) 
1
2

>  <PUBCHEM_MMFF94_PARTIAL_CHARGES>  (1) 
6
16 0.15
3 0.14
4 0.14
5 -0.28
6 -0.29
9 0.14

>  <PUBCHEM_EFFECTIVE_ROTOR_COUNT>  (1) 
0.8

>  <PUBCHEM_PHARMACOPHORE_FEATURES>  (1) 
1
6 1 2 3 4 5 6 rings

>  <PUBCHEM_HEAVY_ATOM_COUNT>  (1) 
9

>  <PUBCHEM_ATOM_DEF_STEREO_COUNT>  (1) 
0

>  <PUBCHEM_ATOM_UDEF_STEREO_COUNT>  (1) 
2

>  <PUBCHEM_BOND_DEF_STEREO_COUNT>  (1) 
0

>  <PUBCHEM_BOND_UDEF_STEREO_COUNT>  (1) 
0

>  <PUBCHEM_ISOTOPIC_ATOM_COUNT>  (1) 
0

>  <PUBCHEM_COMPONENT_COUNT>  (1) 
1

>  <PUBCHEM_CACTVS_TAUTO_COUNT>  (1) 
1

>  <PUBCHEM_CONFORMER_ID>  (1) 
00003D6400000001

>  <PUBCHEM_MMFF94_ENERGY>  (1) 
5.9801

>  <PUBCHEM_FEATURE_SELFOVERLAP>  (1) 
5.074

>  <PUBCHEM_SHAPE_FINGERPRINT>  (1) 
100427 49 17188411006389657173
12423570 1 14814128234537916645
137420 1 9074586913790115269
16945 1 18266179624269946598
18185500 45 17475233496693818447
20653091 64 17692538810275812521
21040471 1 18411703179483040548
23552423 10 18050569534670321013
2748010 2 18411707547301049031
5084963 1 18201154334736049321
528862 383 18047184155305343619

>  <PUBCHEM_SHAPE_MULTIPOLES>  (1) 
185.22
2.76
2.38
0.77
0.86
1.06
-0.01
-1.79
-0.05
-0.69
-0.43
-0.09
0.2
0.03

>  <PUBCHEM_SHAPE_SELFOVERLAP>  (1) 
359.054

>  <PUBCHEM_SHAPE_VOLUME>  (1) 
112.5

>  <PUBCHEM_COORDINATE_TYPE>  (1) 
2
5
10

$$$$
