15729
     RDKit          3D

 17 19  0  0  0  0  0  0  0  0999 V2000
   -5.3828    0.4479    0.0003 F   0  0  0  0  0  0  0  0  0  0  0  0
    4.9707   -0.8040    0.0001 O   0  0  0  0  0  0  0  0  0  0  0  0
    4.6073    1.3653   -0.0005 O   0  0  0  0  0  0  0  0  0  0  0  0
    4.1952    0.1811    0.0002 N   0  0  0  0  0  0  0  0  0  0  0  0
   -0.5910    1.7508    0.0001 C   0  0  0  0  0  0  0  0  0  0  0  0
    0.5552    0.7610    0.0000 C   0  0  0  0  0  0  0  0  0  0  0  0
    0.0645   -0.5641   -0.0002 C   0  0  0  0  0  0  0  0  0  0  0  0
   -1.7936    0.8304   -0.0001 C   0  0  0  0  0  0  0  0  0  0  0  0
   -1.3820   -0.5214   -0.0002 C   0  0  0  0  0  0  0  0  0  0  0  0
    1.9128    1.0293    0.0001 C   0  0  0  0  0  0  0  0  0  0  0  0
    0.9388   -1.6381    0.0000 C   0  0  0  0  0  0  0  0  0  0  0  0
   -3.1330    1.1784    0.0001 C   0  0  0  0  0  0  0  0  0  0  0  0
   -2.3182   -1.5418   -0.0001 C   0  0  0  0  0  0  0  0  0  0  0  0
    2.7939   -0.0535    0.0003 C   0  0  0  0  0  0  0  0  0  0  0  0
    2.3118   -1.3738    0.0003 C   0  0  0  0  0  0  0  0  0  0  0  0
   -4.0765    0.1495    0.0000 C   0  0  0  0  0  0  0  0  0  0  0  0
   -3.6733   -1.1970   -0.0002 C   0  0  0  0  0  0  0  0  0  0  0  0
  1 16  1  0
  2  4  1  0
  3  4  2  0
  4 14  1  0
  5  6  1  0
  5  8  1  0
  6  7  2  0
  6 10  1  0
  7  9  1  0
  7 11  1  0
  8  9  2  0
  8 12  1  0
  9 13  1  0
 10 14  2  0
 11 15  2  0
 12 16  2  0
 13 17  2  0
 14 15  1  0
 16 17  1  0
M  CHG  2   2  -1   4   1
M  END
>  <PUBCHEM_COMPOUND_CID>  (1) 
15729

>  <PUBCHEM_CONFORMER_RMSD>  (1) 
0.6

>  <PUBCHEM_CONFORMER_DIVERSEORDER>  (1) 
1

>  <PUBCHEM_MMFF94_PARTIAL_CHARGES>  (1) 
21
1 -0.19
10 -0.15
11 -0.15
12 -0.15
13 -0.15
14 0.13
15 -0.15
16 0.19
17 -0.15
2 -0.52
20 0.15
21 0.15
22 0.15
23 0.15
24 0.15
25 0.15
3 -0.52
4 0.91
5 0.29
6 -0.14
8 -0.14

>  <PUBCHEM_EFFECTIVE_ROTOR_COUNT>  (1) 
1.2

>  <PUBCHEM_PHARMACOPHORE_FEATURES>  (1) 
6
1 2 acceptor
1 2 anion
1 3 acceptor
5 5 6 7 8 9 rings
6 6 7 10 11 14 15 rings
6 8 9 12 13 16 17 rings

>  <PUBCHEM_HEAVY_ATOM_COUNT>  (1) 
17

>  <PUBCHEM_ATOM_DEF_STEREO_COUNT>  (1) 
0

>  <PUBCHEM_ATOM_UDEF_STEREO_COUNT>  (1) 
0

>  <PUBCHEM_BOND_DEF_STEREO_COUNT>  (1) 
0

>  <PUBCHEM_BOND_UDEF_STEREO_COUNT>  (1) 
0

>  <PUBCHEM_ISOTOPIC_ATOM_COUNT>  (1) 
0

>  <PUBCHEM_COMPONENT_COUNT>  (1) 
1

>  <PUBCHEM_CACTVS_TAUTO_COUNT>  (1) 
1

>  <PUBCHEM_CONFORMER_ID>  (1) 
00003D7100000001

>  <PUBCHEM_MMFF94_ENERGY>  (1) 
56.575

>  <PUBCHEM_FEATURE_SELFOVERLAP>  (1) 
30.691

>  <PUBCHEM_SHAPE_FINGERPRINT>  (1) 
10062212 137 18409724092744145903
10608611 8 18410570660926249125
10967382 1 18410856538275950247
11132069 177 18410571803376669160
11401426 45 18411134753430284661
11471102 20 18411416206773909870
11806522 49 18338233872628785663
12236239 1 17822010917420504252
12251169 10 18411420609468855037
12403814 3 17748825203025316221
13140716 1 18266748063624349017
13214271 11 18411980295184061935
13221675 6 18411699885137583975
13288520 33 18412829066678944246
13380535 76 18410013225737320051
13862211 1 18410568483362025254
14115302 16 18113910380632097798
15196674 1 18410574019527052742
15375358 24 18410293605534118091
15536298 74 18342459210089069190
16945 1 18338798896987951397
17804303 29 18341614853804502433
18186145 218 17385998511514916103
18522853 276 18412826884666843721
200 152 18060415833301195911
20510252 161 18200595774656332537
20645477 70 18272089336103287902
21029758 11 18343579651229882089
21267235 1 18410302401637722283
221490 88 18191593153488309411
23402539 116 18341886411754545895
23402655 69 18342167822686535741
23463225 33 18408322185343040709
23557571 272 18341056207350517164
23559900 14 18412825768539829586
2748010 2 18122340443914985729
2871803 45 18335699412448463054
296302 2 18410857668015717007
3312278 4 18411983563638122531
335352 9 18410573967982151389
34934 24 18410287004454175287
3545911 37 18409450271472788927
4214541 1 18410856525354222533
4340502 62 16660650626953409923
474 4 17168995658985407772
4990 188 18060146414360969518
5104073 3 18410292527407423130
537710 114 18410579495842801628
69090 78 18341890788516111375
7364860 26 18269556031533028630
77779 3 18411139134328646534
8809292 202 18260552272483496139
9709674 26 18411143536522997150

>  <PUBCHEM_SHAPE_MULTIPOLES>  (1) 
325.86
9.02
1.71
0.59
1.93
0.08
0
-0.44
0
-0.01
0
-0.04
0.01
0

>  <PUBCHEM_SHAPE_SELFOVERLAP>  (1) 
734.352

>  <PUBCHEM_SHAPE_VOLUME>  (1) 
173.9

>  <PUBCHEM_COORDINATE_TYPE>  (1) 
2
5
10

$$$$
