15735
     RDKit          3D

 17 18  0  0  0  0  0  0  0  0999 V2000
   -4.7968   -1.1113   -0.3562 N   0  0  0  0  0  0  0  0  0  0  0  0
    4.7248   -1.2482    0.3172 N   0  0  0  0  0  0  0  0  0  0  0  0
    0.0033    1.9191    0.0530 C   0  0  0  0  0  0  0  0  0  0  0  0
   -1.2540    1.1244   -0.0542 C   0  0  0  0  0  0  0  0  0  0  0  0
    1.2601    1.0751    0.1232 C   0  0  0  0  0  0  0  0  0  0  0  0
   -1.9275    0.7257    1.1002 C   0  0  0  0  0  0  0  0  0  0  0  0
    1.9040    0.7273   -1.0501 C   0  0  0  0  0  0  0  0  0  0  0  0
   -1.7570    0.7807   -1.3090 C   0  0  0  0  0  0  0  0  0  0  0  0
    1.7334    0.6739    1.3592 C   0  0  0  0  0  0  0  0  0  0  0  0
   -3.6073   -0.3604   -0.2548 C   0  0  0  0  0  0  0  0  0  0  0  0
    3.5548   -0.4634    0.2517 C   0  0  0  0  0  0  0  0  0  0  0  0
   -3.1040   -0.0169    1.0000 C   0  0  0  0  0  0  0  0  0  0  0  0
    3.0611   -0.0488   -0.9854 C   0  0  0  0  0  0  0  0  0  0  0  0
   -2.9336    0.0383   -1.4094 C   0  0  0  0  0  0  0  0  0  0  0  0
    2.8907   -0.1020    1.4241 C   0  0  0  0  0  0  0  0  0  0  0  0
   -5.2047   -2.0580    0.6352 C   0  0  0  0  0  0  0  0  0  0  0  0
    5.4528   -1.6555   -0.8446 C   0  0  0  0  0  0  0  0  0  0  0  0
  1 10  1  0
  1 16  1  0
  2 11  1  0
  2 17  1  0
  3  4  1  0
  3  5  1  0
  4  6  2  0
  4  8  1  0
  5  7  2  0
  5  9  1  0
  6 12  1  0
  7 13  1  0
  8 14  2  0
  9 15  2  0
 10 12  2  0
 10 14  1  0
 11 13  2  0
 11 15  1  0
M  END
>  <PUBCHEM_COMPOUND_CID>  (1) 
15735

>  <PUBCHEM_CONFORMER_RMSD>  (1) 
0.6

>  <PUBCHEM_CONFORMER_DIVERSEORDER>  (1) 
1
4
6
7
2
5
8
3

>  <PUBCHEM_MMFF94_PARTIAL_CHARGES>  (1) 
27
1 -0.87
10 0.1
11 0.1
12 -0.15
13 -0.15
14 -0.15
15 -0.15
16 0.37
17 0.37
2 -0.87
20 0.15
21 0.15
22 0.15
23 0.15
24 0.15
25 0.15
26 0.15
27 0.15
28 0.4
29 0.4
3 0.29
4 -0.14
5 -0.14
6 -0.15
7 -0.15
8 -0.15
9 -0.15

>  <PUBCHEM_EFFECTIVE_ROTOR_COUNT>  (1) 
4

>  <PUBCHEM_PHARMACOPHORE_FEATURES>  (1) 
6
1 1 cation
1 1 donor
1 2 cation
1 2 donor
6 4 6 8 10 12 14 rings
6 5 7 9 11 13 15 rings

>  <PUBCHEM_HEAVY_ATOM_COUNT>  (1) 
17

>  <PUBCHEM_ATOM_DEF_STEREO_COUNT>  (1) 
0

>  <PUBCHEM_ATOM_UDEF_STEREO_COUNT>  (1) 
0

>  <PUBCHEM_BOND_DEF_STEREO_COUNT>  (1) 
0

>  <PUBCHEM_BOND_UDEF_STEREO_COUNT>  (1) 
0

>  <PUBCHEM_ISOTOPIC_ATOM_COUNT>  (1) 
0

>  <PUBCHEM_COMPONENT_COUNT>  (1) 
1

>  <PUBCHEM_CACTVS_TAUTO_COUNT>  (1) 
1

>  <PUBCHEM_CONFORMER_ID>  (1) 
00003D7700000001

>  <PUBCHEM_MMFF94_ENERGY>  (1) 
65.3464

>  <PUBCHEM_FEATURE_SELFOVERLAP>  (1) 
30.446

>  <PUBCHEM_SHAPE_FINGERPRINT>  (1) 
10014705 185 11025807491418898390
10498660 4 11458423535522892167
11046707 91 18340486677522762384
11796584 16 18336259037991838662
12251169 10 15626220229901129833
12363563 72 18410013238558717065
12403259 118 12463561911539338299
12507560 40 14476972142261252584
12633257 1 15697999673388113468
12670546 177 16081369643940386390
12892183 10 15697730211324062200
13675066 3 17417816175432615361
14123255 352 8070023367965398862
14178342 30 17488198005700546577
1420 369 18342176669617740126
14252887 29 18271236231086201864
14341114 176 16272209682888153810
14341114 328 14907895024183438587
14576447 43 17603301544880836466
15188451 53 16988272188492340823
15209289 33 17846779581389250550
15209294 21 12679454288070436124
15238133 3 13110970854816832210
15375462 189 17417807297571638878
17870717 6 17822009787891877183
1813 80 18130799936335197380
19050596 39 15482663615217323317
193927 3 18412829087821510199
19782 4 9655579616884296201
19784866 240 18409453591819995479
200 152 17822011999298848561
20112054 13 10735876183568999577
20361792 2 18411131450553585093
20645477 70 18040997396586209205
20871999 31 16153426134382663941
21713013 43 17676762141309300167
22646028 28 18411698785551940745
22926399 37 11746930980383945711
231179 274 8286198362161153654
23379529 103 18042699457798187179
23402539 116 18188494550018386284
23402655 69 14490188284917050012
23403322 49 18261390018491309307
23503953 91 14692568844690520075
23559900 14 16515970383720621245
270888 7 9223234035377314671
27216 239 11095869493538285141
2838139 119 10809338975042788610
2871803 45 17095240349620108225
2916195 48 8358244939460488726
3082319 5 15791726382330296197
312423 11 18411146847937559472
3286 77 18272933842568862745
3472631 163 7925911465603010171
4028521 119 12468355747676158719
42 15 17203330022237787857
465052 167 18266187295751924559
5104073 3 17632298964554753506
58807428 26 15698009547945065525
5924683 9 14332827323533102477
59755656 520 17908984310224318137
7970288 3 18411421708617382446

>  <PUBCHEM_SHAPE_MULTIPOLES>  (1) 
339.89
10.86
1.68
1.41
0.72
0.36
-0.01
9.07
0.5
-0.35
-0.03
0.09
-0.1
0.65

>  <PUBCHEM_SHAPE_SELFOVERLAP>  (1) 
718.043

>  <PUBCHEM_SHAPE_VOLUME>  (1) 
192

>  <PUBCHEM_COORDINATE_TYPE>  (1) 
2
5
10

$$$$
