1573
     RDKit          3D

 22 25  0  0  1  0  0  0  0  0999 V2000
   -5.4619   -0.1713    0.3087 O   0  0  0  0  0  0  0  0  0  0  0  0
    4.4871    1.6926   -0.4540 O   0  0  0  0  0  0  0  0  0  0  0  0
    5.3223   -0.9114    0.0359 O   0  0  0  0  0  0  0  0  0  0  0  0
   -3.0903    0.3586    0.6346 C   0  0  0  0  0  0  0  0  0  0  0  0
   -2.6329   -0.5880   -0.5008 C   0  0  0  0  0  0  0  0  0  0  0  0
   -1.1245   -0.9117   -0.5728 C   0  0  0  0  0  0  0  0  0  0  0  0
   -0.2221    0.3259   -0.3492 C   0  0  0  0  0  0  0  0  0  0  0  0
   -4.4687    0.8336    0.1102 C   0  0  0  0  0  0  0  0  0  0  0  0
   -2.1284    1.5581    0.7878 C   0  0  0  0  0  0  0  0  0  0  0  0
   -3.1287    0.1030   -1.7905 C   0  0  0  0  0  0  0  0  0  0  0  0
   -0.6603    1.1467    0.8772 C   0  0  0  0  0  0  0  0  0  0  0  0
   -4.2768    1.0317   -1.3908 C   0  0  0  0  0  0  0  0  0  0  0  0
   -0.7263   -2.0406    0.3909 C   0  0  0  0  0  0  0  0  0  0  0  0
   -3.2499   -0.3603    1.9854 C   0  0  0  0  0  0  0  0  0  0  0  0
    1.2523   -0.0356   -0.2480 C   0  0  0  0  0  0  0  0  0  0  0  0
    0.7049   -2.4951    0.1170 C   0  0  0  0  0  0  0  0  0  0  0  0
    1.6794   -1.3522    0.0047 C   0  0  0  0  0  0  0  0  0  0  0  0
    2.2173    0.9759   -0.4014 C   0  0  0  0  0  0  0  0  0  0  0  0
    3.0535   -1.6295    0.0910 C   0  0  0  0  0  0  0  0  0  0  0  0
    3.5785    0.6891   -0.3038 C   0  0  0  0  0  0  0  0  0  0  0  0
    3.9966   -0.6138   -0.0567 C   0  0  0  0  0  0  0  0  0  0  0  0
    4.8788    2.3943    0.7244 C   0  0  0  0  0  0  0  0  0  0  0  0
  1  8  1  0
  2 20  1  0
  2 22  1  0
  3 21  1  0
  4  5  1  0
  4  8  1  0
  4  9  1  0
  4 14  1  0
  5  6  1  0
  5 10  1  0
  6  7  1  0
  6 13  1  0
  7 11  1  0
  7 15  1  0
  8 12  1  0
  9 11  1  0
 10 12  1  0
 13 16  1  0
 15 17  2  0
 15 18  1  0
 16 17  1  0
 17 19  1  0
 18 20  2  0
 19 21  2  0
 20 21  1  0
M  END
>  <PUBCHEM_COMPOUND_CID>  (1) 
1573

>  <PUBCHEM_CONFORMER_RMSD>  (1) 
0.6

>  <PUBCHEM_CONFORMER_DIVERSEORDER>  (1) 
2
39
8
45
27
38
53
26
34
22
40
9
30
44
50
20
24
47
52
43
36
10
6
41
13
51
14
18
42
19
1
16
3
7
31
4
37
46
5
49
17
29
15
21
11
25
33
28
35
48
12
32
23

>  <PUBCHEM_MMFF94_PARTIAL_CHARGES>  (1) 
17
1 -0.68
15 -0.14
16 0.14
17 -0.14
18 -0.15
19 -0.15
2 -0.36
20 0.08
21 0.08
22 0.28
3 -0.53
42 0.4
43 0.15
44 0.15
45 0.45
7 0.14
8 0.28

>  <PUBCHEM_EFFECTIVE_ROTOR_COUNT>  (1) 
2.4

>  <PUBCHEM_PHARMACOPHORE_FEATURES>  (1) 
8
1 1 acceptor
1 1 donor
1 2 acceptor
1 3 donor
5 4 5 8 10 12 rings
6 15 17 18 19 20 21 rings
6 4 5 6 7 9 11 rings
6 6 7 13 15 16 17 rings

>  <PUBCHEM_HEAVY_ATOM_COUNT>  (1) 
22

>  <PUBCHEM_ATOM_DEF_STEREO_COUNT>  (1) 
0

>  <PUBCHEM_ATOM_UDEF_STEREO_COUNT>  (1) 
5

>  <PUBCHEM_BOND_DEF_STEREO_COUNT>  (1) 
0

>  <PUBCHEM_BOND_UDEF_STEREO_COUNT>  (1) 
0

>  <PUBCHEM_ISOTOPIC_ATOM_COUNT>  (1) 
0

>  <PUBCHEM_COMPONENT_COUNT>  (1) 
1

>  <PUBCHEM_CACTVS_TAUTO_COUNT>  (1) 
9

>  <PUBCHEM_CONFORMER_ID>  (1) 
0000062500000002

>  <PUBCHEM_MMFF94_ENERGY>  (1) 
82.3513

>  <PUBCHEM_FEATURE_SELFOVERLAP>  (1) 
40.828

>  <PUBCHEM_SHAPE_FINGERPRINT>  (1) 
10 15 17968094291809406360
10498660 4 18341611550937709016
11370993 70 18334011687690126666
11543360 7 15913328039377996972
12236239 1 17989205928263010933
12403259 415 18187081737009969340
12592029 89 17822004272647480250
12616971 3 18131349682994154476
12788726 201 17203058408390399921
13140716 1 18408322207293267722
13224815 77 18342460330753539666
13583140 156 17385723599396057130
13675066 3 17968099745858222164
13760787 5 18272649039034611165
14787075 74 18411982494508140739
14790565 3 18201445718740941121
14848178 96 18199180866637785176
15196674 1 18410856598569055206
15375358 24 17967813821327060811
16945 1 18341056203076642047
16988056 13 14029759789446973321
17349148 13 18412537687302115466
18186145 218 18409733954331728358
19489759 90 16443064984971676701
19784866 34 18412257358933700471
19862831 5 18131064926672979327
200 152 18271239430968361493
204376 136 18408606989030357438
20645477 70 18337673018661804294
21033648 144 18339634633631929724
21033648 29 17894901923749987564
21033650 10 16270830890996228944
21267235 1 18341622477424330318
21859007 373 17751898282449325556
22094290 60 14764347120089109643
23402539 116 17989200417429645132
23493267 7 17530678780132925849
23557571 272 17022910003958387063
23559900 14 18265612074460000610
26918003 58 18186806859097542643
296302 2 18333731312520462493
335352 9 18409730652113995958
34797466 226 14620509090310754200
350125 39 18337673019178651916
3545911 37 18408608093253645020
4340502 62 17967259680757934419
474 4 18411418388828539574
5104073 3 18335982060241481066
6034566 193 17681569352412916676
633830 44 18201168649883139599
9981440 41 17550652749219345160

>  <PUBCHEM_SHAPE_MULTIPOLES>  (1) 
435.14
10.51
2.12
1.21
3.33
0.26
-0.05
-3.86
0.19
2.1
-0.31
-1.49
-0.16
0.3

>  <PUBCHEM_SHAPE_SELFOVERLAP>  (1) 
944.156

>  <PUBCHEM_SHAPE_VOLUME>  (1) 
237.6

>  <PUBCHEM_COORDINATE_TYPE>  (1) 
2
5
10

$$$$
