15756
     RDKit          3D

 17 19  0  0  1  0  0  0  0  0999 V2000
   -0.2572    0.0967   -0.8378 O   0  0  0  0  0  0  0  0  0  0  0  0
   -0.1304    1.2609    1.2262 O   0  0  0  0  0  0  0  0  0  0  0  0
    1.9445    0.5265    0.1572 C   0  0  0  0  0  0  0  0  0  0  0  0
    3.3847    0.9798   -0.1642 C   0  0  0  0  0  0  0  0  0  0  0  0
    1.1148    0.3599   -1.1393 C   0  0  0  0  0  0  0  0  0  0  0  0
    1.2422    1.5956    1.0213 C   0  0  0  0  0  0  0  0  0  0  0  0
    1.9982   -0.8154    0.9435 C   0  0  0  0  0  0  0  0  0  0  0  0
   -0.8116    1.1300   -0.0228 C   0  0  0  0  0  0  0  0  0  0  0  0
   -2.2561    0.7642    0.2723 C   0  0  0  0  0  0  0  0  0  0  0  0
    4.1807   -0.0683   -0.9499 C   0  0  0  0  0  0  0  0  0  0  0  0
   -3.0733    0.7472   -1.0325 C   0  0  0  0  0  0  0  0  0  0  0  0
    2.9899   -1.8021    0.3970 C   0  0  0  0  0  0  0  0  0  0  0  0
    3.9633   -1.4677   -0.4606 C   0  0  0  0  0  0  0  0  0  0  0  0
   -4.4343    0.0874   -0.8269 C   0  0  0  0  0  0  0  0  0  0  0  0
   -2.3379   -0.5447    1.0166 C   0  0  0  0  0  0  0  0  0  0  0  0
   -4.2807   -1.3523   -0.3330 C   0  0  0  0  0  0  0  0  0  0  0  0
   -3.2367   -1.4979    0.7329 C   0  0  0  0  0  0  0  0  0  0  0  0
  1  5  1  0
  1  8  1  0
  2  6  1  0
  2  8  1  0
  3  4  1  0
  3  5  1  0
  3  6  1  0
  3  7  1  0
  4 10  1  0
  7 12  1  0
  8  9  1  0
  9 11  1  0
  9 15  1  0
 10 13  1  0
 11 14  1  0
 12 13  2  0
 14 16  1  0
 15 17  2  0
 16 17  1  0
M  END
>  <PUBCHEM_COMPOUND_CID>  (1) 
15756

>  <PUBCHEM_CONFORMER_RMSD>  (1) 
0.6

>  <PUBCHEM_CONFORMER_DIVERSEORDER>  (1) 
1
5
3
8
7
9
10
4
6
2

>  <PUBCHEM_MMFF94_PARTIAL_CHARGES>  (1) 
17
1 -0.56
10 0.14
12 -0.29
13 -0.29
15 -0.29
16 0.14
17 -0.29
2 -0.56
32 0.15
35 0.15
36 0.15
39 0.15
5 0.28
6 0.28
7 0.14
8 0.56
9 0.14

>  <PUBCHEM_EFFECTIVE_ROTOR_COUNT>  (1) 
3.4

>  <PUBCHEM_PHARMACOPHORE_FEATURES>  (1) 
5
1 1 acceptor
1 2 acceptor
6 1 2 3 5 6 8 rings
6 3 4 7 10 12 13 rings
6 9 11 14 15 16 17 rings

>  <PUBCHEM_HEAVY_ATOM_COUNT>  (1) 
17

>  <PUBCHEM_ATOM_DEF_STEREO_COUNT>  (1) 
0

>  <PUBCHEM_ATOM_UDEF_STEREO_COUNT>  (1) 
1

>  <PUBCHEM_BOND_DEF_STEREO_COUNT>  (1) 
0

>  <PUBCHEM_BOND_UDEF_STEREO_COUNT>  (1) 
0

>  <PUBCHEM_ISOTOPIC_ATOM_COUNT>  (1) 
0

>  <PUBCHEM_COMPONENT_COUNT>  (1) 
1

>  <PUBCHEM_CACTVS_TAUTO_COUNT>  (1) 
1

>  <PUBCHEM_CONFORMER_ID>  (1) 
00003D8C00000001

>  <PUBCHEM_MMFF94_ENERGY>  (1) 
27.0873

>  <PUBCHEM_FEATURE_SELFOVERLAP>  (1) 
25.411

>  <PUBCHEM_SHAPE_FINGERPRINT>  (1) 
10646746 165 11527956655131974890
11132069 177 12967130523505061467
11543360 7 17822017531411840004
11769659 78 18335703802047392978
11796584 16 18410291385231386991
12251169 10 12391511988101971825
12363563 72 18131917043973973169
12403814 3 9439392528667154561
12500047 106 18186794790603366053
12507557 5 11239998936415813667
12644460 14 16773506780940071000
12670546 177 17313109678270561238
12707595 3 18131348622163762008
12892183 10 13110960899187894414
13296908 3 18411417323586823505
13296909 8 14548739474156778409
13571099 22 18407757032250816025
13581323 91 14477243773062085997
13675066 3 10519987058491551708
13705890 14 18187367627619072892
13760787 19 18336836294470682460
14252887 29 17346600760019877038
14943859 89 8142086451013599253
15188451 53 15338819985697932597
15239191 94 18272932730267258983
15309172 13 16845576413206794557
15375358 24 17385724728993385768
15375462 189 18130787892850811958
16945 1 18272083941893148880
17349148 13 16415191313125171517
17834074 16 18335420187855332350
1813 80 16845307033343759932
18186145 218 12324244932072143592
18222031 100 16988838384565227237
193927 3 18201168650289691902
19422 9 18271534113043496888
19784866 34 12901550147712569308
19862831 5 15936407836237576925
200 152 18341892982737815462
20281475 54 18411983529019947345
20645477 70 18272365395041238023
20671657 53 18411141324646169828
20871999 31 17676206870841695927
21503847 285 11455893576790146522
21713013 43 18187364315819642319
221490 88 18262807383579641026
22485316 2 18410855473034175701
22646028 28 18130786746052417407
22854114 59 14261629525669893183
231179 274 7853575716492173708
23402655 69 17240765042983640044
23403322 49 18411982447047112095
23557571 272 17894619379342452253
23559900 14 18334850636727211064
25 1 12612752414870809053
27216 239 9727633908556694743
2838139 119 15214455376822075518
2871803 45 18187082858028211770
296302 2 16588027930645394070
3286 77 14692563312835998298
4047638 21 8646773304685241188
42 15 13758358864428466820
4280585 95 17469882182730509394
465052 167 17917433172161518175
4921388 177 16660655080708116075
58051976 378 18114465643068851772
76465 3 18130215039014263583
94968 8 18413389852005817082
9709674 26 18041563653960029587

>  <PUBCHEM_SHAPE_MULTIPOLES>  (1) 
338.11
8.72
1.7
1.19
2.23
0.4
0.04
3.21
-2.25
-0.37
0.31
0.07
-0.13
0.36

>  <PUBCHEM_SHAPE_SELFOVERLAP>  (1) 
705.32

>  <PUBCHEM_SHAPE_VOLUME>  (1) 
186.5

>  <PUBCHEM_COORDINATE_TYPE>  (1) 
2
5
10

$$$$
