15750
     RDKit          3D

 14 14  0  0  0  0  0  0  0  0999 V2000
    2.5063    1.8427   -0.0002 O   0  0  0  0  0  0  0  0  0  0  0  0
    1.9601   -2.1796    0.0001 O   0  0  0  0  0  0  0  0  0  0  0  0
    3.3160   -0.4532   -0.0005 O   0  0  0  0  0  0  0  0  0  0  0  0
   -3.6300    0.6140   -0.0005 O   0  0  0  0  0  0  0  0  0  0  0  0
   -2.8645   -1.4435   -0.0001 O   0  0  0  0  0  0  0  0  0  0  0  0
    2.1637   -0.9439    0.0001 N   0  0  0  0  0  0  0  0  0  0  0  0
   -2.6799   -0.2037    0.0001 N   0  0  0  0  0  0  0  0  0  0  0  0
   -0.2546   -0.5755    0.0005 C   0  0  0  0  0  0  0  0  0  0  0  0
    1.0431   -0.0639    0.0003 C   0  0  0  0  0  0  0  0  0  0  0  0
   -1.3466    0.2924    0.0005 C   0  0  0  0  0  0  0  0  0  0  0  0
    1.2487    1.3159    0.0000 C   0  0  0  0  0  0  0  0  0  0  0  0
   -1.1410    1.6720    0.0002 C   0  0  0  0  0  0  0  0  0  0  0  0
   -0.4779   -2.0575   -0.0003 C   0  0  0  0  0  0  0  0  0  0  0  0
    0.1566    2.1837   -0.0001 C   0  0  0  0  0  0  0  0  0  0  0  0
  1 11  1  0
  2  6  1  0
  3  6  2  0
  4  7  1  0
  5  7  2  0
  6  9  1  0
  7 10  1  0
  8  9  2  0
  8 10  1  0
  8 13  1  0
  9 11  1  0
 10 12  2  0
 11 14  2  0
 12 14  1  0
M  CHG  4   2  -1   4  -1   6   1   7   1
M  END
>  <PUBCHEM_COMPOUND_CID>  (1) 
15750

>  <PUBCHEM_CONFORMER_RMSD>  (1) 
0.6

>  <PUBCHEM_CONFORMER_DIVERSEORDER>  (1) 
1

>  <PUBCHEM_MMFF94_PARTIAL_CHARGES>  (1) 
17
1 -0.53
10 0.13
11 0.08
12 -0.15
13 0.14
14 -0.15
15 0.15
19 0.15
2 -0.52
20 0.45
3 -0.52
4 -0.52
5 -0.52
6 0.91
7 0.91
8 -0.14
9 0.13

>  <PUBCHEM_EFFECTIVE_ROTOR_COUNT>  (1) 
2

>  <PUBCHEM_PHARMACOPHORE_FEATURES>  (1) 
8
1 1 donor
1 2 acceptor
1 2 anion
1 3 acceptor
1 4 acceptor
1 4 anion
1 5 acceptor
6 8 9 10 11 12 14 rings

>  <PUBCHEM_HEAVY_ATOM_COUNT>  (1) 
14

>  <PUBCHEM_ATOM_DEF_STEREO_COUNT>  (1) 
0

>  <PUBCHEM_ATOM_UDEF_STEREO_COUNT>  (1) 
0

>  <PUBCHEM_BOND_DEF_STEREO_COUNT>  (1) 
0

>  <PUBCHEM_BOND_UDEF_STEREO_COUNT>  (1) 
0

>  <PUBCHEM_ISOTOPIC_ATOM_COUNT>  (1) 
0

>  <PUBCHEM_COMPONENT_COUNT>  (1) 
1

>  <PUBCHEM_CACTVS_TAUTO_COUNT>  (1) 
17

>  <PUBCHEM_CONFORMER_ID>  (1) 
00003D8600000001

>  <PUBCHEM_MMFF94_ENERGY>  (1) 
77.8042

>  <PUBCHEM_FEATURE_SELFOVERLAP>  (1) 
40.76

>  <PUBCHEM_SHAPE_FINGERPRINT>  (1) 
10967382 1 18410575067583449511
11206711 2 18264211309451468596
11471102 20 18410288129756686533
12423570 1 10919353372549898501
13380535 76 18192988442486800994
14325111 11 18338799017447632161
161256 15 18409727348535065164
16945 1 18338517434811707620
193761 8 17906171011596111458
20201158 50 18409165489344925547
20588541 1 18264489670555855128
20645477 70 18411976979901969159
21501502 16 18338515373317199807
2334 1 18266740362410279375
23463225 33 18409730633963149669
23552423 10 18334859441293837549
23559900 14 17334494905440179574
241688 4 18265333906560251880
2748010 2 18410011078332325717
5084963 1 18202280260428474673
528886 8 18411695465753263163
53812653 166 18055352693587243016
63268167 104 18340491157284539089
7364860 26 18343302595663489216
8809292 202 18260272949053298675

>  <PUBCHEM_SHAPE_MULTIPOLES>  (1) 
248.8
4.33
2.41
0.57
1.14
0.05
0
0.54
0
-0.6
0
0.01
-0.02
0

>  <PUBCHEM_SHAPE_SELFOVERLAP>  (1) 
534.018

>  <PUBCHEM_SHAPE_VOLUME>  (1) 
137.7

>  <PUBCHEM_COORDINATE_TYPE>  (1) 
2
5
10

$$$$
