15767
     RDKit          3D

 13 13  0  0  0  0  0  0  0  0999 V2000
   -1.3524    2.6877   -0.2251 Cl  0  0  0  0  0  0  0  0  0  0  0  0
   -1.3506   -2.6892   -0.2250 Cl  0  0  0  0  0  0  0  0  0  0  0  0
    1.8023   -2.7212    0.0694 Cl  0  0  0  0  0  0  0  0  0  0  0  0
    1.8006    2.7222    0.0708 Cl  0  0  0  0  0  0  0  0  0  0  0  0
    3.3728    0.0015    0.2166 Cl  0  0  0  0  0  0  0  0  0  0  0  0
   -2.5012   -0.0012   -0.3316 O   0  0  0  0  0  0  0  0  0  0  0  0
   -1.1406   -0.0006   -0.2037 C   0  0  0  0  0  0  0  0  0  0  0  0
   -0.4466    1.2077   -0.1403 C   0  0  0  0  0  0  0  0  0  0  0  0
   -0.4458   -1.2083   -0.1380 C   0  0  0  0  0  0  0  0  0  0  0  0
    0.9431   -1.2078   -0.0090 C   0  0  0  0  0  0  0  0  0  0  0  0
    0.9424    1.2081   -0.0114 C   0  0  0  0  0  0  0  0  0  0  0  0
    1.6372    0.0004    0.0543 C   0  0  0  0  0  0  0  0  0  0  0  0
   -3.2612    0.0007    0.8730 C   0  0  0  0  0  0  0  0  0  0  0  0
  1  8  1  0
  2  9  1  0
  3 10  1  0
  4 11  1  0
  5 12  1  0
  6  7  1  0
  6 13  1  0
  7  8  2  0
  7  9  1  0
  8 11  1  0
  9 10  2  0
 10 12  1  0
 11 12  2  0
M  END
>  <PUBCHEM_COMPOUND_CID>  (1) 
15767

>  <PUBCHEM_CONFORMER_RMSD>  (1) 
0.4

>  <PUBCHEM_CONFORMER_DIVERSEORDER>  (1) 
1

>  <PUBCHEM_MMFF94_PARTIAL_CHARGES>  (1) 
13
1 -0.18
10 0.18
11 0.18
12 0.18
13 0.28
2 -0.18
3 -0.18
4 -0.18
5 -0.18
6 -0.36
7 0.08
8 0.18
9 0.18

>  <PUBCHEM_EFFECTIVE_ROTOR_COUNT>  (1) 
1

>  <PUBCHEM_PHARMACOPHORE_FEATURES>  (1) 
2
1 6 acceptor
6 7 8 9 10 11 12 rings

>  <PUBCHEM_HEAVY_ATOM_COUNT>  (1) 
13

>  <PUBCHEM_ATOM_DEF_STEREO_COUNT>  (1) 
0

>  <PUBCHEM_ATOM_UDEF_STEREO_COUNT>  (1) 
0

>  <PUBCHEM_BOND_DEF_STEREO_COUNT>  (1) 
0

>  <PUBCHEM_BOND_UDEF_STEREO_COUNT>  (1) 
0

>  <PUBCHEM_ISOTOPIC_ATOM_COUNT>  (1) 
0

>  <PUBCHEM_COMPONENT_COUNT>  (1) 
1

>  <PUBCHEM_CACTVS_TAUTO_COUNT>  (1) 
1

>  <PUBCHEM_CONFORMER_ID>  (1) 
00003D9700000001

>  <PUBCHEM_MMFF94_ENERGY>  (1) 
44.0632

>  <PUBCHEM_FEATURE_SELFOVERLAP>  (1) 
10.148

>  <PUBCHEM_SHAPE_FINGERPRINT>  (1) 
10967382 1 18410572889961170956
11471102 22 18263668237060153083
12423570 1 8177037146690209429
12524768 44 18336545009835926135
13140716 1 18266739275815059480
13380535 21 18122073266757919884
14790565 3 18266481891353175116
16945 1 18410851062213519588
193761 8 18410851062181871092
20588541 1 18411140233808794702
2334 1 17978226393873386684
23526114 1 18122060076907825852
23552423 10 18118679061588602990
23559900 14 17839180715608725038
241688 4 17906452130238041552
2748010 2 18122902019352070574
5255222 1 18411412921234763108
66348 1 17762615088470689372

>  <PUBCHEM_SHAPE_MULTIPOLES>  (1) 
271.01
4.02
3.49
0.71
0.18
0
0.05
0
0.73
-0.49
-0.23
0.18
0
0

>  <PUBCHEM_SHAPE_SELFOVERLAP>  (1) 
521.73

>  <PUBCHEM_SHAPE_VOLUME>  (1) 
170.5

>  <PUBCHEM_COORDINATE_TYPE>  (1) 
2
5
10

$$$$
