15766
     RDKit          3D

 13 13  0  0  0  0  0  0  0  0999 V2000
   -1.2525    2.7294   -0.2993 Cl  0  0  0  0  0  0  0  0  0  0  0  0
   -1.2514   -2.7300   -0.2973 Cl  0  0  0  0  0  0  0  0  0  0  0  0
    1.8519   -2.7164    0.1007 Cl  0  0  0  0  0  0  0  0  0  0  0  0
    1.8498    2.7174    0.1005 Cl  0  0  0  0  0  0  0  0  0  0  0  0
    3.4038    0.0011    0.3001 Cl  0  0  0  0  0  0  0  0  0  0  0  0
   -2.8893   -0.0003   -0.5102 S   0  0  0  0  0  0  0  0  0  0  0  0
   -1.0931   -0.0004   -0.2778 C   0  0  0  0  0  0  0  0  0  0  0  0
   -0.4019    1.2077   -0.1879 C   0  0  0  0  0  0  0  0  0  0  0  0
   -0.4009   -1.2083   -0.1903 C   0  0  0  0  0  0  0  0  0  0  0  0
    0.9827   -1.2078   -0.0130 C   0  0  0  0  0  0  0  0  0  0  0  0
    0.9817    1.2080   -0.0108 C   0  0  0  0  0  0  0  0  0  0  0  0
    1.6740    0.0003    0.0767 C   0  0  0  0  0  0  0  0  0  0  0  0
   -3.4548   -0.0007    1.2086 C   0  0  0  0  0  0  0  0  0  0  0  0
  1  8  1  0
  2  9  1  0
  3 10  1  0
  4 11  1  0
  5 12  1  0
  6  7  1  0
  6 13  1  0
  7  8  2  0
  7  9  1  0
  8 11  1  0
  9 10  2  0
 10 12  1  0
 11 12  2  0
M  END
>  <PUBCHEM_COMPOUND_CID>  (1) 
15766

>  <PUBCHEM_CONFORMER_RMSD>  (1) 
0.4

>  <PUBCHEM_CONFORMER_DIVERSEORDER>  (1) 
1

>  <PUBCHEM_MMFF94_PARTIAL_CHARGES>  (1) 
13
1 -0.18
10 0.18
11 0.18
12 0.18
13 0.23
2 -0.18
3 -0.18
4 -0.18
5 -0.18
6 -0.33
7 0.1
8 0.18
9 0.18

>  <PUBCHEM_EFFECTIVE_ROTOR_COUNT>  (1) 
1

>  <PUBCHEM_PHARMACOPHORE_FEATURES>  (1) 
2
1 13 hydrophobe
6 7 8 9 10 11 12 rings

>  <PUBCHEM_HEAVY_ATOM_COUNT>  (1) 
13

>  <PUBCHEM_ATOM_DEF_STEREO_COUNT>  (1) 
0

>  <PUBCHEM_ATOM_UDEF_STEREO_COUNT>  (1) 
0

>  <PUBCHEM_BOND_DEF_STEREO_COUNT>  (1) 
0

>  <PUBCHEM_BOND_UDEF_STEREO_COUNT>  (1) 
0

>  <PUBCHEM_ISOTOPIC_ATOM_COUNT>  (1) 
0

>  <PUBCHEM_COMPONENT_COUNT>  (1) 
1

>  <PUBCHEM_CACTVS_TAUTO_COUNT>  (1) 
1

>  <PUBCHEM_CONFORMER_ID>  (1) 
00003D9600000001

>  <PUBCHEM_MMFF94_ENERGY>  (1) 
38.1051

>  <PUBCHEM_FEATURE_SELFOVERLAP>  (1) 
10.148

>  <PUBCHEM_SHAPE_FINGERPRINT>  (1) 
10967382 1 18410569604332282108
11132069 177 18339631334986074832
11471102 22 18263382359747219195
12382932 28 18411697724848207563
12423570 1 11464541299708106986
13140716 1 18266456697037028488
13380535 21 18121789592705193220
14790565 3 18338818765671154492
16945 1 18410568487719906412
193761 8 17834671595924069988
20588541 1 18411136939574153486
21501502 16 18123185976814648910
2334 1 17977942719889244764
23526114 1 18122056778383479092
23552423 10 18118394288108683534
23559900 14 17406548109900250566
241688 4 17906729207115493520
2748010 2 18050842226317260878
5255222 1 18411410722222070076

>  <PUBCHEM_SHAPE_MULTIPOLES>  (1) 
280.73
4.42
3.44
0.8
0.78
0
-0.12
0
-0.96
-0.83
0.27
0.45
0
0

>  <PUBCHEM_SHAPE_SELFOVERLAP>  (1) 
523.988

>  <PUBCHEM_SHAPE_VOLUME>  (1) 
175.5

>  <PUBCHEM_COORDINATE_TYPE>  (1) 
2
5
10

$$$$
