15760
     RDKit          3D

 13 14  0  0  0  0  0  0  0  0999 V2000
    0.0793   -2.3580   -0.1102 N   0  0  0  0  0  0  0  0  0  0  0  0
   -4.2254    1.6098   -0.2890 N   0  0  0  0  0  0  0  0  0  0  0  0
   -1.1973   -0.5982    0.3379 C   0  0  0  0  0  0  0  0  0  0  0  0
    0.1426   -0.1467    0.1778 C   0  0  0  0  0  0  0  0  0  0  0  0
    0.9231   -1.2702   -0.1024 C   0  0  0  0  0  0  0  0  0  0  0  0
   -2.3760    0.2373    0.6442 C   0  0  0  0  0  0  0  0  0  0  0  0
   -1.2042   -1.9618    0.1546 C   0  0  0  0  0  0  0  0  0  0  0  0
    0.7682    1.1141    0.2446 C   0  0  0  0  0  0  0  0  0  0  0  0
   -3.0827    0.7646   -0.6180 C   0  0  0  0  0  0  0  0  0  0  0  0
    2.1482    1.2038    0.0293 C   0  0  0  0  0  0  0  0  0  0  0  0
    2.3035   -1.1959   -0.3199 C   0  0  0  0  0  0  0  0  0  0  0  0
    2.9022    0.0654   -0.2485 C   0  0  0  0  0  0  0  0  0  0  0  0
    2.8185    2.5359    0.0995 C   0  0  0  0  0  0  0  0  0  0  0  0
  1  5  1  0
  1  7  1  0
  2  9  1  0
  3  4  1  0
  3  6  1  0
  3  7  2  0
  4  5  2  0
  4  8  1  0
  5 11  1  0
  6  9  1  0
  8 10  2  0
 10 12  1  0
 10 13  1  0
 11 12  2  0
M  END
>  <PUBCHEM_COMPOUND_CID>  (1) 
15760

>  <PUBCHEM_CONFORMER_RMSD>  (1) 
0.6

>  <PUBCHEM_CONFORMER_DIVERSEORDER>  (1) 
1
3
4
5
2

>  <PUBCHEM_MMFF94_PARTIAL_CHARGES>  (1) 
19
1 0.03
10 -0.14
11 -0.15
12 -0.15
13 0.14
16 0.15
17 0.27
18 0.15
2 -0.99
21 0.15
22 0.15
26 0.36
27 0.36
3 -0.18
5 -0.15
6 0.18
7 -0.3
8 -0.15
9 0.27

>  <PUBCHEM_EFFECTIVE_ROTOR_COUNT>  (1) 
2

>  <PUBCHEM_PHARMACOPHORE_FEATURES>  (1) 
6
1 1 cation
1 1 donor
1 2 cation
1 2 donor
5 1 3 4 5 7 rings
6 4 5 8 10 11 12 rings

>  <PUBCHEM_HEAVY_ATOM_COUNT>  (1) 
13

>  <PUBCHEM_ATOM_DEF_STEREO_COUNT>  (1) 
0

>  <PUBCHEM_ATOM_UDEF_STEREO_COUNT>  (1) 
0

>  <PUBCHEM_BOND_DEF_STEREO_COUNT>  (1) 
0

>  <PUBCHEM_BOND_UDEF_STEREO_COUNT>  (1) 
0

>  <PUBCHEM_ISOTOPIC_ATOM_COUNT>  (1) 
0

>  <PUBCHEM_COMPONENT_COUNT>  (1) 
1

>  <PUBCHEM_CACTVS_TAUTO_COUNT>  (1) 
1

>  <PUBCHEM_CONFORMER_ID>  (1) 
00003D9000000001

>  <PUBCHEM_MMFF94_ENERGY>  (1) 
15.1287

>  <PUBCHEM_FEATURE_SELFOVERLAP>  (1) 
30.538

>  <PUBCHEM_SHAPE_FINGERPRINT>  (1) 
1 1 18337389344624752407
10149128 76 18411135874337829045
10608611 8 18337955696107836993
11206711 2 17838901782217873078
11471102 20 18266739091242378189
12654215 9 18263362482206082228
12730499 353 18189620450173148745
13380535 76 18340764931237129738
13380536 305 18338798914067541838
13897977 150 18410293605628927213
13922767 16 18410288069410749584
14325111 11 18410575119270828121
14614273 12 17981049931017071330
14648413 74 18410017675597375194
14897335 6 18340763844520616176
14911166 2 18340778035424995302
15279308 100 18409455807859667996
16945 1 18341625767327029066
18186145 218 18272662229000489865
20606313 2 18266739086773214127
21501502 16 18338792446042200278
21524375 3 18334851723501383179
21639500 275 18338505340553145437
2334 1 18196377133070824330
23402655 69 18270675360387542629
23559900 14 18129117757255431188
25 1 18337110051612506991
2748010 2 18268724963803039374
3060560 45 18270113488122668799
528886 8 18411979143911170058
63268167 104 18342463607792520211

>  <PUBCHEM_SHAPE_MULTIPOLES>  (1) 
257.57
5.34
2.45
0.71
3.18
0.03
0
-3.82
-0.67
-0.49
-0.07
0.16
-0.04
0.46

>  <PUBCHEM_SHAPE_SELFOVERLAP>  (1) 
551.201

>  <PUBCHEM_SHAPE_VOLUME>  (1) 
145.2

>  <PUBCHEM_COORDINATE_TYPE>  (1) 
2
5
10

$$$$
