15771
     RDKit          3D

  6  5  0  0  0  0  0  0  0  0999 V2000
    0.3960    0.0000   -0.0086 Si  0  0  0  0  0  4  0  0  0  0  0  0
   -1.0762    0.0037   -0.8138 O   0  0  0  0  0  0  0  0  0  0  0  0
    1.8065    0.0059   -1.2579 C   0  0  0  0  0  0  0  0  0  0  0  0
    0.5795   -1.5320    1.0674 C   0  0  0  0  0  0  0  0  0  0  0  0
    0.5789    1.5223    1.0811 C   0  0  0  0  0  0  0  0  0  0  0  0
   -2.2848    0.0001   -0.0682 C   0  0  0  0  0  0  0  0  0  0  0  0
  1  2  1  0
  1  3  1  0
  1  4  1  0
  1  5  1  0
  2  6  1  0
M  END
>  <PUBCHEM_COMPOUND_CID>  (1) 
15771

>  <PUBCHEM_CONFORMER_RMSD>  (1) 
0.4

>  <PUBCHEM_CONFORMER_DIVERSEORDER>  (1) 
1

>  <PUBCHEM_MMFF94_PARTIAL_CHARGES>  (1) 
6
1 0.54
2 -0.58
3 -0.08
4 -0.08
5 -0.08
6 0.28

>  <PUBCHEM_EFFECTIVE_ROTOR_COUNT>  (1) 
1

>  <PUBCHEM_PHARMACOPHORE_FEATURES>  (1) 
0

>  <PUBCHEM_HEAVY_ATOM_COUNT>  (1) 
6

>  <PUBCHEM_ATOM_DEF_STEREO_COUNT>  (1) 
0

>  <PUBCHEM_ATOM_UDEF_STEREO_COUNT>  (1) 
0

>  <PUBCHEM_BOND_DEF_STEREO_COUNT>  (1) 
0

>  <PUBCHEM_BOND_UDEF_STEREO_COUNT>  (1) 
0

>  <PUBCHEM_ISOTOPIC_ATOM_COUNT>  (1) 
0

>  <PUBCHEM_COMPONENT_COUNT>  (1) 
1

>  <PUBCHEM_CACTVS_TAUTO_COUNT>  (1) 
1

>  <PUBCHEM_CONFORMER_ID>  (1) 
00003D9B00000001

>  <PUBCHEM_MMFF94_ENERGY>  (1) 
3.9637

>  <PUBCHEM_FEATURE_SELFOVERLAP>  (1) 
0

>  <PUBCHEM_SHAPE_FINGERPRINT>  (1) 
137420 1 12529709316781697786
16714656 1 17129323968761976837
20096714 4 17701240663046587601
21040471 1 17823134686585880559
24536 1 17059471054788912677
29004967 10 17632590361006241406
5943 1 10933510740272073706

>  <PUBCHEM_SHAPE_MULTIPOLES>  (1) 
135.82
2.24
1.4
1.35
1.2
0
0.04
0
-0.81
-0.35
0.76
-0.47
0
0

>  <PUBCHEM_SHAPE_SELFOVERLAP>  (1) 
219.547

>  <PUBCHEM_SHAPE_VOLUME>  (1) 
95.7

>  <PUBCHEM_COORDINATE_TYPE>  (1) 
2
5
10

$$$$
