15774
     RDKit          3D

 33 36  0  0  0  0  0  0  0  0999 V2000
    2.5255   -2.6546    1.5127 S   0  0  0  0  0  0  0  0  0  0  0  0
    7.5750    1.6465    0.4807 F   0  0  0  0  0  0  0  0  0  0  0  0
    6.7000    1.6808   -1.5036 F   0  0  0  0  0  0  0  0  0  0  0  0
    5.9007    2.9677    0.0565 F   0  0  0  0  0  0  0  0  0  0  0  0
   -7.5066    0.3395    0.0418 O   0  0  0  0  0  0  0  0  0  0  0  0
  -10.2326    0.8102   -0.3779 O   0  0  0  0  0  0  0  0  0  0  0  0
   -1.1091    1.1037    0.2829 N   0  0  0  0  0  0  0  0  0  0  0  0
   -3.9735    1.3864    0.0118 N   0  0  0  0  0  0  0  0  0  0  0  0
    1.9311   -0.4756   -0.6236 N   0  0  0  0  0  0  0  0  0  0  0  0
   -1.6965    2.1897   -0.5112 C   0  0  0  0  0  0  0  0  0  0  0  0
   -2.0198    0.7088    1.3645 C   0  0  0  0  0  0  0  0  0  0  0  0
   -3.0630    1.7793   -1.0706 C   0  0  0  0  0  0  0  0  0  0  0  0
   -3.3869    0.2997    0.8054 C   0  0  0  0  0  0  0  0  0  0  0  0
    0.1927    1.4974    0.8181 C   0  0  0  0  0  0  0  0  0  0  0  0
    1.1855    1.8515   -0.2933 C   0  0  0  0  0  0  0  0  0  0  0  0
   -5.2762    0.9942   -0.5224 C   0  0  0  0  0  0  0  0  0  0  0  0
    1.4387    0.7308   -1.3010 C   0  0  0  0  0  0  0  0  0  0  0  0
   -6.2521    0.6990    0.6055 C   0  0  0  0  0  0  0  0  0  0  0  0
    3.2086   -0.4053   -0.0124 C   0  0  0  0  0  0  0  0  0  0  0  0
    1.1210   -1.6374   -0.6883 C   0  0  0  0  0  0  0  0  0  0  0  0
    3.6042   -1.3511    0.9542 C   0  0  0  0  0  0  0  0  0  0  0  0
    1.3097   -2.7052    0.2112 C   0  0  0  0  0  0  0  0  0  0  0  0
    4.1526    0.5842   -0.3643 C   0  0  0  0  0  0  0  0  0  0  0  0
    0.1187   -1.7964   -1.6702 C   0  0  0  0  0  0  0  0  0  0  0  0
    5.4163    0.6462    0.2292 C   0  0  0  0  0  0  0  0  0  0  0  0
    4.8751   -1.2811    1.5518 C   0  0  0  0  0  0  0  0  0  0  0  0
    0.5082   -3.8584    0.1379 C   0  0  0  0  0  0  0  0  0  0  0  0
   -8.4668    0.0500    1.0486 C   0  0  0  0  0  0  0  0  0  0  0  0
    5.7767   -0.2854    1.1908 C   0  0  0  0  0  0  0  0  0  0  0  0
   -0.6719   -2.9467   -1.7417 C   0  0  0  0  0  0  0  0  0  0  0  0
   -0.4791   -3.9773   -0.8344 C   0  0  0  0  0  0  0  0  0  0  0  0
    6.3793    1.7110   -0.1764 C   0  0  0  0  0  0  0  0  0  0  0  0
   -9.7857   -0.3021    0.3878 C   0  0  0  0  0  0  0  0  0  0  0  0
  1 21  1  0
  1 22  1  0
  2 32  1  0
  3 32  1  0
  4 32  1  0
  5 18  1  0
  5 28  1  0
  6 33  1  0
  7 10  1  0
  7 11  1  0
  7 14  1  0
  8 12  1  0
  8 13  1  0
  8 16  1  0
  9 17  1  0
  9 19  1  0
  9 20  1  0
 10 12  1  0
 11 13  1  0
 14 15  1  0
 15 17  1  0
 16 18  1  0
 19 21  2  0
 19 23  1  0
 20 22  2  0
 20 24  1  0
 21 26  1  0
 22 27  1  0
 23 25  2  0
 24 30  2  0
 25 29  1  0
 25 32  1  0
 26 29  2  0
 27 31  2  0
 28 33  1  0
 30 31  1  0
M  END
>  <PUBCHEM_COMPOUND_CID>  (1) 
15774

>  <PUBCHEM_CONFORMER_RMSD>  (1) 
1.2

>  <PUBCHEM_CONFORMER_DIVERSEORDER>  (1) 
2
36
102
24
116
63
106
57
78
121
86
117
97
73
58
61
109
79
96
49
4
43
29
90
28
80
18
85
34
59
32
98
35
91
62
111
113
46
93
119
40
108
38
10
77
103
88
82
52
94
115
13
16
19
76
107
27
1
69
99
25
30
67
23
74
118
110
72
22
42
47
9
17
50
51
120
37
54
71
53
114
70
81
45
112
100
89
3
101
21
60
39
44
12
66
31
84
122
14
41
87
83
104
64
26
92
33
65
75
15
55
5
20
56
6
48
95
11
7
105
8
68

>  <PUBCHEM_MMFF94_PARTIAL_CHARGES>  (1) 
40
1 -0.2
10 0.27
11 0.27
12 0.27
13 0.27
14 0.27
16 0.27
17 0.37
18 0.28
19 0.1
2 -0.34
20 0.1
21 0.1
22 0.1
23 -0.15
24 -0.15
25 -0.14
26 -0.15
27 -0.15
28 0.28
29 -0.15
3 -0.34
30 -0.15
31 -0.15
32 1.16
33 0.28
4 -0.34
5 -0.56
52 0.15
53 0.15
54 0.15
55 0.15
56 0.15
59 0.15
6 -0.68
60 0.15
63 0.4
7 -0.81
8 -0.81
9 -0.57

>  <PUBCHEM_EFFECTIVE_ROTOR_COUNT>  (1) 
11.6

>  <PUBCHEM_PHARMACOPHORE_FEATURES>  (1) 
10
1 5 acceptor
1 6 acceptor
1 6 donor
1 7 cation
1 8 cation
1 9 cation
6 1 9 19 20 21 22 rings
6 19 21 23 25 26 29 rings
6 20 22 24 27 30 31 rings
6 7 8 10 11 12 13 rings

>  <PUBCHEM_HEAVY_ATOM_COUNT>  (1) 
33

>  <PUBCHEM_ATOM_DEF_STEREO_COUNT>  (1) 
0

>  <PUBCHEM_ATOM_UDEF_STEREO_COUNT>  (1) 
0

>  <PUBCHEM_BOND_DEF_STEREO_COUNT>  (1) 
0

>  <PUBCHEM_BOND_UDEF_STEREO_COUNT>  (1) 
0

>  <PUBCHEM_ISOTOPIC_ATOM_COUNT>  (1) 
0

>  <PUBCHEM_COMPONENT_COUNT>  (1) 
1

>  <PUBCHEM_CACTVS_TAUTO_COUNT>  (1) 
1

>  <PUBCHEM_CONFORMER_ID>  (1) 
00003D9E00000002

>  <PUBCHEM_MMFF94_ENERGY>  (1) 
87.6384

>  <PUBCHEM_FEATURE_SELFOVERLAP>  (1) 
50.783

>  <PUBCHEM_SHAPE_FINGERPRINT>  (1) 
10258939 38 17822850871243026969
1100329 8 18340483491195508224
11719270 70 18411419488625055915
12202916 173 18040156219479600075
12788726 201 18197202858141338678
13111901 25 18341609348353202951
14040222 383 18059572538480791043
14294032 229 17845372310049922463
1454969 45 18412261740275089615
14790565 3 18408597081221092886
14840074 17 18412260623146015677
15274700 208 17488734722320590824
15297060 5 17774992484228594466
15840311 113 18333453140621587470
16992610 120 18338531824160633500
21197605 99 18334859389960439307
21344244 181 17632307735258410326
21521721 280 18343303686332215617
22149856 69 18129666284101666905
22224240 67 18343303677968867581
22956985 138 17832704574113261554
23559900 14 17761485890392921308
3178227 256 18412545427255351465
5171179 24 17411894364867170264
5486654 2 18272373083470878752
59521120 56 17631443626440393543
9862260 156 11025801998630603919

>  <PUBCHEM_SHAPE_MULTIPOLES>  (1) 
634.47
22.15
3.73
1.41
51.27
3.49
-0.09
-12.23
4.93
-3.5
-0.85
-0.58
0.57
-1.05

>  <PUBCHEM_SHAPE_SELFOVERLAP>  (1) 
1325.634

>  <PUBCHEM_SHAPE_VOLUME>  (1) 
363

>  <PUBCHEM_COORDINATE_TYPE>  (1) 
2
5
10

$$$$
