15787
     RDKit          3D

 18 19  0  0  0  0  0  0  0  0999 V2000
    2.6070   -2.3928    1.4596 Cl  0  0  0  0  0  0  0  0  0  0  0  0
    5.2594    2.1190    0.1844 Cl  0  0  0  0  0  0  0  0  0  0  0  0
    0.6488   -1.4330   -0.6082 O   0  0  0  0  0  0  0  0  0  0  0  0
   -5.3220    0.4986   -0.5076 O   0  0  0  0  0  0  0  0  0  0  0  0
   -4.5988    1.3854    1.3659 O   0  0  0  0  0  0  0  0  0  0  0  0
   -4.4085    0.7082    0.3268 N   0  0  0  0  0  0  0  0  0  0  0  0
   -0.5868   -0.9098   -0.3796 C   0  0  0  0  0  0  0  0  0  0  0  0
    1.7438   -0.6101   -0.4051 C   0  0  0  0  0  0  0  0  0  0  0  0
   -1.6174   -1.1309   -1.2933 C   0  0  0  0  0  0  0  0  0  0  0  0
   -0.8229   -0.1529    0.7682 C   0  0  0  0  0  0  0  0  0  0  0  0
   -3.1199    0.1615    0.0881 C   0  0  0  0  0  0  0  0  0  0  0  0
   -2.8839   -0.5952   -1.0595 C   0  0  0  0  0  0  0  0  0  0  0  0
   -2.0895    0.3827    1.0020 C   0  0  0  0  0  0  0  0  0  0  0  0
    2.7133   -0.9483    0.5228 C   0  0  0  0  0  0  0  0  0  0  0  0
    1.8332    0.5498   -1.1561 C   0  0  0  0  0  0  0  0  0  0  0  0
    3.8061   -0.1009    0.7061 C   0  0  0  0  0  0  0  0  0  0  0  0
    2.9258    1.3971   -0.9728 C   0  0  0  0  0  0  0  0  0  0  0  0
    3.9123    1.0718   -0.0417 C   0  0  0  0  0  0  0  0  0  0  0  0
  1 14  1  0
  2 18  1  0
  3  7  1  0
  3  8  1  0
  4  6  1  0
  5  6  2  0
  6 11  1  0
  7  9  2  0
  7 10  1  0
  8 14  2  0
  8 15  1  0
  9 12  1  0
 10 13  2  0
 11 12  2  0
 11 13  1  0
 14 16  1  0
 15 17  2  0
 16 18  2  0
 17 18  1  0
M  CHG  2   4  -1   6   1
M  END
>  <PUBCHEM_COMPOUND_CID>  (1) 
15787

>  <PUBCHEM_CONFORMER_RMSD>  (1) 
0.6

>  <PUBCHEM_CONFORMER_DIVERSEORDER>  (1) 
1
2
5
6
3
4
7

>  <PUBCHEM_MMFF94_PARTIAL_CHARGES>  (1) 
25
1 -0.18
10 -0.15
11 0.13
12 -0.15
13 -0.15
14 0.18
15 -0.15
16 -0.15
17 -0.15
18 0.18
19 0.15
2 -0.18
20 0.15
21 0.15
22 0.15
23 0.15
24 0.15
25 0.15
3 -0.17
4 -0.52
5 -0.52
6 0.91
7 0.08
8 0.08
9 -0.15

>  <PUBCHEM_EFFECTIVE_ROTOR_COUNT>  (1) 
3

>  <PUBCHEM_PHARMACOPHORE_FEATURES>  (1) 
6
1 3 acceptor
1 4 acceptor
1 4 anion
1 5 acceptor
6 7 9 10 11 12 13 rings
6 8 14 15 16 17 18 rings

>  <PUBCHEM_HEAVY_ATOM_COUNT>  (1) 
18

>  <PUBCHEM_ATOM_DEF_STEREO_COUNT>  (1) 
0

>  <PUBCHEM_ATOM_UDEF_STEREO_COUNT>  (1) 
0

>  <PUBCHEM_BOND_DEF_STEREO_COUNT>  (1) 
0

>  <PUBCHEM_BOND_UDEF_STEREO_COUNT>  (1) 
0

>  <PUBCHEM_ISOTOPIC_ATOM_COUNT>  (1) 
0

>  <PUBCHEM_COMPONENT_COUNT>  (1) 
1

>  <PUBCHEM_CACTVS_TAUTO_COUNT>  (1) 
1

>  <PUBCHEM_CONFORMER_ID>  (1) 
00003DAB00000001

>  <PUBCHEM_MMFF94_ENERGY>  (1) 
58.9573

>  <PUBCHEM_FEATURE_SELFOVERLAP>  (1) 
30.528

>  <PUBCHEM_SHAPE_FINGERPRINT>  (1) 
10498660 4 17203331121517443808
11046707 91 11314296265761821118
11089746 13 18273208725366944228
11543360 7 12031205300908930491
11640471 11 18341336677373068844
12236239 1 18342171176375511758
12403814 3 18408600345338481965
12633257 1 16298668399191877656
12670546 56 18114740422217882657
12892183 10 17967538934904165201
13533116 47 17750234712502483979
13583140 156 18261396697650602259
13675066 3 16805325466236903967
1420 369 11241961590604702048
14251764 38 18120367653772824813
14252887 29 16950279577321252938
14739800 52 17774139315398533448
15188451 53 15285929134301013273
15342168 16 18115031917094858428
15527383 91 18114458964711354050
15775835 57 18342176695709011452
1813 80 17978794511264250774
18186145 218 18261109651553182542
19049666 15 16444730667667816838
20157964 124 18187640280896416687
20715895 44 17836643020848594793
20871999 31 16558463192914835303
21503847 285 18410015408113138074
21618674 25 17968094244047424898
23048698 100 18410573963850915530
23402539 116 17489864973177093828
23402655 69 17775570857593581436
23503958 8 12613015194113551276
23557571 272 15769197475198077823
23559900 14 15357991013941205618
2838139 119 17200783687149035264
3060560 45 13183016311656813908
3472631 163 17988927807271305781
4028521 119 16988849375507778809
42 15 13406791133754098885
4340502 62 18040161716821526059
465052 167 10665240228597419281
474 4 18261674878203078984
4990 188 14692568801851623423
5104073 3 18260830418623091666
633830 44 18271527511415350471
76465 3 11530485562188524657
8272917 22 18187644674463694730

>  <PUBCHEM_SHAPE_MULTIPOLES>  (1) 
351.58
10.27
1.88
1.29
4.39
0.5
0.01
-6.06
2.05
-2.3
0.45
0.53
0.12
-1.27

>  <PUBCHEM_SHAPE_SELFOVERLAP>  (1) 
743.54

>  <PUBCHEM_SHAPE_VOLUME>  (1) 
199.6

>  <PUBCHEM_COORDINATE_TYPE>  (1) 
2
5
10

$$$$
