15795
     RDKit          3D

 20 21  0  0  1  0  0  0  0  0999 V2000
    0.8330    2.0899   -0.1615 O   0  0  0  0  0  0  0  0  0  0  0  0
   -0.5022    1.7068    1.6844 O   0  0  0  0  0  0  0  0  0  0  0  0
   -3.2902   -0.6767   -0.1680 N   0  0  0  0  0  0  0  0  0  0  0  0
   -0.1443   -0.0367    0.0460 C   0  0  0  0  0  0  0  0  0  0  0  0
   -1.0878   -0.7954    1.0019 C   0  0  0  0  0  0  0  0  0  0  0  0
    1.1866   -0.8039   -0.1085 C   0  0  0  0  0  0  0  0  0  0  0  0
   -0.6678    0.3147   -1.3449 C   0  0  0  0  0  0  0  0  0  0  0  0
   -2.3938   -1.0648    0.8114 C   0  0  0  0  0  0  0  0  0  0  0  0
    0.0225    1.3426    0.6406 C   0  0  0  0  0  0  0  0  0  0  0  0
   -3.1339    0.5786   -0.8936 C   0  0  0  0  0  0  0  0  0  0  0  0
   -1.9206    0.5560   -1.7544 C   0  0  0  0  0  0  0  0  0  0  0  0
   -0.4632   -1.3105    2.2883 C   0  0  0  0  0  0  0  0  0  0  0  0
    1.2127   -2.0053   -0.8091 C   0  0  0  0  0  0  0  0  0  0  0  0
    2.3492   -0.2880    0.4543 C   0  0  0  0  0  0  0  0  0  0  0  0
   -4.6154   -1.2888   -0.2468 C   0  0  0  0  0  0  0  0  0  0  0  0
    2.4151   -2.6985   -0.9485 C   0  0  0  0  0  0  0  0  0  0  0  0
    3.5516   -0.9813    0.3148 C   0  0  0  0  0  0  0  0  0  0  0  0
    3.5846   -2.1865   -0.3866 C   0  0  0  0  0  0  0  0  0  0  0  0
    1.0768    3.4273    0.2857 C   0  0  0  0  0  0  0  0  0  0  0  0
    1.9871    4.1205   -0.7054 C   0  0  0  0  0  0  0  0  0  0  0  0
  1  9  1  0
  1 19  1  0
  2  9  2  0
  3  8  1  0
  3 10  1  0
  3 15  1  0
  4  5  1  0
  4  6  1  0
  4  7  1  0
  4  9  1  0
  5  8  2  0
  5 12  1  0
  6 13  2  0
  6 14  1  0
  7 11  2  0
 10 11  1  0
 13 16  1  0
 14 17  2  0
 16 18  2  0
 17 18  1  0
 19 20  1  0
M  END
>  <PUBCHEM_COMPOUND_CID>  (1) 
15795

>  <PUBCHEM_CONFORMER_RMSD>  (1) 
0.6

>  <PUBCHEM_CONFORMER_DIVERSEORDER>  (1) 
1
20
4
12
10
6
22
13
24
11
21
9
8
14
5
2
7
23
17
15
16
3
19
18

>  <PUBCHEM_MMFF94_PARTIAL_CHARGES>  (1) 
27
1 -0.43
10 0.51
11 -0.29
12 0.14
13 -0.15
14 -0.15
15 0.37
16 -0.15
17 -0.15
18 -0.15
19 0.28
2 -0.57
21 0.15
22 0.15
25 0.15
29 0.15
3 -0.84
30 0.15
34 0.15
35 0.15
36 0.15
4 0.48
5 -0.28
6 -0.14
7 -0.29
8 -0.05
9 0.66

>  <PUBCHEM_EFFECTIVE_ROTOR_COUNT>  (1) 
4.6

>  <PUBCHEM_PHARMACOPHORE_FEATURES>  (1) 
4
1 2 acceptor
1 3 cation
6 6 13 14 16 17 18 rings
7 3 4 5 7 8 10 11 rings

>  <PUBCHEM_HEAVY_ATOM_COUNT>  (1) 
20

>  <PUBCHEM_ATOM_DEF_STEREO_COUNT>  (1) 
0

>  <PUBCHEM_ATOM_UDEF_STEREO_COUNT>  (1) 
1

>  <PUBCHEM_BOND_DEF_STEREO_COUNT>  (1) 
0

>  <PUBCHEM_BOND_UDEF_STEREO_COUNT>  (1) 
0

>  <PUBCHEM_ISOTOPIC_ATOM_COUNT>  (1) 
0

>  <PUBCHEM_COMPONENT_COUNT>  (1) 
1

>  <PUBCHEM_CACTVS_TAUTO_COUNT>  (1) 
1

>  <PUBCHEM_CONFORMER_ID>  (1) 
00003DB300000001

>  <PUBCHEM_MMFF94_ENERGY>  (1) 
59.2128

>  <PUBCHEM_FEATURE_SELFOVERLAP>  (1) 
20.297

>  <PUBCHEM_SHAPE_FINGERPRINT>  (1) 
11045515 52 18336266721872895900
11578080 2 17099223910518565985
12592029 89 18195527232089278808
12788726 201 17830454981901314200
13681431 1 18411985766951343272
14181834 199 18264777725422307686
14817 1 10408941902997766681
16945 1 18339089275590161259
1813 80 17988655055499293638
18785283 64 18190462851245587733
18915476 22 18120389897275653179
19591789 44 17619069868651916148
200 152 18271520880165362062
20473742 2 18338229496062301383
21285901 2 17268893698728429669
21296965 67 18342737373582788467
21304303 282 16819920160235335852
21339142 36 18263924341201166470
21524375 3 17613981307095213745
22802520 49 18042129911212127675
23114952 82 18262237840851556765
23175994 123 18338238167717284119
23402539 116 18268423538777377698
23419403 2 17825697656859185539
23526113 38 18260267451405443691
23558518 356 17830181203859477698
23559900 14 18339073899464777979
2748010 2 18197476485985400348
3250762 1 18116716416042468379
3286 77 18335136522914682519
3729539 64 18047782530972638084
458136 41 18050857915933292621
46194498 28 18265030566622189887
7364860 26 18338516472749829829
81228 2 18050853217328858832
84936 31 18269831089543320876

>  <PUBCHEM_SHAPE_MULTIPOLES>  (1) 
394.87
5.61
3.71
1.53
2.78
4.69
-0.39
-3.76
1.23
-3.65
0.47
0.54
-0.2
0.61

>  <PUBCHEM_SHAPE_SELFOVERLAP>  (1) 
829.188

>  <PUBCHEM_SHAPE_VOLUME>  (1) 
220.7

>  <PUBCHEM_COORDINATE_TYPE>  (1) 
2
5
10

$$$$
