15794
     RDKit          3D

 18 20  0  0  0  0  0  0  0  0999 V2000
    2.0528    2.8000   -0.0003 O   0  0  0  0  0  0  0  0  0  0  0  0
    3.7851   -1.9968   -0.0019 O   0  0  0  0  0  0  0  0  0  0  0  0
    3.3543    0.3206    0.0006 N   0  0  0  0  0  0  0  0  0  0  0  0
   -1.1801   -1.8076   -0.0005 C   0  0  0  0  0  0  0  0  0  0  0  0
   -0.1635   -0.6851   -0.0009 C   0  0  0  0  0  0  0  0  0  0  0  0
   -0.8126    0.5700   -0.0009 C   0  0  0  0  0  0  0  0  0  0  0  0
   -2.4861   -1.0412   -0.0002 C   0  0  0  0  0  0  0  0  0  0  0  0
   -2.2430    0.3508   -0.0006 C   0  0  0  0  0  0  0  0  0  0  0  0
    1.2168   -0.7854   -0.0008 C   0  0  0  0  0  0  0  0  0  0  0  0
   -0.0761    1.7428   -0.0006 C   0  0  0  0  0  0  0  0  0  0  0  0
    1.9589    0.3971   -0.0004 C   0  0  0  0  0  0  0  0  0  0  0  0
   -3.7729   -1.5503    0.0006 C   0  0  0  0  0  0  0  0  0  0  0  0
   -3.2969    1.2492    0.0002 C   0  0  0  0  0  0  0  0  0  0  0  0
    1.3190    1.6485   -0.0004 C   0  0  0  0  0  0  0  0  0  0  0  0
   -4.8352   -0.6444    0.0013 C   0  0  0  0  0  0  0  0  0  0  0  0
   -4.5997    0.7413    0.0011 C   0  0  0  0  0  0  0  0  0  0  0  0
    4.1555   -0.8273    0.0014 C   0  0  0  0  0  0  0  0  0  0  0  0
    5.6236   -0.4822    0.0023 C   0  0  0  0  0  0  0  0  0  0  0  0
  1 14  1  0
  2 17  2  0
  3 11  1  0
  3 17  1  0
  4  5  1  0
  4  7  1  0
  5  6  2  0
  5  9  1  0
  6  8  1  0
  6 10  1  0
  7  8  2  0
  7 12  1  0
  8 13  1  0
  9 11  2  0
 10 14  2  0
 11 14  1  0
 12 15  2  0
 13 16  2  0
 15 16  1  0
 17 18  1  0
M  END
>  <PUBCHEM_COMPOUND_CID>  (1) 
15794

>  <PUBCHEM_CONFORMER_RMSD>  (1) 
0.6

>  <PUBCHEM_CONFORMER_DIVERSEORDER>  (1) 
1
2
3
4

>  <PUBCHEM_MMFF94_PARTIAL_CHARGES>  (1) 
24
1 -0.53
10 -0.15
11 0.12
12 -0.15
13 -0.15
14 0.08
15 -0.15
16 -0.15
17 0.57
18 0.06
2 -0.57
21 0.15
22 0.15
23 0.15
24 0.15
25 0.15
26 0.15
27 0.37
28 0.45
3 -0.55
4 0.29
5 -0.14
7 -0.14
9 -0.15

>  <PUBCHEM_EFFECTIVE_ROTOR_COUNT>  (1) 
2.2

>  <PUBCHEM_PHARMACOPHORE_FEATURES>  (1) 
6
1 1 donor
1 2 acceptor
1 3 donor
5 4 5 6 7 8 rings
6 5 6 9 10 11 14 rings
6 7 8 12 13 15 16 rings

>  <PUBCHEM_HEAVY_ATOM_COUNT>  (1) 
18

>  <PUBCHEM_ATOM_DEF_STEREO_COUNT>  (1) 
0

>  <PUBCHEM_ATOM_UDEF_STEREO_COUNT>  (1) 
0

>  <PUBCHEM_BOND_DEF_STEREO_COUNT>  (1) 
0

>  <PUBCHEM_BOND_UDEF_STEREO_COUNT>  (1) 
0

>  <PUBCHEM_ISOTOPIC_ATOM_COUNT>  (1) 
0

>  <PUBCHEM_COMPONENT_COUNT>  (1) 
1

>  <PUBCHEM_CACTVS_TAUTO_COUNT>  (1) 
6

>  <PUBCHEM_CONFORMER_ID>  (1) 
00003DB200000001

>  <PUBCHEM_MMFF94_ENERGY>  (1) 
61.5511

>  <PUBCHEM_FEATURE_SELFOVERLAP>  (1) 
30.614

>  <PUBCHEM_SHAPE_FINGERPRINT>  (1) 
10062212 137 18273209816135604823
10608611 8 18338232777860693373
10906281 52 18267043733504772470
10967382 1 18338517550775792135
10968037 39 18408889538286864966
11471102 20 18410008857654957085
12032990 46 18410294713503545331
12236239 1 17821730511980489962
12403259 226 18339073895697785837
12715332 25 18059574732623419511
12916754 54 18338800134550416995
13140716 1 18411427241083171625
13288520 33 18411702071265368742
13675066 3 18201995559973516211
13690532 89 18410856551055129739
13862211 1 18410569570036301874
14115302 16 17822021925200404358
14866123 147 17406561299079249322
15099037 51 18410292501764310015
15196674 1 18410575127950524389
15442244 35 18411702097135561633
15536298 74 18341611572249164696
16945 1 18341343201628955269
17492 89 18122061163619720707
17804303 29 18410577296740190925
1813 80 17458344126587202492
18186145 218 17677040343563063959
19141452 34 18201718465900832071
200 152 17988921180679573679
20612939 158 18260269689120444996
20645477 70 18337388348076230135
21029758 11 18341611499350791240
21267235 1 18410582794251084331
21279426 13 18120935005929749679
21501502 16 18268712890797507589
221490 88 18263369255443523555
2297311 6 18270973345466212134
23366157 5 17969780976721355308
23402539 116 18271800207462752399
23463225 33 18410856576830227853
23557571 272 18128543674313709508
23559900 14 18341607161507740416
23622692 118 17915447514207180303
3004659 81 18114748132143556566
3286 77 18409166653412970893
335352 9 18410573968636460981
34934 24 18337948983079403430
350125 39 18410015421066969001
4214541 1 18410855456223669061
4463277 17 18410294714141939756
5104073 3 18340209699698506489
633830 44 17385720344137978357
7364860 26 18268991063097712168
8809292 202 18261396684618280011
9709674 26 18191587669068364451
9981440 41 17400638715182625720

>  <PUBCHEM_SHAPE_MULTIPOLES>  (1) 
353.71
9.93
2.12
0.6
4.23
0.64
0
-2.77
0.01
0.48
0
-0.05
-0.01
0

>  <PUBCHEM_SHAPE_SELFOVERLAP>  (1) 
785.271

>  <PUBCHEM_SHAPE_VOLUME>  (1) 
191.1

>  <PUBCHEM_COORDINATE_TYPE>  (1) 
2
5
10

$$$$
