15809
     RDKit          3D

 10 10  0  0  0  0  0  0  0  0999 V2000
    3.8243    0.0000    0.0001 S   0  0  0  0  0  0  0  0  0  0  0  0
   -2.7705   -1.0997   -0.0001 O   0  0  0  0  0  0  0  0  0  0  0  0
   -2.7703    1.0998    0.0004 O   0  0  0  0  0  0  0  0  0  0  0  0
   -2.1674    0.0000   -0.0001 N   0  0  0  0  0  0  0  0  0  0  0  0
   -0.7475   -0.0001   -0.0001 C   0  0  0  0  0  0  0  0  0  0  0  0
   -0.0502   -1.2080    0.0000 C   0  0  0  0  0  0  0  0  0  0  0  0
   -0.0501    1.2080   -0.0002 C   0  0  0  0  0  0  0  0  0  0  0  0
    2.0422    0.0000    0.0000 C   0  0  0  0  0  0  0  0  0  0  0  0
    1.3447   -1.2080    0.0001 C   0  0  0  0  0  0  0  0  0  0  0  0
    1.3448    1.2079   -0.0002 C   0  0  0  0  0  0  0  0  0  0  0  0
  1  8  1  0
  2  4  1  0
  3  4  2  0
  4  5  1  0
  5  6  2  0
  5  7  1  0
  6  9  1  0
  7 10  2  0
  8  9  2  0
  8 10  1  0
M  CHG  2   2  -1   4   1
M  END
>  <PUBCHEM_COMPOUND_CID>  (1) 
15809

>  <PUBCHEM_CONFORMER_RMSD>  (1) 
0.4

>  <PUBCHEM_CONFORMER_DIVERSEORDER>  (1) 
1

>  <PUBCHEM_MMFF94_PARTIAL_CHARGES>  (1) 
15
1 -0.28
10 -0.15
11 0.15
12 0.15
13 0.15
14 0.15
15 0.18
2 -0.52
3 -0.52
4 0.91
5 0.13
6 -0.15
7 -0.15
8 0.1
9 -0.15

>  <PUBCHEM_EFFECTIVE_ROTOR_COUNT>  (1) 
1

>  <PUBCHEM_PHARMACOPHORE_FEATURES>  (1) 
4
1 2 acceptor
1 2 anion
1 3 acceptor
6 5 6 7 8 9 10 rings

>  <PUBCHEM_HEAVY_ATOM_COUNT>  (1) 
10

>  <PUBCHEM_ATOM_DEF_STEREO_COUNT>  (1) 
0

>  <PUBCHEM_ATOM_UDEF_STEREO_COUNT>  (1) 
0

>  <PUBCHEM_BOND_DEF_STEREO_COUNT>  (1) 
0

>  <PUBCHEM_BOND_UDEF_STEREO_COUNT>  (1) 
0

>  <PUBCHEM_ISOTOPIC_ATOM_COUNT>  (1) 
0

>  <PUBCHEM_COMPONENT_COUNT>  (1) 
1

>  <PUBCHEM_CACTVS_TAUTO_COUNT>  (1) 
2

>  <PUBCHEM_CONFORMER_ID>  (1) 
00003DC100000001

>  <PUBCHEM_MMFF94_ENERGY>  (1) 
27.1855

>  <PUBCHEM_FEATURE_SELFOVERLAP>  (1) 
20.377

>  <PUBCHEM_SHAPE_FINGERPRINT>  (1) 
10857977 72 18411408536062578650
11062470 55 17603868884069255516
12032990 46 18411989069923599246
12897270 3 18411418392928126764
14325111 11 18410855473350764740
16945 1 18410575084868794244
193761 8 17617941327303185124
21040471 1 18338517572414191392
23235685 24 18410569578884309536
23402655 69 18196637528939312709
23552423 10 18261396628361588359
2748010 2 18122343751029078820
29004967 10 18408889520505557114
5084963 1 18271528701068069425
528886 8 18411412886764222584

>  <PUBCHEM_SHAPE_MULTIPOLES>  (1) 
192.93
4.8
1.41
0.6
0.92
0
0
0
0
-0.24
0
0.11
0
0

>  <PUBCHEM_SHAPE_SELFOVERLAP>  (1) 
392.214

>  <PUBCHEM_SHAPE_VOLUME>  (1) 
114.6

>  <PUBCHEM_COORDINATE_TYPE>  (1) 
2
5
10

$$$$
