15806
     RDKit          3D

 17 19  0  0  1  0  0  0  0  0999 V2000
   -0.1564    0.6805   -2.1410 O   0  0  0  0  0  0  0  0  0  0  0  0
   -0.4308    2.9055   -0.2130 O   0  0  0  0  0  0  0  0  0  0  0  0
    1.4976    1.7928    0.5331 N   0  0  0  0  0  0  0  0  0  0  0  0
   -0.0491    0.5223   -0.7403 C   0  0  0  0  0  0  0  0  0  0  0  0
    1.1561   -0.2864   -0.3377 C   0  0  0  0  0  0  0  0  0  0  0  0
    2.0224    0.5112    0.4088 C   0  0  0  0  0  0  0  0  0  0  0  0
   -1.3336   -0.0118   -0.2072 C   0  0  0  0  0  0  0  0  0  0  0  0
    0.2662    1.9055   -0.1240 C   0  0  0  0  0  0  0  0  0  0  0  0
    1.4780   -1.6048   -0.6076 C   0  0  0  0  0  0  0  0  0  0  0  0
    3.2167    0.0411    0.9170 C   0  0  0  0  0  0  0  0  0  0  0  0
   -1.8093    0.4193    1.0322 C   0  0  0  0  0  0  0  0  0  0  0  0
   -2.0639   -0.9438   -0.9463 C   0  0  0  0  0  0  0  0  0  0  0  0
    2.6823   -2.1058   -0.1035 C   0  0  0  0  0  0  0  0  0  0  0  0
    3.5435   -1.2900    0.6531 C   0  0  0  0  0  0  0  0  0  0  0  0
   -3.0121   -0.0805    1.5315 C   0  0  0  0  0  0  0  0  0  0  0  0
   -3.2667   -1.4435   -0.4470 C   0  0  0  0  0  0  0  0  0  0  0  0
   -3.7408   -1.0118    0.7918 C   0  0  0  0  0  0  0  0  0  0  0  0
  1  4  1  0
  2  8  2  0
  3  6  1  0
  3  8  1  0
  4  5  1  0
  4  7  1  0
  4  8  1  0
  5  6  2  0
  5  9  1  0
  6 10  1  0
  7 11  2  0
  7 12  1  0
  9 13  2  0
 10 14  2  0
 11 15  1  0
 12 16  2  0
 13 14  1  0
 15 17  2  0
 16 17  1  0
M  END
>  <PUBCHEM_COMPOUND_CID>  (1) 
15806

>  <PUBCHEM_CONFORMER_RMSD>  (1) 
0.6

>  <PUBCHEM_CONFORMER_DIVERSEORDER>  (1) 
2
1
3
4

>  <PUBCHEM_MMFF94_PARTIAL_CHARGES>  (1) 
28
1 -0.68
10 -0.15
11 -0.15
12 -0.15
13 -0.15
14 -0.15
15 -0.15
16 -0.15
17 -0.15
18 0.37
19 0.15
2 -0.57
20 0.15
21 0.15
22 0.15
23 0.4
24 0.15
25 0.15
26 0.15
27 0.15
28 0.15
3 -0.55
4 0.63
5 -0.14
6 0.12
7 -0.14
8 0.57
9 -0.15

>  <PUBCHEM_EFFECTIVE_ROTOR_COUNT>  (1) 
1.4

>  <PUBCHEM_PHARMACOPHORE_FEATURES>  (1) 
7
1 1 acceptor
1 1 donor
1 2 acceptor
1 3 donor
5 3 4 5 6 8 rings
6 5 6 9 10 13 14 rings
6 7 11 12 15 16 17 rings

>  <PUBCHEM_HEAVY_ATOM_COUNT>  (1) 
17

>  <PUBCHEM_ATOM_DEF_STEREO_COUNT>  (1) 
0

>  <PUBCHEM_ATOM_UDEF_STEREO_COUNT>  (1) 
1

>  <PUBCHEM_BOND_DEF_STEREO_COUNT>  (1) 
0

>  <PUBCHEM_BOND_UDEF_STEREO_COUNT>  (1) 
0

>  <PUBCHEM_ISOTOPIC_ATOM_COUNT>  (1) 
0

>  <PUBCHEM_COMPONENT_COUNT>  (1) 
1

>  <PUBCHEM_CACTVS_TAUTO_COUNT>  (1) 
2

>  <PUBCHEM_CONFORMER_ID>  (1) 
00003DBE00000002

>  <PUBCHEM_MMFF94_ENERGY>  (1) 
51.4099

>  <PUBCHEM_FEATURE_SELFOVERLAP>  (1) 
35.61

>  <PUBCHEM_SHAPE_FINGERPRINT>  (1) 
10618630 7 18259988136944949674
11086676 242 18340498780671946592
11471102 22 18411134766362770002
11578080 2 17128132231776617337
11582403 64 15303003561668910885
12202030 40 17096664273403205859
12251169 10 17989208139849603451
12382932 28 18201436930773239730
12423570 1 11250328775080833773
12553582 1 18410580578047992150
12696612 119 18272938240604681174
12716301 132 17409683984910939621
12824470 246 17386842807933834826
12892183 10 17704070698423043978
13296908 3 18187078442812218455
14787075 74 16261769003532406953
14817 1 8207621501357087645
15375462 478 17775284980206606251
15501101 241 18335137634984021502
16945 1 18339077215089807628
17844478 74 18339920412113005962
1813 80 17895208666050617662
19862831 5 12540692626252422459
20361792 2 17603591824181918135
20559304 39 18199764685567564097
20645477 70 18189603016363006143
20671657 53 16515405161935001006
20711985 344 17169254962739341717
20871998 22 18340492170807143454
21296965 67 18335136479711691273
22445834 79 18201722885564383411
2255824 54 18122351443067917453
231179 274 12247689231338045258
23382010 3 10953753230164822398
23388829 49 18200588228113625205
23419403 2 17824513448571797500
2748010 2 18055621820943979566
5845 1 18334858277315600037
6992083 37 18273218594995919155
7097593 13 18131639954243670763
77492 1 17703225251506609199
81228 2 18043811978886878221
83771 10 18333734593749051386

>  <PUBCHEM_SHAPE_MULTIPOLES>  (1) 
333.13
5.71
2.19
1.29
0.98
0.88
0.19
-3.36
-2.21
-0.67
0.24
0.52
0.06
-0.06

>  <PUBCHEM_SHAPE_SELFOVERLAP>  (1) 
747.718

>  <PUBCHEM_SHAPE_VOLUME>  (1) 
177.3

>  <PUBCHEM_COORDINATE_TYPE>  (1) 
2
5
10

$$$$
