15804
     RDKit          3D

 20 19  0  0  0  0  0  0  0  0999 V2000
    7.7120   -0.1012   -0.0307 S   0  0  0  0  0  0  0  0  0  0  0  0
    3.8011   -0.4228   -0.0073 O   0  0  0  0  0  0  0  0  0  0  0  0
    5.1903    1.4176    0.0210 O   0  0  0  0  0  0  0  0  0  0  0  0
    8.5737   -1.4732    0.1612 O   0  0  0  0  0  0  0  0  0  0  0  0
    7.8756    0.7206    1.1561 O   0  0  0  0  0  0  0  0  0  0  0  0
    7.9717    0.4283   -1.3586 O   0  0  0  0  0  0  0  0  0  0  0  0
   -3.6950   -0.4570    0.0198 C   0  0  0  0  0  0  0  0  0  0  0  0
   -4.9912    0.3604    0.0095 C   0  0  0  0  0  0  0  0  0  0  0  0
   -2.4329    0.4087    0.0327 C   0  0  0  0  0  0  0  0  0  0  0  0
   -6.2929   -0.4457    0.0860 C   0  0  0  0  0  0  0  0  0  0  0  0
   -1.1373   -0.4091    0.0303 C   0  0  0  0  0  0  0  0  0  0  0  0
   -7.5515    0.4223    0.0117 C   0  0  0  0  0  0  0  0  0  0  0  0
    0.1258    0.4557    0.0187 C   0  0  0  0  0  0  0  0  0  0  0  0
   -8.8501   -0.3910   -0.0005 C   0  0  0  0  0  0  0  0  0  0  0  0
    1.3892   -0.4108   -0.0116 C   0  0  0  0  0  0  0  0  0  0  0  0
  -10.1091    0.4713   -0.1016 C   0  0  0  0  0  0  0  0  0  0  0  0
    2.6626    0.4263    0.0025 C   0  0  0  0  0  0  0  0  0  0  0  0
  -11.3692   -0.3784   -0.0334 C   0  0  0  0  0  0  0  0  0  0  0  0
    5.0191    0.2067    0.0038 C   0  0  0  0  0  0  0  0  0  0  0  0
    6.1079   -0.8288   -0.0097 C   0  0  0  0  0  0  0  0  0  0  0  0
  1  4  1  0
  1  5  2  0
  1  6  2  0
  1 20  1  0
  2 17  1  0
  2 19  1  0
  3 19  2  0
  7  8  1  0
  7  9  1  0
  8 10  1  0
  9 11  1  0
 10 12  1  0
 11 13  1  0
 12 14  1  0
 13 15  1  0
 14 16  1  0
 15 17  1  0
 16 18  1  0
 19 20  1  0
M  END
>  <PUBCHEM_COMPOUND_CID>  (1) 
15804

>  <PUBCHEM_CONFORMER_RMSD>  (1) 
1.4

>  <PUBCHEM_CONFORMER_DIVERSEORDER>  (1) 
1
43
48
6
7
50
44
32
19
42
27
5
14
36
46
29
20
2
30
23
28
41
11
45
21
35
16
39
3
25
40
24
49
38
17
47
13
10
31
34
15
12
9
8
22
37
26
33
18
4

>  <PUBCHEM_MMFF94_PARTIAL_CHARGES>  (1) 
10
1 1.38
17 0.28
19 0.66
2 -0.43
20 0.17
3 -0.57
4 -0.68
48 0.5
5 -0.65
6 -0.65

>  <PUBCHEM_EFFECTIVE_ROTOR_COUNT>  (1) 
14

>  <PUBCHEM_PHARMACOPHORE_FEATURES>  (1) 
6
1 18 hydrophobe
1 3 acceptor
1 4 acceptor
1 5 acceptor
1 6 acceptor
4 1 4 5 6 anion

>  <PUBCHEM_HEAVY_ATOM_COUNT>  (1) 
20

>  <PUBCHEM_ATOM_DEF_STEREO_COUNT>  (1) 
0

>  <PUBCHEM_ATOM_UDEF_STEREO_COUNT>  (1) 
0

>  <PUBCHEM_BOND_DEF_STEREO_COUNT>  (1) 
0

>  <PUBCHEM_BOND_UDEF_STEREO_COUNT>  (1) 
0

>  <PUBCHEM_ISOTOPIC_ATOM_COUNT>  (1) 
0

>  <PUBCHEM_COMPONENT_COUNT>  (1) 
1

>  <PUBCHEM_CACTVS_TAUTO_COUNT>  (1) 
1

>  <PUBCHEM_CONFORMER_ID>  (1) 
00003DBC00000001

>  <PUBCHEM_MMFF94_ENERGY>  (1) 
5.0579

>  <PUBCHEM_FEATURE_SELFOVERLAP>  (1) 
30.502

>  <PUBCHEM_SHAPE_FINGERPRINT>  (1) 
14251764 18 18412830170506690368
14251764 46 18410575084668360163
15061470 23 16443061704102050957
15510794 2 18408045117889616275
155225 1 17095529530960677788
21362267 20 18272649082861348679
21362267 313 17386556947885276401
232437 2 18410575094324099975
23521765 1 18341895190361509611
23581129 1 18409448085244615011
28498 318 18408885122443299638
33684 2 18412544310848262299
67123 10 18410856568240273669
8209 1 18335421270830370317

>  <PUBCHEM_SHAPE_MULTIPOLES>  (1) 
386.09
41.25
0.94
0.72
46.07
0.02
-0.04
2.52
-0.76
-1.11
0.03
-0.89
-0.06
0.04

>  <PUBCHEM_SHAPE_SELFOVERLAP>  (1) 
705.642

>  <PUBCHEM_SHAPE_VOLUME>  (1) 
244

>  <PUBCHEM_COORDINATE_TYPE>  (1) 
2
5
10

$$$$
