1580
     RDKit          3D

 29 31  0  0  1  0  0  0  0  0999 V2000
    0.1140    2.8110   -0.7628 S   0  0  0  0  0  0  0  0  0  0  0  0
    3.9058   -0.9333   -0.5383 P   0  0  0  0  0  0  0  0  0  0  0  0
    3.8119    1.7544    0.6540 P   0  0  0  0  0  0  0  0  0  0  0  0
   -0.8915   -2.0820   -1.1901 O   0  0  0  0  0  0  0  0  0  0  0  0
   -1.3244   -4.1953    1.2751 O   0  0  0  0  0  0  0  0  0  0  0  0
    0.3928   -1.0536    1.3278 O   0  0  0  0  0  0  0  0  0  0  0  0
    2.7174   -2.0204   -0.6875 O   0  0  0  0  0  0  0  0  0  0  0  0
    3.2364    0.2922    0.2766 O   0  0  0  0  0  0  0  0  0  0  0  0
    4.0913   -0.3303   -2.0280 O   0  0  0  0  0  0  0  0  0  0  0  0
    5.1685   -1.4639    0.0764 O   0  0  0  0  0  0  0  0  0  0  0  0
    2.6675    2.3690    1.6159 O   0  0  0  0  0  0  0  0  0  0  0  0
    5.0223    1.4206    1.6717 O   0  0  0  0  0  0  0  0  0  0  0  0
    4.1832    2.6045   -0.5249 O   0  0  0  0  0  0  0  0  0  0  0  0
   -2.8406   -1.2785   -0.1056 N   0  0  0  0  0  0  0  0  0  0  0  0
   -4.7540   -0.1754    0.1981 N   0  0  0  0  0  0  0  0  0  0  0  0
   -1.3280    0.5935   -0.4349 N   0  0  0  0  0  0  0  0  0  0  0  0
   -2.5104    2.7237   -0.2934 N   0  0  0  0  0  0  0  0  0  0  0  0
   -4.8632    2.8625    0.1203 N   0  0  0  0  0  0  0  0  0  0  0  0
   -1.2282   -2.7863    1.0797 C   0  0  0  0  0  0  0  0  0  0  0  0
    0.2205   -2.3882    0.8691 C   0  0  0  0  0  0  0  0  0  0  0  0
   -1.9168   -2.4072   -0.2345 C   0  0  0  0  0  0  0  0  0  0  0  0
    0.3748   -2.4871   -0.6445 C   0  0  0  0  0  0  0  0  0  0  0  0
    1.4747   -1.6380   -1.2545 C   0  0  0  0  0  0  0  0  0  0  0  0
   -2.5318    0.0484   -0.2032 C   0  0  0  0  0  0  0  0  0  0  0  0
   -4.1865   -1.3619    0.1352 C   0  0  0  0  0  0  0  0  0  0  0  0
   -3.7313    0.7152   -0.0116 C   0  0  0  0  0  0  0  0  0  0  0  0
   -3.6935    2.1050   -0.0628 C   0  0  0  0  0  0  0  0  0  0  0  0
   -1.4174    1.9411   -0.4626 C   0  0  0  0  0  0  0  0  0  0  0  0
   -0.1636    4.3603    0.1394 C   0  0  0  0  0  0  0  0  0  0  0  0
  1 28  1  0
  1 29  1  0
  2  7  1  0
  2  8  1  0
  2  9  1  0
  2 10  2  0
  3  8  1  0
  3 11  1  0
  3 12  1  0
  3 13  2  0
  4 21  1  0
  4 22  1  0
  5 19  1  0
  6 20  1  0
  7 23  1  0
 14 21  1  0
 14 24  1  0
 14 25  1  0
 15 25  2  0
 15 26  1  0
 16 24  1  0
 16 28  2  0
 17 27  2  0
 17 28  1  0
 18 27  1  0
 19 20  1  0
 19 21  1  0
 20 22  1  0
 22 23  1  0
 24 26  2  0
 26 27  1  0
M  END
>  <PUBCHEM_COMPOUND_CID>  (1) 
1580

>  <PUBCHEM_CONFORMER_RMSD>  (1) 
1

>  <PUBCHEM_CONFORMER_DIVERSEORDER>  (1) 
1
272
358
66
155
250
275
84
303
305
436
130
26
238
165
224
107
140
373
157
381
329
44
445
206
85
335
208
316
121
419
79
24
267
420
283
57
284
75
108
214
117
448
83
370
217
175
449
167
444
314
37
366
4
427
148
377
234
431
263
80
38
220
230
245
142
338
320
19
345
47
252
356
406
153
41
69
194
154
362
61
96
273
213
429
241
207
111
82
397
190
248
95
415
293
235
46
53
412
289
222
325
315
87
103
184
339
270
405
113
197
394
51
60
115
112
139
233
136
343
204
137
346
422
243
127
361
72
288
86
231
228
138
34
196
290
13
144
287
20
2
109
333
434
276
74
440
330
242
128
205
438
101
321
246
376
403
120
447
123
198
68
30
39
268
262
322
340
279
349
97
158
430
176
29
264
249
55
278
227
98
258
280
244
145
5
441
432
35
411
118
398
9
78
363
28
269
219
92
135
451
360
199
73
187
309
414
12
100
418
48
442
33
439
391
274
351
156
413
215
337
446
11
99
181
306
297
399
357
89
221
296
225
372
58
76
21
404
159
236
347
174
292
203
62
65
257
195
119
7
15
450
426
149
232
64
162
216
22
365
348
131
433
423
152
193
375
298
428
336
271
385
353
59
179
18
147
105
173
435
6
226
114
401
126
124
294
50
54
211
172
143
192
23
300
368
407
382
163
150
169
45
218
331
261
265
259
77
326
94
369
425
371
341
301
209
386
417
188
310
302
36
122
116
392
125
367
291
374
260
10
70
334
164
317
354
380
104
277
17
437
251
88
25
253
16
342
178
410
202
247
185
421
424
210
285
191
229
91
416
443
14
324
212
93
42
255
171
254
389
52
110
106
31
313
81
323
166
27
8
63
299
395
307
71
170
3
378
311
186
408
388
102
151
308
189
387
328
383
400
133
129
168
282
344
177
364
359
90
332
304
43
132
396
40
256
32
327
49
56
141
390
237
379
355
384
223
160
161
146
180
266
281
67
182
286
240
200
350
295
402
183
393
352
312
318
134
239
201
409
319

>  <PUBCHEM_MMFF94_PARTIAL_CHARGES>  (1) 
37
1 -0.33
10 -0.7
11 -0.77
12 -0.77
13 -0.7
14 0.05
15 -0.57
16 -0.57
17 -0.62
18 -0.9
19 0.28
2 1.51
20 0.28
21 0.54
22 0.28
23 0.28
24 0.11
25 0.04
26 0.23
27 0.41
28 0.72
29 0.23
3 1.51
36 0.4
37 0.4
38 0.15
39 0.4
4 -0.56
40 0.4
41 0.5
45 0.5
46 0.5
5 -0.68
6 -0.68
7 -0.55
8 -0.54
9 -0.77

>  <PUBCHEM_EFFECTIVE_ROTOR_COUNT>  (1) 
8

>  <PUBCHEM_PHARMACOPHORE_FEATURES>  (1) 
20
1 10 acceptor
1 11 acceptor
1 12 acceptor
1 13 acceptor
1 18 cation
1 18 donor
1 29 hydrophobe
1 4 acceptor
1 5 acceptor
1 5 donor
1 6 acceptor
1 6 donor
1 9 acceptor
3 14 15 25 cation
3 14 16 24 cation
3 16 17 28 cation
4 3 11 12 13 anion
5 14 15 24 25 26 rings
5 4 19 20 21 22 rings
6 16 17 24 26 27 28 rings

>  <PUBCHEM_HEAVY_ATOM_COUNT>  (1) 
29

>  <PUBCHEM_ATOM_DEF_STEREO_COUNT>  (1) 
0

>  <PUBCHEM_ATOM_UDEF_STEREO_COUNT>  (1) 
4

>  <PUBCHEM_BOND_DEF_STEREO_COUNT>  (1) 
0

>  <PUBCHEM_BOND_UDEF_STEREO_COUNT>  (1) 
0

>  <PUBCHEM_ISOTOPIC_ATOM_COUNT>  (1) 
0

>  <PUBCHEM_COMPONENT_COUNT>  (1) 
1

>  <PUBCHEM_CACTVS_TAUTO_COUNT>  (1) 
3

>  <PUBCHEM_CONFORMER_ID>  (1) 
0000062C00000001

>  <PUBCHEM_MMFF94_ENERGY>  (1) 
5.7532

>  <PUBCHEM_FEATURE_SELFOVERLAP>  (1) 
102.153

>  <PUBCHEM_SHAPE_FINGERPRINT>  (1) 
10498660 4 18192994825140421439
10616163 171 18121221149747264604
1100329 8 18263371437983527731
11112241 14 17202181096811357777
11513181 2 18128827519859414198
13122387 1 18410855473250992844
13140716 1 18264768762342479873
13402501 40 18342454846597494704
14251757 17 18201720630859339234
14251764 38 18339078297917568224
14363568 33 16605495064258827424
14466204 15 18121775029009585114
14725015 67 18267012873927504136
14790565 3 18265623087304649997
15238133 3 18335987472375235054
17093844 170 18411979122953707352
19591789 44 18409728439514644217
20764821 26 18410572868792711988
23227448 37 18272647986688781950
23559900 14 18268998579116303422
3524813 1 18343580724781425106
392239 28 18337962177540307137
508706 21 18411136982782094540
9981440 41 18115033983222703995

>  <PUBCHEM_SHAPE_MULTIPOLES>  (1) 
524.76
9.4
5.14
1.24
4.81
1.46
0.06
3.39
0.58
-1.32
0.76
1.25
-0.29
1.37

>  <PUBCHEM_SHAPE_SELFOVERLAP>  (1) 
1069.569

>  <PUBCHEM_SHAPE_VOLUME>  (1) 
308.7

>  <PUBCHEM_COORDINATE_TYPE>  (1) 
2
5
10

$$$$
