15815
     RDKit          3D

 13 12  0  0  0  0  0  0  0  0999 V2000
    1.3065   -0.5325    0.9735 S   0  0  0  0  0  0  0  0  0  0  0  0
   -1.3147   -0.5833   -1.0086 S   0  0  0  0  0  0  0  0  0  0  0  0
   -0.0115    0.6745   -0.0406 S   0  0  0  0  0  0  0  0  0  0  0  0
    2.6816   -2.1047   -1.2338 S   0  0  0  0  0  0  0  0  0  0  0  0
   -2.5591   -2.0325    1.3106 S   0  0  0  0  0  0  0  0  0  0  0  0
    3.6881    0.0333   -0.2659 O   0  0  0  0  0  0  0  0  0  0  0  0
   -3.6748    0.0258    0.2851 O   0  0  0  0  0  0  0  0  0  0  0  0
    3.7869    1.2062    0.5607 C   0  0  0  0  0  0  0  0  0  0  0  0
   -3.8575    1.1480   -0.5955 C   0  0  0  0  0  0  0  0  0  0  0  0
    5.0941    1.9098    0.2642 C   0  0  0  0  0  0  0  0  0  0  0  0
   -5.1632    1.8343   -0.2554 C   0  0  0  0  0  0  0  0  0  0  0  0
    2.6048   -0.7947   -0.1885 C   0  0  0  0  0  0  0  0  0  0  0  0
   -2.5813   -0.7842    0.1942 C   0  0  0  0  0  0  0  0  0  0  0  0
  1  3  1  0
  1 12  1  0
  2  3  1  0
  2 13  1  0
  4 12  2  0
  5 13  2  0
  6  8  1  0
  6 12  1  0
  7  9  1  0
  7 13  1  0
  8 10  1  0
  9 11  1  0
M  END
>  <PUBCHEM_COMPOUND_CID>  (1) 
15815

>  <PUBCHEM_CONFORMER_RMSD>  (1) 
0.8

>  <PUBCHEM_CONFORMER_DIVERSEORDER>  (1) 
1
358
194
200
429
342
252
423
15
329
231
73
136
357
414
250
8
353
312
226
276
362
37
89
174
2
310
220
98
405
18
301
338
5
97
212
160
347
284
355
113
49
214
306
233
373
104
420
391
300
195
45
278
10
138
335
34
375
337
23
26
295
361
292
351
20
196
99
339
221
17
266
27
406
30
13
207
271
150
253
120
425
247
365
225
288
4
260
58
206
265
269
60
234
389
6
81
274
393
305
401
379
25
76
396
378
164
364
319
132
340
19
107
380
217
422
53
367
21
55
409
177
135
74
264
261
345
382
209
176
313
179
143
188
91
228
115
296
318
371
239
24
14
129
403
190
352
181
336
204
325
421
111
368
410
275
262
105
254
344
168
119
218
411
54
386
363
33
154
412
167
59
199
408
172
394
166
90
309
157
392
334
273
123
80
236
219
101
224
383
108
43
286
141
268
246
311
415
162
142
165
106
128
397
11
324
349
417
183
289
171
330
197
326
86
184
203
159
77
320
222
182
331
407
238
134
63
328
241
240
293
137
180
332
346
399
348
316
198
131
124
158
78
237
256
83
122
92
68
359
356
161
82
178
62
258
133
272
64
84
151
38
283
304
243
146
426
75
360
372
229
213
39
242
192
299
314
152
112
321
402
52
419
36
227
398
46
297
130
175
210
193
205
381
303
384
249
245
7
244
323
388
48
127
155
79
109
416
110
248
28
424
287
315
85
333
350
208
121
186
72
41
216
428
117
215
390
387
191
29
173
280
187
42
232
100
69
294
223
317
102
257
369
163
156
291
32
12
413
125
376
126
255
322
148
251
327
22
145
71
56
185
202
343
235
114
308
40
88
116
70
400
66
427
395
3
211
282
95
139
87
170
263
140
366
377
267
57
374
103
189
277
169
65
281
307
341
298
230
51
147
9
50
94
144
279
418
44
270
93
149
47
285
118
354
370
16
385
96
67
61
31
153
302
201
404
259
290
35

>  <PUBCHEM_MMFF94_PARTIAL_CHARGES>  (1) 
10
1 -0.14
12 0.67
13 0.67
2 -0.14
4 -0.38
5 -0.38
6 -0.43
7 -0.43
8 0.28
9 0.28

>  <PUBCHEM_EFFECTIVE_ROTOR_COUNT>  (1) 
8

>  <PUBCHEM_PHARMACOPHORE_FEATURES>  (1) 
2
1 4 acceptor
1 5 acceptor

>  <PUBCHEM_HEAVY_ATOM_COUNT>  (1) 
13

>  <PUBCHEM_ATOM_DEF_STEREO_COUNT>  (1) 
0

>  <PUBCHEM_ATOM_UDEF_STEREO_COUNT>  (1) 
0

>  <PUBCHEM_BOND_DEF_STEREO_COUNT>  (1) 
0

>  <PUBCHEM_BOND_UDEF_STEREO_COUNT>  (1) 
0

>  <PUBCHEM_ISOTOPIC_ATOM_COUNT>  (1) 
0

>  <PUBCHEM_COMPONENT_COUNT>  (1) 
1

>  <PUBCHEM_CACTVS_TAUTO_COUNT>  (1) 
1

>  <PUBCHEM_CONFORMER_ID>  (1) 
00003DC700000001

>  <PUBCHEM_MMFF94_ENERGY>  (1) 
3.11

>  <PUBCHEM_FEATURE_SELFOVERLAP>  (1) 
10.149

>  <PUBCHEM_SHAPE_FINGERPRINT>  (1) 
10014705 185 18409726266524923509
12500047 106 18271801354340495335
13214271 11 18336543927472590574
13544592 145 18263651653732987183
14251718 22 18341606058091165151
15375358 24 18410291414968876370
17834072 33 18059848493701261829
18186145 218 17967532328933370702
20645477 56 18260269633733944389
20645477 70 17917997131295188470
22959321 60 18337391642590264322
23402539 116 18260821648916771560
23402655 69 18131631192700063392
23532345 1 18273495658993659766
23557571 272 18115323266159391958
23559900 14 18338237064132566222
449060 50 18413392050759917303
57812782 119 9367347020023781650
633830 44 18196082258218098133
81539 233 18272091621668993214

>  <PUBCHEM_SHAPE_MULTIPOLES>  (1) 
275.04
10.74
2.31
1.17
0.4
0.18
0.02
-7.12
-0.07
-0.24
0
0.05
0.61
1.92

>  <PUBCHEM_SHAPE_SELFOVERLAP>  (1) 
453.774

>  <PUBCHEM_SHAPE_VOLUME>  (1) 
190.7

>  <PUBCHEM_COORDINATE_TYPE>  (1) 
2
5
10

$$$$
