15817
     RDKit          3D

 11 10  0  0  0  0  0  0  0  0999 V2000
    0.6427   -0.3615    0.2672 O   0  0  0  0  0  0  0  0  0  0  0  0
   -2.3203    0.5961   -1.2349 O   0  0  0  0  0  0  0  0  0  0  0  0
   -1.6220   -0.9000    0.3996 N   0  0  0  0  0  0  0  0  0  0  0  0
    2.9429    0.3041    0.2904 C   0  0  0  0  0  0  0  0  0  0  0  0
    4.3431    0.0269   -0.2493 C   0  0  0  0  0  0  0  0  0  0  0  0
    1.9228   -0.6825   -0.2599 C   0  0  0  0  0  0  0  0  0  0  0  0
    5.3507    1.0405    0.2689 C   0  0  0  0  0  0  0  0  0  0  0  0
   -0.3575   -1.2521   -0.2124 C   0  0  0  0  0  0  0  0  0  0  0  0
   -2.4992    0.0039   -0.1756 C   0  0  0  0  0  0  0  0  0  0  0  0
   -3.7202    0.1936    0.6516 C   0  0  0  0  0  0  0  0  0  0  0  0
   -4.6830    1.0311    0.2543 C   0  0  0  0  0  0  0  0  0  0  0  0
  1  6  1  0
  1  8  1  0
  2  9  2  0
  3  8  1  0
  3  9  1  0
  4  5  1  0
  4  6  1  0
  5  7  1  0
  9 10  1  0
 10 11  2  0
M  END
>  <PUBCHEM_COMPOUND_CID>  (1) 
15817

>  <PUBCHEM_CONFORMER_RMSD>  (1) 
0.8

>  <PUBCHEM_CONFORMER_DIVERSEORDER>  (1) 
1
36
9
35
15
42
31
26
19
53
2
22
4
5
40
16
20
52
28
50
3
27
55
17
8
30
46
45
11
29
32
47
38
18
51
25
14
54
34
48
6
24
49
44
12
10
21
7
37
41
43
13
39
23
33

>  <PUBCHEM_MMFF94_PARTIAL_CHARGES>  (1) 
12
1 -0.56
10 -0.14
11 -0.3
2 -0.57
23 0.37
24 0.15
25 0.15
26 0.15
3 -0.73
6 0.28
8 0.58
9 0.62

>  <PUBCHEM_EFFECTIVE_ROTOR_COUNT>  (1) 
7

>  <PUBCHEM_PHARMACOPHORE_FEATURES>  (1) 
5
1 1 acceptor
1 11 hydrophobe
1 2 acceptor
1 3 donor
1 7 hydrophobe

>  <PUBCHEM_HEAVY_ATOM_COUNT>  (1) 
11

>  <PUBCHEM_ATOM_DEF_STEREO_COUNT>  (1) 
0

>  <PUBCHEM_ATOM_UDEF_STEREO_COUNT>  (1) 
0

>  <PUBCHEM_BOND_DEF_STEREO_COUNT>  (1) 
0

>  <PUBCHEM_BOND_UDEF_STEREO_COUNT>  (1) 
0

>  <PUBCHEM_ISOTOPIC_ATOM_COUNT>  (1) 
0

>  <PUBCHEM_COMPONENT_COUNT>  (1) 
1

>  <PUBCHEM_CACTVS_TAUTO_COUNT>  (1) 
2

>  <PUBCHEM_CONFORMER_ID>  (1) 
00003DC900000001

>  <PUBCHEM_MMFF94_ENERGY>  (1) 
8.6934

>  <PUBCHEM_FEATURE_SELFOVERLAP>  (1) 
25.371

>  <PUBCHEM_SHAPE_FINGERPRINT>  (1) 
100836 57 18413395336483959728
11062470 55 17703792517960282562
114248 4 15267339621836391313
12251169 10 15864074281871464018
12815109 37 8718828678130125065
13214271 11 18335141994972003791
13690532 89 8862940571981928144
14123238 8 18040718082109767746
14252887 29 14056996097168650760
15501527 16 18410857689638389568
177051 138 8718830886096801490
17834076 25 18131914866879202320
17870717 6 12319461012672229809
18342897 14 18334859411202868104
200 152 8286202738353123958
20211469 26 9007057967518103758
20432913 95 11891325440144916264
20605781 2 18412827962930481809
20645476 183 16056872533663841589
20645477 56 18408041831679932942
20645477 70 17274834506493615342
20671657 53 10592039176246250051
20724930 31 10881402041227208590
20724930 69 18343302565493047770
20767249 213 18334858333340000673
20871999 31 16200138920406578757
21119208 17 15410894058897724432
22485316 2 8214145139999051778
23402539 116 17988918981287040180
23402655 69 17203612566629732784
23403322 49 10087641498511699381
23500284 214 18409733962684318555
42 15 15285358414239835498
42788 4 18342459244411630938
449060 50 17967251996707968078

>  <PUBCHEM_SHAPE_MULTIPOLES>  (1) 
209.66
11.2
1.11
0.79
5.79
0.05
0.12
-5.43
-0.72
-0.01
-0.02
-0.37
-0.06
0.19

>  <PUBCHEM_SHAPE_SELFOVERLAP>  (1) 
383.585

>  <PUBCHEM_SHAPE_VOLUME>  (1) 
133.2

>  <PUBCHEM_COORDINATE_TYPE>  (1) 
2
5
10

$$$$
