15810
     RDKit          3D

 17 18  0  0  0  0  0  0  0  0999 V2000
    0.0090    0.6401    0.0167 S   0  0  0  0  0  0  0  0  0  0  0  0
   -1.0171   -1.5747   -0.9440 O   0  0  0  0  0  0  0  0  0  0  0  0
    1.0458   -1.5996    0.9040 O   0  0  0  0  0  0  0  0  0  0  0  0
   -2.6690   -0.0924   -0.1547 C   0  0  0  0  0  0  0  0  0  0  0  0
    2.6898   -0.0900    0.1506 C   0  0  0  0  0  0  0  0  0  0  0  0
   -3.6860   -0.5270   -1.0049 C   0  0  0  0  0  0  0  0  0  0  0  0
    3.6840   -0.5559    0.9866 C   0  0  0  0  0  0  0  0  0  0  0  0
   -2.9720    0.7265    0.9333 C   0  0  0  0  0  0  0  0  0  0  0  0
    2.9560    0.7537   -0.9087 C   0  0  0  0  0  0  0  0  0  0  0  0
   -1.2934   -0.4935   -0.4020 C   0  0  0  0  0  0  0  0  0  0  0  0
    1.2880   -0.5105    0.3986 C   0  0  0  0  0  0  0  0  0  0  0  0
   -5.0056   -0.1424   -0.7676 C   0  0  0  0  0  0  0  0  0  0  0  0
    5.0013   -0.1610    0.7536 C   0  0  0  0  0  0  0  0  0  0  0  0
   -4.2918    1.1109    1.1706 C   0  0  0  0  0  0  0  0  0  0  0  0
    4.2734    1.1484   -1.1417 C   0  0  0  0  0  0  0  0  0  0  0  0
   -5.3085    0.6763    0.3201 C   0  0  0  0  0  0  0  0  0  0  0  0
    5.2960    0.6910   -0.3106 C   0  0  0  0  0  0  0  0  0  0  0  0
  1 10  1  0
  1 11  1  0
  2 10  2  0
  3 11  2  0
  4  6  2  0
  4  8  1  0
  4 10  1  0
  5  7  2  0
  5  9  1  0
  5 11  1  0
  6 12  1  0
  7 13  1  0
  8 14  2  0
  9 15  2  0
 12 16  2  0
 13 17  2  0
 14 16  1  0
 15 17  1  0
M  END
>  <PUBCHEM_COMPOUND_CID>  (1) 
15810

>  <PUBCHEM_CONFORMER_RMSD>  (1) 
0.6

>  <PUBCHEM_CONFORMER_DIVERSEORDER>  (1) 
1
53
9
33
62
24
12
56
52
72
57
7
11
42
34
41
23
68
18
10
43
47
20
49
8
36
61
22
55
21
58
30
13
59
2
54
6
38
17
46
5
66
45
31
15
60
39
67
4
32
27
73
28
71
51
35
37
16
69
44
50
14
48
40
3
25
29
19
63
26
65
74
64
70

>  <PUBCHEM_MMFF94_PARTIAL_CHARGES>  (1) 
27
1 -0.28
10 0.62
11 0.62
12 -0.15
13 -0.15
14 -0.15
15 -0.15
16 -0.15
17 -0.15
18 0.15
19 0.15
2 -0.57
20 0.15
21 0.15
22 0.15
23 0.15
24 0.15
25 0.15
26 0.15
27 0.15
3 -0.57
4 0.09
5 0.09
6 -0.15
7 -0.15
8 -0.15
9 -0.15

>  <PUBCHEM_EFFECTIVE_ROTOR_COUNT>  (1) 
4

>  <PUBCHEM_PHARMACOPHORE_FEATURES>  (1) 
2
6 4 6 8 12 14 16 rings
6 5 7 9 13 15 17 rings

>  <PUBCHEM_HEAVY_ATOM_COUNT>  (1) 
17

>  <PUBCHEM_ATOM_DEF_STEREO_COUNT>  (1) 
0

>  <PUBCHEM_ATOM_UDEF_STEREO_COUNT>  (1) 
0

>  <PUBCHEM_BOND_DEF_STEREO_COUNT>  (1) 
0

>  <PUBCHEM_BOND_UDEF_STEREO_COUNT>  (1) 
0

>  <PUBCHEM_ISOTOPIC_ATOM_COUNT>  (1) 
0

>  <PUBCHEM_COMPONENT_COUNT>  (1) 
1

>  <PUBCHEM_CACTVS_TAUTO_COUNT>  (1) 
1

>  <PUBCHEM_CONFORMER_ID>  (1) 
00003DC200000001

>  <PUBCHEM_MMFF94_ENERGY>  (1) 
53.0166

>  <PUBCHEM_FEATURE_SELFOVERLAP>  (1) 
10.149

>  <PUBCHEM_SHAPE_FINGERPRINT>  (1) 
10 15 15792013441751150076
10354089 29 17894916234949957636
10498660 4 17632578193527695345
10680689 15 16988845007926926535
10912923 1 18408881849641296907
11045977 3 15791736320910927960
11287383 113 16081091493231459036
114248 4 15698280018661739973
12107183 9 17615684038347378961
12236239 1 18410854360616534016
12916748 109 17632300077109544475
13167372 99 18041556927967670277
13631057 29 18190176979024576867
13675066 3 15791733013764829182
13760787 5 18186799179754026516
14251718 22 16558747935923970037
14341114 176 16226051080573066932
14386348 63 15502375612477584385
14573314 32 16200437952703446072
15242439 84 15841552972261903340
15375358 24 16370724816519185611
15788980 27 16443062807038148818
17834072 33 18335419110192944559
17844677 252 16081091463066442373
18785283 64 15286504208519798180
19489759 90 17418374692552421805
200 152 18113330908292961861
20279233 1 16225769588722370795
204376 136 17967535679145154723
20645477 70 17458615680084334482
21033648 29 16660910171278870765
212847 35 18408884049255545504
221357 26 14333126343414034155
22854114 59 17022623078404400779
2297311 6 16702025296783045385
23402539 116 17489862739409062253
23402655 69 18336830887771254862
23536379 177 17418096494825636166
23557571 272 16630814308875265609
23559900 14 15985382304795126186
26918003 58 16370725928451783801
2916195 48 17131821088765368080
300161 21 18412538812446234528
3004659 81 17703517593420875470
3268164 11 17489297573674743317
32948 21 16773806857156356912
34797466 226 16630248111916168240
3545911 37 17131836456401036637
474 4 18187086178269643768
4990 188 16487257664147728366
5104073 3 17677611037791128048
5283173 99 15697728012390491298
542803 24 18411700988870248037
5924683 9 16443921590687621363
7495541 125 14418141729187718132

>  <PUBCHEM_SHAPE_MULTIPOLES>  (1) 
341.96
13.06
1.2
1.17
0.13
0.15
0
-3.18
0.1
-0.12
-0.01
0.11
-0.04
-1.51

>  <PUBCHEM_SHAPE_SELFOVERLAP>  (1) 
723.729

>  <PUBCHEM_SHAPE_VOLUME>  (1) 
190.4

>  <PUBCHEM_COORDINATE_TYPE>  (1) 
2
5
10

$$$$
