15823
     RDKit          3D

 15 16  0  0  0  0  0  0  0  0999 V2000
    3.5346    2.5173   -0.7429 Cl  0  0  0  0  0  0  0  0  0  0  0  0
    0.7939    0.8240    0.3707 N   0  0  0  0  0  0  0  0  0  0  0  0
    0.4373   -1.4754   -0.2150 N   0  0  0  0  0  0  0  0  0  0  0  0
    2.6658   -0.6591    0.1385 N   0  0  0  0  0  0  0  0  0  0  0  0
    2.2865   -2.9014   -0.4337 N   0  0  0  0  0  0  0  0  0  0  0  0
   -1.3996    0.0018    0.0181 C   0  0  0  0  0  0  0  0  0  0  0  0
    0.0281   -0.2302    0.0604 C   0  0  0  0  0  0  0  0  0  0  0  0
   -1.8916    1.2591   -0.3324 C   0  0  0  0  0  0  0  0  0  0  0  0
   -2.2838   -1.0318    0.3273 C   0  0  0  0  0  0  0  0  0  0  0  0
    2.1050    0.5347    0.3906 C   0  0  0  0  0  0  0  0  0  0  0  0
   -3.2678    1.4829   -0.3735 C   0  0  0  0  0  0  0  0  0  0  0  0
   -3.6600   -0.8079    0.2860 C   0  0  0  0  0  0  0  0  0  0  0  0
    1.7715   -1.6160   -0.1570 C   0  0  0  0  0  0  0  0  0  0  0  0
   -4.1519    0.4494   -0.0644 C   0  0  0  0  0  0  0  0  0  0  0  0
    3.0321    1.6525    0.7273 C   0  0  0  0  0  0  0  0  0  0  0  0
  1 15  1  0
  2  7  2  0
  2 10  1  0
  3  7  1  0
  3 13  2  0
  4 10  2  0
  4 13  1  0
  5 13  1  0
  6  7  1  0
  6  8  2  0
  6  9  1  0
  8 11  1  0
  9 12  2  0
 10 15  1  0
 11 14  2  0
 12 14  1  0
M  END
>  <PUBCHEM_COMPOUND_CID>  (1) 
15823

>  <PUBCHEM_CONFORMER_RMSD>  (1) 
0.6

>  <PUBCHEM_CONFORMER_DIVERSEORDER>  (1) 
1
2
5
3
4

>  <PUBCHEM_MMFF94_PARTIAL_CHARGES>  (1) 
21
1 -0.29
10 0.48
11 -0.15
12 -0.15
13 0.72
14 -0.15
15 0.43
16 0.15
17 0.15
18 0.15
19 0.15
2 -0.62
20 0.15
23 0.4
24 0.4
3 -0.62
4 -0.62
5 -0.9
7 0.62
8 -0.15
9 -0.15

>  <PUBCHEM_EFFECTIVE_ROTOR_COUNT>  (1) 
2

>  <PUBCHEM_PHARMACOPHORE_FEATURES>  (1) 
4
1 5 donor
4 3 4 5 13 cation
6 2 3 4 7 10 13 rings
6 6 8 9 11 12 14 rings

>  <PUBCHEM_HEAVY_ATOM_COUNT>  (1) 
15

>  <PUBCHEM_ATOM_DEF_STEREO_COUNT>  (1) 
0

>  <PUBCHEM_ATOM_UDEF_STEREO_COUNT>  (1) 
0

>  <PUBCHEM_BOND_DEF_STEREO_COUNT>  (1) 
0

>  <PUBCHEM_BOND_UDEF_STEREO_COUNT>  (1) 
0

>  <PUBCHEM_ISOTOPIC_ATOM_COUNT>  (1) 
0

>  <PUBCHEM_COMPONENT_COUNT>  (1) 
1

>  <PUBCHEM_CACTVS_TAUTO_COUNT>  (1) 
4

>  <PUBCHEM_CONFORMER_ID>  (1) 
00003DCF00000001

>  <PUBCHEM_MMFF94_ENERGY>  (1) 
40.8329

>  <PUBCHEM_FEATURE_SELFOVERLAP>  (1) 
20.297

>  <PUBCHEM_SHAPE_FINGERPRINT>  (1) 
10608611 8 18337104579893068357
107287 299 18272374204019220275
10980938 120 18341891909053994360
11031198 65 18343582966559311180
11471102 20 18342171142015552352
12932764 1 17417800773315862577
13296908 3 18335422331555683555
13380535 21 18412830209040018099
13380535 76 18336260249183022874
14026960 21 18189901009362034840
14123255 52 18194963174229772700
14325111 11 18410852157641339033
14415576 193 18408886256562832468
14648413 74 18337953376772554850
15219456 202 18410572868829193411
15375462 6 18410855473203123805
15442244 35 18054228726325707457
15502722 9 18412548704067082302
15775835 57 18130224972861941477
16945 1 18268423706064402099
17134986 127 18265338481328299516
18186145 218 18115304450171080981
20645477 56 18113898209423086445
20645477 70 18271801277279049711
20671657 53 17983582896770749758
21501502 16 18412540998985436907
21524375 3 18264202689963756176
221490 88 18410300189587419466
2255824 54 18338517435065408942
22854114 111 18343016705180765064
22943178 12 18334574608090564283
23366157 5 18186802448593702602
23559900 14 18339072675309635578
2748010 2 18336264557283075527
3071541 158 18265897956510298686
3071541 37 18410860975383108628
449060 50 18335704966215788053
449060 62 18341335564802693105
458136 41 18268447861102912810
4990 188 17703241718596163428
5104073 3 18409167688942980617
57096353 35 18129370652685895101
58051976 378 18340485659483794084
7364860 26 18341894056880624534
7808743 9 17618216652204402192
81539 233 18336262431258368270
9709674 26 18409450271805553083

>  <PUBCHEM_SHAPE_MULTIPOLES>  (1) 
290.64
7.14
2.5
0.74
2.47
0.68
0
-2.96
-0.16
-2.55
-0.54
-0.24
-0.14
0.33

>  <PUBCHEM_SHAPE_SELFOVERLAP>  (1) 
615.439

>  <PUBCHEM_SHAPE_VOLUME>  (1) 
162.3

>  <PUBCHEM_COORDINATE_TYPE>  (1) 
2
5
10

$$$$
