15820
     RDKit          3D

  9  9  0  0  0  0  0  0  0  0999 V2000
    0.0009   -1.3766    0.0001 N   0  0  0  0  0  0  0  0  0  0  0  0
   -1.2002    0.7006    0.0002 N   0  0  0  0  0  0  0  0  0  0  0  0
    1.1993    0.7023    0.0001 N   0  0  0  0  0  0  0  0  0  0  0  0
   -0.0020    2.7161   -0.0002 N   0  0  0  0  0  0  0  0  0  0  0  0
    1.1226   -0.6382    0.0001 C   0  0  0  0  0  0  0  0  0  0  0  0
   -1.1217   -0.6399    0.0001 C   0  0  0  0  0  0  0  0  0  0  0  0
   -0.0010    1.3044    0.0001 C   0  0  0  0  0  0  0  0  0  0  0  0
    2.4141   -1.3826   -0.0002 C   0  0  0  0  0  0  0  0  0  0  0  0
   -2.4120   -1.3861   -0.0003 C   0  0  0  0  0  0  0  0  0  0  0  0
  1  5  2  0
  1  6  1  0
  2  6  2  0
  2  7  1  0
  3  5  1  0
  3  7  2  0
  4  7  1  0
  5  8  1  0
  6  9  1  0
M  END
>  <PUBCHEM_COMPOUND_CID>  (1) 
15820

>  <PUBCHEM_CONFORMER_RMSD>  (1) 
0.4

>  <PUBCHEM_CONFORMER_DIVERSEORDER>  (1) 
1

>  <PUBCHEM_MMFF94_PARTIAL_CHARGES>  (1) 
11
1 -0.62
16 0.4
17 0.4
2 -0.62
3 -0.62
4 -0.9
5 0.48
6 0.48
7 0.72
8 0.14
9 0.14

>  <PUBCHEM_EFFECTIVE_ROTOR_COUNT>  (1) 
0

>  <PUBCHEM_PHARMACOPHORE_FEATURES>  (1) 
3
1 4 donor
4 2 3 4 7 cation
6 1 2 3 5 6 7 rings

>  <PUBCHEM_HEAVY_ATOM_COUNT>  (1) 
9

>  <PUBCHEM_ATOM_DEF_STEREO_COUNT>  (1) 
0

>  <PUBCHEM_ATOM_UDEF_STEREO_COUNT>  (1) 
0

>  <PUBCHEM_BOND_DEF_STEREO_COUNT>  (1) 
0

>  <PUBCHEM_BOND_UDEF_STEREO_COUNT>  (1) 
0

>  <PUBCHEM_ISOTOPIC_ATOM_COUNT>  (1) 
0

>  <PUBCHEM_COMPONENT_COUNT>  (1) 
1

>  <PUBCHEM_CACTVS_TAUTO_COUNT>  (1) 
3

>  <PUBCHEM_CONFORMER_ID>  (1) 
00003DCC00000001

>  <PUBCHEM_MMFF94_ENERGY>  (1) 
21.39

>  <PUBCHEM_FEATURE_SELFOVERLAP>  (1) 
15.223

>  <PUBCHEM_SHAPE_FINGERPRINT>  (1) 
18185500 45 18411139168503943991
21040471 1 17474106501665137414
23552423 10 18188217481361909054
23552449 1 18339075965407396110
241688 4 18410573955086699970
2748010 2 18411694387510717526
29004967 10 18264489657760656715

>  <PUBCHEM_SHAPE_MULTIPOLES>  (1) 
165.29
2.61
2.33
0.58
0
1.6
0
-1.88
0
0
0
0
-0.03
0

>  <PUBCHEM_SHAPE_SELFOVERLAP>  (1) 
335.938

>  <PUBCHEM_SHAPE_VOLUME>  (1) 
91.4

>  <PUBCHEM_COORDINATE_TYPE>  (1) 
2
5
10

$$$$
