15822
     RDKit          3D

 13 14  0  0  0  0  0  0  0  0999 V2000
    1.2265   -0.8567   -0.1719 N   0  0  0  0  0  0  0  0  0  0  0  0
    0.9292    1.4807    0.2812 N   0  0  0  0  0  0  0  0  0  0  0  0
    3.1399    0.5661    0.0968 N   0  0  0  0  0  0  0  0  0  0  0  0
    3.3988   -1.7221   -0.3478 N   0  0  0  0  0  0  0  0  0  0  0  0
   -0.9489    0.0616    0.0156 C   0  0  0  0  0  0  0  0  0  0  0  0
    0.4869    0.2392    0.0427 C   0  0  0  0  0  0  0  0  0  0  0  0
   -1.7738    1.1098   -0.3922 C   0  0  0  0  0  0  0  0  0  0  0  0
   -1.5079   -1.1580    0.3969 C   0  0  0  0  0  0  0  0  0  0  0  0
   -3.1579    0.9385   -0.4185 C   0  0  0  0  0  0  0  0  0  0  0  0
   -2.8920   -1.3295    0.3705 C   0  0  0  0  0  0  0  0  0  0  0  0
   -3.7169   -0.2812   -0.0373 C   0  0  0  0  0  0  0  0  0  0  0  0
    2.5471   -0.6172   -0.1299 C   0  0  0  0  0  0  0  0  0  0  0  0
    2.2690    1.5690    0.2938 C   0  0  0  0  0  0  0  0  0  0  0  0
  1  6  2  0
  1 12  1  0
  2  6  1  0
  2 13  2  0
  3 12  2  0
  3 13  1  0
  4 12  1  0
  5  6  1  0
  5  7  2  0
  5  8  1  0
  7  9  1  0
  8 10  2  0
  9 11  2  0
 10 11  1  0
M  END
>  <PUBCHEM_COMPOUND_CID>  (1) 
15822

>  <PUBCHEM_CONFORMER_RMSD>  (1) 
0.4

>  <PUBCHEM_CONFORMER_DIVERSEORDER>  (1) 
1
2
3

>  <PUBCHEM_MMFF94_PARTIAL_CHARGES>  (1) 
20
1 -0.62
10 -0.15
11 -0.15
12 0.72
13 0.47
14 0.15
15 0.15
16 0.15
17 0.15
18 0.15
19 0.15
2 -0.62
20 0.4
21 0.4
3 -0.62
4 -0.9
6 0.62
7 -0.15
8 -0.15
9 -0.15

>  <PUBCHEM_EFFECTIVE_ROTOR_COUNT>  (1) 
1

>  <PUBCHEM_PHARMACOPHORE_FEATURES>  (1) 
4
1 4 donor
4 1 3 4 12 cation
6 1 2 3 6 12 13 rings
6 5 7 8 9 10 11 rings

>  <PUBCHEM_HEAVY_ATOM_COUNT>  (1) 
13

>  <PUBCHEM_ATOM_DEF_STEREO_COUNT>  (1) 
0

>  <PUBCHEM_ATOM_UDEF_STEREO_COUNT>  (1) 
0

>  <PUBCHEM_BOND_DEF_STEREO_COUNT>  (1) 
0

>  <PUBCHEM_BOND_UDEF_STEREO_COUNT>  (1) 
0

>  <PUBCHEM_ISOTOPIC_ATOM_COUNT>  (1) 
0

>  <PUBCHEM_COMPONENT_COUNT>  (1) 
1

>  <PUBCHEM_CACTVS_TAUTO_COUNT>  (1) 
4

>  <PUBCHEM_CONFORMER_ID>  (1) 
00003DCE00000001

>  <PUBCHEM_MMFF94_ENERGY>  (1) 
39.4586

>  <PUBCHEM_FEATURE_SELFOVERLAP>  (1) 
20.297

>  <PUBCHEM_SHAPE_FINGERPRINT>  (1) 
10130415 120 18340202982079478560
10608611 8 18409442613662501957
10922523 26 18408321090258281685
11471102 20 18413103957170148725
12032990 46 18410297994906155671
12932764 1 17632292436273203317
13296908 3 18410013238563920347
13571099 22 18342738498610726629
14144814 61 18411419509735694353
14325111 11 18409728478132368077
15219456 202 18410854382175870497
15442244 35 18268995288923349984
16945 1 18263355902474472729
17844478 74 18260274079035638889
17990270 104 18410011065568769096
18186145 218 18186798046009286837
19973954 147 18409449210700509645
200 152 17846207869987044231
20201158 50 18412263921723083863
20279233 1 18409727391273416763
20645477 70 18343580720259942735
20871998 22 17986398793731786022
21501502 16 18410858780349027613
21501925 9 18411689977091111506
23402655 69 18342167852545727965
23552423 10 18113900506681528083
23559900 14 18337667500214241778
2748010 2 18409164437067239197
5104073 3 18410293614266264105
57812782 119 18409162225306755213
6333449 129 18335134319664868775
69090 78 18341044194770004215
7364860 26 18341895246639553424
8809292 202 18334019380066595067
93112 12 18409448076776077807
9709674 26 18336548325545943123

>  <PUBCHEM_SHAPE_MULTIPOLES>  (1) 
247.61
6.24
1.66
0.67
0.04
0.04
0
0.95
-0.31
-0.53
0.03
0.08
0
0.64

>  <PUBCHEM_SHAPE_SELFOVERLAP>  (1) 
538.226

>  <PUBCHEM_SHAPE_VOLUME>  (1) 
128.3

>  <PUBCHEM_COORDINATE_TYPE>  (1) 
2
5
10

$$$$
