15835
     RDKit          3D

 12 12  0  0  0  0  0  0  0  0999 V2000
   -4.1830    1.1606    0.2891 O   0  0  0  0  0  0  0  0  0  0  0  0
   -3.9151   -1.0473   -0.2180 O   0  0  0  0  0  0  0  0  0  0  0  0
    3.0657    0.1592    0.0280 C   0  0  0  0  0  0  0  0  0  0  0  0
    0.3167   -0.3045   -0.0744 C   0  0  0  0  0  0  0  0  0  0  0  0
    2.1850    1.2250   -0.1564 C   0  0  0  0  0  0  0  0  0  0  0  0
    2.5719   -1.1385    0.1611 C   0  0  0  0  0  0  0  0  0  0  0  0
    0.8104    0.9932   -0.2074 C   0  0  0  0  0  0  0  0  0  0  0  0
    1.1974   -1.3704    0.1098 C   0  0  0  0  0  0  0  0  0  0  0  0
    4.5352    0.4075    0.0836 C   0  0  0  0  0  0  0  0  0  0  0  0
   -1.1166   -0.5462   -0.1278 C   0  0  0  0  0  0  0  0  0  0  0  0
   -2.0172    0.4082    0.0863 C   0  0  0  0  0  0  0  0  0  0  0  0
   -3.4503    0.0533    0.0261 C   0  0  0  0  0  0  0  0  0  0  0  0
  1 12  1  0
  2 12  2  0
  3  5  2  0
  3  6  1  0
  3  9  1  0
  4  7  2  0
  4  8  1  0
  4 10  1  0
  5  7  1  0
  6  8  2  0
 10 11  2  0
 11 12  1  0
M  END
>  <PUBCHEM_COMPOUND_CID>  (1) 
15835

>  <PUBCHEM_CONFORMER_RMSD>  (1) 
0.6

>  <PUBCHEM_CONFORMER_DIVERSEORDER>  (1) 
1

>  <PUBCHEM_MMFF94_PARTIAL_CHARGES>  (1) 
19
1 -0.65
10 -0.18
11 -0.14
12 0.71
13 0.15
14 0.15
15 0.15
16 0.15
2 -0.57
20 0.15
21 0.15
22 0.5
3 -0.14
4 0.03
5 -0.15
6 -0.15
7 -0.15
8 -0.15
9 0.14

>  <PUBCHEM_EFFECTIVE_ROTOR_COUNT>  (1) 
2

>  <PUBCHEM_PHARMACOPHORE_FEATURES>  (1) 
4
1 1 acceptor
1 2 acceptor
3 1 2 12 anion
6 3 4 5 6 7 8 rings

>  <PUBCHEM_HEAVY_ATOM_COUNT>  (1) 
12

>  <PUBCHEM_ATOM_DEF_STEREO_COUNT>  (1) 
0

>  <PUBCHEM_ATOM_UDEF_STEREO_COUNT>  (1) 
0

>  <PUBCHEM_BOND_DEF_STEREO_COUNT>  (1) 
0

>  <PUBCHEM_BOND_UDEF_STEREO_COUNT>  (1) 
1

>  <PUBCHEM_ISOTOPIC_ATOM_COUNT>  (1) 
0

>  <PUBCHEM_COMPONENT_COUNT>  (1) 
1

>  <PUBCHEM_CACTVS_TAUTO_COUNT>  (1) 
1

>  <PUBCHEM_CONFORMER_ID>  (1) 
00003DDB00000001

>  <PUBCHEM_MMFF94_ENERGY>  (1) 
30.9402

>  <PUBCHEM_FEATURE_SELFOVERLAP>  (1) 
20.353

>  <PUBCHEM_SHAPE_FINGERPRINT>  (1) 
10219947 1 18040435503463644628
10980938 120 18408602539607775538
11062470 55 18202001027567149616
11471102 20 18408600340531577732
12346645 6 18343302531344533542
12932764 1 16630232645891526295
13380535 76 18335702771049987834
13922767 16 18413386557697504728
14144814 61 18411418393160235339
14251717 144 18408319994936392374
14325111 11 18410856568567340799
15442244 35 18051413967894676785
15775835 57 18342458148910172821
18186145 218 18261673684049099055
190213 19 17703792513501700481
200 152 18343292691811633903
20201158 50 18187366527680255394
20279233 1 16950002530492747787
20645477 70 18338793399630818527
20671657 1 18118410776251393028
20871998 22 18052537665053677734
23402539 116 17418087719732924261
23402655 69 18412258411554291509
4990 188 18059586784396195094
5104073 3 18410573972424968187

>  <PUBCHEM_SHAPE_MULTIPOLES>  (1) 
235.22
7.93
1.32
0.62
3.72
0.08
0
-1.02
0.39
-0.17
0.01
-0.03
0
-0.25

>  <PUBCHEM_SHAPE_SELFOVERLAP>  (1) 
488.488

>  <PUBCHEM_SHAPE_VOLUME>  (1) 
134.5

>  <PUBCHEM_COORDINATE_TYPE>  (1) 
2
5
10

$$$$
