15846
     RDKit          3D

 12 12  0  0  0  0  0  0  0  0999 V2000
    1.9636   -2.4708   -0.3566 N   0  0  0  0  0  0  0  0  0  0  0  0
    3.9226    1.3952    0.0953 N   0  0  0  0  0  0  0  0  0  0  0  0
    0.6101    0.5455    0.7915 C   0  0  0  0  0  0  0  0  0  0  0  0
   -0.8135    0.3377    0.3980 C   0  0  0  0  0  0  0  0  0  0  0  0
    1.6353    0.1446   -0.2997 C   0  0  0  0  0  0  0  0  0  0  0  0
   -1.5185    1.3614   -0.2353 C   0  0  0  0  0  0  0  0  0  0  0  0
   -1.4399   -0.8802    0.6628 C   0  0  0  0  0  0  0  0  0  0  0  0
   -2.8498    1.1673   -0.6036 C   0  0  0  0  0  0  0  0  0  0  0  0
   -2.7712   -1.0743    0.2944 C   0  0  0  0  0  0  0  0  0  0  0  0
   -3.4760   -0.0506   -0.3388 C   0  0  0  0  0  0  0  0  0  0  0  0
    1.8208   -1.3193   -0.3304 C   0  0  0  0  0  0  0  0  0  0  0  0
    2.9164    0.8434   -0.0775 C   0  0  0  0  0  0  0  0  0  0  0  0
  1 11  3  0
  2 12  3  0
  3  4  1  0
  3  5  1  0
  4  6  2  0
  4  7  1  0
  5 11  1  0
  5 12  1  0
  6  8  1  0
  7  9  2  0
  8 10  2  0
  9 10  1  0
M  END
>  <PUBCHEM_COMPOUND_CID>  (1) 
15846

>  <PUBCHEM_CONFORMER_RMSD>  (1) 
0.6

>  <PUBCHEM_CONFORMER_DIVERSEORDER>  (1) 
1
6
4
3
5
7
2

>  <PUBCHEM_MMFF94_PARTIAL_CHARGES>  (1) 
17
1 -0.56
10 -0.15
11 0.36
12 0.36
16 0.15
17 0.15
18 0.15
19 0.15
2 -0.56
20 0.15
3 0.14
4 -0.14
5 0.4
6 -0.15
7 -0.15
8 -0.15
9 -0.15

>  <PUBCHEM_EFFECTIVE_ROTOR_COUNT>  (1) 
2

>  <PUBCHEM_PHARMACOPHORE_FEATURES>  (1) 
3
1 1 acceptor
1 2 acceptor
6 4 6 7 8 9 10 rings

>  <PUBCHEM_HEAVY_ATOM_COUNT>  (1) 
12

>  <PUBCHEM_ATOM_DEF_STEREO_COUNT>  (1) 
0

>  <PUBCHEM_ATOM_UDEF_STEREO_COUNT>  (1) 
0

>  <PUBCHEM_BOND_DEF_STEREO_COUNT>  (1) 
0

>  <PUBCHEM_BOND_UDEF_STEREO_COUNT>  (1) 
0

>  <PUBCHEM_ISOTOPIC_ATOM_COUNT>  (1) 
0

>  <PUBCHEM_COMPONENT_COUNT>  (1) 
1

>  <PUBCHEM_CACTVS_TAUTO_COUNT>  (1) 
1

>  <PUBCHEM_CONFORMER_ID>  (1) 
00003DE600000001

>  <PUBCHEM_MMFF94_ENERGY>  (1) 
21.9134

>  <PUBCHEM_FEATURE_SELFOVERLAP>  (1) 
15.223

>  <PUBCHEM_SHAPE_FINGERPRINT>  (1) 
10608611 8 18336262357922515180
107287 299 18130792278102079006
12716758 59 18188210884318022467
12897270 3 18410859879707674588
12932764 1 17532376365835285401
13380535 76 18335136518398214466
14325111 11 18336544932684952213
15219456 202 18409451366678802411
15310529 11 18272366451824810229
15775835 57 18059856198598453159
16945 1 18336559307877136433
18186145 218 18042686100755175773
18619055 16 18271802380800612967
20201158 50 18410855481703231625
20279233 1 18408325492684194891
20645477 56 18186801336223806789
20645477 70 18200872873029577255
20653085 51 18117562825590551385
20671657 53 18055363435669728478
21501502 16 18271527472860559449
22802520 49 18262808341462738955
23402539 116 17896308276473184207
23552423 10 18262518078951480707
23557571 272 17967534588370803661
23559900 14 18267576906576862642
2748010 2 18335148552764773855
3248919 1 18340759343431897857
58051976 378 18413105091094282076
7364860 26 18341049606275777226
8030462 33 17775566403353767048

>  <PUBCHEM_SHAPE_MULTIPOLES>  (1) 
236.99
6
1.83
0.79
1.3
0.79
-0.05
-1.16
0.69
0.89
0.22
-0.13
0
0.58

>  <PUBCHEM_SHAPE_SELFOVERLAP>  (1) 
485.925

>  <PUBCHEM_SHAPE_VOLUME>  (1) 
132.6

>  <PUBCHEM_COORDINATE_TYPE>  (1) 
2
5
10

$$$$
