15842
     RDKit          3D

 13 13  0  0  1  0  0  0  0  0999 V2000
    0.8307   -2.5476    0.1610 Br  0  0  0  0  0  0  0  0  0  0  0  0
    1.6199    2.7070   -0.5511 N   0  0  0  0  0  0  0  0  0  0  0  0
    4.0292   -0.8267    0.0928 N   0  0  0  0  0  0  0  0  0  0  0  0
    0.5717   -0.6573   -0.3881 C   0  0  0  0  0  0  0  0  0  0  0  0
   -0.8662   -0.3310   -0.1626 C   0  0  0  0  0  0  0  0  0  0  0  0
    1.6216    0.2251    0.3498 C   0  0  0  0  0  0  0  0  0  0  0  0
   -1.8036   -0.5814   -1.1647 C   0  0  0  0  0  0  0  0  0  0  0  0
   -1.2733    0.2249    1.0501 C   0  0  0  0  0  0  0  0  0  0  0  0
   -3.1483   -0.2758   -0.9541 C   0  0  0  0  0  0  0  0  0  0  0  0
   -2.6180    0.5304    1.2608 C   0  0  0  0  0  0  0  0  0  0  0  0
   -3.5554    0.2800    0.2587 C   0  0  0  0  0  0  0  0  0  0  0  0
    1.6207    1.6155   -0.1565 C   0  0  0  0  0  0  0  0  0  0  0  0
    2.9710   -0.3630    0.2039 C   0  0  0  0  0  0  0  0  0  0  0  0
  1  4  1  0
  2 12  3  0
  3 13  3  0
  4  5  1  0
  4  6  1  0
  5  7  2  0
  5  8  1  0
  6 12  1  0
  6 13  1  0
  7  9  1  0
  8 10  2  0
  9 11  2  0
 10 11  1  0
M  END
>  <PUBCHEM_COMPOUND_CID>  (1) 
15842

>  <PUBCHEM_CONFORMER_RMSD>  (1) 
0.6

>  <PUBCHEM_CONFORMER_DIVERSEORDER>  (1) 
1
7
4
8
6
3
5
11
10
9
2

>  <PUBCHEM_MMFF94_PARTIAL_CHARGES>  (1) 
18
1 -0.23
10 -0.15
11 -0.15
12 0.36
13 0.36
16 0.15
17 0.15
18 0.15
19 0.15
2 -0.56
20 0.15
3 -0.56
4 0.37
5 -0.14
6 0.4
7 -0.15
8 -0.15
9 -0.15

>  <PUBCHEM_EFFECTIVE_ROTOR_COUNT>  (1) 
2

>  <PUBCHEM_PHARMACOPHORE_FEATURES>  (1) 
4
1 1 hydrophobe
1 2 acceptor
1 3 acceptor
6 5 7 8 9 10 11 rings

>  <PUBCHEM_HEAVY_ATOM_COUNT>  (1) 
13

>  <PUBCHEM_ATOM_DEF_STEREO_COUNT>  (1) 
0

>  <PUBCHEM_ATOM_UDEF_STEREO_COUNT>  (1) 
1

>  <PUBCHEM_BOND_DEF_STEREO_COUNT>  (1) 
0

>  <PUBCHEM_BOND_UDEF_STEREO_COUNT>  (1) 
0

>  <PUBCHEM_ISOTOPIC_ATOM_COUNT>  (1) 
0

>  <PUBCHEM_COMPONENT_COUNT>  (1) 
1

>  <PUBCHEM_CACTVS_TAUTO_COUNT>  (1) 
1

>  <PUBCHEM_CONFORMER_ID>  (1) 
00003DE200000001

>  <PUBCHEM_MMFF94_ENERGY>  (1) 
28.9936

>  <PUBCHEM_FEATURE_SELFOVERLAP>  (1) 
20.297

>  <PUBCHEM_SHAPE_FINGERPRINT>  (1) 
10219947 1 18408604734462644890
124424 183 17603578599919364114
12932764 1 17168415047577429571
13380535 21 17899426556174733812
14115302 16 17917139593982525031
14993402 34 18411420613959072742
15775835 57 17988928911109296113
16945 1 18409170986982172675
17357990 137 17844273828538407753
18175812 5 17603589659655466407
18186145 218 18411979195371500423
18511873 20 18272652346296462038
20645464 45 17240487970722979923
20645476 183 18127134297173660165
20671657 1 18191592062962554068
207724 885 18411418410435076050
21061003 4 18187651258220973342
21130352 189 18259982686726500500
21639500 275 18335693992088887973
23402539 116 15338828721197428721
23552423 10 18272087197552062775
23557571 272 14908185278305287473
2748010 2 18119255201275904914
3286 77 18113903796679295807
5084963 1 18272361005563542678
74978 22 18337675337996560214
77492 1 18060700593416191531
81228 2 16387864810810663010
9981440 41 17266354226532249696

>  <PUBCHEM_SHAPE_MULTIPOLES>  (1) 
263.51
5.66
2.06
1.06
0.14
0.15
0.05
0.11
0.17
1.7
-0.22
-0.76
0.04
-0.61

>  <PUBCHEM_SHAPE_SELFOVERLAP>  (1) 
528.119

>  <PUBCHEM_SHAPE_VOLUME>  (1) 
156.7

>  <PUBCHEM_COORDINATE_TYPE>  (1) 
2
5
10

$$$$
