15853
     RDKit          3D

 10  9  0  0  0  0  0  0  0  0999 V2000
   -1.2186   -0.7203   -0.0166 N   0  0  0  0  0  0  0  0  0  0  0  0
    4.9323    0.4414    0.0154 N   0  0  0  0  0  0  0  0  0  0  0  0
   -2.4623    0.0365    0.0029 C   0  0  0  0  0  0  0  0  0  0  0  0
   -0.0662    0.1730   -0.0138 C   0  0  0  0  0  0  0  0  0  0  0  0
    1.2319   -0.6342   -0.0235 C   0  0  0  0  0  0  0  0  0  0  0  0
   -3.6347   -0.9503    0.0077 C   0  0  0  0  0  0  0  0  0  0  0  0
   -2.4919    0.8943    1.2723 C   0  0  0  0  0  0  0  0  0  0  0  0
   -2.5326    0.9318   -1.2398 C   0  0  0  0  0  0  0  0  0  0  0  0
    2.4544    0.2893   -0.0116 C   0  0  0  0  0  0  0  0  0  0  0  0
    3.7876   -0.4614    0.0069 C   0  0  0  0  0  0  0  0  0  0  0  0
  1  3  1  0
  1  4  1  0
  2 10  1  0
  3  6  1  0
  3  7  1  0
  3  8  1  0
  4  5  1  0
  5  9  1  0
  9 10  1  0
M  END
>  <PUBCHEM_COMPOUND_CID>  (1) 
15853

>  <PUBCHEM_CONFORMER_RMSD>  (1) 
0.6

>  <PUBCHEM_CONFORMER_DIVERSEORDER>  (1) 
1
14
11
5
15
8
12
6
16
17
3
10
13
2
9
4
7

>  <PUBCHEM_MMFF94_PARTIAL_CHARGES>  (1) 
8
1 -0.9
10 0.27
13 0.36
2 -0.99
29 0.36
3 0.27
30 0.36
4 0.27

>  <PUBCHEM_EFFECTIVE_ROTOR_COUNT>  (1) 
5

>  <PUBCHEM_PHARMACOPHORE_FEATURES>  (1) 
5
1 1 cation
1 1 donor
1 2 cation
1 2 donor
4 3 6 7 8 hydrophobe

>  <PUBCHEM_HEAVY_ATOM_COUNT>  (1) 
10

>  <PUBCHEM_ATOM_DEF_STEREO_COUNT>  (1) 
0

>  <PUBCHEM_ATOM_UDEF_STEREO_COUNT>  (1) 
0

>  <PUBCHEM_BOND_DEF_STEREO_COUNT>  (1) 
0

>  <PUBCHEM_BOND_UDEF_STEREO_COUNT>  (1) 
0

>  <PUBCHEM_ISOTOPIC_ATOM_COUNT>  (1) 
0

>  <PUBCHEM_COMPONENT_COUNT>  (1) 
1

>  <PUBCHEM_CACTVS_TAUTO_COUNT>  (1) 
1

>  <PUBCHEM_CONFORMER_ID>  (1) 
00003DED00000001

>  <PUBCHEM_MMFF94_ENERGY>  (1) 
3.2241

>  <PUBCHEM_FEATURE_SELFOVERLAP>  (1) 
25.371

>  <PUBCHEM_SHAPE_FINGERPRINT>  (1) 
10680689 15 17822016389045393486
11062470 55 18260266348057452766
12932764 1 18186516592386080410
13024252 1 15574715790305824749
14123238 8 18409167740392935934
14325111 11 18335137570728498838
14577589 140 8502654809553184769
18186145 218 18411424973371996566
190213 19 18343301457528576950
20279233 1 12829204455852994730
20645464 45 18334020462572199415
20645477 70 17969211253667922314
20828058 21 17821450149447788414
2306618 200 18335980870419741625
23380061 127 17989488515462177907
23402539 116 17703783726262415797
3248919 1 18059571343487806982

>  <PUBCHEM_SHAPE_MULTIPOLES>  (1) 
195.83
8.3
1
0.93
9.01
0.01
-0.02
-0.11
-0.04
-0.59
0.01
-0.84
-0.29
0.02

>  <PUBCHEM_SHAPE_SELFOVERLAP>  (1) 
351.882

>  <PUBCHEM_SHAPE_VOLUME>  (1) 
127.5

>  <PUBCHEM_COORDINATE_TYPE>  (1) 
2
5
10

$$$$
