15857
     RDKit          3D

 23 24  0  0  0  0  0  0  0  0999 V2000
   -5.2609   -1.6528    0.5770 F   0  0  0  0  0  0  0  0  0  0  0  0
   -3.3705   -2.6606    0.2386 F   0  0  0  0  0  0  0  0  0  0  0  0
   -3.6717   -1.5012    2.0535 F   0  0  0  0  0  0  0  0  0  0  0  0
    3.2911    2.7341    1.3716 O   0  0  0  0  0  0  0  0  0  0  0  0
    1.2228    3.1170    0.7435 O   0  0  0  0  0  0  0  0  0  0  0  0
    4.3347   -3.0161   -0.6879 O   0  0  0  0  0  0  0  0  0  0  0  0
    5.4220   -1.4470    0.3959 O   0  0  0  0  0  0  0  0  0  0  0  0
   -0.1410    1.4438   -0.4925 N   0  0  0  0  0  0  0  0  0  0  0  0
    2.2297    2.3737    0.8109 N   0  0  0  0  0  0  0  0  0  0  0  0
    4.3900   -1.8709   -0.1782 N   0  0  0  0  0  0  0  0  0  0  0  0
    1.0039    0.6284   -0.4039 C   0  0  0  0  0  0  0  0  0  0  0  0
   -1.5201    1.1518   -0.5439 C   0  0  0  0  0  0  0  0  0  0  0  0
    2.1657    1.0761    0.2305 C   0  0  0  0  0  0  0  0  0  0  0  0
   -2.0158    0.0107    0.0869 C   0  0  0  0  0  0  0  0  0  0  0  0
   -3.3798   -0.2773    0.0359 C   0  0  0  0  0  0  0  0  0  0  0  0
    0.9707   -0.6518   -0.9627 C   0  0  0  0  0  0  0  0  0  0  0  0
   -2.3882    2.0047   -1.2257 C   0  0  0  0  0  0  0  0  0  0  0  0
    3.2866    0.2491    0.3053 C   0  0  0  0  0  0  0  0  0  0  0  0
    3.2494   -1.0283   -0.2540 C   0  0  0  0  0  0  0  0  0  0  0  0
    2.0913   -1.4786   -0.8879 C   0  0  0  0  0  0  0  0  0  0  0  0
   -4.2477    0.5757   -0.6458 C   0  0  0  0  0  0  0  0  0  0  0  0
   -3.7520    1.7166   -1.2764 C   0  0  0  0  0  0  0  0  0  0  0  0
   -3.9102   -1.4974    0.7094 C   0  0  0  0  0  0  0  0  0  0  0  0
  1 23  1  0
  2 23  1  0
  3 23  1  0
  4  9  1  0
  5  9  2  0
  6 10  1  0
  7 10  2  0
  8 11  1  0
  8 12  1  0
  9 13  1  0
 10 19  1  0
 11 13  2  0
 11 16  1  0
 12 14  2  0
 12 17  1  0
 13 18  1  0
 14 15  1  0
 15 21  2  0
 15 23  1  0
 16 20  2  0
 17 22  2  0
 18 19  2  0
 19 20  1  0
 21 22  1  0
M  CHG  4   4  -1   6  -1   9   1  10   1
M  END
>  <PUBCHEM_COMPOUND_CID>  (1) 
15857

>  <PUBCHEM_CONFORMER_RMSD>  (1) 
0.8

>  <PUBCHEM_CONFORMER_DIVERSEORDER>  (1) 
1
2
6
5
8
7
3
4

>  <PUBCHEM_MMFF94_PARTIAL_CHARGES>  (1) 
31
1 -0.34
10 0.91
11 0.1
12 0.1
13 0.13
14 -0.15
15 -0.14
16 -0.15
17 -0.15
18 -0.15
19 0.13
2 -0.34
20 -0.15
21 -0.15
22 -0.15
23 1.16
24 0.4
25 0.15
26 0.15
27 0.15
28 0.15
29 0.15
3 -0.34
30 0.15
31 0.15
4 -0.52
5 -0.52
6 -0.52
7 -0.52
8 -0.6
9 0.91

>  <PUBCHEM_EFFECTIVE_ROTOR_COUNT>  (1) 
5

>  <PUBCHEM_PHARMACOPHORE_FEATURES>  (1) 
10
1 4 acceptor
1 4 anion
1 5 acceptor
1 6 acceptor
1 6 anion
1 7 acceptor
1 8 cation
1 8 donor
6 11 13 16 18 19 20 rings
6 12 14 15 17 21 22 rings

>  <PUBCHEM_HEAVY_ATOM_COUNT>  (1) 
23

>  <PUBCHEM_ATOM_DEF_STEREO_COUNT>  (1) 
0

>  <PUBCHEM_ATOM_UDEF_STEREO_COUNT>  (1) 
0

>  <PUBCHEM_BOND_DEF_STEREO_COUNT>  (1) 
0

>  <PUBCHEM_BOND_UDEF_STEREO_COUNT>  (1) 
0

>  <PUBCHEM_ISOTOPIC_ATOM_COUNT>  (1) 
0

>  <PUBCHEM_COMPONENT_COUNT>  (1) 
1

>  <PUBCHEM_CACTVS_TAUTO_COUNT>  (1) 
1

>  <PUBCHEM_CONFORMER_ID>  (1) 
00003DF100000001

>  <PUBCHEM_MMFF94_ENERGY>  (1) 
82.9472

>  <PUBCHEM_FEATURE_SELFOVERLAP>  (1) 
50.909

>  <PUBCHEM_SHAPE_FINGERPRINT>  (1) 
11370993 144 18413395328305631409
11405975 8 18412265012993021345
11552529 35 17700979001097158127
11796584 16 17969217837657309306
12293681 4 18197498419982863777
12403259 226 18409726270498150581
12596602 18 15410026531391631982
12633257 1 18059028245247962675
13140716 1 18341054034223723993
13402501 40 18336548227035969535
13544592 145 18335132052028125557
13583140 156 18412818088404906470
14790565 3 17545886387619317708
14866123 147 17334217827633214634
15475509 84 17845388681942600177
17804303 29 18335703806284312229
17913733 40 17915167139047922712
1813 80 16950843730224220149
18785283 64 18339073925978860920
19141452 34 18339087103138874515
200 152 17631154321669372837
20600515 1 18194131711373719332
20603629 256 18129952281014132824
20645477 70 18272356577526432341
20681651 13 17488736934434527439
20681677 274 18412543227751801169
20681677 76 18411408544805636933
20693207 138 18334856091203743789
21065198 57 18411415107542272733
21065201 7 17894341168677711389
221490 88 18410573994073818668
22943178 12 18335973233841210973
23557571 272 18040990791427973205
23559900 14 18259980461727719669
316301 35 18260545649601955194
3421961 26 18342175579165292200
4015057 19 18199447962137789973
458136 41 18125725844570378320
49207404 50 18267859656557551369
5104073 3 18411979143842819672
5486654 36 18266755596574843801
6049 1 18408603669179224629
633830 44 14057585422247322286
7495541 125 18410857664026614038
9709674 26 18409439311127868869

>  <PUBCHEM_SHAPE_MULTIPOLES>  (1) 
413.09
10.49
3.19
1.18
0.45
0.36
0.21
-6.32
0.99
1.2
0.63
-0.58
0.13
2.95

>  <PUBCHEM_SHAPE_SELFOVERLAP>  (1) 
897.117

>  <PUBCHEM_SHAPE_VOLUME>  (1) 
225.7

>  <PUBCHEM_COORDINATE_TYPE>  (1) 
2
5
10

$$$$
