15863
     RDKit          3D

 12 12  0  0  0  0  0  0  0  0999 V2000
    0.4320    0.2451   -0.0070 O   0  0  0  0  0  0  0  0  0  0  0  0
    3.9118    0.5657    0.0078 O   0  0  0  0  0  0  0  0  0  0  0  0
    2.3035    2.0658   -0.0069 O   0  0  0  0  0  0  0  0  0  0  0  0
   -4.7195    1.1867    0.0112 O   0  0  0  0  0  0  0  0  0  0  0  0
    2.6803    0.8574    0.0010 N   0  0  0  0  0  0  0  0  0  0  0  0
   -0.3303   -0.8799   -0.0059 C   0  0  0  0  0  0  0  0  0  0  0  0
    0.4647   -2.0023    0.0032 C   0  0  0  0  0  0  0  0  0  0  0  0
    1.7278   -0.1635    0.0011 C   0  0  0  0  0  0  0  0  0  0  0  0
    1.8013   -1.5370    0.0076 C   0  0  0  0  0  0  0  0  0  0  0  0
   -1.7434   -0.8305   -0.0125 C   0  0  0  0  0  0  0  0  0  0  0  0
   -2.5275    0.2980   -0.0002 C   0  0  0  0  0  0  0  0  0  0  0  0
   -4.0007    0.1946    0.0007 C   0  0  0  0  0  0  0  0  0  0  0  0
  1  6  1  0
  1  8  1  0
  2  5  1  0
  3  5  2  0
  4 12  2  0
  5  8  1  0
  6  7  2  0
  6 10  1  0
  7  9  1  0
  8  9  2  0
 10 11  2  0
 11 12  1  0
M  CHG  2   2  -1   5   1
M  END
>  <PUBCHEM_COMPOUND_CID>  (1) 
15863

>  <PUBCHEM_CONFORMER_RMSD>  (1) 
0.6

>  <PUBCHEM_CONFORMER_DIVERSEORDER>  (1) 
1
2

>  <PUBCHEM_MMFF94_PARTIAL_CHARGES>  (1) 
17
1 -0.28
10 -0.11
11 -0.14
12 0.5
13 0.15
14 0.15
15 0.15
16 0.15
17 0.06
2 -0.52
3 -0.52
4 -0.57
5 0.96
6 0.09
7 -0.15
8 0.22
9 -0.15

>  <PUBCHEM_EFFECTIVE_ROTOR_COUNT>  (1) 
3

>  <PUBCHEM_PHARMACOPHORE_FEATURES>  (1) 
6
1 1 acceptor
1 2 acceptor
1 2 anion
1 3 acceptor
1 4 acceptor
5 1 6 7 8 9 rings

>  <PUBCHEM_HEAVY_ATOM_COUNT>  (1) 
12

>  <PUBCHEM_ATOM_DEF_STEREO_COUNT>  (1) 
0

>  <PUBCHEM_ATOM_UDEF_STEREO_COUNT>  (1) 
0

>  <PUBCHEM_BOND_DEF_STEREO_COUNT>  (1) 
0

>  <PUBCHEM_BOND_UDEF_STEREO_COUNT>  (1) 
1

>  <PUBCHEM_ISOTOPIC_ATOM_COUNT>  (1) 
0

>  <PUBCHEM_COMPONENT_COUNT>  (1) 
1

>  <PUBCHEM_CACTVS_TAUTO_COUNT>  (1) 
1

>  <PUBCHEM_CONFORMER_ID>  (1) 
00003DF700000001

>  <PUBCHEM_MMFF94_ENERGY>  (1) 
17.9845

>  <PUBCHEM_FEATURE_SELFOVERLAP>  (1) 
30.539

>  <PUBCHEM_SHAPE_FINGERPRINT>  (1) 
10608611 8 18334574586705418165
11471102 20 18411134693300846567
11769659 78 9079125444486698407
122479 349 18261958569018696771
12346645 6 18341612577202953286
12932764 1 17531522080056237935
13380535 76 18409729581775783715
14325111 11 18410573985684486919
14415576 193 18341334392603415687
14897335 6 18412822499626703167
15775835 57 18342457053994140797
170605 34 18408322177064615379
18186145 218 18201734950027206531
20606313 2 18411699863641590004
20645477 70 18269835320635032543
21499 59 18411976983843365567
21524375 3 18410007783929178111
231179 274 18333447621119113517
23402539 116 18059567023046015572
23402655 69 18272365331244605869
25 1 18410572889992949414
449060 62 18341614785274845337
7364860 26 18268993098548382494

>  <PUBCHEM_SHAPE_MULTIPOLES>  (1) 
218.5
6.99
1.77
0.58
6.04
0.06
0
-3.81
0.03
-1.08
0
0.04
0.05
-0.01

>  <PUBCHEM_SHAPE_SELFOVERLAP>  (1) 
453.311

>  <PUBCHEM_SHAPE_VOLUME>  (1) 
124.9

>  <PUBCHEM_COORDINATE_TYPE>  (1) 
2
5
10

$$$$
