15868
     RDKit          3D

 21 21  0  0  1  0  0  0  0  0999 V2000
   -5.3906   -0.4333    0.4083 O   0  0  0  0  0  0  0  0  0  0  0  0
    5.1015    0.9258    0.2981 O   0  0  0  0  0  0  0  0  0  0  0  0
    4.5761    3.0186   -0.4074 O   0  0  0  0  0  0  0  0  0  0  0  0
   -4.0617   -0.9691    0.3724 C   0  0  0  0  0  0  0  0  0  0  0  0
   -4.3433    0.4592    0.0063 C   0  0  0  0  0  0  0  0  0  0  0  0
   -3.8399   -1.9940   -0.6732 C   0  0  0  0  0  0  0  0  0  0  0  0
   -4.0678    1.5711    0.9718 C   0  0  0  0  0  0  0  0  0  0  0  0
   -2.3996   -2.0388   -1.2072 C   0  0  0  0  0  0  0  0  0  0  0  0
   -2.6097    2.0365    0.9578 C   0  0  0  0  0  0  0  0  0  0  0  0
   -1.3669   -2.3234   -0.1131 C   0  0  0  0  0  0  0  0  0  0  0  0
   -2.1833    2.6255   -0.3902 C   0  0  0  0  0  0  0  0  0  0  0  0
    0.0544   -2.3291   -0.6808 C   0  0  0  0  0  0  0  0  0  0  0  0
   -0.7224    3.0881   -0.4158 C   0  0  0  0  0  0  0  0  0  0  0  0
    1.0861   -2.6464    0.4044 C   0  0  0  0  0  0  0  0  0  0  0  0
    0.3267    1.9941   -0.1916 C   0  0  0  0  0  0  0  0  0  0  0  0
    2.5031   -2.6836   -0.1725 C   0  0  0  0  0  0  0  0  0  0  0  0
    1.7683    2.5047   -0.2883 C   0  0  0  0  0  0  0  0  0  0  0  0
    3.5717   -3.0273    0.8673 C   0  0  0  0  0  0  0  0  0  0  0  0
    2.7941    1.4151    0.0282 C   0  0  0  0  0  0  0  0  0  0  0  0
    4.9786   -3.0912    0.2933 C   0  0  0  0  0  0  0  0  0  0  0  0
    4.2246    1.8975   -0.0678 C   0  0  0  0  0  0  0  0  0  0  0  0
  1  4  1  0
  1  5  1  0
  2 21  1  0
  3 21  2  0
  4  5  1  0
  4  6  1  0
  5  7  1  0
  6  8  1  0
  7  9  1  0
  8 10  1  0
  9 11  1  0
 10 12  1  0
 11 13  1  0
 12 14  1  0
 13 15  1  0
 14 16  1  0
 15 17  1  0
 16 18  1  0
 17 19  1  0
 18 20  1  0
 19 21  1  0
M  END
>  <PUBCHEM_COMPOUND_CID>  (1) 
15868

>  <PUBCHEM_CONFORMER_RMSD>  (1) 
1.4

>  <PUBCHEM_CONFORMER_DIVERSEORDER>  (1) 
1
103
89
34
70
93
54
31
62
63
25
19
67
50
3
107
42
69
14
98
9
39
88
16
96
97
94
32
68
51
5
44
85
83
91
35
53
27
60
61
4
66
77
109
102
99
52
2
65
47
24
75
30
57
28
29
92
101
48
90
37
45
86
56
87
43
17
46
7
18
80
106
11
20
81
12
71
8
40
6
22
72
110
21
10
36
73
26
38
76
79
78
84
55
58
15
95
100
104
82
59
105
74
41
49
33
13
108
64
23

>  <PUBCHEM_MMFF94_PARTIAL_CHARGES>  (1) 
12
1 -0.3
19 0.06
2 -0.65
21 0.66
22 0.1
23 0.1
3 -0.57
4 -0.05
5 -0.05
55 0.5
6 0.09
7 0.09

>  <PUBCHEM_EFFECTIVE_ROTOR_COUNT>  (1) 
15.6

>  <PUBCHEM_PHARMACOPHORE_FEATURES>  (1) 
5
1 1 acceptor
1 2 acceptor
1 20 hydrophobe
1 3 acceptor
3 2 3 21 anion

>  <PUBCHEM_HEAVY_ATOM_COUNT>  (1) 
21

>  <PUBCHEM_ATOM_DEF_STEREO_COUNT>  (1) 
0

>  <PUBCHEM_ATOM_UDEF_STEREO_COUNT>  (1) 
2

>  <PUBCHEM_BOND_DEF_STEREO_COUNT>  (1) 
0

>  <PUBCHEM_BOND_UDEF_STEREO_COUNT>  (1) 
0

>  <PUBCHEM_ISOTOPIC_ATOM_COUNT>  (1) 
0

>  <PUBCHEM_COMPONENT_COUNT>  (1) 
1

>  <PUBCHEM_CACTVS_TAUTO_COUNT>  (1) 
1

>  <PUBCHEM_CONFORMER_ID>  (1) 
00003DFC00000001

>  <PUBCHEM_MMFF94_ENERGY>  (1) 
3.8416

>  <PUBCHEM_FEATURE_SELFOVERLAP>  (1) 
25.43

>  <PUBCHEM_SHAPE_FINGERPRINT>  (1) 
10708813 3 18341341045344441121
10864689 126 17402614048409649502
13111901 25 18335413531922081578
14251757 5 17326630592112371900
14790565 3 18048320230359677260
16120349 306 18342744065194609673
16719943 64 18048877691523702984
17977361 122 18196089061335739429
18336668 15 17970355819401997654
20721686 56 18408042913896121419
21623110 236 18341052917764037121
21673915 165 18412829117949877164
338550 245 18335423452695089852
373842 8 18336267941422386843
57091435 65 18409453570028797279
57676310 188 18335147514585448948
9543594 6 18339922624137155958

>  <PUBCHEM_SHAPE_MULTIPOLES>  (1) 
414.56
11.27
5.51
0.91
3.17
0.22
0.01
-1.23
1.88
4.67
-0.41
-0.42
-0.17
-1.7

>  <PUBCHEM_SHAPE_SELFOVERLAP>  (1) 
774.724

>  <PUBCHEM_SHAPE_VOLUME>  (1) 
259.1

>  <PUBCHEM_COORDINATE_TYPE>  (1) 
2
5
10

$$$$
