15862
     RDKit          3D

 15 15  0  0  0  0  0  0  0  0999 V2000
   -1.4980    0.2079   -0.0113 O   0  0  0  0  0  0  0  0  0  0  0  0
    3.4957    0.6587    0.0065 O   0  0  0  0  0  0  0  0  0  0  0  0
    3.2970   -1.6427   -0.0252 O   0  0  0  0  0  0  0  0  0  0  0  0
   -4.8813    1.0834    0.0093 O   0  0  0  0  0  0  0  0  0  0  0  0
   -3.0529    2.3056   -0.0227 O   0  0  0  0  0  0  0  0  0  0  0  0
   -3.6187    1.1734   -0.0038 N   0  0  0  0  0  0  0  0  0  0  0  0
   -0.9854   -1.0175   -0.0004 C   0  0  0  0  0  0  0  0  0  0  0  0
   -1.8912   -2.0049    0.0203 C   0  0  0  0  0  0  0  0  0  0  0  0
   -2.8426    0.0129    0.0034 C   0  0  0  0  0  0  0  0  0  0  0  0
   -3.1358   -1.3309    0.0231 C   0  0  0  0  0  0  0  0  0  0  0  0
    0.4764   -1.2031   -0.0118 C   0  0  0  0  0  0  0  0  0  0  0  0
    4.9229    0.5469    0.0062 C   0  0  0  0  0  0  0  0  0  0  0  0
    1.3707   -0.2044   -0.0088 C   0  0  0  0  0  0  0  0  0  0  0  0
    5.5262    1.9351    0.0257 C   0  0  0  0  0  0  0  0  0  0  0  0
    2.8171   -0.5203   -0.0102 C   0  0  0  0  0  0  0  0  0  0  0  0
  1  7  1  0
  1  9  1  0
  2 12  1  0
  2 15  1  0
  3 15  2  0
  4  6  1  0
  5  6  2  0
  6  9  1  0
  7  8  2  0
  7 11  1  0
  8 10  1  0
  9 10  2  0
 11 13  2  0
 12 14  1  0
 13 15  1  0
M  CHG  2   4  -1   6   1
M  END
>  <PUBCHEM_COMPOUND_CID>  (1) 
15862

>  <PUBCHEM_CONFORMER_RMSD>  (1) 
0.6

>  <PUBCHEM_CONFORMER_DIVERSEORDER>  (1) 
1
6
16
23
5
25
19
15
20
17
26
2
14
22
3
13
18
4
21
24
29
12
8
11
10
28
9
7
27

>  <PUBCHEM_MMFF94_PARTIAL_CHARGES>  (1) 
18
1 -0.28
10 -0.15
11 -0.11
12 0.28
13 -0.14
15 0.71
16 0.15
17 0.15
18 0.15
2 -0.43
21 0.15
3 -0.57
4 -0.52
5 -0.52
6 0.96
7 0.09
8 -0.15
9 0.22

>  <PUBCHEM_EFFECTIVE_ROTOR_COUNT>  (1) 
5

>  <PUBCHEM_PHARMACOPHORE_FEATURES>  (1) 
6
1 1 acceptor
1 3 acceptor
1 4 acceptor
1 4 anion
1 5 acceptor
5 1 7 8 9 10 rings

>  <PUBCHEM_HEAVY_ATOM_COUNT>  (1) 
15

>  <PUBCHEM_ATOM_DEF_STEREO_COUNT>  (1) 
0

>  <PUBCHEM_ATOM_UDEF_STEREO_COUNT>  (1) 
0

>  <PUBCHEM_BOND_DEF_STEREO_COUNT>  (1) 
0

>  <PUBCHEM_BOND_UDEF_STEREO_COUNT>  (1) 
1

>  <PUBCHEM_ISOTOPIC_ATOM_COUNT>  (1) 
0

>  <PUBCHEM_COMPONENT_COUNT>  (1) 
1

>  <PUBCHEM_CACTVS_TAUTO_COUNT>  (1) 
1

>  <PUBCHEM_CONFORMER_ID>  (1) 
00003DF600000001

>  <PUBCHEM_MMFF94_ENERGY>  (1) 
26.4447

>  <PUBCHEM_FEATURE_SELFOVERLAP>  (1) 
30.539

>  <PUBCHEM_SHAPE_FINGERPRINT>  (1) 
10014705 185 18409165519525591789
10608611 8 18413106160530621482
12346645 44 18333729104649192803
12500047 106 18342734152404893162
12596602 18 17167580513894105920
14123255 352 18410855469008474188
14252887 29 14418120808850373248
15196674 1 18410856568620218210
15501527 16 18412548734026449296
17834072 32 18411984632853266745
200 152 8070027752952850211
20374829 77 10159707880184317350
20510252 161 18413394245794524827
20645477 56 18410013238706176235
20645477 70 17131282268271031982
21426921 1 18268991062744472719
21652331 79 18335984190228890893
23402539 116 18341324573902222670
23402655 69 18201719561523251998
23557571 272 18201445834229901430
23559900 14 18200593593250971018
245318 6 16810121759581303076
3545911 37 18411422808502621124
4214541 1 18410856564240893858
441001 317 18412262874072823600
474 4 17676773170980546868
5104073 3 18333450932739638890
633830 44 18410289177602567598
7062679 6 18262242218030087876
77779 3 18410576197598055542
90127 26 18335994150896055154

>  <PUBCHEM_SHAPE_MULTIPOLES>  (1) 
274.37
11.01
2.1
0.58
9.73
0.51
0
6.57
0.07
-0.9
0
0.04
-0.03
0.05

>  <PUBCHEM_SHAPE_SELFOVERLAP>  (1) 
565.48

>  <PUBCHEM_SHAPE_VOLUME>  (1) 
158.5

>  <PUBCHEM_COORDINATE_TYPE>  (1) 
2
5
10

$$$$
