15867
     RDKit          3D

 21 21  0  0  1  0  0  0  0  0999 V2000
    5.3480   -0.3812   -0.4738 O   0  0  0  0  0  0  0  0  0  0  0  0
   -3.5232   -2.5570   -1.0755 O   0  0  0  0  0  0  0  0  0  0  0  0
   -2.9193   -2.4065    1.1077 O   0  0  0  0  0  0  0  0  0  0  0  0
    4.3194    0.4987   -0.0029 C   0  0  0  0  0  0  0  0  0  0  0  0
    4.0080   -0.8905   -0.4786 C   0  0  0  0  0  0  0  0  0  0  0  0
    4.0686    1.6874   -0.8788 C   0  0  0  0  0  0  0  0  0  0  0  0
    3.7633   -1.9886    0.4844 C   0  0  0  0  0  0  0  0  0  0  0  0
    2.6138    2.1513   -0.8022 C   0  0  0  0  0  0  0  0  0  0  0  0
    2.3217   -2.0439    1.0137 C   0  0  0  0  0  0  0  0  0  0  0  0
    2.2402    2.5868    0.6160 C   0  0  0  0  0  0  0  0  0  0  0  0
    1.2880   -2.2666   -0.0945 C   0  0  0  0  0  0  0  0  0  0  0  0
    0.7948    3.0854    0.6796 C   0  0  0  0  0  0  0  0  0  0  0  0
   -0.2373    2.0081    0.3339 C   0  0  0  0  0  0  0  0  0  0  0  0
   -0.1361   -2.2762    0.4723 C   0  0  0  0  0  0  0  0  0  0  0  0
   -1.6821    2.5136    0.3725 C   0  0  0  0  0  0  0  0  0  0  0  0
   -2.6662    1.3988    0.0075 C   0  0  0  0  0  0  0  0  0  0  0  0
   -1.1966   -2.4565   -0.6143 C   0  0  0  0  0  0  0  0  0  0  0  0
   -4.1282    1.8547    0.0000 C   0  0  0  0  0  0  0  0  0  0  0  0
   -5.1168    0.7253   -0.2925 C   0  0  0  0  0  0  0  0  0  0  0  0
   -2.6091   -2.4756   -0.0733 C   0  0  0  0  0  0  0  0  0  0  0  0
   -6.5510    1.2324   -0.3012 C   0  0  0  0  0  0  0  0  0  0  0  0
  1  4  1  0
  1  5  1  0
  2 20  1  0
  3 20  2  0
  4  5  1  0
  4  6  1  0
  5  7  1  0
  6  8  1  0
  7  9  1  0
  8 10  1  0
  9 11  1  0
 10 12  1  0
 11 14  1  0
 12 13  1  0
 13 15  1  0
 14 17  1  0
 15 16  1  0
 16 18  1  0
 17 20  1  0
 18 19  1  0
 19 21  1  0
M  END
>  <PUBCHEM_COMPOUND_CID>  (1) 
15867

>  <PUBCHEM_CONFORMER_RMSD>  (1) 
1.6

>  <PUBCHEM_CONFORMER_DIVERSEORDER>  (1) 
1
13
14
16
12
23
26
4
38
2
31
21
27
18
37
49
6
35
25
32
41
44
19
24
34
10
29
9
30
33
39
46
45
8
43
28
40
3
42
15
11
22
48
7
47
5
17
36
20

>  <PUBCHEM_MMFF94_PARTIAL_CHARGES>  (1) 
12
1 -0.3
17 0.06
2 -0.65
20 0.66
22 0.1
23 0.1
3 -0.57
4 -0.05
5 -0.05
55 0.5
6 0.09
7 0.09

>  <PUBCHEM_EFFECTIVE_ROTOR_COUNT>  (1) 
15.6

>  <PUBCHEM_PHARMACOPHORE_FEATURES>  (1) 
6
1 1 acceptor
1 2 acceptor
1 21 hydrophobe
1 3 acceptor
3 2 3 20 anion
5 7 9 11 14 17 hydrophobe

>  <PUBCHEM_HEAVY_ATOM_COUNT>  (1) 
21

>  <PUBCHEM_ATOM_DEF_STEREO_COUNT>  (1) 
0

>  <PUBCHEM_ATOM_UDEF_STEREO_COUNT>  (1) 
2

>  <PUBCHEM_BOND_DEF_STEREO_COUNT>  (1) 
0

>  <PUBCHEM_BOND_UDEF_STEREO_COUNT>  (1) 
0

>  <PUBCHEM_ISOTOPIC_ATOM_COUNT>  (1) 
0

>  <PUBCHEM_COMPONENT_COUNT>  (1) 
1

>  <PUBCHEM_CACTVS_TAUTO_COUNT>  (1) 
1

>  <PUBCHEM_CONFORMER_ID>  (1) 
00003DFB00000001

>  <PUBCHEM_MMFF94_ENERGY>  (1) 
3.7404

>  <PUBCHEM_FEATURE_SELFOVERLAP>  (1) 
30.505

>  <PUBCHEM_SHAPE_FINGERPRINT>  (1) 
108634 29 18341624659520846678
1100329 8 18410853235340403315
12838862 33 18337936927612787656
13402501 40 18410294692434988173
14117953 113 17401196777330751988
14681490 219 17837481222228326687
14931854 50 18338521828953856636
15322687 12 18410288108160537401
17093844 170 17835515299727568528
20621476 13 17691119761692163008
23227448 37 18410857650946994551
3014063 31 18267583704950585070
3052486 1 18336537301118775104
338550 245 18334579095830534213
3680242 22 18265054639243970347
463206 1 18410857659194180665
6287921 2 17409378273428210675
6437827 68 18410858767717378861

>  <PUBCHEM_SHAPE_MULTIPOLES>  (1) 
414.56
11.77
4.67
0.93
8.58
0.69
0.01
-2.2
-2.26
0.57
0.46
-0.2
0.12
-0.72

>  <PUBCHEM_SHAPE_SELFOVERLAP>  (1) 
776.055

>  <PUBCHEM_SHAPE_VOLUME>  (1) 
258.9

>  <PUBCHEM_COORDINATE_TYPE>  (1) 
2
5
10

$$$$
