15876
     RDKit          3D

 13 13  0  0  0  0  0  0  0  0999 V2000
   -4.1690   -0.9845    0.1621 O   0  0  0  0  0  0  0  0  0  0  0  0
   -2.6432   -0.4325   -1.4257 O   0  0  0  0  0  0  0  0  0  0  0  0
    3.7835   -0.4564   -0.3888 O   0  0  0  0  0  0  0  0  0  0  0  0
    2.4679   -2.1025    0.2265 O   0  0  0  0  0  0  0  0  0  0  0  0
    2.6585   -0.8918   -0.0430 N   0  0  0  0  0  0  0  0  0  0  0  0
   -0.7631    0.4415    0.5140 C   0  0  0  0  0  0  0  0  0  0  0  0
   -2.1111   -0.0511    0.9199 C   0  0  0  0  0  0  0  0  0  0  0  0
    0.3079   -0.4479    0.4274 C   0  0  0  0  0  0  0  0  0  0  0  0
   -0.5740    1.7918    0.2195 C   0  0  0  0  0  0  0  0  0  0  0  0
    1.5682    0.0131    0.0462 C   0  0  0  0  0  0  0  0  0  0  0  0
    0.6860    2.2528   -0.1615 C   0  0  0  0  0  0  0  0  0  0  0  0
    1.7571    1.3635   -0.2482 C   0  0  0  0  0  0  0  0  0  0  0  0
   -2.9688   -0.4961   -0.2482 C   0  0  0  0  0  0  0  0  0  0  0  0
  1 13  1  0
  2 13  2  0
  3  5  1  0
  4  5  2  0
  5 10  1  0
  6  7  1  0
  6  8  2  0
  6  9  1  0
  7 13  1  0
  8 10  1  0
  9 11  2  0
 10 12  2  0
 11 12  1  0
M  CHG  2   3  -1   5   1
M  END
>  <PUBCHEM_COMPOUND_CID>  (1) 
15876

>  <PUBCHEM_CONFORMER_RMSD>  (1) 
0.6

>  <PUBCHEM_CONFORMER_DIVERSEORDER>  (1) 
1
3
5
8
7
6
2
4

>  <PUBCHEM_MMFF94_PARTIAL_CHARGES>  (1) 
18
1 -0.65
10 0.13
11 -0.15
12 -0.15
13 0.66
16 0.15
17 0.15
18 0.15
19 0.15
2 -0.57
20 0.5
3 -0.52
4 -0.52
5 0.91
6 -0.14
7 0.2
8 -0.15
9 -0.15

>  <PUBCHEM_EFFECTIVE_ROTOR_COUNT>  (1) 
3

>  <PUBCHEM_PHARMACOPHORE_FEATURES>  (1) 
7
1 1 acceptor
1 2 acceptor
1 3 acceptor
1 3 anion
1 4 acceptor
3 1 2 13 anion
6 6 8 9 10 11 12 rings

>  <PUBCHEM_HEAVY_ATOM_COUNT>  (1) 
13

>  <PUBCHEM_ATOM_DEF_STEREO_COUNT>  (1) 
0

>  <PUBCHEM_ATOM_UDEF_STEREO_COUNT>  (1) 
0

>  <PUBCHEM_BOND_DEF_STEREO_COUNT>  (1) 
0

>  <PUBCHEM_BOND_UDEF_STEREO_COUNT>  (1) 
0

>  <PUBCHEM_ISOTOPIC_ATOM_COUNT>  (1) 
0

>  <PUBCHEM_COMPONENT_COUNT>  (1) 
1

>  <PUBCHEM_CACTVS_TAUTO_COUNT>  (1) 
1

>  <PUBCHEM_CONFORMER_ID>  (1) 
00003E0400000001

>  <PUBCHEM_MMFF94_ENERGY>  (1) 
31.0921

>  <PUBCHEM_FEATURE_SELFOVERLAP>  (1) 
35.663

>  <PUBCHEM_SHAPE_FINGERPRINT>  (1) 
11206711 2 18188215295033437196
11769659 78 18273210867953997938
12932764 1 17632016472130034225
14128692 85 18272933829683889240
14251717 144 18339080501088058976
15477762 27 18410293648462620603
15757776 16 18410009940298153294
16945 1 18336836410529952992
18186145 218 17749380490899408389
20201158 50 18259988188384259082
20361792 2 18342452638620138981
20645477 70 18339358669198661655
20653085 51 10737582574355327176
20671657 53 18408325466888069404
20871998 184 18057887931077225956
20871998 22 18200041646359729358
22112679 90 17917170345706174177
22802520 49 18041544889400985381
232386 152 16917065615847279319
23388829 49 18342459231495320808
23402539 116 18335419007393408210
2748010 2 18337384950947295300
6338986 31 18264755580692476026
7364860 26 18200030788709071208
81228 2 18118121364333277304

>  <PUBCHEM_SHAPE_MULTIPOLES>  (1) 
239.08
5.54
1.9
0.85
2.05
0.58
0.1
-3.12
0.79
-1.13
0
0.49
-0.03
-0.22

>  <PUBCHEM_SHAPE_SELFOVERLAP>  (1) 
499.66

>  <PUBCHEM_SHAPE_VOLUME>  (1) 
135.4

>  <PUBCHEM_COORDINATE_TYPE>  (1) 
2
5
10

$$$$
