15878
     RDKit          3D

 14 15  0  0  0  0  0  0  0  0999 V2000
    1.6845    0.5641    0.5405 O   0  0  0  0  0  0  0  0  0  0  0  0
    4.5042   -1.4093   -0.4692 O   0  0  0  0  0  0  0  0  0  0  0  0
    4.2786    0.8457   -0.2420 O   0  0  0  0  0  0  0  0  0  0  0  0
   -3.9167   -1.1568   -0.4736 C   0  0  0  0  0  0  0  0  0  0  0  0
   -2.7121   -1.7422    0.2786 C   0  0  0  0  0  0  0  0  0  0  0  0
   -3.8646    0.3657   -0.2759 C   0  0  0  0  0  0  0  0  0  0  0  0
   -1.7388   -0.6094    0.1928 C   0  0  0  0  0  0  0  0  0  0  0  0
   -2.3932    0.5875   -0.1220 C   0  0  0  0  0  0  0  0  0  0  0  0
   -0.3740   -0.6378    0.4241 C   0  0  0  0  0  0  0  0  0  0  0  0
   -1.6963    1.7804   -0.2118 C   0  0  0  0  0  0  0  0  0  0  0  0
    0.3391    0.5588    0.3233 C   0  0  0  0  0  0  0  0  0  0  0  0
   -0.3172    1.7591    0.0076 C   0  0  0  0  0  0  0  0  0  0  0  0
    2.3985   -0.6254    0.2105 C   0  0  0  0  0  0  0  0  0  0  0  0
    3.8080   -0.2803   -0.1830 C   0  0  0  0  0  0  0  0  0  0  0  0
  1 11  1  0
  1 13  1  0
  2 14  1  0
  3 14  2  0
  4  5  1  0
  4  6  1  0
  5  7  1  0
  6  8  1  0
  7  8  2  0
  7  9  1  0
  8 10  1  0
  9 11  2  0
 10 12  2  0
 11 12  1  0
 13 14  1  0
M  END
>  <PUBCHEM_COMPOUND_CID>  (1) 
15878

>  <PUBCHEM_CONFORMER_RMSD>  (1) 
0.6

>  <PUBCHEM_CONFORMER_DIVERSEORDER>  (1) 
1
18
5
19
9
12
2
3
13
4
8
11
17
6
15
7
10
14
16

>  <PUBCHEM_MMFF94_PARTIAL_CHARGES>  (1) 
17
1 -0.36
10 -0.15
11 0.08
12 -0.15
13 0.34
14 0.66
2 -0.65
21 0.15
22 0.15
23 0.15
26 0.5
3 -0.57
5 0.14
6 0.14
7 -0.14
8 -0.14
9 -0.15

>  <PUBCHEM_EFFECTIVE_ROTOR_COUNT>  (1) 
3.6

>  <PUBCHEM_PHARMACOPHORE_FEATURES>  (1) 
6
1 1 acceptor
1 2 acceptor
1 3 acceptor
3 2 3 14 anion
5 4 5 6 7 8 rings
6 7 8 9 10 11 12 rings

>  <PUBCHEM_HEAVY_ATOM_COUNT>  (1) 
14

>  <PUBCHEM_ATOM_DEF_STEREO_COUNT>  (1) 
0

>  <PUBCHEM_ATOM_UDEF_STEREO_COUNT>  (1) 
0

>  <PUBCHEM_BOND_DEF_STEREO_COUNT>  (1) 
0

>  <PUBCHEM_BOND_UDEF_STEREO_COUNT>  (1) 
0

>  <PUBCHEM_ISOTOPIC_ATOM_COUNT>  (1) 
0

>  <PUBCHEM_COMPONENT_COUNT>  (1) 
1

>  <PUBCHEM_CACTVS_TAUTO_COUNT>  (1) 
1

>  <PUBCHEM_CONFORMER_ID>  (1) 
00003E0600000001

>  <PUBCHEM_MMFF94_ENERGY>  (1) 
37.0828

>  <PUBCHEM_FEATURE_SELFOVERLAP>  (1) 
30.592

>  <PUBCHEM_SHAPE_FINGERPRINT>  (1) 
11458722 379 18335421235822389754
11543360 7 15502375677086918067
12032990 46 18410856607274917523
12251169 10 10879985865755316354
13024252 1 16732988609267553473
13288520 33 18342177751986168734
14911166 2 18334847325824065981
14993402 34 17312820480947900719
15536298 74 18340484594332144896
16945 1 18189036686465293777
17804303 29 18343302587163134593
17870717 6 18269288884556356614
18186145 218 17167860889437822244
19141452 34 18131353042318443751
1986462 14 18411139095747742084
200 152 17560795537520620983
20281407 28 18343864437309457658
20281475 54 18343867710132559410
20374829 77 18411694374705235602
20645476 183 17095239241867121411
20645477 70 18272653420439661262
20871999 31 18260540122163245701
21267235 1 18409455808165856795
21501502 16 18193833739121357275
22094290 60 18409449176266671433
22213442 358 18338797930546567221
22485316 2 18272086115035570830
23402539 116 18408878525394573734
23403322 49 18341895160455396982
23557571 272 18270971150310967748
23559900 14 18411414004189020504
2748010 2 18046614870818576993
2871803 45 18408318878456008846
3312278 4 18333449850381350043
42 15 11527954456414635524
5104073 3 18412825772528647880
559249 180 17972873666780928194
7364860 26 18124312967475061833
8809292 202 18334577979429148675
9709674 26 18411144597833580414

>  <PUBCHEM_SHAPE_MULTIPOLES>  (1) 
270.51
8.11
1.72
0.69
7.27
0.2
0
-2.61
-1.64
-0.68
-0.05
-0.04
-0.04
0.2

>  <PUBCHEM_SHAPE_SELFOVERLAP>  (1) 
575.931

>  <PUBCHEM_SHAPE_VOLUME>  (1) 
152.8

>  <PUBCHEM_COORDINATE_TYPE>  (1) 
2
5
10

$$$$
