1587
     RDKit          3D

 32 33  0  0  1  0  0  0  0  0999 V2000
    1.2781    3.4201    2.2985 O   0  0  0  0  0  0  0  0  0  0  0  0
    0.0543   -0.3407   -0.7878 O   0  0  0  0  0  0  0  0  0  0  0  0
   -4.9626    0.0967   -1.7556 O   0  0  0  0  0  0  0  0  0  0  0  0
   -3.3683   -1.7269    1.9552 O   0  0  0  0  0  0  0  0  0  0  0  0
    2.3130   -2.1994    0.1324 O   0  0  0  0  0  0  0  0  0  0  0  0
    0.2102    1.0494    1.0670 N   0  0  0  0  0  0  0  0  0  0  0  0
    3.4439    1.5994   -0.0942 N   0  0  0  0  0  0  0  0  0  0  0  0
   -1.4904   -2.0550    0.6209 N   0  0  0  0  0  0  0  0  0  0  0  0
    0.9057   -3.9875    0.4634 N   0  0  0  0  0  0  0  0  0  0  0  0
    0.5300    2.2830    0.3439 C   0  0  0  0  0  0  0  0  0  0  0  0
    1.7101    2.9830    1.0110 C   0  0  0  0  0  0  0  0  0  0  0  0
   -0.6952    3.2217    0.2770 C   0  0  0  0  0  0  0  0  0  0  0  0
    2.9270    2.0721    1.1829 C   0  0  0  0  0  0  0  0  0  0  0  0
    4.6244    0.7678    0.0974 C   0  0  0  0  0  0  0  0  0  0  0  0
   -1.9194    2.5364   -0.2827 C   0  0  0  0  0  0  0  0  0  0  0  0
    5.1452    0.2730   -1.2531 C   0  0  0  0  0  0  0  0  0  0  0  0
   -0.5506   -1.2344    1.3746 C   0  0  0  0  0  0  0  0  0  0  0  0
    6.4012   -0.6114   -1.1358 C   0  0  0  0  0  0  0  0  0  0  0  0
   -0.0761   -0.1466    0.4199 C   0  0  0  0  0  0  0  0  0  0  0  0
    0.6267   -2.0586    1.8689 C   0  0  0  0  0  0  0  0  0  0  0  0
   -2.9377    2.1113    0.5807 C   0  0  0  0  0  0  0  0  0  0  0  0
   -2.0085    2.2272   -1.6458 C   0  0  0  0  0  0  0  0  0  0  0  0
    6.9399   -1.0456   -2.4998 C   0  0  0  0  0  0  0  0  0  0  0  0
    6.0886   -1.8469   -0.2876 C   0  0  0  0  0  0  0  0  0  0  0  0
   -3.9889    1.3288    0.1053 C   0  0  0  0  0  0  0  0  0  0  0  0
   -3.0590    1.4414   -2.1225 C   0  0  0  0  0  0  0  0  0  0  0  0
   -4.0188    0.9481   -1.2367 C   0  0  0  0  0  0  0  0  0  0  0  0
   -3.6165   -2.9720   -0.0858 C   0  0  0  0  0  0  0  0  0  0  0  0
   -2.8295   -2.1918    0.9533 C   0  0  0  0  0  0  0  0  0  0  0  0
   -3.9527   -2.0962   -1.2928 C   0  0  0  0  0  0  0  0  0  0  0  0
   -5.1068   -1.1229   -1.0095 C   0  0  0  0  0  0  0  0  0  0  0  0
    1.3822   -2.7235    0.7374 C   0  0  0  0  0  0  0  0  0  0  0  0
  1 11  1  0
  2 19  2  0
  3 27  1  0
  3 31  1  0
  4 29  2  0
  5 32  2  0
  6 10  1  0
  6 19  1  0
  7 13  1  0
  7 14  1  0
  8 17  1  0
  8 29  1  0
  9 32  1  0
 10 11  1  0
 10 12  1  0
 11 13  1  0
 12 15  1  0
 14 16  1  0
 15 21  2  0
 15 22  1  0
 16 18  1  0
 17 19  1  0
 17 20  1  0
 18 23  1  0
 18 24  1  0
 20 32  1  0
 21 25  1  0
 22 26  2  0
 25 27  2  0
 26 27  1  0
 28 29  1  0
 28 30  1  0
 30 31  1  0
M  END
>  <PUBCHEM_COMPOUND_CID>  (1) 
1587

>  <PUBCHEM_CONFORMER_RMSD>  (1) 
1

>  <PUBCHEM_CONFORMER_DIVERSEORDER>  (1) 
1
26
117
182
145
41
56
186
8
215
144
166
44
191
24
45
161
70
201
77
202
170
47
174
159
146
46
142
195
101
78
83
28
135
88
187
49
20
17
130
205
7
165
157
148
160
155
139
123
162
152
206
5
59
181
129
2
62
156
114
184
167
99
30
32
98
22
79
190
172
65
163
100
42
54
140
208
76
67
127
93
179
175
153
103
134
29
151
169
113
27
132
37
73
214
131
120
106
192
147
63
10
128
89
188
68
133
21
168
109
122
111
198
13
207
97
74
203
210
95
189
58
158
64
61
53
107
80
3
14
173
104
60
124
110
211
90
136
92
87
164
23
36
178
66
102
209
141
69
81
119
38
6
176
212
16
204
15
85
213
108
185
94
35
50
55
18
138
171
39
137
48
75
96
57
150
116
71
143
197
52
180
51
126
43
121
34
112
149
125
40
11
33
105
84
72
115
31
19
183
200
4
91
177
82
25
86
118
194
12
9
193
196
199
154

>  <PUBCHEM_MMFF94_PARTIAL_CHARGES>  (1) 
37
1 -0.68
10 0.3
11 0.28
12 0.14
13 0.27
14 0.27
15 -0.14
17 0.36
19 0.57
2 -0.57
20 0.06
21 -0.15
22 -0.15
25 -0.15
26 -0.15
27 0.08
28 0.06
29 0.57
3 -0.36
31 0.28
32 0.57
39 0.37
4 -0.57
40 0.36
47 0.4
5 -0.57
50 0.15
51 0.15
52 0.37
59 0.15
6 -0.73
60 0.15
67 0.37
68 0.37
7 -0.9
8 -0.73
9 -0.8

>  <PUBCHEM_EFFECTIVE_ROTOR_COUNT>  (1) 
9.8

>  <PUBCHEM_PHARMACOPHORE_FEATURES>  (1) 
13
1 1 acceptor
1 1 donor
1 2 acceptor
1 3 acceptor
1 4 acceptor
1 5 acceptor
1 6 donor
1 7 cation
1 7 donor
1 8 donor
1 9 donor
3 18 23 24 hydrophobe
6 15 21 22 25 26 27 rings

>  <PUBCHEM_HEAVY_ATOM_COUNT>  (1) 
32

>  <PUBCHEM_ATOM_DEF_STEREO_COUNT>  (1) 
0

>  <PUBCHEM_ATOM_UDEF_STEREO_COUNT>  (1) 
3

>  <PUBCHEM_BOND_DEF_STEREO_COUNT>  (1) 
0

>  <PUBCHEM_BOND_UDEF_STEREO_COUNT>  (1) 
0

>  <PUBCHEM_ISOTOPIC_ATOM_COUNT>  (1) 
0

>  <PUBCHEM_COMPONENT_COUNT>  (1) 
1

>  <PUBCHEM_CACTVS_TAUTO_COUNT>  (1) 
8

>  <PUBCHEM_CONFORMER_ID>  (1) 
0000063300000001

>  <PUBCHEM_MMFF94_ENERGY>  (1) 
71.7172

>  <PUBCHEM_FEATURE_SELFOVERLAP>  (1) 
65.977

>  <PUBCHEM_SHAPE_FINGERPRINT>  (1) 
10190108 129 18188504574530350947
11513181 2 17688024632070035421
11578080 2 17461992172935201933
13383661 66 17404556253932889679
14931854 50 18336259042260173037
19591789 44 18265602359280419561
19958102 18 18187083958146065980
20764821 26 18336555979330346632
21279426 13 18410006667269102404
23536364 44 18341334422478438468
23559900 14 18336819904860085557
463206 1 18340205176961189296
508706 21 18260546761718454923
5171179 24 18271803583454785768
563151 40 18123196705949942353
59755656 215 18335976541097631327

>  <PUBCHEM_SHAPE_MULTIPOLES>  (1) 
609.27
12.47
4.62
1.98
18.24
0.3
0.35
4.78
9.23
-1.16
-1.72
0.32
-0.17
1.69

>  <PUBCHEM_SHAPE_SELFOVERLAP>  (1) 
1236.426

>  <PUBCHEM_SHAPE_VOLUME>  (1) 
352.1

>  <PUBCHEM_COORDINATE_TYPE>  (1) 
2
5
10

$$$$
