15882
     RDKit          3D

 13 13  0  0  0  0  0  0  0  0999 V2000
    0.7197    0.3685   -0.7337 O   0  0  0  0  0  0  0  0  0  0  0  0
   -0.7270   -1.9793   -0.3852 O   0  0  0  0  0  0  0  0  0  0  0  0
    3.8871    0.8420    0.8816 O   0  0  0  0  0  0  0  0  0  0  0  0
    3.2297   -0.6888   -0.6715 O   0  0  0  0  0  0  0  0  0  0  0  0
   -0.5941    0.4112   -0.3763 C   0  0  0  0  0  0  0  0  0  0  0  0
   -1.3203   -0.7670   -0.2020 C   0  0  0  0  0  0  0  0  0  0  0  0
   -1.2129    1.6466   -0.1846 C   0  0  0  0  0  0  0  0  0  0  0  0
   -2.6651   -0.7096    0.1640 C   0  0  0  0  0  0  0  0  0  0  0  0
   -2.5576    1.7039    0.1814 C   0  0  0  0  0  0  0  0  0  0  0  0
   -3.2837    0.5258    0.3556 C   0  0  0  0  0  0  0  0  0  0  0  0
    1.6554    0.9628    0.1638 C   0  0  0  0  0  0  0  0  0  0  0  0
    2.9817    0.2632    0.0531 C   0  0  0  0  0  0  0  0  0  0  0  0
   -0.1130   -2.5794    0.7539 C   0  0  0  0  0  0  0  0  0  0  0  0
  1  5  1  0
  1 11  1  0
  2  6  1  0
  2 13  1  0
  3 12  1  0
  4 12  2  0
  5  6  2  0
  5  7  1  0
  6  8  1  0
  7  9  2  0
  8 10  2  0
  9 10  1  0
 11 12  1  0
M  END
>  <PUBCHEM_COMPOUND_CID>  (1) 
15882

>  <PUBCHEM_CONFORMER_RMSD>  (1) 
0.6

>  <PUBCHEM_CONFORMER_DIVERSEORDER>  (1) 
1
38
32
29
36
39
25
15
21
26
31
22
33
34
20
10
3
18
23
27
17
30
12
41
28
35
2
40
19
24
37
7
8
4
5
13
16
9
11
14
6

>  <PUBCHEM_MMFF94_PARTIAL_CHARGES>  (1) 
18
1 -0.36
10 -0.15
11 0.34
12 0.66
13 0.28
14 0.15
15 0.15
16 0.15
17 0.15
2 -0.36
23 0.5
3 -0.65
4 -0.57
5 0.08
6 0.08
7 -0.15
8 -0.15
9 -0.15

>  <PUBCHEM_EFFECTIVE_ROTOR_COUNT>  (1) 
4

>  <PUBCHEM_PHARMACOPHORE_FEATURES>  (1) 
6
1 1 acceptor
1 2 acceptor
1 3 acceptor
1 4 acceptor
3 3 4 12 anion
6 5 6 7 8 9 10 rings

>  <PUBCHEM_HEAVY_ATOM_COUNT>  (1) 
13

>  <PUBCHEM_ATOM_DEF_STEREO_COUNT>  (1) 
0

>  <PUBCHEM_ATOM_UDEF_STEREO_COUNT>  (1) 
0

>  <PUBCHEM_BOND_DEF_STEREO_COUNT>  (1) 
0

>  <PUBCHEM_BOND_UDEF_STEREO_COUNT>  (1) 
0

>  <PUBCHEM_ISOTOPIC_ATOM_COUNT>  (1) 
0

>  <PUBCHEM_COMPONENT_COUNT>  (1) 
1

>  <PUBCHEM_CACTVS_TAUTO_COUNT>  (1) 
1

>  <PUBCHEM_CONFORMER_ID>  (1) 
00003E0A00000001

>  <PUBCHEM_MMFF94_ENERGY>  (1) 
44.9456

>  <PUBCHEM_FEATURE_SELFOVERLAP>  (1) 
30.514

>  <PUBCHEM_SHAPE_FINGERPRINT>  (1) 
11132069 177 18411699889590852281
12251169 10 18338231669542833676
13024252 1 13912314686253110893
14144814 61 18409728456673394904
14325111 11 18412546483305479908
15775835 57 18411420579071774833
16945 1 18201733885212855997
18186145 218 18129951074329048588
20510252 161 18343867718701759057
20645464 45 18202566185049508068
20645476 183 17605578701717389294
20871998 184 18200037394310652831
21501502 16 18124312967691060204
23402539 116 18200865284075312927
23463225 33 18187928309602986562
23559900 14 18271809000125853524
257057 1 17405698667714437615
2748010 2 18120103788335159231
305870 269 18263926536150727867
369184 2 17775567554515765453
43471831 8 18261391109571700107
528862 383 18043807585266943539
5706482 22 18411130325498487131
69090 78 17988920089430904655
7364860 26 17981328880806563871
81228 2 18193551400966911827

>  <PUBCHEM_SHAPE_MULTIPOLES>  (1) 
244.06
5.5
2.15
0.78
4.09
1.27
-0.04
-1.69
-0.84
-0.71
-0.31
0.22
0.06
0.17

>  <PUBCHEM_SHAPE_SELFOVERLAP>  (1) 
501.097

>  <PUBCHEM_SHAPE_VOLUME>  (1) 
140.7

>  <PUBCHEM_COORDINATE_TYPE>  (1) 
2
5
10

$$$$
