15888
     RDKit          3D

 28 30  0  0  0  0  0  0  0  0999 V2000
    5.4796   -3.4983   -1.0646 F   0  0  0  0  0  0  0  0  0  0  0  0
   -4.0567   -3.3549    1.3802 O   0  0  0  0  0  0  0  0  0  0  0  0
   -3.9053    2.1337   -0.0821 O   0  0  0  0  0  0  0  0  0  0  0  0
    4.0947    2.5776   -0.0769 O   0  0  0  0  0  0  0  0  0  0  0  0
   -3.1486   -1.0833   -0.0748 N   0  0  0  0  0  0  0  0  0  0  0  0
    0.0015    1.7153    0.2822 N   0  0  0  0  0  0  0  0  0  0  0  0
   -2.4863    0.2161   -0.1676 C   0  0  0  0  0  0  0  0  0  0  0  0
   -1.2823    0.1209   -1.1130 C   0  0  0  0  0  0  0  0  0  0  0  0
   -2.0377    0.6729    1.2262 C   0  0  0  0  0  0  0  0  0  0  0  0
   -0.4273    1.3934   -1.0853 C   0  0  0  0  0  0  0  0  0  0  0  0
   -1.1539    1.9243    1.1645 C   0  0  0  0  0  0  0  0  0  0  0  0
   -3.5251    1.1563   -0.7247 C   0  0  0  0  0  0  0  0  0  0  0  0
   -4.3183   -1.0106    0.8118 C   0  0  0  0  0  0  0  0  0  0  0  0
   -2.2154   -2.1114    0.4063 C   0  0  0  0  0  0  0  0  0  0  0  0
    0.8653    2.8961    0.2826 C   0  0  0  0  0  0  0  0  0  0  0  0
   -4.9852   -2.3802    0.9031 C   0  0  0  0  0  0  0  0  0  0  0  0
   -2.9320   -3.4550    0.5060 C   0  0  0  0  0  0  0  0  0  0  0  0
   -4.0586    0.8205   -2.1052 C   0  0  0  0  0  0  0  0  0  0  0  0
    1.7407    2.9107    1.5373 C   0  0  0  0  0  0  0  0  0  0  0  0
   -5.5017    1.2512   -2.2949 C   0  0  0  0  0  0  0  0  0  0  0  0
    2.6443    1.6778    1.6293 C   0  0  0  0  0  0  0  0  0  0  0  0
    3.6546    1.5830    0.4948 C   0  0  0  0  0  0  0  0  0  0  0  0
    4.1396    0.2353    0.0812 C   0  0  0  0  0  0  0  0  0  0  0  0
    4.2128   -0.7969    1.0167 C   0  0  0  0  0  0  0  0  0  0  0  0
    4.5190    0.0060   -1.2414 C   0  0  0  0  0  0  0  0  0  0  0  0
    4.6656   -2.0581    0.6297 C   0  0  0  0  0  0  0  0  0  0  0  0
    4.9718   -1.2552   -1.6284 C   0  0  0  0  0  0  0  0  0  0  0  0
    5.0450   -2.2873   -0.6929 C   0  0  0  0  0  0  0  0  0  0  0  0
  1 28  1  0
  2 16  1  0
  2 17  1  0
  3 12  2  0
  4 22  2  0
  5  7  1  0
  5 13  1  0
  5 14  1  0
  6 10  1  0
  6 11  1  0
  6 15  1  0
  7  8  1  0
  7  9  1  0
  7 12  1  0
  8 10  1  0
  9 11  1  0
 12 18  1  0
 13 16  1  0
 14 17  1  0
 15 19  1  0
 18 20  1  0
 19 21  1  0
 21 22  1  0
 22 23  1  0
 23 24  2  0
 23 25  1  0
 24 26  1  0
 25 27  2  0
 26 28  2  0
 27 28  1  0
M  END
>  <PUBCHEM_COMPOUND_CID>  (1) 
15888

>  <PUBCHEM_CONFORMER_RMSD>  (1) 
1

>  <PUBCHEM_CONFORMER_DIVERSEORDER>  (1) 
2
36
18
72
47
26
96
44
20
85
65
39
14
90
127
37
109
125
121
101
100
93
69
29
24
30
99
92
21
45
42
122
57
106
16
119
126
60
84
111
23
75
32
31
116
102
98
56
91
115
88
82
128
81
3
113
46
123
77
48
83
11
103
94
95
22
55
58
71
8
86
43
108
118
53
33
35
68
76
1
27
5
7
49
6
64
4
67
54
97
63
62
105
110
13
73
70
34
74
25
114
17
104
120
78
59
79
19
87
61
52
38
41
51
50
107
66
10
28
40
117
89
9
80
112
12
15
124

>  <PUBCHEM_MMFF94_PARTIAL_CHARGES>  (1) 
28
1 -0.19
10 0.27
11 0.27
12 0.45
13 0.27
14 0.27
15 0.27
16 0.28
17 0.28
18 0.06
2 -0.56
21 0.06
22 0.42
23 0.09
24 -0.15
25 -0.15
26 -0.15
27 -0.15
28 0.19
3 -0.57
4 -0.57
5 -0.81
56 0.15
57 0.15
58 0.15
59 0.15
6 -0.81
7 0.33

>  <PUBCHEM_EFFECTIVE_ROTOR_COUNT>  (1) 
10.4

>  <PUBCHEM_PHARMACOPHORE_FEATURES>  (1) 
9
1 2 acceptor
1 20 hydrophobe
1 3 acceptor
1 4 acceptor
1 5 cation
1 6 cation
6 2 5 13 14 16 17 rings
6 23 24 25 26 27 28 rings
6 6 7 8 9 10 11 rings

>  <PUBCHEM_HEAVY_ATOM_COUNT>  (1) 
28

>  <PUBCHEM_ATOM_DEF_STEREO_COUNT>  (1) 
0

>  <PUBCHEM_ATOM_UDEF_STEREO_COUNT>  (1) 
0

>  <PUBCHEM_BOND_DEF_STEREO_COUNT>  (1) 
0

>  <PUBCHEM_BOND_UDEF_STEREO_COUNT>  (1) 
0

>  <PUBCHEM_ISOTOPIC_ATOM_COUNT>  (1) 
0

>  <PUBCHEM_COMPONENT_COUNT>  (1) 
1

>  <PUBCHEM_CACTVS_TAUTO_COUNT>  (1) 
4

>  <PUBCHEM_CONFORMER_ID>  (1) 
00003E1000000002

>  <PUBCHEM_MMFF94_ENERGY>  (1) 
63.3694

>  <PUBCHEM_FEATURE_SELFOVERLAP>  (1) 
45.671

>  <PUBCHEM_SHAPE_FINGERPRINT>  (1) 
10764073 3 18200054901446287619
10928967 22 18059863869922039406
117089 54 18128554686368238046
11796584 16 18187635882670654904
12422481 6 16773256010521139137
12623949 98 17758688024142677891
12643181 29 18261668161074870122
13533116 47 18201156662872165481
13583140 156 18057032734485738197
1361 87 18339653252268159230
13782708 43 18338512058457236743
14251751 18 18187075140620489810
14866123 147 17912090447171919224
14910302 57 18187354441626583693
15131766 46 12757156753488805383
15392192 29 18056777433571901102
15510800 12 18342734092539173138
15537594 2 17774727583994441804
17349148 13 16271923861109770869
1813 80 17242444152195647613
20775530 9 18411419527401191350
21307412 95 18338233748116906623
21315759 227 18337663222189198010
21521239 73 17986645204774756437
22393880 68 18113892767066175426
23559900 14 18409442596508993588
23572383 38 18342443847191316802
25222932 49 17985269814222194006
3117164 225 18201175320516113569
312425 83 17603873320923759132
32027 91 18339075974503837090
345986 75 17203341025991499920
3729539 64 18118674423177196471
4015057 19 18201141214075417805
4394409 98 17538261965758824970
44062 13 18187080646288593103
46194498 28 17898294050413595772
463206 1 18194406593902457242
508706 21 18054522300642353990
613672 6 18270949177437233296
6608658 132 14591799235645124255
6695519 79 17481141632163263208
6823239 73 18410288129862071602
7808743 9 8068581900343450510
7970288 3 18196380217448797114

>  <PUBCHEM_SHAPE_MULTIPOLES>  (1) 
541.38
13.62
4.16
1.78
5.93
2.14
0.56
8.13
3.83
0.49
-1.15
-0.83
-0.33
3.83

>  <PUBCHEM_SHAPE_SELFOVERLAP>  (1) 
1129.276

>  <PUBCHEM_SHAPE_VOLUME>  (1) 
307

>  <PUBCHEM_COORDINATE_TYPE>  (1) 
2
5
10

$$$$
