15883
     RDKit          3D

 14 14  0  0  0  0  0  0  0  0999 V2000
    0.8129    0.3964   -0.6855 O   0  0  0  0  0  0  0  0  0  0  0  0
    4.0085    0.8988    0.8633 O   0  0  0  0  0  0  0  0  0  0  0  0
   -1.5545   -2.7647    0.3347 O   0  0  0  0  0  0  0  0  0  0  0  0
    0.4078   -2.0079   -0.2940 O   0  0  0  0  0  0  0  0  0  0  0  0
    3.2460   -0.8044   -0.4426 O   0  0  0  0  0  0  0  0  0  0  0  0
   -0.7928   -1.8216    0.0150 N   0  0  0  0  0  0  0  0  0  0  0  0
   -0.4951    0.5819   -0.3480 C   0  0  0  0  0  0  0  0  0  0  0  0
   -1.3082   -0.4962    0.0021 C   0  0  0  0  0  0  0  0  0  0  0  0
   -1.0171    1.8754   -0.3558 C   0  0  0  0  0  0  0  0  0  0  0  0
   -2.6432   -0.2805    0.3442 C   0  0  0  0  0  0  0  0  0  0  0  0
   -2.3520    2.0910   -0.0136 C   0  0  0  0  0  0  0  0  0  0  0  0
   -3.1650    1.0131    0.3364 C   0  0  0  0  0  0  0  0  0  0  0  0
    1.7882    1.0570    0.1177 C   0  0  0  0  0  0  0  0  0  0  0  0
    3.0642    0.2617    0.1260 C   0  0  0  0  0  0  0  0  0  0  0  0
  1  7  1  0
  1 13  1  0
  2 14  1  0
  3  6  1  0
  4  6  2  0
  5 14  2  0
  6  8  1  0
  7  8  2  0
  7  9  1  0
  8 10  1  0
  9 11  2  0
 10 12  2  0
 11 12  1  0
 13 14  1  0
M  CHG  2   3  -1   6   1
M  END
>  <PUBCHEM_COMPOUND_CID>  (1) 
15883

>  <PUBCHEM_CONFORMER_RMSD>  (1) 
0.6

>  <PUBCHEM_CONFORMER_DIVERSEORDER>  (1) 
1
17
16
18
5
4
6
9
13
8
7
3
11
15
12
19
2
10
14

>  <PUBCHEM_MMFF94_PARTIAL_CHARGES>  (1) 
19
1 -0.36
10 -0.15
11 -0.15
12 -0.15
13 0.34
14 0.66
15 0.15
16 0.15
17 0.15
18 0.15
2 -0.65
21 0.5
3 -0.52
4 -0.52
5 -0.57
6 0.91
7 0.08
8 0.13
9 -0.15

>  <PUBCHEM_EFFECTIVE_ROTOR_COUNT>  (1) 
4

>  <PUBCHEM_PHARMACOPHORE_FEATURES>  (1) 
8
1 1 acceptor
1 2 acceptor
1 3 acceptor
1 3 anion
1 4 acceptor
1 5 acceptor
3 2 5 14 anion
6 7 8 9 10 11 12 rings

>  <PUBCHEM_HEAVY_ATOM_COUNT>  (1) 
14

>  <PUBCHEM_ATOM_DEF_STEREO_COUNT>  (1) 
0

>  <PUBCHEM_ATOM_UDEF_STEREO_COUNT>  (1) 
0

>  <PUBCHEM_BOND_DEF_STEREO_COUNT>  (1) 
0

>  <PUBCHEM_BOND_UDEF_STEREO_COUNT>  (1) 
0

>  <PUBCHEM_ISOTOPIC_ATOM_COUNT>  (1) 
0

>  <PUBCHEM_COMPONENT_COUNT>  (1) 
1

>  <PUBCHEM_CACTVS_TAUTO_COUNT>  (1) 
1

>  <PUBCHEM_CONFORMER_ID>  (1) 
00003E0B00000001

>  <PUBCHEM_MMFF94_ENERGY>  (1) 
44.0399

>  <PUBCHEM_FEATURE_SELFOVERLAP>  (1) 
40.765

>  <PUBCHEM_SHAPE_FINGERPRINT>  (1) 
11132069 177 18410011026766656161
12251169 10 18336263526501766208
12382932 28 18340486772196594480
13024252 1 14273448172226114349
13380535 76 18411980226385392399
14325111 11 18411700941794711700
15669948 3 18263931093190260836
15775835 57 18409167675562400760
16945 1 18337120033095520845
17804303 29 18339086986678554222
18186145 218 18129949961990638632
193761 8 17833555978496351877
20510252 161 18343585122717582585
20645464 45 18273497862048268388
20871998 184 18199191861194464951
21501502 16 18194120952422528860
23402539 116 18270389599033184823
23419403 2 14402337477783468967
23463225 33 18188492359120698732
23559900 14 18343025459342050708
257057 1 17548690133495023983
2748010 2 18119543045973809485
305870 269 18191586341854690169
43471831 8 18261673658342845835
53812653 166 18268434524997401940
5706482 22 18410846642839891129
58807428 26 18263648372688806963
69090 78 18343297072134885231
7364860 26 17764873494202740231
81228 2 18265044919785661771

>  <PUBCHEM_SHAPE_MULTIPOLES>  (1) 
253.79
5.42
2.4
0.71
4.65
1.35
-0.02
-1.7
-1.08
-1.29
-0.04
0.14
-0.08
0.4

>  <PUBCHEM_SHAPE_SELFOVERLAP>  (1) 
530.505

>  <PUBCHEM_SHAPE_VOLUME>  (1) 
143.2

>  <PUBCHEM_COORDINATE_TYPE>  (1) 
2
5
10

$$$$
