15896
     RDKit          3D

 13 13  0  0  0  0  0  0  0  0999 V2000
    1.3498    0.5929    0.2969 O   0  0  0  0  0  0  0  0  0  0  0  0
    2.5633    0.6302   -0.4062 N   0  0  0  0  0  0  0  0  0  0  0  0
    4.4725   -0.6631   -0.7699 N   0  0  0  0  0  0  0  0  0  0  0  0
    2.8616   -1.5188    0.6075 N   0  0  0  0  0  0  0  0  0  0  0  0
   -0.6806    1.7968    0.7776 C   0  0  0  0  0  0  0  0  0  0  0  0
   -1.5841    0.6690    0.3413 C   0  0  0  0  0  0  0  0  0  0  0  0
    0.6481    1.7975    0.0298 C   0  0  0  0  0  0  0  0  0  0  0  0
   -2.4692    0.8737   -0.7054 C   0  0  0  0  0  0  0  0  0  0  0  0
   -1.5121   -0.5512    0.9949 C   0  0  0  0  0  0  0  0  0  0  0  0
   -3.3040   -0.1685   -1.1089 C   0  0  0  0  0  0  0  0  0  0  0  0
   -2.3469   -1.5933    0.5914 C   0  0  0  0  0  0  0  0  0  0  0  0
   -3.2428   -1.4018   -0.4606 C   0  0  0  0  0  0  0  0  0  0  0  0
    3.2443   -0.4636   -0.1883 C   0  0  0  0  0  0  0  0  0  0  0  0
  1  2  1  0
  1  7  1  0
  2 13  2  3
  3 13  1  0
  4 13  1  0
  5  6  1  0
  5  7  1  0
  6  8  2  0
  6  9  1  0
  8 10  1  0
  9 11  2  0
 10 12  2  0
 11 12  1  0
M  END
>  <PUBCHEM_COMPOUND_CID>  (1) 
15896

>  <PUBCHEM_CONFORMER_RMSD>  (1) 
0.6

>  <PUBCHEM_CONFORMER_DIVERSEORDER>  (1) 
1
27
5
33
3
22
26
17
34
20
30
16
7
13
6
29
25
21
11
23
12
18
19
10
24
32
15
31
14
4
8
9
2
28

>  <PUBCHEM_MMFF94_PARTIAL_CHARGES>  (1) 
22
1 -0.22
10 -0.15
11 -0.15
12 -0.15
13 0.55
18 0.15
19 0.15
2 -0.51
20 0.15
21 0.15
22 0.15
23 0.4
24 0.4
25 0.4
26 0.4
3 -0.85
4 -0.85
5 0.14
6 -0.14
7 0.28
8 -0.15
9 -0.15

>  <PUBCHEM_EFFECTIVE_ROTOR_COUNT>  (1) 
4

>  <PUBCHEM_PHARMACOPHORE_FEATURES>  (1) 
4
1 3 donor
1 4 donor
4 2 3 4 13 cation
6 6 8 9 10 11 12 rings

>  <PUBCHEM_HEAVY_ATOM_COUNT>  (1) 
13

>  <PUBCHEM_ATOM_DEF_STEREO_COUNT>  (1) 
0

>  <PUBCHEM_ATOM_UDEF_STEREO_COUNT>  (1) 
0

>  <PUBCHEM_BOND_DEF_STEREO_COUNT>  (1) 
0

>  <PUBCHEM_BOND_UDEF_STEREO_COUNT>  (1) 
0

>  <PUBCHEM_ISOTOPIC_ATOM_COUNT>  (1) 
0

>  <PUBCHEM_COMPONENT_COUNT>  (1) 
1

>  <PUBCHEM_CACTVS_TAUTO_COUNT>  (1) 
2

>  <PUBCHEM_CONFORMER_ID>  (1) 
00003E1800000001

>  <PUBCHEM_MMFF94_ENERGY>  (1) 
31.0464

>  <PUBCHEM_FEATURE_SELFOVERLAP>  (1) 
20.352

>  <PUBCHEM_SHAPE_FINGERPRINT>  (1) 
10857977 72 12678633043421711425
11127187 94 18334014999400120807
11137873 295 18411421730434259275
12186901 62 17095233740425198791
12251169 10 11743840278498553009
13296908 3 18271804652854169232
17834072 14 18340190973403887384
20201158 50 18409446990044019167
20361792 2 17917710244569935581
20645477 70 18200305653767627485
20671657 53 18411703201079365260
20828058 19 17989484147422597457
20871999 31 18186237316522504189
22802520 49 17968936543158746457
23403322 49 18412826867508236046
23559900 14 18410845556646110744
27216 239 9439396926259998263
93112 12 18113053852494714140

>  <PUBCHEM_SHAPE_MULTIPOLES>  (1) 
246.72
6.95
1.87
1
6.33
0.23
-0.02
-3.43
-2.2
-0.25
0.31
-0.42
-0.05
0.1

>  <PUBCHEM_SHAPE_SELFOVERLAP>  (1) 
499.173

>  <PUBCHEM_SHAPE_VOLUME>  (1) 
143.7

>  <PUBCHEM_COORDINATE_TYPE>  (1) 
2
5
10

$$$$
