15892
     RDKit          3D

 14 14  0  0  0  0  0  0  0  0999 V2000
    2.4152    0.1682    0.4080 O   0  0  0  0  0  0  0  0  0  0  0  0
    0.8157    2.4050    0.0756 O   0  0  0  0  0  0  0  0  0  0  0  0
    1.2576   -2.3471    0.4759 O   0  0  0  0  0  0  0  0  0  0  0  0
   -4.2645   -0.5068   -0.2324 N   0  0  0  0  0  0  0  0  0  0  0  0
    1.0647    0.0318    0.2782 C   0  0  0  0  0  0  0  0  0  0  0  0
    0.2624    1.1606    0.1110 C   0  0  0  0  0  0  0  0  0  0  0  0
    0.4854   -1.2367    0.3132 C   0  0  0  0  0  0  0  0  0  0  0  0
   -1.1192    1.0210   -0.0213 C   0  0  0  0  0  0  0  0  0  0  0  0
   -0.8963   -1.3762    0.1808 C   0  0  0  0  0  0  0  0  0  0  0  0
   -1.6984   -0.2473    0.0136 C   0  0  0  0  0  0  0  0  0  0  0  0
    3.1104    0.7818   -0.6749 C   0  0  0  0  0  0  0  0  0  0  0  0
   -0.0746    3.5054   -0.0988 C   0  0  0  0  0  0  0  0  0  0  0  0
    1.7553   -2.9694   -0.7068 C   0  0  0  0  0  0  0  0  0  0  0  0
   -3.1137   -0.3903   -0.1220 C   0  0  0  0  0  0  0  0  0  0  0  0
  1  5  1  0
  1 11  1  0
  2  6  1  0
  2 12  1  0
  3  7  1  0
  3 13  1  0
  4 14  3  0
  5  6  2  0
  5  7  1  0
  6  8  1  0
  7  9  2  0
  8 10  2  0
  9 10  1  0
 10 14  1  0
M  END
>  <PUBCHEM_COMPOUND_CID>  (1) 
15892

>  <PUBCHEM_CONFORMER_RMSD>  (1) 
0.6

>  <PUBCHEM_CONFORMER_DIVERSEORDER>  (1) 
2
3
1

>  <PUBCHEM_MMFF94_PARTIAL_CHARGES>  (1) 
16
1 -0.36
10 0.07
11 0.28
12 0.28
13 0.28
14 0.48
15 0.15
16 0.15
2 -0.36
3 -0.36
4 -0.56
5 0.08
6 0.08
7 0.08
8 -0.15
9 -0.15

>  <PUBCHEM_EFFECTIVE_ROTOR_COUNT>  (1) 
3

>  <PUBCHEM_PHARMACOPHORE_FEATURES>  (1) 
5
1 1 acceptor
1 2 acceptor
1 3 acceptor
1 4 acceptor
6 5 6 7 8 9 10 rings

>  <PUBCHEM_HEAVY_ATOM_COUNT>  (1) 
14

>  <PUBCHEM_ATOM_DEF_STEREO_COUNT>  (1) 
0

>  <PUBCHEM_ATOM_UDEF_STEREO_COUNT>  (1) 
0

>  <PUBCHEM_BOND_DEF_STEREO_COUNT>  (1) 
0

>  <PUBCHEM_BOND_UDEF_STEREO_COUNT>  (1) 
0

>  <PUBCHEM_ISOTOPIC_ATOM_COUNT>  (1) 
0

>  <PUBCHEM_COMPONENT_COUNT>  (1) 
1

>  <PUBCHEM_CACTVS_TAUTO_COUNT>  (1) 
1

>  <PUBCHEM_CONFORMER_ID>  (1) 
00003E1400000002

>  <PUBCHEM_MMFF94_ENERGY>  (1) 
62.1016

>  <PUBCHEM_FEATURE_SELFOVERLAP>  (1) 
25.383

>  <PUBCHEM_SHAPE_FINGERPRINT>  (1) 
1 1 18265892643382604375
10967382 1 18410292553140244259
11471102 20 18409441523072611567
116883 192 17909259187977287813
12423570 1 12317808476760466922
13140716 1 18121778602120961185
13380535 76 18335418014686608115
13380536 305 18194120939358058033
14911166 2 18337957903647070381
15490181 7 17399242339567242528
161256 15 18269273461149396034
16945 1 18411136978339447099
193761 8 18050004385582750912
20511035 2 17609501875105840754
20588541 1 18334015020785377339
20645476 183 17460607059019636566
20645477 70 18338789032229366247
20871998 22 18197495130174993483
21501502 16 18196096534030006762
21524375 3 17613142384265860857
22289505 5 18263065666323810405
2334 1 17689434206082286657
23402539 116 18271519922798481788
23419403 2 15667792601544324592
23526114 1 18339079272727470935
23552423 10 18118688716448516882
23557571 272 17336464143186009550
23559900 14 16758308974956203198
241688 4 18122344575541506739
25 1 18261953050265250757
2748010 2 18194392304113362903
3060560 45 18340198721398191519
3071541 250 18267592316339245903
528886 8 18338230591141727450
589210 1 17977668606613274836
7364860 26 18340766035212386979
81228 2 17617365191721135019

>  <PUBCHEM_SHAPE_MULTIPOLES>  (1) 
265.52
4.34
3.38
0.71
3.32
1.35
0.04
-1.29
0.79
-1.63
0.31
-0.18
-0.11
0.03

>  <PUBCHEM_SHAPE_SELFOVERLAP>  (1) 
549.562

>  <PUBCHEM_SHAPE_VOLUME>  (1) 
151.7

>  <PUBCHEM_COORDINATE_TYPE>  (1) 
2
5
10

$$$$
