15914
     RDKit          3D

 10 10  0  0  0  0  0  0  0  0999 V2000
    1.5570    0.0054    0.0001 N   0  0  0  0  0  0  0  0  0  0  0  0
    0.0264   -0.0014    0.0001 C   0  0  0  0  0  0  0  0  0  0  0  0
    2.0444    0.7304    1.2513 C   0  0  0  0  0  0  0  0  0  0  0  0
    2.0450    0.7117   -1.2617 C   0  0  0  0  0  0  0  0  0  0  0  0
    2.1406   -1.4060    0.0102 C   0  0  0  0  0  0  0  0  0  0  0  0
   -0.5914    1.2041   -0.0003 C   0  0  0  0  0  0  0  0  0  0  0  0
   -0.5812   -1.2118    0.0004 C   0  0  0  0  0  0  0  0  0  0  0  0
   -1.9863    1.1982   -0.0003 C   0  0  0  0  0  0  0  0  0  0  0  0
   -1.9760   -1.2178    0.0003 C   0  0  0  0  0  0  0  0  0  0  0  0
   -2.6786   -0.0127    0.0000 C   0  0  0  0  0  0  0  0  0  0  0  0
  1  2  1  0
  1  3  1  0
  1  4  1  0
  1  5  1  0
  2  6  2  0
  2  7  1  0
  6  8  1  0
  7  9  2  0
  8 10  2  0
  9 10  1  0
M  CHG  1   1   1
M  END
>  <PUBCHEM_COMPOUND_CID>  (1) 
15914

>  <PUBCHEM_CONFORMER_RMSD>  (1) 
0.4

>  <PUBCHEM_CONFORMER_DIVERSEORDER>  (1) 
1

>  <PUBCHEM_MMFF94_PARTIAL_CHARGES>  (1) 
15
1 -0.87
10 -0.15
2 0.36
20 0.15
21 0.15
22 0.15
23 0.15
24 0.15
3 0.5
4 0.5
5 0.5
6 -0.15
7 -0.15
8 -0.15
9 -0.15

>  <PUBCHEM_EFFECTIVE_ROTOR_COUNT>  (1) 
1

>  <PUBCHEM_PHARMACOPHORE_FEATURES>  (1) 
2
1 1 cation
6 2 6 7 8 9 10 rings

>  <PUBCHEM_HEAVY_ATOM_COUNT>  (1) 
10

>  <PUBCHEM_ATOM_DEF_STEREO_COUNT>  (1) 
0

>  <PUBCHEM_ATOM_UDEF_STEREO_COUNT>  (1) 
0

>  <PUBCHEM_BOND_DEF_STEREO_COUNT>  (1) 
0

>  <PUBCHEM_BOND_UDEF_STEREO_COUNT>  (1) 
0

>  <PUBCHEM_ISOTOPIC_ATOM_COUNT>  (1) 
0

>  <PUBCHEM_COMPONENT_COUNT>  (1) 
1

>  <PUBCHEM_CACTVS_TAUTO_COUNT>  (1) 
1

>  <PUBCHEM_CONFORMER_ID>  (1) 
00003E2A00000001

>  <PUBCHEM_MMFF94_ENERGY>  (1) 
45.731

>  <PUBCHEM_FEATURE_SELFOVERLAP>  (1) 
10.148

>  <PUBCHEM_SHAPE_FINGERPRINT>  (1) 
10857977 72 18267577077995298185
12326174 3 16630527323887777302
12897270 3 18264219156451572812
12932764 1 18060423538140300007
14128692 85 18265906769683210142
15310529 11 16515681182392799493
16945 1 18338516464428660581
20645464 45 17846210089952392792
21040471 1 18410575041887563717
23552423 10 18187649084967813779
2748010 2 18411135814398093647
29004967 10 18340485685242820971
3248919 1 18040712597489401667
369184 2 18060128843301614651
5084963 1 18262801752766564097
8030462 33 18411699898048794887

>  <PUBCHEM_SHAPE_MULTIPOLES>  (1) 
200.81
3.73
1.52
0.93
0.23
0.22
-0.01
0.05
0
0.09
0.01
-0.66
-0.23
0

>  <PUBCHEM_SHAPE_SELFOVERLAP>  (1) 
405.943

>  <PUBCHEM_SHAPE_VOLUME>  (1) 
119.6

>  <PUBCHEM_COORDINATE_TYPE>  (1) 
2
5
10

$$$$
