15912
     RDKit          3D

 18 20  0  0  0  0  0  0  0  0999 V2000
   -0.0022    0.0078    0.0009 N   0  0  0  0  0  0  0  0  0  0  0  0
    1.1961   -2.0489   -0.3019 N   0  0  0  0  0  0  0  0  0  0  0  0
   -1.2034   -2.0472   -0.3019 N   0  0  0  0  0  0  0  0  0  0  0  0
   -2.3709   -0.0081   -0.0017 C   0  0  0  0  0  0  0  0  0  0  0  0
    2.3664   -0.0113   -0.0016 C   0  0  0  0  0  0  0  0  0  0  0  0
   -1.1183   -0.7248   -0.1073 C   0  0  0  0  0  0  0  0  0  0  0  0
    1.1194   -0.7226   -0.1066 C   0  0  0  0  0  0  0  0  0  0  0  0
   -3.4983   -0.6467    0.5150 C   0  0  0  0  0  0  0  0  0  0  0  0
   -2.4511    1.3215   -0.4160 C   0  0  0  0  0  0  0  0  0  0  0  0
    3.4994   -0.6478    0.5157 C   0  0  0  0  0  0  0  0  0  0  0  0
    2.4552    1.3215   -0.4163 C   0  0  0  0  0  0  0  0  0  0  0  0
   -4.7058    0.0440    0.6172 C   0  0  0  0  0  0  0  0  0  0  0  0
   -3.6586    2.0121   -0.3136 C   0  0  0  0  0  0  0  0  0  0  0  0
    4.7080    0.0412    0.6175 C   0  0  0  0  0  0  0  0  0  0  0  0
    3.6639    2.0104   -0.3147 C   0  0  0  0  0  0  0  0  0  0  0  0
   -4.7859    1.3734    0.2030 C   0  0  0  0  0  0  0  0  0  0  0  0
    4.7902    1.3701    0.2022 C   0  0  0  0  0  0  0  0  0  0  0  0
   -0.0040   -2.6446   -0.3898 C   0  0  0  0  0  0  0  0  0  0  0  0
  1  6  2  0
  1  7  1  0
  2  7  2  0
  2 18  1  0
  3  6  1  0
  3 18  2  0
  4  6  1  0
  4  8  2  0
  4  9  1  0
  5  7  1  0
  5 10  2  0
  5 11  1  0
  8 12  1  0
  9 13  2  0
 10 14  1  0
 11 15  2  0
 12 16  2  0
 13 16  1  0
 14 17  2  0
 15 17  1  0
M  END
>  <PUBCHEM_COMPOUND_CID>  (1) 
15912

>  <PUBCHEM_CONFORMER_RMSD>  (1) 
0.6

>  <PUBCHEM_CONFORMER_DIVERSEORDER>  (1) 
1
3
2

>  <PUBCHEM_MMFF94_PARTIAL_CHARGES>  (1) 
27
1 -0.62
10 -0.15
11 -0.15
12 -0.15
13 -0.15
14 -0.15
15 -0.15
16 -0.15
17 -0.15
18 0.47
19 0.15
2 -0.62
20 0.15
21 0.15
22 0.15
23 0.15
24 0.15
25 0.15
26 0.15
27 0.15
28 0.15
29 0.15
3 -0.62
6 0.62
7 0.62
8 -0.15
9 -0.15

>  <PUBCHEM_EFFECTIVE_ROTOR_COUNT>  (1) 
2

>  <PUBCHEM_PHARMACOPHORE_FEATURES>  (1) 
6
3 1 2 7 cation
3 1 3 6 cation
3 2 3 18 cation
6 1 2 3 6 7 18 rings
6 4 8 9 12 13 16 rings
6 5 10 11 14 15 17 rings

>  <PUBCHEM_HEAVY_ATOM_COUNT>  (1) 
18

>  <PUBCHEM_ATOM_DEF_STEREO_COUNT>  (1) 
0

>  <PUBCHEM_ATOM_UDEF_STEREO_COUNT>  (1) 
0

>  <PUBCHEM_BOND_DEF_STEREO_COUNT>  (1) 
0

>  <PUBCHEM_BOND_UDEF_STEREO_COUNT>  (1) 
0

>  <PUBCHEM_ISOTOPIC_ATOM_COUNT>  (1) 
0

>  <PUBCHEM_COMPONENT_COUNT>  (1) 
1

>  <PUBCHEM_CACTVS_TAUTO_COUNT>  (1) 
1

>  <PUBCHEM_CONFORMER_ID>  (1) 
00003E2800000001

>  <PUBCHEM_MMFF94_ENERGY>  (1) 
54.2631

>  <PUBCHEM_FEATURE_SELFOVERLAP>  (1) 
33.23

>  <PUBCHEM_SHAPE_FINGERPRINT>  (1) 
10608611 8 18191588545595003749
11543360 7 13829841443860148770
12107183 9 17683230370325420241
12173636 292 18268423714833782630
122479 349 18335986449386866042
12251169 10 18187644730171376694
12363563 72 8286201681759559721
12390115 104 18270981101517960369
12403259 118 18260542346618922025
12592029 89 18335704914386258106
12596602 18 16877943875160483353
12633257 1 15936413372545626952
12892183 10 17748827414458661523
13288520 33 8502378840429115961
13544653 18 9943805612000625908
13583140 156 17096069347128023975
13785724 45 17833546796110150162
14123255 52 18412262843628029990
14252887 29 12757150147918709304
14341114 176 18113342998325232936
15188451 53 15575005034878550257
15196674 1 18409730659733239277
15342816 4 8862949407130498568
1741750 31 18342740744984195482
17834072 32 18412263960425398700
1798214 55 18413670210011611736
18186145 218 18130520638373733414
18222031 100 12324244983289958859
193927 3 11242246312576513208
19784866 9 18411697643285864762
204376 136 18413953888417302027
20645477 56 18341614866768480064
20645477 70 16773532005430661230
20715895 44 18047746001901485085
212916 134 18200012024276231354
21524375 3 18413388752167407943
21652331 79 18334857233696861421
22646028 28 8646774395427794112
22854114 59 18410014325454299449
22950370 63 8935001494630046933
23227448 37 18341612671918756015
23402539 116 18201430398080477396
23559900 14 18122623843127138035
2916195 48 17917419977979806360
335352 9 18411699860196085590
351380 180 18259983769026441745
3545911 37 18341898506619659048
474 4 18411700946136781595
474229 33 18411419553181590095
5104073 3 18335421261596929915
58051976 378 18341894052611985773
6333272 397 18410858750073130058
633830 44 18201440220855124573
6430166 295 18411134749383347664
7364860 26 18198062469410911662
76465 3 10809638042701143393
7808743 9 18194683894097349408
7832392 63 18337668745696689940

>  <PUBCHEM_SHAPE_MULTIPOLES>  (1) 
355.49
10.41
2.37
0.73
0.03
0.62
-0.03
-5.94
-2
0
0.45
0
0
0

>  <PUBCHEM_SHAPE_SELFOVERLAP>  (1) 
789.164

>  <PUBCHEM_SHAPE_VOLUME>  (1) 
184.6

>  <PUBCHEM_COORDINATE_TYPE>  (1) 
2
5
10

$$$$
