15918
     RDKit          3D

 26 28  0  0  1  0  0  0  0  0999 V2000
   -9.6454   -0.1694    0.3174 Cl  0  0  0  0  0  0  0  0  0  0  0  0
    5.4100   -2.4365    0.2017 O   0  0  0  0  0  0  0  0  0  0  0  0
    6.8899   -0.1954   -0.5041 O   0  0  0  0  0  0  0  0  0  0  0  0
    0.7159    1.4575   -0.1660 N   0  0  0  0  0  0  0  0  0  0  0  0
    1.2974    0.2485    0.4590 C   0  0  0  0  0  0  0  0  0  0  0  0
    1.4580    2.6701    0.1880 C   0  0  0  0  0  0  0  0  0  0  0  0
    2.7910    0.1334    0.1808 C   0  0  0  0  0  0  0  0  0  0  0  0
    2.8780    2.6014   -0.3780 C   0  0  0  0  0  0  0  0  0  0  0  0
   -0.7129    1.6159    0.0856 C   0  0  0  0  0  0  0  0  0  0  0  0
    3.5452    1.2672   -0.1705 C   0  0  0  0  0  0  0  0  0  0  0  0
   -1.4657    0.3486   -0.3157 C   0  0  0  0  0  0  0  0  0  0  0  0
    1.0448    0.1140    1.9723 C   0  0  0  0  0  0  0  0  0  0  0  0
    3.4361   -1.1082    0.3007 C   0  0  0  0  0  0  0  0  0  0  0  0
   -2.9686    0.4965   -0.0686 C   0  0  0  0  0  0  0  0  0  0  0  0
    4.9225    1.1409   -0.4015 C   0  0  0  0  0  0  0  0  0  0  0  0
    4.8080   -1.2210    0.0761 C   0  0  0  0  0  0  0  0  0  0  0  0
    5.5509   -0.0969   -0.2733 C   0  0  0  0  0  0  0  0  0  0  0  0
   -3.7286   -0.7587   -0.5032 C   0  0  0  0  0  0  0  0  0  0  0  0
   -5.2143   -0.6099   -0.2966 C   0  0  0  0  0  0  0  0  0  0  0  0
   -5.7767   -0.9958    0.9110 C   0  0  0  0  0  0  0  0  0  0  0  0
   -5.9958   -0.0902   -1.3182 C   0  0  0  0  0  0  0  0  0  0  0  0
    5.4754   -3.2503   -0.9677 C   0  0  0  0  0  0  0  0  0  0  0  0
    7.7562   -0.0115    0.6143 C   0  0  0  0  0  0  0  0  0  0  0  0
   -7.1517   -0.8591    1.1016 C   0  0  0  0  0  0  0  0  0  0  0  0
   -7.3708    0.0466   -1.1275 C   0  0  0  0  0  0  0  0  0  0  0  0
   -7.9488   -0.3378    0.0823 C   0  0  0  0  0  0  0  0  0  0  0  0
  1 26  1  0
  2 16  1  0
  2 22  1  0
  3 17  1  0
  3 23  1  0
  4  5  1  0
  4  6  1  0
  4  9  1  0
  5  7  1  0
  5 12  1  0
  6  8  1  0
  7 10  2  0
  7 13  1  0
  8 10  1  0
  9 11  1  0
 10 15  1  0
 11 14  1  0
 13 16  2  0
 14 18  1  0
 15 17  2  0
 16 17  1  0
 18 19  1  0
 19 20  2  0
 19 21  1  0
 20 24  1  0
 21 25  2  0
 24 26  2  0
 25 26  1  0
M  END
>  <PUBCHEM_COMPOUND_CID>  (1) 
15918

>  <PUBCHEM_CONFORMER_RMSD>  (1) 
0.8

>  <PUBCHEM_CONFORMER_DIVERSEORDER>  (1) 
1
201
25
171
206
121
197
28
106
190
115
49
209
51
211
205
52
203
100
125
148
86
147
187
105
45
191
145
68
16
132
72
118
10
26
116
9
82
67
216
7
35
215
46
173
22
38
75
80
6
185
15
91
108
210
42
33
188
199
54
92
2
39
158
169
74
213
103
60
156
93
126
186
107
214
200
21
208
95
4
37
183
202
53
179
66
174
97
90
87
55
32
18
23
34
160
14
166
17
3
112
19
50
20
138
175
155
162
81
194
140
130
195
65
41
77
142
177
24
196
44
59
127
137
36
134
71
84
47
131
192
8
123
89
78
73
129
172
102
136
61
109
161
167
31
165
79
149
11
104
181
99
163
29
193
70
63
128
5
117
170
146
154
204
30
96
150
57
13
76
58
198
40
153
124
184
119
207
152
111
212
101
135
56
143
12
83
159
110
62
88
217
133
120
64
176
98
113
189
151
141
69
164
94
157
180
43
48
178
182
139
85
122
27
144
168
114

>  <PUBCHEM_MMFF94_PARTIAL_CHARGES>  (1) 
29
1 -0.18
10 -0.14
13 -0.15
15 -0.15
16 0.08
17 0.08
18 0.14
19 -0.14
2 -0.36
20 -0.15
21 -0.15
22 0.28
23 0.28
24 -0.15
25 -0.15
26 0.18
3 -0.36
39 0.15
4 -0.81
42 0.15
45 0.15
46 0.15
5 0.41
53 0.15
54 0.15
6 0.27
7 -0.14
8 0.14
9 0.27

>  <PUBCHEM_EFFECTIVE_ROTOR_COUNT>  (1) 
7.8

>  <PUBCHEM_PHARMACOPHORE_FEATURES>  (1) 
6
1 2 acceptor
1 3 acceptor
1 4 cation
6 19 20 21 24 25 26 rings
6 4 5 6 7 8 10 rings
6 7 10 13 15 16 17 rings

>  <PUBCHEM_HEAVY_ATOM_COUNT>  (1) 
26

>  <PUBCHEM_ATOM_DEF_STEREO_COUNT>  (1) 
0

>  <PUBCHEM_ATOM_UDEF_STEREO_COUNT>  (1) 
1

>  <PUBCHEM_BOND_DEF_STEREO_COUNT>  (1) 
0

>  <PUBCHEM_BOND_UDEF_STEREO_COUNT>  (1) 
0

>  <PUBCHEM_ISOTOPIC_ATOM_COUNT>  (1) 
0

>  <PUBCHEM_COMPONENT_COUNT>  (1) 
1

>  <PUBCHEM_CACTVS_TAUTO_COUNT>  (1) 
1

>  <PUBCHEM_CONFORMER_ID>  (1) 
00003E2E00000001

>  <PUBCHEM_MMFF94_ENERGY>  (1) 
82.395

>  <PUBCHEM_FEATURE_SELFOVERLAP>  (1) 
30.472

>  <PUBCHEM_SHAPE_FINGERPRINT>  (1) 
10299344 5 18202002136096064383
117089 54 18054237535832159422
12522641 24 17561075956574194488
12592606 108 18343299293493197239
12623949 98 17702392754508228798
13533116 47 18343581862694733064
13673619 4 18260264153250660853
13685833 64 18410575080368111623
14170010 4 18409164450527582752
14216079 64 18412263917881725943
14251764 18 17561084717484200297
14933364 13 18040433309357900573
15183329 4 18411417315350245387
15301273 46 13758078497833042744
15352257 5 18261675965099194115
15419008 47 17676199178898862757
15483637 11 18120375624995048083
15510794 2 17967816089734568179
17492 89 18124596371910024662
19301679 30 17917157078367086735
20105231 36 17095246934944424043
20567600 234 11024103252754298491
21150785 3 12612754627770554937
21267235 1 18410295808831345988
21315759 40 17775003518784872919
21344244 181 18187369809120400274
221357 26 18260825994759485148
22224240 67 16415477164409747670
22956985 138 17056981571754743062
23522609 53 17915204471057140409
23559900 14 18335134354230731825
249057 3 18409729598902548207
2838139 119 11097855206969203314
28498 318 18410572869393585525
3004659 81 18186796997916226609
3178227 256 18409451392565014723
3472631 163 11314318234572333328
34797466 226 16950286238483187701
4073 2 17896322591857742483
439807 62 18187365415262457574
46194498 28 17749106712367300412
465052 167 18342178873051637638
54039377 194 18270965623215916574
9962374 69 18270108132535599887

>  <PUBCHEM_SHAPE_MULTIPOLES>  (1) 
520.22
26.72
2.26
1.08
40.16
0.3
0.2
10.48
-0.82
-4.99
-0.4
0.77
0.16
0.76

>  <PUBCHEM_SHAPE_SELFOVERLAP>  (1) 
1083.227

>  <PUBCHEM_SHAPE_VOLUME>  (1) 
298.9

>  <PUBCHEM_COORDINATE_TYPE>  (1) 
2
5
10

$$$$
