15925
     RDKit          3D

 17 17  0  0  0  0  0  0  0  0999 V2000
    5.7582   -0.5673   -0.2318 Cl  0  0  0  0  0  0  0  0  0  0  0  0
    0.3410    3.8313    0.5670 Cl  0  0  0  0  0  0  0  0  0  0  0  0
   -1.3734   -0.4048   -0.5441 O   0  0  0  0  0  0  0  0  0  0  0  0
    1.2866   -1.9948   -0.9396 O   0  0  0  0  0  0  0  0  0  0  0  0
   -4.7688    0.0366    0.1552 O   0  0  0  0  0  0  0  0  0  0  0  0
   -3.5642    0.5238   -1.6194 O   0  0  0  0  0  0  0  0  0  0  0  0
    1.7703    0.0959   -0.0724 N   0  0  0  0  0  0  0  0  0  0  0  0
   -3.6567    0.0504   -0.4490 N   0  0  0  0  0  0  0  0  0  0  0  0
    3.1291    0.0787   -0.5985 C   0  0  0  0  0  0  0  0  0  0  0  0
    1.3905    1.3101    0.6478 C   0  0  0  0  0  0  0  0  0  0  0  0
    0.9214   -1.0046   -0.3026 C   0  0  0  0  0  0  0  0  0  0  0  0
   -0.4317   -0.9416    0.2459 C   0  0  0  0  0  0  0  0  0  0  0  0
    4.0950   -0.5315    0.4049 C   0  0  0  0  0  0  0  0  0  0  0  0
    0.8173    2.3506   -0.3014 C   0  0  0  0  0  0  0  0  0  0  0  0
   -0.9070   -1.3427    1.4444 C   0  0  0  0  0  0  0  0  0  0  0  0
   -2.2868   -1.0294    1.4120 C   0  0  0  0  0  0  0  0  0  0  0  0
   -2.5208   -0.4608    0.1816 C   0  0  0  0  0  0  0  0  0  0  0  0
  1 13  1  0
  2 14  1  0
  3 12  1  0
  3 17  1  0
  4 11  2  0
  5  8  1  0
  6  8  2  0
  7  9  1  0
  7 10  1  0
  7 11  1  0
  8 17  1  0
  9 13  1  0
 10 14  1  0
 11 12  1  0
 12 15  2  0
 15 16  1  0
 16 17  2  0
M  CHG  2   5  -1   8   1
M  END
>  <PUBCHEM_COMPOUND_CID>  (1) 
15925

>  <PUBCHEM_CONFORMER_RMSD>  (1) 
0.8

>  <PUBCHEM_CONFORMER_DIVERSEORDER>  (1) 
1
14
41
59
32
5
53
49
10
19
43
54
26
2
21
48
11
24
22
8
3
12
23
57
4
35
30
29
9
16
15
45
25
52
58
37
28
7
55
18
47
44
31
6
17
36
56
33
39
34
13
46
42
20
38
51
27
60
40
50

>  <PUBCHEM_MMFF94_PARTIAL_CHARGES>  (1) 
19
1 -0.29
10 0.3
11 0.71
12 0.05
13 0.29
14 0.29
15 -0.15
16 -0.15
17 0.22
2 -0.29
26 0.15
27 0.15
3 -0.28
4 -0.57
5 -0.52
6 -0.52
7 -0.66
8 0.96
9 0.3

>  <PUBCHEM_EFFECTIVE_ROTOR_COUNT>  (1) 
7

>  <PUBCHEM_PHARMACOPHORE_FEATURES>  (1) 
6
1 3 acceptor
1 4 acceptor
1 5 acceptor
1 5 anion
1 6 acceptor
5 3 12 15 16 17 rings

>  <PUBCHEM_HEAVY_ATOM_COUNT>  (1) 
17

>  <PUBCHEM_ATOM_DEF_STEREO_COUNT>  (1) 
0

>  <PUBCHEM_ATOM_UDEF_STEREO_COUNT>  (1) 
0

>  <PUBCHEM_BOND_DEF_STEREO_COUNT>  (1) 
0

>  <PUBCHEM_BOND_UDEF_STEREO_COUNT>  (1) 
0

>  <PUBCHEM_ISOTOPIC_ATOM_COUNT>  (1) 
0

>  <PUBCHEM_COMPONENT_COUNT>  (1) 
1

>  <PUBCHEM_CACTVS_TAUTO_COUNT>  (1) 
1

>  <PUBCHEM_CONFORMER_ID>  (1) 
00003E3500000001

>  <PUBCHEM_MMFF94_ENERGY>  (1) 
31.0101

>  <PUBCHEM_FEATURE_SELFOVERLAP>  (1) 
30.539

>  <PUBCHEM_SHAPE_FINGERPRINT>  (1) 
104564 63 18268714918032971600
10465860 250 18260266361105982658
12236239 1 16845293825839159990
12403259 226 18189898802086221035
124424 183 18259987089078392002
12507560 18 17894631443994614576
12788726 201 18262795152082507656
13134695 92 18341611555359660228
14648413 74 18119532295259555248
14957384 54 15285902668348447703
15048467 5 16950285118135059022
15295992 7 18261401108603341729
15490181 7 17403751432758510388
15848700 24 18271801324644833580
16945 1 18200328691719196715
17041 50 18336262439663855504
17357779 13 18272084964079579988
192875 21 18131355236381957617
200 152 17561362872356369003
20233049 118 18186516609777167036
21130352 189 18411138077835478016
22079108 93 11530776928459068006
23175994 123 18409456885938676596
23402539 116 18272929401620047382
23558518 356 17904212429727153900
25 1 18261390023118637971
266924 87 18195529186668423486
2748010 2 18048602813163188661
3060560 45 18131348609257988983
3084891 72 18335137557859642402
3286 77 18191306176801034343
3524813 1 18040987437090066493
57100710 210 14836406891401221424
68521 5 18338802217567753708
81228 2 18193855746987663944

>  <PUBCHEM_SHAPE_MULTIPOLES>  (1) 
320.15
8.21
2.64
1.13
4.2
3.91
0.06
-2.45
-1.32
0.61
0.53
-0.73
-0.18
0.67

>  <PUBCHEM_SHAPE_SELFOVERLAP>  (1) 
632.772

>  <PUBCHEM_SHAPE_VOLUME>  (1) 
194.6

>  <PUBCHEM_COORDINATE_TYPE>  (1) 
2
5
10

$$$$
