15937
     RDKit          3D

 22 23  0  0  1  0  0  0  0  0999 V2000
   -0.4587    1.7898    0.4370 S   0  0  0  0  0  0  0  0  0  0  0  0
   -3.8070   -0.9650    0.6956 O   0  0  0  0  0  0  0  0  0  0  0  0
   -0.9052    1.3307    1.7385 O   0  0  0  0  0  0  0  0  0  0  0  0
   -0.4341    3.2076    0.1324 O   0  0  0  0  0  0  0  0  0  0  0  0
    5.1392   -2.1847    0.9200 O   0  0  0  0  0  0  0  0  0  0  0  0
   -6.3572   -0.5880   -0.5076 N   0  0  0  0  0  0  0  0  0  0  0  0
   -1.3318    0.9806   -0.7766 N   0  0  0  0  0  0  0  0  0  0  0  0
    5.0352   -0.2630   -0.4420 N   0  0  0  0  0  0  0  0  0  0  0  0
   -3.9061   -0.4912   -0.6528 C   0  0  0  0  0  0  0  0  0  0  0  0
   -2.6805   -0.9835   -1.4100 C   0  0  0  0  0  0  0  0  0  0  0  0
   -5.1956   -1.0136   -1.2919 C   0  0  0  0  0  0  0  0  0  0  0  0
   -1.3739   -0.4977   -0.7950 C   0  0  0  0  0  0  0  0  0  0  0  0
   -6.2233   -1.0390    0.8783 C   0  0  0  0  0  0  0  0  0  0  0  0
   -4.9198   -0.5251    1.4763 C   0  0  0  0  0  0  0  0  0  0  0  0
    1.1791    1.1781    0.1756 C   0  0  0  0  0  0  0  0  0  0  0  0
    1.5871    0.0342    0.8393 C   0  0  0  0  0  0  0  0  0  0  0  0
    2.0225    1.8545   -0.6883 C   0  0  0  0  0  0  0  0  0  0  0  0
    3.7432    0.2203   -0.2346 C   0  0  0  0  0  0  0  0  0  0  0  0
    2.8794   -0.4485    0.6325 C   0  0  0  0  0  0  0  0  0  0  0  0
    3.3148    1.3718   -0.8952 C   0  0  0  0  0  0  0  0  0  0  0  0
    5.6378   -1.3935    0.1261 C   0  0  0  0  0  0  0  0  0  0  0  0
    7.0547   -1.5746   -0.3575 C   0  0  0  0  0  0  0  0  0  0  0  0
  1  3  2  0
  1  4  2  0
  1  7  1  0
  1 15  1  0
  2  9  1  0
  2 14  1  0
  5 21  2  0
  6 11  1  0
  6 13  1  0
  7 12  1  0
  8 18  1  0
  8 21  1  0
  9 10  1  0
  9 11  1  0
 10 12  1  0
 13 14  1  0
 15 16  2  0
 15 17  1  0
 16 19  1  0
 17 20  2  0
 18 19  2  0
 18 20  1  0
 21 22  1  0
M  END
>  <PUBCHEM_COMPOUND_CID>  (1) 
15937

>  <PUBCHEM_CONFORMER_RMSD>  (1) 
0.8

>  <PUBCHEM_CONFORMER_DIVERSEORDER>  (1) 
1
91
40
156
125
107
60
146
164
25
128
70
57
166
165
37
150
95
29
158
163
121
63
23
137
155
19
120
101
41
111
8
106
124
73
140
132
147
134
28
92
56
110
35
100
93
116
131
86
36
18
46
62
76
157
10
75
160
129
17
108
34
85
5
96
119
82
55
24
78
104
33
162
112
7
21
149
74
90
136
71
16
94
47
22
65
139
102
83
142
66
115
15
54
105
26
109
97
6
72
143
49
69
141
99
114
151
9
27
126
50
145
98
67
58
32
2
148
64
14
118
122
13
59
154
3
103
31
42
45
135
130
84
117
113
4
144
81
138
87
161
80
127
159
152
88
11
133
68
51
44
39
20
52
48
79
43
12
30
38
53
153
77
123
89
61

>  <PUBCHEM_MMFF94_PARTIAL_CHARGES>  (1) 
28
1 1.45
11 0.27
12 0.36
13 0.27
14 0.28
15 -0.01
16 -0.15
17 -0.15
18 0.12
19 -0.15
2 -0.56
20 -0.15
21 0.57
22 0.06
3 -0.65
34 0.36
35 0.42
36 0.15
37 0.15
38 0.15
39 0.15
4 -0.65
40 0.37
5 -0.57
6 -0.9
7 -0.91
8 -0.55
9 0.28

>  <PUBCHEM_EFFECTIVE_ROTOR_COUNT>  (1) 
8.2

>  <PUBCHEM_PHARMACOPHORE_FEATURES>  (1) 
10
1 2 acceptor
1 3 acceptor
1 4 acceptor
1 5 acceptor
1 6 cation
1 6 donor
1 7 donor
1 8 donor
6 15 16 17 18 19 20 rings
6 2 6 9 11 13 14 rings

>  <PUBCHEM_HEAVY_ATOM_COUNT>  (1) 
22

>  <PUBCHEM_ATOM_DEF_STEREO_COUNT>  (1) 
0

>  <PUBCHEM_ATOM_UDEF_STEREO_COUNT>  (1) 
1

>  <PUBCHEM_BOND_DEF_STEREO_COUNT>  (1) 
0

>  <PUBCHEM_BOND_UDEF_STEREO_COUNT>  (1) 
0

>  <PUBCHEM_ISOTOPIC_ATOM_COUNT>  (1) 
0

>  <PUBCHEM_COMPONENT_COUNT>  (1) 
1

>  <PUBCHEM_CACTVS_TAUTO_COUNT>  (1) 
2

>  <PUBCHEM_CONFORMER_ID>  (1) 
00003E4100000001

>  <PUBCHEM_MMFF94_ENERGY>  (1) 
32.3226

>  <PUBCHEM_FEATURE_SELFOVERLAP>  (1) 
50.765

>  <PUBCHEM_SHAPE_FINGERPRINT>  (1) 
10 15 13614516360143553586
10753850 27 18261104150406652674
11961588 58 12107795124689061220
12236239 1 18130791191686258849
12592606 108 18412259558870053615
12596602 18 16988275482157379963
12633257 1 16200141123624606726
12760667 363 18411981347313788847
13533116 47 18412825815832001176
13583140 156 11959722802812621805
14251752 14 18336823105005957197
14251764 18 17418373631421199751
14251764 30 18187929521047800523
14350574 20 17894351081641344870
14739800 52 15911908651207459761
14774955 27 9583523117857423917
15183329 4 17168141213257861354
1813 80 18271535263910479997
193927 3 18409452458022566910
19784866 140 18187078447075375032
19784866 240 18408326570821219628
200 152 18333453131783914752
20567600 234 13398622892125967843
21150785 3 16877950438893559966
21267235 1 18410015425050368854
21315764 119 16660640713615600079
21365058 113 17458631150635721701
21637258 2 18343578542705852208
221357 26 17894906334570260301
22950370 63 18410576236057173285
23559900 14 17168142381694629005
2767999 5 8790882982339571046
3004659 81 18113333115916610482
3411729 13 16413778522288319728
345986 75 18272360928586688387
3472631 163 7925617930737868858
34797466 226 16371011866384565359
351380 3 18413386531985807662
46194498 28 17095241441174980334
465052 167 18339931514524475015
5104073 3 17130710672748844987
5207 217 11241974785007576533
53794403 172 11314899923542895102
54039377 194 18410016529126476766
559249 180 18341049614797081637
56616090 284 16805605858560193540
7970288 3 18412258445788104878

>  <PUBCHEM_SHAPE_MULTIPOLES>  (1) 
418.18
16.27
2.2
1.3
0.02
1.21
-0.13
-12.99
-0.12
-1.82
-0.12
1.29
-0.11
-0.8

>  <PUBCHEM_SHAPE_SELFOVERLAP>  (1) 
844.989

>  <PUBCHEM_SHAPE_VOLUME>  (1) 
243.7

>  <PUBCHEM_COORDINATE_TYPE>  (1) 
2
5
10

$$$$
