15935
     RDKit          3D

 21 21  0  0  0  0  0  0  0  0999 V2000
   -0.5286   -2.5637   -0.5501 S   0  0  0  0  0  0  0  0  0  0  0  0
   -0.8300   -2.3956   -1.9589 O   0  0  0  0  0  0  0  0  0  0  0  0
   -0.2855   -3.8871   -0.0088 O   0  0  0  0  0  0  0  0  0  0  0  0
    4.2083    2.4140   -0.9359 O   0  0  0  0  0  0  0  0  0  0  0  0
   -3.8667    1.2681    0.2488 N   0  0  0  0  0  0  0  0  0  0  0  0
   -1.7309   -1.8015    0.3789 N   0  0  0  0  0  0  0  0  0  0  0  0
    4.2462    0.7218    0.7053 N   0  0  0  0  0  0  0  0  0  0  0  0
   -3.5270   -0.1399    0.4516 C   0  0  0  0  0  0  0  0  0  0  0  0
   -2.0567   -0.3782    0.1402 C   0  0  0  0  0  0  0  0  0  0  0  0
   -3.5959    1.6654   -1.1323 C   0  0  0  0  0  0  0  0  0  0  0  0
   -5.2696    1.5087    0.5843 C   0  0  0  0  0  0  0  0  0  0  0  0
    0.8949   -1.5846   -0.1764 C   0  0  0  0  0  0  0  0  0  0  0  0
   -3.8855    3.1415   -1.3457 C   0  0  0  0  0  0  0  0  0  0  0  0
   -5.5693    1.1014    2.0169 C   0  0  0  0  0  0  0  0  0  0  0  0
    1.1824   -0.4826   -0.9628 C   0  0  0  0  0  0  0  0  0  0  0  0
    1.6950   -1.9383    0.8959 C   0  0  0  0  0  0  0  0  0  0  0  0
    3.1234   -0.0515    0.4096 C   0  0  0  0  0  0  0  0  0  0  0  0
    2.3056    0.2900   -0.6674 C   0  0  0  0  0  0  0  0  0  0  0  0
    2.8181   -1.1656    1.1914 C   0  0  0  0  0  0  0  0  0  0  0  0
    4.7085    1.8657    0.0408 C   0  0  0  0  0  0  0  0  0  0  0  0
    5.9634    2.4118    0.6745 C   0  0  0  0  0  0  0  0  0  0  0  0
  1  2  2  0
  1  3  2  0
  1  6  1  0
  1 12  1  0
  4 20  2  0
  5  8  1  0
  5 10  1  0
  5 11  1  0
  6  9  1  0
  7 17  1  0
  7 20  1  0
  8  9  1  0
 10 13  1  0
 11 14  1  0
 12 15  2  0
 12 16  1  0
 15 18  1  0
 16 19  2  0
 17 18  2  0
 17 19  1  0
 20 21  1  0
M  END
>  <PUBCHEM_COMPOUND_CID>  (1) 
15935

>  <PUBCHEM_CONFORMER_RMSD>  (1) 
0.8

>  <PUBCHEM_CONFORMER_DIVERSEORDER>  (1) 
1
53
75
57
63
18
33
73
48
21
16
17
36
77
79
51
62
54
52
49
47
4
56
9
43
28
46
5
65
59
24
12
80
37
76
15
7
29
27
45
58
8
31
23
69
30
19
61
81
40
14
50
10
20
26
25
78
32
41
71
44
72
39
67
3
42
22
13
74
82
38
68
66
35
55
11
2
70
34
6
64
60

>  <PUBCHEM_MMFF94_PARTIAL_CHARGES>  (1) 
25
1 1.45
10 0.27
11 0.27
12 -0.01
15 -0.15
16 -0.15
17 0.12
18 -0.15
19 -0.15
2 -0.65
20 0.57
21 0.06
3 -0.65
30 0.42
37 0.15
38 0.15
39 0.15
4 -0.57
40 0.15
41 0.37
5 -0.81
6 -0.91
7 -0.55
8 0.27
9 0.36

>  <PUBCHEM_EFFECTIVE_ROTOR_COUNT>  (1) 
9

>  <PUBCHEM_PHARMACOPHORE_FEATURES>  (1) 
7
1 2 acceptor
1 3 acceptor
1 4 acceptor
1 5 cation
1 6 donor
1 7 donor
6 12 15 16 17 18 19 rings

>  <PUBCHEM_HEAVY_ATOM_COUNT>  (1) 
21

>  <PUBCHEM_ATOM_DEF_STEREO_COUNT>  (1) 
0

>  <PUBCHEM_ATOM_UDEF_STEREO_COUNT>  (1) 
0

>  <PUBCHEM_BOND_DEF_STEREO_COUNT>  (1) 
0

>  <PUBCHEM_BOND_UDEF_STEREO_COUNT>  (1) 
0

>  <PUBCHEM_ISOTOPIC_ATOM_COUNT>  (1) 
0

>  <PUBCHEM_COMPONENT_COUNT>  (1) 
1

>  <PUBCHEM_CACTVS_TAUTO_COUNT>  (1) 
2

>  <PUBCHEM_CONFORMER_ID>  (1) 
00003E3F00000001

>  <PUBCHEM_MMFF94_ENERGY>  (1) 
32.3372

>  <PUBCHEM_FEATURE_SELFOVERLAP>  (1) 
35.538

>  <PUBCHEM_SHAPE_FINGERPRINT>  (1) 
12107183 9 18336252463262124394
12390115 104 18270975638192848923
12403259 415 18263933150563998069
12596602 18 15791734134815357153
12633257 1 15647339675270189896
12892183 10 17530965744172766875
13134695 92 17473255479840144199
14123255 52 18409727370014975070
14251764 38 17975969869949889861
14251764 75 18343030973363309961
14576447 43 10735889374178631944
15163728 17 17917439717443711759
15188451 53 15213312958444313497
15342168 16 18129947772058048977
17834072 32 18341896324407150576
21401589 2 18410015459436358067
21713013 43 12679169497526750617
21756936 100 18269550701594152150
270888 7 18343586239435427273
2838139 119 18412536613818884228
3057174 1 17632572704385684711
3459 39 18269536364972602984
4259306 186 9511456719389786009
5104073 3 18260260889275755538
57724786 102 18199755755950760745
633830 44 17845378756420182679
636775 72 17764023967612265968
7808743 9 18340204206076566688

>  <PUBCHEM_SHAPE_MULTIPOLES>  (1) 
403.47
12.34
3.88
1.42
1.15
1.06
0
-14.96
4.31
-0.63
-1.04
1.26
-0.16
0.17

>  <PUBCHEM_SHAPE_SELFOVERLAP>  (1) 
794.94

>  <PUBCHEM_SHAPE_VOLUME>  (1) 
242.3

>  <PUBCHEM_COORDINATE_TYPE>  (1) 
2
5
10

$$$$
