15931
     RDKit          3D

 35 36  0  0  0  0  0  0  0  0999 V2000
    1.8245    3.6676   -0.5417 O   0  0  0  0  0  0  0  0  0  0  0  0
   -2.5010    2.9626    0.2572 O   0  0  0  0  0  0  0  0  0  0  0  0
    0.6363    0.7096    2.8317 O   0  0  0  0  0  0  0  0  0  0  0  0
    1.3165    2.0593    1.0653 N   0  0  0  0  0  0  0  0  0  0  0  0
   -0.9959    1.6854    1.4947 N   0  0  0  0  0  0  0  0  0  0  0  0
    4.3574   -2.3112    0.1172 N   0  0  0  0  0  0  0  0  0  0  0  0
   -4.2557   -2.4171    0.1567 N   0  0  0  0  0  0  0  0  0  0  0  0
   -0.3157    2.5391   -0.7049 C   0  0  0  0  0  0  0  0  0  0  0  0
   -0.6816    3.6903   -1.6675 C   0  0  0  0  0  0  0  0  0  0  0  0
    1.0439    2.8419   -0.0666 C   0  0  0  0  0  0  0  0  0  0  0  0
   -1.3900    2.4463    0.3838 C   0  0  0  0  0  0  0  0  0  0  0  0
   -0.2604    1.2460   -1.5483 C   0  0  0  0  0  0  0  0  0  0  0  0
    0.3423    1.4106    1.8578 C   0  0  0  0  0  0  0  0  0  0  0  0
   -0.7611    5.0099   -0.9315 C   0  0  0  0  0  0  0  0  0  0  0  0
    0.9436    0.8392   -2.1234 C   0  0  0  0  0  0  0  0  0  0  0  0
   -1.4147    0.4854   -1.7354 C   0  0  0  0  0  0  0  0  0  0  0  0
    2.6938    2.0130    1.5428 C   0  0  0  0  0  0  0  0  0  0  0  0
   -2.0337    1.2481    2.4213 C   0  0  0  0  0  0  0  0  0  0  0  0
    0.9933   -0.3282   -2.8852 C   0  0  0  0  0  0  0  0  0  0  0  0
   -1.3650   -0.6820   -2.4972 C   0  0  0  0  0  0  0  0  0  0  0  0
   -0.1611   -1.0888   -3.0721 C   0  0  0  0  0  0  0  0  0  0  0  0
    3.4394    0.9446    0.8797 C   0  0  0  0  0  0  0  0  0  0  0  0
   -2.5413   -0.0716    2.0499 C   0  0  0  0  0  0  0  0  0  0  0  0
    4.8085   -0.9992   -0.3287 C   0  0  0  0  0  0  0  0  0  0  0  0
   -3.4697   -2.4811    1.3821 C   0  0  0  0  0  0  0  0  0  0  0  0
    4.0548    0.0673    0.3370 C   0  0  0  0  0  0  0  0  0  0  0  0
   -2.9608   -1.1558    1.7471 C   0  0  0  0  0  0  0  0  0  0  0  0
    4.5416   -2.4570    1.5624 C   0  0  0  0  0  0  0  0  0  0  0  0
    5.0727   -3.3724   -0.5946 C   0  0  0  0  0  0  0  0  0  0  0  0
   -5.4004   -1.5196    0.3238 C   0  0  0  0  0  0  0  0  0  0  0  0
   -4.7114   -3.7526   -0.2346 C   0  0  0  0  0  0  0  0  0  0  0  0
    4.0748   -3.8213    2.0406 C   0  0  0  0  0  0  0  0  0  0  0  0
    4.8411   -3.2807   -2.0933 C   0  0  0  0  0  0  0  0  0  0  0  0
   -6.2289   -1.4439   -0.9475 C   0  0  0  0  0  0  0  0  0  0  0  0
   -3.5361   -4.6840   -0.4788 C   0  0  0  0  0  0  0  0  0  0  0  0
  1 10  2  0
  2 11  2  0
  3 13  2  0
  4 10  1  0
  4 13  1  0
  4 17  1  0
  5 11  1  0
  5 13  1  0
  5 18  1  0
  6 24  1  0
  6 28  1  0
  6 29  1  0
  7 25  1  0
  7 30  1  0
  7 31  1  0
  8  9  1  0
  8 10  1  0
  8 11  1  0
  8 12  1  0
  9 14  1  0
 12 15  2  0
 12 16  1  0
 15 19  1  0
 16 20  2  0
 17 22  1  0
 18 23  1  0
 19 21  2  0
 20 21  1  0
 22 26  3  0
 23 27  3  0
 24 26  1  0
 25 27  1  0
 28 32  1  0
 29 33  1  0
 30 34  1  0
 31 35  1  0
M  END
>  <PUBCHEM_COMPOUND_CID>  (1) 
15931

>  <PUBCHEM_CONFORMER_RMSD>  (1) 
1.2

>  <PUBCHEM_CONFORMER_DIVERSEORDER>  (1) 
1
27
32
26
35
57
41
65
31
63
23
6
34
43
61
62
53
9
13
2
44
12
28
47
54
49
46
60
56
8
18
22
25
40
59
45
50
33
5
55
52
17
39
36
64
3
48
51
11
16
24
21
30
42
58
7
14
29
38
15
37
4
19
10
20
66

>  <PUBCHEM_MMFF94_PARTIAL_CHARGES>  (1) 
34
1 -0.57
10 0.57
11 0.57
12 -0.14
13 0.69
15 -0.15
16 -0.15
17 0.5
18 0.5
19 -0.15
2 -0.57
20 -0.15
21 -0.15
22 -0.2
23 -0.2
24 0.47
25 0.47
26 -0.2
27 -0.2
28 0.27
29 0.27
3 -0.57
30 0.27
31 0.27
4 -0.42
41 0.15
42 0.15
47 0.15
48 0.15
49 0.15
5 -0.42
6 -0.81
7 -0.81
8 0.27

>  <PUBCHEM_EFFECTIVE_ROTOR_COUNT>  (1) 
10.6

>  <PUBCHEM_PHARMACOPHORE_FEATURES>  (1) 
8
1 1 acceptor
1 14 hydrophobe
1 2 acceptor
1 3 acceptor
1 6 cation
1 7 cation
6 12 15 16 19 20 21 rings
6 4 5 8 10 11 13 rings

>  <PUBCHEM_HEAVY_ATOM_COUNT>  (1) 
35

>  <PUBCHEM_ATOM_DEF_STEREO_COUNT>  (1) 
0

>  <PUBCHEM_ATOM_UDEF_STEREO_COUNT>  (1) 
0

>  <PUBCHEM_BOND_DEF_STEREO_COUNT>  (1) 
0

>  <PUBCHEM_BOND_UDEF_STEREO_COUNT>  (1) 
0

>  <PUBCHEM_ISOTOPIC_ATOM_COUNT>  (1) 
0

>  <PUBCHEM_COMPONENT_COUNT>  (1) 
1

>  <PUBCHEM_CACTVS_TAUTO_COUNT>  (1) 
1

>  <PUBCHEM_CONFORMER_ID>  (1) 
00003E3B00000001

>  <PUBCHEM_MMFF94_ENERGY>  (1) 
71.9397

>  <PUBCHEM_FEATURE_SELFOVERLAP>  (1) 
40.596

>  <PUBCHEM_SHAPE_FINGERPRINT>  (1) 
107951 10 17397828982158820980
12422481 6 17632298947680955679
131258 38 17200498904255813054
13383661 66 17386298665431648147
15210252 30 12254386425630082187
17492 54 13695860411639920933
18603816 31 17105077414710965178
20775530 9 18262253139731047298
484985 159 18118675531068113006
5081480 168 15792023332643581283
508180 173 8861291390914403074

>  <PUBCHEM_SHAPE_MULTIPOLES>  (1) 
682.75
10.44
6.44
3.05
0.03
0.11
0.64
16.93
-1.16
-0.34
0.76
0.46
0.33
0.13

>  <PUBCHEM_SHAPE_SELFOVERLAP>  (1) 
1397.199

>  <PUBCHEM_SHAPE_VOLUME>  (1) 
389.5

>  <PUBCHEM_COORDINATE_TYPE>  (1) 
2
5
10

$$$$
