15949
     RDKit          3D

 12 13  0  0  0  0  0  0  0  0999 V2000
   -0.0004   -1.3309   -0.3874 Si  0  0  0  0  0  4  0  0  0  0  0  0
    1.6853    0.4568    0.8439 O   0  0  0  0  0  0  0  0  0  0  0  0
   -1.6885    0.4535    0.8454 O   0  0  0  0  0  0  0  0  0  0  0  0
    1.5367   -0.3009   -0.2742 C   0  0  0  0  0  0  0  0  0  0  0  0
   -1.5335   -0.3041   -0.2747 C   0  0  0  0  0  0  0  0  0  0  0  0
    0.0047   -2.5263    1.0193 C   0  0  0  0  0  0  0  0  0  0  0  0
    2.6089   -0.1309   -1.1188 C   0  0  0  0  0  0  0  0  0  0  0  0
   -2.6087   -0.1294   -1.1204 C   0  0  0  0  0  0  0  0  0  0  0  0
    3.4717    0.7904   -0.4787 C   0  0  0  0  0  0  0  0  0  0  0  0
   -3.4730    0.7898   -0.4792 C   0  0  0  0  0  0  0  0  0  0  0  0
    2.8653    1.1176    0.7118 C   0  0  0  0  0  0  0  0  0  0  0  0
   -2.8686    1.1144    0.7130 C   0  0  0  0  0  0  0  0  0  0  0  0
  1  4  1  0
  1  5  1  0
  1  6  1  0
  2  4  1  0
  2 11  1  0
  3  5  1  0
  3 12  1  0
  4  7  2  0
  5  8  2  0
  7  9  1  0
  8 10  1  0
  9 11  2  0
 10 12  2  0
M  END
>  <PUBCHEM_COMPOUND_CID>  (1) 
15949

>  <PUBCHEM_CONFORMER_RMSD>  (1) 
0.6

>  <PUBCHEM_CONFORMER_DIVERSEORDER>  (1) 
1
16
12
6
7
11
10
2
15
13
3
8
14
4
9
5

>  <PUBCHEM_MMFF94_PARTIAL_CHARGES>  (1) 
19
1 0.83
10 -0.15
11 -0.01
12 -0.01
13 -0.2
17 0.15
18 0.15
19 0.15
2 -0.28
20 0.15
21 0.15
22 0.15
3 -0.28
4 -0.13
5 -0.13
6 -0.08
7 -0.15
8 -0.15
9 -0.15

>  <PUBCHEM_EFFECTIVE_ROTOR_COUNT>  (1) 
2

>  <PUBCHEM_PHARMACOPHORE_FEATURES>  (1) 
4
1 2 acceptor
1 3 acceptor
5 2 4 7 9 11 rings
5 3 5 8 10 12 rings

>  <PUBCHEM_HEAVY_ATOM_COUNT>  (1) 
12

>  <PUBCHEM_ATOM_DEF_STEREO_COUNT>  (1) 
0

>  <PUBCHEM_ATOM_UDEF_STEREO_COUNT>  (1) 
0

>  <PUBCHEM_BOND_DEF_STEREO_COUNT>  (1) 
0

>  <PUBCHEM_BOND_UDEF_STEREO_COUNT>  (1) 
0

>  <PUBCHEM_ISOTOPIC_ATOM_COUNT>  (1) 
0

>  <PUBCHEM_COMPONENT_COUNT>  (1) 
1

>  <PUBCHEM_CACTVS_TAUTO_COUNT>  (1) 
1

>  <PUBCHEM_CONFORMER_ID>  (1) 
00003E4D00000001

>  <PUBCHEM_MMFF94_ENERGY>  (1) 
2.9411

>  <PUBCHEM_FEATURE_SELFOVERLAP>  (1) 
20.297

>  <PUBCHEM_SHAPE_FINGERPRINT>  (1) 
10618630 7 9151180860897092492
12138202 97 18270122447503692702
12251169 10 13767927931273247924
12382932 28 13406790021383858749
124424 183 18201442497810296158
12491281 212 17703804603734425075
12897270 3 16988559117275293325
13296908 3 10159699070884776358
13764800 53 18335994171701030691
15309172 13 17967253100224373911
15775835 57 18411980239106621085
16945 1 17917993875419573870
170605 34 18342177730717164551
18186145 218 18343025466929736820
20281407 28 8646498422430549892
20361792 2 10592041358168309171
20653085 51 17846509144130155370
20671657 53 14548746101291296424
20711985 327 8862936182409547346
21028194 46 18410015446171913854
21119208 17 16558752299547595357
21524375 3 18410852157356723358
21947302 44 18060136557252847310
22802520 49 17988659505196233526
23402539 116 18201708566401894444
23402655 69 17418097593910392212
25 1 18271536307597646790
276578 36 18187085031481993714
305870 269 18261385594643495378
549884 4 17846497010889761912
6333272 397 18261677068551705149
7364860 26 18124873460786239679
81228 2 17828492692626851915

>  <PUBCHEM_SHAPE_MULTIPOLES>  (1) 
253.43
5.76
1.77
1.17
0.01
1.14
-0.02
-3.44
-0.8
0
0.6
0
0.14
0

>  <PUBCHEM_SHAPE_SELFOVERLAP>  (1) 
522.067

>  <PUBCHEM_SHAPE_VOLUME>  (1) 
148.7

>  <PUBCHEM_COORDINATE_TYPE>  (1) 
2
5
10

$$$$
