15943
     RDKit          3D

 19 19  0  0  0  0  0  0  0  0999 V2000
    0.4029   -0.6068   -1.8503 O   0  0  0  0  0  0  0  0  0  0  0  0
    2.3618    2.8300    0.5740 O   0  0  0  0  0  0  0  0  0  0  0  0
    0.6324    1.6868   -0.1482 O   0  0  0  0  0  0  0  0  0  0  0  0
   -3.7850   -0.1276   -0.0492 N   0  0  0  0  0  0  0  0  0  0  0  0
   -0.2051   -1.0704    0.3397 N   0  0  0  0  0  0  0  0  0  0  0  0
    1.8360    1.7573    0.1948 N   0  0  0  0  0  0  0  0  0  0  0  0
   -2.3633    0.0683    0.2328 C   0  0  0  0  0  0  0  0  0  0  0  0
   -4.5046    1.1419    0.0464 C   0  0  0  0  0  0  0  0  0  0  0  0
   -4.3578   -1.1103    0.8698 C   0  0  0  0  0  0  0  0  0  0  0  0
   -1.6105   -1.2467    0.0938 C   0  0  0  0  0  0  0  0  0  0  0  0
   -3.9224    2.1759   -0.9025 C   0  0  0  0  0  0  0  0  0  0  0  0
   -5.8202   -1.3720    0.5521 C   0  0  0  0  0  0  0  0  0  0  0  0
    0.7000   -0.7601   -0.6684 C   0  0  0  0  0  0  0  0  0  0  0  0
    2.1217   -0.6370   -0.2556 C   0  0  0  0  0  0  0  0  0  0  0  0
    2.6327    0.5792    0.1517 C   0  0  0  0  0  0  0  0  0  0  0  0
    2.8975   -1.7799   -0.2970 C   0  0  0  0  0  0  0  0  0  0  0  0
    3.9722    0.6570    0.5328 C   0  0  0  0  0  0  0  0  0  0  0  0
    4.2371   -1.7020    0.0841 C   0  0  0  0  0  0  0  0  0  0  0  0
    4.7745   -0.4836    0.4990 C   0  0  0  0  0  0  0  0  0  0  0  0
  1 13  2  0
  2  6  1  0
  3  6  2  0
  4  7  1  0
  4  8  1  0
  4  9  1  0
  5 10  1  0
  5 13  1  0
  6 15  1  0
  7 10  1  0
  8 11  1  0
  9 12  1  0
 13 14  1  0
 14 15  2  0
 14 16  1  0
 15 17  1  0
 16 18  2  0
 17 19  2  0
 18 19  1  0
M  CHG  2   2  -1   6   1
M  END
>  <PUBCHEM_COMPOUND_CID>  (1) 
15943

>  <PUBCHEM_CONFORMER_RMSD>  (1) 
0.8

>  <PUBCHEM_CONFORMER_DIVERSEORDER>  (1) 
2
28
10
7
11
19
13
31
22
8
25
30
15
27
24
20
29
21
14
1
26
5
17
9
12
23
3
6
18
16
4

>  <PUBCHEM_MMFF94_PARTIAL_CHARGES>  (1) 
22
1 -0.57
10 0.3
13 0.54
14 0.09
15 0.13
16 -0.15
17 -0.15
18 -0.15
19 -0.15
2 -0.52
28 0.37
3 -0.52
35 0.15
36 0.15
37 0.15
38 0.15
4 -0.81
5 -0.73
6 0.91
7 0.27
8 0.27
9 0.27

>  <PUBCHEM_EFFECTIVE_ROTOR_COUNT>  (1) 
8

>  <PUBCHEM_PHARMACOPHORE_FEATURES>  (1) 
7
1 1 acceptor
1 2 acceptor
1 2 anion
1 3 acceptor
1 4 cation
1 5 donor
6 14 15 16 17 18 19 rings

>  <PUBCHEM_HEAVY_ATOM_COUNT>  (1) 
19

>  <PUBCHEM_ATOM_DEF_STEREO_COUNT>  (1) 
0

>  <PUBCHEM_ATOM_UDEF_STEREO_COUNT>  (1) 
0

>  <PUBCHEM_BOND_DEF_STEREO_COUNT>  (1) 
0

>  <PUBCHEM_BOND_UDEF_STEREO_COUNT>  (1) 
0

>  <PUBCHEM_ISOTOPIC_ATOM_COUNT>  (1) 
0

>  <PUBCHEM_COMPONENT_COUNT>  (1) 
1

>  <PUBCHEM_CACTVS_TAUTO_COUNT>  (1) 
2

>  <PUBCHEM_CONFORMER_ID>  (1) 
00003E4700000002

>  <PUBCHEM_MMFF94_ENERGY>  (1) 
50.6821

>  <PUBCHEM_FEATURE_SELFOVERLAP>  (1) 
35.604

>  <PUBCHEM_SHAPE_FINGERPRINT>  (1) 
10366900 7 17603589633959555179
10646746 165 18334294219466240573
11545043 162 17967254187320448907
12251169 10 18342458170506640438
12403259 226 18408320004048670277
12507557 5 18343301453202091345
12507560 40 18409166623242594015
12596602 18 14924526186037553277
13134695 92 17703498909637956400
13583140 156 18409442562507938695
13675066 3 18410571790428502627
13922767 16 18412261722752400418
14251764 38 18413390908663386553
14341114 176 18410863174227204651
14790565 3 17905325479414665580
15048467 5 17821738234611172654
15196674 1 18410012122030763433
15788980 27 17917707981201259487
17349148 13 17489592246632104891
17802600 8 18408604773275443673
18186145 218 18201451246231630979
18785283 64 18262516034848085396
19433438 28 18335139795721927547
20645477 70 18131357366986734910
21033648 29 18342162363445473161
21065198 57 18408604781591377139
21065199 12 18335702784045237379
21267235 1 18341621395488320954
21279426 13 18119525431970167214
23402539 116 18272363153516916655
23557571 272 18334861602374524421
23559900 14 18268710511365085146
3286 77 18334579057549946239
351380 180 18409729569381057011
3545911 37 18201442501425132266
4214541 1 18409449168172498675
4325135 7 17917990612178287735
5104073 3 18411136909635775937

>  <PUBCHEM_SHAPE_MULTIPOLES>  (1) 
358.46
11.58
2.3
0.93
9.17
1.31
0.25
-2.04
-2.24
0.04
-0.09
0.13
-0.03
1.3

>  <PUBCHEM_SHAPE_SELFOVERLAP>  (1) 
729.724

>  <PUBCHEM_SHAPE_VOLUME>  (1) 
209.1

>  <PUBCHEM_COORDINATE_TYPE>  (1) 
2
5
10

$$$$
