15947
     RDKit          3D

  8  8  0  0  0  0  0  0  0  0999 V2000
   -2.6853   -0.0001   -0.1284 O   0  0  0  0  0  0  0  0  0  0  0  0
    1.3393    0.0000   -0.3272 N   0  0  0  0  0  0  0  0  0  0  0  0
   -0.7120    1.1684    0.0285 N   0  0  0  0  0  0  0  0  0  0  0  0
   -0.7120   -1.1684    0.0283 N   0  0  0  0  0  0  0  0  0  0  0  0
    0.7231    1.1909    0.2576 C   0  0  0  0  0  0  0  0  0  0  0  0
    0.7230   -1.1909    0.2578 C   0  0  0  0  0  0  0  0  0  0  0  0
    2.7823   -0.0001   -0.0964 C   0  0  0  0  0  0  0  0  0  0  0  0
   -1.4584    0.0000   -0.0202 C   0  0  0  0  0  0  0  0  0  0  0  0
  1  8  2  0
  2  5  1  0
  2  6  1  0
  2  7  1  0
  3  5  1  0
  3  8  1  0
  4  6  1  0
  4  8  1  0
M  END
>  <PUBCHEM_COMPOUND_CID>  (1) 
15947

>  <PUBCHEM_CONFORMER_RMSD>  (1) 
0.4

>  <PUBCHEM_CONFORMER_DIVERSEORDER>  (1) 
1
2

>  <PUBCHEM_MMFF94_PARTIAL_CHARGES>  (1) 
10
1 -0.57
13 0.37
14 0.37
2 -0.81
3 -0.73
4 -0.73
5 0.57
6 0.57
7 0.27
8 0.69

>  <PUBCHEM_EFFECTIVE_ROTOR_COUNT>  (1) 
1

>  <PUBCHEM_PHARMACOPHORE_FEATURES>  (1) 
5
1 1 acceptor
1 2 cation
1 3 donor
1 4 donor
6 2 3 4 5 6 8 rings

>  <PUBCHEM_HEAVY_ATOM_COUNT>  (1) 
8

>  <PUBCHEM_ATOM_DEF_STEREO_COUNT>  (1) 
0

>  <PUBCHEM_ATOM_UDEF_STEREO_COUNT>  (1) 
0

>  <PUBCHEM_BOND_DEF_STEREO_COUNT>  (1) 
0

>  <PUBCHEM_BOND_UDEF_STEREO_COUNT>  (1) 
0

>  <PUBCHEM_ISOTOPIC_ATOM_COUNT>  (1) 
0

>  <PUBCHEM_COMPONENT_COUNT>  (1) 
1

>  <PUBCHEM_CACTVS_TAUTO_COUNT>  (1) 
2

>  <PUBCHEM_CONFORMER_ID>  (1) 
00003E4B00000001

>  <PUBCHEM_MMFF94_ENERGY>  (1) 
14.6055

>  <PUBCHEM_FEATURE_SELFOVERLAP>  (1) 
25.414

>  <PUBCHEM_SHAPE_FINGERPRINT>  (1) 
16714656 1 18410858763121536294
18185500 45 18410290285392334610
20096714 4 18410292553171996667
21040471 1 18409165545116047458
23235685 24 18408319990630628628
23552423 10 18118129065272721406
29004967 10 18409455781831290931
5460574 1 9223231844843097870

>  <PUBCHEM_SHAPE_MULTIPOLES>  (1) 
143.82
3.16
1.27
0.6
0.19
0
0.02
0
-0.26
0.04
0.11
0.06
0
0

>  <PUBCHEM_SHAPE_SELFOVERLAP>  (1) 
280.385

>  <PUBCHEM_SHAPE_VOLUME>  (1) 
85.2

>  <PUBCHEM_COORDINATE_TYPE>  (1) 
2
5
10

$$$$
