15948
     RDKit          3D

 22 25  0  0  1  0  0  0  0  0999 V2000
    3.9773    1.4993   -1.0751 O   0  0  0  0  0  0  0  0  0  0  0  0
    4.8610   -0.8250    0.0319 O   0  0  0  0  0  0  0  0  0  0  0  0
   -6.1146   -0.0502    0.2754 O   0  0  0  0  0  0  0  0  0  0  0  0
    1.5624   -0.4111    0.9720 C   0  0  0  0  0  0  0  0  0  0  0  0
    2.2725    0.9257    0.6401 C   0  0  0  0  0  0  0  0  0  0  0  0
    0.2256   -0.6445    0.2131 C   0  0  0  0  0  0  0  0  0  0  0  0
   -0.7003    0.5960    0.2389 C   0  0  0  0  0  0  0  0  0  0  0  0
    2.9824    0.5692   -0.6873 C   0  0  0  0  0  0  0  0  0  0  0  0
    2.6147   -1.4857    0.5872 C   0  0  0  0  0  0  0  0  0  0  0  0
    1.3058    2.1124    0.4897 C   0  0  0  0  0  0  0  0  0  0  0  0
    3.5304   -0.8554   -0.4844 C   0  0  0  0  0  0  0  0  0  0  0  0
    0.0506    1.8135   -0.3193 C   0  0  0  0  0  0  0  0  0  0  0  0
   -2.0369    0.3391   -0.5297 C   0  0  0  0  0  0  0  0  0  0  0  0
   -0.5281   -1.8514    0.8060 C   0  0  0  0  0  0  0  0  0  0  0  0
    3.2707    1.3054    1.7604 C   0  0  0  0  0  0  0  0  0  0  0  0
   -1.7909   -2.1566    0.0117 C   0  0  0  0  0  0  0  0  0  0  0  0
   -2.6957   -0.9570   -0.0821 C   0  0  0  0  0  0  0  0  0  0  0  0
   -2.9893    1.5444   -0.3746 C   0  0  0  0  0  0  0  0  0  0  0  0
    3.5528   -1.6576   -1.7826 C   0  0  0  0  0  0  0  0  0  0  0  0
   -4.4089    1.2324   -0.8154 C   0  0  0  0  0  0  0  0  0  0  0  0
   -4.0052   -1.0837    0.1848 C   0  0  0  0  0  0  0  0  0  0  0  0
   -4.9363    0.0408   -0.0607 C   0  0  0  0  0  0  0  0  0  0  0  0
  1  8  1  0
  2 11  1  0
  3 22  2  0
  4  5  1  0
  4  6  1  0
  4  9  1  0
  5  8  1  0
  5 10  1  0
  5 15  1  0
  6  7  1  0
  6 14  1  0
  7 12  1  0
  7 13  1  0
  8 11  1  0
  9 11  1  0
 10 12  1  0
 11 19  1  0
 13 17  1  0
 13 18  1  0
 14 16  1  0
 16 17  1  0
 17 21  2  0
 18 20  1  0
 20 22  1  0
 21 22  1  0
M  END
>  <PUBCHEM_COMPOUND_CID>  (1) 
15948

>  <PUBCHEM_CONFORMER_RMSD>  (1) 
0.6

>  <PUBCHEM_CONFORMER_DIVERSEORDER>  (1) 
6
52
22
19
40
50
42
47
41
32
17
7
28
1
16
14
27
26
45
55
56
25
8
46
18
48
20
57
12
35
9
21
24
13
3
54
38
36
33
51
43
5
30
2
39
11
4
37
44
15
23
31
29
34
49
53
10

>  <PUBCHEM_MMFF94_PARTIAL_CHARGES>  (1) 
14
1 -0.68
11 0.28
13 0.14
16 0.14
17 -0.28
2 -0.68
20 0.06
21 -0.14
22 0.49
3 -0.57
46 0.4
47 0.4
50 0.15
8 0.28

>  <PUBCHEM_EFFECTIVE_ROTOR_COUNT>  (1) 
1.8

>  <PUBCHEM_PHARMACOPHORE_FEATURES>  (1) 
9
1 1 acceptor
1 1 donor
1 2 acceptor
1 2 donor
1 3 acceptor
5 4 5 8 9 11 rings
6 13 17 18 20 21 22 rings
6 4 5 6 7 10 12 rings
6 6 7 13 14 16 17 rings

>  <PUBCHEM_HEAVY_ATOM_COUNT>  (1) 
22

>  <PUBCHEM_ATOM_DEF_STEREO_COUNT>  (1) 
2

>  <PUBCHEM_ATOM_UDEF_STEREO_COUNT>  (1) 
5

>  <PUBCHEM_BOND_DEF_STEREO_COUNT>  (1) 
0

>  <PUBCHEM_BOND_UDEF_STEREO_COUNT>  (1) 
0

>  <PUBCHEM_ISOTOPIC_ATOM_COUNT>  (1) 
0

>  <PUBCHEM_COMPONENT_COUNT>  (1) 
1

>  <PUBCHEM_CACTVS_TAUTO_COUNT>  (1) 
8

>  <PUBCHEM_CONFORMER_ID>  (1) 
00003E4C00000006

>  <PUBCHEM_MMFF94_ENERGY>  (1) 
70.9709

>  <PUBCHEM_FEATURE_SELFOVERLAP>  (1) 
45.862

>  <PUBCHEM_SHAPE_FINGERPRINT>  (1) 
10498660 4 17967808319490091269
11132069 177 18336254717518255681
11578080 2 17129570513102135267
116883 192 18271532992167789428
12011746 2 18261388928281675415
12236239 1 17022620849458909378
12403259 415 18336819823851604389
12617007 42 18336555962192721300
12670546 56 16917073260910126579
12788726 201 17988374688571969337
13134695 92 17132109164880459625
13140716 1 18046618186206503129
13224815 77 17530959189952433141
13533116 47 17704075088306706019
13544592 145 18343302556723966410
13583140 156 15840693236121826243
13675066 3 18341891943862099747
14022347 108 18187365428205531552
14178342 30 17977645817358813538
14289901 80 13767920230613085927
14790565 3 18335709304191188685
14866123 147 17337323969314093507
15099037 51 18412265030193930927
15196674 1 18335982051540581003
15210252 30 17895203233186579156
15536298 74 18341888614988190649
15635459 17 18272374174255298614
15848702 151 17774728558688091919
1601671 61 18260828146849018501
16752209 62 18337667495333796641
16945 1 18192140710231280682
17349148 13 16774083977294543055
17804303 29 18408603665231981589
17980427 23 17900804244535052740
1813 80 15195026916180699204
18186145 218 18412257324964313321
19141452 34 18202280338244665055
19591789 44 18336261220193784675
19862831 5 18411700976101345259
200 152 17060337405216042635
20645477 70 17989207044775335454
20691752 17 17604132830989214011
21033648 29 18336816542544160657
21267235 1 18335708212694157707
21279426 13 18195246607552730583
21285901 2 18270127803174553734
21637258 2 15266800823259744076
221357 26 18341891870921735981
2215653 11 18343580725150658245
23402539 116 18409441471580730214
23557571 272 18201436918558030024
23559900 14 18271524294917284208
2748010 2 18410285938922269994
3004659 81 18333735689508985574
3323516 105 18411136922452170095
335352 9 18409727344340272943
34934 24 18269551796721044316
350125 39 18261951838783864352
474 4 15937266653846010540
495365 180 17560509707552678042
4990 188 18413109428947934423
5104073 3 18410852200754569195
5161694 15 18341614802101455790
5281201 14 18341334413682665381
59755656 215 18335699387464422231
633830 44 18411972547300242053
7399639 24 17479730967255463706
9709674 26 18267300022566633467

>  <PUBCHEM_SHAPE_MULTIPOLES>  (1) 
435.14
10.06
2.19
1.16
7.62
0.01
-0.05
0.21
-1.41
-0.57
-0.01
-1.21
0.01
1.02

>  <PUBCHEM_SHAPE_SELFOVERLAP>  (1) 
933.192

>  <PUBCHEM_SHAPE_VOLUME>  (1) 
238.5

>  <PUBCHEM_COORDINATE_TYPE>  (1) 
2
5
10

$$$$
