15953
     RDKit          3D

  9  8  0  0  0  0  0  0  0  0999 V2000
   -2.0242    0.1391    0.0052 S   0  0  0  0  0  0  0  0  0  0  0  0
   -0.5151   -0.4846   -0.0110 O   0  0  0  0  0  0  0  0  0  0  0  0
   -2.2812    0.8099   -1.2529 O   0  0  0  0  0  0  0  0  0  0  0  0
   -2.2665    0.7807    1.2814 O   0  0  0  0  0  0  0  0  0  0  0  0
    1.8780   -0.4065   -0.0242 C   0  0  0  0  0  0  0  0  0  0  0  0
    3.1121    0.4909   -0.0051 C   0  0  0  0  0  0  0  0  0  0  0  0
    0.5915    0.4067   -0.0072 C   0  0  0  0  0  0  0  0  0  0  0  0
    4.3943   -0.3256    0.0215 C   0  0  0  0  0  0  0  0  0  0  0  0
   -2.8889   -1.4106   -0.0077 C   0  0  0  0  0  0  0  0  0  0  0  0
  1  2  1  0
  1  3  2  0
  1  4  2  0
  1  9  1  0
  2  7  1  0
  5  6  1  0
  5  7  1  0
  6  8  1  0
M  END
>  <PUBCHEM_COMPOUND_CID>  (1) 
15953

>  <PUBCHEM_CONFORMER_RMSD>  (1) 
0.6

>  <PUBCHEM_CONFORMER_DIVERSEORDER>  (1) 
1
30
15
25
28
32
8
14
24
22
17
34
33
12
26
27
5
2
18
3
29
31
11
35
7
10
23
9
19
4
16
6
13
20
21

>  <PUBCHEM_MMFF94_PARTIAL_CHARGES>  (1) 
6
1 1.38
2 -0.46
3 -0.65
4 -0.65
7 0.28
9 0.11

>  <PUBCHEM_EFFECTIVE_ROTOR_COUNT>  (1) 
4

>  <PUBCHEM_PHARMACOPHORE_FEATURES>  (1) 
3
1 3 acceptor
1 4 acceptor
1 8 hydrophobe

>  <PUBCHEM_HEAVY_ATOM_COUNT>  (1) 
9

>  <PUBCHEM_ATOM_DEF_STEREO_COUNT>  (1) 
0

>  <PUBCHEM_ATOM_UDEF_STEREO_COUNT>  (1) 
0

>  <PUBCHEM_BOND_DEF_STEREO_COUNT>  (1) 
0

>  <PUBCHEM_BOND_UDEF_STEREO_COUNT>  (1) 
0

>  <PUBCHEM_ISOTOPIC_ATOM_COUNT>  (1) 
0

>  <PUBCHEM_COMPONENT_COUNT>  (1) 
1

>  <PUBCHEM_CACTVS_TAUTO_COUNT>  (1) 
1

>  <PUBCHEM_CONFORMER_ID>  (1) 
00003E5100000001

>  <PUBCHEM_MMFF94_ENERGY>  (1) 
1.0104

>  <PUBCHEM_FEATURE_SELFOVERLAP>  (1) 
15.239

>  <PUBCHEM_SHAPE_FINGERPRINT>  (1) 
11062470 55 9151177549704141050
12932764 1 18113053831309884912
14325111 11 18410011048547220342
190213 19 18272931622571631542
20211469 26 18339640139574339343
3248919 1 18131912641859315686

>  <PUBCHEM_SHAPE_MULTIPOLES>  (1) 
171.46
7.02
1.04
0.87
6.11
0.19
-0.01
0.94
-0.04
-0.74
0
-0.62
-0.23
0

>  <PUBCHEM_SHAPE_SELFOVERLAP>  (1) 
297.115

>  <PUBCHEM_SHAPE_VOLUME>  (1) 
114.5

>  <PUBCHEM_COORDINATE_TYPE>  (1) 
2
5
10

$$$$
