15950
     RDKit          3D

 16 16  0  0  0  0  0  0  0  0999 V2000
   -1.2315    3.8101   -0.2512 Cl  0  0  0  0  0  0  0  0  0  0  0  0
   -1.8481   -1.0950   -0.0606 N   0  0  0  0  0  0  0  0  0  0  0  0
    2.5256    0.5993   -0.0176 N   0  0  0  0  0  0  0  0  0  0  0  0
    0.3505   -0.2782   -0.0374 N   0  0  0  0  0  0  0  0  0  0  0  0
   -1.5171    1.2242   -0.1511 N   0  0  0  0  0  0  0  0  0  0  0  0
    0.7204    2.0909   -0.1292 N   0  0  0  0  0  0  0  0  0  0  0  0
    3.1317   -0.7124    0.0564 C   0  0  0  0  0  0  0  0  0  0  0  0
   -1.3361   -2.4482    0.0111 C   0  0  0  0  0  0  0  0  0  0  0  0
   -3.2806   -0.8810   -0.0936 C   0  0  0  0  0  0  0  0  0  0  0  0
   -0.9616    0.0035   -0.0843 C   0  0  0  0  0  0  0  0  0  0  0  0
    3.0540   -1.2212    1.4899 C   0  0  0  0  0  0  0  0  0  0  0  0
    4.5739   -0.6344   -0.4274 C   0  0  0  0  0  0  0  0  0  0  0  0
    1.1585    0.8100   -0.0627 C   0  0  0  0  0  0  0  0  0  0  0  0
   -0.9071   -2.9462   -1.3587 C   0  0  0  0  0  0  0  0  0  0  0  0
   -3.8168   -0.5406    1.2865 C   0  0  0  0  0  0  0  0  0  0  0  0
   -0.6157    2.2192   -0.1700 C   0  0  0  0  0  0  0  0  0  0  0  0
  1 16  1  0
  2  8  1  0
  2  9  1  0
  2 10  1  0
  3  7  1  0
  3 13  1  0
  4 10  2  0
  4 13  1  0
  5 10  1  0
  5 16  2  0
  6 13  2  0
  6 16  1  0
  7 11  1  0
  7 12  1  0
  8 14  1  0
  9 15  1  0
M  END
>  <PUBCHEM_COMPOUND_CID>  (1) 
15950

>  <PUBCHEM_CONFORMER_RMSD>  (1) 
0.6

>  <PUBCHEM_CONFORMER_DIVERSEORDER>  (1) 
1
55
86
68
38
121
57
82
118
123
113
114
65
75
51
108
93
23
45
72
81
74
34
124
98
44
46
79
116
64
37
60
125
122
41
102
119
67
22
99
94
50
31
89
30
18
117
33
120
47
76
20
42
83
109
48
91
29
28
110
70
49
80
32
87
36
106
35
78
66
25
54
73
52
27
84
101
107
56
62
111
43
95
90
69
19
71
24
105
59
88
115
40
77
92
63
13
11
85
17
100
14
112
53
16
61
26
9
96
58
12
104
39
10
21
6
2
103
4
97
15
7
5
3
8

>  <PUBCHEM_MMFF94_PARTIAL_CHARGES>  (1) 
13
1 -0.18
10 0.72
13 0.72
16 0.8
2 -0.84
22 0.4
3 -0.87
4 -0.62
5 -0.62
6 -0.62
7 0.37
8 0.37
9 0.37

>  <PUBCHEM_EFFECTIVE_ROTOR_COUNT>  (1) 
5

>  <PUBCHEM_PHARMACOPHORE_FEATURES>  (1) 
5
1 3 donor
3 7 11 12 hydrophobe
4 2 4 5 10 cation
4 3 4 6 13 cation
6 4 5 6 10 13 16 rings

>  <PUBCHEM_HEAVY_ATOM_COUNT>  (1) 
16

>  <PUBCHEM_ATOM_DEF_STEREO_COUNT>  (1) 
0

>  <PUBCHEM_ATOM_UDEF_STEREO_COUNT>  (1) 
0

>  <PUBCHEM_BOND_DEF_STEREO_COUNT>  (1) 
0

>  <PUBCHEM_BOND_UDEF_STEREO_COUNT>  (1) 
0

>  <PUBCHEM_ISOTOPIC_ATOM_COUNT>  (1) 
0

>  <PUBCHEM_COMPONENT_COUNT>  (1) 
1

>  <PUBCHEM_CACTVS_TAUTO_COUNT>  (1) 
4

>  <PUBCHEM_CONFORMER_ID>  (1) 
00003E4E00000001

>  <PUBCHEM_MMFF94_ENERGY>  (1) 
37.8185

>  <PUBCHEM_FEATURE_SELFOVERLAP>  (1) 
25.414

>  <PUBCHEM_SHAPE_FINGERPRINT>  (1) 
11357001 24 18262796250929561793
12507560 14 18342462599097587213
12553582 1 18337102458115998634
13140716 1 18267019638385100170
13380535 76 17832976153363281981
15279308 51 18054789748039454879
15375462 189 18187081793092580930
15442244 35 18196940087525006147
15490181 8 17617084816045211269
15669948 3 18336539418289744562
16752209 62 18265881489141552974
16945 1 18411972555505080462
193761 8 17762620586371719663
20510252 161 18271805662319326608
20600515 1 18059028283533240708
20645477 70 17257637345349931263
20671657 1 17978522149922642917
20711985 365 18408884023042701580
20871998 184 18340486651647379260
21029758 27 18261685847312085261
23184049 59 18341341079867748947
2334 1 17978505665463601534
23402539 116 18272644645646986495
23419403 2 16332941349055403127
23552423 10 17618502529141737055
23557571 272 18272943691867921372
23559900 14 17983288228593294530
23598291 2 18125726939607327239
23598294 1 18264766571719385128
2748010 2 18053105016841766255
3091708 16 9424037843947528713
3250762 1 17691981358070557335
34934 24 18266453402802568772
352729 6 18121778331190582620
4175511 71 18337399364957455689
465052 167 18189915256428095059
57426455 70 18336557087579517739
6992083 37 18270973456676523203
7364860 26 17835520805316167144
81228 2 18335973199439235608
90316 7 18411127052501240571

>  <PUBCHEM_SHAPE_MULTIPOLES>  (1) 
306.24
6.1
3.63
1
4.76
2.33
0.19
-2.6
1.4
-2.49
-1.03
-0.02
-0.59
-0.21

>  <PUBCHEM_SHAPE_SELFOVERLAP>  (1) 
597.361

>  <PUBCHEM_SHAPE_VOLUME>  (1) 
183.1

>  <PUBCHEM_COORDINATE_TYPE>  (1) 
2
5
10

$$$$
