15952
     RDKit          3D

  7  6  0  0  0  0  0  0  0  0999 V2000
   -0.0358    0.2828    0.0052 S   0  0  0  0  0  0  0  0  0  0  0  0
   -1.2622   -0.7943   -0.0634 O   0  0  0  0  0  0  0  0  0  0  0  0
    0.0296    0.8532    1.3354 O   0  0  0  0  0  0  0  0  0  0  0  0
   -0.0539    1.1090   -1.1849 O   0  0  0  0  0  0  0  0  0  0  0  0
    1.2836   -0.8928   -0.1578 C   0  0  0  0  0  0  0  0  0  0  0  0
    2.6344   -0.2410    0.0362 C   0  0  0  0  0  0  0  0  0  0  0  0
   -2.5956   -0.3170    0.0293 C   0  0  0  0  0  0  0  0  0  0  0  0
  1  2  1  0
  1  3  2  0
  1  4  2  0
  1  5  1  0
  2  7  1  0
  5  6  1  0
M  END
>  <PUBCHEM_COMPOUND_CID>  (1) 
15952

>  <PUBCHEM_CONFORMER_RMSD>  (1) 
0.4

>  <PUBCHEM_CONFORMER_DIVERSEORDER>  (1) 
1
7
5
2
4
3
6

>  <PUBCHEM_MMFF94_PARTIAL_CHARGES>  (1) 
6
1 1.38
2 -0.46
3 -0.65
4 -0.65
5 0.11
7 0.28

>  <PUBCHEM_EFFECTIVE_ROTOR_COUNT>  (1) 
2

>  <PUBCHEM_PHARMACOPHORE_FEATURES>  (1) 
2
1 3 acceptor
1 4 acceptor

>  <PUBCHEM_HEAVY_ATOM_COUNT>  (1) 
7

>  <PUBCHEM_ATOM_DEF_STEREO_COUNT>  (1) 
0

>  <PUBCHEM_ATOM_UDEF_STEREO_COUNT>  (1) 
0

>  <PUBCHEM_BOND_DEF_STEREO_COUNT>  (1) 
0

>  <PUBCHEM_BOND_UDEF_STEREO_COUNT>  (1) 
0

>  <PUBCHEM_ISOTOPIC_ATOM_COUNT>  (1) 
0

>  <PUBCHEM_COMPONENT_COUNT>  (1) 
1

>  <PUBCHEM_CACTVS_TAUTO_COUNT>  (1) 
1

>  <PUBCHEM_CONFORMER_ID>  (1) 
00003E5000000001

>  <PUBCHEM_MMFF94_ENERGY>  (1) 
0.7134

>  <PUBCHEM_FEATURE_SELFOVERLAP>  (1) 
10.165

>  <PUBCHEM_SHAPE_FINGERPRINT>  (1) 
139733 1 9223230745321076494
16714656 1 18113894936014110191
24536 1 17700122202302650422
29004967 10 17967259701525797810
5460574 1 9079117756279123103
5943 1 14928682189138929809

>  <PUBCHEM_SHAPE_MULTIPOLES>  (1) 
130.3
3.19
1.04
0.95
0.1
0.06
-0.02
-0.87
-0.08
-0.01
0.04
0.01
0.36
0.03

>  <PUBCHEM_SHAPE_SELFOVERLAP>  (1) 
221.866

>  <PUBCHEM_SHAPE_VOLUME>  (1) 
88.4

>  <PUBCHEM_COORDINATE_TYPE>  (1) 
2
5
10

$$$$
