15955
     RDKit          3D

 23 25  0  0  0  0  0  0  0  0999 V2000
   -1.3446    2.6016    0.5735 Cl  0  0  0  0  0  0  0  0  0  0  0  0
    1.0268   -3.2028    0.0042 Cl  0  0  0  0  0  0  0  0  0  0  0  0
   -2.0558   -2.7782    0.3519 Cl  0  0  0  0  0  0  0  0  0  0  0  0
    6.9411    0.9659   -0.3802 Cl  0  0  0  0  0  0  0  0  0  0  0  0
   -5.0971    0.3183    0.1976 O   0  0  0  0  0  0  0  0  0  0  0  0
   -3.6925    0.2261   -1.6048 O   0  0  0  0  0  0  0  0  0  0  0  0
   -2.9051    0.0371    0.5943 N   0  0  0  0  0  0  0  0  0  0  0  0
    1.7466    1.8745    0.2112 C   0  0  0  0  0  0  0  0  0  0  0  0
    0.6607    0.8203    0.2661 C   0  0  0  0  0  0  0  0  0  0  0  0
    1.2184   -0.4715    0.1367 C   0  0  0  0  0  0  0  0  0  0  0  0
    2.9899    1.0280    0.0347 C   0  0  0  0  0  0  0  0  0  0  0  0
    2.6527   -0.3436   -0.0058 C   0  0  0  0  0  0  0  0  0  0  0  0
   -0.7019    1.0077    0.4184 C   0  0  0  0  0  0  0  0  0  0  0  0
    0.4070   -1.5935    0.1595 C   0  0  0  0  0  0  0  0  0  0  0  0
    4.3016    1.4537   -0.0787 C   0  0  0  0  0  0  0  0  0  0  0  0
    3.6368   -1.3056   -0.1615 C   0  0  0  0  0  0  0  0  0  0  0  0
   -1.5195   -0.1236    0.4413 C   0  0  0  0  0  0  0  0  0  0  0  0
   -0.9707   -1.4112    0.3132 C   0  0  0  0  0  0  0  0  0  0  0  0
    5.2934    0.4838   -0.2352 C   0  0  0  0  0  0  0  0  0  0  0  0
    4.9644   -0.8821   -0.2762 C   0  0  0  0  0  0  0  0  0  0  0  0
   -3.8676    0.1950   -0.3929 C   0  0  0  0  0  0  0  0  0  0  0  0
   -6.2071    0.4908   -0.6911 C   0  0  0  0  0  0  0  0  0  0  0  0
   -7.4774    0.6092    0.1237 C   0  0  0  0  0  0  0  0  0  0  0  0
  1 13  1  0
  2 14  1  0
  3 18  1  0
  4 19  1  0
  5 21  1  0
  5 22  1  0
  6 21  2  0
  7 17  1  0
  7 21  1  0
  8  9  1  0
  8 11  1  0
  9 10  2  0
  9 13  1  0
 10 12  1  0
 10 14  1  0
 11 12  2  0
 11 15  1  0
 12 16  1  0
 13 17  2  0
 14 18  2  0
 15 19  2  0
 16 20  2  0
 17 18  1  0
 19 20  1  0
 22 23  1  0
M  END
>  <PUBCHEM_COMPOUND_CID>  (1) 
15955

>  <PUBCHEM_CONFORMER_RMSD>  (1) 
0.8

>  <PUBCHEM_CONFORMER_DIVERSEORDER>  (1) 
1
4
6
5
3
2

>  <PUBCHEM_MMFF94_PARTIAL_CHARGES>  (1) 
24
1 -0.18
11 -0.14
13 0.18
14 0.18
15 -0.15
16 -0.15
17 0.12
18 0.18
19 0.18
2 -0.18
20 -0.15
21 0.78
22 0.28
26 0.15
27 0.15
28 0.15
29 0.37
3 -0.18
4 -0.18
5 -0.43
6 -0.57
7 -0.55
8 0.29
9 -0.14

>  <PUBCHEM_EFFECTIVE_ROTOR_COUNT>  (1) 
4.2

>  <PUBCHEM_PHARMACOPHORE_FEATURES>  (1) 
5
1 6 acceptor
1 7 donor
5 8 9 10 11 12 rings
6 11 12 15 16 19 20 rings
6 9 10 13 14 17 18 rings

>  <PUBCHEM_HEAVY_ATOM_COUNT>  (1) 
23

>  <PUBCHEM_ATOM_DEF_STEREO_COUNT>  (1) 
0

>  <PUBCHEM_ATOM_UDEF_STEREO_COUNT>  (1) 
0

>  <PUBCHEM_BOND_DEF_STEREO_COUNT>  (1) 
0

>  <PUBCHEM_BOND_UDEF_STEREO_COUNT>  (1) 
0

>  <PUBCHEM_ISOTOPIC_ATOM_COUNT>  (1) 
0

>  <PUBCHEM_COMPONENT_COUNT>  (1) 
1

>  <PUBCHEM_CACTVS_TAUTO_COUNT>  (1) 
2

>  <PUBCHEM_CONFORMER_ID>  (1) 
00003E5300000001

>  <PUBCHEM_MMFF94_ENERGY>  (1) 
87.3259

>  <PUBCHEM_FEATURE_SELFOVERLAP>  (1) 
25.536

>  <PUBCHEM_SHAPE_FINGERPRINT>  (1) 
10411042 1 17761773966556258682
106641 1 11386373651062140965
10693767 8 18059849511377247463
107951 10 17530966912072114818
10906281 52 18271263654357272041
10967382 1 18411423882476781210
11135609 187 18410854339279185633
12011746 2 18412830192160920316
12236239 1 17775283851173630209
12730499 353 18334016069184912499
12788726 201 18201438030269245169
12838862 33 18339063961380226160
13140716 1 18339647861630080418
13533116 47 18272086055138371162
14790565 3 18339932527899906217
15099037 51 18409166627458316566
15131766 46 16445617098317088644
15196674 1 18338801242646756554
16945 1 18339369577919630418
18608769 82 18335424612784919051
200 152 17918274251037741584
20645477 70 18337390444373906234
21029758 11 18272652350729027976
21033648 29 18265608956497827616
21236236 1 18338236085233768963
21267235 1 18341620273842103454
21279426 13 18265895744095901708
21521721 280 18341897419676571929
221357 26 18342454816079393805
23402539 116 18272367602659767764
23559900 14 18270677696987077176
25147074 1 18057326085241435123
266924 87 18266172821379886101
2748010 2 18195811988183529522
283562 15 18269840830550669753
2871803 45 18411982421097765312
29717793 49 17561369474079799356
3178227 256 18337403703243553985
335352 9 18410858776586706660
34797466 226 15410611510369367064
34934 24 18408600388161658202
350125 39 18410857642246524000
3545911 37 18408605881308466732
4072396 5 18335689521423792810
4340502 62 16443063889665404690
484989 97 18193556903395544067
5104073 3 18338237197592583800
5486654 2 18412546517606916645
59755656 215 18410858732925020062
59755656 520 16878219852747802010
9709674 26 18200323130427599526

>  <PUBCHEM_SHAPE_MULTIPOLES>  (1) 
464.09
14.5
2.6
0.8
9.26
1.52
-0.13
-5.39
-3.11
-0.36
0.36
0.47
-0.06
0.11

>  <PUBCHEM_SHAPE_SELFOVERLAP>  (1) 
977.831

>  <PUBCHEM_SHAPE_VOLUME>  (1) 
265.7

>  <PUBCHEM_COORDINATE_TYPE>  (1) 
2
5
10

$$$$
