15961
     RDKit          3D

 15 16  0  0  0  0  0  0  0  0999 V2000
   -3.3079    1.7882    0.6982 S   0  0  0  0  0  0  0  0  0  0  0  0
   -2.3096   -2.8840   -0.4489 O   0  0  0  0  0  0  0  0  0  0  0  0
   -0.5277   -1.4848   -0.2108 N   0  0  0  0  0  0  0  0  0  0  0  0
   -0.8675    0.7565    0.3239 N   0  0  0  0  0  0  0  0  0  0  0  0
   -2.7257   -0.7002    0.0911 N   0  0  0  0  0  0  0  0  0  0  0  0
    1.4125   -0.0081    0.0308 C   0  0  0  0  0  0  0  0  0  0  0  0
   -0.0553   -0.2182    0.0615 C   0  0  0  0  0  0  0  0  0  0  0  0
    1.9319    1.2331   -0.3377 C   0  0  0  0  0  0  0  0  0  0  0  0
    2.2739   -1.0513    0.3708 C   0  0  0  0  0  0  0  0  0  0  0  0
    3.3123    1.4309   -0.3663 C   0  0  0  0  0  0  0  0  0  0  0  0
    3.6544   -0.8534    0.3421 C   0  0  0  0  0  0  0  0  0  0  0  0
    4.1735    0.3878   -0.0265 C   0  0  0  0  0  0  0  0  0  0  0  0
   -2.2098    0.4647    0.3307 C   0  0  0  0  0  0  0  0  0  0  0  0
   -1.8871   -1.7547   -0.2023 C   0  0  0  0  0  0  0  0  0  0  0  0
   -2.8678    2.8934   -0.6566 C   0  0  0  0  0  0  0  0  0  0  0  0
  1 13  1  0
  1 15  1  0
  2 14  2  0
  3  7  1  0
  3 14  1  0
  4  7  2  0
  4 13  1  0
  5 13  2  0
  5 14  1  0
  6  7  1  0
  6  8  2  0
  6  9  1  0
  8 10  1  0
  9 11  2  0
 10 12  2  0
 11 12  1  0
M  END
>  <PUBCHEM_COMPOUND_CID>  (1) 
15961

>  <PUBCHEM_CONFORMER_RMSD>  (1) 
0.6

>  <PUBCHEM_CONFORMER_DIVERSEORDER>  (1) 
1
3
6
2
5
4

>  <PUBCHEM_MMFF94_PARTIAL_CHARGES>  (1) 
21
1 -0.37
10 -0.15
11 -0.15
12 -0.15
13 0.8
14 0.84
15 0.23
16 0.15
17 0.15
18 0.37
19 0.15
2 -0.57
20 0.15
21 0.15
3 -0.49
4 -0.66
5 -0.66
6 0.09
7 0.42
8 -0.15
9 -0.15

>  <PUBCHEM_EFFECTIVE_ROTOR_COUNT>  (1) 
2

>  <PUBCHEM_PHARMACOPHORE_FEATURES>  (1) 
6
1 15 hydrophobe
1 2 acceptor
1 3 donor
1 5 donor
6 3 4 5 7 13 14 rings
6 6 8 9 10 11 12 rings

>  <PUBCHEM_HEAVY_ATOM_COUNT>  (1) 
15

>  <PUBCHEM_ATOM_DEF_STEREO_COUNT>  (1) 
0

>  <PUBCHEM_ATOM_UDEF_STEREO_COUNT>  (1) 
0

>  <PUBCHEM_BOND_DEF_STEREO_COUNT>  (1) 
0

>  <PUBCHEM_BOND_UDEF_STEREO_COUNT>  (1) 
0

>  <PUBCHEM_ISOTOPIC_ATOM_COUNT>  (1) 
0

>  <PUBCHEM_COMPONENT_COUNT>  (1) 
1

>  <PUBCHEM_CACTVS_TAUTO_COUNT>  (1) 
4

>  <PUBCHEM_CONFORMER_ID>  (1) 
00003E5900000001

>  <PUBCHEM_MMFF94_ENERGY>  (1) 
39.3095

>  <PUBCHEM_FEATURE_SELFOVERLAP>  (1) 
30.485

>  <PUBCHEM_SHAPE_FINGERPRINT>  (1) 
10608611 8 18341330076087832888
12173636 292 18412258449929234029
12251169 10 18408888416757088160
12500047 106 18341605984675904824
13380535 76 18200313212941833615
13583140 156 17168425952774077537
14144814 61 18409730672976564610
14178342 30 18337374020587667962
14325111 11 18410858780496668744
14897335 6 18339922623572796497
14965852 173 18411136961106849834
15442244 35 18336825304108184530
15669948 3 18343018934200336790
15775835 57 18336554845321869416
1741750 31 18272092656139030537
17834072 32 18265333902545294421
18186145 218 18128544755817526580
18522853 266 18412549812231987222
19422 9 18336829788059524074
20510252 161 18272939319015882889
20645477 56 18341618100599487177
20645477 70 16630254602186226990
21267235 1 18337964471037447466
21501502 16 18408886273879546274
21524375 3 18336830767322500353
23402539 116 18271518780490272407
23402655 69 18335423465527270092
23557571 272 18059584615184742964
23559900 14 18060137597236280762
23598291 2 18260264153350562502
2748010 2 18124612881220640711
3071541 12 17405433204702327673
474229 33 18411703154525477257
5104073 3 18409729573755075024
57096353 35 18120939666248886246
58051976 100 18408609157914839549
633830 44 17313112938709829632
6430166 295 18336826373280987968
69090 78 18410291372409528625
6992083 37 18260553311607086429
74978 22 18411980256487086584
7832392 63 18409449168051387108
81228 2 18267854172453507169
9709674 26 18272093794405896134

>  <PUBCHEM_SHAPE_MULTIPOLES>  (1) 
291.73
7.14
2.65
0.74
3.21
0.39
-0.02
-2.63
-0.33
-2.84
0.59
-0.18
-0.13
-0.47

>  <PUBCHEM_SHAPE_SELFOVERLAP>  (1) 
609.958

>  <PUBCHEM_SHAPE_VOLUME>  (1) 
167.5

>  <PUBCHEM_COORDINATE_TYPE>  (1) 
2
5
10

$$$$
