15975
     RDKit          3D

 17 19  0  0  1  0  0  0  0  0999 V2000
   -2.9324   -3.1447   -0.0154 O   0  0  0  0  0  0  0  0  0  0  0  0
    4.0860    0.1944   -1.1716 N   0  0  0  0  0  0  0  0  0  0  0  0
   -2.3482    2.3062   -0.0947 N   0  0  0  0  0  0  0  0  0  0  0  0
    3.2213    0.4171   -0.0038 C   0  0  0  0  0  0  0  0  0  0  0  0
    3.3736   -0.8718    0.7899 C   0  0  0  0  0  0  0  0  0  0  0  0
    1.7826    0.7014   -0.4046 C   0  0  0  0  0  0  0  0  0  0  0  0
    4.8230   -1.2750    0.5630 C   0  0  0  0  0  0  0  0  0  0  0  0
    5.2876   -0.4474   -0.6275 C   0  0  0  0  0  0  0  0  0  0  0  0
    0.8847    0.8782    0.8211 C   0  0  0  0  0  0  0  0  0  0  0  0
   -0.5372    1.1918    0.4316 C   0  0  0  0  0  0  0  0  0  0  0  0
   -1.5498    0.2447    0.2049 C   0  0  0  0  0  0  0  0  0  0  0  0
   -1.0298    2.4440    0.2475 C   0  0  0  0  0  0  0  0  0  0  0  0
   -2.6932    0.9739   -0.1284 C   0  0  0  0  0  0  0  0  0  0  0  0
   -1.6298   -1.1615    0.2443 C   0  0  0  0  0  0  0  0  0  0  0  0
   -3.9176    0.3647   -0.4256 C   0  0  0  0  0  0  0  0  0  0  0  0
   -2.8479   -1.7846   -0.0505 C   0  0  0  0  0  0  0  0  0  0  0  0
   -3.9729   -1.0313   -0.3801 C   0  0  0  0  0  0  0  0  0  0  0  0
  1 16  1  0
  2  4  1  0
  2  8  1  0
  3 12  1  0
  3 13  1  0
  4  5  1  0
  4  6  1  0
  5  7  1  0
  6  9  1  0
  7  8  1  0
  9 10  1  0
 10 11  1  0
 10 12  2  0
 11 13  2  0
 11 14  1  0
 13 15  1  0
 14 16  2  0
 15 17  2  0
 16 17  1  0
M  END
>  <PUBCHEM_COMPOUND_CID>  (1) 
15975

>  <PUBCHEM_CONFORMER_RMSD>  (1) 
0.6

>  <PUBCHEM_CONFORMER_DIVERSEORDER>  (1) 
9
17
31
46
34
24
40
27
49
18
11
41
22
47
10
32
29
43
13
50
12
42
8
44
7
6
37
2
48
20
19
3
30
39
14
36
5
4
33
38
21
1
23
28
35
45
25
26
15
16

>  <PUBCHEM_MMFF94_PARTIAL_CHARGES>  (1) 
20
1 -0.53
10 -0.18
12 -0.3
13 -0.15
14 -0.15
15 -0.15
16 0.08
17 -0.15
2 -0.9
27 0.36
3 0.03
30 0.15
31 0.27
32 0.15
33 0.15
34 0.15
35 0.45
4 0.27
8 0.27
9 0.18

>  <PUBCHEM_EFFECTIVE_ROTOR_COUNT>  (1) 
4

>  <PUBCHEM_PHARMACOPHORE_FEATURES>  (1) 
8
1 1 donor
1 2 cation
1 2 donor
1 3 cation
1 3 donor
5 2 4 5 7 8 rings
5 3 10 11 12 13 rings
6 11 13 14 15 16 17 rings

>  <PUBCHEM_HEAVY_ATOM_COUNT>  (1) 
17

>  <PUBCHEM_ATOM_DEF_STEREO_COUNT>  (1) 
0

>  <PUBCHEM_ATOM_UDEF_STEREO_COUNT>  (1) 
1

>  <PUBCHEM_BOND_DEF_STEREO_COUNT>  (1) 
0

>  <PUBCHEM_BOND_UDEF_STEREO_COUNT>  (1) 
0

>  <PUBCHEM_ISOTOPIC_ATOM_COUNT>  (1) 
0

>  <PUBCHEM_COMPONENT_COUNT>  (1) 
1

>  <PUBCHEM_CACTVS_TAUTO_COUNT>  (1) 
8

>  <PUBCHEM_CONFORMER_ID>  (1) 
00003E6700000009

>  <PUBCHEM_MMFF94_ENERGY>  (1) 
20.632

>  <PUBCHEM_FEATURE_SELFOVERLAP>  (1) 
40.69

>  <PUBCHEM_SHAPE_FINGERPRINT>  (1) 
10616163 171 18411420592247307550
11046707 91 18341895199067521320
11458722 379 18408321081594896779
12236239 1 17894632517662818824
12553582 1 18409724097318577987
12555020 224 18337942425112599391
12757275 245 18411419501003276296
13167823 11 18260549992098253458
13862211 1 18412821417864669815
14251764 30 17606979553210849891
14386348 63 17561367266497991358
14790565 3 18052540963652124681
14863182 85 16317807881833370039
15352361 1 18340485663773538398
15880784 105 16200138924374673590
16752209 62 18336811010325115849
17804303 29 18343018908736436257
17834072 33 18333454249029195836
17870717 6 18342469101330031118
18186145 218 14923948955333462800
18915474 69 18334296496052043526
19141452 34 17988364875167445751
19862831 5 17603300462195630456
200 152 18186803578085510504
20281475 54 18341335599204681617
20374829 77 18341889710220668775
20403669 9 18272373104592320127
20432913 95 16128657440280744116
20871998 22 18051971712870124249
20871999 31 18334012800086701776
21267235 1 18409736179193489139
21634736 98 18262519320281314732
221490 88 18265337385831713272
23402539 116 18341604881043675589
23403322 49 18413107277169390447
23557571 272 18059864913340589940
23559900 14 18340759421084596888
238078 22 18340214084475174880
3004659 81 18260264153382042006
3082319 5 18040438785008660192
335352 9 18411697699906494541
4214541 1 18410010992739240108
5104073 3 18272088309858961448
559249 180 18116707409722934586
573450 72 18263074436393736504
58051976 100 18407759231200270708
633830 44 16153995638656762368
67856867 119 18260827163866445324
7062679 117 18410859863202876340
76465 3 18058719342625768375
9709674 26 18271529689274843342

>  <PUBCHEM_SHAPE_MULTIPOLES>  (1) 
334.02
10.02
2.4
0.84
10.96
0.53
0.03
4.27
1.69
-2.73
-0.17
0.59
-0.01
-0.35

>  <PUBCHEM_SHAPE_SELFOVERLAP>  (1) 
721.356

>  <PUBCHEM_SHAPE_VOLUME>  (1) 
186.1

>  <PUBCHEM_COORDINATE_TYPE>  (1) 
2
5
10

$$$$
