15970
     RDKit          3D

  9  9  0  0  0  0  0  0  0  0999 V2000
    1.5272   -1.3791    0.4723 S   0  0  0  0  0  0  0  0  0  0  0  0
   -3.2883   -0.3123   -0.1827 O   0  0  0  0  0  0  0  0  0  0  0  0
   -1.7914    1.0558    0.8379 O   0  0  0  0  0  0  0  0  0  0  0  0
    0.4189   -0.3216   -0.2932 C   0  0  0  0  0  0  0  0  0  0  0  0
   -0.9674   -0.7747   -0.5406 C   0  0  0  0  0  0  0  0  0  0  0  0
    0.9916    0.8928   -0.6010 C   0  0  0  0  0  0  0  0  0  0  0  0
    2.3584    0.9560   -0.2034 C   0  0  0  0  0  0  0  0  0  0  0  0
    2.7781   -0.2125    0.3933 C   0  0  0  0  0  0  0  0  0  0  0  0
   -2.0270    0.0956    0.1174 C   0  0  0  0  0  0  0  0  0  0  0  0
  1  4  1  0
  1  8  1  0
  2  9  1  0
  3  9  2  0
  4  5  1  0
  4  6  2  0
  5  9  1  0
  6  7  1  0
  7  8  2  0
M  END
>  <PUBCHEM_COMPOUND_CID>  (1) 
15970

>  <PUBCHEM_CONFORMER_RMSD>  (1) 
0.4

>  <PUBCHEM_CONFORMER_DIVERSEORDER>  (1) 
1
6
11
4
7
3
8
12
5
9
10
2

>  <PUBCHEM_MMFF94_PARTIAL_CHARGES>  (1) 
13
1 -0.08
12 0.15
13 0.15
14 0.15
15 0.5
2 -0.65
3 -0.57
4 -0.14
5 0.24
6 -0.15
7 -0.15
8 -0.11
9 0.66

>  <PUBCHEM_EFFECTIVE_ROTOR_COUNT>  (1) 
2

>  <PUBCHEM_PHARMACOPHORE_FEATURES>  (1) 
4
1 2 acceptor
1 3 acceptor
3 2 3 9 anion
5 1 4 6 7 8 rings

>  <PUBCHEM_HEAVY_ATOM_COUNT>  (1) 
9

>  <PUBCHEM_ATOM_DEF_STEREO_COUNT>  (1) 
0

>  <PUBCHEM_ATOM_UDEF_STEREO_COUNT>  (1) 
0

>  <PUBCHEM_BOND_DEF_STEREO_COUNT>  (1) 
0

>  <PUBCHEM_BOND_UDEF_STEREO_COUNT>  (1) 
0

>  <PUBCHEM_ISOTOPIC_ATOM_COUNT>  (1) 
0

>  <PUBCHEM_COMPONENT_COUNT>  (1) 
1

>  <PUBCHEM_CACTVS_TAUTO_COUNT>  (1) 
1

>  <PUBCHEM_CONFORMER_ID>  (1) 
00003E6200000001

>  <PUBCHEM_MMFF94_ENERGY>  (1) 
8.2735

>  <PUBCHEM_FEATURE_SELFOVERLAP>  (1) 
20.356

>  <PUBCHEM_SHAPE_FINGERPRINT>  (1) 
10219947 1 17822009822108904860
11062470 55 15502372335491384095
12932764 1 15267339600335168325
14325111 11 18409166636169603007
14390081 3 17917711313831942232
15775835 57 18271814518257008785
20871998 22 18049718521492848850
21040471 1 18202286909243700558
23235685 24 18187642552638697380
29004967 10 17240484689141008364
5084963 1 18409163307443380480

>  <PUBCHEM_SHAPE_MULTIPOLES>  (1) 
177.33
4.31
1.26
0.8
1.9
0.12
0.03
-0.16
0.42
-0.53
0.06
0.06
-0.04
-0.41

>  <PUBCHEM_SHAPE_SELFOVERLAP>  (1) 
349.53

>  <PUBCHEM_SHAPE_VOLUME>  (1) 
106.3

>  <PUBCHEM_COORDINATE_TYPE>  (1) 
2
5
10

$$$$
