15971
     RDKit          3D

 30 33  0  0  0  0  0  0  0  0999 V2000
   -7.6720   -2.1406    0.0003 Cl  0  0  0  0  0  0  0  0  0  0  0  0
    5.2728   -3.2707    0.0000 Cl  0  0  0  0  0  0  0  0  0  0  0  0
    6.5990    0.5499    0.0001 Cl  0  0  0  0  0  0  0  0  0  0  0  0
   -3.3894    1.8767    0.0000 O   0  0  0  0  0  0  0  0  0  0  0  0
   -0.3630   -1.6225   -0.0001 O   0  0  0  0  0  0  0  0  0  0  0  0
    1.1541    2.7480    0.0001 O   0  0  0  0  0  0  0  0  0  0  0  0
   -1.9139    0.0944   -0.0003 N   0  0  0  0  0  0  0  0  0  0  0  0
   -1.1271    2.3613   -0.0002 N   0  0  0  0  0  0  0  0  0  0  0  0
    0.4427    0.5464   -0.0005 N   0  0  0  0  0  0  0  0  0  0  0  0
   -4.3822    0.9458    0.0001 C   0  0  0  0  0  0  0  0  0  0  0  0
    0.9597   -2.0097    0.0000 C   0  0  0  0  0  0  0  0  0  0  0  0
    2.4322    2.2324    0.0001 C   0  0  0  0  0  0  0  0  0  0  0  0
   -2.0812    1.4225   -0.0001 C   0  0  0  0  0  0  0  0  0  0  0  0
   -0.6221   -0.2718   -0.0003 C   0  0  0  0  0  0  0  0  0  0  0  0
    0.1139    1.8484   -0.0002 C   0  0  0  0  0  0  0  0  0  0  0  0
   -4.8911    0.4684    1.2081 C   0  0  0  0  0  0  0  0  0  0  0  0
    1.6128   -2.2005    1.2080 C   0  0  0  0  0  0  0  0  0  0  0  0
    3.0633    1.9781   -1.2079 C   0  0  0  0  0  0  0  0  0  0  0  0
   -4.8913    0.4687   -1.2079 C   0  0  0  0  0  0  0  0  0  0  0  0
    1.6126   -2.2010   -1.2080 C   0  0  0  0  0  0  0  0  0  0  0  0
    3.0630    1.9776    1.2081 C   0  0  0  0  0  0  0  0  0  0  0  0
   -5.9084   -0.4860    1.2081 C   0  0  0  0  0  0  0  0  0  0  0  0
    2.9518   -2.5920    1.2079 C   0  0  0  0  0  0  0  0  0  0  0  0
    4.3569    1.4558   -1.2078 C   0  0  0  0  0  0  0  0  0  0  0  0
   -5.9085   -0.4858   -1.2080 C   0  0  0  0  0  0  0  0  0  0  0  0
    2.9517   -2.5921   -1.2082 C   0  0  0  0  0  0  0  0  0  0  0  0
    4.3565    1.4551    1.2083 C   0  0  0  0  0  0  0  0  0  0  0  0
   -6.4170   -0.9632    0.0000 C   0  0  0  0  0  0  0  0  0  0  0  0
    3.6211   -2.7876   -0.0001 C   0  0  0  0  0  0  0  0  0  0  0  0
    5.0033    1.1941    0.0002 C   0  0  0  0  0  0  0  0  0  0  0  0
  1 28  1  0
  2 29  1  0
  3 30  1  0
  4 10  1  0
  4 13  1  0
  5 11  1  0
  5 14  1  0
  6 12  1  0
  6 15  1  0
  7 13  2  0
  7 14  1  0
  8 13  1  0
  8 15  2  0
  9 14  2  0
  9 15  1  0
 10 16  2  0
 10 19  1  0
 11 17  2  0
 11 20  1  0
 12 18  2  0
 12 21  1  0
 16 22  1  0
 17 23  1  0
 18 24  1  0
 19 25  2  0
 20 26  2  0
 21 27  2  0
 22 28  2  0
 23 29  2  0
 24 30  2  0
 25 28  1  0
 26 29  1  0
 27 30  1  0
M  END
>  <PUBCHEM_COMPOUND_CID>  (1) 
15971

>  <PUBCHEM_CONFORMER_RMSD>  (1) 
0.8

>  <PUBCHEM_CONFORMER_DIVERSEORDER>  (1) 
1
66
26
18
95
87
14
39
3
80
104
28
97
59
79
44
41
81
22
53
32
56
69
68
15
11
24
5
50
42
37
74
86
72
73
58
92
91
93
20
103
7
89
52
45
88
8
90
61
51
34
2
83
76
96
6
101
67
63
16
19
77
23
94
75
84
35
100
4
30
9
33
82
47
49
31
36
106
25
46
65
10
55
17
60
40
43
105
38
48
21
64
99
29
57
62
102
70
98
71
12
78
27
54
85
13

>  <PUBCHEM_MMFF94_PARTIAL_CHARGES>  (1) 
42
1 -0.18
10 0.08
11 0.08
12 0.08
13 0.7
14 0.7
15 0.7
16 -0.15
17 -0.15
18 -0.15
19 -0.15
2 -0.18
20 -0.15
21 -0.15
22 -0.15
23 -0.15
24 -0.15
25 -0.15
26 -0.15
27 -0.15
28 0.18
29 0.18
3 -0.18
30 0.18
31 0.15
32 0.15
33 0.15
34 0.15
35 0.15
36 0.15
37 0.15
38 0.15
39 0.15
4 -0.17
40 0.15
41 0.15
42 0.15
5 -0.17
6 -0.17
7 -0.62
8 -0.62
9 -0.62

>  <PUBCHEM_EFFECTIVE_ROTOR_COUNT>  (1) 
6

>  <PUBCHEM_PHARMACOPHORE_FEATURES>  (1) 
7
3 7 8 13 cation
3 7 9 14 cation
3 8 9 15 cation
6 10 16 19 22 25 28 rings
6 11 17 20 23 26 29 rings
6 12 18 21 24 27 30 rings
6 7 8 9 13 14 15 rings

>  <PUBCHEM_HEAVY_ATOM_COUNT>  (1) 
30

>  <PUBCHEM_ATOM_DEF_STEREO_COUNT>  (1) 
0

>  <PUBCHEM_ATOM_UDEF_STEREO_COUNT>  (1) 
0

>  <PUBCHEM_BOND_DEF_STEREO_COUNT>  (1) 
0

>  <PUBCHEM_BOND_UDEF_STEREO_COUNT>  (1) 
0

>  <PUBCHEM_ISOTOPIC_ATOM_COUNT>  (1) 
0

>  <PUBCHEM_COMPONENT_COUNT>  (1) 
1

>  <PUBCHEM_CACTVS_TAUTO_COUNT>  (1) 
1

>  <PUBCHEM_CONFORMER_ID>  (1) 
00003E6300000001

>  <PUBCHEM_MMFF94_ENERGY>  (1) 
95.8687

>  <PUBCHEM_FEATURE_SELFOVERLAP>  (1) 
38.31

>  <PUBCHEM_SHAPE_FINGERPRINT>  (1) 
10050765 1 18337953377495942773
10675989 125 17116895467336897686
10838868 158 17245849408279499043
11963148 33 18264200477993126691
12166972 35 17678188088011801854
12592029 89 18408608084199805368
13140716 1 18123470741705316160
13150687 139 18043835263086551164
13692114 37 18198053888108738051
14028597 1 17561092401344256584
14955137 171 17986388885025904150
15064981 113 14056985136782195307
15510800 12 17677624228031755427
15721738 202 18060139808242612019
16067689 302 18413395344921439934
16112460 7 18342466941537039915
19377110 9 17988646289982537281
20028762 73 18128538348148061229
20691752 17 17387144069930619448
20721686 56 18335988576055164730
20905425 154 18268996389262997060
21197605 99 18411982502924008378
21781051 124 18189068649047707002
22149856 69 18342748407960245739
22956985 138 17971178249773341786
23559900 14 17967540029925536531
27425 322 16082226271779941932
3178227 256 18338523056940385473
4093350 32 17703525306965782679
465052 167 17749389299498037856
484989 97 18261408744844814258
5104073 3 18341902844858564001
513532 50 17775008969056024470
5265222 85 18121510309243706012
59755656 215 18408041835711071646

>  <PUBCHEM_SHAPE_MULTIPOLES>  (1) 
590.44
16.71
3.84
1.21
23.37
1.71
0
4.89
0
-5.03
0
-0.1
0.12
0

>  <PUBCHEM_SHAPE_SELFOVERLAP>  (1) 
1274.12

>  <PUBCHEM_SHAPE_VOLUME>  (1) 
324.4

>  <PUBCHEM_COORDINATE_TYPE>  (1) 
2
5
10

$$$$
