15985
     RDKit          3D

 22 22  0  0  0  0  0  0  0  0999 V2000
   -0.2311    1.9815   -1.3546 I   0  0  0  0  0  0  0  0  0  0  0  0
   -2.7880   -3.3619    0.1851 I   0  0  0  0  0  0  0  0  0  0  0  0
    3.1447   -2.9660    0.0809 I   0  0  0  0  0  0  0  0  0  0  0  0
   -2.9764    0.5988    1.4211 O   0  0  0  0  0  0  0  0  0  0  0  0
    4.8491    2.2775    0.6549 O   0  0  0  0  0  0  0  0  0  0  0  0
    4.7251    1.5380   -1.4863 O   0  0  0  0  0  0  0  0  0  0  0  0
   -2.4741   -0.2409   -0.7164 N   0  0  0  0  0  0  0  0  0  0  0  0
   -4.5710    0.8948   -0.3633 C   0  0  0  0  0  0  0  0  0  0  0  0
   -1.2070   -0.8170   -0.5477 C   0  0  0  0  0  0  0  0  0  0  0  0
    1.1997   -0.6486   -0.5921 C   0  0  0  0  0  0  0  0  0  0  0  0
   -5.4767    1.6261    0.6251 C   0  0  0  0  0  0  0  0  0  0  0  0
   -0.0531   -0.0637   -0.7633 C   0  0  0  0  0  0  0  0  0  0  0  0
   -3.2547    0.4197    0.2402 C   0  0  0  0  0  0  0  0  0  0  0  0
    2.4206    0.1331   -0.8159 C   0  0  0  0  0  0  0  0  0  0  0  0
    3.0553    0.8614    0.1232 C   0  0  0  0  0  0  0  0  0  0  0  0
   -1.1054   -2.1534   -0.1612 C   0  0  0  0  0  0  0  0  0  0  0  0
    1.3042   -1.9832   -0.2063 C   0  0  0  0  0  0  0  0  0  0  0  0
    2.6042    1.0253    1.5557 C   0  0  0  0  0  0  0  0  0  0  0  0
    0.1502   -2.7365    0.0094 C   0  0  0  0  0  0  0  0  0  0  0  0
   -6.7812    2.0872   -0.0096 C   0  0  0  0  0  0  0  0  0  0  0  0
    3.1868   -0.0439    2.4707 C   0  0  0  0  0  0  0  0  0  0  0  0
    4.2788    1.5717   -0.3495 C   0  0  0  0  0  0  0  0  0  0  0  0
  1 12  1  0
  2 16  1  0
  3 17  1  0
  4 13  2  0
  5 22  1  0
  6 22  2  0
  7  9  1  0
  7 13  1  0
  8 11  1  0
  8 13  1  0
  9 12  2  0
  9 16  1  0
 10 12  1  0
 10 14  1  0
 10 17  2  0
 11 20  1  0
 14 15  2  0
 15 18  1  0
 15 22  1  0
 16 19  2  0
 17 19  1  0
 18 21  1  0
M  END
>  <PUBCHEM_COMPOUND_CID>  (1) 
15985

>  <PUBCHEM_CONFORMER_RMSD>  (1) 
0.8

>  <PUBCHEM_CONFORMER_DIVERSEORDER>  (1) 
1
14
16
3
6
7
8
9
13
2
11
15
5
12
4
10
17

>  <PUBCHEM_MMFF94_PARTIAL_CHARGES>  (1) 
23
1 -0.08
10 0.03
12 0.08
13 0.57
14 -0.18
15 -0.12
16 0.08
17 0.08
18 0.14
19 -0.15
2 -0.08
22 0.71
27 0.37
28 0.15
3 -0.08
31 0.15
38 0.5
4 -0.57
5 -0.65
6 -0.57
7 -0.55
8 0.06
9 0.12

>  <PUBCHEM_EFFECTIVE_ROTOR_COUNT>  (1) 
7

>  <PUBCHEM_PHARMACOPHORE_FEATURES>  (1) 
11
1 1 hydrophobe
1 2 hydrophobe
1 20 hydrophobe
1 21 hydrophobe
1 3 hydrophobe
1 4 acceptor
1 5 acceptor
1 6 acceptor
1 7 donor
3 5 6 22 anion
6 9 10 12 16 17 19 rings

>  <PUBCHEM_HEAVY_ATOM_COUNT>  (1) 
22

>  <PUBCHEM_ATOM_DEF_STEREO_COUNT>  (1) 
0

>  <PUBCHEM_ATOM_UDEF_STEREO_COUNT>  (1) 
0

>  <PUBCHEM_BOND_DEF_STEREO_COUNT>  (1) 
0

>  <PUBCHEM_BOND_UDEF_STEREO_COUNT>  (1) 
1

>  <PUBCHEM_ISOTOPIC_ATOM_COUNT>  (1) 
0

>  <PUBCHEM_COMPONENT_COUNT>  (1) 
1

>  <PUBCHEM_CACTVS_TAUTO_COUNT>  (1) 
2

>  <PUBCHEM_CONFORMER_ID>  (1) 
00003E7100000001

>  <PUBCHEM_MMFF94_ENERGY>  (1) 
76.9797

>  <PUBCHEM_FEATURE_SELFOVERLAP>  (1) 
55.881

>  <PUBCHEM_SHAPE_FINGERPRINT>  (1) 
10165383 225 18410580578507032252
10411042 1 17473546845968599951
10493431 412 18409452509556951797
10498660 4 18272374208340847384
12390115 104 18268445679011567599
12596602 18 17530972384430213753
12633257 1 18189312642208790378
12788726 201 17759816127214794927
13140716 1 18334857190652658659
13540713 5 18338782490166311166
13878862 14 18194381322204390629
13965767 371 18187916309638772836
14178342 30 18335980990446723847
14341114 328 17168145688772428712
14790565 3 17974019632527136204
15238133 3 18201146707417646040
15342168 16 18410572877456142461
15475509 35 16298948615489970498
19784866 170 18187369830531335108
20510252 161 17982172523994560714
20691752 17 17458338654757415966
20739085 24 18116445742956233661
21033648 29 17702942672528144384
21421861 104 17895464835475782730
21452121 103 18336262332189322820
21475661 188 17560219444688226040
23557571 272 17916315016133574495
23559900 14 18342455898828033326
25147074 1 18339628001670252671
2748010 2 17971460806717274982
283562 15 17977096082983299551
335352 9 18338520729558637142
350125 39 18192995924509780420
4340502 62 18340768157532957691
474 4 18341894052601468635
495365 180 17845928554894041534
5104073 3 18333728039565979562
56616090 163 18412272739338402622
633830 44 18200871898383172572
7808743 9 18337673117330039868
9999458 23 18189058594445215478

>  <PUBCHEM_SHAPE_MULTIPOLES>  (1) 
465.97
11.05
3.84
1.43
12.18
2.93
0.65
-9.18
2.25
-0.18
-0.3
-1.2
-0.58
-0.27

>  <PUBCHEM_SHAPE_SELFOVERLAP>  (1) 
891.245

>  <PUBCHEM_SHAPE_VOLUME>  (1) 
295

>  <PUBCHEM_COORDINATE_TYPE>  (1) 
2
5
10

$$$$
