15989
     RDKit          3D

 29 32  0  0  1  0  0  0  0  0999 V2000
    0.1725   -1.4552   -0.5394 O   0  0  0  0  0  0  0  0  0  0  0  0
   -1.9530   -0.8493   -1.9717 O   0  0  0  0  0  0  0  0  0  0  0  0
   -1.4303   -2.4957    0.7400 O   0  0  0  0  0  0  0  0  0  0  0  0
    2.9184   -0.7815   -0.4164 N   0  0  0  0  0  0  0  0  0  0  0  0
    3.1532   -0.6362    1.0279 C   0  0  0  0  0  0  0  0  0  0  0  0
    4.1016   -0.3389   -1.1686 C   0  0  0  0  0  0  0  0  0  0  0  0
    3.2481    0.8696    1.3438 C   0  0  0  0  0  0  0  0  0  0  0  0
    4.3721   -1.4409    1.5180 C   0  0  0  0  0  0  0  0  0  0  0  0
    4.2472    1.1827   -0.9707 C   0  0  0  0  0  0  0  0  0  0  0  0
    5.3725   -1.1274   -0.7991 C   0  0  0  0  0  0  0  0  0  0  0  0
    4.2600    1.6320    0.4896 C   0  0  0  0  0  0  0  0  0  0  0  0
    5.6429   -1.2244    0.7002 C   0  0  0  0  0  0  0  0  0  0  0  0
    2.4579   -2.1131   -0.7954 C   0  0  0  0  0  0  0  0  0  0  0  0
    1.1258   -2.4288   -0.1341 C   0  0  0  0  0  0  0  0  0  0  0  0
   -1.0935   -1.5996   -0.0250 C   0  0  0  0  0  0  0  0  0  0  0  0
   -2.0283   -0.5169   -0.5703 C   0  0  0  0  0  0  0  0  0  0  0  0
   -1.4877    0.8972   -0.3472 C   0  0  0  0  0  0  0  0  0  0  0  0
   -3.4720   -0.6338   -0.0754 C   0  0  0  0  0  0  0  0  0  0  0  0
   -0.8543    1.1800    0.8409 C   0  0  0  0  0  0  0  0  0  0  0  0
   -1.6557    1.8309   -1.3434 C   0  0  0  0  0  0  0  0  0  0  0  0
   -3.7349   -0.3861    1.2521 C   0  0  0  0  0  0  0  0  0  0  0  0
   -4.4510   -0.9823   -0.9769 C   0  0  0  0  0  0  0  0  0  0  0  0
   -0.3613    2.4689    1.0443 C   0  0  0  0  0  0  0  0  0  0  0  0
   -1.1625    3.1198   -1.1401 C   0  0  0  0  0  0  0  0  0  0  0  0
   -0.5154    3.4388    0.0537 C   0  0  0  0  0  0  0  0  0  0  0  0
   -5.0506   -0.4930    1.7034 C   0  0  0  0  0  0  0  0  0  0  0  0
   -5.7665   -1.0891   -0.5258 C   0  0  0  0  0  0  0  0  0  0  0  0
   -6.0663   -0.8445    0.8144 C   0  0  0  0  0  0  0  0  0  0  0  0
    0.0111    4.8168    0.2713 C   0  0  0  0  0  0  0  0  0  0  0  0
  1 14  1  0
  1 15  1  0
  2 16  1  0
  3 15  2  0
  4  5  1  0
  4  6  1  0
  4 13  1  0
  5  7  1  0
  5  8  1  0
  6  9  1  0
  6 10  1  0
  7 11  1  0
  8 12  1  0
  9 11  1  0
 10 12  1  0
 13 14  1  0
 15 16  1  0
 16 17  1  0
 16 18  1  0
 17 19  2  0
 17 20  1  0
 18 21  2  0
 18 22  1  0
 19 23  1  0
 20 24  2  0
 21 26  1  0
 22 27  2  0
 23 25  2  0
 24 25  1  0
 25 29  1  0
 26 28  2  0
 27 28  1  0
M  END
>  <PUBCHEM_COMPOUND_CID>  (1) 
15989

>  <PUBCHEM_CONFORMER_RMSD>  (1) 
1

>  <PUBCHEM_CONFORMER_DIVERSEORDER>  (1) 
6
10
152
80
116
134
145
29
149
41
18
28
5
78
68
19
34
107
64
150
72
111
47
129
26
20
89
112
148
83
77
108
12
61
130
151
50
141
1
114
63
115
88
113
67
101
76
60
144
55
22
27
98
139
92
73
8
43
135
136
66
117
37
45
25
102
94
121
124
128
44
54
81
49
53
9
31
138
11
71
32
91
95
109
3
123
56
122
65
74
96
119
14
103
104
82
39
52
133
62
120
38
30
146
35
48
106
90
17
24
118
79
57
23
21
100
86
140
69
2
16
99
51
40
59
7
42
75
143
13
127
46
84
126
137
70
15
93
125
105
33
142
147
110
132
131
4
36
97
87
85
58

>  <PUBCHEM_MMFF94_PARTIAL_CHARGES>  (1) 
33
1 -0.43
13 0.27
14 0.28
15 0.66
16 0.63
17 -0.14
18 -0.14
19 -0.15
2 -0.68
20 -0.15
21 -0.15
22 -0.15
23 -0.15
24 -0.15
25 -0.14
26 -0.15
27 -0.15
28 -0.15
29 0.14
3 -0.57
4 -0.81
48 0.4
49 0.15
5 0.27
50 0.15
51 0.15
52 0.15
53 0.15
54 0.15
55 0.15
56 0.15
57 0.15
6 0.27

>  <PUBCHEM_EFFECTIVE_ROTOR_COUNT>  (1) 
8.4

>  <PUBCHEM_PHARMACOPHORE_FEATURES>  (1) 
8
1 2 acceptor
1 2 donor
1 3 acceptor
1 4 cation
6 17 19 20 23 24 25 rings
6 18 21 22 26 27 28 rings
6 4 5 6 7 9 11 rings
6 4 5 6 8 10 12 rings

>  <PUBCHEM_HEAVY_ATOM_COUNT>  (1) 
29

>  <PUBCHEM_ATOM_DEF_STEREO_COUNT>  (1) 
0

>  <PUBCHEM_ATOM_UDEF_STEREO_COUNT>  (1) 
1

>  <PUBCHEM_BOND_DEF_STEREO_COUNT>  (1) 
0

>  <PUBCHEM_BOND_UDEF_STEREO_COUNT>  (1) 
0

>  <PUBCHEM_ISOTOPIC_ATOM_COUNT>  (1) 
0

>  <PUBCHEM_COMPONENT_COUNT>  (1) 
1

>  <PUBCHEM_CACTVS_TAUTO_COUNT>  (1) 
1

>  <PUBCHEM_CONFORMER_ID>  (1) 
00003E7500000006

>  <PUBCHEM_MMFF94_ENERGY>  (1) 
71.0956

>  <PUBCHEM_FEATURE_SELFOVERLAP>  (1) 
42.073

>  <PUBCHEM_SHAPE_FINGERPRINT>  (1) 
10006869 2 17978226063830980457
10366900 7 18334585620302698754
10670039 82 18264784181628669974
10688039 33 18261109660143091012
11135609 12 18129103317137278362
11578080 2 12173697614328556427
11991303 11 17825665556939396741
12107698 1 18261109647933045754
12166972 35 17822013116327865390
12422481 6 18129677300640215033
12516196 113 18410296921776397827
12553582 1 18411695521572331884
12788726 201 18261679185754460232
13140716 1 18339078319266194074
13224815 77 18343014480735709382
13402501 40 18341889710347223976
13560911 43 18260545628744037112
13899415 154 18338813302640526133
14020679 6 18042413598334724139
14114211 80 18055932123619842110
14170010 4 18341053008443549403
14251764 30 18187368765785660275
14347332 77 18268434521183048126
14725015 67 18339347583718993114
14787075 74 18334860536895938143
14840074 17 18342462581627620085
14955137 171 18339655550164781019
15131766 46 15337685354333756010
15840311 113 17489316295821776249
17492 89 18191863418986097122
1813 80 18411138069340716177
18785283 64 18046916158532275473
19315092 285 16516226467129922098
19319366 153 17968090980278877690
20715895 44 17680974215853032661
221357 26 18272094864395850998
23558518 356 17975135335833211227
23845131 108 17403745445780614489
350125 39 18339928108794711654
3680242 22 18409168826571457554
392239 28 18336273340512360187
469060 322 18338811013038102569
5171179 24 18340751737704894629
6004065 56 18339640153097674655

>  <PUBCHEM_SHAPE_MULTIPOLES>  (1) 
574.22
12.27
3.84
1.49
0.59
5.29
-0.05
-7.13
-1.8
-0.21
0.06
0.16
-0.05
0.21

>  <PUBCHEM_SHAPE_SELFOVERLAP>  (1) 
1233.021

>  <PUBCHEM_SHAPE_VOLUME>  (1) 
315

>  <PUBCHEM_COORDINATE_TYPE>  (1) 
2
5
10

$$$$
