15997
     RDKit          3D

 21 21  0  0  0  0  0  0  0  0999 V2000
    4.2662    2.2059    1.2940 Cl  0  0  0  0  0  0  0  0  0  0  0  0
    7.8724   -1.7813    0.9618 Cl  0  0  0  0  0  0  0  0  0  0  0  0
   -5.4000   -0.3748    0.0522 O   0  0  0  0  0  0  0  0  0  0  0  0
   -0.6483    0.0835   -0.4563 O   0  0  0  0  0  0  0  0  0  0  0  0
    2.8497    0.6732   -0.8752 O   0  0  0  0  0  0  0  0  0  0  0  0
    0.5658    2.0450   -0.5429 O   0  0  0  0  0  0  0  0  0  0  0  0
   -7.7441   -0.8071    0.2797 C   0  0  0  0  0  0  0  0  0  0  0  0
   -6.6620    0.2606    0.2026 C   0  0  0  0  0  0  0  0  0  0  0  0
   -3.0146   -0.1470   -0.1861 C   0  0  0  0  0  0  0  0  0  0  0  0
   -9.1330   -0.1922    0.4263 C   0  0  0  0  0  0  0  0  0  0  0  0
   -4.3441    0.5734   -0.0260 C   0  0  0  0  0  0  0  0  0  0  0  0
   -1.8503    0.8239   -0.2949 C   0  0  0  0  0  0  0  0  0  0  0  0
  -10.2144   -1.2602    0.4595 C   0  0  0  0  0  0  0  0  0  0  0  0
    0.4991    0.8236   -0.5695 C   0  0  0  0  0  0  0  0  0  0  0  0
    1.6758   -0.1017   -0.7340 C   0  0  0  0  0  0  0  0  0  0  0  0
    4.0244    0.1165   -0.4302 C   0  0  0  0  0  0  0  0  0  0  0  0
    4.7797    0.7259    0.5718 C   0  0  0  0  0  0  0  0  0  0  0  0
    4.4583   -1.0802   -1.0004 C   0  0  0  0  0  0  0  0  0  0  0  0
    5.9689    0.1386    1.0034 C   0  0  0  0  0  0  0  0  0  0  0  0
    5.6476   -1.6675   -0.5688 C   0  0  0  0  0  0  0  0  0  0  0  0
    6.4030   -1.0581    0.4330 C   0  0  0  0  0  0  0  0  0  0  0  0
  1 17  1  0
  2 21  1  0
  3  8  1  0
  3 11  1  0
  4 12  1  0
  4 14  1  0
  5 15  1  0
  5 16  1  0
  6 14  2  0
  7  8  1  0
  7 10  1  0
  9 11  1  0
  9 12  1  0
 10 13  1  0
 14 15  1  0
 16 17  2  0
 16 18  1  0
 17 19  1  0
 18 20  2  0
 19 21  2  0
 20 21  1  0
M  END
>  <PUBCHEM_COMPOUND_CID>  (1) 
15997

>  <PUBCHEM_CONFORMER_RMSD>  (1) 
1

>  <PUBCHEM_CONFORMER_DIVERSEORDER>  (1) 
1
26
29
47
100
82
43
61
12
112
24
41
90
99
31
44
79
20
30
72
103
94
7
104
102
54
35
111
38
98
96
65
14
16
62
97
83
109
45
53
32
57
21
92
52
36
91
42
13
15
70
23
9
75
33
95
76
25
108
87
28
49
74
110
93
67
101
106
50
56
48
71
5
86
27
80
40
77
60
17
11
37
3
81
58
66
55
89
6
22
69
107
8
10
85
2
113
46
63
88
51
73
84
19
39
18
64
4
68
34
105
59
114
78

>  <PUBCHEM_MMFF94_PARTIAL_CHARGES>  (1) 
20
1 -0.18
11 0.28
12 0.28
14 0.66
15 0.34
16 0.08
17 0.18
18 -0.15
19 -0.15
2 -0.18
20 -0.15
21 0.18
3 -0.56
39 0.15
4 -0.43
40 0.15
41 0.15
5 -0.36
6 -0.57
8 0.28

>  <PUBCHEM_EFFECTIVE_ROTOR_COUNT>  (1) 
11

>  <PUBCHEM_PHARMACOPHORE_FEATURES>  (1) 
5
1 13 hydrophobe
1 3 acceptor
1 5 acceptor
1 6 acceptor
6 16 17 18 19 20 21 rings

>  <PUBCHEM_HEAVY_ATOM_COUNT>  (1) 
21

>  <PUBCHEM_ATOM_DEF_STEREO_COUNT>  (1) 
0

>  <PUBCHEM_ATOM_UDEF_STEREO_COUNT>  (1) 
0

>  <PUBCHEM_BOND_DEF_STEREO_COUNT>  (1) 
0

>  <PUBCHEM_BOND_UDEF_STEREO_COUNT>  (1) 
0

>  <PUBCHEM_ISOTOPIC_ATOM_COUNT>  (1) 
0

>  <PUBCHEM_COMPONENT_COUNT>  (1) 
1

>  <PUBCHEM_CACTVS_TAUTO_COUNT>  (1) 
1

>  <PUBCHEM_CONFORMER_ID>  (1) 
00003E7D00000001

>  <PUBCHEM_MMFF94_ENERGY>  (1) 
37.3559

>  <PUBCHEM_FEATURE_SELFOVERLAP>  (1) 
25.38

>  <PUBCHEM_SHAPE_FINGERPRINT>  (1) 
10 15 14189575226494380143
10162869 55 15267051555034856437
10299344 5 14490189410831484169
106641 1 18131067139018980002
10666366 153 17676480641048030669
11135609 127 11675179089576877406
11315181 36 8935001478747832111
11638347 137 18342459227163618699
13533116 47 18273215288018573424
13668630 136 16587745321908204106
13685833 64 18334859415655941589
13885169 127 18334295337065378229
14026016 60 13840531914751731640
14202775 3 18041005086039737587
14216079 64 18259985955112138699
14251757 52 11887953250329371963
14251764 18 17775565342581240749
14251764 46 18410575088958059203
14428016 248 9511464442654055295
15183329 4 14562528466613262757
15188451 53 18334013869955727152
15461852 350 12251909218471409873
15475509 35 17969485049849354242
155225 1 11671776074775547346
15690457 1 18187081745663356635
15706992 2 14764343873283894042
1754908 1 18060424655765896363
1754911 235 8142085347877092851
1818759 1 17095529496241989603
20281389 69 13182744719146539731
20721686 124 9079118869773717608
20735858 18 17917993867246371039
21130991 4 16805875179676711314
21150785 3 11963391842907268393
21267235 1 18259704480066713548
21315763 28 18333452045737561045
21360442 33 9654760476580941740
21360442 67 8286203855383270865
21792934 111 18273492360765238377
221357 26 12251900395638406406
22224240 67 14979955865918230301
22956985 138 16518756332128488978
23523766 6 11238351873311257748
246663 6 17313106350187851483
28498 318 17675923192831728991
33532 11 18113615664366568363
5758199 1 12463575071967928021
59521099 67 15357703002857682894
59682541 35 18201996646911530666
59682541 52 12829482645259189272
6438161 24 17822009817534486043
68570916 9 17774153660583981205

>  <PUBCHEM_SHAPE_MULTIPOLES>  (1) 
412.43
30.96
1.69
1.01
70.91
0.34
-0.09
-16.07
-10.46
-2.81
-0.3
-1.31
0.05
0.78

>  <PUBCHEM_SHAPE_SELFOVERLAP>  (1) 
801.789

>  <PUBCHEM_SHAPE_VOLUME>  (1) 
250

>  <PUBCHEM_COORDINATE_TYPE>  (1) 
2
5
10

$$$$
