15994
     RDKit          3D

 18 19  0  0  0  0  0  0  0  0999 V2000
   -3.5678   -0.9052    1.7759 Cl  0  0  0  0  0  0  0  0  0  0  0  0
    3.5675    0.9052    1.7759 Cl  0  0  0  0  0  0  0  0  0  0  0  0
   -3.4171   -0.1128   -0.1029 S   0  0  0  0  0  0  0  0  0  0  0  0
    3.4172    0.1128   -0.1028 S   0  0  0  0  0  0  0  0  0  0  0  0
   -3.4802   -1.2280   -1.0231 O   0  0  0  0  0  0  0  0  0  0  0  0
   -4.3670    0.9790   -0.1344 O   0  0  0  0  0  0  0  0  0  0  0  0
    3.4803    1.2281   -1.0230 O   0  0  0  0  0  0  0  0  0  0  0  0
    4.3672   -0.9788   -0.1342 O   0  0  0  0  0  0  0  0  0  0  0  0
   -0.6422   -0.2973   -0.1030 C   0  0  0  0  0  0  0  0  0  0  0  0
    0.6422    0.2972   -0.1030 C   0  0  0  0  0  0  0  0  0  0  0  0
   -1.7800    0.5259   -0.1030 C   0  0  0  0  0  0  0  0  0  0  0  0
    1.7801   -0.5260   -0.1032 C   0  0  0  0  0  0  0  0  0  0  0  0
   -0.7508   -1.6975   -0.1030 C   0  0  0  0  0  0  0  0  0  0  0  0
    0.7508    1.6974   -0.1031 C   0  0  0  0  0  0  0  0  0  0  0  0
   -1.6535    1.9153   -0.1032 C   0  0  0  0  0  0  0  0  0  0  0  0
    1.6534   -1.9154   -0.1034 C   0  0  0  0  0  0  0  0  0  0  0  0
    0.3904   -2.5001   -0.1033 C   0  0  0  0  0  0  0  0  0  0  0  0
   -0.3905    2.4999   -0.1033 C   0  0  0  0  0  0  0  0  0  0  0  0
  1  3  1  0
  2  4  1  0
  3  5  2  0
  3  6  2  0
  3 11  1  0
  4  7  2  0
  4  8  2  0
  4 12  1  0
  9 10  1  0
  9 11  2  0
  9 13  1  0
 10 12  1  0
 10 14  2  0
 11 15  1  0
 12 16  2  0
 13 17  2  0
 14 18  1  0
 15 18  2  0
 16 17  1  0
M  END
>  <PUBCHEM_COMPOUND_CID>  (1) 
15994

>  <PUBCHEM_CONFORMER_RMSD>  (1) 
0.6

>  <PUBCHEM_CONFORMER_DIVERSEORDER>  (1) 
1
4
3
2

>  <PUBCHEM_MMFF94_PARTIAL_CHARGES>  (1) 
22
1 -0.19
11 -0.01
12 -0.01
13 -0.15
14 -0.15
15 -0.15
16 -0.15
17 -0.15
18 -0.15
19 0.15
2 -0.19
20 0.15
21 0.15
22 0.15
23 0.15
24 0.15
3 1.49
4 1.49
5 -0.65
6 -0.65
7 -0.65
8 -0.65

>  <PUBCHEM_EFFECTIVE_ROTOR_COUNT>  (1) 
2

>  <PUBCHEM_PHARMACOPHORE_FEATURES>  (1) 
2
6 9 10 11 14 15 18 rings
6 9 10 12 13 16 17 rings

>  <PUBCHEM_HEAVY_ATOM_COUNT>  (1) 
18

>  <PUBCHEM_ATOM_DEF_STEREO_COUNT>  (1) 
0

>  <PUBCHEM_ATOM_UDEF_STEREO_COUNT>  (1) 
0

>  <PUBCHEM_BOND_DEF_STEREO_COUNT>  (1) 
0

>  <PUBCHEM_BOND_UDEF_STEREO_COUNT>  (1) 
0

>  <PUBCHEM_ISOTOPIC_ATOM_COUNT>  (1) 
0

>  <PUBCHEM_COMPONENT_COUNT>  (1) 
1

>  <PUBCHEM_CACTVS_TAUTO_COUNT>  (1) 
1

>  <PUBCHEM_CONFORMER_ID>  (1) 
00003E7A00000001

>  <PUBCHEM_MMFF94_ENERGY>  (1) 
41.747

>  <PUBCHEM_FEATURE_SELFOVERLAP>  (1) 
10.175

>  <PUBCHEM_SHAPE_FINGERPRINT>  (1) 
10062212 137 18408036321268514679
10967382 1 18410575058898569527
11132069 177 18341887510965252658
12403259 226 18270390595460328920
12596599 1 17417820568656521751
13140716 1 18122625221415403936
13583140 156 16661193883774948568
13862211 1 18410569595779790455
14178342 30 18121772834043803096
14223421 5 18195529198930774494
14614273 12 18043246843085020149
14787075 74 17678754550583573059
14790565 3 18338253655196150565
15196674 1 18410856576819658932
15209294 21 17846510200992732753
15309172 13 18342464741938433147
15375358 24 18261109639232276161
15536298 74 18201716249813303422
15848702 151 17274553031042007726
16945 1 18410855507372802094
18186145 218 17703795837890790370
193761 8 17834395622652772501
19591789 44 18337959011780599383
200 152 18273490161530381989
20028762 73 17912932970059962023
20261772 1 18341058505115822283
20510252 161 18271803502067029160
21267235 1 18338526256833088135
21501502 16 18050567343909640616
21524375 3 18342457006871352446
2334 1 17690279730202286527
23388829 49 18411418401781961445
23402539 116 18341886390290194046
23463225 33 18335137557880377358
23493267 7 17749104461561499177
23557571 272 17968940760457994069
23558518 356 17903359208414232713
23559900 14 18189616034340327858
2748010 2 18266458702586315039
3286 77 17632573838652026176
34934 24 18339354163735471237
350125 39 18267021666062993384
4072396 5 18189597406945501761
43471831 8 18263358093013730570
5104073 3 18410855455833195418
537710 114 18408890650150865612
7364860 26 17983574109457540270
81228 2 18045227042099585913
9709674 26 18192717739283060271

>  <PUBCHEM_SHAPE_MULTIPOLES>  (1) 
358.39
7.17
2.43
1.1
0
0
-0.59
0
-1.03
0
0.2
0
0
0.43

>  <PUBCHEM_SHAPE_SELFOVERLAP>  (1) 
734.929

>  <PUBCHEM_SHAPE_VOLUME>  (1) 
208.8

>  <PUBCHEM_COORDINATE_TYPE>  (1) 
2
5
10

$$$$
