15991
     RDKit          3D

 27 30  0  0  1  0  0  0  0  0999 V2000
    0.9735    0.0939    2.0580 Cl  0  0  0  0  0  0  0  0  0  0  0  0
   -0.6167   -0.8389    0.0374 O   0  0  0  0  0  0  0  0  0  0  0  0
    0.1862    0.5303   -1.6240 O   0  0  0  0  0  0  0  0  0  0  0  0
   -4.4085    0.1733    1.1440 N   0  0  0  0  0  0  0  0  0  0  0  0
   -4.3545   -1.1526    0.5094 C   0  0  0  0  0  0  0  0  0  0  0  0
   -3.8133    1.1846    0.2571 C   0  0  0  0  0  0  0  0  0  0  0  0
   -2.8740   -1.5692    0.4142 C   0  0  0  0  0  0  0  0  0  0  0  0
   -2.3051    0.8871    0.1490 C   0  0  0  0  0  0  0  0  0  0  0  0
   -1.9762   -0.5443   -0.2797 C   0  0  0  0  0  0  0  0  0  0  0  0
   -5.0933   -1.1964   -0.8415 C   0  0  0  0  0  0  0  0  0  0  0  0
   -4.5220    1.2706   -1.1078 C   0  0  0  0  0  0  0  0  0  0  0  0
   -4.7214   -0.0727   -1.8059 C   0  0  0  0  0  0  0  0  0  0  0  0
   -5.7411    0.5331    1.6173 C   0  0  0  0  0  0  0  0  0  0  0  0
    0.3232   -0.0240   -0.5391 C   0  0  0  0  0  0  0  0  0  0  0  0
    1.5992    0.0326    0.3263 C   0  0  0  0  0  0  0  0  0  0  0  0
    2.3822    1.3453    0.1383 C   0  0  0  0  0  0  0  0  0  0  0  0
    2.4268   -1.2544    0.1391 C   0  0  0  0  0  0  0  0  0  0  0  0
    3.7157    1.2668   -0.1720 C   0  0  0  0  0  0  0  0  0  0  0  0
    3.0484   -1.7897    1.2372 C   0  0  0  0  0  0  0  0  0  0  0  0
    1.7087    2.5302    0.2896 C   0  0  0  0  0  0  0  0  0  0  0  0
    2.5001   -1.8004   -1.1158 C   0  0  0  0  0  0  0  0  0  0  0  0
    4.4249    2.4556   -0.3426 C   0  0  0  0  0  0  0  0  0  0  0  0
    3.7972   -2.9544    1.0680 C   0  0  0  0  0  0  0  0  0  0  0  0
    2.4180    3.7191    0.1188 C   0  0  0  0  0  0  0  0  0  0  0  0
    3.2487   -2.9652   -1.2849 C   0  0  0  0  0  0  0  0  0  0  0  0
    3.7762    3.6817   -0.1973 C   0  0  0  0  0  0  0  0  0  0  0  0
    3.8972   -3.5421   -0.1929 C   0  0  0  0  0  0  0  0  0  0  0  0
  1 15  1  0
  2  9  1  0
  2 14  1  0
  3 14  2  0
  4  5  1  0
  4  6  1  0
  4 13  1  0
  5  7  1  0
  5 10  1  0
  6  8  1  0
  6 11  1  0
  7  9  1  0
  8  9  1  0
 10 12  1  0
 11 12  1  0
 14 15  1  0
 15 16  1  0
 15 17  1  0
 16 18  2  0
 16 20  1  0
 17 19  2  0
 17 21  1  0
 18 22  1  0
 19 23  1  0
 20 24  2  0
 21 25  2  0
 22 26  2  0
 23 27  2  0
 24 26  1  0
 25 27  1  0
M  END
>  <PUBCHEM_COMPOUND_CID>  (1) 
15991

>  <PUBCHEM_CONFORMER_RMSD>  (1) 
0.8

>  <PUBCHEM_CONFORMER_DIVERSEORDER>  (1) 
1
119
90
66
99
34
69
46
117
40
28
80
110
111
47
95
103
102
22
68
72
38
113
101
109
133
128
120
89
8
74
87
130
71
116
52
13
58
122
11
6
91
53
114
64
67
75
21
7
106
56
48
81
32
26
105
107
123
16
98
61
23
84
24
104
96
17
93
44
37
100
2
51
85
76
94
82
86
42
54
126
41
78
27
108
132
49
88
50
55
112
15
59
45
92
83
20
124
118
73
57
134
29
60
131
39
70
36
97
135
129
9
19
115
4
5
79
65
136
25
77
127
125
63
62
121
3
14
31
35
10
33
18
30
12
43

>  <PUBCHEM_MMFF94_PARTIAL_CHARGES>  (1) 
32
1 -0.29
13 0.27
14 0.66
15 0.64
16 -0.14
17 -0.14
18 -0.15
19 -0.15
2 -0.43
20 -0.15
21 -0.15
22 -0.15
23 -0.15
24 -0.15
25 -0.15
26 -0.15
27 -0.15
3 -0.57
4 -0.81
44 0.15
45 0.15
46 0.15
47 0.15
48 0.15
49 0.15
5 0.27
50 0.15
51 0.15
52 0.15
53 0.15
6 0.27
9 0.28

>  <PUBCHEM_EFFECTIVE_ROTOR_COUNT>  (1) 
6.4

>  <PUBCHEM_PHARMACOPHORE_FEATURES>  (1) 
6
1 3 acceptor
1 4 cation
6 16 18 20 22 24 26 rings
6 17 19 21 23 25 27 rings
6 4 5 6 10 11 12 rings
6 4 5 6 7 8 9 rings

>  <PUBCHEM_HEAVY_ATOM_COUNT>  (1) 
27

>  <PUBCHEM_ATOM_DEF_STEREO_COUNT>  (1) 
0

>  <PUBCHEM_ATOM_UDEF_STEREO_COUNT>  (1) 
2

>  <PUBCHEM_BOND_DEF_STEREO_COUNT>  (1) 
0

>  <PUBCHEM_BOND_UDEF_STEREO_COUNT>  (1) 
0

>  <PUBCHEM_ISOTOPIC_ATOM_COUNT>  (1) 
0

>  <PUBCHEM_COMPONENT_COUNT>  (1) 
1

>  <PUBCHEM_CACTVS_TAUTO_COUNT>  (1) 
1

>  <PUBCHEM_CONFORMER_ID>  (1) 
00003E7700000001

>  <PUBCHEM_MMFF94_ENERGY>  (1) 
86.12

>  <PUBCHEM_FEATURE_SELFOVERLAP>  (1) 
31.924

>  <PUBCHEM_SHAPE_FINGERPRINT>  (1) 
10369192 42 17824831272294597556
1100329 8 17906454329230551352
11370993 144 18335144168246794825
11405975 8 18340207393390771139
11421498 54 17775017820467014336
12107183 9 18053954948378901513
12293681 160 17558285477461887064
12403259 415 17967814917076562477
12422481 6 18190714554231696224
12616971 3 18271526403972871963
12633257 1 18270404867494228683
12730499 353 18264215870738281346
12788726 201 17684941202488057954
13009979 54 17773324435010353576
13224815 77 18343584062345424215
13533116 47 18411695513552116007
13583140 156 18337952415179876735
13631057 29 17910390929203754855
13757389 114 17324379879147017420
13878862 14 18337091398960606621
13955234 65 18410013256123494194
14739800 52 17632004351389557808
14790565 3 18048320234718175444
15131766 46 18198633314422033041
15163728 17 17901126405473032700
15250474 111 18130216164317171151
15664445 248 18197227962262107078
15927050 60 18123470755671230326
16992752 21 17977108960398059398
17349148 13 17775284915856326487
17492 89 18412543223953258311
17818456 19 17416414155956426073
17844677 252 18336546015327856277
1813 80 18127971902239427910
20645477 70 18410289211693092007
20832881 197 18043250128445007130
21033648 29 17385719197703483621
21421861 104 18410860940997146216
22182313 1 17531232959831603567
23559900 14 18339070510814852019
24771293 8 18201428161415496106
268830 7 18413395332726926369
312423 11 18202283602498710123
3411729 13 18335703879678577120
38695281 34 18270400637215244830
4058900 60 18190473842768511652
460360 51 18262244300355977141
474 4 18117558659087477076
5104073 3 18336277790604848931
57724786 102 18342185440536966793
59755656 215 18260544554675211052
6086070 43 17973135384849710711
633830 44 18335133151618478091
6442390 28 18048882098086470956
8272917 22 18341058492473208024
90127 26 17967530139153923901
9709674 26 18408604781770913507
9841814 1 18260823749040112026
9981440 41 18049436247298306784

>  <PUBCHEM_SHAPE_MULTIPOLES>  (1) 
540.8
11.83
4.1
1.45
14.14
0.89
-0.14
-0.39
0.11
-8.5
0.32
0.87
-0.36
-0.25

>  <PUBCHEM_SHAPE_SELFOVERLAP>  (1) 
1160.516

>  <PUBCHEM_SHAPE_VOLUME>  (1) 
297.3

>  <PUBCHEM_COORDINATE_TYPE>  (1) 
2
5
10

$$$$
