15999
     RDKit          3D

 22 22  0  0  0  0  0  0  0  0999 V2000
    3.8992    2.6617    0.9666 Cl  0  0  0  0  0  0  0  0  0  0  0  0
    5.9534   -2.9934   -0.6986 Cl  0  0  0  0  0  0  0  0  0  0  0  0
    7.6349   -1.1598    1.3706 Cl  0  0  0  0  0  0  0  0  0  0  0  0
   -5.6706   -0.3878    0.1100 O   0  0  0  0  0  0  0  0  0  0  0  0
   -0.9289    0.1264   -0.4371 O   0  0  0  0  0  0  0  0  0  0  0  0
    2.5548    0.7462   -0.9259 O   0  0  0  0  0  0  0  0  0  0  0  0
    0.2278    2.0827   -0.8419 O   0  0  0  0  0  0  0  0  0  0  0  0
   -8.0034   -0.8486    0.3912 C   0  0  0  0  0  0  0  0  0  0  0  0
   -6.9524    0.2243    0.1441 C   0  0  0  0  0  0  0  0  0  0  0  0
   -3.2903   -0.1291   -0.1476 C   0  0  0  0  0  0  0  0  0  0  0  0
   -9.4114   -0.2612    0.4242 C   0  0  0  0  0  0  0  0  0  0  0  0
   -4.6422    0.5664   -0.1185 C   0  0  0  0  0  0  0  0  0  0  0  0
   -2.1539    0.8457   -0.4092 C   0  0  0  0  0  0  0  0  0  0  0  0
  -10.4612   -1.3418    0.6281 C   0  0  0  0  0  0  0  0  0  0  0  0
    0.1974    0.8725   -0.6648 C   0  0  0  0  0  0  0  0  0  0  0  0
    1.4027   -0.0304   -0.6650 C   0  0  0  0  0  0  0  0  0  0  0  0
    3.7402    0.3080   -0.3865 C   0  0  0  0  0  0  0  0  0  0  0  0
    4.4650    1.0985    0.5054 C   0  0  0  0  0  0  0  0  0  0  0  0
    4.2159   -0.9529   -0.7463 C   0  0  0  0  0  0  0  0  0  0  0  0
    5.4163   -1.4232   -0.2141 C   0  0  0  0  0  0  0  0  0  0  0  0
    5.6655    0.6283    1.0374 C   0  0  0  0  0  0  0  0  0  0  0  0
    6.1412   -0.6327    0.6777 C   0  0  0  0  0  0  0  0  0  0  0  0
  1 18  1  0
  2 20  1  0
  3 22  1  0
  4  9  1  0
  4 12  1  0
  5 13  1  0
  5 15  1  0
  6 16  1  0
  6 17  1  0
  7 15  2  0
  8  9  1  0
  8 11  1  0
 10 12  1  0
 10 13  1  0
 11 14  1  0
 15 16  1  0
 17 18  2  0
 17 19  1  0
 18 21  1  0
 19 20  2  0
 20 22  1  0
 21 22  2  0
M  END
>  <PUBCHEM_COMPOUND_CID>  (1) 
15999

>  <PUBCHEM_CONFORMER_RMSD>  (1) 
1

>  <PUBCHEM_CONFORMER_DIVERSEORDER>  (1) 
1
76
98
35
63
75
10
33
71
22
65
61
41
87
97
50
121
30
46
82
80
78
111
105
84
127
5
90
128
26
92
38
112
79
64
69
95
52
77
21
118
27
88
23
91
114
124
117
96
60
66
39
36
7
28
73
107
70
106
119
37
99
53
44
68
86
20
62
126
51
8
40
55
94
24
12
83
31
15
56
115
72
122
32
19
48
11
93
89
74
47
43
18
42
34
123
14
104
16
116
13
100
67
101
120
49
25
6
58
3
29
54
45
4
17
103
102
59
85
9
81
2
125
110
108
113
57
109

>  <PUBCHEM_MMFF94_PARTIAL_CHARGES>  (1) 
20
1 -0.18
12 0.28
13 0.28
15 0.66
16 0.34
17 0.08
18 0.18
19 -0.15
2 -0.18
20 0.18
21 -0.15
22 0.18
3 -0.18
4 -0.56
40 0.15
41 0.15
5 -0.43
6 -0.36
7 -0.57
9 0.28

>  <PUBCHEM_EFFECTIVE_ROTOR_COUNT>  (1) 
11

>  <PUBCHEM_PHARMACOPHORE_FEATURES>  (1) 
5
1 14 hydrophobe
1 4 acceptor
1 6 acceptor
1 7 acceptor
6 17 18 19 20 21 22 rings

>  <PUBCHEM_HEAVY_ATOM_COUNT>  (1) 
22

>  <PUBCHEM_ATOM_DEF_STEREO_COUNT>  (1) 
0

>  <PUBCHEM_ATOM_UDEF_STEREO_COUNT>  (1) 
0

>  <PUBCHEM_BOND_DEF_STEREO_COUNT>  (1) 
0

>  <PUBCHEM_BOND_UDEF_STEREO_COUNT>  (1) 
0

>  <PUBCHEM_ISOTOPIC_ATOM_COUNT>  (1) 
0

>  <PUBCHEM_COMPONENT_COUNT>  (1) 
1

>  <PUBCHEM_CACTVS_TAUTO_COUNT>  (1) 
1

>  <PUBCHEM_CONFORMER_ID>  (1) 
00003E7F00000001

>  <PUBCHEM_MMFF94_ENERGY>  (1) 
39.7436

>  <PUBCHEM_FEATURE_SELFOVERLAP>  (1) 
25.38

>  <PUBCHEM_SHAPE_FINGERPRINT>  (1) 
10 15 15841550773602651215
10162869 55 15482379916597897637
10299344 5 13767923516827576233
106641 1 18272649060762551272
10666366 153 17458617913936398269
11315181 36 8574713508616175727
11607047 141 14764351493357867174
11607047 191 13913748570555778124
11638347 137 18342741810611072347
13533116 47 18343019991305435128
13668630 136 16081088168894922344
13685833 64 18334014990884045709
13885169 127 18260547798003279957
14202775 3 17968384550706875251
14216079 64 18187365415589791075
14251757 52 10015581688481617623
14251764 18 17561083627474974341
14251764 46 18410575093263569523
15152005 1 14638203351075787240
15183329 4 14273453665689668141
15419008 91 17968639610864452245
15475509 35 17822835496008375970
155225 1 12391509793268494210
15690457 1 18408040724153617227
15706992 2 15123508150821048698
1754908 1 17917716838294496107
1754911 235 8502373318077256051
1818759 1 17240772787690616947
20281389 69 13039193580751978327
20397935 70 18202568346030085526
20554085 129 14333407831238983391
20721686 124 8862948286493369816
21150785 3 12107787411012238729
21315763 28 18343023277282633161
21360442 33 9510645284062419052
21362267 313 17417263027053558155
21792934 111 18343297059846692977
22224240 67 14908180850800823069
22956985 138 16228834915619745962
246663 6 17168145642112844251
28498 318 17458060465767530343
33532 11 18335139774279168063
5758199 1 12823300092256900397
6025842 7 10737280230755504880
6438161 24 17530963592114557043
68570916 9 17916018152721305701

>  <PUBCHEM_SHAPE_MULTIPOLES>  (1) 
434.88
31.23
2.12
1.04
83.12
0.16
0.13
16.84
11.68
-4.44
-0.01
-1.25
-0.02
1.41

>  <PUBCHEM_SHAPE_SELFOVERLAP>  (1) 
841.21

>  <PUBCHEM_SHAPE_VOLUME>  (1) 
265.7

>  <PUBCHEM_COORDINATE_TYPE>  (1) 
2
5
10

$$$$
