16
     RDKit          3D

 16 16  0  0  0  0  0  0  0  0999 V2000
    2.5311    1.0877    1.1888 O   0  0  0  0  0  0  0  0  0  0  0  0
   -2.5344   -1.0904   -1.1875 O   0  0  0  0  0  0  0  0  0  0  0  0
    1.4397    1.8125   -0.7268 N   0  0  0  0  0  0  0  0  0  0  0  0
   -1.4386   -1.8109    0.7273 N   0  0  0  0  0  0  0  0  0  0  0  0
    1.6138   -2.0226    0.5491 C   0  0  0  0  0  0  0  0  0  0  0  0
   -1.6122    2.0219   -0.5499 C   0  0  0  0  0  0  0  0  0  0  0  0
    0.5953   -2.4612   -0.5089 C   0  0  0  0  0  0  0  0  0  0  0  0
   -0.5951    2.4616    0.5088 C   0  0  0  0  0  0  0  0  0  0  0  0
    2.9261   -1.4908   -0.0423 C   0  0  0  0  0  0  0  0  0  0  0  0
   -2.9253    1.4909    0.0406 C   0  0  0  0  0  0  0  0  0  0  0  0
    0.7241    2.9202   -0.1166 C   0  0  0  0  0  0  0  0  0  0  0  0
   -0.7236   -2.9193    0.1176 C   0  0  0  0  0  0  0  0  0  0  0  0
    2.7837   -0.1927   -0.8406 C   0  0  0  0  0  0  0  0  0  0  0  0
   -2.7838    0.1935    0.8401 C   0  0  0  0  0  0  0  0  0  0  0  0
    2.2499    0.9541   -0.0002 C   0  0  0  0  0  0  0  0  0  0  0  0
   -2.2507   -0.9543    0.0006 C   0  0  0  0  0  0  0  0  0  0  0  0
  1 15  2  0
  2 16  2  0
  3 11  1  0
  3 15  1  0
  4 12  1  0
  4 16  1  0
  5  7  1  0
  5  9  1  0
  6  8  1  0
  6 10  1  0
  7 12  1  0
  8 11  1  0
  9 13  1  0
 10 14  1  0
 13 15  1  0
 14 16  1  0
M  END
>  <PUBCHEM_COMPOUND_CID>  (1) 
16

>  <PUBCHEM_CONFORMER_RMSD>  (1) 
0.6

>  <PUBCHEM_CONFORMER_DIVERSEORDER>  (1) 
1
23
4
3
9
25
24
13
12
17
18
19
8
5
6
15
21
22
7
10
16
14
20
2
11

>  <PUBCHEM_MMFF94_PARTIAL_CHARGES>  (1) 
12
1 -0.57
11 0.3
12 0.3
13 0.06
14 0.06
15 0.57
16 0.57
2 -0.57
3 -0.73
37 0.37
38 0.37
4 -0.73

>  <PUBCHEM_EFFECTIVE_ROTOR_COUNT>  (1) 
2.4

>  <PUBCHEM_PHARMACOPHORE_FEATURES>  (1) 
4
1 1 acceptor
1 2 acceptor
1 3 donor
1 4 donor

>  <PUBCHEM_HEAVY_ATOM_COUNT>  (1) 
16

>  <PUBCHEM_ATOM_DEF_STEREO_COUNT>  (1) 
0

>  <PUBCHEM_ATOM_UDEF_STEREO_COUNT>  (1) 
0

>  <PUBCHEM_BOND_DEF_STEREO_COUNT>  (1) 
0

>  <PUBCHEM_BOND_UDEF_STEREO_COUNT>  (1) 
0

>  <PUBCHEM_ISOTOPIC_ATOM_COUNT>  (1) 
0

>  <PUBCHEM_COMPONENT_COUNT>  (1) 
1

>  <PUBCHEM_CACTVS_TAUTO_COUNT>  (1) 
3

>  <PUBCHEM_CONFORMER_ID>  (1) 
0000001000000001

>  <PUBCHEM_MMFF94_ENERGY>  (1) 
8.9488

>  <PUBCHEM_FEATURE_SELFOVERLAP>  (1) 
20.298

>  <PUBCHEM_SHAPE_FINGERPRINT>  (1) 
104564 63 18122917421347692390
10759866 29 17751378200500921830
10967382 1 18410015428954848385
13140716 1 18338795594057822440
13618510 140 18120941598556868639
1420 336 18410576167016124954
14251705 54 18335992999248662449
14251711 518 18339075982529463959
14251745 187 18124871266395100442
20905425 154 17619913850841766159
21249577 28 18192715544491228046
2334 1 18410572885639823363
2748010 2 18410292480120538408
2897 32 18337394829160670340
44154327 71 18336279937381640405
59345606 82 18339361859736577939
66348 1 18337955575869656786

>  <PUBCHEM_SHAPE_MULTIPOLES>  (1) 
307.57
4.79
3.92
0.95
0
0
0
0
0
0
0
0
0
0

>  <PUBCHEM_SHAPE_SELFOVERLAP>  (1) 
591.639

>  <PUBCHEM_SHAPE_VOLUME>  (1) 
184.3

>  <PUBCHEM_COORDINATE_TYPE>  (1) 
2
5
10

$$$$
