16006
     RDKit          3D

 16 17  0  0  0  0  0  0  0  0999 V2000
   -0.9996   -0.4408   -0.8066 O   0  0  0  0  0  0  0  0  0  0  0  0
   -4.2225   -0.2179    0.7227 O   0  0  0  0  0  0  0  0  0  0  0  0
   -3.1539    1.1695   -0.7812 O   0  0  0  0  0  0  0  0  0  0  0  0
    1.2536    0.1623   -0.1791 C   0  0  0  0  0  0  0  0  0  0  0  0
    2.5454   -0.2603    0.2155 C   0  0  0  0  0  0  0  0  0  0  0  0
    0.2609   -0.8008   -0.4230 C   0  0  0  0  0  0  0  0  0  0  0  0
    2.8063   -1.6332    0.3549 C   0  0  0  0  0  0  0  0  0  0  0  0
    0.9928    1.5352   -0.3182 C   0  0  0  0  0  0  0  0  0  0  0  0
    3.5381    0.7026    0.4596 C   0  0  0  0  0  0  0  0  0  0  0  0
    0.5378   -2.1609   -0.2801 C   0  0  0  0  0  0  0  0  0  0  0  0
    1.8080   -2.5763    0.1084 C   0  0  0  0  0  0  0  0  0  0  0  0
    1.9912    2.4780   -0.0718 C   0  0  0  0  0  0  0  0  0  0  0  0
    3.2616    2.0625    0.3163 C   0  0  0  0  0  0  0  0  0  0  0  0
   -2.0702   -0.8348    0.0468 C   0  0  0  0  0  0  0  0  0  0  0  0
   -3.1851    0.1703   -0.0757 C   0  0  0  0  0  0  0  0  0  0  0  0
   -5.3645    0.6447    0.7115 C   0  0  0  0  0  0  0  0  0  0  0  0
  1  6  1  0
  1 14  1  0
  2 15  1  0
  2 16  1  0
  3 15  2  0
  4  5  1  0
  4  6  2  0
  4  8  1  0
  5  7  2  0
  5  9  1  0
  6 10  1  0
  7 11  1  0
  8 12  2  0
  9 13  2  0
 10 11  2  0
 12 13  1  0
 14 15  1  0
M  END
>  <PUBCHEM_COMPOUND_CID>  (1) 
16006

>  <PUBCHEM_CONFORMER_RMSD>  (1) 
0.6

>  <PUBCHEM_CONFORMER_DIVERSEORDER>  (1) 
1
50
48
25
14
43
49
44
17
39
35
13
42
9
41
28
5
29
12
47
31
51
30
20
46
10
45
21
33
38
8
2
32
18
11
22
6
40
27
26
4
7
36
3
24
15
37
34
19
16
23

>  <PUBCHEM_MMFF94_PARTIAL_CHARGES>  (1) 
21
1 -0.36
10 -0.15
11 -0.15
12 -0.15
13 -0.15
14 0.34
15 0.66
16 0.28
17 0.15
18 0.15
19 0.15
2 -0.43
20 0.15
21 0.15
22 0.15
23 0.15
3 -0.57
6 0.08
7 -0.15
8 -0.15
9 -0.15

>  <PUBCHEM_EFFECTIVE_ROTOR_COUNT>  (1) 
4

>  <PUBCHEM_PHARMACOPHORE_FEATURES>  (1) 
4
1 1 acceptor
1 3 acceptor
6 4 5 6 7 10 11 rings
6 4 5 8 9 12 13 rings

>  <PUBCHEM_HEAVY_ATOM_COUNT>  (1) 
16

>  <PUBCHEM_ATOM_DEF_STEREO_COUNT>  (1) 
0

>  <PUBCHEM_ATOM_UDEF_STEREO_COUNT>  (1) 
0

>  <PUBCHEM_BOND_DEF_STEREO_COUNT>  (1) 
0

>  <PUBCHEM_BOND_UDEF_STEREO_COUNT>  (1) 
0

>  <PUBCHEM_ISOTOPIC_ATOM_COUNT>  (1) 
0

>  <PUBCHEM_COMPONENT_COUNT>  (1) 
1

>  <PUBCHEM_CACTVS_TAUTO_COUNT>  (1) 
1

>  <PUBCHEM_CONFORMER_ID>  (1) 
00003E8600000001

>  <PUBCHEM_MMFF94_ENERGY>  (1) 
48.3766

>  <PUBCHEM_FEATURE_SELFOVERLAP>  (1) 
20.331

>  <PUBCHEM_SHAPE_FINGERPRINT>  (1) 
10382601 240 18260536858104164784
10465860 228 18413673517115031874
10493431 412 18194398025252972456
10608611 8 18334852780121379957
10967382 1 18410569591748151500
10980938 120 18410568504989556838
11471102 20 18410568470429319502
12251169 10 18407759248564801543
12346645 6 18412544310252306358
12390115 104 17907312287945277440
12633257 1 18040988566286365067
12644460 14 18335423452262462898
13140716 1 18265606766264765090
14790565 3 18264215875572306252
15219456 202 18261386715946230565
15442244 35 18196371416226734265
15501101 241 18187363203449395534
15775835 57 18202003286756987465
15906896 17 17696468855813151902
16945 1 18264751299158448230
18186145 218 18343582962316844822
19049666 15 17897154724491083845
19784866 9 18342175583048829080
20157964 124 18411696557497876157
20559304 39 18411705344019859724
20645477 70 18338785729003454679
20681677 76 18261665987931746621
21041028 32 18195802969079021412
21065199 12 18333455331234217441
21503847 285 18129675101157731139
21524375 3 18127125501091193718
21665062 11 18410295804488860456
22182313 1 18122884462237921086
22854114 111 18411701002003024309
23558518 356 17903352955274230494
25 1 18339078293548566052
2748010 2 17978767053537444118
2838139 119 15337689773660028856
293599 30 18265336278142023252
3060560 45 18059862722975945326
474 4 18411701027751813745
49207404 50 18189910870975952195
5104073 3 18408327675092156043
633830 44 18200315544998396956
7364860 26 18341333314350599886
7832392 63 18270958063492628830
81228 2 17188685347663079002
8272917 22 18341337716707843951

>  <PUBCHEM_SHAPE_MULTIPOLES>  (1) 
311.66
7.93
2.6
0.78
12.37
0.24
0
-2.9
2.21
-2.69
-0.03
0.26
-0.03
-0.01

>  <PUBCHEM_SHAPE_SELFOVERLAP>  (1) 
668.284

>  <PUBCHEM_SHAPE_VOLUME>  (1) 
173

>  <PUBCHEM_COORDINATE_TYPE>  (1) 
2
5
10

$$$$
