16009
     RDKit          3D

 13 12  0  0  0  0  0  0  0  0999 V2000
    2.0993   -0.6613   -0.0004 O   0  0  0  0  0  0  0  0  0  0  0  0
    0.8987    0.1666   -0.0009 O   0  0  0  0  0  0  0  0  0  0  0  0
   -0.1275   -1.9071   -0.0007 O   0  0  0  0  0  0  0  0  0  0  0  0
   -4.9259   -0.4230    0.0032 O   0  0  0  0  0  0  0  0  0  0  0  0
   -3.8426    1.5758   -0.0012 O   0  0  0  0  0  0  0  0  0  0  0  0
    3.1867    0.2528    0.0007 C   0  0  0  0  0  0  0  0  0  0  0  0
    3.0921    1.1197    1.2554 C   0  0  0  0  0  0  0  0  0  0  0  0
    4.4759   -0.5659    0.0092 C   0  0  0  0  0  0  0  0  0  0  0  0
    3.1029    1.1099   -1.2614 C   0  0  0  0  0  0  0  0  0  0  0  0
   -0.1632   -0.6868   -0.0018 C   0  0  0  0  0  0  0  0  0  0  0  0
   -1.3939    0.1349   -0.0025 C   0  0  0  0  0  0  0  0  0  0  0  0
   -2.5875   -0.4701   -0.0001 C   0  0  0  0  0  0  0  0  0  0  0  0
   -3.8151    0.3544    0.0006 C   0  0  0  0  0  0  0  0  0  0  0  0
  1  2  1  0
  1  6  1  0
  2 10  1  0
  3 10  2  0
  4 13  1  0
  5 13  2  0
  6  7  1  0
  6  8  1  0
  6  9  1  0
 10 11  1  0
 11 12  2  0
 12 13  1  0
M  END
>  <PUBCHEM_COMPOUND_CID>  (1) 
16009

>  <PUBCHEM_CONFORMER_RMSD>  (1) 
0.6

>  <PUBCHEM_CONFORMER_DIVERSEORDER>  (1) 
1
14
10
3
16
4
15
6
13
8
9
5
11
7
12
2

>  <PUBCHEM_MMFF94_PARTIAL_CHARGES>  (1) 
13
1 -0.28
10 0.71
11 -0.14
12 -0.14
13 0.71
2 -0.15
23 0.15
24 0.15
25 0.5
3 -0.57
4 -0.65
5 -0.57
6 0.28

>  <PUBCHEM_EFFECTIVE_ROTOR_COUNT>  (1) 
5

>  <PUBCHEM_PHARMACOPHORE_FEATURES>  (1) 
5
1 3 acceptor
1 4 acceptor
1 5 acceptor
3 4 5 13 anion
4 6 7 8 9 hydrophobe

>  <PUBCHEM_HEAVY_ATOM_COUNT>  (1) 
13

>  <PUBCHEM_ATOM_DEF_STEREO_COUNT>  (1) 
0

>  <PUBCHEM_ATOM_UDEF_STEREO_COUNT>  (1) 
0

>  <PUBCHEM_BOND_DEF_STEREO_COUNT>  (1) 
0

>  <PUBCHEM_BOND_UDEF_STEREO_COUNT>  (1) 
1

>  <PUBCHEM_ISOTOPIC_ATOM_COUNT>  (1) 
0

>  <PUBCHEM_COMPONENT_COUNT>  (1) 
1

>  <PUBCHEM_CACTVS_TAUTO_COUNT>  (1) 
1

>  <PUBCHEM_CONFORMER_ID>  (1) 
00003E8900000001

>  <PUBCHEM_MMFF94_ENERGY>  (1) 
25.5882

>  <PUBCHEM_FEATURE_SELFOVERLAP>  (1) 
25.429

>  <PUBCHEM_SHAPE_FINGERPRINT>  (1) 
11287383 113 16558746862414287127
11543360 7 15697988682719848477
13081056 2 18272368685229078513
14252887 29 10809344412703052236
14325111 11 18410855468850127591
18186145 218 17704078407878459169
20233049 118 18413387623018277264
20279233 1 16558756736581037174
20645477 70 16343715317677842542
20871998 22 10665217134188724258
21119208 17 16271928211705282956
212847 35 18411983559459472528
21524375 3 18410855447365007951
22485316 2 10447928356299307261
23048698 100 16877663478378539804
23402539 116 17988915661219343588
23402655 69 17775849008086289312
366044 4 18410855468766095418
4990 188 17775008981065408262
522135 26 17458344135293239530
6430166 295 18410290289829635760

>  <PUBCHEM_SHAPE_MULTIPOLES>  (1) 
238.19
9.56
1.31
0.85
4.82
0.05
0
-1.68
0.01
0.02
0
-0.86
-0.3
0

>  <PUBCHEM_SHAPE_SELFOVERLAP>  (1) 
460.511

>  <PUBCHEM_SHAPE_VOLUME>  (1) 
145.5

>  <PUBCHEM_COORDINATE_TYPE>  (1) 
2
5
10

$$$$
