16001
     RDKit          3D

 16 16  0  0  0  0  0  0  0  0999 V2000
   -1.6046   -2.5841    0.4711 Cl  0  0  0  0  0  0  0  0  0  0  0  0
   -5.7085    0.8755    0.9194 Cl  0  0  0  0  0  0  0  0  0  0  0  0
    3.0626    0.5366    0.0484 O   0  0  0  0  0  0  0  0  0  0  0  0
   -0.2664   -0.3000   -0.9522 O   0  0  0  0  0  0  0  0  0  0  0  0
    2.1682   -1.4295   -0.7661 O   0  0  0  0  0  0  0  0  0  0  0  0
    5.3504    0.9365    0.6608 C   0  0  0  0  0  0  0  0  0  0  0  0
    4.3522   -0.0791    0.1263 C   0  0  0  0  0  0  0  0  0  0  0  0
    6.7499    0.3562    0.7571 C   0  0  0  0  0  0  0  0  0  0  0  0
    0.7755    0.5280   -0.4404 C   0  0  0  0  0  0  0  0  0  0  0  0
   -1.5308   -0.0484   -0.5090 C   0  0  0  0  0  0  0  0  0  0  0  0
    2.0578   -0.2616   -0.4184 C   0  0  0  0  0  0  0  0  0  0  0  0
   -2.2675   -1.0209    0.1670 C   0  0  0  0  0  0  0  0  0  0  0  0
   -2.0862    1.2095   -0.7437 C   0  0  0  0  0  0  0  0  0  0  0  0
   -3.5595   -0.7356    0.6084 C   0  0  0  0  0  0  0  0  0  0  0  0
   -3.3783    1.4947   -0.3024 C   0  0  0  0  0  0  0  0  0  0  0  0
   -4.1149    0.5222    0.3737 C   0  0  0  0  0  0  0  0  0  0  0  0
  1 12  1  0
  2 16  1  0
  3  7  1  0
  3 11  1  0
  4  9  1  0
  4 10  1  0
  5 11  2  0
  6  7  1  0
  6  8  1  0
  9 11  1  0
 10 12  2  0
 10 13  1  0
 12 14  1  0
 13 15  2  0
 14 16  2  0
 15 16  1  0
M  END
>  <PUBCHEM_COMPOUND_CID>  (1) 
16001

>  <PUBCHEM_CONFORMER_RMSD>  (1) 
0.8

>  <PUBCHEM_CONFORMER_DIVERSEORDER>  (1) 
1
37
80
73
95
101
117
65
18
8
6
59
58
9
107
125
31
85
113
46
145
56
33
2
69
84
116
120
100
144
81
36
25
133
153
102
12
147
136
109
64
15
86
34
112
61
48
62
57
104
14
115
140
128
39
79
67
53
138
4
134
141
123
55
30
137
151
20
68
10
135
77
11
88
146
49
38
91
118
41
131
92
149
82
126
130
71
19
60
111
83
70
66
96
148
121
142
28
108
42
150
114
22
26
16
43
103
23
122
54
24
50
27
78
132
75
13
87
44
63
35
119
139
32
45
127
51
98
47
106
93
94
74
99
97
3
40
52
90
29
110
21
152
143
76
17
72
129
5
105
124
7
89

>  <PUBCHEM_MMFF94_PARTIAL_CHARGES>  (1) 
17
1 -0.18
10 0.08
11 0.66
12 0.18
13 -0.15
14 -0.15
15 -0.15
16 0.18
2 -0.18
26 0.15
27 0.15
28 0.15
3 -0.43
4 -0.36
5 -0.57
7 0.28
9 0.34

>  <PUBCHEM_EFFECTIVE_ROTOR_COUNT>  (1) 
6

>  <PUBCHEM_PHARMACOPHORE_FEATURES>  (1) 
4
1 4 acceptor
1 5 acceptor
1 8 hydrophobe
6 10 12 13 14 15 16 rings

>  <PUBCHEM_HEAVY_ATOM_COUNT>  (1) 
16

>  <PUBCHEM_ATOM_DEF_STEREO_COUNT>  (1) 
0

>  <PUBCHEM_ATOM_UDEF_STEREO_COUNT>  (1) 
0

>  <PUBCHEM_BOND_DEF_STEREO_COUNT>  (1) 
0

>  <PUBCHEM_BOND_UDEF_STEREO_COUNT>  (1) 
0

>  <PUBCHEM_ISOTOPIC_ATOM_COUNT>  (1) 
0

>  <PUBCHEM_COMPONENT_COUNT>  (1) 
1

>  <PUBCHEM_CACTVS_TAUTO_COUNT>  (1) 
1

>  <PUBCHEM_CONFORMER_ID>  (1) 
00003E8100000001

>  <PUBCHEM_MMFF94_ENERGY>  (1) 
31.5188

>  <PUBCHEM_FEATURE_SELFOVERLAP>  (1) 
20.304

>  <PUBCHEM_SHAPE_FINGERPRINT>  (1) 
12251169 10 18260268563812256365
12507560 40 18338800000731236836
12616971 3 17095522937647541382
12633257 1 18335140924818486088
13214271 11 18342171193766156902
13288520 33 11169912784243460737
13551218 46 17603860053458616850
13668630 136 13551187771764920992
1420 363 14345793842969366880
14251718 22 9871748005768873160
14341114 176 18335139774500415360
15048467 5 17704354355222009273
15375358 24 18343023285213139414
15501527 16 18413670205684963520
15716309 27 16949995933871393536
17834076 25 17418373593030361576
1813 80 15864074222285468662
187816 3 11887671763095279693
19050596 39 18041282161882291668
19784866 170 18412543202467144756
19784866 240 13623534545380961393
20374829 77 8790881865684763461
20510252 161 18339928091615180321
20645477 56 18408884031569170213
20645477 70 17131840811756520406
20735858 18 18261120669161914899
20871999 31 11023831635244470883
21618674 25 18202005404118128111
21637258 2 14851893603400280681
221357 26 8862942766858221194
23402539 116 18410288134357407807
23559900 14 18266478537362993246
3286 77 13407085807334174127
351380 3 15864064374025386776
3545911 37 18413110546108851724
449060 50 18342176652690838428
5104073 3 18190186680953966809
5924683 9 18268986660244842727

>  <PUBCHEM_SHAPE_MULTIPOLES>  (1) 
315.4
13.59
1.7
0.93
17.89
1.03
-0.03
-4.81
-5.73
-1.45
-0.08
-0.09
-0.05
0.49

>  <PUBCHEM_SHAPE_SELFOVERLAP>  (1) 
621.108

>  <PUBCHEM_SHAPE_VOLUME>  (1) 
190.1

>  <PUBCHEM_COORDINATE_TYPE>  (1) 
2
5
10

$$$$
