1601
     RDKit          3D

 30 32  0  0  1  0  0  0  0  0999 V2000
    3.5629   -1.8786   -0.9372 P   0  0  0  0  0  0  0  0  0  0  0  0
    4.4455    0.9295   -0.9589 P   0  0  0  0  0  0  0  0  0  0  0  0
    2.8774    2.7999    0.6983 P   0  0  0  0  0  0  0  0  0  0  0  0
   -0.2551   -1.2368    0.2544 O   0  0  0  0  0  0  0  0  0  0  0  0
   -2.1101   -0.6366    3.2613 O   0  0  0  0  0  0  0  0  0  0  0  0
    2.2047   -2.5067   -0.3215 O   0  0  0  0  0  0  0  0  0  0  0  0
    3.4127   -0.2862   -0.7102 O   0  0  0  0  0  0  0  0  0  0  0  0
    4.7140   -2.2961    0.1200 O   0  0  0  0  0  0  0  0  0  0  0  0
    3.8527   -2.2728   -2.3564 O   0  0  0  0  0  0  0  0  0  0  0  0
    3.5549    2.2438   -0.6595 O   0  0  0  0  0  0  0  0  0  0  0  0
    4.6307    0.9580   -2.5645 O   0  0  0  0  0  0  0  0  0  0  0  0
    5.7248    0.8512   -0.1789 O   0  0  0  0  0  0  0  0  0  0  0  0
    2.0182    4.0693    0.1850 O   0  0  0  0  0  0  0  0  0  0  0  0
    1.7490    1.6946    1.0397 O   0  0  0  0  0  0  0  0  0  0  0  0
    3.8457    3.0917    1.8065 O   0  0  0  0  0  0  0  0  0  0  0  0
   -2.5351   -0.6363    0.0383 N   0  0  0  0  0  0  0  0  0  0  0  0
   -3.9390   -1.3055   -1.5606 N   0  0  0  0  0  0  0  0  0  0  0  0
   -3.6392    1.4146    0.7284 N   0  0  0  0  0  0  0  0  0  0  0  0
   -5.6745    1.8040   -0.5609 N   0  0  0  0  0  0  0  0  0  0  0  0
   -6.4191    0.3040   -2.2705 N   0  0  0  0  0  0  0  0  0  0  0  0
   -1.5994   -1.4396    2.2147 C   0  0  0  0  0  0  0  0  0  0  0  0
   -1.3793   -0.6437    0.9328 C   0  0  0  0  0  0  0  0  0  0  0  0
   -0.2039   -1.9419    2.5096 C   0  0  0  0  0  0  0  0  0  0  0  0
    0.3140   -2.2405    1.1144 C   0  0  0  0  0  0  0  0  0  0  0  0
    1.8261   -2.2058    1.0109 C   0  0  0  0  0  0  0  0  0  0  0  0
   -3.5230    0.3062   -0.0184 C   0  0  0  0  0  0  0  0  0  0  0  0
   -2.8297   -1.5832   -0.9078 C   0  0  0  0  0  0  0  0  0  0  0  0
   -4.3828   -0.1273   -1.0148 C   0  0  0  0  0  0  0  0  0  0  0  0
   -5.4935    0.6684   -1.2775 C   0  0  0  0  0  0  0  0  0  0  0  0
   -4.7497    2.1021    0.3835 C   0  0  0  0  0  0  0  0  0  0  0  0
  1  6  1  0
  1  7  1  0
  1  8  1  0
  1  9  2  0
  2  7  1  0
  2 10  1  0
  2 11  1  0
  2 12  2  0
  3 10  1  0
  3 13  1  0
  3 14  1  0
  3 15  2  0
  4 22  1  0
  4 24  1  0
  5 21  1  0
  6 25  1  0
 16 22  1  0
 16 26  1  0
 16 27  1  0
 17 27  2  0
 17 28  1  0
 18 26  1  0
 18 30  2  0
 19 29  2  0
 19 30  1  0
 20 29  1  0
 21 22  1  0
 21 23  1  0
 23 24  1  0
 24 25  1  0
 26 28  2  0
 28 29  1  0
M  END
>  <PUBCHEM_COMPOUND_CID>  (1) 
1601

>  <PUBCHEM_CONFORMER_RMSD>  (1) 
1.4

>  <PUBCHEM_CONFORMER_DIVERSEORDER>  (1) 
1
271
262
34
315
252
236
28
234
9
84
48
125
279
70
197
288
42
179
228
130
37
152
122
301
57
17
33
145
249
229
210
168
282
238
35
309
86
199
295
176
292
76
94
46
11
65
272
157
108
59
297
240
44
68
290
93
8
299
237
305
161
284
251
224
77
107
74
259
78
215
10
82
231
120
27
106
308
23
148
253
313
53
193
31
248
264
325
134
124
114
217
280
126
208
222
173
304
296
22
25
99
69
39
83
144
55
189
174
281
12
159
51
214
87
196
166
246
184
204
258
263
273
163
143
247
103
260
6
115
52
135
151
266
73
160
32
268
16
147
321
101
110
47
226
250
155
19
219
142
275
265
322
58
255
232
13
128
146
100
316
123
198
267
20
102
131
127
91
156
88
18
117
269
5
327
186
244
274
175
177
203
149
45
285
89
4
225
92
257
171
188
98
310
317
21
307
85
270
235
121
220
221
141
72
140
182
66
278
216
207
192
116
54
112
306
30
202
150
293
303
242
104
185
3
113
139
24
26
261
323
218
190
36
170
162
254
96
223
153
67
154
233
49
129
56
326
165
181
80
211
212
43
50
312
200
29
38
289
136
227
256
132
194
169
133
158
314
75
320
111
276
291
138
95
60
302
245
213
201
183
14
205
239
209
7
41
109
277
230
206
105
71
172
283
191
63
90
298
241
15
294
178
167
118
318
300
324
311
287
61
64
2
137
164
286
97
187
195
119
81
62
319
40
243
79
180

>  <PUBCHEM_MMFF94_PARTIAL_CHARGES>  (1) 
38
1 1.51
10 -0.54
11 -0.77
12 -0.7
13 -0.77
14 -0.77
15 -0.7
16 0.05
17 -0.57
18 -0.57
19 -0.62
2 1.51
20 -0.9
21 0.28
22 0.54
24 0.28
25 0.28
26 0.11
27 0.04
28 0.23
29 0.41
3 1.51
30 0.47
38 0.4
39 0.15
4 -0.56
40 0.15
41 0.4
42 0.4
43 0.5
44 0.5
45 0.5
46 0.5
5 -0.68
6 -0.55
7 -0.54
8 -0.77
9 -0.7

>  <PUBCHEM_EFFECTIVE_ROTOR_COUNT>  (1) 
9

>  <PUBCHEM_PHARMACOPHORE_FEATURES>  (1) 
19
1 11 acceptor
1 12 acceptor
1 13 acceptor
1 14 acceptor
1 15 acceptor
1 20 cation
1 20 donor
1 4 acceptor
1 5 acceptor
1 5 donor
1 8 acceptor
1 9 acceptor
3 16 17 27 cation
3 16 18 26 cation
3 18 19 30 cation
4 3 13 14 15 anion
5 16 17 26 27 28 rings
5 4 21 22 23 24 rings
6 18 19 26 28 29 30 rings

>  <PUBCHEM_HEAVY_ATOM_COUNT>  (1) 
30

>  <PUBCHEM_ATOM_DEF_STEREO_COUNT>  (1) 
0

>  <PUBCHEM_ATOM_UDEF_STEREO_COUNT>  (1) 
3

>  <PUBCHEM_BOND_DEF_STEREO_COUNT>  (1) 
0

>  <PUBCHEM_BOND_UDEF_STEREO_COUNT>  (1) 
0

>  <PUBCHEM_ISOTOPIC_ATOM_COUNT>  (1) 
0

>  <PUBCHEM_COMPONENT_COUNT>  (1) 
1

>  <PUBCHEM_CACTVS_TAUTO_COUNT>  (1) 
3

>  <PUBCHEM_CONFORMER_ID>  (1) 
0000064100000001

>  <PUBCHEM_MMFF94_ENERGY>  (1) 
-14.9401

>  <PUBCHEM_FEATURE_SELFOVERLAP>  (1) 
97.091

>  <PUBCHEM_SHAPE_FINGERPRINT>  (1) 
10074138 170 15358280284879099955
13402501 40 18333731334227771516
14251764 38 18190181376379270164
14347329 18 17895485842313951196
14429115 67 10879982567447383595
14681490 219 18339922610656895837
14848178 96 18041001743103525996
15183329 4 18131913741445088989
19301679 30 11527943491864516279
21033648 29 18041000704080110416
21860390 5 18341900671346538958
21968339 14 18411133598554080870
22122407 14 17681841705232511497
22393880 68 18130226072547604054
23559900 14 17559936767816815523
238 59 18270969071657442602
2838139 119 18116433644281078911
354706 35 17691960887887802884
4371632 12 18127972120839681513
437795 51 18188220831995296841
474 4 18115006568535416185
513532 50 17703781540546224136
574716 61 18060424624677316099
9981440 41 17978497960213171417

>  <PUBCHEM_SHAPE_MULTIPOLES>  (1) 
533.6
13.52
3.76
2.39
6.29
2.13
-0.54
6.47
8.4
-4.35
-1.17
0.26
-0.82
1.41

>  <PUBCHEM_SHAPE_SELFOVERLAP>  (1) 
1083.431

>  <PUBCHEM_SHAPE_VOLUME>  (1) 
312.6

>  <PUBCHEM_COORDINATE_TYPE>  (1) 
2
5
10

$$$$
