16016
     RDKit          3D

 27 29  0  0  0  0  0  0  0  0999 V2000
    0.0628    1.9227    0.3329 S   0  0  0  0  0  0  0  0  0  0  0  0
   -5.1588    0.8469   -0.0012 S   0  0  0  0  0  0  0  0  0  0  0  0
    0.8103    1.9626   -1.1161 O   0  0  0  0  0  0  0  0  0  0  0  0
    1.9347   -3.0993    0.0444 O   0  0  0  0  0  0  0  0  0  0  0  0
   -5.4851    1.1144   -1.5808 O   0  0  0  0  0  0  0  0  0  0  0  0
   -0.6468    3.1787    0.4894 O   0  0  0  0  0  0  0  0  0  0  0  0
    1.0132    1.4657    1.3287 O   0  0  0  0  0  0  0  0  0  0  0  0
   -6.0407   -0.2240    0.4391 O   0  0  0  0  0  0  0  0  0  0  0  0
   -5.1522    2.1310    0.6822 O   0  0  0  0  0  0  0  0  0  0  0  0
    1.5680   -0.4209    0.2288 N   0  0  0  0  0  0  0  0  0  0  0  0
    2.5319   -0.9638   -0.3569 N   0  0  0  0  0  0  0  0  0  0  0  0
   -0.8854   -0.7270    0.0870 C   0  0  0  0  0  0  0  0  0  0  0  0
   -1.9691   -1.6291   -0.0341 C   0  0  0  0  0  0  0  0  0  0  0  0
   -1.1449    0.6502    0.1784 C   0  0  0  0  0  0  0  0  0  0  0  0
   -3.5202    0.2442    0.0326 C   0  0  0  0  0  0  0  0  0  0  0  0
   -3.2806   -1.1272   -0.0599 C   0  0  0  0  0  0  0  0  0  0  0  0
   -2.4543    1.1313    0.1512 C   0  0  0  0  0  0  0  0  0  0  0  0
    0.4261   -1.2286    0.1125 C   0  0  0  0  0  0  0  0  0  0  0  0
   -1.7093   -3.0062   -0.1258 C   0  0  0  0  0  0  0  0  0  0  0  0
    0.6658   -2.5999    0.0206 C   0  0  0  0  0  0  0  0  0  0  0  0
   -0.4000   -3.4870   -0.0985 C   0  0  0  0  0  0  0  0  0  0  0  0
    3.6756   -0.1552   -0.2410 C   0  0  0  0  0  0  0  0  0  0  0  0
    4.5370   -0.3285    0.8380 C   0  0  0  0  0  0  0  0  0  0  0  0
    3.9379    0.8128   -1.2055 C   0  0  0  0  0  0  0  0  0  0  0  0
    5.6717    0.4744    0.9537 C   0  0  0  0  0  0  0  0  0  0  0  0
    5.0727    1.6156   -1.0897 C   0  0  0  0  0  0  0  0  0  0  0  0
    5.9396    1.4463   -0.0100 C   0  0  0  0  0  0  0  0  0  0  0  0
  1  3  1  0
  1  6  2  0
  1  7  2  0
  1 14  1  0
  2  5  1  0
  2  8  2  0
  2  9  2  0
  2 15  1  0
  4 20  1  0
 10 11  2  0
 10 18  1  0
 11 22  1  0
 12 13  1  0
 12 14  2  0
 12 18  1  0
 13 16  2  0
 13 19  1  0
 14 17  1  0
 15 16  1  0
 15 17  2  0
 18 20  2  0
 19 21  2  0
 20 21  1  0
 22 23  2  0
 22 24  1  0
 23 25  1  0
 24 26  2  0
 25 27  2  0
 26 27  1  0
M  END
>  <PUBCHEM_COMPOUND_CID>  (1) 
16016

>  <PUBCHEM_CONFORMER_RMSD>  (1) 
0.8

>  <PUBCHEM_CONFORMER_DIVERSEORDER>  (1) 
1
2

>  <PUBCHEM_MMFF94_PARTIAL_CHARGES>  (1) 
37
1 1.49
10 -0.18
11 -0.18
14 -0.01
15 -0.01
16 -0.15
17 -0.15
18 0.18
19 -0.15
2 1.49
20 0.08
21 -0.15
22 0.18
23 -0.15
24 -0.15
25 -0.15
26 -0.15
27 -0.15
28 0.15
29 0.15
3 -0.68
30 0.15
31 0.15
32 0.5
33 0.45
34 0.5
35 0.15
36 0.15
37 0.15
38 0.15
39 0.15
4 -0.53
5 -0.68
6 -0.65
7 -0.65
8 -0.65
9 -0.65

>  <PUBCHEM_EFFECTIVE_ROTOR_COUNT>  (1) 
4

>  <PUBCHEM_PHARMACOPHORE_FEATURES>  (1) 
12
1 3 acceptor
1 4 donor
1 5 acceptor
1 6 acceptor
1 7 acceptor
1 8 acceptor
1 9 acceptor
4 1 3 6 7 anion
4 2 5 8 9 anion
6 12 13 14 15 16 17 rings
6 12 13 18 19 20 21 rings
6 22 23 24 25 26 27 rings

>  <PUBCHEM_HEAVY_ATOM_COUNT>  (1) 
27

>  <PUBCHEM_ATOM_DEF_STEREO_COUNT>  (1) 
0

>  <PUBCHEM_ATOM_UDEF_STEREO_COUNT>  (1) 
0

>  <PUBCHEM_BOND_DEF_STEREO_COUNT>  (1) 
0

>  <PUBCHEM_BOND_UDEF_STEREO_COUNT>  (1) 
0

>  <PUBCHEM_ISOTOPIC_ATOM_COUNT>  (1) 
0

>  <PUBCHEM_COMPONENT_COUNT>  (1) 
1

>  <PUBCHEM_CACTVS_TAUTO_COUNT>  (1) 
3

>  <PUBCHEM_CONFORMER_ID>  (1) 
00003E9000000001

>  <PUBCHEM_MMFF94_ENERGY>  (1) 
89.3823

>  <PUBCHEM_FEATURE_SELFOVERLAP>  (1) 
61.038

>  <PUBCHEM_SHAPE_FINGERPRINT>  (1) 
10090160 65 18334573499614468535
10411042 1 17546728613078138911
10493431 412 18411421708927858731
10498660 4 18340495542746607654
10675989 125 17613428944937758125
10906281 52 18270697427370210021
10967382 1 18339643343683375571
1100329 8 18339643467910230233
11112241 14 16484984003330562464
11135609 187 18338508656779957989
11646440 116 18202013152523739841
12035758 1 18340491165826871507
12107183 9 18262225631056411994
12236239 1 17967529112683088098
12403814 3 17603862329706426188
12422481 6 17313382284081939637
12788726 201 18059297569614571944
12838862 33 18339343232516558905
13140716 1 18267303316500295873
13617811 41 18410284809821547169
14117953 113 18334857174147399900
14767858 380 18342161294431198279
14787075 74 18131347488303205273
14790565 3 18411987935857424769
14840074 17 17967543380216695508
15081414 286 18342186522552038605
15196674 1 18410857659236248630
15297060 5 18271815644255741914
15324884 4 17486789738392399286
1601671 61 18410291397968167001
173720 79 18187638098884264250
18222031 100 8502368919160267510
18608769 82 18338519763623505307
19591789 44 18194688296533604507
20511986 3 18042392681822860340
20642791 178 18116163335887178093
20715895 44 18261669290276657956
21421861 104 17968927601390550602
22149856 69 18266765531778471395
22182313 1 18197243445091766319
22311459 1 18123188167286094935
23402539 116 18342450487221539774
23557571 272 18128551529819534366
23558518 356 17832429696062944865
23559900 14 18272381884438799110
23569917 315 18411139116954897751
3004659 81 18335422349109936674
3178227 256 18337405928279154473
335352 9 18410576167860300046
34797466 226 16271926051379197512
34934 24 18413103957170486463
350125 39 18337677546169192363
3680242 22 18335422327128614008
4340502 62 18411703162202944702
5104073 3 18190187793614500555
5486654 2 18412548725642379364
59755656 215 18342182112312053846
7226269 152 18272375295099591408
9981440 41 18335140933773061362

>  <PUBCHEM_SHAPE_MULTIPOLES>  (1) 
512.3
12.27
3.4
0.96
2.08
2.03
0.13
-7.05
0.49
-1.03
0
0.4
-0.4
-0.43

>  <PUBCHEM_SHAPE_SELFOVERLAP>  (1) 
1112.143

>  <PUBCHEM_SHAPE_VOLUME>  (1) 
279.7

>  <PUBCHEM_COORDINATE_TYPE>  (1) 
2
5
10

$$$$
