16014
     RDKit          3D

 31 33  0  0  0  0  0  0  0  0999 V2000
   -7.6335    1.4215   -0.0213 S   0  0  0  0  0  0  0  0  0  0  0  0
    7.7202    1.3194   -0.2721 S   0  0  0  0  0  0  0  0  0  0  0  0
   -0.7961    1.2866   -0.2995 O   0  0  0  0  0  0  0  0  0  0  0  0
   -7.9631    1.7105    1.5537 O   0  0  0  0  0  0  0  0  0  0  0  0
   -0.5855   -4.3788    0.0399 O   0  0  0  0  0  0  0  0  0  0  0  0
   -7.6340    2.7100   -0.6985 O   0  0  0  0  0  0  0  0  0  0  0  0
   -8.5009    0.3452   -0.4741 O   0  0  0  0  0  0  0  0  0  0  0  0
    1.5247   -3.5351   -0.2157 O   0  0  0  0  0  0  0  0  0  0  0  0
    8.3753    1.5614    1.2063 O   0  0  0  0  0  0  0  0  0  0  0  0
    8.4165    0.1865   -0.8643 O   0  0  0  0  0  0  0  0  0  0  0  0
    7.6708    2.6009   -0.9590 O   0  0  0  0  0  0  0  0  0  0  0  0
   -2.0886   -0.6829   -0.0915 N   0  0  0  0  0  0  0  0  0  0  0  0
   -1.7198   -2.0068    0.0070 N   0  0  0  0  0  0  0  0  0  0  0  0
    1.5142   -0.5178   -0.3316 N   0  0  0  0  0  0  0  0  0  0  0  0
    2.1065   -0.3093    0.7514 N   0  0  0  0  0  0  0  0  0  0  0  0
   -3.3794   -0.1932   -0.0748 C   0  0  0  0  0  0  0  0  0  0  0  0
   -0.9185    0.0759   -0.2114 C   0  0  0  0  0  0  0  0  0  0  0  0
   -0.3605   -2.0927   -0.0880 C   0  0  0  0  0  0  0  0  0  0  0  0
    0.2209   -0.8965   -0.2027 C   0  0  0  0  0  0  0  0  0  0  0  0
   -3.6196    1.1840   -0.1838 C   0  0  0  0  0  0  0  0  0  0  0  0
   -4.4704   -1.0649    0.0509 C   0  0  0  0  0  0  0  0  0  0  0  0
   -6.0010    0.8021   -0.0420 C   0  0  0  0  0  0  0  0  0  0  0  0
   -4.9236    1.6791   -0.1676 C   0  0  0  0  0  0  0  0  0  0  0  0
   -5.7744   -0.5698    0.0672 C   0  0  0  0  0  0  0  0  0  0  0  0
    0.3169   -3.3807   -0.0984 C   0  0  0  0  0  0  0  0  0  0  0  0
    6.0691    0.8399    0.0306 C   0  0  0  0  0  0  0  0  0  0  0  0
    3.4363    0.0765    0.5084 C   0  0  0  0  0  0  0  0  0  0  0  0
    5.0669    1.8064    0.1140 C   0  0  0  0  0  0  0  0  0  0  0  0
    5.7517   -0.5092    0.1869 C   0  0  0  0  0  0  0  0  0  0  0  0
    3.7471    1.4237    0.3535 C   0  0  0  0  0  0  0  0  0  0  0  0
    4.4319   -0.8919    0.4265 C   0  0  0  0  0  0  0  0  0  0  0  0
  1  4  1  0
  1  6  2  0
  1  7  2  0
  1 22  1  0
  2  9  1  0
  2 10  2  0
  2 11  2  0
  2 26  1  0
  3 17  2  0
  5 25  1  0
  8 25  2  0
 12 13  1  0
 12 16  1  0
 12 17  1  0
 13 18  1  0
 14 15  2  0
 14 19  1  0
 15 27  1  0
 16 20  2  0
 16 21  1  0
 17 19  1  0
 18 19  2  0
 18 25  1  0
 20 23  1  0
 21 24  2  0
 22 23  2  0
 22 24  1  0
 26 28  2  0
 26 29  1  0
 27 30  2  0
 27 31  1  0
 28 30  1  0
 29 31  2  0
M  END
>  <PUBCHEM_COMPOUND_CID>  (1) 
16014

>  <PUBCHEM_CONFORMER_RMSD>  (1) 
0.8

>  <PUBCHEM_CONFORMER_DIVERSEORDER>  (1) 
1
4
2
3
5

>  <PUBCHEM_MMFF94_PARTIAL_CHARGES>  (1) 
43
1 1.49
10 -0.65
11 -0.65
12 -0.16
13 -0.52
14 -0.17
15 -0.18
16 0.12
17 0.62
18 0.11
19 0.19
2 1.49
20 -0.15
21 -0.15
22 -0.01
23 -0.15
24 -0.15
25 0.71
26 -0.01
27 0.18
28 -0.15
29 -0.15
3 -0.57
30 -0.15
31 -0.15
32 0.4
33 0.15
34 0.15
35 0.15
36 0.15
37 0.15
38 0.15
39 0.15
4 -0.68
40 0.15
41 0.5
42 0.5
43 0.5
5 -0.65
6 -0.65
7 -0.65
8 -0.57
9 -0.68

>  <PUBCHEM_EFFECTIVE_ROTOR_COUNT>  (1) 
6

>  <PUBCHEM_PHARMACOPHORE_FEATURES>  (1) 
16
1 10 acceptor
1 11 acceptor
1 13 donor
1 3 acceptor
1 4 acceptor
1 5 acceptor
1 6 acceptor
1 7 acceptor
1 8 acceptor
1 9 acceptor
3 5 8 25 anion
4 1 4 6 7 anion
4 2 9 10 11 anion
5 12 13 17 18 19 rings
6 16 20 21 22 23 24 rings
6 26 27 28 29 30 31 rings

>  <PUBCHEM_HEAVY_ATOM_COUNT>  (1) 
31

>  <PUBCHEM_ATOM_DEF_STEREO_COUNT>  (1) 
0

>  <PUBCHEM_ATOM_UDEF_STEREO_COUNT>  (1) 
0

>  <PUBCHEM_BOND_DEF_STEREO_COUNT>  (1) 
0

>  <PUBCHEM_BOND_UDEF_STEREO_COUNT>  (1) 
0

>  <PUBCHEM_ISOTOPIC_ATOM_COUNT>  (1) 
0

>  <PUBCHEM_COMPONENT_COUNT>  (1) 
1

>  <PUBCHEM_CACTVS_TAUTO_COUNT>  (1) 
3

>  <PUBCHEM_CONFORMER_ID>  (1) 
00003E8E00000001

>  <PUBCHEM_MMFF94_ENERGY>  (1) 
82.3043

>  <PUBCHEM_FEATURE_SELFOVERLAP>  (1) 
81.373

>  <PUBCHEM_SHAPE_FINGERPRINT>  (1) 
10 15 18113620067266962497
10165383 225 18411417310649245528
10190206 1 18198889487260918199
10369192 42 18408038503064474469
10411042 1 17617940678880597119
106641 1 17676492757177347505
10670039 82 14907904843322547411
10835480 77 18263921043842877797
10904742 90 18407757045431195194
11315181 36 18413389839912355489
12516196 113 8718827591382248695
12539765 74 18130795542282674982
12838862 33 18338781377885429528
13150687 139 17989492900571527758
13248334 5 18122343475930996434
13685833 64 8790880796490860999
14117953 113 18409171013132220620
14933364 13 18408886234887483864
15183329 4 18060422413101650360
15461852 350 17989202681731965901
1577012 14 18410285917468772802
15890870 6 18410855464423142092
16989713 51 17559666438496932807
16992610 120 18335151912352041374
19611394 137 17824556385771007363
20554085 129 17988910177068801298
21033648 29 18341319097977293080
21585482 111 18265333911620954453
22224240 67 18333448734022201171
23559900 14 18129093606390139800
23576562 1 16987701567216015121
23729398 52 18051421669120536310
24771293 8 18335421245372388077
335352 9 18412544335990689204
3411729 13 18335136449742665010
3627633 1 17761492899469611175
3633792 109 18273220772829207506
3711267 37 18337121115175176036
4073 2 18259707800467375971
4169191 19 18411135793593507845
5104073 3 18118410545435423955
5265222 85 18196376034071042374
5470011 282 13326566393711148856
5758199 1 18341613707253780961
59755656 520 18336820983260795950
6327066 14 18410291427996242254
6371380 46 18271802471185168488
6669772 16 18060145318849781070
99344 41 18410009935696977709
9961470 85 18055625376719212488
9962374 69 10737587041723007273

>  <PUBCHEM_SHAPE_MULTIPOLES>  (1) 
572.92
26.26
3.31
0.8
3.56
3.45
-0.11
-24.11
0.13
-0.17
0.23
0.15
-0.27
-0.25

>  <PUBCHEM_SHAPE_SELFOVERLAP>  (1) 
1226.113

>  <PUBCHEM_SHAPE_VOLUME>  (1) 
317.5

>  <PUBCHEM_COORDINATE_TYPE>  (1) 
2
5
10

$$$$
