16023
     RDKit          3D

 19 20  0  0  0  0  0  0  0  0999 V2000
   -2.8779   -2.5171   -1.8790 Cl  0  0  0  0  0  0  0  0  0  0  0  0
    2.8760    2.5169   -1.8791 Cl  0  0  0  0  0  0  0  0  0  0  0  0
   -4.6111    2.0256    0.4361 Cl  0  0  0  0  0  0  0  0  0  0  0  0
    4.6093   -2.0257    0.4361 Cl  0  0  0  0  0  0  0  0  0  0  0  0
   -0.4744   -2.1070   -0.1428 O   0  0  0  0  0  0  0  0  0  0  0  0
    0.4725    2.1068   -0.1428 O   0  0  0  0  0  0  0  0  0  0  0  0
   -0.0010    0.0000    1.6920 C   0  0  0  0  0  0  0  0  0  0  0  0
   -1.2488   -0.0960    0.8771 C   0  0  0  0  0  0  0  0  0  0  0  0
    1.2646    0.0972    0.8655 C   0  0  0  0  0  0  0  0  0  0  0  0
   -1.4405   -1.1510   -0.0149 C   0  0  0  0  0  0  0  0  0  0  0  0
    1.4387    1.1509   -0.0150 C   0  0  0  0  0  0  0  0  0  0  0  0
   -2.2290    0.8864    1.0162 C   0  0  0  0  0  0  0  0  0  0  0  0
    2.2272   -0.8864    1.0162 C   0  0  0  0  0  0  0  0  0  0  0  0
   -2.6126   -1.2240   -0.7677 C   0  0  0  0  0  0  0  0  0  0  0  0
    2.6107    1.2238   -0.7677 C   0  0  0  0  0  0  0  0  0  0  0  0
   -3.4012    0.8137    0.2635 C   0  0  0  0  0  0  0  0  0  0  0  0
    3.3993   -0.8138    0.2634 C   0  0  0  0  0  0  0  0  0  0  0  0
   -3.5930   -0.2415   -0.6285 C   0  0  0  0  0  0  0  0  0  0  0  0
    3.5912    0.2413   -0.6286 C   0  0  0  0  0  0  0  0  0  0  0  0
  1 14  1  0
  2 15  1  0
  3 16  1  0
  4 17  1  0
  5 10  1  0
  6 11  1  0
  7  8  1  0
  7  9  1  0
  8 10  2  0
  8 12  1  0
  9 11  2  0
  9 13  1  0
 10 14  1  0
 11 15  1  0
 12 16  2  0
 13 17  2  0
 14 18  2  0
 15 19  2  0
 16 18  1  0
 17 19  1  0
M  END
>  <PUBCHEM_COMPOUND_CID>  (1) 
16023

>  <PUBCHEM_CONFORMER_RMSD>  (1) 
0.6

>  <PUBCHEM_CONFORMER_DIVERSEORDER>  (1) 
10
5
6
2
12
1
11
8
7
4
3
9

>  <PUBCHEM_MMFF94_PARTIAL_CHARGES>  (1) 
25
1 -0.18
10 0.08
11 0.08
12 -0.15
13 -0.15
14 0.18
15 0.18
16 0.18
17 0.18
18 -0.15
19 -0.15
2 -0.18
22 0.15
23 0.15
24 0.15
25 0.15
26 0.45
27 0.45
3 -0.18
4 -0.18
5 -0.53
6 -0.53
7 0.29
8 -0.14
9 -0.14

>  <PUBCHEM_EFFECTIVE_ROTOR_COUNT>  (1) 
2

>  <PUBCHEM_PHARMACOPHORE_FEATURES>  (1) 
4
1 5 donor
1 6 donor
6 8 10 12 14 16 18 rings
6 9 11 13 15 17 19 rings

>  <PUBCHEM_HEAVY_ATOM_COUNT>  (1) 
19

>  <PUBCHEM_ATOM_DEF_STEREO_COUNT>  (1) 
0

>  <PUBCHEM_ATOM_UDEF_STEREO_COUNT>  (1) 
0

>  <PUBCHEM_BOND_DEF_STEREO_COUNT>  (1) 
0

>  <PUBCHEM_BOND_UDEF_STEREO_COUNT>  (1) 
0

>  <PUBCHEM_ISOTOPIC_ATOM_COUNT>  (1) 
0

>  <PUBCHEM_COMPONENT_COUNT>  (1) 
1

>  <PUBCHEM_CACTVS_TAUTO_COUNT>  (1) 
5

>  <PUBCHEM_CONFORMER_ID>  (1) 
00003E970000000A

>  <PUBCHEM_MMFF94_ENERGY>  (1) 
44.9587

>  <PUBCHEM_FEATURE_SELFOVERLAP>  (1) 
20.297

>  <PUBCHEM_SHAPE_FINGERPRINT>  (1) 
10062212 137 18342168956146724331
10369192 42 16230593305305684860
10906281 52 17894925057419717908
11578080 2 18127666340859677776
12156800 1 12387798842718962612
12173636 292 18189060952761568795
12236239 1 18410856520985084378
12346177 29 17632849837466384671
12363563 72 16056602070677257218
12553582 1 17896028854923761002
12592029 89 18339373954955483403
12714826 92 17559965492341774431
12788726 201 18198640843114294816
13009979 54 18342740715093666858
13134695 92 17748820796673615942
13693222 15 11959739265026601954
13764800 53 13984926429745681511
14115302 16 18131069303228849194
14250199 8 18040716999783537428
15375358 24 15697994115568453106
15664445 248 16904386267178854797
16752209 62 18059282254051311607
16945 1 17978510059109351762
1813 80 18116435843573658566
18186145 218 16950282914352424106
18219364 16 16009304439368129381
18981168 100 15719944847325589134
19141452 34 18200306611566764450
19422 9 18334859445662690339
20279233 1 15770053917214276827
20600515 1 16988848267258589361
20626108 58 18200577194617299118
20645476 183 18409731772441180811
21486144 27 16950567726255083329
22393880 68 18129110081441945940
23402539 116 17631720565984152713
23557571 272 17416956404199135497
23559900 14 17561073692883342314
23598291 2 18408879672245956167
25 1 17530688714466076192
2748010 2 16609135560132395504
3082319 5 18338799021441711319
312423 11 18336264651762118231
474 4 17605278569619275748
53777708 50 18336269062387355263
559249 180 18270956826210153827
6049 1 15647051568610682205
633830 44 17749108889498656033
7164475 11 18199736115540375135
74978 22 18338517550754693306
7832392 63 18409167731386679225
81228 2 15553347837601381779
84936 182 18193843875724762808
90525 40 18342184366399412675
9971528 1 18334009468015000056
9981440 41 17615122621951191464

>  <PUBCHEM_SHAPE_MULTIPOLES>  (1) 
386.75
8.31
2.63
1.5
0.02
0
-0.38
0
-1.03
0
-1.28
0
0
-2.66

>  <PUBCHEM_SHAPE_SELFOVERLAP>  (1) 
801.85

>  <PUBCHEM_SHAPE_VOLUME>  (1) 
224.3

>  <PUBCHEM_COORDINATE_TYPE>  (1) 
2
5
10

$$$$
