1602
     RDKit          3D

 34 36  0  0  1  0  0  0  0  0999 V2000
   -3.5226   -0.9836    1.9878 P   0  0  0  0  0  0  0  0  0  0  0  0
   -4.0332    0.9532   -0.1663 P   0  0  0  0  0  0  0  0  0  0  0  0
    0.3994   -0.5343    0.1760 O   0  0  0  0  0  0  0  0  0  0  0  0
    0.6198   -4.0565   -0.4499 O   0  0  0  0  0  0  0  0  0  0  0  0
   -1.9536   -1.1402    1.6185 O   0  0  0  0  0  0  0  0  0  0  0  0
    2.6067    1.7726   -1.9474 O   0  0  0  0  0  0  0  0  0  0  0  0
   -4.2090   -0.4445    0.6279 O   0  0  0  0  0  0  0  0  0  0  0  0
    0.3697   -4.6311   -2.6733 O   0  0  0  0  0  0  0  0  0  0  0  0
   -4.0542   -2.5071    2.1036 O   0  0  0  0  0  0  0  0  0  0  0  0
    5.7297    2.1850    1.4031 O   0  0  0  0  0  0  0  0  0  0  0  0
   -3.7874   -0.1410    3.2017 O   0  0  0  0  0  0  0  0  0  0  0  0
   -2.4319    1.1479   -0.2035 O   0  0  0  0  0  0  0  0  0  0  0  0
   -4.4156    0.5499   -1.6858 O   0  0  0  0  0  0  0  0  0  0  0  0
   -4.8137    2.0986    0.4102 O   0  0  0  0  0  0  0  0  0  0  0  0
    2.5918    0.1856   -0.2349 N   0  0  0  0  0  0  0  0  0  0  0  0
    4.1594    1.9658   -0.2705 N   0  0  0  0  0  0  0  0  0  0  0  0
    0.4894   -2.6897   -0.7789 C   0  0  0  0  0  0  0  0  0  0  0  0
   -0.0490   -1.8827    0.3908 C   0  0  0  0  0  0  0  0  0  0  0  0
    1.8253   -2.0232   -1.0074 C   0  0  0  0  0  0  0  0  0  0  0  0
    1.4884   -0.5634   -0.7612 C   0  0  0  0  0  0  0  0  0  0  0  0
   -1.5630   -1.9101    0.4953 C   0  0  0  0  0  0  0  0  0  0  0  0
    3.1805   -0.2431    0.9487 C   0  0  0  0  0  0  0  0  0  0  0  0
    3.0788    1.3344   -0.8962 C   0  0  0  0  0  0  0  0  0  0  0  0
    4.2144    0.3635    1.5448 C   0  0  0  0  0  0  0  0  0  0  0  0
    0.5404   -4.9282   -1.4988 C   0  0  0  0  0  0  0  0  0  0  0  0
    4.7821    1.5813    0.9073 C   0  0  0  0  0  0  0  0  0  0  0  0
    4.8325   -0.1158    2.8188 C   0  0  0  0  0  0  0  0  0  0  0  0
    0.6954   -6.3338   -1.0025 C   0  0  0  0  0  0  0  0  0  0  0  0
   -1.7868    2.3118   -0.5199 C   0  0  0  0  0  0  0  0  0  0  0  0
   -2.3738    3.2167   -1.4043 C   0  0  0  0  0  0  0  0  0  0  0  0
   -0.5412    2.5936    0.0415 C   0  0  0  0  0  0  0  0  0  0  0  0
   -1.7155    4.4032   -1.7275 C   0  0  0  0  0  0  0  0  0  0  0  0
    0.1170    3.7802   -0.2816 C   0  0  0  0  0  0  0  0  0  0  0  0
   -0.4702    4.6850   -1.1661 C   0  0  0  0  0  0  0  0  0  0  0  0
  1  5  1  0
  1  7  1  0
  1  9  1  0
  1 11  2  0
  2  7  1  0
  2 12  1  0
  2 13  1  0
  2 14  2  0
  3 18  1  0
  3 20  1  0
  4 17  1  0
  4 25  1  0
  5 21  1  0
  6 23  2  0
  8 25  2  0
 10 26  2  0
 12 29  1  0
 15 20  1  0
 15 22  1  0
 15 23  1  0
 16 23  1  0
 16 26  1  0
 17 18  1  0
 17 19  1  0
 18 21  1  0
 19 20  1  0
 22 24  2  0
 24 26  1  0
 24 27  1  0
 25 28  1  0
 29 30  2  0
 29 31  1  0
 30 32  1  0
 31 33  2  0
 32 34  2  0
 33 34  1  0
M  END
>  <PUBCHEM_COMPOUND_CID>  (1) 
1602

>  <PUBCHEM_CONFORMER_RMSD>  (1) 
1.8

>  <PUBCHEM_CONFORMER_DIVERSEORDER>  (1) 
2
11
71
22
54
29
49
91
18
59
39
85
63
76
34
33
36
19
26
64
25
88
38
51
81
9
53
83
24
65
13
42
87
66
12
14
92
72
41
8
78
79
74
5
75
28
86
60
55
70
47
17
89
40
35
43
30
62
58
6
44
16
52
31
37
27
50
69
7
80
1
73
61
90
67
56
48
23
82
3
15
45
20
57
84
4
68
32
77
46
10
21

>  <PUBCHEM_MMFF94_PARTIAL_CHARGES>  (1) 
42
1 1.51
10 -0.57
11 -0.7
12 -0.35
13 -0.77
14 -0.7
15 -0.47
16 -0.49
17 0.28
18 0.28
2 1.51
20 0.58
21 0.28
22 -0.04
23 0.69
24 -0.12
25 0.66
26 0.62
27 0.14
28 0.06
29 0.08
3 -0.56
30 -0.15
31 -0.15
32 -0.15
33 -0.15
34 -0.15
4 -0.43
42 0.15
43 0.37
5 -0.55
50 0.5
51 0.5
52 0.15
53 0.15
54 0.15
55 0.15
56 0.15
6 -0.57
7 -0.54
8 -0.57
9 -0.77

>  <PUBCHEM_EFFECTIVE_ROTOR_COUNT>  (1) 
11

>  <PUBCHEM_PHARMACOPHORE_FEATURES>  (1) 
12
1 10 acceptor
1 11 acceptor
1 13 acceptor
1 14 acceptor
1 16 donor
1 3 acceptor
1 6 acceptor
1 8 acceptor
1 9 acceptor
5 3 17 18 19 20 rings
6 15 16 22 23 24 26 rings
6 29 30 31 32 33 34 rings

>  <PUBCHEM_HEAVY_ATOM_COUNT>  (1) 
34

>  <PUBCHEM_ATOM_DEF_STEREO_COUNT>  (1) 
0

>  <PUBCHEM_ATOM_UDEF_STEREO_COUNT>  (1) 
3

>  <PUBCHEM_BOND_DEF_STEREO_COUNT>  (1) 
0

>  <PUBCHEM_BOND_UDEF_STEREO_COUNT>  (1) 
0

>  <PUBCHEM_ISOTOPIC_ATOM_COUNT>  (1) 
0

>  <PUBCHEM_COMPONENT_COUNT>  (1) 
1

>  <PUBCHEM_CACTVS_TAUTO_COUNT>  (1) 
3

>  <PUBCHEM_CONFORMER_ID>  (1) 
0000064200000002

>  <PUBCHEM_MMFF94_ENERGY>  (1) 
37.59

>  <PUBCHEM_FEATURE_SELFOVERLAP>  (1) 
60.925

>  <PUBCHEM_SHAPE_FINGERPRINT>  (1) 
10074138 170 17910078590560381010
10675989 125 17249464211991576485
10764073 3 17178530301672781050
12160290 23 17771067386663054726
12202916 173 18188192274562618563
12988421 55 17988348313647024066
14725015 67 17683810908955680891
15403338 16 17313368063434517051
15420108 30 17187885397515027259
15775530 1 18050578343431999810
15968369 26 17903343815747180196
16728300 4 17895737586941762738
20715895 44 17605823738767080557
20775438 99 17905016203024237629
21033648 29 18059574741002020424
22113638 7 18193272116365669109
23559900 14 18190475869317530758
238918 7 18266445513126831770
25019877 29 17344647051910997495
27425 322 15696625267048207603
469060 322 18268702991114668543
5171179 24 17836361553976054343
6004065 56 18337665413113655557
70251023 43 17907858406375156919
7399639 24 18412554197520749059
9981440 41 18124002703595758248

>  <PUBCHEM_SHAPE_MULTIPOLES>  (1) 
627.01
9.08
7.57
2.36
1.33
7.31
-1.13
-5.56
-5.48
1.44
5.52
-0.23
1.15
4.13

>  <PUBCHEM_SHAPE_SELFOVERLAP>  (1) 
1289.438

>  <PUBCHEM_SHAPE_VOLUME>  (1) 
360.8

>  <PUBCHEM_COORDINATE_TYPE>  (1) 
2
5
10

$$$$
