16022
     RDKit          3D

 10 10  0  0  0  0  0  0  0  0999 V2000
    2.7258   -1.7605    0.0001 Br  0  0  0  0  0  0  0  0  0  0  0  0
   -2.7668   -1.4892    0.0000 Cl  0  0  0  0  0  0  0  0  0  0  0  0
    2.6649    1.5884    0.0000 Cl  0  0  0  0  0  0  0  0  0  0  0  0
   -2.3789    1.4911    0.0001 O   0  0  0  0  0  0  0  0  0  0  0  0
   -1.2312    0.7555    0.0000 C   0  0  0  0  0  0  0  0  0  0  0  0
   -1.2657   -0.6390    0.0000 C   0  0  0  0  0  0  0  0  0  0  0  0
   -0.0064    1.4229    0.0000 C   0  0  0  0  0  0  0  0  0  0  0  0
    1.1839    0.6958   -0.0001 C   0  0  0  0  0  0  0  0  0  0  0  0
   -0.0753   -1.3662    0.0000 C   0  0  0  0  0  0  0  0  0  0  0  0
    1.1496   -0.6988    0.0000 C   0  0  0  0  0  0  0  0  0  0  0  0
  1 10  1  0
  2  6  1  0
  3  8  1  0
  4  5  1  0
  5  6  2  0
  5  7  1  0
  6  9  1  0
  7  8  2  0
  8 10  1  0
  9 10  2  0
M  END
>  <PUBCHEM_COMPOUND_CID>  (1) 
16022

>  <PUBCHEM_CONFORMER_RMSD>  (1) 
0.4

>  <PUBCHEM_CONFORMER_DIVERSEORDER>  (1) 
1

>  <PUBCHEM_MMFF94_PARTIAL_CHARGES>  (1) 
13
1 -0.11
10 0.11
11 0.15
12 0.15
13 0.45
2 -0.18
3 -0.18
4 -0.53
5 0.08
6 0.18
7 -0.15
8 0.18
9 -0.15

>  <PUBCHEM_EFFECTIVE_ROTOR_COUNT>  (1) 
0

>  <PUBCHEM_PHARMACOPHORE_FEATURES>  (1) 
3
1 1 hydrophobe
1 4 donor
6 5 6 7 8 9 10 rings

>  <PUBCHEM_HEAVY_ATOM_COUNT>  (1) 
10

>  <PUBCHEM_ATOM_DEF_STEREO_COUNT>  (1) 
0

>  <PUBCHEM_ATOM_UDEF_STEREO_COUNT>  (1) 
0

>  <PUBCHEM_BOND_DEF_STEREO_COUNT>  (1) 
0

>  <PUBCHEM_BOND_UDEF_STEREO_COUNT>  (1) 
0

>  <PUBCHEM_ISOTOPIC_ATOM_COUNT>  (1) 
0

>  <PUBCHEM_COMPONENT_COUNT>  (1) 
1

>  <PUBCHEM_CACTVS_TAUTO_COUNT>  (1) 
3

>  <PUBCHEM_CONFORMER_ID>  (1) 
00003E9600000001

>  <PUBCHEM_MMFF94_ENERGY>  (1) 
20.176

>  <PUBCHEM_FEATURE_SELFOVERLAP>  (1) 
15.223

>  <PUBCHEM_SHAPE_FINGERPRINT>  (1) 
12423570 1 15600324128316486369
13380535 21 18338811060256394312
14128692 85 18338522945603102998
14325111 11 18410856581209876896
161256 15 18339932609572284806
16945 1 18194402427145564198
193761 8 18410856551081529476
19973954 147 18411136922241076072
21040471 1 18410575097632682144
21501502 16 18411420604815152618
2334 1 18410575110459275942
23402655 69 18340751733699311735
23552423 10 18334014986452025702
241688 4 18335983073399906336
2748010 2 18410009931407265686
5084963 1 18272651238015811666
68250623 7 18411142428405175174
7364860 26 18342738529255739898

>  <PUBCHEM_SHAPE_MULTIPOLES>  (1) 
209.61
4.1
2.25
0.63
0.08
0.05
0
0.76
0
-0.61
0
-0.06
0.04
0

>  <PUBCHEM_SHAPE_SELFOVERLAP>  (1) 
405.803

>  <PUBCHEM_SHAPE_VOLUME>  (1) 
133

>  <PUBCHEM_COORDINATE_TYPE>  (1) 
2
5
10

$$$$
