16032
     RDKit          3D

  8  7  0  0  0  0  0  0  0  0999 V2000
    3.5354    0.0054    0.1339 S   0  0  0  0  0  0  0  0  0  0  0  0
   -0.5140    0.0017   -0.2008 N   0  0  0  0  0  0  0  0  0  0  0  0
    0.8236    0.4368    0.1999 C   0  0  0  0  0  0  0  0  0  0  0  0
   -1.5251    0.9339    0.2965 C   0  0  0  0  0  0  0  0  0  0  0  0
   -0.7799   -1.3502    0.2894 C   0  0  0  0  0  0  0  0  0  0  0  0
    1.8682   -0.5226   -0.3566 C   0  0  0  0  0  0  0  0  0  0  0  0
   -1.2715    2.3430   -0.1980 C   0  0  0  0  0  0  0  0  0  0  0  0
   -2.1367   -1.8480   -0.1643 C   0  0  0  0  0  0  0  0  0  0  0  0
  1  6  1  0
  2  3  1  0
  2  4  1  0
  2  5  1  0
  3  6  1  0
  4  7  1  0
  5  8  1  0
M  END
>  <PUBCHEM_COMPOUND_CID>  (1) 
16032

>  <PUBCHEM_CONFORMER_RMSD>  (1) 
0.6

>  <PUBCHEM_CONFORMER_DIVERSEORDER>  (1) 
1
10
9
2
7
5
8
11
3
4
14
6
15
13
12

>  <PUBCHEM_MMFF94_PARTIAL_CHARGES>  (1) 
7
1 -0.41
2 -0.81
23 0.18
3 0.27
4 0.27
5 0.27
6 0.23

>  <PUBCHEM_EFFECTIVE_ROTOR_COUNT>  (1) 
4

>  <PUBCHEM_PHARMACOPHORE_FEATURES>  (1) 
1
1 2 cation

>  <PUBCHEM_HEAVY_ATOM_COUNT>  (1) 
8

>  <PUBCHEM_ATOM_DEF_STEREO_COUNT>  (1) 
0

>  <PUBCHEM_ATOM_UDEF_STEREO_COUNT>  (1) 
0

>  <PUBCHEM_BOND_DEF_STEREO_COUNT>  (1) 
0

>  <PUBCHEM_BOND_UDEF_STEREO_COUNT>  (1) 
0

>  <PUBCHEM_ISOTOPIC_ATOM_COUNT>  (1) 
0

>  <PUBCHEM_COMPONENT_COUNT>  (1) 
1

>  <PUBCHEM_CACTVS_TAUTO_COUNT>  (1) 
1

>  <PUBCHEM_CONFORMER_ID>  (1) 
00003EA000000001

>  <PUBCHEM_MMFF94_ENERGY>  (1) 
9.2918

>  <PUBCHEM_FEATURE_SELFOVERLAP>  (1) 
5.074

>  <PUBCHEM_SHAPE_FINGERPRINT>  (1) 
1 1 17544476353823044749
12716758 59 18268713814231352362
12932741 1 17846222116383002500
12932764 1 18337119986251657802
14390081 3 18270677550667863024
20711985 344 18337376210640940195
20871998 184 18272375286340656990
21040471 1 18193841427149551748
23552423 10 18188492492280489678
23552449 1 18412262852381748172

>  <PUBCHEM_SHAPE_MULTIPOLES>  (1) 
163.5
4.17
2.14
0.68
4.56
0.61
0.01
-0.6
0.04
-2.16
-0.12
0.04
0
0.03

>  <PUBCHEM_SHAPE_SELFOVERLAP>  (1) 
279.511

>  <PUBCHEM_SHAPE_VOLUME>  (1) 
112.4

>  <PUBCHEM_COORDINATE_TYPE>  (1) 
2
5
10

$$$$
