16039
     RDKit          3D

 25 27  0  0  1  0  0  0  0  0999 V2000
   -2.9899    3.3786   -0.7056 O   0  0  0  0  0  0  0  0  0  0  0  0
    0.0898   -0.5985    0.3568 N   0  0  0  0  0  0  0  0  0  0  0  0
    7.7877    0.2386   -0.8351 N   0  0  0  0  0  0  0  0  0  0  0  0
   -2.1152   -1.3811    0.2187 C   0  0  0  0  0  0  0  0  0  0  0  0
   -1.5245   -1.8721    1.5631 C   0  0  0  0  0  0  0  0  0  0  0  0
   -0.8183   -1.2261   -0.6045 C   0  0  0  0  0  0  0  0  0  0  0  0
   -0.0962   -1.3192    1.6170 C   0  0  0  0  0  0  0  0  0  0  0  0
   -3.0060   -2.4523   -0.4356 C   0  0  0  0  0  0  0  0  0  0  0  0
   -2.9449   -0.0996    0.4210 C   0  0  0  0  0  0  0  0  0  0  0  0
    1.4728   -0.5931   -0.0924 C   0  0  0  0  0  0  0  0  0  0  0  0
   -3.4952   -1.9961   -1.8037 C   0  0  0  0  0  0  0  0  0  0  0  0
   -2.5866    1.0721   -0.2426 C   0  0  0  0  0  0  0  0  0  0  0  0
    2.3742    0.1166    0.9185 C   0  0  0  0  0  0  0  0  0  0  0  0
   -4.0515   -0.1153    1.2677 C   0  0  0  0  0  0  0  0  0  0  0  0
   -4.3952   -3.0437   -2.4391 C   0  0  0  0  0  0  0  0  0  0  0  0
   -3.3381    2.2327   -0.0591 C   0  0  0  0  0  0  0  0  0  0  0  0
   -4.8030    1.0452    1.4514 C   0  0  0  0  0  0  0  0  0  0  0  0
    3.8085    0.1490    0.4539 C   0  0  0  0  0  0  0  0  0  0  0  0
   -4.4463    2.2194    0.7879 C   0  0  0  0  0  0  0  0  0  0  0  0
    4.6599   -0.8887    0.8013 C   0  0  0  0  0  0  0  0  0  0  0  0
    4.2520    1.2160   -0.3126 C   0  0  0  0  0  0  0  0  0  0  0  0
    5.9869   -0.8588    0.3718 C   0  0  0  0  0  0  0  0  0  0  0  0
    5.5789    1.2458   -0.7422 C   0  0  0  0  0  0  0  0  0  0  0  0
    6.4462    0.2085   -0.4000 C   0  0  0  0  0  0  0  0  0  0  0  0
   -1.8460    3.3223   -1.5566 C   0  0  0  0  0  0  0  0  0  0  0  0
  1 16  1  0
  1 25  1  0
  2  6  1  0
  2  7  1  0
  2 10  1  0
  3 24  1  0
  4  5  1  0
  4  6  1  0
  4  8  1  0
  4  9  1  0
  5  7  1  0
  8 11  1  0
  9 12  2  0
  9 14  1  0
 10 13  1  0
 11 15  1  0
 12 16  1  0
 13 18  1  0
 14 17  2  0
 16 19  2  0
 17 19  1  0
 18 20  2  0
 18 21  1  0
 20 22  1  0
 21 23  2  0
 22 24  2  0
 23 24  1  0
M  END
>  <PUBCHEM_COMPOUND_CID>  (1) 
16039

>  <PUBCHEM_CONFORMER_RMSD>  (1) 
0.8

>  <PUBCHEM_CONFORMER_DIVERSEORDER>  (1) 
1
239
89
173
49
10
193
245
131
243
98
203
46
21
230
113
209
240
156
237
83
164
119
32
235
159
253
4
220
85
77
8
50
155
128
116
206
73
74
172
95
75
238
192
222
47
123
236
248
41
136
43
163
202
153
52
140
177
139
174
80
53
197
255
195
196
55
183
105
68
244
14
138
62
121
160
145
135
30
231
120
64
72
228
22
223
81
207
103
178
106
35
200
94
7
188
29
6
87
126
246
229
185
250
148
169
162
133
137
143
9
205
232
215
158
44
86
221
150
214
2
93
37
165
127
184
180
109
216
34
112
175
187
101
249
226
251
171
31
125
69
96
122
61
5
63
65
225
28
25
242
151
247
38
129
42
146
84
252
161
15
199
36
170
27
134
3
204
167
92
70
56
224
142
194
218
190
208
51
227
211
147
124
189
130
107
76
20
11
114
254
181
210
132
40
91
115
16
82
182
217
234
33
71
54
154
79
168
19
90
176
99
117
166
66
102
24
111
108
157
219
179
58
198
60
18
233
104
149
201
45
26
141
17
48
59
152
12
88
241
118
67
144
100
78
23
39
13
191
57
186
212
97
213
110

>  <PUBCHEM_MMFF94_PARTIAL_CHARGES>  (1) 
31
1 -0.36
10 0.27
12 -0.15
13 0.14
14 -0.15
16 0.08
17 -0.15
18 -0.14
19 -0.15
2 -0.81
20 -0.15
21 -0.15
22 -0.15
23 -0.15
24 0.1
25 0.28
3 -0.9
38 0.15
4 0.14
41 0.15
45 0.15
46 0.15
47 0.15
48 0.15
49 0.15
50 0.15
54 0.4
55 0.4
6 0.27
7 0.27
9 -0.14

>  <PUBCHEM_EFFECTIVE_ROTOR_COUNT>  (1) 
8

>  <PUBCHEM_PHARMACOPHORE_FEATURES>  (1) 
8
1 1 acceptor
1 15 hydrophobe
1 2 cation
1 3 cation
1 3 donor
5 2 4 5 6 7 rings
6 18 20 21 22 23 24 rings
6 9 12 14 16 17 19 rings

>  <PUBCHEM_HEAVY_ATOM_COUNT>  (1) 
25

>  <PUBCHEM_ATOM_DEF_STEREO_COUNT>  (1) 
0

>  <PUBCHEM_ATOM_UDEF_STEREO_COUNT>  (1) 
1

>  <PUBCHEM_BOND_DEF_STEREO_COUNT>  (1) 
0

>  <PUBCHEM_BOND_UDEF_STEREO_COUNT>  (1) 
0

>  <PUBCHEM_ISOTOPIC_ATOM_COUNT>  (1) 
0

>  <PUBCHEM_COMPONENT_COUNT>  (1) 
1

>  <PUBCHEM_CACTVS_TAUTO_COUNT>  (1) 
1

>  <PUBCHEM_CONFORMER_ID>  (1) 
00003EA700000001

>  <PUBCHEM_MMFF94_ENERGY>  (1) 
90.4373

>  <PUBCHEM_FEATURE_SELFOVERLAP>  (1) 
40.596

>  <PUBCHEM_SHAPE_FINGERPRINT>  (1) 
10165383 225 17917157109312735265
105312 117 17703511004170558949
10670039 82 18187362134561889456
10730089 173 18334863792555027704
10871710 139 18261664909979533061
11101153 10 18124594434062038196
11545043 162 17131831006119706554
12107183 9 17681823013317867034
12596602 18 16443070490956746712
13761468 95 18196099832750299080
14294032 229 18343019948783381009
14347332 77 18201709708473188423
14508225 48 18197763604828550783
14713325 29 18343584066477510695
15183329 4 17894906331314730770
15250474 111 18336250311246762090
15876981 60 18337394949620423381
16994733 274 15287012050402277783
17492 54 18119779493194241741
17844677 252 18129946801326939952
20645477 56 18342742888236225403
21236236 1 18411418427282590327
21756936 100 18187086147909617058
22393880 68 17775280586703456506
23081809 10 18334852832246783826
23198884 109 17489873708903171185
24771293 8 18265063436535420257
3610482 184 18261408749286864388
392239 28 17459780119075661665
44062 13 17917711331122775954
497634 4 17560241452226795843
5104073 3 17749389317368445544
531348 171 18343301436075489366
59755656 520 16988296308575221667
6327066 14 18190456052819027141

>  <PUBCHEM_SHAPE_MULTIPOLES>  (1) 
498.66
15.47
3.27
1.66
31.85
1.39
-0.4
1.99
-2.39
-6.24
-1.82
-2.05
-0.73
-2.21

>  <PUBCHEM_SHAPE_SELFOVERLAP>  (1) 
1052.382

>  <PUBCHEM_SHAPE_VOLUME>  (1) 
282.7

>  <PUBCHEM_COORDINATE_TYPE>  (1) 
2
5
10

$$$$
