1604
     RDKit          3D

 23 25  0  0  1  0  0  0  0  0999 V2000
   -0.1313   -0.6398    0.6094 S   0  0  0  0  0  0  0  0  0  0  0  0
    2.8235   -1.0365    0.6395 S   0  0  0  0  0  0  0  0  0  0  0  0
    5.5983   -0.3405    0.0292 S   0  0  0  0  0  0  0  0  0  0  0  0
   -0.1586   -0.7851    2.0500 O   0  0  0  0  0  0  0  0  0  0  0  0
   -0.3770   -1.7527   -0.2862 O   0  0  0  0  0  0  0  0  0  0  0  0
    6.3747    0.8825   -0.0777 O   0  0  0  0  0  0  0  0  0  0  0  0
    5.7640   -1.2152    1.1771 O   0  0  0  0  0  0  0  0  0  0  0  0
   -5.2825   -1.1570   -1.3446 O   0  0  0  0  0  0  0  0  0  0  0  0
   -1.0777    0.7386    0.1269 N   0  0  0  0  0  0  0  0  0  0  0  0
    5.7953   -1.2541   -1.3986 N   0  0  0  0  0  0  0  0  0  0  0  0
   -0.6232    1.3913   -1.1531 C   0  0  0  0  0  0  0  0  0  0  0  0
    0.7707    2.0245   -0.9634 C   0  0  0  0  0  0  0  0  0  0  0  0
    1.8142    1.0496   -0.4934 C   0  0  0  0  0  0  0  0  0  0  0  0
    1.4914   -0.0939    0.2028 C   0  0  0  0  0  0  0  0  0  0  0  0
    3.2281    1.1516   -0.6582 C   0  0  0  0  0  0  0  0  0  0  0  0
   -2.5021    0.5537    0.2958 C   0  0  0  0  0  0  0  0  0  0  0  0
    3.8973    0.0852   -0.0914 C   0  0  0  0  0  0  0  0  0  0  0  0
   -3.2113   -0.2211   -0.6173 C   0  0  0  0  0  0  0  0  0  0  0  0
   -3.1542    1.1507    1.3706 C   0  0  0  0  0  0  0  0  0  0  0  0
   -4.5849   -0.4004   -0.4541 C   0  0  0  0  0  0  0  0  0  0  0  0
   -4.5278    0.9714    1.5338 C   0  0  0  0  0  0  0  0  0  0  0  0
   -5.2431    0.1958    0.6214 C   0  0  0  0  0  0  0  0  0  0  0  0
   -6.6841   -1.2988   -1.1185 C   0  0  0  0  0  0  0  0  0  0  0  0
  1  4  2  0
  1  5  2  0
  1  9  1  0
  1 14  1  0
  2 14  1  0
  2 17  1  0
  3  6  2  0
  3  7  2  0
  3 10  1  0
  3 17  1  0
  8 20  1  0
  8 23  1  0
  9 11  1  0
  9 16  1  0
 11 12  1  0
 12 13  1  0
 13 14  2  0
 13 15  1  0
 15 17  2  0
 16 18  2  0
 16 19  1  0
 18 20  1  0
 19 21  2  0
 20 22  2  0
 21 22  1  0
M  END
>  <PUBCHEM_COMPOUND_CID>  (1) 
1604

>  <PUBCHEM_CONFORMER_RMSD>  (1) 
0.6

>  <PUBCHEM_CONFORMER_DIVERSEORDER>  (1) 
1
50
37
48
32
52
25
23
30
24
55
2
9
39
26
4
56
44
21
38
27
29
53
22
40
28
31
6
45
5
51
20
10
47
19
54
12
3
49
43
41
11
7
46
17
18
34
8
36
42
13
16
33
35
14
15

>  <PUBCHEM_MMFF94_PARTIAL_CHARGES>  (1) 
30
1 1.5
10 -0.98
11 0.36
12 0.18
13 -0.18
14 -0.02
15 -0.15
16 0.2
17 -0.02
18 -0.15
19 -0.15
2 -0.08
20 0.08
21 -0.15
22 -0.15
23 0.28
28 0.15
29 0.15
3 1.5
30 0.15
31 0.15
32 0.15
33 0.42
34 0.42
4 -0.65
5 -0.65
6 -0.65
7 -0.65
8 -0.36
9 -0.69

>  <PUBCHEM_EFFECTIVE_ROTOR_COUNT>  (1) 
3.6

>  <PUBCHEM_PHARMACOPHORE_FEATURES>  (1) 
9
1 10 donor
1 4 acceptor
1 5 acceptor
1 6 acceptor
1 7 acceptor
1 8 acceptor
5 2 13 14 15 17 rings
6 1 9 11 12 13 14 rings
6 16 18 19 20 21 22 rings

>  <PUBCHEM_HEAVY_ATOM_COUNT>  (1) 
23

>  <PUBCHEM_ATOM_DEF_STEREO_COUNT>  (1) 
0

>  <PUBCHEM_ATOM_UDEF_STEREO_COUNT>  (1) 
0

>  <PUBCHEM_BOND_DEF_STEREO_COUNT>  (1) 
0

>  <PUBCHEM_BOND_UDEF_STEREO_COUNT>  (1) 
0

>  <PUBCHEM_ISOTOPIC_ATOM_COUNT>  (1) 
0

>  <PUBCHEM_COMPONENT_COUNT>  (1) 
1

>  <PUBCHEM_CACTVS_TAUTO_COUNT>  (1) 
1

>  <PUBCHEM_CONFORMER_ID>  (1) 
0000064400000001

>  <PUBCHEM_MMFF94_ENERGY>  (1) 
65.1362

>  <PUBCHEM_FEATURE_SELFOVERLAP>  (1) 
45.749

>  <PUBCHEM_SHAPE_FINGERPRINT>  (1) 
10 15 14908176469153270446
10595046 47 18060703887946375048
11315181 36 18059856186388836265
12011746 2 16877939443064898133
12166972 35 18341331175372912889
12236239 1 18343302569782844173
12403259 415 16298391301061109197
12516196 113 18410854373934491804
12596602 18 17560802117473841898
12616971 3 18338811078027230633
13288520 33 17846778525386061997
13668630 136 18409729577886907767
13760787 5 18040443204087143205
13862211 1 18260263032290089194
14251764 18 18411417320156824752
15183329 4 18407760335365893166
15188451 53 17846774135681637525
17349148 13 18408328778160161657
17862501 102 18343585148677004177
1813 80 18260842457759398084
18222031 100 18260541234232837808
18335252 98 17203609311414001926
18681886 176 18270672177716146625
19489759 90 17418096503236203353
200 152 18333730208529530313
20028762 73 18343580754693904542
20567600 75 16370722599978821042
20612939 158 18041282165850601373
21033648 29 16153705474697552581
21150785 3 18343022229152065260
21236236 1 17894909573218876877
21267235 1 18187374215713744210
21641784 216 17023762104237989292
21682296 61 17896879851169816498
21709351 56 18333731308621563117
23402539 116 18202565064121234829
23522609 53 18194151588751870708
23536379 177 17632301146767371688
23557571 272 16486983899154460721
23559900 14 15502373435077046693
23569914 152 16743355702063174759
23569943 247 18123757448327233530
3009799 131 17240475914280346773
3286 77 18131627910960265400
34797466 226 16558474196911684496
4340502 62 16128658548508939934
5104073 3 18335144253834710384
5283156 175 18202002140691744599
59755656 215 17240476983885634434
59755656 520 11312055461102038765
7495541 125 16558746862472290241

>  <PUBCHEM_SHAPE_MULTIPOLES>  (1) 
445.57
15.29
1.6
1.4
2.32
0.21
0.24
-4.59
-2.36
0.35
-0.28
-1.12
-0.13
-1.51

>  <PUBCHEM_SHAPE_SELFOVERLAP>  (1) 
917.635

>  <PUBCHEM_SHAPE_VOLUME>  (1) 
257

>  <PUBCHEM_COORDINATE_TYPE>  (1) 
2
5
10

$$$$
