16053
     RDKit          3D

 15 17  0  0  0  0  0  0  0  0999 V2000
   -4.7769    0.3523   -0.0001 O   0  0  0  0  0  0  0  0  0  0  0  0
    4.8195    0.3553    0.0003 N   0  0  0  0  0  0  0  0  0  0  0  0
   -0.0020    1.7888    0.0000 C   0  0  0  0  0  0  0  0  0  0  0  0
    1.1723    0.8324   -0.0002 C   0  0  0  0  0  0  0  0  0  0  0  0
   -1.1776    0.8340   -0.0001 C   0  0  0  0  0  0  0  0  0  0  0  0
    0.7200   -0.5063   -0.0002 C   0  0  0  0  0  0  0  0  0  0  0  0
   -0.7271   -0.5053   -0.0002 C   0  0  0  0  0  0  0  0  0  0  0  0
    2.5215    1.1398   -0.0001 C   0  0  0  0  0  0  0  0  0  0  0  0
    1.6250   -1.5546   -0.0001 C   0  0  0  0  0  0  0  0  0  0  0  0
   -2.5265    1.1432    0.0002 C   0  0  0  0  0  0  0  0  0  0  0  0
   -1.6335   -1.5523    0.0000 C   0  0  0  0  0  0  0  0  0  0  0  0
    3.4335    0.0829    0.0000 C   0  0  0  0  0  0  0  0  0  0  0  0
    2.9898   -1.2508    0.0001 C   0  0  0  0  0  0  0  0  0  0  0  0
   -3.4399    0.0875    0.0002 C   0  0  0  0  0  0  0  0  0  0  0  0
   -2.9980   -1.2468    0.0001 C   0  0  0  0  0  0  0  0  0  0  0  0
  1 14  1  0
  2 12  1  0
  3  4  1  0
  3  5  1  0
  4  6  2  0
  4  8  1  0
  5  7  2  0
  5 10  1  0
  6  7  1  0
  6  9  1  0
  7 11  1  0
  8 12  2  0
  9 13  2  0
 10 14  2  0
 11 15  2  0
 12 13  1  0
 14 15  1  0
M  END
>  <PUBCHEM_COMPOUND_CID>  (1) 
16053

>  <PUBCHEM_CONFORMER_RMSD>  (1) 
0.4

>  <PUBCHEM_CONFORMER_DIVERSEORDER>  (1) 
1

>  <PUBCHEM_MMFF94_PARTIAL_CHARGES>  (1) 
22
1 -0.53
10 -0.15
11 -0.15
12 0.1
13 -0.15
14 0.08
15 -0.15
18 0.15
19 0.15
2 -0.9
20 0.15
21 0.15
22 0.15
23 0.15
24 0.4
25 0.4
26 0.45
3 0.29
4 -0.14
5 -0.14
8 -0.15
9 -0.15

>  <PUBCHEM_EFFECTIVE_ROTOR_COUNT>  (1) 
0.2

>  <PUBCHEM_PHARMACOPHORE_FEATURES>  (1) 
6
1 1 donor
1 2 cation
1 2 donor
5 3 4 5 6 7 rings
6 4 6 8 9 12 13 rings
6 5 7 10 11 14 15 rings

>  <PUBCHEM_HEAVY_ATOM_COUNT>  (1) 
15

>  <PUBCHEM_ATOM_DEF_STEREO_COUNT>  (1) 
0

>  <PUBCHEM_ATOM_UDEF_STEREO_COUNT>  (1) 
0

>  <PUBCHEM_BOND_DEF_STEREO_COUNT>  (1) 
0

>  <PUBCHEM_BOND_UDEF_STEREO_COUNT>  (1) 
0

>  <PUBCHEM_ISOTOPIC_ATOM_COUNT>  (1) 
0

>  <PUBCHEM_COMPONENT_COUNT>  (1) 
1

>  <PUBCHEM_CACTVS_TAUTO_COUNT>  (1) 
9

>  <PUBCHEM_CONFORMER_ID>  (1) 
00003EB500000001

>  <PUBCHEM_MMFF94_ENERGY>  (1) 
59.5536

>  <PUBCHEM_FEATURE_SELFOVERLAP>  (1) 
30.61

>  <PUBCHEM_SHAPE_FINGERPRINT>  (1) 
10608611 8 18410851062082066437
10967382 1 18410856542502319782
11132069 177 18411414029431238656
11401426 45 18412258454176799616
11471102 20 18410852153019194262
11806522 49 18338514248088587271
12032990 46 18410580586516315010
12251169 10 18412263938823610889
13140716 1 18266459995377031817
13214271 11 18340766030616901926
13221675 6 18410575084668483590
13380535 76 18410576188475396962
14115302 16 18114474425828546886
14144814 61 18411419488155349795
14325111 11 18410857646266593408
15196674 1 18410856546755108550
15219456 202 18411982425202841662
15442244 35 18195246607426285650
15536298 74 18342739585659621070
16945 1 18410575084663221829
18186145 218 17749103400451479695
18522853 276 18413670205600515593
200 152 17988918990130136791
20201158 50 18410293605391621882
20510252 161 18200876154152658137
20528008 55 18413385436626338995
20645477 70 18340765936180745823
21029758 11 18343577435053163537
21267235 1 18410865360028097378
21501502 16 18411138021731650318
23402539 116 18272362075501088085
23402655 69 18341887451347654093
23463225 33 18408885131207210062
23559900 14 18341048528534307102
2748010 2 18411136965185532886
3312278 4 18411421725796426755
335352 9 18050568443431818254
34934 24 18410848863058609507
5104073 3 18410292523065009066
528886 8 18411414025146918330
53655031 270 18411419505393280184
537710 114 18410860962055439388
53812653 166 18342735243284050808
57005193 9 18410284809335516431
69090 78 18342171168228701791
7364860 26 18269273645854407168
8809292 202 18260552276546348355
9709674 26 18411706499350803350

>  <PUBCHEM_SHAPE_MULTIPOLES>  (1) 
297.84
7.33
1.7
0.6
0.17
0.09
0
-0.06
0
-0.01
0
0
0
0

>  <PUBCHEM_SHAPE_SELFOVERLAP>  (1) 
671.508

>  <PUBCHEM_SHAPE_VOLUME>  (1) 
159.3

>  <PUBCHEM_COORDINATE_TYPE>  (1) 
2
5
10

$$$$
