16058
     RDKit          3D

 18 19  0  0  1  0  0  0  0  0999 V2000
    0.3394    3.1810    0.3443 O   0  0  0  0  0  0  0  0  0  0  0  0
    4.5262    1.1374   -0.0893 O   0  0  0  0  0  0  0  0  0  0  0  0
   -2.3050    1.4873   -0.2992 O   0  0  0  0  0  0  0  0  0  0  0  0
    2.0613   -1.4857   -0.0536 O   0  0  0  0  0  0  0  0  0  0  0  0
   -2.6307   -1.2135    0.2812 O   0  0  0  0  0  0  0  0  0  0  0  0
   -0.3799   -2.8116   -0.1755 O   0  0  0  0  0  0  0  0  0  0  0  0
   -0.7891    3.3044   -0.5307 C   0  0  0  0  0  0  0  0  0  0  0  0
    3.2167    0.5817   -0.2641 C   0  0  0  0  0  0  0  0  0  0  0  0
   -0.0773    4.5108    0.0088 C   0  0  0  0  0  0  0  0  0  0  0  0
    3.7048    1.0353    1.0809 C   0  0  0  0  0  0  0  0  0  0  0  0
   -2.0805    2.8451    0.0537 C   0  0  0  0  0  0  0  0  0  0  0  0
    3.1994   -0.8622   -0.6319 C   0  0  0  0  0  0  0  0  0  0  0  0
   -3.5302    1.0046    0.2385 C   0  0  0  0  0  0  0  0  0  0  0  0
    2.0033   -2.8693   -0.3789 C   0  0  0  0  0  0  0  0  0  0  0  0
   -3.7251   -0.4369   -0.1905 C   0  0  0  0  0  0  0  0  0  0  0  0
    0.7851   -3.4828    0.2838 C   0  0  0  0  0  0  0  0  0  0  0  0
   -2.7610   -2.5778   -0.0931 C   0  0  0  0  0  0  0  0  0  0  0  0
   -1.5574   -3.3477    0.4156 C   0  0  0  0  0  0  0  0  0  0  0  0
  1  7  1  0
  1  9  1  0
  2  8  1  0
  2 10  1  0
  3 11  1  0
  3 13  1  0
  4 12  1  0
  4 14  1  0
  5 15  1  0
  5 17  1  0
  6 16  1  0
  6 18  1  0
  7  9  1  0
  7 11  1  0
  8 10  1  0
  8 12  1  0
 13 15  1  0
 14 16  1  0
 17 18  1  0
M  END
>  <PUBCHEM_COMPOUND_CID>  (1) 
16058

>  <PUBCHEM_CONFORMER_RMSD>  (1) 
1

>  <PUBCHEM_CONFORMER_DIVERSEORDER>  (1) 
1
8
2
12
31
21
23
37
32
3
35
19
50
60
38
45
48
30
14
39
49
6
47
13
34
18
62
17
42
40
10
29
54
59
20
24
51
57
46
53
16
44
56
52
27
33
55
36
41
43
58
63
7
11
15
61
25
26
22
28
9
4
5

>  <PUBCHEM_MMFF94_PARTIAL_CHARGES>  (1) 
24
1 -0.3
10 -0.05
11 0.38
12 0.38
13 0.28
14 0.28
15 0.28
16 0.28
17 0.28
18 0.28
19 0.1
2 -0.3
20 0.1
21 0.1
22 0.1
23 0.1
24 0.1
3 -0.56
4 -0.56
5 -0.56
6 -0.56
7 -0.05
8 -0.05
9 -0.05

>  <PUBCHEM_EFFECTIVE_ROTOR_COUNT>  (1) 
14.2

>  <PUBCHEM_PHARMACOPHORE_FEATURES>  (1) 
6
1 1 acceptor
1 2 acceptor
1 3 acceptor
1 4 acceptor
1 5 acceptor
1 6 acceptor

>  <PUBCHEM_HEAVY_ATOM_COUNT>  (1) 
18

>  <PUBCHEM_ATOM_DEF_STEREO_COUNT>  (1) 
0

>  <PUBCHEM_ATOM_UDEF_STEREO_COUNT>  (1) 
2

>  <PUBCHEM_BOND_DEF_STEREO_COUNT>  (1) 
0

>  <PUBCHEM_BOND_UDEF_STEREO_COUNT>  (1) 
0

>  <PUBCHEM_ISOTOPIC_ATOM_COUNT>  (1) 
0

>  <PUBCHEM_COMPONENT_COUNT>  (1) 
1

>  <PUBCHEM_CACTVS_TAUTO_COUNT>  (1) 
1

>  <PUBCHEM_CONFORMER_ID>  (1) 
00003EBA00000001

>  <PUBCHEM_MMFF94_ENERGY>  (1) 
33.4547

>  <PUBCHEM_FEATURE_SELFOVERLAP>  (1) 
30.464

>  <PUBCHEM_SHAPE_FINGERPRINT>  (1) 
10429389 16 17984174559381769110
10498660 4 18410008844991991071
12038231 1 18410857650577430452
13122387 1 18410576218560955276
13773456 30 17612286586363121556
14940714 1 9123163092597216452
15006816 218 16825594198327090231
19930381 70 18265614286800148313
20621476 82 18054206989839010216
20765182 40 18410283745048634632
21344244 246 16827826203027944847
3524813 1 17915737776565438306

>  <PUBCHEM_SHAPE_MULTIPOLES>  (1) 
335.22
7.16
6.65
0.75
3.07
1.67
0.06
1.18
0.06
-1.92
0.24
0.3
0.09
0.58

>  <PUBCHEM_SHAPE_SELFOVERLAP>  (1) 
637.647

>  <PUBCHEM_SHAPE_VOLUME>  (1) 
207.7

>  <PUBCHEM_COORDINATE_TYPE>  (1) 
2
5
10

$$$$
