16064
     RDKit          3D

 17 16  0  0  1  0  0  0  0  0999 V2000
    4.2510    1.0057    1.4659 O   0  0  0  0  0  0  0  0  0  0  0  0
    6.0560   -1.4776   -1.5693 O   0  0  0  0  0  0  0  0  0  0  0  0
    5.4965    0.6749   -1.0795 O   0  0  0  0  0  0  0  0  0  0  0  0
   -0.9866    1.0633    0.5384 C   0  0  0  0  0  0  0  0  0  0  0  0
   -2.1925    1.0817   -0.4049 C   0  0  0  0  0  0  0  0  0  0  0  0
    0.2302    0.3375   -0.0431 C   0  0  0  0  0  0  0  0  0  0  0  0
   -3.3800    1.8079    0.2324 C   0  0  0  0  0  0  0  0  0  0  0  0
    1.4591    0.3830    0.8685 C   0  0  0  0  0  0  0  0  0  0  0  0
   -4.6275    1.8306   -0.6558 C   0  0  0  0  0  0  0  0  0  0  0  0
    2.6529   -0.3331    0.2244 C   0  0  0  0  0  0  0  0  0  0  0  0
   -5.1841    0.4607   -1.0581 C   0  0  0  0  0  0  0  0  0  0  0  0
    3.8839   -0.3327    1.1399 C   0  0  0  0  0  0  0  0  0  0  0  0
   -5.5640   -0.4685    0.0984 C   0  0  0  0  0  0  0  0  0  0  0  0
   -6.1873   -1.7866   -0.3616 C   0  0  0  0  0  0  0  0  0  0  0  0
    5.0858   -1.0715    0.5489 C   0  0  0  0  0  0  0  0  0  0  0  0
   -6.5523   -2.6695    0.8220 C   0  0  0  0  0  0  0  0  0  0  0  0
    5.5588   -0.5055   -0.7664 C   0  0  0  0  0  0  0  0  0  0  0  0
  1 12  1  0
  2 17  1  0
  3 17  2  0
  4  5  1  0
  4  6  1  0
  5  7  1  0
  6  8  1  0
  7  9  1  0
  8 10  1  0
  9 11  1  0
 10 12  1  0
 11 13  1  0
 12 15  1  0
 13 14  1  0
 14 16  1  0
 15 17  1  0
M  END
>  <PUBCHEM_COMPOUND_CID>  (1) 
16064

>  <PUBCHEM_CONFORMER_RMSD>  (1) 
1.2

>  <PUBCHEM_CONFORMER_DIVERSEORDER>  (1) 
5
466
109
6
415
208
171
364
33
1
10
59
379
54
296
279
129
640
41
440
566
207
349
18
641
13
380
49
48
94
421
434
121
420
471
84
99
423
594
647
61
608
114
23
132
327
256
62
251
316
162
55
657
77
519
684
547
115
12
105
92
617
4
130
287
172
128
398
292
134
620
163
401
43
639
15
101
46
47
57
616
705
191
262
362
367
627
213
25
2
27
576
437
472
556
35
217
693
11
638
42
393
405
645
187
31
168
484
193
272
26
334
297
37
498
119
708
243
156
34
448
29
347
288

>  <PUBCHEM_MMFF94_PARTIAL_CHARGES>  (1) 
8
1 -0.68
12 0.28
15 0.06
17 0.66
2 -0.65
3 -0.57
44 0.4
45 0.5

>  <PUBCHEM_EFFECTIVE_ROTOR_COUNT>  (1) 
12

>  <PUBCHEM_PHARMACOPHORE_FEATURES>  (1) 
6
1 1 acceptor
1 1 donor
1 16 hydrophobe
1 2 acceptor
1 3 acceptor
3 2 3 17 anion

>  <PUBCHEM_HEAVY_ATOM_COUNT>  (1) 
17

>  <PUBCHEM_ATOM_DEF_STEREO_COUNT>  (1) 
0

>  <PUBCHEM_ATOM_UDEF_STEREO_COUNT>  (1) 
1

>  <PUBCHEM_BOND_DEF_STEREO_COUNT>  (1) 
0

>  <PUBCHEM_BOND_UDEF_STEREO_COUNT>  (1) 
0

>  <PUBCHEM_ISOTOPIC_ATOM_COUNT>  (1) 
0

>  <PUBCHEM_COMPONENT_COUNT>  (1) 
1

>  <PUBCHEM_CACTVS_TAUTO_COUNT>  (1) 
1

>  <PUBCHEM_CONFORMER_ID>  (1) 
00003EC000000005

>  <PUBCHEM_MMFF94_ENERGY>  (1) 
5.5233

>  <PUBCHEM_FEATURE_SELFOVERLAP>  (1) 
30.505

>  <PUBCHEM_SHAPE_FINGERPRINT>  (1) 
10912923 1 17604425193692436488
11056379 131 18337389345194769821
117890 112 8430314640789547880
12616971 3 14548732928389346489
13533116 47 13470684824803389108
14123256 34 18202288004301975421
1420 363 18131628976375554417
14251718 22 18260266343345916581
14251732 14 18259983799328368899
14251732 16 18336260236245613729
14455015 7 17489303074968433249
14461889 52 18337381755950128696
14528608 73 17603868884153833436
14598715 104 11170200907355416271
14729087 3 7997970163236399943
17834072 33 18040434377913447516
17844677 252 17275099513917132777
18335252 98 18272370918865098128
18927931 339 18343577448433398829
20281389 69 9655577426867810655
20621476 21 18271811246040724223
21054139 6 17821722840963418467
21150785 3 17967818266634049676
21196832 93 17605848129743806283
220451 1 18114462250007875313
2303208 19 18060698385887481881
23081809 10 17022899008525981345
23402539 116 16515679997325009525
23424782 7 18338237171300747648
23559900 14 18263628698087799409
300161 21 12901552338315007248
465052 167 17418094283265599756
5283384 27 13623537891646022622
7062679 117 18186801379357498257

>  <PUBCHEM_SHAPE_MULTIPOLES>  (1) 
332.24
20.31
2.1
1.21
0.15
0.8
-0.1
10.82
-4.12
4.59
0.11
-1.5
0.1
1.42

>  <PUBCHEM_SHAPE_SELFOVERLAP>  (1) 
610.437

>  <PUBCHEM_SHAPE_VOLUME>  (1) 
209.7

>  <PUBCHEM_COORDINATE_TYPE>  (1) 
2
5
10

$$$$
