16065
     RDKit          3D

 25 28  0  0  1  0  0  0  0  0999 V2000
    3.0695   -3.3864    0.2179 Cl  0  0  0  0  0  0  0  0  0  0  0  0
   -3.5032    0.0717    1.9164 O   0  0  0  0  0  0  0  0  0  0  0  0
   -5.5377    0.1742   -0.8337 O   0  0  0  0  0  0  0  0  0  0  0  0
    6.1429    0.7529    0.8738 O   0  0  0  0  0  0  0  0  0  0  0  0
   -2.3044    0.2940   -0.2128 C   0  0  0  0  0  0  0  0  0  0  0  0
   -1.3757   -0.8935    0.1556 C   0  0  0  0  0  0  0  0  0  0  0  0
    0.0087   -0.7788   -0.4981 C   0  0  0  0  0  0  0  0  0  0  0  0
    0.6794    0.5251    0.0267 C   0  0  0  0  0  0  0  0  0  0  0  0
   -3.5966   -0.1587    0.5135 C   0  0  0  0  0  0  0  0  0  0  0  0
   -1.6444    1.5871    0.2968 C   0  0  0  0  0  0  0  0  0  0  0  0
   -2.2408   -2.1172   -0.1398 C   0  0  0  0  0  0  0  0  0  0  0  0
   -0.2131    1.7609   -0.2496 C   0  0  0  0  0  0  0  0  0  0  0  0
    2.1702    0.6407   -0.4558 C   0  0  0  0  0  0  0  0  0  0  0  0
   -3.6690   -1.6784    0.2450 C   0  0  0  0  0  0  0  0  0  0  0  0
   -2.5677    0.4224   -1.7402 C   0  0  0  0  0  0  0  0  0  0  0  0
    0.8941   -1.9684   -0.2465 C   0  0  0  0  0  0  0  0  0  0  0  0
    2.9449   -0.6076    0.0275 C   0  0  0  0  0  0  0  0  0  0  0  0
    2.7986    1.9208    0.1612 C   0  0  0  0  0  0  0  0  0  0  0  0
   -4.8394    0.5694    0.0985 C   0  0  0  0  0  0  0  0  0  0  0  0
    2.2705    0.7248   -1.9976 C   0  0  0  0  0  0  0  0  0  0  0  0
    2.2130   -1.8836   -0.0010 C   0  0  0  0  0  0  0  0  0  0  0  0
    4.3070    1.9990   -0.0090 C   0  0  0  0  0  0  0  0  0  0  0  0
    4.2126   -0.5254    0.4763 C   0  0  0  0  0  0  0  0  0  0  0  0
   -5.1919    1.8061    0.8798 C   0  0  0  0  0  0  0  0  0  0  0  0
    4.9725    0.7487    0.4950 C   0  0  0  0  0  0  0  0  0  0  0  0
  1 21  1  0
  2  9  1  0
  3 19  2  0
  4 25  2  0
  5  6  1  0
  5  9  1  0
  5 10  1  0
  5 15  1  0
  6  7  1  0
  6 11  1  0
  7  8  1  0
  7 16  1  0
  8 12  1  0
  8 13  1  0
  9 14  1  0
  9 19  1  0
 10 12  1  0
 11 14  1  0
 13 17  1  0
 13 18  1  0
 13 20  1  0
 16 21  2  0
 17 21  1  0
 17 23  2  0
 18 22  1  0
 19 24  1  0
 22 25  1  0
 23 25  1  0
M  END
>  <PUBCHEM_COMPOUND_CID>  (1) 
16065

>  <PUBCHEM_CONFORMER_RMSD>  (1) 
0.6

>  <PUBCHEM_CONFORMER_DIVERSEORDER>  (1) 
1
26
18
14
30
17
42
33
5
35
20
38
2
29
24
22
37
39
25
19
12
21
34
43
10
15
16
23
3
32
41
40
4
36
9
31
8
11
7
28
13
6
27

>  <PUBCHEM_MMFF94_PARTIAL_CHARGES>  (1) 
18
1 -0.14
13 0.14
16 -0.29
17 -0.14
19 0.45
2 -0.68
21 0.14
22 0.06
23 -0.14
24 0.06
25 0.49
3 -0.57
4 -0.57
40 0.15
46 0.4
49 0.15
7 0.14
9 0.34

>  <PUBCHEM_EFFECTIVE_ROTOR_COUNT>  (1) 
2.4

>  <PUBCHEM_PHARMACOPHORE_FEATURES>  (1) 
8
1 2 acceptor
1 2 donor
1 3 acceptor
1 4 acceptor
5 5 6 9 11 14 rings
6 13 17 18 22 23 25 rings
6 5 6 7 8 10 12 rings
6 7 8 13 16 17 21 rings

>  <PUBCHEM_HEAVY_ATOM_COUNT>  (1) 
25

>  <PUBCHEM_ATOM_DEF_STEREO_COUNT>  (1) 
3

>  <PUBCHEM_ATOM_UDEF_STEREO_COUNT>  (1) 
3

>  <PUBCHEM_BOND_DEF_STEREO_COUNT>  (1) 
0

>  <PUBCHEM_BOND_UDEF_STEREO_COUNT>  (1) 
0

>  <PUBCHEM_ISOTOPIC_ATOM_COUNT>  (1) 
0

>  <PUBCHEM_COMPONENT_COUNT>  (1) 
1

>  <PUBCHEM_CACTVS_TAUTO_COUNT>  (1) 
4

>  <PUBCHEM_CONFORMER_ID>  (1) 
00003EC100000001

>  <PUBCHEM_MMFF94_ENERGY>  (1) 
81.6462

>  <PUBCHEM_FEATURE_SELFOVERLAP>  (1) 
40.69

>  <PUBCHEM_SHAPE_FINGERPRINT>  (1) 
10411042 1 17762618391649829910
10906281 52 18114478824386741056
11089746 13 17846774130817328008
11132069 177 18408610279017471775
11578080 2 16952234427581237598
12107183 9 17766002692602145321
12236239 1 17775563122246510167
12403814 3 17821727260737629173
12422481 6 18186793660984983540
12633257 1 17023184976185819186
12788726 201 17274828986970003841
13073987 5 18340773654969621609
13140716 1 18195246835043870952
13224815 77 18409169934577924726
13533116 47 18342734070610480651
13583140 156 18130786810761653219
13675066 3 17967819348907733851
14178342 30 18337394971016092291
14223421 5 18336824183084758110
14341114 176 18409733932972923282
14739800 52 17560787819670151946
14790565 3 18121225535135961044
15163728 17 15409511879041513865
15196674 1 18410856598336888146
15375358 24 18408606963503062387
15788980 27 17385438855896609749
15840311 113 18125169234806460937
1601671 61 18410293627420261800
16945 1 18411422786711325710
17349148 13 17967250936019753500
1813 80 16950570947617744926
19591789 44 18050846912358884082
19784866 9 18412262852655782250
200 152 18273490195985091895
20511986 3 18201422658892151793
20715895 44 18192990422920846765
21033648 29 18115567323212663244
21267235 1 18338243755206323214
21421861 104 18115301173142949682
21452121 103 18411418376006837418
21859007 373 17315340437435433933
22182313 1 17822844265165834910
23402539 116 18201713002865721516
23559900 14 18340205185493296314
26918003 58 17822009826050652257
296302 2 18202565081290372663
335352 9 18410855452287573718
34797466 226 15554168185013761009
34934 24 18412541011680662103
350125 39 18337394846957659604
3545911 37 18408603656130376606
3633792 109 18338507540103967253
3680242 22 18336264548766877562
4340502 62 18113625577709906059
474 4 18411981394753484560
5104073 3 18335991878673934795
59755656 215 18409452458207300302
633830 44 18201722911714099692
7364860 26 18340488872657518518
7495541 125 13334746742503687340
9709674 26 18408046203740888579

>  <PUBCHEM_SHAPE_MULTIPOLES>  (1) 
498.75
11.33
2.61
1.15
1.24
1.5
-0.28
-3.34
2.64
-1.71
0.2
0.41
-0.25
-0.25

>  <PUBCHEM_SHAPE_SELFOVERLAP>  (1) 
1070.729

>  <PUBCHEM_SHAPE_VOLUME>  (1) 
277

>  <PUBCHEM_COORDINATE_TYPE>  (1) 
2
5
10

$$$$
