16077
     RDKit          3D

 13 14  0  0  1  0  0  0  0  0999 V2000
   -0.7947    2.6044   -0.2301 O   0  0  0  0  0  0  0  0  0  0  0  0
    3.0166    0.0072   -0.2385 O   0  0  0  0  0  0  0  0  0  0  0  0
    1.1230    1.3329   -0.1496 N   0  0  0  0  0  0  0  0  0  0  0  0
   -0.4317   -0.9827   -0.5521 C   0  0  0  0  0  0  0  0  0  0  0  0
   -1.0513    0.2156    0.2225 C   0  0  0  0  0  0  0  0  0  0  0  0
    0.9081   -1.0769    0.2111 C   0  0  0  0  0  0  0  0  0  0  0  0
   -0.7724   -0.1314    1.7072 C   0  0  0  0  0  0  0  0  0  0  0  0
    0.5083   -0.9813    1.6929 C   0  0  0  0  0  0  0  0  0  0  0  0
   -0.2600    1.5065   -0.0834 C   0  0  0  0  0  0  0  0  0  0  0  0
   -1.2330   -2.2982   -0.3921 C   0  0  0  0  0  0  0  0  0  0  0  0
   -0.2720   -0.7590   -2.0682 C   0  0  0  0  0  0  0  0  0  0  0  0
   -2.5421    0.4451   -0.0265 C   0  0  0  0  0  0  0  0  0  0  0  0
    1.8012    0.1178   -0.0933 C   0  0  0  0  0  0  0  0  0  0  0  0
  1  9  2  0
  2 13  2  0
  3  9  1  0
  3 13  1  0
  4  5  1  0
  4  6  1  0
  4 10  1  0
  4 11  1  0
  5  7  1  0
  5  9  1  0
  5 12  1  0
  6  8  1  0
  6 13  1  0
  7  8  1  0
M  END
>  <PUBCHEM_COMPOUND_CID>  (1) 
16077

>  <PUBCHEM_CONFORMER_RMSD>  (1) 
0.4

>  <PUBCHEM_CONFORMER_DIVERSEORDER>  (1) 
1
2

>  <PUBCHEM_MMFF94_PARTIAL_CHARGES>  (1) 
8
1 -0.57
13 0.57
2 -0.57
28 0.37
3 -0.49
5 0.06
6 0.06
9 0.57

>  <PUBCHEM_EFFECTIVE_ROTOR_COUNT>  (1) 
0.8

>  <PUBCHEM_PHARMACOPHORE_FEATURES>  (1) 
5
1 1 acceptor
1 2 acceptor
1 3 donor
3 4 10 11 hydrophobe
8 3 4 5 6 7 8 9 13 rings

>  <PUBCHEM_HEAVY_ATOM_COUNT>  (1) 
13

>  <PUBCHEM_ATOM_DEF_STEREO_COUNT>  (1) 
0

>  <PUBCHEM_ATOM_UDEF_STEREO_COUNT>  (1) 
2

>  <PUBCHEM_BOND_DEF_STEREO_COUNT>  (1) 
0

>  <PUBCHEM_BOND_UDEF_STEREO_COUNT>  (1) 
0

>  <PUBCHEM_ISOTOPIC_ATOM_COUNT>  (1) 
0

>  <PUBCHEM_COMPONENT_COUNT>  (1) 
1

>  <PUBCHEM_CACTVS_TAUTO_COUNT>  (1) 
3

>  <PUBCHEM_CONFORMER_ID>  (1) 
00003ECD00000001

>  <PUBCHEM_MMFF94_ENERGY>  (1) 
47.2727

>  <PUBCHEM_FEATURE_SELFOVERLAP>  (1) 
25.371

>  <PUBCHEM_SHAPE_FINGERPRINT>  (1) 
10702982 57 18410849971329041951
12423570 1 11586677022711480083
13024252 1 17458632245709540426
137420 1 12865877193102964035
144361 1 17989199382479858615
14817 1 16258617476615762679
15557651 10 17631432493652416417
16945 1 18411139117011646832
23419403 2 16739464981298975963
2748010 2 18195808698322866228
369184 2 18408885174415410898
5084963 1 17771899437612337467
528886 8 18341606023177623015
68250623 7 17835533991192833011

>  <PUBCHEM_SHAPE_MULTIPOLES>  (1) 
250.81
2.42
2.04
1.47
0.92
0.51
0.1
0.14
-0.16
-0.67
-0.32
-0.13
-0.49
-0.2

>  <PUBCHEM_SHAPE_SELFOVERLAP>  (1) 
535.576

>  <PUBCHEM_SHAPE_VOLUME>  (1) 
141.9

>  <PUBCHEM_COORDINATE_TYPE>  (1) 
2
5
10

$$$$
