16072
     RDKit          3D

 14 14  0  0  0  0  0  0  0  0999 V2000
    3.4029    2.3208   -0.0057 Cl  0  0  0  0  0  0  0  0  0  0  0  0
    4.7374   -0.5053    0.8365 Cl  0  0  0  0  0  0  0  0  0  0  0  0
   -1.8235   -0.0415    0.1307 O   0  0  0  0  0  0  0  0  0  0  0  0
   -3.6618   -0.0776   -1.2456 O   0  0  0  0  0  0  0  0  0  0  0  0
   -3.8556    0.2235    1.0466 N   0  0  0  0  0  0  0  0  0  0  0  0
    0.4523   -0.2951   -0.5487 C   0  0  0  0  0  0  0  0  0  0  0  0
   -0.9762   -0.2465   -1.0054 C   0  0  0  0  0  0  0  0  0  0  0  0
    1.1953    0.8785   -0.4871 C   0  0  0  0  0  0  0  0  0  0  0  0
    1.0191   -1.5128   -0.1897 C   0  0  0  0  0  0  0  0  0  0  0  0
    2.5227    0.8337   -0.0608 C   0  0  0  0  0  0  0  0  0  0  0  0
    2.3464   -1.5576    0.2366 C   0  0  0  0  0  0  0  0  0  0  0  0
    3.0981   -0.3845    0.3012 C   0  0  0  0  0  0  0  0  0  0  0  0
   -3.1634    0.0250   -0.1295 C   0  0  0  0  0  0  0  0  0  0  0  0
   -5.2938    0.3392    1.1209 C   0  0  0  0  0  0  0  0  0  0  0  0
  1 10  1  0
  2 12  1  0
  3  7  1  0
  3 13  1  0
  4 13  2  0
  5 13  1  0
  5 14  1  0
  6  7  1  0
  6  8  2  0
  6  9  1  0
  8 10  1  0
  9 11  2  0
 10 12  2  0
 11 12  1  0
M  END
>  <PUBCHEM_COMPOUND_CID>  (1) 
16072

>  <PUBCHEM_CONFORMER_RMSD>  (1) 
0.6

>  <PUBCHEM_CONFORMER_DIVERSEORDER>  (1) 
1
35
28
3
25
36
31
32
8
7
20
19
4
27
33
2
34
26
21
18
17
22
5
6
29
30
11
12
23
10
15
13
9
24
16
14

>  <PUBCHEM_MMFF94_PARTIAL_CHARGES>  (1) 
18
1 -0.18
10 0.18
11 -0.15
12 0.18
13 0.78
14 0.3
17 0.15
18 0.15
19 0.15
2 -0.18
20 0.37
3 -0.43
4 -0.57
5 -0.73
6 -0.14
7 0.42
8 -0.15
9 -0.15

>  <PUBCHEM_EFFECTIVE_ROTOR_COUNT>  (1) 
4

>  <PUBCHEM_PHARMACOPHORE_FEATURES>  (1) 
3
1 4 acceptor
1 5 donor
6 6 8 9 10 11 12 rings

>  <PUBCHEM_HEAVY_ATOM_COUNT>  (1) 
14

>  <PUBCHEM_ATOM_DEF_STEREO_COUNT>  (1) 
0

>  <PUBCHEM_ATOM_UDEF_STEREO_COUNT>  (1) 
0

>  <PUBCHEM_BOND_DEF_STEREO_COUNT>  (1) 
0

>  <PUBCHEM_BOND_UDEF_STEREO_COUNT>  (1) 
0

>  <PUBCHEM_ISOTOPIC_ATOM_COUNT>  (1) 
0

>  <PUBCHEM_COMPONENT_COUNT>  (1) 
1

>  <PUBCHEM_CACTVS_TAUTO_COUNT>  (1) 
2

>  <PUBCHEM_CONFORMER_ID>  (1) 
00003EC800000001

>  <PUBCHEM_MMFF94_ENERGY>  (1) 
23.1918

>  <PUBCHEM_FEATURE_SELFOVERLAP>  (1) 
15.223

>  <PUBCHEM_SHAPE_FINGERPRINT>  (1) 
10354089 29 18343869900344373355
10498660 4 14907353949041814659
10980938 120 18412820309166813724
11471102 20 18336254700602033268
12251169 10 18409729551636899719
12644460 14 18114174272867487816
13296908 3 17095241410783011431
14252887 29 18261393291599559746
14445660 50 18342740749574587951
16945 1 18264188297765750126
18186145 218 18413389847394215476
19050596 39 18342176682829390819
20233049 118 16630525115952834282
20279233 1 17603584106463316783
20645477 70 18190445100430681439
20871998 22 18194962942491222142
212847 35 17918277558157388992
21637258 2 14707194510346710490
23402539 116 15051722080325796584
23557571 272 16371275633068904463
26918003 58 18187086139899814041
2838139 119 15193849459312116256
42 15 17894636937505699019
5104073 3 18336825406707462899
633830 44 18202290237737899332

>  <PUBCHEM_SHAPE_MULTIPOLES>  (1) 
275.13
9.78
1.56
1.03
9.63
0.51
-0.02
1.45
-3.86
-2.23
-0.01
0.82
-0.01
-0.48

>  <PUBCHEM_SHAPE_SELFOVERLAP>  (1) 
545.886

>  <PUBCHEM_SHAPE_VOLUME>  (1) 
165.7

>  <PUBCHEM_COORDINATE_TYPE>  (1) 
2
5
10

$$$$
