16081
     RDKit          3D

 18 19  0  0  0  0  0  0  0  0999 V2000
    2.3092    2.3440   -0.0709 N   0  0  0  0  0  0  0  0  0  0  0  0
    2.3095   -2.3432    0.0713 N   0  0  0  0  0  0  0  0  0  0  0  0
    0.2633   -1.1992    0.0366 N   0  0  0  0  0  0  0  0  0  0  0  0
    0.2629    1.1991   -0.0362 N   0  0  0  0  0  0  0  0  0  0  0  0
    2.3412    0.0002    0.0011 N   0  0  0  0  0  0  0  0  0  0  0  0
   -0.3323   -0.0002   -0.0001 C   0  0  0  0  0  0  0  0  0  0  0  0
   -1.7793   -0.0006    0.0001 C   0  0  0  0  0  0  0  0  0  0  0  0
    1.6035    1.1218   -0.0334 C   0  0  0  0  0  0  0  0  0  0  0  0
    1.6038   -1.1215    0.0346 C   0  0  0  0  0  0  0  0  0  0  0  0
    1.6565    3.6151   -0.1103 C   0  0  0  0  0  0  0  0  0  0  0  0
    1.6574   -3.6149    0.1091 C   0  0  0  0  0  0  0  0  0  0  0  0
   -2.4768    1.0633    0.5725 C   0  0  0  0  0  0  0  0  0  0  0  0
   -2.4768   -1.0641   -0.5727 C   0  0  0  0  0  0  0  0  0  0  0  0
    2.6846    4.7300   -0.1220 C   0  0  0  0  0  0  0  0  0  0  0  0
    2.6860   -4.7293    0.1203 C   0  0  0  0  0  0  0  0  0  0  0  0
   -3.8717    1.0633    0.5726 C   0  0  0  0  0  0  0  0  0  0  0  0
   -3.8717   -1.0639   -0.5727 C   0  0  0  0  0  0  0  0  0  0  0  0
   -4.5691   -0.0001    0.0000 C   0  0  0  0  0  0  0  0  0  0  0  0
  1  8  1  0
  1 10  1  0
  2  9  1  0
  2 11  1  0
  3  6  2  0
  3  9  1  0
  4  6  1  0
  4  8  2  0
  5  8  1  0
  5  9  2  0
  6  7  1  0
  7 12  2  0
  7 13  1  0
 10 14  1  0
 11 15  1  0
 12 16  1  0
 13 17  2  0
 16 18  2  0
 17 18  1  0
M  END
>  <PUBCHEM_COMPOUND_CID>  (1) 
16081

>  <PUBCHEM_CONFORMER_RMSD>  (1) 
0.6

>  <PUBCHEM_CONFORMER_DIVERSEORDER>  (1) 
1
2
15
16
14
10
13
12
9
23
26
6
19
3
4
20
22
21
24
7
18
25
8
11
17
5

>  <PUBCHEM_MMFF94_PARTIAL_CHARGES>  (1) 
22
1 -0.87
10 0.37
11 0.37
12 -0.15
13 -0.15
16 -0.15
17 -0.15
18 -0.15
2 -0.87
23 0.4
24 0.4
25 0.15
26 0.15
3 -0.62
33 0.15
34 0.15
35 0.15
4 -0.62
5 -0.62
6 0.62
8 0.72
9 0.72

>  <PUBCHEM_EFFECTIVE_ROTOR_COUNT>  (1) 
5

>  <PUBCHEM_PHARMACOPHORE_FEATURES>  (1) 
6
1 1 donor
1 2 donor
4 1 4 5 8 cation
4 2 3 5 9 cation
6 3 4 5 6 8 9 rings
6 7 12 13 16 17 18 rings

>  <PUBCHEM_HEAVY_ATOM_COUNT>  (1) 
18

>  <PUBCHEM_ATOM_DEF_STEREO_COUNT>  (1) 
0

>  <PUBCHEM_ATOM_UDEF_STEREO_COUNT>  (1) 
0

>  <PUBCHEM_BOND_DEF_STEREO_COUNT>  (1) 
0

>  <PUBCHEM_BOND_UDEF_STEREO_COUNT>  (1) 
0

>  <PUBCHEM_ISOTOPIC_ATOM_COUNT>  (1) 
0

>  <PUBCHEM_COMPONENT_COUNT>  (1) 
1

>  <PUBCHEM_CACTVS_TAUTO_COUNT>  (1) 
5

>  <PUBCHEM_CONFORMER_ID>  (1) 
00003ED100000001

>  <PUBCHEM_MMFF94_ENERGY>  (1) 
49.4048

>  <PUBCHEM_FEATURE_SELFOVERLAP>  (1) 
30.489

>  <PUBCHEM_SHAPE_FINGERPRINT>  (1) 
10411042 1 18050005489500525003
11056379 131 17403183595402072334
12553582 1 18050284769474933183
12643181 29 15745570722659976286
12788726 201 17397271529462761210
13052359 8 17401477642569740784
13134695 92 18265329500018420591
13140716 1 18266180715149448464
138480 1 18338516326931658850
13955234 65 18410299129215294291
14178342 30 18270098206402468451
14866123 147 16608851237930510259
15042514 8 16968581274751352946
15442244 35 18197218044886383363
15842332 3 18059859467785807971
17492 89 18411418385151328971
17539 30 17402320482651737550
19427546 20 17400092868411345662
20645477 70 18334566924594908663
20671657 1 18411426132506686573
21426921 1 17401488144166349262
21499 59 18121494923757916853
21524375 3 18056762263162264988
2255824 54 18411138060560468310
23366157 5 18335421266055491531
23419403 2 13703948414752124410
23463225 33 18198060283694544567
23559900 14 18410567384224742683
283562 15 16389011142567912112
3071541 12 18411423937852368068
3091708 16 9360112242303208984
4409770 3 17039509094458141748
474 4 18266176313014230953
54173680 148 17472980601784668552
5486654 2 17473828802165257175
633830 44 18127982003664956877
6992083 37 17767698156769982665
7097593 13 18341895130638272875
7364860 26 18411418410092132612
77188 2 18194119608039288324
84936 182 18200314462635463937
90316 7 17835238943955884947
9709674 26 18408605851439576251
9981440 41 18121493828483137273

>  <PUBCHEM_SHAPE_MULTIPOLES>  (1) 
345.53
6.76
5.86
0.67
7.82
0.01
0
0
0
-10.83
0
0.27
0
-0.78

>  <PUBCHEM_SHAPE_SELFOVERLAP>  (1) 
722.659

>  <PUBCHEM_SHAPE_VOLUME>  (1) 
187.5

>  <PUBCHEM_COORDINATE_TYPE>  (1) 
2
5
10

$$$$
