16082
     RDKit          3D

 15 16  0  0  0  0  0  0  0  0999 V2000
    2.5570   -3.1450   -0.2364 Cl  0  0  0  0  0  0  0  0  0  0  0  0
    0.8332    0.8796    0.0724 N   0  0  0  0  0  0  0  0  0  0  0  0
    3.0025    1.7681    0.1478 N   0  0  0  0  0  0  0  0  0  0  0  0
    0.5460   -1.4954   -0.1141 N   0  0  0  0  0  0  0  0  0  0  0  0
    2.7527   -0.5565   -0.0331 N   0  0  0  0  0  0  0  0  0  0  0  0
   -1.3382   -0.0639   -0.0091 C   0  0  0  0  0  0  0  0  0  0  0  0
    0.0984   -0.2367   -0.0174 C   0  0  0  0  0  0  0  0  0  0  0  0
   -1.9033    1.1021   -0.5259 C   0  0  0  0  0  0  0  0  0  0  0  0
   -2.1581   -1.0632    0.5153 C   0  0  0  0  0  0  0  0  0  0  0  0
    2.1548    0.6424    0.0584 C   0  0  0  0  0  0  0  0  0  0  0  0
   -3.2881    1.2688   -0.5182 C   0  0  0  0  0  0  0  0  0  0  0  0
   -3.5429   -0.8964    0.5228 C   0  0  0  0  0  0  0  0  0  0  0  0
   -4.1079    0.2696    0.0061 C   0  0  0  0  0  0  0  0  0  0  0  0
    1.8862   -1.5788   -0.1161 C   0  0  0  0  0  0  0  0  0  0  0  0
    2.5076    3.1052    0.2476 C   0  0  0  0  0  0  0  0  0  0  0  0
  1 14  1  0
  2  7  2  0
  2 10  1  0
  3 10  1  0
  3 15  1  0
  4  7  1  0
  4 14  2  0
  5 10  2  0
  5 14  1  0
  6  7  1  0
  6  8  2  0
  6  9  1  0
  8 11  1  0
  9 12  2  0
 11 13  2  0
 12 13  1  0
M  END
>  <PUBCHEM_COMPOUND_CID>  (1) 
16082

>  <PUBCHEM_CONFORMER_RMSD>  (1) 
0.6

>  <PUBCHEM_CONFORMER_DIVERSEORDER>  (1) 
1
2
3

>  <PUBCHEM_MMFF94_PARTIAL_CHARGES>  (1) 
20
1 -0.18
10 0.72
11 -0.15
12 -0.15
13 -0.15
14 0.8
15 0.37
16 0.15
17 0.15
18 0.15
19 0.15
2 -0.62
20 0.15
21 0.4
3 -0.87
4 -0.62
5 -0.62
7 0.62
8 -0.15
9 -0.15

>  <PUBCHEM_EFFECTIVE_ROTOR_COUNT>  (1) 
2

>  <PUBCHEM_PHARMACOPHORE_FEATURES>  (1) 
4
1 3 donor
4 2 3 5 10 cation
6 2 4 5 7 10 14 rings
6 6 8 9 11 12 13 rings

>  <PUBCHEM_HEAVY_ATOM_COUNT>  (1) 
15

>  <PUBCHEM_ATOM_DEF_STEREO_COUNT>  (1) 
0

>  <PUBCHEM_ATOM_UDEF_STEREO_COUNT>  (1) 
0

>  <PUBCHEM_BOND_DEF_STEREO_COUNT>  (1) 
0

>  <PUBCHEM_BOND_UDEF_STEREO_COUNT>  (1) 
0

>  <PUBCHEM_ISOTOPIC_ATOM_COUNT>  (1) 
0

>  <PUBCHEM_COMPONENT_COUNT>  (1) 
1

>  <PUBCHEM_CACTVS_TAUTO_COUNT>  (1) 
4

>  <PUBCHEM_CONFORMER_ID>  (1) 
00003ED200000001

>  <PUBCHEM_MMFF94_ENERGY>  (1) 
43.0523

>  <PUBCHEM_FEATURE_SELFOVERLAP>  (1) 
20.297

>  <PUBCHEM_SHAPE_FINGERPRINT>  (1) 
10608611 8 18335416851040387261
10980938 120 18412544344411526176
11471102 20 18411979148232381108
13380535 76 18263359346827325610
13897977 150 18410007766986692277
14026960 21 18118406386768227945
14325111 11 18409166623495827541
14415576 193 18335986462282401884
14648413 74 18409165480702087632
14866123 147 16249126187434627827
15219456 202 18408041810231405153
15375462 6 18409449210742409045
15442244 35 18124881157388291449
16945 1 18412261727000005422
17041 50 18193556666491386710
17804303 29 18118129073952261951
17990270 104 18337952290267479498
18186145 218 18129675208558573032
19049666 15 18261955133292825217
200 152 17988069003496989919
20645477 56 18114179714490889925
20645477 70 18339919329776336719
20671657 53 18055078661804712838
21501502 16 18412260640763617655
21524375 3 18056197123075722300
22096605 113 18340763831815094801
221490 88 18408893918510448275
2255824 54 18341896277331490822
22854114 111 18413388760751872896
22943178 12 18259985959776124227
23557571 272 17458340836747878829
23559900 14 18338509742588856987
2748010 2 18259987059134790871
3084891 72 17112400118436310117
458136 41 18194422171263315320
5104073 3 18334860507041820305
54173680 148 17330555346133106222
6049 1 18114758048647477891
7364860 26 18411982442725569614
74978 22 18339082566888226675
81228 2 17263289432269257634
8809292 202 18116441345052237947
9709674 26 18408325484316365123

>  <PUBCHEM_SHAPE_MULTIPOLES>  (1) 
290.64
6.63
2.94
0.69
3.99
0.27
0
0.43
-0.11
-4.02
-0.01
0.2
-0.01
0.81

>  <PUBCHEM_SHAPE_SELFOVERLAP>  (1) 
614.549

>  <PUBCHEM_SHAPE_VOLUME>  (1) 
160.7

>  <PUBCHEM_COORDINATE_TYPE>  (1) 
2
5
10

$$$$
