16080
     RDKit          3D

 27 29  0  0  1  0  0  0  0  0999 V2000
    3.2069   -3.8340    2.0973 Cl  0  0  0  0  0  0  0  0  0  0  0  0
    1.8353    0.7087    2.3539 F   0  0  0  0  0  0  0  0  0  0  0  0
   -0.3270    1.1379   -3.1655 O   0  0  0  0  0  0  0  0  0  0  0  0
   -0.1889   -0.5055   -1.5179 N   0  0  0  0  0  0  0  0  0  0  0  0
    2.6324    0.8930   -1.8686 N   0  0  0  0  0  0  0  0  0  0  0  0
   -3.5702   -0.3573    0.0719 N   0  0  0  0  0  0  0  0  0  0  0  0
    2.3501    0.6406   -0.4440 C   0  0  0  0  0  0  0  0  0  0  0  0
    1.8740   -0.7852   -0.1604 C   0  0  0  0  0  0  0  0  0  0  0  0
    0.6258   -1.2712   -0.6179 C   0  0  0  0  0  0  0  0  0  0  0  0
   -1.6404   -0.6301   -1.4051 C   0  0  0  0  0  0  0  0  0  0  0  0
   -2.1190   -0.2539   -0.0106 C   0  0  0  0  0  0  0  0  0  0  0  0
    1.8100    0.1557   -2.8171 C   0  0  0  0  0  0  0  0  0  0  0  0
    0.3400    0.3356   -2.5071 C   0  0  0  0  0  0  0  0  0  0  0  0
    1.4914    1.7202    0.2341 C   0  0  0  0  0  0  0  0  0  0  0  0
    2.6666   -1.6002    0.6711 C   0  0  0  0  0  0  0  0  0  0  0  0
    0.1806   -2.5256   -0.1638 C   0  0  0  0  0  0  0  0  0  0  0  0
   -4.0381    0.0033    1.4117 C   0  0  0  0  0  0  0  0  0  0  0  0
   -4.0118   -1.7104   -0.2721 C   0  0  0  0  0  0  0  0  0  0  0  0
    2.2223   -2.8558    1.0786 C   0  0  0  0  0  0  0  0  0  0  0  0
    0.9752   -3.3122    0.6714 C   0  0  0  0  0  0  0  0  0  0  0  0
    1.2898    1.6803    1.6091 C   0  0  0  0  0  0  0  0  0  0  0  0
    0.9234    2.7283   -0.5366 C   0  0  0  0  0  0  0  0  0  0  0  0
   -3.5910    1.4050    1.7906 C   0  0  0  0  0  0  0  0  0  0  0  0
   -5.5275   -1.8140   -0.2550 C   0  0  0  0  0  0  0  0  0  0  0  0
    0.5100    2.6615    2.2214 C   0  0  0  0  0  0  0  0  0  0  0  0
    0.1434    3.7093    0.0757 C   0  0  0  0  0  0  0  0  0  0  0  0
   -0.0634    3.6759    1.4547 C   0  0  0  0  0  0  0  0  0  0  0  0
  1 19  1  0
  2 21  1  0
  3 13  2  0
  4  9  1  0
  4 10  1  0
  4 13  1  0
  5  7  1  0
  5 12  1  0
  6 11  1  0
  6 17  1  0
  6 18  1  0
  7  8  1  0
  7 14  1  0
  8  9  2  0
  8 15  1  0
  9 16  1  0
 10 11  1  0
 12 13  1  0
 14 21  2  0
 14 22  1  0
 15 19  2  0
 16 20  2  0
 17 23  1  0
 18 24  1  0
 19 20  1  0
 21 25  1  0
 22 26  2  0
 25 27  2  0
 26 27  1  0
M  END
>  <PUBCHEM_COMPOUND_CID>  (1) 
16080

>  <PUBCHEM_CONFORMER_RMSD>  (1) 
0.8

>  <PUBCHEM_CONFORMER_DIVERSEORDER>  (1) 
1
56
161
148
100
88
55
121
105
67
135
125
124
137
71
128
22
75
107
78
115
95
51
136
147
28
146
118
94
18
85
108
132
143
140
33
72
144
145
16
74
152
77
117
130
84
59
149
66
44
40
54
156
157
116
39
38
89
82
69
150
103
151
43
48
11
114
70
65
99
73
139
32
110
159
8
36
154
31
86
112
6
126
134
138
109
160
68
79
46
141
37
98
113
101
119
52
92
76
131
142
93
58
129
90
3
153
35
4
81
12
106
61
111
158
41
133
62
96
127
102
64
122
7
60
104
26
30
2
120
155
5
53
45
63
19
57
80
34
50
42
13
14
17
49
91
25
47
20
10
15
97
27
123
23
21
9
87
24
29
83

>  <PUBCHEM_MMFF94_PARTIAL_CHARGES>  (1) 
33
1 -0.18
10 0.3
11 0.27
12 0.33
13 0.57
14 -0.14
15 -0.15
16 -0.15
17 0.27
18 0.27
19 0.18
2 -0.19
20 -0.15
21 0.19
22 -0.15
25 -0.15
26 -0.15
27 -0.15
3 -0.57
33 0.36
36 0.15
37 0.15
4 -0.48
42 0.15
43 0.15
5 -0.9
50 0.15
51 0.15
52 0.15
6 -0.81
7 0.56
8 -0.14
9 0.12

>  <PUBCHEM_EFFECTIVE_ROTOR_COUNT>  (1) 
6.8

>  <PUBCHEM_PHARMACOPHORE_FEATURES>  (1) 
7
1 3 acceptor
1 5 cation
1 5 donor
1 6 cation
6 14 21 22 25 26 27 rings
6 8 9 15 16 19 20 rings
7 4 5 7 8 9 12 13 rings

>  <PUBCHEM_HEAVY_ATOM_COUNT>  (1) 
27

>  <PUBCHEM_ATOM_DEF_STEREO_COUNT>  (1) 
0

>  <PUBCHEM_ATOM_UDEF_STEREO_COUNT>  (1) 
1

>  <PUBCHEM_BOND_DEF_STEREO_COUNT>  (1) 
0

>  <PUBCHEM_BOND_UDEF_STEREO_COUNT>  (1) 
0

>  <PUBCHEM_ISOTOPIC_ATOM_COUNT>  (1) 
0

>  <PUBCHEM_COMPONENT_COUNT>  (1) 
1

>  <PUBCHEM_CACTVS_TAUTO_COUNT>  (1) 
1

>  <PUBCHEM_CONFORMER_ID>  (1) 
00003ED000000001

>  <PUBCHEM_MMFF94_ENERGY>  (1) 
84.8871

>  <PUBCHEM_FEATURE_SELFOVERLAP>  (1) 
35.534

>  <PUBCHEM_SHAPE_FINGERPRINT>  (1) 
10165383 225 17972317579826420084
10366900 7 18263092170450929403
11221954 11 17265823192137782641
11421498 54 18191333544126630056
11578080 2 18262500551538326821
12156800 1 17480605753546703510
13135754 10 17624129408878469934
13583140 156 18339629153580798663
13965767 371 17346302813295077265
15475509 84 18193832653064077065
20600515 1 17630330727393761307
20691752 17 18193860329744161949
20905425 154 18060148626048074409
21421861 104 17976568033896416713
23419403 2 17901634139305433570
23559900 14 17749105634546955135
238 59 17698741516319390721
3052486 1 17766871353911843921
3380486 145 17617883268083763674
35225 105 16960983614837954771
469060 322 16955361357094038082
484985 159 17253131043945350138
57527358 35 15047204415092157992
57527573 199 16982639544388329577
8509985 295 18124327012798588537
9999458 23 18194117653834515061

>  <PUBCHEM_SHAPE_MULTIPOLES>  (1) 
529.43
6.14
4.69
2.7
9.78
0.86
1.17
-5.69
-2
-2.2
-2.87
-1.12
0.93
-2.05

>  <PUBCHEM_SHAPE_SELFOVERLAP>  (1) 
1114.413

>  <PUBCHEM_SHAPE_VOLUME>  (1) 
297.8

>  <PUBCHEM_COORDINATE_TYPE>  (1) 
2
5
10

$$$$
