16083
     RDKit          3D

  9  9  0  0  0  0  0  0  0  0999 V2000
   -2.6016    1.4772   -0.0001 Cl  0  0  0  0  0  0  0  0  0  0  0  0
    2.6008    1.4786    0.0003 Cl  0  0  0  0  0  0  0  0  0  0  0  0
    1.2000   -0.7166   -0.0002 N   0  0  0  0  0  0  0  0  0  0  0  0
   -1.1996   -0.7172    0.0003 N   0  0  0  0  0  0  0  0  0  0  0  0
   -0.0003    1.3612   -0.0001 N   0  0  0  0  0  0  0  0  0  0  0  0
    0.0004   -1.3199    0.0000 C   0  0  0  0  0  0  0  0  0  0  0  0
    0.0008   -2.8107    0.0000 C   0  0  0  0  0  0  0  0  0  0  0  0
   -1.1223    0.6234    0.0001 C   0  0  0  0  0  0  0  0  0  0  0  0
    1.1219    0.6240   -0.0004 C   0  0  0  0  0  0  0  0  0  0  0  0
  1  8  1  0
  2  9  1  0
  3  6  2  0
  3  9  1  0
  4  6  1  0
  4  8  2  0
  5  8  1  0
  5  9  2  0
  6  7  1  0
M  END
>  <PUBCHEM_COMPOUND_CID>  (1) 
16083

>  <PUBCHEM_CONFORMER_RMSD>  (1) 
0.4

>  <PUBCHEM_CONFORMER_DIVERSEORDER>  (1) 
1

>  <PUBCHEM_MMFF94_PARTIAL_CHARGES>  (1) 
9
1 -0.18
2 -0.18
3 -0.62
4 -0.62
5 -0.62
6 0.48
7 0.14
8 0.8
9 0.8

>  <PUBCHEM_EFFECTIVE_ROTOR_COUNT>  (1) 
0

>  <PUBCHEM_PHARMACOPHORE_FEATURES>  (1) 
4
3 3 4 6 cation
3 3 5 9 cation
3 4 5 8 cation
6 3 4 5 6 8 9 rings

>  <PUBCHEM_HEAVY_ATOM_COUNT>  (1) 
9

>  <PUBCHEM_ATOM_DEF_STEREO_COUNT>  (1) 
0

>  <PUBCHEM_ATOM_UDEF_STEREO_COUNT>  (1) 
0

>  <PUBCHEM_BOND_DEF_STEREO_COUNT>  (1) 
0

>  <PUBCHEM_BOND_UDEF_STEREO_COUNT>  (1) 
0

>  <PUBCHEM_ISOTOPIC_ATOM_COUNT>  (1) 
0

>  <PUBCHEM_COMPONENT_COUNT>  (1) 
1

>  <PUBCHEM_CACTVS_TAUTO_COUNT>  (1) 
1

>  <PUBCHEM_CONFORMER_ID>  (1) 
00003ED300000001

>  <PUBCHEM_MMFF94_ENERGY>  (1) 
13.5362

>  <PUBCHEM_FEATURE_SELFOVERLAP>  (1) 
23.07

>  <PUBCHEM_SHAPE_FINGERPRINT>  (1) 
12716758 59 18268998746741249252
16945 1 18122624942385025541
18185500 45 17402614047919051711
20871998 184 17767976693983865870
21040471 1 18410575123460449728
23552423 10 18195807358525178493
23552449 1 17762898071049590100
241688 4 16897364209707260666
2748010 2 18409737256813276231
29004967 10 17832147117384958457

>  <PUBCHEM_SHAPE_MULTIPOLES>  (1) 
174.01
2.9
2.65
0.6
0
2.01
0
-2.52
0
0
0
0
-0.02
0

>  <PUBCHEM_SHAPE_SELFOVERLAP>  (1) 
338.608

>  <PUBCHEM_SHAPE_VOLUME>  (1) 
102.3

>  <PUBCHEM_COORDINATE_TYPE>  (1) 
2
5
10

$$$$
