16095
     RDKit          3D

 13 13  0  0  0  0  0  0  0  0999 V2000
    1.4373    0.1854   -0.1636 N   0  0  0  0  0  0  0  0  0  0  0  0
    2.9933   -1.0347    1.1270 N   0  0  0  0  0  0  0  0  0  0  0  0
    1.6943   -2.1925   -0.3940 N   0  0  0  0  0  0  0  0  0  0  0  0
    0.3914    0.2900   -1.1793 C   0  0  0  0  0  0  0  0  0  0  0  0
    1.8145    1.4357    0.4930 C   0  0  0  0  0  0  0  0  0  0  0  0
   -0.9685    0.1620   -0.5509 C   0  0  0  0  0  0  0  0  0  0  0  0
    2.9784    2.1027   -0.2106 C   0  0  0  0  0  0  0  0  0  0  0  0
    2.0160   -1.0502    0.1580 C   0  0  0  0  0  0  0  0  0  0  0  0
   -1.5504   -1.0929   -0.4261 C   0  0  0  0  0  0  0  0  0  0  0  0
   -1.6262    1.3001   -0.1023 C   0  0  0  0  0  0  0  0  0  0  0  0
   -2.8119   -1.2119    0.1570 C   0  0  0  0  0  0  0  0  0  0  0  0
   -2.8877    1.1811    0.4810 C   0  0  0  0  0  0  0  0  0  0  0  0
   -3.4805   -0.0749    0.6106 C   0  0  0  0  0  0  0  0  0  0  0  0
  1  4  1  0
  1  5  1  0
  1  8  1  0
  2  8  1  0
  3  8  2  0
  4  6  1  0
  5  7  1  0
  6  9  2  0
  6 10  1  0
  9 11  1  0
 10 12  2  0
 11 13  2  0
 12 13  1  0
M  END
>  <PUBCHEM_COMPOUND_CID>  (1) 
16095

>  <PUBCHEM_CONFORMER_RMSD>  (1) 
0.6

>  <PUBCHEM_CONFORMER_DIVERSEORDER>  (1) 
1
19
21
22
29
14
3
34
26
28
23
24
13
20
10
25
30
2
12
32
17
4
15
9
16
7
5
8
31
6
11
27
18
33

>  <PUBCHEM_MMFF94_PARTIAL_CHARGES>  (1) 
20
1 -0.79
10 -0.15
11 -0.15
12 -0.15
13 -0.15
2 -0.85
21 0.15
22 0.15
23 0.15
24 0.15
25 0.15
26 0.4
27 0.4
28 0.4
3 -0.85
4 0.51
5 0.37
6 -0.14
8 0.55
9 -0.15

>  <PUBCHEM_EFFECTIVE_ROTOR_COUNT>  (1) 
4

>  <PUBCHEM_PHARMACOPHORE_FEATURES>  (1) 
4
1 2 donor
1 3 donor
4 1 2 3 8 cation
6 6 9 10 11 12 13 rings

>  <PUBCHEM_HEAVY_ATOM_COUNT>  (1) 
13

>  <PUBCHEM_ATOM_DEF_STEREO_COUNT>  (1) 
0

>  <PUBCHEM_ATOM_UDEF_STEREO_COUNT>  (1) 
0

>  <PUBCHEM_BOND_DEF_STEREO_COUNT>  (1) 
0

>  <PUBCHEM_BOND_UDEF_STEREO_COUNT>  (1) 
0

>  <PUBCHEM_ISOTOPIC_ATOM_COUNT>  (1) 
0

>  <PUBCHEM_COMPONENT_COUNT>  (1) 
1

>  <PUBCHEM_CACTVS_TAUTO_COUNT>  (1) 
1

>  <PUBCHEM_CONFORMER_ID>  (1) 
00003EDF00000001

>  <PUBCHEM_MMFF94_ENERGY>  (1) 
33.6901

>  <PUBCHEM_FEATURE_SELFOVERLAP>  (1) 
20.346

>  <PUBCHEM_SHAPE_FINGERPRINT>  (1) 
12251169 10 18412824655531259843
12346645 44 18267586995159576692
12382932 28 18196361537986712842
12696612 119 18411415094604207486
12932764 1 18334585628728778181
13296908 3 17312820472558445661
13380535 21 18340498840643304461
14144814 61 18412266125178287889
15076042 46 18270967843075119913
15375462 189 17896314723551665218
15775835 57 18200319938639105521
16945 1 18267302036689718791
17804303 29 18264498277849697015
17841504 4 18338516339690051250
17990270 104 18339360769042049838
201361 129 18340214067443187168
20361792 2 16298389041480913903
20379382 53 18409727335765948308
20559304 39 18343024363139102304
20645477 70 18335975420216850591
21061003 4 18193257621315138514
21501502 16 18412259562273022297
22445834 79 18335138648686292491
23388829 49 18052253192083734607
3248919 1 17917992754791779869
369184 2 18411981369199984485
7364860 26 18342747299304665030

>  <PUBCHEM_SHAPE_MULTIPOLES>  (1) 
252.59
5.58
2.05
0.92
0.8
0.1
-0.03
-0.55
1.43
-1.3
0.04
-0.17
0.04
-0.33

>  <PUBCHEM_SHAPE_SELFOVERLAP>  (1) 
510.396

>  <PUBCHEM_SHAPE_VOLUME>  (1) 
145.5

>  <PUBCHEM_COORDINATE_TYPE>  (1) 
2
5
10

$$$$
