16097
     RDKit          3D

 13 13  0  0  0  0  0  0  0  0999 V2000
   -0.2210   -2.1980   -1.2098 O   0  0  0  0  0  0  0  0  0  0  0  0
   -0.2774   -2.3569    1.0569 O   0  0  0  0  0  0  0  0  0  0  0  0
   -2.7535    1.4365   -0.0008 O   0  0  0  0  0  0  0  0  0  0  0  0
   -2.3441   -0.7201    0.0292 O   0  0  0  0  0  0  0  0  0  0  0  0
   -1.9546    0.4710    0.0132 N   0  0  0  0  0  0  0  0  0  0  0  0
    1.7414   -0.0103    0.0200 C   0  0  0  0  0  0  0  0  0  0  0  0
    0.3769   -0.3002    0.0244 C   0  0  0  0  0  0  0  0  0  0  0  0
   -0.5564    0.7365    0.0103 C   0  0  0  0  0  0  0  0  0  0  0  0
    2.1725    1.3162    0.0015 C   0  0  0  0  0  0  0  0  0  0  0  0
   -0.1251    2.0629   -0.0081 C   0  0  0  0  0  0  0  0  0  0  0  0
    2.7659   -1.0978    0.0338 C   0  0  0  0  0  0  0  0  0  0  0  0
    1.2393    2.3528   -0.0126 C   0  0  0  0  0  0  0  0  0  0  0  0
   -0.0639   -1.6927    0.0418 C   0  0  0  0  0  0  0  0  0  0  0  0
  1 13  1  0
  2 13  2  0
  3  5  1  0
  4  5  2  0
  5  8  1  0
  6  7  2  0
  6  9  1  0
  6 11  1  0
  7  8  1  0
  7 13  1  0
  8 10  2  0
  9 12  2  0
 10 12  1  0
M  CHG  2   3  -1   5   1
M  END
>  <PUBCHEM_COMPOUND_CID>  (1) 
16097

>  <PUBCHEM_CONFORMER_RMSD>  (1) 
0.6

>  <PUBCHEM_CONFORMER_DIVERSEORDER>  (1) 
1

>  <PUBCHEM_MMFF94_PARTIAL_CHARGES>  (1) 
17
1 -0.65
10 -0.15
11 0.14
12 -0.15
13 0.63
14 0.15
15 0.15
19 0.15
2 -0.57
20 0.5
3 -0.52
4 -0.52
5 0.91
6 -0.14
7 0.09
8 0.13
9 -0.15

>  <PUBCHEM_EFFECTIVE_ROTOR_COUNT>  (1) 
2

>  <PUBCHEM_PHARMACOPHORE_FEATURES>  (1) 
7
1 1 acceptor
1 2 acceptor
1 3 acceptor
1 3 anion
1 4 acceptor
3 1 2 13 anion
6 6 7 8 9 10 12 rings

>  <PUBCHEM_HEAVY_ATOM_COUNT>  (1) 
13

>  <PUBCHEM_ATOM_DEF_STEREO_COUNT>  (1) 
0

>  <PUBCHEM_ATOM_UDEF_STEREO_COUNT>  (1) 
0

>  <PUBCHEM_BOND_DEF_STEREO_COUNT>  (1) 
0

>  <PUBCHEM_BOND_UDEF_STEREO_COUNT>  (1) 
0

>  <PUBCHEM_ISOTOPIC_ATOM_COUNT>  (1) 
0

>  <PUBCHEM_COMPONENT_COUNT>  (1) 
1

>  <PUBCHEM_CACTVS_TAUTO_COUNT>  (1) 
1

>  <PUBCHEM_CONFORMER_ID>  (1) 
00003EE100000001

>  <PUBCHEM_MMFF94_ENERGY>  (1) 
49.4652

>  <PUBCHEM_FEATURE_SELFOVERLAP>  (1) 
35.666

>  <PUBCHEM_SHAPE_FINGERPRINT>  (1) 
10967382 1 18266177223425562512
12423570 1 11678876635168793392
12524768 44 18341054128702039350
13380535 76 18122054562307065224
16945 1 18120939670148253096
193761 8 18122063366958340992
20511035 2 18336837488513658876
20645476 183 17750539358843450662
21040471 1 18338517568109057864
2334 1 18410855494504146665
23552423 10 17758957408617450132
23559900 14 18198358423957189300
241688 4 17186729316281956984
2748010 2 18410292510217295884
5084963 1 18272650138467007264
528886 8 18339637824280959792
53812654 25 18341317981559757802
66348 1 18194680358827146120

>  <PUBCHEM_SHAPE_MULTIPOLES>  (1) 
239.08
3.11
2.78
0.74
0.28
0.22
-0.04
-0.52
0.03
-0.05
0.01
0.04
0.34
-0.01

>  <PUBCHEM_SHAPE_SELFOVERLAP>  (1) 
509.466

>  <PUBCHEM_SHAPE_VOLUME>  (1) 
133.4

>  <PUBCHEM_COORDINATE_TYPE>  (1) 
2
5
10

$$$$
