161
     RDKit          3D

 30 31  0  0  1  0  0  0  0  0999 V2000
    1.9053   -2.5277    0.5377 P   0  0  0  0  0  0  0  0  0  0  0  0
    3.6553   -0.1610    0.5790 P   0  0  0  0  0  0  0  0  0  0  0  0
    2.8753    2.0660   -1.1917 P   0  0  0  0  0  0  0  0  0  0  0  0
   -2.1084   -1.2538   -2.9903 O   0  0  0  0  0  0  0  0  0  0  0  0
   -2.2015   -3.1270    0.1545 O   0  0  0  0  0  0  0  0  0  0  0  0
    0.7029   -2.8790   -0.4812 O   0  0  0  0  0  0  0  0  0  0  0  0
   -0.4976    3.0662   -0.6946 O   0  0  0  0  0  0  0  0  0  0  0  0
    2.5228   -1.1432   -0.0205 O   0  0  0  0  0  0  0  0  0  0  0  0
    1.1619   -2.0776    1.9022 O   0  0  0  0  0  0  0  0  0  0  0  0
    2.9151   -3.6241    0.7151 O   0  0  0  0  0  0  0  0  0  0  0  0
    3.8594    0.9330   -0.5921 O   0  0  0  0  0  0  0  0  0  0  0  0
    5.0083   -1.0430    0.5105 O   0  0  0  0  0  0  0  0  0  0  0  0
    3.3493    0.4186    1.9286 O   0  0  0  0  0  0  0  0  0  0  0  0
    3.7154    2.6570   -2.4398 O   0  0  0  0  0  0  0  0  0  0  0  0
    1.7000    1.2120   -1.8994 O   0  0  0  0  0  0  0  0  0  0  0  0
    2.4145    3.0864   -0.1931 O   0  0  0  0  0  0  0  0  0  0  0  0
   -4.5515    0.7828    0.4148 N   0  0  0  0  0  0  0  0  0  0  0  0
   -2.1631    0.5362   -1.0715 N   0  0  0  0  0  0  0  0  0  0  0  0
   -2.6788    0.8788    2.0068 N   0  0  0  0  0  0  0  0  0  0  0  0
   -0.7099    1.9587    1.3157 N   0  0  0  0  0  0  0  0  0  0  0  0
   -0.7308    0.7069    3.2807 N   0  0  0  0  0  0  0  0  0  0  0  0
   -3.3726    1.5204    0.8798 C   0  0  0  0  0  0  0  0  0  0  0  0
   -2.4780    1.7558   -0.3278 C   0  0  0  0  0  0  0  0  0  0  0  0
   -2.9608   -0.4708   -0.9714 C   0  0  0  0  0  0  0  0  0  0  0  0
   -2.6297   -1.7159   -1.7557 C   0  0  0  0  0  0  0  0  0  0  0  0
   -4.1752   -0.5370   -0.0744 C   0  0  0  0  0  0  0  0  0  0  0  0
   -1.6284   -2.6255   -1.0551 C   0  0  0  0  0  0  0  0  0  0  0  0
   -1.1515    2.3565    0.0668 C   0  0  0  0  0  0  0  0  0  0  0  0
   -0.3165   -1.9161   -0.7304 C   0  0  0  0  0  0  0  0  0  0  0  0
   -1.4313    1.1663    2.1968 C   0  0  0  0  0  0  0  0  0  0  0  0
  1  6  1  0
  1  8  1  0
  1  9  1  0
  1 10  2  0
  2  8  1  0
  2 11  1  0
  2 12  1  0
  2 13  2  0
  3 11  1  0
  3 14  1  0
  3 15  1  0
  3 16  2  0
  4 25  1  0
  5 27  1  0
  6 29  1  0
  7 28  2  0
 17 22  1  0
 17 26  1  0
 18 23  1  0
 18 24  2  0
 19 22  1  0
 19 30  2  0
 20 28  1  0
 20 30  1  0
 21 30  1  0
 22 23  1  0
 23 28  1  0
 24 25  1  0
 24 26  1  0
 25 27  1  0
 27 29  1  0
M  END
>  <PUBCHEM_COMPOUND_CID>  (1) 
161

>  <PUBCHEM_CONFORMER_RMSD>  (1) 
1.6

>  <PUBCHEM_CONFORMER_DIVERSEORDER>  (1) 
1
59
134
40
13
155
71
101
83
6
148
135
74
107
147
109
139
26
27
62
93
38
19
137
86
10
121
65
138
77
14
44
98
128
115
22
145
91
130
108
79
51
131
114
47
56
84
78
43
92
143
58
102
21
136
129
32
150
149
153
142
35
80
16
54
66
61
34
48
20
104
156
105
75
3
152
95
52
69
132
12
23
151
133
72
17
37
57
50
64
15
81
141
140
67
49
113
154
2
120
82
112
111
76
88
124
122
87
90
39
45
117
127
4
60
123
85
97
33
106
103
30
25
31
146
28
125
100
29
42
53
126
110
144
70
41
36
63
7
24
73
5
119
55
99
118
18
116
46
11
96
68
9
94
8
89

>  <PUBCHEM_MMFF94_PARTIAL_CHARGES>  (1) 
40
1 1.51
10 -0.7
11 -0.54
12 -0.77
13 -0.7
14 -0.77
15 -0.77
16 -0.7
17 -0.9
18 -0.7
19 -0.7
2 1.51
20 -0.49
21 -0.85
22 0.52
23 0.31
24 0.33
25 0.34
26 0.33
27 0.28
28 0.57
29 0.28
3 1.51
30 0.56
36 0.36
4 -0.68
40 0.37
41 0.4
42 0.4
43 0.4
44 0.4
45 0.5
46 0.5
47 0.5
48 0.5
5 -0.68
6 -0.55
7 -0.57
8 -0.54
9 -0.77

>  <PUBCHEM_EFFECTIVE_ROTOR_COUNT>  (1) 
9.6

>  <PUBCHEM_PHARMACOPHORE_FEATURES>  (1) 
20
1 10 acceptor
1 12 acceptor
1 13 acceptor
1 14 acceptor
1 15 acceptor
1 16 acceptor
1 17 cation
1 17 donor
1 18 acceptor
1 20 donor
1 21 donor
1 4 acceptor
1 4 donor
1 5 acceptor
1 5 donor
1 7 acceptor
1 9 acceptor
4 3 14 15 16 anion
6 17 18 22 23 24 26 rings
6 19 20 22 23 28 30 rings

>  <PUBCHEM_HEAVY_ATOM_COUNT>  (1) 
30

>  <PUBCHEM_ATOM_DEF_STEREO_COUNT>  (1) 
0

>  <PUBCHEM_ATOM_UDEF_STEREO_COUNT>  (1) 
4

>  <PUBCHEM_BOND_DEF_STEREO_COUNT>  (1) 
0

>  <PUBCHEM_BOND_UDEF_STEREO_COUNT>  (1) 
0

>  <PUBCHEM_ISOTOPIC_ATOM_COUNT>  (1) 
0

>  <PUBCHEM_COMPONENT_COUNT>  (1) 
1

>  <PUBCHEM_CACTVS_TAUTO_COUNT>  (1) 
5

>  <PUBCHEM_CONFORMER_ID>  (1) 
000000A100000001

>  <PUBCHEM_MMFF94_ENERGY>  (1) 
-11.7781

>  <PUBCHEM_FEATURE_SELFOVERLAP>  (1) 
101.775

>  <PUBCHEM_SHAPE_FINGERPRINT>  (1) 
10708813 3 18340481158716588502
12156800 1 16463009339899926456
12422481 6 18048049467363881225
12539773 59 17988921163183089823
12788726 201 17702962421226089177
13122387 1 17549541812540314894
13642711 20 16588845946180618205
14251764 3 15719662238493394776
20715895 44 17832978357204043389
20764821 26 16535380324689472870
23557571 272 17346032385137866558
238 59 18040721359470735656
35225 105 17914084063626699360
463206 1 18409449210711085480
469060 322 18264494055939277555
6287921 2 17699867119736606079

>  <PUBCHEM_SHAPE_MULTIPOLES>  (1) 
527.73
7.72
4.16
2.4
3.54
1.31
-0.42
-0.77
0.36
1.53
0.66
-0.1
-0.61
-2.96

>  <PUBCHEM_SHAPE_SELFOVERLAP>  (1) 
1044.38

>  <PUBCHEM_SHAPE_VOLUME>  (1) 
313.2

>  <PUBCHEM_COORDINATE_TYPE>  (1) 
2
5
10

$$$$
