16107
     RDKit          3D

 17 16  0  0  1  0  0  0  0  0999 V2000
   -3.4454   -1.4566    0.0288 O   0  0  0  0  0  0  0  0  0  0  0  0
   -2.7414    2.6418    0.9121 O   0  0  0  0  0  0  0  0  0  0  0  0
   -1.2222   -1.6255    1.5578 O   0  0  0  0  0  0  0  0  0  0  0  0
    3.3231   -0.7795   -1.3899 O   0  0  0  0  0  0  0  0  0  0  0  0
    2.8791    1.8134    1.0670 O   0  0  0  0  0  0  0  0  0  0  0  0
    4.6665    1.2307   -0.2045 O   0  0  0  0  0  0  0  0  0  0  0  0
    0.0499   -1.6304   -0.3826 N   0  0  0  0  0  0  0  0  0  0  0  0
   -2.3815    0.6748   -0.5060 C   0  0  0  0  0  0  0  0  0  0  0  0
   -2.2544   -0.8776   -0.4980 C   0  0  0  0  0  0  0  0  0  0  0  0
   -2.6255    1.2230    0.9214 C   0  0  0  0  0  0  0  0  0  0  0  0
   -1.1218    1.3296   -1.1070 C   0  0  0  0  0  0  0  0  0  0  0  0
   -3.5809    1.0661   -1.4021 C   0  0  0  0  0  0  0  0  0  0  0  0
   -1.1027   -1.4075    0.3535 C   0  0  0  0  0  0  0  0  0  0  0  0
    1.2648   -2.1549    0.1973 C   0  0  0  0  0  0  0  0  0  0  0  0
    2.1709   -1.0329    0.7043 C   0  0  0  0  0  0  0  0  0  0  0  0
    2.6157   -0.0609   -0.3907 C   0  0  0  0  0  0  0  0  0  0  0  0
    3.5060    1.0464    0.1387 C   0  0  0  0  0  0  0  0  0  0  0  0
  1  9  1  0
  2 10  1  0
  3 13  2  0
  4 16  1  0
  5 17  1  0
  6 17  2  0
  7 13  1  0
  7 14  1  0
  8  9  1  0
  8 10  1  0
  8 11  1  0
  8 12  1  0
  9 13  1  0
 14 15  1  0
 15 16  1  0
 16 17  1  0
M  END
>  <PUBCHEM_COMPOUND_CID>  (1) 
16107

>  <PUBCHEM_CONFORMER_RMSD>  (1) 
1

>  <PUBCHEM_CONFORMER_DIVERSEORDER>  (1) 
7
67
65
51
490
521
5
101
93
597
235
108
61
39
150
353
320
570
55
369
340
540
259
81
28
552
174
439
140
418
463
316
449
190
562
20
88
408
25
433
469
461
382
568
114
19
26
142
138
215
11
344
213
112
438
42
155
116
32
234
345
248
346
383
491
160
581
17
455
535
94
276
60
400
40
273
98
270
18
311
43
165
308
199
72
57
109
66
262
221
367
110
460
550
309
603
37
90
272
579
555
15
6
282
1
575
523
9
161
27
124
30
4
143
45
328
2
8
117
33
24
76
229
48
53
191
250
3
514
95
12
342
602
86
35
352
396
131
411
128
29
92
177
99
156
331
214
104
294
258
71
49
157
337
38
103
21
421
69
13
192
448
34
350
10

>  <PUBCHEM_MMFF94_PARTIAL_CHARGES>  (1) 
18
1 -0.68
10 0.28
13 0.57
14 0.3
16 0.34
17 0.66
2 -0.68
29 0.37
3 -0.57
32 0.4
34 0.4
35 0.4
36 0.5
4 -0.68
5 -0.65
6 -0.57
7 -0.73
9 0.34

>  <PUBCHEM_EFFECTIVE_ROTOR_COUNT>  (1) 
8

>  <PUBCHEM_PHARMACOPHORE_FEATURES>  (1) 
12
1 1 acceptor
1 1 donor
1 2 acceptor
1 2 donor
1 3 acceptor
1 4 acceptor
1 4 donor
1 5 acceptor
1 6 acceptor
1 7 donor
3 5 6 17 anion
3 8 11 12 hydrophobe

>  <PUBCHEM_HEAVY_ATOM_COUNT>  (1) 
17

>  <PUBCHEM_ATOM_DEF_STEREO_COUNT>  (1) 
0

>  <PUBCHEM_ATOM_UDEF_STEREO_COUNT>  (1) 
2

>  <PUBCHEM_BOND_DEF_STEREO_COUNT>  (1) 
0

>  <PUBCHEM_BOND_UDEF_STEREO_COUNT>  (1) 
0

>  <PUBCHEM_ISOTOPIC_ATOM_COUNT>  (1) 
0

>  <PUBCHEM_COMPONENT_COUNT>  (1) 
1

>  <PUBCHEM_CACTVS_TAUTO_COUNT>  (1) 
2

>  <PUBCHEM_CONFORMER_ID>  (1) 
00003EEB00000007

>  <PUBCHEM_MMFF94_ENERGY>  (1) 
25.1571

>  <PUBCHEM_FEATURE_SELFOVERLAP>  (1) 
60.972

>  <PUBCHEM_SHAPE_FINGERPRINT>  (1) 
10498660 4 18333165068190287260
11132069 177 18186518799920143085
11615756 256 18410864282397572516
11615756 56 18340482391330030488
11715629 250 18409726274751088766
12173636 292 18273215257832535133
12491281 212 18339647720128241819
13618510 140 18411131429220673000
13764800 53 18187090584679535218
14123250 116 18271528581115291297
14250199 8 18123461692351252039
14251745 187 18343013411157425928
14386348 128 18262523589288922492
15775835 57 18333727992394717548
18186145 218 18339644447315559628
18219364 16 18335145292805540128
20304884 271 18269838618747331379
20449540 30 18409722955178848565
20510252 161 18410293648694768315
20671657 1 18193275182983120858
21041028 32 15957807270662612459
21524375 3 18334851671730134794
21864079 5 18198347255875856033
22182937 141 18341342106233103105
22959321 54 18411133619601116547
23557571 272 18267307718842339214
3524813 1 18268423706302052024
4028521 119 18408597063313359965
474 4 18265608771840490329
526903 126 18409160022067842089
8050 44 18409157809969579246

>  <PUBCHEM_SHAPE_MULTIPOLES>  (1) 
309.66
7.4
2.48
1.24
4.37
0.05
0.01
3.55
-0.85
-0.42
0.61
-0.38
0.22
0.29

>  <PUBCHEM_SHAPE_SELFOVERLAP>  (1) 
599.709

>  <PUBCHEM_SHAPE_VOLUME>  (1) 
187.1

>  <PUBCHEM_COORDINATE_TYPE>  (1) 
2
5
10

$$$$
