16106
     RDKit          3D

 22 25  0  0  0  0  0  0  0  0999 V2000
    1.6281   -0.6933   -0.3926 N   0  0  0  0  0  0  0  0  0  0  0  0
    4.4557   -0.9505   -0.1894 N   0  0  0  0  0  0  0  0  0  0  0  0
   -0.5434   -1.4030   -0.2427 N   0  0  0  0  0  0  0  0  0  0  0  0
    2.2159   -1.9842   -0.0450 C   0  0  0  0  0  0  0  0  0  0  0  0
    2.4943    0.2025   -1.1539 C   0  0  0  0  0  0  0  0  0  0  0  0
    3.5680   -1.7786    0.6399 C   0  0  0  0  0  0  0  0  0  0  0  0
    3.8404    0.3602   -0.4448 C   0  0  0  0  0  0  0  0  0  0  0  0
    0.3198   -0.4210   -0.1839 C   0  0  0  0  0  0  0  0  0  0  0  0
   -0.0211    1.0099    0.0923 C   0  0  0  0  0  0  0  0  0  0  0  0
   -1.1273    1.6240   -0.5180 C   0  0  0  0  0  0  0  0  0  0  0  0
    5.7585   -0.7896    0.4550 C   0  0  0  0  0  0  0  0  0  0  0  0
   -2.0561    0.8383   -1.4039 C   0  0  0  0  0  0  0  0  0  0  0  0
   -2.7123   -0.2619   -0.6136 C   0  0  0  0  0  0  0  0  0  0  0  0
   -1.9275   -1.2760   -0.0347 C   0  0  0  0  0  0  0  0  0  0  0  0
    0.8113    1.7503    0.9432 C   0  0  0  0  0  0  0  0  0  0  0  0
   -1.3809    2.9802   -0.2637 C   0  0  0  0  0  0  0  0  0  0  0  0
   -4.1010   -0.2506   -0.4108 C   0  0  0  0  0  0  0  0  0  0  0  0
    0.5446    3.0973    1.1870 C   0  0  0  0  0  0  0  0  0  0  0  0
   -2.5624   -2.2711    0.7229 C   0  0  0  0  0  0  0  0  0  0  0  0
   -0.5483    3.7122    0.5824 C   0  0  0  0  0  0  0  0  0  0  0  0
   -4.7128   -1.2426    0.3532 C   0  0  0  0  0  0  0  0  0  0  0  0
   -3.9435   -2.2527    0.9208 C   0  0  0  0  0  0  0  0  0  0  0  0
  1  4  1  0
  1  5  1  0
  1  8  1  0
  2  6  1  0
  2  7  1  0
  2 11  1  0
  3  8  2  0
  3 14  1  0
  4  6  1  0
  5  7  1  0
  8  9  1  0
  9 10  2  0
  9 15  1  0
 10 12  1  0
 10 16  1  0
 12 13  1  0
 13 14  2  0
 13 17  1  0
 14 19  1  0
 15 18  2  0
 16 20  2  0
 17 21  2  0
 18 20  1  0
 19 22  2  0
 21 22  1  0
M  END
>  <PUBCHEM_COMPOUND_CID>  (1) 
16106

>  <PUBCHEM_CONFORMER_RMSD>  (1) 
0.6

>  <PUBCHEM_CONFORMER_DIVERSEORDER>  (1) 
3
9
1
10
7
6
8
5
2
4

>  <PUBCHEM_MMFF94_PARTIAL_CHARGES>  (1) 
30
1 -0.79
10 -0.14
11 0.27
12 0.29
13 -0.14
14 0.18
15 -0.15
16 -0.15
17 -0.15
18 -0.15
19 -0.15
2 -0.81
20 -0.15
21 -0.15
22 -0.15
3 -0.63
36 0.15
37 0.15
38 0.15
39 0.15
4 0.37
40 0.15
41 0.15
42 0.15
43 0.15
5 0.37
6 0.27
7 0.27
8 0.41
9 0.09

>  <PUBCHEM_EFFECTIVE_ROTOR_COUNT>  (1) 
2.4

>  <PUBCHEM_PHARMACOPHORE_FEATURES>  (1) 
6
1 2 cation
3 1 3 8 cation
6 1 2 4 5 6 7 rings
6 13 14 17 19 21 22 rings
6 9 10 15 16 18 20 rings
7 3 8 9 10 12 13 14 rings

>  <PUBCHEM_HEAVY_ATOM_COUNT>  (1) 
22

>  <PUBCHEM_ATOM_DEF_STEREO_COUNT>  (1) 
0

>  <PUBCHEM_ATOM_UDEF_STEREO_COUNT>  (1) 
0

>  <PUBCHEM_BOND_DEF_STEREO_COUNT>  (1) 
0

>  <PUBCHEM_BOND_UDEF_STEREO_COUNT>  (1) 
0

>  <PUBCHEM_ISOTOPIC_ATOM_COUNT>  (1) 
0

>  <PUBCHEM_COMPONENT_COUNT>  (1) 
1

>  <PUBCHEM_CACTVS_TAUTO_COUNT>  (1) 
1

>  <PUBCHEM_CONFORMER_ID>  (1) 
00003EEA00000003

>  <PUBCHEM_MMFF94_ENERGY>  (1) 
79.3481

>  <PUBCHEM_FEATURE_SELFOVERLAP>  (1) 
30.472

>  <PUBCHEM_SHAPE_FINGERPRINT>  (1) 
10319926 262 18124856990636407394
10906281 52 18200319797364374245
11680986 33 18122058965017620307
12035758 1 18051691337141460152
12054548 360 18338796826713462142
12293681 160 17837184014559985845
12506688 2 18409172146591700583
12553582 1 18342731940185486751
12788726 201 18335701585802356554
13027679 85 18411697686478494317
13134695 92 18341330114810902717
13140716 1 18413392020890831985
133893 2 17626922503098333845
13533116 47 17980204403262052363
13631057 29 18334294254264147050
138480 1 15168265510991620785
14142880 1 17845099471919134241
14178342 30 18119523242191311658
14347329 18 16879604048536377749
14787075 74 18188491392885335266
14790565 3 17545325636230436777
15131766 46 15768623530729467522
15527383 91 18341904025816106497
15927050 60 17477208701056844212
17492 89 18266176124389448426
17804303 29 18336270145383843103
1813 80 17917445240597399364
18785283 64 17977383068286701233
200 152 18333731312599915054
20510252 161 18267864982274443050
20600515 1 18335155175936582815
20642791 105 18189609454176201908
21029758 11 18412536601028590253
21041028 32 18272094924166833201
21049683 271 18118132591298407997
21267235 1 18335428950148097318
21521239 73 12252173112902195265
22182313 1 18266718342118779757
2297311 6 18341906164641579630
23175994 123 18413394250068146031
23402539 116 18343575235755484839
23419403 2 18264468736927699901
23557571 272 18271529680853408462
23558518 356 18048047276508092586
23559900 14 18333723641803973332
23845131 108 17476655178436033353
2748010 2 18193819656377345861
3091708 16 8848699718806674961
3421961 26 18267306628315739369
352729 6 17837487458003323239
4409770 3 18262510391228806103
458136 41 17617387615914692481
5104073 3 18269265760979949362
633830 44 13695587749910014087
6438718 38 17630890400440388781
68521 5 18411705348451938116
69474 34 18343585178731063531
7164475 11 18337962177725072886
7364860 26 17981049927207491529
7495541 125 18265059218038284443
81228 2 18127429859685403265
9709674 26 18197497316571855838

>  <PUBCHEM_SHAPE_MULTIPOLES>  (1) 
437.81
8.59
3.6
1.05
5.85
3.25
-0.03
-7.03
0.61
-1.23
1.28
-0.13
0.26
0.67

>  <PUBCHEM_SHAPE_SELFOVERLAP>  (1) 
957.604

>  <PUBCHEM_SHAPE_VOLUME>  (1) 
231.3

>  <PUBCHEM_COORDINATE_TYPE>  (1) 
2
5
10

$$$$
