16108
     RDKit          3D

 17 16  0  0  1  0  0  0  0  0999 V2000
   -3.3890    1.4159    0.0778 O   0  0  0  0  0  0  0  0  0  0  0  0
   -2.5405   -2.4874   -1.3770 O   0  0  0  0  0  0  0  0  0  0  0  0
   -1.0428    1.8322   -1.1989 O   0  0  0  0  0  0  0  0  0  0  0  0
    1.7473    0.5775   -1.3338 O   0  0  0  0  0  0  0  0  0  0  0  0
    3.5879   -2.1730    0.6909 O   0  0  0  0  0  0  0  0  0  0  0  0
    4.4103   -0.6286   -0.7594 O   0  0  0  0  0  0  0  0  0  0  0  0
    0.0527    1.5311    0.8241 N   0  0  0  0  0  0  0  0  0  0  0  0
   -2.3405   -0.7707    0.3615 C   0  0  0  0  0  0  0  0  0  0  0  0
   -2.2397    0.7635    0.6111 C   0  0  0  0  0  0  0  0  0  0  0  0
   -2.4482   -1.0850   -1.1509 C   0  0  0  0  0  0  0  0  0  0  0  0
   -1.1281   -1.5096    0.9619 C   0  0  0  0  0  0  0  0  0  0  0  0
   -3.6076   -1.3031    1.0726 C   0  0  0  0  0  0  0  0  0  0  0  0
   -1.0264    1.4254   -0.0386 C   0  0  0  0  0  0  0  0  0  0  0  0
    1.3051    2.1447    0.4464 C   0  0  0  0  0  0  0  0  0  0  0  0
    2.3063    1.1569   -0.1552 C   0  0  0  0  0  0  0  0  0  0  0  0
    2.6961    0.0379    0.8093 C   0  0  0  0  0  0  0  0  0  0  0  0
    3.6572   -0.9277    0.1581 C   0  0  0  0  0  0  0  0  0  0  0  0
  1  9  1  0
  2 10  1  0
  3 13  2  0
  4 15  1  0
  5 17  1  0
  6 17  2  0
  7 13  1  0
  7 14  1  0
  8  9  1  0
  8 10  1  0
  8 11  1  0
  8 12  1  0
  9 13  1  0
 14 15  1  0
 15 16  1  0
 16 17  1  0
M  END
>  <PUBCHEM_COMPOUND_CID>  (1) 
16108

>  <PUBCHEM_CONFORMER_RMSD>  (1) 
1

>  <PUBCHEM_CONFORMER_DIVERSEORDER>  (1) 
10
60
708
142
681
197
86
351
417
650
16
72
566
702
76
569
44
276
134
634
240
18
26
587
13
563
595
278
104
37
155
64
291
40
356
91
70
578
146
59
255
180
20
632
173
671
290
2
187
521
482
234
68
85
493
200
258
459
283
93
108
38
120
577
205
202
22
403
466
458
5
82
14
239
376
556
47
483
100
321
132
8
123
210
260
485
69
96
30
591
690
697
581
217
659
383
500
547
53
536
41
35
266
215
347
268
410
67
1
125
365
583
50
388
303
56
7
25
453
31
48
145
673
293
535
21
17
411
232
168
3
395
499
116
77
527
140
133
9
422
4
436
484
366
11
149
52
249
206
297
103
548
118
170
95
167
24
247
666
509
615
425
83
231
267
36
74
469
128
157
475
71
579
19
227
468
502
474
705

>  <PUBCHEM_MMFF94_PARTIAL_CHARGES>  (1) 
19
1 -0.68
10 0.28
13 0.57
14 0.3
15 0.28
16 0.06
17 0.66
2 -0.68
29 0.37
3 -0.57
31 0.4
34 0.4
35 0.4
36 0.5
4 -0.68
5 -0.65
6 -0.57
7 -0.73
9 0.34

>  <PUBCHEM_EFFECTIVE_ROTOR_COUNT>  (1) 
8

>  <PUBCHEM_PHARMACOPHORE_FEATURES>  (1) 
12
1 1 acceptor
1 1 donor
1 2 acceptor
1 2 donor
1 3 acceptor
1 4 acceptor
1 4 donor
1 5 acceptor
1 6 acceptor
1 7 donor
3 5 6 17 anion
3 8 11 12 hydrophobe

>  <PUBCHEM_HEAVY_ATOM_COUNT>  (1) 
17

>  <PUBCHEM_ATOM_DEF_STEREO_COUNT>  (1) 
0

>  <PUBCHEM_ATOM_UDEF_STEREO_COUNT>  (1) 
2

>  <PUBCHEM_BOND_DEF_STEREO_COUNT>  (1) 
0

>  <PUBCHEM_BOND_UDEF_STEREO_COUNT>  (1) 
0

>  <PUBCHEM_ISOTOPIC_ATOM_COUNT>  (1) 
0

>  <PUBCHEM_COMPONENT_COUNT>  (1) 
1

>  <PUBCHEM_CACTVS_TAUTO_COUNT>  (1) 
2

>  <PUBCHEM_CONFORMER_ID>  (1) 
00003EEC0000000A

>  <PUBCHEM_MMFF94_ENERGY>  (1) 
28.8815

>  <PUBCHEM_FEATURE_SELFOVERLAP>  (1) 
60.968

>  <PUBCHEM_SHAPE_FINGERPRINT>  (1) 
10062212 137 18409442553443204875
10498660 4 9151174246558039482
10618630 7 18334298703227383912
10968037 57 17988648522722589591
12173636 292 11602809190779922795
12553582 1 18410292527771614050
12633257 1 17417827174453483587
12824470 246 17342091860424469095
15375462 189 18342182223300344448
15422964 175 17684096051591953811
20291156 8 18410576180249173570
20442098 301 18342735217640801890
20621476 51 18200010868851712734
20645477 70 18192700361945308631
212916 134 16342603694501014443
21634736 98 18335710450968068392
232386 152 18411427206538751820
23559900 14 18411693326928816688
58051976 100 18333455317816922781

>  <PUBCHEM_SHAPE_MULTIPOLES>  (1) 
309.66
7.12
2.5
1.22
4.05
0.15
0.26
3.69
-0.08
-0.21
0.1
-0.44
0.29
-0.33

>  <PUBCHEM_SHAPE_SELFOVERLAP>  (1) 
600.596

>  <PUBCHEM_SHAPE_VOLUME>  (1) 
186.8

>  <PUBCHEM_COORDINATE_TYPE>  (1) 
2
5
10

$$$$
