16105
     RDKit          3D

 22 25  0  0  0  0  0  0  0  0999 V2000
    2.0684    0.9004    1.7890 S   0  0  0  0  0  0  0  0  0  0  0  0
   -1.6138   -0.6963    0.4017 N   0  0  0  0  0  0  0  0  0  0  0  0
   -4.4419   -0.9580    0.2118 N   0  0  0  0  0  0  0  0  0  0  0  0
    0.5644   -1.4011    0.2571 N   0  0  0  0  0  0  0  0  0  0  0  0
   -2.2022   -1.9939    0.0820 C   0  0  0  0  0  0  0  0  0  0  0  0
   -2.4780    0.2145    1.1473 C   0  0  0  0  0  0  0  0  0  0  0  0
   -3.5562   -1.8025   -0.6033 C   0  0  0  0  0  0  0  0  0  0  0  0
   -3.8263    0.3576    0.4390 C   0  0  0  0  0  0  0  0  0  0  0  0
   -0.3062   -0.4278    0.1838 C   0  0  0  0  0  0  0  0  0  0  0  0
   -5.7464   -0.8105   -0.4320 C   0  0  0  0  0  0  0  0  0  0  0  0
    0.0248    0.9975   -0.1209 C   0  0  0  0  0  0  0  0  0  0  0  0
    1.0235    1.6940    0.5774 C   0  0  0  0  0  0  0  0  0  0  0  0
    1.9440   -1.2586    0.0272 C   0  0  0  0  0  0  0  0  0  0  0  0
   -0.7442    1.6586   -1.0887 C   0  0  0  0  0  0  0  0  0  0  0  0
    2.7629   -0.3330    0.6981 C   0  0  0  0  0  0  0  0  0  0  0  0
    1.2348    3.0511    0.2993 C   0  0  0  0  0  0  0  0  0  0  0  0
   -0.5185    3.0071   -1.3616 C   0  0  0  0  0  0  0  0  0  0  0  0
    0.4669    3.7032   -0.6664 C   0  0  0  0  0  0  0  0  0  0  0  0
    2.5465   -2.1735   -0.8494 C   0  0  0  0  0  0  0  0  0  0  0  0
    4.1481   -0.3284    0.4801 C   0  0  0  0  0  0  0  0  0  0  0  0
    3.9243   -2.1608   -1.0692 C   0  0  0  0  0  0  0  0  0  0  0  0
    4.7250   -1.2398   -0.4024 C   0  0  0  0  0  0  0  0  0  0  0  0
  1 12  1  0
  1 15  1  0
  2  5  1  0
  2  6  1  0
  2  9  1  0
  3  7  1  0
  3  8  1  0
  3 10  1  0
  4  9  2  0
  4 13  1  0
  5  7  1  0
  6  8  1  0
  9 11  1  0
 11 12  2  0
 11 14  1  0
 12 16  1  0
 13 15  2  0
 13 19  1  0
 14 17  2  0
 15 20  1  0
 16 18  2  0
 17 18  1  0
 19 21  2  0
 20 22  2  0
 21 22  1  0
M  END
>  <PUBCHEM_COMPOUND_CID>  (1) 
16105

>  <PUBCHEM_CONFORMER_RMSD>  (1) 
0.6

>  <PUBCHEM_CONFORMER_DIVERSEORDER>  (1) 
1
9
3
10
7
6
8
5
2
4

>  <PUBCHEM_MMFF94_PARTIAL_CHARGES>  (1) 
30
1 -0.2
10 0.27
11 0.09
12 0.1
13 0.18
14 -0.15
15 0.1
16 -0.15
17 -0.15
18 -0.15
19 -0.15
2 -0.79
20 -0.15
21 -0.15
22 -0.15
3 -0.81
34 0.15
35 0.15
36 0.15
37 0.15
38 0.15
39 0.15
4 -0.63
40 0.15
41 0.15
5 0.37
6 0.37
7 0.27
8 0.27
9 0.41

>  <PUBCHEM_EFFECTIVE_ROTOR_COUNT>  (1) 
2.4

>  <PUBCHEM_PHARMACOPHORE_FEATURES>  (1) 
6
1 3 cation
3 2 4 9 cation
6 11 12 14 16 17 18 rings
6 13 15 19 20 21 22 rings
6 2 3 5 6 7 8 rings
7 1 4 9 11 12 13 15 rings

>  <PUBCHEM_HEAVY_ATOM_COUNT>  (1) 
22

>  <PUBCHEM_ATOM_DEF_STEREO_COUNT>  (1) 
0

>  <PUBCHEM_ATOM_UDEF_STEREO_COUNT>  (1) 
0

>  <PUBCHEM_BOND_DEF_STEREO_COUNT>  (1) 
0

>  <PUBCHEM_BOND_UDEF_STEREO_COUNT>  (1) 
0

>  <PUBCHEM_ISOTOPIC_ATOM_COUNT>  (1) 
0

>  <PUBCHEM_COMPONENT_COUNT>  (1) 
1

>  <PUBCHEM_CACTVS_TAUTO_COUNT>  (1) 
1

>  <PUBCHEM_CONFORMER_ID>  (1) 
00003EE900000001

>  <PUBCHEM_MMFF94_ENERGY>  (1) 
80.2306

>  <PUBCHEM_FEATURE_SELFOVERLAP>  (1) 
30.468

>  <PUBCHEM_SHAPE_FINGERPRINT>  (1) 
10764073 3 16122216298938116696
11680986 33 18192437583024768571
116883 192 18408598154372560277
12054548 360 18337107848209952940
12166972 35 18271805761715166361
12422481 6 18122880270213256032
12553582 1 18334287652271672403
12617007 42 18260830431518490236
12788726 201 18042125367015350938
13009979 54 18201175311757380177
13149001 5 17605008080889054507
13533116 47 17988077906916773699
13583140 156 15840686625908630235
13681431 1 18115884047027734860
14022347 108 18113896061184863346
14170010 4 18413106195502140259
14347332 77 18121506756973475430
14790565 3 17546168502140207381
14955137 171 18194150476275271723
15420108 30 17548958401642809848
15848700 24 18410291402099577878
15848702 151 18272932713129626675
1601671 61 18339927120683156244
17357779 13 18338221692085690765
17492 54 18044112343841627836
17492 89 18122343742751244563
17818456 19 17917439709465531697
1813 80 18334861614505052268
18222031 100 18411133640939095459
19141452 34 18273216370203028727
20645477 70 18191861434747421315
20739085 24 18192421081681575096
21033648 29 18059845143948667835
21267235 1 18342465854620104779
21285901 2 18341055107833660254
21330990 113 17836669429879298489
21452121 99 17612851731002145496
21641784 216 17970087590289031708
22182313 1 18265309803314777132
22907989 373 18046354028648726012
23352939 185 18341907298534109536
23419403 2 17916564476260498176
23557571 272 18338239250455322094
23558518 356 17760355995966904146
23559900 14 18271238443289693395
2748010 2 18267840870876987888
352729 6 17399785004363575674
46194498 28 18188764080564336317
465052 167 14261346994516680983
57262259 84 18196661687718324052
621550 34 18272359868199179570
6442390 28 17331124896950894264
6443956 14 18411136973828468237
7164475 11 18045220441009087066
7364860 26 18195249038282979009
81228 2 18117855308278109552
9709674 26 18193275423970885563
9971528 1 18341045302538977857
9981440 41 17402326474316070097

>  <PUBCHEM_SHAPE_MULTIPOLES>  (1) 
441.66
8.53
3.55
1.2
5.9
3.2
-0.11
-7.05
0.52
-1.07
1.38
-0.41
0.4
0.85

>  <PUBCHEM_SHAPE_SELFOVERLAP>  (1) 
949.922

>  <PUBCHEM_SHAPE_VOLUME>  (1) 
243.1

>  <PUBCHEM_COORDINATE_TYPE>  (1) 
2
5
10

$$$$
