16110
     RDKit          3D

 12 11  0  0  1  0  0  0  0  0999 V2000
    3.2297    0.0539    0.0556 P   0  0  0  0  0  0  0  0  0  0  0  0
    3.3272    0.7162   -1.3669 F   0  0  0  0  0  0  0  0  0  0  0  0
    1.6807    0.2931    0.4547 O   0  0  0  0  0  0  0  0  0  0  0  0
    4.1918    0.7224    0.9961 O   0  0  0  0  0  0  0  0  0  0  0  0
   -3.1621   -0.0025    0.0095 N   0  0  0  0  0  0  0  0  0  0  0  0
   -1.8392   -0.3466   -0.6597 C   0  0  0  0  0  0  0  0  0  0  0  0
   -0.6973    0.1509    0.2100 C   0  0  0  0  0  0  0  0  0  0  0  0
   -3.2536    1.5036    0.2082 C   0  0  0  0  0  0  0  0  0  0  0  0
   -4.3122   -0.4688   -0.8714 C   0  0  0  0  0  0  0  0  0  0  0  0
   -3.2435   -0.6982    1.3605 C   0  0  0  0  0  0  0  0  0  0  0  0
    0.6543   -0.2079   -0.3907 C   0  0  0  0  0  0  0  0  0  0  0  0
    3.4242   -1.7160   -0.0058 C   0  0  0  0  0  0  0  0  0  0  0  0
  1  2  1  0
  1  3  1  0
  1  4  2  0
  1 12  1  0
  3 11  1  0
  5  6  1  0
  5  8  1  0
  5  9  1  0
  5 10  1  0
  6  7  1  0
  7 11  1  0
M  CHG  1   5   1
M  END
>  <PUBCHEM_COMPOUND_CID>  (1) 
16110

>  <PUBCHEM_CONFORMER_RMSD>  (1) 
0.6

>  <PUBCHEM_CONFORMER_DIVERSEORDER>  (1) 
1
31
37
45
61
11
32
44
65
67
10
68
38
27
50
26
4
66
16
63
33
34
59
5
30
14
60
39
13
28
48
47
12
15
21
46
54
49
53
7
20
58
3
55
18
24
41
52
19
62
36
9
25
29
43
64
8
42
23
40
57
22
2
51
56
6
17
35

>  <PUBCHEM_MMFF94_PARTIAL_CHARGES>  (1) 
10
1 1.3
10 0.5
11 0.28
2 -0.33
3 -0.55
4 -0.7
5 -1.01
6 0.5
8 0.5
9 0.5

>  <PUBCHEM_EFFECTIVE_ROTOR_COUNT>  (1) 
5

>  <PUBCHEM_PHARMACOPHORE_FEATURES>  (1) 
1
1 5 cation

>  <PUBCHEM_HEAVY_ATOM_COUNT>  (1) 
12

>  <PUBCHEM_ATOM_DEF_STEREO_COUNT>  (1) 
0

>  <PUBCHEM_ATOM_UDEF_STEREO_COUNT>  (1) 
1

>  <PUBCHEM_BOND_DEF_STEREO_COUNT>  (1) 
0

>  <PUBCHEM_BOND_UDEF_STEREO_COUNT>  (1) 
0

>  <PUBCHEM_ISOTOPIC_ATOM_COUNT>  (1) 
0

>  <PUBCHEM_COMPONENT_COUNT>  (1) 
1

>  <PUBCHEM_CACTVS_TAUTO_COUNT>  (1) 
1

>  <PUBCHEM_CONFORMER_ID>  (1) 
00003EEE00000001

>  <PUBCHEM_MMFF94_ENERGY>  (1) 
25.2682

>  <PUBCHEM_FEATURE_SELFOVERLAP>  (1) 
5.074

>  <PUBCHEM_SHAPE_FINGERPRINT>  (1) 
10680689 15 18202007633385060917
12932764 1 18060419118434199638
14123238 8 17132110277287109397
14144814 61 17632578236160616307
14325111 11 18343863294711006654
17834074 16 18113341903056195330
18186145 218 17022907834794193332
190213 19 18113618984238624586
1986462 14 17489310776235068365
20279233 1 18334574654945015946
20645477 70 18270393893721399630
22485316 2 18272927224071608759
2306618 200 17417813881888463881
23402539 116 14836116655345406653
3248919 1 18113338608778842447
42 15 18341328903550997114

>  <PUBCHEM_SHAPE_MULTIPOLES>  (1) 
226.81
9.42
1.21
1.08
1.75
0.07
-0.06
0.14
-0.16
0.28
-0.07
-0.23
0.03
-0.02

>  <PUBCHEM_SHAPE_SELFOVERLAP>  (1) 
398.997

>  <PUBCHEM_SHAPE_VOLUME>  (1) 
152.5

>  <PUBCHEM_COORDINATE_TYPE>  (1) 
2
5
10

$$$$
