16127
     RDKit          3D

 10 10  0  0  0  0  0  0  0  0999 V2000
    0.5812   -2.7193   -0.2192 Cl  0  0  0  0  0  0  0  0  0  0  0  0
    0.5808    2.7194   -0.2194 Cl  0  0  0  0  0  0  0  0  0  0  0  0
    1.7963    0.0001   -0.4081 O   0  0  0  0  0  0  0  0  0  0  0  0
    0.4470    0.0001   -0.1982 C   0  0  0  0  0  0  0  0  0  0  0  0
   -0.2420   -1.2080   -0.0911 C   0  0  0  0  0  0  0  0  0  0  0  0
   -0.2421    1.2080   -0.0908 C   0  0  0  0  0  0  0  0  0  0  0  0
   -1.6203   -1.2081    0.1236 C   0  0  0  0  0  0  0  0  0  0  0  0
   -1.6204    1.2078    0.1238 C   0  0  0  0  0  0  0  0  0  0  0  0
   -2.3095   -0.0002    0.2311 C   0  0  0  0  0  0  0  0  0  0  0  0
    2.6289    0.0001    0.7482 C   0  0  0  0  0  0  0  0  0  0  0  0
  1  5  1  0
  2  6  1  0
  3  4  1  0
  3 10  1  0
  4  5  2  0
  4  6  1  0
  5  7  1  0
  6  8  2  0
  7  9  2  0
  8  9  1  0
M  END
>  <PUBCHEM_COMPOUND_CID>  (1) 
16127

>  <PUBCHEM_CONFORMER_RMSD>  (1) 
0.4

>  <PUBCHEM_CONFORMER_DIVERSEORDER>  (1) 
1

>  <PUBCHEM_MMFF94_PARTIAL_CHARGES>  (1) 
13
1 -0.18
10 0.28
11 0.15
12 0.15
13 0.15
2 -0.18
3 -0.36
4 0.08
5 0.18
6 0.18
7 -0.15
8 -0.15
9 -0.15

>  <PUBCHEM_EFFECTIVE_ROTOR_COUNT>  (1) 
1

>  <PUBCHEM_PHARMACOPHORE_FEATURES>  (1) 
2
1 3 acceptor
6 4 5 6 7 8 9 rings

>  <PUBCHEM_HEAVY_ATOM_COUNT>  (1) 
10

>  <PUBCHEM_ATOM_DEF_STEREO_COUNT>  (1) 
0

>  <PUBCHEM_ATOM_UDEF_STEREO_COUNT>  (1) 
0

>  <PUBCHEM_BOND_DEF_STEREO_COUNT>  (1) 
0

>  <PUBCHEM_BOND_UDEF_STEREO_COUNT>  (1) 
0

>  <PUBCHEM_ISOTOPIC_ATOM_COUNT>  (1) 
0

>  <PUBCHEM_COMPONENT_COUNT>  (1) 
1

>  <PUBCHEM_CACTVS_TAUTO_COUNT>  (1) 
1

>  <PUBCHEM_CONFORMER_ID>  (1) 
00003EFF00000001

>  <PUBCHEM_MMFF94_ENERGY>  (1) 
32.8105

>  <PUBCHEM_FEATURE_SELFOVERLAP>  (1) 
10.148

>  <PUBCHEM_SHAPE_FINGERPRINT>  (1) 
12423570 1 16958987975674857109
12524768 44 18123471583602801727
161256 15 17908432359158999607
16945 1 18410581686397045517
18185500 45 18410296891263006479
193761 8 17689998929556611749
21040471 1 18266466403578779557
23552423 10 18046079163236319182
241688 4 17905339424518204969
2748010 2 18050012095249299509
5084963 1 17988090005254135947
54338 74 18050819372812310930

>  <PUBCHEM_SHAPE_MULTIPOLES>  (1) 
203.67
2.84
2.72
0.71
0
0.44
-0.04
0.47
0.37
0
-0.58
0
0.14
0

>  <PUBCHEM_SHAPE_SELFOVERLAP>  (1) 
403.049

>  <PUBCHEM_SHAPE_VOLUME>  (1) 
123.8

>  <PUBCHEM_COORDINATE_TYPE>  (1) 
2
5
10

$$$$
