16134
     RDKit          3D

 11 11  0  0  0  0  0  0  0  0999 V2000
   -2.0773    0.0000   -0.0035 N   0  0  0  0  0  0  0  0  0  0  0  0
   -0.0627   -1.1997   -0.0009 N   0  0  0  0  0  0  0  0  0  0  0  0
   -0.0626    1.1999   -0.0031 N   0  0  0  0  0  0  0  0  0  0  0  0
    2.0154    0.0000    0.0009 N   0  0  0  0  0  0  0  0  0  0  0  0
    1.9837   -2.3448    0.0035 N   0  0  0  0  0  0  0  0  0  0  0  0
    1.9838    2.3447   -0.0002 N   0  0  0  0  0  0  0  0  0  0  0  0
   -0.6824    0.0002   -0.0027 C   0  0  0  0  0  0  0  0  0  0  0  0
   -2.8267   -1.2499   -0.0024 C   0  0  0  0  0  0  0  0  0  0  0  0
   -2.8268    1.2498    0.0086 C   0  0  0  0  0  0  0  0  0  0  0  0
    1.2778   -1.1221    0.0009 C   0  0  0  0  0  0  0  0  0  0  0  0
    1.2779    1.1221   -0.0011 C   0  0  0  0  0  0  0  0  0  0  0  0
  1  7  1  0
  1  8  1  0
  1  9  1  0
  2  7  2  0
  2 10  1  0
  3  7  1  0
  3 11  2  0
  4 10  2  0
  4 11  1  0
  5 10  1  0
  6 11  1  0
M  END
>  <PUBCHEM_COMPOUND_CID>  (1) 
16134

>  <PUBCHEM_CONFORMER_RMSD>  (1) 
0.4

>  <PUBCHEM_CONFORMER_DIVERSEORDER>  (1) 
1
2
3

>  <PUBCHEM_MMFF94_PARTIAL_CHARGES>  (1) 
15
1 -0.84
10 0.72
11 0.72
18 0.4
19 0.4
2 -0.62
20 0.4
21 0.4
3 -0.62
4 -0.62
5 -0.9
6 -0.9
7 0.72
8 0.37
9 0.37

>  <PUBCHEM_EFFECTIVE_ROTOR_COUNT>  (1) 
1

>  <PUBCHEM_PHARMACOPHORE_FEATURES>  (1) 
6
1 5 donor
1 6 donor
4 1 2 3 7 cation
4 2 4 5 10 cation
4 3 4 6 11 cation
6 2 3 4 7 10 11 rings

>  <PUBCHEM_HEAVY_ATOM_COUNT>  (1) 
11

>  <PUBCHEM_ATOM_DEF_STEREO_COUNT>  (1) 
0

>  <PUBCHEM_ATOM_UDEF_STEREO_COUNT>  (1) 
0

>  <PUBCHEM_BOND_DEF_STEREO_COUNT>  (1) 
0

>  <PUBCHEM_BOND_UDEF_STEREO_COUNT>  (1) 
0

>  <PUBCHEM_ISOTOPIC_ATOM_COUNT>  (1) 
0

>  <PUBCHEM_COMPONENT_COUNT>  (1) 
1

>  <PUBCHEM_CACTVS_TAUTO_COUNT>  (1) 
5

>  <PUBCHEM_CONFORMER_ID>  (1) 
00003F0600000001

>  <PUBCHEM_MMFF94_ENERGY>  (1) 
41.9048

>  <PUBCHEM_FEATURE_SELFOVERLAP>  (1) 
30.576

>  <PUBCHEM_SHAPE_FINGERPRINT>  (1) 
12897270 3 18338233898625189423
14325111 11 18338799047385932613
14648413 74 18408887308819114649
16945 1 18410573985188374405
17990270 104 18410291389273010155
19973954 147 18410575076458376633
20645477 70 18411412939106274751
20653091 64 18410293592554069642
21040471 1 18050567644868847460
21501502 16 18410575089432780389
23552423 10 18409451392591031055
241688 4 17906172854411180584
2748010 2 18409729564743113965
29004967 10 18409449150401902787
5084963 1 18129950107839853985
7364860 26 18342739619818691458

>  <PUBCHEM_SHAPE_MULTIPOLES>  (1) 
196.49
3.91
2.26
0.57
2.3
0
0
0
0
-1.26
0
0.04
0
-0.01

>  <PUBCHEM_SHAPE_SELFOVERLAP>  (1) 
397.855

>  <PUBCHEM_SHAPE_VOLUME>  (1) 
105.4

>  <PUBCHEM_COORDINATE_TYPE>  (1) 
2
5
10

$$$$
