1613
     RDKit          3D

 29 32  0  0  0  0  0  0  0  0999 V2000
   -1.0621   -1.7696    1.5343 S   0  0  0  0  0  0  0  0  0  0  0  0
   -6.7952   -0.2916   -1.5883 F   0  0  0  0  0  0  0  0  0  0  0  0
   -6.6289    1.3552   -0.1869 F   0  0  0  0  0  0  0  0  0  0  0  0
   -5.5564    1.4275   -2.0771 F   0  0  0  0  0  0  0  0  0  0  0  0
    1.3164    2.6437    1.2347 O   0  0  0  0  0  0  0  0  0  0  0  0
    4.1381   -3.9686   -1.1230 O   0  0  0  0  0  0  0  0  0  0  0  0
    2.4941   -2.4805   -1.6402 O   0  0  0  0  0  0  0  0  0  0  0  0
    1.6500    0.3715    1.5657 N   0  0  0  0  0  0  0  0  0  0  0  0
    2.3387   -0.7725    1.2890 N   0  0  0  0  0  0  0  0  0  0  0  0
   -1.5422    0.7595    1.3748 N   0  0  0  0  0  0  0  0  0  0  0  0
    0.5723    0.2099    2.5278 C   0  0  0  0  0  0  0  0  0  0  0  0
    3.7468    0.4845   -0.2546 C   0  0  0  0  0  0  0  0  0  0  0  0
    3.0454    1.6510    0.0284 C   0  0  0  0  0  0  0  0  0  0  0  0
    3.3190   -0.7395    0.4436 C   0  0  0  0  0  0  0  0  0  0  0  0
    1.9311    1.6072    0.9918 C   0  0  0  0  0  0  0  0  0  0  0  0
   -0.6965   -0.1308    1.8073 C   0  0  0  0  0  0  0  0  0  0  0  0
   -2.6016    0.1097    0.7583 C   0  0  0  0  0  0  0  0  0  0  0  0
   -2.5172   -1.2858    0.7460 C   0  0  0  0  0  0  0  0  0  0  0  0
    4.0479   -2.0348    0.1734 C   0  0  0  0  0  0  0  0  0  0  0  0
    4.8060    0.5080   -1.1666 C   0  0  0  0  0  0  0  0  0  0  0  0
    3.3972    2.8518   -0.5984 C   0  0  0  0  0  0  0  0  0  0  0  0
   -3.7228    0.7260    0.1613 C   0  0  0  0  0  0  0  0  0  0  0  0
   -4.7173   -0.0624   -0.4249 C   0  0  0  0  0  0  0  0  0  0  0  0
   -3.5123   -2.0839    0.1591 C   0  0  0  0  0  0  0  0  0  0  0  0
    5.1567    1.7058   -1.7917 C   0  0  0  0  0  0  0  0  0  0  0  0
    4.4539    2.8754   -1.5084 C   0  0  0  0  0  0  0  0  0  0  0  0
   -4.6114   -1.4489   -0.4248 C   0  0  0  0  0  0  0  0  0  0  0  0
   -5.9013    0.5923   -1.0547 C   0  0  0  0  0  0  0  0  0  0  0  0
    3.4515   -2.8100   -0.9557 C   0  0  0  0  0  0  0  0  0  0  0  0
  1 16  1  0
  1 18  1  0
  2 28  1  0
  3 28  1  0
  4 28  1  0
  5 15  2  0
  6 29  1  0
  7 29  2  0
  8  9  1  0
  8 11  1  0
  8 15  1  0
  9 14  2  0
 10 16  2  0
 10 17  1  0
 11 16  1  0
 12 13  2  0
 12 14  1  0
 12 20  1  0
 13 15  1  0
 13 21  1  0
 14 19  1  0
 17 18  2  0
 17 22  1  0
 18 24  1  0
 19 29  1  0
 20 25  2  0
 21 26  2  0
 22 23  2  0
 23 27  1  0
 23 28  1  0
 24 27  2  0
 25 26  1  0
M  END
>  <PUBCHEM_COMPOUND_CID>  (1) 
1613

>  <PUBCHEM_CONFORMER_RMSD>  (1) 
0.8

>  <PUBCHEM_CONFORMER_DIVERSEORDER>  (1) 
1
36
24
61
58
43
35
33
50
31
27
49
19
54
3
30
22
46
47
53
32
20
23
59
55
48
42
18
51
41
13
29
57
17
21
25
56
34
60
26
45
2
39
37
12
38
44
28
40
52
7
16
11
15
6
8
10
5
9
14
4

>  <PUBCHEM_MMFF94_PARTIAL_CHARGES>  (1) 
37
1 -0.08
10 -0.57
11 0.48
12 0.09
13 0.09
14 0.3
15 0.54
16 0.2
17 0.23
18 0.04
19 0.12
2 -0.34
20 -0.15
21 -0.15
22 -0.15
23 -0.14
24 -0.15
25 -0.15
26 -0.15
27 -0.15
28 1.16
29 0.66
3 -0.34
34 0.15
35 0.15
36 0.15
37 0.15
38 0.15
39 0.15
4 -0.34
40 0.15
41 0.5
5 -0.57
6 -0.65
7 -0.57
8 -0.3
9 -0.51

>  <PUBCHEM_EFFECTIVE_ROTOR_COUNT>  (1) 
5

>  <PUBCHEM_PHARMACOPHORE_FEATURES>  (1) 
10
1 10 acceptor
1 5 acceptor
1 6 acceptor
1 7 acceptor
1 9 acceptor
3 6 7 29 anion
5 1 10 16 17 18 rings
6 12 13 20 21 25 26 rings
6 17 18 22 23 24 27 rings
6 8 9 12 13 14 15 rings

>  <PUBCHEM_HEAVY_ATOM_COUNT>  (1) 
29

>  <PUBCHEM_ATOM_DEF_STEREO_COUNT>  (1) 
0

>  <PUBCHEM_ATOM_UDEF_STEREO_COUNT>  (1) 
0

>  <PUBCHEM_BOND_DEF_STEREO_COUNT>  (1) 
0

>  <PUBCHEM_BOND_UDEF_STEREO_COUNT>  (1) 
0

>  <PUBCHEM_ISOTOPIC_ATOM_COUNT>  (1) 
0

>  <PUBCHEM_COMPONENT_COUNT>  (1) 
1

>  <PUBCHEM_CACTVS_TAUTO_COUNT>  (1) 
1

>  <PUBCHEM_CONFORMER_ID>  (1) 
0000064D00000001

>  <PUBCHEM_MMFF94_ENERGY>  (1) 
62.6069

>  <PUBCHEM_FEATURE_SELFOVERLAP>  (1) 
50.903

>  <PUBCHEM_SHAPE_FINGERPRINT>  (1) 
10319926 262 9006242151697394689
10928967 22 17274256291947186847
11069576 57 17845662439073959270
11135926 11 18269857414067589576
11720765 8 18263072224733492234
11796584 16 15841541999321965271
13627167 48 17968380031409346997
13782708 43 15194138631360604021
14341114 328 11963398439982414033
14415361 349 17411361823219141926
14537116 161 18339626894628915549
14848178 5 13973961043558650293
15003188 33 18411422765315863729
15183329 4 18343021082364479833
15188451 53 12031794660716799929
15210252 30 17313383482526281028
15475509 84 8646232319401008094
16989378 47 17630074601810274774
17134984 74 17988356078372836287
17909252 39 18343299254216272520
18608769 82 17679593495799970099
20567600 234 12612757891903410987
21792934 111 10951780686038057311
22289505 5 18334295379387141140
22393880 68 18199192978175800144
23559900 14 18343013372455377483
238 59 18268441294467455514
27425 322 17603583079866094723
2838139 119 17678176203631415588
3004659 81 18340483379120105570
312425 54 11527682890006747775
312425 83 18333731312393940055
3472631 163 17458904950157317509
34797466 226 18259702307551681391
3610482 184 17916328098836417825
376196 1 17825392049015750024
392239 28 8574713503350829213
4066623 53 17895187741423944452
4098825 35 18261117404232831003
4280585 95 18051429374956029438
44802255 64 17395609494190933620
46194498 28 18333731290892626012
463206 1 17418082226844708447
57035037 87 16154005595277509958
59682541 52 18342727508401437341
633830 44 17895182325396252939
7970288 3 14620808101570564405
960060 61 18202001040362432801
9658208 31 16371020601957818259

>  <PUBCHEM_SHAPE_MULTIPOLES>  (1) 
546.28
14.59
3.39
1.98
18.12
1.36
0.31
-4.31
-10.18
-5.04
-1.49
-0.06
-0.06
0.95

>  <PUBCHEM_SHAPE_SELFOVERLAP>  (1) 
1200.224

>  <PUBCHEM_SHAPE_VOLUME>  (1) 
299.4

>  <PUBCHEM_COORDINATE_TYPE>  (1) 
2
5
10

$$$$
