16137
     RDKit          3D

 12 13  0  0  0  0  0  0  0  0999 V2000
   -1.3733   -0.7025   -0.0309 C   0  0  0  0  0  0  0  0  0  0  0  0
   -2.2142    0.5398   -0.4257 C   0  0  0  0  0  0  0  0  0  0  0  0
    0.1289   -0.3928   -0.0294 C   0  0  0  0  0  0  0  0  0  0  0  0
   -1.7423    1.8060    0.2739 C   0  0  0  0  0  0  0  0  0  0  0  0
   -0.3142    2.1235   -0.1452 C   0  0  0  0  0  0  0  0  0  0  0  0
    0.6085    0.9345   -0.0564 C   0  0  0  0  0  0  0  0  0  0  0  0
   -1.7238   -1.8174   -1.0427 C   0  0  0  0  0  0  0  0  0  0  0  0
   -1.7821   -1.1781    1.3803 C   0  0  0  0  0  0  0  0  0  0  0  0
    1.0711   -1.4379    0.0485 C   0  0  0  0  0  0  0  0  0  0  0  0
    1.9937    1.1784   -0.0505 C   0  0  0  0  0  0  0  0  0  0  0  0
    2.4430   -1.1811    0.0661 C   0  0  0  0  0  0  0  0  0  0  0  0
    2.9048    0.1274    0.0119 C   0  0  0  0  0  0  0  0  0  0  0  0
  1  2  1  0
  1  3  1  0
  1  7  1  0
  1  8  1  0
  2  4  1  0
  3  6  2  0
  3  9  1  0
  4  5  1  0
  5  6  1  0
  6 10  1  0
  9 11  2  0
 10 12  2  0
 11 12  1  0
M  END
>  <PUBCHEM_COMPOUND_CID>  (1) 
16137

>  <PUBCHEM_CONFORMER_RMSD>  (1) 
0.4

>  <PUBCHEM_CONFORMER_DIVERSEORDER>  (1) 
1

>  <PUBCHEM_MMFF94_PARTIAL_CHARGES>  (1) 
12
1 0.14
10 -0.15
11 -0.15
12 -0.15
25 0.15
26 0.15
27 0.15
28 0.15
3 -0.14
5 0.14
6 -0.14
9 -0.15

>  <PUBCHEM_EFFECTIVE_ROTOR_COUNT>  (1) 
0.8

>  <PUBCHEM_PHARMACOPHORE_FEATURES>  (1) 
3
3 1 7 8 hydrophobe
6 1 2 3 4 5 6 rings
6 3 6 9 10 11 12 rings

>  <PUBCHEM_HEAVY_ATOM_COUNT>  (1) 
12

>  <PUBCHEM_ATOM_DEF_STEREO_COUNT>  (1) 
0

>  <PUBCHEM_ATOM_UDEF_STEREO_COUNT>  (1) 
0

>  <PUBCHEM_BOND_DEF_STEREO_COUNT>  (1) 
0

>  <PUBCHEM_BOND_UDEF_STEREO_COUNT>  (1) 
0

>  <PUBCHEM_ISOTOPIC_ATOM_COUNT>  (1) 
0

>  <PUBCHEM_COMPONENT_COUNT>  (1) 
1

>  <PUBCHEM_CACTVS_TAUTO_COUNT>  (1) 
1

>  <PUBCHEM_CONFORMER_ID>  (1) 
00003F0900000001

>  <PUBCHEM_MMFF94_ENERGY>  (1) 
33.5528

>  <PUBCHEM_FEATURE_SELFOVERLAP>  (1) 
15.243

>  <PUBCHEM_SHAPE_FINGERPRINT>  (1) 
11206711 2 18336828696826445644
12423570 1 11466782096179505153
12524768 44 18267587913986912694
13024252 1 17748828496964434551
16945 1 18267580217400197948
18185500 45 18197776819736116487
19973954 147 18408889524990480264
20511035 2 18265343814986253181
20525323 117 18410568513626866768
20645476 183 17462031793728496638
20871998 184 18342743983436990055
21040471 1 18122906430362825564
21501502 16 18410571752137787304
22802520 49 18197798608448262966
2334 1 18337673138994488044
23552423 10 18333732442075807796
23559900 14 18128258879749714070
241688 4 18125996315565959635
2748010 2 18410291458140030588
369184 2 18131067147160560602
5084963 1 17843121660569033818
528886 8 18411411808774923514
66348 1 18338516335374023852

>  <PUBCHEM_SHAPE_MULTIPOLES>  (1) 
246.95
3.62
2.21
0.89
1.58
0.45
0.12
-0.39
0.02
-0.63
-0.11
-0.48
-0.33
-0.09

>  <PUBCHEM_SHAPE_SELFOVERLAP>  (1) 
520.272

>  <PUBCHEM_SHAPE_VOLUME>  (1) 
135.9

>  <PUBCHEM_COORDINATE_TYPE>  (1) 
2
5
10

$$$$
