16131
     RDKit          3D

 25 26  0  0  0  0  0  0  0  0999 V2000
   -1.0719    0.1776    0.1034 O   0  0  0  0  0  0  0  0  0  0  0  0
    0.9912    0.3613    1.7893 O   0  0  0  0  0  0  0  0  0  0  0  0
    0.1354    1.8350   -0.9374 O   0  0  0  0  0  0  0  0  0  0  0  0
   -4.7006    0.3728   -0.5135 N   0  0  0  0  0  0  0  0  0  0  0  0
    1.3024    0.1478    0.3975 C   0  0  0  0  0  0  0  0  0  0  0  0
   -3.4401   -0.1471    0.0155 C   0  0  0  0  0  0  0  0  0  0  0  0
    1.3387   -1.3534    0.1029 C   0  0  0  0  0  0  0  0  0  0  0  0
    2.6395    0.8053    0.0471 C   0  0  0  0  0  0  0  0  0  0  0  0
   -2.2708    0.7077   -0.4465 C   0  0  0  0  0  0  0  0  0  0  0  0
    0.0864    0.8419   -0.2214 C   0  0  0  0  0  0  0  0  0  0  0  0
   -5.7284   -0.6675   -0.5001 C   0  0  0  0  0  0  0  0  0  0  0  0
   -5.1389    1.5343    0.2596 C   0  0  0  0  0  0  0  0  0  0  0  0
    1.7527   -2.2480    1.0901 C   0  0  0  0  0  0  0  0  0  0  0  0
    2.8515    1.3152   -1.2340 C   0  0  0  0  0  0  0  0  0  0  0  0
    0.9576   -1.8275   -1.1524 C   0  0  0  0  0  0  0  0  0  0  0  0
    3.6460    0.8950    1.0088 C   0  0  0  0  0  0  0  0  0  0  0  0
   -6.0246   -1.1284    0.9169 C   0  0  0  0  0  0  0  0  0  0  0  0
   -6.4157    2.1253   -0.3136 C   0  0  0  0  0  0  0  0  0  0  0  0
    1.7856   -3.6165    0.8218 C   0  0  0  0  0  0  0  0  0  0  0  0
    4.0698    1.9146   -1.5533 C   0  0  0  0  0  0  0  0  0  0  0  0
    0.9905   -3.1960   -1.4205 C   0  0  0  0  0  0  0  0  0  0  0  0
    4.8643    1.4945    0.6893 C   0  0  0  0  0  0  0  0  0  0  0  0
    0.8986    1.7426    2.0756 C   0  0  0  0  0  0  0  0  0  0  0  0
    1.4045   -4.0905   -0.4333 C   0  0  0  0  0  0  0  0  0  0  0  0
    5.0761    2.0043   -0.5918 C   0  0  0  0  0  0  0  0  0  0  0  0
  1  9  1  0
  1 10  1  0
  2  5  1  0
  2 23  1  0
  3 10  2  0
  4  6  1  0
  4 11  1  0
  4 12  1  0
  5  7  1  0
  5  8  1  0
  5 10  1  0
  6  9  1  0
  7 13  2  0
  7 15  1  0
  8 14  2  0
  8 16  1  0
 11 17  1  0
 12 18  1  0
 13 19  1  0
 14 20  1  0
 15 21  2  0
 16 22  2  0
 19 24  2  0
 20 25  2  0
 21 24  1  0
 22 25  1  0
M  END
>  <PUBCHEM_COMPOUND_CID>  (1) 
16131

>  <PUBCHEM_CONFORMER_RMSD>  (1) 
1

>  <PUBCHEM_CONFORMER_DIVERSEORDER>  (1) 
1
28
59
31
82
57
67
49
61
45
53
16
71
9
54
50
51
13
40
48
10
44
69
29
18
21
25
38
86
78
3
47
74
37
22
23
77
64
46
75
76
11
62
56
14
36
24
33
88
34
55
66
52
60
15
87
12
65
39
80
63
72
68
83
42
5
41
81
2
70
7
19
89
6
85
58
32
8
30
84
90
26
4
17
73
43
27
35
79
20

>  <PUBCHEM_MMFF94_PARTIAL_CHARGES>  (1) 
33
1 -0.43
10 0.66
11 0.27
12 0.27
13 -0.15
14 -0.15
15 -0.15
16 -0.15
19 -0.15
2 -0.56
20 -0.15
21 -0.15
22 -0.15
23 0.28
24 -0.15
25 -0.15
3 -0.57
34 0.15
35 0.15
36 0.15
37 0.15
4 -0.81
44 0.15
45 0.15
46 0.15
47 0.15
5 0.63
51 0.15
52 0.15
6 0.27
7 -0.14
8 -0.14
9 0.28

>  <PUBCHEM_EFFECTIVE_ROTOR_COUNT>  (1) 
10

>  <PUBCHEM_PHARMACOPHORE_FEATURES>  (1) 
5
1 2 acceptor
1 3 acceptor
1 4 cation
6 7 13 15 19 21 24 rings
6 8 14 16 20 22 25 rings

>  <PUBCHEM_HEAVY_ATOM_COUNT>  (1) 
25

>  <PUBCHEM_ATOM_DEF_STEREO_COUNT>  (1) 
0

>  <PUBCHEM_ATOM_UDEF_STEREO_COUNT>  (1) 
0

>  <PUBCHEM_BOND_DEF_STEREO_COUNT>  (1) 
0

>  <PUBCHEM_BOND_UDEF_STEREO_COUNT>  (1) 
0

>  <PUBCHEM_ISOTOPIC_ATOM_COUNT>  (1) 
0

>  <PUBCHEM_COMPONENT_COUNT>  (1) 
1

>  <PUBCHEM_CACTVS_TAUTO_COUNT>  (1) 
1

>  <PUBCHEM_CONFORMER_ID>  (1) 
00003F0300000001

>  <PUBCHEM_MMFF94_ENERGY>  (1) 
77.7277

>  <PUBCHEM_FEATURE_SELFOVERLAP>  (1) 
25.372

>  <PUBCHEM_SHAPE_FINGERPRINT>  (1) 
10366900 7 18272646900879233371
10554248 39 17984128272572727173
10721379 63 18194696860328848526
10906281 52 17894927229908454221
11421498 54 18272380758461503241
12107183 9 17693098457990474057
12592029 89 18261109673555071968
12730499 353 18411708685889583555
12788726 201 17542511982254256854
13149001 5 17699852014616253056
13257819 37 18117862073241958854
133893 2 18120112601734716186
13533116 47 18201148846912440177
13583140 156 18060410336239137061
14118638 360 18341895178674171297
14790565 3 18192996134594354469
14863182 85 18335145297200649918
15849732 13 18040994077605183092
1601671 61 18408601482893288285
18222031 100 7997698614192873832
18681886 176 18190460652280601356
20197701 30 18340207492064248958
20567600 347 18410578396468317422
20600515 1 17118877354594863826
20645477 70 18338514132557155895
21054139 6 18270390732730705223
21344244 181 17845674632538931758
21421861 104 18127136273016780875
21521721 280 18198631110343680528
22224240 67 18341045341093456713
22393880 68 17703217529545762237
22956985 138 18116987781088982730
23559900 14 18266735780139201391
3178227 256 18340772653461812553
3411729 13 18409165485076396931
38695281 34 18409730702709058990
404807 78 18047469213098085027
4073 2 18260553321114633059
4340502 62 18343021120660158092
5104073 3 18337959974828668243
57359948 33 17967524637627886007
5895379 119 13046773540715358551
59755656 520 18341044229192708772
6669772 16 18342463660261108254
70251023 43 17771365092289047838
8272917 22 18335983073410397207
9841814 1 17973162833490243083

>  <PUBCHEM_SHAPE_MULTIPOLES>  (1) 
491.9
12.35
3.9
1.45
23.04
4.93
0.26
-8.3
-0.67
-3.07
-0.48
-1.07
-0.15
-0.13

>  <PUBCHEM_SHAPE_SELFOVERLAP>  (1) 
1027.472

>  <PUBCHEM_SHAPE_VOLUME>  (1) 
278.8

>  <PUBCHEM_COORDINATE_TYPE>  (1) 
2
5
10

$$$$
