16141
     RDKit          3D

 28 31  0  0  1  0  0  0  0  0999 V2000
    5.1413   -0.1944   -0.3973 O   0  0  0  0  0  0  0  0  0  0  0  0
   -5.6573    0.8351    0.2239 O   0  0  0  0  0  0  0  0  0  0  0  0
    6.5027   -0.5160    1.4375 O   0  0  0  0  0  0  0  0  0  0  0  0
   -6.6845   -0.8444    1.4271 O   0  0  0  0  0  0  0  0  0  0  0  0
    2.1957    0.5492   -0.2504 C   0  0  0  0  0  0  0  0  0  0  0  0
    2.7656   -0.8536   -0.5554 C   0  0  0  0  0  0  0  0  0  0  0  0
    0.7173    0.7225   -0.6529 C   0  0  0  0  0  0  0  0  0  0  0  0
   -0.2010   -0.4036   -0.1170 C   0  0  0  0  0  0  0  0  0  0  0  0
    1.8111   -1.9600   -0.0471 C   0  0  0  0  0  0  0  0  0  0  0  0
    4.0723   -0.8578    0.2738 C   0  0  0  0  0  0  0  0  0  0  0  0
    0.3648   -1.7804   -0.5078 C   0  0  0  0  0  0  0  0  0  0  0  0
    2.5074    0.7643    1.2402 C   0  0  0  0  0  0  0  0  0  0  0  0
   -1.6697   -0.2143   -0.6074 C   0  0  0  0  0  0  0  0  0  0  0  0
    0.1771    2.1012   -0.2417 C   0  0  0  0  0  0  0  0  0  0  0  0
    3.7405   -0.0898    1.5557 C   0  0  0  0  0  0  0  0  0  0  0  0
    3.0367   -1.0419   -2.0572 C   0  0  0  0  0  0  0  0  0  0  0  0
   -2.1586    1.2014   -0.3341 C   0  0  0  0  0  0  0  0  0  0  0  0
   -1.2391    2.3133   -0.7654 C   0  0  0  0  0  0  0  0  0  0  0  0
   -2.5971   -1.2882    0.0069 C   0  0  0  0  0  0  0  0  0  0  0  0
   -4.0675   -0.9121   -0.1131 C   0  0  0  0  0  0  0  0  0  0  0  0
   -3.3489    1.4671    0.2331 C   0  0  0  0  0  0  0  0  0  0  0  0
   -4.3485    0.4102    0.5959 C   0  0  0  0  0  0  0  0  0  0  0  0
    6.3104   -0.0923    0.3063 C   0  0  0  0  0  0  0  0  0  0  0  0
    7.3332    0.6299   -0.5391 C   0  0  0  0  0  0  0  0  0  0  0  0
   -6.6687   -0.0441    0.5020 C   0  0  0  0  0  0  0  0  0  0  0  0
    8.6572    0.7985    0.1855 C   0  0  0  0  0  0  0  0  0  0  0  0
   -7.7694    0.1299   -0.5180 C   0  0  0  0  0  0  0  0  0  0  0  0
   -8.9229   -0.8298   -0.2837 C   0  0  0  0  0  0  0  0  0  0  0  0
  1 10  1  0
  1 23  1  0
  2 22  1  0
  2 25  1  0
  3 23  2  0
  4 25  2  0
  5  6  1  0
  5  7  1  0
  5 12  1  0
  6  9  1  0
  6 10  1  0
  6 16  1  0
  7  8  1  0
  7 14  1  0
  8 11  1  0
  8 13  1  0
  9 11  1  0
 10 15  1  0
 12 15  1  0
 13 17  1  0
 13 19  1  0
 14 18  1  0
 17 18  1  0
 17 21  2  0
 19 20  1  0
 20 22  1  0
 21 22  1  0
 23 24  1  0
 24 26  1  0
 25 27  1  0
 27 28  1  0
M  END
>  <PUBCHEM_COMPOUND_CID>  (1) 
16141

>  <PUBCHEM_CONFORMER_RMSD>  (1) 
1

>  <PUBCHEM_CONFORMER_DIVERSEORDER>  (1) 
1
164
186
240
41
128
74
261
13
214
275
216
234
276
109
246
119
105
256
50
231
48
244
117
67
189
181
139
199
2
104
273
22
149
65
200
203
185
179
270
159
220
76
177
217
32
221
219
272
31
30
29
271
255
245
228
102
180
135
265
34
57
236
137
174
130
86
209
224
242
6
202
75
218
81
206
114
194
90
193
156
269
37
82
279
11
250
52
198
212
20
144
96
84
146
40
268
118
168
257
138
191
230
44
77
120
197
223
158
192
23
42
241
226
147
190
264
187
88
61
35
252
222
150
169
188
182
10
28
106
157
47
27
175
145
3
127
262
239
235
98
80
58
59
99
17
205
195
208
259
166
172
94
141
233
101
45
267
92
263
56
14
123
162
100
227
78
154
161
151
122
24
213
66
107
170
254
121
148
258
7
153
72
143
63
15
91
25
85
237
97
4
16
184
21
249
89
133
178
54
196
36
253
211
8
68
266
176
113
136
5
134
278
163
225
112
87
207
165
140
39
83
9
129
204
232
110
55
12
126
43
201
18
248
215
160
33
247
243
167
51
71
260
183
142
229
132
125
274
238
155
62
19
124
251
152
108
277
116
26
69
173
73
171
93
49
60
111
210
46
131
70
79
95
115
64
103
38
53

>  <PUBCHEM_MMFF94_PARTIAL_CHARGES>  (1) 
15
1 -0.43
10 0.28
13 0.14
17 -0.28
18 0.14
2 -0.43
21 -0.29
22 0.42
23 0.66
24 0.06
25 0.66
27 0.06
3 -0.57
4 -0.57
53 0.15

>  <PUBCHEM_EFFECTIVE_ROTOR_COUNT>  (1) 
8

>  <PUBCHEM_PHARMACOPHORE_FEATURES>  (1) 
8
1 26 hydrophobe
1 28 hydrophobe
1 3 acceptor
1 4 acceptor
5 5 6 10 12 15 rings
6 13 17 19 20 21 22 rings
6 5 6 7 8 9 11 rings
6 7 8 13 14 17 18 rings

>  <PUBCHEM_HEAVY_ATOM_COUNT>  (1) 
28

>  <PUBCHEM_ATOM_DEF_STEREO_COUNT>  (1) 
2

>  <PUBCHEM_ATOM_UDEF_STEREO_COUNT>  (1) 
5

>  <PUBCHEM_BOND_DEF_STEREO_COUNT>  (1) 
0

>  <PUBCHEM_BOND_UDEF_STEREO_COUNT>  (1) 
0

>  <PUBCHEM_ISOTOPIC_ATOM_COUNT>  (1) 
0

>  <PUBCHEM_COMPONENT_COUNT>  (1) 
1

>  <PUBCHEM_CACTVS_TAUTO_COUNT>  (1) 
1

>  <PUBCHEM_CONFORMER_ID>  (1) 
00003F0D00000001

>  <PUBCHEM_MMFF94_ENERGY>  (1) 
63.1655

>  <PUBCHEM_FEATURE_SELFOVERLAP>  (1) 
40.801

>  <PUBCHEM_SHAPE_FINGERPRINT>  (1) 
10 15 18408602565525162186
10050765 1 18047750395277573038
10165383 225 17846779616028472742
106641 1 18333732437965508864
10670039 82 9727363411242638071
11315181 36 18113622287960272369
11796584 16 16153716427333350971
11963148 33 18259981587416177859
12236239 1 17313103017214205956
12516196 113 18272089387916928761
12596602 18 17386000634020285328
12730499 353 17703792479680403014
12838862 33 18336813252303247551
13140716 1 18265334087170235715
13533116 47 16988570052642318047
13862211 1 18408605851707880431
13914758 101 14562808824792754405
14251764 18 18412826884619189129
14251764 46 18333449846439693387
1454969 45 18408044021886537204
14849402 71 17774720965139012176
15131766 46 14547015568979089394
15183329 4 10807937072643422004
15461852 350 17632573886260754503
15728490 51 18059853995902904623
15840311 113 17968099755260826588
16120349 18 18114462357245128604
18006028 8 18334856117548612029
18335252 98 18411139117660584222
18608769 82 18343582966580527183
19841028 212 16443335430330058274
20028762 73 18272934938709176871
21130935 74 18200879448746280923
21267235 1 18409735044989573285
22224240 67 18201716262524463206
23559900 14 18202278138804580689
24771293 8 18343306942476555741
249057 3 14476954610457788968
3004659 81 17748828531709509285
3009799 131 7997969076709640904
335352 9 18409447020731068479
350125 39 18412543219652736728
3545911 37 17561362872335029619
4325135 7 18187366537019373676
4340502 62 15410897353791827381
5104073 3 18196373611076316395
5758199 1 18131915953031492922
59682541 35 18412262865139809651
59755656 215 18202005404086460198
59755656 520 12535339078541596469
9663363 56 18186796989800922285
9962374 69 18338231691460340237

>  <PUBCHEM_SHAPE_MULTIPOLES>  (1) 
552.75
22.27
1.73
1.16
9.78
0.3
-0.03
-0.74
-3.22
0.3
0.3
-0.82
-0.13
0.32

>  <PUBCHEM_SHAPE_SELFOVERLAP>  (1) 
1160.625

>  <PUBCHEM_SHAPE_VOLUME>  (1) 
307.2

>  <PUBCHEM_COORDINATE_TYPE>  (1) 
2
5
10

$$$$
