16149
     RDKit          3D

 17 18  0  0  0  0  0  0  0  0999 V2000
   -5.8410   -0.4247    0.8928 O   0  0  0  0  0  0  0  0  0  0  0  0
    2.6253    0.1412   -0.0407 C   0  0  0  0  0  0  0  0  0  0  0  0
    4.0702    0.0975   -0.5416 C   0  0  0  0  0  0  0  0  0  0  0  0
    1.6767    0.6526   -1.1270 C   0  0  0  0  0  0  0  0  0  0  0  0
    5.0243   -0.3812    0.5539 C   0  0  0  0  0  0  0  0  0  0  0  0
    0.2452    0.6658   -0.6553 C   0  0  0  0  0  0  0  0  0  0  0  0
    6.4722   -0.3931    0.0643 C   0  0  0  0  0  0  0  0  0  0  0  0
   -0.5457   -0.4576   -0.8477 C   0  0  0  0  0  0  0  0  0  0  0  0
   -1.8812   -0.4615   -0.4134 C   0  0  0  0  0  0  0  0  0  0  0  0
   -0.2562    1.7979   -0.0377 C   0  0  0  0  0  0  0  0  0  0  0  0
   -2.4066    0.6902    0.2198 C   0  0  0  0  0  0  0  0  0  0  0  0
   -1.5808    1.8117    0.4000 C   0  0  0  0  0  0  0  0  0  0  0  0
    7.4272   -0.8360    1.1611 C   0  0  0  0  0  0  0  0  0  0  0  0
   -2.7072   -1.5829   -0.5936 C   0  0  0  0  0  0  0  0  0  0  0  0
   -3.7422    0.6864    0.6540 C   0  0  0  0  0  0  0  0  0  0  0  0
   -4.5483   -0.4369    0.4668 C   0  0  0  0  0  0  0  0  0  0  0  0
   -4.0317   -1.5693   -0.1559 C   0  0  0  0  0  0  0  0  0  0  0  0
  1 16  1  0
  2  3  1  0
  2  4  1  0
  3  5  1  0
  4  6  1  0
  5  7  1  0
  6  8  2  0
  6 10  1  0
  7 13  1  0
  8  9  1  0
  9 11  2  0
  9 14  1  0
 10 12  2  0
 11 12  1  0
 11 15  1  0
 14 17  2  0
 15 16  2  0
 16 17  1  0
M  END
>  <PUBCHEM_COMPOUND_CID>  (1) 
16149

>  <PUBCHEM_CONFORMER_RMSD>  (1) 
0.6

>  <PUBCHEM_CONFORMER_DIVERSEORDER>  (1) 
1
7
36
53
58
38
60
8
50
55
47
22
34
18
21
40
28
46
10
26
32
35
25
15
61
43
59
49
44
30
45
23
41
33
6
42
29
51
27
39
2
24
48
9
13
37
52
12
4
5
56
14
19
16
57
17
11
31
3
20
54

>  <PUBCHEM_MMFF94_PARTIAL_CHARGES>  (1) 
17
1 -0.53
10 -0.15
12 -0.15
14 -0.15
15 -0.15
16 0.08
17 -0.15
28 0.15
29 0.15
30 0.15
34 0.15
35 0.15
36 0.15
37 0.45
4 0.14
6 -0.14
8 -0.15

>  <PUBCHEM_EFFECTIVE_ROTOR_COUNT>  (1) 
5

>  <PUBCHEM_PHARMACOPHORE_FEATURES>  (1) 
5
1 1 donor
1 13 hydrophobe
5 2 3 4 5 7 hydrophobe
6 6 8 9 10 11 12 rings
6 9 11 14 15 16 17 rings

>  <PUBCHEM_HEAVY_ATOM_COUNT>  (1) 
17

>  <PUBCHEM_ATOM_DEF_STEREO_COUNT>  (1) 
0

>  <PUBCHEM_ATOM_UDEF_STEREO_COUNT>  (1) 
0

>  <PUBCHEM_BOND_DEF_STEREO_COUNT>  (1) 
0

>  <PUBCHEM_BOND_UDEF_STEREO_COUNT>  (1) 
0

>  <PUBCHEM_ISOTOPIC_ATOM_COUNT>  (1) 
0

>  <PUBCHEM_COMPONENT_COUNT>  (1) 
1

>  <PUBCHEM_CACTVS_TAUTO_COUNT>  (1) 
3

>  <PUBCHEM_CONFORMER_ID>  (1) 
00003F1500000001

>  <PUBCHEM_MMFF94_ENERGY>  (1) 
32.1212

>  <PUBCHEM_FEATURE_SELFOVERLAP>  (1) 
25.398

>  <PUBCHEM_SHAPE_FINGERPRINT>  (1) 
10 15 17561074822828908586
106641 1 15338834300760814367
11315181 36 18335420171144968060
12236239 1 18113059333300349116
12507557 5 14333126407569732067
12670543 26 12107779697398739736
13288520 33 17821728329604217397
13533116 47 18040437728927019828
13551218 46 18339080389451110102
13668630 136 16443067192822361194
13862211 1 18411983602551583423
14341114 176 18131069338443383208
14911166 2 11602822427863802549
15048467 5 12391519659261624811
15183329 4 8430325653977296928
15348495 7 17417801899098714194
15716309 27 18334574638498200802
17870717 6 13045945681378569600
1813 80 17749682804925571326
19784866 240 17312827073896799462
200 152 17022619767338219020
20281389 69 12463571760358446330
20871999 31 11674874494078393110
21267235 1 18335993024823371630
21637258 2 17821723970238850618
22224240 67 16630524037726242759
2297311 6 18130799932282654348
23035841 295 18187365432832938018
23198884 109 8142087572221570594
23366157 5 17976824507980059365
23379529 103 13554612900714730569
23402539 116 18131067152041019317
23559900 14 18042404806040867624
26918003 58 18113903775093722091
2767999 5 12103844553931126674
300161 21 9943803379540791708
351380 3 17967530173424128146
5104073 3 18057054712212473027
559249 180 18186799154168890917
56616090 284 14345796049944175692
69474 34 17203607116279649192

>  <PUBCHEM_SHAPE_MULTIPOLES>  (1) 
343.98
15.17
1.51
0.99
25.77
0.22
-0.01
-6.38
6.26
-1.31
0
0.35
-0.04
-0.8

>  <PUBCHEM_SHAPE_SELFOVERLAP>  (1) 
719.088

>  <PUBCHEM_SHAPE_VOLUME>  (1) 
196.5

>  <PUBCHEM_COORDINATE_TYPE>  (1) 
2
5
10

$$$$
