16157
     RDKit          3D

 10 10  0  0  0  0  0  0  0  0999 V2000
    1.2133    0.0001   -0.8510 N   0  0  0  0  0  0  0  0  0  0  0  0
    3.4763    0.0001   -0.2721 N   0  0  0  0  0  0  0  0  0  0  0  0
    1.9663   -0.0004    1.4390 N   0  0  0  0  0  0  0  0  0  0  0  0
   -0.1284    0.0001   -0.4574 C   0  0  0  0  0  0  0  0  0  0  0  0
   -0.7977    1.2080   -0.2610 C   0  0  0  0  0  0  0  0  0  0  0  0
   -0.7975   -1.2079   -0.2612 C   0  0  0  0  0  0  0  0  0  0  0  0
   -2.1362    1.2080    0.1318 C   0  0  0  0  0  0  0  0  0  0  0  0
   -2.1361   -1.2080    0.1314 C   0  0  0  0  0  0  0  0  0  0  0  0
   -2.8053   -0.0001    0.3278 C   0  0  0  0  0  0  0  0  0  0  0  0
    2.1452    0.0001    0.0725 C   0  0  0  0  0  0  0  0  0  0  0  0
  1  4  1  0
  1 10  2  3
  2 10  1  0
  3 10  1  0
  4  5  2  0
  4  6  1  0
  5  7  1  0
  6  8  2  0
  7  9  2  0
  8  9  1  0
M  END
>  <PUBCHEM_COMPOUND_CID>  (1) 
16157

>  <PUBCHEM_CONFORMER_RMSD>  (1) 
0.4

>  <PUBCHEM_CONFORMER_DIVERSEORDER>  (1) 
1

>  <PUBCHEM_MMFF94_PARTIAL_CHARGES>  (1) 
19
1 -0.63
10 0.55
11 0.15
12 0.15
13 0.15
14 0.15
15 0.15
16 0.4
17 0.4
18 0.4
19 0.4
2 -0.85
3 -0.85
4 0.18
5 -0.15
6 -0.15
7 -0.15
8 -0.15
9 -0.15

>  <PUBCHEM_EFFECTIVE_ROTOR_COUNT>  (1) 
1

>  <PUBCHEM_PHARMACOPHORE_FEATURES>  (1) 
4
1 2 donor
1 3 donor
4 1 2 3 10 cation
6 4 5 6 7 8 9 rings

>  <PUBCHEM_HEAVY_ATOM_COUNT>  (1) 
10

>  <PUBCHEM_ATOM_DEF_STEREO_COUNT>  (1) 
0

>  <PUBCHEM_ATOM_UDEF_STEREO_COUNT>  (1) 
0

>  <PUBCHEM_BOND_DEF_STEREO_COUNT>  (1) 
0

>  <PUBCHEM_BOND_UDEF_STEREO_COUNT>  (1) 
0

>  <PUBCHEM_ISOTOPIC_ATOM_COUNT>  (1) 
0

>  <PUBCHEM_COMPONENT_COUNT>  (1) 
1

>  <PUBCHEM_CACTVS_TAUTO_COUNT>  (1) 
2

>  <PUBCHEM_CONFORMER_ID>  (1) 
00003F1D00000001

>  <PUBCHEM_MMFF94_ENERGY>  (1) 
32.1775

>  <PUBCHEM_FEATURE_SELFOVERLAP>  (1) 
20.353

>  <PUBCHEM_SHAPE_FINGERPRINT>  (1) 
10857977 72 18342454880693248681
12932764 1 17531241755787618100
13024252 1 14923943440479215461
14325111 11 18339928125531332860
15310529 11 16081080480972060087
16945 1 18410576188875829999
20645464 45 17846501426105495166
20653085 51 15267341812317250353
20871998 184 18200319938860950687
21040471 1 18266750073584504429
23235685 24 18341895147554462917
23552423 10 17752772599866040453
2748010 2 18049456842130480421
369184 2 18411694387711151475
5084963 1 18060142050136119705

>  <PUBCHEM_SHAPE_MULTIPOLES>  (1) 
190.85
4.45
1.22
0.88
2.5
0
0.19
0
0.52
-0.87
-0.04
0.37
0
0

>  <PUBCHEM_SHAPE_SELFOVERLAP>  (1) 
394.252

>  <PUBCHEM_SHAPE_VOLUME>  (1) 
108

>  <PUBCHEM_COORDINATE_TYPE>  (1) 
2
5
10

$$$$
