16158
     RDKit          3D

 35 38  0  0  1  0  0  0  0  0999 V2000
   -2.3284    0.4894   -1.2008 F   0  0  0  0  0  0  0  0  0  0  0  0
   -5.5188   -2.2350   -0.0967 F   0  0  0  0  0  0  0  0  0  0  0  0
    1.7455   -1.0752   -1.6682 O   0  0  0  0  0  0  0  0  0  0  0  0
   -0.9919    1.5688    1.9520 O   0  0  0  0  0  0  0  0  0  0  0  0
    3.6865   -2.1697    0.6753 O   0  0  0  0  0  0  0  0  0  0  0  0
    4.9084    0.2011   -0.0223 O   0  0  0  0  0  0  0  0  0  0  0  0
   -6.8595    2.1657   -1.7962 O   0  0  0  0  0  0  0  0  0  0  0  0
    4.8701    2.5012   -0.0443 O   0  0  0  0  0  0  0  0  0  0  0  0
    0.5036   -0.7504    0.4587 C   0  0  0  0  0  0  0  0  0  0  0  0
   -0.7220   -1.5325   -0.0612 C   0  0  0  0  0  0  0  0  0  0  0  0
   -2.0558   -1.0666    0.5449 C   0  0  0  0  0  0  0  0  0  0  0  0
   -2.2803    0.4422    0.1856 C   0  0  0  0  0  0  0  0  0  0  0  0
    1.6264   -1.5040   -0.3175 C   0  0  0  0  0  0  0  0  0  0  0  0
   -0.3103   -2.9961    0.0942 C   0  0  0  0  0  0  0  0  0  0  0  0
    0.3027    0.7328    0.0842 C   0  0  0  0  0  0  0  0  0  0  0  0
    1.2154   -3.0033   -0.1932 C   0  0  0  0  0  0  0  0  0  0  0  0
   -1.0467    1.3220    0.5544 C   0  0  0  0  0  0  0  0  0  0  0  0
   -3.6884    0.9716    0.6691 C   0  0  0  0  0  0  0  0  0  0  0  0
   -3.2109   -1.9377    0.0222 C   0  0  0  0  0  0  0  0  0  0  0  0
    0.7158   -0.8927    1.9905 C   0  0  0  0  0  0  0  0  0  0  0  0
   -4.5731   -1.4388    0.4828 C   0  0  0  0  0  0  0  0  0  0  0  0
   -4.7539    0.0135    0.1176 C   0  0  0  0  0  0  0  0  0  0  0  0
    3.0065   -1.2561    0.2104 C   0  0  0  0  0  0  0  0  0  0  0  0
    1.5669   -3.8680   -1.4003 C   0  0  0  0  0  0  0  0  0  0  0  0
   -3.8426    1.0274    2.2061 C   0  0  0  0  0  0  0  0  0  0  0  0
   -3.9115    2.3916    0.1690 C   0  0  0  0  0  0  0  0  0  0  0  0
   -5.7654    0.4050   -0.6735 C   0  0  0  0  0  0  0  0  0  0  0  0
    3.5059    0.1712    0.1374 C   0  0  0  0  0  0  0  0  0  0  0  0
   -4.9156    2.7845   -0.6204 C   0  0  0  0  0  0  0  0  0  0  0  0
   -5.9235    1.8149   -1.0857 C   0  0  0  0  0  0  0  0  0  0  0  0
    5.4887    1.4452   -0.1024 C   0  0  0  0  0  0  0  0  0  0  0  0
    7.0075    1.3388   -0.2745 C   0  0  0  0  0  0  0  0  0  0  0  0
    7.3243    0.5679   -1.5630 C   0  0  0  0  0  0  0  0  0  0  0  0
    7.6123    2.7486   -0.3747 C   0  0  0  0  0  0  0  0  0  0  0  0
    7.6123    0.6227    0.9405 C   0  0  0  0  0  0  0  0  0  0  0  0
  1 12  1  0
  2 21  1  0
  3 13  1  0
  4 17  1  0
  5 23  2  0
  6 28  1  0
  6 31  1  0
  7 30  2  0
  8 31  2  0
  9 10  1  0
  9 13  1  0
  9 15  1  0
  9 20  1  0
 10 11  1  0
 10 14  1  0
 11 12  1  0
 11 19  1  0
 12 17  1  0
 12 18  1  0
 13 16  1  0
 13 23  1  0
 14 16  1  0
 15 17  1  0
 16 24  1  0
 18 22  1  0
 18 25  1  0
 18 26  1  0
 19 21  1  0
 21 22  1  0
 22 27  2  0
 23 28  1  0
 26 29  2  0
 27 30  1  0
 29 30  1  0
 31 32  1  0
 32 33  1  0
 32 34  1  0
 32 35  1  0
M  END
>  <PUBCHEM_COMPOUND_CID>  (1) 
16158

>  <PUBCHEM_CONFORMER_RMSD>  (1) 
1

>  <PUBCHEM_CONFORMER_DIVERSEORDER>  (1) 
7
151
63
75
49
77
149
9
55
111
61
134
22
156
145
104
103
26
78
38
141
105
113
76
62
23
140
128
143
117
32
52
3
17
120
58
146
148
31
121
36
5
29
99
85
41
101
139
109
64
150
89
112
1
87
115
155
45
72
54
125
60
160
43
144
80
82
122
124
102
132
114
137
92
56
57
98
136
6
74
66
4
12
135
133
106
153
79
90
118
152
8
10
59
11
107
35
116
21
130
158
33
51
129
86
154
108
42
34
13
157
84
131
47
19
126
93
67
50
70
81
30
2
97
69
127
37
73
46
68
95
44
83
159
16
110
123
53
119
28
91
15
18
48
138
39
71
27
20
40
142
24
94
147
96
88
25
14
65
100

>  <PUBCHEM_MMFF94_PARTIAL_CHARGES>  (1) 
27
1 -0.34
12 0.34
13 0.34
17 0.28
18 0.28
2 -0.34
21 0.48
22 -0.28
23 0.45
26 -0.29
27 -0.14
28 0.34
29 -0.14
3 -0.68
30 0.54
31 0.66
32 0.06
4 -0.68
5 -0.57
56 0.4
57 0.15
58 0.4
59 0.15
6 -0.43
62 0.15
7 -0.57
8 -0.57

>  <PUBCHEM_EFFECTIVE_ROTOR_COUNT>  (1) 
6.4

>  <PUBCHEM_PHARMACOPHORE_FEATURES>  (1) 
12
1 3 acceptor
1 3 donor
1 4 acceptor
1 4 donor
1 5 acceptor
1 7 acceptor
1 8 acceptor
4 32 33 34 35 hydrophobe
5 9 10 13 14 16 rings
6 11 12 18 19 21 22 rings
6 18 22 26 27 29 30 rings
6 9 10 11 12 15 17 rings

>  <PUBCHEM_HEAVY_ATOM_COUNT>  (1) 
35

>  <PUBCHEM_ATOM_DEF_STEREO_COUNT>  (1) 
6

>  <PUBCHEM_ATOM_UDEF_STEREO_COUNT>  (1) 
3

>  <PUBCHEM_BOND_DEF_STEREO_COUNT>  (1) 
0

>  <PUBCHEM_BOND_UDEF_STEREO_COUNT>  (1) 
0

>  <PUBCHEM_ISOTOPIC_ATOM_COUNT>  (1) 
0

>  <PUBCHEM_COMPONENT_COUNT>  (1) 
1

>  <PUBCHEM_CACTVS_TAUTO_COUNT>  (1) 
2

>  <PUBCHEM_CONFORMER_ID>  (1) 
00003F1E00000007

>  <PUBCHEM_MMFF94_ENERGY>  (1) 
114.8328

>  <PUBCHEM_FEATURE_SELFOVERLAP>  (1) 
60.995

>  <PUBCHEM_SHAPE_FINGERPRINT>  (1) 
10 15 18041001734904111577
10076449 9 18060418058700942663
10290309 65 18341339919979529415
10369192 42 18411420639512573284
10411042 1 17689437509177161211
10669705 176 18412549816991054948
10675989 125 17758109299122544161
10835480 77 18336260146615699117
11007060 377 18261398870498444058
11135926 11 18272376347566590801
11578080 2 17532071827074171349
11621639 254 18054222412655483996
11991303 11 17417810712113176214
12013929 112 18117301293244308268
12422481 6 17530966886634237052
12788726 201 17775008942743226936
13150687 139 18272094872806431398
13540713 5 17343793577505202635
13631057 29 18201717414345981263
13673619 4 11312049950500151041
13685833 64 10231752297363067884
13690498 29 17773588519912954879
13726171 33 18411989039790263841
13782708 43 11743834742686752140
13811026 1 18343019987274192478
13911987 19 18059855056474586847
14117953 113 18408042892996402292
14790565 3 18412267263487007256
14931854 50 17988642969488118208
15064986 266 18339647746810441177
15082195 135 18200315390807225062
15131766 46 15866616508444311878
15183329 4 18412549821412901888
15575132 122 18410859888603460420
15961568 22 18114462284046347748
16994733 274 17894344484345335544
17980427 23 17603872229869969830
18608769 82 18268715094021447715
18681886 176 18340483486636667320
19611394 137 17825401922580899251
20511986 3 18041271089467327319
21033648 144 18041274371080681341
21033648 29 18270109236680240408
22122407 14 17241342398764307148
23522609 53 17487908805011717985
23559900 14 18054509106107564455
2838139 119 18337388340045438772
3103668 31 17913480517769978615
350125 39 18340770429338373563
3918712 181 18411978096704813984
4058900 60 18335708213100476402
4073 2 17968099719914780930
5104073 3 18114467764408319171
5265222 85 18267868470320890624
563151 97 18409440410355290279
57527295 17 17774429496506021601
6058803 2 17270328574413900107
6327066 14 18409445903934108908
99344 41 18409163304055722650
9981440 41 18335993042410001506
999808 66 11239997893076267453

>  <PUBCHEM_SHAPE_MULTIPOLES>  (1) 
670.52
18.47
3.61
1.4
22.94
1.62
-0.22
-16.07
4.74
0.11
0.92
-0.62
-0.22
0.79

>  <PUBCHEM_SHAPE_SELFOVERLAP>  (1) 
1441.561

>  <PUBCHEM_SHAPE_VOLUME>  (1) 
372.1

>  <PUBCHEM_COORDINATE_TYPE>  (1) 
2
5
10

$$$$
