16166
     RDKit          3D

  8  7  0  0  1  0  0  0  0  0999 V2000
   -4.0263    0.7021    0.1381 Br  0  0  0  0  0  0  0  0  0  0  0  0
    3.9171    0.6778    0.1531 Cl  0  0  0  0  0  0  0  0  0  0  0  0
    0.0193   -0.2518   -0.2549 N   0  0  0  0  0  0  0  0  0  0  0  0
   -1.1921    0.4752    0.1233 C   0  0  0  0  0  0  0  0  0  0  0  0
    1.2104    0.5003    0.1379 C   0  0  0  0  0  0  0  0  0  0  0  0
    0.0294   -1.5806    0.3558 C   0  0  0  0  0  0  0  0  0  0  0  0
   -2.4194   -0.3014   -0.3153 C   0  0  0  0  0  0  0  0  0  0  0  0
    2.4617   -0.2214   -0.3380 C   0  0  0  0  0  0  0  0  0  0  0  0
  1  7  1  0
  2  8  1  0
  3  4  1  0
  3  5  1  0
  3  6  1  0
  4  7  1  0
  5  8  1  0
M  END
>  <PUBCHEM_COMPOUND_CID>  (1) 
16166

>  <PUBCHEM_CONFORMER_RMSD>  (1) 
0.6

>  <PUBCHEM_CONFORMER_DIVERSEORDER>  (1) 
1
31
20
29
14
5
30
22
26
12
25
8
2
11
18
16
28
15
9
4
24
23
27
3
21
17
10
19
6
7
13

>  <PUBCHEM_MMFF94_PARTIAL_CHARGES>  (1) 
8
1 -0.23
2 -0.29
3 -0.81
4 0.27
5 0.27
6 0.27
7 0.23
8 0.29

>  <PUBCHEM_EFFECTIVE_ROTOR_COUNT>  (1) 
4

>  <PUBCHEM_PHARMACOPHORE_FEATURES>  (1) 
2
1 1 hydrophobe
1 3 cation

>  <PUBCHEM_HEAVY_ATOM_COUNT>  (1) 
8

>  <PUBCHEM_ATOM_DEF_STEREO_COUNT>  (1) 
0

>  <PUBCHEM_ATOM_UDEF_STEREO_COUNT>  (1) 
0

>  <PUBCHEM_BOND_DEF_STEREO_COUNT>  (1) 
0

>  <PUBCHEM_BOND_UDEF_STEREO_COUNT>  (1) 
0

>  <PUBCHEM_ISOTOPIC_ATOM_COUNT>  (1) 
0

>  <PUBCHEM_COMPONENT_COUNT>  (1) 
1

>  <PUBCHEM_CACTVS_TAUTO_COUNT>  (1) 
1

>  <PUBCHEM_CONFORMER_ID>  (1) 
00003F2600000001

>  <PUBCHEM_MMFF94_ENERGY>  (1) 
11.3588

>  <PUBCHEM_FEATURE_SELFOVERLAP>  (1) 
10.148

>  <PUBCHEM_SHAPE_FINGERPRINT>  (1) 
10219947 1 17748829600781533813
11062470 55 17275105037334245436
12932764 1 16298375903107195037
14325111 11 18409730664027966255
14390081 3 18413106139351203593
18342897 14 18407760339281006792
20711985 327 8790883012240707987
21293036 1 18273214205143645325
22485316 2 9871749074509068917
23235685 24 18334572447368463057
23402539 116 18272360988689810756
23402655 69 18271232817378498797
366044 4 18409729573328092042
5460574 1 8286204950488037300

>  <PUBCHEM_SHAPE_MULTIPOLES>  (1) 
167.47
7.06
1.16
0.69
0.5
0.38
0.01
-2.73
0.14
0
0.13
0.04
0.01
-0.01

>  <PUBCHEM_SHAPE_SELFOVERLAP>  (1) 
276.644

>  <PUBCHEM_SHAPE_VOLUME>  (1) 
119.1

>  <PUBCHEM_COORDINATE_TYPE>  (1) 
2
5
10

$$$$
