16179
     RDKit          3D

 16 18  0  0  0  0  0  0  0  0999 V2000
    0.8507   -0.9230   -0.8332 O   0  0  0  0  0  0  0  0  0  0  0  0
    0.9081    1.3166   -0.4912 N   0  0  0  0  0  0  0  0  0  0  0  0
   -1.1043    0.2686   -1.5625 C   0  0  0  0  0  0  0  0  0  0  0  0
    0.2316    0.2853   -0.9468 C   0  0  0  0  0  0  0  0  0  0  0  0
   -2.2544    0.0861   -0.5797 C   0  0  0  0  0  0  0  0  0  0  0  0
    2.0434   -0.6180   -0.2422 C   0  0  0  0  0  0  0  0  0  0  0  0
    2.0750    0.7529   -0.0347 C   0  0  0  0  0  0  0  0  0  0  0  0
   -2.8327    1.2047   -0.0176 C   0  0  0  0  0  0  0  0  0  0  0  0
   -2.6805   -1.1918   -0.2843 C   0  0  0  0  0  0  0  0  0  0  0  0
    3.0643   -1.4948    0.1031 C   0  0  0  0  0  0  0  0  0  0  0  0
    3.2076    1.3217    0.5653 C   0  0  0  0  0  0  0  0  0  0  0  0
    4.1870   -0.9117    0.7005 C   0  0  0  0  0  0  0  0  0  0  0  0
    4.2596    0.4681    0.9281 C   0  0  0  0  0  0  0  0  0  0  0  0
   -3.8857    1.0377    0.8818 C   0  0  0  0  0  0  0  0  0  0  0  0
   -3.7336   -1.3586    0.6152 C   0  0  0  0  0  0  0  0  0  0  0  0
   -4.3362   -0.2437    1.1982 C   0  0  0  0  0  0  0  0  0  0  0  0
  1  4  1  0
  1  6  1  0
  2  4  2  0
  2  7  1  0
  3  4  1  0
  3  5  1  0
  5  8  2  0
  5  9  1  0
  6  7  2  0
  6 10  1  0
  7 11  1  0
  8 14  1  0
  9 15  2  0
 10 12  2  0
 11 13  2  0
 12 13  1  0
 14 16  2  0
 15 16  1  0
M  END
>  <PUBCHEM_COMPOUND_CID>  (1) 
16179

>  <PUBCHEM_CONFORMER_RMSD>  (1) 
0.6

>  <PUBCHEM_CONFORMER_DIVERSEORDER>  (1) 
1
3
6
4
5
2

>  <PUBCHEM_MMFF94_PARTIAL_CHARGES>  (1) 
25
1 -0.28
10 -0.15
11 -0.15
12 -0.15
13 -0.15
14 -0.15
15 -0.15
16 -0.15
19 0.15
2 -0.57
20 0.15
21 0.15
22 0.15
23 0.15
24 0.15
25 0.15
26 0.15
27 0.15
3 0.32
4 0.3
5 -0.14
6 0.14
7 0.23
8 -0.15
9 -0.15

>  <PUBCHEM_EFFECTIVE_ROTOR_COUNT>  (1) 
2

>  <PUBCHEM_PHARMACOPHORE_FEATURES>  (1) 
3
5 1 2 4 6 7 rings
6 5 8 9 14 15 16 rings
6 6 7 10 11 12 13 rings

>  <PUBCHEM_HEAVY_ATOM_COUNT>  (1) 
16

>  <PUBCHEM_ATOM_DEF_STEREO_COUNT>  (1) 
0

>  <PUBCHEM_ATOM_UDEF_STEREO_COUNT>  (1) 
0

>  <PUBCHEM_BOND_DEF_STEREO_COUNT>  (1) 
0

>  <PUBCHEM_BOND_UDEF_STEREO_COUNT>  (1) 
0

>  <PUBCHEM_ISOTOPIC_ATOM_COUNT>  (1) 
0

>  <PUBCHEM_COMPONENT_COUNT>  (1) 
1

>  <PUBCHEM_CACTVS_TAUTO_COUNT>  (1) 
1

>  <PUBCHEM_CONFORMER_ID>  (1) 
00003F3300000001

>  <PUBCHEM_MMFF94_ENERGY>  (1) 
32.1648

>  <PUBCHEM_FEATURE_SELFOVERLAP>  (1) 
15.341

>  <PUBCHEM_SHAPE_FINGERPRINT>  (1) 
10498660 4 12751243558511619635
10799339 124 18341612594488025113
11046707 91 16515683338381908011
11370993 144 18339925887842802609
11543360 7 8286195046098280417
11552529 35 18200025286766586331
12251169 10 18411420630838151199
12363563 72 16225767428095279965
12507560 40 18272374139805778981
12633257 1 18271821145939835179
12670546 177 8286199452645042667
12707595 3 15140966179161420781
12730499 353 11959741494726766669
12892183 10 18341895199072770217
13296908 3 17676199160990401396
13675066 3 17989202629670085756
13705890 14 12396300357172659940
14123260 362 14477243777604732963
14252887 29 18261109656380652866
14289901 80 18340204188791241401
14341114 176 18412270527409081200
14576447 43 12396303660034380144
15209289 33 17821452343701446803
15239191 94 16805041808978924755
15375462 189 17895189965847549810
15653759 3 18187645782259081165
16752209 62 14346062145001734213
1813 80 16877950416405750542
18186145 218 11455893589337217652
18915474 69 13262405465923227608
19050596 39 18412545435364900353
19862831 5 10737281350950106549
200 152 18199733873852160191
20279233 1 17968085413541903751
20281475 54 17894633660092490710
20361792 2 16008752437470832063
20671657 53 14129060326424752967
20871999 31 8502368906939958537
21065198 48 18342458162006038859
21065199 12 18412546500632750011
21503847 285 17489873769386310048
21713013 43 11675171401315697033
22646028 28 15647053767792180345
22854114 59 18343020003799920903
231179 274 14405186157707492786
23402539 116 14056994980371684574
23402655 69 9223239554420436874
25 1 11671794779062248205
26918003 58 18335697226241557257
4028521 119 12175627252555064115
42 15 18335141981448739963
4280585 95 11389126763991759256
465052 167 14924813189000820441
474 4 13470402283925969003
4921388 177 10807926090211943421
5104073 3 18411698789852196680
5281201 14 10159696927759263010
59027123 10 9079123262437629411
5924683 9 18272083950868354623

>  <PUBCHEM_SHAPE_MULTIPOLES>  (1) 
318.42
9.29
1.51
1.17
0.26
0.1
-0.1
0.86
4.41
-0.09
0.13
0.44
-0.06
0.13

>  <PUBCHEM_SHAPE_SELFOVERLAP>  (1) 
706.847

>  <PUBCHEM_SHAPE_VOLUME>  (1) 
170.1

>  <PUBCHEM_COORDINATE_TYPE>  (1) 
2
5
10

$$$$
