16175
     RDKit          3D

 22 24  0  0  0  0  0  0  0  0999 V2000
   -0.5159    0.9577    1.9547 O   0  0  0  0  0  0  0  0  0  0  0  0
    2.8173   -2.4150    0.0320 O   0  0  0  0  0  0  0  0  0  0  0  0
    0.6874   -1.8596    0.7056 O   0  0  0  0  0  0  0  0  0  0  0  0
    0.0274    0.6275   -0.3135 N   0  0  0  0  0  0  0  0  0  0  0  0
   -1.6858   -0.0544   -1.8171 N   0  0  0  0  0  0  0  0  0  0  0  0
    1.4206    0.8850   -0.0725 C   0  0  0  0  0  0  0  0  0  0  0  0
   -2.2462    0.3308    0.5304 C   0  0  0  0  0  0  0  0  0  0  0  0
   -0.4568    0.2870   -1.5789 C   0  0  0  0  0  0  0  0  0  0  0  0
   -0.8377    0.6893    0.7995 C   0  0  0  0  0  0  0  0  0  0  0  0
   -2.6044   -0.0498   -0.7628 C   0  0  0  0  0  0  0  0  0  0  0  0
    2.2884   -0.1518    0.2524 C   0  0  0  0  0  0  0  0  0  0  0  0
    1.8843    2.1927   -0.1691 C   0  0  0  0  0  0  0  0  0  0  0  0
   -3.1957    0.3482    1.5590 C   0  0  0  0  0  0  0  0  0  0  0  0
    0.4532    0.3601   -2.7881 C   0  0  0  0  0  0  0  0  0  0  0  0
   -3.9313   -0.4148   -1.0186 C   0  0  0  0  0  0  0  0  0  0  0  0
    3.6365    0.1222    0.4835 C   0  0  0  0  0  0  0  0  0  0  0  0
    3.2324    2.4666    0.0619 C   0  0  0  0  0  0  0  0  0  0  0  0
   -4.5141   -0.0170    1.2907 C   0  0  0  0  0  0  0  0  0  0  0  0
   -4.8821   -0.3996    0.0030 C   0  0  0  0  0  0  0  0  0  0  0  0
    4.1084    1.4315    0.3882 C   0  0  0  0  0  0  0  0  0  0  0  0
    1.8282   -1.5306    0.3609 C   0  0  0  0  0  0  0  0  0  0  0  0
    2.4859   -3.8061    0.0988 C   0  0  0  0  0  0  0  0  0  0  0  0
  1  9  2  0
  2 21  1  0
  2 22  1  0
  3 21  2  0
  4  6  1  0
  4  8  1  0
  4  9  1  0
  5  8  2  0
  5 10  1  0
  6 11  2  0
  6 12  1  0
  7  9  1  0
  7 10  2  0
  7 13  1  0
  8 14  1  0
 10 15  1  0
 11 16  1  0
 11 21  1  0
 12 17  2  0
 13 18  2  0
 15 19  2  0
 16 20  2  0
 17 20  1  0
 18 19  1  0
M  END
>  <PUBCHEM_COMPOUND_CID>  (1) 
16175

>  <PUBCHEM_CONFORMER_RMSD>  (1) 
0.6

>  <PUBCHEM_CONFORMER_DIVERSEORDER>  (1) 
2
5
1
6
4
3

>  <PUBCHEM_MMFF94_PARTIAL_CHARGES>  (1) 
30
1 -0.57
10 0.18
11 0.09
12 -0.15
13 -0.15
14 0.06
15 -0.15
16 -0.15
17 -0.15
18 -0.15
19 -0.15
2 -0.43
20 -0.15
21 0.63
22 0.28
23 0.15
24 0.15
28 0.15
29 0.15
3 -0.57
30 0.15
31 0.15
32 0.15
33 0.15
4 -0.24
5 -0.63
6 0.12
7 0.09
8 0.45
9 0.54

>  <PUBCHEM_EFFECTIVE_ROTOR_COUNT>  (1) 
3

>  <PUBCHEM_PHARMACOPHORE_FEATURES>  (1) 
5
1 1 acceptor
1 3 acceptor
6 4 5 7 8 9 10 rings
6 6 11 12 16 17 20 rings
6 7 10 13 15 18 19 rings

>  <PUBCHEM_HEAVY_ATOM_COUNT>  (1) 
22

>  <PUBCHEM_ATOM_DEF_STEREO_COUNT>  (1) 
0

>  <PUBCHEM_ATOM_UDEF_STEREO_COUNT>  (1) 
0

>  <PUBCHEM_BOND_DEF_STEREO_COUNT>  (1) 
0

>  <PUBCHEM_BOND_UDEF_STEREO_COUNT>  (1) 
0

>  <PUBCHEM_ISOTOPIC_ATOM_COUNT>  (1) 
0

>  <PUBCHEM_COMPONENT_COUNT>  (1) 
1

>  <PUBCHEM_CACTVS_TAUTO_COUNT>  (1) 
1

>  <PUBCHEM_CONFORMER_ID>  (1) 
00003F2F00000002

>  <PUBCHEM_MMFF94_ENERGY>  (1) 
93.6708

>  <PUBCHEM_FEATURE_SELFOVERLAP>  (1) 
25.402

>  <PUBCHEM_SHAPE_FINGERPRINT>  (1) 
10064457 181 18265336294614744242
11370993 70 18262517108246576627
11578080 2 18043534914920839068
12107183 9 17838345073353164761
12236239 1 17917711344202980088
12363563 72 15864072100344601821
12553582 1 18052818049003343174
13140716 1 18265046028362030120
13533116 47 18412265021994425611
13583140 156 18341893035037266705
13965767 371 17343812320616460264
14289901 80 18412259541194039353
14341114 328 18130791204302148497
14386348 63 17095521794896057571
14787075 74 17769089391018997559
15375358 24 17240754108286944069
15375462 189 17989202651002504369
15848702 151 18187645782665087723
16752209 62 16486963025502613125
16945 1 18408602569640774700
17138139 8 17555139791668941335
1813 80 17913780422835847630
18915476 22 18263064583242816022
20233049 118 13912319105394656773
20344682 1 17531239591377302156
204376 136 18191588755747928648
20645477 70 18262223461401198559
20715895 44 17484251756191675561
21421861 104 17915198844290532635
21756936 100 17839186556352829456
22182313 1 17458335309061749503
229495 10 18340469102342845709
23493267 7 17417821706791219839
23557571 272 16878216472428749996
23559900 14 18338230466582446739
23566358 27 18342462517288052158
23598288 3 17344898629445617441
25222932 49 17986674986104827703
298252 57 16915950745511658268
3286 77 18187645739478271706
4340502 62 18338520858412443203
458136 41 18335707178107881014
474 4 18198058277828863856
59755656 520 18196927984761022088
633830 44 18129111176384377548
7097593 13 18129102221176728411
77492 1 17917704729789677564
81228 2 16825555131758058184
8272917 22 18411984650148901173
84936 31 18334017206754919798

>  <PUBCHEM_SHAPE_MULTIPOLES>  (1) 
425.18
7.96
2.5
1.72
5.58
2.55
-0.91
-0.35
1.83
-4.29
0.31
1.08
-0.31
-0.29

>  <PUBCHEM_SHAPE_SELFOVERLAP>  (1) 
936.429

>  <PUBCHEM_SHAPE_VOLUME>  (1) 
227.9

>  <PUBCHEM_COORDINATE_TYPE>  (1) 
2
5
10

$$$$
