16170
     RDKit          3D

 23 25  0  0  1  0  0  0  0  0999 V2000
   -7.2341    1.2036   -0.2098 Cl  0  0  0  0  0  0  0  0  0  0  0  0
    4.9691   -0.8953   -0.8044 O   0  0  0  0  0  0  0  0  0  0  0  0
    4.6851    1.8245   -0.3209 O   0  0  0  0  0  0  0  0  0  0  0  0
   -1.0070   -1.0743    0.6554 N   0  0  0  0  0  0  0  0  0  0  0  0
    0.3204   -1.7197    0.5474 C   0  0  0  0  0  0  0  0  0  0  0  0
   -0.9632    0.1294    1.4947 C   0  0  0  0  0  0  0  0  0  0  0  0
    1.4741   -0.7599    0.3056 C   0  0  0  0  0  0  0  0  0  0  0  0
    0.0164    1.1933    0.9940 C   0  0  0  0  0  0  0  0  0  0  0  0
    1.3376    0.6167    0.5585 C   0  0  0  0  0  0  0  0  0  0  0  0
   -1.5975   -0.8098   -0.6570 C   0  0  0  0  0  0  0  0  0  0  0  0
    0.5786   -2.5619    1.8071 C   0  0  0  0  0  0  0  0  0  0  0  0
    2.7064   -1.2521   -0.1534 C   0  0  0  0  0  0  0  0  0  0  0  0
    2.4250    1.4746    0.3395 C   0  0  0  0  0  0  0  0  0  0  0  0
   -3.0115   -0.3051   -0.5444 C   0  0  0  0  0  0  0  0  0  0  0  0
    3.7843   -0.3914   -0.3599 C   0  0  0  0  0  0  0  0  0  0  0  0
    3.6437    0.9711   -0.1131 C   0  0  0  0  0  0  0  0  0  0  0  0
   -4.0624   -1.2115   -0.5380 C   0  0  0  0  0  0  0  0  0  0  0  0
   -3.2439    1.0598   -0.4483 C   0  0  0  0  0  0  0  0  0  0  0  0
   -5.3723   -0.7435   -0.4337 C   0  0  0  0  0  0  0  0  0  0  0  0
   -4.5538    1.5277   -0.3440 C   0  0  0  0  0  0  0  0  0  0  0  0
   -5.6180    0.6261   -0.3367 C   0  0  0  0  0  0  0  0  0  0  0  0
    5.1577   -0.9559   -2.2168 C   0  0  0  0  0  0  0  0  0  0  0  0
    5.5654    2.0536    0.7780 C   0  0  0  0  0  0  0  0  0  0  0  0
  1 21  1  0
  2 15  1  0
  2 22  1  0
  3 16  1  0
  3 23  1  0
  4  5  1  0
  4  6  1  0
  4 10  1  0
  5  7  1  0
  5 11  1  0
  6  8  1  0
  7  9  2  0
  7 12  1  0
  8  9  1  0
  9 13  1  0
 10 14  1  0
 12 15  2  0
 13 16  2  0
 14 17  2  0
 14 18  1  0
 15 16  1  0
 17 19  1  0
 18 20  2  0
 19 21  2  0
 20 21  1  0
M  END
>  <PUBCHEM_COMPOUND_CID>  (1) 
16170

>  <PUBCHEM_CONFORMER_RMSD>  (1) 
0.8

>  <PUBCHEM_CONFORMER_DIVERSEORDER>  (1) 
1
5
14
3
11
10
16
15
9
12
13
8
17
2
7
4
6

>  <PUBCHEM_MMFF94_PARTIAL_CHARGES>  (1) 
28
1 -0.18
10 0.41
12 -0.15
13 -0.15
14 -0.14
15 0.08
16 0.08
17 -0.15
18 -0.15
19 -0.15
2 -0.36
20 -0.15
21 0.18
22 0.28
23 0.28
3 -0.36
34 0.15
35 0.15
36 0.15
37 0.15
38 0.15
39 0.15
4 -0.81
5 0.41
6 0.27
7 -0.14
8 0.14
9 -0.14

>  <PUBCHEM_EFFECTIVE_ROTOR_COUNT>  (1) 
4.8

>  <PUBCHEM_PHARMACOPHORE_FEATURES>  (1) 
6
1 2 acceptor
1 3 acceptor
1 4 cation
6 14 17 18 19 20 21 rings
6 4 5 6 7 8 9 rings
6 7 9 12 13 15 16 rings

>  <PUBCHEM_HEAVY_ATOM_COUNT>  (1) 
23

>  <PUBCHEM_ATOM_DEF_STEREO_COUNT>  (1) 
0

>  <PUBCHEM_ATOM_UDEF_STEREO_COUNT>  (1) 
1

>  <PUBCHEM_BOND_DEF_STEREO_COUNT>  (1) 
0

>  <PUBCHEM_BOND_UDEF_STEREO_COUNT>  (1) 
0

>  <PUBCHEM_ISOTOPIC_ATOM_COUNT>  (1) 
0

>  <PUBCHEM_COMPONENT_COUNT>  (1) 
1

>  <PUBCHEM_CACTVS_TAUTO_COUNT>  (1) 
1

>  <PUBCHEM_CONFORMER_ID>  (1) 
00003F2A00000001

>  <PUBCHEM_MMFF94_ENERGY>  (1) 
85.6551

>  <PUBCHEM_FEATURE_SELFOVERLAP>  (1) 
30.471

>  <PUBCHEM_SHAPE_FINGERPRINT>  (1) 
10165383 225 17676776391947816046
10498660 4 17968080989915778965
10670039 82 17458631056156730716
10692045 39 17677873705068925194
10693767 8 18057323890524794334
11796584 16 14908175378405774661
12236239 1 17917713504681968545
12293681 160 18131633417234693360
12403259 415 18188223090367398522
12516196 113 11095883774119979811
12633257 1 15140681409828833772
12730499 353 18114187406434328515
12788726 201 16415490341147989289
12892183 10 11241964884670401854
12916748 109 18187364354537612145
13533116 47 16702306732952076318
13540713 4 18193573374837418762
14528608 73 18335136492802432087
15183329 4 17988650661673857349
15196674 1 18412542119760995573
1813 80 13470688152627869490
18186145 218 18334285470385717519
18222031 100 11887956570613262130
19784866 140 17918276424544251571
19784866 240 16701751458110572262
19784866 34 18260823804489480355
19862831 5 18343864407086515434
200 152 17275107219356830554
20645477 70 17988650692403305862
21033648 29 18114186388421493224
21120745 212 16456552410595305154
21304304 249 8935002590137579249
221357 26 18272087167350388493
22182313 1 18194702568794351362
22393880 68 18411133598020843653
23402655 69 18343579668018925821
23559900 14 18272652377020713768
2637199 183 18335419049952937963
2916195 48 18337665433686223568
29717793 49 17489874808325089028
3004659 81 18272653420354784406
314173 85 12607407697512146483
34797466 226 18060140946577587837
3545911 37 18334012770892245437
4073 2 18260831552431257714
4340502 62 17022618659120586723
463206 1 14548732880886120700
474 4 17894630374816945205
4990 188 18272089396142756231
5104073 3 17895189983444137995
59682541 52 17917994936287033308
59755656 215 18339928121468753799
59755656 520 17822003246319413234
633830 44 18336255834046410895
6442390 28 17967252013824956299
8988823 20 14620787189722575818

>  <PUBCHEM_SHAPE_MULTIPOLES>  (1) 
458.48
14.71
2.13
1.3
10.57
0.13
-0.06
-6.09
-5.34
-1.3
0.57
-1.29
0.54
0.86

>  <PUBCHEM_SHAPE_SELFOVERLAP>  (1) 
970.179

>  <PUBCHEM_SHAPE_VOLUME>  (1) 
259.7

>  <PUBCHEM_COORDINATE_TYPE>  (1) 
2
5
10

$$$$
