16188
     RDKit          3D

 24 27  0  0  1  0  0  0  0  0999 V2000
    3.3690   -2.3835   -0.6121 O   0  0  0  0  0  0  0  0  0  0  0  0
   -6.6462    0.3921   -0.7061 O   0  0  0  0  0  0  0  0  0  0  0  0
    1.6793   -0.8730    0.3458 C   0  0  0  0  0  0  0  0  0  0  0  0
    1.0540    0.4383   -0.1846 C   0  0  0  0  0  0  0  0  0  0  0  0
   -0.3815    0.6990    0.3133 C   0  0  0  0  0  0  0  0  0  0  0  0
   -1.3312   -0.5041    0.1062 C   0  0  0  0  0  0  0  0  0  0  0  0
    0.6875   -2.0578    0.1811 C   0  0  0  0  0  0  0  0  0  0  0  0
    2.9173   -1.0356   -0.5913 C   0  0  0  0  0  0  0  0  0  0  0  0
    1.2226    0.3469   -1.7136 C   0  0  0  0  0  0  0  0  0  0  0  0
   -0.7150   -1.7734    0.7204 C   0  0  0  0  0  0  0  0  0  0  0  0
   -2.7560   -0.2126    0.6774 C   0  0  0  0  0  0  0  0  0  0  0  0
    2.3800   -0.6260   -1.9723 C   0  0  0  0  0  0  0  0  0  0  0  0
   -0.9753    1.9660   -0.3198 C   0  0  0  0  0  0  0  0  0  0  0  0
    2.0709   -0.7652    1.8335 C   0  0  0  0  0  0  0  0  0  0  0  0
   -2.3322    2.2931    0.2905 C   0  0  0  0  0  0  0  0  0  0  0  0
   -3.2864    1.1299    0.1935 C   0  0  0  0  0  0  0  0  0  0  0  0
   -3.7191   -1.3674    0.3295 C   0  0  0  0  0  0  0  0  0  0  0  0
    4.0526   -0.1657   -0.2214 C   0  0  0  0  0  0  0  0  0  0  0  0
   -5.1752   -1.0077    0.5675 C   0  0  0  0  0  0  0  0  0  0  0  0
   -4.5352    1.3248   -0.2594 C   0  0  0  0  0  0  0  0  0  0  0  0
   -5.5358    0.2347   -0.2040 C   0  0  0  0  0  0  0  0  0  0  0  0
    4.9750    0.5412    0.0795 C   0  0  0  0  0  0  0  0  0  0  0  0
    6.0294    1.3495    0.4230 C   0  0  0  0  0  0  0  0  0  0  0  0
    6.9514    2.0566    0.7233 C   0  0  0  0  0  0  0  0  0  0  0  0
  1  8  1  0
  2 21  2  0
  3  4  1  0
  3  7  1  0
  3  8  1  0
  3 14  1  0
  4  5  1  0
  4  9  1  0
  5  6  1  0
  5 13  1  0
  6 10  1  0
  6 11  1  0
  7 10  1  0
  8 12  1  0
  8 18  1  0
  9 12  1  0
 11 16  1  0
 11 17  1  0
 13 15  1  0
 15 16  1  0
 16 20  2  0
 17 19  1  0
 18 22  3  0
 19 21  1  0
 20 21  1  0
 22 23  1  0
 23 24  3  0
M  END
>  <PUBCHEM_COMPOUND_CID>  (1) 
16188

>  <PUBCHEM_CONFORMER_RMSD>  (1) 
0.6

>  <PUBCHEM_CONFORMER_DIVERSEORDER>  (1) 
1
39
58
17
32
44
46
34
47
12
6
54
57
40
62
59
51
29
49
48
11
20
38
41
50
52
22
24
56
18
30
13
21
26
53
15
28
37
35
3
42
9
27
8
45
63
33
7
14
55
36
25
2
23
31
10
19
16
5
60
43
61
4

>  <PUBCHEM_MMFF94_PARTIAL_CHARGES>  (1) 
14
1 -0.68
11 0.14
15 0.14
16 -0.28
18 -0.2
19 0.06
2 -0.57
20 -0.14
21 0.49
24 -0.18
46 0.4
49 0.15
50 0.18
8 0.48

>  <PUBCHEM_EFFECTIVE_ROTOR_COUNT>  (1) 
1.8

>  <PUBCHEM_PHARMACOPHORE_FEATURES>  (1) 
8
1 1 acceptor
1 1 donor
1 2 acceptor
1 24 hydrophobe
5 3 4 8 9 12 rings
6 11 16 17 19 20 21 rings
6 3 4 5 6 7 10 rings
6 5 6 11 13 15 16 rings

>  <PUBCHEM_HEAVY_ATOM_COUNT>  (1) 
24

>  <PUBCHEM_ATOM_DEF_STEREO_COUNT>  (1) 
1

>  <PUBCHEM_ATOM_UDEF_STEREO_COUNT>  (1) 
5

>  <PUBCHEM_BOND_DEF_STEREO_COUNT>  (1) 
0

>  <PUBCHEM_BOND_UDEF_STEREO_COUNT>  (1) 
0

>  <PUBCHEM_ISOTOPIC_ATOM_COUNT>  (1) 
0

>  <PUBCHEM_COMPONENT_COUNT>  (1) 
1

>  <PUBCHEM_CACTVS_TAUTO_COUNT>  (1) 
8

>  <PUBCHEM_CONFORMER_ID>  (1) 
00003F3C00000001

>  <PUBCHEM_MMFF94_ENERGY>  (1) 
58.8953

>  <PUBCHEM_FEATURE_SELFOVERLAP>  (1) 
40.802

>  <PUBCHEM_SHAPE_FINGERPRINT>  (1) 
10 15 18336822096290295992
10366900 7 15841549669738358635
10498660 4 18335704875736540789
10835480 77 18338792326073799269
11578080 2 17460291297071504708
12236239 1 17603585235607062666
12516196 113 18344146990871774001
12596602 18 17676201403506857184
12838862 33 18262221292964940453
13224815 77 18336550413289938971
13402501 40 18341611559834092832
13533116 47 17531803546617094690
13911987 19 16701748262918595816
14739800 52 18336532877207709872
14787075 74 18343016705307437168
14856354 85 15339120173446718501
15196674 1 18337113354532138747
15961568 22 18410294714089913476
16752209 62 18336267817574566945
17349148 13 17530974552781334611
173720 79 17967248715616483738
17980427 23 17969502787599751054
200 152 18271806792428117729
20511986 3 17822559530762561521
21150785 3 17774998020910060671
21267235 1 18335996285632087627
21365058 27 15769782398346766988
22079108 93 18411412934758189324
22149856 69 18192177974280268595
22393880 68 17970912146188644895
23402539 116 18409727399868808182
23557571 272 18201160966418963385
23559900 14 18339648828604402630
2838139 119 18130780201329763152
2916195 48 18411135853110906080
300161 21 17895188892459030011
3009799 131 18260544524726393565
34797466 226 17775292664008892820
34934 24 18409163328950287738
4072396 5 16153426143225611170
4325135 7 18201998841397439956
4340502 62 18408885135845172646
5104073 3 18263370204499219938
5486654 2 18411141363585588756
57527585 21 17273685464681320537
59554788 281 17312829281716056210
59755656 215 18341613737419226880
67856867 119 18041565865683830789
7495541 125 17417804011547260522

>  <PUBCHEM_SHAPE_MULTIPOLES>  (1) 
482.17
13.79
2.18
1.2
2.56
0.09
-0.26
5.87
1.13
0.68
0.2
0.87
-0.2
1.08

>  <PUBCHEM_SHAPE_SELFOVERLAP>  (1) 
1033.733

>  <PUBCHEM_SHAPE_VOLUME>  (1) 
261.5

>  <PUBCHEM_COORDINATE_TYPE>  (1) 
2
5
10

$$$$
