16196
     RDKit          3D

 12 12  0  0  0  0  0  0  0  0999 V2000
    0.8608   -3.0705    0.0297 I   0  0  0  0  0  0  0  0  0  0  0  0
    0.8596    3.0709    0.0290 I   0  0  0  0  0  0  0  0  0  0  0  0
   -4.2774   -0.0004   -0.0215 I   0  0  0  0  0  0  0  0  0  0  0  0
    2.5778   -0.0006   -1.2115 O   0  0  0  0  0  0  0  0  0  0  0  0
    2.7509    0.0006    1.0549 O   0  0  0  0  0  0  0  0  0  0  0  0
    0.5906    0.0003    0.0267 C   0  0  0  0  0  0  0  0  0  0  0  0
   -0.1065   -1.2079    0.0197 C   0  0  0  0  0  0  0  0  0  0  0  0
   -0.1070    1.2081    0.0200 C   0  0  0  0  0  0  0  0  0  0  0  0
   -1.5013   -1.2082    0.0060 C   0  0  0  0  0  0  0  0  0  0  0  0
   -1.5018    1.2077    0.0063 C   0  0  0  0  0  0  0  0  0  0  0  0
   -2.1990   -0.0004   -0.0005 C   0  0  0  0  0  0  0  0  0  0  0  0
    2.0531    0.0005    0.0412 C   0  0  0  0  0  0  0  0  0  0  0  0
  1  7  1  0
  2  8  1  0
  3 11  1  0
  4 12  1  0
  5 12  2  0
  6  7  2  0
  6  8  1  0
  6 12  1  0
  7  9  1  0
  8 10  2  0
  9 11  2  0
 10 11  1  0
M  END
>  <PUBCHEM_COMPOUND_CID>  (1) 
16196

>  <PUBCHEM_CONFORMER_RMSD>  (1) 
0.4

>  <PUBCHEM_CONFORMER_DIVERSEORDER>  (1) 
1

>  <PUBCHEM_MMFF94_PARTIAL_CHARGES>  (1) 
15
1 -0.08
10 -0.15
11 0.08
12 0.63
13 0.15
14 0.15
15 0.5
2 -0.08
3 -0.08
4 -0.65
5 -0.57
6 0.09
7 0.08
8 0.08
9 -0.15

>  <PUBCHEM_EFFECTIVE_ROTOR_COUNT>  (1) 
1

>  <PUBCHEM_PHARMACOPHORE_FEATURES>  (1) 
7
1 1 hydrophobe
1 2 hydrophobe
1 3 hydrophobe
1 4 acceptor
1 5 acceptor
3 4 5 12 anion
6 6 7 8 9 10 11 rings

>  <PUBCHEM_HEAVY_ATOM_COUNT>  (1) 
12

>  <PUBCHEM_ATOM_DEF_STEREO_COUNT>  (1) 
0

>  <PUBCHEM_ATOM_UDEF_STEREO_COUNT>  (1) 
0

>  <PUBCHEM_BOND_DEF_STEREO_COUNT>  (1) 
0

>  <PUBCHEM_BOND_UDEF_STEREO_COUNT>  (1) 
0

>  <PUBCHEM_ISOTOPIC_ATOM_COUNT>  (1) 
0

>  <PUBCHEM_COMPONENT_COUNT>  (1) 
1

>  <PUBCHEM_CACTVS_TAUTO_COUNT>  (1) 
1

>  <PUBCHEM_CONFORMER_ID>  (1) 
00003F4400000001

>  <PUBCHEM_MMFF94_ENERGY>  (1) 
36.2863

>  <PUBCHEM_FEATURE_SELFOVERLAP>  (1) 
35.578

>  <PUBCHEM_SHAPE_FINGERPRINT>  (1) 
10967382 1 18410855451791558227
10980938 120 18338798918916708891
12423570 1 10069465403184130207
13140716 1 18266740371369304107
13380535 76 17908979160093585517
13380536 305 18338523052782100085
14993402 34 18410018753307203357
161256 15 18125160437541956583
16945 1 18410576188860005657
18186145 218 18339641247950201925
193761 8 17690279313674887265
20511035 2 17825679012548577747
20588541 1 18334861602026462211
20645476 183 17750809919970879398
20645477 70 18266733581448586863
21501502 16 17979643338033902131
2334 1 17978228593192028305
23402539 116 18271795844155722798
23419403 2 15305534276268212545
23552423 10 18046072553350280735
23557571 272 16831780549014867158
23559900 14 18342186605000404076
241688 4 17905614302377676233
2748010 2 18048038759650786831
3060560 45 18413101779980562591
53812653 166 18342731927606150163

>  <PUBCHEM_SHAPE_MULTIPOLES>  (1) 
271.02
4.83
3.39
0.82
5.24
0
0.03
0
0.03
-2.12
-0.05
-0.32
0
0

>  <PUBCHEM_SHAPE_SELFOVERLAP>  (1) 
503.602

>  <PUBCHEM_SHAPE_VOLUME>  (1) 
178.4

>  <PUBCHEM_COORDINATE_TYPE>  (1) 
2
5
10

$$$$
