16197
     RDKit          3D

 14 14  0  0  1  0  0  0  0  0999 V2000
    4.6974    0.0372    0.2442 Cl  0  0  0  0  0  0  0  0  0  0  0  0
   -2.4423   -2.1130   -0.6268 O   0  0  0  0  0  0  0  0  0  0  0  0
   -1.7705   -1.5391    1.4597 O   0  0  0  0  0  0  0  0  0  0  0  0
   -1.9898    1.2420    0.1490 C   0  0  0  0  0  0  0  0  0  0  0  0
   -1.2705   -0.0270   -0.3926 C   0  0  0  0  0  0  0  0  0  0  0  0
    0.2456   -0.0098   -0.2312 C   0  0  0  0  0  0  0  0  0  0  0  0
   -3.5136    1.1438   -0.0144 C   0  0  0  0  0  0  0  0  0  0  0  0
   -1.5084    2.5137   -0.5645 C   0  0  0  0  0  0  0  0  0  0  0  0
   -1.8319   -1.2873    0.2627 C   0  0  0  0  0  0  0  0  0  0  0  0
    0.7881    0.5924    0.8838 C   0  0  0  0  0  0  0  0  0  0  0  0
    1.0238   -0.5979   -1.2053 C   0  0  0  0  0  0  0  0  0  0  0  0
    2.1750    0.6077    1.0317 C   0  0  0  0  0  0  0  0  0  0  0  0
    2.4107   -0.5829   -1.0574 C   0  0  0  0  0  0  0  0  0  0  0  0
    2.9864    0.0201    0.0611 C   0  0  0  0  0  0  0  0  0  0  0  0
  1 14  1  0
  2  9  1  0
  3  9  2  0
  4  5  1  0
  4  7  1  0
  4  8  1  0
  5  6  1  0
  5  9  1  0
  6 10  2  0
  6 11  1  0
 10 12  1  0
 11 13  2  0
 12 14  2  0
 13 14  1  0
M  END
>  <PUBCHEM_COMPOUND_CID>  (1) 
16197

>  <PUBCHEM_CONFORMER_RMSD>  (1) 
0.6

>  <PUBCHEM_CONFORMER_DIVERSEORDER>  (1) 
1
3
6
4
9
7
8
5
2

>  <PUBCHEM_MMFF94_PARTIAL_CHARGES>  (1) 
16
1 -0.18
10 -0.15
11 -0.15
12 -0.15
13 -0.15
14 0.18
2 -0.65
23 0.15
24 0.15
25 0.15
26 0.15
27 0.5
3 -0.57
5 0.2
6 -0.14
9 0.66

>  <PUBCHEM_EFFECTIVE_ROTOR_COUNT>  (1) 
3

>  <PUBCHEM_PHARMACOPHORE_FEATURES>  (1) 
5
1 2 acceptor
1 3 acceptor
3 2 3 9 anion
3 4 7 8 hydrophobe
6 6 10 11 12 13 14 rings

>  <PUBCHEM_HEAVY_ATOM_COUNT>  (1) 
14

>  <PUBCHEM_ATOM_DEF_STEREO_COUNT>  (1) 
0

>  <PUBCHEM_ATOM_UDEF_STEREO_COUNT>  (1) 
1

>  <PUBCHEM_BOND_DEF_STEREO_COUNT>  (1) 
0

>  <PUBCHEM_BOND_UDEF_STEREO_COUNT>  (1) 
0

>  <PUBCHEM_ISOTOPIC_ATOM_COUNT>  (1) 
0

>  <PUBCHEM_COMPONENT_COUNT>  (1) 
1

>  <PUBCHEM_CACTVS_TAUTO_COUNT>  (1) 
1

>  <PUBCHEM_CONFORMER_ID>  (1) 
00003F4500000001

>  <PUBCHEM_MMFF94_ENERGY>  (1) 
32.7681

>  <PUBCHEM_FEATURE_SELFOVERLAP>  (1) 
25.431

>  <PUBCHEM_SHAPE_FINGERPRINT>  (1) 
12138202 97 18340480071746919445
124424 183 18200869583242578282
12500047 106 18336822001040898550
12716758 59 18265902366951179030
13024252 1 17748825220152249075
13380535 76 18272366417317443847
13538477 17 17530977885908123377
13581323 91 18114464474347136697
13760787 19 18335703823981308138
14289901 80 18335416924434269392
15219456 202 18059861640474932838
15309172 13 16702305676231852934
15653759 3 18413386553518302688
15775835 57 18262516966554944601
16945 1 18338508651693492021
17844478 74 18200879585941829298
18175812 5 18273209828914992036
18186145 218 17912370831400840677
18534176 82 18412258424106909829
19026448 5 18040714775681217076
19049666 15 18055925294252673702
200 152 15913320312678954295
20201158 50 17989205906487539540
20279233 1 17988647380587881518
20588541 1 18201720609084120813
20645477 56 18410014291010476844
20645477 70 17059497318925469414
20715346 28 17774714355320745840
20871998 184 18411427219523880415
21061003 4 17417818386960926128
21501502 16 18338802341546798908
21524375 3 18047188545136713213
23402539 116 18337942416353892205
23402655 69 17202475598745746685
23493267 7 18342455886047918608
23526113 38 17774157890541263342
23557571 272 18341059600511674948
23559900 14 18200032825288382582
25 1 17700132101886048913
2748010 2 17845919844895531048
276578 36 17970636186129303249
305870 269 17754452348537720569
6333449 129 18342454837880680357
69090 78 18272646810389572847
77492 1 17022907851889634036
81228 2 18408609188480777097
8809292 202 18342176648400996282

>  <PUBCHEM_SHAPE_MULTIPOLES>  (1) 
278.24
6.17
1.86
1.12
4.61
0.08
0.07
0.63
0.32
-2.15
-0.14
0.19
-0.2
0.6

>  <PUBCHEM_SHAPE_SELFOVERLAP>  (1) 
562.395

>  <PUBCHEM_SHAPE_VOLUME>  (1) 
164.4

>  <PUBCHEM_COORDINATE_TYPE>  (1) 
2
5
10

$$$$
