16205
     RDKit          3D

 21 21  0  0  0  0  0  0  0  0999 V2000
   -1.4671   -0.6754    0.9650 O   0  0  0  0  0  0  0  0  0  0  0  0
   -0.4357    0.5155   -0.7625 O   0  0  0  0  0  0  0  0  0  0  0  0
    2.0299    0.0339    0.3069 N   0  0  0  0  0  0  0  0  0  0  0  0
    2.1542    1.4672    0.5781 C   0  0  0  0  0  0  0  0  0  0  0  0
    3.2493   -0.6684    0.6886 C   0  0  0  0  0  0  0  0  0  0  0  0
    2.9773    2.1449   -0.5159 C   0  0  0  0  0  0  0  0  0  0  0  0
    3.3765   -1.9744   -0.0938 C   0  0  0  0  0  0  0  0  0  0  0  0
    0.8738   -0.5183    1.0153 C   0  0  0  0  0  0  0  0  0  0  0  0
    3.1014    3.6479   -0.2631 C   0  0  0  0  0  0  0  0  0  0  0  0
    4.6610   -2.7173    0.2761 C   0  0  0  0  0  0  0  0  0  0  0  0
   -0.3829   -0.1407    0.2691 C   0  0  0  0  0  0  0  0  0  0  0  0
    3.9492    4.3242   -1.3288 C   0  0  0  0  0  0  0  0  0  0  0  0
    4.7776   -4.0356   -0.4723 C   0  0  0  0  0  0  0  0  0  0  0  0
   -2.6954   -0.3888    0.3643 C   0  0  0  0  0  0  0  0  0  0  0  0
   -3.2268   -1.2598   -0.5871 C   0  0  0  0  0  0  0  0  0  0  0  0
   -3.3902    0.7687    0.7153 C   0  0  0  0  0  0  0  0  0  0  0  0
   -4.4528   -0.9731   -1.1875 C   0  0  0  0  0  0  0  0  0  0  0  0
   -4.6163    1.0552    0.1149 C   0  0  0  0  0  0  0  0  0  0  0  0
   -2.4979   -2.5034   -0.9768 C   0  0  0  0  0  0  0  0  0  0  0  0
   -2.8376    1.7139    1.7306 C   0  0  0  0  0  0  0  0  0  0  0  0
   -5.1475    0.1842   -0.8364 C   0  0  0  0  0  0  0  0  0  0  0  0
  1 11  1  0
  1 14  1  0
  2 11  2  0
  3  4  1  0
  3  5  1  0
  3  8  1  0
  4  6  1  0
  5  7  1  0
  6  9  1  0
  7 10  1  0
  8 11  1  0
  9 12  1  0
 10 13  1  0
 14 15  2  0
 14 16  1  0
 15 17  1  0
 15 19  1  0
 16 18  2  0
 16 20  1  0
 17 21  2  0
 18 21  1  0
M  END
>  <PUBCHEM_COMPOUND_CID>  (1) 
16205

>  <PUBCHEM_CONFORMER_RMSD>  (1) 
1

>  <PUBCHEM_CONFORMER_DIVERSEORDER>  (1) 
1
18
73
6
56
37
40
39
72
47
65
54
43
36
38
68
70
9
59
51
20
71
15
49
13
67
75
8
22
63
31
48
14
50
66
52
46
19
58
29
44
69
35
5
41
25
28
60
33
42
7
57
11
24
4
3
53
26
21
45
17
55
16
74
23
2
32
34
64
10
30
62
27
61
12

>  <PUBCHEM_MMFF94_PARTIAL_CHARGES>  (1) 
18
1 -0.23
11 0.66
14 0.08
15 -0.14
16 -0.14
17 -0.15
18 -0.15
19 0.14
2 -0.57
20 0.14
21 -0.15
3 -0.81
4 0.27
42 0.15
43 0.15
5 0.27
50 0.15
8 0.33

>  <PUBCHEM_EFFECTIVE_ROTOR_COUNT>  (1) 
10

>  <PUBCHEM_PHARMACOPHORE_FEATURES>  (1) 
5
1 12 hydrophobe
1 13 hydrophobe
1 2 acceptor
1 3 cation
6 14 15 16 17 18 21 rings

>  <PUBCHEM_HEAVY_ATOM_COUNT>  (1) 
21

>  <PUBCHEM_ATOM_DEF_STEREO_COUNT>  (1) 
0

>  <PUBCHEM_ATOM_UDEF_STEREO_COUNT>  (1) 
0

>  <PUBCHEM_BOND_DEF_STEREO_COUNT>  (1) 
0

>  <PUBCHEM_BOND_UDEF_STEREO_COUNT>  (1) 
0

>  <PUBCHEM_ISOTOPIC_ATOM_COUNT>  (1) 
0

>  <PUBCHEM_COMPONENT_COUNT>  (1) 
1

>  <PUBCHEM_CACTVS_TAUTO_COUNT>  (1) 
1

>  <PUBCHEM_CONFORMER_ID>  (1) 
00003F4D00000001

>  <PUBCHEM_MMFF94_ENERGY>  (1) 
38.8482

>  <PUBCHEM_FEATURE_SELFOVERLAP>  (1) 
25.371

>  <PUBCHEM_SHAPE_FINGERPRINT>  (1) 
10759866 29 18270679908129953766
11049842 53 16986342402986314668
12107183 9 18055078648851044833
12788726 201 17632307791462009561
13009979 54 18059583421099393856
13533116 47 18342170107477359071
13590594 115 18191029993519808328
15840311 113 18260266327401015549
15842332 3 17987536886501993792
17492 89 18340203093865562491
17539 30 17688027519016031918
17818456 19 17916588609402010280
1813 80 18264483993331763674
18186145 218 17458340844973848675
18335252 98 18117278275908068643
20286276 3 18337116760193895411
20645477 70 18334850636627016898
2255824 54 18408601470393183642
23402539 116 17631439095713599465
23557571 272 14549027554339523105
23559900 14 18200580454307384747
23566358 27 18409731793852453982
3057174 1 17975992165509420868
312423 11 18272096006371517211
4409770 3 17398387525670605156
474 4 18115018739866480536
53777708 50 18342181106403229675
559249 180 17914890938006415547
60123966 16 18188469333563889341
633830 44 18113889477458843251
67856867 119 18341603875942103112
9709674 26 18410291449503188523
9841814 1 17968083202118984856
9971528 1 18339917126584363714
9981440 41 17905323280053001824

>  <PUBCHEM_SHAPE_MULTIPOLES>  (1) 
415.45
11.6
4.63
1.22
1.96
1.81
-0.08
-2.77
2.45
-10.8
1.84
0.6
0.42
-2.29

>  <PUBCHEM_SHAPE_SELFOVERLAP>  (1) 
823.58

>  <PUBCHEM_SHAPE_VOLUME>  (1) 
248.7

>  <PUBCHEM_COORDINATE_TYPE>  (1) 
2
5
10

$$$$
