16209
     RDKit          3D

 18 18  0  0  1  0  0  0  0  0999 V2000
    1.0809    2.4688    1.0212 Cl  0  0  0  0  0  0  0  0  0  0  0  0
    0.4835   -0.4555    0.7908 O   0  0  0  0  0  0  0  0  0  0  0  0
   -0.1864   -0.1059   -1.4202 O   0  0  0  0  0  0  0  0  0  0  0  0
   -2.8132   -0.1064   -0.4780 N   0  0  0  0  0  0  0  0  0  0  0  0
   -1.7908   -0.8315    0.2733 C   0  0  0  0  0  0  0  0  0  0  0  0
   -2.6384    1.3373   -0.3188 C   0  0  0  0  0  0  0  0  0  0  0  0
   -4.1506   -0.5094   -0.0433 C   0  0  0  0  0  0  0  0  0  0  0  0
   -1.9986   -2.3310    0.1122 C   0  0  0  0  0  0  0  0  0  0  0  0
   -0.4312   -0.4195   -0.2621 C   0  0  0  0  0  0  0  0  0  0  0  0
   -3.6553    2.1076   -1.1438 C   0  0  0  0  0  0  0  0  0  0  0  0
   -4.3801   -0.1641    1.4183 C   0  0  0  0  0  0  0  0  0  0  0  0
    1.7758   -0.0913    0.4055 C   0  0  0  0  0  0  0  0  0  0  0  0
    2.6318   -1.0804   -0.0322 C   0  0  0  0  0  0  0  0  0  0  0  0
    2.1533    1.2332    0.4735 C   0  0  0  0  0  0  0  0  0  0  0  0
    3.9248   -0.7283   -0.4196 C   0  0  0  0  0  0  0  0  0  0  0  0
    2.2160   -2.5130   -0.1027 C   0  0  0  0  0  0  0  0  0  0  0  0
    3.4465    1.5851    0.0862 C   0  0  0  0  0  0  0  0  0  0  0  0
    4.3321    0.6043   -0.3604 C   0  0  0  0  0  0  0  0  0  0  0  0
  1 14  1  0
  2  9  1  0
  2 12  1  0
  3  9  2  0
  4  5  1  0
  4  6  1  0
  4  7  1  0
  5  8  1  0
  5  9  1  0
  6 10  1  0
  7 11  1  0
 12 13  2  0
 12 14  1  0
 13 15  1  0
 13 16  1  0
 14 17  2  0
 15 18  2  0
 17 18  1  0
M  END
>  <PUBCHEM_COMPOUND_CID>  (1) 
16209

>  <PUBCHEM_CONFORMER_RMSD>  (1) 
0.8

>  <PUBCHEM_CONFORMER_DIVERSEORDER>  (1) 
2
25
40
37
20
48
10
11
47
36
45
38
28
33
41
26
49
8
43
42
34
24
16
46
22
35
6
23
12
39
15
44
31
14
18
29
19
7
27
32
30
21
13
4
9
17
5
1
3

>  <PUBCHEM_MMFF94_PARTIAL_CHARGES>  (1) 
18
1 -0.18
12 0.08
13 -0.14
14 0.18
15 -0.15
16 0.14
17 -0.15
18 -0.15
2 -0.23
3 -0.57
33 0.15
37 0.15
38 0.15
4 -0.81
5 0.33
6 0.27
7 0.27
9 0.66

>  <PUBCHEM_EFFECTIVE_ROTOR_COUNT>  (1) 
6

>  <PUBCHEM_PHARMACOPHORE_FEATURES>  (1) 
3
1 3 acceptor
1 4 cation
6 12 13 14 15 17 18 rings

>  <PUBCHEM_HEAVY_ATOM_COUNT>  (1) 
18

>  <PUBCHEM_ATOM_DEF_STEREO_COUNT>  (1) 
0

>  <PUBCHEM_ATOM_UDEF_STEREO_COUNT>  (1) 
1

>  <PUBCHEM_BOND_DEF_STEREO_COUNT>  (1) 
0

>  <PUBCHEM_BOND_UDEF_STEREO_COUNT>  (1) 
0

>  <PUBCHEM_ISOTOPIC_ATOM_COUNT>  (1) 
0

>  <PUBCHEM_COMPONENT_COUNT>  (1) 
1

>  <PUBCHEM_CACTVS_TAUTO_COUNT>  (1) 
1

>  <PUBCHEM_CONFORMER_ID>  (1) 
00003F5100000002

>  <PUBCHEM_MMFF94_ENERGY>  (1) 
47.2117

>  <PUBCHEM_FEATURE_SELFOVERLAP>  (1) 
15.223

>  <PUBCHEM_SHAPE_FINGERPRINT>  (1) 
10366900 7 18261674882497949195
10498660 4 17749658598337364781
10608611 8 18409442604887561309
10980938 120 18412822495368431794
11471102 20 18341612637843866850
11552529 35 17986400099455033347
11615757 297 18059858376426317025
116883 192 17769659694262124966
11715629 250 18336256920599166580
12173636 292 18335695070257860047
12500047 106 18335696135309340591
12507560 40 18260551087193471205
12633257 1 18411697690393770691
12654215 9 18341888589651072344
14866123 147 16539894262129811666
15219456 202 18409165489297316495
15375462 6 18411696616836224967
15442244 35 18125160437873947762
16945 1 18340475755199272243
17834074 16 18408604768468935902
18186145 218 18202001031709227122
19049666 15 18335699399605635843
20510252 161 18408604738979210353
20645477 56 18408040736352463561
20645477 70 17989495099911202974
21033648 29 18334845126753896209
221357 26 18413102845116750861
22289505 5 18339634542941951948
23402539 116 11815891232627817604
23402655 69 18342453716609684812
23559900 14 18410005567720525254
25 1 18410855477788254386
5104073 3 18261109621482870977
5281201 14 18409453557312564356
58051976 100 18058729238098724943
6287921 2 18044943612691378876
69090 78 18411697712269559367
74978 22 16199579320116308042
77779 3 18408605855063980807
8272917 22 18059305270216697990
9709674 26 18410858763064287159

>  <PUBCHEM_SHAPE_MULTIPOLES>  (1) 
355.58
8.55
2.46
1.04
2.33
0.08
-0.02
1
0.22
-0.28
-0.08
0.68
0.3
0.98

>  <PUBCHEM_SHAPE_SELFOVERLAP>  (1) 
716.01

>  <PUBCHEM_SHAPE_VOLUME>  (1) 
211.1

>  <PUBCHEM_COORDINATE_TYPE>  (1) 
2
5
10

$$$$
