16203
     RDKit          3D

 19 19  0  0  0  0  0  0  0  0999 V2000
    0.8923    0.6410   -0.8316 O   0  0  0  0  0  0  0  0  0  0  0  0
    0.1161    0.0303    1.2875 O   0  0  0  0  0  0  0  0  0  0  0  0
   -2.4625    0.0674    0.2093 N   0  0  0  0  0  0  0  0  0  0  0  0
   -3.7765    0.4761   -0.2856 C   0  0  0  0  0  0  0  0  0  0  0  0
   -2.2463   -1.3587   -0.0319 C   0  0  0  0  0  0  0  0  0  0  0  0
   -1.4087    0.8586   -0.4249 C   0  0  0  0  0  0  0  0  0  0  0  0
   -4.0384    1.9414    0.0538 C   0  0  0  0  0  0  0  0  0  0  0  0
   -3.3283   -2.1831    0.6608 C   0  0  0  0  0  0  0  0  0  0  0  0
   -0.0757    0.4519    0.1548 C   0  0  0  0  0  0  0  0  0  0  0  0
   -5.4094    2.3859   -0.4317 C   0  0  0  0  0  0  0  0  0  0  0  0
   -3.1138   -3.6731    0.4431 C   0  0  0  0  0  0  0  0  0  0  0  0
    2.1777    0.2953   -0.4075 C   0  0  0  0  0  0  0  0  0  0  0  0
    2.6137   -0.9993   -0.5949 C   0  0  0  0  0  0  0  0  0  0  0  0
    2.9644    1.2609    0.1836 C   0  0  0  0  0  0  0  0  0  0  0  0
    3.8968   -1.3446   -0.1706 C   0  0  0  0  0  0  0  0  0  0  0  0
    4.2477    0.9155    0.6077 C   0  0  0  0  0  0  0  0  0  0  0  0
    1.7540   -2.0385   -1.2357 C   0  0  0  0  0  0  0  0  0  0  0  0
    2.4831    2.6602    0.3833 C   0  0  0  0  0  0  0  0  0  0  0  0
    4.7138   -0.3872    0.4305 C   0  0  0  0  0  0  0  0  0  0  0  0
  1  9  1  0
  1 12  1  0
  2  9  2  0
  3  4  1  0
  3  5  1  0
  3  6  1  0
  4  7  1  0
  5  8  1  0
  6  9  1  0
  7 10  1  0
  8 11  1  0
 12 13  2  0
 12 14  1  0
 13 15  1  0
 13 17  1  0
 14 16  2  0
 14 18  1  0
 15 19  2  0
 16 19  1  0
M  END
>  <PUBCHEM_COMPOUND_CID>  (1) 
16203

>  <PUBCHEM_CONFORMER_RMSD>  (1) 
0.8

>  <PUBCHEM_CONFORMER_DIVERSEORDER>  (1) 
1
127
118
8
99
122
45
25
93
108
125
64
106
39
83
128
79
80
35
19
116
110
29
96
41
23
92
100
88
47
57
119
114
69
59
129
67
120
87
115
43
13
95
94
7
36
126
52
89
82
123
55
130
26
81
113
85
60
112
22
131
91
74
105
102
50
84
109
63
66
76
104
107
71
70
77
97
73
117
90
61
121
34
20
101
15
5
68
103
49
56
72
98
53
37
38
42
51
44
86
62
46
111
24
17
48
9
124
11
18
2
30
27
78
31
58
40
14
10
21
54
3
32
28
16
33
65
4
6
75
12

>  <PUBCHEM_MMFF94_PARTIAL_CHARGES>  (1) 
18
1 -0.23
12 0.08
13 -0.14
14 -0.14
15 -0.15
16 -0.15
17 0.14
18 0.14
19 -0.15
2 -0.57
3 -0.81
36 0.15
37 0.15
4 0.27
44 0.15
5 0.27
6 0.33
9 0.66

>  <PUBCHEM_EFFECTIVE_ROTOR_COUNT>  (1) 
8

>  <PUBCHEM_PHARMACOPHORE_FEATURES>  (1) 
5
1 10 hydrophobe
1 11 hydrophobe
1 2 acceptor
1 3 cation
6 12 13 14 15 16 19 rings

>  <PUBCHEM_HEAVY_ATOM_COUNT>  (1) 
19

>  <PUBCHEM_ATOM_DEF_STEREO_COUNT>  (1) 
0

>  <PUBCHEM_ATOM_UDEF_STEREO_COUNT>  (1) 
0

>  <PUBCHEM_BOND_DEF_STEREO_COUNT>  (1) 
0

>  <PUBCHEM_BOND_UDEF_STEREO_COUNT>  (1) 
0

>  <PUBCHEM_ISOTOPIC_ATOM_COUNT>  (1) 
0

>  <PUBCHEM_COMPONENT_COUNT>  (1) 
1

>  <PUBCHEM_CACTVS_TAUTO_COUNT>  (1) 
1

>  <PUBCHEM_CONFORMER_ID>  (1) 
00003F4B00000001

>  <PUBCHEM_MMFF94_ENERGY>  (1) 
43.9718

>  <PUBCHEM_FEATURE_SELFOVERLAP>  (1) 
25.372

>  <PUBCHEM_SHAPE_FINGERPRINT>  (1) 
10616163 171 18340208599717814775
11370993 70 18341891866210141287
11405975 8 18408321098721836713
12403259 118 18266166409151890864
12500047 106 18410009923181288869
12633257 1 18261945259215687946
12969540 114 17970047986564588469
13544592 145 18267030448754337903
13583140 156 17987794240847450041
13675066 3 18186811266082479089
14178342 30 18333731355375352279
14289901 80 18191590950127914561
15196674 1 18411138060898253798
15375358 24 18343301427210780375
15927050 60 16180740966759982406
17492 89 18336829817887288770
19141452 34 18333731295340625853
200 152 17632289051712445068
20286276 3 18336553827345807980
20645477 56 18335422348888721917
20645477 70 17632296722613486244
21065198 57 18410011056673048232
21065199 12 18340205305503843792
221490 88 18339930419455546274
23402539 116 18341322302397610901
23557571 272 18410860996562558979
23558518 356 18043254737387611217
23559900 14 18342457011266065826
26918003 58 18343298146161539432
4214541 1 18410011039846639393
495365 180 17845919758684604432
5104073 3 18411415146302227336
59554788 248 17560530615105614591
633830 44 16805329906826964616
7399639 24 17693930100554718073
9709674 26 18342744000664676511

>  <PUBCHEM_SHAPE_MULTIPOLES>  (1) 
374.29
10.38
3.23
0.91
3.48
1.63
-0.03
-2.72
0.5
3.65
0.24
-0.2
0.19
1.49

>  <PUBCHEM_SHAPE_SELFOVERLAP>  (1) 
751.07

>  <PUBCHEM_SHAPE_VOLUME>  (1) 
222.3

>  <PUBCHEM_COORDINATE_TYPE>  (1) 
2
5
10

$$$$
