1622
     RDKit          3D

 36 40  0  0  1  0  0  0  0  0999 V2000
    3.7302   -2.2747    0.4018 S   0  0  0  0  0  0  0  0  0  0  0  0
    4.0164   -2.9656    1.6527 O   0  0  0  0  0  0  0  0  0  0  0  0
    4.0559   -2.9230   -0.8615 O   0  0  0  0  0  0  0  0  0  0  0  0
    6.6844   -0.1055   -2.3311 O   0  0  0  0  0  0  0  0  0  0  0  0
    6.8647   -1.3757   -0.4604 O   0  0  0  0  0  0  0  0  0  0  0  0
   -2.0585   -0.8514    0.2766 N   0  0  0  0  0  0  0  0  0  0  0  0
    4.4859   -0.7422    0.4392 N   0  0  0  0  0  0  0  0  0  0  0  0
    1.5542    2.9033   -1.4218 N   0  0  0  0  0  0  0  0  0  0  0  0
   -4.8339   -0.0298    0.2748 C   0  0  0  0  0  0  0  0  0  0  0  0
   -3.8763    0.3635   -0.8603 C   0  0  0  0  0  0  0  0  0  0  0  0
   -4.3903   -1.3704    0.8790 C   0  0  0  0  0  0  0  0  0  0  0  0
   -2.4294    0.4150   -0.3702 C   0  0  0  0  0  0  0  0  0  0  0  0
   -2.9379   -1.3152    1.3553 C   0  0  0  0  0  0  0  0  0  0  0  0
   -6.2798   -0.0608   -0.1832 C   0  0  0  0  0  0  0  0  0  0  0  0
   -0.6990   -1.1848    0.3058 C   0  0  0  0  0  0  0  0  0  0  0  0
   -7.0622    1.0888   -0.0917 C   0  0  0  0  0  0  0  0  0  0  0  0
   -6.8216   -1.2385   -0.6945 C   0  0  0  0  0  0  0  0  0  0  0  0
   -0.0260   -1.3726    1.5287 C   0  0  0  0  0  0  0  0  0  0  0  0
    0.0337   -1.3430   -0.8863 C   0  0  0  0  0  0  0  0  0  0  0  0
    2.0352   -1.8577    0.3653 C   0  0  0  0  0  0  0  0  0  0  0  0
    1.3281   -1.7059    1.5582 C   0  0  0  0  0  0  0  0  0  0  0  0
    1.3878   -1.6763   -0.8569 C   0  0  0  0  0  0  0  0  0  0  0  0
    4.8409   -0.0700   -0.8189 C   0  0  0  0  0  0  0  0  0  0  0  0
   -8.3916    1.0605   -0.5130 C   0  0  0  0  0  0  0  0  0  0  0  0
   -8.1510   -1.2666   -1.1159 C   0  0  0  0  0  0  0  0  0  0  0  0
    4.8005    1.4468   -0.6016 C   0  0  0  0  0  0  0  0  0  0  0  0
    3.4102    2.0152   -0.6570 C   0  0  0  0  0  0  0  0  0  0  0  0
   -8.9360   -0.1171   -1.0250 C   0  0  0  0  0  0  0  0  0  0  0  0
    2.5383    2.1624    0.4382 C   0  0  0  0  0  0  0  0  0  0  0  0
    1.3664    2.7275   -0.0692 C   0  0  0  0  0  0  0  0  0  0  0  0
    2.8007    2.4698   -1.7857 C   0  0  0  0  0  0  0  0  0  0  0  0
    6.2178   -0.6036   -1.1552 C   0  0  0  0  0  0  0  0  0  0  0  0
    2.6120    1.8769    1.8161 C   0  0  0  0  0  0  0  0  0  0  0  0
    0.2602    3.0227    0.7354 C   0  0  0  0  0  0  0  0  0  0  0  0
    1.5132    2.1668    2.6332 C   0  0  0  0  0  0  0  0  0  0  0  0
    0.3564    2.7309    2.0990 C   0  0  0  0  0  0  0  0  0  0  0  0
  1  2  2  0
  1  3  2  0
  1  7  1  0
  1 20  1  0
  4 32  1  0
  5 32  2  0
  6 12  1  0
  6 13  1  0
  6 15  1  0
  7 23  1  0
  8 30  1  0
  8 31  1  0
  9 10  1  0
  9 11  1  0
  9 14  1  0
 10 12  1  0
 11 13  1  0
 14 16  2  0
 14 17  1  0
 15 18  2  0
 15 19  1  0
 16 24  1  0
 17 25  2  0
 18 21  1  0
 19 22  2  0
 20 21  2  0
 20 22  1  0
 23 26  1  0
 23 32  1  0
 24 28  2  0
 25 28  1  0
 26 27  1  0
 27 29  1  0
 27 31  2  0
 29 30  2  0
 29 33  1  0
 30 34  1  0
 33 35  2  0
 34 36  2  0
 35 36  1  0
M  END
>  <PUBCHEM_COMPOUND_CID>  (1) 
1622

>  <PUBCHEM_CONFORMER_RMSD>  (1) 
1.2

>  <PUBCHEM_CONFORMER_DIVERSEORDER>  (1) 
1
178
92
217
161
211
195
108
146
253
126
197
116
240
184
119
15
111
247
87
189
62
131
162
159
45
284
176
257
231
21
168
143
181
22
270
171
36
285
225
54
251
63
220
155
234
245
79
221
215
134
279
84
214
14
80
32
18
283
180
166
118
132
19
250
133
269
254
207
277
256
282
34
276
274
4
154
105
29
191
68
142
223
246
259
183
30
85
228
88
47
50
198
173
226
147
90
39
209
187
237
188
267
65
266
212
179
200
185
193
98
53
89
124
248
106
219
273
102
272
104
150
99
230
112
244
76
23
222
33
13
86
258
160
3
128
60
163
109
153
141
262
5
174
263
72
261
6
115
59
144
192
120
241
101
280
249
172
11
49
58
117
224
264
129
17
77
83
75
227
149
94
2
123
66
205
48
145
208
169
40
52
170
281
268
164
41
114
201
130
56
151
135
194
82
287
265
31
165
278
113
97
44
26
20
175
206
136
122
55
156
252
43
12
64
61
100
255
182
110
95
81
190
67
24
158
103
127
235
157
91
216
137
70
51
286
152
138
78
203
275
148
177
57
186
46
233
35
239
202
167
27
125
9
28
37
71
121
238
74
229
243
288
25
107
260
38
213
7
8
96
271
204
69
93
140
16
196
139
232
218
199
210
242
42
73
10
236

>  <PUBCHEM_MMFF94_PARTIAL_CHARGES>  (1) 
50
1 1.45
12 0.37
13 0.37
14 -0.14
15 0.1
16 -0.15
17 -0.15
18 -0.15
19 -0.15
2 -0.65
20 -0.01
21 -0.15
22 -0.15
23 0.42
24 -0.15
25 -0.15
26 0.18
27 -0.18
28 -0.15
3 -0.65
30 -0.15
31 -0.3
32 0.66
33 -0.15
34 -0.15
35 -0.15
36 -0.15
4 -0.65
46 0.15
47 0.15
48 0.15
49 0.15
5 -0.57
50 0.15
51 0.15
53 0.15
54 0.15
57 0.42
58 0.15
59 0.15
6 -0.84
60 0.27
61 0.15
62 0.15
63 0.15
64 0.15
65 0.5
7 -0.91
8 0.03
9 0.14

>  <PUBCHEM_EFFECTIVE_ROTOR_COUNT>  (1) 
9.2

>  <PUBCHEM_PHARMACOPHORE_FEATURES>  (1) 
14
1 2 acceptor
1 3 acceptor
1 4 acceptor
1 5 acceptor
1 6 cation
1 7 donor
1 8 cation
1 8 donor
3 4 5 32 anion
5 8 27 29 30 31 rings
6 14 16 17 24 25 28 rings
6 15 18 19 20 21 22 rings
6 29 30 33 34 35 36 rings
6 6 9 10 11 12 13 rings

>  <PUBCHEM_HEAVY_ATOM_COUNT>  (1) 
36

>  <PUBCHEM_ATOM_DEF_STEREO_COUNT>  (1) 
0

>  <PUBCHEM_ATOM_UDEF_STEREO_COUNT>  (1) 
1

>  <PUBCHEM_BOND_DEF_STEREO_COUNT>  (1) 
0

>  <PUBCHEM_BOND_UDEF_STEREO_COUNT>  (1) 
0

>  <PUBCHEM_ISOTOPIC_ATOM_COUNT>  (1) 
0

>  <PUBCHEM_COMPONENT_COUNT>  (1) 
1

>  <PUBCHEM_CACTVS_TAUTO_COUNT>  (1) 
1

>  <PUBCHEM_CONFORMER_ID>  (1) 
0000065600000001

>  <PUBCHEM_MMFF94_ENERGY>  (1) 
81.6815

>  <PUBCHEM_FEATURE_SELFOVERLAP>  (1) 
71.216

>  <PUBCHEM_SHAPE_FINGERPRINT>  (1) 
10165383 225 17385445427945853974
10483366 6 18187652396851718696
10675989 125 18337396057965338184
11513181 2 17628657257954081942
11720765 8 18271810180657402160
11828532 37 15266770144118509575
12107698 1 18337947905696291693
12522641 33 18262521532907780820
13617811 41 14620797128867437529
13811026 1 18342174492143063864
14931854 50 18335436651108394190
15145344 5 12685631302311408927
15183329 4 18411704275174558753
15351339 4 18408322159979932752
16090146 7 17418106429180840431
18365409 1 17553497881390392617
20554085 129 15864067676707460091
23559900 14 18040998471082394251
23576562 1 18270399533197751127
24893992 56 18186521029741756515
249057 3 18201719578598178663
255183 451 18124598579070177574
4112364 45 16844142701678929585
4340502 62 7925909279264040538
513532 50 17560517403796741528
5265222 85 17473270254907787856
59521120 56 17059786486215565809
6086070 43 17988083417375502523

>  <PUBCHEM_SHAPE_MULTIPOLES>  (1) 
706.29
20.41
3.52
1.85
42.34
1.24
-0.52
-4.5
10.46
-4.62
-0.81
-1.89
0.63
-0.16

>  <PUBCHEM_SHAPE_SELFOVERLAP>  (1) 
1525.465

>  <PUBCHEM_SHAPE_VOLUME>  (1) 
388.5

>  <PUBCHEM_COORDINATE_TYPE>  (1) 
2
5
10

$$$$
