16229
     RDKit          3D

 28 30  0  0  1  0  0  0  0  0999 V2000
   -2.2939    2.4482    0.6169 O   0  0  0  0  0  0  0  0  0  0  0  0
    1.2351    5.1529   -0.8804 O   0  0  0  0  0  0  0  0  0  0  0  0
   -4.2062   -3.8165   -2.5333 O   0  0  0  0  0  0  0  0  0  0  0  0
   -0.3017    0.2162    0.5965 N   0  0  0  0  0  0  0  0  0  0  0  0
   -3.5112   -1.6771    0.3885 N   0  0  0  0  0  0  0  0  0  0  0  0
    1.6672    2.8989   -0.4971 N   0  0  0  0  0  0  0  0  0  0  0  0
    1.8260    0.4917   -0.0096 N   0  0  0  0  0  0  0  0  0  0  0  0
   -0.5422    3.8224   -0.1337 N   0  0  0  0  0  0  0  0  0  0  0  0
   -1.5040   -0.4440    1.0497 C   0  0  0  0  0  0  0  0  0  0  0  0
   -2.3227   -0.9983   -0.1126 C   0  0  0  0  0  0  0  0  0  0  0  0
   -0.1646    1.5354    0.2724 C   0  0  0  0  0  0  0  0  0  0  0  0
    0.9235   -0.3705    0.4108 C   0  0  0  0  0  0  0  0  0  0  0  0
    1.1458    1.6769   -0.0949 C   0  0  0  0  0  0  0  0  0  0  0  0
    1.1526   -1.8083    0.6649 C   0  0  0  0  0  0  0  0  0  0  0  0
   -1.1208    2.5947    0.2846 C   0  0  0  0  0  0  0  0  0  0  0  0
   -4.2741   -2.2641   -0.7148 C   0  0  0  0  0  0  0  0  0  0  0  0
   -4.3519   -0.7510    1.1498 C   0  0  0  0  0  0  0  0  0  0  0  0
    0.8264    4.0395   -0.5316 C   0  0  0  0  0  0  0  0  0  0  0  0
    2.5807   -2.2623    0.3958 C   0  0  0  0  0  0  0  0  0  0  0  0
   -3.4227   -3.2604   -1.4856 C   0  0  0  0  0  0  0  0  0  0  0  0
    3.0702    2.9995   -0.8793 C   0  0  0  0  0  0  0  0  0  0  0  0
   -5.5951   -1.4461    1.6784 C   0  0  0  0  0  0  0  0  0  0  0  0
   -1.4243    4.9846   -0.1638 C   0  0  0  0  0  0  0  0  0  0  0  0
    3.5007   -2.2116    1.4226 C   0  0  0  0  0  0  0  0  0  0  0  0
    2.9108   -2.7108   -0.8665 C   0  0  0  0  0  0  0  0  0  0  0  0
    4.8090   -2.6277    1.1762 C   0  0  0  0  0  0  0  0  0  0  0  0
    4.2191   -3.1270   -1.1127 C   0  0  0  0  0  0  0  0  0  0  0  0
    5.1682   -3.0855   -0.0913 C   0  0  0  0  0  0  0  0  0  0  0  0
  1 15  2  0
  2 18  2  0
  3 20  1  0
  4  9  1  0
  4 11  1  0
  4 12  1  0
  5 10  1  0
  5 16  1  0
  5 17  1  0
  6 13  1  0
  6 18  1  0
  6 21  1  0
  7 12  2  0
  7 13  1  0
  8 15  1  0
  8 18  1  0
  8 23  1  0
  9 10  1  0
 11 13  2  0
 11 15  1  0
 12 14  1  0
 14 19  1  0
 16 20  1  0
 17 22  1  0
 19 24  2  0
 19 25  1  0
 24 26  1  0
 25 27  2  0
 26 28  2  0
 27 28  1  0
M  END
>  <PUBCHEM_COMPOUND_CID>  (1) 
16229

>  <PUBCHEM_CONFORMER_RMSD>  (1) 
1

>  <PUBCHEM_CONFORMER_DIVERSEORDER>  (1) 
1
46
24
5
47
6
14
2
43
41
38
37
44
40
17
28
25
45
42
11
8
23
27
26
22
39
19
10
30
13
33
16
32
21
31
12
35
36
15
9
29
20
3
34
7
18
4

>  <PUBCHEM_MMFF94_PARTIAL_CHARGES>  (1) 
33
1 -0.57
10 0.27
11 -0.24
12 0.01
13 0.29
14 0.32
15 0.71
16 0.27
17 0.27
18 0.69
19 -0.14
2 -0.57
20 0.28
21 0.3
23 0.3
24 -0.15
25 -0.15
26 -0.15
27 -0.15
28 -0.15
3 -0.68
4 0.05
5 -0.81
50 0.15
51 0.15
52 0.15
53 0.15
54 0.4
55 0.15
6 -0.42
7 -0.57
8 -0.42
9 0.26

>  <PUBCHEM_EFFECTIVE_ROTOR_COUNT>  (1) 
8

>  <PUBCHEM_PHARMACOPHORE_FEATURES>  (1) 
9
1 1 acceptor
1 2 acceptor
1 3 acceptor
1 3 donor
1 5 cation
3 4 7 12 cation
5 4 7 11 12 13 rings
6 19 24 25 26 27 28 rings
6 6 8 11 13 15 18 rings

>  <PUBCHEM_HEAVY_ATOM_COUNT>  (1) 
28

>  <PUBCHEM_ATOM_DEF_STEREO_COUNT>  (1) 
0

>  <PUBCHEM_ATOM_UDEF_STEREO_COUNT>  (1) 
0

>  <PUBCHEM_BOND_DEF_STEREO_COUNT>  (1) 
0

>  <PUBCHEM_BOND_UDEF_STEREO_COUNT>  (1) 
0

>  <PUBCHEM_ISOTOPIC_ATOM_COUNT>  (1) 
0

>  <PUBCHEM_COMPONENT_COUNT>  (1) 
1

>  <PUBCHEM_CACTVS_TAUTO_COUNT>  (1) 
1

>  <PUBCHEM_CONFORMER_ID>  (1) 
00003F6500000001

>  <PUBCHEM_MMFF94_ENERGY>  (1) 
53.5788

>  <PUBCHEM_FEATURE_SELFOVERLAP>  (1) 
45.786

>  <PUBCHEM_SHAPE_FINGERPRINT>  (1) 
10074138 170 17612846237548862762
10411042 1 18335711498418180971
10622 236 17843667001880248799
10906281 52 16819699127864857672
1100329 8 18118129073868203913
11014199 57 18410012100355285050
11069576 57 17697576038268622543
11265709 11 18336831900661370058
11488393 25 18117822511749542790
12173636 292 17038380991781774100
12553582 1 18336825303803165155
12788726 201 18117008684425514146
13140716 1 18264211305388817784
13540713 5 17986115326175515067
13690498 29 18196103149002992022
13757389 114 17761507889258019060
138480 1 18336552706348898425
14674994 50 17986376816457679973
14790565 3 16968019940049416184
14844126 61 18120646929493931450
15042514 8 18048042865328311841
15420108 30 17839782246087561961
15775530 1 18054757669097299376
15842332 3 17914622889603796587
16087824 20 17903079933215755873
17539 30 18194953050558897687
1813 80 18340774758054283586
19319366 153 16975878707793022255
20028762 73 17910672399726781580
20101258 96 18191321389538046498
24771293 8 18270954774075045298
513202 73 17979930314622158707
6700243 42 17769968713091576262
7471813 234 18335700529483195806

>  <PUBCHEM_SHAPE_MULTIPOLES>  (1) 
533.71
9.55
7.57
1.41
2.87
9.23
-0.34
-14.72
1.26
-2.98
-3.58
-0.9
-1.67
-1.73

>  <PUBCHEM_SHAPE_SELFOVERLAP>  (1) 
1128.071

>  <PUBCHEM_SHAPE_VOLUME>  (1) 
300.4

>  <PUBCHEM_COORDINATE_TYPE>  (1) 
2
5
10

$$$$
