16234
     RDKit          3D

 19 18  0  0  0  0  0  0  0  0999 V2000
    0.3324    0.0535    0.1990 O   0  0  0  0  0  0  0  0  0  0  0  0
   -0.8006    1.6925    1.3186 O   0  0  0  0  0  0  0  0  0  0  0  0
   -1.9720   -0.0188    0.2232 N   0  0  0  0  0  0  0  0  0  0  0  0
    3.9953    0.4702    0.3366 N   0  0  0  0  0  0  0  0  0  0  0  0
   -1.8946   -1.2389   -0.5858 C   0  0  0  0  0  0  0  0  0  0  0  0
   -3.2861    0.4465    0.5711 C   0  0  0  0  0  0  0  0  0  0  0  0
   -1.8279   -2.5004    0.2686 C   0  0  0  0  0  0  0  0  0  0  0  0
   -3.8542    1.4121   -0.4635 C   0  0  0  0  0  0  0  0  0  0  0  0
    2.7169   -0.1367   -0.0029 C   0  0  0  0  0  0  0  0  0  0  0  0
   -1.7193   -3.7748   -0.5717 C   0  0  0  0  0  0  0  0  0  0  0  0
   -5.2426    1.9316   -0.0830 C   0  0  0  0  0  0  0  0  0  0  0  0
    1.5675    0.6762    0.5712 C   0  0  0  0  0  0  0  0  0  0  0  0
   -0.8106    0.6664    0.6407 C   0  0  0  0  0  0  0  0  0  0  0  0
    5.0784   -0.5109    0.2344 C   0  0  0  0  0  0  0  0  0  0  0  0
    4.2704    1.6185   -0.5306 C   0  0  0  0  0  0  0  0  0  0  0  0
   -1.5938   -5.0099    0.3065 C   0  0  0  0  0  0  0  0  0  0  0  0
   -5.7575    2.9369   -1.1013 C   0  0  0  0  0  0  0  0  0  0  0  0
    5.2286   -1.0163   -1.1904 C   0  0  0  0  0  0  0  0  0  0  0  0
    5.5698    2.3023   -0.1406 C   0  0  0  0  0  0  0  0  0  0  0  0
  1 12  1  0
  1 13  1  0
  2 13  2  0
  3  5  1  0
  3  6  1  0
  3 13  1  0
  4  9  1  0
  4 14  1  0
  4 15  1  0
  5  7  1  0
  6  8  1  0
  7 10  1  0
  8 11  1  0
  9 12  1  0
 10 16  1  0
 11 17  1  0
 14 18  1  0
 15 19  1  0
M  END
>  <PUBCHEM_COMPOUND_CID>  (1) 
16234

>  <PUBCHEM_CONFORMER_RMSD>  (1) 
1.2

>  <PUBCHEM_CONFORMER_DIVERSEORDER>  (1) 
1
25
17
40
24
51
49
39
19
12
9
2
31
30
28
46
11
48
8
18
37
44
6
38
41
26
13
5
50
23
15
33
36
45
20
29
14
35
34
32
3
10
21
43
4
47
7
27
22
16
42

>  <PUBCHEM_MMFF94_PARTIAL_CHARGES>  (1) 
11
1 -0.43
12 0.28
13 0.78
14 0.27
15 0.27
2 -0.57
3 -0.66
4 -0.81
5 0.3
6 0.3
9 0.27

>  <PUBCHEM_EFFECTIVE_ROTOR_COUNT>  (1) 
13

>  <PUBCHEM_PHARMACOPHORE_FEATURES>  (1) 
4
1 16 hydrophobe
1 17 hydrophobe
1 2 acceptor
1 4 cation

>  <PUBCHEM_HEAVY_ATOM_COUNT>  (1) 
19

>  <PUBCHEM_ATOM_DEF_STEREO_COUNT>  (1) 
0

>  <PUBCHEM_ATOM_UDEF_STEREO_COUNT>  (1) 
0

>  <PUBCHEM_BOND_DEF_STEREO_COUNT>  (1) 
0

>  <PUBCHEM_BOND_UDEF_STEREO_COUNT>  (1) 
0

>  <PUBCHEM_ISOTOPIC_ATOM_COUNT>  (1) 
0

>  <PUBCHEM_COMPONENT_COUNT>  (1) 
1

>  <PUBCHEM_CACTVS_TAUTO_COUNT>  (1) 
1

>  <PUBCHEM_CONFORMER_ID>  (1) 
00003F6A00000001

>  <PUBCHEM_MMFF94_ENERGY>  (1) 
14.3082

>  <PUBCHEM_FEATURE_SELFOVERLAP>  (1) 
20.297

>  <PUBCHEM_SHAPE_FINGERPRINT>  (1) 
10014705 185 18409448106783216361
10366900 7 16988848276349650776
107951 10 18412546492159613887
12293681 160 17988637446487100377
12500047 106 18412259558036083873
12516196 113 9655278351015316581
12555020 224 18272371919181164470
13968360 50 18192982735108306335
14251757 5 18341896350108200817
167882 2 18049156675498789011
17539 30 18125149687887830311
19427546 20 18194124238088152860
20286276 3 18194969762640532792
20871999 31 18342167921175234853
21426921 1 18193838369169974643
22849339 104 18268730409763971334
23402539 116 18272643524645113589
23559900 14 18201720670031236824
300161 21 18342735239453657824
3759504 43 18408039602903272451
559249 180 18409725141027532610
633830 44 17240769523167389968
6898599 12 18264212576567320692
77188 2 17328304057711101839

>  <PUBCHEM_SHAPE_MULTIPOLES>  (1) 
369.31
13.26
4.72
0.96
8.53
7.54
0.06
-12.01
3.67
-6.03
0.53
-0.09
-0.18
1.02

>  <PUBCHEM_SHAPE_SELFOVERLAP>  (1) 
682.807

>  <PUBCHEM_SHAPE_VOLUME>  (1) 
234.3

>  <PUBCHEM_COORDINATE_TYPE>  (1) 
2
5
10

$$$$
