16232
     RDKit          3D

 21 21  0  0  0  0  0  0  0  0999 V2000
   -1.5151    3.8623   -0.1045 I   0  0  0  0  0  0  0  0  0  0  0  0
    2.3918   -2.0108   -0.2864 S   0  0  0  0  0  0  0  0  0  0  0  0
    2.7546   -3.1707    0.5181 O   0  0  0  0  0  0  0  0  0  0  0  0
    2.6325   -2.0367   -1.7231 O   0  0  0  0  0  0  0  0  0  0  0  0
    2.1492    1.9727    0.9365 O   0  0  0  0  0  0  0  0  0  0  0  0
   -3.9891    0.3140   -1.4021 O   0  0  0  0  0  0  0  0  0  0  0  0
    1.4753    3.1903   -0.8977 O   0  0  0  0  0  0  0  0  0  0  0  0
    3.1567   -0.6304    0.3699 N   0  0  0  0  0  0  0  0  0  0  0  0
   -3.3546   -0.8186    0.5660 N   0  0  0  0  0  0  0  0  0  0  0  0
    0.7004   -1.6593   -0.0355 C   0  0  0  0  0  0  0  0  0  0  0  0
    3.4336    0.5305   -0.4882 C   0  0  0  0  0  0  0  0  0  0  0  0
    0.0729   -2.0591    1.1443 C   0  0  0  0  0  0  0  0  0  0  0  0
   -0.0236   -0.9792   -1.0146 C   0  0  0  0  0  0  0  0  0  0  0  0
    3.4327    1.7954    0.3506 C   0  0  0  0  0  0  0  0  0  0  0  0
   -2.0027   -1.0985    0.3658 C   0  0  0  0  0  0  0  0  0  0  0  0
   -1.2787   -1.7788    1.3450 C   0  0  0  0  0  0  0  0  0  0  0  0
   -1.3752   -0.6986   -0.8140 C   0  0  0  0  0  0  0  0  0  0  0  0
   -4.2373   -0.1527   -0.2950 C   0  0  0  0  0  0  0  0  0  0  0  0
    1.2470    2.7007    0.1991 C   0  0  0  0  0  0  0  0  0  0  0  0
   -5.6226   -0.0523    0.2923 C   0  0  0  0  0  0  0  0  0  0  0  0
   -0.0479    2.7799    0.9735 C   0  0  0  0  0  0  0  0  0  0  0  0
  1 21  1  0
  2  3  2  0
  2  4  2  0
  2  8  1  0
  2 10  1  0
  5 14  1  0
  5 19  1  0
  6 18  2  0
  7 19  2  0
  8 11  1  0
  9 15  1  0
  9 18  1  0
 10 12  2  0
 10 13  1  0
 11 14  1  0
 12 16  1  0
 13 17  2  0
 15 16  2  0
 15 17  1  0
 18 20  1  0
 19 21  1  0
M  END
>  <PUBCHEM_COMPOUND_CID>  (1) 
16232

>  <PUBCHEM_CONFORMER_RMSD>  (1) 
0.8

>  <PUBCHEM_CONFORMER_DIVERSEORDER>  (1) 
2
260
206
277
269
305
152
75
228
243
309
310
270
339
224
131
218
203
38
135
347
105
349
78
306
275
72
338
102
343
92
172
66
150
120
322
141
285
177
65
279
68
262
283
60
167
180
284
124
351
350
299
263
314
182
178
290
205
296
327
331
225
319
146
108
188
154
83
315
134
163
341
117
27
187
231
4
361
360
28
113
201
76
127
354
196
276
251
130
300
91
252
287
210
133
302
258
119
241
348
359
116
278
192
21
160
220
139
286
289
249
303
259
204
301
311
212
149
198
242
69
125
234
335
214
292
282
14
166
151
237
20
226
215
356
345
222
229
103
80
90
235
35
42
273
346
22
363
183
40
308
195
89
95
313
97
33
57
323
362
118
48
342
30
79
357
248
197
239
236
148
18
23
328
318
64
294
88
147
53
358
158
307
254
223
71
74
44
272
240
5
336
238
267
274
244
174
312
326
297
110
156
9
31
82
230
330
202
232
19
288
77
144
324
333
170
51
100
162
104
298
58
140
257
155
332
184
329
181
41
121
265
250
99
199
253
168
271
227
189
264
266
293
219
123
129
142
86
320
3
106
316
161
46
122
54
337
15
52
153
126
325
200
304
96
70
247
98
143
87
32
112
159
334
36
179
208
295
107
321
94
355
1
207
281
209
171
291
81
62
37
109
16
340
216
176
10
84
344
25
352
175
128
317
67
11
245
6
255
63
173
56
186
261
280
34
136
26
221
211
268
13
24
194
29
353
59
85
8
17
50
157
114
115
169
145
47
43
7
256
138
93
49
246
217
12
111
164
165
190
137
45
233
39
213
101
193
132
61
55
191
185
73

>  <PUBCHEM_MMFF94_PARTIAL_CHARGES>  (1) 
27
1 -0.19
10 -0.01
11 0.36
12 -0.15
13 -0.15
14 0.28
15 0.12
16 -0.15
17 -0.15
18 0.57
19 0.66
2 1.45
20 0.06
21 0.25
24 0.42
25 0.15
26 0.15
29 0.15
3 -0.65
30 0.15
31 0.37
4 -0.65
5 -0.43
6 -0.57
7 -0.57
8 -0.91
9 -0.55

>  <PUBCHEM_EFFECTIVE_ROTOR_COUNT>  (1) 
9

>  <PUBCHEM_PHARMACOPHORE_FEATURES>  (1) 
8
1 1 hydrophobe
1 3 acceptor
1 4 acceptor
1 6 acceptor
1 7 acceptor
1 8 donor
1 9 donor
6 10 12 13 15 16 17 rings

>  <PUBCHEM_HEAVY_ATOM_COUNT>  (1) 
21

>  <PUBCHEM_ATOM_DEF_STEREO_COUNT>  (1) 
0

>  <PUBCHEM_ATOM_UDEF_STEREO_COUNT>  (1) 
0

>  <PUBCHEM_BOND_DEF_STEREO_COUNT>  (1) 
0

>  <PUBCHEM_BOND_UDEF_STEREO_COUNT>  (1) 
0

>  <PUBCHEM_ISOTOPIC_ATOM_COUNT>  (1) 
0

>  <PUBCHEM_COMPONENT_COUNT>  (1) 
1

>  <PUBCHEM_CACTVS_TAUTO_COUNT>  (1) 
2

>  <PUBCHEM_CONFORMER_ID>  (1) 
00003F6800000002

>  <PUBCHEM_MMFF94_ENERGY>  (1) 
31.6248

>  <PUBCHEM_FEATURE_SELFOVERLAP>  (1) 
40.615

>  <PUBCHEM_SHAPE_FINGERPRINT>  (1) 
104564 63 18341339916105866696
12633257 1 17751903938314079648
128993 33 16967458673295471792
13140716 1 18122900091012338792
13402501 40 18336262430958090589
14178342 30 16899602313229682296
14251757 17 18260818264271929133
14866123 147 16389853801528657058
15210252 30 18041855007425201812
17093844 170 18409722984912005368
18219364 16 18121792882660497002
18785283 64 18045792431799919313
19930381 70 18050844717757163977
20621476 13 18267862963877781945
20905425 154 18342177704710243821
21041028 32 18267576918796697446
21475661 188 18260820544830829109
22289505 5 18411132511388882125
23559900 14 18040444282256218998
23566358 2 18268426845617287780
238 59 17549808332282561222
3014063 31 18411135793029226257
3052486 1 17902221218163480624
338550 245 18264220114720812353
3524813 1 18113890568243328125
474 4 18338796844199357787
7471813 234 18196632026300125207

>  <PUBCHEM_SHAPE_MULTIPOLES>  (1) 
408.65
7.45
4.66
1.2
7.4
4.49
0.13
-1.5
0.74
-1.8
-0.46
0
-0.31
0.57

>  <PUBCHEM_SHAPE_SELFOVERLAP>  (1) 
794.852

>  <PUBCHEM_SHAPE_VOLUME>  (1) 
249.2

>  <PUBCHEM_COORDINATE_TYPE>  (1) 
2
5
10

$$$$
