16235
     RDKit          3D

 12 12  0  0  1  0  0  0  0  0999 V2000
   -1.3733    0.1913   -1.7510 O   0  0  0  0  0  0  0  0  0  0  0  0
   -2.7761   -1.2261   -0.0155 O   0  0  0  0  0  0  0  0  0  0  0  0
   -1.7111   -0.3759    1.8274 N   0  0  0  0  0  0  0  0  0  0  0  0
   -1.0786    0.4789   -0.3791 C   0  0  0  0  0  0  0  0  0  0  0  0
    0.4028    0.1791   -0.1808 C   0  0  0  0  0  0  0  0  0  0  0  0
   -1.5070    1.9338   -0.1375 C   0  0  0  0  0  0  0  0  0  0  0  0
   -1.9442   -0.4620    0.4716 C   0  0  0  0  0  0  0  0  0  0  0  0
    0.8748   -1.0771   -0.4972 C   0  0  0  0  0  0  0  0  0  0  0  0
    1.2225    1.1737    0.3087 C   0  0  0  0  0  0  0  0  0  0  0  0
    2.2304   -1.3517   -0.3154 C   0  0  0  0  0  0  0  0  0  0  0  0
    2.5780    0.8993    0.4904 C   0  0  0  0  0  0  0  0  0  0  0  0
    3.0818   -0.3635    0.1783 C   0  0  0  0  0  0  0  0  0  0  0  0
  1  4  1  0
  2  7  2  0
  3  7  1  0
  4  5  1  0
  4  6  1  0
  4  7  1  0
  5  8  2  0
  5  9  1  0
  8 10  1  0
  9 11  2  0
 10 12  2  0
 11 12  1  0
M  END
>  <PUBCHEM_COMPOUND_CID>  (1) 
16235

>  <PUBCHEM_CONFORMER_RMSD>  (1) 
0.6

>  <PUBCHEM_CONFORMER_DIVERSEORDER>  (1) 
1
8
4
6
9
5
11
13
7
2
3
12
10

>  <PUBCHEM_MMFF94_PARTIAL_CHARGES>  (1) 
19
1 -0.68
10 -0.15
11 -0.15
12 -0.15
16 0.15
17 0.15
18 0.4
19 0.15
2 -0.57
20 0.15
21 0.15
22 0.37
23 0.37
3 -0.8
4 0.48
5 -0.14
7 0.57
8 -0.15
9 -0.15

>  <PUBCHEM_EFFECTIVE_ROTOR_COUNT>  (1) 
2

>  <PUBCHEM_PHARMACOPHORE_FEATURES>  (1) 
5
1 1 acceptor
1 1 donor
1 2 acceptor
1 3 donor
6 5 8 9 10 11 12 rings

>  <PUBCHEM_HEAVY_ATOM_COUNT>  (1) 
12

>  <PUBCHEM_ATOM_DEF_STEREO_COUNT>  (1) 
0

>  <PUBCHEM_ATOM_UDEF_STEREO_COUNT>  (1) 
1

>  <PUBCHEM_BOND_DEF_STEREO_COUNT>  (1) 
0

>  <PUBCHEM_BOND_UDEF_STEREO_COUNT>  (1) 
0

>  <PUBCHEM_ISOTOPIC_ATOM_COUNT>  (1) 
0

>  <PUBCHEM_COMPONENT_COUNT>  (1) 
1

>  <PUBCHEM_CACTVS_TAUTO_COUNT>  (1) 
2

>  <PUBCHEM_CONFORMER_ID>  (1) 
00003F6B00000001

>  <PUBCHEM_MMFF94_ENERGY>  (1) 
32.0472

>  <PUBCHEM_FEATURE_SELFOVERLAP>  (1) 
25.381

>  <PUBCHEM_SHAPE_FINGERPRINT>  (1) 
10857977 72 18334290998182661792
11471102 22 18411705400197280770
12138202 97 18042108878467077117
12716758 59 17241878796696498012
12932764 1 17489298698855649044
13024252 1 17676770885878532261
15775835 57 17775282806884810056
16945 1 18335711597349660146
17844478 74 18409737274156734144
19973954 147 18410572855860272220
20201158 50 18333446555914664939
20711985 344 17385997339273895421
21501502 16 18336550434406209080
2748010 2 18270956835205763788
29004967 10 18412546483642765266
3248919 1 18114456782477454028
369184 2 18343579620747905249
5084963 1 17989199373974099130
63268167 104 17846491509426863904
81228 2 17967536735939302269

>  <PUBCHEM_SHAPE_MULTIPOLES>  (1) 
230.23
4.14
1.55
1.12
1.13
0.31
0.08
-0.66
0.52
-0.12
-0.06
-0.67
-0.08
0.44

>  <PUBCHEM_SHAPE_SELFOVERLAP>  (1) 
480.999

>  <PUBCHEM_SHAPE_VOLUME>  (1) 
130.5

>  <PUBCHEM_COORDINATE_TYPE>  (1) 
2
5
10

$$$$
