16237
     RDKit          3D

 13 13  0  0  0  0  0  0  0  0999 V2000
   -3.0645    0.5394    0.0481 O   0  0  0  0  0  0  0  0  0  0  0  0
   -2.4169   -1.6674   -0.1317 O   0  0  0  0  0  0  0  0  0  0  0  0
    0.3150   -0.9701   -0.0893 C   0  0  0  0  0  0  0  0  0  0  0  0
   -0.7621    0.1082    0.0255 C   0  0  0  0  0  0  0  0  0  0  0  0
    1.7010   -0.3816   -0.0370 C   0  0  0  0  0  0  0  0  0  0  0  0
    2.3221    0.0069   -1.2152 C   0  0  0  0  0  0  0  0  0  0  0  0
    2.3351   -0.2367    1.1885 C   0  0  0  0  0  0  0  0  0  0  0  0
   -2.1550   -0.4767   -0.0316 C   0  0  0  0  0  0  0  0  0  0  0  0
    3.6052    0.5518   -1.1670 C   0  0  0  0  0  0  0  0  0  0  0  0
    3.6181    0.3085    1.2367 C   0  0  0  0  0  0  0  0  0  0  0  0
    4.2531    0.7028    0.0589 C   0  0  0  0  0  0  0  0  0  0  0  0
   -4.4387    0.1413    0.0082 C   0  0  0  0  0  0  0  0  0  0  0  0
   -5.3123    1.3737    0.1060 C   0  0  0  0  0  0  0  0  0  0  0  0
  1  8  1  0
  1 12  1  0
  2  8  2  0
  3  4  1  0
  3  5  1  0
  4  8  1  0
  5  6  2  0
  5  7  1  0
  6  9  1  0
  7 10  2  0
  9 11  2  0
 10 11  1  0
 12 13  1  0
M  END
>  <PUBCHEM_COMPOUND_CID>  (1) 
16237

>  <PUBCHEM_CONFORMER_RMSD>  (1) 
0.6

>  <PUBCHEM_CONFORMER_DIVERSEORDER>  (1) 
1
40
42
47
54
30
60
33
16
51
31
52
41
62
55
38
48
37
44
39
10
27
24
58
43
17
6
56
18
28
8
4
53
20
11
9
14
2
29
50
26
21
57
22
36
34
3
46
5
15
13
7
32
23
59
45
19
25
35
12
61
49

>  <PUBCHEM_MMFF94_PARTIAL_CHARGES>  (1) 
17
1 -0.43
10 -0.15
11 -0.15
12 0.28
18 0.15
19 0.15
2 -0.57
20 0.15
21 0.15
24 0.15
3 0.14
4 0.06
5 -0.14
6 -0.15
7 -0.15
8 0.66
9 -0.15

>  <PUBCHEM_EFFECTIVE_ROTOR_COUNT>  (1) 
5

>  <PUBCHEM_PHARMACOPHORE_FEATURES>  (1) 
2
1 2 acceptor
6 5 6 7 9 10 11 rings

>  <PUBCHEM_HEAVY_ATOM_COUNT>  (1) 
13

>  <PUBCHEM_ATOM_DEF_STEREO_COUNT>  (1) 
0

>  <PUBCHEM_ATOM_UDEF_STEREO_COUNT>  (1) 
0

>  <PUBCHEM_BOND_DEF_STEREO_COUNT>  (1) 
0

>  <PUBCHEM_BOND_UDEF_STEREO_COUNT>  (1) 
0

>  <PUBCHEM_ISOTOPIC_ATOM_COUNT>  (1) 
0

>  <PUBCHEM_COMPONENT_COUNT>  (1) 
1

>  <PUBCHEM_CACTVS_TAUTO_COUNT>  (1) 
1

>  <PUBCHEM_CONFORMER_ID>  (1) 
00003F6D00000001

>  <PUBCHEM_MMFF94_ENERGY>  (1) 
21.0246

>  <PUBCHEM_FEATURE_SELFOVERLAP>  (1) 
10.148

>  <PUBCHEM_SHAPE_FINGERPRINT>  (1) 
10354089 29 17095246921120732428
11471102 20 15841835564494457560
11543360 7 15338826578293428533
12251169 10 16443065010509417378
12500047 106 18059855099076587719
13675066 3 14562528470897531103
14123238 8 17967814955499074825
14252887 29 13912320162099003992
14445660 50 17531249486644387259
15242439 84 17632301176642258270
15375358 24 17775564251722701571
15477762 27 14045750309477727044
177051 138 8935000364932289855
17834076 25 18343019986846917985
18186145 218 17131844187094567862
19050596 39 17386004000525299018
20279233 1 17489872656472750470
20432913 95 13767928996805205305
20645477 56 18342459244606809717
20645477 70 15913336762282424548
20767249 442 18342737411962908211
21119208 17 14836404739485410553
212847 35 18340767057161454568
22289505 5 16773514382541931768
23048698 100 17240203218164034880
23402539 116 18059848498244148828
23402655 69 15698000747187953016
23557571 272 17845654875409346175
23559900 14 18130794442950368782
23590187 302 14692569914211217010
26918003 58 15140678089940595593
3060560 45 15841833352560238484
4028521 119 17775004553407904121
42 15 14490190492614649005
4990 188 16845575309415991079
522135 26 14908181936741648764
5374978 207 16732984206504302829

>  <PUBCHEM_SHAPE_MULTIPOLES>  (1) 
255.8
10.41
1.11
1.07
9.87
0.11
0.04
-4.27
0.91
0.83
-0.06
-1.27
-0.06
-0.49

>  <PUBCHEM_SHAPE_SELFOVERLAP>  (1) 
514.327

>  <PUBCHEM_SHAPE_VOLUME>  (1) 
150.3

>  <PUBCHEM_COORDINATE_TYPE>  (1) 
2
5
10

$$$$
