16236
     RDKit          3D

 14 15  0  0  1  0  0  0  0  0999 V2000
   -0.2157   -2.2394    0.4026 O   0  0  0  0  0  0  0  0  0  0  0  0
   -0.9444    2.3119    0.7737 O   0  0  0  0  0  0  0  0  0  0  0  0
   -0.9555   -0.0259    0.5907 N   0  0  0  0  0  0  0  0  0  0  0  0
    1.2982   -0.4131    0.9696 C   0  0  0  0  0  0  0  0  0  0  0  0
    1.1116    1.0457    0.5386 C   0  0  0  0  0  0  0  0  0  0  0  0
    2.5382   -1.1218    0.4350 C   0  0  0  0  0  0  0  0  0  0  0  0
    1.5000    1.3484   -0.9179 C   0  0  0  0  0  0  0  0  0  0  0  0
   -0.0243   -1.0479    0.5925 C   0  0  0  0  0  0  0  0  0  0  0  0
   -0.3848    1.2288    0.6808 C   0  0  0  0  0  0  0  0  0  0  0  0
   -2.3814   -0.2574    0.4712 C   0  0  0  0  0  0  0  0  0  0  0  0
    3.0133   -0.6406   -0.8970 C   0  0  0  0  0  0  0  0  0  0  0  0
    2.5505    0.4595   -1.4986 C   0  0  0  0  0  0  0  0  0  0  0  0
   -2.8041   -0.2146   -0.9950 C   0  0  0  0  0  0  0  0  0  0  0  0
   -4.3015   -0.4336   -1.1463 C   0  0  0  0  0  0  0  0  0  0  0  0
  1  8  2  0
  2  9  2  0
  3  8  1  0
  3  9  1  0
  3 10  1  0
  4  5  1  0
  4  6  1  0
  4  8  1  0
  5  7  1  0
  5  9  1  0
  6 11  1  0
  7 12  1  0
 10 13  1  0
 11 12  2  0
 13 14  1  0
M  END
>  <PUBCHEM_COMPOUND_CID>  (1) 
16236

>  <PUBCHEM_CONFORMER_RMSD>  (1) 
0.6

>  <PUBCHEM_CONFORMER_DIVERSEORDER>  (1) 
1
6
12
4
13
7
11
5
8
10
2
9
3
14

>  <PUBCHEM_MMFF94_PARTIAL_CHARGES>  (1) 
14
1 -0.57
10 0.3
11 -0.29
12 -0.29
2 -0.57
23 0.15
24 0.15
3 -0.42
4 0.06
5 0.06
6 0.14
7 0.14
8 0.57
9 0.57

>  <PUBCHEM_EFFECTIVE_ROTOR_COUNT>  (1) 
2.6

>  <PUBCHEM_PHARMACOPHORE_FEATURES>  (1) 
5
1 1 acceptor
1 14 hydrophobe
1 2 acceptor
5 3 4 5 8 9 rings
6 4 5 6 7 11 12 rings

>  <PUBCHEM_HEAVY_ATOM_COUNT>  (1) 
14

>  <PUBCHEM_ATOM_DEF_STEREO_COUNT>  (1) 
0

>  <PUBCHEM_ATOM_UDEF_STEREO_COUNT>  (1) 
2

>  <PUBCHEM_BOND_DEF_STEREO_COUNT>  (1) 
0

>  <PUBCHEM_BOND_UDEF_STEREO_COUNT>  (1) 
0

>  <PUBCHEM_ISOTOPIC_ATOM_COUNT>  (1) 
0

>  <PUBCHEM_COMPONENT_COUNT>  (1) 
1

>  <PUBCHEM_CACTVS_TAUTO_COUNT>  (1) 
3

>  <PUBCHEM_CONFORMER_ID>  (1) 
00003F6C00000001

>  <PUBCHEM_MMFF94_ENERGY>  (1) 
12.4771

>  <PUBCHEM_FEATURE_SELFOVERLAP>  (1) 
25.551

>  <PUBCHEM_SHAPE_FINGERPRINT>  (1) 
10353120 184 18341899571439167609
11206711 2 18337958882936686349
11769659 78 15985107396654632159
12202030 40 16343152294504339492
12423570 1 10730032425670675112
12491281 212 14996286881543688613
13380536 243 18113618992976512294
13571099 52 15430322485453635644
13764800 53 12540991667803694493
14350558 41 15626226852882865559
14993402 34 18186805747107434998
15775835 57 17386012796734541422
16945 1 18337409204848681352
17775402 16 18261118512054779356
18186145 218 18334016111865183301
20361792 2 17989202672688558053
20653085 51 16516261732826891836
23402539 116 18342461404970124028
23557571 272 17561079177134624840
23559900 14 18339656645977657420
23590187 302 18337657694798364343
2748010 2 17979085095380429298
276578 36 11242246329476690437
3060560 45 18266718308138551159
353137 74 18261971711866782584
4175511 376 17841705506735794093
449060 23 17561360682339526207
5084963 1 17096956696050898584
549884 4 18338791333798456741
63268167 104 17676783015008555508

>  <PUBCHEM_SHAPE_MULTIPOLES>  (1) 
271.39
5.2
1.76
1.31
4.38
0.2
0.33
-1.05
2.92
-0.27
-0.4
-0.11
0.16
-0.47

>  <PUBCHEM_SHAPE_SELFOVERLAP>  (1) 
564.882

>  <PUBCHEM_SHAPE_VOLUME>  (1) 
154.8

>  <PUBCHEM_COORDINATE_TYPE>  (1) 
2
5
10

$$$$
