16245
     RDKit          3D

 15 16  0  0  0  0  0  0  0  0999 V2000
    0.3501    2.5759   -1.1000 S   0  0  0  0  0  0  0  0  0  0  0  0
    3.5448   -1.2222    0.3750 O   0  0  0  0  0  0  0  0  0  0  0  0
   -1.4972    1.2759    1.8405 O   0  0  0  0  0  0  0  0  0  0  0  0
    1.2859    0.4008    0.0620 N   0  0  0  0  0  0  0  0  0  0  0  0
    2.6168    0.9908    0.0251 C   0  0  0  0  0  0  0  0  0  0  0  0
    1.1757   -0.8752    0.7555 C   0  0  0  0  0  0  0  0  0  0  0  0
    3.6339   -0.0447   -0.4350 C   0  0  0  0  0  0  0  0  0  0  0  0
    2.2534   -1.8309    0.2626 C   0  0  0  0  0  0  0  0  0  0  0  0
    0.2008    1.0469   -0.4284 C   0  0  0  0  0  0  0  0  0  0  0  0
   -1.0792    0.3080   -0.3137 C   0  0  0  0  0  0  0  0  0  0  0  0
   -1.8641    0.4587    0.8133 C   0  0  0  0  0  0  0  0  0  0  0  0
   -1.4494   -0.5218   -1.3555 C   0  0  0  0  0  0  0  0  0  0  0  0
   -3.0646   -0.2463    0.9023 C   0  0  0  0  0  0  0  0  0  0  0  0
   -2.6498   -1.2268   -1.2663 C   0  0  0  0  0  0  0  0  0  0  0  0
   -3.4572   -1.0891   -0.1375 C   0  0  0  0  0  0  0  0  0  0  0  0
  1  9  2  0
  2  7  1  0
  2  8  1  0
  3 11  1  0
  4  5  1  0
  4  6  1  0
  4  9  1  0
  5  7  1  0
  6  8  1  0
  9 10  1  0
 10 11  2  0
 10 12  1  0
 11 13  1  0
 12 14  2  0
 13 15  2  0
 14 15  1  0
M  END
>  <PUBCHEM_COMPOUND_CID>  (1) 
16245

>  <PUBCHEM_CONFORMER_RMSD>  (1) 
0.6

>  <PUBCHEM_CONFORMER_DIVERSEORDER>  (1) 
4
7
8
3
10
5
9
11
6
1
2

>  <PUBCHEM_MMFF94_PARTIAL_CHARGES>  (1) 
20
1 -0.38
10 0.09
11 0.08
12 -0.15
13 -0.15
14 -0.15
15 -0.15
2 -0.56
24 0.15
25 0.15
26 0.15
27 0.15
28 0.45
3 -0.53
4 -0.66
5 0.3
6 0.3
7 0.28
8 0.28
9 0.35

>  <PUBCHEM_EFFECTIVE_ROTOR_COUNT>  (1) 
3.2

>  <PUBCHEM_PHARMACOPHORE_FEATURES>  (1) 
5
1 1 acceptor
1 2 acceptor
1 3 donor
6 10 11 12 13 14 15 rings
6 2 4 5 6 7 8 rings

>  <PUBCHEM_HEAVY_ATOM_COUNT>  (1) 
15

>  <PUBCHEM_ATOM_DEF_STEREO_COUNT>  (1) 
0

>  <PUBCHEM_ATOM_UDEF_STEREO_COUNT>  (1) 
0

>  <PUBCHEM_BOND_DEF_STEREO_COUNT>  (1) 
0

>  <PUBCHEM_BOND_UDEF_STEREO_COUNT>  (1) 
0

>  <PUBCHEM_ISOTOPIC_ATOM_COUNT>  (1) 
0

>  <PUBCHEM_COMPONENT_COUNT>  (1) 
1

>  <PUBCHEM_CACTVS_TAUTO_COUNT>  (1) 
4

>  <PUBCHEM_CONFORMER_ID>  (1) 
00003F7500000004

>  <PUBCHEM_MMFF94_ENERGY>  (1) 
55.2913

>  <PUBCHEM_FEATURE_SELFOVERLAP>  (1) 
25.371

>  <PUBCHEM_SHAPE_FINGERPRINT>  (1) 
11578080 2 18057294328164519377
11769659 78 18271518779793965791
124424 183 14476967748604466006
13296908 3 18187638098441146022
13581323 91 17346601884699967311
14817 1 15955460087930224945
15076042 46 17774447087895422659
15375462 189 18129664235080545323
16945 1 18190454046678246917
18534176 82 15068627088635028793
19422 9 18272658926339483262
19837323 101 13696144030079430541
200 152 18341321258424859759
20201158 50 17313100864839472387
20361792 2 18335133198150949076
20645464 45 14620803708161398159
20645477 70 17897998282165278919
20671657 53 18334007324219606069
20711985 344 17315338250875138484
21061003 4 17894920641233098941
21524375 3 9151169869959685477
22112679 90 17916883433522308513
22445834 79 18271810103078010139
232386 152 17560240352899687077
23388829 49 18340771528243735909
23402539 116 18040432153879692614
23526113 38 17022894683599272753
23559900 14 16558206933654598708
23598291 2 18269853054280600197
23728640 28 16603475759609807747
2748010 2 18189317022880129788
449060 23 18201722855526005950
6992083 37 18270695151111565273
77492 1 18200882875807793237
81228 2 17751345206035075284
90316 7 17489593350686626985

>  <PUBCHEM_SHAPE_MULTIPOLES>  (1) 
295.82
5.73
1.98
1.29
1.31
0.87
0.13
-2.59
-0.02
0.91
-0.35
-0.97
0.17
-0.68

>  <PUBCHEM_SHAPE_SELFOVERLAP>  (1) 
614.242

>  <PUBCHEM_SHAPE_VOLUME>  (1) 
170.1

>  <PUBCHEM_COORDINATE_TYPE>  (1) 
2
5
10

$$$$
