16244
     RDKit          3D

 14 15  0  0  0  0  0  0  0  0999 V2000
    0.2186    2.9010   -0.0392 S   0  0  0  0  0  0  0  0  0  0  0  0
    3.3306   -1.3408    0.0380 O   0  0  0  0  0  0  0  0  0  0  0  0
    1.2270    0.4766   -0.2888 N   0  0  0  0  0  0  0  0  0  0  0  0
    1.1902   -0.8097   -0.9707 C   0  0  0  0  0  0  0  0  0  0  0  0
    2.5479    0.9530    0.0978 C   0  0  0  0  0  0  0  0  0  0  0  0
    2.0069   -1.8347   -0.1956 C   0  0  0  0  0  0  0  0  0  0  0  0
    3.3053   -0.1471    0.8284 C   0  0  0  0  0  0  0  0  0  0  0  0
    0.1140    1.2294   -0.1164 C   0  0  0  0  0  0  0  0  0  0  0  0
   -1.1521    0.4670   -0.0001 C   0  0  0  0  0  0  0  0  0  0  0  0
   -1.5779    0.0637    1.2503 C   0  0  0  0  0  0  0  0  0  0  0  0
   -1.8695    0.1823   -1.1452 C   0  0  0  0  0  0  0  0  0  0  0  0
   -2.7693   -0.6533    1.3599 C   0  0  0  0  0  0  0  0  0  0  0  0
   -3.0609   -0.5347   -1.0355 C   0  0  0  0  0  0  0  0  0  0  0  0
   -3.5108   -0.9526    0.2171 C   0  0  0  0  0  0  0  0  0  0  0  0
  1  8  2  0
  2  6  1  0
  2  7  1  0
  3  4  1  0
  3  5  1  0
  3  8  1  0
  4  6  1  0
  5  7  1  0
  8  9  1  0
  9 10  2  0
  9 11  1  0
 10 12  1  0
 11 13  2  0
 12 14  2  0
 13 14  1  0
M  END
>  <PUBCHEM_COMPOUND_CID>  (1) 
16244

>  <PUBCHEM_CONFORMER_RMSD>  (1) 
0.6

>  <PUBCHEM_CONFORMER_DIVERSEORDER>  (1) 
2
8
6
5
1
7
4
3

>  <PUBCHEM_MMFF94_PARTIAL_CHARGES>  (1) 
19
1 -0.38
10 -0.15
11 -0.15
12 -0.15
13 -0.15
14 -0.15
2 -0.56
23 0.15
24 0.15
25 0.15
26 0.15
27 0.15
3 -0.66
4 0.3
5 0.3
6 0.28
7 0.28
8 0.35
9 0.09

>  <PUBCHEM_EFFECTIVE_ROTOR_COUNT>  (1) 
3.2

>  <PUBCHEM_PHARMACOPHORE_FEATURES>  (1) 
4
1 1 acceptor
1 2 acceptor
6 2 3 4 5 6 7 rings
6 9 10 11 12 13 14 rings

>  <PUBCHEM_HEAVY_ATOM_COUNT>  (1) 
14

>  <PUBCHEM_ATOM_DEF_STEREO_COUNT>  (1) 
0

>  <PUBCHEM_ATOM_UDEF_STEREO_COUNT>  (1) 
0

>  <PUBCHEM_BOND_DEF_STEREO_COUNT>  (1) 
0

>  <PUBCHEM_BOND_UDEF_STEREO_COUNT>  (1) 
0

>  <PUBCHEM_ISOTOPIC_ATOM_COUNT>  (1) 
0

>  <PUBCHEM_COMPONENT_COUNT>  (1) 
1

>  <PUBCHEM_CACTVS_TAUTO_COUNT>  (1) 
1

>  <PUBCHEM_CONFORMER_ID>  (1) 
00003F7400000002

>  <PUBCHEM_MMFF94_ENERGY>  (1) 
53.4319

>  <PUBCHEM_FEATURE_SELFOVERLAP>  (1) 
20.297

>  <PUBCHEM_SHAPE_FINGERPRINT>  (1) 
10219947 1 18341047514357561844
10618630 7 18336550430148002638
11471102 22 18412543219367445474
11578080 2 17273099524168423209
12202030 40 17532669016617606987
12759256 9 18267585882399115164
13296908 3 18408319969145229702
13693222 15 18342452612961241250
13764800 53 13614529549639934075
15207287 21 18114170994979200939
16945 1 18339927141952355413
17834072 14 18335127683397122929
200 152 18201990032646141815
20201158 50 18186800279239533859
20279233 1 18040713679726312211
20361792 2 18412830178848659701
204376 136 18051970626317738560
20645477 70 18190451848034903439
20653085 51 10737290155775475027
20671657 53 16950283988220887614
20711985 344 17970903354253796756
21061003 4 18410859871186389753
22445834 79 17846504733436164707
23388829 49 18202282549704500769
23419403 2 14574822097285513745
23526113 38 18042104553440498705
23559900 14 17313088753780868400
27216 239 11743250927392219487
2748010 2 18270679740774013324
3082319 5 14418138417398881914
31174 14 18044952400478653209
549884 4 12179848328806494190
57812782 119 17894623768672018570
77492 1 17560524009640792597
81228 2 18119250562585196312

>  <PUBCHEM_SHAPE_MULTIPOLES>  (1) 
281.11
5.63
2.05
1.17
0.07
1.36
-0.11
-2.71
-0.73
-1.1
0.12
0.71
-0.16
0.19

>  <PUBCHEM_SHAPE_SELFOVERLAP>  (1) 
579.205

>  <PUBCHEM_SHAPE_VOLUME>  (1) 
162.8

>  <PUBCHEM_COORDINATE_TYPE>  (1) 
2
5
10

$$$$
