16241
     RDKit          3D

 11 10  0  0  0  0  0  0  0  0999 V2000
    0.1603    0.0017    0.5773 Si  0  0  0  0  0  4  0  0  0  0  0  0
   -0.9233    1.2829    0.5884 O   0  0  0  0  0  0  0  0  0  0  0  0
   -0.4736   -1.2528   -0.3375 O   0  0  0  0  0  0  0  0  0  0  0  0
    1.5941    0.5170   -0.1248 O   0  0  0  0  0  0  0  0  0  0  0  0
    0.4748   -0.5610    2.3420 C   0  0  0  0  0  0  0  0  0  0  0  0
   -1.3127    1.8768   -0.6421 C   0  0  0  0  0  0  0  0  0  0  0  0
   -1.7053   -1.8471    0.0456 C   0  0  0  0  0  0  0  0  0  0  0  0
    2.6802   -0.3904   -0.2442 C   0  0  0  0  0  0  0  0  0  0  0  0
   -2.2876    3.0003   -0.3606 C   0  0  0  0  0  0  0  0  0  0  0  0
   -2.0504   -2.9446   -0.9383 C   0  0  0  0  0  0  0  0  0  0  0  0
    3.8435    0.3172   -0.9059 C   0  0  0  0  0  0  0  0  0  0  0  0
  1  2  1  0
  1  3  1  0
  1  4  1  0
  1  5  1  0
  2  6  1  0
  3  7  1  0
  4  8  1  0
  6  9  1  0
  7 10  1  0
  8 11  1  0
M  END
>  <PUBCHEM_COMPOUND_CID>  (1) 
16241

>  <PUBCHEM_CONFORMER_RMSD>  (1) 
0.6

>  <PUBCHEM_CONFORMER_DIVERSEORDER>  (1) 
2
12
14
15
7
9
16
8
13
10
11
4
3
6
5
1

>  <PUBCHEM_MMFF94_PARTIAL_CHARGES>  (1) 
8
1 0.97
2 -0.58
3 -0.58
4 -0.58
5 -0.08
6 0.28
7 0.28
8 0.28

>  <PUBCHEM_EFFECTIVE_ROTOR_COUNT>  (1) 
6

>  <PUBCHEM_PHARMACOPHORE_FEATURES>  (1) 
0

>  <PUBCHEM_HEAVY_ATOM_COUNT>  (1) 
11

>  <PUBCHEM_ATOM_DEF_STEREO_COUNT>  (1) 
0

>  <PUBCHEM_ATOM_UDEF_STEREO_COUNT>  (1) 
0

>  <PUBCHEM_BOND_DEF_STEREO_COUNT>  (1) 
0

>  <PUBCHEM_BOND_UDEF_STEREO_COUNT>  (1) 
0

>  <PUBCHEM_ISOTOPIC_ATOM_COUNT>  (1) 
0

>  <PUBCHEM_COMPONENT_COUNT>  (1) 
1

>  <PUBCHEM_CACTVS_TAUTO_COUNT>  (1) 
1

>  <PUBCHEM_CONFORMER_ID>  (1) 
00003F7100000002

>  <PUBCHEM_MMFF94_ENERGY>  (1) 
4.6212

>  <PUBCHEM_FEATURE_SELFOVERLAP>  (1) 
0

>  <PUBCHEM_SHAPE_FINGERPRINT>  (1) 
1 1 17760367686608608893
10756046 70 17536572033556227242
12138202 97 18341058397878374396
13380536 261 17896861300715129722
13898156 1 17751611330697702682
14817 1 12884623913537791131
15502708 8 18412826901714675437
17041 50 17977928409480844727
20653085 51 18117574945930114792
20711985 344 18337940285839071003
21524375 3 17970353607267317700
22713019 5 18336818805548573591
228727 97 17750224958288732970
23211744 41 17463718405768510985
23418878 81 17690564087202305587
23419403 2 17130974520509437810
298252 57 18191309264882435816
3060560 45 17832135031136420101
53812653 217 18335704927054524554
59915604 170 17537437697236566876
68419 9 17970599974980365002
76951 1 16956721817405615427
81228 2 18337104678460850265

>  <PUBCHEM_SHAPE_MULTIPOLES>  (1) 
226.98
4.17
3.16
1.44
4.47
0.23
1
0.56
-2.07
-4.46
-1.17
0.31
-0.41
-0.42

>  <PUBCHEM_SHAPE_SELFOVERLAP>  (1) 
397.279

>  <PUBCHEM_SHAPE_VOLUME>  (1) 
150.2

>  <PUBCHEM_COORDINATE_TYPE>  (1) 
2
5
10

$$$$
