16250
     RDKit          3D

 12 13  0  0  0  0  0  0  0  0999 V2000
   -1.9133   -2.6522    0.0018 I   0  0  0  0  0  0  0  0  0  0  0  0
   -3.3501    0.1741   -0.0018 O   0  0  0  0  0  0  0  0  0  0  0  0
    0.2977   -0.4218   -0.0002 C   0  0  0  0  0  0  0  0  0  0  0  0
    0.7549    0.9175    0.0002 C   0  0  0  0  0  0  0  0  0  0  0  0
   -1.0834   -0.6762   -0.0003 C   0  0  0  0  0  0  0  0  0  0  0  0
   -0.1827    1.9633    0.0007 C   0  0  0  0  0  0  0  0  0  0  0  0
    1.2353   -1.4676   -0.0007 C   0  0  0  0  0  0  0  0  0  0  0  0
    2.1361    1.1718    0.0004 C   0  0  0  0  0  0  0  0  0  0  0  0
   -2.0006    0.3749    0.0001 C   0  0  0  0  0  0  0  0  0  0  0  0
   -1.5512    1.6921    0.0005 C   0  0  0  0  0  0  0  0  0  0  0  0
    2.6039   -1.1965   -0.0006 C   0  0  0  0  0  0  0  0  0  0  0  0
    3.0534    0.1206   -0.0001 C   0  0  0  0  0  0  0  0  0  0  0  0
  1  5  1  0
  2  9  1  0
  3  4  1  0
  3  5  2  0
  3  7  1  0
  4  6  2  0
  4  8  1  0
  5  9  1  0
  6 10  1  0
  7 11  2  0
  8 12  2  0
  9 10  2  0
 11 12  1  0
M  END
>  <PUBCHEM_COMPOUND_CID>  (1) 
16250

>  <PUBCHEM_CONFORMER_RMSD>  (1) 
0.4

>  <PUBCHEM_CONFORMER_DIVERSEORDER>  (1) 
1

>  <PUBCHEM_MMFF94_PARTIAL_CHARGES>  (1) 
17
1 -0.08
10 -0.15
11 -0.15
12 -0.15
13 0.15
14 0.15
15 0.15
16 0.15
17 0.15
18 0.15
19 0.45
2 -0.53
5 0.08
6 -0.15
7 -0.15
8 -0.15
9 0.08

>  <PUBCHEM_EFFECTIVE_ROTOR_COUNT>  (1) 
0

>  <PUBCHEM_PHARMACOPHORE_FEATURES>  (1) 
4
1 1 hydrophobe
1 2 donor
6 3 4 5 6 9 10 rings
6 3 4 7 8 11 12 rings

>  <PUBCHEM_HEAVY_ATOM_COUNT>  (1) 
12

>  <PUBCHEM_ATOM_DEF_STEREO_COUNT>  (1) 
0

>  <PUBCHEM_ATOM_UDEF_STEREO_COUNT>  (1) 
0

>  <PUBCHEM_BOND_DEF_STEREO_COUNT>  (1) 
0

>  <PUBCHEM_BOND_UDEF_STEREO_COUNT>  (1) 
0

>  <PUBCHEM_ISOTOPIC_ATOM_COUNT>  (1) 
0

>  <PUBCHEM_COMPONENT_COUNT>  (1) 
1

>  <PUBCHEM_CACTVS_TAUTO_COUNT>  (1) 
3

>  <PUBCHEM_CONFORMER_ID>  (1) 
00003F7A00000001

>  <PUBCHEM_MMFF94_ENERGY>  (1) 
39.3077

>  <PUBCHEM_FEATURE_SELFOVERLAP>  (1) 
20.324

>  <PUBCHEM_SHAPE_FINGERPRINT>  (1) 
10967382 1 18410573963729628519
11132069 177 18411695525935507400
12382932 28 18340766030669584578
12423570 1 12252174190912833137
12524768 44 18341055133402808663
13140716 1 18339078318912207794
13380535 76 18412822464982232175
14325111 11 18338517430527621120
16945 1 18410855443101364356
17844478 74 18040727934981282441
193761 8 18050286169781237093
20201158 50 18410009918527768322
20510252 161 18128816352396038584
20588541 1 18413110549907920791
20871998 184 18201441419098674679
21501502 16 18265052611913995627
2334 1 18050287264813157826
23388829 49 17764863989102497519
23402539 116 18270104743590190519
23463225 33 18408322181301267946
23552423 10 18189618409177284508
23559900 14 18342740690188636502
2748010 2 18195523929021733060
3312278 4 18338520840884284226
5084963 1 18058162826084729458
528886 8 18411695508666032330
54173680 148 18410013255918265658
8809292 202 18335424573196562618

>  <PUBCHEM_SHAPE_MULTIPOLES>  (1) 
253.02
4.28
2.57
0.64
0.25
0.49
0
1.07
0
-1.2
0
-0.04
0.07
0

>  <PUBCHEM_SHAPE_SELFOVERLAP>  (1) 
532.762

>  <PUBCHEM_SHAPE_VOLUME>  (1) 
145.9

>  <PUBCHEM_COORDINATE_TYPE>  (1) 
2
5
10

$$$$
