16267
     RDKit          3D

 13 13  0  0  0  0  0  0  0  0999 V2000
   -2.3994   -0.2952   -0.0279 O   0  0  0  0  0  0  0  0  0  0  0  0
    2.3995   -0.2965   -0.0279 O   0  0  0  0  0  0  0  0  0  0  0  0
   -0.0012   -2.4038   -1.1553 O   0  0  0  0  0  0  0  0  0  0  0  0
    0.0002   -0.3315   -0.0288 C   0  0  0  0  0  0  0  0  0  0  0  0
   -1.2076    0.3659   -0.0085 C   0  0  0  0  0  0  0  0  0  0  0  0
    1.2084    0.3656   -0.0084 C   0  0  0  0  0  0  0  0  0  0  0  0
   -1.2074    1.7603    0.0323 C   0  0  0  0  0  0  0  0  0  0  0  0
    1.2085    1.7599    0.0324 C   0  0  0  0  0  0  0  0  0  0  0  0
   -0.0007   -1.7892   -0.0725 C   0  0  0  0  0  0  0  0  0  0  0  0
    0.0006    2.4573    0.0528 C   0  0  0  0  0  0  0  0  0  0  0  0
   -0.0019   -2.5929    1.2209 C   0  0  0  0  0  0  0  0  0  0  0  0
   -3.5819    0.5013   -0.0047 C   0  0  0  0  0  0  0  0  0  0  0  0
    3.5829    0.4988   -0.0045 C   0  0  0  0  0  0  0  0  0  0  0  0
  1  5  1  0
  1 12  1  0
  2  6  1  0
  2 13  1  0
  3  9  2  0
  4  5  2  0
  4  6  1  0
  4  9  1  0
  5  7  1  0
  6  8  2  0
  7 10  2  0
  8 10  1  0
  9 11  1  0
M  END
>  <PUBCHEM_COMPOUND_CID>  (1) 
16267

>  <PUBCHEM_CONFORMER_RMSD>  (1) 
0.6

>  <PUBCHEM_CONFORMER_DIVERSEORDER>  (1) 
8
4
3
5
6
2
7
1

>  <PUBCHEM_MMFF94_PARTIAL_CHARGES>  (1) 
16
1 -0.36
10 -0.15
11 0.06
12 0.28
13 0.28
14 0.15
15 0.15
16 0.15
2 -0.36
3 -0.57
4 0.09
5 0.08
6 0.08
7 -0.15
8 -0.15
9 0.42

>  <PUBCHEM_EFFECTIVE_ROTOR_COUNT>  (1) 
3

>  <PUBCHEM_PHARMACOPHORE_FEATURES>  (1) 
4
1 1 acceptor
1 2 acceptor
1 3 acceptor
6 4 5 6 7 8 10 rings

>  <PUBCHEM_HEAVY_ATOM_COUNT>  (1) 
13

>  <PUBCHEM_ATOM_DEF_STEREO_COUNT>  (1) 
0

>  <PUBCHEM_ATOM_UDEF_STEREO_COUNT>  (1) 
0

>  <PUBCHEM_BOND_DEF_STEREO_COUNT>  (1) 
0

>  <PUBCHEM_BOND_UDEF_STEREO_COUNT>  (1) 
0

>  <PUBCHEM_ISOTOPIC_ATOM_COUNT>  (1) 
0

>  <PUBCHEM_COMPONENT_COUNT>  (1) 
1

>  <PUBCHEM_CACTVS_TAUTO_COUNT>  (1) 
2

>  <PUBCHEM_CONFORMER_ID>  (1) 
00003F8B00000008

>  <PUBCHEM_MMFF94_ENERGY>  (1) 
57.6091

>  <PUBCHEM_FEATURE_SELFOVERLAP>  (1) 
20.297

>  <PUBCHEM_SHAPE_FINGERPRINT>  (1) 
10219947 1 18411421700248285833
11680986 33 17906172102565303625
12423570 1 17536296378218387829
13380535 21 17831311853462300300
13380535 220 18121494923599310573
14993402 34 18411418440262658780
161256 15 17909000811092056213
16945 1 18202282506680734476
193761 8 17762338011440600773
20511035 2 17981329202776032828
20645476 183 17677630798539848718
20871998 184 18198913689353501462
21501502 16 17906730306817362953
22344851 341 17978797809138783418
2334 1 17978510059167529605
23402539 116 18271514356251938300
23419403 2 16039914945953735360
23552423 10 17830462682471610237
23559900 14 15533331988702154239
2748010 2 17835805570549069516
4072396 5 18118379805452750281
43471831 8 18190458251699468026
528886 8 18412821387113979633
53812653 11 18341894129504873580
7364860 26 17910954634495828982
81228 2 17543901764782544843

>  <PUBCHEM_SHAPE_MULTIPOLES>  (1) 
249.93
3.87
2.84
0.79
0
1.01
-0.02
-1.16
0.07
0
-0.26
0
0.48
0

>  <PUBCHEM_SHAPE_SELFOVERLAP>  (1) 
516.969

>  <PUBCHEM_SHAPE_VOLUME>  (1) 
144.6

>  <PUBCHEM_COORDINATE_TYPE>  (1) 
2
5
10

$$$$
