16265
     RDKit          3D

 10 10  0  0  0  0  0  0  0  0999 V2000
   -0.6225    1.0523    0.0471 C   0  0  0  0  0  0  0  0  0  0  0  0
   -0.6527   -0.3323    0.2124 C   0  0  0  0  0  0  0  0  0  0  0  0
    1.7521   -0.4108   -0.0064 C   0  0  0  0  0  0  0  0  0  0  0  0
    0.5346   -1.0640    0.1857 C   0  0  0  0  0  0  0  0  0  0  0  0
    0.5949    1.7054   -0.1450 C   0  0  0  0  0  0  0  0  0  0  0  0
    1.7823    0.9738   -0.1719 C   0  0  0  0  0  0  0  0  0  0  0  0
   -1.8748    1.8686    0.0701 C   0  0  0  0  0  0  0  0  0  0  0  0
    3.0219   -1.1923   -0.0352 C   0  0  0  0  0  0  0  0  0  0  0  0
   -1.9084   -1.0431    0.4147 C   0  0  0  0  0  0  0  0  0  0  0  0
   -2.6274   -1.5576   -0.5715 C   0  0  0  0  0  0  0  0  0  0  0  0
  1  2  2  0
  1  5  1  0
  1  7  1  0
  2  4  1  0
  2  9  1  0
  3  4  2  0
  3  6  1  0
  3  8  1  0
  5  6  2  0
  9 10  2  0
M  END
>  <PUBCHEM_COMPOUND_CID>  (1) 
16265

>  <PUBCHEM_CONFORMER_RMSD>  (1) 
0.4

>  <PUBCHEM_CONFORMER_DIVERSEORDER>  (1) 
1
2

>  <PUBCHEM_MMFF94_PARTIAL_CHARGES>  (1) 
16
1 -0.14
10 -0.3
11 0.15
12 0.15
13 0.15
2 0.03
20 0.15
21 0.15
22 0.15
3 -0.14
4 -0.15
5 -0.15
6 -0.15
7 0.14
8 0.14
9 -0.18

>  <PUBCHEM_EFFECTIVE_ROTOR_COUNT>  (1) 
1

>  <PUBCHEM_PHARMACOPHORE_FEATURES>  (1) 
2
1 10 hydrophobe
6 1 2 3 4 5 6 rings

>  <PUBCHEM_HEAVY_ATOM_COUNT>  (1) 
10

>  <PUBCHEM_ATOM_DEF_STEREO_COUNT>  (1) 
0

>  <PUBCHEM_ATOM_UDEF_STEREO_COUNT>  (1) 
0

>  <PUBCHEM_BOND_DEF_STEREO_COUNT>  (1) 
0

>  <PUBCHEM_BOND_UDEF_STEREO_COUNT>  (1) 
0

>  <PUBCHEM_ISOTOPIC_ATOM_COUNT>  (1) 
0

>  <PUBCHEM_COMPONENT_COUNT>  (1) 
1

>  <PUBCHEM_CACTVS_TAUTO_COUNT>  (1) 
1

>  <PUBCHEM_CONFORMER_ID>  (1) 
00003F8900000001

>  <PUBCHEM_MMFF94_ENERGY>  (1) 
29.2161

>  <PUBCHEM_FEATURE_SELFOVERLAP>  (1) 
10.148

>  <PUBCHEM_SHAPE_FINGERPRINT>  (1) 
11206711 2 18335144193319961494
12423570 1 11423840008005324796
12897270 3 18265336303109531999
14128692 85 18412549833543286726
161256 15 18268711786648215880
16945 1 18120942960151159176
193761 8 18410294730784102512
20871998 184 18200594691939296038
21040471 1 18049442539325219840
21501502 16 18410296917064686084
23552423 10 18260271862542233758
23559900 14 18053945057660438766
241688 4 18335701619982675072
2748010 2 18410291415158754548
29004967 10 18119250816093105939
5084963 1 18273500091194304402

>  <PUBCHEM_SHAPE_MULTIPOLES>  (1) 
205.8
3.71
2.1
0.68
0.68
0.57
-0.01
-1.65
-0.3
-0.71
-0.1
-0.11
-0.07
-0.22

>  <PUBCHEM_SHAPE_SELFOVERLAP>  (1) 
423.884

>  <PUBCHEM_SHAPE_VOLUME>  (1) 
114.1

>  <PUBCHEM_COORDINATE_TYPE>  (1) 
2
5
10

$$$$
