16261
     RDKit          3D

 21 23  0  0  0  0  0  0  0  0999 V2000
    2.3409    0.9842   -0.0887 N   0  0  0  0  0  0  0  0  0  0  0  0
   -2.3456    0.9766    0.0894 N   0  0  0  0  0  0  0  0  0  0  0  0
   -0.0024    0.9487   -0.0013 N   0  0  0  0  0  0  0  0  0  0  0  0
   -1.2046    3.0248    0.0450 N   0  0  0  0  0  0  0  0  0  0  0  0
    1.1932    3.0287   -0.0462 N   0  0  0  0  0  0  0  0  0  0  0  0
    2.6514   -0.3916   -0.1014 C   0  0  0  0  0  0  0  0  0  0  0  0
   -2.6499   -0.3975    0.1019 C   0  0  0  0  0  0  0  0  0  0  0  0
    1.1208    1.6862   -0.0440 C   0  0  0  0  0  0  0  0  0  0  0  0
   -1.1249    1.6844    0.0415 C   0  0  0  0  0  0  0  0  0  0  0  0
   -0.0067    3.6297   -0.0004 C   0  0  0  0  0  0  0  0  0  0  0  0
    3.8469   -0.8422    0.4586 C   0  0  0  0  0  0  0  0  0  0  0  0
    1.7629   -1.3017   -0.6743 C   0  0  0  0  0  0  0  0  0  0  0  0
   -3.8460   -0.8553   -0.4546 C   0  0  0  0  0  0  0  0  0  0  0  0
   -1.7568   -1.3074    0.6714 C   0  0  0  0  0  0  0  0  0  0  0  0
    4.1541   -2.2029    0.4453 C   0  0  0  0  0  0  0  0  0  0  0  0
    2.0702   -2.6623   -0.6873 C   0  0  0  0  0  0  0  0  0  0  0  0
   -4.1478   -2.2171   -0.4416 C   0  0  0  0  0  0  0  0  0  0  0  0
   -2.0586   -2.6692    0.6843 C   0  0  0  0  0  0  0  0  0  0  0  0
    3.2658   -3.1128   -0.1275 C   0  0  0  0  0  0  0  0  0  0  0  0
   -3.2541   -3.1239    0.1279 C   0  0  0  0  0  0  0  0  0  0  0  0
   -0.0091    5.1206    0.0021 C   0  0  0  0  0  0  0  0  0  0  0  0
  1  6  1  0
  1  8  1  0
  2  7  1  0
  2  9  1  0
  3  8  2  0
  3  9  1  0
  4  9  2  0
  4 10  1  0
  5  8  1  0
  5 10  2  0
  6 11  2  0
  6 12  1  0
  7 13  2  0
  7 14  1  0
 10 21  1  0
 11 15  1  0
 12 16  2  0
 13 17  1  0
 14 18  2  0
 15 19  2  0
 16 19  1  0
 17 20  2  0
 18 20  1  0
M  END
>  <PUBCHEM_COMPOUND_CID>  (1) 
16261

>  <PUBCHEM_CONFORMER_RMSD>  (1) 
0.6

>  <PUBCHEM_CONFORMER_DIVERSEORDER>  (1) 
2
34
24
32
33
11
13
42
5
41
12
37
43
1
20
9
21
31
36
8
40
7
25
29
35
30
39
26
6
23
27
14
22
15
44
16
10
17
18
19
28
38
4
3

>  <PUBCHEM_MMFF94_PARTIAL_CHARGES>  (1) 
33
1 -0.6
10 0.48
11 -0.15
12 -0.15
13 -0.15
14 -0.15
15 -0.15
16 -0.15
17 -0.15
18 -0.15
19 -0.15
2 -0.6
20 -0.15
21 0.14
22 0.4
23 0.4
24 0.15
25 0.15
26 0.15
27 0.15
28 0.15
29 0.15
3 -0.62
30 0.15
31 0.15
32 0.15
33 0.15
4 -0.62
5 -0.62
6 0.1
7 0.1
8 0.72
9 0.72

>  <PUBCHEM_EFFECTIVE_ROTOR_COUNT>  (1) 
4

>  <PUBCHEM_PHARMACOPHORE_FEATURES>  (1) 
7
1 1 donor
1 2 donor
4 1 3 5 8 cation
4 2 3 4 9 cation
6 3 4 5 8 9 10 rings
6 6 11 12 15 16 19 rings
6 7 13 14 17 18 20 rings

>  <PUBCHEM_HEAVY_ATOM_COUNT>  (1) 
21

>  <PUBCHEM_ATOM_DEF_STEREO_COUNT>  (1) 
0

>  <PUBCHEM_ATOM_UDEF_STEREO_COUNT>  (1) 
0

>  <PUBCHEM_BOND_DEF_STEREO_COUNT>  (1) 
0

>  <PUBCHEM_BOND_UDEF_STEREO_COUNT>  (1) 
0

>  <PUBCHEM_ISOTOPIC_ATOM_COUNT>  (1) 
0

>  <PUBCHEM_COMPONENT_COUNT>  (1) 
1

>  <PUBCHEM_CACTVS_TAUTO_COUNT>  (1) 
5

>  <PUBCHEM_CONFORMER_ID>  (1) 
00003F8500000002

>  <PUBCHEM_MMFF94_ENERGY>  (1) 
75.5632

>  <PUBCHEM_FEATURE_SELFOVERLAP>  (1) 
35.564

>  <PUBCHEM_SHAPE_FINGERPRINT>  (1) 
10411042 1 18410575088964132963
10616163 171 18267869380864585054
1100329 8 18338237042705228625
11056379 131 18123479285001292806
116883 192 18339362950816805926
12107183 9 18341628014433585163
12553582 1 18338815458281806383
12788726 201 18190181191822439842
13004483 165 18339349773772914675
13140716 1 18337400348304558651
138480 1 14879752547313181186
14081887 123 18195232339877484930
14251705 54 18338518650319497194
14363568 33 17832452025751066114
14790565 3 17835245549785183657
14844126 61 18047186354545163426
14866123 147 17907578030435248851
15352361 1 18410853261158264398
15927050 60 16900176769489711973
17859628 97 16752126407617584682
19591789 44 17474676044467484073
19930381 70 17977663435626105507
20645477 70 17903909308268512023
21452121 199 18336256920847203544
22113638 7 18270110344011974815
2255824 54 18051700145918865029
23184049 29 18337958883115982502
23559900 14 18194673994007340945
23728640 28 17832708967526136811
257057 1 18410855460128200773
3091708 16 9137491932425380153
314173 41 18339655541195220127
33824 294 17546166763009586049
5309563 4 18339083808034184963
6443956 14 18337109063780662911
7364860 26 18050287265103405713
81228 2 18264779765558075576
9709674 26 17839175217422253918

>  <PUBCHEM_SHAPE_MULTIPOLES>  (1) 
407.27
7.02
6.13
0.73
0.03
7.26
0
-8.68
0
-0.04
0
0
-0.28
0.09

>  <PUBCHEM_SHAPE_SELFOVERLAP>  (1) 
880.851

>  <PUBCHEM_SHAPE_VOLUME>  (1) 
213

>  <PUBCHEM_COORDINATE_TYPE>  (1) 
2
5
10

$$$$
