16277
     RDKit          3D

  8  8  0  0  0  0  0  0  0  0999 V2000
   -2.2237   -1.3584   -0.0022 S   0  0  0  0  0  0  0  0  0  0  0  0
   -0.4791    0.7771    0.0013 N   0  0  0  0  0  0  0  0  0  0  0  0
   -0.7006   -0.6197    0.0008 C   0  0  0  0  0  0  0  0  0  0  0  0
    0.8062    1.3041   -0.0011 C   0  0  0  0  0  0  0  0  0  0  0  0
   -1.5883    1.7392    0.0008 C   0  0  0  0  0  0  0  0  0  0  0  0
    0.5409   -1.4698    0.0016 C   0  0  0  0  0  0  0  0  0  0  0  0
    1.8938    0.5273   -0.0016 C   0  0  0  0  0  0  0  0  0  0  0  0
    1.7506   -0.8998    0.0004 C   0  0  0  0  0  0  0  0  0  0  0  0
  1  3  2  0
  2  3  1  0
  2  4  1  0
  2  5  1  0
  3  6  1  0
  4  7  2  0
  6  8  2  0
  7  8  1  0
M  END
>  <PUBCHEM_COMPOUND_CID>  (1) 
16277

>  <PUBCHEM_CONFORMER_RMSD>  (1) 
0.4

>  <PUBCHEM_CONFORMER_DIVERSEORDER>  (1) 
1

>  <PUBCHEM_MMFF94_PARTIAL_CHARGES>  (1) 
12
1 -0.38
13 0.15
14 0.15
15 0.15
2 -0.47
3 0.43
4 -0.04
5 0.3
6 -0.14
7 -0.15
8 -0.15
9 0.15

>  <PUBCHEM_EFFECTIVE_ROTOR_COUNT>  (1) 
0

>  <PUBCHEM_PHARMACOPHORE_FEATURES>  (1) 
2
1 1 acceptor
6 2 3 4 6 7 8 rings

>  <PUBCHEM_HEAVY_ATOM_COUNT>  (1) 
8

>  <PUBCHEM_ATOM_DEF_STEREO_COUNT>  (1) 
0

>  <PUBCHEM_ATOM_UDEF_STEREO_COUNT>  (1) 
0

>  <PUBCHEM_BOND_DEF_STEREO_COUNT>  (1) 
0

>  <PUBCHEM_BOND_UDEF_STEREO_COUNT>  (1) 
0

>  <PUBCHEM_ISOTOPIC_ATOM_COUNT>  (1) 
0

>  <PUBCHEM_COMPONENT_COUNT>  (1) 
1

>  <PUBCHEM_CACTVS_TAUTO_COUNT>  (1) 
1

>  <PUBCHEM_CONFORMER_ID>  (1) 
00003F9500000001

>  <PUBCHEM_MMFF94_ENERGY>  (1) 
23.9536

>  <PUBCHEM_FEATURE_SELFOVERLAP>  (1) 
10.148

>  <PUBCHEM_SHAPE_FINGERPRINT>  (1) 
18185500 45 17981042225861761415
21040471 1 18122626046175893792
23552423 10 18260834778157295094
241688 4 18408604729845833520
2748010 2 18411698755703493142
29004967 10 18119249703691470411
5084963 1 18201727296479861730

>  <PUBCHEM_SHAPE_MULTIPOLES>  (1) 
163.5
2.72
1.99
0.62
0.57
0.47
0
-0.51
0
0.53
0
0.02
-0.02
0

>  <PUBCHEM_SHAPE_SELFOVERLAP>  (1) 
318.143

>  <PUBCHEM_SHAPE_VOLUME>  (1) 
100.6

>  <PUBCHEM_COORDINATE_TYPE>  (1) 
2
5
10

$$$$
