16276
     RDKit          3D

 11 11  0  0  1  0  0  0  0  0999 V2000
   -0.0001    0.9385    0.0001 O   0  0  0  0  0  0  0  0  0  0  0  0
    3.2189   -0.4690    0.5464 O   0  0  0  0  0  0  0  0  0  0  0  0
   -3.2191   -0.4690   -0.5464 O   0  0  0  0  0  0  0  0  0  0  0  0
    2.4160    0.9418   -1.0539 O   0  0  0  0  0  0  0  0  0  0  0  0
   -2.4161    0.9418    1.0538 O   0  0  0  0  0  0  0  0  0  0  0  0
    0.4333   -1.3128    0.6200 C   0  0  0  0  0  0  0  0  0  0  0  0
   -0.4329   -1.3130   -0.6199 C   0  0  0  0  0  0  0  0  0  0  0  0
    0.9486    0.1108    0.6744 C   0  0  0  0  0  0  0  0  0  0  0  0
   -0.9486    0.1105   -0.6744 C   0  0  0  0  0  0  0  0  0  0  0  0
    2.2467    0.2602   -0.0538 C   0  0  0  0  0  0  0  0  0  0  0  0
   -2.2468    0.2602    0.0538 C   0  0  0  0  0  0  0  0  0  0  0  0
  1  8  1  0
  1  9  1  0
  2 10  1  0
  3 11  1  0
  4 10  2  0
  5 11  2  0
  6  7  1  0
  6  8  1  0
  7  9  1  0
  8 10  1  0
  9 11  1  0
M  END
>  <PUBCHEM_COMPOUND_CID>  (1) 
16276

>  <PUBCHEM_CONFORMER_RMSD>  (1) 
0.6

>  <PUBCHEM_CONFORMER_DIVERSEORDER>  (1) 
1
7
8
3
6
9
5
4
2

>  <PUBCHEM_MMFF94_PARTIAL_CHARGES>  (1) 
11
1 -0.56
10 0.66
11 0.66
18 0.5
19 0.5
2 -0.65
3 -0.65
4 -0.57
5 -0.57
8 0.34
9 0.34

>  <PUBCHEM_EFFECTIVE_ROTOR_COUNT>  (1) 
3

>  <PUBCHEM_PHARMACOPHORE_FEATURES>  (1) 
8
1 1 acceptor
1 2 acceptor
1 3 acceptor
1 4 acceptor
1 5 acceptor
3 2 4 10 anion
3 3 5 11 anion
5 1 6 7 8 9 rings

>  <PUBCHEM_HEAVY_ATOM_COUNT>  (1) 
11

>  <PUBCHEM_ATOM_DEF_STEREO_COUNT>  (1) 
1

>  <PUBCHEM_ATOM_UDEF_STEREO_COUNT>  (1) 
1

>  <PUBCHEM_BOND_DEF_STEREO_COUNT>  (1) 
0

>  <PUBCHEM_BOND_UDEF_STEREO_COUNT>  (1) 
0

>  <PUBCHEM_ISOTOPIC_ATOM_COUNT>  (1) 
0

>  <PUBCHEM_COMPONENT_COUNT>  (1) 
1

>  <PUBCHEM_CACTVS_TAUTO_COUNT>  (1) 
1

>  <PUBCHEM_CONFORMER_ID>  (1) 
00003F9400000001

>  <PUBCHEM_MMFF94_ENERGY>  (1) 
11.1255

>  <PUBCHEM_FEATURE_SELFOVERLAP>  (1) 
40.729

>  <PUBCHEM_SHAPE_FINGERPRINT>  (1) 
10219947 1 17748829617982495509
14325111 11 18411417314875524100
14993402 34 18335420205177431853
15775835 57 18410576184174999012
16945 1 18410862061492928231
18175812 5 15719393940434169699
20653085 51 16988580007954107737
21028194 46 18410851062086944955
21040471 1 18344143695972351498
23402539 116 17274240816804913853
23552423 10 18267306430446946543
29004967 10 16660646232563665873
3248919 1 18410577287981438183
369184 2 12247687075258817398
5084963 1 18335128795798894857
528862 383 17969490533473096826

>  <PUBCHEM_SHAPE_MULTIPOLES>  (1) 
197.03
4.27
1.17
0.96
0
0.26
0
-0.51
0
0
0
0
-0.06
-0.55

>  <PUBCHEM_SHAPE_SELFOVERLAP>  (1) 
404.992

>  <PUBCHEM_SHAPE_VOLUME>  (1) 
114

>  <PUBCHEM_COORDINATE_TYPE>  (1) 
2
5
10

$$$$
