16271
     RDKit          3D

 11 11  0  0  0  0  0  0  0  0999 V2000
   -3.0258    1.2890    0.0000 O   0  0  0  0  0  0  0  0  0  0  0  0
    1.8547    2.0484   -0.0002 O   0  0  0  0  0  0  0  0  0  0  0  0
    2.7665    0.0468    0.0005 O   0  0  0  0  0  0  0  0  0  0  0  0
    1.7640    0.7987   -0.0002 N   0  0  0  0  0  0  0  0  0  0  0  0
    0.3129   -1.1772    0.0000 C   0  0  0  0  0  0  0  0  0  0  0  0
    0.4698    0.2089    0.0000 C   0  0  0  0  0  0  0  0  0  0  0  0
   -0.9658   -1.7343    0.0001 C   0  0  0  0  0  0  0  0  0  0  0  0
   -0.6521    1.0377    0.0001 C   0  0  0  0  0  0  0  0  0  0  0  0
   -1.9308    0.4806    0.0001 C   0  0  0  0  0  0  0  0  0  0  0  0
    1.4940   -2.0933   -0.0003 C   0  0  0  0  0  0  0  0  0  0  0  0
   -2.0876   -0.9054    0.0000 C   0  0  0  0  0  0  0  0  0  0  0  0
  1  9  1  0
  2  4  1  0
  3  4  2  0
  4  6  1  0
  5  6  2  0
  5  7  1  0
  5 10  1  0
  6  8  1  0
  7 11  2  0
  8  9  2  0
  9 11  1  0
M  CHG  2   2  -1   4   1
M  END
>  <PUBCHEM_COMPOUND_CID>  (1) 
16271

>  <PUBCHEM_CONFORMER_RMSD>  (1) 
0.4

>  <PUBCHEM_CONFORMER_DIVERSEORDER>  (1) 
1

>  <PUBCHEM_MMFF94_PARTIAL_CHARGES>  (1) 
15
1 -0.53
10 0.14
11 -0.15
12 0.15
13 0.15
17 0.15
18 0.45
2 -0.52
3 -0.52
4 0.91
5 -0.14
6 0.13
7 -0.15
8 -0.15
9 0.08

>  <PUBCHEM_EFFECTIVE_ROTOR_COUNT>  (1) 
1

>  <PUBCHEM_PHARMACOPHORE_FEATURES>  (1) 
5
1 1 donor
1 2 acceptor
1 2 anion
1 3 acceptor
6 5 6 7 8 9 11 rings

>  <PUBCHEM_HEAVY_ATOM_COUNT>  (1) 
11

>  <PUBCHEM_ATOM_DEF_STEREO_COUNT>  (1) 
0

>  <PUBCHEM_ATOM_UDEF_STEREO_COUNT>  (1) 
0

>  <PUBCHEM_BOND_DEF_STEREO_COUNT>  (1) 
0

>  <PUBCHEM_BOND_UDEF_STEREO_COUNT>  (1) 
0

>  <PUBCHEM_ISOTOPIC_ATOM_COUNT>  (1) 
0

>  <PUBCHEM_COMPONENT_COUNT>  (1) 
1

>  <PUBCHEM_CACTVS_TAUTO_COUNT>  (1) 
3

>  <PUBCHEM_CONFORMER_ID>  (1) 
00003F8F00000001

>  <PUBCHEM_MMFF94_ENERGY>  (1) 
38.2417

>  <PUBCHEM_FEATURE_SELFOVERLAP>  (1) 
25.452

>  <PUBCHEM_SHAPE_FINGERPRINT>  (1) 
12423570 1 8261838505827861107
13380535 76 18410005529287632007
14325111 11 18410293657073680164
16945 1 18410575076115446279
193761 8 18410855481809187815
19973954 147 18266180715218156412
21040471 1 18410856585462360355
23552423 10 18335985345490554638
23559900 14 18343313565890847412
241688 4 16899621515859261155
2748010 2 18266178524763665084
5084963 1 18058172897878081514
528886 8 18411132507004152931

>  <PUBCHEM_SHAPE_MULTIPOLES>  (1) 
203.79
3.49
2.14
0.58
0.43
0.27
0
-1
0
-0.59
0
0.03
0.04
0

>  <PUBCHEM_SHAPE_SELFOVERLAP>  (1) 
429.686

>  <PUBCHEM_SHAPE_VOLUME>  (1) 
115.5

>  <PUBCHEM_COORDINATE_TYPE>  (1) 
2
5
10

$$$$
