16283
     RDKit          3D

 16 16  0  0  0  0  0  0  0  0999 V2000
    3.2109    3.9686    0.2383 Br  0  0  0  0  0  0  0  0  0  0  0  0
    3.2955   -3.9224   -0.2325 Br  0  0  0  0  0  0  0  0  0  0  0  0
   -4.3157    0.8477   -0.8340 O   0  0  0  0  0  0  0  0  0  0  0  0
   -4.4806   -0.7810    0.7430 O   0  0  0  0  0  0  0  0  0  0  0  0
    1.8759    0.0091   -0.0093 N   0  0  0  0  0  0  0  0  0  0  0  0
    2.5939    1.2292   -0.3194 C   0  0  0  0  0  0  0  0  0  0  0  0
    2.6254   -1.1913    0.3038 C   0  0  0  0  0  0  0  0  0  0  0  0
    0.4655   -0.0068    0.0010 C   0  0  0  0  0  0  0  0  0  0  0  0
   -0.2162   -0.8816    0.8469 C   0  0  0  0  0  0  0  0  0  0  0  0
   -0.2477    0.8535   -0.8339 C   0  0  0  0  0  0  0  0  0  0  0  0
    2.2535    2.3262    0.6709 C   0  0  0  0  0  0  0  0  0  0  0  0
    2.2955   -2.3068   -0.6691 C   0  0  0  0  0  0  0  0  0  0  0  0
   -1.6109   -0.8962    0.8579 C   0  0  0  0  0  0  0  0  0  0  0  0
   -1.6424    0.8389   -0.8228 C   0  0  0  0  0  0  0  0  0  0  0  0
   -2.3241   -0.0360    0.0231 C   0  0  0  0  0  0  0  0  0  0  0  0
   -3.7784   -0.0509    0.0360 C   0  0  0  0  0  0  0  0  0  0  0  0
  1 11  1  0
  2 12  1  0
  3 16  1  0
  4 16  2  0
  5  6  1  0
  5  7  1  0
  5  8  1  0
  6 11  1  0
  7 12  1  0
  8  9  2  0
  8 10  1  0
  9 13  1  0
 10 14  2  0
 13 15  2  0
 14 15  1  0
 15 16  1  0
M  END
>  <PUBCHEM_COMPOUND_CID>  (1) 
16283

>  <PUBCHEM_CONFORMER_RMSD>  (1) 
0.8

>  <PUBCHEM_CONFORMER_DIVERSEORDER>  (1) 
1
10
8
17
12
18
5
14
15
16
3
9
6
11
4
19
2
7
13

>  <PUBCHEM_MMFF94_PARTIAL_CHARGES>  (1) 
21
1 -0.23
10 -0.15
11 0.23
12 0.23
13 -0.15
14 -0.15
15 0.09
16 0.63
2 -0.23
21 0.15
22 0.15
27 0.15
28 0.15
29 0.5
3 -0.65
4 -0.57
5 -0.84
6 0.37
7 0.37
8 0.1
9 -0.15

>  <PUBCHEM_EFFECTIVE_ROTOR_COUNT>  (1) 
6

>  <PUBCHEM_PHARMACOPHORE_FEATURES>  (1) 
7
1 1 hydrophobe
1 2 hydrophobe
1 3 acceptor
1 4 acceptor
1 5 cation
3 3 4 16 anion
6 8 9 10 13 14 15 rings

>  <PUBCHEM_HEAVY_ATOM_COUNT>  (1) 
16

>  <PUBCHEM_ATOM_DEF_STEREO_COUNT>  (1) 
0

>  <PUBCHEM_ATOM_UDEF_STEREO_COUNT>  (1) 
0

>  <PUBCHEM_BOND_DEF_STEREO_COUNT>  (1) 
0

>  <PUBCHEM_BOND_UDEF_STEREO_COUNT>  (1) 
0

>  <PUBCHEM_ISOTOPIC_ATOM_COUNT>  (1) 
0

>  <PUBCHEM_COMPONENT_COUNT>  (1) 
1

>  <PUBCHEM_CACTVS_TAUTO_COUNT>  (1) 
1

>  <PUBCHEM_CONFORMER_ID>  (1) 
00003F9B00000001

>  <PUBCHEM_MMFF94_ENERGY>  (1) 
53.4305

>  <PUBCHEM_FEATURE_SELFOVERLAP>  (1) 
35.578

>  <PUBCHEM_SHAPE_FINGERPRINT>  (1) 
10608611 8 18333726931696408309
12032990 46 18187374177518344699
13134695 92 18267859493654340350
13296908 3 17967253096425194167
13955234 65 18412268358450681394
14178000 15 18270116791121220104
14289901 80 18201154442679924707
14866123 147 16682317310426503882
15219456 202 18334292097646953097
16945 1 18413389834451284482
17539 30 17404299604019584254
1813 80 17701830882100975078
18186145 218 17822290137644866703
18785283 64 18335980973846902088
19026448 5 17846780711313438507
204376 136 18123751125876189560
20645477 70 18336820918867817975
20671657 53 18198065772493833226
20832881 197 18046913679898393523
21029758 11 18193276291416836714
21296965 67 18124593077100285818
21524375 3 17974840985103761824
21618674 25 18265049326406666609
2255824 54 18344149202542463790
22943178 12 18187082858507921751
23526113 38 18188780444205332122
23559900 14 18410006624472423322
23566358 27 18342174509412844486
2748010 2 17967820469999887995
3091708 16 9143940581534546592
31174 14 18409729543210391654
3286 77 18336267821199985239
458136 41 18267873950393029920
495365 180 18270671082146435096
5104073 3 18259705614676695065
621550 34 18263644124987353765
6442390 28 17907583875780048608
7364860 26 18411419514442027146
77188 2 18196092136679749892
9709674 26 18334860515315756187
9981440 41 18123181565957499056

>  <PUBCHEM_SHAPE_MULTIPOLES>  (1) 
324.44
7.34
4.28
0.93
7.53
0.21
0
-0.22
0.02
-9.09
-0.02
0.24
0
1.07

>  <PUBCHEM_SHAPE_SELFOVERLAP>  (1) 
631.585

>  <PUBCHEM_SHAPE_VOLUME>  (1) 
201.7

>  <PUBCHEM_COORDINATE_TYPE>  (1) 
2
5
10

$$$$
