16299
     RDKit          3D

 15 15  0  0  0  0  0  0  0  0999 V2000
   -0.5460   -0.0083   -0.0501 O   0  0  0  0  0  0  0  0  0  0  0  0
    0.5059   -1.9700   -0.6368 O   0  0  0  0  0  0  0  0  0  0  0  0
    2.9683   -2.0180    0.5102 O   0  0  0  0  0  0  0  0  0  0  0  0
   -4.2971   -0.2139    0.0101 C   0  0  0  0  0  0  0  0  0  0  0  0
   -2.8996    0.3869    0.1447 C   0  0  0  0  0  0  0  0  0  0  0  0
   -5.3796    0.8265    0.2958 C   0  0  0  0  0  0  0  0  0  0  0  0
   -1.8161   -0.6319   -0.1792 C   0  0  0  0  0  0  0  0  0  0  0  0
   -6.7729    0.2408    0.1297 C   0  0  0  0  0  0  0  0  0  0  0  0
    1.7965   -0.0283   -0.1379 C   0  0  0  0  0  0  0  0  0  0  0  0
    0.5360   -0.7942   -0.3087 C   0  0  0  0  0  0  0  0  0  0  0  0
    2.9469   -0.6779    0.2624 C   0  0  0  0  0  0  0  0  0  0  0  0
    1.7716    1.3295   -0.3901 C   0  0  0  0  0  0  0  0  0  0  0  0
    4.1206    0.0596    0.4172 C   0  0  0  0  0  0  0  0  0  0  0  0
    2.9453    2.0670   -0.2354 C   0  0  0  0  0  0  0  0  0  0  0  0
    4.1199    1.4321    0.1682 C   0  0  0  0  0  0  0  0  0  0  0  0
  1  7  1  0
  1 10  1  0
  2 10  2  0
  3 11  1  0
  4  5  1  0
  4  6  1  0
  5  7  1  0
  6  8  1  0
  9 10  1  0
  9 11  2  0
  9 12  1  0
 11 13  1  0
 12 14  2  0
 13 15  2  0
 14 15  1  0
M  END
>  <PUBCHEM_COMPOUND_CID>  (1) 
16299

>  <PUBCHEM_CONFORMER_RMSD>  (1) 
0.8

>  <PUBCHEM_CONFORMER_DIVERSEORDER>  (1) 
1
54
81
36
52
43
82
29
39
69
10
13
20
67
71
7
42
59
5
38
30
28
8
61
23
44
25
14
51
63
3
37
66
80
53
22
17
49
15
4
6
73
64
41
65
72
18
27
16
56
68
33
45
21
2
78
47
34
19
55
24
12
58
48
62
50
46
9
35
77
57
11
40
32
74
75
26
76
70
60
79
31

>  <PUBCHEM_MMFF94_PARTIAL_CHARGES>  (1) 
16
1 -0.43
10 0.63
11 0.08
12 -0.15
13 -0.15
14 -0.15
15 -0.15
2 -0.57
27 0.15
28 0.15
29 0.15
3 -0.53
30 0.15
31 0.45
7 0.28
9 0.09

>  <PUBCHEM_EFFECTIVE_ROTOR_COUNT>  (1) 
6

>  <PUBCHEM_PHARMACOPHORE_FEATURES>  (1) 
4
1 2 acceptor
1 3 donor
1 8 hydrophobe
6 9 11 12 13 14 15 rings

>  <PUBCHEM_HEAVY_ATOM_COUNT>  (1) 
15

>  <PUBCHEM_ATOM_DEF_STEREO_COUNT>  (1) 
0

>  <PUBCHEM_ATOM_UDEF_STEREO_COUNT>  (1) 
0

>  <PUBCHEM_BOND_DEF_STEREO_COUNT>  (1) 
0

>  <PUBCHEM_BOND_UDEF_STEREO_COUNT>  (1) 
0

>  <PUBCHEM_ISOTOPIC_ATOM_COUNT>  (1) 
0

>  <PUBCHEM_COMPONENT_COUNT>  (1) 
1

>  <PUBCHEM_CACTVS_TAUTO_COUNT>  (1) 
4

>  <PUBCHEM_CONFORMER_ID>  (1) 
00003FAB00000001

>  <PUBCHEM_MMFF94_ENERGY>  (1) 
28.9277

>  <PUBCHEM_FEATURE_SELFOVERLAP>  (1) 
20.297

>  <PUBCHEM_SHAPE_FINGERPRINT>  (1) 
10354089 29 18408605867943659904
10688039 33 17821727209098620077
11287383 113 18335423487223470843
12236239 1 17989485230023167175
12251169 10 18334856125568568022
12346645 6 18412826880720003686
13167372 99 18270122301981388785
13533116 47 17604143719243006547
14251732 16 18337111276411623827
15188451 53 15936979673269501905
15475509 35 16371270144543779712
17834072 33 18271804644976189855
20157964 124 18410572864972186447
20645477 70 18410856521133225303
212847 35 18201999936608760817
23402539 116 17846211189564416357
23402655 69 18272367619850154060
23557571 272 16805883992605983207
351380 180 18261110764571944417
3545911 37 18408605872465376525
4047638 21 18410577292276282051
42630746 31 18342740701918627559
42788 4 18411419506020995105
449060 62 18410576210160996228
5104073 3 18262512718563160211
522135 26 18335422352724343982
5283268 108 17385443210999087221
5374978 207 18260264140259886801
8272917 22 18411984632942963678
9999458 23 18186803595545006814

>  <PUBCHEM_SHAPE_MULTIPOLES>  (1) 
291.09
12.59
1.74
0.68
22.89
0.12
0
-3.7
1.81
-2.09
-0.1
-0.1
0.03
-0.38

>  <PUBCHEM_SHAPE_SELFOVERLAP>  (1) 
589.274

>  <PUBCHEM_SHAPE_VOLUME>  (1) 
170.1

>  <PUBCHEM_COORDINATE_TYPE>  (1) 
2
5
10

$$$$
