16296
     RDKit          3D

 14 14  0  0  0  0  0  0  0  0999 V2000
   -0.3432   -0.1319   -0.0065 O   0  0  0  0  0  0  0  0  0  0  0  0
    0.6333   -2.1792   -0.3989 O   0  0  0  0  0  0  0  0  0  0  0  0
   -4.1000   -0.1822    0.0236 C   0  0  0  0  0  0  0  0  0  0  0  0
   -2.6805    0.3725    0.1211 C   0  0  0  0  0  0  0  0  0  0  0  0
   -5.1419    0.9222    0.1995 C   0  0  0  0  0  0  0  0  0  0  0  0
   -1.6364   -0.7137   -0.0949 C   0  0  0  0  0  0  0  0  0  0  0  0
   -6.5562    0.3796    0.0693 C   0  0  0  0  0  0  0  0  0  0  0  0
    0.7082   -0.9804   -0.1786 C   0  0  0  0  0  0  0  0  0  0  0  0
    1.9972   -0.2528   -0.0617 C   0  0  0  0  0  0  0  0  0  0  0  0
    3.1041   -0.9264    0.4129 C   0  0  0  0  0  0  0  0  0  0  0  0
    2.0485    1.0752   -0.4331 C   0  0  0  0  0  0  0  0  0  0  0  0
    4.3149   -0.2425    0.5207 C   0  0  0  0  0  0  0  0  0  0  0  0
    3.2593    1.7592   -0.3253 C   0  0  0  0  0  0  0  0  0  0  0  0
    4.3926    1.1004    0.1516 C   0  0  0  0  0  0  0  0  0  0  0  0
  1  6  1  0
  1  8  1  0
  2  8  2  0
  3  4  1  0
  3  5  1  0
  4  6  1  0
  5  7  1  0
  8  9  1  0
  9 10  2  0
  9 11  1  0
 10 12  1  0
 11 13  2  0
 12 14  2  0
 13 14  1  0
M  END
>  <PUBCHEM_COMPOUND_CID>  (1) 
16296

>  <PUBCHEM_CONFORMER_RMSD>  (1) 
0.6

>  <PUBCHEM_CONFORMER_DIVERSEORDER>  (1) 
1
101
59
157
132
102
183
141
115
13
168
51
179
89
47
127
155
175
126
160
152
87
138
202
64
75
34
15
81
10
65
31
181
206
58
73
35
107
100
204
88
135
123
169
113
114
194
19
176
131
164
8
45
91
43
3
145
170
184
52
188
122
118
92
2
129
105
203
86
159
11
146
55
154
90
41
108
171
23
197
85
66
98
44
158
185
54
139
37
79
167
205
29
130
99
17
6
178
27
50
111
195
180
83
162
109
40
163
77
110
174
94
166
120
134
70
125
104
62
60
199
191
24
74
201
187
14
33
42
165
46
142
49
177
192
106
190
78
63
69
82
84
193
182
5
172
150
38
153
148
76
196
133
9
124
189
30
26
20
136
144
198
151
128
25
186
147
200
121
93
140
103
68
116
67
36
143
4
117
161
71
32
48
80
96
16
173
149
39
137
18
156
112
72
56
97
95
119
7
57
28
53
61
12
21
22

>  <PUBCHEM_MMFF94_PARTIAL_CHARGES>  (1) 
15
1 -0.43
10 -0.15
11 -0.15
12 -0.15
13 -0.15
14 -0.15
2 -0.57
26 0.15
27 0.15
28 0.15
29 0.15
30 0.15
6 0.28
8 0.63
9 0.09

>  <PUBCHEM_EFFECTIVE_ROTOR_COUNT>  (1) 
6

>  <PUBCHEM_PHARMACOPHORE_FEATURES>  (1) 
3
1 2 acceptor
1 7 hydrophobe
6 9 10 11 12 13 14 rings

>  <PUBCHEM_HEAVY_ATOM_COUNT>  (1) 
14

>  <PUBCHEM_ATOM_DEF_STEREO_COUNT>  (1) 
0

>  <PUBCHEM_ATOM_UDEF_STEREO_COUNT>  (1) 
0

>  <PUBCHEM_BOND_DEF_STEREO_COUNT>  (1) 
0

>  <PUBCHEM_BOND_UDEF_STEREO_COUNT>  (1) 
0

>  <PUBCHEM_ISOTOPIC_ATOM_COUNT>  (1) 
0

>  <PUBCHEM_COMPONENT_COUNT>  (1) 
1

>  <PUBCHEM_CACTVS_TAUTO_COUNT>  (1) 
1

>  <PUBCHEM_CONFORMER_ID>  (1) 
00003FA800000001

>  <PUBCHEM_MMFF94_ENERGY>  (1) 
24.5686

>  <PUBCHEM_FEATURE_SELFOVERLAP>  (1) 
15.223

>  <PUBCHEM_SHAPE_FINGERPRINT>  (1) 
10354089 29 18260548926577131392
10688039 33 17530680983509860117
11287383 113 18334298682454167443
114248 4 13758073000280068057
13167372 99 18340771421465880057
13533116 47 17168418256118512411
14251718 22 12823290204783190201
14251732 16 18334860576067329427
14252887 29 12468632803347877608
15188451 53 15502947449546542961
17834072 33 18272647974642136631
17834072 8 18201728340578823686
17834076 25 17988923366891669921
20645477 70 18339643334750718583
212847 35 18342737429412075840
23402539 116 18060129968419535605
23402655 69 18272650181458839342
23532345 1 18410580556947533235
3060560 45 15339117940190019716
351380 180 18186801379093988017
351380 3 11097855203106596945
3545911 37 18410295813015147119
4047638 21 18408044008975189842
42630746 31 18343303634702891630
42788 4 18410011027230587497
449060 50 18410576167712340407
5104073 3 18261387909599038338
8272917 22 18411420570630033358
94968 8 9295290534451205172
9999458 23 18040155115456882558

>  <PUBCHEM_SHAPE_MULTIPOLES>  (1) 
276.37
12.76
1.53
0.68
19.38
0.13
0.01
-4.45
1.5
-1.26
-0.18
-0.16
0
-0.33

>  <PUBCHEM_SHAPE_SELFOVERLAP>  (1) 
554.373

>  <PUBCHEM_SHAPE_VOLUME>  (1) 
162.9

>  <PUBCHEM_COORDINATE_TYPE>  (1) 
2
5
10

$$$$
