16293
     RDKit          3D

 14 13  0  0  0  0  0  0  0  0999 V2000
    2.4021    0.1873   -0.2733 O   0  0  0  0  0  0  0  0  0  0  0  0
   -2.3817    0.1527   -0.3234 O   0  0  0  0  0  0  0  0  0  0  0  0
    1.3148   -1.5737    0.7230 O   0  0  0  0  0  0  0  0  0  0  0  0
   -1.2901   -1.6187    0.6505 O   0  0  0  0  0  0  0  0  0  0  0  0
    0.0097    0.2197   -0.3211 C   0  0  0  0  0  0  0  0  0  0  0  0
   -0.0737    1.6439    0.2864 C   0  0  0  0  0  0  0  0  0  0  0  0
    0.0920    0.3109   -1.8585 C   0  0  0  0  0  0  0  0  0  0  0  0
    1.2925   -0.5030    0.1279 C   0  0  0  0  0  0  0  0  0  0  0  0
   -1.2703   -0.5473    0.0567 C   0  0  0  0  0  0  0  0  0  0  0  0
   -0.1366    1.6684    1.8110 C   0  0  0  0  0  0  0  0  0  0  0  0
    3.6597   -0.4179    0.0439 C   0  0  0  0  0  0  0  0  0  0  0  0
   -3.6381   -0.4432    0.0158 C   0  0  0  0  0  0  0  0  0  0  0  0
    4.7760    0.4683   -0.4662 C   0  0  0  0  0  0  0  0  0  0  0  0
   -4.7564    0.4524   -0.4726 C   0  0  0  0  0  0  0  0  0  0  0  0
  1  8  1  0
  1 11  1  0
  2  9  1  0
  2 12  1  0
  3  8  2  0
  4  9  2  0
  5  6  1  0
  5  7  1  0
  5  8  1  0
  5  9  1  0
  6 10  1  0
 11 13  1  0
 12 14  1  0
M  END
>  <PUBCHEM_COMPOUND_CID>  (1) 
16293

>  <PUBCHEM_CONFORMER_RMSD>  (1) 
0.8

>  <PUBCHEM_CONFORMER_DIVERSEORDER>  (1) 
1
50
20
27
81
35
84
42
25
97
91
68
93
3
70
75
33
43
22
104
82
24
71
80
4
99
63
9
95
8
103
67
46
102
79
5
61
74
47
106
56
44
72
18
16
90
77
21
15
40
98
55
11
64
10
19
107
85
111
88
26
52
89
92
23
13
36
73
14
39
58
94
37
108
2
12
86
48
54
96
32
78
34
110
53
83
7
57
30
100
28
109
105
101
38
45
62
87
17
60
51
69
76
49
66
59
65
6
31
41
29

>  <PUBCHEM_MMFF94_PARTIAL_CHARGES>  (1) 
9
1 -0.43
11 0.28
12 0.28
2 -0.43
3 -0.57
4 -0.57
5 0.12
8 0.66
9 0.66

>  <PUBCHEM_EFFECTIVE_ROTOR_COUNT>  (1) 
7

>  <PUBCHEM_PHARMACOPHORE_FEATURES>  (1) 
4
1 10 hydrophobe
1 3 acceptor
1 4 acceptor
1 7 hydrophobe

>  <PUBCHEM_HEAVY_ATOM_COUNT>  (1) 
14

>  <PUBCHEM_ATOM_DEF_STEREO_COUNT>  (1) 
0

>  <PUBCHEM_ATOM_UDEF_STEREO_COUNT>  (1) 
0

>  <PUBCHEM_BOND_DEF_STEREO_COUNT>  (1) 
0

>  <PUBCHEM_BOND_UDEF_STEREO_COUNT>  (1) 
0

>  <PUBCHEM_ISOTOPIC_ATOM_COUNT>  (1) 
0

>  <PUBCHEM_COMPONENT_COUNT>  (1) 
1

>  <PUBCHEM_CACTVS_TAUTO_COUNT>  (1) 
1

>  <PUBCHEM_CONFORMER_ID>  (1) 
00003FA500000001

>  <PUBCHEM_MMFF94_ENERGY>  (1) 
18.8539

>  <PUBCHEM_FEATURE_SELFOVERLAP>  (1) 
20.308

>  <PUBCHEM_SHAPE_FINGERPRINT>  (1) 
10219947 1 17060339634551859213
11062470 55 18114181934229047263
124424 183 18272089418123793341
13024252 1 13551194389918880028
14115302 16 18261401077979251822
14943859 89 15213300837271091321
15048467 5 18187364328662443597
16945 1 18260820510038307539
18511873 20 18411418440378469391
187816 3 18413954983428000370
21501502 16 17201094573259181438
22344851 262 17458630042064504038
228727 97 18343023259722722128
23402539 116 17489867120618439701
23402655 69 18335409129137199101
23559900 14 18410856590585489712
3250762 1 17692808602746305731
528886 8 17530679939483984171
53655031 270 18412546479073517424
57426455 19 18410298020923788554
68250623 7 17485098396654310438
68521 5 18131355167768261585

>  <PUBCHEM_SHAPE_MULTIPOLES>  (1) 
264.64
7.28
1.43
1.21
0.23
0.64
-0.2
-0.37
-1.48
-0.08
0.65
0.02
0.07
-0.04

>  <PUBCHEM_SHAPE_SELFOVERLAP>  (1) 
505.504

>  <PUBCHEM_SHAPE_VOLUME>  (1) 
163.2

>  <PUBCHEM_COORDINATE_TYPE>  (1) 
2
5
10

$$$$
