16294
     RDKit          3D

 11 11  0  0  0  0  0  0  0  0999 V2000
    3.1053   -0.2795    0.1045 C   0  0  0  0  0  0  0  0  0  0  0  0
    1.6168   -0.3339   -0.2945 C   0  0  0  0  0  0  0  0  0  0  0  0
    0.6245    0.0447    0.8138 C   0  0  0  0  0  0  0  0  0  0  0  0
    3.4596    1.1322    0.5815 C   0  0  0  0  0  0  0  0  0  0  0  0
    4.0314   -0.6796   -1.0450 C   0  0  0  0  0  0  0  0  0  0  0  0
   -0.8184    0.0314    0.3753 C   0  0  0  0  0  0  0  0  0  0  0  0
   -1.3831    1.1872   -0.1427 C   0  0  0  0  0  0  0  0  0  0  0  0
   -1.5562   -1.1363    0.4968 C   0  0  0  0  0  0  0  0  0  0  0  0
   -2.7176    1.1750   -0.5485 C   0  0  0  0  0  0  0  0  0  0  0  0
   -2.8908   -1.1484    0.0908 C   0  0  0  0  0  0  0  0  0  0  0  0
   -3.4714    0.0072   -0.4319 C   0  0  0  0  0  0  0  0  0  0  0  0
  1  2  1  0
  1  4  1  0
  1  5  1  0
  2  3  1  0
  3  6  1  0
  6  7  2  0
  6  8  1  0
  7  9  1  0
  8 10  2  0
  9 11  2  0
 10 11  1  0
M  END
>  <PUBCHEM_COMPOUND_CID>  (1) 
16294

>  <PUBCHEM_CONFORMER_RMSD>  (1) 
0.6

>  <PUBCHEM_CONFORMER_DIVERSEORDER>  (1) 
1
2
3

>  <PUBCHEM_MMFF94_PARTIAL_CHARGES>  (1) 
12
10 -0.15
11 -0.15
23 0.15
24 0.15
25 0.15
26 0.15
27 0.15
3 0.14
6 -0.14
7 -0.15
8 -0.15
9 -0.15

>  <PUBCHEM_EFFECTIVE_ROTOR_COUNT>  (1) 
3

>  <PUBCHEM_PHARMACOPHORE_FEATURES>  (1) 
2
3 1 4 5 hydrophobe
6 6 7 8 9 10 11 rings

>  <PUBCHEM_HEAVY_ATOM_COUNT>  (1) 
11

>  <PUBCHEM_ATOM_DEF_STEREO_COUNT>  (1) 
0

>  <PUBCHEM_ATOM_UDEF_STEREO_COUNT>  (1) 
0

>  <PUBCHEM_BOND_DEF_STEREO_COUNT>  (1) 
0

>  <PUBCHEM_BOND_UDEF_STEREO_COUNT>  (1) 
0

>  <PUBCHEM_ISOTOPIC_ATOM_COUNT>  (1) 
0

>  <PUBCHEM_COMPONENT_COUNT>  (1) 
1

>  <PUBCHEM_CACTVS_TAUTO_COUNT>  (1) 
1

>  <PUBCHEM_CONFORMER_ID>  (1) 
00003FA600000001

>  <PUBCHEM_MMFF94_ENERGY>  (1) 
21.4598

>  <PUBCHEM_FEATURE_SELFOVERLAP>  (1) 
10.148

>  <PUBCHEM_SHAPE_FINGERPRINT>  (1) 
10608611 8 18411694396327921152
12897270 3 18410573976688182122
12932764 1 18333453118914570930
13024252 1 17095244722524549899
13296908 3 18272933829963308114
14144814 61 17967246486053761984
14325111 11 18408882932178686288
15219456 202 18272086127841364552
15775835 57 17385723551998370773
18186145 218 18412265012845087904
190213 19 12823297900931976976
19422 9 14117804626102069756
1986462 14 18408043996069208518
200 152 17060335201924102574
20201158 50 18202284680081963782
20279233 1 18343581850242263250
20361792 2 15554440790967141840
20645477 56 18334294228156694221
20645477 70 17775568611457606830
20671657 53 17917160390504257494
22485316 2 17060615607464525526
23402539 116 18335126596770377839
23557571 272 18411705408460336452
23559900 14 18411695461996353034
3248919 1 17704073971520166266
528716 315 18186524314858688715
57812782 119 18342737412384862430
6333449 129 18408881837062297985
93112 12 18410294705277575214

>  <PUBCHEM_SHAPE_MULTIPOLES>  (1) 
226.37
7.31
1.28
0.9
4.39
0.13
-0.05
-0.21
-1.53
-0.44
0
0.38
-0.02
0.76

>  <PUBCHEM_SHAPE_SELFOVERLAP>  (1) 
449.542

>  <PUBCHEM_SHAPE_VOLUME>  (1) 
131.8

>  <PUBCHEM_COORDINATE_TYPE>  (1) 
2
5
10

$$$$
