16298
     RDKit          3D

 12 12  0  0  0  0  0  0  0  0999 V2000
    0.2179    0.7290    0.6538 O   0  0  0  0  0  0  0  0  0  0  0  0
   -3.3141   -0.3831    0.0175 C   0  0  0  0  0  0  0  0  0  0  0  0
   -2.1334    0.5611    0.2333 C   0  0  0  0  0  0  0  0  0  0  0  0
   -4.6006    0.3914   -0.2674 C   0  0  0  0  0  0  0  0  0  0  0  0
   -0.8396   -0.2030    0.4761 C   0  0  0  0  0  0  0  0  0  0  0  0
   -5.7716   -0.5459   -0.5163 C   0  0  0  0  0  0  0  0  0  0  0  0
    1.4717    0.3209    0.2791 C   0  0  0  0  0  0  0  0  0  0  0  0
    1.8083   -1.0255    0.3557 C   0  0  0  0  0  0  0  0  0  0  0  0
    2.3931    1.2583   -0.1732 C   0  0  0  0  0  0  0  0  0  0  0  0
    3.0844   -1.4405   -0.0250 C   0  0  0  0  0  0  0  0  0  0  0  0
    3.6692    0.8433   -0.5539 C   0  0  0  0  0  0  0  0  0  0  0  0
    4.0148   -0.5062   -0.4798 C   0  0  0  0  0  0  0  0  0  0  0  0
  1  5  1  0
  1  7  1  0
  2  3  1  0
  2  4  1  0
  3  5  1  0
  4  6  1  0
  7  8  2  0
  7  9  1  0
  8 10  1  0
  9 11  2  0
 10 12  2  0
 11 12  1  0
M  END
>  <PUBCHEM_COMPOUND_CID>  (1) 
16298

>  <PUBCHEM_CONFORMER_RMSD>  (1) 
0.6

>  <PUBCHEM_CONFORMER_DIVERSEORDER>  (1) 
1
56
39
57
53
41
23
3
35
14
26
32
58
37
13
48
2
27
49
54
61
24
15
31
21
51
44
16
25
4
34
47
7
43
6
20
59
17
46
18
55
60
19
29
11
33
62
50
5
52
42
12
22
10
9
8
40
30
28
38
45
36

>  <PUBCHEM_MMFF94_PARTIAL_CHARGES>  (1) 
13
1 -0.36
10 -0.15
11 -0.15
12 -0.15
24 0.15
25 0.15
26 0.15
27 0.15
28 0.15
5 0.28
7 0.08
8 -0.15
9 -0.15

>  <PUBCHEM_EFFECTIVE_ROTOR_COUNT>  (1) 
5

>  <PUBCHEM_PHARMACOPHORE_FEATURES>  (1) 
3
1 1 acceptor
1 6 hydrophobe
6 7 8 9 10 11 12 rings

>  <PUBCHEM_HEAVY_ATOM_COUNT>  (1) 
12

>  <PUBCHEM_ATOM_DEF_STEREO_COUNT>  (1) 
0

>  <PUBCHEM_ATOM_UDEF_STEREO_COUNT>  (1) 
0

>  <PUBCHEM_BOND_DEF_STEREO_COUNT>  (1) 
0

>  <PUBCHEM_BOND_UDEF_STEREO_COUNT>  (1) 
0

>  <PUBCHEM_ISOTOPIC_ATOM_COUNT>  (1) 
0

>  <PUBCHEM_COMPONENT_COUNT>  (1) 
1

>  <PUBCHEM_CACTVS_TAUTO_COUNT>  (1) 
1

>  <PUBCHEM_CONFORMER_ID>  (1) 
00003FAA00000001

>  <PUBCHEM_MMFF94_ENERGY>  (1) 
24.9422

>  <PUBCHEM_FEATURE_SELFOVERLAP>  (1) 
15.223

>  <PUBCHEM_SHAPE_FINGERPRINT>  (1) 
10354089 29 8862940584861613782
11287383 113 17749394801598459643
114248 4 18186802491558861967
11471102 20 18335141994618536824
12251169 10 9727631700357968161
13675066 3 12607405499058284825
14251717 144 18410294687966129450
14251718 22 18187645842926654479
14252887 29 12823303398453283708
14576447 43 18342178839040279446
15242433 33 18341612637817681623
15477762 27 18412266099709196974
17834072 33 18413106195338610023
17834076 25 14490189410615147845
18186145 218 17749105582627006633
200 152 18201719544227344833
20279233 1 17530972383880892299
20369508 70 17989480840192323824
20645477 70 18409449146133737839
20767249 442 14996283625837230297
21119208 17 18409167714327681101
212847 35 12035448341475517006
22485316 2 18130784581562778629
23402539 116 18131631149966811141
23402655 69 18408324384376930277
23590187 302 18412544314346930512
29717793 49 17989210313113572477
3060560 45 18187085057415425206
4047638 21 17022904562219043856
42 15 11600008751864835045
465052 167 17703792565569037183
4990 188 18187083940560222531
522135 26 18410573980861771591
5374978 207 9583522014351619751
77779 3 18408886231045969861

>  <PUBCHEM_SHAPE_MULTIPOLES>  (1) 
241.09
10.94
1.22
0.75
14.35
0.09
-0.01
1.26
-2.94
-1.07
-0.02
-0.02
-0.01
-0.22

>  <PUBCHEM_SHAPE_SELFOVERLAP>  (1) 
476.211

>  <PUBCHEM_SHAPE_VOLUME>  (1) 
144.8

>  <PUBCHEM_COORDINATE_TYPE>  (1) 
2
5
10

$$$$
