16304
     RDKit          3D

 12 12  0  0  0  0  0  0  0  0999 V2000
    2.3111   -1.6943   -0.0022 O   0  0  0  0  0  0  0  0  0  0  0  0
    1.5043    0.5205    0.0004 N   0  0  0  0  0  0  0  0  0  0  0  0
    0.1156    0.3663    0.0000 C   0  0  0  0  0  0  0  0  0  0  0  0
   -0.7273    1.4777   -0.0001 C   0  0  0  0  0  0  0  0  0  0  0  0
   -1.8095   -1.0935    0.0002 C   0  0  0  0  0  0  0  0  0  0  0  0
   -0.4255   -0.9194    0.0001 C   0  0  0  0  0  0  0  0  0  0  0  0
   -2.1113    1.3036    0.0001 C   0  0  0  0  0  0  0  0  0  0  0  0
   -2.6523    0.0180    0.0002 C   0  0  0  0  0  0  0  0  0  0  0  0
   -0.1759    2.8664   -0.0010 C   0  0  0  0  0  0  0  0  0  0  0  0
   -2.3883   -2.4679    0.0002 C   0  0  0  0  0  0  0  0  0  0  0  0
    2.4839   -0.4797    0.0008 C   0  0  0  0  0  0  0  0  0  0  0  0
    3.8751    0.1023    0.0011 C   0  0  0  0  0  0  0  0  0  0  0  0
  1 11  2  0
  2  3  1  0
  2 11  1  0
  3  4  2  0
  3  6  1  0
  4  7  1  0
  4  9  1  0
  5  6  2  0
  5  8  1  0
  5 10  1  0
  7  8  2  0
 11 12  1  0
M  END
>  <PUBCHEM_COMPOUND_CID>  (1) 
16304

>  <PUBCHEM_CONFORMER_RMSD>  (1) 
0.6

>  <PUBCHEM_CONFORMER_DIVERSEORDER>  (1) 
1
2
3

>  <PUBCHEM_MMFF94_PARTIAL_CHARGES>  (1) 
16
1 -0.57
10 0.14
11 0.57
12 0.06
13 0.15
14 0.15
15 0.15
16 0.37
2 -0.55
3 0.12
4 -0.14
5 -0.14
6 -0.15
7 -0.15
8 -0.15
9 0.14

>  <PUBCHEM_EFFECTIVE_ROTOR_COUNT>  (1) 
2

>  <PUBCHEM_PHARMACOPHORE_FEATURES>  (1) 
3
1 1 acceptor
1 2 donor
6 3 4 5 6 7 8 rings

>  <PUBCHEM_HEAVY_ATOM_COUNT>  (1) 
12

>  <PUBCHEM_ATOM_DEF_STEREO_COUNT>  (1) 
0

>  <PUBCHEM_ATOM_UDEF_STEREO_COUNT>  (1) 
0

>  <PUBCHEM_BOND_DEF_STEREO_COUNT>  (1) 
0

>  <PUBCHEM_BOND_UDEF_STEREO_COUNT>  (1) 
0

>  <PUBCHEM_ISOTOPIC_ATOM_COUNT>  (1) 
0

>  <PUBCHEM_COMPONENT_COUNT>  (1) 
1

>  <PUBCHEM_CACTVS_TAUTO_COUNT>  (1) 
2

>  <PUBCHEM_CONFORMER_ID>  (1) 
00003FB000000001

>  <PUBCHEM_MMFF94_ENERGY>  (1) 
34.6602

>  <PUBCHEM_FEATURE_SELFOVERLAP>  (1) 
15.223

>  <PUBCHEM_SHAPE_FINGERPRINT>  (1) 
13024252 1 16226054370644583561
14128692 85 18264492951963506485
14325111 11 18266741277296400644
16945 1 18338517434806478341
193761 8 18194402431894484965
20510252 161 18127410055586219265
20645477 70 17543898466533478959
20711985 365 18193274083650334462
20871998 184 18201440289495791663
21501502 16 18194409024605876909
22213442 358 18267303312337210004
23402539 116 18271795788452984381
23552423 10 18119531191690109477
23557571 272 18272380762898531180
23559900 14 18341607067724971146
2748010 2 18268140027722080325
3312278 4 18408887347415804426
369184 2 18341329985555565144
5493415 88 18266737080902167641
6333449 129 18412540977194141248
7364860 26 17908705373155781569
75552 356 18411139129928112830
81228 2 18410857616281138769

>  <PUBCHEM_SHAPE_MULTIPOLES>  (1) 
236.1
4.78
2.59
0.6
4.03
0.73
0
-1.94
0
-1.26
0
-0.03
0.01
0

>  <PUBCHEM_SHAPE_SELFOVERLAP>  (1) 
484.206

>  <PUBCHEM_SHAPE_VOLUME>  (1) 
137.4

>  <PUBCHEM_COORDINATE_TYPE>  (1) 
2
5
10

$$$$
