16307
     RDKit          3D

 14 15  0  0  0  0  0  0  0  0999 V2000
   -3.7125    2.2323    0.4916 Cl  0  0  0  0  0  0  0  0  0  0  0  0
    3.7125    2.2324   -0.4916 Cl  0  0  0  0  0  0  0  0  0  0  0  0
   -0.7222   -0.3713   -0.0414 C   0  0  0  0  0  0  0  0  0  0  0  0
    0.7223   -0.3713    0.0414 C   0  0  0  0  0  0  0  0  0  0  0  0
   -1.4369    0.7950    0.2324 C   0  0  0  0  0  0  0  0  0  0  0  0
    1.4369    0.7949   -0.2324 C   0  0  0  0  0  0  0  0  0  0  0  0
   -1.4004   -1.5383   -0.3935 C   0  0  0  0  0  0  0  0  0  0  0  0
    1.4004   -1.5384    0.3935 C   0  0  0  0  0  0  0  0  0  0  0  0
   -2.8295    0.7942    0.1539 C   0  0  0  0  0  0  0  0  0  0  0  0
    2.8295    0.7942   -0.1539 C   0  0  0  0  0  0  0  0  0  0  0  0
   -2.7930   -1.5391   -0.4719 C   0  0  0  0  0  0  0  0  0  0  0  0
    2.7929   -1.5391    0.4719 C   0  0  0  0  0  0  0  0  0  0  0  0
   -3.5075   -0.3728   -0.1983 C   0  0  0  0  0  0  0  0  0  0  0  0
    3.5075   -0.3728    0.1982 C   0  0  0  0  0  0  0  0  0  0  0  0
  1  9  1  0
  2 10  1  0
  3  4  1  0
  3  5  2  0
  3  7  1  0
  4  6  2  0
  4  8  1  0
  5  9  1  0
  6 10  1  0
  7 11  2  0
  8 12  2  0
  9 13  2  0
 10 14  2  0
 11 13  1  0
 12 14  1  0
M  END
>  <PUBCHEM_COMPOUND_CID>  (1) 
16307

>  <PUBCHEM_CONFORMER_RMSD>  (1) 
0.4

>  <PUBCHEM_CONFORMER_DIVERSEORDER>  (1) 
1
4
3
2

>  <PUBCHEM_MMFF94_PARTIAL_CHARGES>  (1) 
20
1 -0.18
10 0.18
11 -0.15
12 -0.15
13 -0.15
14 -0.15
15 0.15
16 0.15
17 0.15
18 0.15
19 0.15
2 -0.18
20 0.15
21 0.15
22 0.15
5 -0.15
6 -0.15
7 -0.15
8 -0.15
9 0.18

>  <PUBCHEM_EFFECTIVE_ROTOR_COUNT>  (1) 
1

>  <PUBCHEM_PHARMACOPHORE_FEATURES>  (1) 
2
6 3 5 7 9 11 13 rings
6 4 6 8 10 12 14 rings

>  <PUBCHEM_HEAVY_ATOM_COUNT>  (1) 
14

>  <PUBCHEM_ATOM_DEF_STEREO_COUNT>  (1) 
0

>  <PUBCHEM_ATOM_UDEF_STEREO_COUNT>  (1) 
0

>  <PUBCHEM_BOND_DEF_STEREO_COUNT>  (1) 
0

>  <PUBCHEM_BOND_UDEF_STEREO_COUNT>  (1) 
0

>  <PUBCHEM_ISOTOPIC_ATOM_COUNT>  (1) 
0

>  <PUBCHEM_COMPONENT_COUNT>  (1) 
1

>  <PUBCHEM_CACTVS_TAUTO_COUNT>  (1) 
1

>  <PUBCHEM_CONFORMER_ID>  (1) 
00003FB300000001

>  <PUBCHEM_MMFF94_ENERGY>  (1) 
41.6743

>  <PUBCHEM_FEATURE_SELFOVERLAP>  (1) 
10.149

>  <PUBCHEM_SHAPE_FINGERPRINT>  (1) 
10465860 228 18335706022677496584
10608611 8 18410853261105172576
10980938 120 18335138691788764136
12162725 195 18410853265399990467
12173636 292 18271800237806942463
12251169 10 18337670802273673347
12346645 44 18336827610310417652
12491281 212 18408891741003675163
14144814 61 18410290302619741603
14325111 11 18410573989446424933
14415576 193 18411140242641127742
14897335 6 18410570690922097636
15442244 35 18266175041761504818
15536298 74 18413107277733632990
15669948 3 18130782416794104559
15775835 57 18410580586516412449
16945 1 18193556675044352414
1741750 31 18202004283421593465
17834072 32 18267868272768615533
18186145 218 18261109647458363406
19050596 39 18408602565176983066
19422 9 18410572889935108967
201361 129 18335422357172305178
20279233 1 15647046092538033307
20510252 161 18202288013398371019
20645477 70 18408878533942901431
21267235 1 18410863161004984739
21501502 16 18410852165893598479
2255824 54 18187363212604111626
22854114 111 18333452049510022360
23402539 116 17917136196368209029
23402655 69 18410855447443921596
23463225 33 18410290276934431246
23559900 14 17988078877595401590
25610 137 18264490774626285275
3312278 4 18265051525567084955
474 4 17895197774198515508
4990 188 18201734972171930588
5104073 3 18408603656040641712
57096353 35 18267861868423192958
58051976 100 18336829697611841103
603831 33 18198329844036175175
7364860 26 18413108351528431894
7832392 63 18411418375938362924
84936 182 18341330110674600272
9709674 26 18411984662913152942
9981440 41 17903350752040410976

>  <PUBCHEM_SHAPE_MULTIPOLES>  (1) 
291.85
7.35
2.27
0.73
0
0.71
0
2.9
0
0
0
0
0.01
-1.15

>  <PUBCHEM_SHAPE_SELFOVERLAP>  (1) 
615.714

>  <PUBCHEM_SHAPE_VOLUME>  (1) 
158.8

>  <PUBCHEM_COORDINATE_TYPE>  (1) 
2
5
10

$$$$
