16301
     RDKit          3D

 16 15  0  0  0  0  0  0  0  0999 V2000
   -5.5019    0.4534    0.0129 O   0  0  0  0  0  0  0  0  0  0  0  0
    5.5072   -0.4477   -0.0108 O   0  0  0  0  0  0  0  0  0  0  0  0
   -4.4630   -1.6057    0.0751 O   0  0  0  0  0  0  0  0  0  0  0  0
    4.4688    1.6102    0.0746 O   0  0  0  0  0  0  0  0  0  0  0  0
   -0.6354    0.4279   -0.0706 C   0  0  0  0  0  0  0  0  0  0  0  0
    0.6208   -0.4442   -0.1198 C   0  0  0  0  0  0  0  0  0  0  0  0
   -1.9043   -0.4254   -0.0504 C   0  0  0  0  0  0  0  0  0  0  0  0
    1.8914    0.4111   -0.0946 C   0  0  0  0  0  0  0  0  0  0  0  0
   -3.1597    0.4449   -0.0353 C   0  0  0  0  0  0  0  0  0  0  0  0
    3.1645   -0.4348   -0.1092 C   0  0  0  0  0  0  0  0  0  0  0  0
   -4.4224   -0.3841    0.0237 C   0  0  0  0  0  0  0  0  0  0  0  0
    4.4286    0.3907   -0.0136 C   0  0  0  0  0  0  0  0  0  0  0  0
   -6.7801   -0.1882    0.0676 C   0  0  0  0  0  0  0  0  0  0  0  0
    6.7830    0.1902    0.1075 C   0  0  0  0  0  0  0  0  0  0  0  0
   -7.8636    0.8689    0.0478 C   0  0  0  0  0  0  0  0  0  0  0  0
    7.8661   -0.8674    0.0951 C   0  0  0  0  0  0  0  0  0  0  0  0
  1 11  1  0
  1 13  1  0
  2 12  1  0
  2 14  1  0
  3 11  2  0
  4 12  2  0
  5  6  1  0
  5  7  1  0
  6  8  1  0
  7  9  1  0
  8 10  1  0
  9 11  1  0
 10 12  1  0
 13 15  1  0
 14 16  1  0
M  END
>  <PUBCHEM_COMPOUND_CID>  (1) 
16301

>  <PUBCHEM_CONFORMER_RMSD>  (1) 
1

>  <PUBCHEM_CONFORMER_DIVERSEORDER>  (1) 
1
34
19
33
52
24
71
44
8
55
16
7
31
27
41
47
25
50
64
26
45
54
48
35
59
32
22
29
61
5
66
9
36
14
53
38
18
65
28
37
11
17
49
63
62
58
68
30
40
67
57
20
42
21
43
13
6
46
69
39
4
56
10
70
60
15
51
2
3
12
23

>  <PUBCHEM_MMFF94_PARTIAL_CHARGES>  (1) 
10
1 -0.43
10 0.06
11 0.66
12 0.66
13 0.28
14 0.28
2 -0.43
3 -0.57
4 -0.57
9 0.06

>  <PUBCHEM_EFFECTIVE_ROTOR_COUNT>  (1) 
11

>  <PUBCHEM_PHARMACOPHORE_FEATURES>  (1) 
4
1 3 acceptor
1 4 acceptor
3 5 7 9 hydrophobe
3 6 8 10 hydrophobe

>  <PUBCHEM_HEAVY_ATOM_COUNT>  (1) 
16

>  <PUBCHEM_ATOM_DEF_STEREO_COUNT>  (1) 
0

>  <PUBCHEM_ATOM_UDEF_STEREO_COUNT>  (1) 
0

>  <PUBCHEM_BOND_DEF_STEREO_COUNT>  (1) 
0

>  <PUBCHEM_BOND_UDEF_STEREO_COUNT>  (1) 
0

>  <PUBCHEM_ISOTOPIC_ATOM_COUNT>  (1) 
0

>  <PUBCHEM_COMPONENT_COUNT>  (1) 
1

>  <PUBCHEM_CACTVS_TAUTO_COUNT>  (1) 
1

>  <PUBCHEM_CONFORMER_ID>  (1) 
00003FAD00000001

>  <PUBCHEM_MMFF94_ENERGY>  (1) 
5.7061

>  <PUBCHEM_FEATURE_SELFOVERLAP>  (1) 
20.297

>  <PUBCHEM_SHAPE_FINGERPRINT>  (1) 
10968037 39 18343301470993688607
11315181 36 17704356593706799779
12091667 2 15647051569607681719
13533116 47 17240471477937605898
14123256 10 18411699876478915243
14251764 18 18410573967971581976
14251764 46 17632577145339020006
15716309 27 18409165519752529630
17834076 25 18410573989446418433
18006028 8 17418373588608943481
20281389 69 18335419071195821693
20621476 8 18334574620711598781
21315763 28 18412262857093375429
220451 1 15647048287250400297
22224240 67 14692566620187611548
23035841 295 18260547831444853995
23402539 116 18341327872874825967
23521765 1 18341894086539083781
246663 6 15574716880589286066
28498 318 18411699855505342758
33532 11 17822006485299728626
33684 2 18412544297388418931
3545911 37 18187081754147497195
4073 2 18041002898708640018
42788 4 18411138047844338981
57583515 80 18272933830248190259
59567204 34 17774726347619400297
59755656 520 17822005440910739867
8209 1 18410856555350097036

>  <PUBCHEM_SHAPE_MULTIPOLES>  (1) 
305.8
24.46
1.06
0.6
0.14
0
0
0.04
1.23
0
0.02
0.01
0
0.02

>  <PUBCHEM_SHAPE_SELFOVERLAP>  (1) 
568.011

>  <PUBCHEM_SHAPE_VOLUME>  (1) 
192

>  <PUBCHEM_COORDINATE_TYPE>  (1) 
2
5
10

$$$$
