16310
     RDKit          3D

 12 13  0  0  0  0  0  0  0  0999 V2000
    1.4596   -2.7893   -0.0001 Cl  0  0  0  0  0  0  0  0  0  0  0  0
   -3.7492   -1.0316    0.0002 Cl  0  0  0  0  0  0  0  0  0  0  0  0
    0.2039   -0.3250    0.0000 C   0  0  0  0  0  0  0  0  0  0  0  0
    0.2540    1.0893    0.0000 C   0  0  0  0  0  0  0  0  0  0  0  0
   -1.0446   -0.9680    0.0000 C   0  0  0  0  0  0  0  0  0  0  0  0
   -0.9460    1.8191    0.0000 C   0  0  0  0  0  0  0  0  0  0  0  0
    1.4038   -1.0548    0.0001 C   0  0  0  0  0  0  0  0  0  0  0  0
    1.5025    1.7323    0.0001 C   0  0  0  0  0  0  0  0  0  0  0  0
   -2.2267   -0.2272   -0.0001 C   0  0  0  0  0  0  0  0  0  0  0  0
   -2.1775    1.1636   -0.0001 C   0  0  0  0  0  0  0  0  0  0  0  0
    2.6355   -0.3995    0.0001 C   0  0  0  0  0  0  0  0  0  0  0  0
    2.6847    0.9914    0.0000 C   0  0  0  0  0  0  0  0  0  0  0  0
  1  7  1  0
  2  9  1  0
  3  4  1  0
  3  5  2  0
  3  7  1  0
  4  6  2  0
  4  8  1  0
  5  9  1  0
  6 10  1  0
  7 11  2  0
  8 12  2  0
  9 10  2  0
 11 12  1  0
M  END
>  <PUBCHEM_COMPOUND_CID>  (1) 
16310

>  <PUBCHEM_CONFORMER_RMSD>  (1) 
0.4

>  <PUBCHEM_CONFORMER_DIVERSEORDER>  (1) 
1

>  <PUBCHEM_MMFF94_PARTIAL_CHARGES>  (1) 
16
1 -0.18
10 -0.15
11 -0.15
12 -0.15
13 0.15
14 0.15
15 0.15
16 0.15
17 0.15
18 0.15
2 -0.18
5 -0.15
6 -0.15
7 0.18
8 -0.15
9 0.18

>  <PUBCHEM_EFFECTIVE_ROTOR_COUNT>  (1) 
0

>  <PUBCHEM_PHARMACOPHORE_FEATURES>  (1) 
2
6 3 4 5 6 9 10 rings
6 3 4 7 8 11 12 rings

>  <PUBCHEM_HEAVY_ATOM_COUNT>  (1) 
12

>  <PUBCHEM_ATOM_DEF_STEREO_COUNT>  (1) 
0

>  <PUBCHEM_ATOM_UDEF_STEREO_COUNT>  (1) 
0

>  <PUBCHEM_BOND_DEF_STEREO_COUNT>  (1) 
0

>  <PUBCHEM_BOND_UDEF_STEREO_COUNT>  (1) 
0

>  <PUBCHEM_ISOTOPIC_ATOM_COUNT>  (1) 
0

>  <PUBCHEM_COMPONENT_COUNT>  (1) 
1

>  <PUBCHEM_CACTVS_TAUTO_COUNT>  (1) 
1

>  <PUBCHEM_CONFORMER_ID>  (1) 
00003FB600000001

>  <PUBCHEM_MMFF94_ENERGY>  (1) 
33.0236

>  <PUBCHEM_FEATURE_SELFOVERLAP>  (1) 
10.175

>  <PUBCHEM_SHAPE_FINGERPRINT>  (1) 
10967382 1 18338516472717999271
11471102 20 18410288155552669181
12032990 46 18410299150442255843
12423570 1 11964260427071106328
12524768 44 18265052422919434983
12897270 3 18410011043809147989
13380535 76 18335700602059647026
14251717 144 18267861860287113975
14325111 11 18410856576909725793
15442244 35 18124317099633864673
161256 15 18411422795285474932
16945 1 18410855447280319588
17844478 74 18113624508083687825
17990270 104 18337953372583296882
19021347 11 18410009948714014582
193761 8 18194401091421414565
19973954 147 18267022764983835937
20201158 50 18335138717447902179
20588541 1 18263367039382758499
20645477 70 18411131438301614623
21040471 1 18122343746897823648
21501502 16 18337956675333837849
2334 1 17762338415220163683
23402655 69 18412536626998997293
23463225 33 18407757040846077368
23552423 10 18335707091686321606
23559900 14 17332521273335981518
241688 4 17832989343270768488
2748010 2 18194961838056522278
5084963 1 18202286930660462824
528886 8 18267300013717911320
7364860 26 18270398287509573994
8809292 202 18187088407157762907

>  <PUBCHEM_SHAPE_MULTIPOLES>  (1) 
250.69
4.55
2.42
0.62
2.58
0.87
0
0.81
0
-0.87
0
0.01
0.01
0

>  <PUBCHEM_SHAPE_SELFOVERLAP>  (1) 
531.112

>  <PUBCHEM_SHAPE_VOLUME>  (1) 
136.1

>  <PUBCHEM_COORDINATE_TYPE>  (1) 
2
5
10

$$$$
