1631
     RDKit          3D

 35 38  0  0  1  0  0  0  0  0999 V2000
   -4.7669   -2.0237    1.7968 O   0  0  0  0  0  0  0  0  0  0  0  0
    0.8831    0.8352    2.2612 O   0  0  0  0  0  0  0  0  0  0  0  0
    0.9199   -1.5892   -0.7094 O   0  0  0  0  0  0  0  0  0  0  0  0
   -1.1776    1.1019    1.2218 N   0  0  0  0  0  0  0  0  0  0  0  0
    2.0471    0.3233   -0.0359 N   0  0  0  0  0  0  0  0  0  0  0  0
    8.1013   -1.9965   -0.3167 N   0  0  0  0  0  0  0  0  0  0  0  0
    6.9676    0.0176   -0.6618 N   0  0  0  0  0  0  0  0  0  0  0  0
   -3.8829    0.0824    1.1452 C   0  0  0  0  0  0  0  0  0  0  0  0
   -3.0488    0.2370   -0.1295 C   0  0  0  0  0  0  0  0  0  0  0  0
   -2.9808   -0.1281    2.3642 C   0  0  0  0  0  0  0  0  0  0  0  0
   -1.9988    1.3351    0.0274 C   0  0  0  0  0  0  0  0  0  0  0  0
   -1.9329    0.9767    2.4700 C   0  0  0  0  0  0  0  0  0  0  0  0
   -4.8163   -1.0809    1.0102 C   0  0  0  0  0  0  0  0  0  0  0  0
    0.2150    1.0325    1.2430 C   0  0  0  0  0  0  0  0  0  0  0  0
    0.9205    1.2113   -0.0774 C   0  0  0  0  0  0  0  0  0  0  0  0
   -5.8148   -1.0841   -0.0961 C   0  0  0  0  0  0  0  0  0  0  0  0
    1.2981    2.6443   -0.3190 C   0  0  0  0  0  0  0  0  0  0  0  0
   -6.3242    0.1212   -0.5793 C   0  0  0  0  0  0  0  0  0  0  0  0
   -6.2395   -2.2924   -0.6489 C   0  0  0  0  0  0  0  0  0  0  0  0
    1.3636    3.1383   -1.6219 C   0  0  0  0  0  0  0  0  0  0  0  0
    1.5829    3.4820    0.7596 C   0  0  0  0  0  0  0  0  0  0  0  0
    1.9542   -1.0264   -0.3604 C   0  0  0  0  0  0  0  0  0  0  0  0
   -7.2586    0.1183   -1.6150 C   0  0  0  0  0  0  0  0  0  0  0  0
   -7.1738   -2.2952   -1.6847 C   0  0  0  0  0  0  0  0  0  0  0  0
    1.7140    4.4696   -1.8464 C   0  0  0  0  0  0  0  0  0  0  0  0
    1.9333    4.8134    0.5349 C   0  0  0  0  0  0  0  0  0  0  0  0
   -7.6832   -1.0898   -2.1677 C   0  0  0  0  0  0  0  0  0  0  0  0
    3.2063   -1.8172   -0.2417 C   0  0  0  0  0  0  0  0  0  0  0  0
    1.9988    5.3071   -0.7681 C   0  0  0  0  0  0  0  0  0  0  0  0
    4.4441   -1.1902   -0.3854 C   0  0  0  0  0  0  0  0  0  0  0  0
    3.1439   -3.1869    0.0148 C   0  0  0  0  0  0  0  0  0  0  0  0
    5.6194   -1.9332   -0.2724 C   0  0  0  0  0  0  0  0  0  0  0  0
    4.3191   -3.9296    0.1277 C   0  0  0  0  0  0  0  0  0  0  0  0
    5.5568   -3.3028   -0.0160 C   0  0  0  0  0  0  0  0  0  0  0  0
    6.9102   -1.2807   -0.4231 C   0  0  0  0  0  0  0  0  0  0  0  0
  1 13  2  0
  2 14  2  0
  3 22  2  0
  4 11  1  0
  4 12  1  0
  4 14  1  0
  5 15  1  0
  5 22  1  0
  6 35  1  0
  7 35  2  0
  8  9  1  0
  8 10  1  0
  8 13  1  0
  9 11  1  0
 10 12  1  0
 13 16  1  0
 14 15  1  0
 15 17  1  0
 16 18  2  0
 16 19  1  0
 17 20  2  0
 17 21  1  0
 18 23  1  0
 19 24  2  0
 20 25  1  0
 21 26  2  0
 22 28  1  0
 23 27  2  0
 24 27  1  0
 25 29  2  0
 26 29  1  0
 28 30  2  0
 28 31  1  0
 30 32  1  0
 31 33  2  0
 32 34  2  0
 32 35  1  0
 33 34  1  0
M  END
>  <PUBCHEM_COMPOUND_CID>  (1) 
1631

>  <PUBCHEM_CONFORMER_RMSD>  (1) 
1.2

>  <PUBCHEM_CONFORMER_DIVERSEORDER>  (1) 
1
265
42
218
145
213
222
75
198
110
194
80
43
114
85
149
243
157
263
115
164
252
84
130
185
93
262
153
140
196
271
150
245
92
254
81
121
199
64
159
47
264
190
166
4
202
73
152
107
232
94
19
87
90
97
111
63
160
227
27
224
117
126
247
49
125
74
158
269
98
268
28
82
177
122
29
248
229
38
257
66
138
205
9
136
142
250
246
17
32
197
11
116
208
259
214
103
24
191
195
54
16
201
144
211
226
99
266
261
127
123
48
78
71
3
256
241
216
181
36
161
131
58
162
113
65
30
171
101
57
212
112
244
33
228
270
108
220
207
44
86
8
215
45
119
170
59
189
209
143
182
233
225
128
7
89
34
267
221
249
46
137
23
255
141
72
2
129
240
13
70
133
238
132
79
200
61
210
186
174
56
237
163
88
172
69
31
96
188
109
18
139
102
106
223
39
183
231
60
50
91
15
204
151
55
118
169
120
173
95
167
180
168
155
206
26
146
134
203
239
124
35
53
135
178
41
22
260
100
148
20
10
6
5
230
179
235
40
21
77
156
242
165
217
253
67
37
184
62
234
25
258
147
52
105
251
104
14
68
83
193
76
219
12
51
176
154
175
187
236
192

>  <PUBCHEM_MMFF94_PARTIAL_CHARGES>  (1) 
51
1 -0.57
11 0.3
12 0.3
13 0.42
14 0.57
15 0.5
16 0.09
17 -0.14
18 -0.15
19 -0.15
2 -0.57
20 -0.15
21 -0.15
22 0.54
23 -0.15
24 -0.15
25 -0.15
26 -0.15
27 -0.15
28 0.09
29 -0.15
3 -0.57
30 -0.15
31 -0.15
32 0.09
33 -0.15
34 -0.15
35 0.41
4 -0.66
46 0.37
47 0.15
48 0.15
49 0.15
5 -0.73
50 0.15
51 0.15
52 0.15
53 0.15
54 0.15
55 0.15
56 0.15
57 0.15
58 0.15
59 0.15
6 -0.85
60 0.15
61 0.4
62 0.4
63 0.4
7 -0.85
8 0.06

>  <PUBCHEM_EFFECTIVE_ROTOR_COUNT>  (1) 
10.2

>  <PUBCHEM_PHARMACOPHORE_FEATURES>  (1) 
11
1 1 acceptor
1 2 acceptor
1 3 acceptor
1 5 donor
1 6 donor
1 7 donor
3 6 7 35 cation
6 16 18 19 23 24 27 rings
6 17 20 21 25 26 29 rings
6 28 30 31 32 33 34 rings
6 4 8 9 10 11 12 rings

>  <PUBCHEM_HEAVY_ATOM_COUNT>  (1) 
35

>  <PUBCHEM_ATOM_DEF_STEREO_COUNT>  (1) 
0

>  <PUBCHEM_ATOM_UDEF_STEREO_COUNT>  (1) 
1

>  <PUBCHEM_BOND_DEF_STEREO_COUNT>  (1) 
0

>  <PUBCHEM_BOND_UDEF_STEREO_COUNT>  (1) 
0

>  <PUBCHEM_ISOTOPIC_ATOM_COUNT>  (1) 
0

>  <PUBCHEM_COMPONENT_COUNT>  (1) 
1

>  <PUBCHEM_CACTVS_TAUTO_COUNT>  (1) 
4

>  <PUBCHEM_CONFORMER_ID>  (1) 
0000065F00000001

>  <PUBCHEM_MMFF94_ENERGY>  (1) 
108.5335

>  <PUBCHEM_FEATURE_SELFOVERLAP>  (1) 
55.865

>  <PUBCHEM_SHAPE_FINGERPRINT>  (1) 
10369192 42 11167931459552376602
10842051 180 18188227450750597990
10930396 42 18261655044935520792
11062273 19 18262521510826341348
11135609 99 17560793363982696902
11497681 19 18058173826462111982
12166972 35 18343860018146922919
12342043 65 17026319701470042801
12373685 5 17677044617224946410
12522641 126 18266176317461965068
12522641 68 17253715391747976844
13540713 5 18059313027771634585
13947920 75 15502374504803634695
14068700 675 18201717327908234185
14340393 91 18334287635714367269
14394314 77 18264781951670042816
1454969 45 18342462521862626654
15320294 125 17275092943418543223
15328829 1 17775003547989918404
15419009 47 18123184603153751173
15975801 100 16372681822969070677
15979999 66 18408318891230505340
16991971 28 18272661142801169070
17852330 134 18335141994935659165
19304671 126 17895457229727141653
19315092 285 18059861713890563553
19319366 153 17912365630321948325
21033650 10 16443062790834232169
23559900 14 18334857242855988889
24771293 8 18271817809040591128
249057 3 18338520712885273577
25019877 29 16970002363144846205
2838139 119 12179854917608501659
32027 91 18334296487562784323
3380486 145 18047495338840710904
4015057 19 18334023808699818209
4046055 25 18192715549050225788
437795 70 17676762073096446917
4408954 87 17122847729749104297
44802255 64 16961289262234622652
5028188 123 17702961223589122286
508180 173 17823132337993695977
5223283 242 18261395517004587789
57035037 87 15430047591126627862
57527293 21 17910974456387364570
6004065 56 18335986445450504106
613672 6 18116732750077850498
6695519 79 17475535235774827153
6698420 124 8862642617896477438
70251023 43 18408602574242139049
9962374 69 18340199795815794063

>  <PUBCHEM_SHAPE_MULTIPOLES>  (1) 
682.75
19.84
5.92
1.88
13.4
7.32
-0.63
-22.82
9.57
-9.75
1.75
3.07
0.65
-1.24

>  <PUBCHEM_SHAPE_SELFOVERLAP>  (1) 
1478.486

>  <PUBCHEM_SHAPE_VOLUME>  (1) 
368.8

>  <PUBCHEM_COORDINATE_TYPE>  (1) 
2
5
10

$$$$
