16328
     RDKit          3D

 12 12  0  0  0  0  0  0  0  0999 V2000
    4.4405    0.0008   -0.0042 Br  0  0  0  0  0  0  0  0  0  0  0  0
   -1.6494   -0.0004    0.0058 N   0  0  0  0  0  0  0  0  0  0  0  0
   -2.3843    1.1678   -0.4370 C   0  0  0  0  0  0  0  0  0  0  0  0
   -2.3826   -1.1739    0.4377 C   0  0  0  0  0  0  0  0  0  0  0  0
   -0.2392   -0.0002    0.0037 C   0  0  0  0  0  0  0  0  0  0  0  0
   -2.4785    2.2080    0.6664 C   0  0  0  0  0  0  0  0  0  0  0  0
   -2.4797   -2.2016   -0.6771 C   0  0  0  0  0  0  0  0  0  0  0  0
    0.4573    1.1290   -0.4264 C   0  0  0  0  0  0  0  0  0  0  0  0
    0.4591   -1.1295    0.4315 C   0  0  0  0  0  0  0  0  0  0  0  0
    1.8522    1.1292   -0.4289 C   0  0  0  0  0  0  0  0  0  0  0  0
    1.8540   -1.1293    0.4293 C   0  0  0  0  0  0  0  0  0  0  0  0
    2.5506    0.0001   -0.0008 C   0  0  0  0  0  0  0  0  0  0  0  0
  1 12  1  0
  2  3  1  0
  2  4  1  0
  2  5  1  0
  3  6  1  0
  4  7  1  0
  5  8  2  0
  5  9  1  0
  8 10  1  0
  9 11  2  0
 10 12  2  0
 11 12  1  0
M  END
>  <PUBCHEM_COMPOUND_CID>  (1) 
16328

>  <PUBCHEM_CONFORMER_RMSD>  (1) 
0.6

>  <PUBCHEM_CONFORMER_DIVERSEORDER>  (1) 
1
7
9
8
5
3
6
4
2

>  <PUBCHEM_MMFF94_PARTIAL_CHARGES>  (1) 
14
1 -0.11
10 -0.15
11 -0.15
12 0.11
2 -0.84
23 0.15
24 0.15
25 0.15
26 0.15
3 0.37
4 0.37
5 0.1
8 -0.15
9 -0.15

>  <PUBCHEM_EFFECTIVE_ROTOR_COUNT>  (1) 
3

>  <PUBCHEM_PHARMACOPHORE_FEATURES>  (1) 
3
1 1 hydrophobe
1 2 cation
6 5 8 9 10 11 12 rings

>  <PUBCHEM_HEAVY_ATOM_COUNT>  (1) 
12

>  <PUBCHEM_ATOM_DEF_STEREO_COUNT>  (1) 
0

>  <PUBCHEM_ATOM_UDEF_STEREO_COUNT>  (1) 
0

>  <PUBCHEM_BOND_DEF_STEREO_COUNT>  (1) 
0

>  <PUBCHEM_BOND_UDEF_STEREO_COUNT>  (1) 
0

>  <PUBCHEM_ISOTOPIC_ATOM_COUNT>  (1) 
0

>  <PUBCHEM_COMPONENT_COUNT>  (1) 
1

>  <PUBCHEM_CACTVS_TAUTO_COUNT>  (1) 
1

>  <PUBCHEM_CONFORMER_ID>  (1) 
00003FC800000001

>  <PUBCHEM_MMFF94_ENERGY>  (1) 
36.5413

>  <PUBCHEM_FEATURE_SELFOVERLAP>  (1) 
15.223

>  <PUBCHEM_SHAPE_FINGERPRINT>  (1) 
10062212 137 18260822679540487994
11132069 177 18334289830368463976
11206711 2 18260546770318932839
12032990 46 18335707169592059178
12491281 212 18337116657114199728
12500047 106 18270675359912652336
12932764 1 17418086646323221046
13380535 21 18265341620405768262
13380535 76 18339078177489626951
14325111 11 18407760348329578396
14897335 6 18336261232788555717
14965852 173 18411136943858369874
15279307 12 18335985255322595779
15775835 57 18261116218579094988
16945 1 18412544309993700482
19026448 4 17632577150272212736
200 152 18338788035274395847
20871998 184 18343868822793054135
21501502 16 18334295379181198396
23402539 116 18339634646131917343
23402655 69 18264473006715938429
23552423 10 18186802516832845623
23557571 272 17989212563713319480
23559900 14 18271807866460293582
2748010 2 18336550404315155302
3312278 4 18411419488387542824
5084963 1 18340491182837811576
528886 8 18334571304991668936
6333449 129 18411134710396345597

>  <PUBCHEM_SHAPE_MULTIPOLES>  (1) 
247.92
6
2.08
0.79
4.69
0.01
0
0
-0.01
-2.19
0
-0.15
0
-0.59

>  <PUBCHEM_SHAPE_SELFOVERLAP>  (1) 
484.393

>  <PUBCHEM_SHAPE_VOLUME>  (1) 
154.4

>  <PUBCHEM_COORDINATE_TYPE>  (1) 
2
5
10

$$$$
