16325
     RDKit          3D

 16 17  0  0  0  0  0  0  0  0999 V2000
    1.3151    2.2431   -0.2028 O   0  0  0  0  0  0  0  0  0  0  0  0
    5.3073   -0.3003    0.3511 O   0  0  0  0  0  0  0  0  0  0  0  0
   -0.1655   -0.1126   -0.5560 N   0  0  0  0  0  0  0  0  0  0  0  0
   -0.7822   -0.1525    0.5346 N   0  0  0  0  0  0  0  0  0  0  0  0
    1.2205   -0.1492   -0.3257 C   0  0  0  0  0  0  0  0  0  0  0  0
    1.9373    1.0318   -0.1534 C   0  0  0  0  0  0  0  0  0  0  0  0
    1.8679   -1.3805   -0.2715 C   0  0  0  0  0  0  0  0  0  0  0  0
    3.3126    0.9810    0.0746 C   0  0  0  0  0  0  0  0  0  0  0  0
    3.9654   -0.2505    0.1296 C   0  0  0  0  0  0  0  0  0  0  0  0
    3.2430   -1.4312   -0.0435 C   0  0  0  0  0  0  0  0  0  0  0  0
   -2.1613   -0.1159    0.3060 C   0  0  0  0  0  0  0  0  0  0  0  0
   -2.8715   -1.3044    0.1350 C   0  0  0  0  0  0  0  0  0  0  0  0
   -2.8269    1.1087    0.2482 C   0  0  0  0  0  0  0  0  0  0  0  0
   -4.2470   -1.2682   -0.0938 C   0  0  0  0  0  0  0  0  0  0  0  0
   -4.2024    1.1446    0.0194 C   0  0  0  0  0  0  0  0  0  0  0  0
   -4.9124   -0.0438   -0.1516 C   0  0  0  0  0  0  0  0  0  0  0  0
  1  6  1  0
  2  9  1  0
  3  4  2  0
  3  5  1  0
  4 11  1  0
  5  6  2  0
  5  7  1  0
  6  8  1  0
  7 10  2  0
  8  9  2  0
  9 10  1  0
 11 12  2  0
 11 13  1  0
 12 14  1  0
 13 15  2  0
 14 16  2  0
 15 16  1  0
M  END
>  <PUBCHEM_COMPOUND_CID>  (1) 
16325

>  <PUBCHEM_CONFORMER_RMSD>  (1) 
0.6

>  <PUBCHEM_CONFORMER_DIVERSEORDER>  (1) 
1
3
2

>  <PUBCHEM_MMFF94_PARTIAL_CHARGES>  (1) 
26
1 -0.53
10 -0.15
11 0.18
12 -0.15
13 -0.15
14 -0.15
15 -0.15
16 -0.15
17 0.15
18 0.15
19 0.15
2 -0.53
20 0.15
21 0.15
22 0.15
23 0.15
24 0.15
25 0.45
26 0.45
3 -0.18
4 -0.18
5 0.18
6 0.08
7 -0.15
8 -0.15
9 0.08

>  <PUBCHEM_EFFECTIVE_ROTOR_COUNT>  (1) 
2

>  <PUBCHEM_PHARMACOPHORE_FEATURES>  (1) 
4
1 1 donor
1 2 donor
6 11 12 13 14 15 16 rings
6 5 6 7 8 9 10 rings

>  <PUBCHEM_HEAVY_ATOM_COUNT>  (1) 
16

>  <PUBCHEM_ATOM_DEF_STEREO_COUNT>  (1) 
0

>  <PUBCHEM_ATOM_UDEF_STEREO_COUNT>  (1) 
0

>  <PUBCHEM_BOND_DEF_STEREO_COUNT>  (1) 
0

>  <PUBCHEM_BOND_UDEF_STEREO_COUNT>  (1) 
0

>  <PUBCHEM_ISOTOPIC_ATOM_COUNT>  (1) 
0

>  <PUBCHEM_COMPONENT_COUNT>  (1) 
1

>  <PUBCHEM_CACTVS_TAUTO_COUNT>  (1) 
12

>  <PUBCHEM_CONFORMER_ID>  (1) 
00003FC500000001

>  <PUBCHEM_MMFF94_ENERGY>  (1) 
41.9488

>  <PUBCHEM_FEATURE_SELFOVERLAP>  (1) 
20.297

>  <PUBCHEM_SHAPE_FINGERPRINT>  (1) 
11471102 20 18409448094256653300
12107183 9 17690280408859893467
12236239 1 17775283863436078918
12251169 10 18412263951750866911
124424 183 18113622282794762993
12507557 5 18413107268816975745
128620 24 14477243760403881617
13167823 11 18411417319434631775
14004511 7 18411706465407159769
14251717 144 18409167718622999150
14252887 29 18130795525451016662
15196674 1 18410575106154031984
15375462 478 18131070419957587589
15442244 35 18267307525615815897
17802600 8 18409727370125952685
17834072 33 18409731793920908860
18186145 218 17676200299684203243
18522853 276 18343302556766138609
19050596 39 18341336664651684107
200 152 18131067143335085183
20279233 1 18335147483312707451
20645477 56 18334858269553996189
20645477 70 18341896242718791862
21267235 1 18411709784979308887
21501925 9 18412544318773584634
221490 88 18264215883676138547
22646028 1 18273494593810102303
23402539 116 18341606015152048229
23402655 69 18411983550521125045
23557571 272 17203335463966925905
23559900 14 18412822490788563075
26918003 58 18410572898778147403
351380 180 18410853270101003255
3545911 37 18412546500812104345
42 15 18407479959547005519
4214541 1 18410575072295226145
5104073 3 18410857685000401825
542803 24 17458068161652657591
67856867 119 18339076124152796741
69090 78 18410854369692142079
77779 3 18411139138734377135
9709674 26 18411708703022564479
9971528 1 18187082858460663652
9981440 41 17397829462789138960

>  <PUBCHEM_SHAPE_MULTIPOLES>  (1) 
307.57
10.52
1.64
0.66
1.43
0.28
0
-0.96
-0.49
-0.07
0.07
0.02
-0.01
-0.06

>  <PUBCHEM_SHAPE_SELFOVERLAP>  (1) 
665.672

>  <PUBCHEM_SHAPE_VOLUME>  (1) 
168.6

>  <PUBCHEM_COORDINATE_TYPE>  (1) 
2
5
10

$$$$
