16321
     RDKit          3D

 12 13  0  0  0  0  0  0  0  0999 V2000
    4.1390   -0.5594   -0.0005 Cl  0  0  0  0  0  0  0  0  0  0  0  0
   -1.5278    1.0814    0.0003 O   0  0  0  0  0  0  0  0  0  0  0  0
   -3.7493    0.5235   -0.0008 O   0  0  0  0  0  0  0  0  0  0  0  0
    0.1379   -0.6934    0.0000 C   0  0  0  0  0  0  0  0  0  0  0  0
   -0.1818    0.6617    0.0002 C   0  0  0  0  0  0  0  0  0  0  0  0
    1.4830   -1.0696   -0.0001 C   0  0  0  0  0  0  0  0  0  0  0  0
   -0.9399   -1.6677    0.0003 C   0  0  0  0  0  0  0  0  0  0  0  0
    0.8031    1.6473    0.0002 C   0  0  0  0  0  0  0  0  0  0  0  0
    2.4819   -0.0917    0.0001 C   0  0  0  0  0  0  0  0  0  0  0  0
    2.1423    1.2634    0.0001 C   0  0  0  0  0  0  0  0  0  0  0  0
   -2.2123   -1.2623    0.0004 C   0  0  0  0  0  0  0  0  0  0  0  0
   -2.5762    0.1669   -0.0002 C   0  0  0  0  0  0  0  0  0  0  0  0
  1  9  1  0
  2  5  1  0
  2 12  1  0
  3 12  2  0
  4  5  2  0
  4  6  1  0
  4  7  1  0
  5  8  1  0
  6  9  2  0
  7 11  2  0
  8 10  2  0
  9 10  1  0
 11 12  1  0
M  END
>  <PUBCHEM_COMPOUND_CID>  (1) 
16321

>  <PUBCHEM_CONFORMER_RMSD>  (1) 
0.4

>  <PUBCHEM_CONFORMER_DIVERSEORDER>  (1) 
1

>  <PUBCHEM_MMFF94_PARTIAL_CHARGES>  (1) 
17
1 -0.18
10 -0.15
11 -0.14
12 0.71
13 0.15
14 0.15
15 0.15
16 0.15
17 0.15
2 -0.23
3 -0.57
4 0.03
5 0.08
6 -0.15
7 -0.18
8 -0.15
9 0.18

>  <PUBCHEM_EFFECTIVE_ROTOR_COUNT>  (1) 
0

>  <PUBCHEM_PHARMACOPHORE_FEATURES>  (1) 
3
1 3 acceptor
6 2 4 5 7 11 12 rings
6 4 5 6 8 9 10 rings

>  <PUBCHEM_HEAVY_ATOM_COUNT>  (1) 
12

>  <PUBCHEM_ATOM_DEF_STEREO_COUNT>  (1) 
0

>  <PUBCHEM_ATOM_UDEF_STEREO_COUNT>  (1) 
0

>  <PUBCHEM_BOND_DEF_STEREO_COUNT>  (1) 
0

>  <PUBCHEM_BOND_UDEF_STEREO_COUNT>  (1) 
0

>  <PUBCHEM_ISOTOPIC_ATOM_COUNT>  (1) 
0

>  <PUBCHEM_COMPONENT_COUNT>  (1) 
1

>  <PUBCHEM_CACTVS_TAUTO_COUNT>  (1) 
1

>  <PUBCHEM_CONFORMER_ID>  (1) 
00003FC100000001

>  <PUBCHEM_MMFF94_ENERGY>  (1) 
35.2954

>  <PUBCHEM_FEATURE_SELFOVERLAP>  (1) 
15.25

>  <PUBCHEM_SHAPE_FINGERPRINT>  (1) 
10130415 120 18408318887172115450
10608611 8 18339357573354331481
11132069 177 18411975867167452386
11471102 20 18410288116512984589
12032990 46 18411426102737515734
12932764 1 17095508626130688998
13380535 76 18412263921754979311
13690532 89 18410008814768691462
14325111 11 18338517546512674721
14911166 2 18410291389219931559
14993402 34 18410572864186125014
15536298 74 18270962453218282496
15775835 57 18260551116825699567
16945 1 18410855447296026918
17844478 74 17894919533469023221
18511873 20 18410575088979151746
193761 8 17978228597070303174
19973954 147 18193277618181500779
20201158 50 18341896272825403446
20588541 1 18411422773984815670
20645476 183 17823718523340075534
21501502 16 18266459995392589478
23402539 116 18131060511874042365
23402655 69 18268978818478215645
23463225 33 18408039594176096870
23552423 10 18116995687674465390
23559900 14 18413672414363393750
2748010 2 18194401314717366630
528886 8 18411414007766602058
53812653 166 18413102862169655794
63268167 104 18411423933446566257
7364860 26 18198343055899052112
8809292 202 18260834829528240746

>  <PUBCHEM_SHAPE_MULTIPOLES>  (1) 
237.09
5.48
1.66
0.6
0.99
0.05
0
-0.37
0
-0.05
0
0.06
-0.02
0

>  <PUBCHEM_SHAPE_SELFOVERLAP>  (1) 
507.712

>  <PUBCHEM_SHAPE_VOLUME>  (1) 
131.6

>  <PUBCHEM_COORDINATE_TYPE>  (1) 
2
5
10

$$$$
