16320
     RDKit          3D

 11 10  0  0  1  0  0  0  0  0999 V2000
   -1.7368   -1.5191   -0.3928 O   0  0  0  0  0  0  0  0  0  0  0  0
   -0.4684    0.5242   -0.1108 C   0  0  0  0  0  0  0  0  0  0  0  0
    0.8147   -0.2512    0.2112 C   0  0  0  0  0  0  0  0  0  0  0  0
   -1.7299   -0.2612    0.2774 C   0  0  0  0  0  0  0  0  0  0  0  0
    2.0935    0.5169   -0.1373 C   0  0  0  0  0  0  0  0  0  0  0  0
   -2.9991    0.5220   -0.0849 C   0  0  0  0  0  0  0  0  0  0  0  0
    3.3753   -0.2422    0.2127 C   0  0  0  0  0  0  0  0  0  0  0  0
   -4.3073   -0.2013    0.2540 C   0  0  0  0  0  0  0  0  0  0  0  0
    4.6164    0.5376   -0.2238 C   0  0  0  0  0  0  0  0  0  0  0  0
   -5.5511    0.6023   -0.0917 C   0  0  0  0  0  0  0  0  0  0  0  0
    5.8928   -0.2281    0.0861 C   0  0  0  0  0  0  0  0  0  0  0  0
  1  4  1  0
  2  3  1  0
  2  4  1  0
  3  5  1  0
  4  6  1  0
  5  7  1  0
  6  8  1  0
  7  9  1  0
  8 10  1  0
  9 11  1  0
M  END
>  <PUBCHEM_COMPOUND_CID>  (1) 
16320

>  <PUBCHEM_CONFORMER_RMSD>  (1) 
0.6

>  <PUBCHEM_CONFORMER_DIVERSEORDER>  (1) 
1
23
254
108
128
331
161
230
55
318
22
229
240
296
202
164
99
214
44
190
325
226
244
265
245
316
182
19
217
37
50
302
119
210
173
209
163
286
208
236
113
49
98
326
7
303
58
107
232
322
116
95
172
54
139
102
271
278
206
18
62
57
198
330
165
87
51
177
304
13
91
294
114
9
167
200
140
327
243
11
211
320
205
257
181
15
270
76
312
282
33
169
281
166
67
314
112
4
92
313
179
6
12
185
307
30
310
267
300
142
308
145
45
225
103
323
194
253
93
123
146
195
122
218
212
101
74
46
109
233
10
242
260
133
228
175
131
17
274
213
121
14
191
178
86
321
234
94
246
52
29
329
324
221
250
69
249
141
239
227
289
290
2
137
258
311
56
75
125
106
130
100
207
40
138
262
266
298
147
315
61
231
252
295
115
309
197
272
152
83
280
64
305
156
28
222
201
71
120
104
135
196
84
160
188
328
134
16
159
259
43
117
42
293
82
256
285
187
220
97
111
168
24
66
149
183
136
241
192
63
247
59
261
248
80
90
176
251
203
129
255
39
287
68
223
38
27
275
224
306
204
319
237
41
301
26
317
276
32
20
238
193
21
155
5
3
277
47
65
148
216
174
88
126
35
291
132
170
8
269
81
118
31
89
189
78
273
279
70
79
299
283
157
77
288
144
48
60
105
199
219
96
180
53
263
25
284
73
297
85
268
235
158
215
110
34
151
124
184
162
127
36
264
143
150
153
154
72
292
171
186

>  <PUBCHEM_MMFF94_PARTIAL_CHARGES>  (1) 
3
1 -0.68
27 0.4
4 0.28

>  <PUBCHEM_EFFECTIVE_ROTOR_COUNT>  (1) 
7

>  <PUBCHEM_PHARMACOPHORE_FEATURES>  (1) 
5
1 1 acceptor
1 1 donor
1 10 hydrophobe
1 11 hydrophobe
5 2 3 5 7 9 hydrophobe

>  <PUBCHEM_HEAVY_ATOM_COUNT>  (1) 
11

>  <PUBCHEM_ATOM_DEF_STEREO_COUNT>  (1) 
0

>  <PUBCHEM_ATOM_UDEF_STEREO_COUNT>  (1) 
1

>  <PUBCHEM_BOND_DEF_STEREO_COUNT>  (1) 
0

>  <PUBCHEM_BOND_UDEF_STEREO_COUNT>  (1) 
0

>  <PUBCHEM_ISOTOPIC_ATOM_COUNT>  (1) 
0

>  <PUBCHEM_COMPONENT_COUNT>  (1) 
1

>  <PUBCHEM_CACTVS_TAUTO_COUNT>  (1) 
1

>  <PUBCHEM_CONFORMER_ID>  (1) 
00003FC000000001

>  <PUBCHEM_MMFF94_ENERGY>  (1) 
1.1176

>  <PUBCHEM_FEATURE_SELFOVERLAP>  (1) 
25.373

>  <PUBCHEM_SHAPE_FINGERPRINT>  (1) 
11062470 55 18201720660660352792
114248 4 9079116657062680060
12815109 37 17989487420303637128
13533116 47 17131554929985530190
14123238 8 18259985972133492428
1420 363 8646768915065368152
14251718 22 11455889161294545952
15242433 33 18408886239593920786
15242439 84 17846780723902941426
17834072 33 18271243927609313924
17834076 25 17918274250974230056
187816 3 17132115741007795011
200 152 10159700183523795125
20279233 1 17131843083393208374
20645477 70 18200879457510139886
20719005 15 18407760339454768224
20767249 13 17632859724428280784
20767249 213 18412263951750892684
21119208 17 18409167722959891632
22485316 2 18201999945678639142
23218964 4 18409165498040257700
23402539 116 18131345315503219925
366044 4 18342457041336449399
42788 4 18333450945397517649
8209 1 18408041810410818196

>  <PUBCHEM_SHAPE_MULTIPOLES>  (1) 
220.51
13.32
0.92
0.65
4.25
0.16
-0.01
-1.25
-0.07
-0.31
0.08
-0.01
0.01
-0.1

>  <PUBCHEM_SHAPE_SELFOVERLAP>  (1) 
389.763

>  <PUBCHEM_SHAPE_VOLUME>  (1) 
144.8

>  <PUBCHEM_COORDINATE_TYPE>  (1) 
2
5
10

$$$$
