16333
     RDKit          3D

 25 27  0  0  0  0  0  0  0  0999 V2000
    5.4792   -1.3905   -0.0990 S   0  0  0  0  0  0  0  0  0  0  0  0
   -1.8340    2.1186   -0.4139 O   0  0  0  0  0  0  0  0  0  0  0  0
   -5.7168   -2.4998    0.2829 O   0  0  0  0  0  0  0  0  0  0  0  0
    1.4987    2.9448    0.2917 O   0  0  0  0  0  0  0  0  0  0  0  0
    5.9841   -1.6496    1.4344 O   0  0  0  0  0  0  0  0  0  0  0  0
    4.7926   -2.5998   -0.5297 O   0  0  0  0  0  0  0  0  0  0  0  0
    6.6008   -0.8632   -0.8605 O   0  0  0  0  0  0  0  0  0  0  0  0
    0.0882    0.1366   -0.6048 N   0  0  0  0  0  0  0  0  0  0  0  0
    0.6585    0.2771    0.5018 N   0  0  0  0  0  0  0  0  0  0  0  0
   -3.5791    0.4863   -0.1165 C   0  0  0  0  0  0  0  0  0  0  0  0
   -3.9549   -0.8745   -0.0164 C   0  0  0  0  0  0  0  0  0  0  0  0
   -2.2273    0.8126   -0.3130 C   0  0  0  0  0  0  0  0  0  0  0  0
   -1.2598   -0.1882   -0.4091 C   0  0  0  0  0  0  0  0  0  0  0  0
   -2.9680   -1.8688   -0.1159 C   0  0  0  0  0  0  0  0  0  0  0  0
   -5.3066   -1.2010    0.1799 C   0  0  0  0  0  0  0  0  0  0  0  0
   -4.5661    1.4804   -0.0173 C   0  0  0  0  0  0  0  0  0  0  0  0
   -1.6295   -1.5264   -0.3110 C   0  0  0  0  0  0  0  0  0  0  0  0
    4.2966   -0.1113    0.0176 C   0  0  0  0  0  0  0  0  0  0  0  0
   -6.2740   -0.2003    0.2765 C   0  0  0  0  0  0  0  0  0  0  0  0
   -5.9044    1.1378    0.1780 C   0  0  0  0  0  0  0  0  0  0  0  0
    2.0113    0.6028    0.3048 C   0  0  0  0  0  0  0  0  0  0  0  0
    2.9505   -0.4208    0.2127 C   0  0  0  0  0  0  0  0  0  0  0  0
    2.4079    1.9334    0.2033 C   0  0  0  0  0  0  0  0  0  0  0  0
    4.6982    1.2207   -0.0847 C   0  0  0  0  0  0  0  0  0  0  0  0
    3.7537    2.2430    0.0082 C   0  0  0  0  0  0  0  0  0  0  0  0
  1  5  1  0
  1  6  2  0
  1  7  2  0
  1 18  1  0
  2 12  1  0
  3 15  1  0
  4 23  1  0
  8  9  2  0
  8 13  1  0
  9 21  1  0
 10 11  1  0
 10 12  2  0
 10 16  1  0
 11 14  2  0
 11 15  1  0
 12 13  1  0
 13 17  2  0
 14 17  1  0
 15 19  2  0
 16 20  2  0
 18 22  2  0
 18 24  1  0
 19 20  1  0
 21 22  1  0
 21 23  2  0
 23 25  1  0
 24 25  2  0
M  END
>  <PUBCHEM_COMPOUND_CID>  (1) 
16333

>  <PUBCHEM_CONFORMER_RMSD>  (1) 
0.6

>  <PUBCHEM_CONFORMER_DIVERSEORDER>  (1) 
1
10
6
12
14
4
8
7
18
15
13
5
3
17
9
11
2
16

>  <PUBCHEM_MMFF94_PARTIAL_CHARGES>  (1) 
35
1 1.49
12 0.08
13 0.18
14 -0.15
15 0.08
16 -0.15
17 -0.15
18 -0.01
19 -0.15
2 -0.53
20 -0.15
21 0.18
22 -0.15
23 0.08
24 -0.15
25 -0.15
26 0.15
27 0.15
28 0.15
29 0.15
3 -0.53
30 0.15
31 0.15
32 0.15
33 0.15
34 0.45
35 0.45
36 0.45
37 0.5
4 -0.53
5 -0.68
6 -0.65
7 -0.65
8 -0.18
9 -0.18

>  <PUBCHEM_EFFECTIVE_ROTOR_COUNT>  (1) 
3

>  <PUBCHEM_PHARMACOPHORE_FEATURES>  (1) 
10
1 2 donor
1 3 donor
1 4 donor
1 5 acceptor
1 6 acceptor
1 7 acceptor
4 1 5 6 7 anion
6 10 11 12 13 14 17 rings
6 10 11 15 16 19 20 rings
6 18 21 22 23 24 25 rings

>  <PUBCHEM_HEAVY_ATOM_COUNT>  (1) 
25

>  <PUBCHEM_ATOM_DEF_STEREO_COUNT>  (1) 
0

>  <PUBCHEM_ATOM_UDEF_STEREO_COUNT>  (1) 
0

>  <PUBCHEM_BOND_DEF_STEREO_COUNT>  (1) 
0

>  <PUBCHEM_BOND_UDEF_STEREO_COUNT>  (1) 
0

>  <PUBCHEM_ISOTOPIC_ATOM_COUNT>  (1) 
0

>  <PUBCHEM_COMPONENT_COUNT>  (1) 
1

>  <PUBCHEM_CACTVS_TAUTO_COUNT>  (1) 
28

>  <PUBCHEM_CONFORMER_ID>  (1) 
00003FCD00000001

>  <PUBCHEM_MMFF94_ENERGY>  (1) 
66.208

>  <PUBCHEM_FEATURE_SELFOVERLAP>  (1) 
50.829

>  <PUBCHEM_SHAPE_FINGERPRINT>  (1) 
10299344 5 18113903741103502118
10319926 262 18341322345151572529
10366900 7 17095239233161161785
10595046 47 18267304420560364597
11405975 8 18341328967732712240
11524674 6 17203326715277027415
12107183 9 18050285865044301121
12166972 35 18334018310535673645
12236239 1 18113337531111361893
12616971 3 17846492668714658293
13073987 5 18341613754060993665
13167823 11 18409727391442364699
13402501 40 18412266112182960702
13533116 47 18273215313640703864
13685833 64 18411138026643874074
13782708 43 18113053830972710218
13785724 45 18056489339945729374
14251764 18 18410853278949407204
14341114 176 18410578413511036465
14347332 77 18336260167546865692
14420673 8 18409451349673389803
15183329 4 18411703162176460482
15196674 1 18410855494873275373
15250474 111 18129085887543410902
17844677 252 18411707598988726241
1813 80 17095518526130904124
18222031 100 16588020238216587916
1979834 28 17632294528682400014
21065198 57 18340205318441557961
21130935 74 18273215317514282178
21267235 1 18410299111550030445
21279426 13 18409727327091747541
21682296 61 18272377421039798783
221357 26 18408602561156510548
23522609 53 18117870770250942548
23559900 14 18412258449902977009
23569943 247 17460021903558204187
3004659 81 18408044001150042350
335352 9 18411699864195712245
350125 39 18409730633984372269
4073 2 18042127729479543914
4214541 1 18411136952801894697
46194498 28 17967534601704358916
465052 167 18273218582480263422
5104073 3 18341330071528946785
59755656 215 18335983069258296591
77779 3 18410574032406868285
9709674 26 18264208187152889722
9965369 4 18412263922213434633
9995097 60 18343864394212364447
9996256 80 18410574015633278451

>  <PUBCHEM_SHAPE_MULTIPOLES>  (1) 
473.16
17.08
2.63
0.75
1.98
0.23
0.06
-6.27
1.07
1.14
0.05
0.51
-0.14
0.17

>  <PUBCHEM_SHAPE_SELFOVERLAP>  (1) 
1036.085

>  <PUBCHEM_SHAPE_VOLUME>  (1) 
257

>  <PUBCHEM_COORDINATE_TYPE>  (1) 
2
5
10

$$$$
