16338
     RDKit          3D

 20 21  0  0  0  0  0  0  0  0999 V2000
   -4.2397    2.4781   -0.4307 Cl  0  0  0  0  0  0  0  0  0  0  0  0
    4.2663    2.4865    0.4129 Cl  0  0  0  0  0  0  0  0  0  0  0  0
   -1.8648   -0.2338    0.0680 N   0  0  0  0  0  0  0  0  0  0  0  0
    1.8675   -0.2079   -0.0049 N   0  0  0  0  0  0  0  0  0  0  0  0
   -0.5268   -0.2278   -0.5022 C   0  0  0  0  0  0  0  0  0  0  0  0
    0.5357   -0.1844    0.5862 C   0  0  0  0  0  0  0  0  0  0  0  0
   -2.8773   -0.2307   -0.9876 C   0  0  0  0  0  0  0  0  0  0  0  0
    2.8949   -0.2050    1.0274 C   0  0  0  0  0  0  0  0  0  0  0  0
   -4.2675   -0.2471   -0.4391 C   0  0  0  0  0  0  0  0  0  0  0  0
    4.2806   -0.2387    0.4397 C   0  0  0  0  0  0  0  0  0  0  0  0
   -4.9574    0.9322   -0.1582 C   0  0  0  0  0  0  0  0  0  0  0  0
    4.9633    0.9321    0.1355 C   0  0  0  0  0  0  0  0  0  0  0  0
   -4.8741   -1.4818   -0.2088 C   0  0  0  0  0  0  0  0  0  0  0  0
    4.8602   -1.4806    0.2087 C   0  0  0  0  0  0  0  0  0  0  0  0
   -6.2539    0.8767    0.3533 C   0  0  0  0  0  0  0  0  0  0  0  0
    6.2459    0.8607   -0.4082 C   0  0  0  0  0  0  0  0  0  0  0  0
   -6.1707   -1.5372    0.3029 C   0  0  0  0  0  0  0  0  0  0  0  0
    6.1427   -1.5519   -0.3351 C   0  0  0  0  0  0  0  0  0  0  0  0
   -6.8606   -0.3581    0.5838 C   0  0  0  0  0  0  0  0  0  0  0  0
    6.8356   -0.3814   -0.6436 C   0  0  0  0  0  0  0  0  0  0  0  0
  1 11  1  0
  2 12  1  0
  3  5  1  0
  3  7  1  0
  4  6  1  0
  4  8  1  0
  5  6  1  0
  7  9  1  0
  8 10  1  0
  9 11  2  0
  9 13  1  0
 10 12  2  0
 10 14  1  0
 11 15  1  0
 12 16  1  0
 13 17  2  0
 14 18  2  0
 15 19  2  0
 16 20  2  0
 17 19  1  0
 18 20  1  0
M  END
>  <PUBCHEM_COMPOUND_CID>  (1) 
16338

>  <PUBCHEM_CONFORMER_RMSD>  (1) 
0.8

>  <PUBCHEM_CONFORMER_DIVERSEORDER>  (1) 
1
158
83
57
91
21
75
135
16
103
36
20
149
139
11
122
112
2
27
61
63
77
93
4
136
12
125
147
62
7
102
87
151
95
92
39
98
154
41
72
88
138
40
82
19
133
145
128
113
35
79
34
144
124
111
6
85
50
53
60
121
137
22
123
116
157
59
13
119
134
24
141
76
130
10
74
29
97
43
132
55
3
80
114
89
81
44
8
58
107
28
108
78
65
131
15
73
18
140
148
159
5
106
17
110
109
69
126
32
56
156
30
118
152
100
52
115
129
33
67
45
70
120
155
37
117
14
54
86
48
26
25
94
47
68
9
46
101
90
49
127
31
64
105
23
150
104
96
99
153
143
71
146
51
38
142
42
84
66

>  <PUBCHEM_MMFF94_PARTIAL_CHARGES>  (1) 
30
1 -0.18
10 -0.14
11 0.18
12 0.18
13 -0.15
14 -0.15
15 -0.15
16 -0.15
17 -0.15
18 -0.15
19 -0.15
2 -0.18
20 -0.15
29 0.36
3 -0.9
30 0.36
31 0.15
32 0.15
33 0.15
34 0.15
35 0.15
36 0.15
37 0.15
38 0.15
4 -0.9
5 0.27
6 0.27
7 0.41
8 0.41
9 -0.14

>  <PUBCHEM_EFFECTIVE_ROTOR_COUNT>  (1) 
7

>  <PUBCHEM_PHARMACOPHORE_FEATURES>  (1) 
6
1 3 cation
1 3 donor
1 4 cation
1 4 donor
6 10 12 14 16 18 20 rings
6 9 11 13 15 17 19 rings

>  <PUBCHEM_HEAVY_ATOM_COUNT>  (1) 
20

>  <PUBCHEM_ATOM_DEF_STEREO_COUNT>  (1) 
0

>  <PUBCHEM_ATOM_UDEF_STEREO_COUNT>  (1) 
0

>  <PUBCHEM_BOND_DEF_STEREO_COUNT>  (1) 
0

>  <PUBCHEM_BOND_UDEF_STEREO_COUNT>  (1) 
0

>  <PUBCHEM_ISOTOPIC_ATOM_COUNT>  (1) 
0

>  <PUBCHEM_COMPONENT_COUNT>  (1) 
1

>  <PUBCHEM_CACTVS_TAUTO_COUNT>  (1) 
1

>  <PUBCHEM_CONFORMER_ID>  (1) 
00003FD200000001

>  <PUBCHEM_MMFF94_ENERGY>  (1) 
37.933

>  <PUBCHEM_FEATURE_SELFOVERLAP>  (1) 
30.447

>  <PUBCHEM_SHAPE_FINGERPRINT>  (1) 
10299344 5 18410857659162389095
10638233 991 17385733508044033884
11315181 36 17967253105510871103
11524674 6 16486972916933914519
12166972 35 18408889554966353608
12516196 113 17022621978861105453
12596602 18 18260546719164486033
12616971 3 17632568379337396364
12730499 353 18040715857976520554
13533116 47 17458616771201077066
1420 363 17458344147761546571
14251732 16 18333732446365513243
14251752 14 17989205923588255136
14341114 176 18408885161536062993
14933364 13 18410576188480398885
15183329 4 16056881329440306426
15716309 27 18113336401667026707
17093844 174 11239995647056037831
17844677 252 18411141333183317929
20281389 69 18343580737624356537
21150785 3 17676211281894616686
21315763 28 18410572885645351462
220451 1 17821726126386611363
221357 26 18409446973682002868
23035841 295 18408039606707791955
23081809 10 17489581303160728565
23198884 109 18186803565248042851
23424782 7 18187650266131377795
23536379 177 18412544301430282706
29717793 49 17489873735258459116
3004659 81 18202281399396674346
328311 84 18341618109284386686
4073 2 18114185297716435338
53794403 172 17314801904492630500
542803 24 18410849966875630667
559249 180 10952047858272564373
59755656 215 15626232294769856108
59755656 520 18259982686811286419
9996256 80 18335420157832648909

>  <PUBCHEM_SHAPE_MULTIPOLES>  (1) 
405.37
23.09
1.96
0.86
0.28
1.05
0
-1.84
0.28
-0.02
0.01
-0.06
0
0.55

>  <PUBCHEM_SHAPE_SELFOVERLAP>  (1) 
824.262

>  <PUBCHEM_SHAPE_VOLUME>  (1) 
234.5

>  <PUBCHEM_COORDINATE_TYPE>  (1) 
2
5
10

$$$$
