1633
     RDKit          3D

 25 28  0  0  1  0  0  0  0  0999 V2000
    2.0493    2.3009    0.0720 O   0  0  0  0  0  0  0  0  0  0  0  0
   -8.2726    0.9228   -0.9742 O   0  0  0  0  0  0  0  0  0  0  0  0
   -3.4377   -0.2518    0.1523 N   0  0  0  0  0  0  0  0  0  0  0  0
   -6.2885   -0.0536   -0.2092 N   0  0  0  0  0  0  0  0  0  0  0  0
    4.3627    1.9089   -0.0332 N   0  0  0  0  0  0  0  0  0  0  0  0
    2.9402    0.0300   -0.2630 C   0  0  0  0  0  0  0  0  0  0  0  0
   -4.0962    1.0570    0.0756 C   0  0  0  0  0  0  0  0  0  0  0  0
   -4.2663   -1.4574    0.0414 C   0  0  0  0  0  0  0  0  0  0  0  0
    2.1780   -0.6413    0.8664 C   0  0  0  0  0  0  0  0  0  0  0  0
   -5.3892    0.9657   -0.7318 C   0  0  0  0  0  0  0  0  0  0  0  0
   -5.6947   -1.1770    0.5030 C   0  0  0  0  0  0  0  0  0  0  0  0
    4.3923   -0.3505   -0.3162 C   0  0  0  0  0  0  0  0  0  0  0  0
   -2.0588   -0.3475    0.3277 C   0  0  0  0  0  0  0  0  0  0  0  0
    0.6865   -0.5382    0.6775 C   0  0  0  0  0  0  0  0  0  0  0  0
    3.0091    1.5552   -0.0525 C   0  0  0  0  0  0  0  0  0  0  0  0
    5.1774    0.7932   -0.1867 C   0  0  0  0  0  0  0  0  0  0  0  0
   -1.3744    0.6450    1.0295 C   0  0  0  0  0  0  0  0  0  0  0  0
   -1.3627   -1.4360   -0.1982 C   0  0  0  0  0  0  0  0  0  0  0  0
    0.0060    0.5490    1.2053 C   0  0  0  0  0  0  0  0  0  0  0  0
    0.0177   -1.5318   -0.0223 C   0  0  0  0  0  0  0  0  0  0  0  0
    4.9829   -1.5895   -0.4827 C   0  0  0  0  0  0  0  0  0  0  0  0
    6.5572    0.7563   -0.2092 C   0  0  0  0  0  0  0  0  0  0  0  0
   -7.6578    0.0374   -0.3905 C   0  0  0  0  0  0  0  0  0  0  0  0
    6.3797   -1.6550   -0.5086 C   0  0  0  0  0  0  0  0  0  0  0  0
    7.1599   -0.4920   -0.3726 C   0  0  0  0  0  0  0  0  0  0  0  0
  1 15  2  0
  2 23  2  0
  3  7  1  0
  3  8  1  0
  3 13  1  0
  4 10  1  0
  4 11  1  0
  4 23  1  0
  5 15  1  0
  5 16  1  0
  6  9  1  0
  6 12  1  0
  6 15  1  0
  7 10  1  0
  8 11  1  0
  9 14  1  0
 12 16  2  0
 12 21  1  0
 13 17  2  0
 13 18  1  0
 14 19  2  0
 14 20  1  0
 16 22  1  0
 17 19  1  0
 18 20  2  0
 21 24  2  0
 22 25  2  0
 24 25  1  0
M  END
>  <PUBCHEM_COMPOUND_CID>  (1) 
1633

>  <PUBCHEM_CONFORMER_RMSD>  (1) 
0.8

>  <PUBCHEM_CONFORMER_DIVERSEORDER>  (1) 
2
7
23
5
8
13
30
17
24
4
25
21
3
19
16
6
12
11
27
20
18
29
10
26
22
1
14
9
15
28

>  <PUBCHEM_MMFF94_PARTIAL_CHARGES>  (1) 
35
1 -0.57
10 0.3
11 0.3
12 -0.14
13 0.1
14 -0.14
15 0.57
16 0.12
17 -0.15
18 -0.15
19 -0.15
2 -0.57
20 -0.15
21 -0.15
22 -0.15
23 0.57
24 -0.15
25 -0.15
3 -0.84
37 0.15
38 0.15
39 0.37
4 -0.66
40 0.15
41 0.15
42 0.15
43 0.15
44 0.06
45 0.15
46 0.15
5 -0.55
6 0.2
7 0.37
8 0.37
9 0.14

>  <PUBCHEM_EFFECTIVE_ROTOR_COUNT>  (1) 
5.6

>  <PUBCHEM_PHARMACOPHORE_FEATURES>  (1) 
8
1 1 acceptor
1 2 acceptor
1 3 cation
1 5 donor
5 5 6 12 15 16 rings
6 12 16 21 22 24 25 rings
6 13 14 17 18 19 20 rings
6 3 4 7 8 10 11 rings

>  <PUBCHEM_HEAVY_ATOM_COUNT>  (1) 
25

>  <PUBCHEM_ATOM_DEF_STEREO_COUNT>  (1) 
0

>  <PUBCHEM_ATOM_UDEF_STEREO_COUNT>  (1) 
1

>  <PUBCHEM_BOND_DEF_STEREO_COUNT>  (1) 
0

>  <PUBCHEM_BOND_UDEF_STEREO_COUNT>  (1) 
0

>  <PUBCHEM_ISOTOPIC_ATOM_COUNT>  (1) 
0

>  <PUBCHEM_COMPONENT_COUNT>  (1) 
1

>  <PUBCHEM_CACTVS_TAUTO_COUNT>  (1) 
3

>  <PUBCHEM_CONFORMER_ID>  (1) 
0000066100000002

>  <PUBCHEM_MMFF94_ENERGY>  (1) 
81.5044

>  <PUBCHEM_FEATURE_SELFOVERLAP>  (1) 
40.686

>  <PUBCHEM_SHAPE_FINGERPRINT>  (1) 
10299344 5 17917713500819511307
106641 1 7853566916262400941
10670039 82 18340202999613522673
10835480 77 18270398416438032896
11135609 127 18199180862511694088
11315181 36 18272374183425261275
11719270 70 18059855039358788166
12166972 35 18410298038120073032
12236239 1 18273501165336866706
12516196 113 9583520914692428631
12838862 33 18271794745139798130
13533116 47 17703793587987784310
13899415 154 13695589953296652886
14170010 4 18342457058785194720
14251752 14 18343018882692267283
14251764 18 17775571935255644600
14294032 229 17415577423698649353
14933364 13 18333452049578548703
15183329 4 18410576167031812976
15461852 350 13912604996684658963
15475509 35 14189032012438158180
15716309 27 8574711295494785977
15849732 13 18408042917990245639
1754911 235 18335128792838570637
1813 80 14189584047729387784
18335252 114 18410566293298015301
18681886 176 18343014523273971611
19611394 137 17896053199372862265
20157964 124 18413110563504979262
21033648 29 18041834133646402080
21150785 3 18273493472807872151
21267235 1 18412271643989808330
21792961 116 18413392021444544675
221357 26 18409166597784416396
22224240 67 13334739046149139849
23536379 177 18410576180148959762
23559900 14 18342734169294235768
249057 3 18410575101959278687
29717793 49 18131919252035484924
3004659 81 18410012139764215402
335352 9 18411141334032449406
3545911 37 18113899364647488795
3633792 109 18341051830815414851
4073 2 17895199960263139946
4325135 7 18272931618450750903
5283156 175 17846501413510685153
5758199 1 15430036544016846953
59682541 35 9367334942844576349
59755656 215 18187083931933578986
59755656 520 17530961419004180187

>  <PUBCHEM_SHAPE_MULTIPOLES>  (1) 
487.81
21.56
1.78
0.87
15.78
0.2
-0.1
0.27
6.46
-1.26
0.1
0.34
0.04
0.76

>  <PUBCHEM_SHAPE_SELFOVERLAP>  (1) 
1063.505

>  <PUBCHEM_SHAPE_VOLUME>  (1) 
264.9

>  <PUBCHEM_COORDINATE_TYPE>  (1) 
2
5
10

$$$$
