16344
     RDKit          3D

 27 28  0  0  0  0  0  0  0  0999 V2000
    7.7459   -2.4656    1.4780 Cl  0  0  0  0  0  0  0  0  0  0  0  0
   -8.8191    0.3105    2.1296 Cl  0  0  0  0  0  0  0  0  0  0  0  0
    5.7109    0.0320   -0.2109 N   0  0  0  0  0  0  0  0  0  0  0  0
   -5.9454    1.1265    0.0537 N   0  0  0  0  0  0  0  0  0  0  0  0
   -0.5313    1.0268   -0.3049 C   0  0  0  0  0  0  0  0  0  0  0  0
    0.8753    1.2589    0.2520 C   0  0  0  0  0  0  0  0  0  0  0  0
   -1.5598    1.9206    0.3903 C   0  0  0  0  0  0  0  0  0  0  0  0
    1.9070    0.3908   -0.4717 C   0  0  0  0  0  0  0  0  0  0  0  0
   -2.9607    1.7118   -0.1894 C   0  0  0  0  0  0  0  0  0  0  0  0
    3.3450    0.6348   -0.0034 C   0  0  0  0  0  0  0  0  0  0  0  0
   -3.9934    2.5859    0.5284 C   0  0  0  0  0  0  0  0  0  0  0  0
    4.3693   -0.2537   -0.7084 C   0  0  0  0  0  0  0  0  0  0  0  0
   -5.4017    2.4746   -0.0597 C   0  0  0  0  0  0  0  0  0  0  0  0
    6.7024   -0.7863   -0.8940 C   0  0  0  0  0  0  0  0  0  0  0  0
   -7.3090    1.0720   -0.4540 C   0  0  0  0  0  0  0  0  0  0  0  0
    8.0957   -0.5145   -0.3923 C   0  0  0  0  0  0  0  0  0  0  0  0
   -7.8894   -0.3137   -0.3550 C   0  0  0  0  0  0  0  0  0  0  0  0
    8.6420   -1.2287    0.6742 C   0  0  0  0  0  0  0  0  0  0  0  0
   -8.5858   -0.7364    0.7774 C   0  0  0  0  0  0  0  0  0  0  0  0
    8.8446    0.4796   -1.0223 C   0  0  0  0  0  0  0  0  0  0  0  0
   -7.7170   -1.1827   -1.4325 C   0  0  0  0  0  0  0  0  0  0  0  0
    9.9370   -0.9487    1.1106 C   0  0  0  0  0  0  0  0  0  0  0  0
   -9.1096   -2.0281    0.8321 C   0  0  0  0  0  0  0  0  0  0  0  0
   10.1395    0.7595   -0.5857 C   0  0  0  0  0  0  0  0  0  0  0  0
   -8.2409   -2.4743   -1.3775 C   0  0  0  0  0  0  0  0  0  0  0  0
   10.6856    0.0454    0.4807 C   0  0  0  0  0  0  0  0  0  0  0  0
   -8.9371   -2.8970   -0.2453 C   0  0  0  0  0  0  0  0  0  0  0  0
  1 18  1  0
  2 19  1  0
  3 12  1  0
  3 14  1  0
  4 13  1  0
  4 15  1  0
  5  6  1  0
  5  7  1  0
  6  8  1  0
  7  9  1  0
  8 10  1  0
  9 11  1  0
 10 12  1  0
 11 13  1  0
 14 16  1  0
 15 17  1  0
 16 18  2  0
 16 20  1  0
 17 19  2  0
 17 21  1  0
 18 22  1  0
 19 23  1  0
 20 24  2  0
 21 25  2  0
 22 26  2  0
 23 27  2  0
 24 26  1  0
 25 27  1  0
M  END
>  <PUBCHEM_COMPOUND_CID>  (1) 
16344

>  <PUBCHEM_CONFORMER_RMSD>  (1) 
1.4

>  <PUBCHEM_CONFORMER_DIVERSEORDER>  (1) 
1
18
7
63
103
48
52
37
84
127
64
85
69
3
54
5
107
82
122
100
59
34
113
95
105
17
93
26
68
112
13
36
45
44
71
61
129
39
10
74
73
86
25
108
80
20
15
70
78
110
77
126
96
46
90
101
99
88
114
27
60
8
97
33
102
94
115
72
49
58
109
38
91
128
50
57
35
120
75
116
55
106
119
124
87
51
92
30
47
65
24
42
43
111
104
19
12
89
41
66
81
125
56
118
6
62
22
76
53
2
29
16
28
21
98
123
23
79
121
67
32
40
117
4
11
31
14
83
9

>  <PUBCHEM_MMFF94_PARTIAL_CHARGES>  (1) 
30
1 -0.18
12 0.27
13 0.27
14 0.41
15 0.41
16 -0.14
17 -0.14
18 0.18
19 0.18
2 -0.18
20 -0.15
21 -0.15
22 -0.15
23 -0.15
24 -0.15
25 -0.15
26 -0.15
27 -0.15
3 -0.9
4 -0.9
46 0.36
47 0.36
52 0.15
53 0.15
54 0.15
55 0.15
56 0.15
57 0.15
58 0.15
59 0.15

>  <PUBCHEM_EFFECTIVE_ROTOR_COUNT>  (1) 
14

>  <PUBCHEM_PHARMACOPHORE_FEATURES>  (1) 
6
1 3 cation
1 3 donor
1 4 cation
1 4 donor
6 16 18 20 22 24 26 rings
6 17 19 21 23 25 27 rings

>  <PUBCHEM_HEAVY_ATOM_COUNT>  (1) 
27

>  <PUBCHEM_ATOM_DEF_STEREO_COUNT>  (1) 
0

>  <PUBCHEM_ATOM_UDEF_STEREO_COUNT>  (1) 
0

>  <PUBCHEM_BOND_DEF_STEREO_COUNT>  (1) 
0

>  <PUBCHEM_BOND_UDEF_STEREO_COUNT>  (1) 
0

>  <PUBCHEM_ISOTOPIC_ATOM_COUNT>  (1) 
0

>  <PUBCHEM_COMPONENT_COUNT>  (1) 
1

>  <PUBCHEM_CACTVS_TAUTO_COUNT>  (1) 
1

>  <PUBCHEM_CONFORMER_ID>  (1) 
00003FD800000001

>  <PUBCHEM_MMFF94_ENERGY>  (1) 
36.5485

>  <PUBCHEM_FEATURE_SELFOVERLAP>  (1) 
30.447

>  <PUBCHEM_SHAPE_FINGERPRINT>  (1) 
10162869 55 17894633660978649348
11061554 47 11025799829514345254
11181472 205 9799697004479487900
12089408 11 18113902628823134012
12559415 86 8934727738195013416
14040222 383 18272365365483239410
14202775 3 18272092635651209670
14428016 248 12031780384097451368
14671636 106 18413107277338202157
15350500 55 11241968174868798865
15392192 104 18272088267822008582
1754908 1 17489864925536892675
17686467 74 18201996616641986264
1818759 1 18202285801147263790
21095123 293 10807931574331331603
21362267 20 18343018882978280175
232437 2 18408323285450773940
23729398 52 18129378383522929992
2835820 33 18343864429136293412
3711267 37 11167939195168583875
4173938 188 18343298176469144506
4339292 15 18341888607073632565
437795 160 18413102853558992400
44280117 145 18336265657048879293
54039377 194 18411419540586533693
59682541 35 17346596365994169620
6698420 124 11815599892591744532
67123 10 18409167697628308140
9962374 69 18409167735940297740

>  <PUBCHEM_SHAPE_MULTIPOLES>  (1) 
549.42
51.25
2.72
1.31
38.73
0.62
-0.31
27.38
-4.92
-6.64
-0.19
-1.24
0.51
-3.26

>  <PUBCHEM_SHAPE_SELFOVERLAP>  (1) 
1088.018

>  <PUBCHEM_SHAPE_VOLUME>  (1) 
324.7

>  <PUBCHEM_COORDINATE_TYPE>  (1) 
2
5
10

$$$$
