16347
     RDKit          3D

 26 29  0  0  1  0  0  0  0  0999 V2000
   -2.6783   -2.4023    0.8960 O   0  0  0  0  0  0  0  0  0  0  0  0
   -1.5132    1.9505    2.3441 O   0  0  0  0  0  0  0  0  0  0  0  0
   -0.7444   -1.0374    0.7059 N   0  0  0  0  0  0  0  0  0  0  0  0
   -0.4196    0.2470    1.1399 N   0  0  0  0  0  0  0  0  0  0  0  0
   -2.5692   -0.1911    1.8774 C   0  0  0  0  0  0  0  0  0  0  0  0
   -3.8459    0.3504    1.2625 C   0  0  0  0  0  0  0  0  0  0  0  0
   -2.0391   -1.3813    1.0972 C   0  0  0  0  0  0  0  0  0  0  0  0
   -1.4612    0.8383    1.8422 C   0  0  0  0  0  0  0  0  0  0  0  0
   -3.6346    0.7762   -0.1914 C   0  0  0  0  0  0  0  0  0  0  0  0
    0.1920   -1.7961   -0.0361 C   0  0  0  0  0  0  0  0  0  0  0  0
   -4.9323    1.2891   -0.8181 C   0  0  0  0  0  0  0  0  0  0  0  0
    1.4490   -1.2112   -0.3155 C   0  0  0  0  0  0  0  0  0  0  0  0
    0.7971    0.8076    0.8641 C   0  0  0  0  0  0  0  0  0  0  0  0
    1.7511    0.1632    0.1665 C   0  0  0  0  0  0  0  0  0  0  0  0
   -4.7111    1.7454   -2.2600 C   0  0  0  0  0  0  0  0  0  0  0  0
   -0.0837   -3.0907   -0.4948 C   0  0  0  0  0  0  0  0  0  0  0  0
    2.9930    0.9014   -0.0409 C   0  0  0  0  0  0  0  0  0  0  0  0
    2.3969   -1.9418   -1.0501 C   0  0  0  0  0  0  0  0  0  0  0  0
    0.8716   -3.8013   -1.2231 C   0  0  0  0  0  0  0  0  0  0  0  0
    2.1081   -3.2292   -1.5004 C   0  0  0  0  0  0  0  0  0  0  0  0
   -5.9914    2.2869   -2.8755 C   0  0  0  0  0  0  0  0  0  0  0  0
    3.1390    1.7091   -1.1657 C   0  0  0  0  0  0  0  0  0  0  0  0
    4.0254    0.7940    0.8871 C   0  0  0  0  0  0  0  0  0  0  0  0
    4.3260    2.4144   -1.3638 C   0  0  0  0  0  0  0  0  0  0  0  0
    5.2124    1.4993    0.6890 C   0  0  0  0  0  0  0  0  0  0  0  0
    5.3626    2.3096   -0.4364 C   0  0  0  0  0  0  0  0  0  0  0  0
  1  7  2  0
  2  8  2  0
  3  4  1  0
  3  7  1  0
  3 10  1  0
  4  8  1  0
  4 13  1  0
  5  6  1  0
  5  7  1  0
  5  8  1  0
  6  9  1  0
  9 11  1  0
 10 12  2  0
 10 16  1  0
 11 15  1  0
 12 14  1  0
 12 18  1  0
 13 14  2  0
 14 17  1  0
 15 21  1  0
 16 19  2  0
 17 22  2  0
 17 23  1  0
 18 20  2  0
 19 20  1  0
 22 24  1  0
 23 25  2  0
 24 26  2  0
 25 26  1  0
M  END
>  <PUBCHEM_COMPOUND_CID>  (1) 
16347

>  <PUBCHEM_CONFORMER_RMSD>  (1) 
0.8

>  <PUBCHEM_CONFORMER_DIVERSEORDER>  (1) 
1
15
3
13
4
12
5
7
14
11
9
8
6
10
2

>  <PUBCHEM_MMFF94_PARTIAL_CHARGES>  (1) 
31
1 -0.57
10 0.12
12 0.03
13 -0.04
14 -0.06
16 -0.15
17 0.03
18 -0.15
19 -0.15
2 -0.57
20 -0.15
22 -0.15
23 -0.15
24 -0.15
25 -0.15
26 -0.15
3 -0.18
34 0.15
37 0.15
38 0.15
39 0.15
4 -0.17
40 0.15
44 0.15
45 0.15
46 0.15
47 0.15
48 0.15
5 0.12
7 0.57
8 0.57

>  <PUBCHEM_EFFECTIVE_ROTOR_COUNT>  (1) 
5.2

>  <PUBCHEM_PHARMACOPHORE_FEATURES>  (1) 
9
1 1 acceptor
1 2 acceptor
1 21 hydrophobe
1 5 anion
4 6 9 11 15 hydrophobe
5 3 4 5 7 8 rings
6 10 12 16 18 19 20 rings
6 17 22 23 24 25 26 rings
6 3 4 10 12 13 14 rings

>  <PUBCHEM_HEAVY_ATOM_COUNT>  (1) 
26

>  <PUBCHEM_ATOM_DEF_STEREO_COUNT>  (1) 
0

>  <PUBCHEM_ATOM_UDEF_STEREO_COUNT>  (1) 
1

>  <PUBCHEM_BOND_DEF_STEREO_COUNT>  (1) 
0

>  <PUBCHEM_BOND_UDEF_STEREO_COUNT>  (1) 
0

>  <PUBCHEM_ISOTOPIC_ATOM_COUNT>  (1) 
0

>  <PUBCHEM_COMPONENT_COUNT>  (1) 
1

>  <PUBCHEM_CACTVS_TAUTO_COUNT>  (1) 
3

>  <PUBCHEM_CONFORMER_ID>  (1) 
00003FDB00000001

>  <PUBCHEM_MMFF94_ENERGY>  (1) 
67.8556

>  <PUBCHEM_FEATURE_SELFOVERLAP>  (1) 
45.792

>  <PUBCHEM_SHAPE_FINGERPRINT>  (1) 
10006869 2 17055035470427387681
105312 117 18336546113531959564
10764073 3 16662308625842156806
11069576 57 17701527412364555407
11578080 2 17967821509070939055
11582403 64 18113887290877267802
11720765 8 17107881164839381511
12236239 1 18117284868756636576
12422481 6 17967245412713098780
12788726 201 17476090493795429826
12969540 114 18201720703541785456
13103583 49 9222671180540616757
13140716 1 18055663679505953322
13257819 101 18186796993615939525
13540713 5 17487628416101972793
13583140 156 17750243667340549760
13911987 19 18270694189086623529
14790565 3 17697914653162717409
15238133 3 15574720144769998381
15475509 35 10951754322732528277
16752209 62 17913492621620105810
17492 54 17632001010368964701
20511986 3 18190450744650841224
20715895 44 18115015304156589125
22122407 14 16879360115236551876
22182313 1 18263383450426585267
23366157 5 18193865685737243722
23559900 14 18199479779012912506
238 59 18193553364088836783
2838139 119 17821997727539632581
312425 83 18121762951761658749
350125 39 18128002783185986066
46194498 28 18122330299740264773
513202 73 11459517489785344952
53917941 68 18057594563720960654
5951187 136 17031590498321517693
633830 44 17273441497932749512
7471813 234 17557981740972841371
9862522 239 18263927798865792820
9981440 41 18270697449219873122

>  <PUBCHEM_SHAPE_MULTIPOLES>  (1) 
513.37
10.91
3.9
2.21
4.48
3.35
-0.36
-12.49
-5.66
-1.87
-2.4
3.09
-1.02
2.57

>  <PUBCHEM_SHAPE_SELFOVERLAP>  (1) 
1119.47

>  <PUBCHEM_SHAPE_VOLUME>  (1) 
278.4

>  <PUBCHEM_COORDINATE_TYPE>  (1) 
2
5
10

$$$$
