16359
     RDKit          3D

 26 29  0  0  1  0  0  0  0  0999 V2000
    5.8879   -2.0448    0.9826 F   0  0  0  0  0  0  0  0  0  0  0  0
    6.6415   -0.9003   -0.7224 F   0  0  0  0  0  0  0  0  0  0  0  0
    5.1690   -2.4873   -1.0352 F   0  0  0  0  0  0  0  0  0  0  0  0
    2.9149    2.4997   -0.2551 O   0  0  0  0  0  0  0  0  0  0  0  0
   -7.0490   -1.6159   -0.2074 O   0  0  0  0  0  0  0  0  0  0  0  0
    1.1437    0.8099   -0.3691 C   0  0  0  0  0  0  0  0  0  0  0  0
    0.1533    1.7798    0.3317 C   0  0  0  0  0  0  0  0  0  0  0  0
   -1.3470    1.4150    0.2888 C   0  0  0  0  0  0  0  0  0  0  0  0
    2.4964    1.2415    0.2853 C   0  0  0  0  0  0  0  0  0  0  0  0
   -1.6189   -0.0846    0.5508 C   0  0  0  0  0  0  0  0  0  0  0  0
    0.7766   -0.6639   -0.0580 C   0  0  0  0  0  0  0  0  0  0  0  0
    0.6734    1.8658    1.7844 C   0  0  0  0  0  0  0  0  0  0  0  0
   -0.6987   -0.9891   -0.2861 C   0  0  0  0  0  0  0  0  0  0  0  0
    2.1487    1.4578    1.7614 C   0  0  0  0  0  0  0  0  0  0  0  0
   -2.0177    1.8569   -1.0214 C   0  0  0  0  0  0  0  0  0  0  0  0
    1.1863    1.0227   -1.8958 C   0  0  0  0  0  0  0  0  0  0  0  0
   -3.0769   -0.4619    0.3354 C   0  0  0  0  0  0  0  0  0  0  0  0
   -3.5334    1.7045   -0.9214 C   0  0  0  0  0  0  0  0  0  0  0  0
   -3.9604    0.3639   -0.3839 C   0  0  0  0  0  0  0  0  0  0  0  0
    3.5825    0.2669    0.1118 C   0  0  0  0  0  0  0  0  0  0  0  0
   -3.5550   -1.6751    0.8620 C   0  0  0  0  0  0  0  0  0  0  0  0
   -5.2965   -0.0341   -0.5536 C   0  0  0  0  0  0  0  0  0  0  0  0
   -4.8816   -2.0635    0.6778 C   0  0  0  0  0  0  0  0  0  0  0  0
    4.4700   -0.5293   -0.0300 C   0  0  0  0  0  0  0  0  0  0  0  0
   -5.7523   -1.2431   -0.0310 C   0  0  0  0  0  0  0  0  0  0  0  0
    5.5433   -1.4915   -0.2015 C   0  0  0  0  0  0  0  0  0  0  0  0
  1 26  1  0
  2 26  1  0
  3 26  1  0
  4  9  1  0
  5 25  1  0
  6  7  1  0
  6  9  1  0
  6 11  1  0
  6 16  1  0
  7  8  1  0
  7 12  1  0
  8 10  1  0
  8 15  1  0
  9 14  1  0
  9 20  1  0
 10 13  1  0
 10 17  1  0
 11 13  1  0
 12 14  1  0
 15 18  1  0
 17 19  2  0
 17 21  1  0
 18 19  1  0
 19 22  1  0
 20 24  3  0
 21 23  2  0
 22 25  2  0
 23 25  1  0
 24 26  1  0
M  END
>  <PUBCHEM_COMPOUND_CID>  (1) 
16359

>  <PUBCHEM_CONFORMER_RMSD>  (1) 
0.6

>  <PUBCHEM_CONFORMER_DIVERSEORDER>  (1) 
1
11
29
26
30
9
27
31
25
6
28
3
7
21
24
17
23
2
8
20
13
14
4
16
10
15
18
19
12
5
22

>  <PUBCHEM_MMFF94_PARTIAL_CHARGES>  (1) 
22
1 -0.34
10 0.14
17 -0.14
18 0.14
19 -0.14
2 -0.34
20 -0.2
21 -0.15
22 -0.15
23 -0.15
24 -0.2
25 0.08
26 1.22
3 -0.34
4 -0.68
45 0.4
46 0.15
47 0.15
48 0.15
49 0.45
5 -0.53
9 0.48

>  <PUBCHEM_EFFECTIVE_ROTOR_COUNT>  (1) 
1.4

>  <PUBCHEM_PHARMACOPHORE_FEATURES>  (1) 
7
1 4 acceptor
1 4 donor
1 5 donor
5 6 7 9 12 14 rings
6 17 19 21 22 23 25 rings
6 6 7 8 10 11 13 rings
6 8 10 15 17 18 19 rings

>  <PUBCHEM_HEAVY_ATOM_COUNT>  (1) 
26

>  <PUBCHEM_ATOM_DEF_STEREO_COUNT>  (1) 
1

>  <PUBCHEM_ATOM_UDEF_STEREO_COUNT>  (1) 
4

>  <PUBCHEM_BOND_DEF_STEREO_COUNT>  (1) 
0

>  <PUBCHEM_BOND_UDEF_STEREO_COUNT>  (1) 
0

>  <PUBCHEM_ISOTOPIC_ATOM_COUNT>  (1) 
0

>  <PUBCHEM_COMPONENT_COUNT>  (1) 
1

>  <PUBCHEM_CACTVS_TAUTO_COUNT>  (1) 
9

>  <PUBCHEM_CONFORMER_ID>  (1) 
00003FE700000001

>  <PUBCHEM_MMFF94_ENERGY>  (1) 
72.1745

>  <PUBCHEM_FEATURE_SELFOVERLAP>  (1) 
35.746

>  <PUBCHEM_SHAPE_FINGERPRINT>  (1) 
10366900 7 14201391699274936341
11578080 2 16445295782670124495
11796584 16 18336543803177008290
12166972 35 18333453170560199653
12236239 1 16298934460010880985
12403259 118 15482405213564459507
12403259 226 18411412951542802889
12422481 6 15769225929377493124
12516196 113 18202843245379957322
12616971 3 16200145534630269057
12633257 1 17059778926471126837
12760667 363 18342178869152445403
13134695 92 17704063032080942136
13288520 33 18409167697369500989
13402501 40 18411702088482667767
13533116 47 18202282549809664904
13685833 64 18413671318297706066
13782708 43 18342736351665499791
13955234 65 18057319702999966696
14251751 18 18409171008499317854
14294032 229 17387117678185164589
14341114 328 13038894526516368594
14347332 77 18335137570485795493
15183329 4 17821728312672456554
15510800 12 18129665176164316758
17349148 13 16917071078787190738
1813 80 17675919911413573988
18222031 100 17458059378508061740
19784866 240 18411706482223181481
20028762 73 18131632304786162926
20567600 75 18411416194147503558
21033650 10 17023179389029862557
21130935 74 18200034079308329707
21150785 3 17603872217185371750
21267235 1 18186806911597382259
21279426 13 18410851023685641829
21641784 216 13912592828050708534
21682296 61 18201726110895263127
21781051 124 17532108244751331387
22393880 68 18040707039664687589
23522609 53 18122096214621275413
23557571 272 18407758145275366245
23559900 14 18260824934208316645
25122255 55 18411426102516177663
2838139 119 8502366694836934170
3004659 81 18113615707178629832
3286 77 18060139868398728905
335352 9 18334574621408074229
34797466 226 17386006242767545413
350125 39 18410294700819123021
46194498 28 18113898307975264980
465052 167 18131354111664632078
5104073 3 18060139838244287673
5718773 13 18270956955723947671
59755656 215 18186798072038190091
59755656 520 18190459355949596733
636775 8 18201451225564326150
7495541 125 18130786806081875761
8863177 126 18341893051473519282

>  <PUBCHEM_SHAPE_MULTIPOLES>  (1) 
501.51
14.19
2.51
1.26
1.89
0.18
-0.12
11.98
1.51
1.01
-0.1
0.54
-0.47
1.32

>  <PUBCHEM_SHAPE_SELFOVERLAP>  (1) 
1092.767

>  <PUBCHEM_SHAPE_VOLUME>  (1) 
273.8

>  <PUBCHEM_COORDINATE_TYPE>  (1) 
2
5
10

$$$$
