16353
     RDKit          3D

 17 18  0  0  0  0  0  0  0  0999 V2000
    5.3804   -0.0406   -0.1051 N   0  0  0  0  0  0  0  0  0  0  0  0
   -0.1693   -0.2390    0.6071 N   0  0  0  0  0  0  0  0  0  0  0  0
   -0.7457   -0.2081   -0.5055 N   0  0  0  0  0  0  0  0  0  0  0  0
    3.9822   -0.0902    0.0742 C   0  0  0  0  0  0  0  0  0  0  0  0
   -4.2435    0.8713   -0.0072 C   0  0  0  0  0  0  0  0  0  0  0  0
    1.2238   -0.1885    0.4282 C   0  0  0  0  0  0  0  0  0  0  0  0
   -2.1321   -0.2586   -0.3268 C   0  0  0  0  0  0  0  0  0  0  0  0
   -2.8609    0.9222   -0.1851 C   0  0  0  0  0  0  0  0  0  0  0  0
    3.2545    1.0914    0.2152 C   0  0  0  0  0  0  0  0  0  0  0  0
    3.3271   -1.3213    0.1104 C   0  0  0  0  0  0  0  0  0  0  0  0
    1.8719    1.0421    0.3928 C   0  0  0  0  0  0  0  0  0  0  0  0
    1.9445   -1.3705    0.2879 C   0  0  0  0  0  0  0  0  0  0  0  0
   -4.8971   -0.3604    0.0288 C   0  0  0  0  0  0  0  0  0  0  0  0
   -2.7859   -1.4903   -0.2906 C   0  0  0  0  0  0  0  0  0  0  0  0
   -4.1684   -1.5412   -0.1128 C   0  0  0  0  0  0  0  0  0  0  0  0
   -5.0236    2.1335    0.1438 C   0  0  0  0  0  0  0  0  0  0  0  0
    6.0419    1.0480   -0.7554 C   0  0  0  0  0  0  0  0  0  0  0  0
  1  4  1  0
  1 17  1  0
  2  3  2  0
  2  6  1  0
  3  7  1  0
  4  9  2  0
  4 10  1  0
  5  8  2  0
  5 13  1  0
  5 16  1  0
  6 11  2  0
  6 12  1  0
  7  8  1  0
  7 14  2  0
  9 11  1  0
 10 12  2  0
 13 15  2  0
 14 15  1  0
M  END
>  <PUBCHEM_COMPOUND_CID>  (1) 
16353

>  <PUBCHEM_CONFORMER_RMSD>  (1) 
0.6

>  <PUBCHEM_CONFORMER_DIVERSEORDER>  (1) 
1
6
4
2
5
3

>  <PUBCHEM_MMFF94_PARTIAL_CHARGES>  (1) 
26
1 -0.87
10 -0.15
11 -0.15
12 -0.15
13 -0.15
14 -0.15
15 -0.15
16 0.14
17 0.37
18 0.15
19 0.15
2 -0.18
20 0.15
21 0.15
22 0.15
23 0.15
24 0.15
25 0.15
26 0.4
3 -0.18
4 0.1
5 -0.14
6 0.18
7 0.18
8 -0.15
9 -0.15

>  <PUBCHEM_EFFECTIVE_ROTOR_COUNT>  (1) 
3

>  <PUBCHEM_PHARMACOPHORE_FEATURES>  (1) 
4
1 1 cation
1 1 donor
6 4 6 9 10 11 12 rings
6 5 7 8 13 14 15 rings

>  <PUBCHEM_HEAVY_ATOM_COUNT>  (1) 
17

>  <PUBCHEM_ATOM_DEF_STEREO_COUNT>  (1) 
0

>  <PUBCHEM_ATOM_UDEF_STEREO_COUNT>  (1) 
0

>  <PUBCHEM_BOND_DEF_STEREO_COUNT>  (1) 
0

>  <PUBCHEM_BOND_UDEF_STEREO_COUNT>  (1) 
0

>  <PUBCHEM_ISOTOPIC_ATOM_COUNT>  (1) 
0

>  <PUBCHEM_COMPONENT_COUNT>  (1) 
1

>  <PUBCHEM_CACTVS_TAUTO_COUNT>  (1) 
2

>  <PUBCHEM_CONFORMER_ID>  (1) 
00003FE100000001

>  <PUBCHEM_MMFF94_ENERGY>  (1) 
56.8609

>  <PUBCHEM_FEATURE_SELFOVERLAP>  (1) 
20.297

>  <PUBCHEM_SHAPE_FINGERPRINT>  (1) 
10014705 185 18187358801762057677
10595046 47 18335983159462892798
10616163 171 18341047518795668671
10680689 15 18201718492124088847
10912923 1 17968088729198640458
12107183 9 17761771767510767891
12236239 1 18409730651554482008
12670543 26 18342748395085743542
13167823 11 18410570695391592995
13760787 19 18412823581700031359
13897977 58 18408886226740589549
14123238 8 18261109681738921870
14341114 176 18410580552351625545
15048467 5 18335139778231055732
15196674 1 18410854339173651394
15239154 128 18411417310902537633
15242433 33 18412262813716519006
15788980 27 16988841691737361932
17834072 33 18411699915418477012
17844677 252 18341619260304032057
18186145 218 18114172021518471979
200 152 18202845469529574883
20621476 66 18129670682185575241
20645477 56 18410573955835967701
20645477 70 18271246015444013454
21065198 48 18335134272288665163
21267235 1 18339366361442728155
21637258 2 14333138417179052196
21709351 56 18411412946973061796
2297311 6 18202290225153599309
23402539 116 18333726927321897492
23402655 69 18411698777225782738
23536379 177 18408885127334255482
23557571 272 18343589550817970733
23559900 14 18129096719371595118
2916195 48 18199740500897202352
300161 21 18335693927643207791
3004659 81 18338238164129646758
34797466 226 17845664754029422996
3545911 37 18413389834810097617
4073 2 18113343032843616962
4214541 1 18412261727379703129
42788 4 18409448094246012758
474 4 17676772079747779812
4990 188 18201726162946105822
5104073 3 18408599249457079947
542803 24 17967533475837084724
6327066 14 18045494224074339845
77779 3 18411417315144646939
9709674 26 18412266146796296287

>  <PUBCHEM_SHAPE_MULTIPOLES>  (1) 
334.91
13.52
1.71
0.71
5.01
0.16
-0.02
3.59
-1.56
-1.38
0.01
0.2
0.03
-0.48

>  <PUBCHEM_SHAPE_SELFOVERLAP>  (1) 
711.974

>  <PUBCHEM_SHAPE_VOLUME>  (1) 
187.8

>  <PUBCHEM_COORDINATE_TYPE>  (1) 
2
5
10

$$$$
