16355
     RDKit          3D

 17 18  0  0  0  0  0  0  0  0999 V2000
    4.6175    0.3717    0.1539 N   0  0  0  0  0  0  0  0  0  0  0  0
   -0.9232    0.1059   -0.6050 N   0  0  0  0  0  0  0  0  0  0  0  0
   -1.5036    0.0123    0.5022 N   0  0  0  0  0  0  0  0  0  0  0  0
    3.2216    0.3045   -0.0372 C   0  0  0  0  0  0  0  0  0  0  0  0
    5.4529   -0.7884    0.1928 C   0  0  0  0  0  0  0  0  0  0  0  0
    2.5983   -0.9330   -0.1984 C   0  0  0  0  0  0  0  0  0  0  0  0
    2.4643    1.4756   -0.0649 C   0  0  0  0  0  0  0  0  0  0  0  0
    0.4676    0.1719   -0.4143 C   0  0  0  0  0  0  0  0  0  0  0  0
    1.2180   -0.9994   -0.3876 C   0  0  0  0  0  0  0  0  0  0  0  0
    1.0839    1.4091   -0.2539 C   0  0  0  0  0  0  0  0  0  0  0  0
    6.9104   -0.4169    0.3713 C   0  0  0  0  0  0  0  0  0  0  0  0
   -2.8875   -0.0532    0.3130 C   0  0  0  0  0  0  0  0  0  0  0  0
   -3.5113   -1.2904    0.1515 C   0  0  0  0  0  0  0  0  0  0  0  0
   -3.6442    1.1183    0.2851 C   0  0  0  0  0  0  0  0  0  0  0  0
   -4.8917   -1.3560   -0.0381 C   0  0  0  0  0  0  0  0  0  0  0  0
   -5.0247    1.0526    0.0956 C   0  0  0  0  0  0  0  0  0  0  0  0
   -5.6483   -0.1847   -0.0661 C   0  0  0  0  0  0  0  0  0  0  0  0
  1  4  1  0
  1  5  1  0
  2  3  2  0
  2  8  1  0
  3 12  1  0
  4  6  2  0
  4  7  1  0
  5 11  1  0
  6  9  1  0
  7 10  2  0
  8  9  2  0
  8 10  1  0
 12 13  2  0
 12 14  1  0
 13 15  1  0
 14 16  2  0
 15 17  2  0
 16 17  1  0
M  END
>  <PUBCHEM_COMPOUND_CID>  (1) 
16355

>  <PUBCHEM_CONFORMER_RMSD>  (1) 
0.6

>  <PUBCHEM_CONFORMER_DIVERSEORDER>  (1) 
1
4
8
9
5
6
3
2
7

>  <PUBCHEM_MMFF94_PARTIAL_CHARGES>  (1) 
26
1 -0.87
10 -0.15
12 0.18
13 -0.15
14 -0.15
15 -0.15
16 -0.15
17 -0.15
2 -0.18
20 0.4
21 0.15
22 0.15
23 0.15
24 0.15
28 0.15
29 0.15
3 -0.18
30 0.15
31 0.15
32 0.15
4 0.1
5 0.37
6 -0.15
7 -0.15
8 0.18
9 -0.15

>  <PUBCHEM_EFFECTIVE_ROTOR_COUNT>  (1) 
4

>  <PUBCHEM_PHARMACOPHORE_FEATURES>  (1) 
4
1 1 cation
1 1 donor
6 12 13 14 15 16 17 rings
6 4 6 7 8 9 10 rings

>  <PUBCHEM_HEAVY_ATOM_COUNT>  (1) 
17

>  <PUBCHEM_ATOM_DEF_STEREO_COUNT>  (1) 
0

>  <PUBCHEM_ATOM_UDEF_STEREO_COUNT>  (1) 
0

>  <PUBCHEM_BOND_DEF_STEREO_COUNT>  (1) 
0

>  <PUBCHEM_BOND_UDEF_STEREO_COUNT>  (1) 
0

>  <PUBCHEM_ISOTOPIC_ATOM_COUNT>  (1) 
0

>  <PUBCHEM_COMPONENT_COUNT>  (1) 
1

>  <PUBCHEM_CACTVS_TAUTO_COUNT>  (1) 
2

>  <PUBCHEM_CONFORMER_ID>  (1) 
00003FE300000001

>  <PUBCHEM_MMFF94_ENERGY>  (1) 
51.3619

>  <PUBCHEM_FEATURE_SELFOVERLAP>  (1) 
20.297

>  <PUBCHEM_SHAPE_FINGERPRINT>  (1) 
106641 1 18272081743418175530
10968037 39 9871747988741958825
11089746 13 17561356283850143697
11315181 36 18411420626759656609
12091667 2 17167863049890826669
12107183 9 17690000037927161217
12236239 1 18131350821223791380
12507557 5 18060139851408568953
12670543 26 7997696424170723912
13167823 11 18410011065743128135
13288520 33 18334295375123556031
13533116 47 17241037718532418562
13862211 1 18335137584009163106
14251764 18 18408044030381454480
15048467 5 9871755693222470659
17492 89 17899985129620245371
17834072 33 18410577322378151964
19489759 90 18343019986984048817
200 152 18202282515866540561
20645477 70 18272375217827149127
21267235 1 18409174328751565627
21709351 56 18408598184510924997
22224240 67 17846770820215187734
23035841 295 12829488143075687128
23402539 116 18409444791432116501
23559900 14 18412539929570313441
23622692 88 16845289458511411276
26918003 58 18341895203573485243
351380 180 18410574006948171041
3545911 37 18412827975978771041
42 15 18409169922014828253
4214541 1 18410576184839533333
42788 4 18410856568245561408
4340502 62 15052016762822860820
4463277 17 18409167719182044980
465052 167 18334579049297978754
5104073 3 18339930423549995913
542803 24 17168147844824477293
559249 180 18408319982568455131
59755656 215 18271812285454478174
67856867 119 18339923830511828369
7495541 125 16845006948046603843
77779 3 18411422830225435933
9709674 26 18340216258256602167
9971528 1 17822291331250740628

>  <PUBCHEM_SHAPE_MULTIPOLES>  (1) 
334.91
15.17
1.4
0.68
7.11
0.11
-0.01
-2.62
1.92
-0.54
-0.02
0.02
0
-0.16

>  <PUBCHEM_SHAPE_SELFOVERLAP>  (1) 
707.807

>  <PUBCHEM_SHAPE_VOLUME>  (1) 
188.5

>  <PUBCHEM_COORDINATE_TYPE>  (1) 
2
5
10

$$$$
