16352
     RDKit          3D

 22 25  0  0  0  0  0  0  0  0999 V2000
    2.0765    0.8082   -1.2137 O   0  0  0  0  0  0  0  0  0  0  0  0
   -1.6507   -0.6877   -0.3857 N   0  0  0  0  0  0  0  0  0  0  0  0
   -4.4818   -0.8986   -0.1801 N   0  0  0  0  0  0  0  0  0  0  0  0
    0.5123   -1.4273   -0.2342 N   0  0  0  0  0  0  0  0  0  0  0  0
   -2.2589   -1.9682   -0.0357 C   0  0  0  0  0  0  0  0  0  0  0  0
   -2.5029    0.2208   -1.1478 C   0  0  0  0  0  0  0  0  0  0  0  0
   -3.6071   -1.7397    0.6498 C   0  0  0  0  0  0  0  0  0  0  0  0
   -3.8456    0.4016   -0.4378 C   0  0  0  0  0  0  0  0  0  0  0  0
   -0.3380   -0.4361   -0.1785 C   0  0  0  0  0  0  0  0  0  0  0  0
   -5.7814   -0.7155    0.4650 C   0  0  0  0  0  0  0  0  0  0  0  0
    0.0399    0.9817    0.0956 C   0  0  0  0  0  0  0  0  0  0  0  0
    1.2024    1.5371   -0.4452 C   0  0  0  0  0  0  0  0  0  0  0  0
    1.8925   -1.2908   -0.0257 C   0  0  0  0  0  0  0  0  0  0  0  0
   -0.8075    1.7873    0.8670 C   0  0  0  0  0  0  0  0  0  0  0  0
    2.6562   -0.2323   -0.5285 C   0  0  0  0  0  0  0  0  0  0  0  0
    1.5004    2.8889   -0.2527 C   0  0  0  0  0  0  0  0  0  0  0  0
   -0.4978    3.1328    1.0777 C   0  0  0  0  0  0  0  0  0  0  0  0
    0.6512    3.6843    0.5137 C   0  0  0  0  0  0  0  0  0  0  0  0
    2.5595   -2.3210    0.6509 C   0  0  0  0  0  0  0  0  0  0  0  0
    4.0462   -0.2038   -0.3798 C   0  0  0  0  0  0  0  0  0  0  0  0
    3.9456   -2.2894    0.8222 C   0  0  0  0  0  0  0  0  0  0  0  0
    4.6891   -1.2322    0.3036 C   0  0  0  0  0  0  0  0  0  0  0  0
  1 12  1  0
  1 15  1  0
  2  5  1  0
  2  6  1  0
  2  9  1  0
  3  7  1  0
  3  8  1  0
  3 10  1  0
  4  9  2  0
  4 13  1  0
  5  7  1  0
  6  8  1  0
  9 11  1  0
 11 12  2  0
 11 14  1  0
 12 16  1  0
 13 15  2  0
 13 19  1  0
 14 17  2  0
 15 20  1  0
 16 18  2  0
 17 18  1  0
 19 21  2  0
 20 22  2  0
 21 22  1  0
M  END
>  <PUBCHEM_COMPOUND_CID>  (1) 
16352

>  <PUBCHEM_CONFORMER_RMSD>  (1) 
0.6

>  <PUBCHEM_CONFORMER_DIVERSEORDER>  (1) 
3
8
1
7
5
6
2
4

>  <PUBCHEM_MMFF94_PARTIAL_CHARGES>  (1) 
30
1 -0.17
10 0.27
11 0.09
12 0.08
13 0.18
14 -0.15
15 0.08
16 -0.15
17 -0.15
18 -0.15
19 -0.15
2 -0.79
20 -0.15
21 -0.15
22 -0.15
3 -0.81
34 0.15
35 0.15
36 0.15
37 0.15
38 0.15
39 0.15
4 -0.63
40 0.15
41 0.15
5 0.37
6 0.37
7 0.27
8 0.27
9 0.41

>  <PUBCHEM_EFFECTIVE_ROTOR_COUNT>  (1) 
2.4

>  <PUBCHEM_PHARMACOPHORE_FEATURES>  (1) 
7
1 1 acceptor
1 3 cation
3 2 4 9 cation
6 11 12 14 16 17 18 rings
6 13 15 19 20 21 22 rings
6 2 3 5 6 7 8 rings
7 1 4 9 11 12 13 15 rings

>  <PUBCHEM_HEAVY_ATOM_COUNT>  (1) 
22

>  <PUBCHEM_ATOM_DEF_STEREO_COUNT>  (1) 
0

>  <PUBCHEM_ATOM_UDEF_STEREO_COUNT>  (1) 
0

>  <PUBCHEM_BOND_DEF_STEREO_COUNT>  (1) 
0

>  <PUBCHEM_BOND_UDEF_STEREO_COUNT>  (1) 
0

>  <PUBCHEM_ISOTOPIC_ATOM_COUNT>  (1) 
0

>  <PUBCHEM_COMPONENT_COUNT>  (1) 
1

>  <PUBCHEM_CACTVS_TAUTO_COUNT>  (1) 
1

>  <PUBCHEM_CONFORMER_ID>  (1) 
00003FE000000003

>  <PUBCHEM_MMFF94_ENERGY>  (1) 
87.2064

>  <PUBCHEM_FEATURE_SELFOVERLAP>  (1) 
35.552

>  <PUBCHEM_SHAPE_FINGERPRINT>  (1) 
104564 63 18200314290772909468
1100329 8 18122905597729916416
11045515 52 18188207606841666708
11265709 11 18411982434045918792
12293681 160 17979664508334639884
12403259 226 18335414712410086869
12506688 2 18408322198291304622
12553582 1 18340786856892201570
12633257 1 18270414866521336123
12788726 201 18269846336714053928
13004483 165 18267009588272423250
13009979 54 18191868925439618826
13052359 8 17977944579621419469
13134695 92 18341321275441224925
13140716 1 17907291410040244776
13533116 47 18123468543483887655
138480 1 14520027510061137160
14178342 30 17904751186309807970
14466204 15 18268716009460898353
14790565 3 17833272304407429388
14866123 147 17112688190388757987
14955137 171 18272096014703476070
15042514 8 18123754149495930928
15238133 3 18339375075952535949
15927050 60 17764310939734313918
16087824 20 18194969535451228865
17492 89 18121778327275676802
17980427 26 17840575230347246949
1813 80 18131078112212119615
18785283 64 18045219590056884229
19078846 21 18272380762872267697
19591789 44 17473828806317727984
200 152 18335138665718565850
20369508 70 18340203093833082727
20600515 1 17988931075746133938
20832881 197 18334295353617305251
21033648 29 17346020191878954259
21041028 32 18413671296976019181
21250096 35 18409726248912706570
21267235 1 18336271150227232062
21421861 104 18335977661847005056
22112679 90 18199765677615656912
221490 88 18190185770157428163
23175994 123 18412263922065871479
23402539 116 18200018543530294702
23557571 272 18129100018380693046
23558518 356 17832715573376229090
23559900 14 18262233446973067993
25147074 1 18043543707583653766
3004659 81 18040998402094268830
3091708 16 8995060118343023600
314173 41 18410862078847137318
345986 75 18116982308698709139
34934 24 18200312268259849860
350125 39 18335422353426211061
3886686 26 16821050445546868922
392239 28 18340756127192256354
5895379 119 16342049557578008545
6438718 38 17630321935474763461
6442390 28 17255971589612206737
7164475 11 18194966240799193558
7364860 26 18267862967929564884
7471813 234 18130212844164500093
7495541 125 18262523701385554323
81228 2 18055643814917750736
8863177 126 17970925568595123587

>  <PUBCHEM_SHAPE_MULTIPOLES>  (1) 
431.94
8.67
3.6
0.96
5.86
3.25
0
-6.87
-0.62
-1.41
-1.15
0.01
0.18
-0.52

>  <PUBCHEM_SHAPE_SELFOVERLAP>  (1) 
949.669

>  <PUBCHEM_SHAPE_VOLUME>  (1) 
231.8

>  <PUBCHEM_COORDINATE_TYPE>  (1) 
2
5
10

$$$$
