16358
     RDKit          3D

 12 13  0  0  0  0  0  0  0  0999 V2000
    1.3308   -2.3566   -0.0013 O   0  0  0  0  0  0  0  0  0  0  0  0
    3.0463   -0.0707    0.0007 O   0  0  0  0  0  0  0  0  0  0  0  0
    0.9740    1.0930   -0.0001 N   0  0  0  0  0  0  0  0  0  0  0  0
   -0.3680    0.6690    0.0000 C   0  0  0  0  0  0  0  0  0  0  0  0
   -0.4410   -0.7225    0.0003 C   0  0  0  0  0  0  0  0  0  0  0  0
    0.9332   -1.2169    0.0002 C   0  0  0  0  0  0  0  0  0  0  0  0
    1.8370    0.0103    0.0003 C   0  0  0  0  0  0  0  0  0  0  0  0
   -1.5219    1.4310   -0.0004 C   0  0  0  0  0  0  0  0  0  0  0  0
   -1.6338   -1.4138    0.0004 C   0  0  0  0  0  0  0  0  0  0  0  0
    1.3948    2.4731   -0.0004 C   0  0  0  0  0  0  0  0  0  0  0  0
   -2.7482    0.7560   -0.0002 C   0  0  0  0  0  0  0  0  0  0  0  0
   -2.8032   -0.6519    0.0003 C   0  0  0  0  0  0  0  0  0  0  0  0
  1  6  2  0
  2  7  2  0
  3  4  1  0
  3  7  1  0
  3 10  1  0
  4  5  2  0
  4  8  1  0
  5  6  1  0
  5  9  1  0
  6  7  1  0
  8 11  2  0
  9 12  2  0
 11 12  1  0
M  END
>  <PUBCHEM_COMPOUND_CID>  (1) 
16358

>  <PUBCHEM_CONFORMER_RMSD>  (1) 
0.4

>  <PUBCHEM_CONFORMER_DIVERSEORDER>  (1) 
1

>  <PUBCHEM_MMFF94_PARTIAL_CHARGES>  (1) 
16
1 -0.57
10 0.3
11 -0.15
12 -0.15
13 0.15
14 0.15
18 0.15
19 0.15
2 -0.57
3 -0.48
4 0.12
5 0.09
6 0.48
7 0.63
8 -0.15
9 -0.15

>  <PUBCHEM_EFFECTIVE_ROTOR_COUNT>  (1) 
0.2

>  <PUBCHEM_PHARMACOPHORE_FEATURES>  (1) 
4
1 1 acceptor
1 2 acceptor
5 3 4 5 6 7 rings
6 4 5 8 9 11 12 rings

>  <PUBCHEM_HEAVY_ATOM_COUNT>  (1) 
12

>  <PUBCHEM_ATOM_DEF_STEREO_COUNT>  (1) 
0

>  <PUBCHEM_ATOM_UDEF_STEREO_COUNT>  (1) 
0

>  <PUBCHEM_BOND_DEF_STEREO_COUNT>  (1) 
0

>  <PUBCHEM_BOND_UDEF_STEREO_COUNT>  (1) 
0

>  <PUBCHEM_ISOTOPIC_ATOM_COUNT>  (1) 
0

>  <PUBCHEM_COMPONENT_COUNT>  (1) 
1

>  <PUBCHEM_CACTVS_TAUTO_COUNT>  (1) 
1

>  <PUBCHEM_CONFORMER_ID>  (1) 
00003FE600000001

>  <PUBCHEM_MMFF94_ENERGY>  (1) 
32.5356

>  <PUBCHEM_FEATURE_SELFOVERLAP>  (1) 
20.39

>  <PUBCHEM_SHAPE_FINGERPRINT>  (1) 
10967382 1 18338799030073850341
11206711 2 18408887343004676109
12423570 1 11589401900583115594
12524768 44 18127132961544514191
12897270 3 18410009978905106975
16945 1 18410575084874075495
17990270 104 18410855425895290363
193761 8 17618223253119612556
19973954 147 18410857710928616129
20201158 50 18409444778425908111
21040471 1 18338797801734302695
21501502 16 18339081613384361865
2334 1 17978229688081699629
23402655 69 18196356054057502117
23463225 33 18334852771668673282
23552423 10 18337109059443400063
23559900 14 18342749507819922500
241688 4 17906172854147462425
2748010 2 18121220049981941983
5084963 1 18130792325077635594
528886 8 18411132537074231235
53812653 166 18342452621408731800
63268167 104 18337674092450782729
7364860 26 18343021107643497684

>  <PUBCHEM_SHAPE_MULTIPOLES>  (1) 
230.23
3.76
2.24
0.59
0.52
0.21
0
0.11
0
-0.76
0
0.04
0.01
0

>  <PUBCHEM_SHAPE_SELFOVERLAP>  (1) 
505.573

>  <PUBCHEM_SHAPE_VOLUME>  (1) 
125.7

>  <PUBCHEM_COORDINATE_TYPE>  (1) 
2
5
10

$$$$
