16364
     RDKit          3D

 18 20  0  0  0  0  0  0  0  0999 V2000
   -0.0051   -0.7370    0.0652 N   0  0  0  0  0  0  0  0  0  0  0  0
   -1.3751   -4.0239   -1.0543 N   0  0  0  0  0  0  0  0  0  0  0  0
    1.3359   -0.2884    0.1720 C   0  0  0  0  0  0  0  0  0  0  0  0
   -1.1617    0.0661    0.2317 C   0  0  0  0  0  0  0  0  0  0  0  0
   -0.2113   -2.1915    0.0766 C   0  0  0  0  0  0  0  0  0  0  0  0
    1.7930    0.8923   -0.4476 C   0  0  0  0  0  0  0  0  0  0  0  0
   -1.3009    1.3316   -0.3738 C   0  0  0  0  0  0  0  0  0  0  0  0
   -1.1799   -2.5796   -1.0332 C   0  0  0  0  0  0  0  0  0  0  0  0
    0.9829    1.7049   -1.3618 C   0  0  0  0  0  0  0  0  0  0  0  0
   -0.3403    1.8927   -1.3302 C   0  0  0  0  0  0  0  0  0  0  0  0
    2.2690   -1.0196    0.9460 C   0  0  0  0  0  0  0  0  0  0  0  0
   -2.2242   -0.3816    1.0534 C   0  0  0  0  0  0  0  0  0  0  0  0
    3.1367    1.2927   -0.2921 C   0  0  0  0  0  0  0  0  0  0  0  0
   -2.4716    2.0888   -0.1583 C   0  0  0  0  0  0  0  0  0  0  0  0
    3.5934   -0.6059    1.1002 C   0  0  0  0  0  0  0  0  0  0  0  0
   -3.3726    0.3830    1.2664 C   0  0  0  0  0  0  0  0  0  0  0  0
    4.0282    0.5537    0.4802 C   0  0  0  0  0  0  0  0  0  0  0  0
   -3.4962    1.6217    0.6596 C   0  0  0  0  0  0  0  0  0  0  0  0
  1  3  1  0
  1  4  1  0
  1  5  1  0
  2  8  1  0
  3  6  2  0
  3 11  1  0
  4  7  2  0
  4 12  1  0
  5  8  1  0
  6  9  1  0
  6 13  1  0
  7 10  1  0
  7 14  1  0
  9 10  2  0
 11 15  2  0
 12 16  2  0
 13 17  2  0
 14 18  2  0
 15 17  1  0
 16 18  1  0
M  END
>  <PUBCHEM_COMPOUND_CID>  (1) 
16364

>  <PUBCHEM_CONFORMER_RMSD>  (1) 
0.6

>  <PUBCHEM_CONFORMER_DIVERSEORDER>  (1) 
1
2

>  <PUBCHEM_MMFF94_PARTIAL_CHARGES>  (1) 
30
1 -0.57
10 -0.18
11 -0.15
12 -0.15
13 -0.15
14 -0.15
15 -0.15
16 -0.15
17 -0.15
18 -0.15
2 -0.99
23 0.15
24 0.15
25 0.15
26 0.15
27 0.15
28 0.15
29 0.15
3 0.1
30 0.15
31 0.15
32 0.15
33 0.36
34 0.36
4 0.1
5 0.37
6 0.03
7 0.03
8 0.27
9 -0.18

>  <PUBCHEM_EFFECTIVE_ROTOR_COUNT>  (1) 
2.2

>  <PUBCHEM_PHARMACOPHORE_FEATURES>  (1) 
6
1 1 cation
1 2 cation
1 2 donor
6 3 6 11 13 15 17 rings
6 4 7 12 14 16 18 rings
7 1 3 4 6 7 9 10 rings

>  <PUBCHEM_HEAVY_ATOM_COUNT>  (1) 
18

>  <PUBCHEM_ATOM_DEF_STEREO_COUNT>  (1) 
0

>  <PUBCHEM_ATOM_UDEF_STEREO_COUNT>  (1) 
0

>  <PUBCHEM_BOND_DEF_STEREO_COUNT>  (1) 
0

>  <PUBCHEM_BOND_UDEF_STEREO_COUNT>  (1) 
0

>  <PUBCHEM_ISOTOPIC_ATOM_COUNT>  (1) 
0

>  <PUBCHEM_COMPONENT_COUNT>  (1) 
1

>  <PUBCHEM_CACTVS_TAUTO_COUNT>  (1) 
1

>  <PUBCHEM_CONFORMER_ID>  (1) 
00003FEC00000001

>  <PUBCHEM_MMFF94_ENERGY>  (1) 
77.6388

>  <PUBCHEM_FEATURE_SELFOVERLAP>  (1) 
30.461

>  <PUBCHEM_SHAPE_FINGERPRINT>  (1) 
11132069 177 18187649046450329785
11578080 2 17905859798614568389
12251169 10 18113625551317889233
12382932 28 18187932707460087449
13004483 165 17767948084991033430
13140716 1 17757003559059018136
13172582 1 18334297535049228064
14178342 30 18267568273729488730
14617773 55 17978232986547991964
15309172 13 18340202981836937241
15852999 172 17775014465786228526
16945 1 18411699923992795236
19862831 5 11167941351067872000
20261772 1 18336272313698541730
20361792 2 12035745222668541625
20511035 2 18114481022998780341
20871998 184 18188768344934299316
21524375 3 18409730634153197027
21731228 192 18411422765352559859
22112679 90 17837226130866235391
23184049 59 18334296422731813296
2334 1 18260271828050983996
23388829 49 17974004247795467180
23419403 2 15535823533763245331
23463225 33 17894920606857796148
2748010 2 17901376801992088028
34934 24 17894907429887478640
3729539 64 17695939647450083438
6438718 38 18057331784273166110
69090 78 18409443678687414201
6992083 37 18335133232632084566
7364860 26 17909554956489121155
7471813 234 17406822355554900006
81228 2 18193539289191039130
84936 31 17342088204858511831
90525 40 18408326587716271591

>  <PUBCHEM_SHAPE_MULTIPOLES>  (1) 
360.47
5.79
3.11
1.27
2.29
3.19
0.09
-2.12
-2.63
-1.78
1.71
-0.21
0.12
-0.92

>  <PUBCHEM_SHAPE_SELFOVERLAP>  (1) 
785.47

>  <PUBCHEM_SHAPE_VOLUME>  (1) 
192.8

>  <PUBCHEM_COORDINATE_TYPE>  (1) 
2
5
10

$$$$
