16375
     RDKit          3D

  6  6  0  0  0  0  0  0  0  0999 V2000
   -2.5436   -0.0716    0.0003 Br  0  0  0  0  0  0  0  0  0  0  0  0
    1.4057    0.6596    0.0001 N   0  0  0  0  0  0  0  0  0  0  0  0
    1.4879   -0.6818    0.0002 N   0  0  0  0  0  0  0  0  0  0  0  0
    0.1265    1.1333    0.0000 C   0  0  0  0  0  0  0  0  0  0  0  0
   -0.6844    0.0247   -0.0005 C   0  0  0  0  0  0  0  0  0  0  0  0
    0.2080   -1.0641   -0.0001 C   0  0  0  0  0  0  0  0  0  0  0  0
  1  5  1  0
  2  3  1  0
  2  4  1  0
  3  6  2  0
  4  5  2  0
  5  6  1  0
M  END
>  <PUBCHEM_COMPOUND_CID>  (1) 
16375

>  <PUBCHEM_CONFORMER_RMSD>  (1) 
0.4

>  <PUBCHEM_CONFORMER_DIVERSEORDER>  (1) 
1

>  <PUBCHEM_MMFF94_PARTIAL_CHARGES>  (1) 
9
1 -0.06
2 0.3
3 -0.71
4 -0.3
5 0.06
6 0.14
7 0.15
8 0.27
9 0.15

>  <PUBCHEM_EFFECTIVE_ROTOR_COUNT>  (1) 
0

>  <PUBCHEM_PHARMACOPHORE_FEATURES>  (1) 
4
1 1 hydrophobe
1 2 donor
1 3 acceptor
5 2 3 4 5 6 rings

>  <PUBCHEM_HEAVY_ATOM_COUNT>  (1) 
6

>  <PUBCHEM_ATOM_DEF_STEREO_COUNT>  (1) 
0

>  <PUBCHEM_ATOM_UDEF_STEREO_COUNT>  (1) 
0

>  <PUBCHEM_BOND_DEF_STEREO_COUNT>  (1) 
0

>  <PUBCHEM_BOND_UDEF_STEREO_COUNT>  (1) 
0

>  <PUBCHEM_ISOTOPIC_ATOM_COUNT>  (1) 
0

>  <PUBCHEM_COMPONENT_COUNT>  (1) 
1

>  <PUBCHEM_CACTVS_TAUTO_COUNT>  (1) 
1

>  <PUBCHEM_CONFORMER_ID>  (1) 
00003FF700000001

>  <PUBCHEM_MMFF94_ENERGY>  (1) 
1.5909

>  <PUBCHEM_FEATURE_SELFOVERLAP>  (1) 
20.297

>  <PUBCHEM_SHAPE_FINGERPRINT>  (1) 
139733 1 9294991471382879267
20096714 4 18267867357528449249
21015797 1 9294128354791991880
21040471 1 18266460004003668421
29004967 10 18334580126854378027
5460574 1 9295293837317862017

>  <PUBCHEM_SHAPE_MULTIPOLES>  (1) 
119.46
2.63
1.15
0.61
1.72
0.03
0
-0.1
0
-0.27
0
0.1
0
0

>  <PUBCHEM_SHAPE_SELFOVERLAP>  (1) 
229.866

>  <PUBCHEM_SHAPE_VOLUME>  (1) 
75.8

>  <PUBCHEM_COORDINATE_TYPE>  (1) 
2
5
10

$$$$
