16378
     RDKit          3D

 10 10  0  0  0  0  0  0  0  0999 V2000
   -1.6134    2.1576    0.0004 Cl  0  0  0  0  0  0  0  0  0  0  0  0
    3.1479   -0.4516    0.0000 Cl  0  0  0  0  0  0  0  0  0  0  0  0
   -3.0918   -0.6908   -0.0001 Cl  0  0  0  0  0  0  0  0  0  0  0  0
    0.6830    0.7218   -0.0001 C   0  0  0  0  0  0  0  0  0  0  0  0
   -0.7112    0.6744   -0.0002 C   0  0  0  0  0  0  0  0  0  0  0  0
    1.4209   -0.4619    0.0001 C   0  0  0  0  0  0  0  0  0  0  0  0
    1.3962    2.0403   -0.0002 C   0  0  0  0  0  0  0  0  0  0  0  0
   -1.3672   -0.5566   -0.0001 C   0  0  0  0  0  0  0  0  0  0  0  0
    0.7648   -1.6929    0.0001 C   0  0  0  0  0  0  0  0  0  0  0  0
   -0.6292   -1.7403    0.0001 C   0  0  0  0  0  0  0  0  0  0  0  0
  1  5  1  0
  2  6  1  0
  3  8  1  0
  4  5  2  0
  4  6  1  0
  4  7  1  0
  5  8  1  0
  6  9  2  0
  8 10  2  0
  9 10  1  0
M  END
>  <PUBCHEM_COMPOUND_CID>  (1) 
16378

>  <PUBCHEM_CONFORMER_RMSD>  (1) 
0.4

>  <PUBCHEM_CONFORMER_DIVERSEORDER>  (1) 
1

>  <PUBCHEM_MMFF94_PARTIAL_CHARGES>  (1) 
12
1 -0.18
10 -0.15
14 0.15
15 0.15
2 -0.18
3 -0.18
4 -0.14
5 0.18
6 0.18
7 0.14
8 0.18
9 -0.15

>  <PUBCHEM_EFFECTIVE_ROTOR_COUNT>  (1) 
0

>  <PUBCHEM_PHARMACOPHORE_FEATURES>  (1) 
1
6 4 5 6 8 9 10 rings

>  <PUBCHEM_HEAVY_ATOM_COUNT>  (1) 
10

>  <PUBCHEM_ATOM_DEF_STEREO_COUNT>  (1) 
0

>  <PUBCHEM_ATOM_UDEF_STEREO_COUNT>  (1) 
0

>  <PUBCHEM_BOND_DEF_STEREO_COUNT>  (1) 
0

>  <PUBCHEM_BOND_UDEF_STEREO_COUNT>  (1) 
0

>  <PUBCHEM_ISOTOPIC_ATOM_COUNT>  (1) 
0

>  <PUBCHEM_COMPONENT_COUNT>  (1) 
1

>  <PUBCHEM_CACTVS_TAUTO_COUNT>  (1) 
1

>  <PUBCHEM_CONFORMER_ID>  (1) 
00003FFA00000001

>  <PUBCHEM_MMFF94_ENERGY>  (1) 
25.6813

>  <PUBCHEM_FEATURE_SELFOVERLAP>  (1) 
5.074

>  <PUBCHEM_SHAPE_FINGERPRINT>  (1) 
11206711 2 18409450250034824189
12423570 1 17917993884030783142
161256 15 18339361962800150628
16945 1 18410575097558809638
193761 8 17762055441241941894
21040471 1 18050568439231841540
2334 1 17906171007280227046
23402655 69 18123733289610252421
23552423 10 17973442397485542398
23559900 14 18127697033602946326
241688 4 18050570642502754346
2748010 2 18124034529055638014
5084963 1 18130788966407948371
528886 8 18194958535279523056
53812653 166 18270393867734967176
66348 1 18338513019638211293

>  <PUBCHEM_SHAPE_MULTIPOLES>  (1) 
211.4
3.73
2.32
0.63
0.18
0.85
0
-0.49
0
-0.32
0
-0.01
0
0

>  <PUBCHEM_SHAPE_SELFOVERLAP>  (1) 
412.992

>  <PUBCHEM_SHAPE_VOLUME>  (1) 
125.9

>  <PUBCHEM_COORDINATE_TYPE>  (1) 
2
5
10

$$$$
