16380
     RDKit          3D

 30 31  0  0  1  0  0  0  0  0999 V2000
    2.1444    0.3931    0.6335 O   0  0  0  0  0  0  0  0  0  0  0  0
   -2.0995   -1.1660   -1.6346 O   0  0  0  0  0  0  0  0  0  0  0  0
   -1.3113    0.8043    1.1695 O   0  0  0  0  0  0  0  0  0  0  0  0
    0.3683    2.2504    0.6371 O   0  0  0  0  0  0  0  0  0  0  0  0
    5.5150   -0.3364    2.1944 O   0  0  0  0  0  0  0  0  0  0  0  0
   -0.7543   -1.8250    0.1426 N   0  0  0  0  0  0  0  0  0  0  0  0
    4.3678   -0.0952    0.2068 N   0  0  0  0  0  0  0  0  0  0  0  0
   -5.3983   -3.1050    0.2264 N   0  0  0  0  0  0  0  0  0  0  0  0
   -6.0059    1.2871    0.0979 N   0  0  0  0  0  0  0  0  0  0  0  0
    6.6770    0.5505    0.4580 N   0  0  0  0  0  0  0  0  0  0  0  0
   -4.5450    2.2099   -1.5120 N   0  0  0  0  0  0  0  0  0  0  0  0
   -5.4803    3.6460    0.0387 N   0  0  0  0  0  0  0  0  0  0  0  0
    7.8615    1.4604   -1.3244 N   0  0  0  0  0  0  0  0  0  0  0  0
    0.4205   -1.0775   -0.2334 C   0  0  0  0  0  0  0  0  0  0  0  0
    0.8305   -0.1059    0.8773 C   0  0  0  0  0  0  0  0  0  0  0  0
   -4.4277   -2.1699   -0.3496 C   0  0  0  0  0  0  0  0  0  0  0  0
    3.1355   -0.6345    0.7157 C   0  0  0  0  0  0  0  0  0  0  0  0
   -3.0166   -2.6724   -0.0037 C   0  0  0  0  0  0  0  0  0  0  0  0
    1.5241   -2.0488   -0.5368 C   0  0  0  0  0  0  0  0  0  0  0  0
   -4.6657   -0.7445    0.1874 C   0  0  0  0  0  0  0  0  0  0  0  0
    2.7700   -1.8507   -0.0841 C   0  0  0  0  0  0  0  0  0  0  0  0
   -1.9236   -1.8036   -0.5985 C   0  0  0  0  0  0  0  0  0  0  0  0
   -5.8597   -0.0385   -0.4578 C   0  0  0  0  0  0  0  0  0  0  0  0
   -0.0266    1.1182    0.8726 C   0  0  0  0  0  0  0  0  0  0  0  0
    4.4148    0.3200   -1.1139 C   0  0  0  0  0  0  0  0  0  0  0  0
    5.5251    0.0223    1.0154 C   0  0  0  0  0  0  0  0  0  0  0  0
   -6.8975    1.4145    1.2588 C   0  0  0  0  0  0  0  0  0  0  0  0
   -5.3609    2.4279   -0.4251 C   0  0  0  0  0  0  0  0  0  0  0  0
    5.5122    0.8316   -1.6681 C   0  0  0  0  0  0  0  0  0  0  0  0
    6.7066    0.9379   -0.7901 C   0  0  0  0  0  0  0  0  0  0  0  0
  1 15  1  0
  1 17  1  0
  2 22  2  0
  3 24  1  0
  4 24  2  0
  5 26  2  0
  6 14  1  0
  6 22  1  0
  7 17  1  0
  7 25  1  0
  7 26  1  0
  8 16  1  0
  9 23  1  0
  9 27  1  0
  9 28  1  0
 10 26  1  0
 10 30  2  0
 11 28  1  0
 12 28  2  0
 13 30  1  0
 14 15  1  0
 14 19  1  0
 15 24  1  0
 16 18  1  0
 16 20  1  0
 17 21  1  0
 18 22  1  0
 19 21  2  0
 20 23  1  0
 25 29  2  0
 29 30  1  0
M  END
>  <PUBCHEM_COMPOUND_CID>  (1) 
16380

>  <PUBCHEM_CONFORMER_RMSD>  (1) 
1

>  <PUBCHEM_CONFORMER_DIVERSEORDER>  (1) 
2
37
41
187
170
181
118
83
169
63
57
137
26
131
85
31
144
155
147
143
10
171
88
56
153
175
128
93
103
183
20
164
80
165
43
119
161
94
186
52
53
58
172
84
36
48
107
73
152
138
17
121
99
45
145
91
3
66
33
182
102
71
126
184
89
176
168
40
117
146
74
25
179
130
5
135
7
90
78
95
148
108
105
4
47
167
177
8
149
55
76
29
110
112
106
24
113
44
61
162
42
32
114
1
140
68
6
96
151
166
14
98
122
16
132
81
67
178
79
49
11
173
160
154
87
139
115
156
150
104
18
101
133
127
111
97
180
13
174
82
60
69
51
158
72
50
185
125
22
27
116
123
142
28
54
109
163
157
30
34
141
159
38
75
46
21
15
35
19
77
9
70
64
86
136
92
65
23
12
59
62
39
120
124
134
129
100

>  <PUBCHEM_MMFF94_PARTIAL_CHARGES>  (1) 
42
1 -0.56
10 -0.66
11 -0.85
12 -0.85
13 -0.85
14 0.44
15 0.34
16 0.27
17 0.72
18 0.06
19 -0.29
2 -0.57
21 -0.29
22 0.57
23 0.37
24 0.66
25 -0.04
26 0.84
27 0.37
28 0.55
29 -0.14
3 -0.65
30 0.49
37 0.15
4 -0.57
40 0.37
41 0.15
44 0.36
45 0.36
46 0.15
5 -0.57
50 0.15
51 0.5
52 0.4
53 0.4
54 0.4
55 0.4
56 0.4
6 -0.73
7 -0.47
8 -0.99
9 -0.79

>  <PUBCHEM_EFFECTIVE_ROTOR_COUNT>  (1) 
10.8

>  <PUBCHEM_PHARMACOPHORE_FEATURES>  (1) 
16
1 1 acceptor
1 10 donor
1 11 donor
1 12 donor
1 13 donor
1 2 acceptor
1 3 acceptor
1 4 acceptor
1 5 acceptor
1 6 donor
1 8 cation
1 8 donor
3 3 4 24 anion
4 9 11 12 28 cation
6 1 14 15 17 19 21 rings
6 7 10 25 26 29 30 rings

>  <PUBCHEM_HEAVY_ATOM_COUNT>  (1) 
30

>  <PUBCHEM_ATOM_DEF_STEREO_COUNT>  (1) 
4

>  <PUBCHEM_ATOM_UDEF_STEREO_COUNT>  (1) 
0

>  <PUBCHEM_BOND_DEF_STEREO_COUNT>  (1) 
0

>  <PUBCHEM_BOND_UDEF_STEREO_COUNT>  (1) 
0

>  <PUBCHEM_ISOTOPIC_ATOM_COUNT>  (1) 
0

>  <PUBCHEM_COMPONENT_COUNT>  (1) 
1

>  <PUBCHEM_CACTVS_TAUTO_COUNT>  (1) 
6

>  <PUBCHEM_CONFORMER_ID>  (1) 
00003FFC00000002

>  <PUBCHEM_MMFF94_ENERGY>  (1) 
63.3166

>  <PUBCHEM_FEATURE_SELFOVERLAP>  (1) 
81.363

>  <PUBCHEM_SHAPE_FINGERPRINT>  (1) 
10 15 18186524293863744507
10290309 65 18272093751873448359
10906281 52 18409738365100085194
12236239 1 18187080685476288994
14251752 14 18410008823675124170
14294032 229 18338524015245885560
14790565 3 18339361993065212844
14856354 85 18260832661160879295
15183329 4 18335699468272430077
15604295 49 18197213857906284192
1601671 61 18342172271650213827
21360443 126 18337386050922952077
21792964 463 17531545195818516100
22122407 14 17822588208275593060
23081809 10 18040709299055089658
23522609 53 17822587074314166836
23559900 14 17846208990509610313
23569914 152 16696125076342737156
4098825 35 18333732386547636494
445580 37 18412550920148920260
6328613 192 18407760335212600597

>  <PUBCHEM_SHAPE_MULTIPOLES>  (1) 
548.19
20.24
3.11
1.35
7.62
0.3
0.02
10.69
-1.84
-6.61
-0.4
1.37
0.34
-0.92

>  <PUBCHEM_SHAPE_SELFOVERLAP>  (1) 
1131.703

>  <PUBCHEM_SHAPE_VOLUME>  (1) 
308.3

>  <PUBCHEM_COORDINATE_TYPE>  (1) 
2
5
10

$$$$
