16389
     RDKit          3D

 14 13  0  0  0  0  0  0  0  0999 V2000
    4.8608   -0.0857    0.0216 N   0  0  0  0  0  0  0  0  0  0  0  0
    3.6369    0.7493    0.0294 C   0  0  0  0  0  0  0  0  0  0  0  0
    2.3865   -0.1233    0.0279 C   0  0  0  0  0  0  0  0  0  0  0  0
    1.0836    0.6817   -0.0168 C   0  0  0  0  0  0  0  0  0  0  0  0
   -0.1701   -0.1959   -0.0951 C   0  0  0  0  0  0  0  0  0  0  0  0
   -1.4764    0.6010   -0.0670 C   0  0  0  0  0  0  0  0  0  0  0  0
    6.1219    0.7908    0.0346 C   0  0  0  0  0  0  0  0  0  0  0  0
    4.9062   -1.0019    1.2533 C   0  0  0  0  0  0  0  0  0  0  0  0
    4.9113   -0.9719   -1.2318 C   0  0  0  0  0  0  0  0  0  0  0  0
   -2.6931   -0.3293   -0.0715 C   0  0  0  0  0  0  0  0  0  0  0  0
   -3.9984    0.4664   -0.0042 C   0  0  0  0  0  0  0  0  0  0  0  0
   -5.2508   -0.4142   -0.0372 C   0  0  0  0  0  0  0  0  0  0  0  0
   -6.5529    0.3751    0.1040 C   0  0  0  0  0  0  0  0  0  0  0  0
   -7.7656   -0.5420    0.0527 C   0  0  0  0  0  0  0  0  0  0  0  0
  1  2  1  0
  1  7  1  0
  1  8  1  0
  1  9  1  0
  2  3  1  0
  3  4  1  0
  4  5  1  0
  5  6  1  0
  6 10  1  0
 10 11  1  0
 11 12  1  0
 12 13  1  0
 13 14  1  0
M  CHG  1   1   1
M  END
>  <PUBCHEM_COMPOUND_CID>  (1) 
16389

>  <PUBCHEM_CONFORMER_RMSD>  (1) 
0.8

>  <PUBCHEM_CONFORMER_DIVERSEORDER>  (1) 
1
7
20
206
211
34
6
145
42
114
75
65
106
84
199
215
43
13
108
44
38
66
11
55
76
158
181
168
32
12
204
149
147
117
123
80
197
82
69
52
155
119
63
163
61
189
89
135
36
148
85
70
121
150
167
40
48
188
60
179
81
57
171
94
156
141
88
14
18
51
172
182
139
115
210
165
151
146
98
170
28
187
102
58
133
129
144
15
100
118
78
77
162
93
124
134
46
10
132
27
205
190
152
31
113
191
79
164
138
56
68
202
208
99
130
29
109
8
3
173
74
142
180
203
185
9
71
23
159
47
59
67
87
137
195
37
90
169
183
157
175
116
105
22
160
201
91
110
193
131
184
213
176
2
177
127
200
95
128
5
83
166
16
64
161
35
4
25
49
126
72
21
33
120
41
209
136
196
111
86
174
17
198
73
112
107
122
39
192
24
153
154
140
19
101
62
30
54
186
26
45
125
50
178
103
194
92
104
214
53
143
207
96
212
97

>  <PUBCHEM_MMFF94_PARTIAL_CHARGES>  (1) 
5
1 -1.01
2 0.5
7 0.5
8 0.5
9 0.5

>  <PUBCHEM_EFFECTIVE_ROTOR_COUNT>  (1) 
9

>  <PUBCHEM_PHARMACOPHORE_FEATURES>  (1) 
2
1 1 cation
1 14 hydrophobe

>  <PUBCHEM_HEAVY_ATOM_COUNT>  (1) 
14

>  <PUBCHEM_ATOM_DEF_STEREO_COUNT>  (1) 
0

>  <PUBCHEM_ATOM_UDEF_STEREO_COUNT>  (1) 
0

>  <PUBCHEM_BOND_DEF_STEREO_COUNT>  (1) 
0

>  <PUBCHEM_BOND_UDEF_STEREO_COUNT>  (1) 
0

>  <PUBCHEM_ISOTOPIC_ATOM_COUNT>  (1) 
0

>  <PUBCHEM_COMPONENT_COUNT>  (1) 
1

>  <PUBCHEM_CACTVS_TAUTO_COUNT>  (1) 
1

>  <PUBCHEM_CONFORMER_ID>  (1) 
0000400500000001

>  <PUBCHEM_MMFF94_ENERGY>  (1) 
18.7301

>  <PUBCHEM_FEATURE_SELFOVERLAP>  (1) 
10.148

>  <PUBCHEM_SHAPE_FINGERPRINT>  (1) 
12091667 2 17821728339359930493
125118 31 14045744824646586067
12714333 28 8142086459788098085
13533116 47 15984829190459497870
1420 363 18407762538773364387
14251764 18 18411418423341180817
14251764 46 18410575088973876985
17834076 25 8286202747206822097
20281389 69 18410291411275555705
20621476 38 18200878378993313598
20621476 8 18339928117743387869
20645477 70 17845941724060200558
20767249 213 12247678279698551577
21130983 4 11959730490930785699
21150785 3 17894639166356388180
23035841 295 18187082858755900291
23402539 116 17561077017256685245
23521765 1 18341895199484291597
33684 2 18410292514490832785
3545911 37 9655579612505199185
42788 4 18411419514526611565
4463277 17 18409166610637559293
8209 1 18408323293676828573

>  <PUBCHEM_SHAPE_MULTIPOLES>  (1) 
283.13
20.95
0.97
0.84
21.41
0.04
0.01
2.28
0.63
-0.75
0.01
-1.09
0.22
-0.01

>  <PUBCHEM_SHAPE_SELFOVERLAP>  (1) 
503.283

>  <PUBCHEM_SHAPE_VOLUME>  (1) 
186.9

>  <PUBCHEM_COORDINATE_TYPE>  (1) 
2
5
10

$$$$
