16385
     RDKit          3D

 14 15  0  0  0  0  0  0  0  0999 V2000
    0.3341   -1.7360   -1.7957 O   0  0  0  0  0  0  0  0  0  0  0  0
    0.6028   -0.7455   -0.7714 C   0  0  0  0  0  0  0  0  0  0  0  0
    1.4420    0.3482   -1.4805 C   0  0  0  0  0  0  0  0  0  0  0  0
    1.4976   -1.5111    0.2383 C   0  0  0  0  0  0  0  0  0  0  0  0
    1.6773    1.6760   -0.7600 C   0  0  0  0  0  0  0  0  0  0  0  0
    1.9641   -0.7790    1.4942 C   0  0  0  0  0  0  0  0  0  0  0  0
    1.8743    1.6413    0.7492 C   0  0  0  0  0  0  0  0  0  0  0  0
    2.7521    0.5025    1.2475 C   0  0  0  0  0  0  0  0  0  0  0  0
   -0.7727   -0.3023   -0.2731 C   0  0  0  0  0  0  0  0  0  0  0  0
   -1.4609    0.7043   -0.9451 C   0  0  0  0  0  0  0  0  0  0  0  0
   -1.3304   -0.9079    0.8497 C   0  0  0  0  0  0  0  0  0  0  0  0
   -2.7161    1.1085   -0.4908 C   0  0  0  0  0  0  0  0  0  0  0  0
   -2.5857   -0.5036    1.3039 C   0  0  0  0  0  0  0  0  0  0  0  0
   -3.2786    0.5046    0.6337 C   0  0  0  0  0  0  0  0  0  0  0  0
  1  2  1  0
  2  3  1  0
  2  4  1  0
  2  9  1  0
  3  5  1  0
  4  6  1  0
  5  7  1  0
  6  8  1  0
  7  8  1  0
  9 10  2  0
  9 11  1  0
 10 12  1  0
 11 13  2  0
 12 14  2  0
 13 14  1  0
M  END
>  <PUBCHEM_COMPOUND_CID>  (1) 
16385

>  <PUBCHEM_CONFORMER_RMSD>  (1) 
0.6

>  <PUBCHEM_CONFORMER_DIVERSEORDER>  (1) 
2
5
4
8
6
3
7
1

>  <PUBCHEM_MMFF94_PARTIAL_CHARGES>  (1) 
14
1 -0.68
10 -0.15
11 -0.15
12 -0.15
13 -0.15
14 -0.15
2 0.42
27 0.4
28 0.15
29 0.15
30 0.15
31 0.15
32 0.15
9 -0.14

>  <PUBCHEM_EFFECTIVE_ROTOR_COUNT>  (1) 
2.4

>  <PUBCHEM_PHARMACOPHORE_FEATURES>  (1) 
4
1 1 acceptor
1 1 donor
6 9 10 11 12 13 14 rings
7 2 3 4 5 6 7 8 rings

>  <PUBCHEM_HEAVY_ATOM_COUNT>  (1) 
14

>  <PUBCHEM_ATOM_DEF_STEREO_COUNT>  (1) 
0

>  <PUBCHEM_ATOM_UDEF_STEREO_COUNT>  (1) 
0

>  <PUBCHEM_BOND_DEF_STEREO_COUNT>  (1) 
0

>  <PUBCHEM_BOND_UDEF_STEREO_COUNT>  (1) 
0

>  <PUBCHEM_ISOTOPIC_ATOM_COUNT>  (1) 
0

>  <PUBCHEM_COMPONENT_COUNT>  (1) 
1

>  <PUBCHEM_CACTVS_TAUTO_COUNT>  (1) 
1

>  <PUBCHEM_CONFORMER_ID>  (1) 
0000400100000002

>  <PUBCHEM_MMFF94_ENERGY>  (1) 
42.8114

>  <PUBCHEM_FEATURE_SELFOVERLAP>  (1) 
20.297

>  <PUBCHEM_SHAPE_FINGERPRINT>  (1) 
12251169 10 17821723961643686937
12326174 3 18129952165219125894
12423570 1 12161933848732606686
12696612 119 17822008735223904408
12897270 3 12535336943651985345
13571099 52 17275094042112576753
14817 1 16266821135129584238
15775835 57 18129370652374827424
16945 1 18187917374473696292
18981168 100 17203059589479687403
20511035 2 18334565828734332300
20559304 39 17168156610942360147
20653091 64 15140973858547160462
21731516 1 13190606222747707920
230 275 17846501421773760529
23419403 2 14258264827527429246
2748010 2 17822021878303748319
305870 269 17561082484153791422
430814 3 18120664783925772008
7364860 26 17895206484249513438
81228 2 17125635433747736406

>  <PUBCHEM_SHAPE_MULTIPOLES>  (1) 
282.24
4.39
1.72
1.59
2.24
0.09
0.55
-0.01
-2.04
-0.38
-0.15
-0.77
-0.04
0.18

>  <PUBCHEM_SHAPE_SELFOVERLAP>  (1) 
585.341

>  <PUBCHEM_SHAPE_VOLUME>  (1) 
159.6

>  <PUBCHEM_COORDINATE_TYPE>  (1) 
2
5
10

$$$$
