16403
     RDKit          3D

 15 15  0  0  0  0  0  0  0  0999 V2000
   -0.3540    0.2141    0.8442 O   0  0  0  0  0  0  0  0  0  0  0  0
    0.7107   -2.2456    0.9877 O   0  0  0  0  0  0  0  0  0  0  0  0
   -3.7642    0.0881   -0.5488 N   0  0  0  0  0  0  0  0  0  0  0  0
   -2.5882   -0.3498    0.2021 C   0  0  0  0  0  0  0  0  0  0  0  0
   -1.4674    0.6711    0.0874 C   0  0  0  0  0  0  0  0  0  0  0  0
    0.8891    0.5744    0.3936 C   0  0  0  0  0  0  0  0  0  0  0  0
    1.8220   -0.3943    0.0380 C   0  0  0  0  0  0  0  0  0  0  0  0
   -4.2268    1.3873   -0.0621 C   0  0  0  0  0  0  0  0  0  0  0  0
   -4.8330   -0.9050   -0.4496 C   0  0  0  0  0  0  0  0  0  0  0  0
    1.2022    1.9266    0.2964 C   0  0  0  0  0  0  0  0  0  0  0  0
    3.0814   -0.0069   -0.4198 C   0  0  0  0  0  0  0  0  0  0  0  0
    1.5082   -1.8132    0.1332 C   0  0  0  0  0  0  0  0  0  0  0  0
    2.4615    2.3139   -0.1614 C   0  0  0  0  0  0  0  0  0  0  0  0
    3.4011    1.3472   -0.5194 C   0  0  0  0  0  0  0  0  0  0  0  0
    2.1574   -2.8078   -0.8214 C   0  0  0  0  0  0  0  0  0  0  0  0
  1  5  1  0
  1  6  1  0
  2 12  2  0
  3  4  1  0
  3  8  1  0
  3  9  1  0
  4  5  1  0
  6  7  2  0
  6 10  1  0
  7 11  1  0
  7 12  1  0
 10 13  2  0
 11 14  2  0
 12 15  1  0
 13 14  1  0
M  END
>  <PUBCHEM_COMPOUND_CID>  (1) 
16403

>  <PUBCHEM_CONFORMER_RMSD>  (1) 
0.6

>  <PUBCHEM_CONFORMER_DIVERSEORDER>  (1) 
2
71
105
89
119
123
95
106
51
124
88
160
117
85
133
141
6
100
90
37
125
70
127
86
46
12
58
122
109
126
16
142
110
102
135
49
60
23
83
52
79
57
92
64
94
78
136
132
69
140
80
98
150
26
20
104
107
87
73
128
35
91
82
13
131
77
25
103
28
84
47
158
30
65
75
97
62
93
59
55
24
3
111
7
72
137
153
9
42
11
48
54
22
149
18
43
113
45
38
67
145
66
10
41
27
53
99
120
148
121
4
50
34
44
32
139
147
129
36
118
138
63
14
39
152
68
114
81
21
17
8
1
33
157
40
134
31
155
5
154
108
146
76
56
29
61
74
96
144
115
156
101
19
112
15
116
151
143
159
130

>  <PUBCHEM_MMFF94_PARTIAL_CHARGES>  (1) 
19
1 -0.36
10 -0.15
11 -0.15
12 0.42
13 -0.15
14 -0.15
15 0.06
2 -0.57
26 0.15
27 0.15
28 0.15
29 0.15
3 -0.81
4 0.27
5 0.28
6 0.08
7 0.09
8 0.27
9 0.27

>  <PUBCHEM_EFFECTIVE_ROTOR_COUNT>  (1) 
5

>  <PUBCHEM_PHARMACOPHORE_FEATURES>  (1) 
4
1 1 acceptor
1 2 acceptor
1 3 cation
6 6 7 10 11 13 14 rings

>  <PUBCHEM_HEAVY_ATOM_COUNT>  (1) 
15

>  <PUBCHEM_ATOM_DEF_STEREO_COUNT>  (1) 
0

>  <PUBCHEM_ATOM_UDEF_STEREO_COUNT>  (1) 
0

>  <PUBCHEM_BOND_DEF_STEREO_COUNT>  (1) 
0

>  <PUBCHEM_BOND_UDEF_STEREO_COUNT>  (1) 
0

>  <PUBCHEM_ISOTOPIC_ATOM_COUNT>  (1) 
0

>  <PUBCHEM_COMPONENT_COUNT>  (1) 
1

>  <PUBCHEM_CACTVS_TAUTO_COUNT>  (1) 
2

>  <PUBCHEM_CONFORMER_ID>  (1) 
0000401300000002

>  <PUBCHEM_MMFF94_ENERGY>  (1) 
48.4589

>  <PUBCHEM_FEATURE_SELFOVERLAP>  (1) 
20.305

>  <PUBCHEM_SHAPE_FINGERPRINT>  (1) 
10616163 171 18270961362291633207
10980938 120 18411698785668121713
11265709 11 17757264878002310690
11471102 20 18410011043899046076
116883 192 17909549454362013885
12616999 72 18409168830802913287
12730499 353 18261399979084874067
13380535 76 18335984276233478730
13836976 161 18337109072106762742
14251717 144 18410572889934855678
14415576 193 18334296499925440037
15442244 35 18053105025616518449
15477762 27 18413107234193272270
15502722 9 18410857659241276583
15757776 16 18411418380275326894
16945 1 18340787982706266280
18186145 218 18270415999701553768
19422 9 18201441337884270099
20281475 54 18201718423530946387
20645477 70 18411696557065508951
20671657 53 18124036723836901086
21524375 3 18263077880793847384
221490 88 18409456872980331035
22289505 5 18261944151257122357
22713019 99 18271255979978532652
23402655 69 18411981356120339125
23530152 11 18268149936491402022
23557571 272 16950557779843977919
23598291 2 18056490447688023697
25 1 18408324410320839740
257057 1 17686332075895996930
2748010 2 17978814598725131952
2871803 45 18338792429263160471
3060560 45 18338233872792335764
33824 294 18409445916344204826
543358 83 18268151955194459945
58051976 378 18337387244586055191
581208 293 18411133649460269777
7364860 26 18341330007220266712
81228 2 17330835721329099282
81539 233 18333730247305263166
8272917 22 18341337704075980919
9709674 26 18409171004584340395

>  <PUBCHEM_SHAPE_MULTIPOLES>  (1) 
291.97
7.71
2.68
0.81
11.22
1.11
0.02
-1.01
-1.96
-2.4
-0.17
-0.09
0.19
-0.06

>  <PUBCHEM_SHAPE_SELFOVERLAP>  (1) 
590.953

>  <PUBCHEM_SHAPE_VOLUME>  (1) 
172.6

>  <PUBCHEM_COORDINATE_TYPE>  (1) 
2
5
10

$$$$
