16404
     RDKit          3D

 19 20  0  0  0  0  0  0  0  0999 V2000
   -0.6895    0.0324   -0.6367 C   0  0  0  0  0  0  0  0  0  0  0  0
   -0.7402   -1.3629   -0.0184 C   0  0  0  0  0  0  0  0  0  0  0  0
   -2.0209    0.7458   -0.4091 C   0  0  0  0  0  0  0  0  0  0  0  0
   -1.8948   -2.1852   -0.5958 C   0  0  0  0  0  0  0  0  0  0  0  0
    0.6020   -2.0924   -0.2047 C   0  0  0  0  0  0  0  0  0  0  0  0
   -2.2853    0.9343    1.0909 C   0  0  0  0  0  0  0  0  0  0  0  0
   -2.0457    2.0940   -1.1417 C   0  0  0  0  0  0  0  0  0  0  0  0
    0.4623    0.8849   -0.0727 C   0  0  0  0  0  0  0  0  0  0  0  0
   -2.0292   -3.5440    0.0971 C   0  0  0  0  0  0  0  0  0  0  0  0
    0.4822   -3.6185   -0.1656 C   0  0  0  0  0  0  0  0  0  0  0  0
   -3.5863    1.6930    1.3430 C   0  0  0  0  0  0  0  0  0  0  0  0
   -3.3469    2.8510   -0.8859 C   0  0  0  0  0  0  0  0  0  0  0  0
   -0.7111   -4.0794    0.6588 C   0  0  0  0  0  0  0  0  0  0  0  0
   -3.6107    3.0285    0.6061 C   0  0  0  0  0  0  0  0  0  0  0  0
    1.8469    0.2768   -0.3151 C   0  0  0  0  0  0  0  0  0  0  0  0
    2.9547    1.1987    0.2008 C   0  0  0  0  0  0  0  0  0  0  0  0
    4.3402    0.6117   -0.0737 C   0  0  0  0  0  0  0  0  0  0  0  0
    5.4466    1.5478    0.4118 C   0  0  0  0  0  0  0  0  0  0  0  0
    6.8258    0.9834    0.1108 C   0  0  0  0  0  0  0  0  0  0  0  0
  1  2  1  0
  1  3  1  0
  1  8  1  0
  2  4  1  0
  2  5  1  0
  3  6  1  0
  3  7  1  0
  4  9  1  0
  5 10  1  0
  6 11  1  0
  7 12  1  0
  8 15  1  0
  9 13  1  0
 10 13  1  0
 11 14  1  0
 12 14  1  0
 15 16  1  0
 16 17  1  0
 17 18  1  0
 18 19  1  0
M  END
>  <PUBCHEM_COMPOUND_CID>  (1) 
16404

>  <PUBCHEM_CONFORMER_RMSD>  (1) 
0.8

>  <PUBCHEM_CONFORMER_DIVERSEORDER>  (1) 
1
14
6
18
7
17
9
15
10
5
12
4
2
11
13
16
3
8

>  <PUBCHEM_MMFF94_PARTIAL_CHARGES>  (1) 
0

>  <PUBCHEM_EFFECTIVE_ROTOR_COUNT>  (1) 
9.4

>  <PUBCHEM_PHARMACOPHORE_FEATURES>  (1) 
5
1 19 hydrophobe
3 1 8 15 hydrophobe
3 16 17 18 hydrophobe
6 2 4 5 9 10 13 rings
6 3 6 7 11 12 14 rings

>  <PUBCHEM_HEAVY_ATOM_COUNT>  (1) 
19

>  <PUBCHEM_ATOM_DEF_STEREO_COUNT>  (1) 
0

>  <PUBCHEM_ATOM_UDEF_STEREO_COUNT>  (1) 
0

>  <PUBCHEM_BOND_DEF_STEREO_COUNT>  (1) 
0

>  <PUBCHEM_BOND_UDEF_STEREO_COUNT>  (1) 
0

>  <PUBCHEM_ISOTOPIC_ATOM_COUNT>  (1) 
0

>  <PUBCHEM_COMPONENT_COUNT>  (1) 
1

>  <PUBCHEM_CACTVS_TAUTO_COUNT>  (1) 
1

>  <PUBCHEM_CONFORMER_ID>  (1) 
0000401400000001

>  <PUBCHEM_MMFF94_ENERGY>  (1) 
48.7927

>  <PUBCHEM_FEATURE_SELFOVERLAP>  (1) 
25.385

>  <PUBCHEM_SHAPE_FINGERPRINT>  (1) 
10411042 1 17761774365877122550
10493431 412 18411706460780129896
11036077 51 18410571812188357746
11578080 2 13239981042587389785
12390115 104 18341623602758548276
12643181 29 18411984625613727510
12788726 201 18267566078447552443
13004483 165 17906452486667936698
13134695 92 17111562295224509135
13140716 1 18265618671561168763
13583140 156 16805314492390202260
136203 1 18194683889416864171
13955234 65 17832715565218486673
14508225 48 17979904235743086007
14713325 29 18338238283697589210
14790565 3 18123474873991148000
14866123 147 18338799017273922978
15042514 8 18119813761736216299
15230672 131 18335425605128346070
15842332 3 17678754555532635996
15927050 60 18341051817873250774
167882 2 18048305657086527836
18785283 64 17974576796816172129
19784866 34 18269837514751468760
204376 136 18339079289575225496
20600515 1 17693675005124707679
20645477 56 18409448081530539780
21120745 212 17687488048900193124
21202864 24 18338807809150696377
21426921 1 18265330784609352012
21524375 3 18272650117303595557
22224240 67 18342186548876133681
2255824 54 17765710226925611823
23402539 116 18126560360747201839
23419403 2 17268681634770969151
23557571 272 18200603613340834820
23558518 356 18334298695049704806
23559900 14 17978780535403168112
266924 87 18340475751200451575
283562 15 18339634667691480967
3091708 16 9412518264817553227
3729539 64 17763207760189351622
3759504 43 18411982459889854896
532947 4 18051129190447188518
59755656 520 18412261722736829756
633830 44 17843408383948742877
7364860 26 17833271913580157917
7399639 24 18118134576164362929
77188 2 17545883088914921215
81228 2 18194973073928533703
9981440 41 18264489486168219761

>  <PUBCHEM_SHAPE_MULTIPOLES>  (1) 
391.01
9.45
5.11
1
22.01
5.7
-0.08
-10.42
-1.54
-5.02
-0.29
-0.84
-0.42
0.11

>  <PUBCHEM_SHAPE_SELFOVERLAP>  (1) 
765.293

>  <PUBCHEM_SHAPE_VOLUME>  (1) 
232.2

>  <PUBCHEM_COORDINATE_TYPE>  (1) 
2
5
10

$$$$
