16412
     RDKit          3D

 15 17  0  0  1  0  0  0  0  0999 V2000
   -2.5699    2.5448    0.7364 O   0  0  0  0  0  0  0  0  0  0  0  0
   -2.5658   -2.5451   -0.7352 O   0  0  0  0  0  0  0  0  0  0  0  0
   -0.4190   -0.0007    0.0084 N   0  0  0  0  0  0  0  0  0  0  0  0
   -1.2514    2.2868    0.2821 C   0  0  0  0  0  0  0  0  0  0  0  0
   -1.2455   -2.2877   -0.2859 C   0  0  0  0  0  0  0  0  0  0  0  0
   -1.1566    1.0731   -0.6269 C   0  0  0  0  0  0  0  0  0  0  0  0
   -1.1492   -1.0840    0.6361 C   0  0  0  0  0  0  0  0  0  0  0  0
   -1.9866    3.4927   -0.1670 C   0  0  0  0  0  0  0  0  0  0  0  0
   -1.9740   -3.5011    0.1538 C   0  0  0  0  0  0  0  0  0  0  0  0
    0.9914    0.0016    0.0042 C   0  0  0  0  0  0  0  0  0  0  0  0
    1.6856    1.0418   -0.6140 C   0  0  0  0  0  0  0  0  0  0  0  0
    1.6923   -1.0365    0.6180 C   0  0  0  0  0  0  0  0  0  0  0  0
    3.0805    1.0435   -0.6187 C   0  0  0  0  0  0  0  0  0  0  0  0
    3.0871   -1.0346    0.6134 C   0  0  0  0  0  0  0  0  0  0  0  0
    3.7812    0.0055   -0.0049 C   0  0  0  0  0  0  0  0  0  0  0  0
  1  4  1  0
  1  8  1  0
  2  5  1  0
  2  9  1  0
  3  6  1  0
  3  7  1  0
  3 10  1  0
  4  6  1  0
  4  8  1  0
  5  7  1  0
  5  9  1  0
 10 11  2  0
 10 12  1  0
 11 13  1  0
 12 14  2  0
 13 15  2  0
 14 15  1  0
M  END
>  <PUBCHEM_COMPOUND_CID>  (1) 
16412

>  <PUBCHEM_CONFORMER_RMSD>  (1) 
0.8

>  <PUBCHEM_CONFORMER_DIVERSEORDER>  (1) 
4
25
11
30
3
27
13
35
14
16
17
23
31
24
18
28
20
26
8
29
1
32
21
33
12
5
34
6
15
10
9
22
2
7
19

>  <PUBCHEM_MMFF94_PARTIAL_CHARGES>  (1) 
26
1 -0.3
10 0.1
11 -0.15
12 -0.15
13 -0.15
14 -0.15
15 -0.15
16 0.1
17 0.1
2 -0.3
22 0.1
23 0.1
24 0.1
25 0.1
26 0.15
27 0.15
28 0.15
29 0.15
3 -0.84
30 0.15
4 -0.05
5 -0.05
6 0.46
7 0.46
8 -0.05
9 -0.05

>  <PUBCHEM_EFFECTIVE_ROTOR_COUNT>  (1) 
6.2

>  <PUBCHEM_PHARMACOPHORE_FEATURES>  (1) 
4
1 1 acceptor
1 2 acceptor
1 3 cation
6 10 11 12 13 14 15 rings

>  <PUBCHEM_HEAVY_ATOM_COUNT>  (1) 
15

>  <PUBCHEM_ATOM_DEF_STEREO_COUNT>  (1) 
0

>  <PUBCHEM_ATOM_UDEF_STEREO_COUNT>  (1) 
2

>  <PUBCHEM_BOND_DEF_STEREO_COUNT>  (1) 
0

>  <PUBCHEM_BOND_UDEF_STEREO_COUNT>  (1) 
0

>  <PUBCHEM_ISOTOPIC_ATOM_COUNT>  (1) 
0

>  <PUBCHEM_COMPONENT_COUNT>  (1) 
1

>  <PUBCHEM_CACTVS_TAUTO_COUNT>  (1) 
1

>  <PUBCHEM_CONFORMER_ID>  (1) 
0000401C00000004

>  <PUBCHEM_MMFF94_ENERGY>  (1) 
51.3679

>  <PUBCHEM_FEATURE_SELFOVERLAP>  (1) 
20.297

>  <PUBCHEM_SHAPE_FINGERPRINT>  (1) 
1 1 17690561883915737749
10465860 228 17260753940901827305
108231 29 17685779429405555874
116883 192 18413392037791184950
12500047 106 18268705018407297184
12553582 1 18122350343604022250
12788726 201 18339911675875511671
136203 1 18411701001971414987
14178342 30 18336248077899866498
15279307 12 18188776037568632674
15309172 13 18048599218154405040
15502708 68 17689433784901483865
15906896 17 18271797991359776695
16945 1 18410855460434097410
18410436 195 17908983549729289319
19021347 4 18195525896248675303
20361792 2 17912361232001390687
20645477 70 17397542009819117741
20671657 53 17909835671130494135
21501502 16 18333449846513416476
21524375 3 18117280242058714617
21731228 192 18193845829517696553
22112679 90 17981071887074537243
23402539 116 18271798034773634215
23419403 2 16531382358545232844
23557571 272 18271810185130749188
23558518 356 18334858277553424906
25147074 1 18040715870998071818
2748010 2 17977118867736455047
305870 269 17763179137925565693
3060560 45 17689714156113570366
3091708 16 9130190080147843713
474229 33 18337676291975490529
6992083 37 18114458942824983036
7364860 26 17187001991113608785
81228 2 18337107964089622201
8272917 22 17402048899280712621
84936 182 16685991406430426939

>  <PUBCHEM_SHAPE_MULTIPOLES>  (1) 
291.97
5.04
4.18
0.83
4.03
0.02
0
-0.02
0.01
-5.8
0.01
0
0
-0.89

>  <PUBCHEM_SHAPE_SELFOVERLAP>  (1) 
604.965

>  <PUBCHEM_SHAPE_VOLUME>  (1) 
167.7

>  <PUBCHEM_COORDINATE_TYPE>  (1) 
2
5
10

$$$$
