16418
     RDKit          3D

  6  5  0  0  0  0  0  0  0  0999 V2000
   -2.3920    0.7712   -0.0273 O   0  0  0  0  0  0  0  0  0  0  0  0
    0.3794    0.3231    0.2798 C   0  0  0  0  0  0  0  0  0  0  0  0
   -0.5650   -0.8284   -0.0512 C   0  0  0  0  0  0  0  0  0  0  0  0
    1.7995   -0.1486    0.3779 C   0  0  0  0  0  0  0  0  0  0  0  0
   -2.0053   -0.3858   -0.1528 C   0  0  0  0  0  0  0  0  0  0  0  0
    2.7834    0.2686   -0.4264 C   0  0  0  0  0  0  0  0  0  0  0  0
  1  5  2  0
  2  3  1  0
  2  4  1  0
  3  5  1  0
  4  6  2  0
M  END
>  <PUBCHEM_COMPOUND_CID>  (1) 
16418

>  <PUBCHEM_CONFORMER_RMSD>  (1) 
0.4

>  <PUBCHEM_CONFORMER_DIVERSEORDER>  (1) 
2
31
25
3
11
24
26
8
30
6
28
4
16
27
19
23
15
29
1
12
22
18
20
7
17
21
5
9
14
10
13

>  <PUBCHEM_MMFF94_PARTIAL_CHARGES>  (1) 
10
1 -0.57
11 0.15
12 0.06
13 0.15
14 0.15
2 0.14
3 0.06
4 -0.29
5 0.45
6 -0.3

>  <PUBCHEM_EFFECTIVE_ROTOR_COUNT>  (1) 
3

>  <PUBCHEM_PHARMACOPHORE_FEATURES>  (1) 
2
1 1 acceptor
1 6 hydrophobe

>  <PUBCHEM_HEAVY_ATOM_COUNT>  (1) 
6

>  <PUBCHEM_ATOM_DEF_STEREO_COUNT>  (1) 
0

>  <PUBCHEM_ATOM_UDEF_STEREO_COUNT>  (1) 
0

>  <PUBCHEM_BOND_DEF_STEREO_COUNT>  (1) 
0

>  <PUBCHEM_BOND_UDEF_STEREO_COUNT>  (1) 
0

>  <PUBCHEM_ISOTOPIC_ATOM_COUNT>  (1) 
0

>  <PUBCHEM_COMPONENT_COUNT>  (1) 
1

>  <PUBCHEM_CACTVS_TAUTO_COUNT>  (1) 
2

>  <PUBCHEM_CONFORMER_ID>  (1) 
0000402200000002

>  <PUBCHEM_MMFF94_ENERGY>  (1) 
1.2475

>  <PUBCHEM_FEATURE_SELFOVERLAP>  (1) 
10.148

>  <PUBCHEM_SHAPE_FINGERPRINT>  (1) 
10857977 72 11314314983034150806
14390081 3 18409163350577877656
16714656 1 18410573989525630749
20096714 4 18335415794177401267
21040471 1 18412256242295191434
29004967 10 15769777974429866906
5460574 1 9655581815744092898

>  <PUBCHEM_SHAPE_MULTIPOLES>  (1) 
117.61
4.01
0.85
0.68
0.6
0.03
0
-0.58
0.5
-0.27
0.01
0.16
0.01
-0.07

>  <PUBCHEM_SHAPE_SELFOVERLAP>  (1) 
207.367

>  <PUBCHEM_SHAPE_VOLUME>  (1) 
76.3

>  <PUBCHEM_COORDINATE_TYPE>  (1) 
2
5
10

$$$$
