16411
     RDKit          3D

 15 15  0  0  0  0  0  0  0  0999 V2000
    2.3187   -1.6772   -1.1606 O   0  0  0  0  0  0  0  0  0  0  0  0
    2.1744    0.5903   -0.7719 N   0  0  0  0  0  0  0  0  0  0  0  0
   -1.9027    0.0121    0.0355 C   0  0  0  0  0  0  0  0  0  0  0  0
    0.2899   -0.8666   -0.2935 C   0  0  0  0  0  0  0  0  0  0  0  0
   -0.5998    0.1751   -0.4355 C   0  0  0  0  0  0  0  0  0  0  0  0
   -2.8660    1.0937   -0.0995 C   0  0  0  0  0  0  0  0  0  0  0  0
   -2.2822   -1.1881    0.6363 C   0  0  0  0  0  0  0  0  0  0  0  0
   -0.0561   -2.0627    0.2953 C   0  0  0  0  0  0  0  0  0  0  0  0
   -1.3590   -2.2255    0.7661 C   0  0  0  0  0  0  0  0  0  0  0  0
    1.6822   -0.6934   -0.7962 C   0  0  0  0  0  0  0  0  0  0  0  0
   -2.3677    2.5276   -0.1040 C   0  0  0  0  0  0  0  0  0  0  0  0
    2.8008    1.0098    0.2853 C   0  0  0  0  0  0  0  0  0  0  0  0
   -4.1997    0.8691   -0.2375 C   0  0  0  0  0  0  0  0  0  0  0  0
    3.3907    2.3894    0.4486 C   0  0  0  0  0  0  0  0  0  0  0  0
    2.9765    0.0464    1.4315 C   0  0  0  0  0  0  0  0  0  0  0  0
  1 10  2  0
  2 10  1  0
  2 12  2  3
  3  5  2  0
  3  6  1  0
  3  7  1  0
  4  5  1  0
  4  8  2  0
  4 10  1  0
  6 11  1  0
  6 13  2  0
  7  9  2  0
  8  9  1  0
 12 14  1  0
 12 15  1  0
M  END
>  <PUBCHEM_COMPOUND_CID>  (1) 
16411

>  <PUBCHEM_CONFORMER_RMSD>  (1) 
0.6

>  <PUBCHEM_CONFORMER_DIVERSEORDER>  (1) 
1
7
15
12
14
17
22
4
9
18
6
23
11
13
20
2
16
8
21
19
10
5
3

>  <PUBCHEM_MMFF94_PARTIAL_CHARGES>  (1) 
21
1 -0.57
10 0.69
11 0.14
12 0.33
13 -0.3
14 0.06
15 0.06
16 0.15
17 0.15
18 0.15
19 0.15
2 -0.66
23 0.15
24 0.15
3 0.03
4 0.09
5 -0.15
6 -0.17
7 -0.15
8 -0.15
9 -0.15

>  <PUBCHEM_EFFECTIVE_ROTOR_COUNT>  (1) 
3

>  <PUBCHEM_PHARMACOPHORE_FEATURES>  (1) 
4
1 1 acceptor
1 2 acceptor
1 2 donor
6 3 4 5 7 8 9 rings

>  <PUBCHEM_HEAVY_ATOM_COUNT>  (1) 
15

>  <PUBCHEM_ATOM_DEF_STEREO_COUNT>  (1) 
0

>  <PUBCHEM_ATOM_UDEF_STEREO_COUNT>  (1) 
0

>  <PUBCHEM_BOND_DEF_STEREO_COUNT>  (1) 
0

>  <PUBCHEM_BOND_UDEF_STEREO_COUNT>  (1) 
0

>  <PUBCHEM_ISOTOPIC_ATOM_COUNT>  (1) 
0

>  <PUBCHEM_COMPONENT_COUNT>  (1) 
1

>  <PUBCHEM_CACTVS_TAUTO_COUNT>  (1) 
1

>  <PUBCHEM_CONFORMER_ID>  (1) 
0000401B00000001

>  <PUBCHEM_MMFF94_ENERGY>  (1) 
53.52

>  <PUBCHEM_FEATURE_SELFOVERLAP>  (1) 
20.347

>  <PUBCHEM_SHAPE_FINGERPRINT>  (1) 
10608611 8 18412549829200866164
11543360 7 17203316802702991029
122479 349 18412259579447837600
12251169 10 18186791483431263848
12382932 28 18336266846215937616
12403260 363 18338220566893864689
13294875 104 18046060458812065650
13380535 76 18409726253434312767
13571099 52 18201988932981552610
13583140 156 16153429484747454549
13764800 53 18335428997081033609
13839132 238 18410296925617535150
14648413 74 18341058440970718742
15219456 202 18342465862967069422
15775835 57 17967531281093108864
16945 1 18191882333699886399
17846911 113 18409161113195315609
18186145 218 18198064681719540853
19049666 15 18340218405233425562
20281475 54 8502387658313446684
20510252 161 18338524161031225915
20525323 117 18265891535059684319
21524375 3 18341041947926828967
21947302 44 18272653411421964732
22096605 113 17917705812047349293
23402539 116 18194670686998983495
23526113 38 18055937402045491678
23557571 272 18266187316509056822
23559900 14 18341051822225772534
2748010 2 18336847341332504151
305870 269 18117269264143073779
3071541 236 17967534610025313099
4463277 69 11386666125798315033
474 4 18341891853483572929
526903 126 18411979174471956097
6049 1 18269018477441244518
6333272 397 18408321077558229849
633830 44 18270116795632640805
7097593 13 17969199236385663272
7364860 26 18050845520615757651
8050 44 18342738528691640353
81228 2 18116168833793567427
84936 182 17977379443798358081

>  <PUBCHEM_SHAPE_MULTIPOLES>  (1) 
297.84
6.2
2.62
1
0.12
0.37
-0.06
3.89
-0.63
0.25
-0.26
-0.65
-0.24
0.88

>  <PUBCHEM_SHAPE_SELFOVERLAP>  (1) 
616.984

>  <PUBCHEM_SHAPE_VOLUME>  (1) 
172.5

>  <PUBCHEM_COORDINATE_TYPE>  (1) 
2
5
10

$$$$
