16414
     RDKit          3D

 22 24  0  0  0  0  0  0  0  0999 V2000
   -3.2867    3.8419   -0.3043 Cl  0  0  0  0  0  0  0  0  0  0  0  0
    2.6823    1.9189    0.2177 S   0  0  0  0  0  0  0  0  0  0  0  0
    4.9883   -2.5541   -0.6105 O   0  0  0  0  0  0  0  0  0  0  0  0
    0.1848    0.1029    0.5766 N   0  0  0  0  0  0  0  0  0  0  0  0
   -3.6678   -2.8844   -0.3879 N   0  0  0  0  0  0  0  0  0  0  0  0
   -0.9052   -0.6887    1.1617 C   0  0  0  0  0  0  0  0  0  0  0  0
   -1.7629   -1.3774    0.1020 C   0  0  0  0  0  0  0  0  0  0  0  0
    1.3984   -0.5707    0.2877 C   0  0  0  0  0  0  0  0  0  0  0  0
   -0.0818    1.4642    0.2829 C   0  0  0  0  0  0  0  0  0  0  0  0
   -2.8926   -2.2432    0.6673 C   0  0  0  0  0  0  0  0  0  0  0  0
    2.5946    0.1447    0.0806 C   0  0  0  0  0  0  0  0  0  0  0  0
    0.9675    2.3812    0.0755 C   0  0  0  0  0  0  0  0  0  0  0  0
    1.4615   -1.9756    0.1582 C   0  0  0  0  0  0  0  0  0  0  0  0
   -1.3987    1.9563    0.1493 C   0  0  0  0  0  0  0  0  0  0  0  0
    3.7940   -0.5280   -0.2134 C   0  0  0  0  0  0  0  0  0  0  0  0
    0.6974    3.7286   -0.2229 C   0  0  0  0  0  0  0  0  0  0  0  0
    2.6552   -2.6387   -0.1394 C   0  0  0  0  0  0  0  0  0  0  0  0
   -4.2873   -1.8806   -1.2553 C   0  0  0  0  0  0  0  0  0  0  0  0
   -4.6908   -3.7617    0.1840 C   0  0  0  0  0  0  0  0  0  0  0  0
   -1.6614    3.2954   -0.1522 C   0  0  0  0  0  0  0  0  0  0  0  0
    3.8233   -1.9143   -0.3222 C   0  0  0  0  0  0  0  0  0  0  0  0
   -0.6122    4.1832   -0.3353 C   0  0  0  0  0  0  0  0  0  0  0  0
  1 20  1  0
  2 11  1  0
  2 12  1  0
  3 21  1  0
  4  6  1  0
  4  8  1  0
  4  9  1  0
  5 10  1  0
  5 18  1  0
  5 19  1  0
  6  7  1  0
  7 10  1  0
  8 11  2  0
  8 13  1  0
  9 12  2  0
  9 14  1  0
 11 15  1  0
 12 16  1  0
 13 17  2  0
 14 20  2  0
 15 21  2  0
 16 22  2  0
 17 21  1  0
 20 22  1  0
M  END
>  <PUBCHEM_COMPOUND_CID>  (1) 
16414

>  <PUBCHEM_CONFORMER_RMSD>  (1) 
0.8

>  <PUBCHEM_CONFORMER_DIVERSEORDER>  (1) 
1
8
9
14
4
12
5
13
11
15
2
10
7
6
3

>  <PUBCHEM_MMFF94_PARTIAL_CHARGES>  (1) 
28
1 -0.18
10 0.27
11 0.1
12 0.1
13 -0.15
14 -0.15
15 -0.15
16 -0.15
17 -0.15
18 0.27
19 0.27
2 -0.2
20 0.18
21 0.08
22 -0.15
29 0.15
3 -0.53
30 0.15
31 0.15
32 0.15
33 0.15
4 -0.57
40 0.15
41 0.45
5 -0.81
6 0.37
8 0.1
9 0.1

>  <PUBCHEM_EFFECTIVE_ROTOR_COUNT>  (1) 
4.4

>  <PUBCHEM_PHARMACOPHORE_FEATURES>  (1) 
6
1 3 donor
1 4 cation
1 5 cation
6 2 4 8 9 11 12 rings
6 8 11 13 15 17 21 rings
6 9 12 14 16 20 22 rings

>  <PUBCHEM_HEAVY_ATOM_COUNT>  (1) 
22

>  <PUBCHEM_ATOM_DEF_STEREO_COUNT>  (1) 
0

>  <PUBCHEM_ATOM_UDEF_STEREO_COUNT>  (1) 
0

>  <PUBCHEM_BOND_DEF_STEREO_COUNT>  (1) 
0

>  <PUBCHEM_BOND_UDEF_STEREO_COUNT>  (1) 
0

>  <PUBCHEM_ISOTOPIC_ATOM_COUNT>  (1) 
0

>  <PUBCHEM_COMPONENT_COUNT>  (1) 
1

>  <PUBCHEM_CACTVS_TAUTO_COUNT>  (1) 
3

>  <PUBCHEM_CONFORMER_ID>  (1) 
0000401E00000001

>  <PUBCHEM_MMFF94_ENERGY>  (1) 
73.5346

>  <PUBCHEM_FEATURE_SELFOVERLAP>  (1) 
30.477

>  <PUBCHEM_SHAPE_FINGERPRINT>  (1) 
10254770 206 16317247538710352594
10411042 1 18410295843434119194
10967382 1 17977951516151344968
11578080 2 17560219401875372073
116883 192 18411131442137119481
12553582 1 18337125560634366226
12730499 353 17398678286456508075
12788726 201 18189614943228997531
13009979 54 17916327063448339843
13140716 1 18411411783622714352
13690498 29 18124062073340823518
138480 1 15383874256482669575
13911987 19 17540554825597212132
14251757 5 18335696084355302255
14790565 3 17688606265042633613
14866123 147 18194962942296056243
15081414 286 18194405713096440499
16087824 20 18193842549117899505
16728300 4 17538518410267918632
17539 30 18339638923792652495
1813 80 18128837371976736031
18785283 64 17614564069996483147
19427546 20 18264221231569837822
19591789 44 17545882629290162481
19930381 70 17833265703258128847
20028762 73 17188676556028632639
20602899 9 17695346971336227456
20645477 70 17903632222479476243
20775438 99 17908378633830053549
21344244 181 17481148895184750391
21478907 32 18410857655178398467
21524375 3 17394741570565952328
22849339 104 17908729240563599654
23419403 2 17392716592486667308
23558518 356 18260551108578929416
238 59 17184703384846260615
266924 87 18336828718227916036
2748010 2 18410576201982823768
3060560 45 17690562309022671461
3380486 145 18338536165354691936
46194498 28 17902216038976929063
58779409 54 18266177223710386178
59025328 239 17555977567952249647
6025842 7 17762899170957448023
6443956 14 18264487471759212743
7164475 11 18409453570419181062
81228 2 18408319969214035897
8272917 22 17907303504826632971
9709674 26 17981890744523500110

>  <PUBCHEM_SHAPE_MULTIPOLES>  (1) 
442.64
7.79
6.44
0.83
2.01
4.36
0.01
-9.95
1.76
4.76
0.82
0.35
-0.22
0.52

>  <PUBCHEM_SHAPE_SELFOVERLAP>  (1) 
920.523

>  <PUBCHEM_SHAPE_VOLUME>  (1) 
254.5

>  <PUBCHEM_COORDINATE_TYPE>  (1) 
2
5
10

$$$$
