16434
     RDKit          3D

 22 25  0  0  0  0  0  0  0  0999 V2000
    1.4456   -0.3495    2.5631 O   0  0  0  0  0  0  0  0  0  0  0  0
   -3.6943   -0.6758   -0.1154 N   0  0  0  0  0  0  0  0  0  0  0  0
   -5.5957   -0.1189   -1.3514 C   0  0  0  0  0  0  0  0  0  0  0  0
   -4.5864    1.0211   -1.4474 C   0  0  0  0  0  0  0  0  0  0  0  0
   -5.1257   -0.9693   -0.1804 C   0  0  0  0  0  0  0  0  0  0  0  0
   -3.5930    0.7684   -0.3230 C   0  0  0  0  0  0  0  0  0  0  0  0
    0.9444   -0.2313    1.2369 C   0  0  0  0  0  0  0  0  0  0  0  0
    1.7532   -1.1441    0.3250 C   0  0  0  0  0  0  0  0  0  0  0  0
    1.2586    1.1419    0.6529 C   0  0  0  0  0  0  0  0  0  0  0  0
   -3.0967   -1.0996    1.1421 C   0  0  0  0  0  0  0  0  0  0  0  0
    2.4352   -0.3840   -0.6530 C   0  0  0  0  0  0  0  0  0  0  0  0
    2.1321    1.0169   -0.4521 C   0  0  0  0  0  0  0  0  0  0  0  0
   -0.4901   -0.5382    1.2010 C   0  0  0  0  0  0  0  0  0  0  0  0
    1.8756   -2.5248    0.3739 C   0  0  0  0  0  0  0  0  0  0  0  0
    0.8094    2.3847    1.0738 C   0  0  0  0  0  0  0  0  0  0  0  0
    3.2399   -1.0049   -1.5949 C   0  0  0  0  0  0  0  0  0  0  0  0
    2.5587    2.1381   -1.1456 C   0  0  0  0  0  0  0  0  0  0  0  0
   -1.6641   -0.7901    1.1714 C   0  0  0  0  0  0  0  0  0  0  0  0
    2.6865   -3.1492   -0.5755 C   0  0  0  0  0  0  0  0  0  0  0  0
    1.2398    3.5137    0.3745 C   0  0  0  0  0  0  0  0  0  0  0  0
    3.3612   -2.3968   -1.5509 C   0  0  0  0  0  0  0  0  0  0  0  0
    2.1055    3.3915   -0.7247 C   0  0  0  0  0  0  0  0  0  0  0  0
  1  7  1  0
  2  5  1  0
  2  6  1  0
  2 10  1  0
  3  4  1  0
  3  5  1  0
  4  6  1  0
  7  8  1  0
  7  9  1  0
  7 13  1  0
  8 11  1  0
  8 14  2  0
  9 12  2  0
  9 15  1  0
 10 18  1  0
 11 12  1  0
 11 16  2  0
 12 17  1  0
 13 18  3  0
 14 19  1  0
 15 20  2  0
 16 21  1  0
 17 22  2  0
 19 21  2  0
 20 22  1  0
M  END
>  <PUBCHEM_COMPOUND_CID>  (1) 
16434

>  <PUBCHEM_CONFORMER_RMSD>  (1) 
0.6

>  <PUBCHEM_CONFORMER_DIVERSEORDER>  (1) 
1
2
3

>  <PUBCHEM_MMFF94_PARTIAL_CHARGES>  (1) 
27
1 -0.68
10 0.47
13 -0.2
14 -0.15
15 -0.15
16 -0.15
17 -0.15
18 -0.2
19 -0.15
2 -0.81
20 -0.15
21 -0.15
22 -0.15
33 0.15
34 0.15
35 0.15
36 0.15
37 0.4
38 0.15
39 0.15
40 0.15
41 0.15
5 0.27
6 0.27
7 0.77
8 -0.14
9 -0.14

>  <PUBCHEM_EFFECTIVE_ROTOR_COUNT>  (1) 
2.2

>  <PUBCHEM_PHARMACOPHORE_FEATURES>  (1) 
7
1 1 acceptor
1 1 donor
1 2 cation
5 2 3 4 5 6 rings
5 7 8 9 11 12 rings
6 8 11 14 16 19 21 rings
6 9 12 15 17 20 22 rings

>  <PUBCHEM_HEAVY_ATOM_COUNT>  (1) 
22

>  <PUBCHEM_ATOM_DEF_STEREO_COUNT>  (1) 
0

>  <PUBCHEM_ATOM_UDEF_STEREO_COUNT>  (1) 
0

>  <PUBCHEM_BOND_DEF_STEREO_COUNT>  (1) 
0

>  <PUBCHEM_BOND_UDEF_STEREO_COUNT>  (1) 
0

>  <PUBCHEM_ISOTOPIC_ATOM_COUNT>  (1) 
0

>  <PUBCHEM_COMPONENT_COUNT>  (1) 
1

>  <PUBCHEM_CACTVS_TAUTO_COUNT>  (1) 
1

>  <PUBCHEM_CONFORMER_ID>  (1) 
0000403200000001

>  <PUBCHEM_MMFF94_ENERGY>  (1) 
57.3019

>  <PUBCHEM_FEATURE_SELFOVERLAP>  (1) 
35.681

>  <PUBCHEM_SHAPE_FINGERPRINT>  (1) 
10042902 136 16342599240192816918
10498660 4 16950562182153859615
10764073 3 17688259635706968704
10930396 42 18193809624025346506
11497681 19 17345206489499127438
11582403 64 17686048797022512072
11720765 8 18338228246253328500
12553582 1 18122930658273771458
12730499 353 18192724560012711139
13009979 54 17630905819040263331
14508225 48 18194697964541736022
14537116 161 18118670030059033245
15142526 21 11459583550576890407
15163728 17 16662074623075841436
15210252 30 17969229923431497596
15806764 133 18187377519239888387
17539 30 17763190137721640438
20626108 58 17846217700671689271
20645477 70 18340774827047592555
21304303 282 16763910423641261160
21860390 5 18335976532286157613
221357 26 18336264544820205989
22620623 9 17480883930262687982
23114952 82 18336270136424636897
23559900 14 18412255139068955499
238 59 18267872850759959351
26353 1 18195542397460259980
3060560 45 18340768259921004854
341906 21 15936400183259983247
44802255 64 17251772512347681476
46194498 28 18335706074248681711
5281201 14 18410012135379674679
5895379 119 18339069389929095681
5969126 39 18125168126419906638
7399639 24 17759534652364535787
7471813 234 18201725011536115648
81228 2 17977394828397125458

>  <PUBCHEM_SHAPE_MULTIPOLES>  (1) 
441.9
8.88
3.69
1.73
17.36
1.95
-0.3
-2.63
5.17
-4.85
0.58
-0.17
-0.21
1.02

>  <PUBCHEM_SHAPE_SELFOVERLAP>  (1) 
974.697

>  <PUBCHEM_SHAPE_VOLUME>  (1) 
239.3

>  <PUBCHEM_COORDINATE_TYPE>  (1) 
2
5
10

$$$$
