16446
     RDKit          3D

  9  8  0  0  0  0  0  0  0  0999 V2000
    1.1468    0.2439   -0.3523 N   0  0  0  0  0  0  0  0  0  0  0  0
   -0.9852   -0.3517   -0.7615 N   0  0  0  0  0  0  0  0  0  0  0  0
    0.3803   -1.8931    0.4091 N   0  0  0  0  0  0  0  0  0  0  0  0
   -3.0908    0.6150   -0.4953 N   0  0  0  0  0  0  0  0  0  0  0  0
   -1.6826    0.6683    1.3017 N   0  0  0  0  0  0  0  0  0  0  0  0
    2.4660   -0.0306    0.2016 C   0  0  0  0  0  0  0  0  0  0  0  0
    3.3790    1.1426   -0.0898 C   0  0  0  0  0  0  0  0  0  0  0  0
    0.2388   -0.6681   -0.2064 C   0  0  0  0  0  0  0  0  0  0  0  0
   -1.8523    0.2737   -0.0070 C   0  0  0  0  0  0  0  0  0  0  0  0
  1  6  1  0
  1  8  2  0
  2  8  1  0
  2  9  2  0
  3  8  1  0
  4  9  1  0
  5  9  1  0
  6  7  1  0
M  END
>  <PUBCHEM_COMPOUND_CID>  (1) 
16446

>  <PUBCHEM_CONFORMER_RMSD>  (1) 
0.4

>  <PUBCHEM_CONFORMER_DIVERSEORDER>  (1) 
1
17
9
13
3
8
15
16
7
4
18
2
11
14
10
12
5
6

>  <PUBCHEM_MMFF94_PARTIAL_CHARGES>  (1) 
14
1 -0.7
15 0.4
16 0.4
17 0.4
18 0.4
19 0.4
2 -0.66
20 0.4
3 -0.85
4 -0.85
5 -0.85
6 0.25
8 0.71
9 0.55

>  <PUBCHEM_EFFECTIVE_ROTOR_COUNT>  (1) 
2

>  <PUBCHEM_PHARMACOPHORE_FEATURES>  (1) 
5
1 3 donor
1 4 donor
1 5 donor
4 1 2 3 8 cation
4 2 4 5 9 cation

>  <PUBCHEM_HEAVY_ATOM_COUNT>  (1) 
9

>  <PUBCHEM_ATOM_DEF_STEREO_COUNT>  (1) 
0

>  <PUBCHEM_ATOM_UDEF_STEREO_COUNT>  (1) 
0

>  <PUBCHEM_BOND_DEF_STEREO_COUNT>  (1) 
0

>  <PUBCHEM_BOND_UDEF_STEREO_COUNT>  (1) 
0

>  <PUBCHEM_ISOTOPIC_ATOM_COUNT>  (1) 
0

>  <PUBCHEM_COMPONENT_COUNT>  (1) 
1

>  <PUBCHEM_CACTVS_TAUTO_COUNT>  (1) 
5

>  <PUBCHEM_CONFORMER_ID>  (1) 
0000403E00000001

>  <PUBCHEM_MMFF94_ENERGY>  (1) 
24.585

>  <PUBCHEM_FEATURE_SELFOVERLAP>  (1) 
25.473

>  <PUBCHEM_SHAPE_FINGERPRINT>  (1) 
10857977 72 16298392382902049532
12897270 3 16271923826480454676
14325111 11 18408320003694904662
14390081 3 17846778524748018448
170605 34 18342176643879338126
20653085 51 17131293314652233296
21028194 46 18411703209626744532
21040471 1 18335423499628532574
23552423 10 17058098692426262511
29004967 10 17676778560721268111
5084963 1 18343017787581036852

>  <PUBCHEM_SHAPE_MULTIPOLES>  (1) 
160.31
4.69
1.24
0.85
1.5
0.51
-0.16
-2.37
0.2
0.32
-0.15
-0.35
-0.09
-0.15

>  <PUBCHEM_SHAPE_SELFOVERLAP>  (1) 
300.173

>  <PUBCHEM_SHAPE_VOLUME>  (1) 
96.9

>  <PUBCHEM_COORDINATE_TYPE>  (1) 
2
5
10

$$$$
