16447
     RDKit          3D

 16 17  0  0  0  0  0  0  0  0999 V2000
    3.3637   -1.7840    0.0020 O   0  0  0  0  0  0  0  0  0  0  0  0
    1.0921   -1.1562   -0.0006 N   0  0  0  0  0  0  0  0  0  0  0  0
   -0.0348    1.0034    0.0000 C   0  0  0  0  0  0  0  0  0  0  0  0
    1.1361    0.2419   -0.0005 C   0  0  0  0  0  0  0  0  0  0  0  0
   -1.3405    0.3799    0.0002 C   0  0  0  0  0  0  0  0  0  0  0  0
    0.0455    2.3977    0.0005 C   0  0  0  0  0  0  0  0  0  0  0  0
    2.3808    0.8716   -0.0007 C   0  0  0  0  0  0  0  0  0  0  0  0
   -1.9701    0.0799   -1.2078 C   0  0  0  0  0  0  0  0  0  0  0  0
   -1.9694    0.0784    1.2083 C   0  0  0  0  0  0  0  0  0  0  0  0
    1.2903    3.0274    0.0004 C   0  0  0  0  0  0  0  0  0  0  0  0
    2.4578    2.2644   -0.0002 C   0  0  0  0  0  0  0  0  0  0  0  0
   -3.2287   -0.5214   -1.2079 C   0  0  0  0  0  0  0  0  0  0  0  0
   -3.2281   -0.5231    1.2081 C   0  0  0  0  0  0  0  0  0  0  0  0
   -3.8577   -0.8229    0.0000 C   0  0  0  0  0  0  0  0  0  0  0  0
    2.1666   -2.0522   -0.0009 C   0  0  0  0  0  0  0  0  0  0  0  0
    1.6963   -3.4850   -0.0010 C   0  0  0  0  0  0  0  0  0  0  0  0
  1 15  2  0
  2  4  1  0
  2 15  1  0
  3  4  2  0
  3  5  1  0
  3  6  1  0
  4  7  1  0
  5  8  2  0
  5  9  1  0
  6 10  2  0
  7 11  2  0
  8 12  1  0
  9 13  2  0
 10 11  1  0
 12 14  2  0
 13 14  1  0
 15 16  1  0
M  END
>  <PUBCHEM_COMPOUND_CID>  (1) 
16447

>  <PUBCHEM_CONFORMER_RMSD>  (1) 
0.6

>  <PUBCHEM_CONFORMER_DIVERSEORDER>  (1) 
1
2
3

>  <PUBCHEM_MMFF94_PARTIAL_CHARGES>  (1) 
24
1 -0.57
10 -0.15
11 -0.15
12 -0.15
13 -0.15
14 -0.15
15 0.57
16 0.06
17 0.15
18 0.15
19 0.15
2 -0.55
20 0.15
21 0.37
22 0.15
23 0.15
24 0.15
25 0.15
26 0.15
4 0.12
6 -0.15
7 -0.15
8 -0.15
9 -0.15

>  <PUBCHEM_EFFECTIVE_ROTOR_COUNT>  (1) 
3

>  <PUBCHEM_PHARMACOPHORE_FEATURES>  (1) 
4
1 1 acceptor
1 2 donor
6 3 4 6 7 10 11 rings
6 5 8 9 12 13 14 rings

>  <PUBCHEM_HEAVY_ATOM_COUNT>  (1) 
16

>  <PUBCHEM_ATOM_DEF_STEREO_COUNT>  (1) 
0

>  <PUBCHEM_ATOM_UDEF_STEREO_COUNT>  (1) 
0

>  <PUBCHEM_BOND_DEF_STEREO_COUNT>  (1) 
0

>  <PUBCHEM_BOND_UDEF_STEREO_COUNT>  (1) 
0

>  <PUBCHEM_ISOTOPIC_ATOM_COUNT>  (1) 
0

>  <PUBCHEM_COMPONENT_COUNT>  (1) 
1

>  <PUBCHEM_CACTVS_TAUTO_COUNT>  (1) 
2

>  <PUBCHEM_CONFORMER_ID>  (1) 
0000403F00000001

>  <PUBCHEM_MMFF94_ENERGY>  (1) 
54.5705

>  <PUBCHEM_FEATURE_SELFOVERLAP>  (1) 
20.297

>  <PUBCHEM_SHAPE_FINGERPRINT>  (1) 
1 1 18193554690896185812
11578080 2 17415807315885876385
11582403 64 16311262282796774525
12202030 40 17532111508335041227
12553582 1 18267029349232549914
13140716 1 18051127296361238864
14251717 144 18339357577643614735
15279307 12 17986110931795697999
15309172 13 18049163568383222401
15442244 35 18268997484047588961
16945 1 18338799034374482149
19049666 15 18114454587812644685
19591789 44 17904772424627141462
20361792 2 18342173306816440735
204376 136 17977664539248090744
20645477 70 18262785372241527167
20871998 184 17550109156239868852
21160774 45 17184186687216489399
22112679 90 17418094329993430801
22445834 79 18272378598187521577
2255824 54 18341056314755971052
22802520 49 18114451280598312237
23526113 38 18043229272384179511
23530152 11 17977668932983121766
23598291 2 18059587862105918853
23728640 28 16606874315760194043
257057 1 18122052109817383662
2748010 2 18267289942325895100
3060560 45 18192990637199525180
33824 294 18265051521219136427
458136 41 18047209697402220581
633830 44 17913229812022929917
6338986 31 18195514905343105350
7364860 26 18411136969485729352
77492 1 17703796976268334501
81228 2 17689141319335532560
8272917 22 18340211877362917279

>  <PUBCHEM_SHAPE_MULTIPOLES>  (1) 
318.42
5.55
3.37
0.98
3.61
1.29
0
1.62
0
-4.27
0
0.98
0.03
0

>  <PUBCHEM_SHAPE_SELFOVERLAP>  (1) 
685.008

>  <PUBCHEM_SHAPE_VOLUME>  (1) 
175.4

>  <PUBCHEM_COORDINATE_TYPE>  (1) 
2
5
10

$$$$
