16443
     RDKit          3D

  9  9  0  0  0  0  0  0  0  0999 V2000
   -2.1965    1.5289    0.0006 O   0  0  0  0  0  0  0  0  0  0  0  0
   -0.2371   -2.6208   -0.0006 O   0  0  0  0  0  0  0  0  0  0  0  0
    0.1000    1.3289   -0.0011 N   0  0  0  0  0  0  0  0  0  0  0  0
   -1.2328   -0.5692    0.0003 N   0  0  0  0  0  0  0  0  0  0  0  0
    1.1333   -0.7900    0.0007 N   0  0  0  0  0  0  0  0  0  0  0  0
    1.1993    0.5035   -0.0005 C   0  0  0  0  0  0  0  0  0  0  0  0
   -1.1902    0.8218   -0.0003 C   0  0  0  0  0  0  0  0  0  0  0  0
    2.5322    1.1929    0.0004 C   0  0  0  0  0  0  0  0  0  0  0  0
   -0.1083   -1.3960    0.0003 C   0  0  0  0  0  0  0  0  0  0  0  0
  1  7  2  0
  2  9  2  0
  3  6  1  0
  3  7  1  0
  4  7  1  0
  4  9  1  0
  5  6  2  0
  5  9  1  0
  6  8  1  0
M  END
>  <PUBCHEM_COMPOUND_CID>  (1) 
16443

>  <PUBCHEM_CONFORMER_RMSD>  (1) 
0.4

>  <PUBCHEM_CONFORMER_DIVERSEORDER>  (1) 
1

>  <PUBCHEM_MMFF94_PARTIAL_CHARGES>  (1) 
11
1 -0.57
10 0.37
11 0.37
2 -0.57
3 -0.49
4 -0.49
5 -0.66
6 0.45
7 0.69
8 0.06
9 0.84

>  <PUBCHEM_EFFECTIVE_ROTOR_COUNT>  (1) 
0

>  <PUBCHEM_PHARMACOPHORE_FEATURES>  (1) 
6
1 1 acceptor
1 2 acceptor
1 3 donor
1 4 donor
1 5 donor
6 3 4 5 6 7 9 rings

>  <PUBCHEM_HEAVY_ATOM_COUNT>  (1) 
9

>  <PUBCHEM_ATOM_DEF_STEREO_COUNT>  (1) 
0

>  <PUBCHEM_ATOM_UDEF_STEREO_COUNT>  (1) 
0

>  <PUBCHEM_BOND_DEF_STEREO_COUNT>  (1) 
0

>  <PUBCHEM_BOND_UDEF_STEREO_COUNT>  (1) 
0

>  <PUBCHEM_ISOTOPIC_ATOM_COUNT>  (1) 
0

>  <PUBCHEM_COMPONENT_COUNT>  (1) 
1

>  <PUBCHEM_CACTVS_TAUTO_COUNT>  (1) 
5

>  <PUBCHEM_CONFORMER_ID>  (1) 
0000403B00000001

>  <PUBCHEM_MMFF94_ENERGY>  (1) 
19.3623

>  <PUBCHEM_FEATURE_SELFOVERLAP>  (1) 
30.567

>  <PUBCHEM_SHAPE_FINGERPRINT>  (1) 
18185500 45 17258780317624180567
21040471 1 18410575102054178532
23552423 10 18051131393686127501
23552449 1 17907294708385093860
2748010 2 18409736135821530748
29004967 10 17615975404612529843

>  <PUBCHEM_SHAPE_MULTIPOLES>  (1) 
158.53
2.52
2.21
0.56
1.86
0.38
0
-0.51
0
-1.46
0
0.04
0
0

>  <PUBCHEM_SHAPE_SELFOVERLAP>  (1) 
324.547

>  <PUBCHEM_SHAPE_VOLUME>  (1) 
90.2

>  <PUBCHEM_COORDINATE_TYPE>  (1) 
2
5
10

$$$$
