16448
     RDKit          3D

 16 17  0  0  0  0  0  0  0  0999 V2000
    4.6694    0.3956    0.0010 O   0  0  0  0  0  0  0  0  0  0  0  0
    2.7247   -0.9373    0.0008 N   0  0  0  0  0  0  0  0  0  0  0  0
   -0.6786    0.4921    0.0003 C   0  0  0  0  0  0  0  0  0  0  0  0
   -2.0540    0.0426    0.0000 C   0  0  0  0  0  0  0  0  0  0  0  0
    0.3594   -0.4397    0.0013 C   0  0  0  0  0  0  0  0  0  0  0  0
    1.6853   -0.0064    0.0007 C   0  0  0  0  0  0  0  0  0  0  0  0
   -0.3909    1.8570   -0.0012 C   0  0  0  0  0  0  0  0  0  0  0  0
    1.9730    1.3586   -0.0010 C   0  0  0  0  0  0  0  0  0  0  0  0
    0.9349    2.2902   -0.0019 C   0  0  0  0  0  0  0  0  0  0  0  0
   -2.7178   -0.1719    1.2080 C   0  0  0  0  0  0  0  0  0  0  0  0
   -2.7165   -0.1756   -1.2080 C   0  0  0  0  0  0  0  0  0  0  0  0
   -4.0438   -0.6049    1.2081 C   0  0  0  0  0  0  0  0  0  0  0  0
   -4.0425   -0.6085   -1.2079 C   0  0  0  0  0  0  0  0  0  0  0  0
   -4.7061   -0.8232    0.0001 C   0  0  0  0  0  0  0  0  0  0  0  0
    4.1046   -0.6933   -0.0005 C   0  0  0  0  0  0  0  0  0  0  0  0
    4.8989   -1.9753    0.0002 C   0  0  0  0  0  0  0  0  0  0  0  0
  1 15  2  0
  2  6  1  0
  2 15  1  0
  3  4  1  0
  3  5  2  0
  3  7  1  0
  4 10  2  0
  4 11  1  0
  5  6  1  0
  6  8  2  0
  7  9  2  0
  8  9  1  0
 10 12  1  0
 11 13  2  0
 12 14  2  0
 13 14  1  0
 15 16  1  0
M  END
>  <PUBCHEM_COMPOUND_CID>  (1) 
16448

>  <PUBCHEM_CONFORMER_RMSD>  (1) 
0.6

>  <PUBCHEM_CONFORMER_DIVERSEORDER>  (1) 
1
3
5
6
4
2

>  <PUBCHEM_MMFF94_PARTIAL_CHARGES>  (1) 
24
1 -0.57
10 -0.15
11 -0.15
12 -0.15
13 -0.15
14 -0.15
15 0.57
16 0.06
17 0.15
18 0.15
19 0.15
2 -0.55
20 0.15
21 0.15
22 0.15
23 0.37
24 0.15
25 0.15
26 0.15
5 -0.15
6 0.12
7 -0.15
8 -0.15
9 -0.15

>  <PUBCHEM_EFFECTIVE_ROTOR_COUNT>  (1) 
3

>  <PUBCHEM_PHARMACOPHORE_FEATURES>  (1) 
4
1 1 acceptor
1 2 donor
6 3 5 6 7 8 9 rings
6 4 10 11 12 13 14 rings

>  <PUBCHEM_HEAVY_ATOM_COUNT>  (1) 
16

>  <PUBCHEM_ATOM_DEF_STEREO_COUNT>  (1) 
0

>  <PUBCHEM_ATOM_UDEF_STEREO_COUNT>  (1) 
0

>  <PUBCHEM_BOND_DEF_STEREO_COUNT>  (1) 
0

>  <PUBCHEM_BOND_UDEF_STEREO_COUNT>  (1) 
0

>  <PUBCHEM_ISOTOPIC_ATOM_COUNT>  (1) 
0

>  <PUBCHEM_COMPONENT_COUNT>  (1) 
1

>  <PUBCHEM_CACTVS_TAUTO_COUNT>  (1) 
2

>  <PUBCHEM_CONFORMER_ID>  (1) 
0000404000000001

>  <PUBCHEM_MMFF94_ENERGY>  (1) 
52.329

>  <PUBCHEM_FEATURE_SELFOVERLAP>  (1) 
20.297

>  <PUBCHEM_SHAPE_FINGERPRINT>  (1) 
10014705 185 9655276126111233962
11543360 7 15647064771646228550
11578080 2 17487588958475587377
11796584 16 17167856452689477762
11806522 49 18410854378171060028
12032990 46 18408043992064274520
12186901 62 16153420654331467839
12236239 1 17846780732730369667
12251169 10 17060340729699928261
12403259 118 13398617351476010850
12892183 10 15267346184652083734
12916754 54 18339919446104151647
13134695 92 18340767143135238061
13288520 33 18341052926058546414
13296909 8 16988846038592568321
13544653 18 18409168788164535140
13690532 89 18412261735605809774
13740256 8 18335425698351263658
13760787 5 18410298025034243460
13862211 1 18410569566079113602
14252887 29 18201726128565404686
15527383 91 18341900692610573273
17862501 102 17561081423370852271
17870717 6 17167868530306467971
1813 80 18271821102652889884
18186145 218 17458338663373237033
18222031 100 18271798025814551078
193927 3 18336275531183343358
19784866 240 18201715185168089503
200 152 18343579655582390767
20281475 54 18342738528965596142
20325693 3 15936410031504091259
20645477 70 18334289915671574567
20671657 53 18407763633515628652
20871998 22 18201168637251419414
20871999 31 16008748009380609519
21267235 1 18411708664615310918
22094290 60 16805321085196104485
221490 88 18118407486385266443
23175994 123 18186524306411283085
23402539 116 18341047424020823806
23403322 49 18187645769295239931
23559900 14 17458343073893037556
2871803 45 18187081715994088018
314194 84 18413108376897549362
34797466 226 16371021714565655614
465052 167 18341619238760779831
4990 188 13117999985466241688
5104073 3 18269267964276768000
573450 72 17060340734200714875
77492 1 17631459019892877165
83771 10 18342174453630633352

>  <PUBCHEM_SHAPE_MULTIPOLES>  (1) 
318.42
9.91
1.74
0.98
3.62
0.71
0
-5.94
0
1.68
0
-1.27
-0.15
0

>  <PUBCHEM_SHAPE_SELFOVERLAP>  (1) 
683.835

>  <PUBCHEM_SHAPE_VOLUME>  (1) 
176

>  <PUBCHEM_COORDINATE_TYPE>  (1) 
2
5
10

$$$$
