16458
     RDKit          3D

 13 14  0  0  0  0  0  0  0  0999 V2000
    3.5928    0.0002    0.8849 N   0  0  0  0  0  0  0  0  0  0  0  0
    0.0000   -0.0004   -1.4525 C   0  0  0  0  0  0  0  0  0  0  0  0
   -1.2506   -0.0003   -0.6399 C   0  0  0  0  0  0  0  0  0  0  0  0
    1.2702   -0.0002   -0.6260 C   0  0  0  0  0  0  0  0  0  0  0  0
   -1.8354    1.2079   -0.2602 C   0  0  0  0  0  0  0  0  0  0  0  0
   -1.8359   -1.2082   -0.2600 C   0  0  0  0  0  0  0  0  0  0  0  0
    1.8347   -1.2027   -0.2584 C   0  0  0  0  0  0  0  0  0  0  0  0
    1.8347    1.2025   -0.2592 C   0  0  0  0  0  0  0  0  0  0  0  0
   -3.0053    1.2082    0.4997 C   0  0  0  0  0  0  0  0  0  0  0  0
   -3.0058   -1.2078    0.4998 C   0  0  0  0  0  0  0  0  0  0  0  0
   -3.5903    0.0005    0.8796 C   0  0  0  0  0  0  0  0  0  0  0  0
    2.9953   -1.1486    0.4965 C   0  0  0  0  0  0  0  0  0  0  0  0
    2.9954    1.1489    0.4958 C   0  0  0  0  0  0  0  0  0  0  0  0
  1 12  2  0
  1 13  1  0
  2  3  1  0
  2  4  1  0
  3  5  2  0
  3  6  1  0
  4  7  2  0
  4  8  1  0
  5  9  1  0
  6 10  2  0
  7 12  1  0
  8 13  2  0
  9 11  2  0
 10 11  1  0
M  END
>  <PUBCHEM_COMPOUND_CID>  (1) 
16458

>  <PUBCHEM_CONFORMER_RMSD>  (1) 
0.6

>  <PUBCHEM_CONFORMER_DIVERSEORDER>  (1) 
1
3
2

>  <PUBCHEM_MMFF94_PARTIAL_CHARGES>  (1) 
22
1 -0.62
10 -0.15
11 -0.15
12 0.16
13 0.16
16 0.15
17 0.15
18 0.15
19 0.15
2 0.29
20 0.15
21 0.15
22 0.15
23 0.15
24 0.15
3 -0.14
4 -0.14
5 -0.15
6 -0.15
7 -0.15
8 -0.15
9 -0.15

>  <PUBCHEM_EFFECTIVE_ROTOR_COUNT>  (1) 
2

>  <PUBCHEM_PHARMACOPHORE_FEATURES>  (1) 
3
1 1 acceptor
6 1 4 7 8 12 13 rings
6 3 5 6 9 10 11 rings

>  <PUBCHEM_HEAVY_ATOM_COUNT>  (1) 
13

>  <PUBCHEM_ATOM_DEF_STEREO_COUNT>  (1) 
0

>  <PUBCHEM_ATOM_UDEF_STEREO_COUNT>  (1) 
0

>  <PUBCHEM_BOND_DEF_STEREO_COUNT>  (1) 
0

>  <PUBCHEM_BOND_UDEF_STEREO_COUNT>  (1) 
0

>  <PUBCHEM_ISOTOPIC_ATOM_COUNT>  (1) 
0

>  <PUBCHEM_COMPONENT_COUNT>  (1) 
1

>  <PUBCHEM_CACTVS_TAUTO_COUNT>  (1) 
1

>  <PUBCHEM_CONFORMER_ID>  (1) 
0000404A00000001

>  <PUBCHEM_MMFF94_ENERGY>  (1) 
34.0666

>  <PUBCHEM_FEATURE_SELFOVERLAP>  (1) 
15.223

>  <PUBCHEM_SHAPE_FINGERPRINT>  (1) 
10498660 4 13110689294215023987
10799339 124 18410856529596130763
11031198 65 14836133147349663669
11127187 94 11818994097765640601
11471102 22 18335420179660815914
12251169 10 18410575097553255597
12382932 28 18412826880245178417
12696612 119 18410295838969866316
12932764 1 18410296908226526719
13296908 3 15574709222546539983
13581323 91 18261115170775633039
13693222 15 18334295400534702625
13705890 14 11530483320389526482
13764800 53 15625948689500266671
14144814 61 18410575084678903183
15375462 189 17822567197363886714
15653759 3 18334858285900214136
15775835 57 17275099552676709368
16945 1 18410576179927212573
17804303 29 18264217902184284078
18186145 218 13038913226192045756
19049666 15 17978792307206549447
200 152 18199451294900062327
20281407 28 17022899021537197750
20361792 2 15719395044399092175
20528008 55 18411415120606093901
20653085 51 11167953463054871255
20671657 53 12612748000066422078
20871999 31 9799395699681145065
21065199 12 18410856551065686115
21501925 9 18187648045923059015
22169311 14 18337954493458744537
22445834 79 18260265218138494043
22802520 49 9223227459876667727
230 275 16487263140315478756
23402539 116 18342448232811978981
25 1 12391528502282815228
369184 2 18411703188399801997
5374978 207 18411425029227553729
81228 2 15648156504787565181

>  <PUBCHEM_SHAPE_MULTIPOLES>  (1) 
262.55
6.51
1.5
1.04
0.14
0
-0.15
0
2.63
-0.03
0.11
0.01
0
0

>  <PUBCHEM_SHAPE_SELFOVERLAP>  (1) 
563.663

>  <PUBCHEM_SHAPE_VOLUME>  (1) 
143.5

>  <PUBCHEM_COORDINATE_TYPE>  (1) 
2
5
10

$$$$
