16469
     RDKit          3D

 10 10  0  0  0  0  0  0  0  0999 V2000
   -0.1583   -2.3738   -0.1867 Cl  0  0  0  0  0  0  0  0  0  0  0  0
    2.8372   -1.2984    0.1847 Cl  0  0  0  0  0  0  0  0  0  0  0  0
   -0.8655    0.2476   -0.2046 C   0  0  0  0  0  0  0  0  0  0  0  0
    0.1804   -0.6701   -0.1062 C   0  0  0  0  0  0  0  0  0  0  0  0
   -0.6012    1.6157   -0.1409 C   0  0  0  0  0  0  0  0  0  0  0  0
    1.4904   -0.2197    0.0560 C   0  0  0  0  0  0  0  0  0  0  0  0
    0.7088    2.0661    0.0215 C   0  0  0  0  0  0  0  0  0  0  0  0
    1.7548    1.1484    0.1199 C   0  0  0  0  0  0  0  0  0  0  0  0
   -2.2565   -0.1588   -0.3760 C   0  0  0  0  0  0  0  0  0  0  0  0
   -3.0900   -0.3572    0.6323 C   0  0  0  0  0  0  0  0  0  0  0  0
  1  4  1  0
  2  6  1  0
  3  4  2  0
  3  5  1  0
  3  9  1  0
  4  6  1  0
  5  7  2  0
  6  8  2  0
  7  8  1  0
  9 10  2  0
M  END
>  <PUBCHEM_COMPOUND_CID>  (1) 
16469

>  <PUBCHEM_CONFORMER_RMSD>  (1) 
0.4

>  <PUBCHEM_CONFORMER_DIVERSEORDER>  (1) 
1
2

>  <PUBCHEM_MMFF94_PARTIAL_CHARGES>  (1) 
16
1 -0.18
10 -0.3
11 0.15
12 0.15
13 0.15
14 0.15
15 0.15
16 0.15
2 -0.18
3 0.03
4 0.18
5 -0.15
6 0.18
7 -0.15
8 -0.15
9 -0.18

>  <PUBCHEM_EFFECTIVE_ROTOR_COUNT>  (1) 
1

>  <PUBCHEM_PHARMACOPHORE_FEATURES>  (1) 
2
1 10 hydrophobe
6 3 4 5 6 7 8 rings

>  <PUBCHEM_HEAVY_ATOM_COUNT>  (1) 
10

>  <PUBCHEM_ATOM_DEF_STEREO_COUNT>  (1) 
0

>  <PUBCHEM_ATOM_UDEF_STEREO_COUNT>  (1) 
0

>  <PUBCHEM_BOND_DEF_STEREO_COUNT>  (1) 
0

>  <PUBCHEM_BOND_UDEF_STEREO_COUNT>  (1) 
0

>  <PUBCHEM_ISOTOPIC_ATOM_COUNT>  (1) 
0

>  <PUBCHEM_COMPONENT_COUNT>  (1) 
1

>  <PUBCHEM_CACTVS_TAUTO_COUNT>  (1) 
1

>  <PUBCHEM_CONFORMER_ID>  (1) 
0000405500000001

>  <PUBCHEM_MMFF94_ENERGY>  (1) 
27.6271

>  <PUBCHEM_FEATURE_SELFOVERLAP>  (1) 
10.148

>  <PUBCHEM_SHAPE_FINGERPRINT>  (1) 
10219947 1 18411984658875966339
12423570 1 12036540182297184801
13380535 21 18120385512182634902
16945 1 18266170823877007148
193761 8 17906451378682321326
20871998 184 18055062177925686406
20871998 22 18198351662480607558
21040471 1 18123188175748487053
21061003 4 18341333275505827763
23552423 10 17829899728603302694
241688 4 18266458702781779728
2748010 2 18337941295230355604
29004967 10 18334294301039139553
5084963 1 18131344194026054091
528862 383 18263076768065060344

>  <PUBCHEM_SHAPE_MULTIPOLES>  (1) 
209.53
3.61
2.28
0.69
0.89
0.11
0.02
1.03
0.59
-0.68
-0.09
0.14
0.04
0.03

>  <PUBCHEM_SHAPE_SELFOVERLAP>  (1) 
417.766

>  <PUBCHEM_SHAPE_VOLUME>  (1) 
121.5

>  <PUBCHEM_COORDINATE_TYPE>  (1) 
2
5
10

$$$$
