16465
     RDKit          3D

 14 14  0  0  0  0  0  0  0  0999 V2000
    0.1326    1.2120   -0.0231 N   0  0  0  0  0  0  0  0  0  0  0  0
    1.6939   -0.5462   -0.7012 N   0  0  0  0  0  0  0  0  0  0  0  0
    2.2090    1.6085   -1.1131 N   0  0  0  0  0  0  0  0  0  0  0  0
    2.8391   -2.3586    0.3886 N   0  0  0  0  0  0  0  0  0  0  0  0
    2.7334   -0.2999    1.3716 N   0  0  0  0  0  0  0  0  0  0  0  0
   -1.0589    0.4382   -0.0229 C   0  0  0  0  0  0  0  0  0  0  0  0
   -1.3056   -0.4444   -1.0678 C   0  0  0  0  0  0  0  0  0  0  0  0
   -1.9652    0.5726    1.0222 C   0  0  0  0  0  0  0  0  0  0  0  0
    0.0053    2.5608    0.5357 C   0  0  0  0  0  0  0  0  0  0  0  0
    1.3347    0.7852   -0.6054 C   0  0  0  0  0  0  0  0  0  0  0  0
   -2.4758   -1.2035   -1.0678 C   0  0  0  0  0  0  0  0  0  0  0  0
   -3.1353   -0.1867    1.0222 C   0  0  0  0  0  0  0  0  0  0  0  0
   -3.3905   -1.0747   -0.0229 C   0  0  0  0  0  0  0  0  0  0  0  0
    2.3833   -1.0632    0.2839 C   0  0  0  0  0  0  0  0  0  0  0  0
  1  6  1  0
  1  9  1  0
  1 10  1  0
  2 10  1  0
  2 14  2  3
  3 10  2  0
  4 14  1  0
  5 14  1  0
  6  7  2  0
  6  8  1  0
  7 11  1  0
  8 12  2  0
 11 13  2  0
 12 13  1  0
M  END
>  <PUBCHEM_COMPOUND_CID>  (1) 
16465

>  <PUBCHEM_CONFORMER_RMSD>  (1) 
0.6

>  <PUBCHEM_CONFORMER_DIVERSEORDER>  (1) 
1
6
14
11
16
13
15
12
5
2
9
18
3
8
7
4
10
19
17

>  <PUBCHEM_MMFF94_PARTIAL_CHARGES>  (1) 
24
1 -0.52
10 0.71
11 -0.15
12 -0.15
13 -0.15
14 0.55
15 0.15
16 0.15
2 -0.66
20 0.15
21 0.15
22 0.15
23 0.4
24 0.4
25 0.4
26 0.4
27 0.4
3 -0.85
4 -0.85
5 -0.85
6 0.1
7 -0.15
8 -0.15
9 0.37

>  <PUBCHEM_EFFECTIVE_ROTOR_COUNT>  (1) 
3

>  <PUBCHEM_PHARMACOPHORE_FEATURES>  (1) 
6
1 3 donor
1 4 donor
1 5 donor
4 1 2 3 10 cation
4 2 4 5 14 cation
6 6 7 8 11 12 13 rings

>  <PUBCHEM_HEAVY_ATOM_COUNT>  (1) 
14

>  <PUBCHEM_ATOM_DEF_STEREO_COUNT>  (1) 
0

>  <PUBCHEM_ATOM_UDEF_STEREO_COUNT>  (1) 
0

>  <PUBCHEM_BOND_DEF_STEREO_COUNT>  (1) 
0

>  <PUBCHEM_BOND_UDEF_STEREO_COUNT>  (1) 
0

>  <PUBCHEM_ISOTOPIC_ATOM_COUNT>  (1) 
0

>  <PUBCHEM_COMPONENT_COUNT>  (1) 
1

>  <PUBCHEM_CACTVS_TAUTO_COUNT>  (1) 
3

>  <PUBCHEM_CONFORMER_ID>  (1) 
0000405100000001

>  <PUBCHEM_MMFF94_ENERGY>  (1) 
59.7086

>  <PUBCHEM_FEATURE_SELFOVERLAP>  (1) 
30.547

>  <PUBCHEM_SHAPE_FINGERPRINT>  (1) 
10857977 72 16559039324075414505
12202030 40 17241053235537095659
12251169 10 17632568340756478594
12382932 28 17988360382051151979
12932764 1 18270126837076235541
14144814 61 18059305360869407773
15375462 189 18340781432459172705
16945 1 18196934585598047013
19786989 88 16879928583900707653
20361792 2 18260545597787566534
20559304 39 18200600301356228615
20645464 45 15339121229966189255
20645477 70 18113332050854827151
20671657 53 17240757346655413938
20871998 184 18054790572541001444
22112679 90 18131075947585603381
22445834 79 18270408311989428243
2255824 54 18050290567817562637
22802520 49 17385994057982165717
23463225 33 18341619191710934983
23500284 5 18191586350244411858
23552423 10 17912364539674451261
2748010 2 17044880221929546741
6338986 31 18341882005096754133
81228 2 17973990761609155400

>  <PUBCHEM_SHAPE_MULTIPOLES>  (1) 
263.21
5.19
2.09
1.2
0.7
0.5
-0.03
-2.63
-0.9
-1.2
-0.14
-0.01
-0.02
-0.97

>  <PUBCHEM_SHAPE_SELFOVERLAP>  (1) 
543.166

>  <PUBCHEM_SHAPE_VOLUME>  (1) 
147.1

>  <PUBCHEM_COORDINATE_TYPE>  (1) 
2
5
10

$$$$
