16460
     RDKit          3D

 12 12  0  0  0  0  0  0  0  0999 V2000
    2.0446   -3.0408   -0.0014 I   0  0  0  0  0  0  0  0  0  0  0  0
    1.8950    3.0954   -0.0006 I   0  0  0  0  0  0  0  0  0  0  0  0
   -3.0961    1.1610    0.0001 O   0  0  0  0  0  0  0  0  0  0  0  0
   -3.2356   -1.1077   -0.0001 O   0  0  0  0  0  0  0  0  0  0  0  0
    3.1144    0.0557   -0.0001 N   0  0  0  0  0  0  0  0  0  0  0  0
   -1.0907   -0.0476   -0.0001 C   0  0  0  0  0  0  0  0  0  0  0  0
    1.6982    0.0210    0.0010 C   0  0  0  0  0  0  0  0  0  0  0  0
   -0.3638   -1.2381    0.0006 C   0  0  0  0  0  0  0  0  0  0  0  0
   -0.4231    1.1771   -0.0005 C   0  0  0  0  0  0  0  0  0  0  0  0
    1.0307   -1.2038    0.0012 C   0  0  0  0  0  0  0  0  0  0  0  0
    0.9713    1.2114    0.0002 C   0  0  0  0  0  0  0  0  0  0  0  0
   -2.5448   -0.0836   -0.0004 C   0  0  0  0  0  0  0  0  0  0  0  0
  1 10  1  0
  2 11  1  0
  3 12  1  0
  4 12  2  0
  5  7  1  0
  6  8  2  0
  6  9  1  0
  6 12  1  0
  7 10  2  0
  7 11  1  0
  8 10  1  0
  9 11  2  0
M  END
>  <PUBCHEM_COMPOUND_CID>  (1) 
16460

>  <PUBCHEM_CONFORMER_RMSD>  (1) 
0.4

>  <PUBCHEM_CONFORMER_DIVERSEORDER>  (1) 
1
2

>  <PUBCHEM_MMFF94_PARTIAL_CHARGES>  (1) 
17
1 -0.08
10 0.08
11 0.08
12 0.63
13 0.15
14 0.15
15 0.4
16 0.4
17 0.5
2 -0.08
3 -0.65
4 -0.57
5 -0.9
6 0.09
7 0.1
8 -0.15
9 -0.15

>  <PUBCHEM_EFFECTIVE_ROTOR_COUNT>  (1) 
1

>  <PUBCHEM_PHARMACOPHORE_FEATURES>  (1) 
8
1 1 hydrophobe
1 2 hydrophobe
1 3 acceptor
1 4 acceptor
1 5 cation
1 5 donor
3 3 4 12 anion
6 6 7 8 9 10 11 rings

>  <PUBCHEM_HEAVY_ATOM_COUNT>  (1) 
12

>  <PUBCHEM_ATOM_DEF_STEREO_COUNT>  (1) 
0

>  <PUBCHEM_ATOM_UDEF_STEREO_COUNT>  (1) 
0

>  <PUBCHEM_BOND_DEF_STEREO_COUNT>  (1) 
0

>  <PUBCHEM_BOND_UDEF_STEREO_COUNT>  (1) 
0

>  <PUBCHEM_ISOTOPIC_ATOM_COUNT>  (1) 
0

>  <PUBCHEM_COMPONENT_COUNT>  (1) 
1

>  <PUBCHEM_CACTVS_TAUTO_COUNT>  (1) 
2

>  <PUBCHEM_CONFORMER_ID>  (1) 
0000404C00000001

>  <PUBCHEM_MMFF94_ENERGY>  (1) 
44.4107

>  <PUBCHEM_FEATURE_SELFOVERLAP>  (1) 
40.652

>  <PUBCHEM_SHAPE_FINGERPRINT>  (1) 
1 1 18338517555239597206
10967382 1 18338798892629628614
13380535 76 17907857649885919012
13380536 305 18338805640387377524
14325111 11 18338797952248419393
14648413 74 18408604751531796417
14817 1 11088624557977510326
15442244 35 18124598583184841561
16945 1 18410855473050025926
17990270 104 18409728430782369323
193761 8 17687746034674095472
20645476 183 17753625838406628756
20645477 70 18336256951212856271
20711985 365 17760649161743561932
20871998 22 18053101722829047510
21040471 1 17978228588660021952
21524375 3 17983296216267042596
2334 1 17906171011770035362
23526114 1 18266739091036942206
23530152 11 18050570947619531502
23552423 10 18411702105804331695
23557571 272 17192631516929933078
241688 4 17978231552250428802
2748010 2 18123180208752659294
3071541 12 18411706490950454404
63268167 104 18339083683474098833
7364860 26 18411982468389767872
81228 2 17474394573701136914

>  <PUBCHEM_SHAPE_MULTIPOLES>  (1) 
254.11
4.37
3.68
0.65
3.37
0.51
0
-0.55
0
-3.69
0
-0.13
0
0

>  <PUBCHEM_SHAPE_SELFOVERLAP>  (1) 
490.892

>  <PUBCHEM_SHAPE_VOLUME>  (1) 
161.2

>  <PUBCHEM_COORDINATE_TYPE>  (1) 
2
5
10

$$$$
