16475
     RDKit          3D

 20 21  0  0  0  0  0  0  0  0999 V2000
    2.8243   -2.6717   -0.0390 O   0  0  0  0  0  0  0  0  0  0  0  0
   -2.8242   -2.6717    0.0390 O   0  0  0  0  0  0  0  0  0  0  0  0
    4.7089   -1.6358   -0.7752 O   0  0  0  0  0  0  0  0  0  0  0  0
   -4.7088   -1.6359    0.7752 O   0  0  0  0  0  0  0  0  0  0  0  0
    4.9062    0.8596    0.4353 N   0  0  0  0  0  0  0  0  0  0  0  0
   -4.9062    0.8595   -0.4353 N   0  0  0  0  0  0  0  0  0  0  0  0
    0.7206    0.8345    0.0637 C   0  0  0  0  0  0  0  0  0  0  0  0
   -0.7206    0.8346   -0.0637 C   0  0  0  0  0  0  0  0  0  0  0  0
    1.4436   -0.3316   -0.1879 C   0  0  0  0  0  0  0  0  0  0  0  0
   -1.4436   -0.3316    0.1879 C   0  0  0  0  0  0  0  0  0  0  0  0
    1.3871    2.0017    0.4366 C   0  0  0  0  0  0  0  0  0  0  0  0
   -1.3871    2.0016   -0.4366 C   0  0  0  0  0  0  0  0  0  0  0  0
    2.8332   -0.3305   -0.0666 C   0  0  0  0  0  0  0  0  0  0  0  0
   -2.8333   -0.3305    0.0665 C   0  0  0  0  0  0  0  0  0  0  0  0
    3.4998    0.8368    0.3063 C   0  0  0  0  0  0  0  0  0  0  0  0
   -3.4998    0.8368   -0.3063 C   0  0  0  0  0  0  0  0  0  0  0  0
    2.7766    2.0028    0.5578 C   0  0  0  0  0  0  0  0  0  0  0  0
   -2.7766    2.0028   -0.5578 C   0  0  0  0  0  0  0  0  0  0  0  0
    3.5590   -1.5657   -0.3337 C   0  0  0  0  0  0  0  0  0  0  0  0
   -3.5590   -1.5657    0.3337 C   0  0  0  0  0  0  0  0  0  0  0  0
  1 19  1  0
  2 20  1  0
  3 19  2  0
  4 20  2  0
  5 15  1  0
  6 16  1  0
  7  8  1  0
  7  9  2  0
  7 11  1  0
  8 10  2  0
  8 12  1  0
  9 13  1  0
 10 14  1  0
 11 17  2  0
 12 18  2  0
 13 15  2  0
 13 19  1  0
 14 16  2  0
 14 20  1  0
 15 17  1  0
 16 18  1  0
M  END
>  <PUBCHEM_COMPOUND_CID>  (1) 
16475

>  <PUBCHEM_CONFORMER_RMSD>  (1) 
0.6

>  <PUBCHEM_CONFORMER_DIVERSEORDER>  (1) 
1
3
2
4

>  <PUBCHEM_MMFF94_PARTIAL_CHARGES>  (1) 
30
1 -0.65
10 -0.15
11 -0.15
12 -0.15
13 0.09
14 0.09
15 0.1
16 0.1
17 -0.15
18 -0.15
19 0.63
2 -0.65
20 0.63
21 0.15
22 0.15
23 0.15
24 0.15
25 0.15
26 0.15
27 0.4
28 0.4
29 0.4
3 -0.57
30 0.4
31 0.5
32 0.5
4 -0.57
5 -0.9
6 -0.9
9 -0.15

>  <PUBCHEM_EFFECTIVE_ROTOR_COUNT>  (1) 
3

>  <PUBCHEM_PHARMACOPHORE_FEATURES>  (1) 
12
1 1 acceptor
1 2 acceptor
1 3 acceptor
1 4 acceptor
1 5 cation
1 5 donor
1 6 cation
1 6 donor
3 1 3 19 anion
3 2 4 20 anion
6 7 9 11 13 15 17 rings
6 8 10 12 14 16 18 rings

>  <PUBCHEM_HEAVY_ATOM_COUNT>  (1) 
20

>  <PUBCHEM_ATOM_DEF_STEREO_COUNT>  (1) 
0

>  <PUBCHEM_ATOM_UDEF_STEREO_COUNT>  (1) 
0

>  <PUBCHEM_BOND_DEF_STEREO_COUNT>  (1) 
0

>  <PUBCHEM_BOND_UDEF_STEREO_COUNT>  (1) 
0

>  <PUBCHEM_ISOTOPIC_ATOM_COUNT>  (1) 
0

>  <PUBCHEM_COMPONENT_COUNT>  (1) 
1

>  <PUBCHEM_CACTVS_TAUTO_COUNT>  (1) 
3

>  <PUBCHEM_CONFORMER_ID>  (1) 
0000405B00000001

>  <PUBCHEM_MMFF94_ENERGY>  (1) 
93.5402

>  <PUBCHEM_FEATURE_SELFOVERLAP>  (1) 
61.01

>  <PUBCHEM_SHAPE_FINGERPRINT>  (1) 
10616163 171 18338797921956801607
1100329 8 16825869561586242785
11405975 8 18412263895942750457
11552529 35 17702384159772272823
12633257 1 18200888266234245571
13140716 1 18269556027232260624
13296908 3 18410855460128207276
13533116 47 18131066031028336921
13544592 145 18337106770299996269
13583140 156 18130497634645252341
14341114 176 18341338824656607481
14617045 38 18336557018675619351
14790565 3 17402335871377991513
14866123 147 17190667775633309576
15196674 1 18410575093253175910
15219456 202 18412823598885090829
17492 89 18409166623227458475
17804303 29 18410579457266912021
17834074 16 18410854360616585984
1813 80 17313104193855903981
18186145 218 18040147396799089493
19141452 34 18269842063939285387
193927 3 17702957920274098358
200 152 17775277266614498429
20281475 54 18410583885051432205
20645477 70 18059851723543035908
20693207 138 18409732824671044116
21065198 57 18411980256445200393
21065199 12 18412823611822876897
21065201 7 18113892741164723601
21267235 1 18411145709723220598
21521239 73 18127947816595082581
221490 88 18410859867228844162
2215653 11 18340762655220987437
22943178 12 18410846664035587809
23402539 116 17749379399524346376
23557571 272 18114738330368635213
23559900 14 18410288108113220200
2871803 45 18334289894334180459
314173 41 18340210678871934438
335352 9 18339079259821385901
33824 294 18412542141705220146
3545911 37 18410853261121224212
4214541 1 18410292484568752841
5104073 3 18341328911961655960
6433294 58 18337953385590096234
77779 3 18410856559645447588
8809292 202 18408888408256759347
9709674 26 18335703891920069827

>  <PUBCHEM_SHAPE_MULTIPOLES>  (1) 
378.15
9.84
2.72
0.73
0
0.92
0
3
0
0
0
0
-0.04
1.44

>  <PUBCHEM_SHAPE_SELFOVERLAP>  (1) 
831.795

>  <PUBCHEM_SHAPE_VOLUME>  (1) 
203.7

>  <PUBCHEM_COORDINATE_TYPE>  (1) 
2
5
10

$$$$
