16477
     RDKit          3D

 13 14  0  0  0  0  0  0  0  0999 V2000
    0.1897    0.4578    0.0000 C   0  0  0  0  0  0  0  0  0  0  0  0
   -0.0779   -0.9319    0.0001 C   0  0  0  0  0  0  0  0  0  0  0  0
   -0.8836    1.3638   -0.0001 C   0  0  0  0  0  0  0  0  0  0  0  0
   -2.4644   -0.4607    0.0000 C   0  0  0  0  0  0  0  0  0  0  0  0
   -1.4105   -1.3748    0.0002 C   0  0  0  0  0  0  0  0  0  0  0  0
    1.5224    0.9007    0.0000 C   0  0  0  0  0  0  0  0  0  0  0  0
   -2.2014    0.9060   -0.0001 C   0  0  0  0  0  0  0  0  0  0  0  0
    2.5762   -0.0136    0.0000 C   0  0  0  0  0  0  0  0  0  0  0  0
    0.9953   -1.8379    0.0002 C   0  0  0  0  0  0  0  0  0  0  0  0
    2.3133   -1.3802    0.0001 C   0  0  0  0  0  0  0  0  0  0  0  0
   -0.6715    2.8465    0.0004 C   0  0  0  0  0  0  0  0  0  0  0  0
   -3.8739   -0.9490   -0.0004 C   0  0  0  0  0  0  0  0  0  0  0  0
    3.9862    0.4733   -0.0004 C   0  0  0  0  0  0  0  0  0  0  0  0
  1  2  1  0
  1  3  2  0
  1  6  1  0
  2  5  2  0
  2  9  1  0
  3  7  1  0
  3 11  1  0
  4  5  1  0
  4  7  2  0
  4 12  1  0
  6  8  2  0
  8 10  1  0
  8 13  1  0
  9 10  2  0
M  END
>  <PUBCHEM_COMPOUND_CID>  (1) 
16477

>  <PUBCHEM_CONFORMER_RMSD>  (1) 
0.4

>  <PUBCHEM_CONFORMER_DIVERSEORDER>  (1) 
1

>  <PUBCHEM_MMFF94_PARTIAL_CHARGES>  (1) 
16
10 -0.15
11 0.14
12 0.14
13 0.14
14 0.15
15 0.15
16 0.15
17 0.15
18 0.15
3 -0.14
4 -0.14
5 -0.15
6 -0.15
7 -0.15
8 -0.14
9 -0.15

>  <PUBCHEM_EFFECTIVE_ROTOR_COUNT>  (1) 
0

>  <PUBCHEM_PHARMACOPHORE_FEATURES>  (1) 
2
6 1 2 3 4 5 7 rings
6 1 2 6 8 9 10 rings

>  <PUBCHEM_HEAVY_ATOM_COUNT>  (1) 
13

>  <PUBCHEM_ATOM_DEF_STEREO_COUNT>  (1) 
0

>  <PUBCHEM_ATOM_UDEF_STEREO_COUNT>  (1) 
0

>  <PUBCHEM_BOND_DEF_STEREO_COUNT>  (1) 
0

>  <PUBCHEM_BOND_UDEF_STEREO_COUNT>  (1) 
0

>  <PUBCHEM_ISOTOPIC_ATOM_COUNT>  (1) 
0

>  <PUBCHEM_COMPONENT_COUNT>  (1) 
1

>  <PUBCHEM_CACTVS_TAUTO_COUNT>  (1) 
1

>  <PUBCHEM_CONFORMER_ID>  (1) 
0000405D00000001

>  <PUBCHEM_MMFF94_ENERGY>  (1) 
38.8667

>  <PUBCHEM_FEATURE_SELFOVERLAP>  (1) 
10.175

>  <PUBCHEM_SHAPE_FINGERPRINT>  (1) 
10608611 8 18339920399138602160
10967382 1 18338797926262006502
11132069 177 18342733057135095570
11206711 2 18337394842061396844
11471102 20 18410288121171981215
12032990 46 18410299137536449843
13140716 1 18122344850261125634
13380535 21 18125733287473940992
14325111 11 18410855421747814688
14614273 12 18188202092077129052
15775835 57 18342464698809197848
16945 1 18410856551155434470
17844478 74 18261683605518322955
193761 8 17978228262068297735
19973954 147 18194965136723300230
20201158 50 18335138717347733819
20510252 161 18343021060362116456
20588541 1 18411141376132984427
20871998 184 18201438043333085565
21029758 11 18341607166066406025
21267235 1 18410302427254675190
21501502 16 18266459802303761906
221490 88 17832141993880130783
2334 1 17762619894433592005
23388829 49 18411138064850310381
23402539 116 18343010125217112238
23402655 69 18340756062725568117
23463225 33 18408323293534345262
23552423 10 18189338974273362914
23559900 14 17334779674546127550
25610 137 18409451388127278157
2748010 2 18267304222806979927
3071541 158 18188204428929825685
3312278 4 18408323276481011723
353137 74 18334852779752030257
43471831 8 18334572404688419890
528886 8 18339637940282090994
537710 114 18263370333390715541
53812653 166 18271802475479641896
7364860 26 18053102014754824985

>  <PUBCHEM_SHAPE_MULTIPOLES>  (1) 
267.53
5.26
2.25
0.62
0.75
1.08
0
-0.98
0
-0.44
0
0
0
0

>  <PUBCHEM_SHAPE_SELFOVERLAP>  (1) 
579.869

>  <PUBCHEM_SHAPE_VOLUME>  (1) 
139

>  <PUBCHEM_COORDINATE_TYPE>  (1) 
2
5
10

$$$$
