16474
     RDKit          3D

 20 21  0  0  0  0  0  0  0  0999 V2000
    0.5044    2.5874    0.8969 S   0  0  0  0  0  0  0  0  0  0  0  0
   -0.5043    2.5874   -0.8969 S   0  0  0  0  0  0  0  0  0  0  0  0
    4.7887   -2.4908    0.5352 O   0  0  0  0  0  0  0  0  0  0  0  0
   -4.7888   -2.4909   -0.5352 O   0  0  0  0  0  0  0  0  0  0  0  0
    5.4951   -1.2284   -1.1216 O   0  0  0  0  0  0  0  0  0  0  0  0
   -5.4951   -1.2284    1.1216 O   0  0  0  0  0  0  0  0  0  0  0  0
    2.6119    1.5864   -0.4155 N   0  0  0  0  0  0  0  0  0  0  0  0
   -2.6120    1.5864    0.4154 N   0  0  0  0  0  0  0  0  0  0  0  0
    4.7079   -1.4555   -0.1703 N   0  0  0  0  0  0  0  0  0  0  0  0
   -4.7079   -1.4555    0.1703 N   0  0  0  0  0  0  0  0  0  0  0  0
    3.6917   -0.5102    0.1167 C   0  0  0  0  0  0  0  0  0  0  0  0
   -3.6917   -0.5102   -0.1167 C   0  0  0  0  0  0  0  0  0  0  0  0
    1.7582    1.3521    0.6062 C   0  0  0  0  0  0  0  0  0  0  0  0
   -1.7579    1.3523   -0.6062 C   0  0  0  0  0  0  0  0  0  0  0  0
    2.7948   -0.7159    1.1591 C   0  0  0  0  0  0  0  0  0  0  0  0
   -2.7948   -0.7159   -1.1589 C   0  0  0  0  0  0  0  0  0  0  0  0
    1.8065    0.2282    1.4150 C   0  0  0  0  0  0  0  0  0  0  0  0
   -1.8065    0.2281   -1.4150 C   0  0  0  0  0  0  0  0  0  0  0  0
    3.5587    0.6466   -0.6343 C   0  0  0  0  0  0  0  0  0  0  0  0
   -3.5588    0.6467    0.6343 C   0  0  0  0  0  0  0  0  0  0  0  0
  1  2  1  0
  1 13  1  0
  2 14  1  0
  3  9  1  0
  4 10  1  0
  5  9  2  0
  6 10  2  0
  7 13  2  0
  7 19  1  0
  8 14  2  0
  8 20  1  0
  9 11  1  0
 10 12  1  0
 11 15  1  0
 11 19  2  0
 12 16  1  0
 12 20  2  0
 13 17  1  0
 14 18  1  0
 15 17  2  0
 16 18  2  0
M  CHG  4   3  -1   4  -1   9   1  10   1
M  END
>  <PUBCHEM_COMPOUND_CID>  (1) 
16474

>  <PUBCHEM_CONFORMER_RMSD>  (1) 
0.8

>  <PUBCHEM_CONFORMER_DIVERSEORDER>  (1) 
2
53
33
6
42
52
57
8
56
16
39
30
49
37
46
19
45
41
7
55
58
15
29
5
31
62
54
61
32
10
38
40
9
20
35
44
14
36
1
43
11
34
24
18
25
17
23
26
12
59
13
60
3
22
47
21
48
4
28
50
51
27

>  <PUBCHEM_MMFF94_PARTIAL_CHARGES>  (1) 
26
1 -0.1
10 0.91
11 0.13
12 0.13
13 0.41
14 0.41
15 -0.15
16 -0.15
17 -0.15
18 -0.15
19 0.16
2 -0.1
20 0.16
21 0.15
22 0.15
23 0.15
24 0.15
25 0.15
26 0.15
3 -0.52
4 -0.52
5 -0.52
6 -0.52
7 -0.62
8 -0.62
9 0.91

>  <PUBCHEM_EFFECTIVE_ROTOR_COUNT>  (1) 
5

>  <PUBCHEM_PHARMACOPHORE_FEATURES>  (1) 
10
1 3 acceptor
1 3 anion
1 4 acceptor
1 4 anion
1 5 acceptor
1 6 acceptor
1 7 acceptor
1 8 acceptor
6 7 11 13 15 17 19 rings
6 8 12 14 16 18 20 rings

>  <PUBCHEM_HEAVY_ATOM_COUNT>  (1) 
20

>  <PUBCHEM_ATOM_DEF_STEREO_COUNT>  (1) 
0

>  <PUBCHEM_ATOM_UDEF_STEREO_COUNT>  (1) 
0

>  <PUBCHEM_BOND_DEF_STEREO_COUNT>  (1) 
0

>  <PUBCHEM_BOND_UDEF_STEREO_COUNT>  (1) 
0

>  <PUBCHEM_ISOTOPIC_ATOM_COUNT>  (1) 
0

>  <PUBCHEM_COMPONENT_COUNT>  (1) 
1

>  <PUBCHEM_CACTVS_TAUTO_COUNT>  (1) 
1

>  <PUBCHEM_CONFORMER_ID>  (1) 
0000405A00000002

>  <PUBCHEM_MMFF94_ENERGY>  (1) 
47.4868

>  <PUBCHEM_FEATURE_SELFOVERLAP>  (1) 
50.91

>  <PUBCHEM_SHAPE_FINGERPRINT>  (1) 
10498660 4 11602823471393051972
10928967 22 18410565189059305890
10968037 57 18411981360594147681
12107183 9 18271538498685576905
12633257 1 16343701070986633941
13103583 49 17917162632155569537
13533116 47 18125157393317154243
13965767 371 12031799049682844072
14123255 352 9223228550597907098
14251731 5 18410571790423526656
14251740 57 18196087970314020675
14251764 30 18410859862470159879
14576447 43 18259988141888412610
15061688 2 9223231844827754281
15188451 53 16343408610137526503
15239191 94 18411131441857771977
15537594 2 18271810184803526620
18915474 69 18334295366307053932
193927 3 18410573989446444417
19752476 56 8213883494965539543
20291156 8 18410851066377092193
20621476 21 17916598527220280502
20715895 44 10015045126854988659
21033648 29 15123525674519978409
21401589 2 9871463262074182997
21713013 43 17822283565828244693
22950370 63 18410580582226739396
23379529 103 18412549782252105846
23503958 8 18272089379152908201
235170 7 15864065455624123307
23559900 14 18336536218655556365
2838139 119 10737578249565989734
2871803 45 17822003237750116225
328317 168 11025794306038124209
341906 21 8141788483641910492
3472631 163 8430325636380689955
4028521 119 12107795085707554448
465052 167 18269844267072684135
474 4 10159712299748350277
5104073 3 18201996595456585880
56633871 153 18060419136094806031
7970288 3 18410852161594155426
8217 86 18411144623840170078

>  <PUBCHEM_SHAPE_MULTIPOLES>  (1) 
375.89
11.62
2.76
1.28
0
0.33
0
-10.77
0
0
0
0
0.09
0.13

>  <PUBCHEM_SHAPE_SELFOVERLAP>  (1) 
776.65

>  <PUBCHEM_SHAPE_VOLUME>  (1) 
219.9

>  <PUBCHEM_COORDINATE_TYPE>  (1) 
2
5
10

$$$$
