16476
     RDKit          3D

 21 21  0  0  0  0  0  0  0  0999 V2000
    1.5123    0.5161    0.4445 C   0  0  0  0  0  0  0  0  0  0  0  0
    2.8346    0.8315   -0.2568 C   0  0  0  0  0  0  0  0  0  0  0  0
    0.3351    1.1953   -0.2570 C   0  0  0  0  0  0  0  0  0  0  0  0
    4.0084    0.1254    0.4257 C   0  0  0  0  0  0  0  0  0  0  0  0
   -0.9910    0.8537    0.4260 C   0  0  0  0  0  0  0  0  0  0  0  0
    5.3255    0.4159   -0.2972 C   0  0  0  0  0  0  0  0  0  0  0  0
   -2.1612    1.5638   -0.2561 C   0  0  0  0  0  0  0  0  0  0  0  0
    6.5325   -0.2861    0.3315 C   0  0  0  0  0  0  0  0  0  0  0  0
   -3.5222    1.2452    0.3652 C   0  0  0  0  0  0  0  0  0  0  0  0
    7.8375   -0.0559   -0.4339 C   0  0  0  0  0  0  0  0  0  0  0  0
   -4.7484    1.9280   -0.2559 C   0  0  0  0  0  0  0  0  0  0  0  0
    9.0098   -0.7685    0.2442 C   0  0  0  0  0  0  0  0  0  0  0  0
   -6.0991    1.5400    0.3635 C   0  0  0  0  0  0  0  0  0  0  0  0
   10.3079   -0.5725   -0.5386 C   0  0  0  0  0  0  0  0  0  0  0  0
   -6.5370    0.1143    0.1385 C   0  0  0  0  0  0  0  0  0  0  0  0
   11.4684   -1.3060    0.1145 C   0  0  0  0  0  0  0  0  0  0  0  0
   -7.3007   -0.2121   -0.9822 C   0  0  0  0  0  0  0  0  0  0  0  0
   -6.1778   -0.8781    1.0507 C   0  0  0  0  0  0  0  0  0  0  0  0
   -7.7056   -1.5306   -1.1906 C   0  0  0  0  0  0  0  0  0  0  0  0
   -6.5826   -2.1966    0.8422 C   0  0  0  0  0  0  0  0  0  0  0  0
   -7.3464   -2.5228   -0.2784 C   0  0  0  0  0  0  0  0  0  0  0  0
  1  2  1  0
  1  3  1  0
  2  4  1  0
  3  5  1  0
  4  6  1  0
  5  7  1  0
  6  8  1  0
  7  9  1  0
  8 10  1  0
  9 11  1  0
 10 12  1  0
 11 13  1  0
 12 14  1  0
 13 15  1  0
 14 16  1  0
 15 17  2  0
 15 18  1  0
 17 19  1  0
 18 20  2  0
 19 21  2  0
 20 21  1  0
M  END
>  <PUBCHEM_COMPOUND_CID>  (1) 
16476

>  <PUBCHEM_CONFORMER_RMSD>  (1) 
1.6

>  <PUBCHEM_CONFORMER_DIVERSEORDER>  (1) 
1
24
25
27
12
6
13
34
9
3
33
8
4
19
18
31
17
7
20
11
37
32
2
30
36
5
22
21
39
10
38
14
15
16
28
29
26
35
23

>  <PUBCHEM_MMFF94_PARTIAL_CHARGES>  (1) 
12
13 0.14
15 -0.14
17 -0.15
18 -0.15
19 -0.15
20 -0.15
21 -0.15
53 0.15
54 0.15
55 0.15
56 0.15
57 0.15

>  <PUBCHEM_EFFECTIVE_ROTOR_COUNT>  (1) 
14

>  <PUBCHEM_PHARMACOPHORE_FEATURES>  (1) 
2
1 16 hydrophobe
6 15 17 18 19 20 21 rings

>  <PUBCHEM_HEAVY_ATOM_COUNT>  (1) 
21

>  <PUBCHEM_ATOM_DEF_STEREO_COUNT>  (1) 
0

>  <PUBCHEM_ATOM_UDEF_STEREO_COUNT>  (1) 
0

>  <PUBCHEM_BOND_DEF_STEREO_COUNT>  (1) 
0

>  <PUBCHEM_BOND_UDEF_STEREO_COUNT>  (1) 
0

>  <PUBCHEM_ISOTOPIC_ATOM_COUNT>  (1) 
0

>  <PUBCHEM_COMPONENT_COUNT>  (1) 
1

>  <PUBCHEM_CACTVS_TAUTO_COUNT>  (1) 
1

>  <PUBCHEM_CONFORMER_ID>  (1) 
0000405C00000001

>  <PUBCHEM_MMFF94_ENERGY>  (1) 
14.591

>  <PUBCHEM_FEATURE_SELFOVERLAP>  (1) 
10.148

>  <PUBCHEM_SHAPE_FINGERPRINT>  (1) 
10162869 55 17894632566030884068
11135609 99 18341050817034419116
12089408 11 18334017173439854876
12498461 61 18202277005735483598
125118 31 9367336042831314518
12592606 108 18335139787506610500
12838862 33 15213017177105898400
14202775 3 18201162045579978982
14251764 18 17966968314344693608
14251764 46 16443350849721760872
14428016 248 12175615201467577986
14671636 106 18410292544808837466
14729087 3 8142088654437394965
15152005 1 17905608062741313183
15183329 4 17530958103700163179
15461852 350 18186522094513785764
15510794 2 17917713470037471884
155225 1 8142090862150922519
15690457 1 18410011027610304628
1754908 1 17703785916896411522
1754911 235 16153427251416870534
1818759 1 18059859450780155406
21095086 128 18410011019004597756
21095123 145 17560802156070778460
21102433 48 18114456770753881914
21315763 28 18409730651892787204
21360442 43 17240770618611145083
21360443 89 12319157552992626637
21362267 20 18341892992020158934
21362267 313 9079126540900949028
232437 2 18411138014312756150
23528940 14 17274814792752248999
23559900 14 18192141819684017593
246663 6 18060701680871293868
33684 2 17385446489266733184
395649 100 17676493877320040282
4339292 15 18202274828107170461
57676310 188 17968094183781428258
57676310 51 18413384337717566735
59521270 166 18188204313936432181
59682541 35 17775563140022491344
636775 8 18411140246524664167
67123 10 18409167706571501556

>  <PUBCHEM_SHAPE_MULTIPOLES>  (1) 
432.17
40.93
2.07
0.91
90.7
0.67
0.04
25.08
3.88
-5.37
-0.01
-1.17
0.21
-0.31

>  <PUBCHEM_SHAPE_SELFOVERLAP>  (1) 
823.606

>  <PUBCHEM_SHAPE_VOLUME>  (1) 
261.8

>  <PUBCHEM_COORDINATE_TYPE>  (1) 
2
5
10

$$$$
