16480
     RDKit          3D

 10 10  0  0  0  0  0  0  0  0999 V2000
    3.7662   -0.0004    0.6289 Cl  0  0  0  0  0  0  0  0  0  0  0  0
   -3.6816   -0.0007    1.2700 S   0  0  0  0  0  0  0  0  0  0  0  0
   -1.9438    0.0004   -0.8927 N   0  0  0  0  0  0  0  0  0  0  0  0
   -0.5924    0.0003   -0.5327 C   0  0  0  0  0  0  0  0  0  0  0  0
    0.0814   -1.2078   -0.3536 C   0  0  0  0  0  0  0  0  0  0  0  0
    0.0817    1.2082   -0.3527 C   0  0  0  0  0  0  0  0  0  0  0  0
    1.4292   -1.2080    0.0057 C   0  0  0  0  0  0  0  0  0  0  0  0
    1.4296    1.2079    0.0064 C   0  0  0  0  0  0  0  0  0  0  0  0
    2.1033   -0.0002    0.1856 C   0  0  0  0  0  0  0  0  0  0  0  0
   -2.6735    0.0002    0.0350 C   0  0  0  0  0  0  0  0  0  0  0  0
  1  9  1  0
  2 10  2  0
  3  4  1  0
  3 10  2  0
  4  5  2  0
  4  6  1  0
  5  7  1  0
  6  8  2  0
  7  9  2  0
  8  9  1  0
M  END
>  <PUBCHEM_COMPOUND_CID>  (1) 
16480

>  <PUBCHEM_CONFORMER_RMSD>  (1) 
0.4

>  <PUBCHEM_CONFORMER_DIVERSEORDER>  (1) 
1
2
3

>  <PUBCHEM_MMFF94_PARTIAL_CHARGES>  (1) 
14
1 -0.18
10 0.57
11 0.15
12 0.15
13 0.15
14 0.15
2 -0.27
3 -0.48
4 0.18
5 -0.15
6 -0.15
7 -0.15
8 -0.15
9 0.18

>  <PUBCHEM_EFFECTIVE_ROTOR_COUNT>  (1) 
1

>  <PUBCHEM_PHARMACOPHORE_FEATURES>  (1) 
3
1 2 acceptor
1 3 acceptor
6 4 5 6 7 8 9 rings

>  <PUBCHEM_HEAVY_ATOM_COUNT>  (1) 
10

>  <PUBCHEM_ATOM_DEF_STEREO_COUNT>  (1) 
0

>  <PUBCHEM_ATOM_UDEF_STEREO_COUNT>  (1) 
0

>  <PUBCHEM_BOND_DEF_STEREO_COUNT>  (1) 
0

>  <PUBCHEM_BOND_UDEF_STEREO_COUNT>  (1) 
0

>  <PUBCHEM_ISOTOPIC_ATOM_COUNT>  (1) 
0

>  <PUBCHEM_COMPONENT_COUNT>  (1) 
1

>  <PUBCHEM_CACTVS_TAUTO_COUNT>  (1) 
1

>  <PUBCHEM_CONFORMER_ID>  (1) 
0000406000000001

>  <PUBCHEM_MMFF94_ENERGY>  (1) 
22.0301

>  <PUBCHEM_FEATURE_SELFOVERLAP>  (1) 
15.227

>  <PUBCHEM_SHAPE_FINGERPRINT>  (1) 
10219947 1 18409728460730796956
10857977 72 17822008718212619391
11471102 22 18334586736798497235
11769659 78 14996269306569298664
12032990 46 18261956254501036866
12251169 10 18410299129215345931
15775835 57 17131838646723575275
16945 1 18410568487762104596
17844478 74 18040433274096173189
21040471 1 18195238039040220828
21061003 4 18334290963643900093
21119208 17 11891332071521407811
23235685 24 18341886407432951142
23380061 451 17458343005152358259
23402655 69 18051665808362573517
2748010 2 18051120407233410276
29004967 10 18260265222348772813

>  <PUBCHEM_SHAPE_MULTIPOLES>  (1) 
206.53
5.65
1.2
0.97
1.44
0
-0.16
0
-2.61
-0.43
0.1
0.54
0
0

>  <PUBCHEM_SHAPE_SELFOVERLAP>  (1) 
412.602

>  <PUBCHEM_SHAPE_VOLUME>  (1) 
124.1

>  <PUBCHEM_COORDINATE_TYPE>  (1) 
2
5
10

$$$$
