16486
     RDKit          3D

  7  7  0  0  1  0  0  0  0  0999 V2000
    2.1254   -0.9068   -0.0376 O   0  0  0  0  0  0  0  0  0  0  0  0
    1.4456    1.2663    0.0670 O   0  0  0  0  0  0  0  0  0  0  0  0
   -1.0663   -0.0332    1.0306 N   0  0  0  0  0  0  0  0  0  0  0  0
   -0.2330   -0.5227   -0.0949 C   0  0  0  0  0  0  0  0  0  0  0  0
   -1.2357    0.1257   -1.0598 C   0  0  0  0  0  0  0  0  0  0  0  0
   -2.2260   -0.0032    0.1061 C   0  0  0  0  0  0  0  0  0  0  0  0
    1.1901    0.0739   -0.0113 C   0  0  0  0  0  0  0  0  0  0  0  0
  1  7  1  0
  2  7  2  0
  3  4  1  0
  3  6  1  0
  4  5  1  0
  4  7  1  0
  5  6  1  0
M  END
>  <PUBCHEM_COMPOUND_CID>  (1) 
16486

>  <PUBCHEM_CONFORMER_RMSD>  (1) 
0.4

>  <PUBCHEM_CONFORMER_DIVERSEORDER>  (1) 
1
2
3
4

>  <PUBCHEM_MMFF94_PARTIAL_CHARGES>  (1) 
8
1 -0.65
13 0.36
14 0.5
2 -0.57
3 -0.78
4 0.26
6 0.21
7 0.67

>  <PUBCHEM_EFFECTIVE_ROTOR_COUNT>  (1) 
1.8

>  <PUBCHEM_PHARMACOPHORE_FEATURES>  (1) 
6
1 1 acceptor
1 2 acceptor
1 3 cation
1 3 donor
3 1 2 7 anion
4 3 4 5 6 rings

>  <PUBCHEM_HEAVY_ATOM_COUNT>  (1) 
7

>  <PUBCHEM_ATOM_DEF_STEREO_COUNT>  (1) 
1

>  <PUBCHEM_ATOM_UDEF_STEREO_COUNT>  (1) 
0

>  <PUBCHEM_BOND_DEF_STEREO_COUNT>  (1) 
0

>  <PUBCHEM_BOND_UDEF_STEREO_COUNT>  (1) 
0

>  <PUBCHEM_ISOTOPIC_ATOM_COUNT>  (1) 
0

>  <PUBCHEM_COMPONENT_COUNT>  (1) 
1

>  <PUBCHEM_CACTVS_TAUTO_COUNT>  (1) 
1

>  <PUBCHEM_CONFORMER_ID>  (1) 
0000406600000001

>  <PUBCHEM_MMFF94_ENERGY>  (1) 
14.0028

>  <PUBCHEM_FEATURE_SELFOVERLAP>  (1) 
30.502

>  <PUBCHEM_SHAPE_FINGERPRINT>  (1) 
16714656 1 15864078637031540695
20096714 4 18201161052117725688
21040471 1 18268991058406703116
24536 1 18342167907926316586
29004967 10 18336828602384637514
5460574 1 9367344833890546854

>  <PUBCHEM_SHAPE_MULTIPOLES>  (1) 
127.34
2.75
0.9
0.89
0.17
0.12
-0.02
-0.1
0
0.36
0.02
-0.27
0.03
0.27

>  <PUBCHEM_SHAPE_SELFOVERLAP>  (1) 
247.669

>  <PUBCHEM_SHAPE_VOLUME>  (1) 
78.2

>  <PUBCHEM_COORDINATE_TYPE>  (1) 
2
5
10

$$$$
