16484
     RDKit          3D

 16 17  0  0  0  0  0  0  0  0999 V2000
    4.8728    0.1537   -0.1023 O   0  0  0  0  0  0  0  0  0  0  0  0
   -4.8728    0.1536    0.1023 O   0  0  0  0  0  0  0  0  0  0  0  0
    0.7231    0.1532   -0.0153 C   0  0  0  0  0  0  0  0  0  0  0  0
   -0.7231    0.1533    0.0152 C   0  0  0  0  0  0  0  0  0  0  0  0
    1.4136    1.3201   -0.3426 C   0  0  0  0  0  0  0  0  0  0  0  0
   -1.4136    1.3200    0.3426 C   0  0  0  0  0  0  0  0  0  0  0  0
    1.4270   -1.0136    0.2828 C   0  0  0  0  0  0  0  0  0  0  0  0
   -1.4270   -1.0135   -0.2828 C   0  0  0  0  0  0  0  0  0  0  0  0
    3.5122    0.1534   -0.0738 C   0  0  0  0  0  0  0  0  0  0  0  0
   -3.5122    0.1534    0.0737 C   0  0  0  0  0  0  0  0  0  0  0  0
    2.8081    1.3201   -0.3719 C   0  0  0  0  0  0  0  0  0  0  0  0
   -2.8081    1.3201    0.3720 C   0  0  0  0  0  0  0  0  0  0  0  0
    2.8216   -1.0135    0.2536 C   0  0  0  0  0  0  0  0  0  0  0  0
   -2.8216   -1.0136   -0.2536 C   0  0  0  0  0  0  0  0  0  0  0  0
    5.5293   -1.0734    0.2130 C   0  0  0  0  0  0  0  0  0  0  0  0
   -5.5293   -1.0734   -0.2131 C   0  0  0  0  0  0  0  0  0  0  0  0
  1  9  1  0
  1 15  1  0
  2 10  1  0
  2 16  1  0
  3  4  1  0
  3  5  2  0
  3  7  1  0
  4  6  2  0
  4  8  1  0
  5 11  1  0
  6 12  1  0
  7 13  2  0
  8 14  2  0
  9 11  2  0
  9 13  1  0
 10 12  2  0
 10 14  1  0
M  END
>  <PUBCHEM_COMPOUND_CID>  (1) 
16484

>  <PUBCHEM_CONFORMER_RMSD>  (1) 
0.6

>  <PUBCHEM_CONFORMER_DIVERSEORDER>  (1) 
1
2

>  <PUBCHEM_MMFF94_PARTIAL_CHARGES>  (1) 
22
1 -0.36
10 0.08
11 -0.15
12 -0.15
13 -0.15
14 -0.15
15 0.28
16 0.28
17 0.15
18 0.15
19 0.15
2 -0.36
20 0.15
21 0.15
22 0.15
23 0.15
24 0.15
5 -0.15
6 -0.15
7 -0.15
8 -0.15
9 0.08

>  <PUBCHEM_EFFECTIVE_ROTOR_COUNT>  (1) 
3

>  <PUBCHEM_PHARMACOPHORE_FEATURES>  (1) 
4
1 1 acceptor
1 2 acceptor
6 3 5 7 9 11 13 rings
6 4 6 8 10 12 14 rings

>  <PUBCHEM_HEAVY_ATOM_COUNT>  (1) 
16

>  <PUBCHEM_ATOM_DEF_STEREO_COUNT>  (1) 
0

>  <PUBCHEM_ATOM_UDEF_STEREO_COUNT>  (1) 
0

>  <PUBCHEM_BOND_DEF_STEREO_COUNT>  (1) 
0

>  <PUBCHEM_BOND_UDEF_STEREO_COUNT>  (1) 
0

>  <PUBCHEM_ISOTOPIC_ATOM_COUNT>  (1) 
0

>  <PUBCHEM_COMPONENT_COUNT>  (1) 
1

>  <PUBCHEM_CACTVS_TAUTO_COUNT>  (1) 
1

>  <PUBCHEM_CONFORMER_ID>  (1) 
0000406400000001

>  <PUBCHEM_MMFF94_ENERGY>  (1) 
68.8758

>  <PUBCHEM_FEATURE_SELFOVERLAP>  (1) 
20.297

>  <PUBCHEM_SHAPE_FINGERPRINT>  (1) 
11471102 20 18260829319359194548
11806522 49 18408323284875767440
12107183 9 17690280404517518362
12236239 1 18410575084663104897
12251169 10 18411419509635409030
13288520 33 18341614797748238645
13690532 89 18408886234808193677
13862211 1 18410853265405505575
14144814 61 18410856533885940089
14251764 18 18407757037368664362
15042514 8 18270963578494913767
15196674 1 18410575088958377508
15536298 74 18341894130053525544
17802600 8 18410853265400308773
17834072 33 18410855490208802822
17862501 102 18411980252139222464
1813 80 17677058928335122718
18186145 218 17676759972044788743
18522853 276 18413951685077960808
187816 3 14634867548602344109
200 152 18412823594848372017
20510252 161 17917153793139377937
20612939 158 17894639184021859436
20645477 70 18334574612227678750
21267235 1 18410582785539680994
221490 88 18117567433768505314
2297311 6 17917722279326703428
23402539 116 18202559571285221021
23402655 69 18335698308747486637
23557571 272 17632583720902594168
23559900 14 18339355382926214056
26918003 58 18114183055553121795
29717793 49 18272370862640217997
34797466 226 17275111673845084636
3545911 37 18410575088974045886
42 15 18410857654861737813
4214541 1 18410575054909843029
42788 4 18410573985151457639
474 4 17750521856693879628
5104073 3 18340771528132687609
542803 24 13117998894365291167
559249 180 18336823078845769666
69090 78 18413669127890778335
7364860 26 18270961374870631712
7495541 125 17418088875142164251
77779 3 18410857663446449605
9709674 26 18412271622610384999
9981440 41 17327458528710955968

>  <PUBCHEM_SHAPE_MULTIPOLES>  (1) 
317.53
11.01
1.48
0.66
0
0.18
0
-3.23
0
0
0
0
0.02
-0.58

>  <PUBCHEM_SHAPE_SELFOVERLAP>  (1) 
682.865

>  <PUBCHEM_SHAPE_VOLUME>  (1) 
177.5

>  <PUBCHEM_COORDINATE_TYPE>  (1) 
2
5
10

$$$$
