16485
     RDKit          3D

 13 13  0  0  1  0  0  0  0  0999 V2000
   -0.8773    0.8009   -0.1365 C   0  0  0  0  0  0  0  0  0  0  0  0
   -2.0080   -0.1522    0.3874 C   0  0  0  0  0  0  0  0  0  0  0  0
   -0.8784    2.0589    0.7985 C   0  0  0  0  0  0  0  0  0  0  0  0
    0.4890    0.0917   -0.0629 C   0  0  0  0  0  0  0  0  0  0  0  0
   -1.2648    1.2656   -1.5634 C   0  0  0  0  0  0  0  0  0  0  0  0
   -2.1266   -1.5032   -0.3328 C   0  0  0  0  0  0  0  0  0  0  0  0
    0.2071    3.0954    0.5190 C   0  0  0  0  0  0  0  0  0  0  0  0
    1.2056   -0.0556   -1.2222 C   0  0  0  0  0  0  0  0  0  0  0  0
    0.9213   -0.3567    1.1582 C   0  0  0  0  0  0  0  0  0  0  0  0
   -3.1869   -2.3808    0.3181 C   0  0  0  0  0  0  0  0  0  0  0  0
    2.4423   -0.6973   -1.1557 C   0  0  0  0  0  0  0  0  0  0  0  0
    2.1581   -0.9982    1.2246 C   0  0  0  0  0  0  0  0  0  0  0  0
    2.9186   -1.1685    0.0677 C   0  0  0  0  0  0  0  0  0  0  0  0
  1  2  1  0
  1  3  1  0
  1  4  1  0
  1  5  1  0
  2  6  1  0
  3  7  1  0
  4  8  2  0
  4  9  1  0
  6 10  1  0
  8 11  1  0
  9 12  2  0
 11 13  2  0
 12 13  1  0
M  END
>  <PUBCHEM_COMPOUND_CID>  (1) 
16485

>  <PUBCHEM_CONFORMER_RMSD>  (1) 
0.6

>  <PUBCHEM_CONFORMER_DIVERSEORDER>  (1) 
2
7
8
13
9
10
1
3
14
5
12
15
11
6
4

>  <PUBCHEM_MMFF94_PARTIAL_CHARGES>  (1) 
12
1 0.14
11 -0.15
12 -0.15
13 -0.15
26 0.15
27 0.15
31 0.15
32 0.15
33 0.15
4 -0.14
8 -0.15
9 -0.15

>  <PUBCHEM_EFFECTIVE_ROTOR_COUNT>  (1) 
4

>  <PUBCHEM_PHARMACOPHORE_FEATURES>  (1) 
5
1 10 hydrophobe
1 5 hydrophobe
1 7 hydrophobe
4 1 2 3 6 hydrophobe
6 4 8 9 11 12 13 rings

>  <PUBCHEM_HEAVY_ATOM_COUNT>  (1) 
13

>  <PUBCHEM_ATOM_DEF_STEREO_COUNT>  (1) 
0

>  <PUBCHEM_ATOM_UDEF_STEREO_COUNT>  (1) 
1

>  <PUBCHEM_BOND_DEF_STEREO_COUNT>  (1) 
0

>  <PUBCHEM_BOND_UDEF_STEREO_COUNT>  (1) 
0

>  <PUBCHEM_ISOTOPIC_ATOM_COUNT>  (1) 
0

>  <PUBCHEM_COMPONENT_COUNT>  (1) 
1

>  <PUBCHEM_CACTVS_TAUTO_COUNT>  (1) 
1

>  <PUBCHEM_CONFORMER_ID>  (1) 
0000406500000002

>  <PUBCHEM_MMFF94_ENERGY>  (1) 
37.2608

>  <PUBCHEM_FEATURE_SELFOVERLAP>  (1) 
25.557

>  <PUBCHEM_SHAPE_FINGERPRINT>  (1) 
1 1 17403453465038837185
11578080 2 17823113744447178533
12716758 59 17767969736068280786
13380537 58 17836649621785352656
14128692 85 18040433304203226534
14817 1 9202771393913264309
15502708 68 17548126084072069033
15852999 172 17832962980529748047
161256 15 18119524586125360293
16945 1 18196092136210361880
17844478 74 17560802108820700810
18534176 82 18127967512460636828
19837323 101 17838058095985517424
20645477 70 17836641195587707975
20711985 344 18200030612588615905
21524375 3 16834594216265169760
21930827 45 17842282462614114248
228727 97 17970090965695319790
23402539 116 17911497827695011261
23419403 2 17466458629399994004
23557571 272 18342454812227024976
2748010 2 18199449082416897904
3250762 1 18191561229455782477
576247 118 18202010953152317719
59915604 170 15575002822184382718
6992083 37 17392756969426555738
7364860 26 17838624701240703803
81228 2 18128817447892078833
81539 233 17545029863718060629

>  <PUBCHEM_SHAPE_MULTIPOLES>  (1) 
267.53
3.97
2.69
1.34
0.1
1.62
0.24
-3.57
0.01
1.52
-0.59
-0.39
0.14
0.13

>  <PUBCHEM_SHAPE_SELFOVERLAP>  (1) 
535.4

>  <PUBCHEM_SHAPE_VOLUME>  (1) 
156.2

>  <PUBCHEM_COORDINATE_TYPE>  (1) 
2
5
10

$$$$
