16488
     RDKit          3D

 15 15  0  0  0  0  0  0  0  0999 V2000
    0.3568   -2.8589   -0.4394 O   0  0  0  0  0  0  0  0  0  0  0  0
    2.4800   -1.0985   -0.2597 O   0  0  0  0  0  0  0  0  0  0  0  0
    1.7219    2.9104   -0.3813 O   0  0  0  0  0  0  0  0  0  0  0  0
   -3.7065   -0.2048   -0.0339 O   0  0  0  0  0  0  0  0  0  0  0  0
    3.1760    1.4318    0.5492 O   0  0  0  0  0  0  0  0  0  0  0  0
   -3.1184    1.9751    0.2285 O   0  0  0  0  0  0  0  0  0  0  0  0
    0.9567    0.7299   -0.0042 C   0  0  0  0  0  0  0  0  0  0  0  0
    0.1330   -1.5258   -0.2696 C   0  0  0  0  0  0  0  0  0  0  0  0
   -1.4216    0.3058   -0.0124 C   0  0  0  0  0  0  0  0  0  0  0  0
    1.2004   -0.6325   -0.1784 C   0  0  0  0  0  0  0  0  0  0  0  0
   -0.3542    1.1990    0.0788 C   0  0  0  0  0  0  0  0  0  0  0  0
   -1.1781   -1.0566   -0.1866 C   0  0  0  0  0  0  0  0  0  0  0  0
    2.0561    1.6802    0.0938 C   0  0  0  0  0  0  0  0  0  0  0  0
   -2.7886    0.7945    0.0747 C   0  0  0  0  0  0  0  0  0  0  0  0
    0.4866   -3.6497    0.7404 C   0  0  0  0  0  0  0  0  0  0  0  0
  1  8  1  0
  1 15  1  0
  2 10  1  0
  3 13  1  0
  4 14  1  0
  5 13  2  0
  6 14  2  0
  7 10  2  0
  7 11  1  0
  7 13  1  0
  8 10  1  0
  8 12  2  0
  9 11  2  0
  9 12  1  0
  9 14  1  0
M  END
>  <PUBCHEM_COMPOUND_CID>  (1) 
16488

>  <PUBCHEM_CONFORMER_RMSD>  (1) 
0.6

>  <PUBCHEM_CONFORMER_DIVERSEORDER>  (1) 
1
4
5
2
3

>  <PUBCHEM_MMFF94_PARTIAL_CHARGES>  (1) 
20
1 -0.36
10 0.08
11 -0.15
12 -0.15
13 0.63
14 0.63
15 0.28
16 0.15
17 0.15
18 0.45
2 -0.53
22 0.5
23 0.5
3 -0.65
4 -0.65
5 -0.57
6 -0.57
7 0.09
8 0.08
9 0.09

>  <PUBCHEM_EFFECTIVE_ROTOR_COUNT>  (1) 
3

>  <PUBCHEM_PHARMACOPHORE_FEATURES>  (1) 
9
1 1 acceptor
1 2 donor
1 3 acceptor
1 4 acceptor
1 5 acceptor
1 6 acceptor
3 3 5 13 anion
3 4 6 14 anion
6 7 8 9 10 11 12 rings

>  <PUBCHEM_HEAVY_ATOM_COUNT>  (1) 
15

>  <PUBCHEM_ATOM_DEF_STEREO_COUNT>  (1) 
0

>  <PUBCHEM_ATOM_UDEF_STEREO_COUNT>  (1) 
0

>  <PUBCHEM_BOND_DEF_STEREO_COUNT>  (1) 
0

>  <PUBCHEM_BOND_UDEF_STEREO_COUNT>  (1) 
0

>  <PUBCHEM_ISOTOPIC_ATOM_COUNT>  (1) 
0

>  <PUBCHEM_COMPONENT_COUNT>  (1) 
1

>  <PUBCHEM_CACTVS_TAUTO_COUNT>  (1) 
5

>  <PUBCHEM_CONFORMER_ID>  (1) 
0000406800000001

>  <PUBCHEM_MMFF94_ENERGY>  (1) 
56.6605

>  <PUBCHEM_FEATURE_SELFOVERLAP>  (1) 
45.788

>  <PUBCHEM_SHAPE_FINGERPRINT>  (1) 
1 1 18410855430168905487
10967382 1 18411419483828681909
13140716 1 18411702071233571107
13380535 76 18269551809368582470
13380536 305 18411428297244011212
14648413 74 18265338300744266753
15442244 35 17692534412488095401
15490181 8 18267864076305232668
15502708 68 18411696556479835912
16945 1 18266456499479121039
17990270 104 18194683666300182171
19021347 4 18338515368921973346
193761 8 18122909986643329950
20510252 161 17911241933506475465
20645476 183 18115603684774296516
20645477 70 18272084951663780623
20871998 184 17406845449751870686
21524375 3 18271804682902979669
21650355 55 17038368900979740403
2334 1 18340206409225997207
23419403 2 17247210242865121070
23552423 10 18340487760128756157
241688 4 17330841218649835195
257057 1 17616525160416205963
2748010 2 18338525225898245967
305870 269 18410005516212683241
3071541 236 17977083979680283946
3091708 16 9190438914829161603
352729 6 18051132784970512878
54173680 148 17761210324985540674
7364860 26 18269836411070960983
81228 2 17620185872700979203

>  <PUBCHEM_SHAPE_MULTIPOLES>  (1) 
273.48
4.24
3.56
0.67
2.59
2.48
0.03
-2.67
0.31
-1.7
0.38
-0.08
0.14
-0.06

>  <PUBCHEM_SHAPE_SELFOVERLAP>  (1) 
582.391

>  <PUBCHEM_SHAPE_VOLUME>  (1) 
153.2

>  <PUBCHEM_COORDINATE_TYPE>  (1) 
2
5
10

$$$$
