16497
     RDKit          3D

 11 11  0  0  0  0  0  0  0  0999 V2000
   -1.9210    2.0256   -0.0009 O   0  0  0  0  0  0  0  0  0  0  0  0
   -3.2699   -0.4049    0.0002 O   0  0  0  0  0  0  0  0  0  0  0  0
    2.3722   -0.2970    0.0003 C   0  0  0  0  0  0  0  0  0  0  0  0
    0.8811   -0.3219   -0.0004 C   0  0  0  0  0  0  0  0  0  0  0  0
    2.9494    0.3749    1.2606 C   0  0  0  0  0  0  0  0  0  0  0  0
    2.9507    0.3735   -1.2602 C   0  0  0  0  0  0  0  0  0  0  0  0
    0.1634    0.8742   -0.0001 C   0  0  0  0  0  0  0  0  0  0  0  0
    0.2041   -1.5414   -0.0002 C   0  0  0  0  0  0  0  0  0  0  0  0
   -1.2312    0.8508    0.0002 C   0  0  0  0  0  0  0  0  0  0  0  0
   -1.1906   -1.5649    0.0002 C   0  0  0  0  0  0  0  0  0  0  0  0
   -1.9082   -0.3688    0.0003 C   0  0  0  0  0  0  0  0  0  0  0  0
  1  9  1  0
  2 11  1  0
  3  4  1  0
  3  5  1  0
  3  6  1  0
  4  7  2  0
  4  8  1  0
  7  9  1  0
  8 10  2  0
  9 11  2  0
 10 11  1  0
M  END
>  <PUBCHEM_COMPOUND_CID>  (1) 
16497

>  <PUBCHEM_CONFORMER_RMSD>  (1) 
0.4

>  <PUBCHEM_CONFORMER_DIVERSEORDER>  (1) 
1
2
3

>  <PUBCHEM_MMFF94_PARTIAL_CHARGES>  (1) 
14
1 -0.53
10 -0.15
11 0.08
19 0.15
2 -0.53
20 0.15
21 0.15
22 0.45
23 0.45
3 0.14
4 -0.14
7 -0.15
8 -0.15
9 0.08

>  <PUBCHEM_EFFECTIVE_ROTOR_COUNT>  (1) 
1

>  <PUBCHEM_PHARMACOPHORE_FEATURES>  (1) 
4
1 1 donor
1 2 donor
3 3 5 6 hydrophobe
6 4 7 8 9 10 11 rings

>  <PUBCHEM_HEAVY_ATOM_COUNT>  (1) 
11

>  <PUBCHEM_ATOM_DEF_STEREO_COUNT>  (1) 
0

>  <PUBCHEM_ATOM_UDEF_STEREO_COUNT>  (1) 
0

>  <PUBCHEM_BOND_DEF_STEREO_COUNT>  (1) 
0

>  <PUBCHEM_BOND_UDEF_STEREO_COUNT>  (1) 
0

>  <PUBCHEM_ISOTOPIC_ATOM_COUNT>  (1) 
0

>  <PUBCHEM_COMPONENT_COUNT>  (1) 
1

>  <PUBCHEM_CACTVS_TAUTO_COUNT>  (1) 
18

>  <PUBCHEM_CONFORMER_ID>  (1) 
0000407100000001

>  <PUBCHEM_MMFF94_ENERGY>  (1) 
24.9551

>  <PUBCHEM_FEATURE_SELFOVERLAP>  (1) 
20.301

>  <PUBCHEM_SHAPE_FINGERPRINT>  (1) 
10857977 72 18339918315688917819
11206711 2 18410852149072588285
12716758 59 18342461404753988870
12897270 3 18411985770992888798
12932764 1 17917711296900083822
13380535 21 18126019165066280761
13538477 17 17968376865833319618
14325111 11 18410855417421192388
15310529 11 16588018047772756150
16945 1 18410575114791315911
20645464 45 17917702526713885610
20645476 183 17676777581622192806
20871998 184 18129101293522165687
21028194 46 18342175523109138570
21040471 1 18338797801850399206
23402655 69 18195789801479913133
23552423 10 18116718413134013882
23559900 14 18129668470815280086
2748010 2 18194405485389249431
29004967 10 16271931523383602378
3248919 1 17894630344488429970
369184 2 18131060545959454482
5084963 1 18272661125214857322
53812653 8 18334022704328733260

>  <PUBCHEM_SHAPE_MULTIPOLES>  (1) 
214.64
4.49
1.55
0.9
0.9
0.12
0
0.5
0
-0.91
0
0.9
0.09
0

>  <PUBCHEM_SHAPE_SELFOVERLAP>  (1) 
441.974

>  <PUBCHEM_SHAPE_VOLUME>  (1) 
124.8

>  <PUBCHEM_COORDINATE_TYPE>  (1) 
2
5
10

$$$$
