1649
     RDKit          3D

 13 14  0  0  0  0  0  0  0  0999 V2000
    4.1115    0.2142    0.0001 Br  0  0  0  0  0  0  0  0  0  0  0  0
   -3.5627   -0.1890    0.0002 O   0  0  0  0  0  0  0  0  0  0  0  0
   -2.4560    1.7068    0.0003 O   0  0  0  0  0  0  0  0  0  0  0  0
    1.6444    1.7276   -0.0002 N   0  0  0  0  0  0  0  0  0  0  0  0
    0.2978    1.6909   -0.0002 N   0  0  0  0  0  0  0  0  0  0  0  0
   -2.4766    0.4479   -0.0001 N   0  0  0  0  0  0  0  0  0  0  0  0
    1.2144   -0.3875    0.0002 C   0  0  0  0  0  0  0  0  0  0  0  0
   -0.0072    0.3812   -0.0002 C   0  0  0  0  0  0  0  0  0  0  0  0
   -1.2579   -0.2635   -0.0002 C   0  0  0  0  0  0  0  0  0  0  0  0
    1.3378   -1.7711    0.0002 C   0  0  0  0  0  0  0  0  0  0  0  0
    2.2491    0.5045    0.0002 C   0  0  0  0  0  0  0  0  0  0  0  0
   -1.1664   -1.6728   -0.0003 C   0  0  0  0  0  0  0  0  0  0  0  0
    0.0718   -2.3893   -0.0001 C   0  0  0  0  0  0  0  0  0  0  0  0
  1 11  1  0
  2  6  1  0
  3  6  2  0
  4  5  1  0
  4 11  1  0
  5  8  2  0
  6  9  1  0
  7  8  1  0
  7 10  1  0
  7 11  2  0
  8  9  1  0
  9 12  2  0
 10 13  2  0
 12 13  1  0
M  CHG  2   2  -1   6   1
M  END
>  <PUBCHEM_COMPOUND_CID>  (1) 
1649

>  <PUBCHEM_CONFORMER_RMSD>  (1) 
0.4

>  <PUBCHEM_CONFORMER_DIVERSEORDER>  (1) 
1

>  <PUBCHEM_MMFF94_PARTIAL_CHARGES>  (1) 
16
1 -0.06
10 -0.15
11 -0.09
12 -0.15
13 -0.15
14 0.15
15 0.15
16 0.15
17 0.27
2 -0.52
3 -0.52
4 0.3
5 -0.71
6 0.91
8 0.29
9 0.13

>  <PUBCHEM_EFFECTIVE_ROTOR_COUNT>  (1) 
1

>  <PUBCHEM_PHARMACOPHORE_FEATURES>  (1) 
8
1 1 hydrophobe
1 2 acceptor
1 2 anion
1 3 acceptor
1 4 donor
1 5 acceptor
5 4 5 7 8 11 rings
6 7 8 9 10 12 13 rings

>  <PUBCHEM_HEAVY_ATOM_COUNT>  (1) 
13

>  <PUBCHEM_ATOM_DEF_STEREO_COUNT>  (1) 
0

>  <PUBCHEM_ATOM_UDEF_STEREO_COUNT>  (1) 
0

>  <PUBCHEM_BOND_DEF_STEREO_COUNT>  (1) 
0

>  <PUBCHEM_BOND_UDEF_STEREO_COUNT>  (1) 
0

>  <PUBCHEM_ISOTOPIC_ATOM_COUNT>  (1) 
0

>  <PUBCHEM_COMPONENT_COUNT>  (1) 
1

>  <PUBCHEM_CACTVS_TAUTO_COUNT>  (1) 
2

>  <PUBCHEM_CONFORMER_ID>  (1) 
0000067100000001

>  <PUBCHEM_MMFF94_ENERGY>  (1) 
40.0804

>  <PUBCHEM_FEATURE_SELFOVERLAP>  (1) 
40.814

>  <PUBCHEM_SHAPE_FINGERPRINT>  (1) 
10967382 1 18410573968198565190
12423570 1 12186245373414204842
13380535 76 18410292527423655662
14325111 11 18410855443038112804
14993402 34 18408884049028497300
16945 1 18410574019569354694
193761 8 17834396005168755204
20588541 1 18410015429213447734
20645476 183 17750816496061610334
21040471 1 18338516447106405574
23235685 24 18411412917018871608
2334 1 17834395996346582118
23402539 116 18271515481264260077
23402655 69 18268696231073404781
23463225 33 18334571309613748786
23559900 14 18343027718684979868
241688 4 16969988060897638106
2748010 2 18193839232336815695
5084963 1 17986958646396445842
528862 383 18261385594691046218
528886 8 18411132550228223442
53812653 166 18341893008845223074
54173680 148 18192996151969324322
63268167 104 18269558247461177833
7364860 26 18126847097195798334

>  <PUBCHEM_SHAPE_MULTIPOLES>  (1) 
246.79
4.97
2.16
0.59
1.32
0.62
0
-1.36
0
-0.3
0
0.1
0.04
0

>  <PUBCHEM_SHAPE_SELFOVERLAP>  (1) 
526.181

>  <PUBCHEM_SHAPE_VOLUME>  (1) 
141.4

>  <PUBCHEM_COORDINATE_TYPE>  (1) 
2
5
10

$$$$
