16495
     RDKit          3D

 20 21  0  0  0  0  0  0  0  0999 V2000
   -0.5610    1.9143   -1.9311 Cl  0  0  0  0  0  0  0  0  0  0  0  0
    0.5610    1.9316    1.9137 Cl  0  0  0  0  0  0  0  0  0  0  0  0
   -0.5575   -1.9149    1.9281 Cl  0  0  0  0  0  0  0  0  0  0  0  0
    0.5575   -1.9322   -1.9108 Cl  0  0  0  0  0  0  0  0  0  0  0  0
   -3.7526   -1.8785    1.8926 Cl  0  0  0  0  0  0  0  0  0  0  0  0
    3.7527   -1.8955   -1.8757 Cl  0  0  0  0  0  0  0  0  0  0  0  0
   -3.7556    1.8768   -1.8910 Cl  0  0  0  0  0  0  0  0  0  0  0  0
    3.7555    1.8938    1.8740 Cl  0  0  0  0  0  0  0  0  0  0  0  0
   -0.7286    0.0016    0.0008 C   0  0  0  0  0  0  0  0  0  0  0  0
    0.7286    0.0016   -0.0008 C   0  0  0  0  0  0  0  0  0  0  0  0
   -1.4267    0.8505   -0.8579 C   0  0  0  0  0  0  0  0  0  0  0  0
    1.4266    0.8583    0.8503 C   0  0  0  0  0  0  0  0  0  0  0  0
   -1.4253   -0.8487    0.8595 C   0  0  0  0  0  0  0  0  0  0  0  0
    1.4253   -0.8563   -0.8519 C   0  0  0  0  0  0  0  0  0  0  0  0
   -2.8202   -0.8498    0.8595 C   0  0  0  0  0  0  0  0  0  0  0  0
    2.8202   -0.8575   -0.8518 C   0  0  0  0  0  0  0  0  0  0  0  0
   -2.8215    0.8493   -0.8580 C   0  0  0  0  0  0  0  0  0  0  0  0
    2.8215    0.8571    0.8502 C   0  0  0  0  0  0  0  0  0  0  0  0
   -3.5183   -0.0008    0.0009 C   0  0  0  0  0  0  0  0  0  0  0  0
    3.5184   -0.0008   -0.0008 C   0  0  0  0  0  0  0  0  0  0  0  0
  1 11  1  0
  2 12  1  0
  3 13  1  0
  4 14  1  0
  5 15  1  0
  6 16  1  0
  7 17  1  0
  8 18  1  0
  9 10  1  0
  9 11  2  0
  9 13  1  0
 10 12  2  0
 10 14  1  0
 11 17  1  0
 12 18  1  0
 13 15  2  0
 14 16  2  0
 15 19  1  0
 16 20  1  0
 17 19  2  0
 18 20  2  0
M  END
>  <PUBCHEM_COMPOUND_CID>  (1) 
16495

>  <PUBCHEM_CONFORMER_RMSD>  (1) 
0.6

>  <PUBCHEM_CONFORMER_DIVERSEORDER>  (1) 
1

>  <PUBCHEM_MMFF94_PARTIAL_CHARGES>  (1) 
20
1 -0.18
11 0.18
12 0.18
13 0.18
14 0.18
15 0.18
16 0.18
17 0.18
18 0.18
19 -0.15
2 -0.18
20 -0.15
21 0.15
22 0.15
3 -0.18
4 -0.18
5 -0.18
6 -0.18
7 -0.18
8 -0.18

>  <PUBCHEM_EFFECTIVE_ROTOR_COUNT>  (1) 
1

>  <PUBCHEM_PHARMACOPHORE_FEATURES>  (1) 
2
6 10 12 14 16 18 20 rings
6 9 11 13 15 17 19 rings

>  <PUBCHEM_HEAVY_ATOM_COUNT>  (1) 
20

>  <PUBCHEM_ATOM_DEF_STEREO_COUNT>  (1) 
0

>  <PUBCHEM_ATOM_UDEF_STEREO_COUNT>  (1) 
0

>  <PUBCHEM_BOND_DEF_STEREO_COUNT>  (1) 
0

>  <PUBCHEM_BOND_UDEF_STEREO_COUNT>  (1) 
0

>  <PUBCHEM_ISOTOPIC_ATOM_COUNT>  (1) 
0

>  <PUBCHEM_COMPONENT_COUNT>  (1) 
1

>  <PUBCHEM_CACTVS_TAUTO_COUNT>  (1) 
1

>  <PUBCHEM_CONFORMER_ID>  (1) 
0000406F00000001

>  <PUBCHEM_MMFF94_ENERGY>  (1) 
58.2208

>  <PUBCHEM_FEATURE_SELFOVERLAP>  (1) 
10.149

>  <PUBCHEM_SHAPE_FINGERPRINT>  (1) 
10062212 137 15339122320961715959
10863032 1 17822567205452544146
11421498 54 14949644795024401563
11582403 64 17474045160694731341
11725454 13 17978469218265743021
12236239 1 15769776853163704325
12553582 1 17417266312160422430
12788726 201 16371591308880619307
13140716 1 17198561260615959338
13538477 17 16732693935297289909
13583140 156 18118096234832647392
14178342 30 17603856789541479609
15219456 202 18341893008539280832
15309172 13 17917711365614090898
15324884 4 18410575093253014004
16752209 62 17385726919659185755
16945 1 18410855464423129094
18186145 218 18336550412820498961
18219364 16 18131062779162963800
18915476 22 18131349726439699540
19049666 15 18338516330983987833
20600515 1 17894899728974532029
20645477 70 17988636372359881222
21639500 275 17560510798258073688
21756936 100 17539113362328844288
22112679 90 16225758618890593557
22182313 1 18410856572524691583
23175994 123 18130239146438530724
23419403 2 18341906181177545326
23526113 38 18341323405729036424
23557571 272 18259987075971963629
23559900 14 18041840602420985870
23598291 2 15357695283994082034
238 59 17915429818757037925
2748010 2 18410575093253013726
3286 77 18130806545730553482
350125 39 17052722432885702872
474 4 16557321942784580736
57527295 17 18054222129482813831
6049 1 18410304604802684997
7615 1 15769771338441520752
77492 1 15769776853163704324
8272917 22 17346610646739141247

>  <PUBCHEM_SHAPE_MULTIPOLES>  (1) 
426.55
6.84
2.44
2.44
0
0
0
0
0
0.04
0
-0.04
0
3.84

>  <PUBCHEM_SHAPE_SELFOVERLAP>  (1) 
855.422

>  <PUBCHEM_SHAPE_VOLUME>  (1) 
245.3

>  <PUBCHEM_COORDINATE_TYPE>  (1) 
2
5
10

$$$$
