16499
     RDKit          3D

 13 14  0  0  0  0  0  0  0  0999 V2000
    2.8891    1.9625   -0.0552 Cl  0  0  0  0  0  0  0  0  0  0  0  0
   -2.0049   -1.1629   -0.1053 O   0  0  0  0  0  0  0  0  0  0  0  0
    2.8134   -1.0068   -0.3980 O   0  0  0  0  0  0  0  0  0  0  0  0
   -2.2502    1.0732    0.1705 N   0  0  0  0  0  0  0  0  0  0  0  0
   -4.1571   -0.3924    0.1240 N   0  0  0  0  0  0  0  0  0  0  0  0
   -0.7616   -0.5985   -0.1191 C   0  0  0  0  0  0  0  0  0  0  0  0
   -0.9157    0.7696    0.0498 C   0  0  0  0  0  0  0  0  0  0  0  0
    0.4586   -1.2450   -0.2723 C   0  0  0  0  0  0  0  0  0  0  0  0
    1.5882   -0.4197   -0.2485 C   0  0  0  0  0  0  0  0  0  0  0  0
    0.2266    1.5826    0.0715 C   0  0  0  0  0  0  0  0  0  0  0  0
    1.4771    0.9661   -0.0802 C   0  0  0  0  0  0  0  0  0  0  0  0
   -2.8374   -0.0991    0.0718 C   0  0  0  0  0  0  0  0  0  0  0  0
    3.4738   -1.4295    0.7909 C   0  0  0  0  0  0  0  0  0  0  0  0
  1 11  1  0
  2  6  1  0
  2 12  1  0
  3  9  1  0
  3 13  1  0
  4  7  1  0
  4 12  2  0
  5 12  1  0
  6  7  2  0
  6  8  1  0
  7 10  1  0
  8  9  2  0
  9 11  1  0
 10 11  2  0
M  END
>  <PUBCHEM_COMPOUND_CID>  (1) 
16499

>  <PUBCHEM_CONFORMER_RMSD>  (1) 
0.4

>  <PUBCHEM_CONFORMER_DIVERSEORDER>  (1) 
1
2

>  <PUBCHEM_MMFF94_PARTIAL_CHARGES>  (1) 
17
1 -0.18
10 -0.15
11 0.18
12 0.56
13 0.28
14 0.15
15 0.15
16 0.4
17 0.4
2 -0.28
3 -0.36
4 -0.57
5 -0.88
6 0.14
7 0.23
8 -0.15
9 0.08

>  <PUBCHEM_EFFECTIVE_ROTOR_COUNT>  (1) 
1

>  <PUBCHEM_PHARMACOPHORE_FEATURES>  (1) 
5
1 3 acceptor
1 5 donor
3 4 5 12 cation
5 2 4 6 7 12 rings
6 6 7 8 9 10 11 rings

>  <PUBCHEM_HEAVY_ATOM_COUNT>  (1) 
13

>  <PUBCHEM_ATOM_DEF_STEREO_COUNT>  (1) 
0

>  <PUBCHEM_ATOM_UDEF_STEREO_COUNT>  (1) 
0

>  <PUBCHEM_BOND_DEF_STEREO_COUNT>  (1) 
0

>  <PUBCHEM_BOND_UDEF_STEREO_COUNT>  (1) 
0

>  <PUBCHEM_ISOTOPIC_ATOM_COUNT>  (1) 
0

>  <PUBCHEM_COMPONENT_COUNT>  (1) 
1

>  <PUBCHEM_CACTVS_TAUTO_COUNT>  (1) 
2

>  <PUBCHEM_CONFORMER_ID>  (1) 
0000407300000001

>  <PUBCHEM_MMFF94_ENERGY>  (1) 
33.59

>  <PUBCHEM_FEATURE_SELFOVERLAP>  (1) 
25.49

>  <PUBCHEM_SHAPE_FINGERPRINT>  (1) 
10130415 120 18410575063198837650
10608611 8 18409727361435973261
11471102 20 18411697708048049005
11769659 78 18410288133872331607
12032990 46 18339930320175543327
12251169 10 18412538808494210714
12932764 1 17603579707952380527
13380535 76 18266740366847528554
14325111 11 18411703205358404285
14576447 43 17770205374263345519
15219456 202 18334286570092849077
15536298 74 18271809047022405444
15775835 57 18200318851964919789
16945 1 18268717108064976076
193761 8 14232076216493977966
20201158 50 18411139095563456959
20559304 39 18410858733420865982
20645477 70 18411134740841171935
20871998 22 18198628731195379966
21501502 16 18341329010698365231
21501925 9 18411691080596954666
2334 1 18340488979524934876
23402655 69 18343576366049081053
23463225 33 18410292506106684988
23552423 10 18262240022705213220
2748010 2 18411138047607118252
5104073 3 18411142450528729193
528862 383 18336542815397905092
528886 8 18269272524740881145
53812653 166 18057321893185016560
53812654 25 18060692905430039118
63268167 104 18341055202201406761
7364860 26 18343303695491608620

>  <PUBCHEM_SHAPE_MULTIPOLES>  (1) 
247.7
5.65
1.84
0.67
2
0.4
-0.03
-0.95
-0.66
-1.5
-0.07
-0.23
-0.07
-0.29

>  <PUBCHEM_SHAPE_SELFOVERLAP>  (1) 
531.826

>  <PUBCHEM_SHAPE_VOLUME>  (1) 
141.1

>  <PUBCHEM_COORDINATE_TYPE>  (1) 
2
5
10

$$$$
