16498
     RDKit          3D

 11 11  0  0  0  0  0  0  0  0999 V2000
    0.3371   -2.1136   -0.0001 O   0  0  0  0  0  0  0  0  0  0  0  0
    2.8956   -1.0614   -0.0001 O   0  0  0  0  0  0  0  0  0  0  0  0
   -1.9728   -0.4492    0.0000 C   0  0  0  0  0  0  0  0  0  0  0  0
   -0.5820    0.0942    0.0000 C   0  0  0  0  0  0  0  0  0  0  0  0
   -2.7602   -0.0468   -1.2604 C   0  0  0  0  0  0  0  0  0  0  0  0
   -2.7603   -0.0472    1.2605 C   0  0  0  0  0  0  0  0  0  0  0  0
    0.5191   -0.7620    0.0000 C   0  0  0  0  0  0  0  0  0  0  0  0
   -0.3910    1.4760   -0.0001 C   0  0  0  0  0  0  0  0  0  0  0  0
    1.8112   -0.2366    0.0000 C   0  0  0  0  0  0  0  0  0  0  0  0
    0.9011    2.0014    0.0001 C   0  0  0  0  0  0  0  0  0  0  0  0
    2.0022    1.1451    0.0001 C   0  0  0  0  0  0  0  0  0  0  0  0
  1  7  1  0
  2  9  1  0
  3  4  1  0
  3  5  1  0
  3  6  1  0
  4  7  2  0
  4  8  1  0
  7  9  1  0
  8 10  2  0
  9 11  2  0
 10 11  1  0
M  END
>  <PUBCHEM_COMPOUND_CID>  (1) 
16498

>  <PUBCHEM_CONFORMER_RMSD>  (1) 
0.4

>  <PUBCHEM_CONFORMER_DIVERSEORDER>  (1) 
1
2

>  <PUBCHEM_MMFF94_PARTIAL_CHARGES>  (1) 
14
1 -0.53
10 -0.15
11 -0.15
19 0.15
2 -0.53
20 0.15
21 0.15
22 0.45
23 0.45
3 0.14
4 -0.14
7 0.08
8 -0.15
9 0.08

>  <PUBCHEM_EFFECTIVE_ROTOR_COUNT>  (1) 
1

>  <PUBCHEM_PHARMACOPHORE_FEATURES>  (1) 
4
1 1 donor
1 2 donor
3 3 5 6 hydrophobe
6 4 7 8 9 10 11 rings

>  <PUBCHEM_HEAVY_ATOM_COUNT>  (1) 
11

>  <PUBCHEM_ATOM_DEF_STEREO_COUNT>  (1) 
0

>  <PUBCHEM_ATOM_UDEF_STEREO_COUNT>  (1) 
0

>  <PUBCHEM_BOND_DEF_STEREO_COUNT>  (1) 
0

>  <PUBCHEM_BOND_UDEF_STEREO_COUNT>  (1) 
0

>  <PUBCHEM_ISOTOPIC_ATOM_COUNT>  (1) 
0

>  <PUBCHEM_COMPONENT_COUNT>  (1) 
1

>  <PUBCHEM_CACTVS_TAUTO_COUNT>  (1) 
36

>  <PUBCHEM_CONFORMER_ID>  (1) 
0000407200000001

>  <PUBCHEM_MMFF94_ENERGY>  (1) 
29.5243

>  <PUBCHEM_FEATURE_SELFOVERLAP>  (1) 
20.302

>  <PUBCHEM_SHAPE_FINGERPRINT>  (1) 
10219947 1 18411704283152355683
10353120 184 18267325169415243100
11206711 2 18263926536156139500
12423570 1 11677460472729287976
16945 1 18410574011137578212
17844478 74 17822020838784590441
193761 8 17762055841042918690
20201158 50 18261385603486514127
21040471 1 18050287264950541728
23552423 10 18335422335444378020
23559900 14 17981907534089549356
241688 4 18267022756668409656
2748010 2 18265336298930758582
29004967 10 18334299772748210521
5084963 1 18131060554422645507
528886 8 18411982489695877497
63268167 104 18341889748780552281

>  <PUBCHEM_SHAPE_MULTIPOLES>  (1) 
214.64
3.86
1.77
0.9
1.01
0.07
0
-0.42
0
-0.96
0
0.84
0.03
0

>  <PUBCHEM_SHAPE_SELFOVERLAP>  (1) 
442.858

>  <PUBCHEM_SHAPE_VOLUME>  (1) 
124.1

>  <PUBCHEM_COORDINATE_TYPE>  (1) 
2
5
10

$$$$
