165
     RDKit          3D

 12 11  0  0  1  0  0  0  0  0999 V2000
    1.8831   -0.7376    1.2865 O   0  0  0  0  0  0  0  0  0  0  0  0
   -3.3160    1.7495   -0.4701 O   0  0  0  0  0  0  0  0  0  0  0  0
   -3.8019    0.2329    1.1524 O   0  0  0  0  0  0  0  0  0  0  0  0
   -2.5135   -1.6874   -0.4114 N   0  0  0  0  0  0  0  0  0  0  0  0
    3.9883    0.4896   -0.1296 N   0  0  0  0  0  0  0  0  0  0  0  0
    4.9357    0.7300    0.3376 N   0  0  0  0  0  0  0  0  0  0  0  0
   -0.7393   -0.0169    0.0682 C   0  0  0  0  0  0  0  0  0  0  0  0
   -2.1198   -0.2858   -0.5477 C   0  0  0  0  0  0  0  0  0  0  0  0
    0.3975   -0.7705   -0.6341 C   0  0  0  0  0  0  0  0  0  0  0  0
    1.7398   -0.4235   -0.0511 C   0  0  0  0  0  0  0  0  0  0  0  0
   -3.1680    0.5525    0.1568 C   0  0  0  0  0  0  0  0  0  0  0  0
    2.7142    0.1671   -0.7575 C   0  0  0  0  0  0  0  0  0  0  0  0
  1 10  1  0
  2 11  1  0
  3 11  2  0
  4  8  1  0
  5  6  3  0
  5 12  1  0
  7  8  1  0
  7  9  1  0
  8 11  1  0
  9 10  1  0
 10 12  2  0
M  CHG  1   5   1
M  END
>  <PUBCHEM_COMPOUND_CID>  (1) 
165

>  <PUBCHEM_CONFORMER_RMSD>  (1) 
0.6

>  <PUBCHEM_CONFORMER_DIVERSEORDER>  (1) 
8
54
11
27
24
37
32
25
51
70
57
52
60
10
65
49
17
55
2
20
47
14
5
19
42
68
48
64
59
43
50
58
40
35
53
21
69
34
61
16
15
45
63
7
38
66
44
26
41
67
31
4
46
3
56
18
6
23
12
62
36
9
13
29
1
30
28
33
39
22

>  <PUBCHEM_MMFF94_PARTIAL_CHARGES>  (1) 
16
1 -0.53
10 -0.06
11 0.66
12 -0.02
18 0.36
19 0.36
2 -0.65
20 0.15
21 0.45
22 0.5
3 -0.57
4 -0.99
5 1.36
6 -0.49
8 0.33
9 0.14

>  <PUBCHEM_EFFECTIVE_ROTOR_COUNT>  (1) 
4

>  <PUBCHEM_PHARMACOPHORE_FEATURES>  (1) 
6
1 1 donor
1 2 acceptor
1 3 acceptor
1 4 cation
1 4 donor
3 2 3 11 anion

>  <PUBCHEM_HEAVY_ATOM_COUNT>  (1) 
12

>  <PUBCHEM_ATOM_DEF_STEREO_COUNT>  (1) 
0

>  <PUBCHEM_ATOM_UDEF_STEREO_COUNT>  (1) 
1

>  <PUBCHEM_BOND_DEF_STEREO_COUNT>  (1) 
0

>  <PUBCHEM_BOND_UDEF_STEREO_COUNT>  (1) 
1

>  <PUBCHEM_ISOTOPIC_ATOM_COUNT>  (1) 
0

>  <PUBCHEM_COMPONENT_COUNT>  (1) 
1

>  <PUBCHEM_CACTVS_TAUTO_COUNT>  (1) 
3

>  <PUBCHEM_CONFORMER_ID>  (1) 
000000A500000008

>  <PUBCHEM_MMFF94_ENERGY>  (1) 
7.7745

>  <PUBCHEM_FEATURE_SELFOVERLAP>  (1) 
30.503

>  <PUBCHEM_SHAPE_FINGERPRINT>  (1) 
12932764 1 18334289864290242071
14252887 29 14923936835268043624
14993402 34 12463572885349539004
15775835 57 18335701628466828506
177051 138 8214137452123746980
18186145 218 17988655081601347942
20645477 56 18342461439039802949
20645477 70 16558763265079007766
20711985 327 13190346763752368062
21061003 4 14490194920725990303
21119208 17 12391514165671424921
22485316 2 11527951132141590500
23402655 69 14476969951838195616
449060 50 18271813410297546303
93112 12 13398622836359893185

>  <PUBCHEM_SHAPE_MULTIPOLES>  (1) 
214.4
8.41
1.2
0.93
4.91
0.03
-0.17
-3.1
-0.89
-0.96
0.16
-0.05
0.04
-0.05

>  <PUBCHEM_SHAPE_SELFOVERLAP>  (1) 
410.04

>  <PUBCHEM_SHAPE_VOLUME>  (1) 
129.8

>  <PUBCHEM_COORDINATE_TYPE>  (1) 
2
5
10

$$$$
