16506
     RDKit          3D

 11 11  0  0  0  0  0  0  0  0999 V2000
    2.3037    0.0008    1.1542 O   0  0  0  0  0  0  0  0  0  0  0  0
    0.2299    0.0000    0.0301 C   0  0  0  0  0  0  0  0  0  0  0  0
   -0.4673    1.2080    0.0097 C   0  0  0  0  0  0  0  0  0  0  0  0
   -0.4670   -1.2080    0.0096 C   0  0  0  0  0  0  0  0  0  0  0  0
   -1.8616    1.2078   -0.0313 C   0  0  0  0  0  0  0  0  0  0  0  0
   -1.8612   -1.2082   -0.0313 C   0  0  0  0  0  0  0  0  0  0  0  0
    1.6886    0.0001    0.0721 C   0  0  0  0  0  0  0  0  0  0  0  0
   -2.5586   -0.0003   -0.0519 C   0  0  0  0  0  0  0  0  0  0  0  0
    0.2514    2.5181    0.0301 C   0  0  0  0  0  0  0  0  0  0  0  0
    0.2522   -2.5179    0.0308 C   0  0  0  0  0  0  0  0  0  0  0  0
    2.4899   -0.0003   -1.2223 C   0  0  0  0  0  0  0  0  0  0  0  0
  1  7  2  0
  2  3  2  0
  2  4  1  0
  2  7  1  0
  3  5  1  0
  3  9  1  0
  4  6  2  0
  4 10  1  0
  5  8  2  0
  6  8  1  0
  7 11  1  0
M  END
>  <PUBCHEM_COMPOUND_CID>  (1) 
16506

>  <PUBCHEM_CONFORMER_RMSD>  (1) 
0.4

>  <PUBCHEM_CONFORMER_DIVERSEORDER>  (1) 
1

>  <PUBCHEM_MMFF94_PARTIAL_CHARGES>  (1) 
14
1 -0.57
10 0.14
11 0.06
12 0.15
13 0.15
14 0.15
2 0.09
3 -0.14
4 -0.14
5 -0.15
6 -0.15
7 0.42
8 -0.15
9 0.14

>  <PUBCHEM_EFFECTIVE_ROTOR_COUNT>  (1) 
1

>  <PUBCHEM_PHARMACOPHORE_FEATURES>  (1) 
2
1 1 acceptor
6 2 3 4 5 6 8 rings

>  <PUBCHEM_HEAVY_ATOM_COUNT>  (1) 
11

>  <PUBCHEM_ATOM_DEF_STEREO_COUNT>  (1) 
0

>  <PUBCHEM_ATOM_UDEF_STEREO_COUNT>  (1) 
0

>  <PUBCHEM_BOND_DEF_STEREO_COUNT>  (1) 
0

>  <PUBCHEM_BOND_UDEF_STEREO_COUNT>  (1) 
0

>  <PUBCHEM_ISOTOPIC_ATOM_COUNT>  (1) 
0

>  <PUBCHEM_COMPONENT_COUNT>  (1) 
1

>  <PUBCHEM_CACTVS_TAUTO_COUNT>  (1) 
2

>  <PUBCHEM_CONFORMER_ID>  (1) 
0000407A00000001

>  <PUBCHEM_MMFF94_ENERGY>  (1) 
33.9516

>  <PUBCHEM_FEATURE_SELFOVERLAP>  (1) 
10.148

>  <PUBCHEM_SHAPE_FINGERPRINT>  (1) 
11206711 2 18408598184737583397
12423570 1 8641493497151349565
12524768 44 17908427196634657591
16945 1 18410572886045979287
193761 8 17618221711189456001
20645476 183 17749680674263433534
21040471 1 18266457611696289579
22802520 49 18056786276514009574
2334 1 17978227498065051599
23552423 10 18045789978904081871
23559900 14 18271814459240433094
241688 4 18269004076347114931
2748010 2 18121214552803604757
4369600 1 18410863169736935108
5084963 1 18059867211010663843

>  <PUBCHEM_SHAPE_MULTIPOLES>  (1) 
220.51
3.12
2.34
0.83
0.35
0
-0.03
0
-0.29
-0.25
0.07
0.53
0
0

>  <PUBCHEM_SHAPE_SELFOVERLAP>  (1) 
456.912

>  <PUBCHEM_SHAPE_VOLUME>  (1) 
128.7

>  <PUBCHEM_COORDINATE_TYPE>  (1) 
2
5
10

$$$$
