1650
     RDKit          3D

 15 15  0  0  1  0  0  0  0  0999 V2000
    2.2931    1.7480    0.5392 O   0  0  0  0  0  0  0  0  0  0  0  0
    0.2717    2.5727    1.1408 O   0  0  0  0  0  0  0  0  0  0  0  0
    3.1157   -1.2952   -1.0665 O   0  0  0  0  0  0  0  0  0  0  0  0
    2.6399   -1.3216    1.1591 O   0  0  0  0  0  0  0  0  0  0  0  0
   -0.8099    1.5238   -1.1417 N   0  0  0  0  0  0  0  0  0  0  0  0
   -1.4951   -0.6361   -0.5488 C   0  0  0  0  0  0  0  0  0  0  0  0
   -0.0558   -0.4477   -0.0274 C   0  0  0  0  0  0  0  0  0  0  0  0
    0.4000    0.8979   -0.6104 C   0  0  0  0  0  0  0  0  0  0  0  0
   -1.6216    0.4188   -1.6440 C   0  0  0  0  0  0  0  0  0  0  0  0
   -2.5170   -0.4117    0.5691 C   0  0  0  0  0  0  0  0  0  0  0  0
    0.8611   -1.5808   -0.4870 C   0  0  0  0  0  0  0  0  0  0  0  0
   -3.9419   -0.4430    0.0156 C   0  0  0  0  0  0  0  0  0  0  0  0
   -2.3516   -1.4568    1.6729 C   0  0  0  0  0  0  0  0  0  0  0  0
    0.9371    1.8198    0.4339 C   0  0  0  0  0  0  0  0  0  0  0  0
    2.2743   -1.3881   -0.0048 C   0  0  0  0  0  0  0  0  0  0  0  0
  1 14  1  0
  2 14  2  0
  3 15  1  0
  4 15  2  0
  5  8  1  0
  5  9  1  0
  6  7  1  0
  6  9  1  0
  6 10  1  0
  7  8  1  0
  7 11  1  0
  8 14  1  0
 10 12  1  0
 10 13  1  0
 11 15  1  0
M  END
>  <PUBCHEM_COMPOUND_CID>  (1) 
1650

>  <PUBCHEM_CONFORMER_RMSD>  (1) 
0.6

>  <PUBCHEM_CONFORMER_DIVERSEORDER>  (1) 
1
28
94
85
86
82
22
52
92
10
71
39
95
91
87
73
42
15
46
32
90
23
58
84
40
53
48
59
81
56
6
68
44
69
19
38
67
16
96
13
75
36
93
60
2
14
63
54
89
4
24
35
74
27
30
88
17
51
61
77
66
20
26
33
62
79
25
41
5
65
97
9
64
83
43
7
37
21
78
18
34
45
55
80
8
57
12
70
76
50
49
47
72
31
3
11
29

>  <PUBCHEM_MMFF94_PARTIAL_CHARGES>  (1) 
13
1 -0.65
11 0.06
14 0.66
15 0.66
2 -0.57
22 0.36
3 -0.65
31 0.5
32 0.5
4 -0.57
5 -0.9
8 0.33
9 0.27

>  <PUBCHEM_EFFECTIVE_ROTOR_COUNT>  (1) 
5

>  <PUBCHEM_PHARMACOPHORE_FEATURES>  (1) 
10
1 1 acceptor
1 2 acceptor
1 3 acceptor
1 4 acceptor
1 5 cation
1 5 donor
3 1 2 14 anion
3 10 12 13 hydrophobe
3 3 4 15 anion
5 5 6 7 8 9 rings

>  <PUBCHEM_HEAVY_ATOM_COUNT>  (1) 
15

>  <PUBCHEM_ATOM_DEF_STEREO_COUNT>  (1) 
0

>  <PUBCHEM_ATOM_UDEF_STEREO_COUNT>  (1) 
3

>  <PUBCHEM_BOND_DEF_STEREO_COUNT>  (1) 
0

>  <PUBCHEM_BOND_UDEF_STEREO_COUNT>  (1) 
0

>  <PUBCHEM_ISOTOPIC_ATOM_COUNT>  (1) 
0

>  <PUBCHEM_COMPONENT_COUNT>  (1) 
1

>  <PUBCHEM_CACTVS_TAUTO_COUNT>  (1) 
1

>  <PUBCHEM_CONFORMER_ID>  (1) 
0000067200000001

>  <PUBCHEM_MMFF94_ENERGY>  (1) 
29.5023

>  <PUBCHEM_FEATURE_SELFOVERLAP>  (1) 
50.862

>  <PUBCHEM_SHAPE_FINGERPRINT>  (1) 
10980938 120 18272091659611548633
12423570 1 14756542769143151773
12716301 132 17241867827751243213
14817 1 8273895088854943197
15219456 202 18261097591553787397
15501101 241 18335706082690741055
161256 15 18335136509570812172
16945 1 18194103141029226167
17357990 137 16772421545583035691
17841504 4 18412552028424536419
19766037 51 18336279954667127998
21061003 4 18341899541248166266
22721475 48 18260834765193291391
23526113 38 17902768800829600127
23559900 14 17676201334814006778
2748010 2 18265031618203731868
305870 269 18055915652167405145
528862 383 18269834370808423666
568465 68 18408329881982951419
576247 118 18338251370288580722
7364860 26 18200880702543804935
81228 2 17765706932596109416

>  <PUBCHEM_SHAPE_MULTIPOLES>  (1) 
280.23
4.63
2.27
1.38
1.48
0.92
-0.03
-2.07
-0.52
-1.37
-0.59
0.31
0.05
0.9

>  <PUBCHEM_SHAPE_SELFOVERLAP>  (1) 
563.655

>  <PUBCHEM_SHAPE_VOLUME>  (1) 
166.4

>  <PUBCHEM_COORDINATE_TYPE>  (1) 
2
5
10

$$$$
