16505
     RDKit          3D

 11 11  0  0  0  0  0  0  0  0999 V2000
    2.3502   -1.2511    0.5077 O   0  0  0  0  0  0  0  0  0  0  0  0
   -0.4313   -0.6868   -0.0453 C   0  0  0  0  0  0  0  0  0  0  0  0
   -1.7622   -0.2694   -0.0445 C   0  0  0  0  0  0  0  0  0  0  0  0
    0.5948    0.2540    0.0421 C   0  0  0  0  0  0  0  0  0  0  0  0
   -2.0671    1.0889    0.0437 C   0  0  0  0  0  0  0  0  0  0  0  0
    0.2900    1.6123    0.1305 C   0  0  0  0  0  0  0  0  0  0  0  0
   -0.1077   -2.1446   -0.1408 C   0  0  0  0  0  0  0  0  0  0  0  0
   -1.0409    2.0298    0.1312 C   0  0  0  0  0  0  0  0  0  0  0  0
   -2.8800   -1.2558   -0.1372 C   0  0  0  0  0  0  0  0  0  0  0  0
    1.9942   -0.1513    0.0431 C   0  0  0  0  0  0  0  0  0  0  0  0
    3.0601    0.7740   -0.5304 C   0  0  0  0  0  0  0  0  0  0  0  0
  1 10  2  0
  2  3  2  0
  2  4  1  0
  2  7  1  0
  3  5  1  0
  3  9  1  0
  4  6  2  0
  4 10  1  0
  5  8  2  0
  6  8  1  0
 10 11  1  0
M  END
>  <PUBCHEM_COMPOUND_CID>  (1) 
16505

>  <PUBCHEM_CONFORMER_RMSD>  (1) 
0.4

>  <PUBCHEM_CONFORMER_DIVERSEORDER>  (1) 
3
1
4
2

>  <PUBCHEM_MMFF94_PARTIAL_CHARGES>  (1) 
14
1 -0.57
10 0.42
11 0.06
12 0.15
13 0.15
17 0.15
2 -0.14
3 -0.14
4 0.09
5 -0.15
6 -0.15
7 0.14
8 -0.15
9 0.14

>  <PUBCHEM_EFFECTIVE_ROTOR_COUNT>  (1) 
1

>  <PUBCHEM_PHARMACOPHORE_FEATURES>  (1) 
2
1 1 acceptor
6 2 3 4 5 6 8 rings

>  <PUBCHEM_HEAVY_ATOM_COUNT>  (1) 
11

>  <PUBCHEM_ATOM_DEF_STEREO_COUNT>  (1) 
0

>  <PUBCHEM_ATOM_UDEF_STEREO_COUNT>  (1) 
0

>  <PUBCHEM_BOND_DEF_STEREO_COUNT>  (1) 
0

>  <PUBCHEM_BOND_UDEF_STEREO_COUNT>  (1) 
0

>  <PUBCHEM_ISOTOPIC_ATOM_COUNT>  (1) 
0

>  <PUBCHEM_COMPONENT_COUNT>  (1) 
1

>  <PUBCHEM_CACTVS_TAUTO_COUNT>  (1) 
2

>  <PUBCHEM_CONFORMER_ID>  (1) 
0000407900000003

>  <PUBCHEM_MMFF94_ENERGY>  (1) 
35.1635

>  <PUBCHEM_FEATURE_SELFOVERLAP>  (1) 
10.148

>  <PUBCHEM_SHAPE_FINGERPRINT>  (1) 
11206711 2 18410289233389202101
12423570 1 11954315275783442593
13380535 76 18051685551957311039
14128692 85 18198346349732442021
14325111 11 18410293584090767748
161256 15 18197493137183424721
16945 1 18265892638797480113
193761 8 17979356356946060743
20871998 184 18202001031772563359
21040471 1 17980481161362027249
2334 1 18410855455838482256
23463225 33 18263923246137395754
23552423 10 18261957319362788922
23559900 14 18057606465750844038
241688 4 18411695517424915105
2748010 2 18411416189604661677
369184 2 18261393304083307488
5084963 1 18131351907792585994
528886 8 18411696578186774537
53812654 25 18269822272065171698
66348 1 18267303307926204683

>  <PUBCHEM_SHAPE_MULTIPOLES>  (1) 
220.51
3.85
2.14
0.66
1.13
0.03
-0.01
-0.44
-0.32
-0.54
0.06
0.1
0
-0.27

>  <PUBCHEM_SHAPE_SELFOVERLAP>  (1) 
458.211

>  <PUBCHEM_SHAPE_VOLUME>  (1) 
128.2

>  <PUBCHEM_COORDINATE_TYPE>  (1) 
2
5
10

$$$$
