16519
     RDKit          3D

 15 15  0  0  0  0  0  0  0  0999 V2000
    1.3191    2.8935    0.1083 Cl  0  0  0  0  0  0  0  0  0  0  0  0
    5.1694   -0.8622    0.2410 Cl  0  0  0  0  0  0  0  0  0  0  0  0
   -2.7867    0.3701   -0.4736 O   0  0  0  0  0  0  0  0  0  0  0  0
   -1.5777   -1.5712   -0.4829 O   0  0  0  0  0  0  0  0  0  0  0  0
   -0.5539    0.5239   -0.2389 N   0  0  0  0  0  0  0  0  0  0  0  0
   -3.9628   -0.2880    0.0115 C   0  0  0  0  0  0  0  0  0  0  0  0
   -3.7561   -0.6733    1.4684 C   0  0  0  0  0  0  0  0  0  0  0  0
   -5.1610    0.6320   -0.1668 C   0  0  0  0  0  0  0  0  0  0  0  0
    0.8062    0.2225   -0.1224 C   0  0  0  0  0  0  0  0  0  0  0  0
   -1.6236   -0.3496   -0.4050 C   0  0  0  0  0  0  0  0  0  0  0  0
    1.7625    1.2250    0.0401 C   0  0  0  0  0  0  0  0  0  0  0  0
    1.1992   -1.1149   -0.1726 C   0  0  0  0  0  0  0  0  0  0  0  0
    3.1120    0.8899    0.1520 C   0  0  0  0  0  0  0  0  0  0  0  0
    2.5485   -1.4499   -0.0607 C   0  0  0  0  0  0  0  0  0  0  0  0
    3.5049   -0.4476    0.1016 C   0  0  0  0  0  0  0  0  0  0  0  0
  1 11  1  0
  2 15  1  0
  3  6  1  0
  3 10  1  0
  4 10  2  0
  5  9  1  0
  5 10  1  0
  6  7  1  0
  6  8  1  0
  9 11  2  0
  9 12  1  0
 11 13  1  0
 12 14  2  0
 13 15  2  0
 14 15  1  0
M  END
>  <PUBCHEM_COMPOUND_CID>  (1) 
16519

>  <PUBCHEM_CONFORMER_RMSD>  (1) 
0.6

>  <PUBCHEM_CONFORMER_DIVERSEORDER>  (1) 
2
16
23
11
15
6
21
25
28
8
14
24
29
5
19
4
9
13
12
7
22
26
1
10
17
20
18
3
27

>  <PUBCHEM_MMFF94_PARTIAL_CHARGES>  (1) 
17
1 -0.18
10 0.78
11 0.18
12 -0.15
13 -0.15
14 -0.15
15 0.18
2 -0.18
23 0.37
24 0.15
25 0.15
26 0.15
3 -0.43
4 -0.57
5 -0.55
6 0.28
9 0.12

>  <PUBCHEM_EFFECTIVE_ROTOR_COUNT>  (1) 
4

>  <PUBCHEM_PHARMACOPHORE_FEATURES>  (1) 
4
1 4 acceptor
1 5 donor
3 6 7 8 hydrophobe
6 9 11 12 13 14 15 rings

>  <PUBCHEM_HEAVY_ATOM_COUNT>  (1) 
15

>  <PUBCHEM_ATOM_DEF_STEREO_COUNT>  (1) 
0

>  <PUBCHEM_ATOM_UDEF_STEREO_COUNT>  (1) 
0

>  <PUBCHEM_BOND_DEF_STEREO_COUNT>  (1) 
0

>  <PUBCHEM_BOND_UDEF_STEREO_COUNT>  (1) 
0

>  <PUBCHEM_ISOTOPIC_ATOM_COUNT>  (1) 
0

>  <PUBCHEM_COMPONENT_COUNT>  (1) 
1

>  <PUBCHEM_CACTVS_TAUTO_COUNT>  (1) 
2

>  <PUBCHEM_CONFORMER_ID>  (1) 
0000408700000002

>  <PUBCHEM_MMFF94_ENERGY>  (1) 
36.6766

>  <PUBCHEM_FEATURE_SELFOVERLAP>  (1) 
20.297

>  <PUBCHEM_SHAPE_FINGERPRINT>  (1) 
10366900 7 17749103400910272875
11471102 20 18411697703278314988
12032990 46 18409731721175522518
12236239 1 17489584558629959143
12251169 10 18342457053746376855
124424 183 18335137588008445405
12507557 5 18342175574896607729
13922767 16 18412261740011416885
14252887 29 18202005383144334590
15048467 5 16988836203581489258
15196674 1 18339358668602400158
15242439 84 18040149609229272013
15375462 189 18260821579970883458
18186145 218 17458336472733947413
18522853 276 18343862195310304712
18785283 64 17971475345683335300
200 152 18131063832068209375
20279233 1 18186806872499662323
20645477 70 18412259498165511567
20671657 1 18269275844666536252
20871998 22 18200036119137726678
21267235 1 18412269402444206022
21501502 16 18196650928419344942
221490 88 18191873529164583698
23402539 116 17989197132149019861
23557571 272 17168421558679246614
23558518 356 17829883592400693554
26918003 58 18334576832619814819
2748010 2 18125716782162386780
3268164 11 14404902450001987857
42 15 18333733511527932663
4463277 17 18410856551835968516
5104073 3 18340485672400273651
602551 16 16298957574844185403
7364860 26 18269834371215099220
8809292 202 18187648037249053378

>  <PUBCHEM_SHAPE_MULTIPOLES>  (1) 
295.71
9.73
1.92
0.8
5.32
1.4
-0.2
-1.83
-1.23
-1.34
-0.04
0.57
-0.11
0.27

>  <PUBCHEM_SHAPE_SELFOVERLAP>  (1) 
587.951

>  <PUBCHEM_SHAPE_VOLUME>  (1) 
177.4

>  <PUBCHEM_COORDINATE_TYPE>  (1) 
2
5
10

$$$$
