16514
     RDKit          3D

 21 23  0  0  0  0  0  0  0  0999 V2000
    0.3491   -1.9593   -0.0758 O   0  0  0  0  0  0  0  0  0  0  0  0
   -6.6132    1.1991   -0.1908 O   0  0  0  0  0  0  0  0  0  0  0  0
    4.4717   -0.1752   -0.1914 N   0  0  0  0  0  0  0  0  0  0  0  0
   -1.0200   -1.8555   -0.2898 N   0  0  0  0  0  0  0  0  0  0  0  0
    4.7482    0.7534    0.9136 C   0  0  0  0  0  0  0  0  0  0  0  0
    5.2271    0.1935   -1.3968 C   0  0  0  0  0  0  0  0  0  0  0  0
    6.2379    0.7712    1.2599 C   0  0  0  0  0  0  0  0  0  0  0  0
    6.7324    0.1932   -1.1262 C   0  0  0  0  0  0  0  0  0  0  0  0
    7.0866    1.1095    0.0397 C   0  0  0  0  0  0  0  0  0  0  0  0
    3.0380   -0.2162   -0.4787 C   0  0  0  0  0  0  0  0  0  0  0  0
    2.2499   -0.7269    0.7291 C   0  0  0  0  0  0  0  0  0  0  0  0
    0.7721   -0.7940    0.4331 C   0  0  0  0  0  0  0  0  0  0  0  0
   -0.2239    0.0940    0.5777 C   0  0  0  0  0  0  0  0  0  0  0  0
   -1.3393   -0.6206    0.1079 C   0  0  0  0  0  0  0  0  0  0  0  0
   -2.6973   -0.1519    0.0314 C   0  0  0  0  0  0  0  0  0  0  0  0
   -2.9544    1.2030   -0.1680 C   0  0  0  0  0  0  0  0  0  0  0  0
   -3.7519   -1.0543    0.1568 C   0  0  0  0  0  0  0  0  0  0  0  0
   -4.2712    1.6574   -0.2424 C   0  0  0  0  0  0  0  0  0  0  0  0
   -5.0685   -0.5999    0.0824 C   0  0  0  0  0  0  0  0  0  0  0  0
   -5.3282    0.7558   -0.1172 C   0  0  0  0  0  0  0  0  0  0  0  0
   -7.6453    0.2235   -0.0546 C   0  0  0  0  0  0  0  0  0  0  0  0
  1  4  1  0
  1 12  1  0
  2 20  1  0
  2 21  1  0
  3  5  1  0
  3  6  1  0
  3 10  1  0
  4 14  2  0
  5  7  1  0
  6  8  1  0
  7  9  1  0
  8  9  1  0
 10 11  1  0
 11 12  1  0
 12 13  2  0
 13 14  1  0
 14 15  1  0
 15 16  2  0
 15 17  1  0
 16 18  1  0
 17 19  2  0
 18 20  2  0
 19 20  1  0
M  END
>  <PUBCHEM_COMPOUND_CID>  (1) 
16514

>  <PUBCHEM_CONFORMER_RMSD>  (1) 
0.8

>  <PUBCHEM_CONFORMER_DIVERSEORDER>  (1) 
1
5
17
7
6
11
29
21
26
24
31
12
8
14
9
3
4
20
15
25
18
23
30
2
27
16
22
13
28
10
19

>  <PUBCHEM_MMFF94_PARTIAL_CHARGES>  (1) 
23
1 -0.02
10 0.27
11 0.18
12 -0.04
13 -0.15
14 0.23
15 0.05
16 -0.15
17 -0.15
18 -0.15
19 -0.15
2 -0.36
20 0.08
21 0.28
3 -0.81
36 0.15
37 0.15
38 0.15
39 0.15
4 -0.41
40 0.15
5 0.27
6 0.27

>  <PUBCHEM_EFFECTIVE_ROTOR_COUNT>  (1) 
6.2

>  <PUBCHEM_PHARMACOPHORE_FEATURES>  (1) 
6
1 2 acceptor
1 3 cation
1 4 acceptor
5 1 4 12 13 14 rings
6 15 16 17 18 19 20 rings
6 3 5 6 7 8 9 rings

>  <PUBCHEM_HEAVY_ATOM_COUNT>  (1) 
21

>  <PUBCHEM_ATOM_DEF_STEREO_COUNT>  (1) 
0

>  <PUBCHEM_ATOM_UDEF_STEREO_COUNT>  (1) 
0

>  <PUBCHEM_BOND_DEF_STEREO_COUNT>  (1) 
0

>  <PUBCHEM_BOND_UDEF_STEREO_COUNT>  (1) 
0

>  <PUBCHEM_ISOTOPIC_ATOM_COUNT>  (1) 
0

>  <PUBCHEM_COMPONENT_COUNT>  (1) 
1

>  <PUBCHEM_CACTVS_TAUTO_COUNT>  (1) 
1

>  <PUBCHEM_CONFORMER_ID>  (1) 
0000408200000001

>  <PUBCHEM_MMFF94_ENERGY>  (1) 
40.2501

>  <PUBCHEM_FEATURE_SELFOVERLAP>  (1) 
30.447

>  <PUBCHEM_SHAPE_FINGERPRINT>  (1) 
10 15 17675927599072613825
10354089 29 16515405175458011388
10411042 1 17832708251259505291
106641 1 14634878564956133361
10670039 82 18271812263810966432
10688039 33 14345788341016119366
10730089 173 18410294704919054476
10835480 77 17274536646443270320
10968037 39 18409166607027913541
11638347 137 14851604362679808161
11646440 116 18343029899352408520
12236239 1 17894346696638069282
12390115 104 18129669582684354025
12596602 18 15647059278251623616
13177829 20 15864077589128124921
13288520 33 10519984868554096339
13533116 47 18272370816166256222
13631057 29 17459194152419141067
13668630 136 13110966426895479708
13685833 64 9223228550719239446
14123256 10 18410012135232007549
14251764 18 17167864183577537503
14341114 176 13551471467255359118
14933364 13 18413390938447900624
15048467 5 18259985968075863047
15183329 4 16559035978132542518
15348495 7 12829503570508569748
15690457 1 11602827917291300241
15716309 27 11891335361039120904
17834072 8 17846499235751288904
18006028 8 8070027761690633771
18222031 100 11600008765219489018
18335252 98 18409736166746742563
200 152 14979965765817944546
20157964 124 17275106133352564516
20281389 69 18113896053064511052
20554085 129 17917134058324218538
20735858 18 13479133492903506153
21033648 29 18200581618760259504
21095086 128 15985098631570496909
21150785 3 16988559113354839877
221357 26 17060338513803077720
22224240 67 14851606591720160697
23016692 55 11024106555889883112
23035841 295 10519988166440211205
23198884 109 16343986905666184963
23559900 14 17203039785812760474
246663 6 12391509802659911645
2767999 5 18259702298471298892
28498 318 10447932759068144697
2916195 48 18342451573747863504
293599 30 18412261735542545258
29717793 49 14836132057203573144
300161 21 18113612366227037899
3472631 163 18336551611907698132
34797466 226 17632579357421588556
3545911 37 18411138026031846891
4073 2 18040159530372449306
4325135 7 18187366528154853221
4340502 62 16081369635461176930
465052 167 8286200565716786040
5104073 3 18188211975355864979
542803 24 17603585244850949370
5718773 13 8357669891180949753
5758199 1 18411704262431802547
59682541 35 17749394797377709441
59682541 52 17561093475808623902
59755656 520 17822005436831978994

>  <PUBCHEM_SHAPE_MULTIPOLES>  (1) 
410.47
21.11
1.44
0.96
4.62
0.16
0.04
-8.62
1.82
-0.99
0.02
1.71
-0.09
0.5

>  <PUBCHEM_SHAPE_SELFOVERLAP>  (1) 
867.636

>  <PUBCHEM_SHAPE_VOLUME>  (1) 
232.4

>  <PUBCHEM_COORDINATE_TYPE>  (1) 
2
5
10

$$$$
