16516
     RDKit          3D

 20 21  0  0  0  0  0  0  0  0999 V2000
    0.9250    1.9004   -0.1043 O   0  0  0  0  0  0  0  0  0  0  0  0
   -6.2901   -0.6128    0.1951 O   0  0  0  0  0  0  0  0  0  0  0  0
    4.8747   -0.2373    0.0641 N   0  0  0  0  0  0  0  0  0  0  0  0
   -0.4458    1.9296    0.1216 N   0  0  0  0  0  0  0  0  0  0  0  0
    3.4544   -0.0561    0.3621 C   0  0  0  0  0  0  0  0  0  0  0  0
    2.7005    0.4670   -0.8612 C   0  0  0  0  0  0  0  0  0  0  0  0
    5.0499   -1.1972   -1.0252 C   0  0  0  0  0  0  0  0  0  0  0  0
    5.5947   -0.6810    1.2572 C   0  0  0  0  0  0  0  0  0  0  0  0
    1.2382    0.6797   -0.5608 C   0  0  0  0  0  0  0  0  0  0  0  0
    6.5167   -1.3523   -1.3897 C   0  0  0  0  0  0  0  0  0  0  0  0
    5.4237    0.3053    2.4001 C   0  0  0  0  0  0  0  0  0  0  0  0
    0.1648   -0.1211   -0.6584 C   0  0  0  0  0  0  0  0  0  0  0  0
   -0.8779    0.7114   -0.2165 C   0  0  0  0  0  0  0  0  0  0  0  0
   -2.2714    0.3703   -0.1109 C   0  0  0  0  0  0  0  0  0  0  0  0
   -2.6466   -0.9455    0.1528 C   0  0  0  0  0  0  0  0  0  0  0  0
   -3.2423    1.3569   -0.2725 C   0  0  0  0  0  0  0  0  0  0  0  0
   -3.9979   -1.2762    0.2553 C   0  0  0  0  0  0  0  0  0  0  0  0
   -4.5937    1.0262   -0.1699 C   0  0  0  0  0  0  0  0  0  0  0  0
   -4.9714   -0.2902    0.0939 C   0  0  0  0  0  0  0  0  0  0  0  0
   -6.6056   -1.9771    0.4675 C   0  0  0  0  0  0  0  0  0  0  0  0
  1  4  1  0
  1  9  1  0
  2 19  1  0
  2 20  1  0
  3  5  1  0
  3  7  1  0
  3  8  1  0
  4 13  2  0
  5  6  1  0
  6  9  1  0
  7 10  1  0
  8 11  1  0
  9 12  2  0
 12 13  1  0
 13 14  1  0
 14 15  2  0
 14 16  1  0
 15 17  1  0
 16 18  2  0
 17 19  2  0
 18 19  1  0
M  END
>  <PUBCHEM_COMPOUND_CID>  (1) 
16516

>  <PUBCHEM_CONFORMER_RMSD>  (1) 
0.8

>  <PUBCHEM_CONFORMER_DIVERSEORDER>  (1) 
1
41
39
44
9
22
13
8
23
10
31
35
40
47
45
24
49
20
12
11
29
21
32
28
37
42
5
38
25
17
46
7
15
26
48
18
6
43
16
33
4
34
3
19
30
36
27
14
2

>  <PUBCHEM_MMFF94_PARTIAL_CHARGES>  (1) 
23
1 -0.02
12 -0.15
13 0.23
14 0.05
15 -0.15
16 -0.15
17 -0.15
18 -0.15
19 0.08
2 -0.36
20 0.28
3 -0.81
35 0.15
36 0.15
37 0.15
38 0.15
39 0.15
4 -0.41
5 0.27
6 0.18
7 0.27
8 0.27
9 -0.04

>  <PUBCHEM_EFFECTIVE_ROTOR_COUNT>  (1) 
7

>  <PUBCHEM_PHARMACOPHORE_FEATURES>  (1) 
5
1 2 acceptor
1 3 cation
1 4 acceptor
5 1 4 9 12 13 rings
6 14 15 16 17 18 19 rings

>  <PUBCHEM_HEAVY_ATOM_COUNT>  (1) 
20

>  <PUBCHEM_ATOM_DEF_STEREO_COUNT>  (1) 
0

>  <PUBCHEM_ATOM_UDEF_STEREO_COUNT>  (1) 
0

>  <PUBCHEM_BOND_DEF_STEREO_COUNT>  (1) 
0

>  <PUBCHEM_BOND_UDEF_STEREO_COUNT>  (1) 
0

>  <PUBCHEM_ISOTOPIC_ATOM_COUNT>  (1) 
0

>  <PUBCHEM_COMPONENT_COUNT>  (1) 
1

>  <PUBCHEM_CACTVS_TAUTO_COUNT>  (1) 
1

>  <PUBCHEM_CONFORMER_ID>  (1) 
0000408400000001

>  <PUBCHEM_MMFF94_ENERGY>  (1) 
44.9688

>  <PUBCHEM_FEATURE_SELFOVERLAP>  (1) 
25.372

>  <PUBCHEM_SHAPE_FINGERPRINT>  (1) 
10378564 45 11025784376522161648
106641 1 17774998046120825138
12236239 1 17603303739092211821
12516196 113 18341894099682708440
12596602 18 16487252192286131319
12670543 26 12901535824001807745
13167372 99 14764353712769165314
13288520 33 18407763634227447421
13533116 47 16917353606817230126
13675066 3 18131627872806433820
13685833 64 18410859875486560311
13862211 1 18186517704703631779
14123256 34 18410022043326154439
1420 363 18202567259065528366
14251752 14 17458616801429157149
14341114 176 17346878949235869112
14848160 23 18202563960293229062
15048467 5 10592049050892612103
15183329 4 17167582678472908271
15348495 7 17489299824015975882
15880784 105 17060333033240236774
17857418 61 17748821921179633074
17980427 23 13542457700880033121
1813 80 17749111071700797492
18222031 100 18186805760292984996
19784866 140 14490463166950468044
19784866 240 18409177614391017141
20281389 69 10735884949913982783
20374829 77 18186237333876329477
21033648 29 17202465745768646760
21130935 74 17917998278215272279
21150785 3 17313394447803783486
21267235 1 18335148609211115999
21637258 2 17530954804690512745
21792934 111 18201718475556344841
220451 1 17385447587644074904
221357 26 13406788926441856014
22224240 67 16845572037305286383
2297311 6 18411707551622669548
23081809 10 16588024576328962812
23198884 109 14201113497231791679
23253445 4 17632853153139062576
23402539 116 18334009485121289309
23522609 53 17169855300610363988
23536379 177 15936406719419518589
23559900 14 18335422421307196948
239999 70 18342740702947236638
2767999 5 11095882640164295602
3004659 81 18113624495177524964
312425 54 17560802142954125091
335352 9 18335422353616147877
3383291 50 18336265738690200763
3411729 13 18191865841848902664
3472631 163 10807638035529685882
351380 3 17967530164570462402
4340502 62 15267066938710522958
465052 167 18343872121311944606
5104073 3 18268158720216481177
559249 180 18040990714207751891
5718773 13 18267583692973752647
59682541 35 18342167921639400648
59682541 52 14345782838809441786
59755656 215 18409169878886424591
6025842 7 14923947830674439450
7062679 6 11383840376477479835
960060 61 15936414425355641078

>  <PUBCHEM_SHAPE_MULTIPOLES>  (1) 
389.89
17.77
1.67
1.26
2.92
0.04
0.58
-9.76
2.7
-1.33
-0.09
3.06
-0.14
1.44

>  <PUBCHEM_SHAPE_SELFOVERLAP>  (1) 
808.841

>  <PUBCHEM_SHAPE_VOLUME>  (1) 
226.3

>  <PUBCHEM_COORDINATE_TYPE>  (1) 
2
5
10

$$$$
