16521
     RDKit          3D

 15 15  0  0  1  0  0  0  0  0999 V2000
   -4.9784    1.3535    1.2295 Cl  0  0  0  0  0  0  0  0  0  0  0  0
    4.8490    1.8827   -0.4385 Cl  0  0  0  0  0  0  0  0  0  0  0  0
   -2.2861    0.3856    0.1568 O   0  0  0  0  0  0  0  0  0  0  0  0
   -1.1565   -1.5695    0.5199 O   0  0  0  0  0  0  0  0  0  0  0  0
   -0.0358    0.4381    0.0566 N   0  0  0  0  0  0  0  0  0  0  0  0
   -3.4531   -0.2995   -0.3124 C   0  0  0  0  0  0  0  0  0  0  0  0
   -4.6113    0.6893   -0.3850 C   0  0  0  0  0  0  0  0  0  0  0  0
   -3.1513   -0.8837   -1.6864 C   0  0  0  0  0  0  0  0  0  0  0  0
    1.3134    0.0839    0.0771 C   0  0  0  0  0  0  0  0  0  0  0  0
   -1.1497   -0.3704    0.2698 C   0  0  0  0  0  0  0  0  0  0  0  0
    2.2923    1.0483   -0.1627 C   0  0  0  0  0  0  0  0  0  0  0  0
    1.6833   -1.2354    0.3383 C   0  0  0  0  0  0  0  0  0  0  0  0
    3.6410    0.6933   -0.1415 C   0  0  0  0  0  0  0  0  0  0  0  0
    3.0321   -1.5904    0.3593 C   0  0  0  0  0  0  0  0  0  0  0  0
    4.0110   -0.6260    0.1194 C   0  0  0  0  0  0  0  0  0  0  0  0
  1  7  1  0
  2 13  1  0
  3  6  1  0
  3 10  1  0
  4 10  2  0
  5  9  1  0
  5 10  1  0
  6  7  1  0
  6  8  1  0
  9 11  2  0
  9 12  1  0
 11 13  1  0
 12 14  2  0
 13 15  2  0
 14 15  1  0
M  END
>  <PUBCHEM_COMPOUND_CID>  (1) 
16521

>  <PUBCHEM_CONFORMER_RMSD>  (1) 
0.6

>  <PUBCHEM_CONFORMER_DIVERSEORDER>  (1) 
1
132
160
90
47
60
153
43
165
28
155
14
63
77
158
37
31
64
115
65
22
161
108
41
79
23
57
27
98
42
89
76
142
21
104
151
85
164
119
10
150
26
147
157
127
11
167
135
33
91
166
145
29
68
114
55
30
163
39
107
20
24
120
152
162
17
131
58
71
97
67
130
25
93
137
75
73
126
32
99
69
53
156
49
19
136
13
81
113
44
96
54
38
95
66
154
105
83
138
78
106
134
52
35
82
36
94
117
2
15
148
74
9
141
40
123
48
139
6
118
8
80
46
128
4
143
159
5
133
12
144
92
50
140
7
146
112
59
111
122
116
3
51
16
103
56
18
101
121
45
34
88
102
109
86
100
62
87
70
124
61
110
149
84
72
129
125

>  <PUBCHEM_MMFF94_PARTIAL_CHARGES>  (1) 
19
1 -0.29
10 0.78
11 -0.15
12 -0.15
13 0.18
14 -0.15
15 -0.15
2 -0.18
22 0.37
23 0.15
24 0.15
25 0.15
26 0.15
3 -0.43
4 -0.57
5 -0.55
6 0.28
7 0.29
9 0.12

>  <PUBCHEM_EFFECTIVE_ROTOR_COUNT>  (1) 
5

>  <PUBCHEM_PHARMACOPHORE_FEATURES>  (1) 
3
1 4 acceptor
1 5 donor
6 9 11 12 13 14 15 rings

>  <PUBCHEM_HEAVY_ATOM_COUNT>  (1) 
15

>  <PUBCHEM_ATOM_DEF_STEREO_COUNT>  (1) 
0

>  <PUBCHEM_ATOM_UDEF_STEREO_COUNT>  (1) 
1

>  <PUBCHEM_BOND_DEF_STEREO_COUNT>  (1) 
0

>  <PUBCHEM_BOND_UDEF_STEREO_COUNT>  (1) 
0

>  <PUBCHEM_ISOTOPIC_ATOM_COUNT>  (1) 
0

>  <PUBCHEM_COMPONENT_COUNT>  (1) 
1

>  <PUBCHEM_CACTVS_TAUTO_COUNT>  (1) 
2

>  <PUBCHEM_CONFORMER_ID>  (1) 
0000408900000001

>  <PUBCHEM_MMFF94_ENERGY>  (1) 
35.7158

>  <PUBCHEM_FEATURE_SELFOVERLAP>  (1) 
15.223

>  <PUBCHEM_SHAPE_FINGERPRINT>  (1) 
10912923 1 18342171163891400083
11471102 20 18334855026605384516
11543360 7 17131552859631392980
12236239 1 18202001018840045466
13167823 11 18272365382415208207
13675066 3 17167865248924566757
13760787 19 18131349721728130991
13760787 5 18408880720159850007
14251764 75 16809574168251590852
15375358 24 17967811682549366146
17834072 33 18271522086786778615
18186145 218 17894907412649483195
18785283 64 16589733346121257661
19026448 5 18273208699164351063
200 152 18201995542741068230
20645477 56 17530963617778865941
20645477 70 18335700520856370226
20871999 31 17560794476927475895
212847 35 18343582910635163408
23402539 116 18202558475514581517
23402655 69 18272369780318982492
23559900 14 18410007728901835490
300161 21 18201993335143741308
4047638 21 18113057134276840082
449060 50 18040437719519141292
449060 62 18408604777565194664
474 4 18115028618613020980
5104073 3 18261110807125810458
522135 26 18334857186694521946
542803 24 18272936020185781897
543358 83 18412829075353333280
573450 72 17846488210923862823
633830 44 18410573951024289343
77779 3 18409448081266249767
8272917 22 18341899532779629182
90127 26 17822574893955843197

>  <PUBCHEM_SHAPE_MULTIPOLES>  (1) 
295.71
11.05
1.67
0.99
4.32
0.09
0.19
4.74
0.16
-1.09
-0.1
1.09
-0.05
-1.44

>  <PUBCHEM_SHAPE_SELFOVERLAP>  (1) 
584.35

>  <PUBCHEM_SHAPE_VOLUME>  (1) 
177.9

>  <PUBCHEM_COORDINATE_TYPE>  (1) 
2
5
10

$$$$
