16529
     RDKit          3D

 12 12  0  0  0  0  0  0  0  0999 V2000
    4.0412   -1.5155   -0.0012 Cl  0  0  0  0  0  0  0  0  0  0  0  0
   -3.2493   -0.9188   -0.0004 O   0  0  0  0  0  0  0  0  0  0  0  0
   -2.4010    1.2050   -0.0004 O   0  0  0  0  0  0  0  0  0  0  0  0
   -1.0087   -0.6824    0.0009 N   0  0  0  0  0  0  0  0  0  0  0  0
    0.2810   -0.1505    0.0014 C   0  0  0  0  0  0  0  0  0  0  0  0
    1.3871   -1.0003    0.0010 C   0  0  0  0  0  0  0  0  0  0  0  0
    0.4639    1.2324    0.0008 C   0  0  0  0  0  0  0  0  0  0  0  0
    2.6762   -0.4671    0.0000 C   0  0  0  0  0  0  0  0  0  0  0  0
    1.7528    1.7655   -0.0003 C   0  0  0  0  0  0  0  0  0  0  0  0
    2.8589    0.9158   -0.0007 C   0  0  0  0  0  0  0  0  0  0  0  0
   -2.2270   -0.0076   -0.0003 C   0  0  0  0  0  0  0  0  0  0  0  0
   -4.5751   -0.3765   -0.0007 C   0  0  0  0  0  0  0  0  0  0  0  0
  1  8  1  0
  2 11  1  0
  2 12  1  0
  3 11  2  0
  4  5  1  0
  4 11  1  0
  5  6  2  0
  5  7  1  0
  6  8  1  0
  7  9  2  0
  8 10  2  0
  9 10  1  0
M  END
>  <PUBCHEM_COMPOUND_CID>  (1) 
16529

>  <PUBCHEM_CONFORMER_RMSD>  (1) 
0.6

>  <PUBCHEM_CONFORMER_DIVERSEORDER>  (1) 
1
9
8
5
6
7
2
4
10
3

>  <PUBCHEM_MMFF94_PARTIAL_CHARGES>  (1) 
17
1 -0.18
10 -0.15
11 0.78
12 0.28
13 0.15
14 0.15
15 0.37
16 0.15
17 0.15
2 -0.43
3 -0.57
4 -0.55
5 0.12
6 -0.15
7 -0.15
8 0.18
9 -0.15

>  <PUBCHEM_EFFECTIVE_ROTOR_COUNT>  (1) 
3

>  <PUBCHEM_PHARMACOPHORE_FEATURES>  (1) 
3
1 3 acceptor
1 4 donor
6 5 6 7 8 9 10 rings

>  <PUBCHEM_HEAVY_ATOM_COUNT>  (1) 
12

>  <PUBCHEM_ATOM_DEF_STEREO_COUNT>  (1) 
0

>  <PUBCHEM_ATOM_UDEF_STEREO_COUNT>  (1) 
0

>  <PUBCHEM_BOND_DEF_STEREO_COUNT>  (1) 
0

>  <PUBCHEM_BOND_UDEF_STEREO_COUNT>  (1) 
0

>  <PUBCHEM_ISOTOPIC_ATOM_COUNT>  (1) 
0

>  <PUBCHEM_COMPONENT_COUNT>  (1) 
1

>  <PUBCHEM_CACTVS_TAUTO_COUNT>  (1) 
2

>  <PUBCHEM_CONFORMER_ID>  (1) 
0000409100000001

>  <PUBCHEM_MMFF94_ENERGY>  (1) 
29.4744

>  <PUBCHEM_FEATURE_SELFOVERLAP>  (1) 
15.223

>  <PUBCHEM_SHAPE_FINGERPRINT>  (1) 
10130415 120 18336263462171838778
10219947 1 18272091599587547038
11062470 55 10879993562241726103
11471102 20 18410008857691873853
12032990 46 18339645542743391982
12932764 1 17489581307339806925
13690532 89 18411699859415415330
14144814 61 18412265038472388857
14251717 144 18411135844283782910
14252887 29 18130792209783957598
14325111 11 18410856581251964485
15442244 35 18340208488111741216
15477762 27 18411419531268656934
18186145 218 17894623769120255527
18522853 276 18343300366237839721
200 152 18130780166684538647
20201158 50 18408324380129650139
20645477 70 18410571794924358927
20871998 22 18128261090977330886
21501925 9 18411692184598702618
221490 88 18263370350528568546
23402539 116 17917702475448708085
23402655 69 18412259545531224197
5104073 3 18412265047378802913
7364860 26 18270680978173130040
8809292 202 18187652426594951147

>  <PUBCHEM_SHAPE_MULTIPOLES>  (1) 
232.1
7.37
1.6
0.6
5.42
0.37
0
-2.65
0
-1.16
0
-0.07
0
0

>  <PUBCHEM_SHAPE_SELFOVERLAP>  (1) 
468.476

>  <PUBCHEM_SHAPE_VOLUME>  (1) 
136.7

>  <PUBCHEM_COORDINATE_TYPE>  (1) 
2
5
10

$$$$
