16526
     RDKit          3D

  9  9  0  0  1  0  0  0  0  0999 V2000
   -1.7662   -1.4299    0.1619 S   0  0  0  0  0  0  0  0  0  0  0  0
    2.7458   -0.6246   -0.1575 O   0  0  0  0  0  0  0  0  0  0  0  0
    1.9091    1.3981    0.4787 O   0  0  0  0  0  0  0  0  0  0  0  0
   -0.5420    0.8148   -0.3396 N   0  0  0  0  0  0  0  0  0  0  0  0
   -2.8756    0.9894    0.0957 N   0  0  0  0  0  0  0  0  0  0  0  0
    0.4522   -0.2639   -0.4906 C   0  0  0  0  0  0  0  0  0  0  0  0
    0.0273   -1.4801    0.3136 C   0  0  0  0  0  0  0  0  0  0  0  0
   -1.7033    0.3120   -0.0631 C   0  0  0  0  0  0  0  0  0  0  0  0
    1.7527    0.2843    0.0009 C   0  0  0  0  0  0  0  0  0  0  0  0
  1  7  1  0
  1  8  1  0
  2  9  1  0
  3  9  2  0
  4  6  1  0
  4  8  2  0
  5  8  1  0
  6  7  1  0
  6  9  1  0
M  END
>  <PUBCHEM_COMPOUND_CID>  (1) 
16526

>  <PUBCHEM_CONFORMER_RMSD>  (1) 
0.4

>  <PUBCHEM_CONFORMER_DIVERSEORDER>  (1) 
4
2
6
1
5
3

>  <PUBCHEM_MMFF94_PARTIAL_CHARGES>  (1) 
12
1 -0.37
13 0.4
14 0.4
15 0.5
2 -0.65
3 -0.57
4 -0.7
5 -0.85
6 0.31
7 0.23
8 0.64
9 0.66

>  <PUBCHEM_EFFECTIVE_ROTOR_COUNT>  (1) 
1.6

>  <PUBCHEM_PHARMACOPHORE_FEATURES>  (1) 
6
1 2 acceptor
1 3 acceptor
1 5 donor
3 2 3 9 anion
3 4 5 8 cation
5 1 4 6 7 8 rings

>  <PUBCHEM_HEAVY_ATOM_COUNT>  (1) 
9

>  <PUBCHEM_ATOM_DEF_STEREO_COUNT>  (1) 
0

>  <PUBCHEM_ATOM_UDEF_STEREO_COUNT>  (1) 
1

>  <PUBCHEM_BOND_DEF_STEREO_COUNT>  (1) 
0

>  <PUBCHEM_BOND_UDEF_STEREO_COUNT>  (1) 
0

>  <PUBCHEM_ISOTOPIC_ATOM_COUNT>  (1) 
0

>  <PUBCHEM_COMPONENT_COUNT>  (1) 
1

>  <PUBCHEM_CACTVS_TAUTO_COUNT>  (1) 
2

>  <PUBCHEM_CONFORMER_ID>  (1) 
0000408E00000004

>  <PUBCHEM_MMFF94_ENERGY>  (1) 
11.958

>  <PUBCHEM_FEATURE_SELFOVERLAP>  (1) 
30.502

>  <PUBCHEM_SHAPE_FINGERPRINT>  (1) 
10857977 72 18191299596858155507
14325111 11 18410293622576570909
14390081 3 18343298171762765361
19973954 147 18340488988014818056
21040471 1 18335144180545906999
23235685 24 18335981978241287437
23552423 10 18114464569042301470
29004967 10 17131841966591032262
369184 2 18272369827542549651
5084963 1 18410014363797684238

>  <PUBCHEM_SHAPE_MULTIPOLES>  (1) 
167.36
3.58
1.53
0.67
0.36
0.23
0
-0.63
-0.19
-0.41
-0.16
0.02
0.02
0.18

>  <PUBCHEM_SHAPE_SELFOVERLAP>  (1) 
326.758

>  <PUBCHEM_SHAPE_VOLUME>  (1) 
102.5

>  <PUBCHEM_COORDINATE_TYPE>  (1) 
2
5
10

$$$$
