16538
     RDKit          3D

 24 26  0  0  1  0  0  0  0  0999 V2000
    6.8002   -1.9666   -0.2191 Cl  0  0  0  0  0  0  0  0  0  0  0  0
   -2.7571   -2.5900    1.2238 O   0  0  0  0  0  0  0  0  0  0  0  0
   -4.2741   -1.9390   -1.0099 O   0  0  0  0  0  0  0  0  0  0  0  0
   -0.2906    3.0093    0.2492 N   0  0  0  0  0  0  0  0  0  0  0  0
   -0.4177    1.7455    1.0243 C   0  0  0  0  0  0  0  0  0  0  0  0
   -1.4558    0.7633    0.4752 C   0  0  0  0  0  0  0  0  0  0  0  0
   -1.5785    3.4695   -0.2831 C   0  0  0  0  0  0  0  0  0  0  0  0
    0.9652    1.0671    1.0637 C   0  0  0  0  0  0  0  0  0  0  0  0
   -2.1206    2.4455   -1.2750 C   0  0  0  0  0  0  0  0  0  0  0  0
   -2.2650    1.1009   -0.6234 C   0  0  0  0  0  0  0  0  0  0  0  0
    1.4110    0.6735   -0.3370 C   0  0  0  0  0  0  0  0  0  0  0  0
   -1.6569   -0.4816    1.0967 C   0  0  0  0  0  0  0  0  0  0  0  0
    0.3076    4.0817    1.0538 C   0  0  0  0  0  0  0  0  0  0  0  0
   -3.1954    0.1791   -1.1249 C   0  0  0  0  0  0  0  0  0  0  0  0
   -2.5964   -1.3882    0.6028 C   0  0  0  0  0  0  0  0  0  0  0  0
   -3.3588   -1.0616   -0.5135 C   0  0  0  0  0  0  0  0  0  0  0  0
    2.7645    0.0107   -0.3065 C   0  0  0  0  0  0  0  0  0  0  0  0
    3.9069    0.7878   -0.4274 C   0  0  0  0  0  0  0  0  0  0  0  0
    2.8460   -1.3661   -0.1589 C   0  0  0  0  0  0  0  0  0  0  0  0
    5.1593    0.1742   -0.4003 C   0  0  0  0  0  0  0  0  0  0  0  0
    4.0983   -1.9797   -0.1316 C   0  0  0  0  0  0  0  0  0  0  0  0
    5.2551   -1.2096   -0.2522 C   0  0  0  0  0  0  0  0  0  0  0  0
   -1.9466   -3.6700    0.7649 C   0  0  0  0  0  0  0  0  0  0  0  0
   -5.6005   -1.8555   -0.4916 C   0  0  0  0  0  0  0  0  0  0  0  0
  1 22  1  0
  2 15  1  0
  2 23  1  0
  3 16  1  0
  3 24  1  0
  4  5  1  0
  4  7  1  0
  4 13  1  0
  5  6  1  0
  5  8  1  0
  6 10  2  0
  6 12  1  0
  7  9  1  0
  8 11  1  0
  9 10  1  0
 10 14  1  0
 11 17  1  0
 12 15  2  0
 14 16  2  0
 15 16  1  0
 17 18  2  0
 17 19  1  0
 18 20  1  0
 19 21  2  0
 20 22  2  0
 21 22  1  0
M  END
>  <PUBCHEM_COMPOUND_CID>  (1) 
16538

>  <PUBCHEM_CONFORMER_RMSD>  (1) 
0.8

>  <PUBCHEM_CONFORMER_DIVERSEORDER>  (1) 
1
18
23
8
16
19
21
22
15
24
17
25
9
12
11
6
3
20
7
2
4
5
14
10
13

>  <PUBCHEM_MMFF94_PARTIAL_CHARGES>  (1) 
29
1 -0.18
10 -0.14
11 0.14
12 -0.15
13 0.27
14 -0.15
15 0.08
16 0.08
17 -0.14
18 -0.15
19 -0.15
2 -0.36
20 -0.15
21 -0.15
22 0.18
23 0.28
24 0.28
3 -0.36
34 0.15
38 0.15
39 0.15
4 -0.81
40 0.15
41 0.15
42 0.15
5 0.41
6 -0.14
7 0.27
9 0.14

>  <PUBCHEM_EFFECTIVE_ROTOR_COUNT>  (1) 
5.8

>  <PUBCHEM_PHARMACOPHORE_FEATURES>  (1) 
6
1 2 acceptor
1 3 acceptor
1 4 cation
6 17 18 19 20 21 22 rings
6 4 5 6 7 9 10 rings
6 6 10 12 14 15 16 rings

>  <PUBCHEM_HEAVY_ATOM_COUNT>  (1) 
24

>  <PUBCHEM_ATOM_DEF_STEREO_COUNT>  (1) 
0

>  <PUBCHEM_ATOM_UDEF_STEREO_COUNT>  (1) 
1

>  <PUBCHEM_BOND_DEF_STEREO_COUNT>  (1) 
0

>  <PUBCHEM_BOND_UDEF_STEREO_COUNT>  (1) 
0

>  <PUBCHEM_ISOTOPIC_ATOM_COUNT>  (1) 
0

>  <PUBCHEM_COMPONENT_COUNT>  (1) 
1

>  <PUBCHEM_CACTVS_TAUTO_COUNT>  (1) 
1

>  <PUBCHEM_CONFORMER_ID>  (1) 
0000409A00000001

>  <PUBCHEM_MMFF94_ENERGY>  (1) 
83.7464

>  <PUBCHEM_FEATURE_SELFOVERLAP>  (1) 
30.472

>  <PUBCHEM_SHAPE_FINGERPRINT>  (1) 
11045515 52 18334294249489619388
12363563 72 18343306989124752950
12553582 1 18339379555102213826
12760667 363 18411422808197107843
12788726 201 18265606594149640235
12892183 10 12463580585830457148
13402501 40 18411699919671935031
13533116 47 17840589516246729899
13544592 145 18263917920984480187
13544653 18 18411986896480133020
13631057 29 18411981330730057502
13911987 19 17614018695107902908
14251740 79 18260547771067469882
14251757 5 18334012774359271627
14790565 3 17979636728438871769
14863182 85 16605768851613148259
14866123 147 18339647746473052289
14931854 50 18187921751051561942
15064986 266 18188504509403779110
15352361 1 18411701023356840398
15463212 79 17825385172398328624
15475509 8 18409441510678352717
17492 89 18269273465861523870
1813 80 17987815114494218253
18927931 339 18059299751911066988
20775438 99 17476608333180399487
20832881 197 18412262865925831883
20871999 31 18336539443811914541
21307412 95 18337387249261662559
22393880 68 18262514780928222278
23557571 272 18341337699776037780
23559900 14 18190456245527708420
3004659 81 18187361034828709158
3027735 51 18339360734777458355
329604 57 18409732885164348966
3421961 26 18198057191296777977
46194498 28 17605268691204583813
463206 1 18338797939121366271
59755656 520 18044373820807348357
9709674 26 18268998575079766166

>  <PUBCHEM_SHAPE_MULTIPOLES>  (1) 
479.06
11.54
4.37
1.13
15.78
1.96
0.08
-10.71
-3.29
-3.36
1.01
-0.79
0.17
0.61

>  <PUBCHEM_SHAPE_SELFOVERLAP>  (1) 
1008.604

>  <PUBCHEM_SHAPE_VOLUME>  (1) 
272.4

>  <PUBCHEM_COORDINATE_TYPE>  (1) 
2
5
10

$$$$
