16532
     RDKit          3D

 12 12  0  0  0  0  0  0  0  0999 V2000
    2.7004    0.0054    0.1244 N   0  0  0  0  0  0  0  0  0  0  0  0
    0.4016    0.0072   -0.6362 N   0  0  0  0  0  0  0  0  0  0  0  0
    3.0880    1.2510   -0.6596 C   0  0  0  0  0  0  0  0  0  0  0  0
    3.4396   -0.0335    1.4542 C   0  0  0  0  0  0  0  0  0  0  0  0
    3.0620   -1.2330   -0.6884 C   0  0  0  0  0  0  0  0  0  0  0  0
    1.2164    0.0028    0.3693 C   0  0  0  0  0  0  0  0  0  0  0  0
   -0.9655    0.0034   -0.3138 C   0  0  0  0  0  0  0  0  0  0  0  0
   -1.6398    1.2096   -0.1483 C   0  0  0  0  0  0  0  0  0  0  0  0
   -1.6367   -1.2063   -0.1611 C   0  0  0  0  0  0  0  0  0  0  0  0
   -2.9972    1.2062    0.1728 C   0  0  0  0  0  0  0  0  0  0  0  0
   -2.9942   -1.2097    0.1598 C   0  0  0  0  0  0  0  0  0  0  0  0
   -3.6744   -0.0033    0.3268 C   0  0  0  0  0  0  0  0  0  0  0  0
  1  3  1  0
  1  4  1  0
  1  5  1  0
  1  6  1  0
  2  6  2  0
  2  7  1  0
  7  8  2  0
  7  9  1  0
  8 10  1  0
  9 11  2  0
 10 12  2  0
 11 12  1  0
M  CHG  1   1   1
M  END
>  <PUBCHEM_COMPOUND_CID>  (1) 
16532

>  <PUBCHEM_CONFORMER_RMSD>  (1) 
0.6

>  <PUBCHEM_CONFORMER_DIVERSEORDER>  (1) 
1

>  <PUBCHEM_MMFF94_PARTIAL_CHARGES>  (1) 
18
1 -0.91
10 -0.15
11 -0.15
12 -0.15
2 -0.63
22 0.06
23 0.15
24 0.15
25 0.15
26 0.15
27 0.15
3 0.5
4 0.5
5 0.5
6 0.79
7 0.18
8 -0.15
9 -0.15

>  <PUBCHEM_EFFECTIVE_ROTOR_COUNT>  (1) 
2

>  <PUBCHEM_PHARMACOPHORE_FEATURES>  (1) 
2
3 1 2 6 cation
6 7 8 9 10 11 12 rings

>  <PUBCHEM_HEAVY_ATOM_COUNT>  (1) 
12

>  <PUBCHEM_ATOM_DEF_STEREO_COUNT>  (1) 
0

>  <PUBCHEM_ATOM_UDEF_STEREO_COUNT>  (1) 
0

>  <PUBCHEM_BOND_DEF_STEREO_COUNT>  (1) 
0

>  <PUBCHEM_BOND_UDEF_STEREO_COUNT>  (1) 
0

>  <PUBCHEM_ISOTOPIC_ATOM_COUNT>  (1) 
0

>  <PUBCHEM_COMPONENT_COUNT>  (1) 
1

>  <PUBCHEM_CACTVS_TAUTO_COUNT>  (1) 
1

>  <PUBCHEM_CONFORMER_ID>  (1) 
0000409400000001

>  <PUBCHEM_MMFF94_ENERGY>  (1) 
35.3659

>  <PUBCHEM_FEATURE_SELFOVERLAP>  (1) 
10.148

>  <PUBCHEM_SHAPE_FINGERPRINT>  (1) 
10608611 8 18272087171333995945
11132069 177 18411978053195127121
12251169 10 18334288769184318880
12932764 1 17385439899668367996
13024252 1 14923943440853716261
13296908 3 18342742905305350606
14144814 61 18333733519827736357
14325111 11 18411703175082396365
15219456 202 18059577949094747887
15669948 3 18339923839101477407
18186145 218 18130233648632471950
190213 19 18335419066910845233
19422 9 18187085061325075762
20279233 1 17703784825568386342
20528008 55 18343861117563397327
20645464 45 17989492896566261727
20645477 70 13984653737866126904
20871998 184 18200601418412229479
2255824 54 17458068183697141166
23402539 116 18272642451467226981
23559900 14 18341615863253712062
3248919 1 18410847772326645214
474 4 17024885998310968028
5374978 207 18408601491604113561

>  <PUBCHEM_SHAPE_MULTIPOLES>  (1) 
236.99
7.17
1.38
0.93
1.44
0.01
0.2
0
0.97
-0.32
-0.18
0.84
-0.01
-0.02

>  <PUBCHEM_SHAPE_SELFOVERLAP>  (1) 
474.255

>  <PUBCHEM_SHAPE_VOLUME>  (1) 
141.3

>  <PUBCHEM_COORDINATE_TYPE>  (1) 
2
5
10

$$$$
