16541
     RDKit          3D

 15 14  0  0  0  0  0  0  0  0999 V2000
    4.0030    0.4320    0.0016 O   0  0  0  0  0  0  0  0  0  0  0  0
    5.4012   -1.4070    0.0557 O   0  0  0  0  0  0  0  0  0  0  0  0
   -2.2001   -0.4266   -0.0853 C   0  0  0  0  0  0  0  0  0  0  0  0
   -3.4947    0.3907   -0.1192 C   0  0  0  0  0  0  0  0  0  0  0  0
   -0.9359    0.4357   -0.0825 C   0  0  0  0  0  0  0  0  0  0  0  0
   -4.7589   -0.4686   -0.0471 C   0  0  0  0  0  0  0  0  0  0  0  0
    0.3258   -0.4313   -0.0791 C   0  0  0  0  0  0  0  0  0  0  0  0
   -6.0179    0.4011   -0.0110 C   0  0  0  0  0  0  0  0  0  0  0  0
    1.5917    0.4301   -0.0461 C   0  0  0  0  0  0  0  0  0  0  0  0
   -7.2807   -0.4529    0.0996 C   0  0  0  0  0  0  0  0  0  0  0  0
    2.8611   -0.4124   -0.0089 C   0  0  0  0  0  0  0  0  0  0  0  0
   -8.5313    0.4090    0.1696 C   0  0  0  0  0  0  0  0  0  0  0  0
    5.2119   -0.2012    0.0346 C   0  0  0  0  0  0  0  0  0  0  0  0
    6.2693    0.8309    0.0427 C   0  0  0  0  0  0  0  0  0  0  0  0
    7.5555    0.4706    0.0754 C   0  0  0  0  0  0  0  0  0  0  0  0
  1 11  1  0
  1 13  1  0
  2 13  2  0
  3  4  1  0
  3  5  1  0
  4  6  1  0
  5  7  1  0
  6  8  1  0
  7  9  1  0
  8 10  1  0
  9 11  1  0
 10 12  1  0
 13 14  1  0
 14 15  2  0
M  END
>  <PUBCHEM_COMPOUND_CID>  (1) 
16541

>  <PUBCHEM_CONFORMER_RMSD>  (1) 
1

>  <PUBCHEM_CONFORMER_DIVERSEORDER>  (1) 
1
35
58
85
32
92
52
83
103
80
57
88
106
7
116
126
56
128
40
121
60
72
102
73
12
16
28
34
91
136
81
125
96
149
144
2
8
25
148
62
95
49
122
22
93
138
19
124
36
51
90
65
130
41
68
59
6
67
64
50
147
47
4
114
100
137
112
129
140
20
30
66
15
23
113
94
53
107
24
74
110
37
143
45
42
78
63
84
135
46
120
87
119
5
55
146
26
43
14
33
127
98
117
27
82
134
139
18
13
9
54
10
3
75
70
104
44
31
141
61
86
69
39
109
76
17
133
145
99
11
97
131
101
48
89
118
21
142
38
71
79
29
111
123
132
77
115
105
108

>  <PUBCHEM_MMFF94_PARTIAL_CHARGES>  (1) 
9
1 -0.43
11 0.28
13 0.71
14 -0.14
15 -0.3
2 -0.57
37 0.15
38 0.15
39 0.15

>  <PUBCHEM_EFFECTIVE_ROTOR_COUNT>  (1) 
11

>  <PUBCHEM_PHARMACOPHORE_FEATURES>  (1) 
3
1 12 hydrophobe
1 15 hydrophobe
1 2 acceptor

>  <PUBCHEM_HEAVY_ATOM_COUNT>  (1) 
15

>  <PUBCHEM_ATOM_DEF_STEREO_COUNT>  (1) 
0

>  <PUBCHEM_ATOM_UDEF_STEREO_COUNT>  (1) 
0

>  <PUBCHEM_BOND_DEF_STEREO_COUNT>  (1) 
0

>  <PUBCHEM_BOND_UDEF_STEREO_COUNT>  (1) 
0

>  <PUBCHEM_ISOTOPIC_ATOM_COUNT>  (1) 
0

>  <PUBCHEM_COMPONENT_COUNT>  (1) 
1

>  <PUBCHEM_CACTVS_TAUTO_COUNT>  (1) 
1

>  <PUBCHEM_CONFORMER_ID>  (1) 
0000409D00000001

>  <PUBCHEM_MMFF94_ENERGY>  (1) 
6.0577

>  <PUBCHEM_FEATURE_SELFOVERLAP>  (1) 
15.223

>  <PUBCHEM_SHAPE_FINGERPRINT>  (1) 
11315181 36 18202286918719670345
11638347 137 16371000789975171440
12091667 2 18272088306328578967
13533116 47 17632014153032641942
14123256 10 18410855460133456041
14251764 18 18273216391698730521
14251764 46 15647053767913538505
155225 1 18341612673159257936
15716309 27 18343018887398730343
17834076 25 18410573989451693189
18006028 8 17917711305753996505
20281389 69 18411980252213439273
220451 1 16917343727653769894
22224240 67 17240482524345811235
23035841 295 13479134601384837481
23521765 1 18341895194994106509
246663 6 10881400924525253089
33684 2 18410855460128161803
42788 4 18409729556337834549
67123 10 18412262861614994679
8209 1 18410855464423135596

>  <PUBCHEM_SHAPE_MULTIPOLES>  (1) 
296.95
26.16
0.9
0.61
12.33
0.1
0
-2.41
1.54
-0.6
0.01
0.08
-0.01
-0.02

>  <PUBCHEM_SHAPE_SELFOVERLAP>  (1) 
543.651

>  <PUBCHEM_SHAPE_VOLUME>  (1) 
188.4

>  <PUBCHEM_COORDINATE_TYPE>  (1) 
2
5
10

$$$$
