16558
     RDKit          3D

 19 19  0  0  0  0  0  0  0  0999 V2000
    3.2746   -2.3444   -0.3849 Br  0  0  0  0  0  0  0  0  0  0  0  0
    2.1219    1.7377    1.0257 O   0  0  0  0  0  0  0  0  0  0  0  0
    0.8333   -0.6158   -2.3340 O   0  0  0  0  0  0  0  0  0  0  0  0
    0.7876    0.1644   -0.1232 N   0  0  0  0  0  0  0  0  0  0  0  0
   -1.1974   -1.7897    0.5711 C   0  0  0  0  0  0  0  0  0  0  0  0
   -1.5475   -0.3883    0.1877 C   0  0  0  0  0  0  0  0  0  0  0  0
   -0.6079    0.5524   -0.1461 C   0  0  0  0  0  0  0  0  0  0  0  0
   -2.4763   -2.6205    0.8946 C   0  0  0  0  0  0  0  0  0  0  0  0
   -0.2843   -1.8159    1.8347 C   0  0  0  0  0  0  0  0  0  0  0  0
   -0.4298   -2.6085   -0.5173 C   0  0  0  0  0  0  0  0  0  0  0  0
   -0.9167    1.8403   -0.4997 C   0  0  0  0  0  0  0  0  0  0  0  0
   -2.8912   -0.0145    0.1661 C   0  0  0  0  0  0  0  0  0  0  0  0
   -2.2604    2.2141   -0.5211 C   0  0  0  0  0  0  0  0  0  0  0  0
   -3.2476    1.2866   -0.1882 C   0  0  0  0  0  0  0  0  0  0  0  0
    1.5428    0.4381    1.1147 C   0  0  0  0  0  0  0  0  0  0  0  0
    0.1178    2.8564   -0.8615 C   0  0  0  0  0  0  0  0  0  0  0  0
    1.4167   -0.3691   -1.2765 C   0  0  0  0  0  0  0  0  0  0  0  0
    2.9121   -0.5904   -1.1411 C   0  0  0  0  0  0  0  0  0  0  0  0
    2.8523    2.0673    2.1989 C   0  0  0  0  0  0  0  0  0  0  0  0
  1 18  1  0
  2 15  1  0
  2 19  1  0
  3 17  2  0
  4  7  1  0
  4 15  1  0
  4 17  1  0
  5  6  1  0
  5  8  1  0
  5  9  1  0
  5 10  1  0
  6  7  2  0
  6 12  1  0
  7 11  1  0
 11 13  2  0
 11 16  1  0
 12 14  2  0
 13 14  1  0
 17 18  1  0
M  END
>  <PUBCHEM_COMPOUND_CID>  (1) 
16558

>  <PUBCHEM_CONFORMER_RMSD>  (1) 
0.8

>  <PUBCHEM_CONFORMER_DIVERSEORDER>  (1) 
4
5
6
8
7
3
2
1

>  <PUBCHEM_MMFF94_PARTIAL_CHARGES>  (1) 
19
1 -0.23
11 -0.14
12 -0.15
13 -0.15
14 -0.15
15 0.58
16 0.14
17 0.57
18 0.29
19 0.28
2 -0.56
29 0.15
3 -0.57
30 0.15
31 0.15
4 -0.48
5 0.14
6 -0.14
7 0.12

>  <PUBCHEM_EFFECTIVE_ROTOR_COUNT>  (1) 
6

>  <PUBCHEM_PHARMACOPHORE_FEATURES>  (1) 
5
1 1 hydrophobe
1 2 acceptor
1 3 acceptor
4 5 8 9 10 hydrophobe
6 6 7 11 12 13 14 rings

>  <PUBCHEM_HEAVY_ATOM_COUNT>  (1) 
19

>  <PUBCHEM_ATOM_DEF_STEREO_COUNT>  (1) 
0

>  <PUBCHEM_ATOM_UDEF_STEREO_COUNT>  (1) 
0

>  <PUBCHEM_BOND_DEF_STEREO_COUNT>  (1) 
0

>  <PUBCHEM_BOND_UDEF_STEREO_COUNT>  (1) 
0

>  <PUBCHEM_ISOTOPIC_ATOM_COUNT>  (1) 
0

>  <PUBCHEM_COMPONENT_COUNT>  (1) 
1

>  <PUBCHEM_CACTVS_TAUTO_COUNT>  (1) 
1

>  <PUBCHEM_CONFORMER_ID>  (1) 
000040AE00000004

>  <PUBCHEM_MMFF94_ENERGY>  (1) 
108.5449

>  <PUBCHEM_FEATURE_SELFOVERLAP>  (1) 
25.371

>  <PUBCHEM_SHAPE_FINGERPRINT>  (1) 
108231 29 17983293729665425610
10906281 52 17830737917356614553
11680986 33 18339363071175805201
12423570 1 10569373826323777692
12716301 132 18187657915678803761
13140716 1 18411421700285209459
13898156 1 17168147887589637636
14178342 30 17335919248847748291
14817 1 14598804262526443031
15207287 21 18057042410867305791
16945 1 17980478185134132069
19049666 15 18413671292448586338
20510252 161 17907305351546188022
20511035 2 18272094936740187196
20600515 1 18188474852560492700
20645476 183 16732997413686668763
20871998 184 17980469376124754489
20905425 154 17324650367227956469
22802520 49 18411707585961289306
2334 1 18337114578487035303
23388829 49 17329698237774360433
23402539 116 18264770943753246255
23419403 2 18059308641960664930
23493267 7 16734409096496727577
23526113 38 17986966158494836734
23559900 14 18266184933757321358
2748010 2 18410578422158779015
3250762 1 18342171193850617658
3286 77 18059570231154619981
5845 1 17974571604501463159
7364860 26 17254277822083123135
81228 2 18261677094474496435

>  <PUBCHEM_SHAPE_MULTIPOLES>  (1) 
380.23
4.67
3.46
1.69
1.01
0.2
-0.33
0.1
0.17
-0.22
-0.85
1.29
-0.34
1.8

>  <PUBCHEM_SHAPE_SELFOVERLAP>  (1) 
763.042

>  <PUBCHEM_SHAPE_VOLUME>  (1) 
230.4

>  <PUBCHEM_COORDINATE_TYPE>  (1) 
2
5
10

$$$$
