1655
     RDKit          3D

 24 27  0  0  1  0  0  0  0  0999 V2000
   -5.5339    0.2707   -0.5948 S   0  0  0  0  0  0  0  0  0  0  0  0
    6.0870   -0.0097   -1.0909 O   0  0  0  0  0  0  0  0  0  0  0  0
   -4.6636   -0.2359    0.7056 O   0  0  0  0  0  0  0  0  0  0  0  0
   -7.0852    0.0903   -0.1203 O   0  0  0  0  0  0  0  0  0  0  0  0
   -5.2923    1.6868   -0.8016 O   0  0  0  0  0  0  0  0  0  0  0  0
   -5.2995   -0.6694   -1.6756 O   0  0  0  0  0  0  0  0  0  0  0  0
    3.7995    0.7331   -0.5282 C   0  0  0  0  0  0  0  0  0  0  0  0
    3.2276   -0.6868   -0.3225 C   0  0  0  0  0  0  0  0  0  0  0  0
    1.6886   -0.7390   -0.3485 C   0  0  0  0  0  0  0  0  0  0  0  0
    1.0239    0.2749    0.6153 C   0  0  0  0  0  0  0  0  0  0  0  0
    5.2673    0.5576   -0.0713 C   0  0  0  0  0  0  0  0  0  0  0  0
    3.0772    1.7587    0.3775 C   0  0  0  0  0  0  0  0  0  0  0  0
    3.8895   -1.1813    0.9742 C   0  0  0  0  0  0  0  0  0  0  0  0
    1.5500    1.6883    0.2973 C   0  0  0  0  0  0  0  0  0  0  0  0
    5.2081   -0.4112    1.1122 C   0  0  0  0  0  0  0  0  0  0  0  0
    1.1537   -2.1445   -0.0622 C   0  0  0  0  0  0  0  0  0  0  0  0
    3.7038    1.1761   -1.9976 C   0  0  0  0  0  0  0  0  0  0  0  0
   -0.4983    0.1448    0.6064 C   0  0  0  0  0  0  0  0  0  0  0  0
   -0.3347   -2.2055   -0.3891 C   0  0  0  0  0  0  0  0  0  0  0  0
   -1.1207   -1.0430    0.1643 C   0  0  0  0  0  0  0  0  0  0  0  0
   -1.3130    1.1677    1.1244 C   0  0  0  0  0  0  0  0  0  0  0  0
   -2.5223   -1.1516    0.1900 C   0  0  0  0  0  0  0  0  0  0  0  0
   -2.7036    1.0428    1.1545 C   0  0  0  0  0  0  0  0  0  0  0  0
   -3.3091   -0.1138    0.6810 C   0  0  0  0  0  0  0  0  0  0  0  0
  1  3  1  0
  1  4  1  0
  1  5  2  0
  1  6  2  0
  2 11  1  0
  3 24  1  0
  7  8  1  0
  7 11  1  0
  7 12  1  0
  7 17  1  0
  8  9  1  0
  8 13  1  0
  9 10  1  0
  9 16  1  0
 10 14  1  0
 10 18  1  0
 11 15  1  0
 12 14  1  0
 13 15  1  0
 16 19  1  0
 18 20  2  0
 18 21  1  0
 19 20  1  0
 20 22  1  0
 21 23  2  0
 22 24  2  0
 23 24  1  0
M  END
>  <PUBCHEM_COMPOUND_CID>  (1) 
1655

>  <PUBCHEM_CONFORMER_RMSD>  (1) 
0.6

>  <PUBCHEM_CONFORMER_DIVERSEORDER>  (1) 
1
43
14
109
106
115
64
93
23
33
42
140
125
86
118
68
62
82
116
51
58
40
73
128
123
39
113
55
92
78
10
59
104
137
102
112
60
101
29
47
57
122
63
12
146
22
17
15
148
97
85
3
138
87
66
88
111
70
65
71
46
141
83
13
144
76
2
131
142
96
132
36
53
21
129
30
54
119
67
18
139
52
26
69
105
98
75
49
7
90
94
130
16
100
11
74
145
20
48
41
37
72
79
147
27
45
4
91
143
34
110
95
32
56
44
136
127
124
120
121
35
103
81
84
133
126
61
50
107
8
28
117
19
134
9
38
108
135
80
25
114
31
24
89
5
77
6
99

>  <PUBCHEM_MMFF94_PARTIAL_CHARGES>  (1) 
20
1 1.67
10 0.14
11 0.28
18 -0.14
19 0.14
2 -0.68
20 -0.14
21 -0.15
22 -0.15
23 -0.15
24 0.08
3 -0.27
4 -0.68
44 0.4
45 0.15
46 0.15
47 0.15
48 0.5
5 -0.65
6 -0.65

>  <PUBCHEM_EFFECTIVE_ROTOR_COUNT>  (1) 
3.4

>  <PUBCHEM_PHARMACOPHORE_FEATURES>  (1) 
10
1 2 acceptor
1 2 donor
1 4 acceptor
1 5 acceptor
1 6 acceptor
4 1 4 5 6 anion
5 7 8 11 13 15 rings
6 18 20 21 22 23 24 rings
6 7 8 9 10 12 14 rings
6 9 10 16 18 19 20 rings

>  <PUBCHEM_HEAVY_ATOM_COUNT>  (1) 
24

>  <PUBCHEM_ATOM_DEF_STEREO_COUNT>  (1) 
0

>  <PUBCHEM_ATOM_UDEF_STEREO_COUNT>  (1) 
5

>  <PUBCHEM_BOND_DEF_STEREO_COUNT>  (1) 
0

>  <PUBCHEM_BOND_UDEF_STEREO_COUNT>  (1) 
0

>  <PUBCHEM_ISOTOPIC_ATOM_COUNT>  (1) 
0

>  <PUBCHEM_COMPONENT_COUNT>  (1) 
1

>  <PUBCHEM_CACTVS_TAUTO_COUNT>  (1) 
1

>  <PUBCHEM_CONFORMER_ID>  (1) 
0000067700000001

>  <PUBCHEM_MMFF94_ENERGY>  (1) 
72.855

>  <PUBCHEM_FEATURE_SELFOVERLAP>  (1) 
51.011

>  <PUBCHEM_SHAPE_FINGERPRINT>  (1) 
10090160 65 18410854335248189707
10670039 82 18270135517379337700
10693767 8 17845659131965245126
10906281 52 18341068332332986867
11089746 13 18335414681754562740
12011746 2 18413395332573828438
12166972 35 18261956344732559405
12236239 1 18259705618676165130
12403260 363 18342455920007250072
12596602 18 14273465790229546013
12838862 33 18340471345022512736
13533116 47 18338230471321032482
13583140 156 17604159210762515331
13862211 1 18273211993261952794
14528608 73 18343300383776242453
15142383 8 16950552269353476924
15183329 4 18334856104505415529
15196674 1 18270403926817230762
15788980 27 17530968003103901555
16752209 62 18202013105289564392
17349148 13 18201718444388617570
1813 80 17749676161339579506
18681886 176 18059853995849845128
200 152 18060134332602245353
20511986 3 18339061761966489562
20715895 44 18188486848852127837
21033648 29 15719677679233594716
21054139 6 17917418857009328791
21267235 1 18272102611920649898
21859007 373 18189875587736005032
22393880 68 18059845195525074525
22950370 63 9871744702416750563
23402539 116 18060416924033075949
23536379 177 17240481399180190219
23557571 272 16272211872862558658
23559900 14 17988638670252053752
23569914 2 16230792337784236917
23569917 315 18342742888327130510
23569943 247 16986334685189437334
25147074 1 18058174916929526987
2838139 119 17749382659842407173
29717793 49 17561371685813902796
3004659 81 18334859411719670432
33382 64 13973693814518800197
335352 9 18413111671843918710
34797466 226 15841549699597057521
3545911 37 18410296925928732579
4072396 5 18411128118027949394
4325135 7 18059856151823148765
4340502 62 17458068149137508635
474 4 18041007262643072394
5104073 3 18269560596913986002
5283173 99 17895749596129270645
542803 24 15285359535057481656
59755656 215 18340493274977891670
59755656 520 17894625985508698539
8272917 22 17530964666436902970
8509985 295 18335696140031393954

>  <PUBCHEM_SHAPE_MULTIPOLES>  (1) 
468.41
14.11
1.82
1.26
11.9
0.3
-0.34
-2.37
-3.36
-0.38
-0.06
-0.31
-0.24
-0.63

>  <PUBCHEM_SHAPE_SELFOVERLAP>  (1) 
1001.092

>  <PUBCHEM_SHAPE_VOLUME>  (1) 
262.7

>  <PUBCHEM_COORDINATE_TYPE>  (1) 
2
5
10

$$$$
