16552
     RDKit          3D

 14 13  0  0  0  0  0  0  0  0999 V2000
   -2.3250    0.3476    0.5509 O   0  0  0  0  0  0  0  0  0  0  0  0
    2.3889    0.2727    0.5376 O   0  0  0  0  0  0  0  0  0  0  0  0
   -1.2985    1.4152   -1.2127 O   0  0  0  0  0  0  0  0  0  0  0  0
    1.3870    1.3726   -1.2203 O   0  0  0  0  0  0  0  0  0  0  0  0
    0.0306    0.2341    0.4615 C   0  0  0  0  0  0  0  0  0  0  0  0
    0.0075   -1.3002    0.5791 C   0  0  0  0  0  0  0  0  0  0  0  0
   -0.1634   -2.0199   -0.7640 C   0  0  0  0  0  0  0  0  0  0  0  0
   -1.2465    0.7467   -0.1892 C   0  0  0  0  0  0  0  0  0  0  0  0
    1.3196    0.7062   -0.1964 C   0  0  0  0  0  0  0  0  0  0  0  0
   -0.2360   -3.5280   -0.5772 C   0  0  0  0  0  0  0  0  0  0  0  0
   -3.6019    0.7646    0.0571 C   0  0  0  0  0  0  0  0  0  0  0  0
    3.6757    0.6483    0.0361 C   0  0  0  0  0  0  0  0  0  0  0  0
   -4.6818    0.2454    0.9823 C   0  0  0  0  0  0  0  0  0  0  0  0
    4.7437    0.0947    0.9550 C   0  0  0  0  0  0  0  0  0  0  0  0
  1  8  1  0
  1 11  1  0
  2  9  1  0
  2 12  1  0
  3  8  2  0
  4  9  2  0
  5  6  1  0
  5  8  1  0
  5  9  1  0
  6  7  1  0
  7 10  1  0
 11 13  1  0
 12 14  1  0
M  END
>  <PUBCHEM_COMPOUND_CID>  (1) 
16552

>  <PUBCHEM_CONFORMER_RMSD>  (1) 
0.8

>  <PUBCHEM_CONFORMER_DIVERSEORDER>  (1) 
1
71
70
123
21
56
64
112
28
88
145
47
132
129
111
3
116
130
67
121
136
125
95
66
127
35
77
51
107
118
33
144
58
105
122
133
86
24
19
101
96
120
141
8
63
57
69
146
39
60
124
103
25
139
84
126
94
46
75
128
131
98
137
87
49
83
32
97
14
104
26
11
106
68
134
78
16
110
138
142
50
30
72
17
6
109
92
82
93
42
9
140
5
52
4
10
108
12
61
23
53
38
89
113
54
80
13
100
74
114
73
115
76
7
34
119
99
62
20
40
102
135
48
22
29
143
36
45
27
41
91
43
31
2
79
55
85
37
44
117
90
65
15
18
59
81

>  <PUBCHEM_MMFF94_PARTIAL_CHARGES>  (1) 
9
1 -0.43
11 0.28
12 0.28
2 -0.43
3 -0.57
4 -0.57
5 0.12
8 0.66
9 0.66

>  <PUBCHEM_EFFECTIVE_ROTOR_COUNT>  (1) 
8

>  <PUBCHEM_PHARMACOPHORE_FEATURES>  (1) 
4
1 10 hydrophobe
1 3 acceptor
1 4 acceptor
1 5 anion

>  <PUBCHEM_HEAVY_ATOM_COUNT>  (1) 
14

>  <PUBCHEM_ATOM_DEF_STEREO_COUNT>  (1) 
0

>  <PUBCHEM_ATOM_UDEF_STEREO_COUNT>  (1) 
0

>  <PUBCHEM_BOND_DEF_STEREO_COUNT>  (1) 
0

>  <PUBCHEM_BOND_UDEF_STEREO_COUNT>  (1) 
0

>  <PUBCHEM_ISOTOPIC_ATOM_COUNT>  (1) 
0

>  <PUBCHEM_COMPONENT_COUNT>  (1) 
1

>  <PUBCHEM_CACTVS_TAUTO_COUNT>  (1) 
1

>  <PUBCHEM_CONFORMER_ID>  (1) 
000040A800000001

>  <PUBCHEM_MMFF94_ENERGY>  (1) 
8.997

>  <PUBCHEM_FEATURE_SELFOVERLAP>  (1) 
20.304

>  <PUBCHEM_SHAPE_FINGERPRINT>  (1) 
1 1 18340769221724985231
10756046 70 17968666050049227028
10922049 32 18413392020637351338
11132069 177 18408609166874026291
11322862 65 18341898515046590022
12119455 92 18408317778880746369
12715332 25 18412541024707923882
13380535 76 18408047307995603939
14178000 29 12035740820221620305
15048467 5 13183022912667990609
15219456 202 18117557336564142861
15309172 13 18410571777570007033
15502708 68 18340772533487596683
15852999 172 17917443042001567598
16945 1 17749111079842318977
17041 50 8646480783337514403
18380122 1 18188213074793664957
187816 3 17703793621751177240
201361 129 17843977952831493225
20645477 56 18340197579454115048
20645477 70 18265330600416440151
21054139 6 18201707501724856583
21339142 149 17773576390655622390
21501502 16 18050843618208879180
21524375 3 18407761443097781249
22224240 67 18343864437910877115
23402539 116 17989197157512933740
23419403 2 17464241739049323286
2748010 2 17972874757106035237
3250762 1 17615686237260052621
366044 4 18341894095203066482
42630746 31 18201440216444489047
465052 167 17749402485110381659
474229 33 18412262869957327827
69090 78 18411693309837975026
7364860 26 18054794983688886959
81228 2 17834090306334045163
81539 233 18335702685255896575

>  <PUBCHEM_SHAPE_MULTIPOLES>  (1) 
264.64
7.18
2.4
1.05
0.73
3.61
0.1
-3.31
-3.13
-0.36
0.82
-0.01
-0.15
-0.11

>  <PUBCHEM_SHAPE_SELFOVERLAP>  (1) 
498.413

>  <PUBCHEM_SHAPE_VOLUME>  (1) 
164.5

>  <PUBCHEM_COORDINATE_TYPE>  (1) 
2
5
10

$$$$
