16566
     RDKit          3D

 13 13  0  0  1  0  0  0  0  0999 V2000
    3.3794    2.7793    0.0227 Cl  0  0  0  0  0  0  0  0  0  0  0  0
    2.7018   -3.0680   -0.2110 Cl  0  0  0  0  0  0  0  0  0  0  0  0
   -2.2820    1.5681    0.5840 S   0  0  0  0  0  0  0  0  0  0  0  0
   -1.0677   -0.1380    0.5839 P   0  0  0  0  0  0  0  0  0  0  0  0
   -1.9819   -1.1031   -0.3711 O   0  0  0  0  0  0  0  0  0  0  0  0
   -0.9193   -0.7058    1.9697 O   0  0  0  0  0  0  0  0  0  0  0  0
    0.3188    0.1777   -0.2577 N   0  0  0  0  0  0  0  0  0  0  0  0
    1.2439    1.1374    0.3410 C   0  0  0  0  0  0  0  0  0  0  0  0
    1.0596   -0.9791   -0.7564 C   0  0  0  0  0  0  0  0  0  0  0  0
   -3.5894    0.7303   -0.3842 C   0  0  0  0  0  0  0  0  0  0  0  0
   -2.8810   -0.3542   -1.2086 C   0  0  0  0  0  0  0  0  0  0  0  0
    2.2364    1.6244   -0.7034 C   0  0  0  0  0  0  0  0  0  0  0  0
    1.7812   -1.6689    0.3910 C   0  0  0  0  0  0  0  0  0  0  0  0
  1 12  1  0
  2 13  1  0
  3  4  1  0
  3 10  1  0
  4  5  1  0
  4  6  2  0
  4  7  1  0
  5 11  1  0
  7  8  1  0
  7  9  1  0
  8 12  1  0
  9 13  1  0
 10 11  1  0
M  END
>  <PUBCHEM_COMPOUND_CID>  (1) 
16566

>  <PUBCHEM_CONFORMER_RMSD>  (1) 
0.6

>  <PUBCHEM_CONFORMER_DIVERSEORDER>  (1) 
2
60
21
51
54
18
45
3
43
26
4
14
52
1
34
62
27
8
10
53
39
6
31
37
56
58
59
23
12
55
61
11
7
32
49
16
42
63
19
17
15
57
30
33
13
48
22
46
50
25
24
5
40
44
36
9
28
47
29
41
38
35
20

>  <PUBCHEM_MMFF94_PARTIAL_CHARGES>  (1) 
13
1 -0.29
10 0.23
11 0.28
12 0.29
13 0.29
2 -0.29
3 -0.48
4 1.49
5 -0.55
6 -0.7
7 -0.81
8 0.27
9 0.27

>  <PUBCHEM_EFFECTIVE_ROTOR_COUNT>  (1) 
5.8

>  <PUBCHEM_PHARMACOPHORE_FEATURES>  (1) 
1
5 3 4 5 10 11 rings

>  <PUBCHEM_HEAVY_ATOM_COUNT>  (1) 
13

>  <PUBCHEM_ATOM_DEF_STEREO_COUNT>  (1) 
0

>  <PUBCHEM_ATOM_UDEF_STEREO_COUNT>  (1) 
1

>  <PUBCHEM_BOND_DEF_STEREO_COUNT>  (1) 
0

>  <PUBCHEM_BOND_UDEF_STEREO_COUNT>  (1) 
0

>  <PUBCHEM_ISOTOPIC_ATOM_COUNT>  (1) 
0

>  <PUBCHEM_COMPONENT_COUNT>  (1) 
1

>  <PUBCHEM_CACTVS_TAUTO_COUNT>  (1) 
1

>  <PUBCHEM_CONFORMER_ID>  (1) 
000040B600000002

>  <PUBCHEM_MMFF94_ENERGY>  (1) 
16.296

>  <PUBCHEM_FEATURE_SELFOVERLAP>  (1) 
5.074

>  <PUBCHEM_SHAPE_FINGERPRINT>  (1) 
12897270 3 18130222791335274165
12932764 1 17632573890117845489
13380535 76 18187922949315074184
13380536 55 18342746212462102769
14115302 16 17488450893907483607
15775835 57 18129951198751413373
15852999 172 17823410668320408322
16945 1 18118402847989138355
18186145 218 17749669589369132173
20645464 45 17240761821837373497
20653085 51 18262801757599802937
20671657 1 18411424968565398020
20671657 53 18125437514646327110
20711985 344 17254845174478541890
21499 59 18265611172590429156
21501502 16 18272368646664043509
21524375 3 17971744730036652012
21947302 44 18334574642038768049
23402539 116 17316749190966519571
23526113 38 17970072149364929570
23532345 88 18340760455780883421
23552423 10 18412539890810138511
23557571 272 17313116288552263905
23598291 2 18200596878399286117
2748010 2 17896339019749070243
305870 269 18337954596944420868
3071541 12 18410858737647157684
3250762 1 18188227479629075635
4175511 71 18051702040131058076
6992083 37 17624705548317124769
7364860 26 18412543189392338700
74978 22 18337957783662506895
81228 2 17326911577615505298
81539 233 18334850671271397156
9939556 21 18271520893223668215

>  <PUBCHEM_SHAPE_MULTIPOLES>  (1) 
262.25
5.6
3.06
1.14
1.6
0.09
0.29
-1.32
-1.07
-4.64
-0.09
0.51
0.17
-0.36

>  <PUBCHEM_SHAPE_SELFOVERLAP>  (1) 
458.132

>  <PUBCHEM_SHAPE_VOLUME>  (1) 
175.5

>  <PUBCHEM_COORDINATE_TYPE>  (1) 
2
5
10

$$$$
