16577
     RDKit          3D

 13 13  0  0  0  0  0  0  0  0999 V2000
   -1.9741    1.7913   -0.4458 O   0  0  0  0  0  0  0  0  0  0  0  0
   -2.8035   -0.8374   -0.0895 O   0  0  0  0  0  0  0  0  0  0  0  0
    4.8411    0.1410    0.0804 O   0  0  0  0  0  0  0  0  0  0  0  0
    3.5888   -0.4776    0.1200 N   0  0  0  0  0  0  0  0  0  0  0  0
   -1.0619    0.7966   -0.2610 C   0  0  0  0  0  0  0  0  0  0  0  0
   -1.4782   -0.5226   -0.0816 C   0  0  0  0  0  0  0  0  0  0  0  0
    1.2420    0.0964   -0.0635 C   0  0  0  0  0  0  0  0  0  0  0  0
    0.2982    1.1060   -0.2518 C   0  0  0  0  0  0  0  0  0  0  0  0
   -0.5345   -1.5322    0.1070 C   0  0  0  0  0  0  0  0  0  0  0  0
    0.8257   -1.2228    0.1159 C   0  0  0  0  0  0  0  0  0  0  0  0
    2.6601    0.4190   -0.0530 C   0  0  0  0  0  0  0  0  0  0  0  0
   -2.4587    2.4514    0.7221 C   0  0  0  0  0  0  0  0  0  0  0  0
   -3.1451   -2.2090    0.1008 C   0  0  0  0  0  0  0  0  0  0  0  0
  1  5  1  0
  1 12  1  0
  2  6  1  0
  2 13  1  0
  3  4  1  0
  4 11  2  0
  5  6  2  0
  5  8  1  0
  6  9  1  0
  7  8  2  0
  7 10  1  0
  7 11  1  0
  9 10  2  0
M  END
>  <PUBCHEM_COMPOUND_CID>  (1) 
16577

>  <PUBCHEM_CONFORMER_RMSD>  (1) 
0.6

>  <PUBCHEM_CONFORMER_DIVERSEORDER>  (1) 
3
1
4
2

>  <PUBCHEM_MMFF94_PARTIAL_CHARGES>  (1) 
18
1 -0.36
10 -0.15
11 0.3
12 0.28
13 0.28
14 0.15
15 0.15
16 0.15
17 0.06
2 -0.36
24 0.4
3 -0.34
4 -0.51
5 0.08
6 0.08
7 0.09
8 -0.15
9 -0.15

>  <PUBCHEM_EFFECTIVE_ROTOR_COUNT>  (1) 
3

>  <PUBCHEM_PHARMACOPHORE_FEATURES>  (1) 
5
1 1 acceptor
1 2 acceptor
1 3 anion
1 4 acceptor
6 5 6 7 8 9 10 rings

>  <PUBCHEM_HEAVY_ATOM_COUNT>  (1) 
13

>  <PUBCHEM_ATOM_DEF_STEREO_COUNT>  (1) 
0

>  <PUBCHEM_ATOM_UDEF_STEREO_COUNT>  (1) 
0

>  <PUBCHEM_BOND_DEF_STEREO_COUNT>  (1) 
0

>  <PUBCHEM_BOND_UDEF_STEREO_COUNT>  (1) 
1

>  <PUBCHEM_ISOTOPIC_ATOM_COUNT>  (1) 
0

>  <PUBCHEM_COMPONENT_COUNT>  (1) 
1

>  <PUBCHEM_CACTVS_TAUTO_COUNT>  (1) 
2

>  <PUBCHEM_CONFORMER_ID>  (1) 
000040C100000003

>  <PUBCHEM_MMFF94_ENERGY>  (1) 
51.0146

>  <PUBCHEM_FEATURE_SELFOVERLAP>  (1) 
25.376

>  <PUBCHEM_SHAPE_FINGERPRINT>  (1) 
108231 29 17973728266277509955
12032990 46 18191588759890103531
12932764 1 17346305021293388846
13024252 1 13117997790648256437
13380535 21 18267874869336663686
13380535 76 18268424629666941767
14325111 11 18409728426935496020
14614273 12 18114737136346245103
14897335 6 18265609875473141933
15219456 202 18059300846806259862
16945 1 18410863195501639423
193761 8 18193838137447709343
20510252 161 18343020016764048416
20871998 184 18272652367618493543
21501502 16 18265327318138558786
23402539 116 18340197591753532631
23557571 272 18201450168363424252
23559900 14 18200030626417971302
2748010 2 18266747874297712751
3312278 4 18333726944681471963
43471831 8 18260542295359266402
5104073 3 18410568458441171706
6333449 129 18412259506428086412

>  <PUBCHEM_SHAPE_MULTIPOLES>  (1) 
244.94
5.95
2.27
0.66
6.6
0.51
0.02
-0.67
0.45
-2.88
0.28
-0.14
0.12
-0.21

>  <PUBCHEM_SHAPE_SELFOVERLAP>  (1) 
503.162

>  <PUBCHEM_SHAPE_VOLUME>  (1) 
142.3

>  <PUBCHEM_COORDINATE_TYPE>  (1) 
2
5
10

$$$$
