16578
     RDKit          3D

 22 24  0  0  0  0  0  0  0  0999 V2000
   -2.3265   -3.2917   -0.0016 Br  0  0  0  0  0  0  0  0  0  0  0  0
    2.3264    3.2922   -0.0024 Br  0  0  0  0  0  0  0  0  0  0  0  0
   -2.2816    3.3323    0.0000 Br  0  0  0  0  0  0  0  0  0  0  0  0
    2.2821   -3.3323    0.0001 Br  0  0  0  0  0  0  0  0  0  0  0  0
   -5.2533   -1.6088    0.0014 Br  0  0  0  0  0  0  0  0  0  0  0  0
    5.2538    1.6084    0.0021 Br  0  0  0  0  0  0  0  0  0  0  0  0
   -5.0636    1.6252   -0.0010 Cl  0  0  0  0  0  0  0  0  0  0  0  0
    5.0637   -1.6248   -0.0020 Cl  0  0  0  0  0  0  0  0  0  0  0  0
   -0.0127   -1.4268    0.0000 O   0  0  0  0  0  0  0  0  0  0  0  0
    0.0124    1.4268    0.0001 O   0  0  0  0  0  0  0  0  0  0  0  0
   -1.1678   -0.6868    0.0001 C   0  0  0  0  0  0  0  0  0  0  0  0
    1.1677    0.6868    0.0002 C   0  0  0  0  0  0  0  0  0  0  0  0
    1.1554   -0.7073    0.0003 C   0  0  0  0  0  0  0  0  0  0  0  0
   -1.1556    0.7071    0.0001 C   0  0  0  0  0  0  0  0  0  0  0  0
   -2.3791   -1.3777    0.0000 C   0  0  0  0  0  0  0  0  0  0  0  0
    2.3790    1.3775    0.0003 C   0  0  0  0  0  0  0  0  0  0  0  0
   -2.3544    1.4191    0.0004 C   0  0  0  0  0  0  0  0  0  0  0  0
    2.3544   -1.4192    0.0004 C   0  0  0  0  0  0  0  0  0  0  0  0
   -3.5794   -0.6666    0.0001 C   0  0  0  0  0  0  0  0  0  0  0  0
    3.5793    0.6665    0.0005 C   0  0  0  0  0  0  0  0  0  0  0  0
   -3.5672    0.7293    0.0003 C   0  0  0  0  0  0  0  0  0  0  0  0
    3.5671   -0.7294    0.0006 C   0  0  0  0  0  0  0  0  0  0  0  0
  1 15  1  0
  2 16  1  0
  3 17  1  0
  4 18  1  0
  5 19  1  0
  6 20  1  0
  7 21  1  0
  8 22  1  0
  9 11  1  0
  9 13  1  0
 10 12  1  0
 10 14  1  0
 11 14  2  0
 11 15  1  0
 12 13  2  0
 12 16  1  0
 13 18  1  0
 14 17  1  0
 15 19  2  0
 16 20  2  0
 17 21  2  0
 18 22  2  0
 19 21  1  0
 20 22  1  0
M  END
>  <PUBCHEM_COMPOUND_CID>  (1) 
16578

>  <PUBCHEM_CONFORMER_RMSD>  (1) 
0.6

>  <PUBCHEM_CONFORMER_DIVERSEORDER>  (1) 
1

>  <PUBCHEM_MMFF94_PARTIAL_CHARGES>  (1) 
22
1 -0.11
10 -0.17
11 0.08
12 0.08
13 0.08
14 0.08
15 0.11
16 0.11
17 0.11
18 0.11
19 0.11
2 -0.11
20 0.11
21 0.18
22 0.18
3 -0.11
4 -0.11
5 -0.11
6 -0.11
7 -0.18
8 -0.18
9 -0.17

>  <PUBCHEM_EFFECTIVE_ROTOR_COUNT>  (1) 
0.4

>  <PUBCHEM_PHARMACOPHORE_FEATURES>  (1) 
11
1 1 hydrophobe
1 10 acceptor
1 2 hydrophobe
1 3 hydrophobe
1 4 hydrophobe
1 5 hydrophobe
1 6 hydrophobe
1 9 acceptor
6 11 14 15 17 19 21 rings
6 12 13 16 18 20 22 rings
6 9 10 11 12 13 14 rings

>  <PUBCHEM_HEAVY_ATOM_COUNT>  (1) 
22

>  <PUBCHEM_ATOM_DEF_STEREO_COUNT>  (1) 
0

>  <PUBCHEM_ATOM_UDEF_STEREO_COUNT>  (1) 
0

>  <PUBCHEM_BOND_DEF_STEREO_COUNT>  (1) 
0

>  <PUBCHEM_BOND_UDEF_STEREO_COUNT>  (1) 
0

>  <PUBCHEM_ISOTOPIC_ATOM_COUNT>  (1) 
0

>  <PUBCHEM_COMPONENT_COUNT>  (1) 
1

>  <PUBCHEM_CACTVS_TAUTO_COUNT>  (1) 
1

>  <PUBCHEM_CONFORMER_ID>  (1) 
000040C200000001

>  <PUBCHEM_MMFF94_ENERGY>  (1) 
70.8489

>  <PUBCHEM_FEATURE_SELFOVERLAP>  (1) 
55.902

>  <PUBCHEM_SHAPE_FINGERPRINT>  (1) 
10616163 171 18339363092408457870
10967382 1 18338798896945720902
1100329 8 17689998933830402345
11578080 2 17169249469518329718
12107183 9 17617940235985879746
12403259 226 18410569582837022101
12553582 1 18339631369351419043
13140716 1 18266459999666438425
138480 1 17545882624932411235
14178342 30 18338500994141187618
14223421 5 18410574002336601581
14341114 176 18410862061656601528
14790565 3 18120661490103165772
14866123 147 16540175737248466426
15042514 8 18409452514079019083
15196674 1 18410855460128161792
15442244 35 18194682566424395162
15536298 74 18413670210433312544
16945 1 18410575084663078918
17492 89 18338797819205173251
1813 80 17167581600578366900
18681886 176 18341889710722088762
19591789 44 18339643317728981423
19930381 70 17906168808426004025
200 152 18202561795851264327
20510252 161 18342459214589693633
20645477 70 18342459223111342222
21065198 57 18410856593999528010
21267235 1 18410582794272326215
21279426 13 18338516343868883367
21421861 104 17969213439695214394
221490 88 18336834207496345866
22393880 68 18412834573164667182
23227448 37 18411980290793960869
2334 1 17978511167210913799
23366157 5 18114185173267702842
23402539 116 18342451535341032231
23557571 272 18272378619356454997
23558518 356 18260836994207374216
23559900 14 18412820287734324672
3004659 81 18261396612141802110
335352 9 18338798914062254525
34934 24 18410851062097754282
350125 39 18410858767300959225
3545911 37 18339643446677915248
4214541 1 18410575071815119777
474 4 17604434127614548780
5104073 3 18410575080368112555
58051976 378 18340487875939801630
59755656 215 18409729607724533046
7364860 26 18411981377747740496
9709674 26 18411705391259628071
9981440 41 17615686667231978016

>  <PUBCHEM_SHAPE_MULTIPOLES>  (1) 
480.4
10.65
4.23
0.65
0
0
0
0
0
0
0
0
0
0

>  <PUBCHEM_SHAPE_SELFOVERLAP>  (1) 
955.489

>  <PUBCHEM_SHAPE_VOLUME>  (1) 
300.5

>  <PUBCHEM_COORDINATE_TYPE>  (1) 
2
5
10

$$$$
