16588
     RDKit          3D

 12 11  0  0  0  0  0  0  0  0999 V2000
    4.3775   -0.6398   -0.2802 O   0  0  0  0  0  0  0  0  0  0  0  0
    3.3657    1.3095    0.4246 O   0  0  0  0  0  0  0  0  0  0  0  0
   -3.0284   -0.6504    0.0438 C   0  0  0  0  0  0  0  0  0  0  0  0
   -1.7518    0.1700    0.2525 C   0  0  0  0  0  0  0  0  0  0  0  0
   -4.3203    0.1553    0.2741 C   0  0  0  0  0  0  0  0  0  0  0  0
   -0.5033   -0.6597   -0.0595 C   0  0  0  0  0  0  0  0  0  0  0  0
    0.7751    0.1498    0.1795 C   0  0  0  0  0  0  0  0  0  0  0  0
   -4.3437    1.3738   -0.6520 C   0  0  0  0  0  0  0  0  0  0  0  0
   -5.5798   -0.6838    0.0540 C   0  0  0  0  0  0  0  0  0  0  0  0
    2.0402   -0.6624   -0.0968 C   0  0  0  0  0  0  0  0  0  0  0  0
    3.3115    0.1412    0.0660 C   0  0  0  0  0  0  0  0  0  0  0  0
    5.6574   -0.0036   -0.2059 C   0  0  0  0  0  0  0  0  0  0  0  0
  1 11  1  0
  1 12  1  0
  2 11  2  0
  3  4  1  0
  3  5  1  0
  4  6  1  0
  5  8  1  0
  5  9  1  0
  6  7  1  0
  7 10  1  0
 10 11  1  0
M  END
>  <PUBCHEM_COMPOUND_CID>  (1) 
16588

>  <PUBCHEM_CONFORMER_RMSD>  (1) 
0.8

>  <PUBCHEM_CONFORMER_DIVERSEORDER>  (1) 
1
23
43
7
19
41
35
6
30
49
28
5
44
8
11
3
25
14
27
39
42
4
46
24
47
26
48
21
31
33
9
12
40
2
10
38
45
16
20
29
13
17
15
18
22
34
36
32
37

>  <PUBCHEM_MMFF94_PARTIAL_CHARGES>  (1) 
5
1 -0.43
10 0.06
11 0.66
12 0.28
2 -0.57

>  <PUBCHEM_EFFECTIVE_ROTOR_COUNT>  (1) 
7

>  <PUBCHEM_PHARMACOPHORE_FEATURES>  (1) 
4
1 2 acceptor
3 3 4 5 hydrophobe
3 5 8 9 hydrophobe
3 6 7 10 hydrophobe

>  <PUBCHEM_HEAVY_ATOM_COUNT>  (1) 
12

>  <PUBCHEM_ATOM_DEF_STEREO_COUNT>  (1) 
0

>  <PUBCHEM_ATOM_UDEF_STEREO_COUNT>  (1) 
0

>  <PUBCHEM_BOND_DEF_STEREO_COUNT>  (1) 
0

>  <PUBCHEM_BOND_UDEF_STEREO_COUNT>  (1) 
0

>  <PUBCHEM_ISOTOPIC_ATOM_COUNT>  (1) 
0

>  <PUBCHEM_COMPONENT_COUNT>  (1) 
1

>  <PUBCHEM_CACTVS_TAUTO_COUNT>  (1) 
1

>  <PUBCHEM_CONFORMER_ID>  (1) 
000040CC00000001

>  <PUBCHEM_MMFF94_ENERGY>  (1) 
8.653

>  <PUBCHEM_FEATURE_SELFOVERLAP>  (1) 
20.719

>  <PUBCHEM_SHAPE_FINGERPRINT>  (1) 
10680689 15 18334579057824402083
11287383 113 18343022224340321483
114248 4 18343584044801681467
12091667 2 18187367627423933115
13081056 2 18411135852994984785
14123238 8 16008749112923466867
1420 363 18335146410003413227
14251718 22 18409450297327008195
15242439 84 18410576192923000890
15501527 16 18336266743849034769
17834072 33 18272931656520049847
17834076 25 17312822679913192362
187816 3 16128658552419213435
19433438 28 18334575758988948897
200 152 17203328892487302915
20645477 56 18261110730475937181
20645477 70 18059862705711796822
20719005 15 18412263943308534251
20767249 13 12031788058745125126
220451 1 13686301279064934620
23402539 116 18412538812498884935
23402655 69 18272931596411587132
23557571 272 18335424538857696205
300161 21 13623527995418613680
366044 4 18408604768427192755
42788 4 18335421266155679358
542803 24 17240205425908879508

>  <PUBCHEM_SHAPE_MULTIPOLES>  (1) 
235.22
13.75
1.06
0.67
2.53
0.26
-0.01
0.47
-0.89
-0.55
-0.06
-0.12
0.05
0.5

>  <PUBCHEM_SHAPE_SELFOVERLAP>  (1) 
428.239

>  <PUBCHEM_SHAPE_VOLUME>  (1) 
151.3

>  <PUBCHEM_COORDINATE_TYPE>  (1) 
2
5
10

$$$$
