16587
     RDKit          3D

 10 11  0  0  0  0  0  0  0  0999 V2000
    1.2373   -1.2443    0.0001 C   0  0  0  0  0  0  0  0  0  0  0  0
   -0.1633   -0.7143    0.0000 C   0  0  0  0  0  0  0  0  0  0  0  0
    2.0319    0.0452    0.0000 C   0  0  0  0  0  0  0  0  0  0  0  0
   -0.1366    0.6871    0.0000 C   0  0  0  0  0  0  0  0  0  0  0  0
    1.2455    1.1355   -0.0001 C   0  0  0  0  0  0  0  0  0  0  0  0
   -1.3585   -1.4108   -0.0001 C   0  0  0  0  0  0  0  0  0  0  0  0
   -1.3078    1.4243    0.0001 C   0  0  0  0  0  0  0  0  0  0  0  0
    3.5179    0.0223    0.0000 C   0  0  0  0  0  0  0  0  0  0  0  0
   -2.5457   -0.6752   -0.0001 C   0  0  0  0  0  0  0  0  0  0  0  0
   -2.5207    0.7302    0.0000 C   0  0  0  0  0  0  0  0  0  0  0  0
  1  2  1  0
  1  3  1  0
  2  4  2  0
  2  6  1  0
  3  5  2  0
  3  8  1  0
  4  5  1  0
  4  7  1  0
  6  9  2  0
  7 10  2  0
  9 10  1  0
M  END
>  <PUBCHEM_COMPOUND_CID>  (1) 
16587

>  <PUBCHEM_CONFORMER_RMSD>  (1) 
0.4

>  <PUBCHEM_CONFORMER_DIVERSEORDER>  (1) 
1

>  <PUBCHEM_MMFF94_PARTIAL_CHARGES>  (1) 
15
1 0.28
10 -0.15
13 0.15
14 0.15
15 0.15
19 0.15
2 -0.14
20 0.15
3 -0.28
4 0.03
5 -0.18
6 -0.15
7 -0.15
8 0.14
9 -0.15

>  <PUBCHEM_EFFECTIVE_ROTOR_COUNT>  (1) 
0.2

>  <PUBCHEM_PHARMACOPHORE_FEATURES>  (1) 
2
5 1 2 3 4 5 rings
6 2 4 6 7 9 10 rings

>  <PUBCHEM_HEAVY_ATOM_COUNT>  (1) 
10

>  <PUBCHEM_ATOM_DEF_STEREO_COUNT>  (1) 
0

>  <PUBCHEM_ATOM_UDEF_STEREO_COUNT>  (1) 
0

>  <PUBCHEM_BOND_DEF_STEREO_COUNT>  (1) 
0

>  <PUBCHEM_BOND_UDEF_STEREO_COUNT>  (1) 
0

>  <PUBCHEM_ISOTOPIC_ATOM_COUNT>  (1) 
0

>  <PUBCHEM_COMPONENT_COUNT>  (1) 
1

>  <PUBCHEM_CACTVS_TAUTO_COUNT>  (1) 
1

>  <PUBCHEM_CONFORMER_ID>  (1) 
000040CB00000001

>  <PUBCHEM_MMFF94_ENERGY>  (1) 
24.4215

>  <PUBCHEM_FEATURE_SELFOVERLAP>  (1) 
10.235

>  <PUBCHEM_SHAPE_FINGERPRINT>  (1) 
10857977 72 18340196487851589168
11206711 2 18409163320433862341
12032990 46 18410864290623464682
12897270 3 18410854377817534797
13024252 1 15647053763592203897
13380535 76 18411134697564425135
14325111 11 18410855451902340992
16945 1 18410856563940031621
193761 8 17473825022145624065
20201158 50 18413387631138524879
20871998 184 18129666421066145679
21040471 1 18338516331005177509
23235685 24 18411976927729170121
23402655 69 18196354941671619429
23463225 33 18262514793628540322
23552423 10 18188772871818974318
2748010 2 18050565441297163757
29004967 10 18410859875354607210
369184 2 18411416211063602393
5084963 1 18272372009285618424
528886 8 18411132524231507859
6333449 129 18342172267281179173

>  <PUBCHEM_SHAPE_MULTIPOLES>  (1) 
205.8
4.22
1.5
0.62
1.85
0.03
0
-0.04
0
-0.45
0
0
0
0

>  <PUBCHEM_SHAPE_SELFOVERLAP>  (1) 
447.272

>  <PUBCHEM_SHAPE_VOLUME>  (1) 
108.5

>  <PUBCHEM_COORDINATE_TYPE>  (1) 
2
5
10

$$$$
