16581
     RDKit          3D

 19 19  0  0  1  0  0  0  0  0999 V2000
    0.1348   -0.5422    0.8179 O   0  0  0  0  0  0  0  0  0  0  0  0
   -0.4638   -0.0800   -1.3929 O   0  0  0  0  0  0  0  0  0  0  0  0
   -3.1113   -0.0044   -0.5139 N   0  0  0  0  0  0  0  0  0  0  0  0
   -2.1394   -0.8007    0.2322 C   0  0  0  0  0  0  0  0  0  0  0  0
   -2.8805    1.4233   -0.2940 C   0  0  0  0  0  0  0  0  0  0  0  0
   -4.4749   -0.3663   -0.1274 C   0  0  0  0  0  0  0  0  0  0  0  0
   -2.4055   -2.2827    0.0074 C   0  0  0  0  0  0  0  0  0  0  0  0
   -0.7507   -0.4269   -0.2543 C   0  0  0  0  0  0  0  0  0  0  0  0
   -3.8432    2.2674   -1.1119 C   0  0  0  0  0  0  0  0  0  0  0  0
   -4.7269   -0.0678    1.3408 C   0  0  0  0  0  0  0  0  0  0  0  0
    1.4505   -0.2190    0.4778 C   0  0  0  0  0  0  0  0  0  0  0  0
    1.8695    1.0877    0.6111 C   0  0  0  0  0  0  0  0  0  0  0  0
    2.2831   -1.2183    0.0207 C   0  0  0  0  0  0  0  0  0  0  0  0
    4.0468    0.4190   -0.1945 C   0  0  0  0  0  0  0  0  0  0  0  0
    3.1831    1.4106    0.2707 C   0  0  0  0  0  0  0  0  0  0  0  0
    3.5968   -0.8954   -0.3195 C   0  0  0  0  0  0  0  0  0  0  0  0
    0.9598    2.1629    1.1072 C   0  0  0  0  0  0  0  0  0  0  0  0
    1.8199   -2.6311   -0.1205 C   0  0  0  0  0  0  0  0  0  0  0  0
    5.4517    0.7639   -0.5568 C   0  0  0  0  0  0  0  0  0  0  0  0
  1  8  1  0
  1 11  1  0
  2  8  2  0
  3  4  1  0
  3  5  1  0
  3  6  1  0
  4  7  1  0
  4  8  1  0
  5  9  1  0
  6 10  1  0
 11 12  2  0
 11 13  1  0
 12 15  1  0
 12 17  1  0
 13 16  2  0
 13 18  1  0
 14 15  2  0
 14 16  1  0
 14 19  1  0
M  END
>  <PUBCHEM_COMPOUND_CID>  (1) 
16581

>  <PUBCHEM_CONFORMER_RMSD>  (1) 
0.8

>  <PUBCHEM_CONFORMER_DIVERSEORDER>  (1) 
1
50
49
42
40
53
33
34
14
54
23
19
44
38
47
22
11
56
29
27
26
48
37
41
32
39
55
45
31
21
43
51
25
8
17
13
30
16
5
52
20
2
35
36
4
9
6
28
7
3
46
15
12
24
18
10

>  <PUBCHEM_MMFF94_PARTIAL_CHARGES>  (1) 
18
1 -0.23
11 0.08
12 -0.14
13 -0.14
14 -0.14
15 -0.15
16 -0.15
17 0.14
18 0.14
19 0.14
2 -0.57
3 -0.81
34 0.15
35 0.15
4 0.33
5 0.27
6 0.27
8 0.66

>  <PUBCHEM_EFFECTIVE_ROTOR_COUNT>  (1) 
6

>  <PUBCHEM_PHARMACOPHORE_FEATURES>  (1) 
3
1 2 acceptor
1 3 cation
6 11 12 13 14 15 16 rings

>  <PUBCHEM_HEAVY_ATOM_COUNT>  (1) 
19

>  <PUBCHEM_ATOM_DEF_STEREO_COUNT>  (1) 
0

>  <PUBCHEM_ATOM_UDEF_STEREO_COUNT>  (1) 
1

>  <PUBCHEM_BOND_DEF_STEREO_COUNT>  (1) 
0

>  <PUBCHEM_BOND_UDEF_STEREO_COUNT>  (1) 
0

>  <PUBCHEM_ISOTOPIC_ATOM_COUNT>  (1) 
0

>  <PUBCHEM_COMPONENT_COUNT>  (1) 
1

>  <PUBCHEM_CACTVS_TAUTO_COUNT>  (1) 
1

>  <PUBCHEM_CONFORMER_ID>  (1) 
000040C500000001

>  <PUBCHEM_MMFF94_ENERGY>  (1) 
51.5034

>  <PUBCHEM_FEATURE_SELFOVERLAP>  (1) 
15.223

>  <PUBCHEM_SHAPE_FINGERPRINT>  (1) 
10366900 7 18335697295319743211
10498660 4 17749940060481927549
10608611 8 18410004446934573025
10980938 120 18413383228960602770
11471102 20 18413669115195676506
11552529 35 17987241213070842563
116883 192 17698163946270867886
12011746 2 18409442596856965165
12236239 1 17131839771968193682
12500047 106 18408597059203145295
12507560 40 18260551070124358815
12633257 1 18412541007449167627
12788726 201 17273705260169147185
15196674 1 18337107869531932108
15239154 128 18334013873907861660
1601671 61 18413108360028702160
18186145 218 18131346440372967424
19784866 9 18335695019213929690
19862831 5 17704354385534394626
200 152 17275107244831326266
20645477 56 18408322194365530895
20645477 70 17988931028923961574
21033648 29 18335971018118283577
221357 26 18342734113824027645
22289505 5 18340197479984052124
23402539 116 17313377968077558798
23402655 69 18342172233000835004
23557571 272 18408891741040683076
23559900 14 18338790225786571417
25 1 18411134740788294290
3545911 37 18411984675765607219
474 4 16009605710070712252
5104073 3 18188207589677368937
5281201 14 18409453552901558996
58051976 100 18059570360288631599
6287921 2 18117281564919548956
633830 44 18058727039159572876
6438718 38 16414646930184086905
77779 3 18408322168247716967
8272917 22 18059585641529238375
9709674 26 18411420605106037175

>  <PUBCHEM_SHAPE_MULTIPOLES>  (1) 
374.29
9.84
2.33
1.02
0.54
0.27
0.03
-2.2
-0.79
0.3
-0.07
0.58
-0.31
0.83

>  <PUBCHEM_SHAPE_SELFOVERLAP>  (1) 
761.517

>  <PUBCHEM_SHAPE_VOLUME>  (1) 
221

>  <PUBCHEM_COORDINATE_TYPE>  (1) 
2
5
10

$$$$
