1659
     RDKit          3D

 22 21  0  0  1  0  0  0  0  0999 V2000
   -9.2576   -1.1356    1.6556 O   0  0  0  0  0  0  0  0  0  0  0  0
    6.9007    0.2353   -0.1202 C   0  0  0  0  0  0  0  0  0  0  0  0
    5.4963   -0.4060   -0.0522 C   0  0  0  0  0  0  0  0  0  0  0  0
    4.3516    0.6043   -0.1853 C   0  0  0  0  0  0  0  0  0  0  0  0
    2.9635   -0.0332   -0.0536 C   0  0  0  0  0  0  0  0  0  0  0  0
    7.9608   -0.8444    0.1907 C   0  0  0  0  0  0  0  0  0  0  0  0
    1.7799    0.9401   -0.0926 C   0  0  0  0  0  0  0  0  0  0  0  0
    0.4260    0.2538    0.1047 C   0  0  0  0  0  0  0  0  0  0  0  0
    9.3968   -0.3112    0.2175 C   0  0  0  0  0  0  0  0  0  0  0  0
   -0.7648    1.2128   -0.0090 C   0  0  0  0  0  0  0  0  0  0  0  0
    7.1508    0.8977   -1.4787 C   0  0  0  0  0  0  0  0  0  0  0  0
   -2.1198    0.5102    0.1105 C   0  0  0  0  0  0  0  0  0  0  0  0
   -3.3140    1.4645   -0.0030 C   0  0  0  0  0  0  0  0  0  0  0  0
   10.3979   -1.4321    0.5032 C   0  0  0  0  0  0  0  0  0  0  0  0
   -4.6703    0.7555    0.0870 C   0  0  0  0  0  0  0  0  0  0  0  0
   11.8281   -0.9160    0.4995 C   0  0  0  0  0  0  0  0  0  0  0  0
   -5.8567    1.7280    0.0374 C   0  0  0  0  0  0  0  0  0  0  0  0
   -7.2511    1.1660    0.1165 C   0  0  0  0  0  0  0  0  0  0  0  0
   -7.6086   -0.1151    0.2983 C   0  0  0  0  0  0  0  0  0  0  0  0
   -9.0354   -0.5754    0.3639 C   0  0  0  0  0  0  0  0  0  0  0  0
   -9.2825   -1.5867   -0.6718 C   0  0  0  0  0  0  0  0  0  0  0  0
   -9.4915   -2.4124   -1.5183 C   0  0  0  0  0  0  0  0  0  0  0  0
  1 20  1  0
  2  3  1  0
  2  6  1  0
  2 11  1  0
  3  4  1  0
  4  5  1  0
  5  7  1  0
  6  9  1  0
  7  8  1  0
  8 10  1  0
  9 14  1  0
 10 12  1  0
 12 13  1  0
 13 15  1  0
 14 16  1  0
 15 17  1  0
 17 18  1  0
 18 19  2  0
 19 20  1  0
 20 21  1  0
 21 22  3  0
M  END
>  <PUBCHEM_COMPOUND_CID>  (1) 
1659

>  <PUBCHEM_CONFORMER_RMSD>  (1) 
1.6

>  <PUBCHEM_CONFORMER_DIVERSEORDER>  (1) 
1
3
53
2
15
10
80
60
72
61
54
86
4
62
68
83
58
52
34
82
78
84
24
26
77
64
17
36
57
21
48
46
7
65
8
43
51
28
81
87
14
22
59
5
20
35
39
70
44
41
47
74
63
9
49
71
6
50
23
37
31
25
79
69
32
85
75
76
33
27
12
45
67
38
11
55
30
16
19
66
13
18
73
40
56
42
29

>  <PUBCHEM_MMFF94_PARTIAL_CHARGES>  (1) 
11
1 -0.68
17 0.14
18 -0.29
19 -0.29
20 0.62
21 -0.2
22 -0.18
56 0.15
57 0.15
59 0.4
60 0.18

>  <PUBCHEM_EFFECTIVE_ROTOR_COUNT>  (1) 
15

>  <PUBCHEM_PHARMACOPHORE_FEATURES>  (1) 
5
1 1 acceptor
1 1 donor
1 11 hydrophobe
1 16 hydrophobe
1 22 hydrophobe

>  <PUBCHEM_HEAVY_ATOM_COUNT>  (1) 
22

>  <PUBCHEM_ATOM_DEF_STEREO_COUNT>  (1) 
0

>  <PUBCHEM_ATOM_UDEF_STEREO_COUNT>  (1) 
2

>  <PUBCHEM_BOND_DEF_STEREO_COUNT>  (1) 
0

>  <PUBCHEM_BOND_UDEF_STEREO_COUNT>  (1) 
1

>  <PUBCHEM_ISOTOPIC_ATOM_COUNT>  (1) 
0

>  <PUBCHEM_COMPONENT_COUNT>  (1) 
1

>  <PUBCHEM_CACTVS_TAUTO_COUNT>  (1) 
1

>  <PUBCHEM_CONFORMER_ID>  (1) 
0000067B00000001

>  <PUBCHEM_MMFF94_ENERGY>  (1) 
7.0399

>  <PUBCHEM_FEATURE_SELFOVERLAP>  (1) 
25.373

>  <PUBCHEM_SHAPE_FINGERPRINT>  (1) 
10162869 55 17821449054563300788
12089408 11 18261116265829341532
12498461 61 18273209811519287015
12522641 33 12107785199242031232
14202775 3 18341335505391232038
14251764 46 18260830380912383920
15247644 1 18113901554897168642
15510794 2 18272091583025031790
155225 1 10015865379619131283
15690457 1 18409729560258307452
1754911 235 13984663659082350417
21095086 128 18113337496909911480
21102433 48 18335414648250244130
21360443 89 17775279500625064575
21362267 20 18131347531733894967
232437 2 18408323272676589920
23528940 14 17346590925215404311
246663 6 18202005434731356313
33684 2 18040436565032879088
5381727 24 18408321077954044162
59521270 166 17676201348510701261
59682541 35 16702020885434784093
67123 10 18335422361594152264
8209 1 9439395831776748840

>  <PUBCHEM_SHAPE_MULTIPOLES>  (1) 
446.88
49.48
1.74
0.97
26.65
0.55
0.11
29.35
-3.35
-4.16
0.37
-0.96
0.29
-2.4

>  <PUBCHEM_SHAPE_SELFOVERLAP>  (1) 
821.145

>  <PUBCHEM_SHAPE_VOLUME>  (1) 
282.2

>  <PUBCHEM_COORDINATE_TYPE>  (1) 
2
5
10

$$$$
