166
     RDKit          3D

 17 18  0  0  1  0  0  0  0  0999 V2000
    1.8816   -2.6090    0.0242 O   0  0  0  0  0  0  0  0  0  0  0  0
   -2.7228   -1.6835   -0.6057 O   0  0  0  0  0  0  0  0  0  0  0  0
   -4.5851    0.4789   -0.8969 O   0  0  0  0  0  0  0  0  0  0  0  0
   -0.3022   -0.9466    0.0671 N   0  0  0  0  0  0  0  0  0  0  0  0
    0.2318    1.9006   -0.1364 N   0  0  0  0  0  0  0  0  0  0  0  0
    2.6242    1.4238   -0.0959 N   0  0  0  0  0  0  0  0  0  0  0  0
    3.3376   -0.8178   -0.0007 N   0  0  0  0  0  0  0  0  0  0  0  0
    4.8909    0.9159    0.1634 N   0  0  0  0  0  0  0  0  0  0  0  0
    1.0065   -0.3747    0.4037 C   0  0  0  0  0  0  0  0  0  0  0  0
    1.2807    0.9025   -0.4002 C   0  0  0  0  0  0  0  0  0  0  0  0
   -1.3469    0.0483    0.3263 C   0  0  0  0  0  0  0  0  0  0  0  0
   -1.0910    1.3463   -0.4421 C   0  0  0  0  0  0  0  0  0  0  0  0
    2.0794   -1.3995    0.0973 C   0  0  0  0  0  0  0  0  0  0  0  0
   -2.6390   -0.5710   -0.1021 C   0  0  0  0  0  0  0  0  0  0  0  0
    3.5783    0.5518    0.0170 C   0  0  0  0  0  0  0  0  0  0  0  0
   -3.9194    0.2134    0.0953 C   0  0  0  0  0  0  0  0  0  0  0  0
   -4.3045    0.6207    1.4859 C   0  0  0  0  0  0  0  0  0  0  0  0
  1 13  2  0
  2 14  2  0
  3 16  2  0
  4  9  1  0
  4 11  1  0
  5 10  1  0
  5 12  1  0
  6 10  1  0
  6 15  2  0
  7 13  1  0
  7 15  1  0
  8 15  1  0
  9 10  1  0
  9 13  1  0
 11 12  1  0
 11 14  1  0
 14 16  1  0
 16 17  1  0
M  END
>  <PUBCHEM_COMPOUND_CID>  (1) 
166

>  <PUBCHEM_CONFORMER_RMSD>  (1) 
0.6

>  <PUBCHEM_CONFORMER_DIVERSEORDER>  (1) 
1
39
100
70
65
92
37
118
153
57
112
47
69
43
139
145
158
103
169
38
31
44
125
79
55
155
138
146
58
141
109
122
126
75
73
147
3
45
19
30
119
152
134
149
91
168
157
97
51
22
76
136
74
25
143
144
159
32
40
166
163
33
59
9
27
29
81
104
15
34
115
54
72
127
114
28
42
96
48
10
131
133
80
12
165
26
61
128
46
124
41
16
107
49
85
105
98
20
116
99
167
110
36
66
172
148
64
24
132
17
101
170
21
83
137
108
68
95
162
71
89
77
123
13
130
90
117
129
140
154
156
50
60
35
63
164
171
88
161
23
84
142
78
121
53
86
52
4
18
62
120
7
135
56
87
5
102
160
93
2
111
150
11
94
113
14
67
6
82
8
151
106

>  <PUBCHEM_MMFF94_PARTIAL_CHARGES>  (1) 
22
1 -0.57
10 0.52
11 0.33
12 0.27
13 0.57
14 0.51
15 0.56
16 0.51
17 0.06
2 -0.57
23 0.36
24 0.36
25 0.37
26 0.4
27 0.4
3 -0.57
4 -0.9
5 -0.9
6 -0.7
7 -0.49
8 -0.85
9 0.33

>  <PUBCHEM_EFFECTIVE_ROTOR_COUNT>  (1) 
3

>  <PUBCHEM_PHARMACOPHORE_FEATURES>  (1) 
11
1 1 acceptor
1 2 acceptor
1 3 acceptor
1 4 cation
1 4 donor
1 5 cation
1 5 donor
1 7 donor
1 8 donor
6 4 5 9 10 11 12 rings
6 6 7 9 10 13 15 rings

>  <PUBCHEM_HEAVY_ATOM_COUNT>  (1) 
17

>  <PUBCHEM_ATOM_DEF_STEREO_COUNT>  (1) 
0

>  <PUBCHEM_ATOM_UDEF_STEREO_COUNT>  (1) 
3

>  <PUBCHEM_BOND_DEF_STEREO_COUNT>  (1) 
0

>  <PUBCHEM_BOND_UDEF_STEREO_COUNT>  (1) 
0

>  <PUBCHEM_ISOTOPIC_ATOM_COUNT>  (1) 
0

>  <PUBCHEM_COMPONENT_COUNT>  (1) 
1

>  <PUBCHEM_CACTVS_TAUTO_COUNT>  (1) 
40

>  <PUBCHEM_CONFORMER_ID>  (1) 
000000A600000001

>  <PUBCHEM_MMFF94_ENERGY>  (1) 
34.8738

>  <PUBCHEM_FEATURE_SELFOVERLAP>  (1) 
55.903

>  <PUBCHEM_SHAPE_FINGERPRINT>  (1) 
10062212 137 18337101379815385251
10922523 26 18040995116412217013
10967382 1 18409729538867970926
10980938 120 18408886234808115715
11132069 177 18408878564081031608
11401426 45 18409724097133922332
11471102 20 18409444778325558012
12236239 1 17988926652620792201
12670546 56 17846495907341824697
13140716 1 18191593166405035328
13221675 6 18408886243413861591
13380535 76 18334295396408852370
13675066 3 18040439888794188729
14144814 61 18413110541797975785
14251717 144 18410853269768830382
14252887 29 18260276217443945419
14445660 50 18272376364735949451
15196674 1 18410009970357630166
15219456 202 18261387802335696565
15375358 24 18187082853759325971
15442244 35 18124317099269815849
15536298 74 18342740689371179694
15775835 57 18343304785801287646
16945 1 18334864934588729116
17834072 33 18272644684444097351
18186145 218 18410017619604681079
200 152 18201432593003846861
20201158 50 18333731316578137346
20279233 1 17748829613930270819
20645477 70 18336539413710298167
21267235 1 18410583863597642775
21501502 16 18267585693631349376
23402539 116 17895466011985383636
23402655 69 18411416202500217085
23559900 14 18409728448584782674
2748010 2 18118677721421767220
2871803 45 18335700499307174222
296302 2 18408886256298756982
33824 294 18335700524929609714
34934 24 18409722959062437023
4072396 5 18189035578326633016
449060 62 18413109455023628202
5104073 3 18410854390897934666
53655031 270 18411703183746456832
57005193 9 18411130342377649863
7364860 26 18341895135065414278

>  <PUBCHEM_SHAPE_MULTIPOLES>  (1) 
307.34
8.5
1.84
0.82
1.95
0.63
0.14
-1.29
0.75
-1.02
-0.15
0.84
-0.09
-0.28

>  <PUBCHEM_SHAPE_SELFOVERLAP>  (1) 
642.661

>  <PUBCHEM_SHAPE_VOLUME>  (1) 
169.5

>  <PUBCHEM_COORDINATE_TYPE>  (1) 
2
5
10

$$$$
