16605
     RDKit          3D

 20 20  0  0  1  0  0  0  0  0999 V2000
    2.8960   -4.2977    0.7172 Cl  0  0  0  0  0  0  0  0  0  0  0  0
    5.0588    2.0005   -1.1094 Cl  0  0  0  0  0  0  0  0  0  0  0  0
   -4.1658    0.1352    0.7335 O   0  0  0  0  0  0  0  0  0  0  0  0
   -4.5740   -1.2394   -1.0241 O   0  0  0  0  0  0  0  0  0  0  0  0
    2.0363   -0.4359   -0.0366 N   0  0  0  0  0  0  0  0  0  0  0  0
   -2.3305   -2.6776   -0.3688 N   0  0  0  0  0  0  0  0  0  0  0  0
    0.9356   -0.2516    0.9098 C   0  0  0  0  0  0  0  0  0  0  0  0
    0.1026    0.9445    0.5847 C   0  0  0  0  0  0  0  0  0  0  0  0
   -0.9983    0.8566   -0.2525 C   0  0  0  0  0  0  0  0  0  0  0  0
   -1.3873   -0.4689   -0.8658 C   0  0  0  0  0  0  0  0  0  0  0  0
    2.8235   -1.6155    0.3194 C   0  0  0  0  0  0  0  0  0  0  0  0
    2.8848    0.7545   -0.0705 C   0  0  0  0  0  0  0  0  0  0  0  0
   -2.3679   -1.2664    0.0080 C   0  0  0  0  0  0  0  0  0  0  0  0
    0.4437    2.1783    1.1389 C   0  0  0  0  0  0  0  0  0  0  0  0
   -1.7671    1.9713   -0.5498 C   0  0  0  0  0  0  0  0  0  0  0  0
    1.9499   -2.8593    0.2662 C   0  0  0  0  0  0  0  0  0  0  0  0
    4.0096    0.5631   -1.0761 C   0  0  0  0  0  0  0  0  0  0  0  0
   -0.3206    3.3085    0.8489 C   0  0  0  0  0  0  0  0  0  0  0  0
   -1.4259    3.2050    0.0045 C   0  0  0  0  0  0  0  0  0  0  0  0
   -3.8033   -0.8051   -0.1774 C   0  0  0  0  0  0  0  0  0  0  0  0
  1 16  1  0
  2 17  1  0
  3 20  1  0
  4 20  2  0
  5  7  1  0
  5 11  1  0
  5 12  1  0
  6 13  1  0
  7  8  1  0
  8  9  2  0
  8 14  1  0
  9 10  1  0
  9 15  1  0
 10 13  1  0
 11 16  1  0
 12 17  1  0
 13 20  1  0
 14 18  2  0
 15 19  2  0
 18 19  1  0
M  END
>  <PUBCHEM_COMPOUND_CID>  (1) 
16605

>  <PUBCHEM_CONFORMER_RMSD>  (1) 
0.8

>  <PUBCHEM_CONFORMER_DIVERSEORDER>  (1) 
1
185
204
190
177
116
215
207
21
143
220
175
210
5
15
117
34
205
151
25
40
200
186
214
44
227
103
162
174
138
127
216
75
223
27
172
70
39
76
156
166
64
189
131
123
112
118
196
180
192
55
83
164
62
94
130
88
155
119
193
171
48
38
111
148
79
217
93
72
147
19
161
8
89
104
13
18
181
146
4
133
150
154
165
58
82
99
85
60
113
9
167
188
78
125
120
51
110
107
52
126
28
135
29
81
43
14
212
152
69
202
173
226
36
108
191
16
37
140
224
17
41
10
159
176
97
77
142
50
7
160
109
222
153
122
194
128
74
163
158
145
221
183
87
11
157
206
201
30
3
20
179
24
63
54
129
22
47
71
95
33
132
225
32
169
73
98
139
49
26
61
86
6
96
45
114
187
68
213
59
137
105
199
121
197
35
149
203
31
56
144
115
208
141
2
65
178
84
198
66
136
46
23
92
182
106
101
218
102
124
67
219
90
80
53
170
184
211
195
209
12
100
91
228
42
57
134
168
229

>  <PUBCHEM_MMFF94_PARTIAL_CHARGES>  (1) 
27
1 -0.29
10 0.14
11 0.27
12 0.27
13 0.33
14 -0.15
15 -0.15
16 0.29
17 0.29
18 -0.15
19 -0.15
2 -0.29
20 0.66
3 -0.65
30 0.15
31 0.15
36 0.15
37 0.15
38 0.36
39 0.36
4 -0.57
40 0.5
5 -0.81
6 -0.99
7 0.41
8 -0.14
9 -0.14

>  <PUBCHEM_EFFECTIVE_ROTOR_COUNT>  (1) 
9

>  <PUBCHEM_PHARMACOPHORE_FEATURES>  (1) 
7
1 3 acceptor
1 4 acceptor
1 5 cation
1 6 cation
1 6 donor
3 3 4 20 anion
6 8 9 14 15 18 19 rings

>  <PUBCHEM_HEAVY_ATOM_COUNT>  (1) 
20

>  <PUBCHEM_ATOM_DEF_STEREO_COUNT>  (1) 
0

>  <PUBCHEM_ATOM_UDEF_STEREO_COUNT>  (1) 
1

>  <PUBCHEM_BOND_DEF_STEREO_COUNT>  (1) 
0

>  <PUBCHEM_BOND_UDEF_STEREO_COUNT>  (1) 
0

>  <PUBCHEM_ISOTOPIC_ATOM_COUNT>  (1) 
0

>  <PUBCHEM_COMPONENT_COUNT>  (1) 
1

>  <PUBCHEM_CACTVS_TAUTO_COUNT>  (1) 
1

>  <PUBCHEM_CONFORMER_ID>  (1) 
000040DD00000001

>  <PUBCHEM_MMFF94_ENERGY>  (1) 
45.697

>  <PUBCHEM_FEATURE_SELFOVERLAP>  (1) 
35.579

>  <PUBCHEM_SHAPE_FINGERPRINT>  (1) 
10090160 65 18260831548594836428
10756046 5 18190461554433976702
10759866 29 18336270033350462900
12035758 1 17689720087890811032
12553582 1 18340760533290877907
12788726 201 17988088772757154737
13140716 1 18053087708118009393
14790565 3 18194411210344012080
15099037 8 18192710042828084634
16945 1 18339909493984659057
17492 89 18192991522079287242
19591789 44 17977947117978005792
20645476 183 17980485555424970092
21421861 104 18262801761552002962
229495 10 18050316715799975128
23402539 116 18268432511422696508
23557571 272 18131081432813209212
23558518 356 18120374254830889139
23559900 14 18124298425232106338
23566358 27 18191319182220287346
23598288 3 18057878057068673668
23598291 2 17972042435831872358
2748010 2 18127101234695419273
2871803 45 18412266164070383676
352729 6 17766838334213587825
53777708 50 18266182717026292320
5486654 2 18265338502834557132
58051976 378 18409732885185513022
6992083 37 17544761123466900320
7164475 11 18265048042342975900
7364860 26 17910670200830301641
9709674 26 17482255016720053086
9981440 41 18334579062436082472

>  <PUBCHEM_SHAPE_MULTIPOLES>  (1) 
393.63
7.75
4.61
1.06
1.18
1.99
0.01
1.78
2.58
2.46
-0.91
0.27
-0.28
-1.86

>  <PUBCHEM_SHAPE_SELFOVERLAP>  (1) 
775.688

>  <PUBCHEM_SHAPE_VOLUME>  (1) 
237.3

>  <PUBCHEM_COORDINATE_TYPE>  (1) 
2
5
10

$$$$
