16609
     RDKit          3D

 22 24  0  0  1  0  0  0  0  0999 V2000
   -0.9971    0.2290    0.0703 S   0  0  0  0  0  0  0  0  0  0  0  0
    3.1482    0.7943   -2.2541 O   0  0  0  0  0  0  0  0  0  0  0  0
    3.0197    3.2347    1.6255 O   0  0  0  0  0  0  0  0  0  0  0  0
    1.8131    1.3655    0.9053 N   0  0  0  0  0  0  0  0  0  0  0  0
    3.3341    2.2499   -0.4575 N   0  0  0  0  0  0  0  0  0  0  0  0
    1.7169    0.5273   -0.2817 C   0  0  0  0  0  0  0  0  0  0  0  0
    0.3733    0.7927   -0.9727 C   0  0  0  0  0  0  0  0  0  0  0  0
    2.0384   -0.9251    0.0412 C   0  0  0  0  0  0  0  0  0  0  0  0
    2.8128    1.1766   -1.1406 C   0  0  0  0  0  0  0  0  0  0  0  0
    2.7555    2.3876    0.7834 C   0  0  0  0  0  0  0  0  0  0  0  0
    2.7633   -1.2411    1.1910 C   0  0  0  0  0  0  0  0  0  0  0  0
    1.6082   -1.9423   -0.8118 C   0  0  0  0  0  0  0  0  0  0  0  0
   -2.3657    0.6837   -1.0198 C   0  0  0  0  0  0  0  0  0  0  0  0
    3.0579   -2.5720    1.4871 C   0  0  0  0  0  0  0  0  0  0  0  0
    1.9027   -3.2732   -0.5155 C   0  0  0  0  0  0  0  0  0  0  0  0
   -3.7032    0.3363   -0.4267 C   0  0  0  0  0  0  0  0  0  0  0  0
    2.6275   -3.5879    0.6340 C   0  0  0  0  0  0  0  0  0  0  0  0
   -4.3648    1.2672    0.3635 C   0  0  0  0  0  0  0  0  0  0  0  0
   -4.2606   -0.9109   -0.6767 C   0  0  0  0  0  0  0  0  0  0  0  0
   -5.6054    0.9452    0.9137 C   0  0  0  0  0  0  0  0  0  0  0  0
   -5.5014   -1.2328   -0.1266 C   0  0  0  0  0  0  0  0  0  0  0  0
   -6.1738   -0.3046    0.6686 C   0  0  0  0  0  0  0  0  0  0  0  0
  1  7  1  0
  1 13  1  0
  2  9  2  0
  3 10  2  0
  4  6  1  0
  4 10  1  0
  5  9  1  0
  5 10  1  0
  6  7  1  0
  6  8  1  0
  6  9  1  0
  8 11  2  0
  8 12  1  0
 11 14  1  0
 12 15  2  0
 13 16  1  0
 14 17  2  0
 15 17  1  0
 16 18  2  0
 16 19  1  0
 18 20  1  0
 19 21  2  0
 20 22  2  0
 21 22  1  0
M  END
>  <PUBCHEM_COMPOUND_CID>  (1) 
16609

>  <PUBCHEM_CONFORMER_RMSD>  (1) 
0.8

>  <PUBCHEM_CONFORMER_DIVERSEORDER>  (1) 
1
7
10
23
25
6
9
20
5
14
26
13
22
11
2
8
4
19
21
16
3
24
15
12
18
17

>  <PUBCHEM_MMFF94_PARTIAL_CHARGES>  (1) 
34
1 -0.46
10 0.69
11 -0.15
12 -0.15
13 0.37
14 -0.15
15 -0.15
16 -0.14
17 -0.15
18 -0.15
19 -0.15
2 -0.57
20 -0.15
21 -0.15
22 -0.15
25 0.37
26 0.37
27 0.15
28 0.15
3 -0.57
31 0.15
32 0.15
33 0.15
34 0.15
35 0.15
36 0.15
37 0.15
38 0.15
4 -0.73
5 -0.49
6 0.5
7 0.23
8 -0.14
9 0.57

>  <PUBCHEM_EFFECTIVE_ROTOR_COUNT>  (1) 
5.6

>  <PUBCHEM_PHARMACOPHORE_FEATURES>  (1) 
7
1 2 acceptor
1 3 acceptor
1 4 donor
1 5 donor
5 4 5 6 9 10 rings
6 16 18 19 20 21 22 rings
6 8 11 12 14 15 17 rings

>  <PUBCHEM_HEAVY_ATOM_COUNT>  (1) 
22

>  <PUBCHEM_ATOM_DEF_STEREO_COUNT>  (1) 
0

>  <PUBCHEM_ATOM_UDEF_STEREO_COUNT>  (1) 
1

>  <PUBCHEM_BOND_DEF_STEREO_COUNT>  (1) 
0

>  <PUBCHEM_BOND_UDEF_STEREO_COUNT>  (1) 
0

>  <PUBCHEM_ISOTOPIC_ATOM_COUNT>  (1) 
0

>  <PUBCHEM_COMPONENT_COUNT>  (1) 
1

>  <PUBCHEM_CACTVS_TAUTO_COUNT>  (1) 
5

>  <PUBCHEM_CONFORMER_ID>  (1) 
000040E100000001

>  <PUBCHEM_MMFF94_ENERGY>  (1) 
61.6603

>  <PUBCHEM_FEATURE_SELFOVERLAP>  (1) 
35.592

>  <PUBCHEM_SHAPE_FINGERPRINT>  (1) 
11405975 8 18263361387707190633
12107183 9 17908430152310863425
12633257 1 18340484466015954095
12730499 353 18336840782980376467
13533116 47 18409451371833794843
13583140 156 18341597210379849709
13955234 65 18410573989536161162
14347424 109 18338521838160995457
146900 427 18271810172214075577
14849402 71 18340763858044536584
14863182 85 18114464551978334308
14955137 171 18271239418553425758
15142526 21 17769081685805997185
15250474 111 18271796952669430591
15475509 84 18127130762775044777
17868525 174 18123464982370359097
19377110 9 17987784333054197791
20645477 70 18114184107772870107
21421861 104 18342460292120108713
21521721 280 18335991947725687716
23503953 91 18129936789800533123
23559900 14 18040433257375200959
239999 70 17917158285279615028
312423 11 18189624856324323749
3421961 26 18335136440967490203
427121 178 18267579290172837996
5104073 3 18410862041046675673
5895379 119 17344926113162982201
59755656 520 18124585638443834740
6442390 28 18194965372988771188
9841814 1 18338234838980862762

>  <PUBCHEM_SHAPE_MULTIPOLES>  (1) 
434.9
11.71
3.57
1.42
23.2
1.34
-0.11
0.6
2.26
-6.13
1.02
-1.19
-0.34
-0.6

>  <PUBCHEM_SHAPE_SELFOVERLAP>  (1) 
927.167

>  <PUBCHEM_SHAPE_VOLUME>  (1) 
243.6

>  <PUBCHEM_COORDINATE_TYPE>  (1) 
2
5
10

$$$$
