16616
     RDKit          3D

 12 12  0  0  0  0  0  0  0  0999 V2000
    2.2709    0.0031   -1.4682 O   0  0  0  0  0  0  0  0  0  0  0  0
    1.2030   -0.0010    0.6327 N   0  0  0  0  0  0  0  0  0  0  0  0
   -0.1586   -0.0004    0.3104 C   0  0  0  0  0  0  0  0  0  0  0  0
   -0.8371    1.2079    0.1505 C   0  0  0  0  0  0  0  0  0  0  0  0
   -0.8379   -1.2082    0.1500 C   0  0  0  0  0  0  0  0  0  0  0  0
   -2.1947    1.2086   -0.1696 C   0  0  0  0  0  0  0  0  0  0  0  0
   -2.1956   -1.2075   -0.1703 C   0  0  0  0  0  0  0  0  0  0  0  0
   -2.8739    0.0009   -0.3301 C   0  0  0  0  0  0  0  0  0  0  0  0
   -0.1372    2.5179    0.3167 C   0  0  0  0  0  0  0  0  0  0  0  0
   -0.1389   -2.5188    0.3146 C   0  0  0  0  0  0  0  0  0  0  0  0
    2.2948   -0.0008   -0.2417 C   0  0  0  0  0  0  0  0  0  0  0  0
    3.6052   -0.0016    0.5051 C   0  0  0  0  0  0  0  0  0  0  0  0
  1 11  2  0
  2  3  1  0
  2 11  1  0
  3  4  2  0
  3  5  1  0
  4  6  1  0
  4  9  1  0
  5  7  2  0
  5 10  1  0
  6  8  2  0
  7  8  1  0
 11 12  1  0
M  END
>  <PUBCHEM_COMPOUND_CID>  (1) 
16616

>  <PUBCHEM_CONFORMER_RMSD>  (1) 
0.6

>  <PUBCHEM_CONFORMER_DIVERSEORDER>  (1) 
1

>  <PUBCHEM_MMFF94_PARTIAL_CHARGES>  (1) 
16
1 -0.57
10 0.14
11 0.57
12 0.06
13 0.15
14 0.15
15 0.37
16 0.15
2 -0.55
3 0.12
4 -0.14
5 -0.14
6 -0.15
7 -0.15
8 -0.15
9 0.14

>  <PUBCHEM_EFFECTIVE_ROTOR_COUNT>  (1) 
2

>  <PUBCHEM_PHARMACOPHORE_FEATURES>  (1) 
3
1 1 acceptor
1 2 donor
6 3 4 5 6 7 8 rings

>  <PUBCHEM_HEAVY_ATOM_COUNT>  (1) 
12

>  <PUBCHEM_ATOM_DEF_STEREO_COUNT>  (1) 
0

>  <PUBCHEM_ATOM_UDEF_STEREO_COUNT>  (1) 
0

>  <PUBCHEM_BOND_DEF_STEREO_COUNT>  (1) 
0

>  <PUBCHEM_BOND_UDEF_STEREO_COUNT>  (1) 
0

>  <PUBCHEM_ISOTOPIC_ATOM_COUNT>  (1) 
0

>  <PUBCHEM_COMPONENT_COUNT>  (1) 
1

>  <PUBCHEM_CACTVS_TAUTO_COUNT>  (1) 
2

>  <PUBCHEM_CONFORMER_ID>  (1) 
000040E800000001

>  <PUBCHEM_MMFF94_ENERGY>  (1) 
52.1203

>  <PUBCHEM_FEATURE_SELFOVERLAP>  (1) 
15.223

>  <PUBCHEM_SHAPE_FINGERPRINT>  (1) 
11206711 2 18336533989419330453
12524768 44 18128257976582351784
12716758 59 18340493274640014794
13024252 1 15791733005443907033
14614273 12 18116987797909544981
15775835 57 17821453447650375580
161256 15 17543361900183549819
16945 1 18410854365359855291
193761 8 17690557490338260769
20201158 50 17989205949637705094
20645476 183 17822021938027485326
21501502 16 17980198909180767861
22802520 49 17986128334792158742
23402539 116 18270665524574460820
23552423 10 17974848376515553291
23559900 14 18343015563674123042
2748010 2 18048586320952690375
353137 74 18267020557513135577
7364860 26 17909825436154836422
77492 1 17676201368993851584
81228 2 18271259226351784040

>  <PUBCHEM_SHAPE_MULTIPOLES>  (1) 
236.1
4.29
2.22
0.83
2.77
0
0.18
0
0.42
-0.81
-0.33
0.38
0
0

>  <PUBCHEM_SHAPE_SELFOVERLAP>  (1) 
484.207

>  <PUBCHEM_SHAPE_VOLUME>  (1) 
137.5

>  <PUBCHEM_COORDINATE_TYPE>  (1) 
2
5
10

$$$$
