16614
     RDKit          3D

 20 19  0  0  0  0  0  0  0  0999 V2000
   -1.6289   -3.3741    2.8735 O   0  0  0  0  0  0  0  0  0  0  0  0
   -0.7347   -1.3501    2.3707 O   0  0  0  0  0  0  0  0  0  0  0  0
   -1.3156   -0.8482   -2.1129 C   0  0  0  0  0  0  0  0  0  0  0  0
   -1.5000   -1.6959   -0.8535 C   0  0  0  0  0  0  0  0  0  0  0  0
   -2.6290   -0.2961   -2.6787 C   0  0  0  0  0  0  0  0  0  0  0  0
    2.6771    0.7249    0.1185 C   0  0  0  0  0  0  0  0  0  0  0  0
   -0.1926   -2.3072   -0.3312 C   0  0  0  0  0  0  0  0  0  0  0  0
    3.1513    2.1305    0.5045 C   0  0  0  0  0  0  0  0  0  0  0  0
    3.6730   -0.0343   -0.7631 C   0  0  0  0  0  0  0  0  0  0  0  0
   -3.4489    0.5881   -1.7313 C   0  0  0  0  0  0  0  0  0  0  0  0
    2.1365    2.8696    1.3884 C   0  0  0  0  0  0  0  0  0  0  0  0
    3.2421   -1.4410   -1.1851 C   0  0  0  0  0  0  0  0  0  0  0  0
   -0.3403   -3.2310    0.8797 C   0  0  0  0  0  0  0  0  0  0  0  0
   -2.7009    1.7776   -1.2060 C   0  0  0  0  0  0  0  0  0  0  0  0
    0.7979    3.1869    0.7786 C   0  0  0  0  0  0  0  0  0  0  0  0
    4.2419   -2.1348   -2.0971 C   0  0  0  0  0  0  0  0  0  0  0  0
   -1.7020    3.1868    0.6052 C   0  0  0  0  0  0  0  0  0  0  0  0
   -2.4359    1.9822    0.0924 C   0  0  0  0  0  0  0  0  0  0  0  0
   -0.4000    2.7997    1.2442 C   0  0  0  0  0  0  0  0  0  0  0  0
   -0.8908   -2.5336    2.1031 C   0  0  0  0  0  0  0  0  0  0  0  0
  1 20  1  0
  2 20  2  0
  3  4  1  0
  3  5  1  0
  4  7  1  0
  5 10  1  0
  6  8  1  0
  6  9  1  0
  7 13  1  0
  8 11  1  0
  9 12  1  0
 10 14  1  0
 11 15  1  0
 12 16  1  0
 13 20  1  0
 14 18  2  0
 15 19  2  0
 17 18  1  0
 17 19  1  0
M  END
>  <PUBCHEM_COMPOUND_CID>  (1) 
16614

>  <PUBCHEM_CONFORMER_RMSD>  (1) 
1.4

>  <PUBCHEM_CONFORMER_DIVERSEORDER>  (1) 
1
40
27
25
24
35
17
42
12
9
57
68
43
53
49
21
47
2
11
78
34
73
18
45
82
19
13
20
26
36
76
58
32
30
63
29
74
38
44
48
14
59
33
31
64
71
4
65
28
75
6
69
7
39
56
66
52
22
70
46
55
86
23
3
61
79
84
77
72
80
41
67
60
50
62
51
81
5
83
85
8
15
10
37
54
16

>  <PUBCHEM_MMFF94_PARTIAL_CHARGES>  (1) 
16
1 -0.65
10 0.14
11 0.14
13 0.06
14 -0.29
15 -0.29
17 0.28
18 -0.29
19 -0.29
2 -0.57
20 0.66
43 0.15
44 0.15
50 0.15
51 0.15
52 0.5

>  <PUBCHEM_EFFECTIVE_ROTOR_COUNT>  (1) 
14

>  <PUBCHEM_PHARMACOPHORE_FEATURES>  (1) 
6
1 1 acceptor
1 16 hydrophobe
1 2 acceptor
3 1 2 20 anion
3 6 9 12 hydrophobe
3 8 11 15 hydrophobe

>  <PUBCHEM_HEAVY_ATOM_COUNT>  (1) 
20

>  <PUBCHEM_ATOM_DEF_STEREO_COUNT>  (1) 
0

>  <PUBCHEM_ATOM_UDEF_STEREO_COUNT>  (1) 
0

>  <PUBCHEM_BOND_DEF_STEREO_COUNT>  (1) 
0

>  <PUBCHEM_BOND_UDEF_STEREO_COUNT>  (1) 
2

>  <PUBCHEM_ISOTOPIC_ATOM_COUNT>  (1) 
0

>  <PUBCHEM_COMPONENT_COUNT>  (1) 
1

>  <PUBCHEM_CACTVS_TAUTO_COUNT>  (1) 
1

>  <PUBCHEM_CONFORMER_ID>  (1) 
000040E600000001

>  <PUBCHEM_MMFF94_ENERGY>  (1) 
1.1552

>  <PUBCHEM_FEATURE_SELFOVERLAP>  (1) 
30.515

>  <PUBCHEM_SHAPE_FINGERPRINT>  (1) 
11244481 83 14572938998807406851
1361 2 16325943142091436687
14114207 22 14397382889362729380
14251757 17 18199170949235876239
15003188 3 16597311356553989459
19930381 70 17842254145958100951
20600515 1 15944809436751297807
35225 105 17458634435884437995
445580 42 18335712590051796554
445580 8 17262998061350436240
58250162 1 17553179031343572228
9981440 41 17768501113944190072

>  <PUBCHEM_SHAPE_MULTIPOLES>  (1) 
399.85
6.11
5.28
2.8
4.72
1.24
0.89
0.57
-5.02
0.23
3.65
-1.27
-3
1.68

>  <PUBCHEM_SHAPE_SELFOVERLAP>  (1) 
739.11

>  <PUBCHEM_SHAPE_VOLUME>  (1) 
250.3

>  <PUBCHEM_COORDINATE_TYPE>  (1) 
2
5
10

$$$$
