16618
     RDKit          3D

 12 13  0  0  0  0  0  0  0  0999 V2000
   -0.5449    3.0800   -0.0001 Cl  0  0  0  0  0  0  0  0  0  0  0  0
   -3.6581   -1.2687    0.0004 Cl  0  0  0  0  0  0  0  0  0  0  0  0
    0.5030    0.5217    0.0000 C   0  0  0  0  0  0  0  0  0  0  0  0
    0.3375   -0.8838   -0.0001 C   0  0  0  0  0  0  0  0  0  0  0  0
   -0.6334    1.3470    0.0001 C   0  0  0  0  0  0  0  0  0  0  0  0
   -0.9593   -1.4227   -0.0002 C   0  0  0  0  0  0  0  0  0  0  0  0
    1.7999    1.0605    0.0002 C   0  0  0  0  0  0  0  0  0  0  0  0
    1.4739   -1.7092   -0.0001 C   0  0  0  0  0  0  0  0  0  0  0  0
   -1.9143    0.7943   -0.0001 C   0  0  0  0  0  0  0  0  0  0  0  0
   -2.0770   -0.5879   -0.0002 C   0  0  0  0  0  0  0  0  0  0  0  0
    2.9176    0.2255    0.0001 C   0  0  0  0  0  0  0  0  0  0  0  0
    2.7550   -1.1566    0.0000 C   0  0  0  0  0  0  0  0  0  0  0  0
  1  5  1  0
  2 10  1  0
  3  4  1  0
  3  5  2  0
  3  7  1  0
  4  6  2  0
  4  8  1  0
  5  9  1  0
  6 10  1  0
  7 11  2  0
  8 12  2  0
  9 10  2  0
 11 12  1  0
M  END
>  <PUBCHEM_COMPOUND_CID>  (1) 
16618

>  <PUBCHEM_CONFORMER_RMSD>  (1) 
0.4

>  <PUBCHEM_CONFORMER_DIVERSEORDER>  (1) 
1

>  <PUBCHEM_MMFF94_PARTIAL_CHARGES>  (1) 
16
1 -0.18
10 0.18
11 -0.15
12 -0.15
13 0.15
14 0.15
15 0.15
16 0.15
17 0.15
18 0.15
2 -0.18
5 0.18
6 -0.15
7 -0.15
8 -0.15
9 -0.15

>  <PUBCHEM_EFFECTIVE_ROTOR_COUNT>  (1) 
0

>  <PUBCHEM_PHARMACOPHORE_FEATURES>  (1) 
2
6 3 4 5 6 9 10 rings
6 3 4 7 8 11 12 rings

>  <PUBCHEM_HEAVY_ATOM_COUNT>  (1) 
12

>  <PUBCHEM_ATOM_DEF_STEREO_COUNT>  (1) 
0

>  <PUBCHEM_ATOM_UDEF_STEREO_COUNT>  (1) 
0

>  <PUBCHEM_BOND_DEF_STEREO_COUNT>  (1) 
0

>  <PUBCHEM_BOND_UDEF_STEREO_COUNT>  (1) 
0

>  <PUBCHEM_ISOTOPIC_ATOM_COUNT>  (1) 
0

>  <PUBCHEM_COMPONENT_COUNT>  (1) 
1

>  <PUBCHEM_CACTVS_TAUTO_COUNT>  (1) 
1

>  <PUBCHEM_CONFORMER_ID>  (1) 
000040EA00000001

>  <PUBCHEM_MMFF94_ENERGY>  (1) 
32.9846

>  <PUBCHEM_FEATURE_SELFOVERLAP>  (1) 
10.175

>  <PUBCHEM_SHAPE_FINGERPRINT>  (1) 
10219947 1 18340772649404247379
10967382 1 18194401319017641060
11206711 2 18337394825013325028
11471102 20 18338229492152475463
12032990 46 18410299133183551203
13380535 76 17763456223529966061
161256 15 18413387652829554656
16945 1 18194682553539460674
193761 8 17906171750499356387
19973954 147 18266742381160836142
20201158 50 18334856155749675995
20588541 1 18263364861681436531
20871998 184 18201717301943232135
21040471 1 17834394523473570884
21501502 16 18337676291531982450
221490 88 17831860523187870383
2334 1 18410573998289586597
23402539 116 18271232898096660487
23463225 33 18409731772155954327
23552423 10 18261115136426593550
23559900 14 17406837281569145174
241688 4 18410293584043340801
2748010 2 18411695478569651701
3071541 158 18188766283677077541
5084963 1 18201155460249667546
528886 8 18339639065668998090
7364860 26 18052540172934484585
81228 2 18264212422032802729

>  <PUBCHEM_SHAPE_MULTIPOLES>  (1) 
250.69
4.41
2.54
0.62
1.05
1.9
0
-2.1
0
0.42
0
0.01
0.01
0

>  <PUBCHEM_SHAPE_SELFOVERLAP>  (1) 
531.111

>  <PUBCHEM_SHAPE_VOLUME>  (1) 
135.1

>  <PUBCHEM_COORDINATE_TYPE>  (1) 
2
5
10

$$$$
