16626
     RDKit          3D

 30 33  0  0  1  0  0  0  0  0999 V2000
   -0.3242   -2.3353    1.2790 S   0  0  0  0  0  0  0  0  0  0  0  0
    2.3590    1.4447    1.3340 S   0  0  0  0  0  0  0  0  0  0  0  0
   -5.5582    1.9177    0.1195 O   0  0  0  0  0  0  0  0  0  0  0  0
    5.1449   -0.7151   -0.6471 O   0  0  0  0  0  0  0  0  0  0  0  0
   -0.0221   -4.7134    0.1522 O   0  0  0  0  0  0  0  0  0  0  0  0
    3.6446    3.7527    1.1033 O   0  0  0  0  0  0  0  0  0  0  0  0
   -3.2339    1.1230   -0.2378 C   0  0  0  0  0  0  0  0  0  0  0  0
   -2.5944   -0.2481    0.0747 C   0  0  0  0  0  0  0  0  0  0  0  0
   -1.2892   -0.5015   -0.7013 C   0  0  0  0  0  0  0  0  0  0  0  0
   -0.2591    0.6262   -0.3586 C   0  0  0  0  0  0  0  0  0  0  0  0
   -4.5556    1.0172    0.5858 C   0  0  0  0  0  0  0  0  0  0  0  0
    1.1290    0.4626   -1.1104 C   0  0  0  0  0  0  0  0  0  0  0  0
   -2.2332    2.2088    0.1912 C   0  0  0  0  0  0  0  0  0  0  0  0
   -0.8762    2.0456   -0.5164 C   0  0  0  0  0  0  0  0  0  0  0  0
   -3.7491   -1.2275   -0.1108 C   0  0  0  0  0  0  0  0  0  0  0  0
   -0.6920   -1.9104   -0.4718 C   0  0  0  0  0  0  0  0  0  0  0  0
   -4.9940   -0.4547    0.3635 C   0  0  0  0  0  0  0  0  0  0  0  0
   -3.5706    1.3206   -1.7451 C   0  0  0  0  0  0  0  0  0  0  0  0
    1.6140   -0.9957   -1.0612 C   0  0  0  0  0  0  0  0  0  0  0  0
    0.5816   -2.0761   -1.3036 C   0  0  0  0  0  0  0  0  0  0  0  0
    2.2296    1.4252   -0.5138 C   0  0  0  0  0  0  0  0  0  0  0  0
   -4.4180    1.3108    2.0854 C   0  0  0  0  0  0  0  0  0  0  0  0
    0.9644    0.8122   -2.6173 C   0  0  0  0  0  0  0  0  0  0  0  0
    3.6305    1.1002   -1.0403 C   0  0  0  0  0  0  0  0  0  0  0  0
    2.8980   -1.3553   -0.8906 C   0  0  0  0  0  0  0  0  0  0  0  0
    3.9835   -0.3502   -0.8184 C   0  0  0  0  0  0  0  0  0  0  0  0
    0.3175   -3.9560    1.0531 C   0  0  0  0  0  0  0  0  0  0  0  0
    3.6736    2.5957    1.5046 C   0  0  0  0  0  0  0  0  0  0  0  0
    1.3373   -4.3251    2.0928 C   0  0  0  0  0  0  0  0  0  0  0  0
    4.8622    2.0011    2.2051 C   0  0  0  0  0  0  0  0  0  0  0  0
  1 16  1  0
  1 27  1  0
  2 21  1  0
  2 28  1  0
  3 11  1  0
  4 26  2  0
  5 27  2  0
  6 28  2  0
  7  8  1  0
  7 11  1  0
  7 13  1  0
  7 18  1  0
  8  9  1  0
  8 15  1  0
  9 10  1  0
  9 16  1  0
 10 12  1  0
 10 14  1  0
 11 17  1  0
 11 22  1  0
 12 19  1  0
 12 21  1  0
 12 23  1  0
 13 14  1  0
 15 17  1  0
 16 20  1  0
 19 20  1  0
 19 25  2  0
 21 24  1  0
 24 26  1  0
 25 26  1  0
 27 29  1  0
 28 30  1  0
M  END
>  <PUBCHEM_COMPOUND_CID>  (1) 
16626

>  <PUBCHEM_CONFORMER_RMSD>  (1) 
0.8

>  <PUBCHEM_CONFORMER_DIVERSEORDER>  (1) 
1
2

>  <PUBCHEM_MMFF94_PARTIAL_CHARGES>  (1) 
21
1 -0.37
11 0.28
12 0.14
16 0.23
19 -0.28
2 -0.37
20 0.14
21 0.23
24 0.06
25 -0.14
26 0.49
27 0.65
28 0.65
29 0.06
3 -0.68
30 0.06
4 -0.57
5 -0.57
55 0.4
58 0.15
6 -0.57

>  <PUBCHEM_EFFECTIVE_ROTOR_COUNT>  (1) 
5.8

>  <PUBCHEM_PHARMACOPHORE_FEATURES>  (1) 
7
1 3 acceptor
1 3 donor
1 4 acceptor
5 7 8 11 15 17 rings
6 12 19 21 24 25 26 rings
6 7 8 9 10 13 14 rings
6 9 10 12 16 19 20 rings

>  <PUBCHEM_HEAVY_ATOM_COUNT>  (1) 
30

>  <PUBCHEM_ATOM_DEF_STEREO_COUNT>  (1) 
8

>  <PUBCHEM_ATOM_UDEF_STEREO_COUNT>  (1) 
0

>  <PUBCHEM_BOND_DEF_STEREO_COUNT>  (1) 
0

>  <PUBCHEM_BOND_UDEF_STEREO_COUNT>  (1) 
0

>  <PUBCHEM_ISOTOPIC_ATOM_COUNT>  (1) 
0

>  <PUBCHEM_COMPONENT_COUNT>  (1) 
1

>  <PUBCHEM_CACTVS_TAUTO_COUNT>  (1) 
5

>  <PUBCHEM_CONFORMER_ID>  (1) 
000040F200000001

>  <PUBCHEM_MMFF94_ENERGY>  (1) 
108.0176

>  <PUBCHEM_FEATURE_SELFOVERLAP>  (1) 
35.61

>  <PUBCHEM_SHAPE_FINGERPRINT>  (1) 
10074138 170 17905302371761535416
11578080 2 17911539875936483368
12160290 23 17976540833805578543
12403259 415 18413390947011909957
12422481 6 17532910758841352002
12633257 1 18119502531869501896
13140716 1 18411700984870718863
13224815 77 18335710420829483533
13583140 156 18196926686953184893
14020679 6 18411130360507098386
140371 6 17761208121609321983
14178342 30 17974000953983150294
15295992 7 18341628034958842322
15475509 84 17257945788257137673
17980427 26 18269816684423392502
18681886 176 17750537185526871356
20691752 17 18336819874789708628
20832881 197 18199477575794513598
20905425 154 17904208022621522167
21033648 29 18334569140138969052
21421861 104 17974864864863217955
23558518 356 18196084675768039494
23559900 14 18412552015645500228
23598288 3 15358793670635702868
25222932 49 15214739045988776377
350125 39 18343026579738320868
376196 1 18131068263931263540
392239 28 18342459226999945865
469060 322 17822843299594947303
5104073 3 18271813436246744041
5265222 85 18042428922846471574
56638632 33 17681260067042747818
58807428 26 18335133211025398827
59755656 215 18115033987559199919
6004065 56 16612782636066211958
6086070 43 17839452298748062989
633830 44 18131910459910882669
6669772 16 18341317968812110386
7288768 16 18198613518110026808
9981440 41 17700963595085910194

>  <PUBCHEM_SHAPE_MULTIPOLES>  (1) 
601.61
9.54
4.55
2
3.62
5.29
0.28
-7.15
2.74
-2.45
2.74
-1.21
-0.29
1.16

>  <PUBCHEM_SHAPE_SELFOVERLAP>  (1) 
1244.258

>  <PUBCHEM_SHAPE_VOLUME>  (1) 
347.4

>  <PUBCHEM_COORDINATE_TYPE>  (1) 
2
5
10

$$$$
