16636
     RDKit          3D

 15 16  0  0  1  0  0  0  0  0999 V2000
    1.6476    0.2886   -0.6202 O   0  0  0  0  0  0  0  0  0  0  0  0
    1.2009   -1.6641    0.5942 O   0  0  0  0  0  0  0  0  0  0  0  0
    3.5242    2.3367    0.0618 O   0  0  0  0  0  0  0  0  0  0  0  0
    0.7495   -0.8329   -0.4942 C   0  0  0  0  0  0  0  0  0  0  0  0
    2.3974    0.2994    0.5964 C   0  0  0  0  0  0  0  0  0  0  0  0
    2.4926   -1.1643    0.9408 C   0  0  0  0  0  0  0  0  0  0  0  0
   -0.6755   -0.3602   -0.2475 C   0  0  0  0  0  0  0  0  0  0  0  0
    0.8258   -1.6418   -1.7885 C   0  0  0  0  0  0  0  0  0  0  0  0
    3.7374    0.9720    0.3899 C   0  0  0  0  0  0  0  0  0  0  0  0
   -1.5568   -1.1557    0.4846 C   0  0  0  0  0  0  0  0  0  0  0  0
   -1.1001    0.8681   -0.7532 C   0  0  0  0  0  0  0  0  0  0  0  0
   -2.8634   -0.7226    0.7108 C   0  0  0  0  0  0  0  0  0  0  0  0
   -2.4065    1.3014   -0.5269 C   0  0  0  0  0  0  0  0  0  0  0  0
   -3.2882    0.5060    0.2049 C   0  0  0  0  0  0  0  0  0  0  0  0
   -4.6849    0.9693    0.4471 C   0  0  0  0  0  0  0  0  0  0  0  0
  1  4  1  0
  1  5  1  0
  2  4  1  0
  2  6  1  0
  3  9  1  0
  4  7  1  0
  4  8  1  0
  5  6  1  0
  5  9  1  0
  7 10  2  0
  7 11  1  0
 10 12  1  0
 11 13  2  0
 12 14  2  0
 13 14  1  0
 14 15  1  0
M  END
>  <PUBCHEM_COMPOUND_CID>  (1) 
16636

>  <PUBCHEM_CONFORMER_RMSD>  (1) 
0.6

>  <PUBCHEM_CONFORMER_DIVERSEORDER>  (1) 
2
12
10
9
15
16
13
1
8
7
6
14
3
17
4
11
5

>  <PUBCHEM_MMFF94_PARTIAL_CHARGES>  (1) 
19
1 -0.56
10 -0.15
11 -0.15
12 -0.15
13 -0.15
14 -0.14
15 0.14
2 -0.56
24 0.15
25 0.15
26 0.15
27 0.15
28 0.4
3 -0.68
4 0.7
5 0.28
6 0.28
7 -0.14
9 0.28

>  <PUBCHEM_EFFECTIVE_ROTOR_COUNT>  (1) 
3

>  <PUBCHEM_PHARMACOPHORE_FEATURES>  (1) 
6
1 1 acceptor
1 2 acceptor
1 3 acceptor
1 3 donor
5 1 2 4 5 6 rings
6 7 10 11 12 13 14 rings

>  <PUBCHEM_HEAVY_ATOM_COUNT>  (1) 
15

>  <PUBCHEM_ATOM_DEF_STEREO_COUNT>  (1) 
0

>  <PUBCHEM_ATOM_UDEF_STEREO_COUNT>  (1) 
2

>  <PUBCHEM_BOND_DEF_STEREO_COUNT>  (1) 
0

>  <PUBCHEM_BOND_UDEF_STEREO_COUNT>  (1) 
0

>  <PUBCHEM_ISOTOPIC_ATOM_COUNT>  (1) 
0

>  <PUBCHEM_COMPONENT_COUNT>  (1) 
1

>  <PUBCHEM_CACTVS_TAUTO_COUNT>  (1) 
1

>  <PUBCHEM_CONFORMER_ID>  (1) 
000040FC00000002

>  <PUBCHEM_MMFF94_ENERGY>  (1) 
39.019

>  <PUBCHEM_FEATURE_SELFOVERLAP>  (1) 
30.49

>  <PUBCHEM_SHAPE_FINGERPRINT>  (1) 
10608611 8 18261949639871644965
107287 299 17917435302090659327
10922049 32 18341337777211893646
11031198 65 17346597443740758407
11132069 177 18113899385689958045
11769659 78 8718835288084806624
12119455 92 18202560683349330718
12186901 62 13254806715884655633
122479 349 18267866271239496056
12251169 10 18040152924416692149
12382932 28 18335707152137669201
12507560 40 17677323918467624060
12696612 119 18186805785355881028
13549 16 11239731776427528345
13581323 91 17168148901513051907
13675066 3 17095527254031592929
14993402 34 14549016572582952265
15219456 202 18342183236643743887
15477762 27 9871746901614066640
15775835 57 18342453785423912176
16945 1 18114180877646090918
17804303 29 17679862604917274314
1813 80 16053810239362383086
18175812 5 18410295804420152350
18186145 218 18196097629906160645
19786989 88 18202280264987335479
20281475 54 8574421050316390533
20361792 2 13695869211890877070
20528008 55 18260824882779225553
20559304 39 17023481754173255783
20645476 183 15482379894516257165
21296965 67 11963381951507993094
21501502 16 18339912788282564827
21501925 9 17530971306361078371
21524375 3 18272081751459600342
23402539 116 18334564738519397495
23557571 272 18338813302677832755
23559900 14 18337954472016037202
2748010 2 17824825534054168119
3060560 45 14261343622534700396
449060 50 18343591733157151217
449060 62 18413107259952689016
4990 188 12247672764876348809
5104073 3 18187649068389137409
5374978 207 18114182991355634513
69090 78 18335696114451753835
7364860 26 18337954463700428682

>  <PUBCHEM_SHAPE_MULTIPOLES>  (1) 
291.09
6.94
1.82
1.11
2.44
0.28
0.3
3.73
-1.87
-1.19
0.16
-0.23
-0.43
0.27

>  <PUBCHEM_SHAPE_SELFOVERLAP>  (1) 
610.878

>  <PUBCHEM_SHAPE_VOLUME>  (1) 
166.3

>  <PUBCHEM_COORDINATE_TYPE>  (1) 
2
5
10

$$$$
