16634
     RDKit          3D

  8  7  0  0  0  0  0  0  0  0999 V2000
   -1.0150   -0.3232   -0.2271 O   0  0  0  0  0  0  0  0  0  0  0  0
   -0.2670    1.8487    0.2327 N   0  0  0  0  0  0  0  0  0  0  0  0
    1.2772    0.1432   -0.6504 C   0  0  0  0  0  0  0  0  0  0  0  0
    2.1325   -0.3644    0.5069 C   0  0  0  0  0  0  0  0  0  0  0  0
   -0.0614    0.6424   -0.1802 C   0  0  0  0  0  0  0  0  0  0  0  0
    3.5145   -0.8215    0.0625 C   0  0  0  0  0  0  0  0  0  0  0  0
   -2.3354    0.0381    0.1988 C   0  0  0  0  0  0  0  0  0  0  0  0
   -3.2454   -1.1633    0.0569 C   0  0  0  0  0  0  0  0  0  0  0  0
  1  5  1  0
  1  7  1  0
  2  5  2  0
  3  4  1  0
  3  5  1  0
  4  6  1  0
  7  8  1  0
M  END
>  <PUBCHEM_COMPOUND_CID>  (1) 
16634

>  <PUBCHEM_CONFORMER_RMSD>  (1) 
0.6

>  <PUBCHEM_CONFORMER_DIVERSEORDER>  (1) 
2
30
39
50
46
10
42
44
17
21
8
24
41
14
20
18
35
43
36
49
34
47
33
38
16
22
40
29
45
37
19
11
48
5
7
25
3
28
4
6
27
15
1
26
12
13
23
9
32
31

>  <PUBCHEM_MMFF94_PARTIAL_CHARGES>  (1) 
6
1 -0.43
2 -0.85
21 0.4
3 0.06
5 0.54
7 0.28

>  <PUBCHEM_EFFECTIVE_ROTOR_COUNT>  (1) 
4

>  <PUBCHEM_PHARMACOPHORE_FEATURES>  (1) 
2
1 2 donor
1 6 hydrophobe

>  <PUBCHEM_HEAVY_ATOM_COUNT>  (1) 
8

>  <PUBCHEM_ATOM_DEF_STEREO_COUNT>  (1) 
0

>  <PUBCHEM_ATOM_UDEF_STEREO_COUNT>  (1) 
0

>  <PUBCHEM_BOND_DEF_STEREO_COUNT>  (1) 
0

>  <PUBCHEM_BOND_UDEF_STEREO_COUNT>  (1) 
0

>  <PUBCHEM_ISOTOPIC_ATOM_COUNT>  (1) 
0

>  <PUBCHEM_COMPONENT_COUNT>  (1) 
1

>  <PUBCHEM_CACTVS_TAUTO_COUNT>  (1) 
1

>  <PUBCHEM_CONFORMER_ID>  (1) 
000040FA00000002

>  <PUBCHEM_MMFF94_ENERGY>  (1) 
4.5662

>  <PUBCHEM_FEATURE_SELFOVERLAP>  (1) 
10.148

>  <PUBCHEM_SHAPE_FINGERPRINT>  (1) 
10857977 72 18272925025032418624
12897270 3 15068340120289774835
14128692 85 18040438814667152054
14390081 3 9439411224290678223
20211469 26 17846491517795317319
21040471 1 8646487388496296061
21293036 1 11674884398320469547
23552449 11 18200031888257355689
29004967 10 18342459261380548961

>  <PUBCHEM_SHAPE_MULTIPOLES>  (1) 
153.79
5.32
1.3
0.71
0.37
0.43
-0.02
-2.98
0.39
-0.34
0.1
0.13
0
-0.1

>  <PUBCHEM_SHAPE_SELFOVERLAP>  (1) 
273.525

>  <PUBCHEM_SHAPE_VOLUME>  (1) 
100.8

>  <PUBCHEM_COORDINATE_TYPE>  (1) 
2
5
10

$$$$
