16632
     RDKit          3D

 15 15  0  0  0  0  0  0  0  0999 V2000
    0.1688    0.3041   -0.7067 O   0  0  0  0  0  0  0  0  0  0  0  0
   -0.2025   -1.7274    0.3106 O   0  0  0  0  0  0  0  0  0  0  0  0
    3.7925    0.1706    0.1745 N   0  0  0  0  0  0  0  0  0  0  0  0
    2.3123    0.4710    0.3607 C   0  0  0  0  0  0  0  0  0  0  0  0
    4.2977    0.8675   -1.0806 C   0  0  0  0  0  0  0  0  0  0  0  0
    4.5684    0.6758    1.3825 C   0  0  0  0  0  0  0  0  0  0  0  0
    3.9920   -1.3317    0.0356 C   0  0  0  0  0  0  0  0  0  0  0  0
    1.5477   -0.0060   -0.8583 C   0  0  0  0  0  0  0  0  0  0  0  0
   -0.5957   -0.6479   -0.1036 C   0  0  0  0  0  0  0  0  0  0  0  0
   -2.0096   -0.2049   -0.0075 C   0  0  0  0  0  0  0  0  0  0  0  0
   -3.0097   -1.1551   -0.0340 C   0  0  0  0  0  0  0  0  0  0  0  0
   -2.2794    1.1436    0.1052 C   0  0  0  0  0  0  0  0  0  0  0  0
   -4.3380   -0.7386    0.0559 C   0  0  0  0  0  0  0  0  0  0  0  0
   -3.6076    1.5602    0.1952 C   0  0  0  0  0  0  0  0  0  0  0  0
   -4.6368    0.6190    0.1706 C   0  0  0  0  0  0  0  0  0  0  0  0
  1  8  1  0
  1  9  1  0
  2  9  2  0
  3  4  1  0
  3  5  1  0
  3  6  1  0
  3  7  1  0
  4  8  1  0
  9 10  1  0
 10 11  2  0
 10 12  1  0
 11 13  1  0
 12 14  2  0
 13 15  2  0
 14 15  1  0
M  CHG  1   3   1
M  END
>  <PUBCHEM_COMPOUND_CID>  (1) 
16632

>  <PUBCHEM_CONFORMER_RMSD>  (1) 
0.6

>  <PUBCHEM_CONFORMER_DIVERSEORDER>  (1) 
2
39
23
27
40
5
37
26
29
8
41
30
38
16
3
20
21
10
33
42
1
11
4
9
13
44
35
22
24
36
14
25
19
31
15
6
18
7
32
17
45
12
28
43
34

>  <PUBCHEM_MMFF94_PARTIAL_CHARGES>  (1) 
20
1 -0.43
10 0.09
11 -0.15
12 -0.15
13 -0.15
14 -0.15
15 -0.15
2 -0.57
29 0.15
3 -1.01
30 0.15
31 0.15
32 0.15
33 0.15
4 0.5
5 0.5
6 0.5
7 0.5
8 0.28
9 0.63

>  <PUBCHEM_EFFECTIVE_ROTOR_COUNT>  (1) 
5

>  <PUBCHEM_PHARMACOPHORE_FEATURES>  (1) 
3
1 2 acceptor
1 3 cation
6 10 11 12 13 14 15 rings

>  <PUBCHEM_HEAVY_ATOM_COUNT>  (1) 
15

>  <PUBCHEM_ATOM_DEF_STEREO_COUNT>  (1) 
0

>  <PUBCHEM_ATOM_UDEF_STEREO_COUNT>  (1) 
0

>  <PUBCHEM_BOND_DEF_STEREO_COUNT>  (1) 
0

>  <PUBCHEM_BOND_UDEF_STEREO_COUNT>  (1) 
0

>  <PUBCHEM_ISOTOPIC_ATOM_COUNT>  (1) 
0

>  <PUBCHEM_COMPONENT_COUNT>  (1) 
1

>  <PUBCHEM_CACTVS_TAUTO_COUNT>  (1) 
1

>  <PUBCHEM_CONFORMER_ID>  (1) 
000040F800000002

>  <PUBCHEM_MMFF94_ENERGY>  (1) 
49.7479

>  <PUBCHEM_FEATURE_SELFOVERLAP>  (1) 
15.223

>  <PUBCHEM_SHAPE_FINGERPRINT>  (1) 
10912923 1 17822012038058977808
11132069 177 18407759222768637069
12107183 9 17686334270434154176
12119455 92 17418089901681520037
12596602 18 17240765120182665032
12670546 56 18411409592513873962
13081056 2 17917993879878201480
13167823 11 18408603651735565706
13675066 3 18410856563966548322
14123238 8 17847061099125411645
14252887 29 15213016042685548576
15536298 74 18339644434293968798
17834072 33 18114186384063046924
17862501 102 18259982704053854819
18186145 218 16845576430697990638
20300324 65 18130785672922308783
20432913 95 15357694184535182544
20645477 56 17846493772674253124
20645477 70 15913341182310174380
212847 35 18412827962999099088
22854114 59 17988923387934009256
23048698 100 17458064884751041588
23402539 116 18343293786927996255
23557571 272 17845951696488757013
23559900 14 18271819986298782294
265663 24 18201716245508027167
351380 180 18272646857323203969
42 15 18334575720207538538
4214541 1 18411138013157527005
474 4 16734966776731135764
5104073 3 18412547574264142667
573450 72 18333725814893732451
633830 44 17749393650209945290
69090 78 18060697307935385831
7364860 26 18126287437329958551
77779 3 18410857655004221070

>  <PUBCHEM_SHAPE_MULTIPOLES>  (1) 
291.97
10.88
1.44
0.91
3.31
0.15
-0.03
-1.71
-1.22
-0.51
-0.09
1.06
-0.17
-0.04

>  <PUBCHEM_SHAPE_SELFOVERLAP>  (1) 
588.006

>  <PUBCHEM_SHAPE_VOLUME>  (1) 
173.4

>  <PUBCHEM_COORDINATE_TYPE>  (1) 
2
5
10

$$$$
