16630
     RDKit          3D

 12 13  0  0  1  0  0  0  0  0999 V2000
    1.4981   -0.5144    0.7034 O   0  0  0  0  0  0  0  0  0  0  0  0
    2.7010    0.7566   -0.7624 N   0  0  0  0  0  0  0  0  0  0  0  0
    3.6611   -1.1419    0.3299 N   0  0  0  0  0  0  0  0  0  0  0  0
    0.6761    0.6240    0.4566 C   0  0  0  0  0  0  0  0  0  0  0  0
    1.3345    1.2916   -0.7371 C   0  0  0  0  0  0  0  0  0  0  0  0
   -0.7599    0.2347    0.2166 C   0  0  0  0  0  0  0  0  0  0  0  0
   -1.7849    1.1339    0.5108 C   0  0  0  0  0  0  0  0  0  0  0  0
   -1.0640   -1.0250   -0.2994 C   0  0  0  0  0  0  0  0  0  0  0  0
    2.6633   -0.2611    0.0405 C   0  0  0  0  0  0  0  0  0  0  0  0
   -3.1141    0.7734    0.2892 C   0  0  0  0  0  0  0  0  0  0  0  0
   -2.3931   -1.3854   -0.5212 C   0  0  0  0  0  0  0  0  0  0  0  0
   -3.4181   -0.4863   -0.2269 C   0  0  0  0  0  0  0  0  0  0  0  0
  1  4  1  0
  1  9  1  0
  2  5  1  0
  2  9  2  0
  3  9  1  0
  4  5  1  0
  4  6  1  0
  6  7  2  0
  6  8  1  0
  7 10  1  0
  8 11  2  0
 10 12  2  0
 11 12  1  0
M  END
>  <PUBCHEM_COMPOUND_CID>  (1) 
16630

>  <PUBCHEM_CONFORMER_RMSD>  (1) 
0.4

>  <PUBCHEM_CONFORMER_DIVERSEORDER>  (1) 
2
4
3
1

>  <PUBCHEM_MMFF94_PARTIAL_CHARGES>  (1) 
19
1 -0.43
10 -0.15
11 -0.15
12 -0.15
16 0.15
17 0.15
18 0.15
19 0.15
2 -0.7
20 0.15
21 0.4
22 0.4
3 -0.85
4 0.42
5 0.25
6 -0.14
7 -0.15
8 -0.15
9 0.65

>  <PUBCHEM_EFFECTIVE_ROTOR_COUNT>  (1) 
1.6

>  <PUBCHEM_PHARMACOPHORE_FEATURES>  (1) 
4
1 3 donor
3 2 3 9 cation
5 1 2 4 5 9 rings
6 6 7 8 10 11 12 rings

>  <PUBCHEM_HEAVY_ATOM_COUNT>  (1) 
12

>  <PUBCHEM_ATOM_DEF_STEREO_COUNT>  (1) 
0

>  <PUBCHEM_ATOM_UDEF_STEREO_COUNT>  (1) 
1

>  <PUBCHEM_BOND_DEF_STEREO_COUNT>  (1) 
0

>  <PUBCHEM_BOND_UDEF_STEREO_COUNT>  (1) 
0

>  <PUBCHEM_ISOTOPIC_ATOM_COUNT>  (1) 
0

>  <PUBCHEM_COMPONENT_COUNT>  (1) 
1

>  <PUBCHEM_CACTVS_TAUTO_COUNT>  (1) 
2

>  <PUBCHEM_CONFORMER_ID>  (1) 
000040F600000002

>  <PUBCHEM_MMFF94_ENERGY>  (1) 
27.9664

>  <PUBCHEM_FEATURE_SELFOVERLAP>  (1) 
20.297

>  <PUBCHEM_SHAPE_FINGERPRINT>  (1) 
10465860 250 17561074770682743602
11062470 55 12679460876534339947
11769659 78 18412820313224488487
12932764 1 18271533090572352537
14144814 61 18411702092734820001
14325111 11 18411702092872093417
14993402 34 18335422361198273269
15775835 57 18335147500555847757
16945 1 18060424612093036097
18186145 218 17022900163840158457
18511873 20 18410012096213253057
19422 9 18334862735639294059
20201158 50 17203613678931284535
20279233 1 16343984697662708669
20645464 45 16559027194913820803
20645476 183 18263094368941506967
20653085 51 17385997382503091485
207724 885 18259988171330840837
23402539 116 17703498910186569333
23463225 33 18338797814698676694
23552423 10 18121780792528109357
23559900 14 17917710167908974592
3248919 1 17894909688939731336
369184 2 14908176456500555147
5084963 1 18335134302221417905
57812782 119 16845569807736970989
7364860 26 18199465644127633800
74978 22 18338796818334556477
77492 1 18407763637752333201
8030462 33 18336833098956901045
81228 2 16270546056811806856
9939556 21 18409169943178493413

>  <PUBCHEM_SHAPE_MULTIPOLES>  (1) 
231.12
5.79
1.39
0.81
1.16
0.08
0.05
1.09
0.1
-0.23
0.09
0.16
-0.08
-0.68

>  <PUBCHEM_SHAPE_SELFOVERLAP>  (1) 
494.495

>  <PUBCHEM_SHAPE_VOLUME>  (1) 
128.6

>  <PUBCHEM_COORDINATE_TYPE>  (1) 
2
5
10

$$$$
