16640
     RDKit          3D

 12 13  0  0  1  0  0  0  0  0999 V2000
    3.9642   -0.0706   -0.5845 O   0  0  0  0  0  0  0  0  0  0  0  0
    0.6203   -0.4117   -0.4649 O   0  0  0  0  0  0  0  0  0  0  0  0
    2.8820   -0.2848    0.3101 C   0  0  0  0  0  0  0  0  0  0  0  0
    4.0982    0.4471    0.7455 C   0  0  0  0  0  0  0  0  0  0  0  0
    1.6457    0.4995   -0.0750 C   0  0  0  0  0  0  0  0  0  0  0  0
   -0.6672   -0.0312   -0.2324 C   0  0  0  0  0  0  0  0  0  0  0  0
   -1.6570   -0.9807    0.0220 C   0  0  0  0  0  0  0  0  0  0  0  0
   -0.9905    1.3257   -0.2504 C   0  0  0  0  0  0  0  0  0  0  0  0
   -2.9700   -0.5731    0.2583 C   0  0  0  0  0  0  0  0  0  0  0  0
   -1.3293   -2.4371    0.0452 C   0  0  0  0  0  0  0  0  0  0  0  0
   -2.3034    1.7331   -0.0140 C   0  0  0  0  0  0  0  0  0  0  0  0
   -3.2931    0.7838    0.2403 C   0  0  0  0  0  0  0  0  0  0  0  0
  1  3  1  0
  1  4  1  0
  2  5  1  0
  2  6  1  0
  3  4  1  0
  3  5  1  0
  6  7  2  0
  6  8  1  0
  7  9  1  0
  7 10  1  0
  8 11  2  0
  9 12  2  0
 11 12  1  0
M  END
>  <PUBCHEM_COMPOUND_CID>  (1) 
16640

>  <PUBCHEM_CONFORMER_RMSD>  (1) 
0.6

>  <PUBCHEM_CONFORMER_DIVERSEORDER>  (1) 
4
12
19
2
27
29
26
24
6
15
31
7
30
3
28
1
25
22
8
11
14
16
10
5
18
13
21
20
17
23
9

>  <PUBCHEM_MMFF94_PARTIAL_CHARGES>  (1) 
19
1 -0.3
10 0.14
11 -0.15
12 -0.15
13 0.1
14 0.1
15 0.1
18 0.15
19 0.15
2 -0.36
23 0.15
24 0.15
3 -0.05
4 -0.05
5 0.38
6 0.08
7 -0.14
8 -0.15
9 -0.15

>  <PUBCHEM_EFFECTIVE_ROTOR_COUNT>  (1) 
3.6

>  <PUBCHEM_PHARMACOPHORE_FEATURES>  (1) 
3
1 1 acceptor
1 2 acceptor
6 6 7 8 9 11 12 rings

>  <PUBCHEM_HEAVY_ATOM_COUNT>  (1) 
12

>  <PUBCHEM_ATOM_DEF_STEREO_COUNT>  (1) 
0

>  <PUBCHEM_ATOM_UDEF_STEREO_COUNT>  (1) 
1

>  <PUBCHEM_BOND_DEF_STEREO_COUNT>  (1) 
0

>  <PUBCHEM_BOND_UDEF_STEREO_COUNT>  (1) 
0

>  <PUBCHEM_ISOTOPIC_ATOM_COUNT>  (1) 
0

>  <PUBCHEM_COMPONENT_COUNT>  (1) 
1

>  <PUBCHEM_CACTVS_TAUTO_COUNT>  (1) 
1

>  <PUBCHEM_CONFORMER_ID>  (1) 
0000410000000004

>  <PUBCHEM_MMFF94_ENERGY>  (1) 
36.7258

>  <PUBCHEM_FEATURE_SELFOVERLAP>  (1) 
15.223

>  <PUBCHEM_SHAPE_FINGERPRINT>  (1) 
10608611 8 18343861117532132144
11132069 177 18411134740498111376
12251169 10 18408322207044886364
12932764 1 17531235171882308580
13024252 1 14490189406304427813
13380535 76 18341331110958679999
13897977 58 18335426806800992204
14144814 61 18335136471179759560
14325111 11 18339079294017548052
15219456 202 18059301954554348846
15669948 3 18409164454468914270
15775835 57 18334577893234085352
16945 1 18410866472856845079
17846911 113 18341891862036415249
20279233 1 18060702788698452358
20510252 161 18272090457210831089
20524608 308 18343301487351131767
20528008 55 18341607126942026585
20645464 45 18130794447034079389
20645477 56 18411981356046271640
20645477 70 16773523179357179462
20871998 184 18271530904666347983
23402539 116 18342729750458839719
23559900 14 18343582915810702094
257057 1 17621310669044352591
2748010 2 18120950408025318887
366044 4 18409728431288498595
43471831 8 18261109621757703283
5706482 22 18410005503707661011
6333449 129 18412823586237305997
69090 78 18343860017925428959
75552 356 18409449210578813599

>  <PUBCHEM_SHAPE_MULTIPOLES>  (1) 
235.22
6.73
1.76
0.71
7.25
0.67
-0.03
-1
-0.91
-1.63
0
0.23
-0.02
0.12

>  <PUBCHEM_SHAPE_SELFOVERLAP>  (1) 
486.052

>  <PUBCHEM_SHAPE_VOLUME>  (1) 
136.8

>  <PUBCHEM_COORDINATE_TYPE>  (1) 
2
5
10

$$$$
