16658
     RDKit          3D

  7  7  0  0  0  0  0  0  0  0999 V2000
    1.0011    0.0058    0.3230 N   0  0  0  0  0  0  0  0  0  0  0  0
    2.3779    0.0000   -0.0840 N   0  0  0  0  0  0  0  0  0  0  0  0
   -1.8546   -0.0064   -0.2563 C   0  0  0  0  0  0  0  0  0  0  0  0
   -1.1136   -1.2575    0.2050 C   0  0  0  0  0  0  0  0  0  0  0  0
   -1.1247    1.2511    0.2050 C   0  0  0  0  0  0  0  0  0  0  0  0
    0.3624   -1.2099   -0.1960 C   0  0  0  0  0  0  0  0  0  0  0  0
    0.3514    1.2168   -0.1967 C   0  0  0  0  0  0  0  0  0  0  0  0
  1  2  1  0
  1  6  1  0
  1  7  1  0
  3  4  1  0
  3  5  1  0
  4  6  1  0
  5  7  1  0
M  END
>  <PUBCHEM_COMPOUND_CID>  (1) 
16658

>  <PUBCHEM_CONFORMER_RMSD>  (1) 
0.4

>  <PUBCHEM_CONFORMER_DIVERSEORDER>  (1) 
1
2
3
4

>  <PUBCHEM_MMFF94_PARTIAL_CHARGES>  (1) 
6
1 -0.54
18 0.36
19 0.36
2 -0.72
6 0.27
7 0.27

>  <PUBCHEM_EFFECTIVE_ROTOR_COUNT>  (1) 
1.2

>  <PUBCHEM_PHARMACOPHORE_FEATURES>  (1) 
2
1 2 donor
6 1 3 4 5 6 7 rings

>  <PUBCHEM_HEAVY_ATOM_COUNT>  (1) 
7

>  <PUBCHEM_ATOM_DEF_STEREO_COUNT>  (1) 
0

>  <PUBCHEM_ATOM_UDEF_STEREO_COUNT>  (1) 
0

>  <PUBCHEM_BOND_DEF_STEREO_COUNT>  (1) 
0

>  <PUBCHEM_BOND_UDEF_STEREO_COUNT>  (1) 
0

>  <PUBCHEM_ISOTOPIC_ATOM_COUNT>  (1) 
0

>  <PUBCHEM_COMPONENT_COUNT>  (1) 
1

>  <PUBCHEM_CACTVS_TAUTO_COUNT>  (1) 
1

>  <PUBCHEM_CONFORMER_ID>  (1) 
0000411200000001

>  <PUBCHEM_MMFF94_ENERGY>  (1) 
-0.5004

>  <PUBCHEM_FEATURE_SELFOVERLAP>  (1) 
10.148

>  <PUBCHEM_SHAPE_FINGERPRINT>  (1) 
16714656 1 18410578383335105884
18185500 45 18336261340046589615
20096714 4 17979636740905970283
21040471 1 18266740173305124313
23552423 10 18260554381417959238
29004967 10 18409454712431997915

>  <PUBCHEM_SHAPE_MULTIPOLES>  (1) 
134.09
2.3
1.53
0.64
0.8
0
-0.01
0
-0.07
-0.31
0.01
-0.05
0
0

>  <PUBCHEM_SHAPE_SELFOVERLAP>  (1) 
252.517

>  <PUBCHEM_SHAPE_VOLUME>  (1) 
80.7

>  <PUBCHEM_COORDINATE_TYPE>  (1) 
2
5
10

$$$$
