16652
     RDKit          3D

 22 22  0  0  1  0  0  0  0  0999 V2000
    1.4421   -4.2033    0.0800 S   0  0  0  0  0  0  0  0  0  0  0  0
    3.0771   -4.2190    0.0802 O   0  0  0  0  0  0  0  0  0  0  0  0
    1.0127   -4.7143    1.3737 O   0  0  0  0  0  0  0  0  0  0  0  0
    0.9849   -4.8266   -1.1523 O   0  0  0  0  0  0  0  0  0  0  0  0
   -0.0950    1.6471   -0.2262 C   0  0  0  0  0  0  0  0  0  0  0  0
   -1.4672    1.9212    0.4359 C   0  0  0  0  0  0  0  0  0  0  0  0
    0.9824    2.5620    0.4048 C   0  0  0  0  0  0  0  0  0  0  0  0
   -2.6260    1.2036   -0.2682 C   0  0  0  0  0  0  0  0  0  0  0  0
    2.3274    2.4994   -0.3308 C   0  0  0  0  0  0  0  0  0  0  0  0
    0.2905    0.1776   -0.1489 C   0  0  0  0  0  0  0  0  0  0  0  0
   -3.9972    1.5330    0.3312 C   0  0  0  0  0  0  0  0  0  0  0  0
    3.3748    3.4625    0.2381 C   0  0  0  0  0  0  0  0  0  0  0  0
   -5.1942    0.8314   -0.3185 C   0  0  0  0  0  0  0  0  0  0  0  0
    0.4680   -0.5592   -1.3200 C   0  0  0  0  0  0  0  0  0  0  0  0
    0.4677   -0.4329    1.0927 C   0  0  0  0  0  0  0  0  0  0  0  0
    4.7443    3.4315   -0.4448 C   0  0  0  0  0  0  0  0  0  0  0  0
   -6.5295    1.1554    0.3523 C   0  0  0  0  0  0  0  0  0  0  0  0
    0.8226   -1.9063   -1.2494 C   0  0  0  0  0  0  0  0  0  0  0  0
    0.8222   -1.7800    1.1633 C   0  0  0  0  0  0  0  0  0  0  0  0
    0.9997   -2.5168   -0.0078 C   0  0  0  0  0  0  0  0  0  0  0  0
    5.7623    4.3675    0.1876 C   0  0  0  0  0  0  0  0  0  0  0  0
   -7.6697    0.3661   -0.2728 C   0  0  0  0  0  0  0  0  0  0  0  0
  1  2  1  0
  1  3  2  0
  1  4  2  0
  1 20  1  0
  5  6  1  0
  5  7  1  0
  5 10  1  0
  6  8  1  0
  7  9  1  0
  8 11  1  0
  9 12  1  0
 10 14  2  0
 10 15  1  0
 11 13  1  0
 12 16  1  0
 13 17  1  0
 14 18  1  0
 15 19  2  0
 16 21  1  0
 17 22  1  0
 18 20  2  0
 19 20  1  0
M  END
>  <PUBCHEM_COMPOUND_CID>  (1) 
16652

>  <PUBCHEM_CONFORMER_RMSD>  (1) 
1.4

>  <PUBCHEM_CONFORMER_DIVERSEORDER>  (1) 
1
24
16
17
11
15
23
18
21
13
10
19
12
22
6
5
20
9
3
14
4
7
2
8

>  <PUBCHEM_MMFF94_PARTIAL_CHARGES>  (1) 
16
1 1.49
10 -0.14
14 -0.15
15 -0.15
18 -0.15
19 -0.15
2 -0.68
20 -0.01
3 -0.65
38 0.15
39 0.15
4 -0.65
44 0.15
45 0.15
5 0.14
52 0.5

>  <PUBCHEM_EFFECTIVE_ROTOR_COUNT>  (1) 
11

>  <PUBCHEM_PHARMACOPHORE_FEATURES>  (1) 
7
1 2 acceptor
1 21 hydrophobe
1 22 hydrophobe
1 3 acceptor
1 4 acceptor
4 1 2 3 4 anion
6 10 14 15 18 19 20 rings

>  <PUBCHEM_HEAVY_ATOM_COUNT>  (1) 
22

>  <PUBCHEM_ATOM_DEF_STEREO_COUNT>  (1) 
0

>  <PUBCHEM_ATOM_UDEF_STEREO_COUNT>  (1) 
1

>  <PUBCHEM_BOND_DEF_STEREO_COUNT>  (1) 
0

>  <PUBCHEM_BOND_UDEF_STEREO_COUNT>  (1) 
0

>  <PUBCHEM_ISOTOPIC_ATOM_COUNT>  (1) 
0

>  <PUBCHEM_COMPONENT_COUNT>  (1) 
1

>  <PUBCHEM_CACTVS_TAUTO_COUNT>  (1) 
1

>  <PUBCHEM_CONFORMER_ID>  (1) 
0000410C00000001

>  <PUBCHEM_MMFF94_ENERGY>  (1) 
22.8511

>  <PUBCHEM_FEATURE_SELFOVERLAP>  (1) 
35.577

>  <PUBCHEM_SHAPE_FINGERPRINT>  (1) 
102385 1 18121780521956849629
11763715 3 17474412183220388846
11991303 11 17972886031648908332
12597179 24 18260834855593359401
12788726 201 17763729284987562162
13052359 8 18050853517755243988
13955234 65 18410859824384919961
13968360 50 18409726296437123069
14866123 147 17978790439481357530
15629462 23 17479726564935331751
15927050 60 18268430316589082006
17539 30 17547853413831127524
19427546 20 17616259521554459788
20600515 1 17192634810441647205
20645477 70 18409164377919223077
22224240 67 18338232799351925781
23558518 356 17324638276964259168
23598288 3 17465955169329324316
249999 5 18411135814229567897
3421961 26 18267582417135668513
4409770 3 17832143097242893323
59755656 520 18266452299044142012
6669772 16 18340772628172082476
6673363 416 17763473812524649174
77188 2 17906170646629243484

>  <PUBCHEM_SHAPE_MULTIPOLES>  (1) 
438.99
11.89
7.51
1.05
22.28
10.43
-0.02
-18.12
-0.37
-12.29
0.43
-0.2
0.75
-0.22

>  <PUBCHEM_SHAPE_SELFOVERLAP>  (1) 
847.905

>  <PUBCHEM_SHAPE_VOLUME>  (1) 
267.5

>  <PUBCHEM_COORDINATE_TYPE>  (1) 
2
5
10

$$$$
