1665
     RDKit          3D

 21 20  0  0  1  0  0  0  0  0999 V2000
  -10.0475    0.5855    0.2243 O   0  0  0  0  0  0  0  0  0  0  0  0
    3.4370   -0.1528   -0.3484 C   0  0  0  0  0  0  0  0  0  0  0  0
    2.2313    0.6083    0.2054 C   0  0  0  0  0  0  0  0  0  0  0  0
    4.7487    0.4010    0.2108 C   0  0  0  0  0  0  0  0  0  0  0  0
    0.9172    0.0332   -0.3279 C   0  0  0  0  0  0  0  0  0  0  0  0
    5.9533   -0.3815   -0.3173 C   0  0  0  0  0  0  0  0  0  0  0  0
   -0.2851    0.8174    0.2017 C   0  0  0  0  0  0  0  0  0  0  0  0
    7.2612    0.1537    0.2694 C   0  0  0  0  0  0  0  0  0  0  0  0
   -1.6276    0.3026   -0.3258 C   0  0  0  0  0  0  0  0  0  0  0  0
    8.5041   -0.5745   -0.2506 C   0  0  0  0  0  0  0  0  0  0  0  0
   -2.8732    0.9952    0.2366 C   0  0  0  0  0  0  0  0  0  0  0  0
    9.8461   -0.0676    0.2876 C   0  0  0  0  0  0  0  0  0  0  0  0
   -4.2125    0.5278   -0.3423 C   0  0  0  0  0  0  0  0  0  0  0  0
   11.0827   -0.8322   -0.1904 C   0  0  0  0  0  0  0  0  0  0  0  0
   -5.4120    1.3100    0.1976 C   0  0  0  0  0  0  0  0  0  0  0  0
   12.3918   -0.2393    0.3066 C   0  0  0  0  0  0  0  0  0  0  0  0
   -6.6951    0.8165   -0.4067 C   0  0  0  0  0  0  0  0  0  0  0  0
   -7.7020    0.2896    0.3070 C   0  0  0  0  0  0  0  0  0  0  0  0
   -8.9819   -0.2030   -0.2992 C   0  0  0  0  0  0  0  0  0  0  0  0
   -9.1865   -1.6162    0.0436 C   0  0  0  0  0  0  0  0  0  0  0  0
   -9.3501   -2.7737    0.3181 C   0  0  0  0  0  0  0  0  0  0  0  0
  1 19  1  0
  2  3  1  0
  2  4  1  0
  3  5  1  0
  4  6  1  0
  5  7  1  0
  6  8  1  0
  7  9  1  0
  8 10  1  0
  9 11  1  0
 10 12  1  0
 11 13  1  0
 12 14  1  0
 13 15  1  0
 14 16  1  0
 15 17  1  0
 17 18  2  0
 18 19  1  0
 19 20  1  0
 20 21  3  0
M  END
>  <PUBCHEM_COMPOUND_CID>  (1) 
1665

>  <PUBCHEM_CONFORMER_RMSD>  (1) 
1.4

>  <PUBCHEM_CONFORMER_DIVERSEORDER>  (1) 
1
65
81
51
32
19
58
55
70
7
4
28
24
74
3
25
18
29
61
76
83
23
57
44
35
50
69
84
73
52
46
15
79
60
80
45
26
31
66
30
20
43
42
21
37
34
48
77
33
72
68
38
41
71
64
10
16
36
12
82
54
67
56
5
6
39
47
11
59
63
17
62
78
9
27
2
14
13
75
8
22
53
40
49

>  <PUBCHEM_MMFF94_PARTIAL_CHARGES>  (1) 
11
1 -0.68
15 0.14
17 -0.29
18 -0.29
19 0.62
20 -0.2
21 -0.18
53 0.15
54 0.15
56 0.4
57 0.18

>  <PUBCHEM_EFFECTIVE_ROTOR_COUNT>  (1) 
15

>  <PUBCHEM_PHARMACOPHORE_FEATURES>  (1) 
4
1 1 acceptor
1 1 donor
1 16 hydrophobe
1 21 hydrophobe

>  <PUBCHEM_HEAVY_ATOM_COUNT>  (1) 
21

>  <PUBCHEM_ATOM_DEF_STEREO_COUNT>  (1) 
0

>  <PUBCHEM_ATOM_UDEF_STEREO_COUNT>  (1) 
1

>  <PUBCHEM_BOND_DEF_STEREO_COUNT>  (1) 
0

>  <PUBCHEM_BOND_UDEF_STEREO_COUNT>  (1) 
1

>  <PUBCHEM_ISOTOPIC_ATOM_COUNT>  (1) 
0

>  <PUBCHEM_COMPONENT_COUNT>  (1) 
1

>  <PUBCHEM_CACTVS_TAUTO_COUNT>  (1) 
1

>  <PUBCHEM_CONFORMER_ID>  (1) 
0000068100000001

>  <PUBCHEM_MMFF94_ENERGY>  (1) 
-0.1933

>  <PUBCHEM_FEATURE_SELFOVERLAP>  (1) 
20.297

>  <PUBCHEM_SHAPE_FINGERPRINT>  (1) 
12498461 61 17846493777782267103
14202775 3 18341055138452838694
14251764 46 18334294258759217052
14251920 1 18413107242788572501
14344974 52 18335138722486693992
14428016 248 12463568504140168579
15061470 23 18410572860308616548
15510794 2 18413111654358522886
155225 1 9511463324954515407
21102433 48 18040992930823126570
21362267 2 17988061367347104976
21362267 20 18410009953331989403
232437 2 18408322181638904066
23528940 14 17774718771545055415
23581129 1 18409448072375797260
33684 2 18407760326875931892
57676310 188 17821723919544009875
59521270 166 16950277387742416023
59682541 35 17846777425415524473
636775 8 18408887356765296819
67123 10 18409449185136232860
8209 1 11097859584490060396
9663363 56 17131832054540009161

>  <PUBCHEM_SHAPE_MULTIPOLES>  (1) 
426.3
51.8
1.43
0.69
52.48
1
0.01
20.22
-3.07
-5.01
-0.14
0.02
0
0.55

>  <PUBCHEM_SHAPE_SELFOVERLAP>  (1) 
780.254

>  <PUBCHEM_SHAPE_VOLUME>  (1) 
269.7

>  <PUBCHEM_COORDINATE_TYPE>  (1) 
2
5
10

$$$$
