16653
     RDKit          3D

 12 12  0  0  0  0  0  0  0  0999 V2000
   -2.1911   -0.7732    0.0229 S   0  0  0  0  0  0  0  0  0  0  0  0
   -1.3470    1.6932    0.1905 O   0  0  0  0  0  0  0  0  0  0  0  0
    0.3310    0.1025    0.5017 N   0  0  0  0  0  0  0  0  0  0  0  0
    2.9005   -1.0579   -0.7890 C   0  0  0  0  0  0  0  0  0  0  0  0
    3.3329    0.4015   -0.6760 C   0  0  0  0  0  0  0  0  0  0  0  0
    2.2482   -1.5963    0.4828 C   0  0  0  0  0  0  0  0  0  0  0  0
    2.1916    1.3991   -0.4989 C   0  0  0  0  0  0  0  0  0  0  0  0
    0.7501   -1.3066    0.5686 C   0  0  0  0  0  0  0  0  0  0  0  0
    1.3371    1.1421    0.7382 C   0  0  0  0  0  0  0  0  0  0  0  0
   -0.9940    0.5171    0.2468 C   0  0  0  0  0  0  0  0  0  0  0  0
   -3.6873    0.1955   -0.2668 C   0  0  0  0  0  0  0  0  0  0  0  0
   -4.8720   -0.7170   -0.5210 C   0  0  0  0  0  0  0  0  0  0  0  0
  1 10  1  0
  1 11  1  0
  2 10  2  0
  3  8  1  0
  3  9  1  0
  3 10  1  0
  4  5  1  0
  4  6  1  0
  5  7  1  0
  6  8  1  0
  7  9  1  0
 11 12  1  0
M  END
>  <PUBCHEM_COMPOUND_CID>  (1) 
16653

>  <PUBCHEM_CONFORMER_RMSD>  (1) 
0.6

>  <PUBCHEM_CONFORMER_DIVERSEORDER>  (1) 
1
20
34
33
8
42
11
43
50
9
30
32
2
36
25
18
27
21
48
35
23
10
31
44
14
24
41
5
46
22
3
40
6
12
15
17
7
4
49
26
38
29
39
37
28
47
13
19
45
16

>  <PUBCHEM_MMFF94_PARTIAL_CHARGES>  (1) 
7
1 -0.37
10 0.77
11 0.23
2 -0.57
3 -0.66
8 0.3
9 0.3

>  <PUBCHEM_EFFECTIVE_ROTOR_COUNT>  (1) 
4.4

>  <PUBCHEM_PHARMACOPHORE_FEATURES>  (1) 
2
1 12 hydrophobe
7 3 4 5 6 7 8 9 rings

>  <PUBCHEM_HEAVY_ATOM_COUNT>  (1) 
12

>  <PUBCHEM_ATOM_DEF_STEREO_COUNT>  (1) 
0

>  <PUBCHEM_ATOM_UDEF_STEREO_COUNT>  (1) 
0

>  <PUBCHEM_BOND_DEF_STEREO_COUNT>  (1) 
0

>  <PUBCHEM_BOND_UDEF_STEREO_COUNT>  (1) 
0

>  <PUBCHEM_ISOTOPIC_ATOM_COUNT>  (1) 
0

>  <PUBCHEM_COMPONENT_COUNT>  (1) 
1

>  <PUBCHEM_CACTVS_TAUTO_COUNT>  (1) 
1

>  <PUBCHEM_CONFORMER_ID>  (1) 
0000410D00000001

>  <PUBCHEM_MMFF94_ENERGY>  (1) 
15.678

>  <PUBCHEM_FEATURE_SELFOVERLAP>  (1) 
10.148

>  <PUBCHEM_SHAPE_FINGERPRINT>  (1) 
11471102 20 18408040727562120927
12251169 10 9655576288326852868
12616999 72 18113337539495723959
12897270 3 18334862735544264072
12932764 1 17917137386511830865
14128692 85 18270686363834882690
14251717 144 18409728469394798959
15477762 27 18341614802338696078
15501527 24 18410019861793673518
15757776 16 18335984190439660166
16945 1 18262816128428292378
18186145 218 17894625938205301607
18915474 69 18272647991405638575
19422 9 18201726132770402339
20201158 50 18409453582940189858
20281475 54 18272651204151938811
20606313 2 18259985993866895916
20645477 70 18342458153500851335
21501502 16 18265054639296880001
22485316 2 17775281690367191565
23402539 116 18263357156942552948
23402655 69 18409166576272370989
23552423 10 18334859376869250312
23590187 302 18413669114931893517
2748010 2 17761508280020609728
3060560 45 18186517730615938438
42 15 12319742470706058527
522135 26 18410289212178057303
58051976 378 18335419122719293373
581208 293 18410851100757572384
7364860 26 18131063887533935128
94968 8 18342738533081371247

>  <PUBCHEM_SHAPE_MULTIPOLES>  (1) 
239.95
7.23
1.67
0.87
8.04
0.03
0.03
-1.24
2.31
-0.88
-0.14
-0.31
-0.04
-0.23

>  <PUBCHEM_SHAPE_SELFOVERLAP>  (1) 
445.448

>  <PUBCHEM_SHAPE_VOLUME>  (1) 
150.2

>  <PUBCHEM_COORDINATE_TYPE>  (1) 
2
5
10

$$$$
