16655
     RDKit          3D

 20 22  0  0  1  0  0  0  0  0999 V2000
   -0.0913    3.0009    0.8202 O   0  0  0  0  0  0  0  0  0  0  0  0
    0.3626    2.2671   -1.3228 O   0  0  0  0  0  0  0  0  0  0  0  0
    2.4480    0.2214   -1.9184 O   0  0  0  0  0  0  0  0  0  0  0  0
    3.7845   -1.8828   -0.1138 O   0  0  0  0  0  0  0  0  0  0  0  0
    0.2999    0.7118    0.5181 C   0  0  0  0  0  0  0  0  0  0  0  0
    1.5658   -0.0687    0.2791 C   0  0  0  0  0  0  0  0  0  0  0  0
   -1.0072    0.0114    0.7696 C   0  0  0  0  0  0  0  0  0  0  0  0
    1.3814    0.6870    1.5681 C   0  0  0  0  0  0  0  0  0  0  0  0
   -0.9636   -1.5427    0.7837 C   0  0  0  0  0  0  0  0  0  0  0  0
   -2.0554    0.3752   -0.2977 C   0  0  0  0  0  0  0  0  0  0  0  0
   -2.9997   -0.8306   -0.3688 C   0  0  0  0  0  0  0  0  0  0  0  0
   -2.0097   -1.9962   -0.2523 C   0  0  0  0  0  0  0  0  0  0  0  0
    1.4917   -1.5301    0.3091 C   0  0  0  0  0  0  0  0  0  0  0  0
    0.3591   -2.2146    0.5335 C   0  0  0  0  0  0  0  0  0  0  0  0
    0.2007    2.0646   -0.1269 C   0  0  0  0  0  0  0  0  0  0  0  0
    2.5318    0.4459   -0.7155 C   0  0  0  0  0  0  0  0  0  0  0  0
   -3.7599   -0.8698   -1.6967 C   0  0  0  0  0  0  0  0  0  0  0  0
   -4.0097   -0.8285    0.7898 C   0  0  0  0  0  0  0  0  0  0  0  0
    2.6857   -2.3647    0.1016 C   0  0  0  0  0  0  0  0  0  0  0  0
   -0.2149    4.3434    0.3401 C   0  0  0  0  0  0  0  0  0  0  0  0
  1 15  1  0
  1 20  1  0
  2 15  2  0
  3 16  2  0
  4 19  2  0
  5  6  1  0
  5  7  1  0
  5  8  1  0
  5 15  1  0
  6  8  1  0
  6 13  1  0
  6 16  1  0
  7  9  1  0
  7 10  1  0
  9 12  1  0
  9 14  1  0
 10 11  1  0
 11 12  1  0
 11 17  1  0
 11 18  1  0
 13 14  2  0
 13 19  1  0
M  END
>  <PUBCHEM_COMPOUND_CID>  (1) 
16655

>  <PUBCHEM_CONFORMER_RMSD>  (1) 
0.6

>  <PUBCHEM_CONFORMER_DIVERSEORDER>  (1) 
1
10
4
5
8
7
9
6
3
2

>  <PUBCHEM_MMFF94_PARTIAL_CHARGES>  (1) 
20
1 -0.43
13 -0.03
14 -0.29
15 0.72
16 0.51
19 0.5
2 -0.57
20 0.28
22 0.1
23 0.1
29 0.15
3 -0.57
30 0.06
37 0.06
4 -0.57
5 -0.09
6 0.04
7 0.09
8 -0.2
9 0.14

>  <PUBCHEM_EFFECTIVE_ROTOR_COUNT>  (1) 
4.8

>  <PUBCHEM_PHARMACOPHORE_FEATURES>  (1) 
6
1 2 acceptor
1 3 acceptor
1 4 acceptor
3 11 17 18 hydrophobe
5 7 9 10 11 12 rings
7 5 6 7 8 9 13 14 rings

>  <PUBCHEM_HEAVY_ATOM_COUNT>  (1) 
20

>  <PUBCHEM_ATOM_DEF_STEREO_COUNT>  (1) 
3

>  <PUBCHEM_ATOM_UDEF_STEREO_COUNT>  (1) 
1

>  <PUBCHEM_BOND_DEF_STEREO_COUNT>  (1) 
0

>  <PUBCHEM_BOND_UDEF_STEREO_COUNT>  (1) 
0

>  <PUBCHEM_ISOTOPIC_ATOM_COUNT>  (1) 
0

>  <PUBCHEM_COMPONENT_COUNT>  (1) 
1

>  <PUBCHEM_CACTVS_TAUTO_COUNT>  (1) 
1

>  <PUBCHEM_CONFORMER_ID>  (1) 
0000410F00000001

>  <PUBCHEM_MMFF94_ENERGY>  (1) 
57.5461

>  <PUBCHEM_FEATURE_SELFOVERLAP>  (1) 
30.492

>  <PUBCHEM_SHAPE_FINGERPRINT>  (1) 
104564 63 18123468267824810707
10967382 1 18338236088678864762
11578080 2 17558803149273338489
116883 192 18125437510271939687
12035759 4 18116460092869114206
12423570 1 15379961885015822618
12553582 1 18413112766243180647
12725867 57 18341598356755932400
13134695 92 18340474643034857951
13140716 1 18264480685832315155
14817 1 11590799074624227861
15210252 30 17822562807622759901
16945 1 18267015231954213723
19591789 44 16970551015456951075
21041028 32 18337685105015903241
21524375 3 17036401329343214545
22112679 90 18199764565055363419
2255824 54 18126284379249348959
22620623 9 17841720603904445134
2334 1 18336820918783071099
23402539 116 18337389331892980590
23419403 2 17105310768314271704
23559900 14 18195541509399523052
238 59 17978201058230924143
25 1 18189621720613043279
2748010 2 18265877117038932091
3060560 45 18267284607981879383
5262128 65 17843140335255570869
5845 1 8031322809262169602
7364860 26 18194960979189754561
74978 22 18269273646212817379
7832392 63 18342451518187601585
81228 2 18119240666969354192

>  <PUBCHEM_SHAPE_MULTIPOLES>  (1) 
388.11
5.08
3.69
1.29
3.19
4.12
0.35
-3.45
1.38
-1.57
-0.44
0.07
0.16
-0.11

>  <PUBCHEM_SHAPE_SELFOVERLAP>  (1) 
837.592

>  <PUBCHEM_SHAPE_VOLUME>  (1) 
214.9

>  <PUBCHEM_COORDINATE_TYPE>  (1) 
2
5
10

$$$$
