16661
     RDKit          3D

 16 17  0  0  0  0  0  0  0  0999 V2000
    0.2971   -0.3672    1.0124 O   0  0  0  0  0  0  0  0  0  0  0  0
   -3.0270   -2.1893   -0.4940 O   0  0  0  0  0  0  0  0  0  0  0  0
   -1.0369   -2.3582    0.4170 O   0  0  0  0  0  0  0  0  0  0  0  0
   -1.9878   -1.6697   -0.0228 N   0  0  0  0  0  0  0  0  0  0  0  0
   -0.7453    0.3671    0.5292 C   0  0  0  0  0  0  0  0  0  0  0  0
   -1.8842   -0.2518    0.0136 C   0  0  0  0  0  0  0  0  0  0  0  0
    1.5309   -0.2043    0.4077 C   0  0  0  0  0  0  0  0  0  0  0  0
   -0.6601    1.7592    0.5568 C   0  0  0  0  0  0  0  0  0  0  0  0
   -2.9377    0.5215   -0.4742 C   0  0  0  0  0  0  0  0  0  0  0  0
   -1.7136    2.5324    0.0691 C   0  0  0  0  0  0  0  0  0  0  0  0
   -2.8523    1.9135   -0.4464 C   0  0  0  0  0  0  0  0  0  0  0  0
    1.6075   -0.1798   -0.9736 C   0  0  0  0  0  0  0  0  0  0  0  0
    2.6577   -0.0705    1.1995 C   0  0  0  0  0  0  0  0  0  0  0  0
    2.8515   -0.0163   -1.5831 C   0  0  0  0  0  0  0  0  0  0  0  0
    3.9017    0.0931    0.5900 C   0  0  0  0  0  0  0  0  0  0  0  0
    3.9985    0.1202   -0.8013 C   0  0  0  0  0  0  0  0  0  0  0  0
  1  5  1  0
  1  7  1  0
  2  4  1  0
  3  4  2  0
  4  6  1  0
  5  6  2  0
  5  8  1  0
  6  9  1  0
  7 12  2  0
  7 13  1  0
  8 10  2  0
  9 11  2  0
 10 11  1  0
 12 14  1  0
 13 15  2  0
 14 16  2  0
 15 16  1  0
M  CHG  2   2  -1   4   1
M  END
>  <PUBCHEM_COMPOUND_CID>  (1) 
16661

>  <PUBCHEM_CONFORMER_RMSD>  (1) 
0.6

>  <PUBCHEM_CONFORMER_DIVERSEORDER>  (1) 
1
4
3
5
2

>  <PUBCHEM_MMFF94_PARTIAL_CHARGES>  (1) 
25
1 -0.17
10 -0.15
11 -0.15
12 -0.15
13 -0.15
14 -0.15
15 -0.15
16 -0.15
17 0.15
18 0.15
19 0.15
2 -0.52
20 0.15
21 0.15
22 0.15
23 0.15
24 0.15
25 0.15
3 -0.52
4 0.91
5 0.08
6 0.13
7 0.08
8 -0.15
9 -0.15

>  <PUBCHEM_EFFECTIVE_ROTOR_COUNT>  (1) 
3

>  <PUBCHEM_PHARMACOPHORE_FEATURES>  (1) 
6
1 1 acceptor
1 2 acceptor
1 2 anion
1 3 acceptor
6 5 6 8 9 10 11 rings
6 7 12 13 14 15 16 rings

>  <PUBCHEM_HEAVY_ATOM_COUNT>  (1) 
16

>  <PUBCHEM_ATOM_DEF_STEREO_COUNT>  (1) 
0

>  <PUBCHEM_ATOM_UDEF_STEREO_COUNT>  (1) 
0

>  <PUBCHEM_BOND_DEF_STEREO_COUNT>  (1) 
0

>  <PUBCHEM_BOND_UDEF_STEREO_COUNT>  (1) 
0

>  <PUBCHEM_ISOTOPIC_ATOM_COUNT>  (1) 
0

>  <PUBCHEM_COMPONENT_COUNT>  (1) 
1

>  <PUBCHEM_CACTVS_TAUTO_COUNT>  (1) 
1

>  <PUBCHEM_CONFORMER_ID>  (1) 
0000411500000001

>  <PUBCHEM_MMFF94_ENERGY>  (1) 
59.7904

>  <PUBCHEM_FEATURE_SELFOVERLAP>  (1) 
30.55

>  <PUBCHEM_SHAPE_FINGERPRINT>  (1) 
11640471 11 17749116556242262620
12138202 97 18341891840281750692
12173636 292 18194679268122244309
12236239 1 17748822999395713864
12500047 106 18339357457822354478
12553582 1 18192992845003034923
12716758 59 18341616953800702706
13296908 3 17775288278741599910
13538477 17 18260260833045164232
13583140 156 17773289341423532066
15502708 8 18412546517854862473
15669948 3 18407755928333399298
15775835 57 17821733784387068524
15852999 172 18128533769465075182
16752209 62 18335410288298755915
16945 1 18411419488276902929
17134986 127 17688312283178620925
17357779 13 17844508097924934647
1741750 31 18267304227192020777
18186145 218 17987237720560460000
18522853 266 18337951190998490218
18534176 82 18272932700128589296
19868273 293 18334860472107146004
20279233 1 17775001271947147846
20510252 161 18412828005489648035
20645476 183 18041282080193542735
20645477 56 18410860919211365376
20645477 70 16415200019050325764
20871999 31 18411981386195185653
21524375 3 17899134919057838313
22802520 49 17988089876368154934
23402539 116 18339630187823709492
23526113 38 17489576827683551858
23557571 272 18271526498103501872
23559900 14 18200590299047471610
23598291 2 17677599883360321754
2748010 2 18123734607700630825
6049 1 17917996100613592616
7615 1 17821726156836166196
77492 1 17676483934776223880
81228 2 18339933691956635331
88987 49 18410289177644278112
9709674 26 18130227047584606838

>  <PUBCHEM_SHAPE_MULTIPOLES>  (1) 
306.68
6.36
2.13
1.14
4.02
0.38
0.15
-0.49
1.21
-2.92
-0.04
0.95
-0.03
-0.04

>  <PUBCHEM_SHAPE_SELFOVERLAP>  (1) 
667.096

>  <PUBCHEM_SHAPE_VOLUME>  (1) 
167

>  <PUBCHEM_COORDINATE_TYPE>  (1) 
2
5
10

$$$$
