16664
     RDKit          3D

  9  8  0  0  1  0  0  0  0  0999 V2000
    2.0117   -0.5115   -0.3402 C   0  0  0  0  0  0  0  0  0  0  0  0
    0.5819   -0.3014   -0.8812 C   0  0  0  0  0  0  0  0  0  0  0  0
   -0.5194   -0.2601    0.1832 C   0  0  0  0  0  0  0  0  0  0  0  0
    2.5052    0.6075    0.5961 C   0  0  0  0  0  0  0  0  0  0  0  0
   -1.8844    0.0280   -0.4483 C   0  0  0  0  0  0  0  0  0  0  0  0
    2.1541   -1.8691    0.3560 C   0  0  0  0  0  0  0  0  0  0  0  0
   -2.9937    0.0331    0.6034 C   0  0  0  0  0  0  0  0  0  0  0  0
    2.4997    1.9878   -0.0448 C   0  0  0  0  0  0  0  0  0  0  0  0
   -4.3552    0.2856   -0.0243 C   0  0  0  0  0  0  0  0  0  0  0  0
  1  2  1  0
  1  4  1  0
  1  6  1  0
  2  3  1  0
  3  5  1  0
  4  8  1  0
  5  7  1  0
  7  9  1  0
M  END
>  <PUBCHEM_COMPOUND_CID>  (1) 
16664

>  <PUBCHEM_CONFORMER_RMSD>  (1) 
0.6

>  <PUBCHEM_CONFORMER_DIVERSEORDER>  (1) 
2
54
8
56
83
30
81
97
46
87
14
10
47
43
40
93
53
23
96
90
59
92
37
72
58
12
6
76
4
85
63
99
89
60
57
39
71
75
88
74
61
44
51
70
25
82
35
17
98
1
67
55
3
50
49
36
69
52
16
48
78
24
18
11
86
41
73
62
95
13
64
84
66
21
42
33
68
32
29
15
79
80
28
94
9
38
26
45
19
22
65
91
31
77
34
27
20
5
7

>  <PUBCHEM_MMFF94_PARTIAL_CHARGES>  (1) 
0

>  <PUBCHEM_EFFECTIVE_ROTOR_COUNT>  (1) 
5

>  <PUBCHEM_PHARMACOPHORE_FEATURES>  (1) 
5
1 6 hydrophobe
1 8 hydrophobe
1 9 hydrophobe
3 1 2 4 hydrophobe
3 3 5 7 hydrophobe

>  <PUBCHEM_HEAVY_ATOM_COUNT>  (1) 
9

>  <PUBCHEM_ATOM_DEF_STEREO_COUNT>  (1) 
0

>  <PUBCHEM_ATOM_UDEF_STEREO_COUNT>  (1) 
1

>  <PUBCHEM_BOND_DEF_STEREO_COUNT>  (1) 
0

>  <PUBCHEM_BOND_UDEF_STEREO_COUNT>  (1) 
0

>  <PUBCHEM_ISOTOPIC_ATOM_COUNT>  (1) 
0

>  <PUBCHEM_COMPONENT_COUNT>  (1) 
1

>  <PUBCHEM_CACTVS_TAUTO_COUNT>  (1) 
1

>  <PUBCHEM_CONFORMER_ID>  (1) 
0000411800000002

>  <PUBCHEM_MMFF94_ENERGY>  (1) 
0.9228

>  <PUBCHEM_FEATURE_SELFOVERLAP>  (1) 
25.698

>  <PUBCHEM_SHAPE_FINGERPRINT>  (1) 
10857977 72 16950284026785870351
12162725 195 18131073688802051449
12932764 1 18335702723926309831
14325111 11 18412263939335404751
14390081 3 17988926707870012473
15775835 57 17988079014527991848
170605 34 18201442527257921244
18186145 218 18342463603972267383
20645477 70 18339921524525795399
20871998 22 18054507994196149742
3248919 1 17346320367174614271
449060 62 18342744047782735353

>  <PUBCHEM_SHAPE_MULTIPOLES>  (1) 
185.22
6.54
1.54
0.84
7.4
0.15
0.04
1.24
-0.76
-2.06
-0.13
-0.04
-0.03
-0.03

>  <PUBCHEM_SHAPE_SELFOVERLAP>  (1) 
323.541

>  <PUBCHEM_SHAPE_VOLUME>  (1) 
124

>  <PUBCHEM_COORDINATE_TYPE>  (1) 
2
5
10

$$$$
