16668
     RDKit          3D

 12 13  0  0  0  0  0  0  0  0999 V2000
   -1.9946   -1.4120    0.0001 O   0  0  0  0  0  0  0  0  0  0  0  0
    0.1684   -0.3365    0.0001 C   0  0  0  0  0  0  0  0  0  0  0  0
    0.9125    0.8672   -0.0001 C   0  0  0  0  0  0  0  0  0  0  0  0
   -1.2347   -0.2769    0.0000 C   0  0  0  0  0  0  0  0  0  0  0  0
    0.2313    2.0954   -0.0002 C   0  0  0  0  0  0  0  0  0  0  0  0
    0.8494   -1.5648   -0.0002 C   0  0  0  0  0  0  0  0  0  0  0  0
    2.3156    0.8075    0.0000 C   0  0  0  0  0  0  0  0  0  0  0  0
   -1.8951    0.9521    0.0001 C   0  0  0  0  0  0  0  0  0  0  0  0
   -1.1634    2.1359    0.0001 C   0  0  0  0  0  0  0  0  0  0  0  0
    2.2440   -1.6056    0.0000 C   0  0  0  0  0  0  0  0  0  0  0  0
    2.9756   -0.4218    0.0003 C   0  0  0  0  0  0  0  0  0  0  0  0
   -3.4088   -1.2406    0.0000 C   0  0  0  0  0  0  0  0  0  0  0  0
  1  4  1  0
  1 12  1  0
  2  3  1  0
  2  4  2  0
  2  6  1  0
  3  5  2  0
  3  7  1  0
  4  8  1  0
  5  9  1  0
  6 10  2  0
  7 11  2  0
  8  9  2  0
 10 11  1  0
M  END
>  <PUBCHEM_COMPOUND_CID>  (1) 
16668

>  <PUBCHEM_CONFORMER_RMSD>  (1) 
0.4

>  <PUBCHEM_CONFORMER_DIVERSEORDER>  (1) 
3
1
2

>  <PUBCHEM_MMFF94_PARTIAL_CHARGES>  (1) 
17
1 -0.36
10 -0.15
11 -0.15
12 0.28
13 0.15
14 0.15
15 0.15
16 0.15
17 0.15
18 0.15
19 0.15
4 0.08
5 -0.15
6 -0.15
7 -0.15
8 -0.15
9 -0.15

>  <PUBCHEM_EFFECTIVE_ROTOR_COUNT>  (1) 
1

>  <PUBCHEM_PHARMACOPHORE_FEATURES>  (1) 
3
1 1 acceptor
6 2 3 4 5 8 9 rings
6 2 3 6 7 10 11 rings

>  <PUBCHEM_HEAVY_ATOM_COUNT>  (1) 
12

>  <PUBCHEM_ATOM_DEF_STEREO_COUNT>  (1) 
0

>  <PUBCHEM_ATOM_UDEF_STEREO_COUNT>  (1) 
0

>  <PUBCHEM_BOND_DEF_STEREO_COUNT>  (1) 
0

>  <PUBCHEM_BOND_UDEF_STEREO_COUNT>  (1) 
0

>  <PUBCHEM_ISOTOPIC_ATOM_COUNT>  (1) 
0

>  <PUBCHEM_COMPONENT_COUNT>  (1) 
1

>  <PUBCHEM_CACTVS_TAUTO_COUNT>  (1) 
1

>  <PUBCHEM_CONFORMER_ID>  (1) 
0000411C00000003

>  <PUBCHEM_MMFF94_ENERGY>  (1) 
45.5498

>  <PUBCHEM_FEATURE_SELFOVERLAP>  (1) 
15.249

>  <PUBCHEM_SHAPE_FINGERPRINT>  (1) 
10967382 1 18194401327618138151
11206711 2 18408326570546887332
11471102 20 18337948017181000591
12423570 1 15610212771188538764
12524768 44 18124881148750786606
13380535 76 17980753840234964959
14251717 144 18123744516169428015
161256 15 18341047518536556048
16945 1 18122626046276140068
193761 8 18266741281411889956
19973954 147 18339080376438918980
20201158 50 18334853973985358915
20645477 70 17976812409695314511
20871998 184 18129941178587099543
20871998 22 18342468031704163807
21040471 1 17906452126090981348
21501502 16 18337956688382250488
2334 1 18410573985167281894
23463225 33 18409450284310081582
23552423 10 18260834765314344364
23559900 14 17550669912389194766
241688 4 18409449159002523472
2748010 2 18411695469969148132
5084963 1 18273500095520725306
528886 8 18339355258519543584

>  <PUBCHEM_SHAPE_MULTIPOLES>  (1) 
241.09
4.18
2.28
0.61
0.62
0.58
0
-1.83
0
0.53
0
-0.01
0.01
0

>  <PUBCHEM_SHAPE_SELFOVERLAP>  (1) 
526.066

>  <PUBCHEM_SHAPE_VOLUME>  (1) 
132.7

>  <PUBCHEM_COORDINATE_TYPE>  (1) 
2
5
10

$$$$
