16662
     RDKit          3D

  9  8  0  0  1  0  0  0  0  0999 V2000
   -1.4013   -0.1009    0.3208 C   0  0  0  0  0  0  0  0  0  0  0  0
    0.0419    0.2058   -0.1393 C   0  0  0  0  0  0  0  0  0  0  0  0
    1.1174   -0.4792    0.7139 C   0  0  0  0  0  0  0  0  0  0  0  0
    2.5538   -0.1196    0.2872 C   0  0  0  0  0  0  0  0  0  0  0  0
   -2.3841    0.7639   -0.4965 C   0  0  0  0  0  0  0  0  0  0  0  0
   -1.7276   -1.5924    0.1983 C   0  0  0  0  0  0  0  0  0  0  0  0
    2.8126    1.3871    0.3232 C   0  0  0  0  0  0  0  0  0  0  0  0
    2.8280   -0.6581   -1.1193 C   0  0  0  0  0  0  0  0  0  0  0  0
   -3.8408    0.5934   -0.0883 C   0  0  0  0  0  0  0  0  0  0  0  0
  1  2  1  0
  1  5  1  0
  1  6  1  0
  2  3  1  0
  3  4  1  0
  4  7  1  0
  4  8  1  0
  5  9  1  0
M  END
>  <PUBCHEM_COMPOUND_CID>  (1) 
16662

>  <PUBCHEM_CONFORMER_RMSD>  (1) 
0.6

>  <PUBCHEM_CONFORMER_DIVERSEORDER>  (1) 
1
4
11
6
12
2
3
7
10
8
9
5

>  <PUBCHEM_MMFF94_PARTIAL_CHARGES>  (1) 
0

>  <PUBCHEM_EFFECTIVE_ROTOR_COUNT>  (1) 
4

>  <PUBCHEM_PHARMACOPHORE_FEATURES>  (1) 
4
1 6 hydrophobe
1 9 hydrophobe
3 4 7 8 hydrophobe
5 1 2 3 4 5 hydrophobe

>  <PUBCHEM_HEAVY_ATOM_COUNT>  (1) 
9

>  <PUBCHEM_ATOM_DEF_STEREO_COUNT>  (1) 
0

>  <PUBCHEM_ATOM_UDEF_STEREO_COUNT>  (1) 
1

>  <PUBCHEM_BOND_DEF_STEREO_COUNT>  (1) 
0

>  <PUBCHEM_BOND_UDEF_STEREO_COUNT>  (1) 
0

>  <PUBCHEM_ISOTOPIC_ATOM_COUNT>  (1) 
0

>  <PUBCHEM_COMPONENT_COUNT>  (1) 
1

>  <PUBCHEM_CACTVS_TAUTO_COUNT>  (1) 
1

>  <PUBCHEM_CONFORMER_ID>  (1) 
0000411600000001

>  <PUBCHEM_MMFF94_ENERGY>  (1) 
7.8935

>  <PUBCHEM_FEATURE_SELFOVERLAP>  (1) 
20.34

>  <PUBCHEM_SHAPE_FINGERPRINT>  (1) 
11062470 55 16702016470124085641
12897270 3 18413393137571298434
12932741 1 18342745138804317474
12932764 1 18040429984140551323
14325111 11 18409163294975171033
14390081 3 18333726922800304201
15775835 57 18040433291523780168
177051 138 9943806694416994913
18186145 218 18341610361400709477
20201158 50 18060143098388052830
20279233 1 18202003239644293990
20645464 45 18410568504815438091
20645477 70 17561086869315635182
20651381 32 17560804320596872486
20653085 51 18129948884127719537
21293036 1 18343015597379772501
3248919 1 17775006790811415786

>  <PUBCHEM_SHAPE_MULTIPOLES>  (1) 
185.22
6.07
1.3
0.88
1.69
0.12
-0.12
-1.39
-0.73
0.02
0.05
-0.42
0.09
0.51

>  <PUBCHEM_SHAPE_SELFOVERLAP>  (1) 
327.133

>  <PUBCHEM_SHAPE_VOLUME>  (1) 
123.8

>  <PUBCHEM_COORDINATE_TYPE>  (1) 
2
5
10

$$$$
