1667
     RDKit          3D

 21 23  0  0  0  0  0  0  0  0999 V2000
   -1.8322    2.2667   -0.3545 O   0  0  0  0  0  0  0  0  0  0  0  0
   -1.2666   -3.0578    0.3708 O   0  0  0  0  0  0  0  0  0  0  0  0
    1.1573    3.1365    1.3507 O   0  0  0  0  0  0  0  0  0  0  0  0
    6.1849   -0.2650   -1.6398 O   0  0  0  0  0  0  0  0  0  0  0  0
   -4.0630    0.6750   -0.5086 N   0  0  0  0  0  0  0  0  0  0  0  0
    1.0544   -1.1777    0.5032 N   0  0  0  0  0  0  0  0  0  0  0  0
   -5.0504   -0.1273   -1.2257 C   0  0  0  0  0  0  0  0  0  0  0  0
   -5.2178    0.1673    0.2272 C   0  0  0  0  0  0  0  0  0  0  0  0
   -2.8500    0.0986   -0.2520 C   0  0  0  0  0  0  0  0  0  0  0  0
   -0.4066    0.4466    0.0843 C   0  0  0  0  0  0  0  0  0  0  0  0
   -0.2677   -0.9122    0.2684 C   0  0  0  0  0  0  0  0  0  0  0  0
    1.7652   -0.0047    0.4719 C   0  0  0  0  0  0  0  0  0  0  0  0
    0.8824    1.0223    0.2139 C   0  0  0  0  0  0  0  0  0  0  0  0
   -1.6872    1.0612   -0.1872 C   0  0  0  0  0  0  0  0  0  0  0  0
    3.2272    0.0312    0.6920 C   0  0  0  0  0  0  0  0  0  0  0  0
   -2.6841   -1.2261   -0.0678 C   0  0  0  0  0  0  0  0  0  0  0  0
   -1.3553   -1.8446    0.2119 C   0  0  0  0  0  0  0  0  0  0  0  0
    1.2291    2.4536    0.0964 C   0  0  0  0  0  0  0  0  0  0  0  0
    4.0247   -0.1212   -0.6162 C   0  0  0  0  0  0  0  0  0  0  0  0
    1.6262   -2.4851    0.7467 C   0  0  0  0  0  0  0  0  0  0  0  0
    5.5295   -0.1374   -0.3857 C   0  0  0  0  0  0  0  0  0  0  0  0
  1 14  2  0
  2 17  2  0
  3 18  1  0
  4 21  1  0
  5  7  1  0
  5  8  1  0
  5  9  1  0
  6 11  1  0
  6 12  1  0
  6 20  1  0
  7  8  1  0
  9 14  1  0
  9 16  2  0
 10 11  2  0
 10 13  1  0
 10 14  1  0
 11 17  1  0
 12 13  2  0
 12 15  1  0
 13 18  1  0
 15 19  1  0
 16 17  1  0
 19 21  1  0
M  END
>  <PUBCHEM_COMPOUND_CID>  (1) 
1667

>  <PUBCHEM_CONFORMER_RMSD>  (1) 
0.8

>  <PUBCHEM_CONFORMER_DIVERSEORDER>  (1) 
2
10
7
5
13
1
6
12
9
8
3
4
11

>  <PUBCHEM_MMFF94_PARTIAL_CHARGES>  (1) 
27
1 -0.57
10 -0.09
11 -0.24
12 -0.33
13 -0.18
14 0.64
15 0.18
16 -0.14
17 0.64
18 0.46
2 -0.57
20 0.26
21 0.28
22 0.1
23 0.1
24 0.1
25 0.1
28 0.15
3 -0.68
38 0.4
39 0.4
4 -0.68
5 -0.44
6 0.05
7 -0.03
8 -0.03
9 0.11

>  <PUBCHEM_EFFECTIVE_ROTOR_COUNT>  (1) 
5.6

>  <PUBCHEM_PHARMACOPHORE_FEATURES>  (1) 
10
1 1 acceptor
1 2 acceptor
1 3 acceptor
1 3 donor
1 4 acceptor
1 4 donor
1 5 cation
1 6 cation
5 6 10 11 12 13 rings
6 9 10 11 14 16 17 rings

>  <PUBCHEM_HEAVY_ATOM_COUNT>  (1) 
21

>  <PUBCHEM_ATOM_DEF_STEREO_COUNT>  (1) 
0

>  <PUBCHEM_ATOM_UDEF_STEREO_COUNT>  (1) 
0

>  <PUBCHEM_BOND_DEF_STEREO_COUNT>  (1) 
0

>  <PUBCHEM_BOND_UDEF_STEREO_COUNT>  (1) 
0

>  <PUBCHEM_ISOTOPIC_ATOM_COUNT>  (1) 
0

>  <PUBCHEM_COMPONENT_COUNT>  (1) 
1

>  <PUBCHEM_CACTVS_TAUTO_COUNT>  (1) 
1

>  <PUBCHEM_CONFORMER_ID>  (1) 
0000068300000002

>  <PUBCHEM_MMFF94_ENERGY>  (1) 
55.2082

>  <PUBCHEM_FEATURE_SELFOVERLAP>  (1) 
50.832

>  <PUBCHEM_SHAPE_FINGERPRINT>  (1) 
10366900 7 18259980479387357329
10693767 8 18130211667069908583
10759866 29 17677325013858520506
10967382 1 18409157797343283203
11578080 2 16914238865868072099
11680986 33 18195804295918389817
11796584 16 15123791777644823509
12011746 2 18409726253365533397
12236239 1 17385443220073810950
12390115 104 18198913504701991553
12403259 415 18260816125726453437
12553582 1 18338503192826806673
12788726 201 18269836423977163728
12954195 1 18200323104351788484
13140716 1 18192418891121082473
13540713 4 18122058977311782835
13862211 1 18410564076662165723
14115302 16 18260552259350447092
14790565 3 18408895013832935013
14911166 2 18410854369317257990
15048467 5 17167581583393294198
15099037 51 18410855477339796558
15196674 1 18337106894584755993
15475509 8 17915760707237569108
15536298 74 18270672198917085721
1601671 61 18335698325658057418
16945 1 18337094739895893299
17804303 29 18410011082500776888
1813 80 14476695113330074080
18186145 218 18339628028114646317
19591789 44 18264208200338504499
200 152 16630526232581124598
20871999 31 18411704253425396180
21029758 11 18343300375081157256
21267235 1 18411703231734889095
21637258 2 16056870300185765494
23175994 123 17561366196740112896
2334 1 17904194085536678539
23402539 116 18343860004839937277
23557571 272 18201730501079502164
23558518 356 17684357739348331074
23559900 14 18341050830732015616
23566358 2 18267020548907435718
23569943 247 17773042951180984102
26918003 58 12823292412169475349
2748010 2 17975970178801757227
3004659 81 18187646856966665410
335352 9 18410008849101887519
34934 24 18411410731202771666
350125 39 18335983078275810749
3759504 43 17458348562777281427
4340502 62 16081093640941824659
7364860 26 18341038696700071577
9709674 26 18125151899252265707

>  <PUBCHEM_SHAPE_MULTIPOLES>  (1) 
398.73
10.06
2.61
0.97
4.36
0.17
-0.15
-0.21
-4.63
0.06
0.87
0.6
0.12
0.32

>  <PUBCHEM_SHAPE_SELFOVERLAP>  (1) 
855.108

>  <PUBCHEM_SHAPE_VOLUME>  (1) 
224.4

>  <PUBCHEM_COORDINATE_TYPE>  (1) 
2
5
10

$$$$
