16671
     RDKit          3D

 11 12  0  0  0  0  0  0  0  0999 V2000
    1.7106    2.2282    0.0684 N   0  0  0  0  0  0  0  0  0  0  0  0
   -2.4433    0.9826   -0.3529 C   0  0  0  0  0  0  0  0  0  0  0  0
   -2.7391   -0.3344    0.3531 C   0  0  0  0  0  0  0  0  0  0  0  0
   -1.0680    1.5090    0.0531 C   0  0  0  0  0  0  0  0  0  0  0  0
   -1.7260   -1.4005   -0.0592 C   0  0  0  0  0  0  0  0  0  0  0  0
    0.0118    0.4573   -0.0005 C   0  0  0  0  0  0  0  0  0  0  0  0
   -0.2984   -0.9154   -0.0129 C   0  0  0  0  0  0  0  0  0  0  0  0
    1.3559    0.8593    0.0203 C   0  0  0  0  0  0  0  0  0  0  0  0
    0.7419   -1.8563   -0.0410 C   0  0  0  0  0  0  0  0  0  0  0  0
    2.3807   -0.0863    0.0022 C   0  0  0  0  0  0  0  0  0  0  0  0
    2.0738   -1.4433   -0.0307 C   0  0  0  0  0  0  0  0  0  0  0  0
  1  8  1  0
  2  3  1  0
  2  4  1  0
  3  5  1  0
  4  6  1  0
  5  7  1  0
  6  7  2  0
  6  8  1  0
  7  9  1  0
  8 10  2  0
  9 11  2  0
 10 11  1  0
M  END
>  <PUBCHEM_COMPOUND_CID>  (1) 
16671

>  <PUBCHEM_CONFORMER_RMSD>  (1) 
0.4

>  <PUBCHEM_CONFORMER_DIVERSEORDER>  (1) 
1

>  <PUBCHEM_MMFF94_PARTIAL_CHARGES>  (1) 
14
1 -0.9
10 -0.15
11 -0.15
20 0.15
21 0.15
22 0.15
23 0.4
24 0.4
4 0.14
5 0.14
6 -0.14
7 -0.14
8 0.1
9 -0.15

>  <PUBCHEM_EFFECTIVE_ROTOR_COUNT>  (1) 
0.8

>  <PUBCHEM_PHARMACOPHORE_FEATURES>  (1) 
4
1 1 cation
1 1 donor
6 2 3 4 5 6 7 rings
6 6 7 8 9 10 11 rings

>  <PUBCHEM_HEAVY_ATOM_COUNT>  (1) 
11

>  <PUBCHEM_ATOM_DEF_STEREO_COUNT>  (1) 
0

>  <PUBCHEM_ATOM_UDEF_STEREO_COUNT>  (1) 
0

>  <PUBCHEM_BOND_DEF_STEREO_COUNT>  (1) 
0

>  <PUBCHEM_BOND_UDEF_STEREO_COUNT>  (1) 
0

>  <PUBCHEM_ISOTOPIC_ATOM_COUNT>  (1) 
0

>  <PUBCHEM_COMPONENT_COUNT>  (1) 
1

>  <PUBCHEM_CACTVS_TAUTO_COUNT>  (1) 
1

>  <PUBCHEM_CONFORMER_ID>  (1) 
0000411F00000001

>  <PUBCHEM_MMFF94_ENERGY>  (1) 
33.0068

>  <PUBCHEM_FEATURE_SELFOVERLAP>  (1) 
20.318

>  <PUBCHEM_SHAPE_FINGERPRINT>  (1) 
11206711 2 18408889511884019823
12524768 44 18408323310856619775
12897270 3 18410011056857515229
16945 1 18411419479554872047
17844478 74 18041857159382417569
17990270 104 18410855417184029954
193761 8 18194682794263630414
19973954 147 18410576175769446897
20201158 50 18337950091312665727
21040471 1 18122626329780742472
21501502 16 18410293635672527839
2334 1 18122905596912147919
23402655 69 18196356045325103733
23552423 10 18334858346056104063
23559900 14 17981890736350868734
241688 4 17762903169144083306
25 1 17468182354795940213
2748010 2 18266459995392569991
5084963 1 18202002139858275331
528886 8 18411413986270660067
53812653 166 18342451543688380152
63268167 104 18338239258354043259
66348 1 18051130289636659873
7364860 26 18343585165930609428

>  <PUBCHEM_SHAPE_MULTIPOLES>  (1) 
221.39
3.61
2.13
0.63
0.85
0.33
0
-0.02
-0.03
-0.54
0
0.07
-0.01
0.13

>  <PUBCHEM_SHAPE_SELFOVERLAP>  (1) 
469.992

>  <PUBCHEM_SHAPE_VOLUME>  (1) 
121.8

>  <PUBCHEM_COORDINATE_TYPE>  (1) 
2
5
10

$$$$
