16674
     RDKit          3D

 14 13  0  0  0  0  0  0  0  0999 V2000
   -1.4479    1.4738    0.1997 O   0  0  0  0  0  0  0  0  0  0  0  0
    0.3621    2.1994   -0.9924 O   0  0  0  0  0  0  0  0  0  0  0  0
    0.2971    0.0093   -0.1558 N   0  0  0  0  0  0  0  0  0  0  0  0
    1.5803   -0.3886   -0.6653 C   0  0  0  0  0  0  0  0  0  0  0  0
   -0.4566   -0.9969    0.5984 C   0  0  0  0  0  0  0  0  0  0  0  0
    2.7094   -0.1120    0.3217 C   0  0  0  0  0  0  0  0  0  0  0  0
   -1.3653   -1.8340   -0.2956 C   0  0  0  0  0  0  0  0  0  0  0  0
    4.0813   -0.5091   -0.2280 C   0  0  0  0  0  0  0  0  0  0  0  0
   -2.1745   -2.8674    0.4914 C   0  0  0  0  0  0  0  0  0  0  0  0
   -0.2136    1.3076   -0.3713 C   0  0  0  0  0  0  0  0  0  0  0  0
    5.1925   -0.1667    0.7523 C   0  0  0  0  0  0  0  0  0  0  0  0
   -3.1144   -3.6451   -0.4166 C   0  0  0  0  0  0  0  0  0  0  0  0
   -2.0511    2.7627    0.0365 C   0  0  0  0  0  0  0  0  0  0  0  0
   -3.3993    2.7669    0.7250 C   0  0  0  0  0  0  0  0  0  0  0  0
  1 10  1  0
  1 13  1  0
  2 10  2  0
  3  4  1  0
  3  5  1  0
  3 10  1  0
  4  6  1  0
  5  7  1  0
  6  8  1  0
  7  9  1  0
  8 11  1  0
  9 12  1  0
 13 14  1  0
M  END
>  <PUBCHEM_COMPOUND_CID>  (1) 
16674

>  <PUBCHEM_CONFORMER_RMSD>  (1) 
0.8

>  <PUBCHEM_CONFORMER_DIVERSEORDER>  (1) 
1
132
80
22
61
99
125
135
144
14
76
6
130
20
140
118
63
84
150
142
67
58
42
40
121
7
50
87
60
105
96
124
119
149
115
133
13
143
70
137
3
139
30
129
102
113
126
25
117
145
100
66
112
98
68
138
114
148
41
69
27
97
128
57
35
93
73
51
24
16
95
65
49
62
71
103
90
109
127
82
134
52
5
9
15
39
83
111
106
4
37
64
81
131
141
86
146
136
28
44
88
54
75
31
104
21
2
11
85
17
77
18
47
48
110
91
122
78
33
107
79
46
92
147
101
120
12
10
116
56
34
59
108
94
23
55
53
72
38
89
74
32
8
29
43
45
36
19
123
26

>  <PUBCHEM_MMFF94_PARTIAL_CHARGES>  (1) 
7
1 -0.43
10 0.78
13 0.28
2 -0.57
3 -0.66
4 0.3
5 0.3

>  <PUBCHEM_EFFECTIVE_ROTOR_COUNT>  (1) 
9

>  <PUBCHEM_PHARMACOPHORE_FEATURES>  (1) 
3
1 11 hydrophobe
1 12 hydrophobe
1 2 acceptor

>  <PUBCHEM_HEAVY_ATOM_COUNT>  (1) 
14

>  <PUBCHEM_ATOM_DEF_STEREO_COUNT>  (1) 
0

>  <PUBCHEM_ATOM_UDEF_STEREO_COUNT>  (1) 
0

>  <PUBCHEM_BOND_DEF_STEREO_COUNT>  (1) 
0

>  <PUBCHEM_BOND_UDEF_STEREO_COUNT>  (1) 
0

>  <PUBCHEM_ISOTOPIC_ATOM_COUNT>  (1) 
0

>  <PUBCHEM_COMPONENT_COUNT>  (1) 
1

>  <PUBCHEM_CACTVS_TAUTO_COUNT>  (1) 
1

>  <PUBCHEM_CONFORMER_ID>  (1) 
0000412200000001

>  <PUBCHEM_MMFF94_ENERGY>  (1) 
4.9368

>  <PUBCHEM_FEATURE_SELFOVERLAP>  (1) 
15.223

>  <PUBCHEM_SHAPE_FINGERPRINT>  (1) 
10756046 70 17604734203862549324
11265709 11 18264772249450164554
116883 192 18341060708623923431
12532896 13 18197216940810880007
13052359 8 18336544932864170359
13134695 92 17835795675050044863
136203 1 18411418418808791475
13955234 65 17259069489710281137
14178000 15 17907295803812932839
14178000 22 18192707847799213268
15042514 8 18335988579579693170
17539 30 18340759429473805119
201361 129 17264417535178331945
20671657 53 18051979422067966607
21041028 32 18194123147298380375
21202864 24 18339933631806143585
21426921 1 18411418427862975450
21501502 16 18334583490220439892
22224240 67 18198627636337799241
23402539 116 18341321245761471791
23419403 2 17202471368107398395
23530152 11 18122350069084317783
23557571 272 18272662233849189532
23558518 356 18262520406934687376
23598294 1 18335411349255794882
257057 1 18123471845685367179
3086196 2 18337665408322465138
474229 33 18337113337595187641
58734987 24 18411134723249670411
58779409 54 18337942467830124687
68521 5 18339081595998952838
7364860 26 17401766822686391803
81228 2 18334293192763432442

>  <PUBCHEM_SHAPE_MULTIPOLES>  (1) 
271.39
7.23
4.26
0.86
10.15
0.85
0
1.36
-1.65
-8.09
0.01
0.1
-0.08
-0.66

>  <PUBCHEM_SHAPE_SELFOVERLAP>  (1) 
495.222

>  <PUBCHEM_SHAPE_VOLUME>  (1) 
173.6

>  <PUBCHEM_COORDINATE_TYPE>  (1) 
2
5
10

$$$$
