16678
     RDKit          3D

 12 12  0  0  0  0  0  0  0  0999 V2000
    0.2338   -2.0004   -0.0064 O   0  0  0  0  0  0  0  0  0  0  0  0
   -1.8456   -0.0591    0.0010 C   0  0  0  0  0  0  0  0  0  0  0  0
   -0.3444    0.3178   -0.0002 C   0  0  0  0  0  0  0  0  0  0  0  0
   -2.7076    1.2222    0.0045 C   0  0  0  0  0  0  0  0  0  0  0  0
   -2.1737   -0.9012    1.2532 C   0  0  0  0  0  0  0  0  0  0  0  0
   -2.2682   -0.8898   -1.2305 C   0  0  0  0  0  0  0  0  0  0  0  0
    0.5876   -0.6832   -0.0041 C   0  0  0  0  0  0  0  0  0  0  0  0
   -0.0343    1.6514    0.0018 C   0  0  0  0  0  0  0  0  0  0  0  0
    1.9355   -0.3241   -0.0060 C   0  0  0  0  0  0  0  0  0  0  0  0
    1.3137    2.0104    0.0000 C   0  0  0  0  0  0  0  0  0  0  0  0
    2.2985    1.0228   -0.0040 C   0  0  0  0  0  0  0  0  0  0  0  0
    3.0046   -1.3667   -0.0093 C   0  0  0  0  0  0  0  0  0  0  0  0
  1  7  1  0
  2  3  1  0
  2  4  1  0
  2  5  1  0
  2  6  1  0
  3  7  2  0
  3  8  1  0
  7  9  1  0
  8 10  2  0
  9 11  2  0
  9 12  1  0
 10 11  1  0
M  END
>  <PUBCHEM_COMPOUND_CID>  (1) 
16678

>  <PUBCHEM_CONFORMER_RMSD>  (1) 
0.4

>  <PUBCHEM_CONFORMER_DIVERSEORDER>  (1) 
1
2

>  <PUBCHEM_MMFF94_PARTIAL_CHARGES>  (1) 
13
1 -0.53
10 -0.15
11 -0.15
12 0.14
2 0.14
22 0.15
23 0.15
24 0.15
28 0.45
3 -0.14
7 0.08
8 -0.15
9 -0.14

>  <PUBCHEM_EFFECTIVE_ROTOR_COUNT>  (1) 
1

>  <PUBCHEM_PHARMACOPHORE_FEATURES>  (1) 
3
1 1 donor
4 2 4 5 6 hydrophobe
6 3 7 8 9 10 11 rings

>  <PUBCHEM_HEAVY_ATOM_COUNT>  (1) 
12

>  <PUBCHEM_ATOM_DEF_STEREO_COUNT>  (1) 
0

>  <PUBCHEM_ATOM_UDEF_STEREO_COUNT>  (1) 
0

>  <PUBCHEM_BOND_DEF_STEREO_COUNT>  (1) 
0

>  <PUBCHEM_BOND_UDEF_STEREO_COUNT>  (1) 
0

>  <PUBCHEM_ISOTOPIC_ATOM_COUNT>  (1) 
0

>  <PUBCHEM_COMPONENT_COUNT>  (1) 
1

>  <PUBCHEM_CACTVS_TAUTO_COUNT>  (1) 
3

>  <PUBCHEM_CONFORMER_ID>  (1) 
0000412600000001

>  <PUBCHEM_MMFF94_ENERGY>  (1) 
48.1247

>  <PUBCHEM_FEATURE_SELFOVERLAP>  (1) 
15.223

>  <PUBCHEM_SHAPE_FINGERPRINT>  (1) 
10130415 120 18189052006196790408
11471102 22 18190479318181375473
12423570 1 9102319831237421857
12524768 44 18054230921148960615
12932764 1 17988368177327266337
14128692 85 18201995542872781262
15775835 57 18059018409593344225
16945 1 18194683906538756320
17844478 74 17969234493439899257
17990270 104 18335702771049487688
193761 8 17978510059510375494
19973954 147 18335424611845772537
20201158 50 18263643974410251659
20588541 1 18118690919808690861
21040471 1 18194402414461408192
21501502 16 18409450310312188845
2334 1 18410575119181339176
23402655 69 18340473479647814821
23552423 10 18408884061618058532
23559900 14 18268716022615091894
241688 4 18338796689591266776
25 1 17971179332146856253
2748010 2 18409729568969756300
3248919 1 18040991894738462116
369184 2 18131069363590545169
5084963 1 17988075703023498755
528886 8 18410289177285465177
63268167 104 18343020020848070808
81228 2 17906177248358240824

>  <PUBCHEM_SHAPE_MULTIPOLES>  (1) 
241.09
4.1
2
0.87
0.12
0.3
0.01
-0.58
-0.04
0.59
0
-0.59
-0.23
0

>  <PUBCHEM_SHAPE_SELFOVERLAP>  (1) 
499.422

>  <PUBCHEM_SHAPE_VOLUME>  (1) 
140.4

>  <PUBCHEM_COORDINATE_TYPE>  (1) 
2
5
10

$$$$
