16688
     RDKit          3D

 10 10  0  0  1  0  0  0  0  0999 V2000
    0.1128    0.0230    0.3781 C   0  0  0  0  0  0  0  0  0  0  0  0
    1.5997    0.0028    0.0300 C   0  0  0  0  0  0  0  0  0  0  0  0
   -0.5852    1.2376   -0.2474 C   0  0  0  0  0  0  0  0  0  0  0  0
   -0.5699   -1.2813   -0.0715 C   0  0  0  0  0  0  0  0  0  0  0  0
   -2.0671    1.2868    0.1370 C   0  0  0  0  0  0  0  0  0  0  0  0
    2.2753   -1.2029    0.7049 C   0  0  0  0  0  0  0  0  0  0  0  0
    1.7755   -0.1072   -1.4942 C   0  0  0  0  0  0  0  0  0  0  0  0
    2.2669    1.2977    0.5236 C   0  0  0  0  0  0  0  0  0  0  0  0
   -2.0677   -1.2052   -0.0344 C   0  0  0  0  0  0  0  0  0  0  0  0
   -2.7402   -0.0513    0.0737 C   0  0  0  0  0  0  0  0  0  0  0  0
  1  2  1  0
  1  3  1  0
  1  4  1  0
  2  6  1  0
  2  7  1  0
  2  8  1  0
  3  5  1  0
  4  9  1  0
  5 10  1  0
  9 10  2  0
M  END
>  <PUBCHEM_COMPOUND_CID>  (1) 
16688

>  <PUBCHEM_CONFORMER_RMSD>  (1) 
0.4

>  <PUBCHEM_CONFORMER_DIVERSEORDER>  (1) 
1
2

>  <PUBCHEM_MMFF94_PARTIAL_CHARGES>  (1) 
6
10 -0.29
27 0.15
28 0.15
4 0.14
5 0.14
9 -0.29

>  <PUBCHEM_EFFECTIVE_ROTOR_COUNT>  (1) 
1.8

>  <PUBCHEM_PHARMACOPHORE_FEATURES>  (1) 
2
4 2 6 7 8 hydrophobe
6 1 3 4 5 9 10 rings

>  <PUBCHEM_HEAVY_ATOM_COUNT>  (1) 
10

>  <PUBCHEM_ATOM_DEF_STEREO_COUNT>  (1) 
0

>  <PUBCHEM_ATOM_UDEF_STEREO_COUNT>  (1) 
1

>  <PUBCHEM_BOND_DEF_STEREO_COUNT>  (1) 
0

>  <PUBCHEM_BOND_UDEF_STEREO_COUNT>  (1) 
0

>  <PUBCHEM_ISOTOPIC_ATOM_COUNT>  (1) 
0

>  <PUBCHEM_COMPONENT_COUNT>  (1) 
1

>  <PUBCHEM_CACTVS_TAUTO_COUNT>  (1) 
1

>  <PUBCHEM_CONFORMER_ID>  (1) 
0000413000000001

>  <PUBCHEM_MMFF94_ENERGY>  (1) 
22.1138

>  <PUBCHEM_FEATURE_SELFOVERLAP>  (1) 
10.148

>  <PUBCHEM_SHAPE_FINGERPRINT>  (1) 
10857977 72 18266453381406730361
12423570 1 17122842691577306710
12524768 44 18272376407474515333
12897270 3 18411704321785916893
12932764 1 18409455777662956481
14325111 11 18410853244194244409
15775835 57 18335145245513310001
16945 1 18270685246979920235
18185500 45 18260829357771268047
19973954 147 18342458144615491432
20201158 50 17989490692799730510
20645464 45 18059853965167817354
21040471 1 18265900163764837989
23235687 12 17846776329792831391
23552423 10 18186522107034612482
24536 1 17346606244181417576
2748010 2 18411135844410097645
29004967 10 17749389320750782497
3248919 1 17346317076976360457
369184 2 18410567392619296993
5084963 1 17749108833611229501
8030462 33 18260552237875649295

>  <PUBCHEM_SHAPE_MULTIPOLES>  (1) 
205.8
3.89
1.56
0.94
0.55
0.06
0.28
0.01
-0.26
0.11
-0.16
-0.56
-0.04
-0.04

>  <PUBCHEM_SHAPE_SELFOVERLAP>  (1) 
403.715

>  <PUBCHEM_SHAPE_VOLUME>  (1) 
124.4

>  <PUBCHEM_COORDINATE_TYPE>  (1) 
2
5
10

$$$$
