1670
     RDKit          3D

 15 15  0  0  1  0  0  0  0  0999 V2000
    2.4736   -1.4816    0.8094 O   0  0  0  0  0  0  0  0  0  0  0  0
    3.7704    0.5478   -0.5773 O   0  0  0  0  0  0  0  0  0  0  0  0
   -1.6306   -1.1973   -1.4693 O   0  0  0  0  0  0  0  0  0  0  0  0
   -3.0098   -1.7843    0.2320 O   0  0  0  0  0  0  0  0  0  0  0  0
   -4.0106    0.7898    0.2236 N   0  0  0  0  0  0  0  0  0  0  0  0
   -1.6617    1.1109    0.8442 C   0  0  0  0  0  0  0  0  0  0  0  0
   -2.6306    0.5818   -0.2231 C   0  0  0  0  0  0  0  0  0  0  0  0
   -0.2145    0.9578    0.4669 C   0  0  0  0  0  0  0  0  0  0  0  0
    0.4658   -0.2016    0.8161 C   0  0  0  0  0  0  0  0  0  0  0  0
    0.4248    1.9779   -0.2258 C   0  0  0  0  0  0  0  0  0  0  0  0
    1.8087   -0.3433    0.4666 C   0  0  0  0  0  0  0  0  0  0  0  0
    1.7675    1.8361   -0.5754 C   0  0  0  0  0  0  0  0  0  0  0  0
    2.4596    0.6755   -0.2293 C   0  0  0  0  0  0  0  0  0  0  0  0
   -2.4588   -0.9137   -0.4300 C   0  0  0  0  0  0  0  0  0  0  0  0
    2.4462   -2.5559   -0.1286 C   0  0  0  0  0  0  0  0  0  0  0  0
  1 11  1  0
  1 15  1  0
  2 13  1  0
  3 14  1  0
  4 14  2  0
  5  7  1  0
  6  7  1  0
  6  8  1  0
  7 14  1  0
  8  9  2  0
  8 10  1  0
  9 11  1  0
 10 12  2  0
 11 13  2  0
 12 13  1  0
M  END
>  <PUBCHEM_COMPOUND_CID>  (1) 
1670

>  <PUBCHEM_CONFORMER_RMSD>  (1) 
0.6

>  <PUBCHEM_CONFORMER_DIVERSEORDER>  (1) 
1
50
32
45
7
6
53
31
51
37
19
24
10
48
18
38
40
43
29
20
34
30
49
46
17
39
42
8
14
23
47
4
11
26
13
52
27
35
22
3
12
44
28
33
21
9
2
16
5
25
15
41
36

>  <PUBCHEM_MMFF94_PARTIAL_CHARGES>  (1) 
22
1 -0.36
10 -0.15
11 0.08
12 -0.15
13 0.08
14 0.66
15 0.28
19 0.15
2 -0.53
20 0.15
21 0.15
22 0.36
23 0.36
24 0.45
25 0.5
3 -0.65
4 -0.57
5 -0.99
6 0.14
7 0.33
8 -0.14
9 -0.15

>  <PUBCHEM_EFFECTIVE_ROTOR_COUNT>  (1) 
4

>  <PUBCHEM_PHARMACOPHORE_FEATURES>  (1) 
8
1 1 acceptor
1 2 donor
1 3 acceptor
1 4 acceptor
1 5 cation
1 5 donor
3 3 4 14 anion
6 8 9 10 11 12 13 rings

>  <PUBCHEM_HEAVY_ATOM_COUNT>  (1) 
15

>  <PUBCHEM_ATOM_DEF_STEREO_COUNT>  (1) 
0

>  <PUBCHEM_ATOM_UDEF_STEREO_COUNT>  (1) 
1

>  <PUBCHEM_BOND_DEF_STEREO_COUNT>  (1) 
0

>  <PUBCHEM_BOND_UDEF_STEREO_COUNT>  (1) 
0

>  <PUBCHEM_ISOTOPIC_ATOM_COUNT>  (1) 
0

>  <PUBCHEM_COMPONENT_COUNT>  (1) 
1

>  <PUBCHEM_CACTVS_TAUTO_COUNT>  (1) 
3

>  <PUBCHEM_CONFORMER_ID>  (1) 
0000068600000001

>  <PUBCHEM_MMFF94_ENERGY>  (1) 
40.2033

>  <PUBCHEM_FEATURE_SELFOVERLAP>  (1) 
40.655

>  <PUBCHEM_SHAPE_FINGERPRINT>  (1) 
10922523 26 18187358779786295133
15279307 12 18341899601388069575
15375462 189 18342464780619305017
15775835 57 18334299777096061765
16945 1 18410011039614790792
18619055 16 18339355275747073769
19422 9 18410294709693907371
20645476 183 18412829109707829695
20645477 70 18334292020648771707
22445834 79 18413109480693159697
23402539 116 18408885157626133292
23463225 33 18341331085267756943
23552423 10 18338514273979736225
23559900 14 17846780728704720184
23598291 2 18267311927962549697
2748010 2 17900537883284317508
3312278 4 18412830217561433033
34934 24 18410290294067048608
63268167 104 18334294253594136721
7364860 26 18342172263471690680
7832392 63 18410292514734082017

>  <PUBCHEM_SHAPE_MULTIPOLES>  (1) 
280.23
5.7
2.29
0.94
1.86
0.81
-0.07
1.11
-0.43
-0.97
-0.22
0.08
0.09
-0.66

>  <PUBCHEM_SHAPE_SELFOVERLAP>  (1) 
579.026

>  <PUBCHEM_SHAPE_VOLUME>  (1) 
160.6

>  <PUBCHEM_COORDINATE_TYPE>  (1) 
2
5
10

$$$$
