16703
     RDKit          3D

 15 15  0  0  0  0  0  0  0  0999 V2000
    0.6383    0.9857    2.2914 O   0  0  0  0  0  0  0  0  0  0  0  0
   -0.0942    0.2894   -2.4063 O   0  0  0  0  0  0  0  0  0  0  0  0
    2.3921   -2.6344    0.0969 O   0  0  0  0  0  0  0  0  0  0  0  0
    1.4951   -0.8116    1.1653 N   0  0  0  0  0  0  0  0  0  0  0  0
    1.1401   -1.1500   -1.1268 N   0  0  0  0  0  0  0  0  0  0  0  0
    0.1123    0.8165   -0.0588 C   0  0  0  0  0  0  0  0  0  0  0  0
    0.5497    2.2594   -0.3450 C   0  0  0  0  0  0  0  0  0  0  0  0
    0.7634    0.3608    1.2360 C   0  0  0  0  0  0  0  0  0  0  0  0
    0.3683   -0.0153   -1.3050 C   0  0  0  0  0  0  0  0  0  0  0  0
   -1.3686    0.7445    0.1880 C   0  0  0  0  0  0  0  0  0  0  0  0
    2.0508    2.3505   -0.5188 C   0  0  0  0  0  0  0  0  0  0  0  0
   -2.0174   -0.3832    0.5123 C   0  0  0  0  0  0  0  0  0  0  0  0
    1.7201   -1.6025    0.0488 C   0  0  0  0  0  0  0  0  0  0  0  0
   -3.4963   -0.4548    0.7530 C   0  0  0  0  0  0  0  0  0  0  0  0
   -4.2537   -0.7552   -0.5309 C   0  0  0  0  0  0  0  0  0  0  0  0
  1  8  2  0
  2  9  2  0
  3 13  2  0
  4  8  1  0
  4 13  1  0
  5  9  1  0
  5 13  1  0
  6  7  1  0
  6  8  1  0
  6  9  1  0
  6 10  1  0
  7 11  1  0
 10 12  2  0
 12 14  1  0
 14 15  1  0
M  END
>  <PUBCHEM_COMPOUND_CID>  (1) 
16703

>  <PUBCHEM_CONFORMER_RMSD>  (1) 
0.6

>  <PUBCHEM_CONFORMER_DIVERSEORDER>  (1) 
2
10
11
9
7
8
1
6
13
3
12
5
4

>  <PUBCHEM_MMFF94_PARTIAL_CHARGES>  (1) 
16
1 -0.57
10 -0.29
12 -0.29
13 0.69
14 0.14
18 0.15
2 -0.57
22 0.37
23 0.37
24 0.15
3 -0.57
4 -0.49
5 -0.49
6 0.26
8 0.57
9 0.57

>  <PUBCHEM_EFFECTIVE_ROTOR_COUNT>  (1) 
3.6

>  <PUBCHEM_PHARMACOPHORE_FEATURES>  (1) 
8
1 1 acceptor
1 11 hydrophobe
1 15 hydrophobe
1 2 acceptor
1 3 acceptor
1 4 donor
1 5 donor
6 4 5 6 8 9 13 rings

>  <PUBCHEM_HEAVY_ATOM_COUNT>  (1) 
15

>  <PUBCHEM_ATOM_DEF_STEREO_COUNT>  (1) 
0

>  <PUBCHEM_ATOM_UDEF_STEREO_COUNT>  (1) 
0

>  <PUBCHEM_BOND_DEF_STEREO_COUNT>  (1) 
0

>  <PUBCHEM_BOND_UDEF_STEREO_COUNT>  (1) 
1

>  <PUBCHEM_ISOTOPIC_ATOM_COUNT>  (1) 
0

>  <PUBCHEM_COMPONENT_COUNT>  (1) 
1

>  <PUBCHEM_CACTVS_TAUTO_COUNT>  (1) 
5

>  <PUBCHEM_CONFORMER_ID>  (1) 
0000413F00000002

>  <PUBCHEM_MMFF94_ENERGY>  (1) 
26.9658

>  <PUBCHEM_FEATURE_SELFOVERLAP>  (1) 
40.638

>  <PUBCHEM_SHAPE_FINGERPRINT>  (1) 
10702982 57 17761211424555216676
12423570 1 13918756483934859368
12725867 57 18334571335061708109
13024252 1 12978160665082949230
14817 1 9785105775849750940
16945 1 18336278919495431736
20473742 2 18115025333057744908
20645477 70 18262231223008677379
21452121 71 18191890975316419926
22112679 90 17693137030389840052
23419403 2 17387381658915181900
430814 3 17981600782005720496
7364860 26 18335989752300930713
81539 233 18116998986130578509

>  <PUBCHEM_SHAPE_MULTIPOLES>  (1) 
281.12
4.36
2.23
1.66
6.8
0.29
-0.05
1.18
-0.07
-2.51
-0.17
-0.33
-0.19
-0.11

>  <PUBCHEM_SHAPE_SELFOVERLAP>  (1) 
575.091

>  <PUBCHEM_SHAPE_VOLUME>  (1) 
161.8

>  <PUBCHEM_COORDINATE_TYPE>  (1) 
2
5
10

$$$$
