16701
     RDKit          3D

 12 12  0  0  0  0  0  0  0  0999 V2000
   -3.4321    0.3183   -1.4872 O   0  0  0  0  0  0  0  0  0  0  0  0
   -1.1120   -0.1092    0.0699 C   0  0  0  0  0  0  0  0  0  0  0  0
   -0.0029   -0.3123    1.1075 C   0  0  0  0  0  0  0  0  0  0  0  0
   -2.5070   -0.2079    0.6854 C   0  0  0  0  0  0  0  0  0  0  0  0
    1.3653   -0.1326    0.4999 C   0  0  0  0  0  0  0  0  0  0  0  0
   -3.6309    0.0673   -0.2997 C   0  0  0  0  0  0  0  0  0  0  0  0
    2.0186   -1.2288   -0.0433 C   0  0  0  0  0  0  0  0  0  0  0  0
    1.9482    1.1258    0.4936 C   0  0  0  0  0  0  0  0  0  0  0  0
    3.2842   -1.0628   -0.6056 C   0  0  0  0  0  0  0  0  0  0  0  0
    3.2138    1.2918   -0.0688 C   0  0  0  0  0  0  0  0  0  0  0  0
   -5.0270    0.0530    0.2665 C   0  0  0  0  0  0  0  0  0  0  0  0
    3.8818    0.1974   -0.6184 C   0  0  0  0  0  0  0  0  0  0  0  0
  1  6  2  0
  2  3  1  0
  2  4  1  0
  3  5  1  0
  4  6  1  0
  5  7  2  0
  5  8  1  0
  6 11  1  0
  7  9  1  0
  8 10  2  0
  9 12  2  0
 10 12  1  0
M  END
>  <PUBCHEM_COMPOUND_CID>  (1) 
16701

>  <PUBCHEM_CONFORMER_RMSD>  (1) 
0.6

>  <PUBCHEM_CONFORMER_DIVERSEORDER>  (1) 
1
40
5
11
15
37
26
7
12
33
20
36
24
22
16
28
23
31
14
25
13
19
4
29
6
34
9
2
30
35
32
8
10
18
27
3
38
17
39
21

>  <PUBCHEM_MMFF94_PARTIAL_CHARGES>  (1) 
16
1 -0.57
10 -0.15
11 0.06
12 -0.15
19 0.15
20 0.15
21 0.15
22 0.15
26 0.15
3 0.14
4 0.06
5 -0.14
6 0.45
7 -0.15
8 -0.15
9 -0.15

>  <PUBCHEM_EFFECTIVE_ROTOR_COUNT>  (1) 
4

>  <PUBCHEM_PHARMACOPHORE_FEATURES>  (1) 
2
1 1 acceptor
6 5 7 8 9 10 12 rings

>  <PUBCHEM_HEAVY_ATOM_COUNT>  (1) 
12

>  <PUBCHEM_ATOM_DEF_STEREO_COUNT>  (1) 
0

>  <PUBCHEM_ATOM_UDEF_STEREO_COUNT>  (1) 
0

>  <PUBCHEM_BOND_DEF_STEREO_COUNT>  (1) 
0

>  <PUBCHEM_BOND_UDEF_STEREO_COUNT>  (1) 
0

>  <PUBCHEM_ISOTOPIC_ATOM_COUNT>  (1) 
0

>  <PUBCHEM_COMPONENT_COUNT>  (1) 
1

>  <PUBCHEM_CACTVS_TAUTO_COUNT>  (1) 
3

>  <PUBCHEM_CONFORMER_ID>  (1) 
0000413D00000001

>  <PUBCHEM_MMFF94_ENERGY>  (1) 
20.5167

>  <PUBCHEM_FEATURE_SELFOVERLAP>  (1) 
10.148

>  <PUBCHEM_SHAPE_FINGERPRINT>  (1) 
10498660 4 17096075897227769589
10751810 167 16630531743298296657
114248 4 18408606976303600675
11471102 20 18412548717141855672
12251169 10 10737286861350903936
12932764 1 17894904135932204531
13081056 2 17749108898209968349
14251717 144 18201722834119799390
15477762 27 18131356280586322942
18186145 218 18261111863608617299
18915474 69 17131828797983757317
200 152 17989490697273896434
20233049 118 16370724837930946220
20279233 1 18040439901246528826
20281407 28 13758079605581021155
20432913 95 9871751295270820749
20606313 2 18410013260466128680
20645477 70 18340210700115233838
20767249 442 16660360389673709067
21119208 17 17917996078890667069
22485316 2 15410892959422961377
23402539 116 17748820856544695110
23402655 69 18343867701358183732
3060560 45 18413389834873622334
3268164 11 16950553416205061007
4047638 21 18040438806398970824
42 15 10087644797141255419
4990 188 18333734602238817715
522135 26 18201721738644435579
5281201 14 18334298630244751013
93112 12 18342738545982064859

>  <PUBCHEM_SHAPE_MULTIPOLES>  (1) 
241.09
9.17
1.11
1
8.42
0.03
0.1
0.47
2.11
-1.27
0.01
0.44
0
0.16

>  <PUBCHEM_SHAPE_SELFOVERLAP>  (1) 
483.407

>  <PUBCHEM_SHAPE_VOLUME>  (1) 
142

>  <PUBCHEM_COORDINATE_TYPE>  (1) 
2
5
10

$$$$
