16719
     RDKit          3D

 12 13  0  0  0  0  0  0  0  0999 V2000
   -1.0683    2.8097    0.0001 N   0  0  0  0  0  0  0  0  0  0  0  0
   -1.0682   -2.8098    0.0003 N   0  0  0  0  0  0  0  0  0  0  0  0
    0.2136    0.7077    0.0000 C   0  0  0  0  0  0  0  0  0  0  0  0
    0.2136   -0.7076    0.0000 C   0  0  0  0  0  0  0  0  0  0  0  0
   -1.0115    1.3945    0.0000 C   0  0  0  0  0  0  0  0  0  0  0  0
   -1.0113   -1.3944   -0.0001 C   0  0  0  0  0  0  0  0  0  0  0  0
    1.4386    1.3944    0.0001 C   0  0  0  0  0  0  0  0  0  0  0  0
    1.4387   -1.3944   -0.0001 C   0  0  0  0  0  0  0  0  0  0  0  0
   -2.2190    0.6958   -0.0001 C   0  0  0  0  0  0  0  0  0  0  0  0
   -2.2189   -0.6959   -0.0001 C   0  0  0  0  0  0  0  0  0  0  0  0
    2.6463    0.6959    0.0000 C   0  0  0  0  0  0  0  0  0  0  0  0
    2.6464   -0.6958    0.0000 C   0  0  0  0  0  0  0  0  0  0  0  0
  1  5  1  0
  2  6  1  0
  3  4  1  0
  3  5  2  0
  3  7  1  0
  4  6  2  0
  4  8  1  0
  5  9  1  0
  6 10  1  0
  7 11  2  0
  8 12  2  0
  9 10  2  0
 11 12  1  0
M  END
>  <PUBCHEM_COMPOUND_CID>  (1) 
16719

>  <PUBCHEM_CONFORMER_RMSD>  (1) 
0.4

>  <PUBCHEM_CONFORMER_DIVERSEORDER>  (1) 
1

>  <PUBCHEM_MMFF94_PARTIAL_CHARGES>  (1) 
20
1 -0.9
10 -0.15
11 -0.15
12 -0.15
13 0.15
14 0.15
15 0.15
16 0.15
17 0.15
18 0.15
19 0.4
2 -0.9
20 0.4
21 0.4
22 0.4
5 0.1
6 0.1
7 -0.15
8 -0.15
9 -0.15

>  <PUBCHEM_EFFECTIVE_ROTOR_COUNT>  (1) 
0

>  <PUBCHEM_PHARMACOPHORE_FEATURES>  (1) 
6
1 1 cation
1 1 donor
1 2 cation
1 2 donor
6 3 4 5 6 9 10 rings
6 3 4 7 8 11 12 rings

>  <PUBCHEM_HEAVY_ATOM_COUNT>  (1) 
12

>  <PUBCHEM_ATOM_DEF_STEREO_COUNT>  (1) 
0

>  <PUBCHEM_ATOM_UDEF_STEREO_COUNT>  (1) 
0

>  <PUBCHEM_BOND_DEF_STEREO_COUNT>  (1) 
0

>  <PUBCHEM_BOND_UDEF_STEREO_COUNT>  (1) 
0

>  <PUBCHEM_ISOTOPIC_ATOM_COUNT>  (1) 
0

>  <PUBCHEM_COMPONENT_COUNT>  (1) 
1

>  <PUBCHEM_CACTVS_TAUTO_COUNT>  (1) 
1

>  <PUBCHEM_CONFORMER_ID>  (1) 
0000414F00000001

>  <PUBCHEM_MMFF94_ENERGY>  (1) 
60.7593

>  <PUBCHEM_FEATURE_SELFOVERLAP>  (1) 
30.472

>  <PUBCHEM_SHAPE_FINGERPRINT>  (1) 
10967382 1 18338797943426038439
11206711 2 18338235951250474052
12423570 1 8340926613178338892
12524768 44 18341900726585157150
16945 1 18410573989662683270
193761 8 18410575080652954726
20871998 184 18200879589989247319
21040471 1 18266740177879633952
2334 1 17978228592938853186
23402539 116 18271512178603422391
23552423 10 18116715312320152334
23559900 14 17695352469945048974
241688 4 18194400215211026880
2748010 2 18051973911513422092
5084963 1 18059007263894475544
528886 8 18339919436728213962
66348 1 18265332794105361792

>  <PUBCHEM_SHAPE_MULTIPOLES>  (1) 
236.99
3.37
2.57
0.6
1.17
0
0
0
0
-0.98
0
0.02
0
0

>  <PUBCHEM_SHAPE_SELFOVERLAP>  (1) 
522.267

>  <PUBCHEM_SHAPE_VOLUME>  (1) 
126.2

>  <PUBCHEM_COORDINATE_TYPE>  (1) 
2
5
10

$$$$
