16718
     RDKit          3D

 13 14  0  0  0  0  0  0  0  0999 V2000
    4.0401   -0.6437    1.1765 O   0  0  0  0  0  0  0  0  0  0  0  0
    2.8037   -0.1360   -0.7635 N   0  0  0  0  0  0  0  0  0  0  0  0
   -0.8370   -0.5521   -0.1925 C   0  0  0  0  0  0  0  0  0  0  0  0
   -1.2163    0.7862    0.0684 C   0  0  0  0  0  0  0  0  0  0  0  0
    0.5089   -0.8432   -0.4681 C   0  0  0  0  0  0  0  0  0  0  0  0
   -0.2384    1.7939    0.0455 C   0  0  0  0  0  0  0  0  0  0  0  0
   -1.8148   -1.5599   -0.1692 C   0  0  0  0  0  0  0  0  0  0  0  0
   -2.5623    1.0773    0.3440 C   0  0  0  0  0  0  0  0  0  0  0  0
    1.4673    0.1705   -0.4870 C   0  0  0  0  0  0  0  0  0  0  0  0
    1.0943    1.4865   -0.2307 C   0  0  0  0  0  0  0  0  0  0  0  0
   -3.1474   -1.2528    0.1064 C   0  0  0  0  0  0  0  0  0  0  0  0
   -3.5205    0.0633    0.3624 C   0  0  0  0  0  0  0  0  0  0  0  0
    3.4224   -0.3900    0.2076 C   0  0  0  0  0  0  0  0  0  0  0  0
  1 13  2  0
  2  9  1  0
  2 13  2  0
  3  4  1  0
  3  5  2  0
  3  7  1  0
  4  6  2  0
  4  8  1  0
  5  9  1  0
  6 10  1  0
  7 11  2  0
  8 12  2  0
  9 10  2  0
 11 12  1  0
M  END
>  <PUBCHEM_COMPOUND_CID>  (1) 
16718

>  <PUBCHEM_CONFORMER_RMSD>  (1) 
0.4

>  <PUBCHEM_CONFORMER_DIVERSEORDER>  (1) 
2
5
3
4
6
1

>  <PUBCHEM_MMFF94_PARTIAL_CHARGES>  (1) 
18
1 -0.49
10 -0.15
11 -0.15
12 -0.15
13 0.79
14 0.15
15 0.15
16 0.15
17 0.15
18 0.15
19 0.15
2 -0.48
20 0.15
5 -0.15
6 -0.15
7 -0.15
8 -0.15
9 0.18

>  <PUBCHEM_EFFECTIVE_ROTOR_COUNT>  (1) 
1

>  <PUBCHEM_PHARMACOPHORE_FEATURES>  (1) 
3
1 2 acceptor
6 3 4 5 6 9 10 rings
6 3 4 7 8 11 12 rings

>  <PUBCHEM_HEAVY_ATOM_COUNT>  (1) 
13

>  <PUBCHEM_ATOM_DEF_STEREO_COUNT>  (1) 
0

>  <PUBCHEM_ATOM_UDEF_STEREO_COUNT>  (1) 
0

>  <PUBCHEM_BOND_DEF_STEREO_COUNT>  (1) 
0

>  <PUBCHEM_BOND_UDEF_STEREO_COUNT>  (1) 
0

>  <PUBCHEM_ISOTOPIC_ATOM_COUNT>  (1) 
0

>  <PUBCHEM_COMPONENT_COUNT>  (1) 
1

>  <PUBCHEM_CACTVS_TAUTO_COUNT>  (1) 
1

>  <PUBCHEM_CONFORMER_ID>  (1) 
0000414E00000002

>  <PUBCHEM_MMFF94_ENERGY>  (1) 
36.3912

>  <PUBCHEM_FEATURE_SELFOVERLAP>  (1) 
15.249

>  <PUBCHEM_SHAPE_FINGERPRINT>  (1) 
10130415 120 18335987540155318456
11132069 177 18343022159820729991
11401426 45 18272081687251316933
11543360 7 15647628880971963423
11769659 78 18261391208239467831
12032990 46 18341343235535110663
12251169 10 18342737429438189592
12382932 28 18271530809875899722
124424 183 18259698999952090391
14144814 61 18410298020644271942
15375462 189 18113617876237412962
16945 1 18341344309493205941
17804303 29 18343306955028745484
19026448 4 15841560651805866557
20510252 161 18059016077215236280
20871998 184 18202283584727919711
21501502 16 18268435818120220189
21501925 9 18341326794389550468
232386 152 18410580612428485478
23380061 330 18343865523983630287
23402539 116 18273205392598585629
23463225 33 18408608067093386180
23552423 10 17974858568420017445
23559900 14 18200602385011525094
2748010 2 18197220454294705077
53812654 25 18272933864059348085
5902787 121 18337111279793916002
7364860 26 18055359290641405952
90316 7 18261951834747938016

>  <PUBCHEM_SHAPE_MULTIPOLES>  (1) 
256.68
5.98
1.62
0.79
2.77
0.32
0.07
-1.68
1.49
-0.62
-0.02
0.43
-0.07
-0.32

>  <PUBCHEM_SHAPE_SELFOVERLAP>  (1) 
566.972

>  <PUBCHEM_SHAPE_VOLUME>  (1) 
137.3

>  <PUBCHEM_COORDINATE_TYPE>  (1) 
2
5
10

$$$$
