1672
     RDKit          3D

  6  5  0  0  0  0  0  0  0  0999 V2000
    1.7814    0.4961   -0.0058 O   0  0  0  0  0  0  0  0  0  0  0  0
   -3.0560    0.2532   -0.0064 N   0  0  0  0  0  0  0  0  0  0  0  0
   -0.6111    0.3839    0.0121 C   0  0  0  0  0  0  0  0  0  0  0  0
    0.6877   -0.4109   -0.0017 C   0  0  0  0  0  0  0  0  0  0  0  0
   -1.8291   -0.5341    0.0013 C   0  0  0  0  0  0  0  0  0  0  0  0
    3.0271   -0.1882    0.0006 C   0  0  0  0  0  0  0  0  0  0  0  0
  1  4  1  0
  1  6  1  0
  2  5  1  0
  3  4  1  0
  3  5  1  0
M  END
>  <PUBCHEM_COMPOUND_CID>  (1) 
1672

>  <PUBCHEM_CONFORMER_RMSD>  (1) 
0.4

>  <PUBCHEM_CONFORMER_DIVERSEORDER>  (1) 
1
8
14
17
9
12
16
5
7
15
18
2
19
10
13
3
11
6
4

>  <PUBCHEM_MMFF94_PARTIAL_CHARGES>  (1) 
7
1 -0.56
13 0.36
14 0.36
2 -0.99
4 0.28
5 0.27
6 0.28

>  <PUBCHEM_EFFECTIVE_ROTOR_COUNT>  (1) 
3

>  <PUBCHEM_PHARMACOPHORE_FEATURES>  (1) 
3
1 1 acceptor
1 2 cation
1 2 donor

>  <PUBCHEM_HEAVY_ATOM_COUNT>  (1) 
6

>  <PUBCHEM_ATOM_DEF_STEREO_COUNT>  (1) 
0

>  <PUBCHEM_ATOM_UDEF_STEREO_COUNT>  (1) 
0

>  <PUBCHEM_BOND_DEF_STEREO_COUNT>  (1) 
0

>  <PUBCHEM_BOND_UDEF_STEREO_COUNT>  (1) 
0

>  <PUBCHEM_ISOTOPIC_ATOM_COUNT>  (1) 
0

>  <PUBCHEM_COMPONENT_COUNT>  (1) 
1

>  <PUBCHEM_CACTVS_TAUTO_COUNT>  (1) 
1

>  <PUBCHEM_CONFORMER_ID>  (1) 
0000068800000001

>  <PUBCHEM_MMFF94_ENERGY>  (1) 
2.593

>  <PUBCHEM_FEATURE_SELFOVERLAP>  (1) 
15.223

>  <PUBCHEM_SHAPE_FINGERPRINT>  (1) 
14390081 3 18272647952529263049
16714656 1 18411418418813975087
29004967 10 18341618130653442354
5460574 1 9223232948639162882

>  <PUBCHEM_SHAPE_MULTIPOLES>  (1) 
112.63
4.73
0.74
0.59
0.28
0.03
0
-0.02
0.01
-0.03
0
0.02
0.01
0

>  <PUBCHEM_SHAPE_SELFOVERLAP>  (1) 
190.202

>  <PUBCHEM_SHAPE_VOLUME>  (1) 
77.1

>  <PUBCHEM_COORDINATE_TYPE>  (1) 
2
5
10

$$$$
