16731
     RDKit          3D

 21 23  0  0  1  0  0  0  0  0999 V2000
    2.8728   -4.5394    0.5232 Cl  0  0  0  0  0  0  0  0  0  0  0  0
    0.1885    0.6028   -0.8168 N   0  0  0  0  0  0  0  0  0  0  0  0
   -1.3328   -1.6725    0.3585 N   0  0  0  0  0  0  0  0  0  0  0  0
    2.2796    3.4157    0.4722 N   0  0  0  0  0  0  0  0  0  0  0  0
   -1.0542    0.5455   -1.5730 C   0  0  0  0  0  0  0  0  0  0  0  0
    0.9496    1.8437   -0.8469 C   0  0  0  0  0  0  0  0  0  0  0  0
    0.7878   -0.6065   -0.4655 C   0  0  0  0  0  0  0  0  0  0  0  0
   -2.2317    0.4020   -0.6529 C   0  0  0  0  0  0  0  0  0  0  0  0
    1.4983    2.1871    0.5302 C   0  0  0  0  0  0  0  0  0  0  0  0
    0.0485   -1.6999    0.0490 C   0  0  0  0  0  0  0  0  0  0  0  0
   -2.3397   -0.7001    0.2083 C   0  0  0  0  0  0  0  0  0  0  0  0
    2.1846   -0.7770   -0.6196 C   0  0  0  0  0  0  0  0  0  0  0  0
   -3.2661    1.3530   -0.7056 C   0  0  0  0  0  0  0  0  0  0  0  0
    0.7229   -2.9110    0.3370 C   0  0  0  0  0  0  0  0  0  0  0  0
   -3.4949   -0.8152    1.0062 C   0  0  0  0  0  0  0  0  0  0  0  0
    2.8293   -1.9777   -0.3189 C   0  0  0  0  0  0  0  0  0  0  0  0
    2.0952   -3.0509    0.1536 C   0  0  0  0  0  0  0  0  0  0  0  0
   -4.3996    1.2212    0.0933 C   0  0  0  0  0  0  0  0  0  0  0  0
   -4.5155    0.1342    0.9495 C   0  0  0  0  0  0  0  0  0  0  0  0
    3.3840    3.2808   -0.4799 C   0  0  0  0  0  0  0  0  0  0  0  0
    2.7934    3.7642    1.7982 C   0  0  0  0  0  0  0  0  0  0  0  0
  1 17  1  0
  2  5  1  0
  2  6  1  0
  2  7  1  0
  3 10  1  0
  3 11  1  0
  4  9  1  0
  4 20  1  0
  4 21  1  0
  5  8  1  0
  6  9  1  0
  7 10  2  0
  7 12  1  0
  8 11  2  0
  8 13  1  0
 10 14  1  0
 11 15  1  0
 12 16  2  0
 13 18  2  0
 14 17  2  0
 15 19  2  0
 16 17  1  0
 18 19  1  0
M  END
>  <PUBCHEM_COMPOUND_CID>  (1) 
16731

>  <PUBCHEM_CONFORMER_RMSD>  (1) 
0.6

>  <PUBCHEM_CONFORMER_DIVERSEORDER>  (1) 
1
2
11
6
4
5
9
10
7
8
3

>  <PUBCHEM_MMFF94_PARTIAL_CHARGES>  (1) 
29
1 -0.18
10 0.1
11 0.1
12 -0.15
13 -0.15
14 -0.15
15 -0.15
16 -0.15
17 0.18
18 -0.15
19 -0.15
2 -0.84
20 0.27
21 0.27
28 0.4
29 0.15
3 -0.6
30 0.15
31 0.15
32 0.15
33 0.15
34 0.15
35 0.15
4 -0.81
5 0.51
6 0.37
7 0.1
8 -0.14
9 0.27

>  <PUBCHEM_EFFECTIVE_ROTOR_COUNT>  (1) 
3.6

>  <PUBCHEM_PHARMACOPHORE_FEATURES>  (1) 
7
1 2 cation
1 3 cation
1 3 donor
1 4 cation
6 7 10 12 14 16 17 rings
6 8 11 13 15 18 19 rings
7 2 3 5 7 8 10 11 rings

>  <PUBCHEM_HEAVY_ATOM_COUNT>  (1) 
21

>  <PUBCHEM_ATOM_DEF_STEREO_COUNT>  (1) 
0

>  <PUBCHEM_ATOM_UDEF_STEREO_COUNT>  (1) 
0

>  <PUBCHEM_BOND_DEF_STEREO_COUNT>  (1) 
0

>  <PUBCHEM_BOND_UDEF_STEREO_COUNT>  (1) 
0

>  <PUBCHEM_ISOTOPIC_ATOM_COUNT>  (1) 
0

>  <PUBCHEM_COMPONENT_COUNT>  (1) 
1

>  <PUBCHEM_CACTVS_TAUTO_COUNT>  (1) 
1

>  <PUBCHEM_CONFORMER_ID>  (1) 
0000415B00000001

>  <PUBCHEM_MMFF94_ENERGY>  (1) 
87.2321

>  <PUBCHEM_FEATURE_SELFOVERLAP>  (1) 
35.536

>  <PUBCHEM_SHAPE_FINGERPRINT>  (1) 
10074138 170 17258759942373286242
10165383 225 18122080941780445565
108231 29 18118686513151425519
11582403 64 17487059113670751140
11725454 13 17200241644394432868
12173636 292 17836358629040126164
12293681 160 18049760427836545926
12403259 226 18189336762871451991
12788726 201 16968279428449299777
13134695 92 18195801877914794015
13140716 1 18337955721988378106
133893 2 18053345960174960564
13533116 47 18409174290703378545
138480 1 18265335010588165358
14178342 30 17973453384180852915
14790565 3 18263095451790464044
15042514 8 17039509661815973850
15131766 46 16122684846165020474
15196674 1 17897736353347556807
15230672 131 18191871344145101340
15475509 84 17906758924475055489
16945 1 18408602548282340287
17980427 26 18342169003127445804
18785283 64 18334860549611931120
19591789 44 18264213693654124894
20510252 161 17542500540049897478
20600515 1 17758126894938580551
21041028 32 17906732501482399790
21120745 212 17693114963507152702
21524375 3 17913212241226838781
21731228 192 18051127287470753576
22182313 1 17894622661414241709
23175994 123 18122345666753525335
23419403 2 18042106687986212151
23559900 14 18114187415224671149
2748010 2 18114180860888033375
283562 15 17471290652244725522
3091708 16 9288894679565155890
352729 6 17255123865851870583
458136 41 18336556017805866668
495365 180 18409718561454009941
5265222 85 17901408980462654916
57124632 79 18410570721182470049
58807428 26 18193837278216509800
5895379 119 16484191006333934641
6442390 28 18050015689730841712
7364860 26 18410579474320148095
7808743 9 17544201935821564652
79837 15 17906167713472691754
81228 2 17333372298944148620
84936 182 18271533077740412761
9981440 41 18122334946351404027

>  <PUBCHEM_SHAPE_MULTIPOLES>  (1) 
419.1
6.97
5.36
1.18
7.05
2.19
-0.11
-0.72
-1.42
-9.41
-2.05
0.04
0.74
0.86

>  <PUBCHEM_SHAPE_SELFOVERLAP>  (1) 
885.573

>  <PUBCHEM_SHAPE_VOLUME>  (1) 
235.4

>  <PUBCHEM_COORDINATE_TYPE>  (1) 
2
5
10

$$$$
