16736
     RDKit          3D

 14 15  0  0  0  0  0  0  0  0999 V2000
   -3.5065    0.7250   -0.0006 F   0  0  0  0  0  0  0  0  0  0  0  0
   -2.9169   -1.0642   -1.0860 F   0  0  0  0  0  0  0  0  0  0  0  0
   -2.8919   -1.0577    1.0942 F   0  0  0  0  0  0  0  0  0  0  0  0
    2.7708    1.1754   -0.0006 N   0  0  0  0  0  0  0  0  0  0  0  0
    3.4286    0.0041   -0.0004 N   0  0  0  0  0  0  0  0  0  0  0  0
    2.6186   -2.2487   -0.0011 N   0  0  0  0  0  0  0  0  0  0  0  0
    1.1625   -0.3154   -0.0008 C   0  0  0  0  0  0  0  0  0  0  0  0
    1.4074    1.0533   -0.0004 C   0  0  0  0  0  0  0  0  0  0  0  0
   -1.2004    0.1652   -0.0007 C   0  0  0  0  0  0  0  0  0  0  0  0
   -0.1643   -0.7770   -0.0010 C   0  0  0  0  0  0  0  0  0  0  0  0
    0.3893    2.0093   -0.0003 C   0  0  0  0  0  0  0  0  0  0  0  0
    2.4470   -0.9004   -0.0009 C   0  0  0  0  0  0  0  0  0  0  0  0
   -0.9262    1.5341   -0.0004 C   0  0  0  0  0  0  0  0  0  0  0  0
   -2.6181   -0.3031   -0.0009 C   0  0  0  0  0  0  0  0  0  0  0  0
  1 14  1  0
  2 14  1  0
  3 14  1  0
  4  5  1  0
  4  8  1  0
  5 12  2  0
  6 12  1  0
  7  8  2  0
  7 10  1  0
  7 12  1  0
  8 11  1  0
  9 10  2  0
  9 13  1  0
  9 14  1  0
 11 13  2  0
M  END
>  <PUBCHEM_COMPOUND_CID>  (1) 
16736

>  <PUBCHEM_CONFORMER_RMSD>  (1) 
0.4

>  <PUBCHEM_CONFORMER_DIVERSEORDER>  (1) 
1

>  <PUBCHEM_MMFF94_PARTIAL_CHARGES>  (1) 
19
1 -0.34
10 -0.15
11 -0.15
12 0.37
13 -0.15
14 1.16
15 0.15
16 0.15
17 0.15
18 0.27
19 0.4
2 -0.34
20 0.4
3 -0.34
4 0.3
5 -0.71
6 -0.88
8 -0.15
9 -0.14

>  <PUBCHEM_EFFECTIVE_ROTOR_COUNT>  (1) 
1

>  <PUBCHEM_PHARMACOPHORE_FEATURES>  (1) 
5
1 4 donor
1 6 donor
3 5 6 12 cation
5 4 5 7 8 12 rings
6 7 8 9 10 11 13 rings

>  <PUBCHEM_HEAVY_ATOM_COUNT>  (1) 
14

>  <PUBCHEM_ATOM_DEF_STEREO_COUNT>  (1) 
0

>  <PUBCHEM_ATOM_UDEF_STEREO_COUNT>  (1) 
0

>  <PUBCHEM_BOND_DEF_STEREO_COUNT>  (1) 
0

>  <PUBCHEM_BOND_UDEF_STEREO_COUNT>  (1) 
0

>  <PUBCHEM_ISOTOPIC_ATOM_COUNT>  (1) 
0

>  <PUBCHEM_COMPONENT_COUNT>  (1) 
1

>  <PUBCHEM_CACTVS_TAUTO_COUNT>  (1) 
5

>  <PUBCHEM_CONFORMER_ID>  (1) 
0000416000000001

>  <PUBCHEM_MMFF94_ENERGY>  (1) 
20.0141

>  <PUBCHEM_FEATURE_SELFOVERLAP>  (1) 
25.463

>  <PUBCHEM_SHAPE_FINGERPRINT>  (1) 
10219947 1 18272654562320206334
11471102 20 18409725175096821797
11769659 78 18342168943029376046
12032990 46 18409738360852103202
12932764 1 17917711335401717657
13296908 3 18335424564637951659
14144814 61 18412546521933539051
14325111 11 18410855481671732453
14576447 43 18056463170440612359
16945 1 18338517563766422912
17844478 74 17968100841143610325
18186145 218 17458343022300649891
193761 8 17762056540853640548
20201158 50 18334293184205107338
20645477 70 18341326708659438823
20871998 22 18127132970619920862
21501502 16 18267307530243222416
21501925 9 18336815395692557346
2334 1 18410575041966743456
23402655 69 18340190913865377589
23463225 33 18339924822685638454
23552423 10 18261397681018777580
23559900 14 18193829346256004234
2748010 2 18339073770816362060
3312278 4 18408609166473197137
581208 293 18341043112195392512
63268167 104 18413109484903900073
81228 2 18189897513269497816
8809292 202 18187371995200165963

>  <PUBCHEM_SHAPE_MULTIPOLES>  (1) 
251.35
5.27
1.86
0.7
1.24
0.1
0
-1.5
0.01
-0.69
0
0.35
-0.13
0

>  <PUBCHEM_SHAPE_SELFOVERLAP>  (1) 
557.146

>  <PUBCHEM_SHAPE_VOLUME>  (1) 
136.5

>  <PUBCHEM_COORDINATE_TYPE>  (1) 
2
5
10

$$$$
