16746
     RDKit          3D

 28 28  0  0  0  0  0  0  0  0999 V2000
   -0.8710   -3.0048    0.0546 O   0  0  0  0  0  0  0  0  0  0  0  0
    1.4019    1.7414   -0.7300 O   0  0  0  0  0  0  0  0  0  0  0  0
   -7.3245    0.2978    0.0169 N   0  0  0  0  0  0  0  0  0  0  0  0
    7.2035    0.4264    0.2709 N   0  0  0  0  0  0  0  0  0  0  0  0
   -2.5307   -0.8288   -0.1435 N   0  0  0  0  0  0  0  0  0  0  0  0
    3.0686   -0.4341   -0.5343 N   0  0  0  0  0  0  0  0  0  0  0  0
   -5.9341    0.8699   -0.2186 C   0  0  0  0  0  0  0  0  0  0  0  0
    5.8171   -0.0502    0.4976 C   0  0  0  0  0  0  0  0  0  0  0  0
   -7.5805    0.1872    1.5130 C   0  0  0  0  0  0  0  0  0  0  0  0
   -8.3639    1.2164   -0.6092 C   0  0  0  0  0  0  0  0  0  0  0  0
    7.3120    1.1724   -1.0663 C   0  0  0  0  0  0  0  0  0  0  0  0
    7.6409    1.3842    1.3880 C   0  0  0  0  0  0  0  0  0  0  0  0
   -7.4195   -1.0823   -0.6175 C   0  0  0  0  0  0  0  0  0  0  0  0
    8.1875   -0.7515    0.2407 C   0  0  0  0  0  0  0  0  0  0  0  0
   -4.9081   -0.2492   -0.0916 C   0  0  0  0  0  0  0  0  0  0  0  0
    5.4394   -1.0255   -0.6103 C   0  0  0  0  0  0  0  0  0  0  0  0
   -8.9638   -0.3820    1.7410 C   0  0  0  0  0  0  0  0  0  0  0  0
   -8.2648    2.5865    0.0252 C   0  0  0  0  0  0  0  0  0  0  0  0
    6.3509    2.3410   -1.0643 C   0  0  0  0  0  0  0  0  0  0  0  0
    7.6203    0.6496    2.7106 C   0  0  0  0  0  0  0  0  0  0  0  0
   -3.4777    0.2537   -0.2674 C   0  0  0  0  0  0  0  0  0  0  0  0
    4.0041   -1.5272   -0.4757 C   0  0  0  0  0  0  0  0  0  0  0  0
   -1.1872   -0.6682   -0.2465 C   0  0  0  0  0  0  0  0  0  0  0  0
    1.7179   -0.5955   -0.4306 C   0  0  0  0  0  0  0  0  0  0  0  0
   -0.3642   -1.9014   -0.1269 C   0  0  0  0  0  0  0  0  0  0  0  0
    0.8951    0.6378   -0.5492 C   0  0  0  0  0  0  0  0  0  0  0  0
   -0.5732    0.5042   -0.4432 C   0  0  0  0  0  0  0  0  0  0  0  0
    1.1041   -1.7680   -0.2336 C   0  0  0  0  0  0  0  0  0  0  0  0
  1 25  2  0
  2 26  2  0
  3  7  1  0
  3  9  1  0
  3 10  1  0
  3 13  1  0
  4  8  1  0
  4 11  1  0
  4 12  1  0
  4 14  1  0
  5 21  1  0
  5 23  1  0
  6 22  1  0
  6 24  1  0
  7 15  1  0
  8 16  1  0
  9 17  1  0
 10 18  1  0
 11 19  1  0
 12 20  1  0
 15 21  1  0
 16 22  1  0
 23 25  1  0
 23 27  2  0
 24 26  1  0
 24 28  2  0
 25 28  1  0
 26 27  1  0
M  CHG  2   3   1   4   1
M  END
>  <PUBCHEM_COMPOUND_CID>  (1) 
16746

>  <PUBCHEM_CONFORMER_RMSD>  (1) 
1.4

>  <PUBCHEM_CONFORMER_DIVERSEORDER>  (1) 
1
4
17
18
30
20
24
28
19
29
27
9
37
21
10
34
38
42
31
7
11
22
14
32
43
15
12
25
23
8
13
39
35
36
26
16
2
33
40
41
6
5
3

>  <PUBCHEM_MMFF94_PARTIAL_CHARGES>  (1) 
26
1 -0.57
10 0.5
11 0.5
12 0.5
13 0.5
14 0.5
2 -0.57
21 0.37
22 0.37
23 0.11
24 0.11
25 0.54
26 0.54
27 -0.14
28 -0.14
3 -1.01
4 -1.01
5 -0.87
6 -0.87
67 0.4
68 0.4
69 0.15
7 0.5
70 0.15
8 0.5
9 0.5

>  <PUBCHEM_EFFECTIVE_ROTOR_COUNT>  (1) 
14

>  <PUBCHEM_PHARMACOPHORE_FEATURES>  (1) 
9
1 1 acceptor
1 2 acceptor
1 3 cation
1 4 cation
1 5 cation
1 5 donor
1 6 cation
1 6 donor
6 23 24 25 26 27 28 rings

>  <PUBCHEM_HEAVY_ATOM_COUNT>  (1) 
28

>  <PUBCHEM_ATOM_DEF_STEREO_COUNT>  (1) 
0

>  <PUBCHEM_ATOM_UDEF_STEREO_COUNT>  (1) 
0

>  <PUBCHEM_BOND_DEF_STEREO_COUNT>  (1) 
0

>  <PUBCHEM_BOND_UDEF_STEREO_COUNT>  (1) 
0

>  <PUBCHEM_ISOTOPIC_ATOM_COUNT>  (1) 
0

>  <PUBCHEM_COMPONENT_COUNT>  (1) 
1

>  <PUBCHEM_CACTVS_TAUTO_COUNT>  (1) 
6

>  <PUBCHEM_CONFORMER_ID>  (1) 
0000416A00000001

>  <PUBCHEM_MMFF94_ENERGY>  (1) 
94.1274

>  <PUBCHEM_FEATURE_SELFOVERLAP>  (1) 
45.672

>  <PUBCHEM_SHAPE_FINGERPRINT>  (1) 
10 15 17967819365845016343
11135609 127 13038607597670041538
11181472 205 15768949964928199963
11315181 36 17346597466423526059
11456790 92 18187080659342800408
11578821 258 18131349713519102841
11638347 137 16805600344460379026
12539765 74 17775012266694609678
12838862 33 18336813235318648293
14216079 64 8358261440888240114
14251764 18 18334576854062931317
14617042 71 17703220837009029032
14849402 71 18341335578083727641
14937079 2 18261959638782883588
15131766 46 15794011314249802094
15461852 350 16271917221923346109
15840311 113 18040721381309458924
16120349 18 18409445912091832196
16991971 28 8862939489760939259
1754908 1 16805045133589937465
1754911 235 16487254374076464905
1818759 1 11169916056803130337
18335252 114 15410887475024155272
19301679 30 15937237903989038658
195137 175 17418657267330904145
21150785 3 14476961194726939306
21792934 111 18338228281229926824
22224240 67 18410009935734401063
23576562 1 14619926336648116577
24771293 8 18413102883370231309
249057 3 15697990860252274573
3178227 256 18187374233336803019
34797466 226 15985107423141925436
3711267 37 17846505828779998313
4093350 32 17560805407608883358
5470011 282 13182737070057718736
5758199 1 18343867706143943379
59682541 35 18409169922273356371
636775 72 18264208025068395349

>  <PUBCHEM_SHAPE_MULTIPOLES>  (1) 
544.56
33.1
2.16
1.36
20.89
0
1.01
-14.5
10.34
-0.05
-0.36
-1.57
-0.42
0.56

>  <PUBCHEM_SHAPE_SELFOVERLAP>  (1) 
1070.155

>  <PUBCHEM_SHAPE_VOLUME>  (1) 
328.6

>  <PUBCHEM_COORDINATE_TYPE>  (1) 
2
5
10

$$$$
