16765
     RDKit          3D

 18 19  0  0  0  0  0  0  0  0999 V2000
    1.7230   -3.2482    0.5576 Cl  0  0  0  0  0  0  0  0  0  0  0  0
    2.9819    2.7436   -0.6735 Cl  0  0  0  0  0  0  0  0  0  0  0  0
    5.3224    0.7000    0.2257 Cl  0  0  0  0  0  0  0  0  0  0  0  0
   -5.2341   -1.3569   -0.4033 Cl  0  0  0  0  0  0  0  0  0  0  0  0
   -2.7156    3.0319    0.8055 Cl  0  0  0  0  0  0  0  0  0  0  0  0
   -0.2917   -1.1373   -0.3030 N   0  0  0  0  0  0  0  0  0  0  0  0
   -1.4737    0.8200    0.2172 N   0  0  0  0  0  0  0  0  0  0  0  0
   -2.6353   -1.2044   -0.3402 N   0  0  0  0  0  0  0  0  0  0  0  0
   -3.8727    0.7826    0.1875 N   0  0  0  0  0  0  0  0  0  0  0  0
    1.0483   -0.7076   -0.1748 C   0  0  0  0  0  0  0  0  0  0  0  0
    2.0576   -1.5887    0.2138 C   0  0  0  0  0  0  0  0  0  0  0  0
    1.3529    0.6265   -0.4448 C   0  0  0  0  0  0  0  0  0  0  0  0
   -1.5224   -0.4774   -0.1344 C   0  0  0  0  0  0  0  0  0  0  0  0
    2.6667    1.0796   -0.3263 C   0  0  0  0  0  0  0  0  0  0  0  0
    3.3715   -1.1356    0.3325 C   0  0  0  0  0  0  0  0  0  0  0  0
    3.6761    0.1987    0.0624 C   0  0  0  0  0  0  0  0  0  0  0  0
   -3.7706   -0.5099   -0.1617 C   0  0  0  0  0  0  0  0  0  0  0  0
   -2.6843    1.3833    0.3596 C   0  0  0  0  0  0  0  0  0  0  0  0
  1 11  1  0
  2 14  1  0
  3 16  1  0
  4 17  1  0
  5 18  1  0
  6 10  1  0
  6 13  1  0
  7 13  2  0
  7 18  1  0
  8 13  1  0
  8 17  2  0
  9 17  1  0
  9 18  2  0
 10 11  2  0
 10 12  1  0
 11 15  1  0
 12 14  2  0
 14 16  1  0
 15 16  2  0
M  END
>  <PUBCHEM_COMPOUND_CID>  (1) 
16765

>  <PUBCHEM_CONFORMER_RMSD>  (1) 
0.6

>  <PUBCHEM_CONFORMER_DIVERSEORDER>  (1) 
1
9
6
5
10
7
2
3
8
4

>  <PUBCHEM_MMFF94_PARTIAL_CHARGES>  (1) 
21
1 -0.18
10 0.1
11 0.18
12 -0.15
13 0.72
14 0.18
15 -0.15
16 0.18
17 0.8
18 0.8
19 0.4
2 -0.18
20 0.15
21 0.15
3 -0.18
4 -0.18
5 -0.18
6 -0.6
7 -0.62
8 -0.62
9 -0.62

>  <PUBCHEM_EFFECTIVE_ROTOR_COUNT>  (1) 
2

>  <PUBCHEM_PHARMACOPHORE_FEATURES>  (1) 
4
1 6 donor
4 6 7 8 13 cation
6 10 11 12 14 15 16 rings
6 7 8 9 13 17 18 rings

>  <PUBCHEM_HEAVY_ATOM_COUNT>  (1) 
18

>  <PUBCHEM_ATOM_DEF_STEREO_COUNT>  (1) 
0

>  <PUBCHEM_ATOM_UDEF_STEREO_COUNT>  (1) 
0

>  <PUBCHEM_BOND_DEF_STEREO_COUNT>  (1) 
0

>  <PUBCHEM_BOND_UDEF_STEREO_COUNT>  (1) 
0

>  <PUBCHEM_ISOTOPIC_ATOM_COUNT>  (1) 
0

>  <PUBCHEM_COMPONENT_COUNT>  (1) 
1

>  <PUBCHEM_CACTVS_TAUTO_COUNT>  (1) 
3

>  <PUBCHEM_CONFORMER_ID>  (1) 
0000417D00000001

>  <PUBCHEM_MMFF94_ENERGY>  (1) 
48.4021

>  <PUBCHEM_FEATURE_SELFOVERLAP>  (1) 
20.297

>  <PUBCHEM_SHAPE_FINGERPRINT>  (1) 
10090160 65 18263074565005599207
10366900 7 18410575123460359315
10616163 171 18412828001506443023
12107183 9 17690560784319850947
12236239 1 18272087214357359630
12403260 363 18409444808453879384
12507557 5 18335134293383862284
13140716 1 18122344845971653739
13583140 156 17679318368806223057
14178342 30 18266727009515264074
14289901 80 18411700946279382083
14466204 15 18410567363151216392
14790565 3 18334305292673372796
15196674 1 18411981317333290296
15442244 35 18122626046154853386
15536298 74 18342176622821369374
17492 89 18340206272299643087
17802600 8 18413103987198282264
18522853 276 18412543227704302312
19050596 39 18410578379261723697
200 152 18410848885087275727
20279233 1 15936410030944967739
20510252 161 18130792222531151123
20645477 70 18261105249248848078
20715895 44 17978787909904771973
20739085 24 18187364269439846668
21065198 48 18338232669890210850
21267235 1 18411427231976356558
21524375 3 18342460391257680270
2255824 54 18334017185765464134
22854114 111 18408887330204098310
23402539 116 18271518784363188087
23557571 272 17632581551870107128
23558518 356 18265623091583384003
23559900 14 18268705026570320947
23598288 3 17917139482482219525
26918003 58 18040714809703683291
2838139 119 15481807109504291360
312423 11 18339656563539698823
350125 39 18411136952343231660
3545911 37 18409448102461595943
4214541 1 18411419466817851621
474 4 18260548961105570800
5104073 3 18338797810261162067
58051976 378 18412265059910756870
603831 33 18271793636447918535
6333272 397 18336265734035679234
7097593 13 18048035173147788771
7364860 26 18340207376037270182
7832392 63 18194967335741346000
9709674 26 18409737231329036555
9981440 41 18263361567636693616

>  <PUBCHEM_SHAPE_MULTIPOLES>  (1) 
359.86
9.92
3.11
0.76
3.18
0.41
-0.02
0.87
0.09
-0.38
-0.5
0.02
0.14
-1.44

>  <PUBCHEM_SHAPE_SELFOVERLAP>  (1) 
724.742

>  <PUBCHEM_SHAPE_VOLUME>  (1) 
207.5

>  <PUBCHEM_COORDINATE_TYPE>  (1) 
2
5
10

$$$$
