16766
     RDKit          3D

 15 16  0  0  0  0  0  0  0  0999 V2000
    4.4527    1.7191   -0.1432 Cl  0  0  0  0  0  0  0  0  0  0  0  0
    2.2796   -2.9835    0.3350 Cl  0  0  0  0  0  0  0  0  0  0  0  0
   -0.4584    1.1128   -0.1226 N   0  0  0  0  0  0  0  0  0  0  0  0
    0.8709   -0.8069    0.0924 N   0  0  0  0  0  0  0  0  0  0  0  0
    1.8732    1.3621   -0.1280 N   0  0  0  0  0  0  0  0  0  0  0  0
    3.2601   -0.5839    0.0902 N   0  0  0  0  0  0  0  0  0  0  0  0
   -1.7597    0.5709   -0.0761 C   0  0  0  0  0  0  0  0  0  0  0  0
   -2.8118    1.3258    0.4428 C   0  0  0  0  0  0  0  0  0  0  0  0
   -1.9945   -0.7204   -0.5486 C   0  0  0  0  0  0  0  0  0  0  0  0
    0.8212    0.5290   -0.0494 C   0  0  0  0  0  0  0  0  0  0  0  0
   -4.0985    0.7895    0.4893 C   0  0  0  0  0  0  0  0  0  0  0  0
   -3.2814   -1.2567   -0.5021 C   0  0  0  0  0  0  0  0  0  0  0  0
   -4.3333   -0.5017    0.0168 C   0  0  0  0  0  0  0  0  0  0  0  0
    3.0587    0.7363   -0.0513 C   0  0  0  0  0  0  0  0  0  0  0  0
    2.1213   -1.2924    0.1548 C   0  0  0  0  0  0  0  0  0  0  0  0
  1 14  1  0
  2 15  1  0
  3  7  1  0
  3 10  1  0
  4 10  2  0
  4 15  1  0
  5 10  1  0
  5 14  2  0
  6 14  1  0
  6 15  2  0
  7  8  2  0
  7  9  1  0
  8 11  1  0
  9 12  2  0
 11 13  2  0
 12 13  1  0
M  END
>  <PUBCHEM_COMPOUND_CID>  (1) 
16766

>  <PUBCHEM_CONFORMER_RMSD>  (1) 
0.6

>  <PUBCHEM_CONFORMER_DIVERSEORDER>  (1) 
1
3
2

>  <PUBCHEM_MMFF94_PARTIAL_CHARGES>  (1) 
21
1 -0.18
10 0.72
11 -0.15
12 -0.15
13 -0.15
14 0.8
15 0.8
16 0.4
17 0.15
18 0.15
19 0.15
2 -0.18
20 0.15
21 0.15
3 -0.6
4 -0.62
5 -0.62
6 -0.62
7 0.1
8 -0.15
9 -0.15

>  <PUBCHEM_EFFECTIVE_ROTOR_COUNT>  (1) 
2

>  <PUBCHEM_PHARMACOPHORE_FEATURES>  (1) 
4
1 3 donor
4 3 4 5 10 cation
6 4 5 6 10 14 15 rings
6 7 8 9 11 12 13 rings

>  <PUBCHEM_HEAVY_ATOM_COUNT>  (1) 
15

>  <PUBCHEM_ATOM_DEF_STEREO_COUNT>  (1) 
0

>  <PUBCHEM_ATOM_UDEF_STEREO_COUNT>  (1) 
0

>  <PUBCHEM_BOND_DEF_STEREO_COUNT>  (1) 
0

>  <PUBCHEM_BOND_UDEF_STEREO_COUNT>  (1) 
0

>  <PUBCHEM_ISOTOPIC_ATOM_COUNT>  (1) 
0

>  <PUBCHEM_COMPONENT_COUNT>  (1) 
1

>  <PUBCHEM_CACTVS_TAUTO_COUNT>  (1) 
3

>  <PUBCHEM_CONFORMER_ID>  (1) 
0000417E00000001

>  <PUBCHEM_MMFF94_ENERGY>  (1) 
43.1613

>  <PUBCHEM_FEATURE_SELFOVERLAP>  (1) 
20.297

>  <PUBCHEM_SHAPE_FINGERPRINT>  (1) 
10616163 171 18341614875353731327
10980938 120 18410009923102167554
11471102 20 18408881845515128116
12107183 9 17692819190225760657
12251169 10 18342457006754794687
12346645 44 18413108389708286404
13380535 76 18260548974038153618
13760787 19 18272371983774342397
14144814 61 18413107243115444761
14445660 50 18343308050308898057
15196674 1 18411419509804382879
15279307 12 18341894120957247471
15375358 24 18040152937486067593
15375462 189 18343582940989759931
15442244 35 18196092127388266899
15536298 74 18342458119051259966
15669948 3 17846490461497191375
15775835 57 18343305885297078197
18186145 218 17530965735461603747
19050596 39 18412260627409087632
19422 9 18341613677020380139
200 152 18271516585703857869
20279233 1 16225764129650164913
20281475 54 18413101745483634743
20645477 70 18335412422950262663
21267235 1 18412272713505437991
21501502 16 18341047432726763955
221490 88 18335991886942375162
22445834 79 18412544293199057111
22485316 2 18409727353040808125
2255824 54 18334580169988816692
23402539 116 12035716661500097811
23402655 69 18411698777173334197
23463225 33 18340768139725393047
23559900 14 18269547235328795010
3312278 4 18341896333250097865
33824 294 18334575745919567114
474 4 18188213220606625956
4990 188 17988938777303199044
5104073 3 18410856542718455657
57096353 35 18341047522852551421
581208 293 18335137600766766264
603831 33 18201143455853063751
633830 44 18270965747358108692
7364860 26 18340769243727290254
77779 3 18412829070831467117
81539 233 18187644726119119582
9709674 26 18408890633134786427

>  <PUBCHEM_SHAPE_MULTIPOLES>  (1) 
292.51
8.66
2.26
0.68
1.71
1.47
0
-1.63
0.23
-2.18
0.2
0.18
0.04
-0.74

>  <PUBCHEM_SHAPE_SELFOVERLAP>  (1) 
606.987

>  <PUBCHEM_SHAPE_VOLUME>  (1) 
162

>  <PUBCHEM_COORDINATE_TYPE>  (1) 
2
5
10

$$$$
