16764
     RDKit          3D

 17 18  0  0  0  0  0  0  0  0999 V2000
   -2.1629    3.1205   -0.5774 Cl  0  0  0  0  0  0  0  0  0  0  0  0
   -3.2380   -2.9094    0.6033 Cl  0  0  0  0  0  0  0  0  0  0  0  0
    4.8612    1.5184    0.4455 Cl  0  0  0  0  0  0  0  0  0  0  0  0
    2.5412   -2.9664   -0.8068 Cl  0  0  0  0  0  0  0  0  0  0  0  0
   -0.0665    1.0927    0.2929 N   0  0  0  0  0  0  0  0  0  0  0  0
    1.2017   -0.8112   -0.2224 N   0  0  0  0  0  0  0  0  0  0  0  0
    2.2718    1.2575    0.3553 N   0  0  0  0  0  0  0  0  0  0  0  0
    3.5967   -0.6737   -0.1671 N   0  0  0  0  0  0  0  0  0  0  0  0
   -1.3859    0.6074    0.1504 C   0  0  0  0  0  0  0  0  0  0  0  0
   -2.4284    1.4466   -0.2433 C   0  0  0  0  0  0  0  0  0  0  0  0
   -1.6362   -0.7398    0.4121 C   0  0  0  0  0  0  0  0  0  0  0  0
    1.1925    0.4856    0.1347 C   0  0  0  0  0  0  0  0  0  0  0  0
   -2.9286   -1.2476    0.2802 C   0  0  0  0  0  0  0  0  0  0  0  0
   -3.7208    0.9386   -0.3752 C   0  0  0  0  0  0  0  0  0  0  0  0
   -3.9710   -0.4085   -0.1134 C   0  0  0  0  0  0  0  0  0  0  0  0
    3.4370    0.6120    0.1858 C   0  0  0  0  0  0  0  0  0  0  0  0
    2.4363   -1.3227   -0.3545 C   0  0  0  0  0  0  0  0  0  0  0  0
  1 10  1  0
  2 13  1  0
  3 16  1  0
  4 17  1  0
  5  9  1  0
  5 12  1  0
  6 12  2  0
  6 17  1  0
  7 12  1  0
  7 16  2  0
  8 16  1  0
  8 17  2  0
  9 10  2  0
  9 11  1  0
 10 14  1  0
 11 13  2  0
 13 15  1  0
 14 15  2  0
M  END
>  <PUBCHEM_COMPOUND_CID>  (1) 
16764

>  <PUBCHEM_CONFORMER_RMSD>  (1) 
0.6

>  <PUBCHEM_CONFORMER_DIVERSEORDER>  (1) 
2
9
1
8
10
5
6
11
7
3
4

>  <PUBCHEM_MMFF94_PARTIAL_CHARGES>  (1) 
21
1 -0.18
10 0.18
11 -0.15
12 0.72
13 0.18
14 -0.15
15 -0.15
16 0.8
17 0.8
18 0.4
19 0.15
2 -0.18
20 0.15
21 0.15
3 -0.18
4 -0.18
5 -0.6
6 -0.62
7 -0.62
8 -0.62
9 0.1

>  <PUBCHEM_EFFECTIVE_ROTOR_COUNT>  (1) 
2

>  <PUBCHEM_PHARMACOPHORE_FEATURES>  (1) 
4
1 5 donor
4 5 6 7 12 cation
6 6 7 8 12 16 17 rings
6 9 10 11 13 14 15 rings

>  <PUBCHEM_HEAVY_ATOM_COUNT>  (1) 
17

>  <PUBCHEM_ATOM_DEF_STEREO_COUNT>  (1) 
0

>  <PUBCHEM_ATOM_UDEF_STEREO_COUNT>  (1) 
0

>  <PUBCHEM_BOND_DEF_STEREO_COUNT>  (1) 
0

>  <PUBCHEM_BOND_UDEF_STEREO_COUNT>  (1) 
0

>  <PUBCHEM_ISOTOPIC_ATOM_COUNT>  (1) 
0

>  <PUBCHEM_COMPONENT_COUNT>  (1) 
1

>  <PUBCHEM_CACTVS_TAUTO_COUNT>  (1) 
3

>  <PUBCHEM_CONFORMER_ID>  (1) 
0000417C00000002

>  <PUBCHEM_MMFF94_ENERGY>  (1) 
45.9926

>  <PUBCHEM_FEATURE_SELFOVERLAP>  (1) 
20.297

>  <PUBCHEM_SHAPE_FINGERPRINT>  (1) 
10366900 7 18201991166364676593
10608611 8 18411133593757862484
10616163 171 18410857706428154399
12173636 292 18190457152298707685
12500047 106 18191022305047774340
12553582 1 18047491181459755539
12839892 36 18339626941493500890
15099037 37 18262796392642169106
15196674 1 18411981368672697634
15219456 202 18412544292829681548
15375358 24 18410007740995186554
15375462 6 18412544314431294196
15420108 30 14532144175533553664
15442244 35 18053102818002892952
17834074 16 18411702075539269439
18186145 218 18046344137054154157
19049666 15 18340205163680206595
19107657 46 18411983597824138255
19141452 34 18269845362585114075
200 152 17775280586629220069
20279233 1 18410294713498296634
20510252 161 18339922606957819761
20645477 56 18262520278096341333
20645477 70 17846498084969124958
20693207 138 18268723714004473718
221490 88 18340776961825907654
22943178 12 18341048523743331284
23402539 116 18041550459540615888
23557571 272 18261110807231454021
23559900 14 18339637850572834024
2871803 45 18410291436438633047
33824 294 18413670218902428042
4214541 1 18337389344709297672
474229 33 18268428117560220130
5104073 3 18412262826722487794
58051976 378 18409727382942068604
7364860 26 18271806766442373998
81228 2 18187374216162546473
8809292 202 18337677416718734819
9709674 26 18411983520451404023

>  <PUBCHEM_SHAPE_MULTIPOLES>  (1) 
337.41
8.65
3.22
0.76
4.38
0.87
0.03
-0.25
-0.36
-1.09
0.45
0.03
0.12
1.63

>  <PUBCHEM_SHAPE_SELFOVERLAP>  (1) 
685.422

>  <PUBCHEM_SHAPE_VOLUME>  (1) 
192.7

>  <PUBCHEM_COORDINATE_TYPE>  (1) 
2
5
10

$$$$
