16770
     RDKit          3D

 19 20  0  0  0  0  0  0  0  0999 V2000
    1.8378   -2.6203   -1.3104 Cl  0  0  0  0  0  0  0  0  0  0  0  0
    4.2429    2.5569    1.2200 Cl  0  0  0  0  0  0  0  0  0  0  0  0
    5.4819    1.2996   -1.4928 Cl  0  0  0  0  0  0  0  0  0  0  0  0
   -6.0721    1.6812   -1.5068 Cl  0  0  0  0  0  0  0  0  0  0  0  0
   -1.5302   -1.4604    1.5101 S   0  0  0  0  0  0  0  0  0  0  0  0
    0.8740   -1.2448    1.2148 N   0  0  0  0  0  0  0  0  0  0  0  0
   -0.1940   -0.7724    0.7736 N   0  0  0  0  0  0  0  0  0  0  0  0
    1.9644   -0.6487    0.5672 C   0  0  0  0  0  0  0  0  0  0  0  0
    2.4974   -1.1903   -0.6026 C   0  0  0  0  0  0  0  0  0  0  0  0
    2.5172    0.5087    1.1149 C   0  0  0  0  0  0  0  0  0  0  0  0
    3.6030    1.1249    0.4929 C   0  0  0  0  0  0  0  0  0  0  0  0
    3.5833   -0.5742   -1.2247 C   0  0  0  0  0  0  0  0  0  0  0  0
    4.1362    0.5834   -0.6769 C   0  0  0  0  0  0  0  0  0  0  0  0
   -2.8189   -0.5692    0.6542 C   0  0  0  0  0  0  0  0  0  0  0  0
   -2.9260   -0.6643   -0.7317 C   0  0  0  0  0  0  0  0  0  0  0  0
   -3.7138    0.2193    1.3744 C   0  0  0  0  0  0  0  0  0  0  0  0
   -3.9326    0.0323   -1.4004 C   0  0  0  0  0  0  0  0  0  0  0  0
   -4.7204    0.9159    0.7057 C   0  0  0  0  0  0  0  0  0  0  0  0
   -4.8300    0.8223   -0.6817 C   0  0  0  0  0  0  0  0  0  0  0  0
  1  9  1  0
  2 11  1  0
  3 13  1  0
  4 19  1  0
  5  7  1  0
  5 14  1  0
  6  7  2  0
  6  8  1  0
  8  9  2  0
  8 10  1  0
  9 12  1  0
 10 11  2  0
 11 13  1  0
 12 13  2  0
 14 15  2  0
 14 16  1  0
 15 17  1  0
 16 18  2  0
 17 19  2  0
 18 19  1  0
M  END
>  <PUBCHEM_COMPOUND_CID>  (1) 
16770

>  <PUBCHEM_CONFORMER_RMSD>  (1) 
0.6

>  <PUBCHEM_CONFORMER_DIVERSEORDER>  (1) 
1
33
36
18
24
4
23
17
30
34
3
28
2
37
29
16
21
27
6
35
15
5
22
9
10
25
26
7
19
20
32
31
11
8
12
13
14

>  <PUBCHEM_MMFF94_PARTIAL_CHARGES>  (1) 
25
1 -0.18
10 -0.15
11 0.18
12 -0.15
13 0.18
14 0.1
15 -0.15
16 -0.15
17 -0.15
18 -0.15
19 0.18
2 -0.18
20 0.15
21 0.15
22 0.15
23 0.15
24 0.15
25 0.15
3 -0.18
4 -0.18
5 -0.03
6 -0.18
7 -0.07
8 0.18
9 0.18

>  <PUBCHEM_EFFECTIVE_ROTOR_COUNT>  (1) 
3

>  <PUBCHEM_PHARMACOPHORE_FEATURES>  (1) 
2
6 14 15 16 17 18 19 rings
6 8 9 10 11 12 13 rings

>  <PUBCHEM_HEAVY_ATOM_COUNT>  (1) 
19

>  <PUBCHEM_ATOM_DEF_STEREO_COUNT>  (1) 
0

>  <PUBCHEM_ATOM_UDEF_STEREO_COUNT>  (1) 
0

>  <PUBCHEM_BOND_DEF_STEREO_COUNT>  (1) 
0

>  <PUBCHEM_BOND_UDEF_STEREO_COUNT>  (1) 
0

>  <PUBCHEM_ISOTOPIC_ATOM_COUNT>  (1) 
0

>  <PUBCHEM_COMPONENT_COUNT>  (1) 
1

>  <PUBCHEM_CACTVS_TAUTO_COUNT>  (1) 
1

>  <PUBCHEM_CONFORMER_ID>  (1) 
0000418200000001

>  <PUBCHEM_MMFF94_ENERGY>  (1) 
40.7181

>  <PUBCHEM_FEATURE_SELFOVERLAP>  (1) 
10.149

>  <PUBCHEM_SHAPE_FINGERPRINT>  (1) 
10498660 4 18408601465971394945
11069576 57 16558187077598725398
11552529 35 13191493618999931201
11796584 16 12246307115805804764
12363563 72 12391513100709680251
12403259 118 14996291314472502551
12596602 18 15068624915487637132
12633257 1 17023176180040121348
12730499 353 18341625827251154962
12892183 10 13551459389438037934
13103583 49 12830029063904418380
1420 369 11023821795273857445
14251751 18 12103572957041502596
14251764 38 17974565002899858988
14341114 176 13045941287431853232
14341114 328 13912620350422244503
14528608 73 18059852891489524349
14848178 96 18410858793265877152
15188451 53 8430306914824189297
16752209 62 14907901531470601959
17870717 6 15051738564858723433
18186145 218 18334582325788352763
19377110 9 14490771086557557761
193927 3 11167943584545480105
19862831 5 16630813205021243099
20645477 56 18262812859895305763
20645477 70 18130239172209074942
20739085 24 13407065986619226706
21033648 29 17967252022161358360
22289505 5 18410012096419195868
22393880 68 17418092147970703110
23402655 69 17989218027080401922
23403322 49 13470687040716408587
23503953 91 13912330070825861235
23557571 272 18115042912042675203
23559900 14 17967537831187630794
270888 7 17749106677907237237
2838139 119 17970073442761931244
3004659 81 15913329069858827239
3060560 45 17989211451923464542
312425 54 12107785177714310125
341906 21 17603865641068312376
3472631 163 17821450183417085071
4028521 119 18408604747394928849
44062 13 13901907778984894033
5104073 3 15936410026824288569
59682541 52 17845079693763508813
633830 44 18269561533718093811
7064713 232 16226051050925118375
7808743 9 17458918153055531932
7970288 3 12967127216154001541
960060 61 16486969600796836633

>  <PUBCHEM_SHAPE_MULTIPOLES>  (1) 
392.38
13.76
2.2
1.8
7.97
0.08
-0.1
-9.44
-5.55
-1.89
-0.14
0.36
-0.06
1.7

>  <PUBCHEM_SHAPE_SELFOVERLAP>  (1) 
787.384

>  <PUBCHEM_SHAPE_VOLUME>  (1) 
235.1

>  <PUBCHEM_COORDINATE_TYPE>  (1) 
2
5
10

$$$$
