16777
     RDKit          3D

 10  9  0  0  0  0  0  0  0  0999 V2000
    4.7516   -0.1417    0.6328 O   0  0  0  0  0  0  0  0  0  0  0  0
   -2.7477   -0.1953    0.2521 C   0  0  0  0  0  0  0  0  0  0  0  0
   -1.8400    0.9867   -0.1042 C   0  0  0  0  0  0  0  0  0  0  0  0
   -4.1967   -0.0107   -0.2055 C   0  0  0  0  0  0  0  0  0  0  0  0
   -0.4254    0.8101    0.3666 C   0  0  0  0  0  0  0  0  0  0  0  0
    2.0484    0.5748    0.0137 C   0  0  0  0  0  0  0  0  0  0  0  0
   -5.0564   -1.2040    0.1823 C   0  0  0  0  0  0  0  0  0  0  0  0
    0.6315    0.7458   -0.4568 C   0  0  0  0  0  0  0  0  0  0  0  0
    2.6957   -0.6899   -0.5461 C   0  0  0  0  0  0  0  0  0  0  0  0
    4.1391   -0.8757   -0.1349 C   0  0  0  0  0  0  0  0  0  0  0  0
  1 10  2  0
  2  3  1  0
  2  4  1  0
  3  5  1  0
  4  7  1  0
  5  8  2  0
  6  8  1  0
  6  9  1  0
  9 10  1  0
M  END
>  <PUBCHEM_COMPOUND_CID>  (1) 
16777

>  <PUBCHEM_CONFORMER_RMSD>  (1) 
0.6

>  <PUBCHEM_CONFORMER_DIVERSEORDER>  (1) 
1
115
65
29
107
202
200
106
102
207
72
181
19
57
63
131
160
204
3
85
67
212
206
22
12
8
48
11
41
64
90
109
66
86
101
4
151
197
177
94
10
55
192
222
153
68
125
117
98
185
190
38
96
137
97
167
220
87
113
18
51
25
184
24
88
145
49
191
111
216
228
42
100
47
155
126
132
128
225
163
118
229
91
223
6
165
169
180
84
120
21
224
122
61
174
80
135
179
164
201
93
76
144
23
173
82
215
157
172
70
46
166
16
176
77
44
226
119
17
103
208
31
227
37
105
142
32
198
183
175
149
196
194
62
186
195
50
53
40
211
148
217
28
7
170
43
89
171
95
209
213
159
162
35
199
79
13
205
187
58
178
20
230
75
193
33
161
2
219
140
45
52
71
121
73
26
210
110
139
189
127
108
146
221
158
92
168
141
203
74
78
116
130
39
129
56
136
138
150
27
34
15
54
123
154
188
114
214
156
134
112
5
59
152
104
182
99
133
30
9
83
147
218
124
81
69
60
36
14
143

>  <PUBCHEM_MMFF94_PARTIAL_CHARGES>  (1) 
10
1 -0.57
10 0.45
17 0.15
23 0.15
26 0.06
3 0.14
5 -0.29
6 0.14
8 -0.29
9 0.06

>  <PUBCHEM_EFFECTIVE_ROTOR_COUNT>  (1) 
6

>  <PUBCHEM_PHARMACOPHORE_FEATURES>  (1) 
3
1 1 acceptor
1 7 hydrophobe
4 2 3 4 5 hydrophobe

>  <PUBCHEM_HEAVY_ATOM_COUNT>  (1) 
10

>  <PUBCHEM_ATOM_DEF_STEREO_COUNT>  (1) 
0

>  <PUBCHEM_ATOM_UDEF_STEREO_COUNT>  (1) 
0

>  <PUBCHEM_BOND_DEF_STEREO_COUNT>  (1) 
0

>  <PUBCHEM_BOND_UDEF_STEREO_COUNT>  (1) 
1

>  <PUBCHEM_ISOTOPIC_ATOM_COUNT>  (1) 
0

>  <PUBCHEM_COMPONENT_COUNT>  (1) 
1

>  <PUBCHEM_CACTVS_TAUTO_COUNT>  (1) 
2

>  <PUBCHEM_CONFORMER_ID>  (1) 
0000418900000001

>  <PUBCHEM_MMFF94_ENERGY>  (1) 
-0.9756

>  <PUBCHEM_FEATURE_SELFOVERLAP>  (1) 
15.223

>  <PUBCHEM_SHAPE_FINGERPRINT>  (1) 
100836 57 10303813202467294666
114248 4 16515407382343259687
11987891 27 17385721370539969890
12815109 37 18411135831308852871
13690532 89 18261112980347632243
14123238 8 18202001036157058214
14252887 29 17489597735784821862
15477762 27 18334580135702885916
177051 138 18342179951120116100
17834072 33 18336549412320056972
17834072 8 18114172026683676357
17834076 25 11095884865178706027
18342897 14 12751237008248564923
20432913 95 18202571674276324571
20605781 2 9151176446087540991
20645477 70 18260552233691471270
20671657 53 18113904870395149237
20724930 31 18342176674028375224
20767249 13 18259983773300160514
20767249 213 11312058743100033139
21119208 17 14706929544443673571
21501925 9 18413671305439249340
22485316 2 18410571756095099063
23402539 116 17168139014408679149
23402655 69 12179836217399431459
42 15 18201722851309958073
449060 50 12751240302615113881
449060 62 9151183042903898749

>  <PUBCHEM_SHAPE_MULTIPOLES>  (1) 
199.93
10.82
1.15
0.72
1.49
0.07
-0.01
5.03
0.84
0.35
-0.02
-0.16
0
0.19

>  <PUBCHEM_SHAPE_SELFOVERLAP>  (1) 
358.954

>  <PUBCHEM_SHAPE_VOLUME>  (1) 
128.4

>  <PUBCHEM_COORDINATE_TYPE>  (1) 
2
5
10

$$$$
