16778
     RDKit          3D

 10  9  0  0  0  0  0  0  0  0999 V2000
   -4.5854    0.5773   -0.5309 O   0  0  0  0  0  0  0  0  0  0  0  0
   -0.4750   -0.2034    0.4112 C   0  0  0  0  0  0  0  0  0  0  0  0
   -1.9105    0.1945    0.0531 C   0  0  0  0  0  0  0  0  0  0  0  0
    0.4968    0.9544    0.1709 C   0  0  0  0  0  0  0  0  0  0  0  0
   -2.9005   -0.9452    0.2727 C   0  0  0  0  0  0  0  0  0  0  0  0
    1.9076    0.5557    0.4935 C   0  0  0  0  0  0  0  0  0  0  0  0
    2.9061    0.5573   -0.4017 C   0  0  0  0  0  0  0  0  0  0  0  0
    4.3178    0.1675   -0.0772 C   0  0  0  0  0  0  0  0  0  0  0  0
   -4.3009   -0.5367   -0.1026 C   0  0  0  0  0  0  0  0  0  0  0  0
    4.5439   -1.3214   -0.2890 C   0  0  0  0  0  0  0  0  0  0  0  0
  1  9  2  0
  2  3  1  0
  2  4  1  0
  3  5  1  0
  4  6  1  0
  5  9  1  0
  6  7  2  0
  7  8  1  0
  8 10  1  0
M  END
>  <PUBCHEM_COMPOUND_CID>  (1) 
16778

>  <PUBCHEM_CONFORMER_RMSD>  (1) 
0.6

>  <PUBCHEM_CONFORMER_DIVERSEORDER>  (1) 
1
20
58
131
155
68
157
5
99
3
35
64
48
138
91
8
152
57
156
146
7
145
9
110
149
151
27
119
50
100
52
115
143
16
107
22
67
109
42
144
63
141
120
59
139
84
95
150
117
31
34
80
154
10
14
87
60
113
90
106
88
69
77
124
159
94
47
19
26
140
134
4
28
71
23
6
137
96
102
82
93
29
17
158
66
79
153
46
36
86
148
122
30
41
15
142
73
123
114
125
105
147
121
136
40
85
112
53
24
116
49
33
78
76
25
55
128
54
89
83
61
37
111
92
132
72
133
12
126
97
103
130
62
101
81
135
129
32
45
13
2
118
39
74
18
75
98
43
11
108
51
44
70
127
56
38
21
65
104

>  <PUBCHEM_MMFF94_PARTIAL_CHARGES>  (1) 
10
1 -0.57
19 0.15
20 0.15
23 0.06
4 0.14
5 0.06
6 -0.29
7 -0.29
8 0.14
9 0.45

>  <PUBCHEM_EFFECTIVE_ROTOR_COUNT>  (1) 
6

>  <PUBCHEM_PHARMACOPHORE_FEATURES>  (1) 
3
1 1 acceptor
1 10 hydrophobe
5 2 3 4 5 6 hydrophobe

>  <PUBCHEM_HEAVY_ATOM_COUNT>  (1) 
10

>  <PUBCHEM_ATOM_DEF_STEREO_COUNT>  (1) 
0

>  <PUBCHEM_ATOM_UDEF_STEREO_COUNT>  (1) 
0

>  <PUBCHEM_BOND_DEF_STEREO_COUNT>  (1) 
0

>  <PUBCHEM_BOND_UDEF_STEREO_COUNT>  (1) 
1

>  <PUBCHEM_ISOTOPIC_ATOM_COUNT>  (1) 
0

>  <PUBCHEM_COMPONENT_COUNT>  (1) 
1

>  <PUBCHEM_CACTVS_TAUTO_COUNT>  (1) 
2

>  <PUBCHEM_CONFORMER_ID>  (1) 
0000418A00000001

>  <PUBCHEM_MMFF94_ENERGY>  (1) 
-0.2385

>  <PUBCHEM_FEATURE_SELFOVERLAP>  (1) 
15.223

>  <PUBCHEM_SHAPE_FINGERPRINT>  (1) 
11062470 55 9511467718600473249
11987891 38 18412548716888953322
12815109 37 18273213106185775554
13237642 15 10519980478538318463
13690532 89 18272653454229284298
14123238 8 9871747996635509115
14251717 144 18201723920810108262
14252887 29 16558761096331421742
177051 138 18130793330801609198
17834072 8 18261107452814347943
17834076 25 14345793846683883929
18186145 218 16805879697000603997
18342897 14 7997974574299662231
1986462 14 18335421305195513463
20645477 70 18341897389854595102
20767249 13 17203326710591155902
21119208 17 17749108898083198732
22485316 2 18272087231758651318
22959321 60 9727338139712434902
23218964 4 18409728426840647917
23402539 116 16702300135977443353
32948 21 18260828163701970108
449060 62 10737285753792777230
4990 188 18040155127951219002

>  <PUBCHEM_SHAPE_MULTIPOLES>  (1) 
199.93
10.62
1.1
0.71
1.27
0.21
0.01
2.54
-1.75
-0.55
-0.02
0
-0.02
0.31

>  <PUBCHEM_SHAPE_SELFOVERLAP>  (1) 
360.472

>  <PUBCHEM_SHAPE_VOLUME>  (1) 
127.9

>  <PUBCHEM_COORDINATE_TYPE>  (1) 
2
5
10

$$$$
