16786
     RDKit          3D

 12 12  0  0  0  0  0  0  0  0999 V2000
    1.3211   -2.3209   -0.0195 Cl  0  0  0  0  0  0  0  0  0  0  0  0
   -2.7576    2.4090    0.0081 Cl  0  0  0  0  0  0  0  0  0  0  0  0
    2.6797    0.7908   -1.1121 O   0  0  0  0  0  0  0  0  0  0  0  0
   -1.6831   -2.5902    0.0204 N   0  0  0  0  0  0  0  0  0  0  0  0
    2.7102    0.7850    1.1808 N   0  0  0  0  0  0  0  0  0  0  0  0
    0.6471    0.3089   -0.0245 C   0  0  0  0  0  0  0  0  0  0  0  0
   -1.1826   -1.2684    0.0069 C   0  0  0  0  0  0  0  0  0  0  0  0
    0.1875   -1.0080   -0.0118 C   0  0  0  0  0  0  0  0  0  0  0  0
   -0.2636    1.3655   -0.0184 C   0  0  0  0  0  0  0  0  0  0  0  0
   -2.0933   -0.2119    0.0129 C   0  0  0  0  0  0  0  0  0  0  0  0
   -1.6337    1.1051    0.0002 C   0  0  0  0  0  0  0  0  0  0  0  0
    2.0683    0.6352   -0.0430 C   0  0  0  0  0  0  0  0  0  0  0  0
  1  8  1  0
  2 11  1  0
  3 12  2  0
  4  7  1  0
  5 12  1  0
  6  8  2  0
  6  9  1  0
  6 12  1  0
  7  8  1  0
  7 10  2  0
  9 11  2  0
 10 11  1  0
M  END
>  <PUBCHEM_COMPOUND_CID>  (1) 
16786

>  <PUBCHEM_CONFORMER_RMSD>  (1) 
0.4

>  <PUBCHEM_CONFORMER_DIVERSEORDER>  (1) 
1
3
2
4

>  <PUBCHEM_MMFF94_PARTIAL_CHARGES>  (1) 
18
1 -0.18
10 -0.15
11 0.18
12 0.54
13 0.15
14 0.15
15 0.4
16 0.4
17 0.37
18 0.37
2 -0.18
3 -0.57
4 -0.9
5 -0.8
6 0.09
7 0.1
8 0.18
9 -0.15

>  <PUBCHEM_EFFECTIVE_ROTOR_COUNT>  (1) 
1

>  <PUBCHEM_PHARMACOPHORE_FEATURES>  (1) 
5
1 3 acceptor
1 4 cation
1 4 donor
1 5 donor
6 6 7 8 9 10 11 rings

>  <PUBCHEM_HEAVY_ATOM_COUNT>  (1) 
12

>  <PUBCHEM_ATOM_DEF_STEREO_COUNT>  (1) 
0

>  <PUBCHEM_ATOM_UDEF_STEREO_COUNT>  (1) 
0

>  <PUBCHEM_BOND_DEF_STEREO_COUNT>  (1) 
0

>  <PUBCHEM_BOND_UDEF_STEREO_COUNT>  (1) 
0

>  <PUBCHEM_ISOTOPIC_ATOM_COUNT>  (1) 
0

>  <PUBCHEM_COMPONENT_COUNT>  (1) 
1

>  <PUBCHEM_CACTVS_TAUTO_COUNT>  (1) 
2

>  <PUBCHEM_CONFORMER_ID>  (1) 
0000419200000001

>  <PUBCHEM_MMFF94_ENERGY>  (1) 
44.8812

>  <PUBCHEM_FEATURE_SELFOVERLAP>  (1) 
25.371

>  <PUBCHEM_SHAPE_FINGERPRINT>  (1) 
1 1 17906166257415416165
12423570 1 10193797671083511676
12716758 59 18342179959704814804
13380535 21 18338532832454086641
13380535 76 18339632343992276279
13380536 305 17978238149198908415
16945 1 18410575136455939533
193761 8 18338517443623617039
20510252 161 18198627833283458192
20511035 2 18267864982300966287
20871998 184 18127412469288949311
21040471 1 18410575046034954893
21501502 16 18338516335395259335
2334 1 18338518530429288245
23552423 10 18261678073373936598
23559900 14 18200602406913551484
2748010 2 18265059028990573477
5084963 1 17986408890772299370
7364860 26 17911512104097419246
81228 2 18339079423088126201

>  <PUBCHEM_SHAPE_MULTIPOLES>  (1) 
234.86
3.84
2.68
0.77
0.74
1.57
0.02
-2.2
0.05
0.18
0.02
-0.4
-0.24
0.03

>  <PUBCHEM_SHAPE_SELFOVERLAP>  (1) 
477.077

>  <PUBCHEM_SHAPE_VOLUME>  (1) 
139.1

>  <PUBCHEM_COORDINATE_TYPE>  (1) 
2
5
10

$$$$
