16792
     RDKit          3D

 17 17  0  0  0  0  0  0  0  0999 V2000
    1.1360   -2.4424   -1.0068 Cl  0  0  0  0  0  0  0  0  0  0  0  0
    0.4068    0.4578   -0.8858 O   0  0  0  0  0  0  0  0  0  0  0  0
   -0.3840    0.1321    1.2901 O   0  0  0  0  0  0  0  0  0  0  0  0
   -2.9577    0.0539    0.2025 N   0  0  0  0  0  0  0  0  0  0  0  0
   -2.7545   -1.3933    0.1479 C   0  0  0  0  0  0  0  0  0  0  0  0
   -4.2656    0.4076   -0.3479 C   0  0  0  0  0  0  0  0  0  0  0  0
   -1.8936    0.7472   -0.5227 C   0  0  0  0  0  0  0  0  0  0  0  0
   -3.8518   -2.1303    0.8970 C   0  0  0  0  0  0  0  0  0  0  0  0
   -4.5194    1.9019   -0.2433 C   0  0  0  0  0  0  0  0  0  0  0  0
   -0.5670    0.4061    0.1116 C   0  0  0  0  0  0  0  0  0  0  0  0
    1.6870    0.1577   -0.4139 C   0  0  0  0  0  0  0  0  0  0  0  0
    2.4731    1.1918    0.0497 C   0  0  0  0  0  0  0  0  0  0  0  0
    2.1219   -1.1505   -0.4269 C   0  0  0  0  0  0  0  0  0  0  0  0
    3.7533    0.9036    0.5225 C   0  0  0  0  0  0  0  0  0  0  0  0
    1.9952    2.6066    0.0594 C   0  0  0  0  0  0  0  0  0  0  0  0
    3.4022   -1.4386    0.0459 C   0  0  0  0  0  0  0  0  0  0  0  0
    4.2180   -0.4115    0.5206 C   0  0  0  0  0  0  0  0  0  0  0  0
  1 13  1  0
  2 10  1  0
  2 11  1  0
  3 10  2  0
  4  5  1  0
  4  6  1  0
  4  7  1  0
  5  8  1  0
  6  9  1  0
  7 10  1  0
 11 12  2  0
 11 13  1  0
 12 14  1  0
 12 15  1  0
 13 16  2  0
 14 17  2  0
 16 17  1  0
M  END
>  <PUBCHEM_COMPOUND_CID>  (1) 
16792

>  <PUBCHEM_CONFORMER_RMSD>  (1) 
0.8

>  <PUBCHEM_CONFORMER_DIVERSEORDER>  (1) 
1
48
38
15
40
52
22
42
29
33
39
54
44
26
46
49
37
9
17
32
41
13
21
55
23
18
31
45
5
36
51
30
27
24
47
19
53
6
35
11
25
28
50
43
12
8
34
14
20
7
10
16
3
4
2

>  <PUBCHEM_MMFF94_PARTIAL_CHARGES>  (1) 
18
1 -0.18
10 0.66
11 0.08
12 -0.14
13 0.18
14 -0.15
15 0.14
16 -0.15
17 -0.15
2 -0.23
3 -0.57
30 0.15
34 0.15
35 0.15
4 -0.81
5 0.27
6 0.27
7 0.33

>  <PUBCHEM_EFFECTIVE_ROTOR_COUNT>  (1) 
6

>  <PUBCHEM_PHARMACOPHORE_FEATURES>  (1) 
3
1 3 acceptor
1 4 cation
6 11 12 13 14 16 17 rings

>  <PUBCHEM_HEAVY_ATOM_COUNT>  (1) 
17

>  <PUBCHEM_ATOM_DEF_STEREO_COUNT>  (1) 
0

>  <PUBCHEM_ATOM_UDEF_STEREO_COUNT>  (1) 
0

>  <PUBCHEM_BOND_DEF_STEREO_COUNT>  (1) 
0

>  <PUBCHEM_BOND_UDEF_STEREO_COUNT>  (1) 
0

>  <PUBCHEM_ISOTOPIC_ATOM_COUNT>  (1) 
0

>  <PUBCHEM_COMPONENT_COUNT>  (1) 
1

>  <PUBCHEM_CACTVS_TAUTO_COUNT>  (1) 
1

>  <PUBCHEM_CONFORMER_ID>  (1) 
0000419800000001

>  <PUBCHEM_MMFF94_ENERGY>  (1) 
40.7542

>  <PUBCHEM_FEATURE_SELFOVERLAP>  (1) 
15.223

>  <PUBCHEM_SHAPE_FINGERPRINT>  (1) 
10608611 8 18409729577776001157
11370993 70 18412822473878102407
11405975 8 18407478864594277873
11471102 20 18342452612876851844
12500047 106 18408881824351404517
12633257 1 18260821549430994954
13296908 3 18334017224219534291
13544592 145 18193001413441191423
14251717 144 18342736295561620230
14289901 80 18267584787488104649
15196674 1 18410011052568166862
15219456 202 18410856577046551055
15375358 24 18340485578153670007
17834072 14 18411418397223243483
17834074 16 18410293622903754971
18175812 5 18334856129842319631
18186145 218 18201453483624476281
19141452 34 18260830380521967879
200 152 17917423211984424869
20279233 1 18411141320693899135
20645477 56 18333452015630585365
20645477 70 17917147195842673671
21065198 57 18408885139860591025
21065199 12 18409730702920081393
21730867 7 18411702092988001606
221490 88 18336835281048350202
23402539 116 17895185614887221796
23557571 272 18261397771292225105
23559900 14 18340203003654632586
26918003 58 18412821365612581122
3060560 45 18202566155585974774
3286 77 18260544575848970732
4214541 1 18408322181612705673
5104073 3 18409728477916045697
633830 44 16443350875005982057
69090 78 18408879616701401607
77779 3 18408041831579790497
8272917 22 18058732394762102215
9709674 26 18340772555126119671

>  <PUBCHEM_SHAPE_MULTIPOLES>  (1) 
335
8.84
2.46
0.92
5.37
0.22
0.04
-0.54
1.1
0.23
-0.16
0.07
0.23
1

>  <PUBCHEM_SHAPE_SELFOVERLAP>  (1) 
671.735

>  <PUBCHEM_SHAPE_VOLUME>  (1) 
199.6

>  <PUBCHEM_COORDINATE_TYPE>  (1) 
2
5
10

$$$$
