16794
     RDKit          3D

 13 13  0  0  0  0  0  0  0  0999 V2000
    0.8047    2.6685    0.3668 F   0  0  0  0  0  0  0  0  0  0  0  0
    1.9104    0.8452    0.7628 F   0  0  0  0  0  0  0  0  0  0  0  0
    1.4946    1.4377   -1.2877 F   0  0  0  0  0  0  0  0  0  0  0  0
    1.9414   -2.4261    0.9455 O   0  0  0  0  0  0  0  0  0  0  0  0
    0.7907   -1.3935   -0.8311 N   0  0  0  0  0  0  0  0  0  0  0  0
   -0.3361    0.6018   -0.0214 C   0  0  0  0  0  0  0  0  0  0  0  0
   -0.3728   -0.7373   -0.4106 C   0  0  0  0  0  0  0  0  0  0  0  0
   -1.5050    1.2398    0.3937 C   0  0  0  0  0  0  0  0  0  0  0  0
    0.9428    1.3735   -0.0419 C   0  0  0  0  0  0  0  0  0  0  0  0
   -1.5786   -1.4382   -0.3845 C   0  0  0  0  0  0  0  0  0  0  0  0
   -2.7107    0.5387    0.4196 C   0  0  0  0  0  0  0  0  0  0  0  0
   -2.7475   -0.8001    0.0305 C   0  0  0  0  0  0  0  0  0  0  0  0
    1.3660   -1.9100    0.0583 C   0  0  0  0  0  0  0  0  0  0  0  0
  1  9  1  0
  2  9  1  0
  3  9  1  0
  4 13  2  0
  5  7  1  0
  5 13  2  0
  6  7  2  0
  6  8  1  0
  6  9  1  0
  7 10  1  0
  8 11  2  0
 10 12  2  0
 11 12  1  0
M  END
>  <PUBCHEM_COMPOUND_CID>  (1) 
16794

>  <PUBCHEM_CONFORMER_RMSD>  (1) 
0.6

>  <PUBCHEM_CONFORMER_DIVERSEORDER>  (1) 
1
2
3

>  <PUBCHEM_MMFF94_PARTIAL_CHARGES>  (1) 
17
1 -0.34
10 -0.15
11 -0.15
12 -0.15
13 0.79
14 0.15
15 0.15
16 0.15
17 0.15
2 -0.34
3 -0.34
4 -0.49
5 -0.48
6 -0.14
7 0.18
8 -0.15
9 1.16

>  <PUBCHEM_EFFECTIVE_ROTOR_COUNT>  (1) 
2

>  <PUBCHEM_PHARMACOPHORE_FEATURES>  (1) 
2
1 5 acceptor
6 6 7 8 10 11 12 rings

>  <PUBCHEM_HEAVY_ATOM_COUNT>  (1) 
13

>  <PUBCHEM_ATOM_DEF_STEREO_COUNT>  (1) 
0

>  <PUBCHEM_ATOM_UDEF_STEREO_COUNT>  (1) 
0

>  <PUBCHEM_BOND_DEF_STEREO_COUNT>  (1) 
0

>  <PUBCHEM_BOND_UDEF_STEREO_COUNT>  (1) 
0

>  <PUBCHEM_ISOTOPIC_ATOM_COUNT>  (1) 
0

>  <PUBCHEM_COMPONENT_COUNT>  (1) 
1

>  <PUBCHEM_CACTVS_TAUTO_COUNT>  (1) 
1

>  <PUBCHEM_CONFORMER_ID>  (1) 
0000419A00000001

>  <PUBCHEM_MMFF94_ENERGY>  (1) 
25.4392

>  <PUBCHEM_FEATURE_SELFOVERLAP>  (1) 
10.148

>  <PUBCHEM_SHAPE_FINGERPRINT>  (1) 
12423570 1 9727079664154082831
12524768 44 18055353543980159527
12696612 119 18411699867957779859
14817 1 11536169092158172918
16945 1 18339643459641827981
20511035 2 18342456998259792695
20645476 183 17393044358177548948
20653091 64 18336557031502408107
21040471 1 17835805570274684989
21501502 16 18411985737308292541
23552423 10 18336552698049055575
23559900 14 15246801444747740263
241688 4 18122344584083948971
2748010 2 18196653999558201917
5084963 1 17628656415786894501
528862 383 18409445894916990547
54338 74 17831017927396159811
57177213 63 18189911970350306317
7364860 26 18272374182544461775
81228 2 17473550148633809323

>  <PUBCHEM_SHAPE_MULTIPOLES>  (1) 
234.86
3.18
2.59
0.87
1.3
0.44
0.07
-0.9
-0.56
-1.39
-0.19
-0.29
-0.02
-0.48

>  <PUBCHEM_SHAPE_SELFOVERLAP>  (1) 
503.298

>  <PUBCHEM_SHAPE_VOLUME>  (1) 
129.4

>  <PUBCHEM_COORDINATE_TYPE>  (1) 
2
5
10

$$$$
