16793
     RDKit          3D

 30 33  0  0  1  0  0  0  0  0999 V2000
   -3.9443   -1.9557    0.1573 O   0  0  0  0  0  0  0  0  0  0  0  0
   -4.6565    1.1003   -0.0819 O   0  0  0  0  0  0  0  0  0  0  0  0
   -6.0799   -1.1974   -0.2912 O   0  0  0  0  0  0  0  0  0  0  0  0
    6.4443    0.7303    0.5463 O   0  0  0  0  0  0  0  0  0  0  0  0
   -4.1624    2.8369    1.3593 O   0  0  0  0  0  0  0  0  0  0  0  0
    6.6736   -1.5439    0.0414 O   0  0  0  0  0  0  0  0  0  0  0  0
   -1.8025   -1.0505   -0.7066 C   0  0  0  0  0  0  0  0  0  0  0  0
   -1.3744    0.4029   -1.0204 C   0  0  0  0  0  0  0  0  0  0  0  0
    0.1295    0.7303   -0.8947 C   0  0  0  0  0  0  0  0  0  0  0  0
   -3.3248   -0.8633   -0.5016 C   0  0  0  0  0  0  0  0  0  0  0  0
    0.7893    0.1039    0.3576 C   0  0  0  0  0  0  0  0  0  0  0  0
   -2.2291    1.2642   -0.0580 C   0  0  0  0  0  0  0  0  0  0  0  0
   -1.0907   -1.5919    0.5521 C   0  0  0  0  0  0  0  0  0  0  0  0
   -3.4623    0.4307    0.2962 C   0  0  0  0  0  0  0  0  0  0  0  0
    0.4221   -1.3820    0.5221 C   0  0  0  0  0  0  0  0  0  0  0  0
    0.9149    0.3442   -2.1578 C   0  0  0  0  0  0  0  0  0  0  0  0
   -1.5825   -2.0166   -1.8828 C   0  0  0  0  0  0  0  0  0  0  0  0
    2.2999    0.2845    0.3755 C   0  0  0  0  0  0  0  0  0  0  0  0
    2.3344    0.9017   -2.0942 C   0  0  0  0  0  0  0  0  0  0  0  0
    3.0221    0.6251   -0.7831 C   0  0  0  0  0  0  0  0  0  0  0  0
    2.9973    0.0973    1.5821 C   0  0  0  0  0  0  0  0  0  0  0  0
    4.4162    0.7777   -0.7098 C   0  0  0  0  0  0  0  0  0  0  0  0
   -5.2864   -1.8283    0.3939 C   0  0  0  0  0  0  0  0  0  0  0  0
    4.3831    0.2425    1.6397 C   0  0  0  0  0  0  0  0  0  0  0  0
   -4.8861    2.3021    0.5301 C   0  0  0  0  0  0  0  0  0  0  0  0
    5.0928    0.5819    0.4929 C   0  0  0  0  0  0  0  0  0  0  0  0
   -5.6623   -2.5831    1.6330 C   0  0  0  0  0  0  0  0  0  0  0  0
   -6.1733    2.8896    0.0362 C   0  0  0  0  0  0  0  0  0  0  0  0
    7.1621   -0.4502    0.2922 C   0  0  0  0  0  0  0  0  0  0  0  0
    8.6359   -0.1833    0.3739 C   0  0  0  0  0  0  0  0  0  0  0  0
  1 10  1  0
  1 23  1  0
  2 14  1  0
  2 25  1  0
  3 23  2  0
  4 26  1  0
  4 29  1  0
  5 25  2  0
  6 29  2  0
  7  8  1  0
  7 10  1  0
  7 13  1  0
  7 17  1  0
  8  9  1  0
  8 12  1  0
  9 11  1  0
  9 16  1  0
 10 14  1  0
 11 15  1  0
 11 18  1  0
 12 14  1  0
 13 15  1  0
 16 19  1  0
 18 20  2  0
 18 21  1  0
 19 20  1  0
 20 22  1  0
 21 24  2  0
 22 26  2  0
 23 27  1  0
 24 26  1  0
 25 28  1  0
 29 30  1  0
M  END
>  <PUBCHEM_COMPOUND_CID>  (1) 
16793

>  <PUBCHEM_CONFORMER_RMSD>  (1) 
1

>  <PUBCHEM_CONFORMER_DIVERSEORDER>  (1) 
4
134
97
2
137
75
81
43
94
25
107
113
101
65
124
3
28
38
37
105
133
99
108
119
52
135
123
92
106
5
23
86
60
115
9
77
76
70
30
127
7
11
87
98
143
55
138
121
66
109
90
114
31
73
45
85
46
72
126
93
129
103
49
139
95
56
142
48
74
112
36
19
53
14
67
131
79
82
141
89
64
44
71
117
22
50
26
20
33
68
104
58
40
136
29
132
118
32
1
57
51
116
111
59
21
63
130
16
102
128
47
35
96
83
15
120
61
12
69
18
24
140
13
80
41
54
88
8
62
91
100
84
34
78
110
10
42
27
122
39
125
17
6

>  <PUBCHEM_MMFF94_PARTIAL_CHARGES>  (1) 
25
1 -0.43
10 0.28
11 0.14
14 0.28
18 -0.14
19 0.14
2 -0.43
20 -0.14
21 -0.15
22 -0.15
23 0.66
24 -0.15
25 0.66
26 0.08
27 0.06
28 0.06
29 0.66
3 -0.57
30 0.06
4 -0.23
49 0.15
5 -0.57
50 0.15
51 0.15
6 -0.57

>  <PUBCHEM_EFFECTIVE_ROTOR_COUNT>  (1) 
7.4

>  <PUBCHEM_PHARMACOPHORE_FEATURES>  (1) 
7
1 3 acceptor
1 5 acceptor
1 6 acceptor
5 7 8 10 12 14 rings
6 18 20 21 22 24 26 rings
6 7 8 9 11 13 15 rings
6 9 11 16 18 19 20 rings

>  <PUBCHEM_HEAVY_ATOM_COUNT>  (1) 
30

>  <PUBCHEM_ATOM_DEF_STEREO_COUNT>  (1) 
1

>  <PUBCHEM_ATOM_UDEF_STEREO_COUNT>  (1) 
5

>  <PUBCHEM_BOND_DEF_STEREO_COUNT>  (1) 
0

>  <PUBCHEM_BOND_UDEF_STEREO_COUNT>  (1) 
0

>  <PUBCHEM_ISOTOPIC_ATOM_COUNT>  (1) 
0

>  <PUBCHEM_COMPONENT_COUNT>  (1) 
1

>  <PUBCHEM_CACTVS_TAUTO_COUNT>  (1) 
1

>  <PUBCHEM_CONFORMER_ID>  (1) 
0000419900000004

>  <PUBCHEM_MMFF94_ENERGY>  (1) 
95.4049

>  <PUBCHEM_FEATURE_SELFOVERLAP>  (1) 
35.748

>  <PUBCHEM_SHAPE_FINGERPRINT>  (1) 
10 15 17775003535579678504
10299344 5 18186238429694331170
10319926 262 18272357673053985010
10674148 151 18408602532014750186
11007060 377 16515685597424105072
11135926 11 15430032137396349560
11315181 36 18114180869319835273
11796584 16 18060418015725286006
12107698 1 18129942398389654809
12166972 35 17749952279484380484
12236239 1 18040718094942110732
12403259 415 17561096799337935165
12422481 6 18042116557673442702
12596602 18 18334013925706198536
12788726 201 18118987999113685891
13540713 4 18057062237422859143
13583140 156 17704067391340196343
13782708 43 17917712447925406950
14251764 18 18260268573277760766
14849402 71 18042692883036979684
14856354 85 17748831834001588395
15021287 119 17458069269664900396
15183329 4 17821723941034098394
15439362 3 17908143175433644685
15461852 350 17632286896039900173
15537594 2 16805316683313620698
17844677 252 18271527593093510584
21033648 144 18266171735153749573
21033648 29 17560790040089271689
21130935 74 18334574638535520794
21267235 1 17530963618380382294
21756936 100 18201995504682520245
21792961 116 17131559371435037288
21792965 68 17774729649251622305
22182313 1 17916887750359697311
23522609 53 17605017874000474412
23559900 14 18058188149285981348
23569943 247 17460300067953834666
24771293 8 17458347490201372860
25147074 1 17749682877660583109
2838139 119 17346588647606214104
3383291 50 17968658336557866074
4144715 1 18341896359188927928
469060 322 18269015205504106985
5028188 123 18186810162940197862
5104073 3 18270973340644087923
5265222 85 18128819819457694934
59755656 520 18201427043816579485
6086070 43 16987978549329139625
9849439 229 17838626552952903585
9896288 288 18410299108104961419

>  <PUBCHEM_SHAPE_MULTIPOLES>  (1) 
582.17
18.51
2.42
1.57
21.21
0.32
-0.46
-0.26
6.07
-6.12
0.55
0.29
-0.04
-0.47

>  <PUBCHEM_SHAPE_SELFOVERLAP>  (1) 
1247.674

>  <PUBCHEM_SHAPE_VOLUME>  (1) 
318

>  <PUBCHEM_COORDINATE_TYPE>  (1) 
2
5
10

$$$$
