16801
     RDKit          3D

 15 17  0  0  0  0  0  0  0  0999 V2000
    0.0006   -1.3756    0.7220 C   0  0  0  0  0  0  0  0  0  0  0  0
   -1.1840   -0.4736    0.4063 C   0  0  0  0  0  0  0  0  0  0  0  0
    1.1744   -0.4573    0.4128 C   0  0  0  0  0  0  0  0  0  0  0  0
   -0.7359    0.7996   -0.0124 C   0  0  0  0  0  0  0  0  0  0  0  0
    0.7110    0.8096   -0.0085 C   0  0  0  0  0  0  0  0  0  0  0  0
    0.0115   -2.6464   -0.1183 C   0  0  0  0  0  0  0  0  0  0  0  0
   -2.5352   -0.7638    0.5039 C   0  0  0  0  0  0  0  0  0  0  0  0
    2.5288   -0.7288    0.5181 C   0  0  0  0  0  0  0  0  0  0  0  0
   -1.6433    1.7917   -0.3468 C   0  0  0  0  0  0  0  0  0  0  0  0
    1.6065    1.8142   -0.3375 C   0  0  0  0  0  0  0  0  0  0  0  0
    0.1177   -2.3333   -1.5996 C   0  0  0  0  0  0  0  0  0  0  0  0
   -3.4492    0.2362    0.1670 C   0  0  0  0  0  0  0  0  0  0  0  0
    3.4308    0.2838    0.1862 C   0  0  0  0  0  0  0  0  0  0  0  0
   -3.0077    1.5012   -0.2551 C   0  0  0  0  0  0  0  0  0  0  0  0
    2.9742    1.5427   -0.2381 C   0  0  0  0  0  0  0  0  0  0  0  0
  1  2  1  0
  1  3  1  0
  1  6  1  0
  2  4  2  0
  2  7  1  0
  3  5  2  0
  3  8  1  0
  4  5  1  0
  4  9  1  0
  5 10  1  0
  6 11  1  0
  7 12  2  0
  8 13  2  0
  9 14  2  0
 10 15  2  0
 12 14  1  0
 13 15  1  0
M  END
>  <PUBCHEM_COMPOUND_CID>  (1) 
16801

>  <PUBCHEM_CONFORMER_RMSD>  (1) 
0.6

>  <PUBCHEM_CONFORMER_DIVERSEORDER>  (1) 
1

>  <PUBCHEM_MMFF94_PARTIAL_CHARGES>  (1) 
19
1 0.29
10 -0.15
12 -0.15
13 -0.15
14 -0.15
15 -0.15
19 0.15
2 -0.14
20 0.15
21 0.15
22 0.15
26 0.15
27 0.15
28 0.15
29 0.15
3 -0.14
7 -0.15
8 -0.15
9 -0.15

>  <PUBCHEM_EFFECTIVE_ROTOR_COUNT>  (1) 
1.2

>  <PUBCHEM_PHARMACOPHORE_FEATURES>  (1) 
4
1 11 hydrophobe
5 1 2 3 4 5 rings
6 2 4 7 9 12 14 rings
6 3 5 8 10 13 15 rings

>  <PUBCHEM_HEAVY_ATOM_COUNT>  (1) 
15

>  <PUBCHEM_ATOM_DEF_STEREO_COUNT>  (1) 
0

>  <PUBCHEM_ATOM_UDEF_STEREO_COUNT>  (1) 
0

>  <PUBCHEM_BOND_DEF_STEREO_COUNT>  (1) 
0

>  <PUBCHEM_BOND_UDEF_STEREO_COUNT>  (1) 
0

>  <PUBCHEM_ISOTOPIC_ATOM_COUNT>  (1) 
0

>  <PUBCHEM_COMPONENT_COUNT>  (1) 
1

>  <PUBCHEM_CACTVS_TAUTO_COUNT>  (1) 
1

>  <PUBCHEM_CONFORMER_ID>  (1) 
000041A100000001

>  <PUBCHEM_MMFF94_ENERGY>  (1) 
48.6491

>  <PUBCHEM_FEATURE_SELFOVERLAP>  (1) 
20.459

>  <PUBCHEM_SHAPE_FINGERPRINT>  (1) 
1 1 18340765940448929894
10465860 228 17983306928116140689
10608611 8 18261107444103639405
10967382 1 18407759222536502521
11132069 177 18408879629222508105
12138202 78 17981326681593358742
12423570 1 18343582936431470595
12524768 44 17835238948414245891
13140716 1 18336264552677255513
13380535 76 18335699404058813219
14325111 11 18334575750035205704
14648413 74 18050289159247221817
14790565 3 15376865648014999897
15219456 202 18266464213382874395
15309172 13 18412270548915429785
15775835 57 18410015471904774776
15906896 17 18196369436268390623
16945 1 18260830409953814274
17990270 104 18050846620148166147
18186145 218 18273224083721627928
193761 8 17544473055378059408
20510252 161 18342744052098912561
20511035 2 18261118520818520864
20645476 183 17605011371276932598
20645477 70 18266733594111487957
20871998 184 18196945593351436703
21501502 16 18263640676154871865
21524375 3 18410008853375794635
2334 1 18335984250215995265
23402539 116 18341885346354671653
23419403 2 7983953971389534456
23463225 33 18188205403744665024
23559900 14 18200038464807600596
2748010 2 18408042900879051612
3060560 45 18341607062527969734
528886 8 18408879633454048505
69090 78 18341608278114444800
7364860 26 18125722288125850079
81228 2 17693643127808689747
84936 31 17129857210474344926
90525 40 18412262852196943686

>  <PUBCHEM_SHAPE_MULTIPOLES>  (1) 
308.69
4.85
2.51
0.91
0.14
1
-0.23
-2.19
0.37
-0.06
-0.72
-0.02
0.44
0.04

>  <PUBCHEM_SHAPE_SELFOVERLAP>  (1) 
686.731

>  <PUBCHEM_SHAPE_VOLUME>  (1) 
156.4

>  <PUBCHEM_COORDINATE_TYPE>  (1) 
2
5
10

$$$$
