16803
     RDKit          3D

 15 17  0  0  0  0  0  0  0  0999 V2000
    0.4167    1.0006   -0.0001 O   0  0  0  0  0  0  0  0  0  0  0  0
    0.5179   -1.2635    0.0001 N   0  0  0  0  0  0  0  0  0  0  0  0
   -3.6542    1.3021    0.0002 N   0  0  0  0  0  0  0  0  0  0  0  0
    1.7332    0.6384    0.0000 C   0  0  0  0  0  0  0  0  0  0  0  0
    1.7912   -0.7475    0.0001 C   0  0  0  0  0  0  0  0  0  0  0  0
   -0.2432   -0.1913   -0.0002 C   0  0  0  0  0  0  0  0  0  0  0  0
   -1.6768   -0.0932   -0.0002 C   0  0  0  0  0  0  0  0  0  0  0  0
    2.8408    1.4772    0.0000 C   0  0  0  0  0  0  0  0  0  0  0  0
    3.0461   -1.3732    0.0001 C   0  0  0  0  0  0  0  0  0  0  0  0
    4.0850    0.8372    0.0000 C   0  0  0  0  0  0  0  0  0  0  0  0
    4.1882   -0.5593    0.0001 C   0  0  0  0  0  0  0  0  0  0  0  0
   -2.4763   -1.2328   -0.0003 C   0  0  0  0  0  0  0  0  0  0  0  0
   -2.3122    1.1399   -0.0001 C   0  0  0  0  0  0  0  0  0  0  0  0
   -3.8610   -1.1064    0.0000 C   0  0  0  0  0  0  0  0  0  0  0  0
   -4.3957    0.1717    0.0003 C   0  0  0  0  0  0  0  0  0  0  0  0
  1  4  1  0
  1  6  1  0
  2  5  1  0
  2  6  2  0
  3 13  2  0
  3 15  1  0
  4  5  2  0
  4  8  1  0
  5  9  1  0
  6  7  1  0
  7 12  2  0
  7 13  1  0
  8 10  2  0
  9 11  2  0
 10 11  1  0
 12 14  1  0
 14 15  2  0
M  END
>  <PUBCHEM_COMPOUND_CID>  (1) 
16803

>  <PUBCHEM_CONFORMER_RMSD>  (1) 
0.4

>  <PUBCHEM_CONFORMER_DIVERSEORDER>  (1) 
1
2

>  <PUBCHEM_MMFF94_PARTIAL_CHARGES>  (1) 
23
1 -0.28
10 -0.15
11 -0.15
12 -0.15
13 0.16
14 -0.15
15 0.16
16 0.15
17 0.15
18 0.15
19 0.15
2 -0.57
20 0.15
21 0.15
22 0.15
23 0.15
3 -0.62
4 0.14
5 0.23
6 0.43
7 0.05
8 -0.15
9 -0.15

>  <PUBCHEM_EFFECTIVE_ROTOR_COUNT>  (1) 
1

>  <PUBCHEM_PHARMACOPHORE_FEATURES>  (1) 
4
1 3 acceptor
5 1 2 4 5 6 rings
6 3 7 12 13 14 15 rings
6 4 5 8 9 10 11 rings

>  <PUBCHEM_HEAVY_ATOM_COUNT>  (1) 
15

>  <PUBCHEM_ATOM_DEF_STEREO_COUNT>  (1) 
0

>  <PUBCHEM_ATOM_UDEF_STEREO_COUNT>  (1) 
0

>  <PUBCHEM_BOND_DEF_STEREO_COUNT>  (1) 
0

>  <PUBCHEM_BOND_UDEF_STEREO_COUNT>  (1) 
0

>  <PUBCHEM_ISOTOPIC_ATOM_COUNT>  (1) 
0

>  <PUBCHEM_COMPONENT_COUNT>  (1) 
1

>  <PUBCHEM_CACTVS_TAUTO_COUNT>  (1) 
1

>  <PUBCHEM_CONFORMER_ID>  (1) 
000041A300000001

>  <PUBCHEM_MMFF94_ENERGY>  (1) 
32.2297

>  <PUBCHEM_FEATURE_SELFOVERLAP>  (1) 
20.415

>  <PUBCHEM_SHAPE_FINGERPRINT>  (1) 
10014705 185 18187359918353431821
10608611 8 18410289211782632773
10616163 171 18341332296401743975
11132069 177 18408880750129772945
11471102 20 18411134736524715660
11615757 297 17775290490375347145
12032990 46 18412268324222726886
12932764 1 17417802984933785159
13296908 3 18411419505319485535
13675066 3 18131064939869214818
14144814 61 18410573976640702915
14325111 11 18410573998052222752
14415576 193 18410296921422768772
15196674 1 18410573989451706181
15442244 35 18195246611752752058
15536298 74 18341895195025709558
17802600 8 18410569591474072165
17834072 33 18271520987718392519
18186145 218 18040431079494485302
18522853 276 18342457045135414753
19050596 39 18410011039545803243
200 152 18131625699721546687
20645477 56 18187645739990189253
20645477 70 18342458106061253150
21267235 1 18411146835068144047
221490 88 18336835306749582282
2255824 54 18040437698498063298
23402539 116 18201430368648702629
23402655 69 18413106151872102300
23463225 33 18409729551831825262
23559900 14 18270115708837109546
3545911 37 18410857663541473117
4028521 119 18114453484132540005
42 15 18335421261665552722
4214541 1 18410856538471096581
474 4 17459194160692323644
4990 188 18130798849713168254
5104073 3 18410293609728580235
633830 44 17603305959669314642
69090 78 18413385458043536527
7364860 26 18268430144479361366
77779 3 18410857663472771423
8809292 202 18261116304715973987
9709674 26 18411143545113029143

>  <PUBCHEM_SHAPE_MULTIPOLES>  (1) 
292.86
8.81
1.54
0.6
1.6
0.03
0
0.25
0
-0.14
0
-0.02
-0.01
0

>  <PUBCHEM_SHAPE_SELFOVERLAP>  (1) 
659.232

>  <PUBCHEM_SHAPE_VOLUME>  (1) 
155.5

>  <PUBCHEM_COORDINATE_TYPE>  (1) 
2
5
10

$$$$
