16814
     RDKit          3D

 31 34  0  0  0  0  0  0  0  0999 V2000
   -5.6091   -2.2107    0.2585 S   0  0  0  0  0  0  0  0  0  0  0  0
    6.3300   -1.9312   -0.0494 S   0  0  0  0  0  0  0  0  0  0  0  0
    0.3423    3.5349    0.3203 O   0  0  0  0  0  0  0  0  0  0  0  0
   -6.4221   -2.0581   -1.1483 O   0  0  0  0  0  0  0  0  0  0  0  0
   -5.2633   -3.6132    0.4068 O   0  0  0  0  0  0  0  0  0  0  0  0
   -6.3452   -1.5062    1.2920 O   0  0  0  0  0  0  0  0  0  0  0  0
    6.4928   -2.2768   -1.6390 O   0  0  0  0  0  0  0  0  0  0  0  0
    7.4588   -1.0896    0.3198 O   0  0  0  0  0  0  0  0  0  0  0  0
    6.0689   -3.1747    0.6586 O   0  0  0  0  0  0  0  0  0  0  0  0
   -0.3999    0.5317   -0.5726 N   0  0  0  0  0  0  0  0  0  0  0  0
    0.1254    0.7880    0.5345 N   0  0  0  0  0  0  0  0  0  0  0  0
   -4.0718    0.0813   -0.0872 C   0  0  0  0  0  0  0  0  0  0  0  0
   -2.8261    0.7229   -0.2851 C   0  0  0  0  0  0  0  0  0  0  0  0
    2.5447    0.5846    0.2478 C   0  0  0  0  0  0  0  0  0  0  0  0
    3.7972    1.2125    0.0482 C   0  0  0  0  0  0  0  0  0  0  0  0
   -4.1145   -1.3190    0.0135 C   0  0  0  0  0  0  0  0  0  0  0  0
   -1.6598   -0.0543   -0.3766 C   0  0  0  0  0  0  0  0  0  0  0  0
    1.3873    1.3746    0.3377 C   0  0  0  0  0  0  0  0  0  0  0  0
    4.8787   -0.9668    0.0637 C   0  0  0  0  0  0  0  0  0  0  0  0
    4.9548    0.4224   -0.0418 C   0  0  0  0  0  0  0  0  0  0  0  0
    2.4867   -0.8148    0.3513 C   0  0  0  0  0  0  0  0  0  0  0  0
   -2.9460   -2.0755   -0.0801 C   0  0  0  0  0  0  0  0  0  0  0  0
   -1.7209   -1.4444   -0.2745 C   0  0  0  0  0  0  0  0  0  0  0  0
   -5.2378    0.8586    0.0046 C   0  0  0  0  0  0  0  0  0  0  0  0
   -2.7830    2.1230   -0.3857 C   0  0  0  0  0  0  0  0  0  0  0  0
    3.8551    2.6120   -0.0555 C   0  0  0  0  0  0  0  0  0  0  0  0
    3.6469   -1.5842    0.2596 C   0  0  0  0  0  0  0  0  0  0  0  0
    1.4630    2.7636    0.2328 C   0  0  0  0  0  0  0  0  0  0  0  0
    2.6948    3.3811    0.0365 C   0  0  0  0  0  0  0  0  0  0  0  0
   -5.1765    2.2486   -0.0978 C   0  0  0  0  0  0  0  0  0  0  0  0
   -3.9515    2.8797   -0.2926 C   0  0  0  0  0  0  0  0  0  0  0  0
  1  4  1  0
  1  5  2  0
  1  6  2  0
  1 16  1  0
  2  7  1  0
  2  8  2  0
  2  9  2  0
  2 19  1  0
  3 28  1  0
 10 11  2  0
 10 17  1  0
 11 18  1  0
 12 13  1  0
 12 16  2  0
 12 24  1  0
 13 17  2  0
 13 25  1  0
 14 15  2  0
 14 18  1  0
 14 21  1  0
 15 20  1  0
 15 26  1  0
 16 22  1  0
 17 23  1  0
 18 28  2  0
 19 20  2  0
 19 27  1  0
 21 27  2  0
 22 23  2  0
 24 30  2  0
 25 31  2  0
 26 29  2  0
 28 29  1  0
 30 31  1  0
M  END
>  <PUBCHEM_COMPOUND_CID>  (1) 
16814

>  <PUBCHEM_CONFORMER_RMSD>  (1) 
0.8

>  <PUBCHEM_CONFORMER_DIVERSEORDER>  (1) 
1
4
8
6
3
7
2
5

>  <PUBCHEM_MMFF94_PARTIAL_CHARGES>  (1) 
41
1 1.49
10 -0.18
11 -0.18
16 -0.01
17 0.18
18 0.18
19 -0.01
2 1.49
20 -0.15
21 -0.15
22 -0.15
23 -0.15
24 -0.15
25 -0.15
26 -0.15
27 -0.15
28 0.08
29 -0.15
3 -0.53
30 -0.15
31 -0.15
32 0.15
33 0.15
34 0.15
35 0.15
36 0.15
37 0.15
38 0.15
39 0.15
4 -0.68
40 0.15
41 0.15
42 0.15
43 0.45
44 0.5
45 0.5
5 -0.65
6 -0.65
7 -0.68
8 -0.65
9 -0.65

>  <PUBCHEM_EFFECTIVE_ROTOR_COUNT>  (1) 
4

>  <PUBCHEM_PHARMACOPHORE_FEATURES>  (1) 
13
1 3 donor
1 4 acceptor
1 5 acceptor
1 6 acceptor
1 7 acceptor
1 8 acceptor
1 9 acceptor
4 1 4 5 6 anion
4 2 7 8 9 anion
6 12 13 16 17 22 23 rings
6 12 13 24 25 30 31 rings
6 14 15 18 26 28 29 rings
6 14 15 19 20 21 27 rings

>  <PUBCHEM_HEAVY_ATOM_COUNT>  (1) 
31

>  <PUBCHEM_ATOM_DEF_STEREO_COUNT>  (1) 
0

>  <PUBCHEM_ATOM_UDEF_STEREO_COUNT>  (1) 
0

>  <PUBCHEM_BOND_DEF_STEREO_COUNT>  (1) 
0

>  <PUBCHEM_BOND_UDEF_STEREO_COUNT>  (1) 
0

>  <PUBCHEM_ISOTOPIC_ATOM_COUNT>  (1) 
0

>  <PUBCHEM_COMPONENT_COUNT>  (1) 
1

>  <PUBCHEM_CACTVS_TAUTO_COUNT>  (1) 
3

>  <PUBCHEM_CONFORMER_ID>  (1) 
000041AE00000001

>  <PUBCHEM_MMFF94_ENERGY>  (1) 
83.7445

>  <PUBCHEM_FEATURE_SELFOVERLAP>  (1) 
66.139

>  <PUBCHEM_SHAPE_FINGERPRINT>  (1) 
10050765 1 18410292535961141537
10319926 262 18339912749495776490
10622 236 17197678709124725823
11456790 92 18131080303716865649
117089 54 18337117846762709563
11756154 67 18335423430698202437
11963148 33 18050280672287135974
12107183 9 18268998596407020345
12107698 1 18411699906628595483
12166972 35 18113905953106254796
12645989 146 18342455993459394695
13073987 5 18341612658860391225
13533116 47 18339079427140487193
13673619 4 18260268559564807254
13690498 29 18187645782317019303
13782708 43 18040431096695590146
14341114 176 18410295843349352801
14347332 77 18340484556119979285
14420673 8 18338237050772735343
15064986 96 17918000451072423133
15082195 135 17750805543568172668
15183329 4 18335136454000169722
15196674 1 18410572911573540717
15230672 131 18045497508769291842
15320467 1 17040918135932405098
15361156 5 17968388887125144813
15890870 6 17978789009654335205
16087824 20 18050285864850336373
17492 89 18337952415069106609
17844677 252 18410579508748646561
17980427 23 12607109747066951010
18393751 57 17118865783874699041
21033650 10 16226314929220461533
21267235 1 18410860962345381810
21279426 13 18409163290326990420
21682296 61 18413111671348241135
221357 26 18336825385190304266
23522609 53 18121533281905687133
23559900 14 18412254038977222120
23569914 152 17832949829994308367
249057 3 18337670811275623333
3004659 81 18261111838540348814
335352 9 18339077082363144293
3383291 50 18335697273545090803
350125 39 18411139173431952993
4046055 25 18114745915713546820
4073 2 18114466742638391714
4144715 1 18409454708131704051
4214541 1 18410291402421759989
439807 62 18335142007413949915
44062 13 18411418393049452607
44880168 125 17418377969792253126
46194498 28 17676764392083511132
5104073 3 18272088313874555097
7970288 3 18265610984176708274
8863177 126 18409168848067529346
9709674 26 18263363753484740451
999808 66 18041292006153290307

>  <PUBCHEM_SHAPE_MULTIPOLES>  (1) 
594.62
18.17
4.29
0.81
6.47
0.89
-0.09
-14.34
-0.35
-0.41
0.13
0
-0.3
0.75

>  <PUBCHEM_SHAPE_SELFOVERLAP>  (1) 
1305.663

>  <PUBCHEM_SHAPE_VOLUME>  (1) 
321.4

>  <PUBCHEM_COORDINATE_TYPE>  (1) 
2
5
10

$$$$
