1681
     RDKit          3D

 10 10  0  0  0  0  0  0  0  0999 V2000
    4.2772    0.5685    0.5872 N   0  0  0  0  0  0  0  0  0  0  0  0
   -0.4520   -0.0649   -0.0664 C   0  0  0  0  0  0  0  0  0  0  0  0
   -1.0676    1.1845   -0.1406 C   0  0  0  0  0  0  0  0  0  0  0  0
   -1.2247   -1.2146    0.0966 C   0  0  0  0  0  0  0  0  0  0  0  0
   -2.4561    1.2843   -0.0516 C   0  0  0  0  0  0  0  0  0  0  0  0
   -2.6132   -1.1149    0.1853 C   0  0  0  0  0  0  0  0  0  0  0  0
   -3.2288    0.1346    0.1112 C   0  0  0  0  0  0  0  0  0  0  0  0
    0.9706   -0.1671   -0.1580 C   0  0  0  0  0  0  0  0  0  0  0  0
    3.6266   -0.3585   -0.3300 C   0  0  0  0  0  0  0  0  0  0  0  0
    2.1680   -0.2520   -0.2338 C   0  0  0  0  0  0  0  0  0  0  0  0
  1  9  1  0
  2  3  2  0
  2  4  1  0
  2  8  1  0
  3  5  1  0
  4  6  2  0
  5  7  2  0
  6  7  1  0
  8 10  3  0
  9 10  1  0
M  END
>  <PUBCHEM_COMPOUND_CID>  (1) 
1681

>  <PUBCHEM_CONFORMER_RMSD>  (1) 
0.4

>  <PUBCHEM_CONFORMER_DIVERSEORDER>  (1) 
1

>  <PUBCHEM_MMFF94_PARTIAL_CHARGES>  (1) 
17
1 -0.99
10 -0.2
11 0.15
12 0.15
13 0.15
14 0.15
15 0.15
18 0.36
19 0.36
2 0.07
3 -0.15
4 -0.15
5 -0.15
6 -0.15
7 -0.15
8 -0.07
9 0.47

>  <PUBCHEM_EFFECTIVE_ROTOR_COUNT>  (1) 
0

>  <PUBCHEM_PHARMACOPHORE_FEATURES>  (1) 
3
1 1 cation
1 1 donor
6 2 3 4 5 6 7 rings

>  <PUBCHEM_HEAVY_ATOM_COUNT>  (1) 
10

>  <PUBCHEM_ATOM_DEF_STEREO_COUNT>  (1) 
0

>  <PUBCHEM_ATOM_UDEF_STEREO_COUNT>  (1) 
0

>  <PUBCHEM_BOND_DEF_STEREO_COUNT>  (1) 
0

>  <PUBCHEM_BOND_UDEF_STEREO_COUNT>  (1) 
0

>  <PUBCHEM_ISOTOPIC_ATOM_COUNT>  (1) 
0

>  <PUBCHEM_COMPONENT_COUNT>  (1) 
1

>  <PUBCHEM_CACTVS_TAUTO_COUNT>  (1) 
1

>  <PUBCHEM_CONFORMER_ID>  (1) 
0000069100000001

>  <PUBCHEM_MMFF94_ENERGY>  (1) 
13.308

>  <PUBCHEM_FEATURE_SELFOVERLAP>  (1) 
15.223

>  <PUBCHEM_SHAPE_FINGERPRINT>  (1) 
11062470 55 17846500326651844038
12932764 1 17917424333250464094
13024252 1 15574717993449987269
14144814 61 18333449811774019498
14325111 11 18410576145778574390
190213 19 17676489440903315090
20201158 50 18202004313148669774
20279233 1 18131636668788653814
20528008 55 18342171176417534220
20645464 45 18131074822425400159
20871998 184 18272094941299301231
23402539 116 18341324553128882823
23552423 10 18042128828679805029
3248919 1 17240774977448827570
369184 2 18413109437764637695
6333449 129 18413106156372622399

>  <PUBCHEM_SHAPE_MULTIPOLES>  (1) 
200.81
6.62
1.25
0.66
6.76
0.05
0
0.45
0.62
-0.89
0.02
0.14
0.01
0.26

>  <PUBCHEM_SHAPE_SELFOVERLAP>  (1) 
409.675

>  <PUBCHEM_SHAPE_VOLUME>  (1) 
114.3

>  <PUBCHEM_COORDINATE_TYPE>  (1) 
2
5
10

$$$$
