16832
     RDKit          3D

 11 10  0  0  0  0  0  0  0  0999 V2000
    1.8867    0.6417    0.0332 O   0  0  0  0  0  0  0  0  0  0  0  0
    0.9899   -1.4513   -0.3350 O   0  0  0  0  0  0  0  0  0  0  0  0
   -1.6586   -0.2689   -0.1877 C   0  0  0  0  0  0  0  0  0  0  0  0
   -2.9536    0.4241    0.2473 C   0  0  0  0  0  0  0  0  0  0  0  0
   -0.4145    0.3917    0.4058 C   0  0  0  0  0  0  0  0  0  0  0  0
   -4.1801   -0.2791   -0.3346 C   0  0  0  0  0  0  0  0  0  0  0  0
    3.1842    0.1484   -0.3153 C   0  0  0  0  0  0  0  0  0  0  0  0
    0.8749   -0.2747   -0.0207 C   0  0  0  0  0  0  0  0  0  0  0  0
   -5.4709    0.3766    0.1295 C   0  0  0  0  0  0  0  0  0  0  0  0
    4.1898    1.2872   -0.2396 C   0  0  0  0  0  0  0  0  0  0  0  0
    3.5522   -0.9956    0.6171 C   0  0  0  0  0  0  0  0  0  0  0  0
  1  7  1  0
  1  8  1  0
  2  8  2  0
  3  4  1  0
  3  5  1  0
  4  6  1  0
  5  8  1  0
  6  9  1  0
  7 10  1  0
  7 11  1  0
M  END
>  <PUBCHEM_COMPOUND_CID>  (1) 
16832

>  <PUBCHEM_CONFORMER_RMSD>  (1) 
0.6

>  <PUBCHEM_CONFORMER_DIVERSEORDER>  (1) 
10
147
143
245
58
240
200
165
21
262
64
12
30
266
13
72
231
195
242
9
110
148
73
175
116
258
257
57
255
23
202
59
68
1
271
3
265
138
263
172
243
113
43
61
176
192
226
24
251
184
186
260
164
75
67
27
272
134
250
247
63
238
254
50
54
239
97
273
103
34
11
153
225
86
48
84
52
249
25
203
214
6
174
269
5
274
69
268
144
159
47
19
233
208
236
31
267
8
136
49
270
96
158
128
119
130
218
92
139
4
37
216
166
155
198
253
98
154
168
227
127
189
2
121
28
142
220
190
115
45
122
191
244
40
193
199
234
246
114
261
140
117
36
221
7
188
230
185
14
125
65
112
90
256
124
66
85
219
137
222
259
15
78
178
215
18
201
94
197
29
181
118
46
35
71
101
207
107
129
161
145
17
56
39
95
194
16
83
210
42
264
77
81
248
212
109
102
79
135
51
150
55
252
126
163
182
196
187
241
170
62
38
82
89
157
99
80
33
177
237
211
156
88
76
149
108
235
60
105
167
26
22
209
53
162
20
213
91
160
131
228
217
224
100
133
152
173
169
106
70
171
223
123
74
229
151
179
111
146
93
141
104
132
183
32
232
41
44
120
205
87
204
180
206

>  <PUBCHEM_MMFF94_PARTIAL_CHARGES>  (1) 
5
1 -0.43
2 -0.57
5 0.06
7 0.28
8 0.66

>  <PUBCHEM_EFFECTIVE_ROTOR_COUNT>  (1) 
6

>  <PUBCHEM_PHARMACOPHORE_FEATURES>  (1) 
4
1 2 acceptor
1 9 hydrophobe
3 7 10 11 hydrophobe
4 3 4 5 6 hydrophobe

>  <PUBCHEM_HEAVY_ATOM_COUNT>  (1) 
11

>  <PUBCHEM_ATOM_DEF_STEREO_COUNT>  (1) 
0

>  <PUBCHEM_ATOM_UDEF_STEREO_COUNT>  (1) 
0

>  <PUBCHEM_BOND_DEF_STEREO_COUNT>  (1) 
0

>  <PUBCHEM_BOND_UDEF_STEREO_COUNT>  (1) 
0

>  <PUBCHEM_ISOTOPIC_ATOM_COUNT>  (1) 
0

>  <PUBCHEM_COMPONENT_COUNT>  (1) 
1

>  <PUBCHEM_CACTVS_TAUTO_COUNT>  (1) 
1

>  <PUBCHEM_CONFORMER_ID>  (1) 
000041C00000000A

>  <PUBCHEM_MMFF94_ENERGY>  (1) 
7.2199

>  <PUBCHEM_FEATURE_SELFOVERLAP>  (1) 
20.298

>  <PUBCHEM_SHAPE_FINGERPRINT>  (1) 
10219947 1 18187086152410195292
11062470 55 18113337518136717605
14123238 8 18408323298309295549
14252887 29 11819264543039910360
14325111 11 18410293622924730514
17834072 33 18130783495300004341
17834076 25 18201721756304274665
190213 19 16343704335325107617
20279233 1 17676778604214422771
20645477 70 18261672580321995554
20719005 15 18411418401929485427
212847 35 18343017791955275128
22485316 2 18186518817490499523
23402539 116 17530958107905537319
23402655 69 18273213076110630517
4047638 21 18187086161005378584
42788 4 18408886235314589357
449060 62 18408044030824637636
522135 26 18334295353564420882

>  <PUBCHEM_SHAPE_MULTIPOLES>  (1) 
214.64
10.5
1.1
0.7
8.32
0.08
0.02
-1.85
-0.01
-1.08
-0.02
-0.06
0.03
-0.39

>  <PUBCHEM_SHAPE_SELFOVERLAP>  (1) 
391.794

>  <PUBCHEM_SHAPE_VOLUME>  (1) 
137.7

>  <PUBCHEM_COORDINATE_TYPE>  (1) 
2
5
10

$$$$
