16831
     RDKit          3D

 29 32  0  0  1  0  0  0  0  0999 V2000
   -7.7166    0.5257   -0.5710 O   0  0  0  0  0  0  0  0  0  0  0  0
   -5.5893   -0.4043   -0.6188 N   0  0  0  0  0  0  0  0  0  0  0  0
    6.9633   -0.1869   -0.1294 N   0  0  0  0  0  0  0  0  0  0  0  0
   -1.0301    0.9027   -0.2587 C   0  0  0  0  0  0  0  0  0  0  0  0
    0.3987    0.9692    0.2919 C   0  0  0  0  0  0  0  0  0  0  0  0
   -1.8334   -0.2942    0.2956 C   0  0  0  0  0  0  0  0  0  0  0  0
    1.1441   -0.3485   -0.0996 C   0  0  0  0  0  0  0  0  0  0  0  0
    2.6427   -0.3413    0.3827 C   0  0  0  0  0  0  0  0  0  0  0  0
   -3.1897   -0.0240   -0.4007 C   0  0  0  0  0  0  0  0  0  0  0  0
    3.3201    0.9314   -0.2205 C   0  0  0  0  0  0  0  0  0  0  0  0
   -1.1260   -1.5818   -0.1498 C   0  0  0  0  0  0  0  0  0  0  0  0
    0.3433   -1.6127    0.3104 C   0  0  0  0  0  0  0  0  0  0  0  0
   -1.9635    2.0908   -0.0469 C   0  0  0  0  0  0  0  0  0  0  0  0
    1.1443    2.2069   -0.2274 C   0  0  0  0  0  0  0  0  0  0  0  0
   -3.3713    1.5062   -0.2667 C   0  0  0  0  0  0  0  0  0  0  0  0
    2.6111    2.2247    0.1967 C   0  0  0  0  0  0  0  0  0  0  0  0
    3.4005   -1.5836   -0.1657 C   0  0  0  0  0  0  0  0  0  0  0  0
    4.8284    1.0018    0.0659 C   0  0  0  0  0  0  0  0  0  0  0  0
   -1.9888   -0.2928    1.8373 C   0  0  0  0  0  0  0  0  0  0  0  0
    2.7219   -0.3647    1.9309 C   0  0  0  0  0  0  0  0  0  0  0  0
   -4.3881   -0.8095    0.1122 C   0  0  0  0  0  0  0  0  0  0  0  0
    5.5411   -0.2470   -0.4660 C   0  0  0  0  0  0  0  0  0  0  0  0
    4.9140   -1.5356    0.0731 C   0  0  0  0  0  0  0  0  0  0  0  0
   -4.1668   -2.3135   -0.0352 C   0  0  0  0  0  0  0  0  0  0  0  0
   -5.5541   -0.6467   -2.0542 C   0  0  0  0  0  0  0  0  0  0  0  0
    7.5589    1.0448   -0.6457 C   0  0  0  0  0  0  0  0  0  0  0  0
    7.6637   -1.3555   -0.6608 C   0  0  0  0  0  0  0  0  0  0  0  0
   -6.6891    0.1728    0.0140 C   0  0  0  0  0  0  0  0  0  0  0  0
   -6.5891    0.3656    1.5065 C   0  0  0  0  0  0  0  0  0  0  0  0
  1 28  2  0
  2 21  1  0
  2 25  1  0
  2 28  1  0
  3 22  1  0
  3 26  1  0
  3 27  1  0
  4  5  1  0
  4  6  1  0
  4 13  1  0
  5  7  1  0
  5 14  1  0
  6  9  1  0
  6 11  1  0
  6 19  1  0
  7  8  1  0
  7 12  1  0
  8 10  1  0
  8 17  1  0
  8 20  1  0
  9 15  1  0
  9 21  1  0
 10 16  1  0
 10 18  1  0
 11 12  1  0
 13 15  1  0
 14 16  1  0
 17 23  1  0
 18 22  1  0
 21 24  1  0
 22 23  1  0
 28 29  1  0
M  END
>  <PUBCHEM_COMPOUND_CID>  (1) 
16831

>  <PUBCHEM_CONFORMER_RMSD>  (1) 
0.8

>  <PUBCHEM_CONFORMER_DIVERSEORDER>  (1) 
6
7
2
10
11
1
4
8
12
5
3
9

>  <PUBCHEM_MMFF94_PARTIAL_CHARGES>  (1) 
10
1 -0.57
2 -0.66
21 0.3
22 0.27
25 0.3
26 0.27
27 0.27
28 0.57
29 0.06
3 -0.81

>  <PUBCHEM_EFFECTIVE_ROTOR_COUNT>  (1) 
6.2

>  <PUBCHEM_PHARMACOPHORE_FEATURES>  (1) 
6
1 1 acceptor
1 3 cation
5 4 6 9 13 15 rings
6 4 5 6 7 11 12 rings
6 5 7 8 10 14 16 rings
6 8 10 17 18 22 23 rings

>  <PUBCHEM_HEAVY_ATOM_COUNT>  (1) 
29

>  <PUBCHEM_ATOM_DEF_STEREO_COUNT>  (1) 
7

>  <PUBCHEM_ATOM_UDEF_STEREO_COUNT>  (1) 
2

>  <PUBCHEM_BOND_DEF_STEREO_COUNT>  (1) 
0

>  <PUBCHEM_BOND_UDEF_STEREO_COUNT>  (1) 
0

>  <PUBCHEM_ISOTOPIC_ATOM_COUNT>  (1) 
0

>  <PUBCHEM_COMPONENT_COUNT>  (1) 
1

>  <PUBCHEM_CACTVS_TAUTO_COUNT>  (1) 
1

>  <PUBCHEM_CONFORMER_ID>  (1) 
000041BF00000006

>  <PUBCHEM_MMFF94_ENERGY>  (1) 
107.4134

>  <PUBCHEM_FEATURE_SELFOVERLAP>  (1) 
30.536

>  <PUBCHEM_SHAPE_FINGERPRINT>  (1) 
10299344 5 18060702783839028087
11135926 11 18335697226616636351
11315181 36 17632579370759807491
11524674 6 16343701049686053591
11578080 2 14044362647993019921
12011746 2 18260264157439502516
12107698 1 18343864411534814132
12166972 35 17989203767826383552
12236239 1 17703790348991300541
12403259 415 18341320137248842329
12516196 113 18202281395043944568
12788726 201 18261386707530863417
12838862 33 18337656595149709480
13533116 47 17561084666177026182
13685833 64 18412546505217932372
13782708 43 17489868254590312254
14068700 675 17775283871952635225
14117953 113 18343584027774754799
14170010 4 18410292528088235440
14251764 18 18272656731574349760
14294032 229 16915399710050926241
14856354 85 17132113559607552957
15131766 46 15721387472113784070
15183329 4 18409726261960878907
15196674 1 18409729522199700684
15361156 5 18188496890290162199
15439362 3 17097509841138199756
15849732 13 18409168818134413118
16087824 20 18336827469447851077
18335252 98 15647059253045809529
18603816 31 17060325332316552551
18608769 82 17313394465110396379
18681886 176 18342450486741271000
200 152 18201998841914073217
20105231 36 18114473300727028851
2026 5 17700703866226076190
21150785 3 18413388739857096860
21236236 1 18339643343820610025
21267235 1 18409453582818760048
21792961 116 17822291241715394210
221357 26 18410572873156159916
23516275 137 17559420005430941607
23522609 53 18057631882392154977
23559900 14 18338230591115671960
23576562 1 17896308294686938423
249057 3 18411981386364152991
3004659 81 18261387870949775480
3009799 131 18040434391151458996
3178227 256 18261404346839806507
335352 9 18410291428523496799
34797466 226 17988929977231746460
350125 39 18411700988864927816
3545911 37 18334857220996127564
3633792 109 18272932717308536785
4017518 198 16988849388556673774
4073 2 18113904913355332818
4325135 7 18413388726365598726
4340502 62 15936403459655424936
484989 97 18189057671559951427
5104073 3 18339073792170029328
59755656 215 18408885113922138295
59755656 520 17095238154834538690
6081469 158 17676487212670065262
6086070 43 17060044935962058721

>  <PUBCHEM_SHAPE_MULTIPOLES>  (1) 
580.98
19.53
2.04
1.18
3.62
0.26
0.23
-2.17
-4.17
0.65
-0.13
-1.14
-0.15
-0.24

>  <PUBCHEM_SHAPE_SELFOVERLAP>  (1) 
1207.834

>  <PUBCHEM_SHAPE_VOLUME>  (1) 
331.6

>  <PUBCHEM_COORDINATE_TYPE>  (1) 
2
5
10

$$$$
