16839
     RDKit          3D

 11 11  0  0  0  0  0  0  0  0999 V2000
    1.0297   -2.8861    0.0004 Cl  0  0  0  0  0  0  0  0  0  0  0  0
    2.1070    2.4443   -0.0005 Cl  0  0  0  0  0  0  0  0  0  0  0  0
    2.7732   -0.4644   -0.0010 O   0  0  0  0  0  0  0  0  0  0  0  0
   -3.5905   -0.2334   -0.0017 O   0  0  0  0  0  0  0  0  0  0  0  0
   -1.2997    0.3584    0.0011 C   0  0  0  0  0  0  0  0  0  0  0  0
    1.4348   -0.1940   -0.0001 C   0  0  0  0  0  0  0  0  0  0  0  0
   -0.8553   -0.9637    0.0006 C   0  0  0  0  0  0  0  0  0  0  0  0
   -0.3767    1.4044    0.0009 C   0  0  0  0  0  0  0  0  0  0  0  0
    0.5120   -1.2400    0.0000 C   0  0  0  0  0  0  0  0  0  0  0  0
    0.9905    1.1281    0.0003 C   0  0  0  0  0  0  0  0  0  0  0  0
   -2.7250    0.6465    0.0001 C   0  0  0  0  0  0  0  0  0  0  0  0
  1  9  1  0
  2 10  1  0
  3  6  1  0
  4 11  2  0
  5  7  2  0
  5  8  1  0
  5 11  1  0
  6  9  2  0
  6 10  1  0
  7  9  1  0
  8 10  2  0
M  END
>  <PUBCHEM_COMPOUND_CID>  (1) 
16839

>  <PUBCHEM_CONFORMER_RMSD>  (1) 
0.4

>  <PUBCHEM_CONFORMER_DIVERSEORDER>  (1) 
1

>  <PUBCHEM_MMFF94_PARTIAL_CHARGES>  (1) 
15
1 -0.18
10 0.18
11 0.42
12 0.15
13 0.15
14 0.06
15 0.45
2 -0.18
3 -0.53
4 -0.57
5 0.09
6 0.08
7 -0.15
8 -0.15
9 0.18

>  <PUBCHEM_EFFECTIVE_ROTOR_COUNT>  (1) 
1

>  <PUBCHEM_PHARMACOPHORE_FEATURES>  (1) 
3
1 3 donor
1 4 acceptor
6 5 6 7 8 9 10 rings

>  <PUBCHEM_HEAVY_ATOM_COUNT>  (1) 
11

>  <PUBCHEM_ATOM_DEF_STEREO_COUNT>  (1) 
0

>  <PUBCHEM_ATOM_UDEF_STEREO_COUNT>  (1) 
0

>  <PUBCHEM_BOND_DEF_STEREO_COUNT>  (1) 
0

>  <PUBCHEM_BOND_UDEF_STEREO_COUNT>  (1) 
0

>  <PUBCHEM_ISOTOPIC_ATOM_COUNT>  (1) 
0

>  <PUBCHEM_COMPONENT_COUNT>  (1) 
1

>  <PUBCHEM_CACTVS_TAUTO_COUNT>  (1) 
4

>  <PUBCHEM_CONFORMER_ID>  (1) 
000041C700000001

>  <PUBCHEM_MMFF94_ENERGY>  (1) 
23.0948

>  <PUBCHEM_FEATURE_SELFOVERLAP>  (1) 
15.223

>  <PUBCHEM_SHAPE_FINGERPRINT>  (1) 
1 1 18410292531665466423
12423570 1 16403685172806031444
13380535 76 18196649824897508316
13380536 305 18410863187022377180
14325111 11 18338799026169545985
16945 1 18410575046092795265
17990270 104 18265331712058602339
193761 8 17906172102823694790
20201158 50 18335139748356078275
20645477 70 18410849963409040111
20871998 22 17909833132662449391
21040471 1 18122343746597227744
2334 1 18122343746438751335
23552423 10 18411703149565845621
241688 4 17689719657977193618
2748010 2 18192720152853850254
5084963 1 18202563968819977129
528862 383 18262227919392622480
7364860 26 18341331110847533198
81228 2 17042320541358279634

>  <PUBCHEM_SHAPE_MULTIPOLES>  (1) 
218.38
3.81
2.69
0.61
2.74
1.06
0
-0.99
0
-1.98
0
-0.02
0
0

>  <PUBCHEM_SHAPE_SELFOVERLAP>  (1) 
442

>  <PUBCHEM_SHAPE_VOLUME>  (1) 
129.3

>  <PUBCHEM_COORDINATE_TYPE>  (1) 
2
5
10

$$$$
