16838
     RDKit          3D

 14 15  0  0  0  0  0  0  0  0999 V2000
   -1.8788   -1.0561    0.3233 S   0  0  0  0  0  0  0  0  0  0  0  0
    0.9923   -1.9914    0.0456 S   0  0  0  0  0  0  0  0  0  0  0  0
    0.2993    0.4903    0.1607 N   0  0  0  0  0  0  0  0  0  0  0  0
   -4.0718    0.6597    0.5569 C   0  0  0  0  0  0  0  0  0  0  0  0
   -4.8092    0.0383   -0.6323 C   0  0  0  0  0  0  0  0  0  0  0  0
   -2.5498    0.6297    0.4195 C   0  0  0  0  0  0  0  0  0  0  0  0
   -6.3162    0.1874   -0.4875 C   0  0  0  0  0  0  0  0  0  0  0  0
    2.2468   -0.8118   -0.0421 C   0  0  0  0  0  0  0  0  0  0  0  0
    1.6807    0.4643    0.0360 C   0  0  0  0  0  0  0  0  0  0  0  0
   -0.1259   -0.7307    0.1728 C   0  0  0  0  0  0  0  0  0  0  0  0
    3.6321   -1.0017   -0.1708 C   0  0  0  0  0  0  0  0  0  0  0  0
    2.5335    1.5882   -0.0167 C   0  0  0  0  0  0  0  0  0  0  0  0
    4.4535    0.1273   -0.2206 C   0  0  0  0  0  0  0  0  0  0  0  0
    3.9135    1.4064   -0.1448 C   0  0  0  0  0  0  0  0  0  0  0  0
  1  6  1  0
  1 10  1  0
  2  8  1  0
  2 10  1  0
  3  9  1  0
  3 10  2  0
  4  5  1  0
  4  6  1  0
  5  7  1  0
  8  9  2  0
  8 11  1  0
  9 12  1  0
 11 13  2  0
 12 14  2  0
 13 14  1  0
M  END
>  <PUBCHEM_COMPOUND_CID>  (1) 
16838

>  <PUBCHEM_CONFORMER_RMSD>  (1) 
0.6

>  <PUBCHEM_CONFORMER_DIVERSEORDER>  (1) 
1
19
32
48
55
24
62
46
42
37
38
57
36
14
61
54
50
35
44
9
47
15
6
49
64
58
23
20
59
13
21
56
25
27
22
45
11
3
41
16
51
17
2
18
7
60
28
26
10
4
33
63
34
8
30
29
5
40
53
39
12
31
52
43

>  <PUBCHEM_MMFF94_PARTIAL_CHARGES>  (1) 
15
1 -0.29
10 0.43
11 -0.15
12 -0.15
13 -0.15
14 -0.15
2 -0.08
24 0.15
25 0.15
26 0.15
27 0.15
3 -0.57
6 0.23
8 0.04
9 0.23

>  <PUBCHEM_EFFECTIVE_ROTOR_COUNT>  (1) 
4

>  <PUBCHEM_PHARMACOPHORE_FEATURES>  (1) 
5
1 3 acceptor
1 7 hydrophobe
4 1 4 5 6 hydrophobe
5 2 3 8 9 10 rings
6 8 9 11 12 13 14 rings

>  <PUBCHEM_HEAVY_ATOM_COUNT>  (1) 
14

>  <PUBCHEM_ATOM_DEF_STEREO_COUNT>  (1) 
0

>  <PUBCHEM_ATOM_UDEF_STEREO_COUNT>  (1) 
0

>  <PUBCHEM_BOND_DEF_STEREO_COUNT>  (1) 
0

>  <PUBCHEM_BOND_UDEF_STEREO_COUNT>  (1) 
0

>  <PUBCHEM_ISOTOPIC_ATOM_COUNT>  (1) 
0

>  <PUBCHEM_COMPONENT_COUNT>  (1) 
1

>  <PUBCHEM_CACTVS_TAUTO_COUNT>  (1) 
1

>  <PUBCHEM_CONFORMER_ID>  (1) 
000041C600000001

>  <PUBCHEM_MMFF94_ENERGY>  (1) 
17.2095

>  <PUBCHEM_FEATURE_SELFOVERLAP>  (1) 
25.446

>  <PUBCHEM_SHAPE_FINGERPRINT>  (1) 
11287383 113 18333453166544384883
11471102 20 18410294700935161026
12236239 1 17917992759360943197
12616999 72 16774081747832217255
12730499 353 18261117361599786123
13081056 2 18333730208845963653
13380535 76 18410579487026124226
13836976 161 18341896289936688238
14123238 8 17632858620684956773
14251717 144 18412826858765210038
14528608 73 18413105074368041485
14897335 6 18411702101446301251
15501527 24 18201995552169558679
17802600 8 18410290289819463105
17834072 33 18272366490780209295
17834072 8 18412270532089073014
18186145 218 18408041818895303358
200 152 18059855056764678819
20279233 1 17676496029667984075
20645477 70 18341614767683987422
212847 35 18259705605675179580
231179 274 17894625946320482519
23402539 116 17846497002832720017
23402655 69 18342736287309217741
23532345 1 18335424547563616603
29717793 49 17703511004429138877
3060560 45 18341898472175875886
335352 9 18410295813980712982
351380 180 18407758131968308545
3545911 37 18335423482575179379
4047638 21 18260548922261052066
4072396 5 18335126580223758434
4990 188 17775574125747000884
5104073 3 18408606993230412651
522135 26 18408885122754522886
58051976 378 18272092677819660135
69090 78 18413107268753574583

>  <PUBCHEM_SHAPE_MULTIPOLES>  (1) 
290.83
11.53
1.61
0.72
15.42
0.29
0
-2.99
-2.12
-1.35
0.04
0.36
0
-0.06

>  <PUBCHEM_SHAPE_SELFOVERLAP>  (1) 
578.493

>  <PUBCHEM_SHAPE_VOLUME>  (1) 
174.3

>  <PUBCHEM_COORDINATE_TYPE>  (1) 
2
5
10

$$$$
