1683
     RDKit          3D

 20 22  0  0  1  0  0  0  0  0999 V2000
    3.9854    3.1888   -0.1892 Cl  0  0  0  0  0  0  0  0  0  0  0  0
    5.7523   -1.8976    0.1806 Cl  0  0  0  0  0  0  0  0  0  0  0  0
   -0.1332    0.1112    0.4668 O   0  0  0  0  0  0  0  0  0  0  0  0
    0.3860   -1.8895   -0.5466 O   0  0  0  0  0  0  0  0  0  0  0  0
   -3.9677    0.8709   -0.5635 N   0  0  0  0  0  0  0  0  0  0  0  0
   -3.5609   -0.4736   -1.0138 C   0  0  0  0  0  0  0  0  0  0  0  0
   -3.8183    0.7818    0.9014 C   0  0  0  0  0  0  0  0  0  0  0  0
   -4.2167   -1.4287   -0.0106 C   0  0  0  0  0  0  0  0  0  0  0  0
   -4.3878   -0.5949    1.2617 C   0  0  0  0  0  0  0  0  0  0  0  0
   -2.0225   -0.5130   -0.9238 C   0  0  0  0  0  0  0  0  0  0  0  0
   -2.3065    0.8716    1.1886 C   0  0  0  0  0  0  0  0  0  0  0  0
   -1.5099   -0.2450    0.4991 C   0  0  0  0  0  0  0  0  0  0  0  0
   -5.3262    1.2179   -0.9735 C   0  0  0  0  0  0  0  0  0  0  0  0
    0.7082   -0.8058   -0.0850 C   0  0  0  0  0  0  0  0  0  0  0  0
    2.1099   -0.3168   -0.0571 C   0  0  0  0  0  0  0  0  0  0  0  0
    3.1351   -1.2353    0.0378 C   0  0  0  0  0  0  0  0  0  0  0  0
    2.3444    1.0414   -0.1278 C   0  0  0  0  0  0  0  0  0  0  0  0
    3.6612    1.5008   -0.1021 C   0  0  0  0  0  0  0  0  0  0  0  0
    4.4521   -0.7761    0.0635 C   0  0  0  0  0  0  0  0  0  0  0  0
    4.7151    0.5920   -0.0065 C   0  0  0  0  0  0  0  0  0  0  0  0
  1 18  1  0
  2 19  1  0
  3 12  1  0
  3 14  1  0
  4 14  2  0
  5  6  1  0
  5  7  1  0
  5 13  1  0
  6  8  1  0
  6 10  1  0
  7  9  1  0
  7 11  1  0
  8  9  1  0
 10 12  1  0
 11 12  1  0
 14 15  1  0
 15 16  2  0
 15 17  1  0
 16 19  1  0
 17 18  2  0
 18 20  1  0
 19 20  2  0
M  END
>  <PUBCHEM_COMPOUND_CID>  (1) 
1683

>  <PUBCHEM_CONFORMER_RMSD>  (1) 
0.6

>  <PUBCHEM_CONFORMER_DIVERSEORDER>  (1) 
1
12
20
29
13
22
3
11
8
28
21
23
7
17
2
15
14
19
4
26
16
27
10
18
24
5
9
25
6

>  <PUBCHEM_MMFF94_PARTIAL_CHARGES>  (1) 
19
1 -0.18
12 0.28
13 0.27
14 0.63
15 0.09
16 -0.15
17 -0.15
18 0.18
19 0.18
2 -0.18
20 -0.15
3 -0.43
35 0.15
36 0.15
37 0.15
4 -0.57
5 -0.81
6 0.27
7 0.27

>  <PUBCHEM_EFFECTIVE_ROTOR_COUNT>  (1) 
4.2

>  <PUBCHEM_PHARMACOPHORE_FEATURES>  (1) 
4
1 4 acceptor
1 5 cation
6 15 16 17 18 19 20 rings
8 5 6 7 8 9 10 11 12 rings

>  <PUBCHEM_HEAVY_ATOM_COUNT>  (1) 
20

>  <PUBCHEM_ATOM_DEF_STEREO_COUNT>  (1) 
0

>  <PUBCHEM_ATOM_UDEF_STEREO_COUNT>  (1) 
2

>  <PUBCHEM_BOND_DEF_STEREO_COUNT>  (1) 
0

>  <PUBCHEM_BOND_UDEF_STEREO_COUNT>  (1) 
0

>  <PUBCHEM_ISOTOPIC_ATOM_COUNT>  (1) 
0

>  <PUBCHEM_COMPONENT_COUNT>  (1) 
1

>  <PUBCHEM_CACTVS_TAUTO_COUNT>  (1) 
1

>  <PUBCHEM_CONFORMER_ID>  (1) 
0000069300000001

>  <PUBCHEM_MMFF94_ENERGY>  (1) 
51.1156

>  <PUBCHEM_FEATURE_SELFOVERLAP>  (1) 
20.297

>  <PUBCHEM_SHAPE_FINGERPRINT>  (1) 
10366900 7 15140961776857034265
10763959 59 18187082849844699876
10912923 1 18060142075858541803
11045977 3 18041001743098433122
11089746 13 18261665991604228109
11315181 36 17703785907763092635
11405975 8 18260828176802857569
11545043 162 17313112946629929688
12107183 9 17693383239369108354
12236239 1 18060134332058906767
12403259 415 18040157326905857073
12403260 363 18342457015355597240
12507557 5 18410009927159914041
12616971 3 18202006529335892299
128620 24 17489593367623597067
12916754 54 18409448102619715015
13167823 11 18412544327326979226
13583140 156 18186522077297084123
13590594 115 18337112251221974640
13675066 3 17967535700487732332
13760787 5 18273498978845059017
13911852 28 18048875192127835946
14251764 38 18334575715686634341
14341114 176 18261119586044269841
15196674 1 18410574010942568365
15788980 27 18407760326327325186
17349148 13 18130793347702085570
17834072 33 18412263969120594526
17844677 252 18408609157904478389
18186145 218 18412268332675505038
19433438 28 17894915135200914169
19489759 90 16515682256224235817
200 152 18202276996743900951
20612939 158 18411138043760563252
20645477 70 18408889529797436346
20832881 197 18041274349722064826
21033648 144 18336822104262694844
21033648 29 17385996286827670492
21033650 10 15553631563573471746
21065198 57 18261112993211617146
21065201 7 16588023528267005736
21709351 56 18411696560853924822
23402539 116 18412539894851878743
23402655 69 18272933829963431628
23557571 272 17167872941538132459
23559900 14 18409444756993490866
2838139 119 18190730952527907517
29717793 49 17775004553217876700
351380 180 18334856108647213672
4214541 1 18409729556169146375
474 4 18411419531379283808
5104073 3 18409451405312364481
5281201 14 18260831509840124956
542803 24 18410858758668326434
602551 16 15864079809805435570
633830 44 18114173151036848522
67856867 119 18272644697408334936
7495541 125 17560518516156276706
77779 3 18410012160505945599
90127 26 17968097533718177153
9971528 1 17894631470086496452
9981440 41 17549246478305819928

>  <PUBCHEM_SHAPE_MULTIPOLES>  (1) 
398.61
13.28
2.18
1
1.26
1.17
0.08
0.36
-0.29
3.12
-0.17
-1.27
0.05
-0.06

>  <PUBCHEM_SHAPE_SELFOVERLAP>  (1) 
837.815

>  <PUBCHEM_SHAPE_VOLUME>  (1) 
228.7

>  <PUBCHEM_COORDINATE_TYPE>  (1) 
2
5
10

$$$$
