16842
     RDKit          3D

  9  9  0  0  0  0  0  0  0  0999 V2000
   -0.1206   -2.3118   -0.1399 O   0  0  0  0  0  0  0  0  0  0  0  0
    0.0466    2.3059   -0.1437 O   0  0  0  0  0  0  0  0  0  0  0  0
    0.3092   -0.0151   -0.2381 N   0  0  0  0  0  0  0  0  0  0  0  0
   -1.8653   -0.6969    0.2448 C   0  0  0  0  0  0  0  0  0  0  0  0
   -1.8120    0.8217    0.2406 C   0  0  0  0  0  0  0  0  0  0  0  0
   -0.4649   -1.1403   -0.0666 C   0  0  0  0  0  0  0  0  0  0  0  0
   -0.3831    1.1631   -0.0684 C   0  0  0  0  0  0  0  0  0  0  0  0
    1.7256   -0.0568   -0.5477 C   0  0  0  0  0  0  0  0  0  0  0  0
    2.5644   -0.0699    0.7191 C   0  0  0  0  0  0  0  0  0  0  0  0
  1  6  2  0
  2  7  2  0
  3  6  1  0
  3  7  1  0
  3  8  1  0
  4  5  1  0
  4  6  1  0
  5  7  1  0
  8  9  1  0
M  END
>  <PUBCHEM_COMPOUND_CID>  (1) 
16842

>  <PUBCHEM_CONFORMER_RMSD>  (1) 
0.4

>  <PUBCHEM_CONFORMER_DIVERSEORDER>  (1) 
1

>  <PUBCHEM_MMFF94_PARTIAL_CHARGES>  (1) 
8
1 -0.57
2 -0.57
3 -0.42
4 0.06
5 0.06
6 0.57
7 0.57
8 0.3

>  <PUBCHEM_EFFECTIVE_ROTOR_COUNT>  (1) 
1.6

>  <PUBCHEM_PHARMACOPHORE_FEATURES>  (1) 
3
1 1 acceptor
1 2 acceptor
5 3 4 5 6 7 rings

>  <PUBCHEM_HEAVY_ATOM_COUNT>  (1) 
9

>  <PUBCHEM_ATOM_DEF_STEREO_COUNT>  (1) 
0

>  <PUBCHEM_ATOM_UDEF_STEREO_COUNT>  (1) 
0

>  <PUBCHEM_BOND_DEF_STEREO_COUNT>  (1) 
0

>  <PUBCHEM_BOND_UDEF_STEREO_COUNT>  (1) 
0

>  <PUBCHEM_ISOTOPIC_ATOM_COUNT>  (1) 
0

>  <PUBCHEM_COMPONENT_COUNT>  (1) 
1

>  <PUBCHEM_CACTVS_TAUTO_COUNT>  (1) 
3

>  <PUBCHEM_CONFORMER_ID>  (1) 
000041CA00000001

>  <PUBCHEM_MMFF94_ENERGY>  (1) 
3.2933

>  <PUBCHEM_FEATURE_SELFOVERLAP>  (1) 
15.223

>  <PUBCHEM_SHAPE_FINGERPRINT>  (1) 
16714656 1 18410863152578112790
18185500 45 18190742135983785978
20645464 45 18060410310068276930
21040471 1 18122070805577973125
23552423 10 18188219688843107022
2748010 2 18339653221965660255
5084963 1 18129949949131727278
54338 74 18194378186461025914

>  <PUBCHEM_SHAPE_MULTIPOLES>  (1) 
168.5
2.63
1.98
0.71
1.19
0
0.04
-0.01
0.54
-0.42
-0.14
0.2
0
0

>  <PUBCHEM_SHAPE_SELFOVERLAP>  (1) 
338.444

>  <PUBCHEM_SHAPE_VOLUME>  (1) 
101.7

>  <PUBCHEM_COORDINATE_TYPE>  (1) 
2
5
10

$$$$
