16844
     RDKit          3D

  9  8  0  0  0  0  0  0  0  0999 V2000
   -3.3669   -0.0758   -0.1589 Cl  0  0  0  0  0  0  0  0  0  0  0  0
   -0.9945   -1.4658    0.6035 O   0  0  0  0  0  0  0  0  0  0  0  0
    0.6409    0.0637    0.0075 N   0  0  0  0  0  0  0  0  0  0  0  0
    1.0618    1.3448   -0.5555 C   0  0  0  0  0  0  0  0  0  0  0  0
    1.7229   -0.7904    0.4818 C   0  0  0  0  0  0  0  0  0  0  0  0
   -0.6853   -0.3738    0.1202 C   0  0  0  0  0  0  0  0  0  0  0  0
    1.1357    2.4209    0.5079 C   0  0  0  0  0  0  0  0  0  0  0  0
    2.2230   -1.7113   -0.6119 C   0  0  0  0  0  0  0  0  0  0  0  0
   -1.7377    0.5876   -0.3947 C   0  0  0  0  0  0  0  0  0  0  0  0
  1  9  1  0
  2  6  2  0
  3  4  1  0
  3  5  1  0
  3  6  1  0
  4  7  1  0
  5  8  1  0
  6  9  1  0
M  END
>  <PUBCHEM_COMPOUND_CID>  (1) 
16844

>  <PUBCHEM_CONFORMER_RMSD>  (1) 
0.6

>  <PUBCHEM_CONFORMER_DIVERSEORDER>  (1) 
1
8
2
7
12
15
14
4
13
6
11
3
5
16
10
9

>  <PUBCHEM_MMFF94_PARTIAL_CHARGES>  (1) 
7
1 -0.29
2 -0.57
3 -0.66
4 0.3
5 0.3
6 0.57
9 0.35

>  <PUBCHEM_EFFECTIVE_ROTOR_COUNT>  (1) 
4

>  <PUBCHEM_PHARMACOPHORE_FEATURES>  (1) 
1
1 2 acceptor

>  <PUBCHEM_HEAVY_ATOM_COUNT>  (1) 
9

>  <PUBCHEM_ATOM_DEF_STEREO_COUNT>  (1) 
0

>  <PUBCHEM_ATOM_UDEF_STEREO_COUNT>  (1) 
0

>  <PUBCHEM_BOND_DEF_STEREO_COUNT>  (1) 
0

>  <PUBCHEM_BOND_UDEF_STEREO_COUNT>  (1) 
0

>  <PUBCHEM_ISOTOPIC_ATOM_COUNT>  (1) 
0

>  <PUBCHEM_COMPONENT_COUNT>  (1) 
1

>  <PUBCHEM_CACTVS_TAUTO_COUNT>  (1) 
1

>  <PUBCHEM_CONFORMER_ID>  (1) 
000041CC00000001

>  <PUBCHEM_MMFF94_ENERGY>  (1) 
10.2355

>  <PUBCHEM_FEATURE_SELFOVERLAP>  (1) 
5.074

>  <PUBCHEM_SHAPE_FINGERPRINT>  (1) 
12932741 1 17894351103190053811
13380535 76 18192140718826502955
20711978 78 18341038700942317541
20711985 344 17621339947788702806
21040471 1 17973724971668088053
23211744 41 17409378711620701028
23552423 10 18187365488535702279
2748010 2 18115874173193287819
29004967 10 18342171112130363250
5084963 1 18341890758387835385

>  <PUBCHEM_SHAPE_MULTIPOLES>  (1) 
176.24
3.78
2.15
0.79
3.15
1.03
0.02
-1.08
0.4
-1.59
-0.16
-0.13
-0.01
0.34

>  <PUBCHEM_SHAPE_SELFOVERLAP>  (1) 
312.811

>  <PUBCHEM_SHAPE_VOLUME>  (1) 
116.4

>  <PUBCHEM_COORDINATE_TYPE>  (1) 
2
5
10

$$$$
