16841
     RDKit          3D

  8  7  0  0  0  0  0  0  0  0999 V2000
   -1.2114    0.1603   -0.8553 S   0  0  0  0  0  0  0  0  0  0  0  0
    1.2129    0.1581    0.8570 S   0  0  0  0  0  0  0  0  0  0  0  0
   -0.0003   -2.4650   -0.0015 S   0  0  0  0  0  0  0  0  0  0  0  0
   -2.4473    0.3196    0.4551 C   0  0  0  0  0  0  0  0  0  0  0  0
    2.4460    0.3207   -0.4555 C   0  0  0  0  0  0  0  0  0  0  0  0
   -3.6252    1.1480   -0.0214 C   0  0  0  0  0  0  0  0  0  0  0  0
    3.6251    1.1479    0.0207 C   0  0  0  0  0  0  0  0  0  0  0  0
    0.0001   -0.7896    0.0009 C   0  0  0  0  0  0  0  0  0  0  0  0
  1  4  1  0
  1  8  1  0
  2  5  1  0
  2  8  1  0
  3  8  2  0
  4  6  1  0
  5  7  1  0
M  END
>  <PUBCHEM_COMPOUND_CID>  (1) 
16841

>  <PUBCHEM_CONFORMER_RMSD>  (1) 
0.6

>  <PUBCHEM_CONFORMER_DIVERSEORDER>  (1) 
1
27
28
33
25
34
30
11
17
32
40
37
29
15
36
16
12
26
38
24
10
39
14
23
9
19
35
8
7
2
31
22
18
20
13
6
21
3
5
4

>  <PUBCHEM_MMFF94_PARTIAL_CHARGES>  (1) 
6
1 -0.37
2 -0.37
3 -0.38
4 0.23
5 0.23
8 0.66

>  <PUBCHEM_EFFECTIVE_ROTOR_COUNT>  (1) 
4

>  <PUBCHEM_PHARMACOPHORE_FEATURES>  (1) 
3
1 3 acceptor
1 6 hydrophobe
1 7 hydrophobe

>  <PUBCHEM_HEAVY_ATOM_COUNT>  (1) 
8

>  <PUBCHEM_ATOM_DEF_STEREO_COUNT>  (1) 
0

>  <PUBCHEM_ATOM_UDEF_STEREO_COUNT>  (1) 
0

>  <PUBCHEM_BOND_DEF_STEREO_COUNT>  (1) 
0

>  <PUBCHEM_BOND_UDEF_STEREO_COUNT>  (1) 
0

>  <PUBCHEM_ISOTOPIC_ATOM_COUNT>  (1) 
0

>  <PUBCHEM_COMPONENT_COUNT>  (1) 
1

>  <PUBCHEM_CACTVS_TAUTO_COUNT>  (1) 
1

>  <PUBCHEM_CONFORMER_ID>  (1) 
000041C900000001

>  <PUBCHEM_MMFF94_ENERGY>  (1) 
5.3293

>  <PUBCHEM_FEATURE_SELFOVERLAP>  (1) 
15.223

>  <PUBCHEM_SHAPE_FINGERPRINT>  (1) 
14325111 11 18410856568229737154
14390081 3 18341612581888219545
15775835 57 18410571786128364480
170605 34 18272090457252717007
18342897 55 18409719652095842517
20211469 16 9007060179421070852
20211469 26 12540686046214688969
20651381 22 17749390386224412139
20653085 51 17060054908089720361
20711985 344 17907282596641201010
21293036 1 17060337431138898617
21930827 45 18199175368678290850
23235685 24 18410851062081813092
528862 383 18263638463872583810

>  <PUBCHEM_SHAPE_MULTIPOLES>  (1) 
176.18
5.52
1.9
0.9
0
1.66
0
-4.24
0
0
0
0
-0.04
-0.06

>  <PUBCHEM_SHAPE_SELFOVERLAP>  (1) 
279.312

>  <PUBCHEM_SHAPE_VOLUME>  (1) 
124

>  <PUBCHEM_COORDINATE_TYPE>  (1) 
2
5
10

$$$$
