16858
     RDKit          3D

 19 20  0  0  0  0  0  0  0  0999 V2000
    4.7018   -1.2191   -0.0001 F   0  0  0  0  0  0  0  0  0  0  0  0
    4.6197    0.6577   -1.0840 F   0  0  0  0  0  0  0  0  0  0  0  0
    4.5981    0.6593    1.0904 F   0  0  0  0  0  0  0  0  0  0  0  0
   -3.5940    1.7339   -1.0976 O   0  0  0  0  0  0  0  0  0  0  0  0
   -3.5911    1.7357    1.0976 O   0  0  0  0  0  0  0  0  0  0  0  0
   -3.5726   -1.7456    1.0987 O   0  0  0  0  0  0  0  0  0  0  0  0
   -3.5738   -1.7473   -1.0965 O   0  0  0  0  0  0  0  0  0  0  0  0
    1.8505    1.0793   -0.0013 N   0  0  0  0  0  0  0  0  0  0  0  0
    1.8708   -1.1432   -0.0001 N   0  0  0  0  0  0  0  0  0  0  0  0
   -3.0736    1.4282   -0.0004 N   0  0  0  0  0  0  0  0  0  0  0  0
   -3.0577   -1.4337    0.0005 N   0  0  0  0  0  0  0  0  0  0  0  0
    0.5324    0.7012   -0.0012 C   0  0  0  0  0  0  0  0  0  0  0  0
    0.5715   -0.6903   -0.0004 C   0  0  0  0  0  0  0  0  0  0  0  0
    2.6107   -0.0571   -0.0006 C   0  0  0  0  0  0  0  0  0  0  0  0
   -0.6546    1.4346   -0.0018 C   0  0  0  0  0  0  0  0  0  0  0  0
   -0.6356   -1.4093   -0.0001 C   0  0  0  0  0  0  0  0  0  0  0  0
   -1.8467    0.7028   -0.0016 C   0  0  0  0  0  0  0  0  0  0  0  0
   -1.8397   -0.6939   -0.0007 C   0  0  0  0  0  0  0  0  0  0  0  0
    4.0838    0.0068   -0.0007 C   0  0  0  0  0  0  0  0  0  0  0  0
  1 19  1  0
  2 19  1  0
  3 19  1  0
  4 10  1  0
  5 10  2  0
  6 11  1  0
  7 11  2  0
  8 12  1  0
  8 14  1  0
  9 13  1  0
  9 14  2  0
 10 17  1  0
 11 18  1  0
 12 13  2  0
 12 15  1  0
 13 16  1  0
 14 19  1  0
 15 17  2  0
 16 18  2  0
 17 18  1  0
M  CHG  4   4  -1   6  -1  10   1  11   1
M  END
>  <PUBCHEM_COMPOUND_CID>  (1) 
16858

>  <PUBCHEM_CONFORMER_RMSD>  (1) 
0.6

>  <PUBCHEM_CONFORMER_DIVERSEORDER>  (1) 
1

>  <PUBCHEM_MMFF94_PARTIAL_CHARGES>  (1) 
22
1 -0.34
10 0.91
11 0.91
12 -0.15
13 0.23
14 0.01
15 -0.15
16 -0.15
17 0.13
18 0.13
19 1.2
2 -0.34
20 0.27
21 0.15
22 0.15
3 -0.34
4 -0.52
5 -0.52
6 -0.52
7 -0.52
8 0.03
9 -0.57

>  <PUBCHEM_EFFECTIVE_ROTOR_COUNT>  (1) 
3

>  <PUBCHEM_PHARMACOPHORE_FEATURES>  (1) 
10
1 4 acceptor
1 4 anion
1 5 acceptor
1 6 acceptor
1 6 anion
1 7 acceptor
1 8 donor
3 8 9 14 cation
5 8 9 12 13 14 rings
6 12 13 15 16 17 18 rings

>  <PUBCHEM_HEAVY_ATOM_COUNT>  (1) 
19

>  <PUBCHEM_ATOM_DEF_STEREO_COUNT>  (1) 
0

>  <PUBCHEM_ATOM_UDEF_STEREO_COUNT>  (1) 
0

>  <PUBCHEM_BOND_DEF_STEREO_COUNT>  (1) 
0

>  <PUBCHEM_BOND_UDEF_STEREO_COUNT>  (1) 
0

>  <PUBCHEM_ISOTOPIC_ATOM_COUNT>  (1) 
0

>  <PUBCHEM_COMPONENT_COUNT>  (1) 
1

>  <PUBCHEM_CACTVS_TAUTO_COUNT>  (1) 
1

>  <PUBCHEM_CONFORMER_ID>  (1) 
000041DA00000001

>  <PUBCHEM_MMFF94_ENERGY>  (1) 
43.1259

>  <PUBCHEM_FEATURE_SELFOVERLAP>  (1) 
51.016

>  <PUBCHEM_SHAPE_FINGERPRINT>  (1) 
10014705 185 18260543403265324989
10062212 137 18409161100009843786
10680689 15 18202005455583707158
11132069 177 18336261263048596540
11405975 8 18341050705834878114
11543360 7 15430318104513400354
12032990 46 18337676411680550306
12403814 3 17748830674856115621
13140716 1 18410862078968768529
13214271 11 18342171163501010044
13296908 3 18131067147477058680
13675066 3 18341894108483496754
13760787 19 18113338579130900346
13760787 5 17313105246349517012
15196674 1 18410575080974792546
15219456 202 18059584541969910598
16752209 62 18337657698576762835
16945 1 18266458904713755619
18186145 218 18411984620432276820
19026448 4 17346882256286794676
19026448 5 17312820485564647216
19422 9 18187650214981770206
1986462 14 18413109463418345142
200 152 18059847407306806895
20281475 54 18187081746063990882
20510252 161 18273216417051699304
20645477 70 17346036645956369270
21267235 1 18409739481633124955
22182313 1 18199766777306704719
23402539 116 18341604945135700198
23557571 272 18201734958632835846
23559900 14 18271806783917375910
2748010 2 18412547600297436487
3312278 4 18411702062675401721
34934 24 18263074440245617841
350125 39 18337961185572108361
3545911 37 18411140190690089324
474 4 16662345133486589052
5104073 3 18410853253137464810
559249 180 18262228916289564162
573450 72 18187914076234296906
633830 44 17023191487693817456
9709674 26 18411425011958656702

>  <PUBCHEM_SHAPE_MULTIPOLES>  (1) 
325.79
8.75
1.89
0.87
6.81
0.06
0
-0.04
0
-2.11
0
-0.33
-0.06
0

>  <PUBCHEM_SHAPE_SELFOVERLAP>  (1) 
716.667

>  <PUBCHEM_SHAPE_VOLUME>  (1) 
179.8

>  <PUBCHEM_COORDINATE_TYPE>  (1) 
2
5
10

$$$$
