16856
     RDKit          3D

 17 17  0  0  0  0  0  0  0  0999 V2000
    2.3974    0.7540    0.6421 O   0  0  0  0  0  0  0  0  0  0  0  0
   -3.5756   -0.5209   -1.6198 O   0  0  0  0  0  0  0  0  0  0  0  0
   -5.2223   -2.2653   -0.3745 O   0  0  0  0  0  0  0  0  0  0  0  0
   -4.6423   -1.1926    0.3155 N   0  0  0  0  0  0  0  0  0  0  0  0
    4.4133   -0.3244   -0.0691 C   0  0  0  0  0  0  0  0  0  0  0  0
    3.0355   -0.5122    0.5498 C   0  0  0  0  0  0  0  0  0  0  0  0
    5.1520   -1.6520   -0.2134 C   0  0  0  0  0  0  0  0  0  0  0  0
    1.0283    0.7631    0.5742 C   0  0  0  0  0  0  0  0  0  0  0  0
    0.3774    1.4655   -0.4340 C   0  0  0  0  0  0  0  0  0  0  0  0
   -1.7509    0.7601    0.4658 C   0  0  0  0  0  0  0  0  0  0  0  0
   -1.0164    1.4642   -0.4885 C   0  0  0  0  0  0  0  0  0  0  0  0
    0.3022    0.0590    1.5289 C   0  0  0  0  0  0  0  0  0  0  0  0
   -1.0917    0.0575    1.4745 C   0  0  0  0  0  0  0  0  0  0  0  0
   -3.2410    0.7581    0.4079 C   0  0  0  0  0  0  0  0  0  0  0  0
    6.5097   -1.4655   -0.8714 C   0  0  0  0  0  0  0  0  0  0  0  0
    1.1476    2.2255   -1.4626 C   0  0  0  0  0  0  0  0  0  0  0  0
   -3.8231   -0.3741   -0.4255 C   0  0  0  0  0  0  0  0  0  0  0  0
  1  6  1  0
  1  8  1  0
  2 17  2  0
  3  4  1  0
  4 17  1  0
  5  6  1  0
  5  7  1  0
  7 15  1  0
  8  9  2  0
  8 12  1  0
  9 11  1  0
  9 16  1  0
 10 11  2  0
 10 13  1  0
 10 14  1  0
 12 13  2  0
 14 17  1  0
M  END
>  <PUBCHEM_COMPOUND_CID>  (1) 
16856

>  <PUBCHEM_CONFORMER_RMSD>  (1) 
0.8

>  <PUBCHEM_CONFORMER_DIVERSEORDER>  (1) 
4
23
67
92
137
120
115
51
99
75
102
8
80
112
41
30
132
6
71
85
76
133
68
54
93
66
107
122
124
94
7
123
136
46
57
81
9
134
125
86
70
96
39
17
104
43
83
3
100
61
63
87
88
55
2
73
127
110
33
101
126
13
48
119
118
114
38
116
45
103
135
138
128
60
131
21
15
58
72
117
62
27
106
82
47
129
121
108
74
98
34
26
40
84
64
16
59
49
91
32
44
14
53
35
65
10
77
36
130
69
18
78
22
97
56
90
25
50
28
113
79
5
111
1
19
24
52
109
89
95
42
31
20
105
37
29
12
11

>  <PUBCHEM_MMFF94_PARTIAL_CHARGES>  (1) 
19
1 -0.36
10 -0.14
11 -0.15
12 -0.15
13 -0.15
14 0.2
16 0.14
17 0.57
2 -0.57
24 0.15
25 0.15
26 0.15
3 -0.44
35 0.37
36 0.4
4 -0.39
6 0.28
8 0.08
9 -0.14

>  <PUBCHEM_EFFECTIVE_ROTOR_COUNT>  (1) 
7

>  <PUBCHEM_PHARMACOPHORE_FEATURES>  (1) 
5
1 1 acceptor
1 15 hydrophobe
1 2 acceptor
1 4 donor
6 8 9 10 11 12 13 rings

>  <PUBCHEM_HEAVY_ATOM_COUNT>  (1) 
17

>  <PUBCHEM_ATOM_DEF_STEREO_COUNT>  (1) 
0

>  <PUBCHEM_ATOM_UDEF_STEREO_COUNT>  (1) 
0

>  <PUBCHEM_BOND_DEF_STEREO_COUNT>  (1) 
0

>  <PUBCHEM_BOND_UDEF_STEREO_COUNT>  (1) 
0

>  <PUBCHEM_ISOTOPIC_ATOM_COUNT>  (1) 
0

>  <PUBCHEM_COMPONENT_COUNT>  (1) 
1

>  <PUBCHEM_CACTVS_TAUTO_COUNT>  (1) 
3

>  <PUBCHEM_CONFORMER_ID>  (1) 
000041D800000004

>  <PUBCHEM_MMFF94_ENERGY>  (1) 
39.63

>  <PUBCHEM_FEATURE_SELFOVERLAP>  (1) 
25.371

>  <PUBCHEM_SHAPE_FINGERPRINT>  (1) 
11961588 58 14129340740523312044
12596602 18 14189281673885627542
12633257 1 15697717133581377143
12670546 177 17095525118831739351
13288520 33 18272090474321796873
13583140 156 16558459765304475704
14123255 352 10809345533484002550
14178000 29 18408042922622946084
14350574 20 17603873333945375473
14576447 43 18187076265295571754
14739800 52 8141814828607645670
14911166 2 17312822679797297465
15061688 2 7997972387934429296
15209294 21 10375871878847368345
16945 1 17240475910202040689
18186145 218 17313656144598780153
18222031 100 18260825999523600136
193927 3 18272941534844850631
19784866 240 18341899610299666555
200 152 18411984620532425808
20374829 77 18261952951628696098
20621476 21 17988932167053631630
20871999 31 17458345191581095828
21069387 34 18408611387029356913
21475661 188 8358250428302586270
21637258 2 17988914557528883806
22713019 99 18187081762753217522
23379529 103 18045788050854695675
23402539 116 18041845000298522804
23559900 14 18201145624627243848
26918003 58 16845569773314039664
270888 7 10809605014487448863
2838139 119 12179845017671935374
2916195 48 8430304732563850742
3286 77 18130785651315987064
351380 3 18201999923813782854
465052 167 17775289382790807862
56616090 284 17967816024787819218
58807428 26 13110960907957567204

>  <PUBCHEM_SHAPE_MULTIPOLES>  (1) 
327.26
11.88
1.95
1.31
9.84
0.05
0.02
-10.69
-4.07
-0.51
-0.79
-0.28
0.11
-0.18

>  <PUBCHEM_SHAPE_SELFOVERLAP>  (1) 
658.143

>  <PUBCHEM_SHAPE_VOLUME>  (1) 
193.5

>  <PUBCHEM_COORDINATE_TYPE>  (1) 
2
5
10

$$$$
