16861
     RDKit          3D

 18 19  0  0  1  0  0  0  0  0999 V2000
    2.7221   -2.3780   -0.4853 F   0  0  0  0  0  0  0  0  0  0  0  0
   -1.4914   -0.5046    1.0512 O   0  0  0  0  0  0  0  0  0  0  0  0
   -1.5913    2.2980   -1.1837 O   0  0  0  0  0  0  0  0  0  0  0  0
   -3.7010    1.3665    0.2724 O   0  0  0  0  0  0  0  0  0  0  0  0
   -2.2111   -3.1379    0.4068 O   0  0  0  0  0  0  0  0  0  0  0  0
    1.1134    2.5976    0.6567 O   0  0  0  0  0  0  0  0  0  0  0  0
    0.5239    0.3967    0.2825 N   0  0  0  0  0  0  0  0  0  0  0  0
    2.8182    1.1676    0.2015 N   0  0  0  0  0  0  0  0  0  0  0  0
    4.5583   -0.3090   -0.2661 N   0  0  0  0  0  0  0  0  0  0  0  0
   -1.5990    0.9297   -0.8320 C   0  0  0  0  0  0  0  0  0  0  0  0
   -2.9929    0.4216   -0.5297 C   0  0  0  0  0  0  0  0  0  0  0  0
   -0.8742    0.6580    0.4749 C   0  0  0  0  0  0  0  0  0  0  0  0
   -2.7070   -0.8022    0.3298 C   0  0  0  0  0  0  0  0  0  0  0  0
   -2.4776   -2.0689   -0.4839 C   0  0  0  0  0  0  0  0  0  0  0  0
    0.9632   -0.8850   -0.0139 C   0  0  0  0  0  0  0  0  0  0  0  0
    1.4732    1.4484    0.3936 C   0  0  0  0  0  0  0  0  0  0  0  0
    2.2506   -1.1534   -0.1969 C   0  0  0  0  0  0  0  0  0  0  0  0
    3.2225   -0.0449   -0.0779 C   0  0  0  0  0  0  0  0  0  0  0  0
  1 17  1  0
  2 12  1  0
  2 13  1  0
  3 10  1  0
  4 11  1  0
  5 14  1  0
  6 16  2  0
  7 12  1  0
  7 15  1  0
  7 16  1  0
  8 16  1  0
  8 18  2  0
  9 18  1  0
 10 11  1  0
 10 12  1  0
 11 13  1  0
 13 14  1  0
 15 17  2  0
 17 18  1  0
M  END
>  <PUBCHEM_COMPOUND_CID>  (1) 
16861

>  <PUBCHEM_CONFORMER_RMSD>  (1) 
0.6

>  <PUBCHEM_CONFORMER_DIVERSEORDER>  (1) 
1
12
13
6
5
2
14
10
8
11
4
7
9
3

>  <PUBCHEM_MMFF94_PARTIAL_CHARGES>  (1) 
24
1 -0.15
10 0.28
11 0.28
12 0.58
13 0.28
14 0.28
15 -0.04
16 0.84
17 0.16
18 0.49
2 -0.56
25 0.4
26 0.4
27 0.15
28 0.4
29 0.4
3 -0.68
30 0.4
4 -0.68
5 -0.68
6 -0.57
7 -0.47
8 -0.66
9 -0.85

>  <PUBCHEM_EFFECTIVE_ROTOR_COUNT>  (1) 
3

>  <PUBCHEM_PHARMACOPHORE_FEATURES>  (1) 
12
1 2 acceptor
1 3 acceptor
1 3 donor
1 4 acceptor
1 4 donor
1 5 acceptor
1 5 donor
1 6 acceptor
1 8 donor
1 9 donor
5 2 10 11 12 13 rings
6 7 8 15 16 17 18 rings

>  <PUBCHEM_HEAVY_ATOM_COUNT>  (1) 
18

>  <PUBCHEM_ATOM_DEF_STEREO_COUNT>  (1) 
4

>  <PUBCHEM_ATOM_UDEF_STEREO_COUNT>  (1) 
0

>  <PUBCHEM_BOND_DEF_STEREO_COUNT>  (1) 
0

>  <PUBCHEM_BOND_UDEF_STEREO_COUNT>  (1) 
0

>  <PUBCHEM_ISOTOPIC_ATOM_COUNT>  (1) 
0

>  <PUBCHEM_COMPONENT_COUNT>  (1) 
1

>  <PUBCHEM_CACTVS_TAUTO_COUNT>  (1) 
3

>  <PUBCHEM_CONFORMER_ID>  (1) 
000041DD00000001

>  <PUBCHEM_MMFF94_ENERGY>  (1) 
52.4418

>  <PUBCHEM_FEATURE_SELFOVERLAP>  (1) 
60.96

>  <PUBCHEM_SHAPE_FINGERPRINT>  (1) 
10608611 8 18410568517663773897
10967382 1 18339923705899364778
11132069 177 18411977001033537384
12500047 106 18409443670245042743
12932764 1 17894901927986659457
12969540 114 17896860120406102373
13380535 21 18410860979361642709
14115302 16 18335432243833852828
15219456 202 18410853308381481009
15375462 6 18194117649354905316
16945 1 18336249176873462553
17834074 16 18411420639254135711
19107657 46 18412826889056841038
200 152 17846492638575968757
20201158 50 18411136913819966074
21501502 16 18337107976895506497
221490 88 18267308818812617018
22721475 48 18409732880231090968
22802520 49 18335980964866401969
23402539 116 17385437731026414044
23559900 14 18269545199292867601
238 59 16164640912452312269
2748010 2 18049715514492859041
2871803 45 18193266614702778487
3312278 4 18342742914058614178
34934 24 18340763754621793114
5493415 88 18341893043226014992
69090 78 18409443653423895575
74978 22 18341894099650943145
81228 2 18115022047655475441
8809292 202 18408604781443651602
93112 12 18411979182650174149
9709674 26 18341614840767087679

>  <PUBCHEM_SHAPE_MULTIPOLES>  (1) 
318.87
6.29
2.67
0.84
2.89
0.78
0.05
1.12
0.5
-0.92
0.08
-0.31
-0.16
0.68

>  <PUBCHEM_SHAPE_SELFOVERLAP>  (1) 
675.479

>  <PUBCHEM_SHAPE_VOLUME>  (1) 
179

>  <PUBCHEM_COORDINATE_TYPE>  (1) 
2
5
10

$$$$
