16869
     RDKit          3D

 27 29  0  0  0  0  0  0  0  0999 V2000
   -4.9315    2.3710    0.1523 S   0  0  0  0  0  0  0  0  0  0  0  0
    4.7369    2.3471   -0.1567 S   0  0  0  0  0  0  0  0  0  0  0  0
   -0.1024   -4.1396   -0.2452 O   0  0  0  0  0  0  0  0  0  0  0  0
   -5.4775    2.5893   -1.3732 O   0  0  0  0  0  0  0  0  0  0  0  0
   -6.0348    1.8161    0.9228 O   0  0  0  0  0  0  0  0  0  0  0  0
   -4.2734    3.5969    0.5761 O   0  0  0  0  0  0  0  0  0  0  0  0
    5.0950    2.8444    1.3593 O   0  0  0  0  0  0  0  0  0  0  0  0
    5.9749    2.3928   -0.9214 O   0  0  0  0  0  0  0  0  0  0  0  0
    3.5612    3.0769   -0.6051 O   0  0  0  0  0  0  0  0  0  0  0  0
    0.6290   -1.4870   -0.5035 N   0  0  0  0  0  0  0  0  0  0  0  0
    1.2137   -1.3238    0.5906 N   0  0  0  0  0  0  0  0  0  0  0  0
   -1.7012   -0.8233   -0.1773 C   0  0  0  0  0  0  0  0  0  0  0  0
   -3.0464   -1.1990    0.0510 C   0  0  0  0  0  0  0  0  0  0  0  0
   -3.6932    1.1464    0.0251 C   0  0  0  0  0  0  0  0  0  0  0  0
   -0.7171   -1.8202   -0.2761 C   0  0  0  0  0  0  0  0  0  0  0  0
   -4.0305   -0.2018    0.1496 C   0  0  0  0  0  0  0  0  0  0  0  0
   -1.3798    0.5383   -0.3007 C   0  0  0  0  0  0  0  0  0  0  0  0
   -3.3677   -2.5605    0.1740 C   0  0  0  0  0  0  0  0  0  0  0  0
   -2.3704    1.5157   -0.1999 C   0  0  0  0  0  0  0  0  0  0  0  0
   -1.0541   -3.1683   -0.1511 C   0  0  0  0  0  0  0  0  0  0  0  0
   -2.3771   -3.5377    0.0734 C   0  0  0  0  0  0  0  0  0  0  0  0
    4.2659    0.6744    0.0084 C   0  0  0  0  0  0  0  0  0  0  0  0
    2.5600   -0.9908    0.3636 C   0  0  0  0  0  0  0  0  0  0  0  0
    2.9294    0.3445    0.2337 C   0  0  0  0  0  0  0  0  0  0  0  0
    5.2265   -0.3328   -0.0856 C   0  0  0  0  0  0  0  0  0  0  0  0
    3.5142   -1.9994    0.2706 C   0  0  0  0  0  0  0  0  0  0  0  0
    4.8505   -1.6696    0.0453 C   0  0  0  0  0  0  0  0  0  0  0  0
  1  4  1  0
  1  5  2  0
  1  6  2  0
  1 14  1  0
  2  7  1  0
  2  8  2  0
  2  9  2  0
  2 22  1  0
  3 20  1  0
 10 11  2  0
 10 15  1  0
 11 23  1  0
 12 13  2  0
 12 15  1  0
 12 17  1  0
 13 16  1  0
 13 18  1  0
 14 16  2  0
 14 19  1  0
 15 20  2  0
 17 19  2  0
 18 21  2  0
 20 21  1  0
 22 24  2  0
 22 25  1  0
 23 24  1  0
 23 26  2  0
 25 27  2  0
 26 27  1  0
M  END
>  <PUBCHEM_COMPOUND_CID>  (1) 
16869

>  <PUBCHEM_CONFORMER_RMSD>  (1) 
0.8

>  <PUBCHEM_CONFORMER_DIVERSEORDER>  (1) 
1
9
10
4
8
6
7
2
3
5

>  <PUBCHEM_MMFF94_PARTIAL_CHARGES>  (1) 
37
1 1.49
10 -0.18
11 -0.18
14 -0.01
15 0.18
16 -0.15
17 -0.15
18 -0.15
19 -0.15
2 1.49
20 0.08
21 -0.15
22 -0.01
23 0.18
24 -0.15
25 -0.15
26 -0.15
27 -0.15
28 0.15
29 0.15
3 -0.53
30 0.15
31 0.15
32 0.15
33 0.15
34 0.15
35 0.15
36 0.15
37 0.45
38 0.5
39 0.5
4 -0.68
5 -0.65
6 -0.65
7 -0.68
8 -0.65
9 -0.65

>  <PUBCHEM_EFFECTIVE_ROTOR_COUNT>  (1) 
4

>  <PUBCHEM_PHARMACOPHORE_FEATURES>  (1) 
12
1 3 donor
1 4 acceptor
1 5 acceptor
1 6 acceptor
1 7 acceptor
1 8 acceptor
1 9 acceptor
4 1 4 5 6 anion
4 2 7 8 9 anion
6 12 13 14 16 17 19 rings
6 12 13 15 18 20 21 rings
6 22 23 24 25 26 27 rings

>  <PUBCHEM_HEAVY_ATOM_COUNT>  (1) 
27

>  <PUBCHEM_ATOM_DEF_STEREO_COUNT>  (1) 
0

>  <PUBCHEM_ATOM_UDEF_STEREO_COUNT>  (1) 
0

>  <PUBCHEM_BOND_DEF_STEREO_COUNT>  (1) 
0

>  <PUBCHEM_BOND_UDEF_STEREO_COUNT>  (1) 
0

>  <PUBCHEM_ISOTOPIC_ATOM_COUNT>  (1) 
0

>  <PUBCHEM_COMPONENT_COUNT>  (1) 
1

>  <PUBCHEM_CACTVS_TAUTO_COUNT>  (1) 
3

>  <PUBCHEM_CONFORMER_ID>  (1) 
000041E500000001

>  <PUBCHEM_MMFF94_ENERGY>  (1) 
60.3618

>  <PUBCHEM_FEATURE_SELFOVERLAP>  (1) 
61.038

>  <PUBCHEM_SHAPE_FINGERPRINT>  (1) 
10411042 1 17978791547789843287
10670039 82 18117846719098171348
11405975 8 18408036317269440498
12107183 9 18263917749144000114
12173636 292 18339636845155517238
12390115 104 18270696332395973937
12403259 118 18339912805863497202
12422481 6 17241333469342390629
12788726 201 18118955034654893883
12925494 130 18412259571000756873
13617811 41 17978215386236431263
14251764 75 18340495469416172601
14429114 114 18050850219574184792
14790565 3 18339928095730773625
14932702 115 18130511924191643280
15196674 1 18410292536298030606
15320467 1 17329711436410055116
17834072 32 18411138004551742158
17844677 252 18338242656174769378
20691028 202 18341613685864256769
20715895 44 18267582407828530081
21033648 144 18334283262825463924
21065198 57 18410573989964006722
21236236 1 18412823578243899119
23227448 37 18410855490203508702
23559900 14 18200594696920552646
245318 6 17969522526595028796
249057 3 18339360752389746782
283562 15 18336540633987938475
2838139 119 18338229350328786573
335352 9 18267303136766472766
350125 39 18339645641965203993
4144715 1 18336835285987337666
474 4 18196649601717503483
5104073 3 18260823826301992370
550186 72 18409449207249769125
6371009 1 18123452900426882353
7808743 9 18410854386454974825

>  <PUBCHEM_SHAPE_MULTIPOLES>  (1) 
512.3
14.06
4.94
0.81
5.76
0.49
0
-13.48
-0.36
-2.09
0.07
-0.01
-0.41
-0.21

>  <PUBCHEM_SHAPE_SELFOVERLAP>  (1) 
1102.066

>  <PUBCHEM_SHAPE_VOLUME>  (1) 
282.8

>  <PUBCHEM_COORDINATE_TYPE>  (1) 
2
5
10

$$$$
