16863
     RDKit          3D

 18 19  0  0  0  0  0  0  0  0999 V2000
    2.2897   -2.7718   -0.0005 F   0  0  0  0  0  0  0  0  0  0  0  0
    5.2881    0.6786    0.0001 F   0  0  0  0  0  0  0  0  0  0  0  0
    0.7767    1.5710    0.0002 O   0  0  0  0  0  0  0  0  0  0  0  0
   -4.9799   -0.6761    1.0971 O   0  0  0  0  0  0  0  0  0  0  0  0
   -4.9794   -0.6735   -1.0981 O   0  0  0  0  0  0  0  0  0  0  0  0
   -4.4132   -0.4538   -0.0002 N   0  0  0  0  0  0  0  0  0  0  0  0
    3.0570    1.1790    0.0002 N   0  0  0  0  0  0  0  0  0  0  0  0
    1.4830   -0.6323   -0.0001 N   0  0  0  0  0  0  0  0  0  0  0  0
    3.8384   -1.0897   -0.0005 N   0  0  0  0  0  0  0  0  0  0  0  0
   -0.4914    1.0764    0.0000 C   0  0  0  0  0  0  0  0  0  0  0  0
   -3.0905    0.0630    0.0007 C   0  0  0  0  0  0  0  0  0  0  0  0
   -1.1409    0.8227    1.2081 C   0  0  0  0  0  0  0  0  0  0  0  0
   -1.1416    0.8234   -1.2080 C   0  0  0  0  0  0  0  0  0  0  0  0
   -2.4404    0.3159    1.2085 C   0  0  0  0  0  0  0  0  0  0  0  0
   -2.4412    0.3166   -1.2075 C   0  0  0  0  0  0  0  0  0  0  0  0
    1.8220    0.6626    0.0002 C   0  0  0  0  0  0  0  0  0  0  0  0
    2.5458   -1.4530   -0.0003 C   0  0  0  0  0  0  0  0  0  0  0  0
    4.0178    0.2410    0.0000 C   0  0  0  0  0  0  0  0  0  0  0  0
  1 17  1  0
  2 18  1  0
  3 10  1  0
  3 16  1  0
  4  6  1  0
  5  6  2  0
  6 11  1  0
  7 16  2  0
  7 18  1  0
  8 16  1  0
  8 17  2  0
  9 17  1  0
  9 18  2  0
 10 12  2  0
 10 13  1  0
 11 14  2  0
 11 15  1  0
 12 14  1  0
 13 15  2  0
M  CHG  2   4  -1   6   1
M  END
>  <PUBCHEM_COMPOUND_CID>  (1) 
16863

>  <PUBCHEM_CONFORMER_RMSD>  (1) 
0.6

>  <PUBCHEM_CONFORMER_DIVERSEORDER>  (1) 
1
6
3
2
5
4

>  <PUBCHEM_MMFF94_PARTIAL_CHARGES>  (1) 
22
1 -0.19
10 0.08
11 0.13
12 -0.15
13 -0.15
14 -0.15
15 -0.15
16 0.7
17 0.81
18 0.81
19 0.15
2 -0.19
20 0.15
21 0.15
22 0.15
3 -0.17
4 -0.52
5 -0.52
6 0.91
7 -0.62
8 -0.62
9 -0.62

>  <PUBCHEM_EFFECTIVE_ROTOR_COUNT>  (1) 
3

>  <PUBCHEM_PHARMACOPHORE_FEATURES>  (1) 
8
1 4 acceptor
1 4 anion
1 5 acceptor
3 7 8 16 cation
3 7 9 18 cation
3 8 9 17 cation
6 10 11 12 13 14 15 rings
6 7 8 9 16 17 18 rings

>  <PUBCHEM_HEAVY_ATOM_COUNT>  (1) 
18

>  <PUBCHEM_ATOM_DEF_STEREO_COUNT>  (1) 
0

>  <PUBCHEM_ATOM_UDEF_STEREO_COUNT>  (1) 
0

>  <PUBCHEM_BOND_DEF_STEREO_COUNT>  (1) 
0

>  <PUBCHEM_BOND_UDEF_STEREO_COUNT>  (1) 
0

>  <PUBCHEM_ISOTOPIC_ATOM_COUNT>  (1) 
0

>  <PUBCHEM_COMPONENT_COUNT>  (1) 
1

>  <PUBCHEM_CACTVS_TAUTO_COUNT>  (1) 
1

>  <PUBCHEM_CONFORMER_ID>  (1) 
000041DF00000001

>  <PUBCHEM_MMFF94_ENERGY>  (1) 
52.2086

>  <PUBCHEM_FEATURE_SELFOVERLAP>  (1) 
43.464

>  <PUBCHEM_SHAPE_FINGERPRINT>  (1) 
12236239 1 17704075109544315040
12251169 10 15410892976745541305
12507557 5 9007052474265319564
12596602 18 17131833213511129827
13922767 16 9655574115231676148
14251717 144 18410293618513783674
14386348 63 17894634759593374155
15295992 7 10519692410628669886
15375358 24 17676488345470324944
15375462 189 17989200443204730048
192875 21 12324243853898553366
19422 9 17917436363184737282
19433438 38 18040427772332698780
200 152 18412824685664719649
20279233 1 17603309241150942560
20374829 77 17458339758584388985
20645477 70 18260830401406110034
20871999 31 16877938309257082933
21119208 17 12684808918018685833
212847 35 10879992475905163762
21618674 57 12751245787483315790
22485316 2 18411698764420060645
23402539 116 15792004601842817167
23557571 272 17240194413502372604
23559900 14 16008750238706415684
26918003 58 18411701002156005377
2871803 45 18260828168139316482
33824 294 18407760326839177730
474 4 17700962495553930888
474229 33 18335421296679516322
4990 188 17240480325686422185
5104073 3 18338794499237054656
83771 10 18342172258886618249
9709674 26 18188215307733703146

>  <PUBCHEM_SHAPE_MULTIPOLES>  (1) 
318.35
9.76
1.56
1.05
1.09
0.82
0
2.42
0
-1.39
0
1.22
-0.12
0

>  <PUBCHEM_SHAPE_SELFOVERLAP>  (1) 
691.906

>  <PUBCHEM_SHAPE_VOLUME>  (1) 
172

>  <PUBCHEM_COORDINATE_TYPE>  (1) 
2
5
10

$$$$
