16874
     RDKit          3D

 18 18  0  0  0  0  0  0  0  0999 V2000
    0.0340    1.7671   -0.6253 O   0  0  0  0  0  0  0  0  0  0  0  0
   -0.0589   -3.6511    0.3994 O   0  0  0  0  0  0  0  0  0  0  0  0
   -2.4997    0.4966   -0.3978 C   0  0  0  0  0  0  0  0  0  0  0  0
    2.5227    0.4187   -0.3564 C   0  0  0  0  0  0  0  0  0  0  0  0
   -1.1683   -0.2624   -0.2477 C   0  0  0  0  0  0  0  0  0  0  0  0
    1.2071   -0.2769   -0.2318 C   0  0  0  0  0  0  0  0  0  0  0  0
   -2.6445    1.6058    0.6894 C   0  0  0  0  0  0  0  0  0  0  0  0
    2.6978    1.5890    0.6866 C   0  0  0  0  0  0  0  0  0  0  0  0
    0.0110    0.4270   -0.3717 C   0  0  0  0  0  0  0  0  0  0  0  0
   -3.6606   -0.5127   -0.2120 C   0  0  0  0  0  0  0  0  0  0  0  0
   -2.6998    1.1371   -1.7926 C   0  0  0  0  0  0  0  0  0  0  0  0
    3.7839   -0.5021   -0.2246 C   0  0  0  0  0  0  0  0  0  0  0  0
    2.6526    1.0667   -1.7746 C   0  0  0  0  0  0  0  0  0  0  0  0
   -1.2320   -1.6098    0.0074 C   0  0  0  0  0  0  0  0  0  0  0  0
    1.1836   -1.6473    0.0277 C   0  0  0  0  0  0  0  0  0  0  0  0
   -0.0360   -2.3137    0.1474 C   0  0  0  0  0  0  0  0  0  0  0  0
   -2.6579    1.1064    2.1312 C   0  0  0  0  0  0  0  0  0  0  0  0
    2.5650    1.1616    2.1455 C   0  0  0  0  0  0  0  0  0  0  0  0
  1  9  1  0
  2 16  1  0
  3  5  1  0
  3  7  1  0
  3 10  1  0
  3 11  1  0
  4  6  1  0
  4  8  1  0
  4 12  1  0
  4 13  1  0
  5  9  2  0
  5 14  1  0
  6  9  1  0
  6 15  2  0
  7 17  1  0
  8 18  1  0
 14 16  2  0
 15 16  1  0
M  END
>  <PUBCHEM_COMPOUND_CID>  (1) 
16874

>  <PUBCHEM_CONFORMER_RMSD>  (1) 
0.6

>  <PUBCHEM_CONFORMER_DIVERSEORDER>  (1) 
1
25
10
11
24
18
7
13
2
6
23
4
12
22
17
14
5
19
20
9
21
15
16
3
8

>  <PUBCHEM_MMFF94_PARTIAL_CHARGES>  (1) 
14
1 -0.53
14 -0.15
15 -0.15
16 0.08
2 -0.53
3 0.14
35 0.15
36 0.15
4 0.14
43 0.45
44 0.45
5 -0.14
6 -0.14
9 0.08

>  <PUBCHEM_EFFECTIVE_ROTOR_COUNT>  (1) 
4

>  <PUBCHEM_PHARMACOPHORE_FEATURES>  (1) 
7
1 1 donor
1 17 hydrophobe
1 18 hydrophobe
1 2 donor
3 3 10 11 hydrophobe
3 4 12 13 hydrophobe
6 5 6 9 14 15 16 rings

>  <PUBCHEM_HEAVY_ATOM_COUNT>  (1) 
18

>  <PUBCHEM_ATOM_DEF_STEREO_COUNT>  (1) 
0

>  <PUBCHEM_ATOM_UDEF_STEREO_COUNT>  (1) 
0

>  <PUBCHEM_BOND_DEF_STEREO_COUNT>  (1) 
0

>  <PUBCHEM_BOND_UDEF_STEREO_COUNT>  (1) 
0

>  <PUBCHEM_ISOTOPIC_ATOM_COUNT>  (1) 
0

>  <PUBCHEM_COMPONENT_COUNT>  (1) 
1

>  <PUBCHEM_CACTVS_TAUTO_COUNT>  (1) 
4

>  <PUBCHEM_CONFORMER_ID>  (1) 
000041EA00000001

>  <PUBCHEM_MMFF94_ENERGY>  (1) 
78.7771

>  <PUBCHEM_FEATURE_SELFOVERLAP>  (1) 
35.524

>  <PUBCHEM_SHAPE_FINGERPRINT>  (1) 
11680611 10 17679287827029543010
12491281 212 17489601042688190937
12592029 89 17895182290946655267
13140716 1 18336546019064031419
13172582 1 18259984906971196604
13538477 17 17751635683473552510
13583140 156 16008742558650548661
13764800 53 18268713998513987306
14178342 30 18410288086844008361
14289901 80 14779842584298127204
14787075 74 17627211687984127169
14817 1 14650287893748783523
15209289 33 18271534100116299482
15295992 7 18059586805470150698
15309172 13 18334588935853524381
15775835 57 18129390306255982641
15852999 172 18267842021627159710
16752209 62 18117832420339834439
16945 1 18047186637717605255
18186145 218 18343864407186852596
18219364 16 18262244317709471329
19049666 15 18059299876217315466
20510252 161 18125157383904488467
21041028 32 17334510306300553738
21524375 3 18411984649985799751
21947302 44 17774152530612086312
23236772 104 17989209226977411329
2334 1 18408041835669321959
23419403 2 16397972084565465279
23493267 7 16951132755099497372
23557571 272 17769095983925581198
23559900 14 18271241742003905076
25 1 18200604596397442638
2748010 2 18335141981428095847
3071541 236 18118668044707715234
3286 77 18060134336633384036
350125 39 18408892840505181995
458136 41 18191895364577778407
5845 1 17264979870861427615
633830 44 18131349700327472229
7364860 26 18125436402081057263
74978 22 18337114591498680828
7832392 63 17058664962094140785
81228 2 17976540829489570114
84936 182 18127113183426052401

>  <PUBCHEM_SHAPE_MULTIPOLES>  (1) 
358.69
5.67
2.55
1.61
0.2
2.27
-0.34
-2.16
0
-0.05
-0.63
-0.04
-1.04
0.04

>  <PUBCHEM_SHAPE_SELFOVERLAP>  (1) 
735.787

>  <PUBCHEM_SHAPE_VOLUME>  (1) 
209.9

>  <PUBCHEM_COORDINATE_TYPE>  (1) 
2
5
10

$$$$
