16880
     RDKit          3D

 20 20  0  0  0  0  0  0  0  0999 V2000
    1.3430    0.4224    0.1828 O   0  0  0  0  0  0  0  0  0  0  0  0
   -4.8516    0.1261   -0.5886 O   0  0  0  0  0  0  0  0  0  0  0  0
    0.9055    2.6552    0.5328 O   0  0  0  0  0  0  0  0  0  0  0  0
    4.9068   -0.4890    0.4151 N   0  0  0  0  0  0  0  0  0  0  0  0
    3.4678   -0.6749    0.2326 C   0  0  0  0  0  0  0  0  0  0  0  0
    5.5471   -1.7586    0.7571 C   0  0  0  0  0  0  0  0  0  0  0  0
    5.5063    0.0767   -0.7929 C   0  0  0  0  0  0  0  0  0  0  0  0
    2.7322    0.6469    0.3844 C   0  0  0  0  0  0  0  0  0  0  0  0
    5.3924   -2.7712   -0.3649 C   0  0  0  0  0  0  0  0  0  0  0  0
    6.9912    0.3340   -0.6002 C   0  0  0  0  0  0  0  0  0  0  0  0
   -0.8812    1.1500    0.0564 C   0  0  0  0  0  0  0  0  0  0  0  0
    0.5391    1.5167    0.2858 C   0  0  0  0  0  0  0  0  0  0  0  0
   -3.5499    0.4616   -0.3758 C   0  0  0  0  0  0  0  0  0  0  0  0
   -5.2500   -1.1942   -0.2231 C   0  0  0  0  0  0  0  0  0  0  0  0
   -6.7218   -1.1755    0.1602 C   0  0  0  0  0  0  0  0  0  0  0  0
   -1.8729    2.1290    0.1186 C   0  0  0  0  0  0  0  0  0  0  0  0
   -1.2240   -0.1732   -0.2218 C   0  0  0  0  0  0  0  0  0  0  0  0
   -3.2072    1.7849   -0.0976 C   0  0  0  0  0  0  0  0  0  0  0  0
   -2.5583   -0.5174   -0.4379 C   0  0  0  0  0  0  0  0  0  0  0  0
   -7.2145   -2.5495    0.5770 C   0  0  0  0  0  0  0  0  0  0  0  0
  1  8  1  0
  1 12  1  0
  2 13  1  0
  2 14  1  0
  3 12  2  0
  4  5  1  0
  4  6  1  0
  4  7  1  0
  5  8  1  0
  6  9  1  0
  7 10  1  0
 11 12  1  0
 11 16  2  0
 11 17  1  0
 13 18  2  0
 13 19  1  0
 14 15  1  0
 15 20  1  0
 16 18  1  0
 17 19  2  0
M  END
>  <PUBCHEM_COMPOUND_CID>  (1) 
16880

>  <PUBCHEM_CONFORMER_RMSD>  (1) 
1

>  <PUBCHEM_CONFORMER_DIVERSEORDER>  (1) 
1
19
29
12
9
27
18
8
3
40
10
33
34
36
7
4
13
14
35
26
25
32
16
30
22
11
5
39
20
28
38
31
6
2
23
24
15
41
37
21
17

>  <PUBCHEM_MMFF94_PARTIAL_CHARGES>  (1) 
20
1 -0.43
11 0.09
12 0.63
13 0.08
14 0.28
16 -0.15
17 -0.15
18 -0.15
19 -0.15
2 -0.36
3 -0.57
39 0.15
4 -0.81
40 0.15
41 0.15
42 0.15
5 0.27
6 0.27
7 0.27
8 0.28

>  <PUBCHEM_EFFECTIVE_ROTOR_COUNT>  (1) 
10

>  <PUBCHEM_PHARMACOPHORE_FEATURES>  (1) 
5
1 2 acceptor
1 20 hydrophobe
1 3 acceptor
1 4 cation
6 11 13 16 17 18 19 rings

>  <PUBCHEM_HEAVY_ATOM_COUNT>  (1) 
20

>  <PUBCHEM_ATOM_DEF_STEREO_COUNT>  (1) 
0

>  <PUBCHEM_ATOM_UDEF_STEREO_COUNT>  (1) 
0

>  <PUBCHEM_BOND_DEF_STEREO_COUNT>  (1) 
0

>  <PUBCHEM_BOND_UDEF_STEREO_COUNT>  (1) 
0

>  <PUBCHEM_ISOTOPIC_ATOM_COUNT>  (1) 
0

>  <PUBCHEM_COMPONENT_COUNT>  (1) 
1

>  <PUBCHEM_CACTVS_TAUTO_COUNT>  (1) 
1

>  <PUBCHEM_CONFORMER_ID>  (1) 
000041F000000001

>  <PUBCHEM_MMFF94_ENERGY>  (1) 
46.1426

>  <PUBCHEM_FEATURE_SELFOVERLAP>  (1) 
25.371

>  <PUBCHEM_SHAPE_FINGERPRINT>  (1) 
10 15 11023820712994703879
10595046 47 18335141956465212036
11524674 6 16630524051212804783
12236239 1 18187082811194852748
12516196 113 18272086106656827864
12760667 363 18411419531875415923
12778500 126 11671791442674434678
13073987 5 18272086076602742880
13288520 33 18412543206820472037
13533116 47 18341610477059027552
13685833 64 18413388752098511450
13740256 8 18411136961222985305
13862211 1 18342734157253612335
13955234 65 18057033838250272392
14123256 34 18412548734237562611
14178184 131 18199470055597948639
14216079 64 18412824699172354079
14350574 20 18334574676783777685
17134984 74 17385722513107292538
18335252 98 18410013256303049746
19784866 240 18408888443017593209
21049683 271 18337676429167147756
21150785 3 16877661292250482375
21196832 93 17677624222755696963
21267235 1 18341898510376692605
21682296 61 18410576215205270683
22288116 15 12757440496756686219
22896161 15 18408886256847532572
22950370 63 18341050718682934520
2297311 6 18131637759721188620
23522609 53 18194997151679569865
23559900 14 18339068372000727633
270888 7 9511462225743587555
335352 9 18412539904465537861
351380 3 18412820283128133815
465052 167 18342740740641807631
5104073 3 18059853965389890425
59682541 35 18342164610414761864
636775 8 18336837467055160118
8863177 126 18265334096061221259
999808 66 18187655721494295835

>  <PUBCHEM_SHAPE_MULTIPOLES>  (1) 
389
19.42
2.62
0.78
0.33
0.48
0.01
15.8
0.78
-0.83
-0.37
0.33
0.07
0.32

>  <PUBCHEM_SHAPE_SELFOVERLAP>  (1) 
774.771

>  <PUBCHEM_SHAPE_VOLUME>  (1) 
232.2

>  <PUBCHEM_COORDINATE_TYPE>  (1) 
2
5
10

$$$$
