16884
     RDKit          3D

 18 19  0  0  0  0  0  0  0  0999 V2000
   -5.6165   -1.3786    0.1592 Cl  0  0  0  0  0  0  0  0  0  0  0  0
   -2.9959    3.0762   -0.4333 Cl  0  0  0  0  0  0  0  0  0  0  0  0
    5.5650   -0.4034   -0.4695 O   0  0  0  0  0  0  0  0  0  0  0  0
    4.9996    1.5446    0.3700 O   0  0  0  0  0  0  0  0  0  0  0  0
   -0.6699   -1.2501    0.1653 N   0  0  0  0  0  0  0  0  0  0  0  0
    4.7011    0.3929   -0.0286 N   0  0  0  0  0  0  0  0  0  0  0  0
   -1.8059    0.7819   -0.1159 N   0  0  0  0  0  0  0  0  0  0  0  0
   -3.0146   -1.2729    0.1576 N   0  0  0  0  0  0  0  0  0  0  0  0
   -4.2054    0.7907   -0.1283 N   0  0  0  0  0  0  0  0  0  0  0  0
    0.6779   -0.8377    0.1164 C   0  0  0  0  0  0  0  0  0  0  0  0
    1.6555   -1.7056   -0.3699 C   0  0  0  0  0  0  0  0  0  0  0  0
    1.0332    0.4380    0.5547 C   0  0  0  0  0  0  0  0  0  0  0  0
    3.3441   -0.0221    0.0203 C   0  0  0  0  0  0  0  0  0  0  0  0
    2.9885   -1.2978   -0.4179 C   0  0  0  0  0  0  0  0  0  0  0  0
    2.3663    0.8459    0.5067 C   0  0  0  0  0  0  0  0  0  0  0  0
   -1.8865   -0.5477    0.0643 C   0  0  0  0  0  0  0  0  0  0  0  0
   -4.1335   -0.5379    0.0523 C   0  0  0  0  0  0  0  0  0  0  0  0
   -3.0030    1.3838   -0.2033 C   0  0  0  0  0  0  0  0  0  0  0  0
  1 17  1  0
  2 18  1  0
  3  6  1  0
  4  6  2  0
  5 10  1  0
  5 16  1  0
  6 13  1  0
  7 16  2  0
  7 18  1  0
  8 16  1  0
  8 17  2  0
  9 17  1  0
  9 18  2  0
 10 11  2  0
 10 12  1  0
 11 14  1  0
 12 15  2  0
 13 14  2  0
 13 15  1  0
M  CHG  2   3  -1   6   1
M  END
>  <PUBCHEM_COMPOUND_CID>  (1) 
16884

>  <PUBCHEM_CONFORMER_RMSD>  (1) 
0.6

>  <PUBCHEM_CONFORMER_DIVERSEORDER>  (1) 
1
5
2
3
4

>  <PUBCHEM_MMFF94_PARTIAL_CHARGES>  (1) 
23
1 -0.18
10 0.1
11 -0.15
12 -0.15
13 0.13
14 -0.15
15 -0.15
16 0.72
17 0.8
18 0.8
19 0.15
2 -0.18
20 0.15
21 0.4
22 0.15
23 0.15
3 -0.52
4 -0.52
5 -0.6
6 0.91
7 -0.62
8 -0.62
9 -0.62

>  <PUBCHEM_EFFECTIVE_ROTOR_COUNT>  (1) 
3

>  <PUBCHEM_PHARMACOPHORE_FEATURES>  (1) 
7
1 3 acceptor
1 3 anion
1 4 acceptor
1 5 donor
4 5 7 8 16 cation
6 10 11 12 13 14 15 rings
6 7 8 9 16 17 18 rings

>  <PUBCHEM_HEAVY_ATOM_COUNT>  (1) 
18

>  <PUBCHEM_ATOM_DEF_STEREO_COUNT>  (1) 
0

>  <PUBCHEM_ATOM_UDEF_STEREO_COUNT>  (1) 
0

>  <PUBCHEM_BOND_DEF_STEREO_COUNT>  (1) 
0

>  <PUBCHEM_BOND_UDEF_STEREO_COUNT>  (1) 
0

>  <PUBCHEM_ISOTOPIC_ATOM_COUNT>  (1) 
0

>  <PUBCHEM_COMPONENT_COUNT>  (1) 
1

>  <PUBCHEM_CACTVS_TAUTO_COUNT>  (1) 
3

>  <PUBCHEM_CONFORMER_ID>  (1) 
000041F400000001

>  <PUBCHEM_MMFF94_ENERGY>  (1) 
55.3469

>  <PUBCHEM_FEATURE_SELFOVERLAP>  (1) 
35.602

>  <PUBCHEM_SHAPE_FINGERPRINT>  (1) 
10366900 7 18333730247437288211
10498660 4 18189047608219396829
10608611 8 18339638949778636545
10670039 82 18187661188950662876
11045977 3 7781512607890363158
12107183 9 17539959581520473938
12236239 1 16805318903115523027
12403259 415 18130781278870442304
12596602 18 16805601520727790008
12616971 3 14189569741625873480
12916748 109 18408042935507562072
13081056 2 18341894112646608168
13533116 47 17313372409994486586
14251764 18 18040712568316213338
15196674 1 18411136892155199497
17802600 8 18411697707694685969
18186145 218 18201165329884105514
200 152 17704072902020730875
20510252 161 18411982425888559641
20645477 56 18335986350982497669
20645477 70 17703800171893185198
21267235 1 18411427227739417891
21279426 13 18197220248584693958
21652331 79 18411135853084376205
221357 26 18272367568458486121
22182937 141 18126289645291327977
2297311 6 18411145744467944541
23402539 116 18261668259626931415
23402655 69 18201997686087907125
23557571 272 18412551993732501757
23559900 14 17982164522676547718
245318 6 16736943741635322044
3545911 37 18411984662891495150
4028521 119 18261384504333569717
4214541 1 18410856516743123977
474 4 16878798243467159996
5104073 3 18337953385367881891
5281201 14 18272097063023136302
77779 3 18411419470959747175
9709674 26 18410862040219149487

>  <PUBCHEM_SHAPE_MULTIPOLES>  (1) 
337.53
11.76
2.19
0.68
3.02
1.43
0
0.14
-0.36
-2
-0.26
0.09
0.03
0.86

>  <PUBCHEM_SHAPE_SELFOVERLAP>  (1) 
706.308

>  <PUBCHEM_SHAPE_VOLUME>  (1) 
191.6

>  <PUBCHEM_COORDINATE_TYPE>  (1) 
2
5
10

$$$$
