16882
     RDKit          3D

 21 21  0  0  0  0  0  0  0  0999 V2000
   -2.2897   -0.9227    0.3992 O   0  0  0  0  0  0  0  0  0  0  0  0
    3.6631    0.8723   -0.2312 O   0  0  0  0  0  0  0  0  0  0  0  0
   -1.4581   -2.9604   -0.2755 O   0  0  0  0  0  0  0  0  0  0  0  0
   -4.5679    0.7157    0.0103 N   0  0  0  0  0  0  0  0  0  0  0  0
   -4.5644   -0.3935    0.9525 C   0  0  0  0  0  0  0  0  0  0  0  0
   -5.3918    0.3998   -1.1591 C   0  0  0  0  0  0  0  0  0  0  0  0
   -5.0514    1.9401    0.6532 C   0  0  0  0  0  0  0  0  0  0  0  0
   -3.6043   -1.4811    0.4975 C   0  0  0  0  0  0  0  0  0  0  0  0
   -5.3476    1.5229   -2.1813 C   0  0  0  0  0  0  0  0  0  0  0  0
   -4.2121    2.2893    1.8704 C   0  0  0  0  0  0  0  0  0  0  0  0
    6.0497    0.9795   -0.0708 C   0  0  0  0  0  0  0  0  0  0  0  0
    7.3354    0.1944    0.1731 C   0  0  0  0  0  0  0  0  0  0  0  0
    4.8202    0.0868    0.0194 C   0  0  0  0  0  0  0  0  0  0  0  0
   -0.0061   -1.0816   -0.0592 C   0  0  0  0  0  0  0  0  0  0  0  0
   -1.2884   -1.7651   -0.0004 C   0  0  0  0  0  0  0  0  0  0  0  0
    2.4541    0.2287   -0.1731 C   0  0  0  0  0  0  0  0  0  0  0  0
    8.5632    1.0808    0.0396 C   0  0  0  0  0  0  0  0  0  0  0  0
    1.1726   -1.7890    0.1780 C   0  0  0  0  0  0  0  0  0  0  0  0
    0.0455    0.2809   -0.3534 C   0  0  0  0  0  0  0  0  0  0  0  0
    2.4026   -1.1338    0.1210 C   0  0  0  0  0  0  0  0  0  0  0  0
    1.2755    0.9362   -0.4103 C   0  0  0  0  0  0  0  0  0  0  0  0
  1  8  1  0
  1 15  1  0
  2 13  1  0
  2 16  1  0
  3 15  2  0
  4  5  1  0
  4  6  1  0
  4  7  1  0
  5  8  1  0
  6  9  1  0
  7 10  1  0
 11 12  1  0
 11 13  1  0
 12 17  1  0
 14 15  1  0
 14 18  2  0
 14 19  1  0
 16 20  2  0
 16 21  1  0
 18 20  1  0
 19 21  2  0
M  END
>  <PUBCHEM_COMPOUND_CID>  (1) 
16882

>  <PUBCHEM_CONFORMER_RMSD>  (1) 
1

>  <PUBCHEM_CONFORMER_DIVERSEORDER>  (1) 
6
8
24
27
2
60
23
40
11
7
70
52
61
69
29
55
31
63
21
51
30
32
46
19
62
41
14
39
65
43
71
56
42
18
34
9
33
10
26
50
45
17
20
36
35
3
68
48
49
5
67
16
25
59
57
53
38
22
58
4
47
13
64
37
66
28
12
15
54
44
1

>  <PUBCHEM_MMFF94_PARTIAL_CHARGES>  (1) 
20
1 -0.43
13 0.28
14 0.09
15 0.63
16 0.08
18 -0.15
19 -0.15
2 -0.36
20 -0.15
21 -0.15
3 -0.57
4 -0.81
45 0.15
46 0.15
47 0.15
48 0.15
5 0.27
6 0.27
7 0.27
8 0.28

>  <PUBCHEM_EFFECTIVE_ROTOR_COUNT>  (1) 
11

>  <PUBCHEM_PHARMACOPHORE_FEATURES>  (1) 
5
1 17 hydrophobe
1 2 acceptor
1 3 acceptor
1 4 cation
6 14 16 18 19 20 21 rings

>  <PUBCHEM_HEAVY_ATOM_COUNT>  (1) 
21

>  <PUBCHEM_ATOM_DEF_STEREO_COUNT>  (1) 
0

>  <PUBCHEM_ATOM_UDEF_STEREO_COUNT>  (1) 
0

>  <PUBCHEM_BOND_DEF_STEREO_COUNT>  (1) 
0

>  <PUBCHEM_BOND_UDEF_STEREO_COUNT>  (1) 
0

>  <PUBCHEM_ISOTOPIC_ATOM_COUNT>  (1) 
0

>  <PUBCHEM_COMPONENT_COUNT>  (1) 
1

>  <PUBCHEM_CACTVS_TAUTO_COUNT>  (1) 
1

>  <PUBCHEM_CONFORMER_ID>  (1) 
000041F200000006

>  <PUBCHEM_MMFF94_ENERGY>  (1) 
46.4981

>  <PUBCHEM_FEATURE_SELFOVERLAP>  (1) 
25.371

>  <PUBCHEM_SHAPE_FINGERPRINT>  (1) 
10906281 52 18114479937194902846
11089746 13 17988639714150489824
11315181 36 18410013264296956921
11973863 73 17023447678825869864
12091667 2 18342459278639831730
12104220 1 18412824664385789580
13103583 49 12901555598690608839
13740256 8 8286196132677734955
14251764 18 18187365445311690451
14251764 75 17266960740724914401
14729087 3 18411979183256939624
14856354 85 15719682029766479386
15021287 119 17095244752262514356
17093844 174 18334855069423318882
17780758 139 13118001089689704509
18927931 339 9007061262253677891
195137 175 18260555563214623428
20281389 69 18334858359352579560
21033648 144 18334574591169255735
21150785 3 15410892981467555596
21304253 13 18410013282421539404
22288116 15 16845285089949169829
23402539 116 18059856190003087750
23559900 14 17988360472873070202
2838139 119 17917712413607697568
4169191 19 18411703184258042764
445580 167 10591751092242941586
4463277 17 18261111911602265612
4938544 92 13551459338199345431
5104073 3 18260556584530591035
54039377 194 10231747912185946185
59755656 215 18342182142339602774
6328613 192 18411138030954522970
633830 44 18057051212025434775
7226269 152 18342459253033506696
999808 66 8718833106500227432

>  <PUBCHEM_SHAPE_MULTIPOLES>  (1) 
409.58
19.13
2.29
1.19
31.01
0.68
0.2
-12.07
0.61
-2.59
-0.34
-2.74
-0.77
-0.1

>  <PUBCHEM_SHAPE_SELFOVERLAP>  (1) 
812.016

>  <PUBCHEM_SHAPE_VOLUME>  (1) 
245.6

>  <PUBCHEM_COORDINATE_TYPE>  (1) 
2
5
10

$$$$
