16885
     RDKit          3D

 27 29  0  0  0  0  0  0  0  0999 V2000
   -6.4174    0.0170    0.0025 Cl  0  0  0  0  0  0  0  0  0  0  0  0
    3.8194    4.6421    0.3937 O   0  0  0  0  0  0  0  0  0  0  0  0
    3.7948   -4.6613   -0.3931 O   0  0  0  0  0  0  0  0  0  0  0  0
    4.2329    2.7475   -0.6353 O   0  0  0  0  0  0  0  0  0  0  0  0
    4.2174   -2.7688    0.6360 O   0  0  0  0  0  0  0  0  0  0  0  0
   -2.0544    2.3487   -0.0789 N   0  0  0  0  0  0  0  0  0  0  0  0
   -2.0678   -2.3392    0.0782 N   0  0  0  0  0  0  0  0  0  0  0  0
   -2.0285    0.0047   -0.0004 N   0  0  0  0  0  0  0  0  0  0  0  0
   -4.1100   -1.1885    0.0398 N   0  0  0  0  0  0  0  0  0  0  0  0
   -4.1032    1.2097   -0.0406 N   0  0  0  0  0  0  0  0  0  0  0  0
    3.4327    3.5629   -0.1167 N   0  0  0  0  0  0  0  0  0  0  0  0
    3.4132   -3.5803    0.1171 N   0  0  0  0  0  0  0  0  0  0  0  0
   -0.6777    2.6541   -0.0901 C   0  0  0  0  0  0  0  0  0  0  0  0
   -0.6953   -2.6508    0.0896 C   0  0  0  0  0  0  0  0  0  0  0  0
   -0.2232    3.8463    0.4734 C   0  0  0  0  0  0  0  0  0  0  0  0
    0.2297    1.7623   -0.6618 C   0  0  0  0  0  0  0  0  0  0  0  0
   -0.2438   -3.8457   -0.4738 C   0  0  0  0  0  0  0  0  0  0  0  0
    0.2190   -1.7640    0.6617 C   0  0  0  0  0  0  0  0  0  0  0  0
    2.0465    3.2549   -0.1064 C   0  0  0  0  0  0  0  0  0  0  0  0
    2.0286   -3.2655    0.1066 C   0  0  0  0  0  0  0  0  0  0  0  0
   -2.7613    1.1310   -0.0381 C   0  0  0  0  0  0  0  0  0  0  0  0
   -2.7693   -1.1147    0.0371 C   0  0  0  0  0  0  0  0  0  0  0  0
    1.1390    4.1467    0.4653 C   0  0  0  0  0  0  0  0  0  0  0  0
    1.5918    2.0627   -0.6698 C   0  0  0  0  0  0  0  0  0  0  0  0
    1.1168   -4.1528   -0.4653 C   0  0  0  0  0  0  0  0  0  0  0  0
    1.5797   -2.0711    0.6700 C   0  0  0  0  0  0  0  0  0  0  0  0
   -4.7095    0.0123   -0.0006 C   0  0  0  0  0  0  0  0  0  0  0  0
  1 27  1  0
  2 11  1  0
  3 12  1  0
  4 11  2  0
  5 12  2  0
  6 13  1  0
  6 21  1  0
  7 14  1  0
  7 22  1  0
  8 21  2  0
  8 22  1  0
  9 22  2  0
  9 27  1  0
 10 21  1  0
 10 27  2  0
 11 19  1  0
 12 20  1  0
 13 15  2  0
 13 16  1  0
 14 17  2  0
 14 18  1  0
 15 23  1  0
 16 24  2  0
 17 25  1  0
 18 26  2  0
 19 23  2  0
 19 24  1  0
 20 25  2  0
 20 26  1  0
M  CHG  4   2  -1   3  -1  11   1  12   1
M  END
>  <PUBCHEM_COMPOUND_CID>  (1) 
16885

>  <PUBCHEM_CONFORMER_RMSD>  (1) 
0.8

>  <PUBCHEM_CONFORMER_DIVERSEORDER>  (1) 
1
23
17
7
24
14
25
13
3
21
8
15
19
28
6
18
11
4
20
26
12
10
22
27
5
2
16
9

>  <PUBCHEM_MMFF94_PARTIAL_CHARGES>  (1) 
37
1 -0.18
10 -0.62
11 0.91
12 0.91
13 0.1
14 0.1
15 -0.15
16 -0.15
17 -0.15
18 -0.15
19 0.13
2 -0.52
20 0.13
21 0.72
22 0.72
23 -0.15
24 -0.15
25 -0.15
26 -0.15
27 0.8
28 0.4
29 0.4
3 -0.52
30 0.15
31 0.15
32 0.15
33 0.15
34 0.15
35 0.15
36 0.15
37 0.15
4 -0.52
5 -0.52
6 -0.6
7 -0.6
8 -0.62
9 -0.62

>  <PUBCHEM_EFFECTIVE_ROTOR_COUNT>  (1) 
6

>  <PUBCHEM_PHARMACOPHORE_FEATURES>  (1) 
13
1 2 acceptor
1 2 anion
1 3 acceptor
1 3 anion
1 4 acceptor
1 5 acceptor
1 6 donor
1 7 donor
4 6 8 10 21 cation
4 7 8 9 22 cation
6 13 15 16 19 23 24 rings
6 14 17 18 20 25 26 rings
6 8 9 10 21 22 27 rings

>  <PUBCHEM_HEAVY_ATOM_COUNT>  (1) 
27

>  <PUBCHEM_ATOM_DEF_STEREO_COUNT>  (1) 
0

>  <PUBCHEM_ATOM_UDEF_STEREO_COUNT>  (1) 
0

>  <PUBCHEM_BOND_DEF_STEREO_COUNT>  (1) 
0

>  <PUBCHEM_BOND_UDEF_STEREO_COUNT>  (1) 
0

>  <PUBCHEM_ISOTOPIC_ATOM_COUNT>  (1) 
0

>  <PUBCHEM_COMPONENT_COUNT>  (1) 
1

>  <PUBCHEM_CACTVS_TAUTO_COUNT>  (1) 
5

>  <PUBCHEM_CONFORMER_ID>  (1) 
000041F500000001

>  <PUBCHEM_MMFF94_ENERGY>  (1) 
98.0369

>  <PUBCHEM_FEATURE_SELFOVERLAP>  (1) 
66.177

>  <PUBCHEM_SHAPE_FINGERPRINT>  (1) 
10050765 1 18410012153313995691
10411042 1 18194402187213542715
10498660 4 17326611406334977327
10670039 82 17832160333427662158
1100329 8 18338514248352149398
11014199 57 17907019474159297170
13540713 4 18113618994205366979
138480 1 18338516326984406375
14028597 1 17701285709496753115
14363568 33 18338254694619804355
14866123 147 17762618795032955074
15320467 1 18410855460729496514
15400415 2 18050567640843827945
15927050 60 18196655314177319591
15961568 22 18124313809626353126
16719943 64 18049160270286020104
167882 2 18409444804707220021
17627616 140 18337104687050940702
19611394 137 18187944862286607923
19930381 70 18410011018028716675
21344244 246 18265881623214337799
21796203 349 17545930002568461177
22440779 20 16034434572781640019
23559900 14 18337662006971928923
38695281 34 18266458900740450969
5265222 85 17829342619526401244
532947 4 18339648944394218967
5385378 56 18338243760424378993
6700243 42 17412485536281048190
9981440 41 17975976780203746155

>  <PUBCHEM_SHAPE_MULTIPOLES>  (1) 
499.17
8.75
8.34
0.73
8.52
0.13
0
-0.12
0
-12.45
0
-0.19
0
-0.19

>  <PUBCHEM_SHAPE_SELFOVERLAP>  (1) 
1076.849

>  <PUBCHEM_SHAPE_VOLUME>  (1) 
273.2

>  <PUBCHEM_COORDINATE_TYPE>  (1) 
2
5
10

$$$$
