16890
     RDKit          3D

 31 35  0  0  1  0  0  0  0  0999 V2000
   -1.4334   -0.4622   -1.2477 F   0  0  0  0  0  0  0  0  0  0  0  0
    2.9204   -0.5179   -1.1312 O   0  0  0  0  0  0  0  0  0  0  0  0
    3.5482   -2.1822    0.4054 O   0  0  0  0  0  0  0  0  0  0  0  0
   -0.9773    2.7336    0.3526 O   0  0  0  0  0  0  0  0  0  0  0  0
    4.5266    1.2667    1.3163 O   0  0  0  0  0  0  0  0  0  0  0  0
   -6.8541   -0.6403   -1.3144 O   0  0  0  0  0  0  0  0  0  0  0  0
    5.3418    2.7009   -0.8044 O   0  0  0  0  0  0  0  0  0  0  0  0
    1.4144    0.6478    0.4587 C   0  0  0  0  0  0  0  0  0  0  0  0
    0.6239   -0.6651    0.6571 C   0  0  0  0  0  0  0  0  0  0  0  0
   -0.8516   -0.4467    1.0284 C   0  0  0  0  0  0  0  0  0  0  0  0
   -1.5442    0.3487   -0.1265 C   0  0  0  0  0  0  0  0  0  0  0  0
    2.8214    0.0593    0.1685 C   0  0  0  0  0  0  0  0  0  0  0  0
   -3.0989    0.5131    0.1164 C   0  0  0  0  0  0  0  0  0  0  0  0
    0.7555    1.4150   -0.7041 C   0  0  0  0  0  0  0  0  0  0  0  0
    1.5208   -1.4867    1.5857 C   0  0  0  0  0  0  0  0  0  0  0  0
    2.9532   -1.1168    1.1408 C   0  0  0  0  0  0  0  0  0  0  0  0
   -0.7641    1.6379   -0.5223 C   0  0  0  0  0  0  0  0  0  0  0  0
   -3.6983   -0.9238    0.2955 C   0  0  0  0  0  0  0  0  0  0  0  0
   -1.5436   -1.7987    1.2733 C   0  0  0  0  0  0  0  0  0  0  0  0
   -3.0510   -1.6712    1.4663 C   0  0  0  0  0  0  0  0  0  0  0  0
    1.4868    1.5240    1.7386 C   0  0  0  0  0  0  0  0  0  0  0  0
   -3.7763    1.1366   -1.1379 C   0  0  0  0  0  0  0  0  0  0  0  0
   -3.4149    1.4034    1.3446 C   0  0  0  0  0  0  0  0  0  0  0  0
   -5.2261   -0.9437    0.4152 C   0  0  0  0  0  0  0  0  0  0  0  0
    3.9337    1.0628    0.2581 C   0  0  0  0  0  0  0  0  0  0  0  0
    3.5382   -1.7984   -0.9709 C   0  0  0  0  0  0  0  0  0  0  0  0
   -5.3007    1.1633   -1.0662 C   0  0  0  0  0  0  0  0  0  0  0  0
   -5.8588   -0.2010   -0.7387 C   0  0  0  0  0  0  0  0  0  0  0  0
    4.2761    1.7998   -1.0191 C   0  0  0  0  0  0  0  0  0  0  0  0
    2.7523   -2.8305   -1.7706 C   0  0  0  0  0  0  0  0  0  0  0  0
    4.9797   -1.7279   -1.4673 C   0  0  0  0  0  0  0  0  0  0  0  0
  1 11  1  0
  2 12  1  0
  2 26  1  0
  3 16  1  0
  3 26  1  0
  4 17  1  0
  5 25  2  0
  6 28  2  0
  7 29  1  0
  8  9  1  0
  8 12  1  0
  8 14  1  0
  8 21  1  0
  9 10  1  0
  9 15  1  0
 10 11  1  0
 10 19  1  0
 11 13  1  0
 11 17  1  0
 12 16  1  0
 12 25  1  0
 13 18  1  0
 13 22  1  0
 13 23  1  0
 14 17  1  0
 15 16  1  0
 18 20  1  0
 18 24  1  0
 19 20  1  0
 22 27  1  0
 24 28  1  0
 25 29  1  0
 26 30  1  0
 26 31  1  0
 27 28  1  0
M  END
>  <PUBCHEM_COMPOUND_CID>  (1) 
16890

>  <PUBCHEM_CONFORMER_RMSD>  (1) 
0.8

>  <PUBCHEM_CONFORMER_DIVERSEORDER>  (1) 
2
45
15
46
41
42
14
32
44
31
5
21
30
43
33
13
11
12
19
8
35
22
38
29
34
3
4
10
16
7
6
20
24
26
17
40
25
36
18
23
28
9
1
39
37
27

>  <PUBCHEM_MMFF94_PARTIAL_CHARGES>  (1) 
19
1 -0.34
11 0.34
12 0.34
16 0.28
17 0.28
2 -0.56
24 0.06
25 0.45
26 0.56
27 0.06
28 0.45
29 0.34
3 -0.56
4 -0.68
5 -0.57
57 0.4
6 -0.57
66 0.4
7 -0.68

>  <PUBCHEM_EFFECTIVE_ROTOR_COUNT>  (1) 
4.2

>  <PUBCHEM_PHARMACOPHORE_FEATURES>  (1) 
14
1 2 acceptor
1 3 acceptor
1 4 acceptor
1 4 donor
1 5 acceptor
1 6 acceptor
1 7 acceptor
1 7 donor
3 26 30 31 hydrophobe
5 2 3 12 16 26 rings
5 8 9 12 15 16 rings
6 10 11 13 18 19 20 rings
6 13 18 22 24 27 28 rings
6 8 9 10 11 14 17 rings

>  <PUBCHEM_HEAVY_ATOM_COUNT>  (1) 
31

>  <PUBCHEM_ATOM_DEF_STEREO_COUNT>  (1) 
5

>  <PUBCHEM_ATOM_UDEF_STEREO_COUNT>  (1) 
4

>  <PUBCHEM_BOND_DEF_STEREO_COUNT>  (1) 
0

>  <PUBCHEM_BOND_UDEF_STEREO_COUNT>  (1) 
0

>  <PUBCHEM_ISOTOPIC_ATOM_COUNT>  (1) 
0

>  <PUBCHEM_COMPONENT_COUNT>  (1) 
1

>  <PUBCHEM_CACTVS_TAUTO_COUNT>  (1) 
9

>  <PUBCHEM_CONFORMER_ID>  (1) 
000041FA00000002

>  <PUBCHEM_MMFF94_ENERGY>  (1) 
113.2948

>  <PUBCHEM_FEATURE_SELFOVERLAP>  (1) 
71.803

>  <PUBCHEM_SHAPE_FINGERPRINT>  (1) 
10369192 42 18044380663376157404
10498660 4 18040437685053849393
10906281 52 18115321097274923008
12011746 2 18259984856075251575
12107698 1 18338234856593034478
12236239 1 18343860005694609185
12596602 18 15267052623405852027
12788726 201 18341890758341006225
13150687 139 18129393751801118380
13224815 77 18260270737165856938
13533116 47 17989486316702926279
13583140 156 17774437329983083083
13782708 43 16056585583257767863
13911987 19 17984999330225802368
14790565 3 17899410884251254997
15081414 286 18336840769858520001
15183329 4 18113894915362057309
15196674 1 18186235122062981347
15238133 3 14707202206368980909
15324884 4 17908442586298889136
15664445 248 17967257515815147876
15788980 27 16128369338301416267
15961568 22 17894915169788208332
16752209 62 17896314719177426793
17349148 13 15052014572109853783
17844677 252 18261110725738092229
18608769 82 17822857619274452819
20645477 70 18272651221094450782
20691752 17 17603875442405461792
21033650 10 17386291956755878861
21279426 13 18263357015467212021
21285901 2 18408601435674600005
22149856 69 18272099301228787323
22182313 1 18042987508385100122
22393880 68 18189609454640048869
23522609 53 17488209104381733129
23557571 272 18187937226218798474
23559900 14 18408046191303775428
23569914 152 17332504793424213055
239999 70 18408040693740595734
24771750 20 17684661213517602805
3004659 81 18113615660224224330
34797466 226 18408324393578664885
34934 24 18187922936387876922
3886686 26 12890900106277060615
46194498 28 18340489976458404262
5104073 3 18342740672011956825
5283173 99 18187641358749085461
59755656 215 18334858312461204772
633830 44 18338238146311019273
70251023 43 18058176029416012838
9709674 26 18408890637297365274

>  <PUBCHEM_SHAPE_MULTIPOLES>  (1) 
595.48
12.44
2.62
1.65
8.81
0.11
-0.04
-0.1
4.78
-2.63
0.3
-0.35
-0.41
1.08

>  <PUBCHEM_SHAPE_SELFOVERLAP>  (1) 
1293.585

>  <PUBCHEM_SHAPE_VOLUME>  (1) 
326.9

>  <PUBCHEM_COORDINATE_TYPE>  (1) 
2
5
10

$$$$
