16906
     RDKit          3D

 12 13  0  0  0  0  0  0  0  0999 V2000
   -2.6640    1.6132    0.0736 O   0  0  0  0  0  0  0  0  0  0  0  0
   -0.3356    1.7372   -0.0925 N   0  0  0  0  0  0  0  0  0  0  0  0
   -2.0008   -1.3819    0.3959 N   0  0  0  0  0  0  0  0  0  0  0  0
   -2.3769   -1.8940   -0.6853 N   0  0  0  0  0  0  0  0  0  0  0  0
    0.2867   -0.3940    0.1264 C   0  0  0  0  0  0  0  0  0  0  0  0
    0.7613    0.9058   -0.0624 C   0  0  0  0  0  0  0  0  0  0  0  0
   -1.1316   -0.3129    0.2083 C   0  0  0  0  0  0  0  0  0  0  0  0
   -1.4841    1.0098    0.0702 C   0  0  0  0  0  0  0  0  0  0  0  0
    1.2153   -1.4516    0.1950 C   0  0  0  0  0  0  0  0  0  0  0  0
    2.1233    1.2020   -0.1866 C   0  0  0  0  0  0  0  0  0  0  0  0
    2.5807   -1.1703    0.0726 C   0  0  0  0  0  0  0  0  0  0  0  0
    3.0256    0.1368   -0.1153 C   0  0  0  0  0  0  0  0  0  0  0  0
  1  8  1  0
  2  6  1  0
  2  8  1  0
  3  4  2  0
  3  7  1  0
  5  6  2  0
  5  7  1  0
  5  9  1  0
  6 10  1  0
  7  8  2  0
  9 11  2  0
 10 12  2  0
 11 12  1  0
M  END
>  <PUBCHEM_COMPOUND_CID>  (1) 
16906

>  <PUBCHEM_CONFORMER_RMSD>  (1) 
0.4

>  <PUBCHEM_CONFORMER_DIVERSEORDER>  (1) 
2
1
3

>  <PUBCHEM_MMFF94_PARTIAL_CHARGES>  (1) 
18
1 -0.51
10 -0.15
11 -0.15
12 -0.15
13 0.27
14 0.15
15 0.15
16 0.15
17 0.15
18 0.45
19 0.4
2 0.03
3 -0.12
4 -0.4
6 -0.15
7 0.12
8 -0.09
9 -0.15

>  <PUBCHEM_EFFECTIVE_ROTOR_COUNT>  (1) 
1

>  <PUBCHEM_PHARMACOPHORE_FEATURES>  (1) 
5
1 1 donor
1 2 cation
1 2 donor
5 2 5 6 7 8 rings
6 5 6 9 10 11 12 rings

>  <PUBCHEM_HEAVY_ATOM_COUNT>  (1) 
12

>  <PUBCHEM_ATOM_DEF_STEREO_COUNT>  (1) 
0

>  <PUBCHEM_ATOM_UDEF_STEREO_COUNT>  (1) 
0

>  <PUBCHEM_BOND_DEF_STEREO_COUNT>  (1) 
0

>  <PUBCHEM_BOND_UDEF_STEREO_COUNT>  (1) 
0

>  <PUBCHEM_ISOTOPIC_ATOM_COUNT>  (1) 
0

>  <PUBCHEM_COMPONENT_COUNT>  (1) 
1

>  <PUBCHEM_CACTVS_TAUTO_COUNT>  (1) 
3

>  <PUBCHEM_CONFORMER_ID>  (1) 
0000420A00000002

>  <PUBCHEM_MMFF94_ENERGY>  (1) 
20.5152

>  <PUBCHEM_FEATURE_SELFOVERLAP>  (1) 
25.506

>  <PUBCHEM_SHAPE_FINGERPRINT>  (1) 
11206711 2 18335987570309760708
12423570 1 17968100759418172364
12524768 44 18194689163515384222
12897270 3 18337389456262169030
13380535 21 18338814320247094896
13380535 76 18339638915265962871
14128692 85 18341335594972848758
14325111 11 18409732876437432960
16945 1 18266177223594387056
20871998 184 18272374161354592007
21040471 1 18265896843707814328
21501502 16 18408885135544407800
2334 1 18337393837228901264
23552423 10 18260552238070620166
23559900 14 18270686364673782838
241688 4 18408040719083099304
2748010 2 18410293631398640140
369184 2 18334577897713714224
5084963 1 18200601413879345978
528886 8 18337388249518679816

>  <PUBCHEM_SHAPE_MULTIPOLES>  (1) 
226.14
4.05
1.98
0.65
0.42
0.14
0.01
0.37
0.2
-0.81
0.12
-0.04
0.08
-0.27

>  <PUBCHEM_SHAPE_SELFOVERLAP>  (1) 
499.555

>  <PUBCHEM_SHAPE_VOLUME>  (1) 
123

>  <PUBCHEM_COORDINATE_TYPE>  (1) 
2
5
10

$$$$
