16908
     RDKit          3D

  5  4  0  0  0  0  0  0  0  0999 V2000
   -1.8716   -0.7172    0.1985 F   0  0  0  0  0  0  0  0  0  0  0  0
   -0.0059    0.7086    0.2315 C   0  0  0  0  0  0  0  0  0  0  0  0
    0.9401   -0.3550   -0.3257 C   0  0  0  0  0  0  0  0  0  0  0  0
   -1.4323    0.4908   -0.2436 C   0  0  0  0  0  0  0  0  0  0  0  0
    2.3697   -0.1272    0.1394 C   0  0  0  0  0  0  0  0  0  0  0  0
  1  4  1  0
  2  3  1  0
  2  4  1  0
  3  5  1  0
M  END
>  <PUBCHEM_COMPOUND_CID>  (1) 
16908

>  <PUBCHEM_CONFORMER_RMSD>  (1) 
0.4

>  <PUBCHEM_CONFORMER_DIVERSEORDER>  (1) 
1
8
6
2
5
3
9
7
4

>  <PUBCHEM_MMFF94_PARTIAL_CHARGES>  (1) 
2
1 -0.34
4 0.34

>  <PUBCHEM_EFFECTIVE_ROTOR_COUNT>  (1) 
2

>  <PUBCHEM_PHARMACOPHORE_FEATURES>  (1) 
1
1 5 hydrophobe

>  <PUBCHEM_HEAVY_ATOM_COUNT>  (1) 
5

>  <PUBCHEM_ATOM_DEF_STEREO_COUNT>  (1) 
0

>  <PUBCHEM_ATOM_UDEF_STEREO_COUNT>  (1) 
0

>  <PUBCHEM_BOND_DEF_STEREO_COUNT>  (1) 
0

>  <PUBCHEM_BOND_UDEF_STEREO_COUNT>  (1) 
0

>  <PUBCHEM_ISOTOPIC_ATOM_COUNT>  (1) 
0

>  <PUBCHEM_COMPONENT_COUNT>  (1) 
1

>  <PUBCHEM_CACTVS_TAUTO_COUNT>  (1) 
1

>  <PUBCHEM_CONFORMER_ID>  (1) 
0000420C00000001

>  <PUBCHEM_MMFF94_ENERGY>  (1) 
-2.9095

>  <PUBCHEM_FEATURE_SELFOVERLAP>  (1) 
5.074

>  <PUBCHEM_SHAPE_FINGERPRINT>  (1) 
139733 1 8862943870384949077
16714656 1 18273497879354510854
20096714 4 9367341526834235766
29004967 10 18060139838328208650
5460574 1 9223230749874376700

>  <PUBCHEM_SHAPE_MULTIPOLES>  (1) 
95.62
2.91
0.85
0.65
0.71
0.03
-0.02
-0.37
0.12
-0.19
0.03
0.02
0.01
0.11

>  <PUBCHEM_SHAPE_SELFOVERLAP>  (1) 
159.616

>  <PUBCHEM_SHAPE_VOLUME>  (1) 
65.8

>  <PUBCHEM_COORDINATE_TYPE>  (1) 
2
5
10

$$$$
