16910
     RDKit          3D

 10 10  0  0  0  0  0  0  0  0999 V2000
    2.4608    0.0002   -0.0001 F   0  0  0  0  0  0  0  0  0  0  0  0
    1.0935    2.3679   -0.0003 F   0  0  0  0  0  0  0  0  0  0  0  0
    1.0938   -2.3679   -0.0002 F   0  0  0  0  0  0  0  0  0  0  0  0
   -3.0076   -0.0002   -0.0002 F   0  0  0  0  0  0  0  0  0  0  0  0
    1.1215    0.0001    0.0003 C   0  0  0  0  0  0  0  0  0  0  0  0
    0.4238    1.2080    0.0002 C   0  0  0  0  0  0  0  0  0  0  0  0
    0.4241   -1.2081    0.0001 C   0  0  0  0  0  0  0  0  0  0  0  0
   -0.9710    1.2080    0.0002 C   0  0  0  0  0  0  0  0  0  0  0  0
   -0.9708   -1.2081    0.0000 C   0  0  0  0  0  0  0  0  0  0  0  0
   -1.6683    0.0000    0.0000 C   0  0  0  0  0  0  0  0  0  0  0  0
  1  5  1  0
  2  6  1  0
  3  7  1  0
  4 10  1  0
  5  6  2  0
  5  7  1  0
  6  8  1  0
  7  9  2  0
  8 10  2  0
  9 10  1  0
M  END
>  <PUBCHEM_COMPOUND_CID>  (1) 
16910

>  <PUBCHEM_CONFORMER_RMSD>  (1) 
0.4

>  <PUBCHEM_CONFORMER_DIVERSEORDER>  (1) 
1

>  <PUBCHEM_MMFF94_PARTIAL_CHARGES>  (1) 
12
1 -0.19
10 0.19
11 0.15
12 0.15
2 -0.19
3 -0.19
4 -0.19
5 0.19
6 0.19
7 0.19
8 -0.15
9 -0.15

>  <PUBCHEM_EFFECTIVE_ROTOR_COUNT>  (1) 
0

>  <PUBCHEM_PHARMACOPHORE_FEATURES>  (1) 
1
6 5 6 7 8 9 10 rings

>  <PUBCHEM_HEAVY_ATOM_COUNT>  (1) 
10

>  <PUBCHEM_ATOM_DEF_STEREO_COUNT>  (1) 
0

>  <PUBCHEM_ATOM_UDEF_STEREO_COUNT>  (1) 
0

>  <PUBCHEM_BOND_DEF_STEREO_COUNT>  (1) 
0

>  <PUBCHEM_BOND_UDEF_STEREO_COUNT>  (1) 
0

>  <PUBCHEM_ISOTOPIC_ATOM_COUNT>  (1) 
0

>  <PUBCHEM_COMPONENT_COUNT>  (1) 
1

>  <PUBCHEM_CACTVS_TAUTO_COUNT>  (1) 
1

>  <PUBCHEM_CONFORMER_ID>  (1) 
0000420E00000001

>  <PUBCHEM_MMFF94_ENERGY>  (1) 
13.4004

>  <PUBCHEM_FEATURE_SELFOVERLAP>  (1) 
5.074

>  <PUBCHEM_SHAPE_FINGERPRINT>  (1) 
12423570 1 8468547365837646886
16945 1 18410855464628844421
18185500 45 18340204098628647919
193761 8 17689997834487624804
21040471 1 17906171007338151873
23552423 10 17972890150358780438
241688 4 17906173953680169721
2748010 2 18121501524979764671
29004967 10 18335426729280227059
5084963 1 18130790130438998587

>  <PUBCHEM_SHAPE_MULTIPOLES>  (1) 
176.7
2.61
2.09
0.57
0.95
0
0
0
0
-0.82
0
0.02
0
0

>  <PUBCHEM_SHAPE_SELFOVERLAP>  (1) 
376.803

>  <PUBCHEM_SHAPE_VOLUME>  (1) 
98.5

>  <PUBCHEM_COORDINATE_TYPE>  (1) 
2
5
10

$$$$
