16919
     RDKit          3D

 10 10  0  0  0  0  0  0  0  0999 V2000
   -3.5177    0.0001   -0.0002 Br  0  0  0  0  0  0  0  0  0  0  0  0
    2.5262    0.0000   -0.0001 O   0  0  0  0  0  0  0  0  0  0  0  0
    0.4648    1.2080   -0.0001 C   0  0  0  0  0  0  0  0  0  0  0  0
    0.4648   -1.2080    0.0000 C   0  0  0  0  0  0  0  0  0  0  0  0
    1.1622    0.0000   -0.0002 C   0  0  0  0  0  0  0  0  0  0  0  0
   -0.9300    1.2080    0.0001 C   0  0  0  0  0  0  0  0  0  0  0  0
   -0.9302   -1.2081    0.0001 C   0  0  0  0  0  0  0  0  0  0  0  0
   -1.6276    0.0000    0.0002 C   0  0  0  0  0  0  0  0  0  0  0  0
    1.1937    2.5113    0.0001 C   0  0  0  0  0  0  0  0  0  0  0  0
    1.1938   -2.5113    0.0001 C   0  0  0  0  0  0  0  0  0  0  0  0
  1  8  1  0
  2  5  1  0
  3  5  2  0
  3  6  1  0
  3  9  1  0
  4  5  1  0
  4  7  2  0
  4 10  1  0
  6  8  2  0
  7  8  1  0
M  END
>  <PUBCHEM_COMPOUND_CID>  (1) 
16919

>  <PUBCHEM_CONFORMER_RMSD>  (1) 
0.4

>  <PUBCHEM_CONFORMER_DIVERSEORDER>  (1) 
1

>  <PUBCHEM_MMFF94_PARTIAL_CHARGES>  (1) 
13
1 -0.11
10 0.14
11 0.15
12 0.15
19 0.45
2 -0.53
3 -0.14
4 -0.14
5 0.08
6 -0.15
7 -0.15
8 0.11
9 0.14

>  <PUBCHEM_EFFECTIVE_ROTOR_COUNT>  (1) 
0

>  <PUBCHEM_PHARMACOPHORE_FEATURES>  (1) 
3
1 1 hydrophobe
1 2 donor
6 3 4 5 6 7 8 rings

>  <PUBCHEM_HEAVY_ATOM_COUNT>  (1) 
10

>  <PUBCHEM_ATOM_DEF_STEREO_COUNT>  (1) 
0

>  <PUBCHEM_ATOM_UDEF_STEREO_COUNT>  (1) 
0

>  <PUBCHEM_BOND_DEF_STEREO_COUNT>  (1) 
0

>  <PUBCHEM_BOND_UDEF_STEREO_COUNT>  (1) 
0

>  <PUBCHEM_ISOTOPIC_ATOM_COUNT>  (1) 
0

>  <PUBCHEM_COMPONENT_COUNT>  (1) 
1

>  <PUBCHEM_CACTVS_TAUTO_COUNT>  (1) 
2

>  <PUBCHEM_CONFORMER_ID>  (1) 
0000421700000001

>  <PUBCHEM_MMFF94_ENERGY>  (1) 
23.9451

>  <PUBCHEM_FEATURE_SELFOVERLAP>  (1) 
15.223

>  <PUBCHEM_SHAPE_FINGERPRINT>  (1) 
1 1 18338233877007915261
12423570 1 8468546262052131358
13380535 76 17980757461029740276
13380536 305 18338524152151329061
161256 15 18197500614879586726
16945 1 18410575084900442757
18185500 45 18340205185176233031
193761 8 17762336916408296768
20871998 184 17480286877852477791
20871998 22 17982455901605081071
21040471 1 17906453581815947301
2334 1 17978228592944114951
23402655 69 18267568140954793861
23552423 10 17973171625282730582
23559900 14 17837792371588513236
241688 4 17906172854173816697
2748010 2 18121223348516844791
29004967 10 18335707104808613443
5084963 1 18059295469169367529

>  <PUBCHEM_SHAPE_MULTIPOLES>  (1) 
205.87
3.54
2.47
0.62
3.22
0
0
0
0
-1.62
0
0.07
0
0

>  <PUBCHEM_SHAPE_SELFOVERLAP>  (1) 
412.737

>  <PUBCHEM_SHAPE_VOLUME>  (1) 
127.1

>  <PUBCHEM_COORDINATE_TYPE>  (1) 
2
5
10

$$$$
