16911
     RDKit          3D

  8  7  0  0  0  0  0  0  0  0999 V2000
    1.3208    1.9292   -0.0217 O   0  0  0  0  0  0  0  0  0  0  0  0
    0.7166   -0.4396   -0.0204 C   0  0  0  0  0  0  0  0  0  0  0  0
   -0.6954   -0.1519   -0.6046 C   0  0  0  0  0  0  0  0  0  0  0  0
    1.2721    0.7571    0.7814 C   0  0  0  0  0  0  0  0  0  0  0  0
    0.6900   -1.6776    0.8934 C   0  0  0  0  0  0  0  0  0  0  0  0
    1.6608   -0.7354   -1.2060 C   0  0  0  0  0  0  0  0  0  0  0  0
   -1.8081    0.0605    0.4279 C   0  0  0  0  0  0  0  0  0  0  0  0
   -3.1569    0.2577   -0.2499 C   0  0  0  0  0  0  0  0  0  0  0  0
  1  4  1  0
  2  3  1  0
  2  4  1  0
  2  5  1  0
  2  6  1  0
  3  7  1  0
  7  8  1  0
M  END
>  <PUBCHEM_COMPOUND_CID>  (1) 
16911

>  <PUBCHEM_CONFORMER_RMSD>  (1) 
0.6

>  <PUBCHEM_CONFORMER_DIVERSEORDER>  (1) 
1
5
2
3
6
4

>  <PUBCHEM_MMFF94_PARTIAL_CHARGES>  (1) 
3
1 -0.68
24 0.4
4 0.28

>  <PUBCHEM_EFFECTIVE_ROTOR_COUNT>  (1) 
3

>  <PUBCHEM_PHARMACOPHORE_FEATURES>  (1) 
4
1 1 acceptor
1 1 donor
1 8 hydrophobe
3 2 5 6 hydrophobe

>  <PUBCHEM_HEAVY_ATOM_COUNT>  (1) 
8

>  <PUBCHEM_ATOM_DEF_STEREO_COUNT>  (1) 
0

>  <PUBCHEM_ATOM_UDEF_STEREO_COUNT>  (1) 
0

>  <PUBCHEM_BOND_DEF_STEREO_COUNT>  (1) 
0

>  <PUBCHEM_BOND_UDEF_STEREO_COUNT>  (1) 
0

>  <PUBCHEM_ISOTOPIC_ATOM_COUNT>  (1) 
0

>  <PUBCHEM_COMPONENT_COUNT>  (1) 
1

>  <PUBCHEM_CACTVS_TAUTO_COUNT>  (1) 
1

>  <PUBCHEM_CONFORMER_ID>  (1) 
0000420F00000001

>  <PUBCHEM_MMFF94_ENERGY>  (1) 
14.2308

>  <PUBCHEM_FEATURE_SELFOVERLAP>  (1) 
20.297

>  <PUBCHEM_SHAPE_FINGERPRINT>  (1) 
12932741 1 18335991930118388055
12932764 1 18334576807366904127
137420 1 10180442839949514974
14128692 85 16415214320795497094
20096714 4 18271522108293341409
20653091 64 18342459197008780875
21040471 1 17896044393561348059
23552449 11 18338786819772095195
24536 1 17632284662593348735
29004967 10 18264767670914547034
5084963 1 18051666013882179560
5943 1 15550560580289343814
68250623 7 18125991913583579998

>  <PUBCHEM_SHAPE_MULTIPOLES>  (1) 
158.77
3.24
1.49
1.06
3.46
0.33
0.09
0.28
0.41
-0.96
-0.3
-0.4
-0.23
0.12

>  <PUBCHEM_SHAPE_SELFOVERLAP>  (1) 
283.594

>  <PUBCHEM_SHAPE_VOLUME>  (1) 
104.6

>  <PUBCHEM_COORDINATE_TYPE>  (1) 
2
5
10

$$$$
