1692
     RDKit          3D

 35 42  0  0  1  0  0  0  0  0999 V2000
   -1.1642    1.8869   -1.4402 O   0  0  0  0  0  0  0  0  0  0  0  0
   -3.7184    2.7648   -0.2653 O   0  0  0  0  0  0  0  0  0  0  0  0
   -4.4995   -0.7893    0.0577 O   0  0  0  0  0  0  0  0  0  0  0  0
    4.8898   -1.9975    0.1151 O   0  0  0  0  0  0  0  0  0  0  0  0
   -1.4752   -0.2119   -0.3930 N   0  0  0  0  0  0  0  0  0  0  0  0
    0.8352    1.6678   -0.2875 N   0  0  0  0  0  0  0  0  0  0  0  0
   -1.3835    1.4760    2.2915 N   0  0  0  0  0  0  0  0  0  0  0  0
    3.3749   -3.7799    0.1920 N   0  0  0  0  0  0  0  0  0  0  0  0
   -2.1243    1.0249   -0.8334 C   0  0  0  0  0  0  0  0  0  0  0  0
   -2.8887    1.7441    0.3100 C   0  0  0  0  0  0  0  0  0  0  0  0
   -0.2703    2.5450   -0.5740 C   0  0  0  0  0  0  0  0  0  0  0  0
   -1.9781    2.4180    1.3470 C   0  0  0  0  0  0  0  0  0  0  0  0
   -0.1556   -0.5838   -0.2868 C   0  0  0  0  0  0  0  0  0  0  0  0
   -0.9093    3.2410    0.6302 C   0  0  0  0  0  0  0  0  0  0  0  0
    0.9495    0.3098   -0.2533 C   0  0  0  0  0  0  0  0  0  0  0  0
    0.1996   -1.9742   -0.1118 C   0  0  0  0  0  0  0  0  0  0  0  0
    2.2532   -0.3120   -0.1084 C   0  0  0  0  0  0  0  0  0  0  0  0
   -2.1187   -1.4331   -0.1151 C   0  0  0  0  0  0  0  0  0  0  0  0
   -3.0616    0.7361   -2.0332 C   0  0  0  0  0  0  0  0  0  0  0  0
    2.1636    2.0728   -0.1385 C   0  0  0  0  0  0  0  0  0  0  0  0
   -1.1607   -2.4869   -0.0177 C   0  0  0  0  0  0  0  0  0  0  0  0
    1.4595   -2.5597   -0.0261 C   0  0  0  0  0  0  0  0  0  0  0  0
    2.5271   -1.6753   -0.0368 C   0  0  0  0  0  0  0  0  0  0  0  0
    3.0228    0.9365   -0.0486 C   0  0  0  0  0  0  0  0  0  0  0  0
    1.9397   -3.9633    0.1344 C   0  0  0  0  0  0  0  0  0  0  0  0
   -3.4910   -1.7217    0.0510 C   0  0  0  0  0  0  0  0  0  0  0  0
    3.7606   -2.4464    0.0974 C   0  0  0  0  0  0  0  0  0  0  0  0
   -1.6305   -3.8079    0.1969 C   0  0  0  0  0  0  0  0  0  0  0  0
    2.6843    3.3830   -0.0851 C   0  0  0  0  0  0  0  0  0  0  0  0
    4.4115    1.1851    0.0984 C   0  0  0  0  0  0  0  0  0  0  0  0
   -4.5094    3.3955    0.7258 C   0  0  0  0  0  0  0  0  0  0  0  0
   -3.9102   -3.0363    0.2693 C   0  0  0  0  0  0  0  0  0  0  0  0
   -2.9932   -4.0709    0.3321 C   0  0  0  0  0  0  0  0  0  0  0  0
    4.0579    3.5738    0.0578 C   0  0  0  0  0  0  0  0  0  0  0  0
    4.9131    2.4889    0.1479 C   0  0  0  0  0  0  0  0  0  0  0  0
  1  9  1  0
  1 11  1  0
  2 10  1  0
  2 31  1  0
  3 26  1  0
  4 27  2  0
  5  9  1  0
  5 13  1  0
  5 18  1  0
  6 11  1  0
  6 15  1  0
  6 20  1  0
  7 12  1  0
  8 25  1  0
  8 27  1  0
  9 10  1  0
  9 19  1  0
 10 12  1  0
 11 14  1  0
 12 14  1  0
 13 15  2  0
 13 16  1  0
 15 17  1  0
 16 21  1  0
 16 22  2  0
 17 23  2  0
 17 24  1  0
 18 21  2  0
 18 26  1  0
 20 24  2  0
 20 29  1  0
 21 28  1  0
 22 23  1  0
 22 25  1  0
 23 27  1  0
 24 30  1  0
 26 32  2  0
 28 33  2  0
 29 34  2  0
 30 35  2  0
 32 33  1  0
 34 35  1  0
M  END
>  <PUBCHEM_COMPOUND_CID>  (1) 
1692

>  <PUBCHEM_CONFORMER_RMSD>  (1) 
0.8

>  <PUBCHEM_CONFORMER_DIVERSEORDER>  (1) 
1
2
3
4

>  <PUBCHEM_MMFF94_PARTIAL_CHARGES>  (1) 
42
1 -0.56
10 0.28
11 0.54
12 0.27
13 -0.05
15 -0.05
16 -0.01
17 -0.01
18 -0.15
2 -0.56
20 -0.15
22 -0.14
23 0.09
25 0.44
26 0.08
27 0.54
28 -0.15
29 -0.15
3 -0.53
30 -0.15
31 0.28
32 -0.15
33 -0.15
34 -0.15
35 -0.15
4 -0.57
46 0.36
47 0.36
48 0.15
49 0.15
5 -0.04
50 0.37
51 0.15
55 0.15
56 0.15
57 0.15
58 0.15
59 0.45
6 -0.04
7 -0.99
8 -0.73
9 0.54

>  <PUBCHEM_EFFECTIVE_ROTOR_COUNT>  (1) 
2.2

>  <PUBCHEM_PHARMACOPHORE_FEATURES>  (1) 
17
1 1 acceptor
1 2 acceptor
1 3 donor
1 4 acceptor
1 5 cation
1 6 cation
1 7 cation
1 7 donor
1 8 donor
5 5 13 16 18 21 rings
5 6 15 17 20 24 rings
5 8 22 23 25 27 rings
6 1 9 10 11 12 14 rings
6 13 15 16 17 22 23 rings
6 18 21 26 28 32 33 rings
6 20 24 29 30 34 35 rings
7 1 5 6 9 11 13 15 rings

>  <PUBCHEM_HEAVY_ATOM_COUNT>  (1) 
35

>  <PUBCHEM_ATOM_DEF_STEREO_COUNT>  (1) 
0

>  <PUBCHEM_ATOM_UDEF_STEREO_COUNT>  (1) 
4

>  <PUBCHEM_BOND_DEF_STEREO_COUNT>  (1) 
0

>  <PUBCHEM_BOND_UDEF_STEREO_COUNT>  (1) 
0

>  <PUBCHEM_ISOTOPIC_ATOM_COUNT>  (1) 
0

>  <PUBCHEM_COMPONENT_COUNT>  (1) 
1

>  <PUBCHEM_CACTVS_TAUTO_COUNT>  (1) 
6

>  <PUBCHEM_CONFORMER_ID>  (1) 
0000069C00000001

>  <PUBCHEM_MMFF94_ENERGY>  (1) 
152.7814

>  <PUBCHEM_FEATURE_SELFOVERLAP>  (1) 
87.407

>  <PUBCHEM_SHAPE_FINGERPRINT>  (1) 
10006869 2 18343023319900074639
10190108 129 17975167462183083515
10290309 65 17978218689304022468
10967382 1 18049160265621989126
1100329 8 18266741268489993441
11513181 2 18202566185176538287
11582403 64 16590805172917344469
12788726 201 17833568060192155884
12925494 130 18411974741570068560
13140716 1 18337955584369901102
13402501 40 17977383068370661822
1361 2 17906172850306552665
13911987 19 17758673738622197652
140371 6 18340199679361066606
14223421 5 18336825393949258334
14415360 78 18045486522427578717
14790565 3 17762062038649448748
14955137 171 17762352313718548306
15320467 1 18122626312358241304
15439362 3 18265320734112515004
15815584 197 17903941172125135054
15927050 60 18412267228773867124
16728300 4 17609735973068521442
19311894 1 17690277114816305307
19591789 44 17617376628929108151
20028762 73 17118893284439687614
20642791 35 18410580599681396022
20764821 26 18409166580588424110
20775438 99 17760879161859322383
21796203 349 17474711289248476378
23558518 356 18261399969951789139
23559900 14 18339068312229283818
283562 15 18122625221594855600
3027735 51 18266741470369293536
3178227 256 17978242556379277577
3380486 145 18119542182939344315
350125 39 18409736131616513463
392239 28 18125165080591332544
469060 322 18120665874583916625
57527585 103 17314529190573743106
59755656 215 18337955722315393606
9896288 288 18270970162357869160
9961470 85 18269824355509887472

>  <PUBCHEM_SHAPE_MULTIPOLES>  (1) 
676.88
8.55
6.31
1.03
3.49
2.17
-0.02
-1.3
-0.45
-0.54
-1.01
-0.79
-0.7
-0.19

>  <PUBCHEM_SHAPE_SELFOVERLAP>  (1) 
1570.84

>  <PUBCHEM_SHAPE_VOLUME>  (1) 
341.2

>  <PUBCHEM_COORDINATE_TYPE>  (1) 
2
5
10

$$$$
