16924
     RDKit          3D

 14 13  0  0  0  0  0  0  0  0999 V2000
   -1.1471    2.0825    0.4072 F   0  0  0  0  0  0  0  0  0  0  0  0
   -0.1039    1.5271   -1.4219 F   0  0  0  0  0  0  0  0  0  0  0  0
    1.0304    2.1429    0.3344 F   0  0  0  0  0  0  0  0  0  0  0  0
   -1.3230   -0.7833   -1.4188 F   0  0  0  0  0  0  0  0  0  0  0  0
   -2.3678   -0.2284    0.4120 F   0  0  0  0  0  0  0  0  0  0  0  0
   -1.1900   -2.0590    0.3436 F   0  0  0  0  0  0  0  0  0  0  0  0
    2.3799   -0.0479    0.4109 F   0  0  0  0  0  0  0  0  0  0  0  0
    1.3429   -1.9640    0.3405 F   0  0  0  0  0  0  0  0  0  0  0  0
    1.3771   -0.6803   -1.4184 F   0  0  0  0  0  0  0  0  0  0  0  0
   -0.0008    0.0137    1.8264 O   0  0  0  0  0  0  0  0  0  0  0  0
    0.0004   -0.0009    0.3980 C   0  0  0  0  0  0  0  0  0  0  0  0
   -0.0545    1.4479   -0.0733 C   0  0  0  0  0  0  0  0  0  0  0  0
   -1.2287   -0.7729   -0.0710 C   0  0  0  0  0  0  0  0  0  0  0  0
    1.2849   -0.6773   -0.0697 C   0  0  0  0  0  0  0  0  0  0  0  0
  1 12  1  0
  2 12  1  0
  3 12  1  0
  4 13  1  0
  5 13  1  0
  6 13  1  0
  7 14  1  0
  8 14  1  0
  9 14  1  0
 10 11  1  0
 11 12  1  0
 11 13  1  0
 11 14  1  0
M  END
>  <PUBCHEM_COMPOUND_CID>  (1) 
16924

>  <PUBCHEM_CONFORMER_RMSD>  (1) 
0.6

>  <PUBCHEM_CONFORMER_DIVERSEORDER>  (1) 
1

>  <PUBCHEM_MMFF94_PARTIAL_CHARGES>  (1) 
15
1 -0.34
10 -0.68
11 0.28
12 1.02
13 1.02
14 1.02
15 0.4
2 -0.34
3 -0.34
4 -0.34
5 -0.34
6 -0.34
7 -0.34
8 -0.34
9 -0.34

>  <PUBCHEM_EFFECTIVE_ROTOR_COUNT>  (1) 
3

>  <PUBCHEM_PHARMACOPHORE_FEATURES>  (1) 
2
1 10 acceptor
1 10 donor

>  <PUBCHEM_HEAVY_ATOM_COUNT>  (1) 
14

>  <PUBCHEM_ATOM_DEF_STEREO_COUNT>  (1) 
0

>  <PUBCHEM_ATOM_UDEF_STEREO_COUNT>  (1) 
0

>  <PUBCHEM_BOND_DEF_STEREO_COUNT>  (1) 
0

>  <PUBCHEM_BOND_UDEF_STEREO_COUNT>  (1) 
0

>  <PUBCHEM_ISOTOPIC_ATOM_COUNT>  (1) 
0

>  <PUBCHEM_COMPONENT_COUNT>  (1) 
1

>  <PUBCHEM_CACTVS_TAUTO_COUNT>  (1) 
1

>  <PUBCHEM_CONFORMER_ID>  (1) 
0000421C00000001

>  <PUBCHEM_MMFF94_ENERGY>  (1) 
19.2993

>  <PUBCHEM_FEATURE_SELFOVERLAP>  (1) 
10.148

>  <PUBCHEM_SHAPE_FINGERPRINT>  (1) 
12423570 1 14360489141500667462
13024252 1 16952841370567861074
137420 1 15533994414323344090
16945 1 18412827996878568715
18185500 45 18411145761273533554
21040471 1 17258223969019642968
2748010 2 18123190104114664039
29004967 10 18335706069468514938
5084963 1 16669676298377349496
528886 8 18195241345927694384

>  <PUBCHEM_SHAPE_MULTIPOLES>  (1) 
216.78
2.08
2.08
1.19
0.07
0.54
-0.11
-0.56
0.04
-0.05
0.03
-0.01
0.02
0

>  <PUBCHEM_SHAPE_SELFOVERLAP>  (1) 
454.874

>  <PUBCHEM_SHAPE_VOLUME>  (1) 
122.1

>  <PUBCHEM_COORDINATE_TYPE>  (1) 
2
5
10

$$$$
