16927
     RDKit          3D

 20 22  0  0  0  0  0  0  0  0999 V2000
    4.2427    0.5900    0.2617 O   0  0  0  0  0  0  0  0  0  0  0  0
    1.3464   -3.1397    0.0520 O   0  0  0  0  0  0  0  0  0  0  0  0
   -0.4438    2.6066    0.1026 O   0  0  0  0  0  0  0  0  0  0  0  0
   -1.1950   -2.6813   -0.0489 O   0  0  0  0  0  0  0  0  0  0  0  0
    2.1403    2.3698    0.2102 N   0  0  0  0  0  0  0  0  0  0  0  0
    0.5735    0.4648    0.0993 C   0  0  0  0  0  0  0  0  0  0  0  0
    0.3733   -0.9167    0.0596 C   0  0  0  0  0  0  0  0  0  0  0  0
   -1.9438    0.8325   -0.0023 C   0  0  0  0  0  0  0  0  0  0  0  0
   -2.1440   -0.5490   -0.0421 C   0  0  0  0  0  0  0  0  0  0  0  0
   -0.5778    1.3898    0.0700 C   0  0  0  0  0  0  0  0  0  0  0  0
   -0.9928   -1.4740   -0.0128 C   0  0  0  0  0  0  0  0  0  0  0  0
    1.8735    0.9803    0.1674 C   0  0  0  0  0  0  0  0  0  0  0  0
    1.4730   -1.7828    0.0881 C   0  0  0  0  0  0  0  0  0  0  0  0
    2.9664    0.1137    0.1957 C   0  0  0  0  0  0  0  0  0  0  0  0
    2.7666   -1.2648    0.1561 C   0  0  0  0  0  0  0  0  0  0  0  0
   -3.0435    1.6984   -0.0312 C   0  0  0  0  0  0  0  0  0  0  0  0
   -3.4439   -1.0644   -0.1109 C   0  0  0  0  0  0  0  0  0  0  0  0
   -4.3372    1.1806   -0.0994 C   0  0  0  0  0  0  0  0  0  0  0  0
   -4.5370   -0.1979   -0.1391 C   0  0  0  0  0  0  0  0  0  0  0  0
    4.9029    0.8441   -0.9759 C   0  0  0  0  0  0  0  0  0  0  0  0
  1 14  1  0
  1 20  1  0
  2 13  1  0
  3 10  2  0
  4 11  2  0
  5 12  1  0
  6  7  2  0
  6 10  1  0
  6 12  1  0
  7 11  1  0
  7 13  1  0
  8  9  2  0
  8 10  1  0
  8 16  1  0
  9 11  1  0
  9 17  1  0
 12 14  2  0
 13 15  2  0
 14 15  1  0
 16 18  2  0
 17 19  2  0
 18 19  1  0
M  END
>  <PUBCHEM_COMPOUND_CID>  (1) 
16927

>  <PUBCHEM_CONFORMER_RMSD>  (1) 
0.6

>  <PUBCHEM_CONFORMER_DIVERSEORDER>  (1) 
1

>  <PUBCHEM_MMFF94_PARTIAL_CHARGES>  (1) 
28
1 -0.36
10 0.4
11 0.4
12 0.1
13 0.08
14 0.08
15 -0.15
16 -0.15
17 -0.15
18 -0.15
19 -0.15
2 -0.53
20 0.28
21 0.15
22 0.15
23 0.15
24 0.15
25 0.15
26 0.4
27 0.4
28 0.45
3 -0.57
4 -0.57
5 -0.9
6 0.09
7 0.09
8 0.09
9 0.09

>  <PUBCHEM_EFFECTIVE_ROTOR_COUNT>  (1) 
1

>  <PUBCHEM_PHARMACOPHORE_FEATURES>  (1) 
9
1 1 acceptor
1 2 donor
1 3 acceptor
1 4 acceptor
1 5 cation
1 5 donor
6 6 7 12 13 14 15 rings
6 6 7 8 9 10 11 rings
6 8 9 16 17 18 19 rings

>  <PUBCHEM_HEAVY_ATOM_COUNT>  (1) 
20

>  <PUBCHEM_ATOM_DEF_STEREO_COUNT>  (1) 
0

>  <PUBCHEM_ATOM_UDEF_STEREO_COUNT>  (1) 
0

>  <PUBCHEM_BOND_DEF_STEREO_COUNT>  (1) 
0

>  <PUBCHEM_BOND_UDEF_STEREO_COUNT>  (1) 
0

>  <PUBCHEM_ISOTOPIC_ATOM_COUNT>  (1) 
0

>  <PUBCHEM_COMPONENT_COUNT>  (1) 
1

>  <PUBCHEM_CACTVS_TAUTO_COUNT>  (1) 
12

>  <PUBCHEM_CONFORMER_ID>  (1) 
0000421F00000001

>  <PUBCHEM_MMFF94_ENERGY>  (1) 
85.7486

>  <PUBCHEM_FEATURE_SELFOVERLAP>  (1) 
45.713

>  <PUBCHEM_SHAPE_FINGERPRINT>  (1) 
10411042 1 17474387972564126519
10498660 4 18410013204341436204
10608611 8 18337104567087164341
10616163 171 18338799021695347599
10759866 29 18113338600790418122
10967382 1 18411134701801077819
10980938 120 18409727322564697466
11132069 177 18412255142783440361
11458722 379 18411705391454345716
11471102 20 18410849932600268935
11578080 2 16952803952538570086
12011746 2 18411700988880849885
12236239 1 17821726165774292752
12403814 3 17530678814376632893
12954195 1 17914917365314364180
13140716 1 18267013037115032536
13221675 6 18411698781251724682
13380535 76 18409728465010323330
138480 1 17906451026411061730
14790565 3 18338245941524499188
15196674 1 18410573950876238747
15442244 35 18051692140210562731
15536298 74 18270961245657232575
1601671 61 18409167705822486884
16945 1 18411973663501134818
19591789 44 18339361988738739955
200 152 18059849576333810925
20510252 161 18272370832665383953
21267235 1 18411426145708261719
21421861 104 17898285000684875491
21501502 16 18267584602519563787
221490 88 18265340516636479875
2334 1 17978508963945458050
23366157 5 17969789562271387202
23402539 116 18343575265603594653
23402655 69 18342171129573937749
23463225 33 18410008797873548481
23493267 7 17895195553483730274
23559900 14 18125150529353260482
23566358 2 18196655099154102724
25 1 18408599257983781534
2748010 2 17906167708903313523
296302 2 17675927586018815789
335352 9 18267020553112712590
34934 24 18411411787674659327
350125 39 18265059222227159003
4409770 3 15807202782092031958
474 4 17603592966854092156
4990 188 17988933253800988100
5104073 3 18410009897037030603
7364860 26 18269272370206766302
9709674 26 18411703175330874823

>  <PUBCHEM_SHAPE_MULTIPOLES>  (1) 
383.13
7.87
2.72
0.66
0.43
0.83
0.05
-2.16
1.12
0.34
-0.08
0.23
-0.05
-0.2

>  <PUBCHEM_SHAPE_SELFOVERLAP>  (1) 
864.288

>  <PUBCHEM_SHAPE_VOLUME>  (1) 
200

>  <PUBCHEM_COORDINATE_TYPE>  (1) 
2
5
10

$$$$
