16940
     RDKit          3D

 14 13  0  0  0  0  0  0  0  0999 V2000
   -6.8615    0.0833   -0.4286 O   0  0  0  0  0  0  0  0  0  0  0  0
   -5.5690   -1.5802    0.4204 O   0  0  0  0  0  0  0  0  0  0  0  0
   -0.6736    0.0736    0.2504 C   0  0  0  0  0  0  0  0  0  0  0  0
    0.5252    0.9837   -0.0259 C   0  0  0  0  0  0  0  0  0  0  0  0
   -1.9882    0.7533   -0.1379 C   0  0  0  0  0  0  0  0  0  0  0  0
    1.8429    0.2899    0.3324 C   0  0  0  0  0  0  0  0  0  0  0  0
   -3.1844   -0.1703    0.1073 C   0  0  0  0  0  0  0  0  0  0  0  0
    3.0696    1.1765    0.0978 C   0  0  0  0  0  0  0  0  0  0  0  0
   -4.5149    0.4890   -0.2409 C   0  0  0  0  0  0  0  0  0  0  0  0
    4.3622    0.4877    0.4286 C   0  0  0  0  0  0  0  0  0  0  0  0
   -5.6762   -0.4545   -0.0496 C   0  0  0  0  0  0  0  0  0  0  0  0
    5.3942    0.2480   -0.3949 C   0  0  0  0  0  0  0  0  0  0  0  0
    6.6850   -0.4403   -0.0631 C   0  0  0  0  0  0  0  0  0  0  0  0
    6.5887   -1.9397   -0.2960 C   0  0  0  0  0  0  0  0  0  0  0  0
  1 11  1  0
  2 11  2  0
  3  4  1  0
  3  5  1  0
  4  6  1  0
  5  7  1  0
  6  8  1  0
  7  9  1  0
  8 10  1  0
  9 11  1  0
 10 12  2  0
 12 13  1  0
 13 14  1  0
M  END
>  <PUBCHEM_COMPOUND_CID>  (1) 
16940

>  <PUBCHEM_CONFORMER_RMSD>  (1) 
0.8

>  <PUBCHEM_CONFORMER_DIVERSEORDER>  (1) 
1
253
77
76
50
106
12
299
34
181
175
335
82
281
269
107
300
183
19
220
256
261
176
294
109
25
138
10
155
4
110
8
94
3
301
230
337
254
168
111
159
49
340
101
250
23
190
62
152
180
276
112
41
58
315
205
271
16
124
38
225
318
31
114
192
319
221
86
296
214
325
130
87
342
121
204
74
345
324
326
73
140
211
69
143
139
30
232
63
156
270
32
44
167
51
309
189
5
43
22
96
305
236
7
198
137
147
99
26
18
90
2
72
332
13
302
97
33
127
42
88
105
195
238
182
128
54
108
141
202
29
28
60
213
85
48
145
39
331
212
341
333
233
267
164
334
262
179
217
81
162
197
328
218
166
89
36
119
286
146
40
120
346
116
70
9
98
343
308
245
75
27
52
307
259
71
207
285
184
196
100
56
136
193
177
84
260
242
64
6
24
311
283
129
15
79
234
310
134
235
323
170
330
47
20
125
153
45
222
53
336
133
243
282
244
142
68
203
59
165
339
150
264
171
251
344
186
329
14
158
91
272
78
93
216
252
122
57
258
194
247
288
66
208
55
17
126
248
338
148
131
115
178
322
292
102
169
228
275
21
313
104
188
290
117
289
37
67
61
257
191
144
273
297
11
163
210
249
154
161
46
278
80
174
321
320
187
206
151
200
113
227
95
65
123
280
291
246
316
209
219
35
241
240
201
160
298
103
274
223
92
284
118
293
215
314
237
303
224
83
268
231
226
287
157
135
265
327
239
229
199
306
263
317
312
304
149
132
173
172
295
255
279
266
185
277

>  <PUBCHEM_MMFF94_PARTIAL_CHARGES>  (1) 
11
1 -0.65
10 -0.29
11 0.66
12 -0.29
13 0.14
2 -0.57
29 0.15
30 0.15
36 0.5
8 0.14
9 0.06

>  <PUBCHEM_EFFECTIVE_ROTOR_COUNT>  (1) 
9

>  <PUBCHEM_PHARMACOPHORE_FEATURES>  (1) 
4
1 1 acceptor
1 14 hydrophobe
1 2 acceptor
3 1 2 11 anion

>  <PUBCHEM_HEAVY_ATOM_COUNT>  (1) 
14

>  <PUBCHEM_ATOM_DEF_STEREO_COUNT>  (1) 
0

>  <PUBCHEM_ATOM_UDEF_STEREO_COUNT>  (1) 
0

>  <PUBCHEM_BOND_DEF_STEREO_COUNT>  (1) 
0

>  <PUBCHEM_BOND_UDEF_STEREO_COUNT>  (1) 
1

>  <PUBCHEM_ISOTOPIC_ATOM_COUNT>  (1) 
0

>  <PUBCHEM_COMPONENT_COUNT>  (1) 
1

>  <PUBCHEM_CACTVS_TAUTO_COUNT>  (1) 
1

>  <PUBCHEM_CONFORMER_ID>  (1) 
0000422C00000001

>  <PUBCHEM_MMFF94_ENERGY>  (1) 
1.5583

>  <PUBCHEM_FEATURE_SELFOVERLAP>  (1) 
20.355

>  <PUBCHEM_SHAPE_FINGERPRINT>  (1) 
10968037 39 12251902599140835625
117890 112 10015865384008959608
12091667 2 17022620875751069529
125118 31 11095888172325292522
12714333 28 11458423540007711404
13167372 99 9295299335050464078
13288520 33 18408886244047111197
13403585 85 11095889263457683331
13533116 47 18060136549137705648
13668630 136 18335422365709797506
13685833 64 18343301453671401112
13964095 4 17967529061096176789
14123256 10 14345793846989806838
1420 363 18342741831526486289
14251764 18 15123502636251929944
14251764 46 18411698789973625536
14729087 3 11887681654573982091
15048467 5 8214141854744683196
15501527 16 9151174251116588193
155225 6 10590314047831906986
15716309 27 18060418032134599445
17834072 8 17530966891002796832
17834076 25 14490470889581098064
20621476 38 18341613694448461534
20621476 8 18335420137191522101
20735858 18 15769774646062269468
20767249 213 7853854988066375892
21130983 4 7997969085315386782
21150785 3 15936413351102263470
21267235 1 18186525427824956681
220451 1 16081081589516883945
22224240 67 11887951047280389141
2297311 6 17894911819576157549
23035841 295 18333448746469110411
23402539 116 16773793710583561517
23559900 14 18263641930259435881
246663 6 17822296799318588563
28498 318 18412824660037217421
29717793 49 17894917330372314356
300161 21 9727637193574037137
33532 11 18412824681190807070
42788 4 18409729577401545672
465052 167 18272654545910529126
59345606 91 8935001468971103872
59682541 52 13479411605933635562
59755656 215 18113616759741451810
6025842 7 12829479330409789160
6438161 24 17822003170043775722
8209 1 18260265257083187501

>  <PUBCHEM_SHAPE_MULTIPOLES>  (1) 
276.37
20.81
1.31
0.67
1.34
0.53
0
8.86
-1.88
-1.18
0
-0.07
0
0.57

>  <PUBCHEM_SHAPE_SELFOVERLAP>  (1) 
506.003

>  <PUBCHEM_SHAPE_VOLUME>  (1) 
175

>  <PUBCHEM_COORDINATE_TYPE>  (1) 
2
5
10

$$$$
