16946
     RDKit          3D

 16 16  0  0  0  0  0  0  0  0999 V2000
   -3.2444   -1.4334    0.4029 S   0  0  0  0  0  0  0  0  0  0  0  0
    3.0496    0.6710   -1.4967 O   0  0  0  0  0  0  0  0  0  0  0  0
    4.6050    2.1952    0.1042 O   0  0  0  0  0  0  0  0  0  0  0  0
    4.0911    0.9678    0.5431 N   0  0  0  0  0  0  0  0  0  0  0  0
   -3.2378    1.0513   -0.8756 C   0  0  0  0  0  0  0  0  0  0  0  0
   -3.8219    1.7853    0.3345 C   0  0  0  0  0  0  0  0  0  0  0  0
   -3.7195   -0.3931   -1.0090 C   0  0  0  0  0  0  0  0  0  0  0  0
    1.3149   -1.1309    0.2536 C   0  0  0  0  0  0  0  0  0  0  0  0
   -1.4601   -1.3150    0.3444 C   0  0  0  0  0  0  0  0  0  0  0  0
   -3.3885    3.2433    0.3587 C   0  0  0  0  0  0  0  0  0  0  0  0
    2.8022   -1.0326    0.2049 C   0  0  0  0  0  0  0  0  0  0  0  0
    0.6243   -0.7016    1.3868 C   0  0  0  0  0  0  0  0  0  0  0  0
    0.6146   -1.6526   -0.8342 C   0  0  0  0  0  0  0  0  0  0  0  0
   -0.7667   -0.7939    1.4323 C   0  0  0  0  0  0  0  0  0  0  0  0
   -0.7765   -1.7447   -0.7886 C   0  0  0  0  0  0  0  0  0  0  0  0
    3.3137    0.2839   -0.3611 C   0  0  0  0  0  0  0  0  0  0  0  0
  1  7  1  0
  1  9  1  0
  2 16  2  0
  3  4  1  0
  4 16  1  0
  5  6  1  0
  5  7  1  0
  6 10  1  0
  8 11  1  0
  8 12  2  0
  8 13  1  0
  9 14  2  0
  9 15  1  0
 11 16  1  0
 12 14  1  0
 13 15  2  0
M  END
>  <PUBCHEM_COMPOUND_CID>  (1) 
16946

>  <PUBCHEM_CONFORMER_RMSD>  (1) 
0.8

>  <PUBCHEM_CONFORMER_DIVERSEORDER>  (1) 
2
13
12
83
44
93
54
91
28
63
86
62
11
23
15
84
75
50
56
94
14
10
47
35
51
3
19
82
42
85
46
49
71
64
32
92
5
89
43
60
78
34
72
37
36
1
27
45
26
61
73
68
90
66
20
52
38
79
4
25
67
7
81
6
58
30
74
9
55
39
77
8
16
65
88
69
41
76
59
31
80
24
17
33
29
87
40
22
21
18
70
53
48
57

>  <PUBCHEM_MMFF94_PARTIAL_CHARGES>  (1) 
19
1 -0.33
11 0.2
12 -0.15
13 -0.15
14 -0.15
15 -0.15
16 0.57
2 -0.57
28 0.15
29 0.15
3 -0.44
30 0.15
31 0.15
32 0.37
33 0.4
4 -0.39
7 0.23
8 -0.14
9 0.1

>  <PUBCHEM_EFFECTIVE_ROTOR_COUNT>  (1) 
7

>  <PUBCHEM_PHARMACOPHORE_FEATURES>  (1) 
5
1 10 hydrophobe
1 2 acceptor
1 4 donor
4 1 5 6 7 hydrophobe
6 8 9 12 13 14 15 rings

>  <PUBCHEM_HEAVY_ATOM_COUNT>  (1) 
16

>  <PUBCHEM_ATOM_DEF_STEREO_COUNT>  (1) 
0

>  <PUBCHEM_ATOM_UDEF_STEREO_COUNT>  (1) 
0

>  <PUBCHEM_BOND_DEF_STEREO_COUNT>  (1) 
0

>  <PUBCHEM_BOND_UDEF_STEREO_COUNT>  (1) 
0

>  <PUBCHEM_ISOTOPIC_ATOM_COUNT>  (1) 
0

>  <PUBCHEM_COMPONENT_COUNT>  (1) 
1

>  <PUBCHEM_CACTVS_TAUTO_COUNT>  (1) 
3

>  <PUBCHEM_CONFORMER_ID>  (1) 
0000423200000002

>  <PUBCHEM_MMFF94_ENERGY>  (1) 
29.512

>  <PUBCHEM_FEATURE_SELFOVERLAP>  (1) 
25.372

>  <PUBCHEM_SHAPE_FINGERPRINT>  (1) 
10498660 4 18339917105141532829
10646746 165 18410856560003819004
11132069 177 17385436626803328215
11769659 78 10735871764179787055
12006461 19 9295277344448318557
12173636 292 18410009961773327871
122479 349 18334581192043294531
12491281 212 18334581209286577623
12633257 1 16081644591073124804
12670546 177 17130981126153373047
12824470 246 9439102257497149565
14123250 116 18270121189194605353
14123260 362 18334586711155443165
14251710 61 10231756712246478852
14251764 38 18337953518839752784
15163728 17 18266481882778065054
15209294 21 17313376846595417154
15239191 94 10519985958742527566
1741750 31 18334857212316853707
17834072 32 18267021648830922441
18186145 218 17894913971006716807
201361 129 17969217850278649379
21713013 43 15696847368655318645
21864079 5 18339359648219083337
22182937 141 18337116683306120001
23114952 82 17701549402586548031
235170 7 17418381315144307005
23557571 272 18189917442413486967
24859131 72 11169922667074303761
474 4 17821453451739464997
568465 68 14129067980383482615
5902787 121 7997674433521871999
8199 26 18339079281322784065

>  <PUBCHEM_SHAPE_MULTIPOLES>  (1) 
316.4
8.49
2.73
1.24
3.3
2.19
0.03
6.63
-0.89
-1.65
0.14
-0.04
-0.2
-0.25

>  <PUBCHEM_SHAPE_SELFOVERLAP>  (1) 
618.905

>  <PUBCHEM_SHAPE_VOLUME>  (1) 
190.6

>  <PUBCHEM_COORDINATE_TYPE>  (1) 
2
5
10

$$$$
