1695
     RDKit          3D

 10 11  0  0  0  0  0  0  0  0999 V2000
    0.9374   -1.7323   -0.0646 O   0  0  0  0  0  0  0  0  0  0  0  0
    2.3188    1.4728    0.0649 O   0  0  0  0  0  0  0  0  0  0  0  0
   -2.1562    1.0670   -0.3296 N   0  0  0  0  0  0  0  0  0  0  0  0
    2.0471   -0.8525   -0.0277 N   0  0  0  0  0  0  0  0  0  0  0  0
   -1.5274   -1.3417   -0.0444 C   0  0  0  0  0  0  0  0  0  0  0  0
    0.1785    0.4398    0.0280 C   0  0  0  0  0  0  0  0  0  0  0  0
   -2.5011   -0.2035    0.3293 C   0  0  0  0  0  0  0  0  0  0  0  0
   -0.1224   -0.8525   -0.0318 C   0  0  0  0  0  0  0  0  0  0  0  0
   -0.8100    1.5385    0.0496 C   0  0  0  0  0  0  0  0  0  0  0  0
    1.6354    0.4645    0.0263 C   0  0  0  0  0  0  0  0  0  0  0  0
  1  4  1  0
  1  8  1  0
  2 10  2  0
  3  7  1  0
  3  9  1  0
  4 10  1  0
  5  7  1  0
  5  8  1  0
  6  8  2  0
  6  9  1  0
  6 10  1  0
M  END
>  <PUBCHEM_COMPOUND_CID>  (1) 
1695

>  <PUBCHEM_CONFORMER_RMSD>  (1) 
0.4

>  <PUBCHEM_CONFORMER_DIVERSEORDER>  (1) 
1

>  <PUBCHEM_MMFF94_PARTIAL_CHARGES>  (1) 
12
1 -0.11
10 0.62
17 0.36
18 0.37
2 -0.57
3 -0.9
4 -0.39
5 0.14
6 -0.12
7 0.27
8 -0.06
9 0.41

>  <PUBCHEM_EFFECTIVE_ROTOR_COUNT>  (1) 
0.8

>  <PUBCHEM_PHARMACOPHORE_FEATURES>  (1) 
6
1 2 acceptor
1 3 cation
1 3 donor
1 4 donor
5 1 4 6 8 10 rings
6 3 5 6 7 8 9 rings

>  <PUBCHEM_HEAVY_ATOM_COUNT>  (1) 
10

>  <PUBCHEM_ATOM_DEF_STEREO_COUNT>  (1) 
0

>  <PUBCHEM_ATOM_UDEF_STEREO_COUNT>  (1) 
0

>  <PUBCHEM_BOND_DEF_STEREO_COUNT>  (1) 
0

>  <PUBCHEM_BOND_UDEF_STEREO_COUNT>  (1) 
0

>  <PUBCHEM_ISOTOPIC_ATOM_COUNT>  (1) 
0

>  <PUBCHEM_COMPONENT_COUNT>  (1) 
1

>  <PUBCHEM_CACTVS_TAUTO_COUNT>  (1) 
2

>  <PUBCHEM_CONFORMER_ID>  (1) 
0000069F00000001

>  <PUBCHEM_MMFF94_ENERGY>  (1) 
9.928

>  <PUBCHEM_FEATURE_SELFOVERLAP>  (1) 
30.533

>  <PUBCHEM_SHAPE_FINGERPRINT>  (1) 
12423570 1 8322826912492345245
12897270 3 18410856576893628877
16945 1 18339361838267022595
18185500 45 18267866262364620815
19973954 147 18338519638198651665
21040471 1 18338797926425510820
23552423 10 18333453135857270870
241688 4 16971675811251373555
2748010 2 18410857684937071543
29004967 10 18261118525102886891
369184 2 16153975954325681681
5084963 1 18201997673113321523

>  <PUBCHEM_SHAPE_MULTIPOLES>  (1) 
184.09
3.16
1.75
0.6
0.06
0.04
0.01
-0.4
0.1
-0.1
-0.05
0.08
-0.01
0.1

>  <PUBCHEM_SHAPE_SELFOVERLAP>  (1) 
391.367

>  <PUBCHEM_SHAPE_VOLUME>  (1) 
101.5

>  <PUBCHEM_COORDINATE_TYPE>  (1) 
2
5
10

$$$$
