16954
     RDKit          3D

 20 22  0  0  0  0  0  0  0  0999 V2000
   -1.2001    1.6047   -0.2645 S   0  0  0  0  0  0  0  0  0  0  0  0
   -1.1358   -0.8690    0.1440 N   0  0  0  0  0  0  0  0  0  0  0  0
    5.3147    0.0884   -0.0138 N   0  0  0  0  0  0  0  0  0  0  0  0
   -2.4775   -0.5650    0.0936 C   0  0  0  0  0  0  0  0  0  0  0  0
   -0.3273    0.1544   -0.0249 C   0  0  0  0  0  0  0  0  0  0  0  0
   -2.7146    0.7857   -0.1295 C   0  0  0  0  0  0  0  0  0  0  0  0
    1.1120    0.1365   -0.0222 C   0  0  0  0  0  0  0  0  0  0  0  0
   -3.5397   -1.4681    0.2426 C   0  0  0  0  0  0  0  0  0  0  0  0
   -4.0206    1.2884   -0.2127 C   0  0  0  0  0  0  0  0  0  0  0  0
   -0.6450   -2.2122    0.3662 C   0  0  0  0  0  0  0  0  0  0  0  0
   -5.0793    0.3853   -0.0639 C   0  0  0  0  0  0  0  0  0  0  0  0
    1.8124   -0.0687   -1.2126 C   0  0  0  0  0  0  0  0  0  0  0  0
    1.8124    0.3259    1.1709 C   0  0  0  0  0  0  0  0  0  0  0  0
   -4.8440   -0.9710    0.1602 C   0  0  0  0  0  0  0  0  0  0  0  0
    3.9047    0.1049   -0.0169 C   0  0  0  0  0  0  0  0  0  0  0  0
    3.2072   -0.0846   -1.2099 C   0  0  0  0  0  0  0  0  0  0  0  0
    3.2072    0.3101    1.1736 C   0  0  0  0  0  0  0  0  0  0  0  0
   -6.4846    0.8839   -0.1468 C   0  0  0  0  0  0  0  0  0  0  0  0
    6.0417   -0.7138   -0.9776 C   0  0  0  0  0  0  0  0  0  0  0  0
    6.0562    0.8843    0.9444 C   0  0  0  0  0  0  0  0  0  0  0  0
  1  5  1  0
  1  6  1  0
  2  4  1  0
  2  5  2  0
  2 10  1  0
  3 15  1  0
  3 19  1  0
  3 20  1  0
  4  6  2  0
  4  8  1  0
  5  7  1  0
  6  9  1  0
  7 12  2  0
  7 13  1  0
  8 14  2  0
  9 11  2  0
 11 14  1  0
 11 18  1  0
 12 16  1  0
 13 17  2  0
 15 16  2  0
 15 17  1  0
M  CHG  1   2   1
M  END
>  <PUBCHEM_COMPOUND_CID>  (1) 
16954

>  <PUBCHEM_CONFORMER_RMSD>  (1) 
0.6

>  <PUBCHEM_CONFORMER_DIVERSEORDER>  (1) 
1
2

>  <PUBCHEM_MMFF94_PARTIAL_CHARGES>  (1) 
27
1 -0.08
10 0.51
11 -0.14
12 -0.15
13 -0.15
14 -0.15
15 0.1
16 -0.15
17 -0.15
18 0.14
19 0.37
2 -0.18
20 0.37
21 0.15
22 0.15
26 0.15
27 0.15
28 0.15
29 0.15
3 -0.84
30 0.15
4 0.33
5 0.32
6 0.04
7 0.05
8 -0.15
9 -0.15

>  <PUBCHEM_EFFECTIVE_ROTOR_COUNT>  (1) 
2

>  <PUBCHEM_PHARMACOPHORE_FEATURES>  (1) 
4
1 3 cation
5 1 2 4 5 6 rings
6 4 6 8 9 11 14 rings
6 7 12 13 15 16 17 rings

>  <PUBCHEM_HEAVY_ATOM_COUNT>  (1) 
20

>  <PUBCHEM_ATOM_DEF_STEREO_COUNT>  (1) 
0

>  <PUBCHEM_ATOM_UDEF_STEREO_COUNT>  (1) 
0

>  <PUBCHEM_BOND_DEF_STEREO_COUNT>  (1) 
0

>  <PUBCHEM_BOND_UDEF_STEREO_COUNT>  (1) 
0

>  <PUBCHEM_ISOTOPIC_ATOM_COUNT>  (1) 
0

>  <PUBCHEM_COMPONENT_COUNT>  (1) 
1

>  <PUBCHEM_CACTVS_TAUTO_COUNT>  (1) 
1

>  <PUBCHEM_CONFORMER_ID>  (1) 
0000423A00000001

>  <PUBCHEM_MMFF94_ENERGY>  (1) 
70.6469

>  <PUBCHEM_FEATURE_SELFOVERLAP>  (1) 
20.367

>  <PUBCHEM_SHAPE_FINGERPRINT>  (1) 
10 15 18130776898562794336
10354089 29 16587744231002308936
11315181 36 18343308075698932776
11796584 16 18412548717353618698
12107183 9 17102257200911338824
12236239 1 17385443232489123460
12390115 104 18197221352360185937
12403259 415 18340759381992054121
12616971 3 16950287333826461431
13140716 1 18263367052937774961
13288520 33 18409169913435378213
13533116 47 18338796702866844474
14251764 18 17458345243542410715
14386348 63 18060142045909763270
14573314 32 18343305838389970294
15042514 8 18191874633393672179
19489759 90 18408604760147929177
200 152 15791727507695981045
20279233 1 17989213650197607807
20612939 158 14476951328723025930
20645477 70 16845016706270199662
20681677 155 18113898290294027866
21033648 29 17560505240417691696
21267235 1 18335145341026041843
21641784 216 13840550593338369342
220451 1 16877943840937472674
2297311 6 18411144623112462005
23035841 295 18259703380475769570
23175994 123 17561085821254015496
23402539 116 18411415133179902639
23536379 177 18334576828620175002
23557571 272 18342181020715224676
23559900 14 18341611550974755824
26918003 58 16630528448842369063
2916195 48 18272364295587976784
300161 21 17894904127199669529
3004659 81 18114187441047157420
335352 9 18335420175967398029
34797466 226 18340499949641873996
351380 180 18272650164453088684
3545911 37 18409167693042807111
4340502 62 18412256234607408434
474 4 16517105131771848860
5104073 3 18263932042763123219
5385378 56 18264776463488244091
542803 24 17240483610887919812
59755656 215 18410577240795275246
59755656 520 18409724063064717983
67856867 119 17969226809796778284
8272917 22 16515679996923920891

>  <PUBCHEM_SHAPE_MULTIPOLES>  (1) 
405.48
14.56
1.46
1.02
4.06
0.39
0.02
-1.88
0.3
-1.3
-0.09
1.26
-0.03
0.86

>  <PUBCHEM_SHAPE_SELFOVERLAP>  (1) 
869.699

>  <PUBCHEM_SHAPE_VOLUME>  (1) 
230.1

>  <PUBCHEM_COORDINATE_TYPE>  (1) 
2
5
10

$$$$
