16952
     RDKit          3D

 12 12  0  0  0  0  0  0  0  0999 V2000
    2.8874    0.2963   -0.0806 C   0  0  0  0  0  0  0  0  0  0  0  0
    1.3990    0.2062   -0.0516 C   0  0  0  0  0  0  0  0  0  0  0  0
    3.5128   -0.6288   -1.1416 C   0  0  0  0  0  0  0  0  0  0  0  0
    3.5214    0.0162    1.2952 C   0  0  0  0  0  0  0  0  0  0  0  0
    0.6266    1.3298   -0.3461 C   0  0  0  0  0  0  0  0  0  0  0  0
    0.7793   -1.0017    0.2692 C   0  0  0  0  0  0  0  0  0  0  0  0
   -1.3852    0.0380    0.0009 C   0  0  0  0  0  0  0  0  0  0  0  0
   -0.7655    1.2457   -0.3198 C   0  0  0  0  0  0  0  0  0  0  0  0
   -0.6129   -1.0857    0.2954 C   0  0  0  0  0  0  0  0  0  0  0  0
   -2.8368   -0.0498    0.0275 C   0  0  0  0  0  0  0  0  0  0  0  0
   -3.5003   -1.3778   -0.2904 C   0  0  0  0  0  0  0  0  0  0  0  0
   -3.6259    1.0116    0.3419 C   0  0  0  0  0  0  0  0  0  0  0  0
  1  2  1  0
  1  3  1  0
  1  4  1  0
  2  5  2  0
  2  6  1  0
  5  8  1  0
  6  9  2  0
  7  8  2  0
  7  9  1  0
  7 10  1  0
 10 11  1  0
 10 12  2  0
M  END
>  <PUBCHEM_COMPOUND_CID>  (1) 
16952

>  <PUBCHEM_CONFORMER_RMSD>  (1) 
0.6

>  <PUBCHEM_CONFORMER_DIVERSEORDER>  (1) 
1
2

>  <PUBCHEM_MMFF94_PARTIAL_CHARGES>  (1) 
16
1 0.14
10 -0.17
11 0.14
12 -0.3
2 -0.14
20 0.15
21 0.15
22 0.15
23 0.15
27 0.15
28 0.15
5 -0.15
6 -0.15
7 0.03
8 -0.15
9 -0.15

>  <PUBCHEM_EFFECTIVE_ROTOR_COUNT>  (1) 
2

>  <PUBCHEM_PHARMACOPHORE_FEATURES>  (1) 
2
3 1 3 4 hydrophobe
6 2 5 6 7 8 9 rings

>  <PUBCHEM_HEAVY_ATOM_COUNT>  (1) 
12

>  <PUBCHEM_ATOM_DEF_STEREO_COUNT>  (1) 
0

>  <PUBCHEM_ATOM_UDEF_STEREO_COUNT>  (1) 
0

>  <PUBCHEM_BOND_DEF_STEREO_COUNT>  (1) 
0

>  <PUBCHEM_BOND_UDEF_STEREO_COUNT>  (1) 
0

>  <PUBCHEM_ISOTOPIC_ATOM_COUNT>  (1) 
0

>  <PUBCHEM_COMPONENT_COUNT>  (1) 
1

>  <PUBCHEM_CACTVS_TAUTO_COUNT>  (1) 
1

>  <PUBCHEM_CONFORMER_ID>  (1) 
0000423800000001

>  <PUBCHEM_MMFF94_ENERGY>  (1) 
34.3228

>  <PUBCHEM_FEATURE_SELFOVERLAP>  (1) 
10.148

>  <PUBCHEM_SHAPE_FINGERPRINT>  (1) 
10130415 120 17967529086449216600
10219947 1 16081088177448050334
11062470 55 15698000738476647201
11132069 177 18411415094519954377
11401426 45 18335410279592451933
12032990 46 18410582807098926551
12932764 1 17603299366857650605
13296908 3 18060139842470221094
13760787 19 16588032311369721867
13760787 5 17458063759189872782
14144814 61 18259702311065868611
14289901 80 16845283986037267467
14325111 11 18411139155703308213
14993402 34 18040438818904149166
16945 1 18187363224823894357
18175812 5 17917993866929768900
18186145 218 18413108342331829300
19026448 4 17275105028628129891
19026448 5 15791732996658799989
193761 8 17614276663316040917
20281407 28 18410858741578179992
20281475 54 18186521003233292235
20645476 183 17023481840257620402
21501925 9 18338507659539988553
23380061 330 18410852187621629655
23402539 116 18410284805446529894
23402655 69 18192695779964680445
23463225 33 18113612353083517274
23559900 14 18342742897506460070
2748010 2 17972887143833849617
369184 2 16415759725955174380
449060 50 17346312760750531992
528886 8 18408882923741713083
57812782 119 17917990594180500353
7364860 26 18125163989738678580

>  <PUBCHEM_SHAPE_MULTIPOLES>  (1) 
246.95
6.65
1.36
0.91
0.18
0.02
-0.06
-0.7
-0.19
0.72
0.1
-0.82
-0.06
-0.01

>  <PUBCHEM_SHAPE_SELFOVERLAP>  (1) 
502.867

>  <PUBCHEM_SHAPE_VOLUME>  (1) 
140.2

>  <PUBCHEM_COORDINATE_TYPE>  (1) 
2
5
10

$$$$
