16964
     RDKit          3D

 35 39  0  0  1  0  0  0  0  0999 V2000
    4.8842   -2.9661   -0.7245 Cl  0  0  0  0  0  0  0  0  0  0  0  0
    1.8562    0.1799    1.2774 F   0  0  0  0  0  0  0  0  0  0  0  0
   -2.4558   -0.9558    1.1375 O   0  0  0  0  0  0  0  0  0  0  0  0
   -2.5935   -3.1449    0.2934 O   0  0  0  0  0  0  0  0  0  0  0  0
    0.9920    2.7153    0.6591 O   0  0  0  0  0  0  0  0  0  0  0  0
   -4.3837   -0.8470   -1.4978 O   0  0  0  0  0  0  0  0  0  0  0  0
   -5.2438    1.4409   -0.2227 O   0  0  0  0  0  0  0  0  0  0  0  0
    7.0364    1.1252    1.5578 O   0  0  0  0  0  0  0  0  0  0  0  0
   -4.8317    3.6163    0.4370 O   0  0  0  0  0  0  0  0  0  0  0  0
   -1.0514   -0.1192   -0.7180 C   0  0  0  0  0  0  0  0  0  0  0  0
    0.0061   -1.1980   -0.3939 C   0  0  0  0  0  0  0  0  0  0  0  0
    1.4245   -0.7938   -0.8184 C   0  0  0  0  0  0  0  0  0  0  0  0
   -2.3347   -0.8647   -0.2797 C   0  0  0  0  0  0  0  0  0  0  0  0
    1.8467    0.5101   -0.0642 C   0  0  0  0  0  0  0  0  0  0  0  0
   -0.6047   -2.4805   -0.9658 C   0  0  0  0  0  0  0  0  0  0  0  0
   -2.1235   -2.3030   -0.7554 C   0  0  0  0  0  0  0  0  0  0  0  0
   -0.6807    1.1253    0.0938 C   0  0  0  0  0  0  0  0  0  0  0  0
    0.7505    1.6148   -0.2148 C   0  0  0  0  0  0  0  0  0  0  0  0
    3.3310    0.9532   -0.4223 C   0  0  0  0  0  0  0  0  0  0  0  0
    2.4175   -1.9256   -0.5322 C   0  0  0  0  0  0  0  0  0  0  0  0
   -1.1303    0.2387   -2.2270 C   0  0  0  0  0  0  0  0  0  0  0  0
    4.2951   -0.2566   -0.2754 C   0  0  0  0  0  0  0  0  0  0  0  0
    3.8286   -1.5367   -0.9605 C   0  0  0  0  0  0  0  0  0  0  0  0
   -3.6028   -0.2321   -0.7731 C   0  0  0  0  0  0  0  0  0  0  0  0
   -2.8031   -2.3115    1.4352 C   0  0  0  0  0  0  0  0  0  0  0  0
    3.7731    2.1084    0.5264 C   0  0  0  0  0  0  0  0  0  0  0  0
    3.4253    1.4670   -1.8795 C   0  0  0  0  0  0  0  0  0  0  0  0
    5.2686    2.3680    0.5387 C   0  0  0  0  0  0  0  0  0  0  0  0
    5.4720   -0.1702    0.3747 C   0  0  0  0  0  0  0  0  0  0  0  0
   -3.8580    1.1927   -0.3295 C   0  0  0  0  0  0  0  0  0  0  0  0
   -4.2775   -2.3796    1.8225 C   0  0  0  0  0  0  0  0  0  0  0  0
   -1.9279   -2.8052    2.5807 C   0  0  0  0  0  0  0  0  0  0  0  0
    5.9949    1.1094    0.9052 C   0  0  0  0  0  0  0  0  0  0  0  0
   -5.6035    2.7040    0.1736 C   0  0  0  0  0  0  0  0  0  0  0  0
   -7.0960    2.8212    0.2418 C   0  0  0  0  0  0  0  0  0  0  0  0
  1 23  1  0
  2 14  1  0
  3 13  1  0
  3 25  1  0
  4 16  1  0
  4 25  1  0
  5 18  1  0
  6 24  2  0
  7 30  1  0
  7 34  1  0
  8 33  2  0
  9 34  2  0
 10 11  1  0
 10 13  1  0
 10 17  1  0
 10 21  1  0
 11 12  1  0
 11 15  1  0
 12 14  1  0
 12 20  1  0
 13 16  1  0
 13 24  1  0
 14 18  1  0
 14 19  1  0
 15 16  1  0
 17 18  1  0
 19 22  1  0
 19 26  1  0
 19 27  1  0
 20 23  1  0
 22 23  1  0
 22 29  2  0
 24 30  1  0
 25 31  1  0
 25 32  1  0
 26 28  1  0
 28 33  1  0
 29 33  1  0
 34 35  1  0
M  END
>  <PUBCHEM_COMPOUND_CID>  (1) 
16964

>  <PUBCHEM_CONFORMER_RMSD>  (1) 
1

>  <PUBCHEM_CONFORMER_DIVERSEORDER>  (1) 
1
67
40
93
62
66
133
112
134
72
81
70
141
33
85
88
124
118
140
80
23
132
24
121
20
2
18
27
125
135
55
106
95
96
45
102
127
11
61
39
56
49
57
90
117
17
119
51
79
94
32
113
129
74
29
115
120
75
22
15
71
35
76
14
84
87
130
53
98
100
82
64
136
7
10
68
65
103
30
92
142
6
59
137
104
111
38
78
9
3
50
43
58
21
28
114
99
47
97
13
77
12
26
143
128
89
52
105
60
42
19
138
31
73
41
86
131
107
5
126
110
116
63
8
25
16
108
36
44
37
54
34
48
83
69
4
46
101
91
109
139
122
123

>  <PUBCHEM_MMFF94_PARTIAL_CHARGES>  (1) 
26
1 -0.29
13 0.34
14 0.34
16 0.28
18 0.28
19 0.14
2 -0.34
22 -0.28
23 0.43
24 0.45
25 0.56
28 0.06
29 -0.14
3 -0.56
30 0.34
33 0.49
34 0.66
35 0.06
4 -0.56
5 -0.68
55 0.4
58 0.15
6 -0.57
7 -0.43
8 -0.57
9 -0.57

>  <PUBCHEM_EFFECTIVE_ROTOR_COUNT>  (1) 
6

>  <PUBCHEM_PHARMACOPHORE_FEATURES>  (1) 
13
1 3 acceptor
1 4 acceptor
1 5 acceptor
1 5 donor
1 6 acceptor
1 8 acceptor
1 9 acceptor
3 25 31 32 hydrophobe
5 10 11 13 15 16 rings
5 3 4 13 16 25 rings
6 10 11 12 14 17 18 rings
6 12 14 19 20 22 23 rings
6 19 22 26 28 29 33 rings

>  <PUBCHEM_HEAVY_ATOM_COUNT>  (1) 
35

>  <PUBCHEM_ATOM_DEF_STEREO_COUNT>  (1) 
4

>  <PUBCHEM_ATOM_UDEF_STEREO_COUNT>  (1) 
5

>  <PUBCHEM_BOND_DEF_STEREO_COUNT>  (1) 
0

>  <PUBCHEM_BOND_UDEF_STEREO_COUNT>  (1) 
0

>  <PUBCHEM_ISOTOPIC_ATOM_COUNT>  (1) 
0

>  <PUBCHEM_COMPONENT_COUNT>  (1) 
1

>  <PUBCHEM_CACTVS_TAUTO_COUNT>  (1) 
4

>  <PUBCHEM_CONFORMER_ID>  (1) 
0000424400000001

>  <PUBCHEM_MMFF94_ENERGY>  (1) 
117.0479

>  <PUBCHEM_FEATURE_SELFOVERLAP>  (1) 
66.729

>  <PUBCHEM_SHAPE_FINGERPRINT>  (1) 
10675989 125 17764590911162202513
10906281 52 18341339906967208821
11370993 144 18409166597525680966
11405975 8 18113900493917939004
11763715 3 17617108340140449863
12422481 6 18187654599816390572
12633257 1 17458339766768362852
13140716 1 18269003007290836546
13224815 77 18267307706495306182
13583140 156 17845651598333423014
13726171 33 17898033419203401364
14020679 6 18113340816708739241
14790565 3 18198626527819394541
15238133 3 18409733954231910980
15361156 5 18410017624215919892
15788980 27 18189046667958668574
15799311 1 16008750221125412690
15840311 113 18198626541084124621
16112460 7 18129389193949689481
17349148 13 13686300196595941324
18608769 82 18342737460294147387
19301679 30 17899435339605303787
20511986 3 17489293205750681190
20715895 44 18342456993769984372
21033648 29 18341894099534944043
21279426 13 18270120098029734589
21421861 104 18115574947512232858
21859007 373 17752191799870905700
22122407 14 17989489636222412992
23522609 53 17241066369753283332
23559900 14 18187654578985645662
244849 19 18127436504580468703
2838139 119 18057882451385115965
335352 9 18269276764047786718
3383291 50 18187086200235825499
350125 39 18268432326327847508
3633792 109 16128380307141761380
392239 28 17915736682102729504
4015057 19 18342162406258015269
4073 2 18335422383131967658
4144715 1 18336557083042438058
460360 51 18341348746289244668
5081480 168 17129057982006834414
5104073 3 18333729113545043866
5265222 85 17980204403483644164
563151 248 16877666760071093513
57527293 21 17313105289267626396
57527573 199 18339931403198710245
6009941 240 18334857216785810064
6086070 43 16917058975859637896
6371380 46 18190750721470826150
9981440 41 18412827993122204267

>  <PUBCHEM_SHAPE_MULTIPOLES>  (1) 
673.79
14.39
3.94
1.62
0.87
0.04
-0.28
-9.64
-3.46
-3.52
-1.04
-0.26
0.8
1.97

>  <PUBCHEM_SHAPE_SELFOVERLAP>  (1) 
1451.068

>  <PUBCHEM_SHAPE_VOLUME>  (1) 
377.3

>  <PUBCHEM_COORDINATE_TYPE>  (1) 
2
5
10

$$$$
