16969
     RDKit          3D

  9  8  0  0  0  0  0  0  0  0999 V2000
   -0.0003    0.7455    0.0191 C   0  0  0  0  0  0  0  0  0  0  0  0
    1.2645   -0.1211    0.0106 C   0  0  0  0  0  0  0  0  0  0  0  0
   -1.2644   -0.1212   -0.0180 C   0  0  0  0  0  0  0  0  0  0  0  0
    2.5516    0.7056    0.0216 C   0  0  0  0  0  0  0  0  0  0  0  0
   -2.5516    0.7051   -0.0361 C   0  0  0  0  0  0  0  0  0  0  0  0
    3.7562   -0.1363   -0.0003 C   0  0  0  0  0  0  0  0  0  0  0  0
   -3.7560   -0.1365   -0.0034 C   0  0  0  0  0  0  0  0  0  0  0  0
    4.7422   -0.8208   -0.0173 C   0  0  0  0  0  0  0  0  0  0  0  0
   -4.7423   -0.8204    0.0238 C   0  0  0  0  0  0  0  0  0  0  0  0
  1  2  1  0
  1  3  1  0
  2  4  1  0
  3  5  1  0
  4  6  1  0
  5  7  1  0
  6  8  3  0
  7  9  3  0
M  END
>  <PUBCHEM_COMPOUND_CID>  (1) 
16969

>  <PUBCHEM_CONFORMER_RMSD>  (1) 
0.6

>  <PUBCHEM_CONFORMER_DIVERSEORDER>  (1) 
1
4
25
5
3
24
21
26
8
19
15
7
6
22
10
20
13
14
23
16
2
9
17
18
11
12

>  <PUBCHEM_MMFF94_PARTIAL_CHARGES>  (1) 
8
20 0.18
21 0.18
4 0.2
5 0.2
6 -0.2
7 -0.2
8 -0.18
9 -0.18

>  <PUBCHEM_EFFECTIVE_ROTOR_COUNT>  (1) 
4

>  <PUBCHEM_PHARMACOPHORE_FEATURES>  (1) 
2
1 8 hydrophobe
1 9 hydrophobe

>  <PUBCHEM_HEAVY_ATOM_COUNT>  (1) 
9

>  <PUBCHEM_ATOM_DEF_STEREO_COUNT>  (1) 
0

>  <PUBCHEM_ATOM_UDEF_STEREO_COUNT>  (1) 
0

>  <PUBCHEM_BOND_DEF_STEREO_COUNT>  (1) 
0

>  <PUBCHEM_BOND_UDEF_STEREO_COUNT>  (1) 
0

>  <PUBCHEM_ISOTOPIC_ATOM_COUNT>  (1) 
0

>  <PUBCHEM_COMPONENT_COUNT>  (1) 
1

>  <PUBCHEM_CACTVS_TAUTO_COUNT>  (1) 
1

>  <PUBCHEM_CONFORMER_ID>  (1) 
0000424900000001

>  <PUBCHEM_MMFF94_ENERGY>  (1) 
0.7968

>  <PUBCHEM_FEATURE_SELFOVERLAP>  (1) 
10.149

>  <PUBCHEM_SHAPE_FINGERPRINT>  (1) 
11987891 38 18410295800162277018
13690532 89 18408604759900015826
14123238 8 17917711314063946740
14252887 29 17275111600482136926
14455015 7 18409456877069427139
177051 138 18411419501346213132
17834072 33 18335143137206522884
17834076 25 7997971275527161551
18342897 14 10375869675545164498
1986462 14 18334012752974157957
20605781 2 8430313536935525558
20645477 70 18334576803114608874
20719005 15 18410855464486504070
20767249 213 10375871875227738179
20828058 44 16128653076409426607
21119208 17 15719393940455236227
22485316 2 18410852161593369415
23402539 116 17917987270350755493
23402655 69 11891330954524013874
42 15 18202566167901098868
42788 4 18410573985151535596

>  <PUBCHEM_SHAPE_MULTIPOLES>  (1) 
185.22
10.55
0.95
0.62
0
0
0
-3.55
0
0
0
0
0
0.03

>  <PUBCHEM_SHAPE_SELFOVERLAP>  (1) 
334.064

>  <PUBCHEM_SHAPE_VOLUME>  (1) 
117.5

>  <PUBCHEM_COORDINATE_TYPE>  (1) 
2
5
10

$$$$
