16967
     RDKit          3D

 11 10  0  0  1  0  0  0  0  0999 V2000
   -0.0427    0.5055    0.3884 O   0  0  0  0  0  0  0  0  0  0  0  0
    3.6829   -1.4451   -0.1884 O   0  0  0  0  0  0  0  0  0  0  0  0
   -3.8101    0.1650    0.2158 C   0  0  0  0  0  0  0  0  0  0  0  0
   -2.4185    0.6522    0.6505 C   0  0  0  0  0  0  0  0  0  0  0  0
   -1.2729   -0.0055   -0.1095 C   0  0  0  0  0  0  0  0  0  0  0  0
    2.3513    0.5184    0.2977 C   0  0  0  0  0  0  0  0  0  0  0  0
    1.0699   -0.0704   -0.2819 C   0  0  0  0  0  0  0  0  0  0  0  0
    3.6058   -0.0351   -0.3801 C   0  0  0  0  0  0  0  0  0  0  0  0
   -4.0110    0.4317   -1.2778 C   0  0  0  0  0  0  0  0  0  0  0  0
   -4.0250   -1.3206    0.5086 C   0  0  0  0  0  0  0  0  0  0  0  0
    4.8705    0.6040    0.1767 C   0  0  0  0  0  0  0  0  0  0  0  0
  1  5  1  0
  1  7  1  0
  2  8  1  0
  3  4  1  0
  3  9  1  0
  3 10  1  0
  4  5  1  0
  6  7  1  0
  6  8  1  0
  8 11  1  0
M  END
>  <PUBCHEM_COMPOUND_CID>  (1) 
16967

>  <PUBCHEM_CONFORMER_RMSD>  (1) 
0.6

>  <PUBCHEM_CONFORMER_DIVERSEORDER>  (1) 
1
88
72
30
40
66
77
43
16
64
102
2
36
81
90
5
37
19
85
108
68
67
4
57
45
93
17
78
94
6
13
117
49
7
91
20
22
86
89
115
53
95
59
60
71
58
14
120
46
105
99
106
111
97
23
101
83
28
110
98
92
26
33
15
82
79
113
55
65
29
42
3
52
104
109
61
70
118
27
114
62
54
84
80
35
116
18
21
8
9
112
75
73
10
31
44
119
24
74
107
39
11
87
47
50
76
32
34
48
25
38
63
51
56
69
41
96
103
100
12

>  <PUBCHEM_MMFF94_PARTIAL_CHARGES>  (1) 
6
1 -0.56
2 -0.68
31 0.4
5 0.28
7 0.28
8 0.28

>  <PUBCHEM_EFFECTIVE_ROTOR_COUNT>  (1) 
6

>  <PUBCHEM_PHARMACOPHORE_FEATURES>  (1) 
4
1 1 acceptor
1 2 acceptor
1 2 donor
3 3 9 10 hydrophobe

>  <PUBCHEM_HEAVY_ATOM_COUNT>  (1) 
11

>  <PUBCHEM_ATOM_DEF_STEREO_COUNT>  (1) 
0

>  <PUBCHEM_ATOM_UDEF_STEREO_COUNT>  (1) 
1

>  <PUBCHEM_BOND_DEF_STEREO_COUNT>  (1) 
0

>  <PUBCHEM_BOND_UDEF_STEREO_COUNT>  (1) 
0

>  <PUBCHEM_ISOTOPIC_ATOM_COUNT>  (1) 
0

>  <PUBCHEM_COMPONENT_COUNT>  (1) 
1

>  <PUBCHEM_CACTVS_TAUTO_COUNT>  (1) 
1

>  <PUBCHEM_CONFORMER_ID>  (1) 
0000424700000001

>  <PUBCHEM_MMFF94_ENERGY>  (1) 
13.2312

>  <PUBCHEM_FEATURE_SELFOVERLAP>  (1) 
20.297

>  <PUBCHEM_SHAPE_FINGERPRINT>  (1) 
10680689 15 17458350732157303953
11062470 55 11169913891902034864
114248 4 18334015016448088664
11987891 27 17774999072670678380
11987891 38 18413111645230381626
14123238 8 17418374705416263656
14251718 22 18186804728988903368
14252887 29 17274832341782260950
17834072 33 18261397809904895380
190213 19 18408324384398016164
1986462 14 17894914027347206679
200 152 17774996891323268021
20279233 1 17530689805466832170
20645477 56 17821723898095026805
20645477 70 18338518543457160686
20671657 1 15409751769337834305
20828058 21 17385725798313693734
22485316 2 18187081745631428714
23402539 116 16805597083809944358
449060 50 18340207487732475260

>  <PUBCHEM_SHAPE_MULTIPOLES>  (1) 
214.64
10.89
1.05
0.87
4
0.37
0.14
0.78
0.65
-0.15
-0.03
-0.66
-0.1
0.57

>  <PUBCHEM_SHAPE_SELFOVERLAP>  (1) 
385.674

>  <PUBCHEM_SHAPE_VOLUME>  (1) 
139.7

>  <PUBCHEM_COORDINATE_TYPE>  (1) 
2
5
10

$$$$
