16976
     RDKit          3D

 10 10  0  0  0  0  0  0  0  0999 V2000
   -2.5285    1.5308   -0.0001 O   0  0  0  0  0  0  0  0  0  0  0  0
    2.2351    1.5212   -0.0005 O   0  0  0  0  0  0  0  0  0  0  0  0
    2.9209   -0.6459    0.0003 O   0  0  0  0  0  0  0  0  0  0  0  0
   -1.6706    0.5734    0.0003 N   0  0  0  0  0  0  0  0  0  0  0  0
    0.5830   -0.1379    0.0000 C   0  0  0  0  0  0  0  0  0  0  0  0
   -0.3651    0.8754    0.0000 C   0  0  0  0  0  0  0  0  0  0  0  0
    0.1505   -1.4606   -0.0004 C   0  0  0  0  0  0  0  0  0  0  0  0
   -1.2116   -1.7449   -0.0003 C   0  0  0  0  0  0  0  0  0  0  0  0
   -2.1143   -0.6911    0.0003 C   0  0  0  0  0  0  0  0  0  0  0  0
    2.0006    0.1796    0.0003 C   0  0  0  0  0  0  0  0  0  0  0  0
  1  4  1  0
  2 10  1  0
  3 10  2  0
  4  6  2  0
  4  9  1  0
  5  6  1  0
  5  7  2  0
  5 10  1  0
  7  8  1  0
  8  9  2  0
M  CHG  2   1  -1   4   1
M  END
>  <PUBCHEM_COMPOUND_CID>  (1) 
16976

>  <PUBCHEM_CONFORMER_RMSD>  (1) 
0.4

>  <PUBCHEM_CONFORMER_DIVERSEORDER>  (1) 
1
2

>  <PUBCHEM_MMFF94_PARTIAL_CHARGES>  (1) 
15
1 -0.75
10 0.63
11 0.15
12 0.15
13 0.15
14 0.15
15 0.5
2 -0.65
3 -0.57
4 0.57
5 0.09
6 -0.06
7 -0.15
8 -0.15
9 -0.06

>  <PUBCHEM_EFFECTIVE_ROTOR_COUNT>  (1) 
1

>  <PUBCHEM_PHARMACOPHORE_FEATURES>  (1) 
5
1 1 anion
1 2 acceptor
1 3 acceptor
3 2 3 10 anion
6 4 5 6 7 8 9 rings

>  <PUBCHEM_HEAVY_ATOM_COUNT>  (1) 
10

>  <PUBCHEM_ATOM_DEF_STEREO_COUNT>  (1) 
0

>  <PUBCHEM_ATOM_UDEF_STEREO_COUNT>  (1) 
0

>  <PUBCHEM_BOND_DEF_STEREO_COUNT>  (1) 
0

>  <PUBCHEM_BOND_UDEF_STEREO_COUNT>  (1) 
0

>  <PUBCHEM_ISOTOPIC_ATOM_COUNT>  (1) 
0

>  <PUBCHEM_COMPONENT_COUNT>  (1) 
1

>  <PUBCHEM_CACTVS_TAUTO_COUNT>  (1) 
1

>  <PUBCHEM_CONFORMER_ID>  (1) 
0000425000000001

>  <PUBCHEM_MMFF94_ENERGY>  (1) 
28.152

>  <PUBCHEM_FEATURE_SELFOVERLAP>  (1) 
25.429

>  <PUBCHEM_SHAPE_FINGERPRINT>  (1) 
12897270 3 18122908887099748364
14325111 11 18410575084747624352
16945 1 18410575050319372675
193761 8 14735918602502086310
19973954 147 18338518654783035660
20653085 51 18338248097491735896
20871998 184 18128543858306765439
21040471 1 18410573950865630759
23235685 24 18339637820091454897
23552423 10 18188771768276363654
2748010 2 18410856594015384836
369184 2 18342175621677121570
5084963 1 18273495688715565458

>  <PUBCHEM_SHAPE_MULTIPOLES>  (1) 
183.21
3.59
1.73
0.58
1.29
0.04
0
-0.67
0
-0.56
0
-0.01
0.03
0

>  <PUBCHEM_SHAPE_SELFOVERLAP>  (1) 
387.082

>  <PUBCHEM_SHAPE_VOLUME>  (1) 
103.7

>  <PUBCHEM_COORDINATE_TYPE>  (1) 
2
5
10

$$$$
