16988
     RDKit          3D

  8  8  0  0  0  0  0  0  0  0999 V2000
    2.0250    1.5930   -0.0004 Cl  0  0  0  0  0  0  0  0  0  0  0  0
    1.9019   -1.6698    0.0001 Cl  0  0  0  0  0  0  0  0  0  0  0  0
   -0.6532   -1.3897   -0.0002 N   0  0  0  0  0  0  0  0  0  0  0  0
    0.5475    0.7086    0.0002 C   0  0  0  0  0  0  0  0  0  0  0  0
   -0.6557    1.4055    0.0003 C   0  0  0  0  0  0  0  0  0  0  0  0
   -1.8577    0.7063    0.0001 C   0  0  0  0  0  0  0  0  0  0  0  0
    0.4948   -0.6760    0.0002 C   0  0  0  0  0  0  0  0  0  0  0  0
   -1.8026   -0.6781   -0.0003 C   0  0  0  0  0  0  0  0  0  0  0  0
  1  4  1  0
  2  7  1  0
  3  7  2  0
  3  8  1  0
  4  5  2  0
  4  7  1  0
  5  6  1  0
  6  8  2  0
M  END
>  <PUBCHEM_COMPOUND_CID>  (1) 
16988

>  <PUBCHEM_CONFORMER_RMSD>  (1) 
0.4

>  <PUBCHEM_CONFORMER_DIVERSEORDER>  (1) 
1

>  <PUBCHEM_MMFF94_PARTIAL_CHARGES>  (1) 
11
1 -0.18
10 0.15
11 0.15
2 -0.18
3 -0.62
4 0.18
5 -0.15
6 -0.15
7 0.49
8 0.16
9 0.15

>  <PUBCHEM_EFFECTIVE_ROTOR_COUNT>  (1) 
0

>  <PUBCHEM_PHARMACOPHORE_FEATURES>  (1) 
2
1 3 acceptor
6 3 4 5 6 7 8 rings

>  <PUBCHEM_HEAVY_ATOM_COUNT>  (1) 
8

>  <PUBCHEM_ATOM_DEF_STEREO_COUNT>  (1) 
0

>  <PUBCHEM_ATOM_UDEF_STEREO_COUNT>  (1) 
0

>  <PUBCHEM_BOND_DEF_STEREO_COUNT>  (1) 
0

>  <PUBCHEM_BOND_UDEF_STEREO_COUNT>  (1) 
0

>  <PUBCHEM_ISOTOPIC_ATOM_COUNT>  (1) 
0

>  <PUBCHEM_COMPONENT_COUNT>  (1) 
1

>  <PUBCHEM_CACTVS_TAUTO_COUNT>  (1) 
1

>  <PUBCHEM_CONFORMER_ID>  (1) 
0000425C00000001

>  <PUBCHEM_MMFF94_ENERGY>  (1) 
15.8893

>  <PUBCHEM_FEATURE_SELFOVERLAP>  (1) 
10.148

>  <PUBCHEM_SHAPE_FINGERPRINT>  (1) 
16714656 1 17905611355988218188
18185500 45 18196086866127240687
21040471 1 18338516451296085701
23552423 10 18334579053075767086
2748010 2 18409449176387873933
29004967 10 18116440425786409121
5084963 1 18129653076591752555

>  <PUBCHEM_SHAPE_MULTIPOLES>  (1) 
163.39
2.68
2.02
0.62
0.19
0.01
0
-0.02
0
0.93
0
0.03
0.01
0

>  <PUBCHEM_SHAPE_SELFOVERLAP>  (1) 
319.849

>  <PUBCHEM_SHAPE_VOLUME>  (1) 
99

>  <PUBCHEM_COORDINATE_TYPE>  (1) 
2
5
10

$$$$
