16987
     RDKit          3D

 17 18  0  0  0  0  0  0  0  0999 V2000
   -1.9849   -2.5876   -0.0011 Cl  0  0  0  0  0  0  0  0  0  0  0  0
    0.5890    3.4940   -0.0012 O   0  0  0  0  0  0  0  0  0  0  0  0
    2.4899    2.3960    0.0003 O   0  0  0  0  0  0  0  0  0  0  0  0
   -3.5459    1.3579    0.0009 O   0  0  0  0  0  0  0  0  0  0  0  0
   -3.7392   -0.8288   -0.0002 O   0  0  0  0  0  0  0  0  0  0  0  0
    1.2384    2.4238   -0.0004 N   0  0  0  0  0  0  0  0  0  0  0  0
   -3.0419    0.2114    0.0003 N   0  0  0  0  0  0  0  0  0  0  0  0
    1.1828   -0.0518    0.0004 C   0  0  0  0  0  0  0  0  0  0  0  0
    0.4162   -1.2415    0.0002 C   0  0  0  0  0  0  0  0  0  0  0  0
    0.5250    1.1890    0.0005 C   0  0  0  0  0  0  0  0  0  0  0  0
   -0.9856   -1.1552    0.0000 C   0  0  0  0  0  0  0  0  0  0  0  0
   -1.6224    0.0861   -0.0001 C   0  0  0  0  0  0  0  0  0  0  0  0
   -0.8686    1.2560    0.0001 C   0  0  0  0  0  0  0  0  0  0  0  0
    2.5845   -0.1381    0.0004 C   0  0  0  0  0  0  0  0  0  0  0  0
    1.0739   -2.4823    0.0000 C   0  0  0  0  0  0  0  0  0  0  0  0
    3.2213   -1.3795    0.0001 C   0  0  0  0  0  0  0  0  0  0  0  0
    2.4674   -2.5494   -0.0001 C   0  0  0  0  0  0  0  0  0  0  0  0
  1 11  1  0
  2  6  1  0
  3  6  2  0
  4  7  1  0
  5  7  2  0
  6 10  1  0
  7 12  1  0
  8  9  1  0
  8 10  2  0
  8 14  1  0
  9 11  2  0
  9 15  1  0
 10 13  1  0
 11 12  1  0
 12 13  2  0
 14 16  2  0
 15 17  2  0
 16 17  1  0
M  CHG  4   2  -1   4  -1   6   1   7   1
M  END
>  <PUBCHEM_COMPOUND_CID>  (1) 
16987

>  <PUBCHEM_CONFORMER_RMSD>  (1) 
0.6

>  <PUBCHEM_CONFORMER_DIVERSEORDER>  (1) 
1

>  <PUBCHEM_MMFF94_PARTIAL_CHARGES>  (1) 
20
1 -0.18
10 0.13
11 0.18
12 0.13
13 -0.15
14 -0.15
15 -0.15
16 -0.15
17 -0.15
18 0.15
19 0.15
2 -0.52
20 0.15
21 0.15
22 0.15
3 -0.52
4 -0.52
5 -0.52
6 0.91
7 0.91

>  <PUBCHEM_EFFECTIVE_ROTOR_COUNT>  (1) 
2

>  <PUBCHEM_PHARMACOPHORE_FEATURES>  (1) 
8
1 2 acceptor
1 2 anion
1 3 acceptor
1 4 acceptor
1 4 anion
1 5 acceptor
6 8 9 10 11 12 13 rings
6 8 9 14 15 16 17 rings

>  <PUBCHEM_HEAVY_ATOM_COUNT>  (1) 
17

>  <PUBCHEM_ATOM_DEF_STEREO_COUNT>  (1) 
0

>  <PUBCHEM_ATOM_UDEF_STEREO_COUNT>  (1) 
0

>  <PUBCHEM_BOND_DEF_STEREO_COUNT>  (1) 
0

>  <PUBCHEM_BOND_UDEF_STEREO_COUNT>  (1) 
0

>  <PUBCHEM_ISOTOPIC_ATOM_COUNT>  (1) 
0

>  <PUBCHEM_COMPONENT_COUNT>  (1) 
1

>  <PUBCHEM_CACTVS_TAUTO_COUNT>  (1) 
1

>  <PUBCHEM_CONFORMER_ID>  (1) 
0000425B00000001

>  <PUBCHEM_MMFF94_ENERGY>  (1) 
85.5251

>  <PUBCHEM_FEATURE_SELFOVERLAP>  (1) 
40.787

>  <PUBCHEM_SHAPE_FINGERPRINT>  (1) 
10967382 1 18410855503130614758
11471102 20 18337947896642224535
11680986 33 18339361971537706978
12553582 1 18338798892682772454
13132413 78 18341612585882370244
13140716 1 18338796831055908962
13380535 76 18120649394751742130
13897977 150 18265612259211535775
14648413 74 18336828700963183131
14790565 3 18195547899593726564
15442244 35 18412263917575718739
16945 1 18410855451559514599
193761 8 18266458895881286375
19591789 44 17401774514851408738
20510252 161 17838048205065991234
20511035 2 18059001895190890046
20645477 70 18335974368218816839
21029758 11 18339635620946782693
21267235 1 18339370668831248063
21501502 16 18267020737965208455
221490 88 18336271240289611571
2334 1 18050567635999110658
23402539 116 18126551332715291990
23419403 2 14724018987412870227
23463225 33 18337954463478700710
23526114 1 18338518667709953780
2748010 2 18193277622476585086
3071541 12 18411141371948858324
3071541 158 18261674779060096404
3091708 16 9359272232731313184
335352 9 18266740190564108703
34934 24 18338227168285290674
350125 39 18121504823388092865
352729 6 17401203872774778732
43471831 8 17904759225913046626
54173680 148 17401767424213960810
589210 1 18266178520574426595
7364860 26 18339643446382392706
7832392 63 18412823573147007055
81228 2 17835812893346691272

>  <PUBCHEM_SHAPE_MULTIPOLES>  (1) 
318.28
4.89
3.58
0.59
2.37
1.67
0
-1.32
0
-1.17
0
-0.04
-0.06
0

>  <PUBCHEM_SHAPE_SELFOVERLAP>  (1) 
696.35

>  <PUBCHEM_SHAPE_VOLUME>  (1) 
173.6

>  <PUBCHEM_COORDINATE_TYPE>  (1) 
2
5
10

$$$$
