1698
     RDKit          3D

 16 15  0  0  0  0  0  0  0  0999 V2000
   -1.8168   -1.5246    0.0924 O   0  0  0  0  0  0  0  0  0  0  0  0
    1.9206    1.7378   -0.1088 O   0  0  0  0  0  0  0  0  0  0  0  0
   -6.7403   -0.8162   -0.1913 O   0  0  0  0  0  0  0  0  0  0  0  0
    6.8062    0.5105    0.0992 O   0  0  0  0  0  0  0  0  0  0  0  0
   -5.9558    1.2872    0.1409 O   0  0  0  0  0  0  0  0  0  0  0  0
    5.7771   -1.5179    0.0298 O   0  0  0  0  0  0  0  0  0  0  0  0
   -0.6377    0.5604   -0.0049 C   0  0  0  0  0  0  0  0  0  0  0  0
    0.6188   -0.2983   -0.0741 C   0  0  0  0  0  0  0  0  0  0  0  0
   -1.8887   -0.2952    0.0536 C   0  0  0  0  0  0  0  0  0  0  0  0
    1.9108    0.5085   -0.0809 C   0  0  0  0  0  0  0  0  0  0  0  0
   -3.2306    0.4100    0.1161 C   0  0  0  0  0  0  0  0  0  0  0  0
    3.1926   -0.3144   -0.0538 C   0  0  0  0  0  0  0  0  0  0  0  0
   -4.3874   -0.5764    0.0041 C   0  0  0  0  0  0  0  0  0  0  0  0
    4.4601    0.5355   -0.0530 C   0  0  0  0  0  0  0  0  0  0  0  0
   -5.7458    0.0909   -0.0004 C   0  0  0  0  0  0  0  0  0  0  0  0
    5.7169   -0.2977    0.0310 C   0  0  0  0  0  0  0  0  0  0  0  0
  1  9  2  0
  2 10  2  0
  3 15  1  0
  4 16  1  0
  5 15  2  0
  6 16  2  0
  7  8  1  0
  7  9  1  0
  8 10  1  0
  9 11  1  0
 10 12  1  0
 11 13  1  0
 12 14  1  0
 13 15  1  0
 14 16  1  0
M  END
>  <PUBCHEM_COMPOUND_CID>  (1) 
1698

>  <PUBCHEM_CONFORMER_RMSD>  (1) 
0.8

>  <PUBCHEM_CONFORMER_DIVERSEORDER>  (1) 
1
280
3
187
230
364
24
49
121
247
26
359
2
120
152
9
337
77
50
98
148
16
288
110
15
42
134
90
46
127
217
266
40
335
245
76
318
324
158
305
12
238
61
294
239
336
14
241
75
106
55
62
140
113
112
149
167
349
48
264
209
139
333
93
34
291
19
320
327
122
235
68
108
360
17
99
293
285
131
177
97
206
52
116
361
243
67
115
259
117
197
86
164
166
171
59
136
347
100
339
162
88
84
302
253
343
111
350
37
210
58
105
43
331
175
282
344
53
173
232
101
355
254
313
126
192
225
323
39
284
213
257
356
271
94
92
163
146
214
150
11
13
352
299
208
151
262
22
303
183
109
365
157
269
28
184
145
54
300
137
181
30
277
236
204
180
135
23
25
310
203
292
311
309
290
91
268
174
176
338
133
159
317
212
265
85
45
270
10
283
107
5
198
20
228
87
194
160
60
250
363
143
66
263
246
123
8
242
7
64
125
51
258
193
82
295
138
251
31
351
154
227
81
334
182
281
276
233
286
231
218
289
275
129
186
124
153
199
219
41
63
147
346
326
142
35
95
130
340
170
71
128
216
261
314
296
354
301
57
104
168
172
190
132
306
89
308
161
274
74
165
118
4
279
330
341
18
47
244
357
205
255
188
44
348
224
102
36
33
220
248
195
80
144
83
321
307
78
221
201
70
96
319
211
21
229
256
196
119
32
358
202
200
325
362
103
267
79
329
353
141
298
316
342
114
234
312
272
65
345
222
223
287
29
278
260
6
226
332
169
304
155
215
366
252
191
56
72
38
189
179
322
156
178
328
69
237
249
297
240
273
315
207
185
73
27

>  <PUBCHEM_MMFF94_PARTIAL_CHARGES>  (1) 
18
1 -0.57
10 0.45
11 0.06
12 0.06
13 0.06
14 0.06
15 0.66
16 0.66
2 -0.57
29 0.5
3 -0.65
30 0.5
4 -0.65
5 -0.57
6 -0.57
7 0.06
8 0.06
9 0.45

>  <PUBCHEM_EFFECTIVE_ROTOR_COUNT>  (1) 
9

>  <PUBCHEM_PHARMACOPHORE_FEATURES>  (1) 
8
1 1 acceptor
1 2 acceptor
1 3 acceptor
1 4 acceptor
1 5 acceptor
1 6 acceptor
3 3 5 15 anion
3 4 6 16 anion

>  <PUBCHEM_HEAVY_ATOM_COUNT>  (1) 
16

>  <PUBCHEM_ATOM_DEF_STEREO_COUNT>  (1) 
0

>  <PUBCHEM_ATOM_UDEF_STEREO_COUNT>  (1) 
0

>  <PUBCHEM_BOND_DEF_STEREO_COUNT>  (1) 
0

>  <PUBCHEM_BOND_UDEF_STEREO_COUNT>  (1) 
0

>  <PUBCHEM_ISOTOPIC_ATOM_COUNT>  (1) 
0

>  <PUBCHEM_COMPONENT_COUNT>  (1) 
1

>  <PUBCHEM_CACTVS_TAUTO_COUNT>  (1) 
6

>  <PUBCHEM_CONFORMER_ID>  (1) 
000006A200000001

>  <PUBCHEM_MMFF94_ENERGY>  (1) 
12.9351

>  <PUBCHEM_FEATURE_SELFOVERLAP>  (1) 
40.717

>  <PUBCHEM_SHAPE_FINGERPRINT>  (1) 
12091667 2 18342458149743590083
12236239 1 18411138034621781497
12815109 37 18413389839126033928
13533116 47 13686028557695771436
1420 363 15791735191292194720
14251752 14 18113893819433565005
14251764 18 18411138051886124796
14251764 46 17967250905912751915
17834072 8 18186517717941831431
17834076 25 18410573993741385735
18006028 8 18131069337836923032
19489759 90 16486978384310860259
20281389 69 18333730217161857821
20621476 8 18040997293934184125
20767249 213 12247677179986515730
21267235 1 18409454686609361961
220451 1 15140680284652930257
22224240 67 16630519644787069158
23035841 295 11241969287001291656
23218964 4 18408040706229644253
23402539 116 18202559588491392509
23521765 1 18341895198935613445
23536379 177 18411982451030576809
23559900 14 18342451599111634945
3545911 37 18412544318684037263
42788 4 18411419518520820549
4463277 17 18408604764474804844
59755656 215 18336267859939294606
59755656 520 18040149643821853131
8209 1 18410573993746666996

>  <PUBCHEM_SHAPE_MULTIPOLES>  (1) 
294.06
18.3
1.21
0.59
0.4
0.01
0
-1.33
-0.15
-0.14
0
0.01
0
-0.13

>  <PUBCHEM_SHAPE_SELFOVERLAP>  (1) 
567.497

>  <PUBCHEM_SHAPE_VOLUME>  (1) 
176.4

>  <PUBCHEM_COORDINATE_TYPE>  (1) 
2
5
10

$$$$
