1699
     RDKit          3D

 20 20  0  0  1  0  0  0  0  0999 V2000
   -1.1349    0.9778    0.5546 O   0  0  0  0  0  0  0  0  0  0  0  0
    0.9992    2.4126    1.2659 O   0  0  0  0  0  0  0  0  0  0  0  0
    3.6158    1.2174    1.2330 O   0  0  0  0  0  0  0  0  0  0  0  0
    1.4191   -3.4370   -0.2604 O   0  0  0  0  0  0  0  0  0  0  0  0
   -3.3619    1.9687    1.2750 O   0  0  0  0  0  0  0  0  0  0  0  0
   -4.6131    0.7110   -0.1683 O   0  0  0  0  0  0  0  0  0  0  0  0
    0.1272   -1.7180    0.6294 N   0  0  0  0  0  0  0  0  0  0  0  0
   -0.6409   -0.7296   -2.8593 N   0  0  0  0  0  0  0  0  0  0  0  0
    4.2258    1.6363   -1.5214 N   0  0  0  0  0  0  0  0  0  0  0  0
    0.1170    0.6593   -0.0779 C   0  0  0  0  0  0  0  0  0  0  0  0
    0.1840   -0.8203   -0.5105 C   0  0  0  0  0  0  0  0  0  0  0  0
    1.2354    1.0611    0.8795 C   0  0  0  0  0  0  0  0  0  0  0  0
   -0.9711   -1.1323   -1.4878 C   0  0  0  0  0  0  0  0  0  0  0  0
    2.6290    0.9107    0.2439 C   0  0  0  0  0  0  0  0  0  0  0  0
   -2.2381   -0.4492   -1.0496 C   0  0  0  0  0  0  0  0  0  0  0  0
   -2.2474    0.4906   -0.0913 C   0  0  0  0  0  0  0  0  0  0  0  0
    2.8885    1.8105   -0.9718 C   0  0  0  0  0  0  0  0  0  0  0  0
    0.7531   -2.9496    0.6493 C   0  0  0  0  0  0  0  0  0  0  0  0
   -3.5422    1.0439    0.3082 C   0  0  0  0  0  0  0  0  0  0  0  0
    0.5554   -3.6638    1.9594 C   0  0  0  0  0  0  0  0  0  0  0  0
  1 10  1  0
  1 16  1  0
  2 12  1  0
  3 14  1  0
  4 18  2  0
  5 19  1  0
  6 19  2  0
  7 11  1  0
  7 18  1  0
  8 13  1  0
  9 17  1  0
 10 11  1  0
 10 12  1  0
 11 13  1  0
 12 14  1  0
 13 15  1  0
 14 17  1  0
 15 16  2  0
 16 19  1  0
 18 20  1  0
M  END
>  <PUBCHEM_COMPOUND_CID>  (1) 
1699

>  <PUBCHEM_CONFORMER_RMSD>  (1) 
0.8

>  <PUBCHEM_CONFORMER_DIVERSEORDER>  (1) 
6
149
28
145
65
99
89
120
36
101
38
92
186
131
102
95
177
118
144
172
132
39
4
134
16
49
104
88
69
138
66
174
54
135
155
178
157
124
168
185
113
57
140
46
27
183
30
76
136
163
162
167
121
98
21
68
72
60
175
137
62
181
37
166
126
47
108
179
77
41
139
97
127
44
86
164
148
100
150
143
48
184
82
156
105
128
9
93
1
52
85
116
110
5
182
23
165
171
78
34
19
159
169
75
141
53
111
90
59
96
170
151
26
122
17
119
87
84
56
115
158
176
43
50
107
81
33
123
79
58
45
94
29
15
180
142
114
147
13
67
146
71
117
20
125
22
63
103
173
51
161
112
130
91
14
11
152
42
25
70
83
153
2
64
74
40
61
73
133
31
109
7
8
80
18
12
160
154
106
55
24
129
32
10
35
3

>  <PUBCHEM_MMFF94_PARTIAL_CHARGES>  (1) 
29
1 -0.36
10 0.28
11 0.3
12 0.28
13 0.41
14 0.28
15 -0.29
16 0.09
17 0.27
18 0.57
19 0.71
2 -0.68
20 0.06
26 0.15
27 0.37
3 -0.68
30 0.36
31 0.36
32 0.4
33 0.4
34 0.36
35 0.36
39 0.5
4 -0.57
5 -0.65
6 -0.57
7 -0.73
8 -0.99
9 -0.99

>  <PUBCHEM_EFFECTIVE_ROTOR_COUNT>  (1) 
6.8

>  <PUBCHEM_PHARMACOPHORE_FEATURES>  (1) 
15
1 1 acceptor
1 2 acceptor
1 2 donor
1 3 acceptor
1 3 donor
1 4 acceptor
1 5 acceptor
1 6 acceptor
1 7 donor
1 8 cation
1 8 donor
1 9 cation
1 9 donor
3 5 6 19 anion
6 1 10 11 13 15 16 rings

>  <PUBCHEM_HEAVY_ATOM_COUNT>  (1) 
20

>  <PUBCHEM_ATOM_DEF_STEREO_COUNT>  (1) 
0

>  <PUBCHEM_ATOM_UDEF_STEREO_COUNT>  (1) 
5

>  <PUBCHEM_BOND_DEF_STEREO_COUNT>  (1) 
0

>  <PUBCHEM_BOND_UDEF_STEREO_COUNT>  (1) 
0

>  <PUBCHEM_ISOTOPIC_ATOM_COUNT>  (1) 
0

>  <PUBCHEM_COMPONENT_COUNT>  (1) 
1

>  <PUBCHEM_CACTVS_TAUTO_COUNT>  (1) 
2

>  <PUBCHEM_CONFORMER_ID>  (1) 
000006A300000006

>  <PUBCHEM_MMFF94_ENERGY>  (1) 
36.4746

>  <PUBCHEM_FEATURE_SELFOVERLAP>  (1) 
76.21

>  <PUBCHEM_SHAPE_FINGERPRINT>  (1) 
10382601 240 18054251859304900817
107951 10 18265358238014097358
12173636 292 18119248604211634228
12532896 13 18198333146982037616
12592029 89 18412547604655759593
12644460 14 18128829551452485641
12788726 201 17834112331005525270
133893 2 17900786454084069918
14817 1 10840897647288070711
15309172 13 18041550446640026229
16945 1 18339350856283631565
19873495 37 18271806869104565613
200 152 12751254592235409268
20645476 183 18263088884500365188
20905425 154 17984145859445477676
21524375 3 18272369793399355509
22112679 90 17557669582818210135
23419403 2 16976530447146008127
23557571 272 17255393246691590976
23558518 356 17695607929333701785
266924 78 18118654696355652303
2748010 2 17044004461012741104
298252 57 17704077316951549863
3759504 43 18262529220075495452
394222 165 18200596895478942065
458136 41 18261402126067407451
474 4 18334858298763887036
59554788 281 17834355245791823744
68419 9 17557383761482432063
7364860 26 18270112392758340771
81228 2 17469589072005918146
81539 233 18335417941851018285
8272917 22 18262519182916266305
90316 7 16896238309911395795
9981440 41 16766168803371465512
9999458 23 18261403191108507750

>  <PUBCHEM_SHAPE_MULTIPOLES>  (1) 
361.43
5.75
3.62
1.8
1.23
4.61
-0.79
-5.49
-0.11
-2
1.71
-0.17
0.31
-1.07

>  <PUBCHEM_SHAPE_SELFOVERLAP>  (1) 
731.19

>  <PUBCHEM_SHAPE_VOLUME>  (1) 
208.9

>  <PUBCHEM_COORDINATE_TYPE>  (1) 
2
5
10

$$$$
