16999
     RDKit          3D

  9  9  0  0  0  0  0  0  0  0999 V2000
    2.5151    0.7113    0.0134 O   0  0  0  0  0  0  0  0  0  0  0  0
    1.5689   -1.3960   -0.0361 O   0  0  0  0  0  0  0  0  0  0  0  0
   -2.1870    0.5126    0.0605 N   0  0  0  0  0  0  0  0  0  0  0  0
   -3.2623   -0.2499    0.6986 C   0  0  0  0  0  0  0  0  0  0  0  0
   -3.2241   -0.0845   -0.7837 C   0  0  0  0  0  0  0  0  0  0  0  0
   -0.9489   -0.0453    0.0302 C   0  0  0  0  0  0  0  0  0  0  0  0
    0.2261    0.5936    0.0359 C   0  0  0  0  0  0  0  0  0  0  0  0
    1.4863   -0.1784   -0.0001 C   0  0  0  0  0  0  0  0  0  0  0  0
    3.8258    0.1366   -0.0187 C   0  0  0  0  0  0  0  0  0  0  0  0
  1  8  1  0
  1  9  1  0
  2  8  2  0
  3  4  1  0
  3  5  1  0
  3  6  1  0
  4  5  1  0
  6  7  2  0
  7  8  1  0
M  END
>  <PUBCHEM_COMPOUND_CID>  (1) 
16999

>  <PUBCHEM_CONFORMER_RMSD>  (1) 
0.6

>  <PUBCHEM_CONFORMER_DIVERSEORDER>  (1) 
1
2
4
5
3

>  <PUBCHEM_MMFF94_PARTIAL_CHARGES>  (1) 
15
1 -0.43
10 0.1
11 0.1
12 0.1
13 0.1
14 0.15
15 0.15
2 -0.57
3 -0.44
4 -0.03
5 -0.03
6 -0.05
7 -0.14
8 0.71
9 0.28

>  <PUBCHEM_EFFECTIVE_ROTOR_COUNT>  (1) 
3.6

>  <PUBCHEM_PHARMACOPHORE_FEATURES>  (1) 
2
1 2 acceptor
1 3 cation

>  <PUBCHEM_HEAVY_ATOM_COUNT>  (1) 
9

>  <PUBCHEM_ATOM_DEF_STEREO_COUNT>  (1) 
0

>  <PUBCHEM_ATOM_UDEF_STEREO_COUNT>  (1) 
0

>  <PUBCHEM_BOND_DEF_STEREO_COUNT>  (1) 
0

>  <PUBCHEM_BOND_UDEF_STEREO_COUNT>  (1) 
1

>  <PUBCHEM_ISOTOPIC_ATOM_COUNT>  (1) 
0

>  <PUBCHEM_COMPONENT_COUNT>  (1) 
1

>  <PUBCHEM_CACTVS_TAUTO_COUNT>  (1) 
1

>  <PUBCHEM_CONFORMER_ID>  (1) 
0000426700000001

>  <PUBCHEM_MMFF94_ENERGY>  (1) 
30.7326

>  <PUBCHEM_FEATURE_SELFOVERLAP>  (1) 
10.148

>  <PUBCHEM_SHAPE_FINGERPRINT>  (1) 
10219947 1 18187365441417461316
11062470 55 15791729706771912604
12932764 1 17560792217447649713
14325111 11 18410575080368111627
190213 19 17132114645300582372
20201158 50 18260267442947176227
20279233 1 17894914018715243003
20645477 70 18266733598122086367
29004967 10 18333735710408795969
3248919 1 17967256381774527749
5460574 1 9151174250989870673

>  <PUBCHEM_SHAPE_MULTIPOLES>  (1) 
168.5
6.53
0.88
0.72
0.87
0.18
0.02
-0.04
0.08
0.31
0
-0.45
0.02
0.06

>  <PUBCHEM_SHAPE_SELFOVERLAP>  (1) 
325.126

>  <PUBCHEM_SHAPE_VOLUME>  (1) 
104.5

>  <PUBCHEM_COORDINATE_TYPE>  (1) 
2
5
10

$$$$
