17019
     RDKit          3D

 16 18  0  0  0  0  0  0  0  0999 V2000
   -0.0004    3.3899    1.1334 Br  0  0  0  0  0  0  0  0  0  0  0  0
    0.0000    0.9553   -0.2890 C   0  0  0  0  0  0  0  0  0  0  0  0
   -1.2251    0.2786   -0.1668 C   0  0  0  0  0  0  0  0  0  0  0  0
    1.2251    0.2787   -0.1667 C   0  0  0  0  0  0  0  0  0  0  0  0
   -1.2250   -1.1110    0.0843 C   0  0  0  0  0  0  0  0  0  0  0  0
    1.2251   -1.1110    0.0843 C   0  0  0  0  0  0  0  0  0  0  0  0
    0.0001   -1.7877    0.2065 C   0  0  0  0  0  0  0  0  0  0  0  0
   -2.4506    0.9545   -0.2889 C   0  0  0  0  0  0  0  0  0  0  0  0
    2.4505    0.9547   -0.2887 C   0  0  0  0  0  0  0  0  0  0  0  0
    0.0000    2.4366   -0.5570 C   0  0  0  0  0  0  0  0  0  0  0  0
   -2.4505   -1.7869    0.2066 C   0  0  0  0  0  0  0  0  0  0  0  0
    2.4506   -1.7869    0.2063 C   0  0  0  0  0  0  0  0  0  0  0  0
   -3.6587    0.2682   -0.1649 C   0  0  0  0  0  0  0  0  0  0  0  0
    3.6587    0.2684   -0.1646 C   0  0  0  0  0  0  0  0  0  0  0  0
   -3.6587   -1.1007    0.0827 C   0  0  0  0  0  0  0  0  0  0  0  0
    3.6587   -1.1007    0.0825 C   0  0  0  0  0  0  0  0  0  0  0  0
  1 10  1  0
  2  3  2  0
  2  4  1  0
  2 10  1  0
  3  5  1  0
  3  8  1  0
  4  6  2  0
  4  9  1  0
  5  7  2  0
  5 11  1  0
  6  7  1  0
  6 12  1  0
  8 13  2  0
  9 14  2  0
 11 15  2  0
 12 16  2  0
 13 15  1  0
 14 16  1  0
M  END
>  <PUBCHEM_COMPOUND_CID>  (1) 
17019

>  <PUBCHEM_CONFORMER_RMSD>  (1) 
0.6

>  <PUBCHEM_CONFORMER_DIVERSEORDER>  (1) 
1

>  <PUBCHEM_MMFF94_PARTIAL_CHARGES>  (1) 
21
1 -0.23
10 0.37
11 -0.15
12 -0.15
13 -0.15
14 -0.15
15 -0.15
16 -0.15
17 0.15
18 0.15
19 0.15
2 -0.14
22 0.15
23 0.15
24 0.15
25 0.15
26 0.15
27 0.15
7 -0.15
8 -0.15
9 -0.15

>  <PUBCHEM_EFFECTIVE_ROTOR_COUNT>  (1) 
1

>  <PUBCHEM_PHARMACOPHORE_FEATURES>  (1) 
4
1 1 hydrophobe
6 2 3 4 5 6 7 rings
6 3 5 8 11 13 15 rings
6 4 6 9 12 14 16 rings

>  <PUBCHEM_HEAVY_ATOM_COUNT>  (1) 
16

>  <PUBCHEM_ATOM_DEF_STEREO_COUNT>  (1) 
0

>  <PUBCHEM_ATOM_UDEF_STEREO_COUNT>  (1) 
0

>  <PUBCHEM_BOND_DEF_STEREO_COUNT>  (1) 
0

>  <PUBCHEM_BOND_UDEF_STEREO_COUNT>  (1) 
0

>  <PUBCHEM_ISOTOPIC_ATOM_COUNT>  (1) 
0

>  <PUBCHEM_COMPONENT_COUNT>  (1) 
1

>  <PUBCHEM_CACTVS_TAUTO_COUNT>  (1) 
1

>  <PUBCHEM_CONFORMER_ID>  (1) 
0000427B00000001

>  <PUBCHEM_MMFF94_ENERGY>  (1) 
56.9669

>  <PUBCHEM_FEATURE_SELFOVERLAP>  (1) 
20.349

>  <PUBCHEM_SHAPE_FINGERPRINT>  (1) 
104564 63 18198350563005837992
10608611 8 18335698351412095525
108231 29 18411701018961516504
10967382 1 18337110184513919470
11132069 177 18409722963273021322
11471102 20 18335697256227278527
11680986 33 18048596220583262963
116883 192 18126854785213515302
11806522 49 18264486355231642287
12032990 46 18408609157888810022
12382932 28 18411138013157527115
12954195 1 18055375569321202292
13027679 85 18411980269451395573
13132413 78 18410577313857010165
13140716 1 18409729517271971442
15196674 1 18407759235384572031
15375462 189 18259706674852946307
15442244 35 18048595915678021402
15475509 84 18124066600546778385
15536298 74 18412263947856839070
16945 1 18113900463505021461
193761 8 17689152309914217175
19591789 44 15738556581497331903
200 152 18201147837210380919
20510252 161 18268988692027682704
21029758 11 18412819192654775109
21267235 1 18335993007633381642
21501502 16 18120096074431749946
221490 88 18046350996449495019
2334 1 18409167744144811622
23402539 116 18271233950331798166
23463225 33 18334576836819966326
23557571 272 18341902844468128046
23558518 356 17976832990682146578
23559900 14 18338792313520660802
2748010 2 18409445899143379678
3071541 158 18260547874236466557
3312278 4 18408324354327918376
335352 9 18047750390829839735
34934 24 18410002252048185206
353137 74 18190456056612242984
394222 165 17242457359568768392
5104073 3 18407759235395031442
528886 8 18408599262315691674
537710 114 18335426780688095740
53812653 166 18340203110765168400
6438718 38 17488464057898447497
7364860 26 18125158487742783777
81228 2 18193289493871757784
8809292 202 18186806884878318115
9709674 26 18408609170942913206

>  <PUBCHEM_SHAPE_MULTIPOLES>  (1) 
335.21
5.76
2.97
0.78
0
2.5
0.09
-2.42
-0.23
0
0.83
0
0.36
0

>  <PUBCHEM_SHAPE_SELFOVERLAP>  (1) 
737.534

>  <PUBCHEM_SHAPE_VOLUME>  (1) 
183.1

>  <PUBCHEM_COORDINATE_TYPE>  (1) 
2
5
10

$$$$
