17015
     RDKit          3D

 14 14  0  0  0  0  0  0  0  0999 V2000
    1.3092    1.8195    0.1988 O   0  0  0  0  0  0  0  0  0  0  0  0
    3.2217   -0.3153   -1.4879 O   0  0  0  0  0  0  0  0  0  0  0  0
    0.5378   -0.3695    0.5611 N   0  0  0  0  0  0  0  0  0  0  0  0
   -0.8498   -0.2649    0.3005 C   0  0  0  0  0  0  0  0  0  0  0  0
   -3.5642   -0.0611   -0.2090 C   0  0  0  0  0  0  0  0  0  0  0  0
    2.8763    0.1459    0.8521 C   0  0  0  0  0  0  0  0  0  0  0  0
   -1.6451   -1.3937    0.4058 C   0  0  0  0  0  0  0  0  0  0  0  0
   -1.3817    0.9636   -0.0538 C   0  0  0  0  0  0  0  0  0  0  0  0
   -3.0123   -1.2910    0.1490 C   0  0  0  0  0  0  0  0  0  0  0  0
   -2.7489    1.0662   -0.3104 C   0  0  0  0  0  0  0  0  0  0  0  0
    1.4856    0.6436    0.5068 C   0  0  0  0  0  0  0  0  0  0  0  0
   -5.0261    0.0489   -0.4829 C   0  0  0  0  0  0  0  0  0  0  0  0
    3.6877   -0.2880   -0.3499 C   0  0  0  0  0  0  0  0  0  0  0  0
    5.1099   -0.7041   -0.0801 C   0  0  0  0  0  0  0  0  0  0  0  0
  1 11  2  0
  2 13  2  0
  3  4  1  0
  3 11  1  0
  4  7  2  0
  4  8  1  0
  5  9  2  0
  5 10  1  0
  5 12  1  0
  6 11  1  0
  6 13  1  0
  7  9  1  0
  8 10  2  0
 13 14  1  0
M  END
>  <PUBCHEM_COMPOUND_CID>  (1) 
17015

>  <PUBCHEM_CONFORMER_RMSD>  (1) 
0.6

>  <PUBCHEM_CONFORMER_DIVERSEORDER>  (1) 
1
15
21
9
12
11
22
6
3
17
18
13
10
7
2
14
19
20
5
8
16
4

>  <PUBCHEM_MMFF94_PARTIAL_CHARGES>  (1) 
19
1 -0.57
10 -0.15
11 0.57
12 0.14
13 0.45
14 0.06
17 0.37
18 0.15
19 0.15
2 -0.57
20 0.15
21 0.15
3 -0.55
4 0.12
5 -0.14
6 0.12
7 -0.15
8 -0.15
9 -0.15

>  <PUBCHEM_EFFECTIVE_ROTOR_COUNT>  (1) 
4

>  <PUBCHEM_PHARMACOPHORE_FEATURES>  (1) 
5
1 1 acceptor
1 2 acceptor
1 3 donor
1 6 anion
6 4 5 7 8 9 10 rings

>  <PUBCHEM_HEAVY_ATOM_COUNT>  (1) 
14

>  <PUBCHEM_ATOM_DEF_STEREO_COUNT>  (1) 
0

>  <PUBCHEM_ATOM_UDEF_STEREO_COUNT>  (1) 
0

>  <PUBCHEM_BOND_DEF_STEREO_COUNT>  (1) 
0

>  <PUBCHEM_BOND_UDEF_STEREO_COUNT>  (1) 
0

>  <PUBCHEM_ISOTOPIC_ATOM_COUNT>  (1) 
0

>  <PUBCHEM_COMPONENT_COUNT>  (1) 
1

>  <PUBCHEM_CACTVS_TAUTO_COUNT>  (1) 
8

>  <PUBCHEM_CONFORMER_ID>  (1) 
0000427700000001

>  <PUBCHEM_MMFF94_ENERGY>  (1) 
33.2313

>  <PUBCHEM_FEATURE_SELFOVERLAP>  (1) 
25.372

>  <PUBCHEM_SHAPE_FINGERPRINT>  (1) 
10465860 71 18336279989232530060
10751810 167 18113903766403469802
12032990 46 18338800117096260787
12186901 62 17967807220157512517
12236239 1 17167580479512832678
12932764 1 17386268983065086793
13214271 11 8934994871964634529
13760787 19 16732698359493406891
14115302 16 18040441009696185550
14252887 29 16702308923569987510
14386348 63 18131354102837463390
14911166 2 18335417963304716717
14993402 34 17385723599475048213
15375358 24 18202280321048744026
15536298 74 18337950215666549641
17804303 29 18409167740203116369
17834072 8 18409441484576239621
17870717 6 18340502083681450774
18186145 218 18041829718662393829
1986462 14 18409167718643909775
200 152 17060617793824412203
20201158 50 18273500065313763182
20279233 1 18131635590730789270
20374829 77 18413103965749611686
20432913 95 16558754507334787366
20645476 183 17240483636732077195
20645477 70 17632579331915347382
20871999 31 18335991891363592164
21119208 17 17240485797342849606
22485316 2 18412543219663032938
23402539 116 17989199327030464085
23403322 49 18343586209518199542
23557571 272 18339925918398580524
23559900 14 18411696630122183504
26918003 58 16128653059060953414
42 15 16200434667169236329
474 4 15503235529840128372
4990 188 18343301457417911223
7364860 26 18127128791421816464
93112 12 18336827584208226523
9709674 26 18194116554222777339

>  <PUBCHEM_SHAPE_MULTIPOLES>  (1) 
271.39
9.61
1.3
0.87
3.39
0.12
-0.14
-1.61
-2.03
-0.44
0.1
0.53
-0.03
0.4

>  <PUBCHEM_SHAPE_SELFOVERLAP>  (1) 
555.311

>  <PUBCHEM_SHAPE_VOLUME>  (1) 
156.5

>  <PUBCHEM_COORDINATE_TYPE>  (1) 
2
5
10

$$$$
