17021
     RDKit          3D

  7  6  0  0  1  0  0  0  0  0999 V2000
    3.0269   -0.5147    0.4164 Cl  0  0  0  0  0  0  0  0  0  0  0  0
   -2.6275   -0.8947    0.7731 Cl  0  0  0  0  0  0  0  0  0  0  0  0
    0.4584   -0.6224   -1.2588 O   0  0  0  0  0  0  0  0  0  0  0  0
    0.3703   -0.0256    0.0337 C   0  0  0  0  0  0  0  0  0  0  0  0
   -0.7800    0.9913    0.0208 C   0  0  0  0  0  0  0  0  0  0  0  0
    1.6918    0.6672    0.3610 C   0  0  0  0  0  0  0  0  0  0  0  0
   -2.1399    0.3989   -0.3462 C   0  0  0  0  0  0  0  0  0  0  0  0
  1  6  1  0
  2  7  1  0
  3  4  1  0
  4  5  1  0
  4  6  1  0
  5  7  1  0
M  END
>  <PUBCHEM_COMPOUND_CID>  (1) 
17021

>  <PUBCHEM_CONFORMER_RMSD>  (1) 
0.4

>  <PUBCHEM_CONFORMER_DIVERSEORDER>  (1) 
1
38
34
26
19
29
14
13
18
24
4
15
10
25
22
31
11
6
35
28
30
7
37
23
36
21
17
3
20
5
9
8
33
2
12
27
32
16

>  <PUBCHEM_MMFF94_PARTIAL_CHARGES>  (1) 
7
1 -0.29
15 0.4
2 -0.29
3 -0.68
4 0.28
6 0.29
7 0.29

>  <PUBCHEM_EFFECTIVE_ROTOR_COUNT>  (1) 
3

>  <PUBCHEM_PHARMACOPHORE_FEATURES>  (1) 
2
1 3 acceptor
1 3 donor

>  <PUBCHEM_HEAVY_ATOM_COUNT>  (1) 
7

>  <PUBCHEM_ATOM_DEF_STEREO_COUNT>  (1) 
0

>  <PUBCHEM_ATOM_UDEF_STEREO_COUNT>  (1) 
1

>  <PUBCHEM_BOND_DEF_STEREO_COUNT>  (1) 
0

>  <PUBCHEM_BOND_UDEF_STEREO_COUNT>  (1) 
0

>  <PUBCHEM_ISOTOPIC_ATOM_COUNT>  (1) 
0

>  <PUBCHEM_COMPONENT_COUNT>  (1) 
1

>  <PUBCHEM_CACTVS_TAUTO_COUNT>  (1) 
1

>  <PUBCHEM_CONFORMER_ID>  (1) 
0000427D00000001

>  <PUBCHEM_MMFF94_ENERGY>  (1) 
5.4307

>  <PUBCHEM_FEATURE_SELFOVERLAP>  (1) 
10.148

>  <PUBCHEM_SHAPE_FINGERPRINT>  (1) 
10857977 72 18411693322406411465
12932741 1 18114446925110895196
14128692 85 16805895094505754971
14390081 3 11672064142289225747
20653085 51 12319459960426094730
21293036 1 12612759024841159147
29004967 10 18131641079545837409
5460574 1 8718823219416706336

>  <PUBCHEM_SHAPE_MULTIPOLES>  (1) 
141.93
4.37
1.07
0.92
0.88
0.09
0.23
1.43
-0.7
-0.4
-0.14
0.07
0.04
0.22

>  <PUBCHEM_SHAPE_SELFOVERLAP>  (1) 
234.691

>  <PUBCHEM_SHAPE_VOLUME>  (1) 
99.1

>  <PUBCHEM_COORDINATE_TYPE>  (1) 
2
5
10

$$$$
