17029
     RDKit          3D

 19 18  0  0  0  0  0  0  0  0999 V2000
   -6.2605    0.7621    0.0102 O   0  0  0  0  0  0  0  0  0  0  0  0
    2.1849   -2.0323   -0.5402 C   0  0  0  0  0  0  0  0  0  0  0  0
    2.5857   -1.0958   -1.6868 C   0  0  0  0  0  0  0  0  0  0  0  0
    0.6737   -2.2564   -0.4381 C   0  0  0  0  0  0  0  0  0  0  0  0
    0.3414    2.0770    0.3481 C   0  0  0  0  0  0  0  0  0  0  0  0
    4.0795   -0.7653   -1.7847 C   0  0  0  0  0  0  0  0  0  0  0  0
   -1.1391    1.9151    0.6972 C   0  0  0  0  0  0  0  0  0  0  0  0
    1.1168    2.7383    1.4937 C   0  0  0  0  0  0  0  0  0  0  0  0
   -1.9747    1.3295   -0.4459 C   0  0  0  0  0  0  0  0  0  0  0  0
    0.2678   -3.1291    0.7534 C   0  0  0  0  0  0  0  0  0  0  0  0
    4.6200   -0.0182   -0.5599 C   0  0  0  0  0  0  0  0  0  0  0  0
    2.6136    2.8832    1.1946 C   0  0  0  0  0  0  0  0  0  0  0  0
   -3.4799    1.2133   -0.1848 C   0  0  0  0  0  0  0  0  0  0  0  0
   -1.2392   -3.3744    0.8379 C   0  0  0  0  0  0  0  0  0  0  0  0
    3.9359    1.2753   -0.2050 C   0  0  0  0  0  0  0  0  0  0  0  0
    3.2685    1.5579    0.9241 C   0  0  0  0  0  0  0  0  0  0  0  0
   -4.2689    0.6824   -1.3779 C   0  0  0  0  0  0  0  0  0  0  0  0
   -1.5916   -4.2536    2.0278 C   0  0  0  0  0  0  0  0  0  0  0  0
   -5.7339    0.4908   -1.0635 C   0  0  0  0  0  0  0  0  0  0  0  0
  1 19  2  0
  2  3  1  0
  2  4  1  0
  3  6  1  0
  4 10  1  0
  5  7  1  0
  5  8  1  0
  6 11  1  0
  7  9  1  0
  8 12  1  0
  9 13  1  0
 10 14  1  0
 11 15  1  0
 12 16  1  0
 13 17  1  0
 14 18  1  0
 15 16  2  0
 17 19  1  0
M  END
>  <PUBCHEM_COMPOUND_CID>  (1) 
17029

>  <PUBCHEM_CONFORMER_RMSD>  (1) 
1.4

>  <PUBCHEM_CONFORMER_DIVERSEORDER>  (1) 
1
6
28
27
35
38
45
30
74
37
50
2
68
75
26
57
19
11
76
60
51
31
8
67
36
3
79
70
48
65
77
52
32
44
34
59
41
73
56
42
58
78
43
40
62
55
39
61
66
33
7
22
13
15
5
47
63
64
25
69
10
72
21
12
23
29
14
46
17
18
24
9
49
16
71
53
20
54
4

>  <PUBCHEM_MMFF94_PARTIAL_CHARGES>  (1) 
10
1 -0.57
11 0.14
12 0.14
15 -0.29
16 -0.29
17 0.06
19 0.45
46 0.15
47 0.15
53 0.06

>  <PUBCHEM_EFFECTIVE_ROTOR_COUNT>  (1) 
15

>  <PUBCHEM_PHARMACOPHORE_FEATURES>  (1) 
2
1 1 acceptor
1 18 hydrophobe

>  <PUBCHEM_HEAVY_ATOM_COUNT>  (1) 
19

>  <PUBCHEM_ATOM_DEF_STEREO_COUNT>  (1) 
0

>  <PUBCHEM_ATOM_UDEF_STEREO_COUNT>  (1) 
0

>  <PUBCHEM_BOND_DEF_STEREO_COUNT>  (1) 
0

>  <PUBCHEM_BOND_UDEF_STEREO_COUNT>  (1) 
1

>  <PUBCHEM_ISOTOPIC_ATOM_COUNT>  (1) 
0

>  <PUBCHEM_COMPONENT_COUNT>  (1) 
1

>  <PUBCHEM_CACTVS_TAUTO_COUNT>  (1) 
2

>  <PUBCHEM_CONFORMER_ID>  (1) 
0000428500000001

>  <PUBCHEM_MMFF94_ENERGY>  (1) 
-1.0758

>  <PUBCHEM_FEATURE_SELFOVERLAP>  (1) 
10.148

>  <PUBCHEM_SHAPE_FINGERPRINT>  (1) 
10316853 100 18335143128785490507
108634 29 18341906173236801958
11014199 57 17042322740793836115
13402501 40 18340769337741498772
13617811 41 18040432192840965029
14931854 50 18269845224671011356
15110567 62 18340204098855455789
20645477 70 18272360992916933680
21304304 249 18338503150710564474
437795 51 18411428310951930371
508706 21 18189899901825052947
5283268 108 17687196695609432530

>  <PUBCHEM_SHAPE_MULTIPOLES>  (1) 
385.14
10.48
5.02
1.71
12.66
5
0.04
-4.79
-5.01
0.33
3.72
-0.39
0.71
3.06

>  <PUBCHEM_SHAPE_SELFOVERLAP>  (1) 
699.694

>  <PUBCHEM_SHAPE_VOLUME>  (1) 
244.6

>  <PUBCHEM_COORDINATE_TYPE>  (1) 
2
5
10

$$$$
