17020
     RDKit          3D

  5  4  0  0  0  0  0  0  0  0999 V2000
   -2.8412    0.0694    0.0299 Br  0  0  0  0  0  0  0  0  0  0  0  0
    2.4827   -0.2210    0.0214 N   0  0  0  0  0  0  0  0  0  0  0  0
   -0.0201    0.5887   -0.0240 C   0  0  0  0  0  0  0  0  0  0  0  0
   -0.9999   -0.5720   -0.0290 C   0  0  0  0  0  0  0  0  0  0  0  0
    1.3784    0.1348    0.0017 C   0  0  0  0  0  0  0  0  0  0  0  0
  1  4  1  0
  2  5  3  0
  3  4  1  0
  3  5  1  0
M  END
>  <PUBCHEM_COMPOUND_CID>  (1) 
17020

>  <PUBCHEM_CONFORMER_RMSD>  (1) 
0.4

>  <PUBCHEM_CONFORMER_DIVERSEORDER>  (1) 
1
3
2

>  <PUBCHEM_MMFF94_PARTIAL_CHARGES>  (1) 
5
1 -0.23
2 -0.56
3 0.2
4 0.23
5 0.36

>  <PUBCHEM_EFFECTIVE_ROTOR_COUNT>  (1) 
1

>  <PUBCHEM_PHARMACOPHORE_FEATURES>  (1) 
2
1 1 hydrophobe
1 2 acceptor

>  <PUBCHEM_HEAVY_ATOM_COUNT>  (1) 
5

>  <PUBCHEM_ATOM_DEF_STEREO_COUNT>  (1) 
0

>  <PUBCHEM_ATOM_UDEF_STEREO_COUNT>  (1) 
0

>  <PUBCHEM_BOND_DEF_STEREO_COUNT>  (1) 
0

>  <PUBCHEM_BOND_UDEF_STEREO_COUNT>  (1) 
0

>  <PUBCHEM_ISOTOPIC_ATOM_COUNT>  (1) 
0

>  <PUBCHEM_COMPONENT_COUNT>  (1) 
1

>  <PUBCHEM_CACTVS_TAUTO_COUNT>  (1) 
1

>  <PUBCHEM_CONFORMER_ID>  (1) 
0000427C00000001

>  <PUBCHEM_MMFF94_ENERGY>  (1) 
1.0271

>  <PUBCHEM_FEATURE_SELFOVERLAP>  (1) 
10.148

>  <PUBCHEM_SHAPE_FINGERPRINT>  (1) 
139733 1 9439409029435568556
14390081 3 8718834171530693559
16714656 1 18186518800194429893
29004967 10 17167865265814435064
5460574 1 9295291638104728385

>  <PUBCHEM_SHAPE_MULTIPOLES>  (1) 
103.86
4.11
0.78
0.63
0.63
0.01
0
-0.16
-0.07
0.12
0
0.12
0.01
-0.01

>  <PUBCHEM_SHAPE_SELFOVERLAP>  (1) 
167.511

>  <PUBCHEM_SHAPE_VOLUME>  (1) 
73.3

>  <PUBCHEM_COORDINATE_TYPE>  (1) 
2
5
10

$$$$
