17027
     RDKit          3D

  8  8  0  0  1  0  0  0  0  0999 V2000
    0.6903   -0.3565    0.3428 C   0  0  0  0  0  0  0  0  0  0  0  0
   -0.6920   -0.3544   -0.3427 C   0  0  0  0  0  0  0  0  0  0  0  0
    0.7681   -1.8609    0.0088 C   0  0  0  0  0  0  0  0  0  0  0  0
   -0.7746   -1.8584   -0.0092 C   0  0  0  0  0  0  0  0  0  0  0  0
    1.7160    0.4935   -0.2981 C   0  0  0  0  0  0  0  0  0  0  0  0
   -1.7150    0.4988    0.2991 C   0  0  0  0  0  0  0  0  0  0  0  0
    2.0487    1.7157    0.1309 C   0  0  0  0  0  0  0  0  0  0  0  0
   -2.0415    1.7221   -0.1316 C   0  0  0  0  0  0  0  0  0  0  0  0
  1  2  1  0
  1  3  1  0
  1  5  1  0
  2  4  1  0
  2  6  1  0
  3  4  1  0
  5  7  2  0
  6  8  2  0
M  END
>  <PUBCHEM_COMPOUND_CID>  (1) 
17027

>  <PUBCHEM_CONFORMER_RMSD>  (1) 
0.6

>  <PUBCHEM_CONFORMER_DIVERSEORDER>  (1) 
2
7
6
5
4
8
1
3

>  <PUBCHEM_MMFF94_PARTIAL_CHARGES>  (1) 
12
1 0.12
15 0.15
16 0.15
17 0.15
18 0.15
19 0.15
2 0.12
20 0.15
5 -0.27
6 -0.27
7 -0.3
8 -0.3

>  <PUBCHEM_EFFECTIVE_ROTOR_COUNT>  (1) 
2.8

>  <PUBCHEM_PHARMACOPHORE_FEATURES>  (1) 
3
1 7 hydrophobe
1 8 hydrophobe
4 1 2 3 4 rings

>  <PUBCHEM_HEAVY_ATOM_COUNT>  (1) 
8

>  <PUBCHEM_ATOM_DEF_STEREO_COUNT>  (1) 
0

>  <PUBCHEM_ATOM_UDEF_STEREO_COUNT>  (1) 
2

>  <PUBCHEM_BOND_DEF_STEREO_COUNT>  (1) 
0

>  <PUBCHEM_BOND_UDEF_STEREO_COUNT>  (1) 
0

>  <PUBCHEM_ISOTOPIC_ATOM_COUNT>  (1) 
0

>  <PUBCHEM_COMPONENT_COUNT>  (1) 
1

>  <PUBCHEM_CACTVS_TAUTO_COUNT>  (1) 
1

>  <PUBCHEM_CONFORMER_ID>  (1) 
0000428300000002

>  <PUBCHEM_MMFF94_ENERGY>  (1) 
16.9239

>  <PUBCHEM_FEATURE_SELFOVERLAP>  (1) 
15.223

>  <PUBCHEM_SHAPE_FINGERPRINT>  (1) 
18185500 45 17621317931633037753
20096714 4 18411138000262043108
21040471 1 18410575089100529476
23552449 1 17618782900238012444
29004967 10 17544199272724764219
5084963 1 18202280264860611403
54338 74 17615113816835022248

>  <PUBCHEM_SHAPE_MULTIPOLES>  (1) 
164.64
2.67
2.31
0.67
0.01
0.32
0
-1.84
0
-0.01
0
0
-0.01
0.03

>  <PUBCHEM_SHAPE_SELFOVERLAP>  (1) 
319.411

>  <PUBCHEM_SHAPE_VOLUME>  (1) 
102

>  <PUBCHEM_COORDINATE_TYPE>  (1) 
2
5
10

$$$$
