1702
     RDKit          3D

 16 16  0  0  0  0  0  0  0  0999 V2000
   -1.4751    1.0508   -1.0885 S   0  0  0  0  0  0  0  0  0  0  0  0
    5.1554   -0.1985    0.3561 P   0  0  0  0  0  0  0  0  0  0  0  0
    6.4183    0.4458   -0.4064 O   0  0  0  0  0  0  0  0  0  0  0  0
    5.0888   -1.7057   -0.2058 O   0  0  0  0  0  0  0  0  0  0  0  0
    5.1346   -0.0478    1.8368 O   0  0  0  0  0  0  0  0  0  0  0  0
   -3.8065    2.1995    0.6001 N   0  0  0  0  0  0  0  0  0  0  0  0
    2.4025    0.0413   -0.0405 C   0  0  0  0  0  0  0  0  0  0  0  0
    1.2399    0.7716   -0.7177 C   0  0  0  0  0  0  0  0  0  0  0  0
    3.7565    0.5888   -0.4725 C   0  0  0  0  0  0  0  0  0  0  0  0
   -0.0990    0.1768   -0.2888 C   0  0  0  0  0  0  0  0  0  0  0  0
   -2.8860    0.1719   -0.4260 C   0  0  0  0  0  0  0  0  0  0  0  0
   -3.8716    0.8146    0.3238 C   0  0  0  0  0  0  0  0  0  0  0  0
   -2.9843   -1.1968   -0.6782 C   0  0  0  0  0  0  0  0  0  0  0  0
   -4.9544    0.0892    0.8208 C   0  0  0  0  0  0  0  0  0  0  0  0
   -4.0671   -1.9222   -0.1814 C   0  0  0  0  0  0  0  0  0  0  0  0
   -5.0520   -1.2792    0.5682 C   0  0  0  0  0  0  0  0  0  0  0  0
  1 10  1  0
  1 11  1  0
  2  3  1  0
  2  4  1  0
  2  5  2  0
  2  9  1  0
  6 12  1  0
  7  8  1  0
  7  9  1  0
  8 10  1  0
 11 12  2  0
 11 13  1  0
 12 14  1  0
 13 15  2  0
 14 16  2  0
 15 16  1  0
M  END
>  <PUBCHEM_COMPOUND_CID>  (1) 
1702

>  <PUBCHEM_CONFORMER_RMSD>  (1) 
0.8

>  <PUBCHEM_CONFORMER_DIVERSEORDER>  (1) 
1
62
61
20
24
13
68
63
77
16
9
74
4
79
17
58
78
53
71
37
49
67
2
54
8
5
57
21
10
69
70
75
59
27
26
6
23
45
51
47
25
56
33
76
42
48
72
46
11
15
29
28
38
22
3
34
43
14
12
32
50
60
7
39
30
18
64
35
66
31
73
52
65
55
19
40
41
44
36

>  <PUBCHEM_MMFF94_PARTIAL_CHARGES>  (1) 
21
1 -0.33
10 0.23
11 0.1
12 0.1
13 -0.15
14 -0.15
15 -0.15
16 -0.15
2 1.24
25 0.15
26 0.5
27 0.5
28 0.15
29 0.15
3 -0.77
30 0.15
31 0.4
32 0.4
4 -0.77
5 -0.7
6 -0.9

>  <PUBCHEM_EFFECTIVE_ROTOR_COUNT>  (1) 
6

>  <PUBCHEM_PHARMACOPHORE_FEATURES>  (1) 
8
1 3 acceptor
1 4 acceptor
1 5 acceptor
1 6 cation
1 6 donor
4 1 7 8 10 hydrophobe
4 2 3 4 5 anion
6 11 12 13 14 15 16 rings

>  <PUBCHEM_HEAVY_ATOM_COUNT>  (1) 
16

>  <PUBCHEM_ATOM_DEF_STEREO_COUNT>  (1) 
0

>  <PUBCHEM_ATOM_UDEF_STEREO_COUNT>  (1) 
0

>  <PUBCHEM_BOND_DEF_STEREO_COUNT>  (1) 
0

>  <PUBCHEM_BOND_UDEF_STEREO_COUNT>  (1) 
0

>  <PUBCHEM_ISOTOPIC_ATOM_COUNT>  (1) 
0

>  <PUBCHEM_COMPONENT_COUNT>  (1) 
1

>  <PUBCHEM_CACTVS_TAUTO_COUNT>  (1) 
1

>  <PUBCHEM_CONFORMER_ID>  (1) 
000006A600000001

>  <PUBCHEM_MMFF94_ENERGY>  (1) 
7.49

>  <PUBCHEM_FEATURE_SELFOVERLAP>  (1) 
40.63

>  <PUBCHEM_SHAPE_FINGERPRINT>  (1) 
10014705 185 10663821875487014767
10912923 1 18186241740581574348
11089746 13 10447927261668202974
11315181 36 18334859441621119101
12596602 18 18413669115195683680
13167823 11 18408040714893568278
13288520 33 18040716982919926037
13551218 46 18335702719552701671
13675066 3 17632578244977456500
1420 363 16732986435655366416
14251718 22 12035452744159750028
14251732 16 18336266859733972084
14528608 73 9367341535867269002
15348495 7 17560794481175230106
15716309 27 18040716969934816600
17780758 139 18410573998548172953
17834072 33 18261396676186613932
17844677 252 18272093811775649736
17857418 61 17821723944680049962
17870717 6 12179841684998320545
1813 80 17313393300746841934
200 152 16588020216863252429
20281389 69 13398632744881321058
20645477 56 16630807707478915708
20645477 70 14779541241667621976
220451 1 18334300859791557262
22061861 79 14490466474486541482
23402539 116 17095239207169610501
23466295 7 15504369160888590339
23559900 14 18339917225448161265
23590187 198 18260831501065476271
23596394 208 13190326942852733104
2767999 5 12463571768431286170
351380 3 17821726139471667698
4214541 1 18411702071460722941
49783359 22 18411135848620785927
5104073 3 18409167748524428896
559249 180 18186516597377327967
57483677 66 18113898252008372466
5924683 9 17489015085106902407

>  <PUBCHEM_SHAPE_MULTIPOLES>  (1) 
314.38
15.77
1.63
1.06
18.11
0.15
-0.22
3.66
-3.86
-1.81
0.04
0.32
-0.08
-0.55

>  <PUBCHEM_SHAPE_SELFOVERLAP>  (1) 
599.208

>  <PUBCHEM_SHAPE_VOLUME>  (1) 
193.7

>  <PUBCHEM_COORDINATE_TYPE>  (1) 
2
5
10

$$$$
