17024
     RDKit          3D

 16 15  0  0  1  0  0  0  0  0999 V2000
    3.4449    1.3817    0.9219 O   0  0  0  0  0  0  0  0  0  0  0  0
   -2.9063    2.2492    0.9680 O   0  0  0  0  0  0  0  0  0  0  0  0
   -0.4997   -3.6404    0.9291 O   0  0  0  0  0  0  0  0  0  0  0  0
    0.0245    0.0129    0.5509 N   0  0  0  0  0  0  0  0  0  0  0  0
    1.0999    0.8841    1.0048 C   0  0  0  0  0  0  0  0  0  0  0  0
   -1.2709    0.4959    1.0339 C   0  0  0  0  0  0  0  0  0  0  0  0
    0.2505   -1.3633    0.9978 C   0  0  0  0  0  0  0  0  0  0  0  0
    2.4670    0.4444    0.4690 C   0  0  0  0  0  0  0  0  0  0  0  0
   -1.6113    1.8865    0.4868 C   0  0  0  0  0  0  0  0  0  0  0  0
   -0.8307   -2.3228    0.4885 C   0  0  0  0  0  0  0  0  0  0  0  0
    2.5157    0.3911   -1.0632 C   0  0  0  0  0  0  0  0  0  0  0  0
   -1.6302    1.9339   -1.0463 C   0  0  0  0  0  0  0  0  0  0  0  0
   -0.9425   -2.3342   -1.0414 C   0  0  0  0  0  0  0  0  0  0  0  0
    3.9003    0.0260   -1.5848 C   0  0  0  0  0  0  0  0  0  0  0  0
   -2.0433    3.3014   -1.5770 C   0  0  0  0  0  0  0  0  0  0  0  0
   -1.9677   -3.3464   -1.5381 C   0  0  0  0  0  0  0  0  0  0  0  0
  1  8  1  0
  2  9  1  0
  3 10  1  0
  4  5  1  0
  4  6  1  0
  4  7  1  0
  5  8  1  0
  6  9  1  0
  7 10  1  0
  8 11  1  0
  9 12  1  0
 10 13  1  0
 11 14  1  0
 12 15  1  0
 13 16  1  0
M  END
>  <PUBCHEM_COMPOUND_CID>  (1) 
17024

>  <PUBCHEM_CONFORMER_RMSD>  (1) 
0.8

>  <PUBCHEM_CONFORMER_DIVERSEORDER>  (1) 
3
9
52
50
62
40
135
145
116
44
132
33
130
76
75
146
106
46
14
143
128
102
83
134
144
122
89
123
54
8
113
71
103
138
82
38
140
97
109
60
108
98
24
32
85
70
118
139
120
81
119
64
68
74
67
39
80
27
115
88
65
114
15
100
48
26
142
29
131
53
72
96
121
127
56
78
94
6
13
23
16
141
18
37
22
105
63
66
11
125
20
92
59
126
30
84
55
35
49
104
47
1
51
91
129
34
90
58
43
17
93
133
7
107
73
61
4
45
69
110
31
124
42
77
10
36
86
136
28
21
101
112
79
5
137
25
95
12
111
57
2
41
99
19
87
117

>  <PUBCHEM_MMFF94_PARTIAL_CHARGES>  (1) 
13
1 -0.68
10 0.28
2 -0.68
3 -0.68
4 -0.81
41 0.4
42 0.4
43 0.4
5 0.27
6 0.27
7 0.27
8 0.28
9 0.28

>  <PUBCHEM_EFFECTIVE_ROTOR_COUNT>  (1) 
9

>  <PUBCHEM_PHARMACOPHORE_FEATURES>  (1) 
10
1 1 acceptor
1 1 donor
1 14 hydrophobe
1 15 hydrophobe
1 16 hydrophobe
1 2 acceptor
1 2 donor
1 3 acceptor
1 3 donor
1 4 cation

>  <PUBCHEM_HEAVY_ATOM_COUNT>  (1) 
16

>  <PUBCHEM_ATOM_DEF_STEREO_COUNT>  (1) 
0

>  <PUBCHEM_ATOM_UDEF_STEREO_COUNT>  (1) 
3

>  <PUBCHEM_BOND_DEF_STEREO_COUNT>  (1) 
0

>  <PUBCHEM_BOND_UDEF_STEREO_COUNT>  (1) 
0

>  <PUBCHEM_ISOTOPIC_ATOM_COUNT>  (1) 
0

>  <PUBCHEM_COMPONENT_COUNT>  (1) 
1

>  <PUBCHEM_CACTVS_TAUTO_COUNT>  (1) 
1

>  <PUBCHEM_CONFORMER_ID>  (1) 
0000428000000003

>  <PUBCHEM_MMFF94_ENERGY>  (1) 
21.9065

>  <PUBCHEM_FEATURE_SELFOVERLAP>  (1) 
50.747

>  <PUBCHEM_SHAPE_FINGERPRINT>  (1) 
1 1 18120936092503617408
11322862 65 18271262563387989143
116883 192 17984703578244406679
12617007 42 17691388034071729695
12759256 9 17476344016465023851
13681431 1 17402050496522438287
14004458 79 18192416674759838540
14181834 199 17330812648627504717
15490181 7 18337666430118266112
17954114 43 18124314895919938207
18186145 218 18199748051159895872
20511035 2 17825377488675202784
20600515 1 17398640872494882280
20645476 183 17968680245274842530
20711985 344 18267588081675506986
21285901 2 17985820656146317527
21421566 26 17620801500576057732
21524375 3 18264777562213563314
22713019 5 18267859665252974671
22889148 1 18411697698925215183
23114952 82 17323523990479725373
23418878 81 17906171750319748759
23419403 2 16611180192441696987
23557571 272 18051968409924410704
23559900 14 18200325317198780598
4175511 376 17469896480084819935
5845 1 11062423947243224961
7364860 26 17619912759978231649
81228 2 18194683889200430627

>  <PUBCHEM_SHAPE_MULTIPOLES>  (1) 
306.68
4.63
4.48
1.7
5.01
2.68
0.5
-2.71
1.5
-4.95
1.34
0
-0.04
0

>  <PUBCHEM_SHAPE_SELFOVERLAP>  (1) 
567.699

>  <PUBCHEM_SHAPE_VOLUME>  (1) 
195.1

>  <PUBCHEM_COORDINATE_TYPE>  (1) 
2
5
10

$$$$
