17034
     RDKit          3D

 25 26  0  0  0  0  0  0  0  0999 V2000
    0.8766    0.1238   -0.4356 O   0  0  0  0  0  0  0  0  0  0  0  0
   -0.2415    1.7909    0.6835 O   0  0  0  0  0  0  0  0  0  0  0  0
    4.5718    0.3294    0.0432 N   0  0  0  0  0  0  0  0  0  0  0  0
    3.2531   -0.2080   -0.4940 C   0  0  0  0  0  0  0  0  0  0  0  0
    4.7714    1.7589   -0.4394 C   0  0  0  0  0  0  0  0  0  0  0  0
    5.7157   -0.5399   -0.4587 C   0  0  0  0  0  0  0  0  0  0  0  0
    4.5469    0.3066    1.5647 C   0  0  0  0  0  0  0  0  0  0  0  0
    2.1142    0.6423    0.0334 C   0  0  0  0  0  0  0  0  0  0  0  0
    6.0835    2.2874    0.0976 C   0  0  0  0  0  0  0  0  0  0  0  0
    5.5117   -1.9594    0.0241 C   0  0  0  0  0  0  0  0  0  0  0  0
   -1.5289    0.1513   -0.6312 C   0  0  0  0  0  0  0  0  0  0  0  0
   -0.2517    0.7977   -0.0349 C   0  0  0  0  0  0  0  0  0  0  0  0
   -1.7000   -1.3323   -0.2197 C   0  0  0  0  0  0  0  0  0  0  0  0
   -2.7647    0.9642   -0.1695 C   0  0  0  0  0  0  0  0  0  0  0  0
   -1.3025    0.2286   -2.1706 C   0  0  0  0  0  0  0  0  0  0  0  0
   -2.3153   -2.1745   -1.1034 C   0  0  0  0  0  0  0  0  0  0  0  0
   -3.0451    0.9970    1.1679 C   0  0  0  0  0  0  0  0  0  0  0  0
   -1.2256   -1.7159    1.0036 C   0  0  0  0  0  0  0  0  0  0  0  0
   -3.5038    1.6027   -1.1256 C   0  0  0  0  0  0  0  0  0  0  0  0
   -2.4691   -3.5105   -0.7332 C   0  0  0  0  0  0  0  0  0  0  0  0
   -4.1573    1.7289    1.5837 C   0  0  0  0  0  0  0  0  0  0  0  0
   -1.3794   -3.0521    1.3738 C   0  0  0  0  0  0  0  0  0  0  0  0
   -4.6161    2.3346   -0.7096 C   0  0  0  0  0  0  0  0  0  0  0  0
   -2.0012   -3.9493    0.5053 C   0  0  0  0  0  0  0  0  0  0  0  0
   -4.9427    2.3977    0.6450 C   0  0  0  0  0  0  0  0  0  0  0  0
  1  8  1  0
  1 12  1  0
  2 12  2  0
  3  4  1  0
  3  5  1  0
  3  6  1  0
  3  7  1  0
  4  8  1  0
  5  9  1  0
  6 10  1  0
 11 12  1  0
 11 13  1  0
 11 14  1  0
 11 15  1  0
 13 16  2  0
 13 18  1  0
 14 17  2  0
 14 19  1  0
 16 20  1  0
 17 21  1  0
 18 22  2  0
 19 23  2  0
 20 24  2  0
 21 25  2  0
 22 24  1  0
 23 25  1  0
M  CHG  1   3   1
M  END
>  <PUBCHEM_COMPOUND_CID>  (1) 
17034

>  <PUBCHEM_CONFORMER_RMSD>  (1) 
1

>  <PUBCHEM_CONFORMER_DIVERSEORDER>  (1) 
1
92
76
82
62
97
53
38
59
81
90
39
27
87
100
91
10
70
12
78
103
99
89
14
56
18
42
79
13
68
93
23
48
3
63
72
6
64
47
19
61
73
69
36
45
30
60
2
104
50
15
28
74
31
98
7
86
85
46
94
101
51
66
77
20
32
65
57
84
44
29
40
80
25
22
37
83
52
35
55
88
11
41
34
67
17
49
75
16
58
71
96
54
33
5
9
102
24
8
26
4
43
21
95

>  <PUBCHEM_MMFF94_PARTIAL_CHARGES>  (1) 
32
1 -0.43
11 0.35
12 0.66
13 -0.14
14 -0.14
16 -0.15
17 -0.15
18 -0.15
19 -0.15
2 -0.57
20 -0.15
21 -0.15
22 -0.15
23 -0.15
24 -0.15
25 -0.15
3 -1.01
4 0.5
46 0.15
47 0.15
48 0.15
49 0.15
5 0.5
50 0.15
51 0.15
52 0.15
53 0.15
54 0.15
55 0.15
6 0.5
7 0.5
8 0.28

>  <PUBCHEM_EFFECTIVE_ROTOR_COUNT>  (1) 
9

>  <PUBCHEM_PHARMACOPHORE_FEATURES>  (1) 
5
1 15 hydrophobe
1 2 acceptor
1 3 cation
6 13 16 18 20 22 24 rings
6 14 17 19 21 23 25 rings

>  <PUBCHEM_HEAVY_ATOM_COUNT>  (1) 
25

>  <PUBCHEM_ATOM_DEF_STEREO_COUNT>  (1) 
0

>  <PUBCHEM_ATOM_UDEF_STEREO_COUNT>  (1) 
0

>  <PUBCHEM_BOND_DEF_STEREO_COUNT>  (1) 
0

>  <PUBCHEM_BOND_UDEF_STEREO_COUNT>  (1) 
0

>  <PUBCHEM_ISOTOPIC_ATOM_COUNT>  (1) 
0

>  <PUBCHEM_COMPONENT_COUNT>  (1) 
1

>  <PUBCHEM_CACTVS_TAUTO_COUNT>  (1) 
1

>  <PUBCHEM_CONFORMER_ID>  (1) 
0000428A00000001

>  <PUBCHEM_MMFF94_ENERGY>  (1) 
100.5238

>  <PUBCHEM_FEATURE_SELFOVERLAP>  (1) 
25.371

>  <PUBCHEM_SHAPE_FINGERPRINT>  (1) 
10906281 52 17846514598923770352
11036077 3 18265337213927656095
11370993 144 18409169905167262046
11405975 8 18411981356563002554
11552529 35 18270119166275278894
12107183 9 18265046939058952002
12549972 3 17845359098154481042
12616971 3 17385439943383152740
12633257 1 18261944164394880538
12643181 29 18341055108688501230
12788726 201 18267009738818188363
13004483 165 17979919642197503727
13135754 10 17532114828202817347
13583140 156 17845370115114976408
13631057 29 18047469212912773274
14468879 13 17704073984078131255
14790565 3 18195529181825453529
14866123 147 18409731781348035963
15463212 79 18187635912429490505
15927050 60 18339360760774472879
17844677 252 18200037394964734844
20197701 30 18336267826038004795
21033648 144 18411691111126631916
21033648 29 18264475222413296980
21236236 1 18411982502697012191
21703447 108 17838608221171867872
22224240 67 18338526249134807777
23558518 356 17971197168687113360
23559900 14 18121487222791747748
249057 3 18335986359951915742
283562 15 18192142909513882563
2838139 119 17274535408791634017
3411729 13 17901670367697661545
3729539 64 17833002546022258038
3759504 43 18408323263907437109
4015057 19 17775273980727309400
4058900 60 18121503449579313809
4073 2 18409730703785082242
4258327 124 18114753753522745517
497634 4 18189611812297507028
5104073 3 18410568531476720976
559249 180 18410289177692043222
5924683 9 18338515373438746518
59755656 520 18340483379420357117
6669772 16 18198065776905222463
70251023 43 17839730809901849431
7226269 152 18129943377763751672
81228 2 18120648300331569225
9981440 41 17275108284461468567

>  <PUBCHEM_SHAPE_MULTIPOLES>  (1) 
497.77
12.72
3.97
1.42
21.06
3.87
0.03
-7.54
-0.93
-4.04
-0.5
-1
0
-0.3

>  <PUBCHEM_SHAPE_SELFOVERLAP>  (1) 
1038.456

>  <PUBCHEM_SHAPE_VOLUME>  (1) 
283.9

>  <PUBCHEM_COORDINATE_TYPE>  (1) 
2
5
10

$$$$
