17032
     RDKit          3D

 25 26  0  0  0  0  0  0  0  0999 V2000
   -0.6485    0.0352    1.1589 S   0  0  0  0  0  0  0  0  0  0  0  0
    0.4023   -0.5628   -1.1851 O   0  0  0  0  0  0  0  0  0  0  0  0
   -4.5486   -0.0468    0.0169 N   0  0  0  0  0  0  0  0  0  0  0  0
   -4.7425    1.1651   -0.7702 C   0  0  0  0  0  0  0  0  0  0  0  0
   -5.7437   -0.3444    0.8082 C   0  0  0  0  0  0  0  0  0  0  0  0
   -3.3816    0.0873    0.8908 C   0  0  0  0  0  0  0  0  0  0  0  0
   -5.5536    0.8570   -2.0261 C   0  0  0  0  0  0  0  0  0  0  0  0
   -5.7494   -1.8122    1.2278 C   0  0  0  0  0  0  0  0  0  0  0  0
   -2.1055   -0.1278    0.0867 C   0  0  0  0  0  0  0  0  0  0  0  0
    2.0442   -0.2455    0.5908 C   0  0  0  0  0  0  0  0  0  0  0  0
   -5.7519    2.1022   -2.8767 C   0  0  0  0  0  0  0  0  0  0  0  0
   -6.9932   -2.1528    2.0341 C   0  0  0  0  0  0  0  0  0  0  0  0
    0.6393   -0.3040   -0.0109 C   0  0  0  0  0  0  0  0  0  0  0  0
    2.9805   -1.2746   -0.0345 C   0  0  0  0  0  0  0  0  0  0  0  0
    2.6400    1.1573    0.6036 C   0  0  0  0  0  0  0  0  0  0  0  0
    3.0824   -2.5514    0.5183 C   0  0  0  0  0  0  0  0  0  0  0  0
    3.5451    1.5215    1.6008 C   0  0  0  0  0  0  0  0  0  0  0  0
    3.7343   -0.9395   -1.1593 C   0  0  0  0  0  0  0  0  0  0  0  0
    2.2809    2.0769   -0.3817 C   0  0  0  0  0  0  0  0  0  0  0  0
    3.9383   -3.4927   -0.0534 C   0  0  0  0  0  0  0  0  0  0  0  0
    4.0907    2.8051    1.6127 C   0  0  0  0  0  0  0  0  0  0  0  0
    4.5902   -1.8810   -1.7310 C   0  0  0  0  0  0  0  0  0  0  0  0
    2.8267    3.3606   -0.3699 C   0  0  0  0  0  0  0  0  0  0  0  0
    4.6921   -3.1576   -1.1780 C   0  0  0  0  0  0  0  0  0  0  0  0
    3.7316    3.7246    0.6274 C   0  0  0  0  0  0  0  0  0  0  0  0
  1  9  1  0
  1 13  1  0
  2 13  2  0
  3  4  1  0
  3  5  1  0
  3  6  1  0
  4  7  1  0
  5  8  1  0
  6  9  1  0
  7 11  1  0
  8 12  1  0
 10 13  1  0
 10 14  1  0
 10 15  1  0
 14 16  2  0
 14 18  1  0
 15 17  2  0
 15 19  1  0
 16 20  1  0
 17 21  1  0
 18 22  2  0
 19 23  2  0
 20 24  2  0
 21 25  2  0
 22 24  1  0
 23 25  1  0
M  END
>  <PUBCHEM_COMPOUND_CID>  (1) 
17032

>  <PUBCHEM_CONFORMER_RMSD>  (1) 
1.2

>  <PUBCHEM_CONFORMER_DIVERSEORDER>  (1) 
1
47
22
23
2
29
11
38
17
46
39
28
34
30
10
32
40
19
7
42
44
6
8
4
15
20
24
14
13
25
41
50
36
48
43
5
37
35
16
21
27
9
49
26
18
45
3
12
31
33

>  <PUBCHEM_MMFF94_PARTIAL_CHARGES>  (1) 
31
1 -0.37
10 0.35
13 0.65
14 -0.14
15 -0.14
16 -0.15
17 -0.15
18 -0.15
19 -0.15
2 -0.57
20 -0.15
21 -0.15
22 -0.15
23 -0.15
24 -0.15
25 -0.15
3 -0.81
4 0.27
45 0.15
46 0.15
47 0.15
48 0.15
49 0.15
5 0.27
50 0.15
51 0.15
52 0.15
53 0.15
54 0.15
6 0.27
9 0.23

>  <PUBCHEM_EFFECTIVE_ROTOR_COUNT>  (1) 
11

>  <PUBCHEM_PHARMACOPHORE_FEATURES>  (1) 
5
1 11 hydrophobe
1 12 hydrophobe
1 3 cation
6 14 16 18 20 22 24 rings
6 15 17 19 21 23 25 rings

>  <PUBCHEM_HEAVY_ATOM_COUNT>  (1) 
25

>  <PUBCHEM_ATOM_DEF_STEREO_COUNT>  (1) 
0

>  <PUBCHEM_ATOM_UDEF_STEREO_COUNT>  (1) 
0

>  <PUBCHEM_BOND_DEF_STEREO_COUNT>  (1) 
0

>  <PUBCHEM_BOND_UDEF_STEREO_COUNT>  (1) 
0

>  <PUBCHEM_ISOTOPIC_ATOM_COUNT>  (1) 
0

>  <PUBCHEM_COMPONENT_COUNT>  (1) 
1

>  <PUBCHEM_CACTVS_TAUTO_COUNT>  (1) 
1

>  <PUBCHEM_CONFORMER_ID>  (1) 
0000428800000001

>  <PUBCHEM_MMFF94_ENERGY>  (1) 
51.0873

>  <PUBCHEM_FEATURE_SELFOVERLAP>  (1) 
25.371

>  <PUBCHEM_SHAPE_FINGERPRINT>  (1) 
10912923 1 14345796041881755145
11545043 162 18114467773509845423
12403259 415 18260268543070551705
12616971 3 17275108310668978699
12730499 353 18339933730711535274
13009979 54 17488196897931073456
13533116 47 18271257096221883787
13782708 43 18334300868640721475
13955234 65 18272374213094367696
14347329 18 16517091692639896565
15081414 286 18411140276774993569
15131766 46 17915181450201122137
16988056 13 18335698317707277988
16994733 274 16154007793751470550
17349148 13 17203328871223761767
17844677 252 18340778074322242201
1813 80 17844535405527514438
18222031 100 17845085169651911358
20369508 70 18340209596677722042
21033648 29 17967247594582871565
21049683 271 18338530672955923124
21304303 282 16908588532112299404
2132832 1 17845656932540633976
22149856 69 18120399746585554363
22393880 68 17967811614115089979
2303208 19 18334021584023114971
23081809 10 17275389820343083691
23559900 14 18409727327017810091
312423 11 17916602971930871241
34797466 226 18335129926245868337
46194498 28 18261684760553354156
465052 167 18201451228867652518
5104073 3 18201450155631432409
5912855 24 17772749614116213263
60123966 16 18339061723159134956
6697151 62 18124012573288484726
7471813 234 17774721953023252544
9841814 1 18338511942218813378

>  <PUBCHEM_SHAPE_MULTIPOLES>  (1) 
507.49
16.53
4.29
2.04
30.59
0.77
0.87
-4.33
0.94
-7.5
0
2.76
0.44
6.48

>  <PUBCHEM_SHAPE_SELFOVERLAP>  (1) 
1023.315

>  <PUBCHEM_SHAPE_VOLUME>  (1) 
298.6

>  <PUBCHEM_COORDINATE_TYPE>  (1) 
2
5
10

$$$$
