17039
     RDKit          3D

 14 14  0  0  0  0  0  0  0  0999 V2000
    0.1061    2.5685   -0.3858 Cl  0  0  0  0  0  0  0  0  0  0  0  0
    1.2763   -0.1200   -0.9305 O   0  0  0  0  0  0  0  0  0  0  0  0
    1.9098   -0.2720    1.3014 O   0  0  0  0  0  0  0  0  0  0  0  0
    3.5017   -0.1803   -0.3838 N   0  0  0  0  0  0  0  0  0  0  0  0
   -2.0436    1.0025    0.1642 C   0  0  0  0  0  0  0  0  0  0  0  0
   -2.0131   -1.4067   -0.0122 C   0  0  0  0  0  0  0  0  0  0  0  0
   -2.6953   -0.2254    0.2787 C   0  0  0  0  0  0  0  0  0  0  0  0
   -0.0274   -0.1321   -0.5321 C   0  0  0  0  0  0  0  0  0  0  0  0
   -0.7097    1.0493   -0.2411 C   0  0  0  0  0  0  0  0  0  0  0  0
   -0.6792   -1.3601   -0.4176 C   0  0  0  0  0  0  0  0  0  0  0  0
   -2.8123    2.2433    0.4870 C   0  0  0  0  0  0  0  0  0  0  0  0
   -2.7098   -2.7196    0.1099 C   0  0  0  0  0  0  0  0  0  0  0  0
    2.2153   -0.1992    0.1147 C   0  0  0  0  0  0  0  0  0  0  0  0
    4.6812   -0.2480    0.4472 C   0  0  0  0  0  0  0  0  0  0  0  0
  1  9  1  0
  2  8  1  0
  2 13  1  0
  3 13  2  0
  4 13  1  0
  4 14  1  0
  5  7  2  0
  5  9  1  0
  5 11  1  0
  6  7  1  0
  6 10  2  0
  6 12  1  0
  8  9  2  0
  8 10  1  0
M  END
>  <PUBCHEM_COMPOUND_CID>  (1) 
17039

>  <PUBCHEM_CONFORMER_RMSD>  (1) 
0.6

>  <PUBCHEM_CONFORMER_DIVERSEORDER>  (1) 
1
7
11
18
17
14
16
6
8
10
15
13
12
3
5
9
4
2

>  <PUBCHEM_MMFF94_PARTIAL_CHARGES>  (1) 
17
1 -0.18
10 -0.15
11 0.14
12 0.14
13 0.78
14 0.3
15 0.15
16 0.15
2 -0.23
23 0.37
3 -0.57
4 -0.73
5 -0.14
6 -0.14
7 -0.15
8 0.08
9 0.18

>  <PUBCHEM_EFFECTIVE_ROTOR_COUNT>  (1) 
3

>  <PUBCHEM_PHARMACOPHORE_FEATURES>  (1) 
3
1 3 acceptor
1 4 donor
6 5 6 7 8 9 10 rings

>  <PUBCHEM_HEAVY_ATOM_COUNT>  (1) 
14

>  <PUBCHEM_ATOM_DEF_STEREO_COUNT>  (1) 
0

>  <PUBCHEM_ATOM_UDEF_STEREO_COUNT>  (1) 
0

>  <PUBCHEM_BOND_DEF_STEREO_COUNT>  (1) 
0

>  <PUBCHEM_BOND_UDEF_STEREO_COUNT>  (1) 
0

>  <PUBCHEM_ISOTOPIC_ATOM_COUNT>  (1) 
0

>  <PUBCHEM_COMPONENT_COUNT>  (1) 
1

>  <PUBCHEM_CACTVS_TAUTO_COUNT>  (1) 
2

>  <PUBCHEM_CONFORMER_ID>  (1) 
0000428F00000001

>  <PUBCHEM_MMFF94_ENERGY>  (1) 
34.9535

>  <PUBCHEM_FEATURE_SELFOVERLAP>  (1) 
15.223

>  <PUBCHEM_SHAPE_FINGERPRINT>  (1) 
10989021 7 18194119839782977453
11132069 177 18411139100090441868
11680986 33 18196079161278093701
12251169 10 18410296895378794657
12423570 1 10710698582995540503
12500047 106 18339918208367489288
13024252 1 15140681354358151925
13140716 1 18195819676834268515
13214271 11 18272083903259308444
13380535 76 18198624341648892375
15219456 202 17916874508527364422
15375462 189 17967252009450250616
15775835 57 18264772064755690344
16945 1 18339936969317375239
193761 8 18194970862289635525
19422 9 18260270767684483862
20510252 161 18200599081728253513
20645477 70 17687737664290069455
20871998 184 18273218620523221199
21501502 16 18266469886918946269
21524375 3 17768803178851588821
21650355 55 18409442600708619096
22112679 90 18188506747039822060
22445834 79 18040994007978423122
232386 152 18334584584809021782
2334 1 17907868649618755167
23402539 116 18342729711798625471
23552423 10 17829336022782928293
23557571 272 18200889417464965540
23559900 14 18200037223334789926
23598294 1 18335976493520714522
257057 1 17981601886350320959
2748010 2 18052823830213088999
3086196 2 18339639039730415138
7364860 26 17908426101360156660
75552 356 18411138030400745173
77492 1 17749400273270834830
81228 2 18412270545079554019
90316 7 18187919526569446308

>  <PUBCHEM_SHAPE_MULTIPOLES>  (1) 
273.26
5.98
2.54
0.84
7.48
0.43
0.07
-1.34
1.23
-2.85
-0.02
0.24
0.02
-0.29

>  <PUBCHEM_SHAPE_SELFOVERLAP>  (1) 
554.336

>  <PUBCHEM_SHAPE_VOLUME>  (1) 
161.2

>  <PUBCHEM_COORDINATE_TYPE>  (1) 
2
5
10

$$$$
