1703
     RDKit          3D

 17 17  0  0  0  0  0  0  0  0999 V2000
   -1.2109    1.4957    1.0323 S   0  0  0  0  0  0  0  0  0  0  0  0
    5.1015   -0.3730   -0.2935 P   0  0  0  0  0  0  0  0  0  0  0  0
   -3.5593   -2.9909    0.3533 F   0  0  0  0  0  0  0  0  0  0  0  0
   -3.6420    2.4207   -0.5811 O   0  0  0  0  0  0  0  0  0  0  0  0
    4.8026   -1.9710   -0.3030 O   0  0  0  0  0  0  0  0  0  0  0  0
    6.3289   -0.3024    0.7690 O   0  0  0  0  0  0  0  0  0  0  0  0
    5.5089    0.1210   -1.6570 O   0  0  0  0  0  0  0  0  0  0  0  0
    1.5098    1.4560    0.6099 C   0  0  0  0  0  0  0  0  0  0  0  0
    0.2205    0.7505    0.1985 C   0  0  0  0  0  0  0  0  0  0  0  0
    2.6959    0.8432   -0.0780 C   0  0  0  0  0  0  0  0  0  0  0  0
   -2.5527    0.5037    0.3864 C   0  0  0  0  0  0  0  0  0  0  0  0
   -3.5968    1.0804   -0.3349 C   0  0  0  0  0  0  0  0  0  0  0  0
    3.7491    0.3208    0.5652 C   0  0  0  0  0  0  0  0  0  0  0  0
   -2.5384   -0.8705    0.6196 C   0  0  0  0  0  0  0  0  0  0  0  0
   -4.6294    0.2806   -0.8245 C   0  0  0  0  0  0  0  0  0  0  0  0
   -3.5711   -1.6702    0.1300 C   0  0  0  0  0  0  0  0  0  0  0  0
   -4.6166   -1.0947   -0.5921 C   0  0  0  0  0  0  0  0  0  0  0  0
  1  9  1  0
  1 11  1  0
  2  5  1  0
  2  6  1  0
  2  7  2  0
  2 13  1  0
  3 16  1  0
  4 12  1  0
  8  9  1  0
  8 10  1  0
 10 13  2  0
 11 12  2  0
 11 14  1  0
 12 15  1  0
 14 16  2  0
 15 17  2  0
 16 17  1  0
M  END
>  <PUBCHEM_COMPOUND_CID>  (1) 
1703

>  <PUBCHEM_CONFORMER_RMSD>  (1) 
0.6

>  <PUBCHEM_CONFORMER_DIVERSEORDER>  (1) 
1
114
98
5
56
149
89
88
197
28
147
112
104
180
142
201
116
91
105
137
126
200
7
72
170
65
202
15
32
143
75
68
58
176
57
49
146
122
157
135
13
11
192
64
121
171
62
190
141
169
94
133
19
69
164
203
2
168
136
47
155
59
111
198
123
63
131
175
3
194
9
124
145
60
189
83
79
208
129
45
46
160
152
77
117
183
82
34
127
70
26
115
74
81
33
101
41
209
148
87
206
154
85
10
50
144
52
179
165
151
172
108
100
84
106
120
20
95
40
44
191
36
76
174
205
138
37
39
109
153
159
132
93
27
156
150
163
30
181
80
66
53
207
24
71
166
51
118
158
193
178
61
43
113
14
103
96
125
119
86
6
54
140
29
204
107
21
162
99
12
31
128
22
186
38
97
23
182
67
110
92
16
48
17
199
78
73
195
8
25
4
167
42
55
185
187
184
173
139
177
196
90
188
35
102
161
134
18
130

>  <PUBCHEM_MMFF94_PARTIAL_CHARGES>  (1) 
25
1 -0.33
10 -0.29
11 0.1
12 0.08
13 -0.3
14 -0.15
15 -0.15
16 0.19
17 -0.15
2 1.39
22 0.15
23 0.15
24 0.15
25 0.15
26 0.15
27 0.45
28 0.5
29 0.5
3 -0.19
4 -0.53
5 -0.77
6 -0.77
7 -0.7
8 0.14
9 0.23

>  <PUBCHEM_EFFECTIVE_ROTOR_COUNT>  (1) 
5

>  <PUBCHEM_PHARMACOPHORE_FEATURES>  (1) 
7
1 4 donor
1 5 acceptor
1 6 acceptor
1 7 acceptor
4 1 8 9 10 hydrophobe
4 2 5 6 7 anion
6 11 12 14 15 16 17 rings

>  <PUBCHEM_HEAVY_ATOM_COUNT>  (1) 
17

>  <PUBCHEM_ATOM_DEF_STEREO_COUNT>  (1) 
0

>  <PUBCHEM_ATOM_UDEF_STEREO_COUNT>  (1) 
0

>  <PUBCHEM_BOND_DEF_STEREO_COUNT>  (1) 
0

>  <PUBCHEM_BOND_UDEF_STEREO_COUNT>  (1) 
1

>  <PUBCHEM_ISOTOPIC_ATOM_COUNT>  (1) 
0

>  <PUBCHEM_COMPONENT_COUNT>  (1) 
1

>  <PUBCHEM_CACTVS_TAUTO_COUNT>  (1) 
3

>  <PUBCHEM_CONFORMER_ID>  (1) 
000006A700000001

>  <PUBCHEM_MMFF94_ENERGY>  (1) 
0.3865

>  <PUBCHEM_FEATURE_SELFOVERLAP>  (1) 
35.564

>  <PUBCHEM_SHAPE_FINGERPRINT>  (1) 
10680689 15 18260833704500042801
10803635 8 18260541199941443917
11315181 36 17847059986713467360
11809386 21 18186513332664561627
12555020 224 18411409618964224839
14123255 352 8142091948350081690
14251740 79 18335421283530896891
14848160 23 18131908261219553176
15352361 1 18342458149152785512
15880784 105 16271918359171605667
17834072 33 18333735741006589868
17844677 252 18412266151154469720
17857418 61 18411415090683871202
17870717 6 18411141337847290661
193927 3 17917723413224384760
19489759 90 18409725149374549073
200 152 17775562031156323777
20281389 69 8358260332971216238
20325693 3 18113617893992327073
20374829 77 18409163316270835008
20403669 9 18130794472614206574
20432913 95 16415484848032568708
20645477 70 17918275363977687580
21065201 7 18336815468158648329
221490 88 18267305507065797424
23198884 109 16298384665030357081
23403322 49 18343864437509891633
23559900 14 18340194297571905265
25122255 55 17917722275026429406
3004659 81 18187364282367310522
4214541 1 18409727352740472113
559249 180 18337666425876046131
58051976 100 18334008415289147909
960060 61 17822014199086774268
9709674 26 18118964930258777057

>  <PUBCHEM_SHAPE_MULTIPOLES>  (1) 
326.8
14.58
2.19
1.01
18.47
0.83
0.15
5.23
3.16
-2.35
-0.18
0.41
-0.12
0.68

>  <PUBCHEM_SHAPE_SELFOVERLAP>  (1) 
634.961

>  <PUBCHEM_SHAPE_VOLUME>  (1) 
199.1

>  <PUBCHEM_COORDINATE_TYPE>  (1) 
2
5
10

$$$$
