17042
     RDKit          3D

 16 17  0  0  0  0  0  0  0  0999 V2000
    0.1810   -0.2425    1.2009 O   0  0  0  0  0  0  0  0  0  0  0  0
    0.2285   -0.3060   -1.1804 O   0  0  0  0  0  0  0  0  0  0  0  0
    3.0361    1.8106    1.1868 O   0  0  0  0  0  0  0  0  0  0  0  0
    4.4427   -0.2985   -1.0693 O   0  0  0  0  0  0  0  0  0  0  0  0
    2.3363   -0.1707    0.0501 C   0  0  0  0  0  0  0  0  0  0  0  0
    1.5539   -0.6249    1.2964 C   0  0  0  0  0  0  0  0  0  0  0  0
    1.6038   -0.6913   -1.2006 C   0  0  0  0  0  0  0  0  0  0  0  0
    2.3945    1.3687    0.0103 C   0  0  0  0  0  0  0  0  0  0  0  0
    3.7640   -0.7280    0.0937 C   0  0  0  0  0  0  0  0  0  0  0  0
   -0.4167   -0.7666    0.0111 C   0  0  0  0  0  0  0  0  0  0  0  0
   -1.8552   -0.3125   -0.0295 C   0  0  0  0  0  0  0  0  0  0  0  0
   -2.8534   -1.0944    0.5556 C   0  0  0  0  0  0  0  0  0  0  0  0
   -2.1926    0.8914   -0.6515 C   0  0  0  0  0  0  0  0  0  0  0  0
   -4.1830   -0.6746    0.5185 C   0  0  0  0  0  0  0  0  0  0  0  0
   -3.5223    1.3112   -0.6885 C   0  0  0  0  0  0  0  0  0  0  0  0
   -4.5175    0.5281   -0.1034 C   0  0  0  0  0  0  0  0  0  0  0  0
  1  6  1  0
  1 10  1  0
  2  7  1  0
  2 10  1  0
  3  8  1  0
  4  9  1  0
  5  6  1  0
  5  7  1  0
  5  8  1  0
  5  9  1  0
 10 11  1  0
 11 12  2  0
 11 13  1  0
 12 14  1  0
 13 15  2  0
 14 16  2  0
 15 16  1  0
M  END
>  <PUBCHEM_COMPOUND_CID>  (1) 
17042

>  <PUBCHEM_CONFORMER_RMSD>  (1) 
0.6

>  <PUBCHEM_CONFORMER_DIVERSEORDER>  (1) 
1
17
6
12
19
7
18
4
10
8
5
11
15
14
3
2
13
9
16

>  <PUBCHEM_MMFF94_PARTIAL_CHARGES>  (1) 
22
1 -0.56
10 0.7
11 -0.14
12 -0.15
13 -0.15
14 -0.15
15 -0.15
16 -0.15
2 -0.56
26 0.4
27 0.4
28 0.15
29 0.15
3 -0.68
30 0.15
31 0.15
32 0.15
4 -0.68
6 0.28
7 0.28
8 0.28
9 0.28

>  <PUBCHEM_EFFECTIVE_ROTOR_COUNT>  (1) 
4.2

>  <PUBCHEM_PHARMACOPHORE_FEATURES>  (1) 
8
1 1 acceptor
1 2 acceptor
1 3 acceptor
1 3 donor
1 4 acceptor
1 4 donor
6 1 2 5 6 7 10 rings
6 11 12 13 14 15 16 rings

>  <PUBCHEM_HEAVY_ATOM_COUNT>  (1) 
16

>  <PUBCHEM_ATOM_DEF_STEREO_COUNT>  (1) 
0

>  <PUBCHEM_ATOM_UDEF_STEREO_COUNT>  (1) 
0

>  <PUBCHEM_BOND_DEF_STEREO_COUNT>  (1) 
0

>  <PUBCHEM_BOND_UDEF_STEREO_COUNT>  (1) 
0

>  <PUBCHEM_ISOTOPIC_ATOM_COUNT>  (1) 
0

>  <PUBCHEM_COMPONENT_COUNT>  (1) 
1

>  <PUBCHEM_CACTVS_TAUTO_COUNT>  (1) 
1

>  <PUBCHEM_CONFORMER_ID>  (1) 
0000429200000001

>  <PUBCHEM_MMFF94_ENERGY>  (1) 
47.8226

>  <PUBCHEM_FEATURE_SELFOVERLAP>  (1) 
40.632

>  <PUBCHEM_SHAPE_FINGERPRINT>  (1) 
10366900 7 17458064884882910681
10608611 8 18410288112466138325
10646746 165 18260546697478659285
11031198 65 17060340734079298255
11132069 177 17822004328967143405
11401426 45 14979951445837803822
11471102 20 17489588961177081346
11615757 297 17846501443585960321
11715629 250 18334846247222927977
12236239 1 16805326583023378935
12500047 106 18260546710421797659
12932764 1 18335976527949076115
13134695 92 17560511820829633312
13296908 3 18408039632593302281
13533116 47 17895183352178396795
13760787 5 16558753429150114515
14115302 16 16630526258503779470
14144814 61 15864070962083153823
14252887 29 14057003780538056394
14289901 80 18187084009189885795
15219456 202 18342455971419853961
15375462 189 13912322395487240108
15653759 3 18335137596244965121
15775835 57 17749109950455765709
16945 1 17632301151073096406
18175812 5 18413670227312547127
18186145 218 18343867722827589795
19026448 4 18411982489627416067
200 152 16558748988370266607
20279233 1 18272093777542258623
20645477 70 17704077291451044262
23402539 116 18408598154625521303
23419403 2 15300812410861590754
23557571 272 18335712658523210295
23559900 14 18260266313455290270
4047638 21 18342738524369974488
474 4 15142108645078852254
4990 188 18260274010232006478
633830 44 18273208694990625061
7364860 26 18043805382028231875
74978 22 15410319066056510599
77779 3 18186523189397948075

>  <PUBCHEM_SHAPE_MULTIPOLES>  (1) 
305.8
8.51
1.34
1.15
1.9
0.32
-0.04
0.87
0.16
0.31
-0.25
-0.96
0.07
0.66

>  <PUBCHEM_SHAPE_SELFOVERLAP>  (1) 
640.546

>  <PUBCHEM_SHAPE_VOLUME>  (1) 
170.6

>  <PUBCHEM_COORDINATE_TYPE>  (1) 
2
5
10

$$$$
