17040
     RDKit          3D

 13 13  0  0  0  0  0  0  0  0999 V2000
    1.4192    0.1224    0.9545 O   0  0  0  0  0  0  0  0  0  0  0  0
    1.9984   -0.0580   -1.2901 O   0  0  0  0  0  0  0  0  0  0  0  0
    3.6247   -0.1041    0.3639 N   0  0  0  0  0  0  0  0  0  0  0  0
   -1.9995   -0.8424    0.0786 C   0  0  0  0  0  0  0  0  0  0  0  0
   -2.5633    0.4070   -0.1801 C   0  0  0  0  0  0  0  0  0  0  0  0
   -0.6611   -0.9382    0.4599 C   0  0  0  0  0  0  0  0  0  0  0  0
    0.1134    0.2155    0.5824 C   0  0  0  0  0  0  0  0  0  0  0  0
   -1.7888    1.5606   -0.0577 C   0  0  0  0  0  0  0  0  0  0  0  0
   -0.4505    1.4648    0.3235 C   0  0  0  0  0  0  0  0  0  0  0  0
   -2.8097   -2.0907   -0.0460 C   0  0  0  0  0  0  0  0  0  0  0  0
   -3.9939    0.5346   -0.5889 C   0  0  0  0  0  0  0  0  0  0  0  0
    2.3316   -0.0178   -0.1093 C   0  0  0  0  0  0  0  0  0  0  0  0
    4.7794   -0.2536   -0.4908 C   0  0  0  0  0  0  0  0  0  0  0  0
  1  7  1  0
  1 12  1  0
  2 12  2  0
  3 12  1  0
  3 13  1  0
  4  5  2  0
  4  6  1  0
  4 10  1  0
  5  8  1  0
  5 11  1  0
  6  7  2  0
  7  9  1  0
  8  9  2  0
M  END
>  <PUBCHEM_COMPOUND_CID>  (1) 
17040

>  <PUBCHEM_CONFORMER_RMSD>  (1) 
0.6

>  <PUBCHEM_CONFORMER_DIVERSEORDER>  (1) 
2
10
19
16
15
11
24
23
3
9
4
12
22
17
18
7
14
13
6
20
21
1
5
8

>  <PUBCHEM_MMFF94_PARTIAL_CHARGES>  (1) 
17
1 -0.23
10 0.14
11 0.14
12 0.78
13 0.3
14 0.15
15 0.15
16 0.15
2 -0.57
23 0.37
3 -0.73
4 -0.14
5 -0.14
6 -0.15
7 0.08
8 -0.15
9 -0.15

>  <PUBCHEM_EFFECTIVE_ROTOR_COUNT>  (1) 
3

>  <PUBCHEM_PHARMACOPHORE_FEATURES>  (1) 
3
1 2 acceptor
1 3 donor
6 4 5 6 7 8 9 rings

>  <PUBCHEM_HEAVY_ATOM_COUNT>  (1) 
13

>  <PUBCHEM_ATOM_DEF_STEREO_COUNT>  (1) 
0

>  <PUBCHEM_ATOM_UDEF_STEREO_COUNT>  (1) 
0

>  <PUBCHEM_BOND_DEF_STEREO_COUNT>  (1) 
0

>  <PUBCHEM_BOND_UDEF_STEREO_COUNT>  (1) 
0

>  <PUBCHEM_ISOTOPIC_ATOM_COUNT>  (1) 
0

>  <PUBCHEM_COMPONENT_COUNT>  (1) 
1

>  <PUBCHEM_CACTVS_TAUTO_COUNT>  (1) 
2

>  <PUBCHEM_CONFORMER_ID>  (1) 
0000429000000002

>  <PUBCHEM_MMFF94_ENERGY>  (1) 
33.327

>  <PUBCHEM_FEATURE_SELFOVERLAP>  (1) 
15.223

>  <PUBCHEM_SHAPE_FINGERPRINT>  (1) 
11127187 94 18410574011290708727
12032990 46 18340205310205181339
12532896 13 17699024885239918697
13024252 1 17022627476851851745
14115302 16 18334017202533733973
14911166 2 18410564081616444661
14993402 34 18186514389432036421
15219456 202 18059003020635878280
15775835 57 17530964657203155996
16945 1 18410283697487548153
17870717 6 18270978855540163422
18175812 5 17988638631623500308
18186145 218 15936407883703724324
200 152 16272204171912285004
20201158 50 17989489601978231526
20279233 1 17846502525701584046
20281407 28 18202567293383185506
20645476 183 17749105591285818371
20645477 70 16629968707382259068
20871998 22 17906733953529486019
20871999 31 18334571386791382335
21061003 4 16917352558232948970
21119208 17 17894911810743226860
22213442 358 18270116949660515544
23402539 116 18411129225701970988
23557571 272 18342465867045551046
23559900 14 18413102862802606568
2748010 2 18121765386807446761
293599 30 18338797785256638153
3312278 4 18408885139665568395
4175511 318 18186795859891980623
77492 1 17530956969464825992

>  <PUBCHEM_SHAPE_MULTIPOLES>  (1) 
250.81
7.2
1.51
0.86
6.87
0.28
0.07
0.88
1.74
-1.62
-0.05
0.26
-0.01
0.18

>  <PUBCHEM_SHAPE_SELFOVERLAP>  (1) 
514.734

>  <PUBCHEM_SHAPE_VOLUME>  (1) 
144.7

>  <PUBCHEM_COORDINATE_TYPE>  (1) 
2
5
10

$$$$
