17043
     RDKit          3D

 15 14  0  0  0  0  0  0  0  0999 V2000
   -7.8729    1.5528   -0.5346 Cl  0  0  0  0  0  0  0  0  0  0  0  0
   -0.0847    0.1853    0.3542 C   0  0  0  0  0  0  0  0  0  0  0  0
    1.2000   -0.5106   -0.1038 C   0  0  0  0  0  0  0  0  0  0  0  0
   -1.3255   -0.5621   -0.1397 C   0  0  0  0  0  0  0  0  0  0  0  0
    2.4408    0.2546    0.3621 C   0  0  0  0  0  0  0  0  0  0  0  0
   -2.6419    0.0983    0.2796 C   0  0  0  0  0  0  0  0  0  0  0  0
    3.7558   -0.3879   -0.0909 C   0  0  0  0  0  0  0  0  0  0  0  0
   -3.8818   -0.6885   -0.1514 C   0  0  0  0  0  0  0  0  0  0  0  0
    4.9933    0.4175    0.3128 C   0  0  0  0  0  0  0  0  0  0  0  0
   -5.1675    0.0316    0.2651 C   0  0  0  0  0  0  0  0  0  0  0  0
    6.3046   -0.1943   -0.1921 C   0  0  0  0  0  0  0  0  0  0  0  0
   -6.4080   -0.7421   -0.1914 C   0  0  0  0  0  0  0  0  0  0  0  0
    7.5707    0.6128    0.1063 C   0  0  0  0  0  0  0  0  0  0  0  0
   -7.7182   -0.0625    0.1935 C   0  0  0  0  0  0  0  0  0  0  0  0
    8.8353   -0.0049   -0.4696 C   0  0  0  0  0  0  0  0  0  0  0  0
  1 14  1  0
  2  3  1  0
  2  4  1  0
  3  5  1  0
  4  6  1  0
  5  7  1  0
  6  8  1  0
  7  9  1  0
  8 10  1  0
  9 11  1  0
 10 12  1  0
 11 13  1  0
 12 14  1  0
 13 15  1  0
M  END
>  <PUBCHEM_COMPOUND_CID>  (1) 
17043

>  <PUBCHEM_CONFORMER_RMSD>  (1) 
1.2

>  <PUBCHEM_CONFORMER_DIVERSEORDER>  (1) 
1
662
91
3
569
359
388
19
288
88
558
13
449
9
25
26
215
103
121
167
372
42
237
21
709
125
210
7
607
100
36
267
406
142
39
112
324
278
282
480
31
704
38
505
20
732
232
242
35
574
526
246
159
454
368
247
626
168
425
344
330
68
555
53
717
680
62
129
65
723
96
87
394
239
274
208
148
669
18
67
323
666
496
671
15
80
143
260
170
629
664
589

>  <PUBCHEM_MMFF94_PARTIAL_CHARGES>  (1) 
2
1 -0.29
14 0.29

>  <PUBCHEM_EFFECTIVE_ROTOR_COUNT>  (1) 
12

>  <PUBCHEM_PHARMACOPHORE_FEATURES>  (1) 
1
1 15 hydrophobe

>  <PUBCHEM_HEAVY_ATOM_COUNT>  (1) 
15

>  <PUBCHEM_ATOM_DEF_STEREO_COUNT>  (1) 
0

>  <PUBCHEM_ATOM_UDEF_STEREO_COUNT>  (1) 
0

>  <PUBCHEM_BOND_DEF_STEREO_COUNT>  (1) 
0

>  <PUBCHEM_BOND_UDEF_STEREO_COUNT>  (1) 
0

>  <PUBCHEM_ISOTOPIC_ATOM_COUNT>  (1) 
0

>  <PUBCHEM_COMPONENT_COUNT>  (1) 
1

>  <PUBCHEM_CACTVS_TAUTO_COUNT>  (1) 
1

>  <PUBCHEM_CONFORMER_ID>  (1) 
0000429300000001

>  <PUBCHEM_MMFF94_ENERGY>  (1) 
-3.1256

>  <PUBCHEM_FEATURE_SELFOVERLAP>  (1) 
5.074

>  <PUBCHEM_SHAPE_FINGERPRINT>  (1) 
11315181 36 17917997196246913171
11638347 137 8790893978231315332
12091667 2 18408040724380256267
13533116 47 17313653876649956722
13964095 4 18342174466984851729
14123256 10 18202566181018128818
14251764 18 17458340831840974792
14251764 46 18411700988875561786
14428016 248 17095531694827577316
14729087 3 18334855001073288909
15690457 1 12175621767918821804
16120349 18 13758064222042402386
17834076 25 18410293622613624138
18006028 8 15626224619383723450
20621476 8 18342738516038509278
21095086 128 12607405485846588860
21315763 28 10807937067705220930
22224240 67 15502374547679071298
232437 2 18411982472505861335
23521765 1 18342176674244730970
246663 6 8718827600103935153
28498 318 18060421296636798630
33532 11 11383842554094750148
33684 2 18131070433200977602
4325135 7 18202846556351427524
59567204 34 18335699391897598421
59682541 35 11386371452244321460
67123 10 18334858342220105075
8209 1 18202846561026092354

>  <PUBCHEM_SHAPE_MULTIPOLES>  (1) 
310.56
29.8
0.96
0.7
10.36
0.22
-0.01
6.04
-3.49
-1.42
-0.1
-0.03
0.03
0.46

>  <PUBCHEM_SHAPE_SELFOVERLAP>  (1) 
543.371

>  <PUBCHEM_SHAPE_VOLUME>  (1) 
203.3

>  <PUBCHEM_COORDINATE_TYPE>  (1) 
2
5
10

$$$$
