1704
     RDKit          3D

 17 17  0  0  1  0  0  0  0  0999 V2000
   -1.4640   -1.1682    1.0056 S   0  0  0  0  0  0  0  0  0  0  0  0
    5.1576    0.4511   -0.2548 P   0  0  0  0  0  0  0  0  0  0  0  0
    5.0760    0.0008   -1.7983 O   0  0  0  0  0  0  0  0  0  0  0  0
    6.4290   -0.3531    0.3187 O   0  0  0  0  0  0  0  0  0  0  0  0
    5.1357    1.9167    0.0043 O   0  0  0  0  0  0  0  0  0  0  0  0
   -1.4317   -2.5673    0.4715 O   0  0  0  0  0  0  0  0  0  0  0  0
   -2.9522    1.3535    1.8763 O   0  0  0  0  0  0  0  0  0  0  0  0
    2.4067    0.0292   -0.0144 C   0  0  0  0  0  0  0  0  0  0  0  0
    1.2557   -0.7044    0.6819 C   0  0  0  0  0  0  0  0  0  0  0  0
    3.7689   -0.4368    0.4844 C   0  0  0  0  0  0  0  0  0  0  0  0
   -0.1172   -0.2569    0.1913 C   0  0  0  0  0  0  0  0  0  0  0  0
   -2.8274   -0.3347    0.1688 C   0  0  0  0  0  0  0  0  0  0  0  0
   -3.3981    0.8155    0.7058 C   0  0  0  0  0  0  0  0  0  0  0  0
   -3.3015   -0.8643   -1.0281 C   0  0  0  0  0  0  0  0  0  0  0  0
   -4.4519    1.4418    0.0401 C   0  0  0  0  0  0  0  0  0  0  0  0
   -4.3552   -0.2380   -1.6936 C   0  0  0  0  0  0  0  0  0  0  0  0
   -4.9304    0.9149   -1.1595 C   0  0  0  0  0  0  0  0  0  0  0  0
  1  6  2  0
  1 11  1  0
  1 12  1  0
  2  3  1  0
  2  4  1  0
  2  5  2  0
  2 10  1  0
  7 13  1  0
  8  9  1  0
  8 10  1  0
  9 11  1  0
 12 13  2  0
 12 14  1  0
 13 15  1  0
 14 16  2  0
 15 17  2  0
 16 17  1  0
M  END
>  <PUBCHEM_COMPOUND_CID>  (1) 
1704

>  <PUBCHEM_CONFORMER_RMSD>  (1) 
0.8

>  <PUBCHEM_CONFORMER_DIVERSEORDER>  (1) 
1
25
63
45
3
28
62
69
50
20
24
26
65
36
44
2
33
55
8
31
46
52
4
6
30
57
22
7
18
49
71
10
27
15
68
9
5
53
61
66
17
70
39
11
51
13
14
72
41
42
19
56
48
21
34
60
16
67
58
12
29
43
64
54
23
32
35
38
59
37
40
47

>  <PUBCHEM_MMFF94_PARTIAL_CHARGES>  (1) 
21
1 0.24
11 0.19
12 0.06
13 0.08
14 -0.15
15 -0.15
16 -0.15
17 -0.15
2 1.24
26 0.15
27 0.5
28 0.5
29 0.15
3 -0.77
30 0.15
31 0.15
32 0.45
4 -0.77
5 -0.7
6 -0.5
7 -0.53

>  <PUBCHEM_EFFECTIVE_ROTOR_COUNT>  (1) 
6

>  <PUBCHEM_PHARMACOPHORE_FEATURES>  (1) 
7
1 3 acceptor
1 4 acceptor
1 5 acceptor
1 6 acceptor
1 7 donor
4 2 3 4 5 anion
6 12 13 14 15 16 17 rings

>  <PUBCHEM_HEAVY_ATOM_COUNT>  (1) 
17

>  <PUBCHEM_ATOM_DEF_STEREO_COUNT>  (1) 
0

>  <PUBCHEM_ATOM_UDEF_STEREO_COUNT>  (1) 
1

>  <PUBCHEM_BOND_DEF_STEREO_COUNT>  (1) 
0

>  <PUBCHEM_BOND_UDEF_STEREO_COUNT>  (1) 
0

>  <PUBCHEM_ISOTOPIC_ATOM_COUNT>  (1) 
0

>  <PUBCHEM_COMPONENT_COUNT>  (1) 
1

>  <PUBCHEM_CACTVS_TAUTO_COUNT>  (1) 
3

>  <PUBCHEM_CONFORMER_ID>  (1) 
000006A800000001

>  <PUBCHEM_MMFF94_ENERGY>  (1) 
-3.7247

>  <PUBCHEM_FEATURE_SELFOVERLAP>  (1) 
35.556

>  <PUBCHEM_SHAPE_FINGERPRINT>  (1) 
10014705 185 18113616823975660794
11089746 13 18411131446912206344
11315181 36 18131349730729424792
13167823 11 9943536197846041896
13288520 33 10447928382158801411
13675066 3 15864072061621330938
14123255 352 18186237333554537034
1420 363 12823294624162035052
1420 369 11600006565578866332
14251718 22 15913324706757512954
14251758 9 16877940517186816042
14528608 73 18201434805244391644
14573314 32 17203611467271124892
15183329 4 18410576150664573782
15348495 7 14851893577599048780
15716309 27 9727635012247128244
17780758 139 11386368136461016533
17834072 33 17846494863764887764
17870717 6 16415480454544684669
193927 3 12751240341274879922
19489759 90 17846495924510799978
19784866 170 15864066546761958034
200 152 13398629446156475035
20281389 69 17530962492930113404
20300324 65 17775282764161854105
20645477 56 17458339736772221742
22646028 1 12679466365750567886
23198884 109 18341609317385942727
23402539 116 18343579629396011488
23403322 49 14476957887538870063
23559900 14 16415182482308556907
23596394 208 16415485917832808046
2767999 5 18040429993004935596
2838139 119 18261105253559366892
300161 21 18333725823905809626
312423 11 11887676229629646562
351380 3 10879991367677007188
57265010 4 13623534545766115817
5924683 9 14635163360190562417
90127 26 16226052176021770850

>  <PUBCHEM_SHAPE_MULTIPOLES>  (1) 
328.2
14.6
1.6
1.4
19.47
0.4
0.15
-5.93
3.55
-0.58
-0.24
-1.18
-0.23
-0.42

>  <PUBCHEM_SHAPE_SELFOVERLAP>  (1) 
629.926

>  <PUBCHEM_SHAPE_VOLUME>  (1) 
200.2

>  <PUBCHEM_COORDINATE_TYPE>  (1) 
2
5
10

$$$$
