17048
     RDKit          3D

 10 11  0  0  1  0  0  0  0  0999 V2000
   -4.2243    0.2790   -0.5166 O   0  0  0  0  0  0  0  0  0  0  0  0
    4.2278    0.2201    0.5379 O   0  0  0  0  0  0  0  0  0  0  0  0
   -3.1606   -0.3944    0.1545 C   0  0  0  0  0  0  0  0  0  0  0  0
    3.1558   -0.3779   -0.1892 C   0  0  0  0  0  0  0  0  0  0  0  0
   -1.8596   -0.3694   -0.5864 C   0  0  0  0  0  0  0  0  0  0  0  0
    1.8551   -0.4028    0.5525 C   0  0  0  0  0  0  0  0  0  0  0  0
   -0.6639   -0.4002    0.3657 C   0  0  0  0  0  0  0  0  0  0  0  0
    0.6591   -0.3340   -0.3972 C   0  0  0  0  0  0  0  0  0  0  0  0
   -3.7486    0.8632    0.7029 C   0  0  0  0  0  0  0  0  0  0  0  0
    3.7593    0.9163   -0.6243 C   0  0  0  0  0  0  0  0  0  0  0  0
  1  3  1  0
  1  9  1  0
  2  4  1  0
  2 10  1  0
  3  5  1  0
  3  9  1  0
  4  6  1  0
  4 10  1  0
  5  7  1  0
  6  8  1  0
  7  8  1  0
M  END
>  <PUBCHEM_COMPOUND_CID>  (1) 
17048

>  <PUBCHEM_CONFORMER_RMSD>  (1) 
0.6

>  <PUBCHEM_CONFORMER_DIVERSEORDER>  (1) 
1
144
160
11
163
99
61
3
136
131
185
2
133
8
116
101
119
77
179
162
6
78
104
192
178
88
152
10
113
173
189
175
165
114
4
168
45
194
28
26
171
105
195
135
197
170
5
203
200
48
35
159
169
164
79
166
91
56
7
201
84
167
100
180
188
30
36
172
142
141
94
109
111
190
31
174
12
106
40
126
177
9
193
186
39
87
63
199
196
55
102
65
187
93
138
51
20
92
181
129
125
59
198
72
128
103
161
24
50
89
25
23
108
130
112
96
155
191
22
176
95
156
67
98
154
117
153
204
29
80
110
38
158
66
16
139
27
13
120
70
202
60
62
123
132
183
49
121
18
74
90
86
47
118
34
21
64
37
124
182
134
184
46
75
145
52
127
150
41
57
68
71
97
76
43
42
81
151
33
83
32
44
157
137
143
73
122
146
19
149
147
54
14
69
85
82
148
15
17
115
107
140
53
58

>  <PUBCHEM_MMFF94_PARTIAL_CHARGES>  (1) 
14
1 -0.3
10 -0.05
11 0.1
12 0.1
2 -0.3
21 0.1
22 0.1
23 0.1
24 0.1
3 -0.05
4 -0.05
5 0.09
6 0.09
9 -0.05

>  <PUBCHEM_EFFECTIVE_ROTOR_COUNT>  (1) 
6.2

>  <PUBCHEM_PHARMACOPHORE_FEATURES>  (1) 
3
1 1 acceptor
1 2 acceptor
4 5 6 7 8 hydrophobe

>  <PUBCHEM_HEAVY_ATOM_COUNT>  (1) 
10

>  <PUBCHEM_ATOM_DEF_STEREO_COUNT>  (1) 
0

>  <PUBCHEM_ATOM_UDEF_STEREO_COUNT>  (1) 
2

>  <PUBCHEM_BOND_DEF_STEREO_COUNT>  (1) 
0

>  <PUBCHEM_BOND_UDEF_STEREO_COUNT>  (1) 
0

>  <PUBCHEM_ISOTOPIC_ATOM_COUNT>  (1) 
0

>  <PUBCHEM_COMPONENT_COUNT>  (1) 
1

>  <PUBCHEM_CACTVS_TAUTO_COUNT>  (1) 
1

>  <PUBCHEM_CONFORMER_ID>  (1) 
0000429800000001

>  <PUBCHEM_MMFF94_ENERGY>  (1) 
8.8133

>  <PUBCHEM_FEATURE_SELFOVERLAP>  (1) 
15.223

>  <PUBCHEM_SHAPE_FINGERPRINT>  (1) 
11062470 55 18411419513904093382
114248 4 15626219138963300583
11987891 27 9439404605582427928
11987891 38 9943811088131712980
14123238 8 17603871125963036723
14252887 29 15719394992848753242
177051 138 10737281346866090256
17834072 33 18335982077447587071
190213 19 18411140237934762055
1986462 14 16200433572300748581
20279233 1 15430036535321521219
20645477 70 14333139559165787796
20828058 21 17917713521577053215
20828058 44 14129061417457163601
21119208 17 15554448495995909225
21293036 1 15769775758068460602
22485316 2 9079116639582130506
23402655 69 15195570091376377592
42 15 14201391677636237888
449060 50 18187369826558023355

>  <PUBCHEM_SHAPE_MULTIPOLES>  (1) 
194.06
9.24
0.87
0.84
0.05
0.11
0
2.34
0.03
0
0
-0.01
0.04
-0.37

>  <PUBCHEM_SHAPE_SELFOVERLAP>  (1) 
369.474

>  <PUBCHEM_SHAPE_VOLUME>  (1) 
120.7

>  <PUBCHEM_COORDINATE_TYPE>  (1) 
2
5
10

$$$$
