17054
     RDKit          3D

 15 15  0  0  0  0  0  0  0  0999 V2000
    0.6874    3.8226   -0.0010 Cl  0  0  0  0  0  0  0  0  0  0  0  0
   -2.1831    3.2124    0.0013 Cl  0  0  0  0  0  0  0  0  0  0  0  0
    3.8735    0.2845   -0.0005 Cl  0  0  0  0  0  0  0  0  0  0  0  0
    2.9669   -2.5066   -0.0022 Cl  0  0  0  0  0  0  0  0  0  0  0  0
   -3.6542   -1.3159   -0.0027 Cl  0  0  0  0  0  0  0  0  0  0  0  0
   -1.6907   -3.4969    0.0022 Cl  0  0  0  0  0  0  0  0  0  0  0  0
    1.0295    0.9270    0.0008 N   0  0  0  0  0  0  0  0  0  0  0  0
   -1.3176    0.4279    0.0001 N   0  0  0  0  0  0  0  0  0  0  0  0
    0.2882   -1.3551    0.0011 N   0  0  0  0  0  0  0  0  0  0  0  0
   -0.5631    2.6483   -0.0007 N   0  0  0  0  0  0  0  0  0  0  0  0
    2.5750   -0.8365    0.0005 N   0  0  0  0  0  0  0  0  0  0  0  0
   -2.0118   -1.8117   -0.0009 N   0  0  0  0  0  0  0  0  0  0  0  0
   -0.2696    1.2673    0.0003 C   0  0  0  0  0  0  0  0  0  0  0  0
    1.2324   -0.4003    0.0011 C   0  0  0  0  0  0  0  0  0  0  0  0
   -0.9627   -0.8671    0.0004 C   0  0  0  0  0  0  0  0  0  0  0  0
  1 10  1  0
  2 10  1  0
  3 11  1  0
  4 11  1  0
  5 12  1  0
  6 12  1  0
  7 13  2  0
  7 14  1  0
  8 13  1  0
  8 15  2  0
  9 14  2  0
  9 15  1  0
 10 13  1  0
 11 14  1  0
 12 15  1  0
M  END
>  <PUBCHEM_COMPOUND_CID>  (1) 
17054

>  <PUBCHEM_CONFORMER_RMSD>  (1) 
0.6

>  <PUBCHEM_CONFORMER_DIVERSEORDER>  (1) 
1
3
4
2

>  <PUBCHEM_MMFF94_PARTIAL_CHARGES>  (1) 
15
1 -0.04
10 -0.02
11 -0.02
12 -0.02
13 0.72
14 0.72
15 0.72
2 -0.04
3 -0.04
4 -0.04
5 -0.04
6 -0.04
7 -0.62
8 -0.62
9 -0.62

>  <PUBCHEM_EFFECTIVE_ROTOR_COUNT>  (1) 
3

>  <PUBCHEM_PHARMACOPHORE_FEATURES>  (1) 
4
4 7 8 10 13 cation
4 7 9 11 14 cation
4 8 9 12 15 cation
6 7 8 9 13 14 15 rings

>  <PUBCHEM_HEAVY_ATOM_COUNT>  (1) 
15

>  <PUBCHEM_ATOM_DEF_STEREO_COUNT>  (1) 
0

>  <PUBCHEM_ATOM_UDEF_STEREO_COUNT>  (1) 
0

>  <PUBCHEM_BOND_DEF_STEREO_COUNT>  (1) 
0

>  <PUBCHEM_BOND_UDEF_STEREO_COUNT>  (1) 
0

>  <PUBCHEM_ISOTOPIC_ATOM_COUNT>  (1) 
0

>  <PUBCHEM_COMPONENT_COUNT>  (1) 
1

>  <PUBCHEM_CACTVS_TAUTO_COUNT>  (1) 
1

>  <PUBCHEM_CONFORMER_ID>  (1) 
0000429E00000001

>  <PUBCHEM_MMFF94_ENERGY>  (1) 
50.0004

>  <PUBCHEM_FEATURE_SELFOVERLAP>  (1) 
20.429

>  <PUBCHEM_SHAPE_FINGERPRINT>  (1) 
10967382 1 17257934226278490180
12553582 1 18338796826840640654
13140716 1 18050286169580634480
13380535 76 17618500982705635983
14178342 30 17975113372119877410
14648413 74 17904481054040714131
15042514 8 18120940494913888419
16945 1 18339080505034860162
193761 8 18338517417874457542
19591789 44 18050572837415489721
20510252 161 18270116803620870450
20645477 70 17543897366784454839
20711985 365 18337953364093842374
20871998 184 18201155460086208854
21501502 16 18265896865641580166
21524375 3 17395867461840649128
2334 1 18338516339573915654
23402539 116 18343291561797729487
23419403 2 17754982575399227316
23557571 272 18272379650781556964
23558518 356 18189622644268733226
23559900 14 17623286075561400622
23598291 2 17627232595721725687
23598294 1 18263921055682865802
2748010 2 18267587909623263125
305870 269 16897083838806338936
3071541 12 17906455780928893141
3071541 158 18117553140075178805
3091708 16 9210111372573016313
34934 24 18339071704758160130
352729 6 17978229361521721358
54173680 148 18265896852339765043
58051976 378 17403448581629561845
7364860 26 17834677480024146567
81228 2 18410855434358358379

>  <PUBCHEM_SHAPE_MULTIPOLES>  (1) 
290.03
5.03
5.03
0.6
1.3
3.26
0
-3.26
0
-1.3
0
0
0
0

>  <PUBCHEM_SHAPE_SELFOVERLAP>  (1) 
532.714

>  <PUBCHEM_SHAPE_VOLUME>  (1) 
187.4

>  <PUBCHEM_COORDINATE_TYPE>  (1) 
2
5
10

$$$$
