17053
     RDKit          3D

 18 20  0  0  0  0  0  0  0  0999 V2000
    3.0259    2.7414    0.1251 O   0  0  0  0  0  0  0  0  0  0  0  0
   -3.3047   -0.3831    0.0240 N   0  0  0  0  0  0  0  0  0  0  0  0
    2.0592   -2.6545    0.0343 N   0  0  0  0  0  0  0  0  0  0  0  0
   -4.1920   -0.2252    1.1761 C   0  0  0  0  0  0  0  0  0  0  0  0
   -3.3395    0.9083   -0.6618 C   0  0  0  0  0  0  0  0  0  0  0  0
   -5.3740    0.5365    0.5947 C   0  0  0  0  0  0  0  0  0  0  0  0
   -4.8146    1.2786   -0.6152 C   0  0  0  0  0  0  0  0  0  0  0  0
   -1.9561   -0.7709    0.4103 C   0  0  0  0  0  0  0  0  0  0  0  0
   -1.0676   -0.9734   -0.8195 C   0  0  0  0  0  0  0  0  0  0  0  0
    0.3232   -1.3971   -0.4489 C   0  0  0  0  0  0  0  0  0  0  0  0
    1.4072   -0.5333   -0.1956 C   0  0  0  0  0  0  0  0  0  0  0  0
    2.4972   -1.3515    0.1088 C   0  0  0  0  0  0  0  0  0  0  0  0
    0.7334   -2.6881   -0.3060 C   0  0  0  0  0  0  0  0  0  0  0  0
    1.5861    0.8643   -0.1908 C   0  0  0  0  0  0  0  0  0  0  0  0
    3.7623   -0.8398    0.4190 C   0  0  0  0  0  0  0  0  0  0  0  0
    2.8458    1.3904    0.1178 C   0  0  0  0  0  0  0  0  0  0  0  0
    3.9157    0.5497    0.4177 C   0  0  0  0  0  0  0  0  0  0  0  0
    1.8926    3.5474   -0.1901 C   0  0  0  0  0  0  0  0  0  0  0  0
  1 16  1  0
  1 18  1  0
  2  4  1  0
  2  5  1  0
  2  8  1  0
  3 12  1  0
  3 13  1  0
  4  6  1  0
  5  7  1  0
  6  7  1  0
  8  9  1  0
  9 10  1  0
 10 11  1  0
 10 13  2  0
 11 12  2  0
 11 14  1  0
 12 15  1  0
 14 16  2  0
 15 17  2  0
 16 17  1  0
M  END
>  <PUBCHEM_COMPOUND_CID>  (1) 
17053

>  <PUBCHEM_CONFORMER_RMSD>  (1) 
0.6

>  <PUBCHEM_CONFORMER_DIVERSEORDER>  (1) 
1
8
29
40
16
34
21
19
5
31
10
7
23
43
22
6
30
42
27
33
38
41
9
2
13
39
32
20
24
44
37
3
35
36
26
28
25
4
15
18
11
12
14
17

>  <PUBCHEM_MMFF94_PARTIAL_CHARGES>  (1) 
20
1 -0.36
10 -0.18
12 -0.15
13 -0.3
14 -0.15
15 -0.15
16 0.08
17 -0.15
18 0.28
2 -0.81
3 0.03
31 0.15
32 0.27
33 0.15
34 0.15
35 0.15
4 0.27
5 0.27
8 0.27
9 0.18

>  <PUBCHEM_EFFECTIVE_ROTOR_COUNT>  (1) 
5

>  <PUBCHEM_PHARMACOPHORE_FEATURES>  (1) 
7
1 1 acceptor
1 2 cation
1 3 cation
1 3 donor
5 2 4 5 6 7 rings
5 3 10 11 12 13 rings
6 11 12 14 15 16 17 rings

>  <PUBCHEM_HEAVY_ATOM_COUNT>  (1) 
18

>  <PUBCHEM_ATOM_DEF_STEREO_COUNT>  (1) 
0

>  <PUBCHEM_ATOM_UDEF_STEREO_COUNT>  (1) 
0

>  <PUBCHEM_BOND_DEF_STEREO_COUNT>  (1) 
0

>  <PUBCHEM_BOND_UDEF_STEREO_COUNT>  (1) 
0

>  <PUBCHEM_ISOTOPIC_ATOM_COUNT>  (1) 
0

>  <PUBCHEM_COMPONENT_COUNT>  (1) 
1

>  <PUBCHEM_CACTVS_TAUTO_COUNT>  (1) 
1

>  <PUBCHEM_CONFORMER_ID>  (1) 
0000429D00000001

>  <PUBCHEM_MMFF94_ENERGY>  (1) 
36.1605

>  <PUBCHEM_FEATURE_SELFOVERLAP>  (1) 
35.613

>  <PUBCHEM_SHAPE_FINGERPRINT>  (1) 
10366900 7 18041289794018220387
10411042 1 17835240043647711638
11471102 20 18412260597497563622
12403259 118 18339915017396920051
12403259 327 17240195560479959456
12507557 5 18411135818761541937
12633257 1 18040422309076282938
13134695 92 18192705657450457582
13140716 1 18337385071395965522
13583140 156 17314204770408761099
14026960 21 18336269041260509509
14123255 52 18268147737162080796
14251764 75 18124892389066238337
14790565 3 18118970428355947516
15081414 286 18341899550270507220
15475509 8 18058190375007377060
1601671 61 18409450280637587212
1813 80 17341548349113637702
18186145 218 18272940444028470646
20157964 124 18339919325939805127
20681677 76 18334574646892982511
21041028 32 18049150078249596366
21065198 57 18335704901875759219
21065199 12 18259709978184047563
21524375 3 18128535062139714710
21665062 11 18410011022698210920
21709351 56 18413101775464146663
22289505 5 18264485083541183508
22854114 111 18411982468310757079
23227448 37 18340484560446933063
23558518 356 17974846482561901050
23559900 14 18338234843571411235
2838139 119 15337971227209154898
293599 30 18338520845849314060
3060560 45 18130510743207310590
33382 64 15503205680202536730
351380 180 18335135363389478873
4409770 3 15247960364531049775
474 4 18413107281590919419
49207404 50 18188783862946311603
5104073 3 18261963947219832155
5939293 188 18411414025442375796
602551 16 16298397880549963779
633830 44 18272373121808768614
7808743 9 17832430074268675004
7832392 63 18341607187625534798
8272917 22 18342742866782754135

>  <PUBCHEM_SHAPE_MULTIPOLES>  (1) 
354.6
9.67
3.08
0.85
12.13
1.59
-0.05
3.57
-1.77
-3.48
0.32
0.59
-0.03
0.31

>  <PUBCHEM_SHAPE_SELFOVERLAP>  (1) 
760.182

>  <PUBCHEM_SHAPE_VOLUME>  (1) 
200.1

>  <PUBCHEM_COORDINATE_TYPE>  (1) 
2
5
10

$$$$
