1705
     RDKit          3D

 16 16  0  0  0  0  0  0  0  0999 V2000
   -1.4935    1.3206    0.9516 S   0  0  0  0  0  0  0  0  0  0  0  0
    4.8998   -0.3310   -0.2707 P   0  0  0  0  0  0  0  0  0  0  0  0
   -3.9768    1.9756   -0.7134 O   0  0  0  0  0  0  0  0  0  0  0  0
    4.6841   -1.9369   -0.1386 O   0  0  0  0  0  0  0  0  0  0  0  0
    6.1278   -0.1054    0.7693 O   0  0  0  0  0  0  0  0  0  0  0  0
    5.2734    0.0626   -1.6760 O   0  0  0  0  0  0  0  0  0  0  0  0
    1.2232    1.3835    0.5069 C   0  0  0  0  0  0  0  0  0  0  0  0
   -0.0301    0.5798    0.1712 C   0  0  0  0  0  0  0  0  0  0  0  0
    2.4356    0.7747   -0.1373 C   0  0  0  0  0  0  0  0  0  0  0  0
   -2.7857    0.2088    0.4077 C   0  0  0  0  0  0  0  0  0  0  0  0
   -3.8620    0.6662   -0.3508 C   0  0  0  0  0  0  0  0  0  0  0  0
    3.5181    0.3649    0.5382 C   0  0  0  0  0  0  0  0  0  0  0  0
   -2.6991   -1.1374    0.7589 C   0  0  0  0  0  0  0  0  0  0  0  0
   -4.8543   -0.2250   -0.7592 C   0  0  0  0  0  0  0  0  0  0  0  0
   -3.6914   -2.0285    0.3506 C   0  0  0  0  0  0  0  0  0  0  0  0
   -4.7691   -1.5723   -0.4084 C   0  0  0  0  0  0  0  0  0  0  0  0
  1  8  1  0
  1 10  1  0
  2  4  1  0
  2  5  1  0
  2  6  2  0
  2 12  1  0
  3 11  1  0
  7  8  1  0
  7  9  1  0
  9 12  2  0
 10 11  2  0
 10 13  1  0
 11 14  1  0
 13 15  2  0
 14 16  2  0
 15 16  1  0
M  END
>  <PUBCHEM_COMPOUND_CID>  (1) 
1705

>  <PUBCHEM_CONFORMER_RMSD>  (1) 
0.6

>  <PUBCHEM_CONFORMER_DIVERSEORDER>  (1) 
2
39
171
45
157
103
81
22
98
21
77
137
118
74
143
170
135
121
73
1
52
59
9
95
111
7
63
88
140
164
142
153
128
148
80
75
100
162
36
67
167
44
40
152
155
116
109
38
87
160
169
102
85
3
173
166
19
13
65
147
96
78
89
66
134
101
139
119
83
24
34
112
26
131
165
68
29
71
58
69
53
168
115
138
18
56
129
25
123
156
50
57
54
48
47
159
86
43
110
15
8
154
55
90
146
49
28
151
145
113
114
106
41
37
16
91
99
108
33
125
79
42
117
30
127
92
27
93
84
46
97
72
35
6
163
82
32
132
161
62
150
4
76
51
104
107
10
61
23
122
141
11
17
12
126
94
14
5
133
149
70
120
64
144
105
130
60
20
124
172
31
136
158

>  <PUBCHEM_MMFF94_PARTIAL_CHARGES>  (1) 
25
1 -0.33
10 0.1
11 0.08
12 -0.3
13 -0.15
14 -0.15
15 -0.15
16 -0.15
2 1.39
21 0.15
22 0.15
23 0.15
24 0.15
25 0.15
26 0.15
27 0.45
28 0.5
29 0.5
3 -0.53
4 -0.77
5 -0.77
6 -0.7
7 0.14
8 0.23
9 -0.29

>  <PUBCHEM_EFFECTIVE_ROTOR_COUNT>  (1) 
5

>  <PUBCHEM_PHARMACOPHORE_FEATURES>  (1) 
7
1 3 donor
1 4 acceptor
1 5 acceptor
1 6 acceptor
4 1 7 8 9 hydrophobe
4 2 4 5 6 anion
6 10 11 13 14 15 16 rings

>  <PUBCHEM_HEAVY_ATOM_COUNT>  (1) 
16

>  <PUBCHEM_ATOM_DEF_STEREO_COUNT>  (1) 
0

>  <PUBCHEM_ATOM_UDEF_STEREO_COUNT>  (1) 
0

>  <PUBCHEM_BOND_DEF_STEREO_COUNT>  (1) 
0

>  <PUBCHEM_BOND_UDEF_STEREO_COUNT>  (1) 
1

>  <PUBCHEM_ISOTOPIC_ATOM_COUNT>  (1) 
0

>  <PUBCHEM_COMPONENT_COUNT>  (1) 
1

>  <PUBCHEM_CACTVS_TAUTO_COUNT>  (1) 
3

>  <PUBCHEM_CONFORMER_ID>  (1) 
000006A900000002

>  <PUBCHEM_MMFF94_ENERGY>  (1) 
-0.2015

>  <PUBCHEM_FEATURE_SELFOVERLAP>  (1) 
35.564

>  <PUBCHEM_SHAPE_FINGERPRINT>  (1) 
10803635 8 18187357718939584471
11128504 68 16515405192136824692
11315181 36 18202283614845795576
12555020 224 18411129260700337471
12596602 18 14333408956325365494
14123255 352 8214148442828935059
1420 369 17917998299330808310
14251718 22 18409168839962761340
14848160 23 18202559588348798712
15183329 4 16950559970071719546
17834072 33 18261396676186646316
17834072 8 18260258660018513751
17844677 252 18412266159607215272
17857418 61 18410008819548929754
17870717 6 18410015442367316607
193927 3 17988655107191894304
19489759 90 18408036312557325689
200 152 17917709106424551897
20281389 69 8358260332823575166
20325693 3 18040152929450072777
20374829 77 18408600370433019920
20432913 95 16774085067847068508
20645477 56 10737283545546753640
20645477 70 18060422439029683340
20871999 31 18113059345794912728
23198884 109 16298102099242800971
23402539 116 18260543415970833204
23403322 49 18343021116497098571
23559900 14 18339632451577962353
27216 239 8718833089647126457
3004659 81 18113899321972512418
4214541 1 18408882932258216753
559249 180 18336540534691117363
960060 61 17749112188618952190

>  <PUBCHEM_SHAPE_MULTIPOLES>  (1) 
313.49
14.66
1.85
1.01
15.27
0.37
0.15
5.21
2.96
-1.5
-0.09
0.34
-0.07
0.52

>  <PUBCHEM_SHAPE_SELFOVERLAP>  (1) 
603.969

>  <PUBCHEM_SHAPE_VOLUME>  (1) 
191.2

>  <PUBCHEM_COORDINATE_TYPE>  (1) 
2
5
10

$$$$
