1706
     RDKit          3D

 13 14  0  0  0  0  0  0  0  0999 V2000
   -4.3253    0.2421   -0.8917 N   0  0  0  0  0  0  0  0  0  0  0  0
    1.8720    0.9035    0.0932 N   0  0  0  0  0  0  0  0  0  0  0  0
    2.9575   -1.0653   -0.3007 N   0  0  0  0  0  0  0  0  0  0  0  0
    4.1793    1.0057   -0.4353 N   0  0  0  0  0  0  0  0  0  0  0  0
   -3.1866    0.1068    0.0159 C   0  0  0  0  0  0  0  0  0  0  0  0
   -2.2756    1.3377   -0.1064 C   0  0  0  0  0  0  0  0  0  0  0  0
   -2.4102   -1.1858   -0.2813 C   0  0  0  0  0  0  0  0  0  0  0  0
   -1.0403    1.2144    0.7892 C   0  0  0  0  0  0  0  0  0  0  0  0
   -1.1750   -1.3184    0.6129 C   0  0  0  0  0  0  0  0  0  0  0  0
   -0.3189   -0.0820    0.5288 C   0  0  0  0  0  0  0  0  0  0  0  0
    0.9858   -0.1302    0.2240 C   0  0  0  0  0  0  0  0  0  0  0  0
    1.7253   -1.3551   -0.0355 C   0  0  0  0  0  0  0  0  0  0  0  0
    3.0120    0.3267   -0.2131 C   0  0  0  0  0  0  0  0  0  0  0  0
  1  5  1  0
  2 11  1  0
  2 13  2  0
  3 12  2  0
  3 13  1  0
  4 13  1  0
  5  6  1  0
  5  7  1  0
  6  8  1  0
  7  9  1  0
  8 10  1  0
  9 10  1  0
 10 11  2  3
 11 12  1  0
M  END
>  <PUBCHEM_COMPOUND_CID>  (1) 
1706

>  <PUBCHEM_CONFORMER_RMSD>  (1) 
0.4

>  <PUBCHEM_CONFORMER_DIVERSEORDER>  (1) 
1
6
7
2
5
3
4

>  <PUBCHEM_MMFF94_PARTIAL_CHARGES>  (1) 
16
1 -0.99
10 -0.28
11 0.19
12 0.38
13 0.71
2 -0.62
23 0.36
24 0.36
25 0.06
26 0.4
27 0.4
3 -0.66
4 -0.85
5 0.27
8 0.14
9 0.14

>  <PUBCHEM_EFFECTIVE_ROTOR_COUNT>  (1) 
1

>  <PUBCHEM_PHARMACOPHORE_FEATURES>  (1) 
7
1 1 cation
1 1 donor
1 3 acceptor
1 4 donor
4 2 3 4 13 cation
5 2 3 11 12 13 rings
6 5 6 7 8 9 10 rings

>  <PUBCHEM_HEAVY_ATOM_COUNT>  (1) 
13

>  <PUBCHEM_ATOM_DEF_STEREO_COUNT>  (1) 
0

>  <PUBCHEM_ATOM_UDEF_STEREO_COUNT>  (1) 
0

>  <PUBCHEM_BOND_DEF_STEREO_COUNT>  (1) 
0

>  <PUBCHEM_BOND_UDEF_STEREO_COUNT>  (1) 
0

>  <PUBCHEM_ISOTOPIC_ATOM_COUNT>  (1) 
0

>  <PUBCHEM_COMPONENT_COUNT>  (1) 
1

>  <PUBCHEM_CACTVS_TAUTO_COUNT>  (1) 
2

>  <PUBCHEM_CONFORMER_ID>  (1) 
000006AA00000001

>  <PUBCHEM_MMFF94_ENERGY>  (1) 
19.5104

>  <PUBCHEM_FEATURE_SELFOVERLAP>  (1) 
35.52

>  <PUBCHEM_SHAPE_FINGERPRINT>  (1) 
10608611 8 18410011035377774200
11062470 55 18259703414846089742
12119455 92 12612744736033533147
12897270 3 18342177790630246906
12932764 1 17489863843162792890
13380535 76 18408605859675719178
14144814 61 18410015403237818386
14325111 11 18410295770060316425
14897335 6 18407759235748400018
14943859 89 16732699454562172473
15775835 57 17603299341177439539
16945 1 18413669127674299331
18186145 218 18188210905545036487
18619055 16 18412823564530614267
200 152 17847059973749040986
20201158 50 18343021090342387143
20361792 2 15051728677174088985
20523700 14 18410293631161380343
20645464 45 11746930984399338225
20645477 70 18339924818280564086
20871999 31 18339631352530304943
21293036 1 18409163312186688697
21501502 16 18200036118583669658
23402539 116 18260537961414848510
23402655 69 18341045233856651877
23552423 10 18337674087955712691
23559900 14 18413386545260742466
2748010 2 17836928171657031546
3312278 4 18340209686407662331
353137 74 18336543828978493241
4028521 119 18187640284943665645
42 15 10231757798947012309
57096353 35 18343021107464195516
58051976 378 18272653458898733300
69090 78 18412541003175071607
8030462 33 18130512963456891192
93112 12 18410577283776180790

>  <PUBCHEM_SHAPE_MULTIPOLES>  (1) 
247.61
6.68
1.48
0.78
0.88
0.11
-0.03
-1.06
2.03
-0.01
-0.07
-0.28
-0.03
-0.05

>  <PUBCHEM_SHAPE_SELFOVERLAP>  (1) 
520.072

>  <PUBCHEM_SHAPE_VOLUME>  (1) 
137.1

>  <PUBCHEM_COORDINATE_TYPE>  (1) 
2
5
10

$$$$
