17078
     RDKit          3D

 10 10  0  0  0  0  0  0  0  0999 V2000
    1.2984    2.8719    0.0001 Br  0  0  0  0  0  0  0  0  0  0  0  0
    1.2974   -2.8723    0.0001 Br  0  0  0  0  0  0  0  0  0  0  0  0
    2.4517   -0.0004   -0.0003 O   0  0  0  0  0  0  0  0  0  0  0  0
   -1.7037    0.0003    0.0000 C   0  0  0  0  0  0  0  0  0  0  0  0
   -1.0064   -1.2078    0.0000 C   0  0  0  0  0  0  0  0  0  0  0  0
   -1.0060    1.2081    0.0000 C   0  0  0  0  0  0  0  0  0  0  0  0
    1.0863   -0.0002    0.0002 C   0  0  0  0  0  0  0  0  0  0  0  0
    0.3889    1.2080    0.0001 C   0  0  0  0  0  0  0  0  0  0  0  0
    0.3885   -1.2081    0.0001 C   0  0  0  0  0  0  0  0  0  0  0  0
   -3.1951    0.0005   -0.0001 C   0  0  0  0  0  0  0  0  0  0  0  0
  1  8  1  0
  2  9  1  0
  3  7  1  0
  4  5  2  0
  4  6  1  0
  4 10  1  0
  5  9  1  0
  6  8  2  0
  7  8  1  0
  7  9  2  0
M  END
>  <PUBCHEM_COMPOUND_CID>  (1) 
17078

>  <PUBCHEM_CONFORMER_RMSD>  (1) 
0.4

>  <PUBCHEM_CONFORMER_DIVERSEORDER>  (1) 
1

>  <PUBCHEM_MMFF94_PARTIAL_CHARGES>  (1) 
13
1 -0.11
10 0.14
11 0.15
12 0.15
16 0.45
2 -0.11
3 -0.53
4 -0.14
5 -0.15
6 -0.15
7 0.08
8 0.11
9 0.11

>  <PUBCHEM_EFFECTIVE_ROTOR_COUNT>  (1) 
0

>  <PUBCHEM_PHARMACOPHORE_FEATURES>  (1) 
4
1 1 hydrophobe
1 2 hydrophobe
1 3 donor
6 4 5 6 7 8 9 rings

>  <PUBCHEM_HEAVY_ATOM_COUNT>  (1) 
10

>  <PUBCHEM_ATOM_DEF_STEREO_COUNT>  (1) 
0

>  <PUBCHEM_ATOM_UDEF_STEREO_COUNT>  (1) 
0

>  <PUBCHEM_BOND_DEF_STEREO_COUNT>  (1) 
0

>  <PUBCHEM_BOND_UDEF_STEREO_COUNT>  (1) 
0

>  <PUBCHEM_ISOTOPIC_ATOM_COUNT>  (1) 
0

>  <PUBCHEM_COMPONENT_COUNT>  (1) 
1

>  <PUBCHEM_CACTVS_TAUTO_COUNT>  (1) 
2

>  <PUBCHEM_CONFORMER_ID>  (1) 
000042B600000001

>  <PUBCHEM_MMFF94_ENERGY>  (1) 
21.4796

>  <PUBCHEM_FEATURE_SELFOVERLAP>  (1) 
20.297

>  <PUBCHEM_SHAPE_FINGERPRINT>  (1) 
1 1 18338233872660219943
12423570 1 15394043296009655828
13380535 76 17908699884155837780
161256 15 18124878962813107302
16945 1 18410575084884618501
18185500 45 18339923718863303487
193761 8 17762056536737949860
21040471 1 17906171007359289857
2334 1 17978228592901916935
23552423 10 18412261774513619175
23559900 14 17766015161600366924
241688 4 17906173953685444481
2748010 2 18048321333854308207
5084963 1 18131070493003394297

>  <PUBCHEM_SHAPE_MULTIPOLES>  (1) 
211.81
3.27
3.09
0.64
0
2.13
0
-2.51
0
0
0
0
-0.02
0

>  <PUBCHEM_SHAPE_SELFOVERLAP>  (1) 
411.651

>  <PUBCHEM_SHAPE_VOLUME>  (1) 
134.8

>  <PUBCHEM_COORDINATE_TYPE>  (1) 
2
5
10

$$$$
