17072
     RDKit          3D

 10  9  0  0  0  0  0  0  0  0999 V2000
    5.2957   -0.0213   -0.0657 O   0  0  0  0  0  0  0  0  0  0  0  0
   -2.1562    0.2337   -0.8845 C   0  0  0  0  0  0  0  0  0  0  0  0
   -0.9656    0.0180    0.0570 C   0  0  0  0  0  0  0  0  0  0  0  0
   -3.5508    0.0231   -0.2652 C   0  0  0  0  0  0  0  0  0  0  0  0
    0.3924    0.1760   -0.6296 C   0  0  0  0  0  0  0  0  0  0  0  0
    1.5414   -0.0549    0.3553 C   0  0  0  0  0  0  0  0  0  0  0  0
    2.9011    0.0639   -0.3394 C   0  0  0  0  0  0  0  0  0  0  0  0
   -3.7249   -1.3793    0.3183 C   0  0  0  0  0  0  0  0  0  0  0  0
   -3.7947    1.0708    0.8249 C   0  0  0  0  0  0  0  0  0  0  0  0
    4.0617   -0.1300    0.6289 C   0  0  0  0  0  0  0  0  0  0  0  0
  1 10  1  0
  2  3  1  0
  2  4  1  0
  3  5  1  0
  4  8  1  0
  4  9  1  0
  5  6  1  0
  6  7  1  0
  7 10  1  0
M  END
>  <PUBCHEM_COMPOUND_CID>  (1) 
17072

>  <PUBCHEM_CONFORMER_RMSD>  (1) 
0.6

>  <PUBCHEM_CONFORMER_DIVERSEORDER>  (1) 
1
16
28
6
25
11
23
27
9
14
17
20
7
26
19
2
22
3
12
13
15
5
24
8
18
21
10
4

>  <PUBCHEM_MMFF94_PARTIAL_CHARGES>  (1) 
3
1 -0.68
10 0.28
30 0.4

>  <PUBCHEM_EFFECTIVE_ROTOR_COUNT>  (1) 
6

>  <PUBCHEM_PHARMACOPHORE_FEATURES>  (1) 
5
1 1 acceptor
1 1 donor
3 2 3 4 hydrophobe
3 4 8 9 hydrophobe
3 5 6 7 hydrophobe

>  <PUBCHEM_HEAVY_ATOM_COUNT>  (1) 
10

>  <PUBCHEM_ATOM_DEF_STEREO_COUNT>  (1) 
0

>  <PUBCHEM_ATOM_UDEF_STEREO_COUNT>  (1) 
0

>  <PUBCHEM_BOND_DEF_STEREO_COUNT>  (1) 
0

>  <PUBCHEM_BOND_UDEF_STEREO_COUNT>  (1) 
0

>  <PUBCHEM_ISOTOPIC_ATOM_COUNT>  (1) 
0

>  <PUBCHEM_COMPONENT_COUNT>  (1) 
1

>  <PUBCHEM_CACTVS_TAUTO_COUNT>  (1) 
1

>  <PUBCHEM_CONFORMER_ID>  (1) 
000042B000000001

>  <PUBCHEM_MMFF94_ENERGY>  (1) 
3.8659

>  <PUBCHEM_FEATURE_SELFOVERLAP>  (1) 
26.113

>  <PUBCHEM_SHAPE_FINGERPRINT>  (1) 
10680689 15 17313101938734186221
11062470 55 12679461997483880900
114248 4 12685096981817976988
12932764 1 17603575340229220317
14123238 8 17530964692042825222
17834072 33 17822578308507234046
17834076 25 12319739171738619407
18342897 14 18060419105771032408
190213 19 18343302565276763485
20645477 70 16661468637265465875
20671657 1 18044383956983044364
20711985 327 17749112205282058709
20719005 15 16298104281181054764
20767249 213 17846779586106269465
20828058 21 18202566185218105318
20828058 44 18409167718396015898
22485316 2 17676480631767141986
23402539 116 16805315595990620782
42788 4 17632857529958494368

>  <PUBCHEM_SHAPE_MULTIPOLES>  (1) 
199.93
10.25
0.93
0.88
8.4
0.14
0.01
0.47
-1.61
-1.18
-0.15
-0.28
-0.08
-0.18

>  <PUBCHEM_SHAPE_SELFOVERLAP>  (1) 
352.81

>  <PUBCHEM_SHAPE_VOLUME>  (1) 
131.7

>  <PUBCHEM_COORDINATE_TYPE>  (1) 
2
5
10

$$$$
