17075
     RDKit          3D

 10  9  0  0  1  0  0  0  0  0999 V2000
    0.3884    1.6873    1.2684 Cl  0  0  0  0  0  0  0  0  0  0  0  0
    0.7138    1.2523   -1.5900 Cl  0  0  0  0  0  0  0  0  0  0  0  0
   -1.2994   -1.2200    1.4498 Cl  0  0  0  0  0  0  0  0  0  0  0  0
    3.2009    0.2782    0.4101 Cl  0  0  0  0  0  0  0  0  0  0  0  0
    1.7812   -1.8590   -0.9413 Cl  0  0  0  0  0  0  0  0  0  0  0  0
   -3.7022   -0.2837   -0.4249 Cl  0  0  0  0  0  0  0  0  0  0  0  0
    0.4260    0.4003   -0.0112 C   0  0  0  0  0  0  0  0  0  0  0  0
   -0.9657   -0.3128   -0.0770 C   0  0  0  0  0  0  0  0  0  0  0  0
    1.6155   -0.5600    0.2825 C   0  0  0  0  0  0  0  0  0  0  0  0
   -2.1585    0.6173   -0.3664 C   0  0  0  0  0  0  0  0  0  0  0  0
  1  7  1  0
  2  7  1  0
  3  8  1  0
  4  9  1  0
  5  9  1  0
  6 10  1  0
  7  8  1  0
  7  9  1  0
  8 10  1  0
M  END
>  <PUBCHEM_COMPOUND_CID>  (1) 
17075

>  <PUBCHEM_CONFORMER_RMSD>  (1) 
0.6

>  <PUBCHEM_CONFORMER_DIVERSEORDER>  (1) 
1
28
41
4
25
15
40
10
24
16
3
21
37
26
42
17
29
11
18
2
36
8
22
9
39
35
13
19
12
33
23
20
7
31
34
30
14
38
27
32
6
5

>  <PUBCHEM_MMFF94_PARTIAL_CHARGES>  (1) 
10
1 -0.29
10 0.29
2 -0.29
3 -0.29
4 -0.29
5 -0.29
6 -0.29
7 0.58
8 0.29
9 0.58

>  <PUBCHEM_EFFECTIVE_ROTOR_COUNT>  (1) 
3

>  <PUBCHEM_PHARMACOPHORE_FEATURES>  (1) 
0

>  <PUBCHEM_HEAVY_ATOM_COUNT>  (1) 
10

>  <PUBCHEM_ATOM_DEF_STEREO_COUNT>  (1) 
0

>  <PUBCHEM_ATOM_UDEF_STEREO_COUNT>  (1) 
1

>  <PUBCHEM_BOND_DEF_STEREO_COUNT>  (1) 
0

>  <PUBCHEM_BOND_UDEF_STEREO_COUNT>  (1) 
0

>  <PUBCHEM_ISOTOPIC_ATOM_COUNT>  (1) 
0

>  <PUBCHEM_COMPONENT_COUNT>  (1) 
1

>  <PUBCHEM_CACTVS_TAUTO_COUNT>  (1) 
1

>  <PUBCHEM_CONFORMER_ID>  (1) 
000042B300000001

>  <PUBCHEM_MMFF94_ENERGY>  (1) 
18.6611

>  <PUBCHEM_FEATURE_SELFOVERLAP>  (1) 
0

>  <PUBCHEM_SHAPE_FINGERPRINT>  (1) 
10219947 1 16415477172715066045
11062470 55 18408598167061893456
12932764 1 16343404142770203141
14648413 74 17605281876675313997
14993402 34 17240755181812444751
16945 1 17822585927283429091
20201158 50 18410011030908649211
20511035 2 17973440193945714938
20711985 344 17755590347530706582
207724 885 17385437722056827081
23235685 24 17967801773938514317
23402539 116 17895737556781486831
23526113 38 18409444761066762731
23552423 10 18126010360214655342
29004967 10 18273494563529020986
3248919 1 18261686925459470861
5084963 1 18260260850599690165
68250623 7 17558273116001968320

>  <PUBCHEM_SHAPE_MULTIPOLES>  (1) 
217.01
4.48
1.71
1.43
2.19
0.15
0.01
0.71
-0.39
-0.64
0
-0.09
-0.18
0.5

>  <PUBCHEM_SHAPE_SELFOVERLAP>  (1) 
352.745

>  <PUBCHEM_SHAPE_VOLUME>  (1) 
151.6

>  <PUBCHEM_COORDINATE_TYPE>  (1) 
2
5
10

$$$$
