17084
     RDKit          3D

 14 14  0  0  0  0  0  0  0  0999 V2000
    2.6959   -0.7759    0.6318 O   0  0  0  0  0  0  0  0  0  0  0  0
   -0.7713   -0.7055   -1.9037 O   0  0  0  0  0  0  0  0  0  0  0  0
   -1.6006    0.2027    0.0843 N   0  0  0  0  0  0  0  0  0  0  0  0
    2.8845    0.4998    0.1140 N   0  0  0  0  0  0  0  0  0  0  0  0
   -2.9866    0.1711   -0.3612 C   0  0  0  0  0  0  0  0  0  0  0  0
   -1.3801    0.7301    1.4292 C   0  0  0  0  0  0  0  0  0  0  0  0
    0.7997   -0.2008   -0.3040 C   0  0  0  0  0  0  0  0  0  0  0  0
   -0.5946   -0.2589   -0.7708 C   0  0  0  0  0  0  0  0  0  0  0  0
    1.4278   -1.1832    0.3688 C   0  0  0  0  0  0  0  0  0  0  0  0
    1.7157    0.8212   -0.4477 C   0  0  0  0  0  0  0  0  0  0  0  0
   -3.6565   -1.1378    0.0022 C   0  0  0  0  0  0  0  0  0  0  0  0
   -1.1534    2.2276    1.4076 C   0  0  0  0  0  0  0  0  0  0  0  0
    1.0613   -2.5214    0.8521 C   0  0  0  0  0  0  0  0  0  0  0  0
    1.5583    2.1310   -1.1026 C   0  0  0  0  0  0  0  0  0  0  0  0
  1  4  1  0
  1  9  1  0
  2  8  2  0
  3  5  1  0
  3  6  1  0
  3  8  1  0
  4 10  2  0
  5 11  1  0
  6 12  1  0
  7  8  1  0
  7  9  2  0
  7 10  1  0
  9 13  1  0
 10 14  1  0
M  END
>  <PUBCHEM_COMPOUND_CID>  (1) 
17084

>  <PUBCHEM_CONFORMER_RMSD>  (1) 
0.6

>  <PUBCHEM_CONFORMER_DIVERSEORDER>  (1) 
2
9
11
1
10
12
3
4
6
5
7
8

>  <PUBCHEM_MMFF94_PARTIAL_CHARGES>  (1) 
12
1 -0.02
10 0.11
13 0.18
14 0.18
2 -0.57
3 -0.66
4 -0.41
5 0.3
6 0.3
7 -0.09
8 0.72
9 -0.04

>  <PUBCHEM_EFFECTIVE_ROTOR_COUNT>  (1) 
4

>  <PUBCHEM_PHARMACOPHORE_FEATURES>  (1) 
3
1 2 acceptor
1 4 acceptor
5 1 4 7 9 10 rings

>  <PUBCHEM_HEAVY_ATOM_COUNT>  (1) 
14

>  <PUBCHEM_ATOM_DEF_STEREO_COUNT>  (1) 
0

>  <PUBCHEM_ATOM_UDEF_STEREO_COUNT>  (1) 
0

>  <PUBCHEM_BOND_DEF_STEREO_COUNT>  (1) 
0

>  <PUBCHEM_BOND_UDEF_STEREO_COUNT>  (1) 
0

>  <PUBCHEM_ISOTOPIC_ATOM_COUNT>  (1) 
0

>  <PUBCHEM_COMPONENT_COUNT>  (1) 
1

>  <PUBCHEM_CACTVS_TAUTO_COUNT>  (1) 
1

>  <PUBCHEM_CONFORMER_ID>  (1) 
000042BC00000002

>  <PUBCHEM_MMFF94_ENERGY>  (1) 
20.752

>  <PUBCHEM_FEATURE_SELFOVERLAP>  (1) 
15.223

>  <PUBCHEM_SHAPE_FINGERPRINT>  (1) 
12202030 40 16082803329703840443
12423570 1 13352173318851292270
13538477 17 18130215068762478175
14787075 74 17910107246143731987
14817 1 11082974012871502332
15076042 46 17987230024068716683
15207287 21 16515675654453528258
15375462 189 18269558398413319859
15375462 478 18271799090744731942
15775835 57 17988373571906514832
16945 1 18186804690302666119
19765921 60 17908984648967097725
20511035 2 16483044142569783237
21922407 69 18337689528473482961
22802520 49 14188475645651339920
23402539 116 16917060075076002820
23419403 2 16757683506703544441
5084963 1 18341619204432280468
77492 1 18343861134337136749

>  <PUBCHEM_SHAPE_MULTIPOLES>  (1) 
266.41
4.37
2.21
1.36
2.24
0.02
0.05
-0.61
0.01
-0.68
-0.6
0.31
0.32
-1.06

>  <PUBCHEM_SHAPE_SELFOVERLAP>  (1) 
536.277

>  <PUBCHEM_SHAPE_VOLUME>  (1) 
160.2

>  <PUBCHEM_COORDINATE_TYPE>  (1) 
2
5
10

$$$$
