1708
     RDKit          3D

 21 21  0  0  0  0  0  0  0  0999 V2000
    1.4696    2.4567    0.0383 O   0  0  0  0  0  0  0  0  0  0  0  0
   -4.5654    2.0649    0.0037 O   0  0  0  0  0  0  0  0  0  0  0  0
   -2.7834    3.4758    0.0174 O   0  0  0  0  0  0  0  0  0  0  0  0
   -1.7814   -4.0953   -0.0279 O   0  0  0  0  0  0  0  0  0  0  0  0
    1.1266    0.1371    0.0080 N   0  0  0  0  0  0  0  0  0  0  0  0
   -0.1439   -2.4001   -0.0102 N   0  0  0  0  0  0  0  0  0  0  0  0
    3.3924    0.9916    0.0193 C   0  0  0  0  0  0  0  0  0  0  0  0
    3.7902    0.2833   -1.2921 C   0  0  0  0  0  0  0  0  0  0  0  0
    3.8197    0.1880    1.2603 C   0  0  0  0  0  0  0  0  0  0  0  0
    1.8877    1.3026    0.0168 C   0  0  0  0  0  0  0  0  0  0  0  0
    3.5592    1.1034   -2.5553 C   0  0  0  0  0  0  0  0  0  0  0  0
    3.5277    0.9288    2.5601 C   0  0  0  0  0  0  0  0  0  0  0  0
   -0.2843    0.0270    0.0033 C   0  0  0  0  0  0  0  0  0  0  0  0
   -0.8916   -1.2189   -0.0057 C   0  0  0  0  0  0  0  0  0  0  0  0
   -1.0352    1.1928    0.0078 C   0  0  0  0  0  0  0  0  0  0  0  0
   -2.4276    1.1099    0.0034 C   0  0  0  0  0  0  0  0  0  0  0  0
   -2.2840   -1.3017   -0.0103 C   0  0  0  0  0  0  0  0  0  0  0  0
   -3.0520   -0.1373   -0.0056 C   0  0  0  0  0  0  0  0  0  0  0  0
   -3.2289    2.3235    0.0093 C   0  0  0  0  0  0  0  0  0  0  0  0
   -0.6141   -3.7183   -0.0191 C   0  0  0  0  0  0  0  0  0  0  0  0
    0.5188   -4.7138   -0.0214 C   0  0  0  0  0  0  0  0  0  0  0  0
  1 10  2  0
  2 19  1  0
  3 19  2  0
  4 20  2  0
  5 10  1  0
  5 13  1  0
  6 14  1  0
  6 20  1  0
  7  8  1  0
  7  9  1  0
  7 10  1  0
  8 11  1  0
  9 12  1  0
 13 14  2  0
 13 15  1  0
 14 17  1  0
 15 16  2  0
 16 18  1  0
 16 19  1  0
 17 18  2  0
 20 21  1  0
M  END
>  <PUBCHEM_COMPOUND_CID>  (1) 
1708

>  <PUBCHEM_CONFORMER_RMSD>  (1) 
0.8

>  <PUBCHEM_CONFORMER_DIVERSEORDER>  (1) 
1
24
25
21
23
16
13
11
14
8
15
4
7
22
9
12
19
17
6
18
5
2
20
3
10

>  <PUBCHEM_MMFF94_PARTIAL_CHARGES>  (1) 
23
1 -0.57
10 0.57
13 0.12
14 0.12
15 -0.15
16 0.09
17 -0.15
18 -0.15
19 0.63
2 -0.65
20 0.57
21 0.06
3 -0.57
33 0.37
34 0.15
35 0.15
36 0.15
37 0.37
4 -0.57
41 0.5
5 -0.55
6 -0.55
7 0.06

>  <PUBCHEM_EFFECTIVE_ROTOR_COUNT>  (1) 
8

>  <PUBCHEM_PHARMACOPHORE_FEATURES>  (1) 
10
1 1 acceptor
1 11 hydrophobe
1 12 hydrophobe
1 2 acceptor
1 3 acceptor
1 4 acceptor
1 5 donor
1 6 donor
3 2 3 19 anion
6 13 14 15 16 17 18 rings

>  <PUBCHEM_HEAVY_ATOM_COUNT>  (1) 
21

>  <PUBCHEM_ATOM_DEF_STEREO_COUNT>  (1) 
0

>  <PUBCHEM_ATOM_UDEF_STEREO_COUNT>  (1) 
0

>  <PUBCHEM_BOND_DEF_STEREO_COUNT>  (1) 
0

>  <PUBCHEM_BOND_UDEF_STEREO_COUNT>  (1) 
0

>  <PUBCHEM_ISOTOPIC_ATOM_COUNT>  (1) 
0

>  <PUBCHEM_COMPONENT_COUNT>  (1) 
1

>  <PUBCHEM_CACTVS_TAUTO_COUNT>  (1) 
6

>  <PUBCHEM_CONFORMER_ID>  (1) 
000006AC00000001

>  <PUBCHEM_MMFF94_ENERGY>  (1) 
59.9957

>  <PUBCHEM_FEATURE_SELFOVERLAP>  (1) 
50.806

>  <PUBCHEM_SHAPE_FINGERPRINT>  (1) 
10319926 262 18126823093441181680
1100329 8 16252224615623060552
11582403 64 16984859226610082720
11725454 13 17345162624237873056
12160290 23 18129104596451995935
12173636 292 18410012147742467421
12553582 1 17617100647479891306
12592029 89 18338522915606871625
12788726 201 17900264405283589154
13140716 1 17905037402202081810
138480 1 17546164100019391499
14022347 108 17687759645505116994
14178342 30 18193817444674709178
14251757 5 18195270985914008588
15042514 8 18192992840755404019
15664445 248 16826454007629649269
15842332 3 17750509753765702284
16752209 62 18410292557419510667
16945 1 18338797943404919937
17980427 23 16190274900841282993
18186145 218 17917438596394125720
18785283 64 17901966140219320427
19591789 44 18338526243990475135
20510252 161 18271527601836387041
20642791 178 18046361738215332990
20671657 1 17910108015317391641
212916 134 18198601307533848336
21524375 3 18187359900867477409
22907989 373 18119537784343694343
23184049 29 17977938313426878960
23366157 5 17826803529692579675
23557571 272 18058168513080839496
23559900 14 17762889979879746435
23598291 2 17676206892453890412
3091708 16 9556351991139360075
314173 41 17112697549296445538
352729 6 18337390564638128919
43471831 8 18338232670301699827
458136 41 18122364392832171297
532947 4 18053660274625200958
5385378 56 18124882252963901721
58807428 26 18340199700766682201
7364860 26 17979351963294776211
7615 1 17678444471662494076
81228 2 17983296224946648131
84936 182 17913200958395439649
88987 49 18338515356627966972
9709674 26 18128539464813268700
9981440 41 18338224969599392673

>  <PUBCHEM_SHAPE_MULTIPOLES>  (1) 
398.73
7.18
4.95
1.43
2.66
6.83
0
-5.46
0.02
-4.65
0.08
3.02
-0.58
-0.13

>  <PUBCHEM_SHAPE_SELFOVERLAP>  (1) 
815.985

>  <PUBCHEM_SHAPE_VOLUME>  (1) 
229.6

>  <PUBCHEM_COORDINATE_TYPE>  (1) 
2
5
10

$$$$
