17080
     RDKit          3D

 12 11  0  0  1  0  0  0  0  0999 V2000
   -1.8533   -0.7803   -0.9886 S   0  0  0  0  0  0  0  0  0  0  0  0
   -0.5008   -1.0040    1.2638 O   0  0  0  0  0  0  0  0  0  0  0  0
    2.0531   -0.2763    0.2695 C   0  0  0  0  0  0  0  0  0  0  0  0
    3.3168    0.1885   -0.4609 C   0  0  0  0  0  0  0  0  0  0  0  0
    0.8157   -0.2459   -0.6290 C   0  0  0  0  0  0  0  0  0  0  0  0
   -3.1794   -0.4147    0.1815 C   0  0  0  0  0  0  0  0  0  0  0  0
    4.5421    0.1148    0.4508 C   0  0  0  0  0  0  0  0  0  0  0  0
   -3.0071    0.9670    0.8295 C   0  0  0  0  0  0  0  0  0  0  0  0
   -0.4479   -0.6952    0.0799 C   0  0  0  0  0  0  0  0  0  0  0  0
   -4.5162   -0.5077   -0.5506 C   0  0  0  0  0  0  0  0  0  0  0  0
    5.8075    0.5319   -0.2817 C   0  0  0  0  0  0  0  0  0  0  0  0
   -3.0305    2.1221   -0.1643 C   0  0  0  0  0  0  0  0  0  0  0  0
  1  6  1  0
  1  9  1  0
  2  9  2  0
  3  4  1  0
  3  5  1  0
  4  7  1  0
  5  9  1  0
  6  8  1  0
  6 10  1  0
  7 11  1  0
  8 12  1  0
M  END
>  <PUBCHEM_COMPOUND_CID>  (1) 
17080

>  <PUBCHEM_CONFORMER_RMSD>  (1) 
0.8

>  <PUBCHEM_CONFORMER_DIVERSEORDER>  (1) 
2
229
365
236
228
145
340
37
380
212
182
372
285
270
251
263
114
43
93
382
287
349
199
175
128
136
363
161
347
70
108
150
1
230
220
148
68
381
31
22
71
373
178
246
322
335
111
19
173
179
140
187
336
260
318
164
284
23
217
354
14
268
191
47
35
315
254
292
239
16
271
105
195
153
343
357
98
369
235
224
7
362
184
4
42
83
24
177
113
327
63
180
301
296
28
371
90
116
3
366
62
278
122
32
350
61
290
38
135
339
211
5
162
305
368
183
359
208
146
123
79
104
48
82
289
288
374
18
132
102
96
279
20
203
100
152
58
9
168
300
342
210
44
17
326
6
106
170
94
205
149
41
333
86
216
329
317
352
201
360
351
258
255
197
312
241
87
154
110
249
66
88
358
27
56
275
65
103
77
112
169
309
280
281
243
311
304
160
163
13
10
8
121
328
250
348
40
330
67
171
376
377
126
109
245
306
226
338
227
176
165
323
78
21
198
115
367
91
247
85
225
346
209
221
215
25
36
167
181
51
272
158
84
129
120
320
370
188
74
294
151
364
119
264
11
219
141
55
45
192
138
81
206
378
214
277
207
324
313
242
57
15
46
72
75
273
142
341
259
196
34
356
293
53
286
76
124
319
172
39
147
143
267
159
283
190
133
231
64
54
156
137
274
222
331
89
316
101
261
49
33
232
73
240
200
265
298
97
233
60
345
252
193
269
69
144
297
134
257
337
266
234
307
50
295
194
80
361
325
174
375
344
30
303
130
26
223
291
355
308
12
332
276
139
125
334
52
282
310
189
321
237
262
107
118
131
353
204
238
185
59
383
186
95
314
99
256
29
127
379
202
244
218
166
155
248
213
299
92
302
157
253
117

>  <PUBCHEM_MMFF94_PARTIAL_CHARGES>  (1) 
5
1 -0.37
2 -0.57
5 0.06
6 0.23
9 0.65

>  <PUBCHEM_EFFECTIVE_ROTOR_COUNT>  (1) 
7

>  <PUBCHEM_PHARMACOPHORE_FEATURES>  (1) 
4
1 10 hydrophobe
1 11 hydrophobe
1 12 hydrophobe
4 3 4 5 7 hydrophobe

>  <PUBCHEM_HEAVY_ATOM_COUNT>  (1) 
12

>  <PUBCHEM_ATOM_DEF_STEREO_COUNT>  (1) 
0

>  <PUBCHEM_ATOM_UDEF_STEREO_COUNT>  (1) 
1

>  <PUBCHEM_BOND_DEF_STEREO_COUNT>  (1) 
0

>  <PUBCHEM_BOND_UDEF_STEREO_COUNT>  (1) 
0

>  <PUBCHEM_ISOTOPIC_ATOM_COUNT>  (1) 
0

>  <PUBCHEM_COMPONENT_COUNT>  (1) 
1

>  <PUBCHEM_CACTVS_TAUTO_COUNT>  (1) 
1

>  <PUBCHEM_CONFORMER_ID>  (1) 
000042B800000002

>  <PUBCHEM_MMFF94_ENERGY>  (1) 
7.1334

>  <PUBCHEM_FEATURE_SELFOVERLAP>  (1) 
20.3

>  <PUBCHEM_SHAPE_FINGERPRINT>  (1) 
10680689 15 18060421347717652046
114248 4 17275385421468306262
14123238 8 18060137656569289774
14123255 352 18410290281377286692
14252887 29 15430031033842734010
15501527 16 18060143111204363505
17802600 8 18341327868284822977
17834072 33 18115027527796550142
17834076 25 15554451807732303078
20112054 13 17531248305586325213
20300324 65 18343863325129238065
20432913 95 14996282505167381344
20645477 56 18060421326052749087
20645477 70 16415212139638010918
20767249 213 18334575729087747085
20828058 44 11169912788348569356
23380061 127 18411134753541249447
23402539 116 18340761633050510431
23557571 272 17703795816526983325
23559900 14 15339113577162785578
23596394 208 16773251600001105492
26918003 58 12107785216004323886
4175511 318 17132113558652757909
42788 4 18202002144796671334
58051976 100 17346310561368723558

>  <PUBCHEM_SHAPE_MULTIPOLES>  (1) 
244.93
10.99
1.32
0.97
12.96
0.71
0.09
2.39
-0.89
-1.6
-0.09
-0.23
-0.11
-0.23

>  <PUBCHEM_SHAPE_SELFOVERLAP>  (1) 
433.245

>  <PUBCHEM_SHAPE_VOLUME>  (1) 
160.3

>  <PUBCHEM_COORDINATE_TYPE>  (1) 
2
5
10

$$$$
