17091
     RDKit          3D

 12 13  0  0  0  0  0  0  0  0999 V2000
    0.2704    1.8883    0.0001 N   0  0  0  0  0  0  0  0  0  0  0  0
    1.0592   -0.7799   -0.0003 C   0  0  0  0  0  0  0  0  0  0  0  0
   -0.3033   -0.4522   -0.0001 C   0  0  0  0  0  0  0  0  0  0  0  0
    2.0182    0.2228   -0.0001 C   0  0  0  0  0  0  0  0  0  0  0  0
   -0.6580    0.9131    0.0000 C   0  0  0  0  0  0  0  0  0  0  0  0
   -1.2987   -1.4441   -0.0002 C   0  0  0  0  0  0  0  0  0  0  0  0
    1.5174   -2.2071    0.0005 C   0  0  0  0  0  0  0  0  0  0  0  0
    1.5747    1.5298    0.0000 C   0  0  0  0  0  0  0  0  0  0  0  0
   -2.0117    1.2380    0.0002 C   0  0  0  0  0  0  0  0  0  0  0  0
    3.4783   -0.0701    0.0000 C   0  0  0  0  0  0  0  0  0  0  0  0
   -2.6450   -1.0907   -0.0001 C   0  0  0  0  0  0  0  0  0  0  0  0
   -3.0015    0.2521    0.0001 C   0  0  0  0  0  0  0  0  0  0  0  0
  1  5  2  0
  1  8  1  0
  2  3  2  0
  2  4  1  0
  2  7  1  0
  3  5  1  0
  3  6  1  0
  4  8  2  0
  4 10  1  0
  5  9  1  0
  6 11  2  0
  9 12  2  0
 11 12  1  0
M  END
>  <PUBCHEM_COMPOUND_CID>  (1) 
17091

>  <PUBCHEM_CONFORMER_RMSD>  (1) 
0.4

>  <PUBCHEM_CONFORMER_DIVERSEORDER>  (1) 
1

>  <PUBCHEM_MMFF94_PARTIAL_CHARGES>  (1) 
16
1 -0.62
10 0.14
11 -0.15
12 -0.15
13 0.15
17 0.15
2 -0.14
21 0.15
22 0.15
23 0.15
4 -0.14
5 0.31
6 -0.15
7 0.14
8 0.16
9 -0.15

>  <PUBCHEM_EFFECTIVE_ROTOR_COUNT>  (1) 
0

>  <PUBCHEM_PHARMACOPHORE_FEATURES>  (1) 
3
1 1 acceptor
6 1 2 3 4 5 8 rings
6 3 5 6 9 11 12 rings

>  <PUBCHEM_HEAVY_ATOM_COUNT>  (1) 
12

>  <PUBCHEM_ATOM_DEF_STEREO_COUNT>  (1) 
0

>  <PUBCHEM_ATOM_UDEF_STEREO_COUNT>  (1) 
0

>  <PUBCHEM_BOND_DEF_STEREO_COUNT>  (1) 
0

>  <PUBCHEM_BOND_UDEF_STEREO_COUNT>  (1) 
0

>  <PUBCHEM_ISOTOPIC_ATOM_COUNT>  (1) 
0

>  <PUBCHEM_COMPONENT_COUNT>  (1) 
1

>  <PUBCHEM_CACTVS_TAUTO_COUNT>  (1) 
1

>  <PUBCHEM_CONFORMER_ID>  (1) 
000042C300000001

>  <PUBCHEM_MMFF94_ENERGY>  (1) 
39.3274

>  <PUBCHEM_FEATURE_SELFOVERLAP>  (1) 
15.254

>  <PUBCHEM_SHAPE_FINGERPRINT>  (1) 
10967382 1 18410575046040203655
11132069 177 18410567392772342808
11206711 2 18408322202628509317
11471102 20 18410570730072656093
12032990 46 18411707586235582750
12382932 28 18340765949049264792
12423570 1 13445030597800979725
12524768 44 18269559329830158415
12897270 3 18410292535986774855
13380535 76 18409727356935199587
14325111 11 18410574032533533760
16945 1 18410575093374430245
17844478 74 17968387800993940161
17990270 104 18410573963687417531
193761 8 17834113039780247136
20201158 50 18409727361367057063
20588541 1 18409169891633494022
21501502 16 18267303140412093027
2334 1 17906453577473260388
23402655 69 18268695127346028477
23463225 33 18335136471390847002
23552423 10 18335140929218688679
23559900 14 18342746213574686092
241688 4 17977667511127439904
2748010 2 18122343471592460615
5084963 1 18130230483278563146
528886 8 18411414016351183954
53812653 166 18342453738100202760
63268167 104 18338800013784963137
7364860 26 18271524178837213462
8809292 202 18115593775968662187

>  <PUBCHEM_SHAPE_MULTIPOLES>  (1) 
241.97
4.39
2.01
0.61
0.29
0.23
0
0.24
0
0.24
0
0
0.01
0

>  <PUBCHEM_SHAPE_SELFOVERLAP>  (1) 
529.012

>  <PUBCHEM_SHAPE_VOLUME>  (1) 
132.2

>  <PUBCHEM_COORDINATE_TYPE>  (1) 
2
5
10

$$$$
