17090
     RDKit          3D

 10  9  0  0  1  0  0  0  0  0999 V2000
    1.7369   -0.2031   -0.3964 C   0  0  0  0  0  0  0  0  0  0  0  0
    1.2262   -1.3664    0.4797 C   0  0  0  0  0  0  0  0  0  0  0  0
   -0.1726   -1.1654    1.0833 C   0  0  0  0  0  0  0  0  0  0  0  0
    3.1441   -0.5196   -0.9123 C   0  0  0  0  0  0  0  0  0  0  0  0
   -1.2459   -1.0440    0.0375 C   0  0  0  0  0  0  0  0  0  0  0  0
    1.7675    1.0999    0.3624 C   0  0  0  0  0  0  0  0  0  0  0  0
   -2.1417   -0.0525   -0.1293 C   0  0  0  0  0  0  0  0  0  0  0  0
   -3.1446   -0.1173   -1.2512 C   0  0  0  0  0  0  0  0  0  0  0  0
   -2.2585    1.1749    0.7291 C   0  0  0  0  0  0  0  0  0  0  0  0
    1.0886    2.1936   -0.0028 C   0  0  0  0  0  0  0  0  0  0  0  0
  1  2  1  0
  1  4  1  0
  1  6  1  0
  2  3  1  0
  3  5  1  0
  5  7  2  3
  6 10  2  0
  7  8  1  0
  7  9  1  0
M  END
>  <PUBCHEM_COMPOUND_CID>  (1) 
17090

>  <PUBCHEM_CONFORMER_RMSD>  (1) 
0.6

>  <PUBCHEM_CONFORMER_DIVERSEORDER>  (1) 
1
5
21
49
15
57
48
25
55
56
43
40
16
29
31
36
58
38
18
20
50
53
23
32
30
13
22
34
54
52
7
35
51
10
59
46
61
42
28
60
19
9
8
3
45
24
37
26
27
6
17
12
44
4
47
39
41
14
2
33
11

>  <PUBCHEM_MMFF94_PARTIAL_CHARGES>  (1) 
12
1 0.14
10 -0.3
19 0.15
20 0.15
27 0.15
28 0.15
3 0.14
5 -0.29
6 -0.29
7 -0.28
8 0.14
9 0.14

>  <PUBCHEM_EFFECTIVE_ROTOR_COUNT>  (1) 
4

>  <PUBCHEM_PHARMACOPHORE_FEATURES>  (1) 
4
1 10 hydrophobe
1 4 hydrophobe
3 7 8 9 hydrophobe
5 1 2 3 5 6 hydrophobe

>  <PUBCHEM_HEAVY_ATOM_COUNT>  (1) 
10

>  <PUBCHEM_ATOM_DEF_STEREO_COUNT>  (1) 
0

>  <PUBCHEM_ATOM_UDEF_STEREO_COUNT>  (1) 
1

>  <PUBCHEM_BOND_DEF_STEREO_COUNT>  (1) 
0

>  <PUBCHEM_BOND_UDEF_STEREO_COUNT>  (1) 
0

>  <PUBCHEM_ISOTOPIC_ATOM_COUNT>  (1) 
0

>  <PUBCHEM_COMPONENT_COUNT>  (1) 
1

>  <PUBCHEM_CACTVS_TAUTO_COUNT>  (1) 
1

>  <PUBCHEM_CONFORMER_ID>  (1) 
000042C200000001

>  <PUBCHEM_MMFF94_ENERGY>  (1) 
6.8887

>  <PUBCHEM_FEATURE_SELFOVERLAP>  (1) 
20.308

>  <PUBCHEM_SHAPE_FINGERPRINT>  (1) 
12897270 3 18341889731722073951
12932764 1 18040992960296598371
14250199 8 18342739671332295749
14251711 518 18267019445206452289
15775835 57 18187646860453998277
16945 1 18409728452125161691
18186145 218 18337658781340635685
19973954 147 18267311013123940016
20201158 50 18411696625336495172
20653085 51 18342752822421630563
21028194 46 17895193341591630459
21947302 44 18339637974857964184
220403 375 17619614122491703608
22959321 8 18113616781078722535
230 275 18337661018422621320
23557571 272 17202176630472163187
2748010 2 18118971535749692408
5084963 1 17749679591905119067
549884 4 18409166614599866532
63268167 104 18261389997026886003
66348 1 18409168809359972153
7832392 63 18129102225704090217

>  <PUBCHEM_SHAPE_MULTIPOLES>  (1) 
205.8
4.6
1.82
1.08
0.94
0.81
0.1
0.12
1.75
-0.58
-0.36
0.3
-0.16
-0.06

>  <PUBCHEM_SHAPE_SELFOVERLAP>  (1) 
375.673

>  <PUBCHEM_SHAPE_VOLUME>  (1) 
132.7

>  <PUBCHEM_COORDINATE_TYPE>  (1) 
2
5
10

$$$$
