17104
     RDKit          3D

 23 24  0  0  0  0  0  0  0  0999 V2000
    1.1390    0.4208    0.7515 O   0  0  0  0  0  0  0  0  0  0  0  0
    1.4173    0.8291   -1.5104 O   0  0  0  0  0  0  0  0  0  0  0  0
   -4.3619    0.0444   -0.2098 N   0  0  0  0  0  0  0  0  0  0  0  0
    3.2678    0.7861   -0.1042 N   0  0  0  0  0  0  0  0  0  0  0  0
   -2.9394    0.1525    0.0407 C   0  0  0  0  0  0  0  0  0  0  0  0
    5.9992   -0.0984    0.1960 C   0  0  0  0  0  0  0  0  0  0  0  0
    5.3476    0.0262   -1.1807 C   0  0  0  0  0  0  0  0  0  0  0  0
    4.9511   -0.3707    1.2744 C   0  0  0  0  0  0  0  0  0  0  0  0
    4.2294    1.0646   -1.1707 C   0  0  0  0  0  0  0  0  0  0  0  0
    3.8375    0.6734    1.2427 C   0  0  0  0  0  0  0  0  0  0  0  0
   -0.7738   -0.9070    0.1961 C   0  0  0  0  0  0  0  0  0  0  0  0
   -2.3613    1.3811    0.3604 C   0  0  0  0  0  0  0  0  0  0  0  0
   -2.1457   -0.9914   -0.0416 C   0  0  0  0  0  0  0  0  0  0  0  0
    0.0608   -2.1418    0.1041 C   0  0  0  0  0  0  0  0  0  0  0  0
   -4.7750   -1.4159   -0.5461 C   0  0  0  0  0  0  0  0  0  0  0  0
   -4.8062    0.9499   -1.3927 C   0  0  0  0  0  0  0  0  0  0  0  0
   -5.2755    0.4603    0.9846 C   0  0  0  0  0  0  0  0  0  0  0  0
   -0.2347    0.3186    0.5088 C   0  0  0  0  0  0  0  0  0  0  0  0
   -0.9893    1.4657    0.5981 C   0  0  0  0  0  0  0  0  0  0  0  0
    1.9020    0.6916   -0.3878 C   0  0  0  0  0  0  0  0  0  0  0  0
   -3.1897    2.6206    0.4547 C   0  0  0  0  0  0  0  0  0  0  0  0
    0.0485   -2.7548   -1.3082 C   0  0  0  0  0  0  0  0  0  0  0  0
   -0.3476   -3.2050    1.1403 C   0  0  0  0  0  0  0  0  0  0  0  0
  1 18  1  0
  1 20  1  0
  2 20  2  0
  3  5  1  0
  3 15  1  0
  3 16  1  0
  3 17  1  0
  4  9  1  0
  4 10  1  0
  4 20  1  0
  5 12  2  0
  5 13  1  0
  6  7  1  0
  6  8  1  0
  7  9  1  0
  8 10  1  0
 11 13  2  0
 11 14  1  0
 11 18  1  0
 12 19  1  0
 12 21  1  0
 14 22  1  0
 14 23  1  0
 18 19  2  0
M  CHG  1   3   1
M  END
>  <PUBCHEM_COMPOUND_CID>  (1) 
17104

>  <PUBCHEM_CONFORMER_RMSD>  (1) 
0.8

>  <PUBCHEM_CONFORMER_DIVERSEORDER>  (1) 
1
12
11
14
9
3
2
10
6
16
5
8
13
15
7
4

>  <PUBCHEM_MMFF94_PARTIAL_CHARGES>  (1) 
20
1 -0.23
10 0.3
11 -0.14
12 -0.14
13 -0.15
14 0.14
15 0.5
16 0.5
17 0.5
18 0.08
19 -0.15
2 -0.57
20 0.78
21 0.14
3 -0.87
34 0.15
4 -0.66
45 0.15
5 0.36
9 0.3

>  <PUBCHEM_EFFECTIVE_ROTOR_COUNT>  (1) 
6.2

>  <PUBCHEM_PHARMACOPHORE_FEATURES>  (1) 
5
1 2 acceptor
1 3 cation
3 14 22 23 hydrophobe
6 4 6 7 8 9 10 rings
6 5 11 12 13 18 19 rings

>  <PUBCHEM_HEAVY_ATOM_COUNT>  (1) 
23

>  <PUBCHEM_ATOM_DEF_STEREO_COUNT>  (1) 
0

>  <PUBCHEM_ATOM_UDEF_STEREO_COUNT>  (1) 
0

>  <PUBCHEM_BOND_DEF_STEREO_COUNT>  (1) 
0

>  <PUBCHEM_BOND_UDEF_STEREO_COUNT>  (1) 
0

>  <PUBCHEM_ISOTOPIC_ATOM_COUNT>  (1) 
0

>  <PUBCHEM_COMPONENT_COUNT>  (1) 
1

>  <PUBCHEM_CACTVS_TAUTO_COUNT>  (1) 
1

>  <PUBCHEM_CONFORMER_ID>  (1) 
000042D000000001

>  <PUBCHEM_MMFF94_ENERGY>  (1) 
89.7086

>  <PUBCHEM_FEATURE_SELFOVERLAP>  (1) 
25.371

>  <PUBCHEM_SHAPE_FINGERPRINT>  (1) 
10366900 7 17275117145638226656
11578080 2 17533487929626565455
121448 382 18413394241573202491
12166972 35 17895196648875081141
12236239 1 17967811656785064472
12403259 415 18131628972165425320
12403260 363 18412261757028229960
12592029 89 18260269620479940314
13140716 1 18268711800329605873
13533116 47 17917149399894404862
13540713 5 17982721979841044729
13583140 156 16806180971813667504
13862211 1 18341608274178543879
15042514 8 18267585895706263627
15099037 51 18409450314570005542
16752209 62 18411979174271210498
16945 1 18342731915322771233
17349148 13 18409171025594706564
19489759 90 18272932708924382176
20197701 30 18411408501734806918
20511986 3 18114732850517840844
20567600 347 18341336608437905487
20645476 183 17895195570595339027
20645477 70 16415490333439119972
21524375 3 18410572872770934243
21781051 124 18190764066119104299
21859007 373 17897137214105565164
23366157 5 17899697851778792547
23402539 116 18343579659566433797
23557571 272 17846229821022308937
23559900 14 18201442536454803064
23598288 3 17974867368608040614
25147074 1 18055908802322185697
26918003 58 13686300179490074604
2838139 119 16951387889500699165
3004659 81 18335704902376841042
351380 180 17917990590175891296
3759504 43 17968097563820150955
469060 322 18269297719573545609
5385378 56 18268438944803924315
59755656 215 18271527502888394535
6138700 20 18340772516693096342
7226269 152 18343865523804548760
9981440 41 18334861584857435571

>  <PUBCHEM_SHAPE_MULTIPOLES>  (1) 
451.63
12.21
2.5
1.3
7.36
1.76
0.18
-3.16
0.84
-1.71
-0.17
0.6
0.09
-0.46

>  <PUBCHEM_SHAPE_SELFOVERLAP>  (1) 
926.18

>  <PUBCHEM_SHAPE_VOLUME>  (1) 
261.2

>  <PUBCHEM_COORDINATE_TYPE>  (1) 
2
5
10

$$$$
