17125
     RDKit          3D

 16 18  0  0  0  0  0  0  0  0999 V2000
   -1.2237    0.2915    0.1008 C   0  0  0  0  0  0  0  0  0  0  0  0
    1.2265    0.2968    0.1003 C   0  0  0  0  0  0  0  0  0  0  0  0
    0.0000    0.9780    0.1728 C   0  0  0  0  0  0  0  0  0  0  0  0
   -1.2207   -1.1128   -0.0476 C   0  0  0  0  0  0  0  0  0  0  0  0
    1.2295   -1.1075   -0.0483 C   0  0  0  0  0  0  0  0  0  0  0  0
    0.0059   -1.7940   -0.1203 C   0  0  0  0  0  0  0  0  0  0  0  0
   -2.4506    0.9719    0.1734 C   0  0  0  0  0  0  0  0  0  0  0  0
    2.4505    0.9825    0.1723 C   0  0  0  0  0  0  0  0  0  0  0  0
   -2.4447   -1.7985   -0.1193 C   0  0  0  0  0  0  0  0  0  0  0  0
    2.4564   -1.7879   -0.1210 C   0  0  0  0  0  0  0  0  0  0  0  0
   -0.0030    2.4402    0.3261 C   0  0  0  0  0  0  0  0  0  0  0  0
   -3.6573    0.2759    0.1005 C   0  0  0  0  0  0  0  0  0  0  0  0
    3.6601    0.2916    0.0987 C   0  0  0  0  0  0  0  0  0  0  0  0
   -3.6544   -1.1076   -0.0456 C   0  0  0  0  0  0  0  0  0  0  0  0
    3.6630   -1.0919   -0.0478 C   0  0  0  0  0  0  0  0  0  0  0  0
   -0.0375    3.2716   -0.6951 C   0  0  0  0  0  0  0  0  0  0  0  0
  1  3  2  0
  1  4  1  0
  1  7  1  0
  2  3  1  0
  2  5  2  0
  2  8  1  0
  3 11  1  0
  4  6  2  0
  4  9  1  0
  5  6  1  0
  5 10  1  0
  7 12  2  0
  8 13  2  0
  9 14  2  0
 10 15  2  0
 11 16  2  0
 12 14  1  0
 13 15  1  0
M  END
>  <PUBCHEM_COMPOUND_CID>  (1) 
17125

>  <PUBCHEM_CONFORMER_RMSD>  (1) 
0.6

>  <PUBCHEM_CONFORMER_DIVERSEORDER>  (1) 
1

>  <PUBCHEM_MMFF94_PARTIAL_CHARGES>  (1) 
24
10 -0.15
11 -0.18
12 -0.15
13 -0.15
14 -0.15
15 -0.15
16 -0.3
17 0.15
18 0.15
19 0.15
20 0.15
21 0.15
22 0.15
23 0.15
24 0.15
25 0.15
26 0.15
27 0.15
28 0.15
3 0.03
6 -0.15
7 -0.15
8 -0.15
9 -0.15

>  <PUBCHEM_EFFECTIVE_ROTOR_COUNT>  (1) 
1

>  <PUBCHEM_PHARMACOPHORE_FEATURES>  (1) 
4
1 16 hydrophobe
6 1 2 3 4 5 6 rings
6 1 4 7 9 12 14 rings
6 2 5 8 10 13 15 rings

>  <PUBCHEM_HEAVY_ATOM_COUNT>  (1) 
16

>  <PUBCHEM_ATOM_DEF_STEREO_COUNT>  (1) 
0

>  <PUBCHEM_ATOM_UDEF_STEREO_COUNT>  (1) 
0

>  <PUBCHEM_BOND_DEF_STEREO_COUNT>  (1) 
0

>  <PUBCHEM_BOND_UDEF_STEREO_COUNT>  (1) 
0

>  <PUBCHEM_ISOTOPIC_ATOM_COUNT>  (1) 
0

>  <PUBCHEM_COMPONENT_COUNT>  (1) 
1

>  <PUBCHEM_CACTVS_TAUTO_COUNT>  (1) 
1

>  <PUBCHEM_CONFORMER_ID>  (1) 
000042E500000001

>  <PUBCHEM_MMFF94_ENERGY>  (1) 
60.0161

>  <PUBCHEM_FEATURE_SELFOVERLAP>  (1) 
20.349

>  <PUBCHEM_SHAPE_FINGERPRINT>  (1) 
10608611 8 18412541007169215648
10967382 1 18339079414128913306
11132069 177 18342732996942327938
11471102 20 18411695504255176367
11680986 33 18122625225826500137
11806522 49 18268424801587303623
12032990 46 18411423911956126123
12035759 4 18117306763961848500
12382932 28 18413107247062285098
13132413 78 18340490057519833645
13140716 1 18411419466643817714
14648413 74 17975132359425753601
15196674 1 18412263938818505074
15442244 35 18412829088032448449
15475509 35 13611470824635322543
15536298 74 18272933838643069426
16945 1 18122341276927644618
193761 8 17690280408860087611
19591789 44 16756361734970974809
19868273 325 18409166610273185621
200 152 17989197175473323615
20510252 161 18198902513790620696
20511035 2 17840867700376151750
20588541 1 18341614789163624202
21029758 11 18342168977858658241
21029758 27 18334868246103394885
21267235 1 18411991259940448619
21501502 16 18195251009999684208
221490 88 18047756180931349907
2334 1 18411699919423540770
23402539 116 18342728607380438310
23419403 2 14898811958742588023
23463225 33 18410575089116405710
23559900 14 18269832017957961002
2748010 2 18412541011453639950
3071541 12 18122347049348177981
3071541 158 18334855077723369405
335352 9 18051695438550157014
34934 24 18410565184805867579
427121 178 15621763750866120361
5104073 3 18412544310009889530
528886 8 18412821382650220378
537710 114 18410300232642217236
6992083 37 18342190933673511961
7364860 26 18124595546368864497
81228 2 18265628580050519408
8809292 202 18334862713996036035
90316 7 18262220137070332824
9709674 26 18413112770570257822

>  <PUBCHEM_SHAPE_MULTIPOLES>  (1) 
329.27
5.84
2.77
0.66
0.04
1.86
-0.02
-2.13
0.14
-0.03
-0.4
0
0.12
0.01

>  <PUBCHEM_SHAPE_SELFOVERLAP>  (1) 
742.889

>  <PUBCHEM_SHAPE_VOLUME>  (1) 
159.6

>  <PUBCHEM_COORDINATE_TYPE>  (1) 
2
5
10

$$$$
