17126
     RDKit          3D

 15 16  0  0  0  0  0  0  0  0999 V2000
   -5.0246    1.4914   -0.1247 Cl  0  0  0  0  0  0  0  0  0  0  0  0
    5.0219    1.4916    0.1247 Cl  0  0  0  0  0  0  0  0  0  0  0  0
   -0.0013   -1.5464    0.0000 O   0  0  0  0  0  0  0  0  0  0  0  0
   -1.1657   -0.8424   -0.0290 C   0  0  0  0  0  0  0  0  0  0  0  0
    1.1834   -0.8301    0.0295 C   0  0  0  0  0  0  0  0  0  0  0  0
   -1.2994    0.2493   -0.8867 C   0  0  0  0  0  0  0  0  0  0  0  0
    1.2967    0.2494    0.8867 C   0  0  0  0  0  0  0  0  0  0  0  0
   -2.2254   -1.2126    0.7991 C   0  0  0  0  0  0  0  0  0  0  0  0
    2.2228   -1.2125   -0.7993 C   0  0  0  0  0  0  0  0  0  0  0  0
   -2.4927    0.9711   -0.9163 C   0  0  0  0  0  0  0  0  0  0  0  0
    2.4899    0.9711    0.9163 C   0  0  0  0  0  0  0  0  0  0  0  0
   -3.4188   -0.4910    0.7696 C   0  0  0  0  0  0  0  0  0  0  0  0
    3.4161   -0.4908   -0.7697 C   0  0  0  0  0  0  0  0  0  0  0  0
   -3.5525    0.6008   -0.0882 C   0  0  0  0  0  0  0  0  0  0  0  0
    3.5498    0.6011    0.0882 C   0  0  0  0  0  0  0  0  0  0  0  0
  1 14  1  0
  2 15  1  0
  3  4  1  0
  3  5  1  0
  4  6  2  0
  4  8  1  0
  5  7  2  0
  5  9  1  0
  6 10  1  0
  7 11  1  0
  8 12  2  0
  9 13  2  0
 10 14  2  0
 11 15  2  0
 12 14  1  0
 13 15  1  0
M  END
>  <PUBCHEM_COMPOUND_CID>  (1) 
17126

>  <PUBCHEM_CONFORMER_RMSD>  (1) 
0.6

>  <PUBCHEM_CONFORMER_DIVERSEORDER>  (1) 
2
1
3

>  <PUBCHEM_MMFF94_PARTIAL_CHARGES>  (1) 
23
1 -0.18
10 -0.15
11 -0.15
12 -0.15
13 -0.15
14 0.18
15 0.18
16 0.15
17 0.15
18 0.15
19 0.15
2 -0.18
20 0.15
21 0.15
22 0.15
23 0.15
3 -0.17
4 0.08
5 0.08
6 -0.15
7 -0.15
8 -0.15
9 -0.15

>  <PUBCHEM_EFFECTIVE_ROTOR_COUNT>  (1) 
2

>  <PUBCHEM_PHARMACOPHORE_FEATURES>  (1) 
3
1 3 acceptor
6 4 6 8 10 12 14 rings
6 5 7 9 11 13 15 rings

>  <PUBCHEM_HEAVY_ATOM_COUNT>  (1) 
15

>  <PUBCHEM_ATOM_DEF_STEREO_COUNT>  (1) 
0

>  <PUBCHEM_ATOM_UDEF_STEREO_COUNT>  (1) 
0

>  <PUBCHEM_BOND_DEF_STEREO_COUNT>  (1) 
0

>  <PUBCHEM_BOND_UDEF_STEREO_COUNT>  (1) 
0

>  <PUBCHEM_ISOTOPIC_ATOM_COUNT>  (1) 
0

>  <PUBCHEM_COMPONENT_COUNT>  (1) 
1

>  <PUBCHEM_CACTVS_TAUTO_COUNT>  (1) 
1

>  <PUBCHEM_CONFORMER_ID>  (1) 
000042E600000002

>  <PUBCHEM_MMFF94_ENERGY>  (1) 
46.7358

>  <PUBCHEM_FEATURE_SELFOVERLAP>  (1) 
15.223

>  <PUBCHEM_SHAPE_FINGERPRINT>  (1) 
10498660 4 18261670385598956261
10608611 8 18410573989446522368
11031198 65 18131353016173762302
11132069 177 17822014198722771127
11471102 20 18060702775692166030
11543360 7 17489574663610689997
12251169 10 16950281810429784375
12654215 9 18272933804509995946
12730499 353 18343309145520485023
13214271 11 18335419110171845663
13288520 33 9871756796828488720
13764800 53 18187368705576730065
14252887 29 13767911422168152520
14341114 328 16226056599442680852
14993402 34 15913608367445387313
15219456 202 18411704287663776166
15375358 24 18410855460133553485
16752209 62 13254795699140495519
17870717 6 11311790500158231160
18186145 218 18131361803703385910
19050596 39 15791735217088404681
19862831 5 15769772472307624902
20279233 1 18410576184180202307
20281475 54 9295288378019049762
20645477 56 18334013899603584893
20645477 70 17774728571599588726
21119208 17 15697998539469313217
22854114 59 18408605859696428257
22926399 37 17989488515588941097
231179 274 18342458162290907912
23402539 116 18337382829480896860
23402655 69 17775566424818053721
23500284 214 18335138687382949249
23557571 272 18339088201616365095
23559900 14 17968669206914116318
25 1 18130787867318430474
2916195 48 18270111443966337456
3082319 5 15769773567524298383
4028521 119 18342173324339337497
4047638 21 18409450267568003902
4072396 5 17988350500222993154
5104073 3 18187369783661066347
633830 44 18270397183734393991
7364860 26 18116989975379265074
74978 22 15697708306959314503
77492 1 15769781234051802531
90316 7 16443058374943214421

>  <PUBCHEM_SHAPE_MULTIPOLES>  (1) 
306.56
9.48
1.56
1
0.03
0.04
0
5.26
0
0
0
0
-0.01
0.95

>  <PUBCHEM_SHAPE_SELFOVERLAP>  (1) 
644.125

>  <PUBCHEM_SHAPE_VOLUME>  (1) 
175.2

>  <PUBCHEM_COORDINATE_TYPE>  (1) 
2
5
10

$$$$
