17129
     RDKit          3D

 12 11  0  0  1  0  0  0  0  0999 V2000
   -0.1927    0.0720    0.0022 O   0  0  0  0  0  0  0  0  0  0  0  0
    1.2246   -0.6123   -1.6845 O   0  0  0  0  0  0  0  0  0  0  0  0
   -2.5440    0.6797   -0.2572 C   0  0  0  0  0  0  0  0  0  0  0  0
   -3.0692   -0.3087    0.8017 C   0  0  0  0  0  0  0  0  0  0  0  0
   -1.2573    0.2041   -0.9451 C   0  0  0  0  0  0  0  0  0  0  0  0
    2.0208   -0.4696    0.6098 C   0  0  0  0  0  0  0  0  0  0  0  0
   -2.3244    2.0496    0.3948 C   0  0  0  0  0  0  0  0  0  0  0  0
    3.2340    0.4397    0.3661 C   0  0  0  0  0  0  0  0  0  0  0  0
    1.0014   -0.3478   -0.5102 C   0  0  0  0  0  0  0  0  0  0  0  0
   -3.3909   -1.6864    0.2407 C   0  0  0  0  0  0  0  0  0  0  0  0
    2.4466   -1.9314    0.7152 C   0  0  0  0  0  0  0  0  0  0  0  0
    2.8511    1.9109    0.2667 C   0  0  0  0  0  0  0  0  0  0  0  0
  1  5  1  0
  1  9  1  0
  2  9  2  0
  3  4  1  0
  3  5  1  0
  3  7  1  0
  4 10  1  0
  6  8  1  0
  6  9  1  0
  6 11  1  0
  8 12  1  0
M  END
>  <PUBCHEM_COMPOUND_CID>  (1) 
17129

>  <PUBCHEM_CONFORMER_RMSD>  (1) 
0.8

>  <PUBCHEM_CONFORMER_DIVERSEORDER>  (1) 
3
546
274
1306
836
1179
655
607
882
1414
135
46
24
1020
504
52
1131
1035
404
1278
805
884
550
223
21
1407
111
405
370
980
588
1446
169
456
71
637
628
417
331
150
234
469
106
1449
1280
1427
321
163
1237
845
912
2
810
1448
1431
1319
515
434
425
38
114
12
610
172
402
665
1425
1284
591
993
448
1461
682
1361
1005
1147
580
13
941
25
1250
171
539
894
590
635
374
768
676
600
1018
322
1157
667
1081
1028
113
15
658
828
1044
627
1281
325
210
729
928
1310
437
584
43
1149
1092
1006
10
779
435
1158
1186
238
1293
1287
571
203
949
180
175
1200
95
699
4
174
1229
1298
260
265
1070
848
540
231
472
793
249
53
377
890
450
689
659
971
1273
89
64
763
354
23
142
79
1408
31
1282
151
908
17
752
101
378
514
537
148
236
107
471
216
718
112
820
1314
33
685
1232
1153
256
357
418
99
317
1234
22
160
20
732
45
1115
61
88
305
803
419
636
1
326
295
341
90
510
310
462
340
134
70
399
791
108
507
1206
483
564
784
91
1079
1111
62
1435
8
1370
1286
162
498
7
409
327
192
525
18
32
433
1075
105
30
77
393
954

>  <PUBCHEM_MMFF94_PARTIAL_CHARGES>  (1) 
5
1 -0.43
2 -0.57
5 0.28
6 0.06
9 0.66

>  <PUBCHEM_EFFECTIVE_ROTOR_COUNT>  (1) 
6

>  <PUBCHEM_PHARMACOPHORE_FEATURES>  (1) 
5
1 10 hydrophobe
1 11 hydrophobe
1 12 hydrophobe
1 2 acceptor
1 7 hydrophobe

>  <PUBCHEM_HEAVY_ATOM_COUNT>  (1) 
12

>  <PUBCHEM_ATOM_DEF_STEREO_COUNT>  (1) 
0

>  <PUBCHEM_ATOM_UDEF_STEREO_COUNT>  (1) 
2

>  <PUBCHEM_BOND_DEF_STEREO_COUNT>  (1) 
0

>  <PUBCHEM_BOND_UDEF_STEREO_COUNT>  (1) 
0

>  <PUBCHEM_ISOTOPIC_ATOM_COUNT>  (1) 
0

>  <PUBCHEM_COMPONENT_COUNT>  (1) 
1

>  <PUBCHEM_CACTVS_TAUTO_COUNT>  (1) 
1

>  <PUBCHEM_CONFORMER_ID>  (1) 
000042E900000003

>  <PUBCHEM_MMFF94_ENERGY>  (1) 
9.8316

>  <PUBCHEM_FEATURE_SELFOVERLAP>  (1) 
25.374

>  <PUBCHEM_SHAPE_FINGERPRINT>  (1) 
107287 299 17132123441330288358
11031198 65 16128385890730854862
12162725 195 18200304416685456417
12251169 10 18338231566067609528
12500047 106 17897155819581254213
12696612 119 18410577288129560148
12932764 1 18188218597762794469
13549 16 9655038652705010793
13693222 15 18408885161382855027
14289901 80 18408882957763893601
170605 34 18272091642864254564
17834072 14 17096071619403016303
19050596 39 18409165532347229377
20339313 130 17774449270118688734
20528008 55 18335976541224030307
20711985 327 16081084883545575844
20828058 43 18342454863418537860
21524375 3 18056197110370558344
21730867 7 18187361017553628194
22169311 14 18263361382731390681
22169311 21 17967802839090546695
22959321 28 18201719582597473601
230 275 15194990631574101066
23532345 11 18113899342940654521
3248919 1 17775001228876149045
9882013 296 18201159974386954507

>  <PUBCHEM_SHAPE_MULTIPOLES>  (1) 
235.22
6.3
1.99
1.05
1
0.24
0.31
-0.18
-1.51
-0.05
-0.46
-0.1
-0.14
-0.01

>  <PUBCHEM_SHAPE_SELFOVERLAP>  (1) 
433.455

>  <PUBCHEM_SHAPE_VOLUME>  (1) 
149.9

>  <PUBCHEM_COORDINATE_TYPE>  (1) 
2
5
10

$$$$
