17120
     RDKit          3D

  7  7  0  0  1  0  0  0  0  0999 V2000
   -2.2486    0.0115    0.7770 Cl  0  0  0  0  0  0  0  0  0  0  0  0
   -0.2657    1.1851   -0.6968 C   0  0  0  0  0  0  0  0  0  0  0  0
    0.8355    1.3091    0.3560 C   0  0  0  0  0  0  0  0  0  0  0  0
   -1.0549   -0.1230   -0.5513 C   0  0  0  0  0  0  0  0  0  0  0  0
    1.7987    0.1203    0.2966 C   0  0  0  0  0  0  0  0  0  0  0  0
   -0.1751   -1.3067   -0.2733 C   0  0  0  0  0  0  0  0  0  0  0  0
    1.1102   -1.1962    0.0918 C   0  0  0  0  0  0  0  0  0  0  0  0
  1  4  1  0
  2  3  1  0
  2  4  1  0
  3  5  1  0
  4  6  1  0
  5  7  1  0
  6  7  2  0
M  END
>  <PUBCHEM_COMPOUND_CID>  (1) 
17120

>  <PUBCHEM_CONFORMER_RMSD>  (1) 
0.4

>  <PUBCHEM_CONFORMER_DIVERSEORDER>  (1) 
1

>  <PUBCHEM_MMFF94_PARTIAL_CHARGES>  (1) 
7
1 -0.29
15 0.15
16 0.15
4 0.43
5 0.14
6 -0.29
7 -0.29

>  <PUBCHEM_EFFECTIVE_ROTOR_COUNT>  (1) 
0.8

>  <PUBCHEM_PHARMACOPHORE_FEATURES>  (1) 
1
6 2 3 4 5 6 7 rings

>  <PUBCHEM_HEAVY_ATOM_COUNT>  (1) 
7

>  <PUBCHEM_ATOM_DEF_STEREO_COUNT>  (1) 
0

>  <PUBCHEM_ATOM_UDEF_STEREO_COUNT>  (1) 
1

>  <PUBCHEM_BOND_DEF_STEREO_COUNT>  (1) 
0

>  <PUBCHEM_BOND_UDEF_STEREO_COUNT>  (1) 
0

>  <PUBCHEM_ISOTOPIC_ATOM_COUNT>  (1) 
0

>  <PUBCHEM_COMPONENT_COUNT>  (1) 
1

>  <PUBCHEM_CACTVS_TAUTO_COUNT>  (1) 
1

>  <PUBCHEM_CONFORMER_ID>  (1) 
000042E000000001

>  <PUBCHEM_MMFF94_ENERGY>  (1) 
-0.9205

>  <PUBCHEM_FEATURE_SELFOVERLAP>  (1) 
5.074

>  <PUBCHEM_SHAPE_FINGERPRINT>  (1) 
16714656 1 18408605885513737428
18185500 45 16391545524868623702
20096714 4 18271805786582974162
21040471 1 18195809797723678660
29004967 10 18113904848735260945
5943 1 9182911027018182477

>  <PUBCHEM_SHAPE_MULTIPOLES>  (1) 
145.93
2.3
1.51
0.87
0.75
0
0
0.03
0.68
-0.35
-0.1
0.22
-0.09
0.05

>  <PUBCHEM_SHAPE_SELFOVERLAP>  (1) 
273.988

>  <PUBCHEM_SHAPE_VOLUME>  (1) 
87.8

>  <PUBCHEM_COORDINATE_TYPE>  (1) 
2
5
10

$$$$
