17123
     RDKit          3D

 17 18  0  0  0  0  0  0  0  0999 V2000
   -1.0710    1.2425    0.5642 O   0  0  0  0  0  0  0  0  0  0  0  0
    4.4094   -1.1647   -1.3226 O   0  0  0  0  0  0  0  0  0  0  0  0
    5.0389   -0.1875    0.5396 O   0  0  0  0  0  0  0  0  0  0  0  0
    4.1538   -0.4874   -0.2977 N   0  0  0  0  0  0  0  0  0  0  0  0
   -2.0752    0.3424    0.3693 C   0  0  0  0  0  0  0  0  0  0  0  0
   -3.0719    0.5791   -0.5775 C   0  0  0  0  0  0  0  0  0  0  0  0
    0.2272    0.8127    0.3502 C   0  0  0  0  0  0  0  0  0  0  0  0
   -2.0990   -0.8270    1.1295 C   0  0  0  0  0  0  0  0  0  0  0  0
   -4.0922   -0.3536   -0.7640 C   0  0  0  0  0  0  0  0  0  0  0  0
   -3.0624    1.8251   -1.4002 C   0  0  0  0  0  0  0  0  0  0  0  0
    0.5126    0.0667   -0.7795 C   0  0  0  0  0  0  0  0  0  0  0  0
    1.2069    1.1402    1.2705 C   0  0  0  0  0  0  0  0  0  0  0  0
    2.8219   -0.0463   -0.0791 C   0  0  0  0  0  0  0  0  0  0  0  0
   -3.1193   -1.7596    0.9429 C   0  0  0  0  0  0  0  0  0  0  0  0
   -4.1158   -1.5229   -0.0038 C   0  0  0  0  0  0  0  0  0  0  0  0
    1.8207   -0.3666   -0.9958 C   0  0  0  0  0  0  0  0  0  0  0  0
    2.5151    0.7070    1.0541 C   0  0  0  0  0  0  0  0  0  0  0  0
  1  5  1  0
  1  7  1  0
  2  4  1  0
  3  4  2  0
  4 13  1  0
  5  6  2  0
  5  8  1  0
  6  9  1  0
  6 10  1  0
  7 11  2  0
  7 12  1  0
  8 14  2  0
  9 15  2  0
 11 16  1  0
 12 17  2  0
 13 16  2  0
 13 17  1  0
 14 15  1  0
M  CHG  2   2  -1   4   1
M  END
>  <PUBCHEM_COMPOUND_CID>  (1) 
17123

>  <PUBCHEM_CONFORMER_RMSD>  (1) 
0.6

>  <PUBCHEM_CONFORMER_DIVERSEORDER>  (1) 
1
2
5
4
3

>  <PUBCHEM_MMFF94_PARTIAL_CHARGES>  (1) 
25
1 -0.17
10 0.14
11 -0.15
12 -0.15
13 0.13
14 -0.15
15 -0.15
16 -0.15
17 -0.15
18 0.15
19 0.15
2 -0.52
20 0.15
21 0.15
25 0.15
26 0.15
27 0.15
28 0.15
3 -0.52
4 0.91
5 0.08
6 -0.14
7 0.08
8 -0.15
9 -0.15

>  <PUBCHEM_EFFECTIVE_ROTOR_COUNT>  (1) 
3

>  <PUBCHEM_PHARMACOPHORE_FEATURES>  (1) 
6
1 1 acceptor
1 2 acceptor
1 2 anion
1 3 acceptor
6 5 6 8 9 14 15 rings
6 7 11 12 13 16 17 rings

>  <PUBCHEM_HEAVY_ATOM_COUNT>  (1) 
17

>  <PUBCHEM_ATOM_DEF_STEREO_COUNT>  (1) 
0

>  <PUBCHEM_ATOM_UDEF_STEREO_COUNT>  (1) 
0

>  <PUBCHEM_BOND_DEF_STEREO_COUNT>  (1) 
0

>  <PUBCHEM_BOND_UDEF_STEREO_COUNT>  (1) 
0

>  <PUBCHEM_ISOTOPIC_ATOM_COUNT>  (1) 
0

>  <PUBCHEM_COMPONENT_COUNT>  (1) 
1

>  <PUBCHEM_CACTVS_TAUTO_COUNT>  (1) 
1

>  <PUBCHEM_CONFORMER_ID>  (1) 
000042E300000001

>  <PUBCHEM_MMFF94_ENERGY>  (1) 
59.862

>  <PUBCHEM_FEATURE_SELFOVERLAP>  (1) 
30.528

>  <PUBCHEM_SHAPE_FINGERPRINT>  (1) 
10465860 71 17749391494141520669
10751810 167 17313104163548415963
11543360 7 17895205423682599012
11796584 16 18261949623187901506
12032990 46 17846223228689906724
12236239 1 16226044479387622437
12251169 10 13183024033812632059
12500047 106 18115016416473425733
13296908 3 18271804648611910585
13965767 371 13467087226551938747
14252887 29 16845299324051082382
14341114 328 13254792460508671210
14386348 63 18272371983663663463
14993402 34 16660359302915179411
15653759 3 18412263947545459857
16752209 62 17822278111815708779
17862501 102 14907892778042019948
17870717 6 18334021566336824095
1813 80 16701758098104001412
18186145 218 18335974316373371169
19050596 39 14764347167159702459
19433438 38 18409164398592050567
19433438 48 15482671260411974253
19862831 5 16008746930895425227
200 152 16773790394741857749
20279233 1 18343865524020598855
20325693 3 17894635838052145447
20432913 95 17418095420836074122
20645476 183 16226043431600478963
20645477 70 17917986179138801548
20871999 31 18041000639339258645
21650355 55 12319442325844122213
22094290 60 18040716969776678029
23402539 116 17749382646445561733
23402655 69 14634855453763532967
23403322 49 18412829075095091235
23557571 272 18261382390714417757
23559900 14 18261666064740433032
26918003 58 17418094343099924363
27216 239 8718823180957147079
3082319 5 16371004130900525435
3286 77 17845938553936135025
474 4 15336839867908307472
4921388 177 17676497163492059395
5104073 3 17489309612642128386
59755656 520 18268426829508439965
77492 1 16226034588030668425
90316 7 14333140675762345875

>  <PUBCHEM_SHAPE_MULTIPOLES>  (1) 
327.26
9.12
1.54
1.3
5.5
0.05
0
-2.89
-2.07
-1.85
-0.06
0.52
0.09
1.18

>  <PUBCHEM_SHAPE_SELFOVERLAP>  (1) 
707.988

>  <PUBCHEM_SHAPE_VOLUME>  (1) 
180.9

>  <PUBCHEM_COORDINATE_TYPE>  (1) 
2
5
10

$$$$
