17132
     RDKit          3D

 13 13  0  0  0  0  0  0  0  0999 V2000
   -4.9796    0.0760    0.9379 O   0  0  0  0  0  0  0  0  0  0  0  0
    2.7270   -0.0886   -0.6210 C   0  0  0  0  0  0  0  0  0  0  0  0
    1.3115   -0.0072   -0.0463 C   0  0  0  0  0  0  0  0  0  0  0  0
    3.7818    0.0250    0.4808 C   0  0  0  0  0  0  0  0  0  0  0  0
    0.2579   -0.0870   -1.1532 C   0  0  0  0  0  0  0  0  0  0  0  0
    5.1963   -0.0228   -0.0963 C   0  0  0  0  0  0  0  0  0  0  0  0
   -1.1412   -0.0434   -0.5944 C   0  0  0  0  0  0  0  0  0  0  0  0
    6.2471    0.1240    0.9924 C   0  0  0  0  0  0  0  0  0  0  0  0
   -1.7758   -1.2282   -0.2530 C   0  0  0  0  0  0  0  0  0  0  0  0
   -1.7716    1.1811   -0.4308 C   0  0  0  0  0  0  0  0  0  0  0  0
   -3.0707   -1.1878    0.2639 C   0  0  0  0  0  0  0  0  0  0  0  0
   -3.0665    1.2217    0.0863 C   0  0  0  0  0  0  0  0  0  0  0  0
   -3.7161    0.0371    0.4337 C   0  0  0  0  0  0  0  0  0  0  0  0
  1 13  1  0
  2  3  1  0
  2  4  1  0
  3  5  1  0
  4  6  1  0
  5  7  1  0
  6  8  1  0
  7  9  2  0
  7 10  1  0
  9 11  1  0
 10 12  2  0
 11 13  2  0
 12 13  1  0
M  END
>  <PUBCHEM_COMPOUND_CID>  (1) 
17132

>  <PUBCHEM_CONFORMER_RMSD>  (1) 
0.6

>  <PUBCHEM_CONFORMER_DIVERSEORDER>  (1) 
1
18
20
3
8
14
22
24
19
21
26
30
12
6
17
27
25
4
23
15
13
5
32
9
28
7
11
16
31
10
29
2

>  <PUBCHEM_MMFF94_PARTIAL_CHARGES>  (1) 
13
1 -0.53
10 -0.15
11 -0.15
12 -0.15
13 0.08
27 0.15
28 0.15
29 0.15
30 0.15
31 0.45
5 0.14
7 -0.14
9 -0.15

>  <PUBCHEM_EFFECTIVE_ROTOR_COUNT>  (1) 
5

>  <PUBCHEM_PHARMACOPHORE_FEATURES>  (1) 
4
1 1 donor
1 8 hydrophobe
5 2 3 4 5 6 hydrophobe
6 7 9 10 11 12 13 rings

>  <PUBCHEM_HEAVY_ATOM_COUNT>  (1) 
13

>  <PUBCHEM_ATOM_DEF_STEREO_COUNT>  (1) 
0

>  <PUBCHEM_ATOM_UDEF_STEREO_COUNT>  (1) 
0

>  <PUBCHEM_BOND_DEF_STEREO_COUNT>  (1) 
0

>  <PUBCHEM_BOND_UDEF_STEREO_COUNT>  (1) 
0

>  <PUBCHEM_ISOTOPIC_ATOM_COUNT>  (1) 
0

>  <PUBCHEM_COMPONENT_COUNT>  (1) 
1

>  <PUBCHEM_CACTVS_TAUTO_COUNT>  (1) 
2

>  <PUBCHEM_CONFORMER_ID>  (1) 
000042EC00000001

>  <PUBCHEM_MMFF94_ENERGY>  (1) 
16.7738

>  <PUBCHEM_FEATURE_SELFOVERLAP>  (1) 
20.297

>  <PUBCHEM_SHAPE_FINGERPRINT>  (1) 
10014705 185 15195276556331875162
100836 57 16056882442311583392
114248 4 8070027761864434302
12251169 10 18408606971760681293
12507560 40 18269558251809029190
13214271 11 16845574227516807589
13288520 33 14490192713281513699
14123238 8 18259985977050815558
1420 363 15285357311002900792
14251718 22 8574708010245627218
15242439 84 8358255938992864606
15501527 16 17847057801028449736
17834072 33 17676492774219897812
17834076 25 14979955874418305080
1813 80 16443635597331760846
187816 3 9295288331111786007
19050596 39 18333734654121037420
200 152 14851603288779383892
20432913 95 16298385734683000704
20645464 45 17988931071862610615
20645476 183 12607398867518503981
20645477 56 17775282768324907100
20645477 70 12829755307654047056
20767249 213 16200432476662088483
20828058 44 18334293176021302598
20871999 31 9151179731516112775
21119208 17 10735875066982906598
21637258 2 16298673897060915579
2297311 6 18338811039308994524
23402539 116 18413102871118247749
23402655 69 12463578356926838554
23403322 49 12757145775325646568
26918003 58 17022906761242241097
351380 3 16370721526764154130
42 15 18187365428669605494
449060 50 18202565068779822532

>  <PUBCHEM_SHAPE_MULTIPOLES>  (1) 
261.66
12.2
1.07
0.96
16.08
0
-0.03
0.39
4.89
-1.12
-0.02
0.19
0
0.1

>  <PUBCHEM_SHAPE_SELFOVERLAP>  (1) 
518.48

>  <PUBCHEM_SHAPE_VOLUME>  (1) 
156.8

>  <PUBCHEM_COORDINATE_TYPE>  (1) 
2
5
10

$$$$
