17138
     RDKit          3D

 22 25  0  0  1  0  0  0  0  0999 V2000
   -1.1687    1.1148    0.5485 N   0  0  0  0  0  0  0  0  0  0  0  0
   -0.7881    0.8766   -0.8509 C   0  0  0  0  0  0  0  0  0  0  0  0
   -0.1255    1.8932    1.2308 C   0  0  0  0  0  0  0  0  0  0  0  0
    1.7035    0.7038   -0.1656 C   0  0  0  0  0  0  0  0  0  0  0  0
    0.5434    0.1101   -0.9857 C   0  0  0  0  0  0  0  0  0  0  0  0
    1.2472    1.1901    1.2223 C   0  0  0  0  0  0  0  0  0  0  0  0
   -0.8004    2.2315   -1.5856 C   0  0  0  0  0  0  0  0  0  0  0  0
   -0.1022    3.3044    0.6117 C   0  0  0  0  0  0  0  0  0  0  0  0
    0.0172    3.3318   -0.9110 C   0  0  0  0  0  0  0  0  0  0  0  0
   -1.5407   -0.1028    1.2615 C   0  0  0  0  0  0  0  0  0  0  0  0
    2.8854   -0.2505   -0.0751 C   0  0  0  0  0  0  0  0  0  0  0  0
   -2.7117   -0.7349    0.5700 C   0  0  0  0  0  0  0  0  0  0  0  0
    2.9572   -1.1653    0.9718 C   0  0  0  0  0  0  0  0  0  0  0  0
    3.8879   -0.2037   -1.0398 C   0  0  0  0  0  0  0  0  0  0  0  0
   -4.0046   -0.3874    0.9471 C   0  0  0  0  0  0  0  0  0  0  0  0
   -2.4954   -1.6631   -0.4430 C   0  0  0  0  0  0  0  0  0  0  0  0
    4.0403   -2.0402    1.0547 C   0  0  0  0  0  0  0  0  0  0  0  0
    4.9710   -1.0788   -0.9568 C   0  0  0  0  0  0  0  0  0  0  0  0
    5.0471   -1.9970    0.0905 C   0  0  0  0  0  0  0  0  0  0  0  0
   -5.0939   -0.9751    0.3038 C   0  0  0  0  0  0  0  0  0  0  0  0
   -3.5848   -2.2507   -1.0862 C   0  0  0  0  0  0  0  0  0  0  0  0
   -4.8840   -1.9067   -0.7129 C   0  0  0  0  0  0  0  0  0  0  0  0
  1  2  1  0
  1  3  1  0
  1 10  1  0
  2  5  1  0
  2  7  1  0
  3  6  1  0
  3  8  1  0
  4  5  1  0
  4  6  1  0
  4 11  1  0
  7  9  1  0
  8  9  1  0
 10 12  1  0
 11 13  2  0
 11 14  1  0
 12 15  2  0
 12 16  1  0
 13 17  1  0
 14 18  2  0
 15 20  1  0
 16 21  2  0
 17 19  2  0
 18 19  1  0
 20 22  2  0
 21 22  1  0
M  END
>  <PUBCHEM_COMPOUND_CID>  (1) 
17138

>  <PUBCHEM_CONFORMER_RMSD>  (1) 
0.8

>  <PUBCHEM_CONFORMER_DIVERSEORDER>  (1) 
1
4
7
3
5
2
6
8

>  <PUBCHEM_MMFF94_PARTIAL_CHARGES>  (1) 
27
1 -0.81
10 0.41
11 -0.14
12 -0.14
13 -0.15
14 -0.15
15 -0.15
16 -0.15
17 -0.15
18 -0.15
19 -0.15
2 0.27
20 -0.15
21 -0.15
22 -0.15
3 0.27
38 0.15
39 0.15
4 0.14
40 0.15
41 0.15
42 0.15
43 0.15
44 0.15
45 0.15
46 0.15
47 0.15

>  <PUBCHEM_EFFECTIVE_ROTOR_COUNT>  (1) 
4.4

>  <PUBCHEM_PHARMACOPHORE_FEATURES>  (1) 
5
1 1 cation
6 1 2 3 4 5 6 rings
6 1 2 3 7 8 9 rings
6 11 13 14 17 18 19 rings
6 12 15 16 20 21 22 rings

>  <PUBCHEM_HEAVY_ATOM_COUNT>  (1) 
22

>  <PUBCHEM_ATOM_DEF_STEREO_COUNT>  (1) 
0

>  <PUBCHEM_ATOM_UDEF_STEREO_COUNT>  (1) 
2

>  <PUBCHEM_BOND_DEF_STEREO_COUNT>  (1) 
0

>  <PUBCHEM_BOND_UDEF_STEREO_COUNT>  (1) 
0

>  <PUBCHEM_ISOTOPIC_ATOM_COUNT>  (1) 
0

>  <PUBCHEM_COMPONENT_COUNT>  (1) 
1

>  <PUBCHEM_CACTVS_TAUTO_COUNT>  (1) 
1

>  <PUBCHEM_CONFORMER_ID>  (1) 
000042F200000001

>  <PUBCHEM_MMFF94_ENERGY>  (1) 
63.4619

>  <PUBCHEM_FEATURE_SELFOVERLAP>  (1) 
26.82

>  <PUBCHEM_SHAPE_FINGERPRINT>  (1) 
10042902 136 18130791208634604542
10622 236 17607508156115866594
10764073 3 15478768964643036333
11265709 11 18411143532306585993
11578080 2 18339348738659968353
12553582 1 18408038519996812994
12633257 1 17561097899013093451
12714826 92 18337384946488408060
12760667 363 18335983073611474418
12788726 201 18115302263621394490
12892183 10 15338849624761151082
13004483 165 18410007715193623808
13103583 49 17846228751902026099
13134695 92 18340207522139965845
13533116 47 18053380187624430039
13544653 18 18408889563465831536
13583140 156 15482389742396199058
13631057 29 18337952295327357234
13955234 65 17908146834566355313
14251757 17 15647053784866794879
14347332 77 18265054622639834806
15342168 16 9943808897777565643
15342816 4 18340215171265314438
15885798 251 18342457040882586874
16752209 62 18041268873074376762
17349148 13 17346323760473130295
17492 89 18053661666680135575
17539 30 18263638468310196917
17818456 19 18059587888440576457
1813 80 18410865377286815527
18222031 100 18201438107625979439
19765921 60 10737273663037943613
19784866 140 17240201023746859795
200 152 17967538952173653206
204376 136 10879994661869339991
20600515 1 18059308624696432317
20626108 58 18058725943937871303
20832881 197 18408039620046147419
21250096 35 18410292531824007675
22950370 63 18410860970603227942
23175994 123 18040439914674742811
23419403 2 17986648498366202145
23559900 14 18128811018605390731
23622692 118 17969496018789801450
25222932 49 16047017907635121327
2838139 119 10953457461764310606
2871803 45 17894914014489081418
3004659 81 18186801366251563338
3027735 51 18042682793377644259
351380 3 18410579482710298243
4325135 7 18341054099349353356
4409770 3 18120651336573488277
46194498 28 16444480185333577751
463206 1 18334856142712365315
5104073 3 17488190481793934171
57100710 210 18336547101849126486
7164475 11 18189051998029102098
76465 3 18343579672635951771
7970288 3 18412824689918463438
960060 61 18114463456419042135
9971528 1 18339919441434774321

>  <PUBCHEM_SHAPE_MULTIPOLES>  (1) 
447.77
9.82
3.28
1.42
1.08
2.44
-0.03
-10.97
-0.69
-0.3
-0.39
0.03
0.27
-0.73

>  <PUBCHEM_SHAPE_SELFOVERLAP>  (1) 
966.874

>  <PUBCHEM_SHAPE_VOLUME>  (1) 
241.9

>  <PUBCHEM_COORDINATE_TYPE>  (1) 
2
5
10

$$$$
