17134
     RDKit          3D

 21 22  0  0  0  0  0  0  0  0999 V2000
    1.5093   -2.1522   -0.0341 S   0  0  0  0  0  0  0  0  0  0  0  0
    2.3819   -2.7871    0.9466 O   0  0  0  0  0  0  0  0  0  0  0  0
    1.4753   -2.6828   -1.3915 O   0  0  0  0  0  0  0  0  0  0  0  0
   -1.1711    0.1724    1.8797 O   0  0  0  0  0  0  0  0  0  0  0  0
   -3.0361    1.6849    0.4896 O   0  0  0  0  0  0  0  0  0  0  0  0
   -0.0874   -2.1200    0.6124 N   0  0  0  0  0  0  0  0  0  0  0  0
   -1.4186   -1.6464   -1.2682 N   0  0  0  0  0  0  0  0  0  0  0  0
    2.9504    3.6116   -0.2782 N   0  0  0  0  0  0  0  0  0  0  0  0
   -2.8932    0.2588   -1.3262 N   0  0  0  0  0  0  0  0  0  0  0  0
    1.9321   -0.4598   -0.1058 C   0  0  0  0  0  0  0  0  0  0  0  0
   -1.0593   -1.2739   -0.0263 C   0  0  0  0  0  0  0  0  0  0  0  0
    2.5527    0.1508    0.9843 C   0  0  0  0  0  0  0  0  0  0  0  0
    1.6497    0.2819   -1.2530 C   0  0  0  0  0  0  0  0  0  0  0  0
   -1.5569   -0.1717    0.6289 C   0  0  0  0  0  0  0  0  0  0  0  0
    2.8904    1.5029    0.9272 C   0  0  0  0  0  0  0  0  0  0  0  0
    1.9876    1.6341   -1.3099 C   0  0  0  0  0  0  0  0  0  0  0  0
    2.6079    2.2445   -0.2198 C   0  0  0  0  0  0  0  0  0  0  0  0
   -2.4828    0.5675   -0.0787 C   0  0  0  0  0  0  0  0  0  0  0  0
   -2.3290   -0.8447   -1.8531 C   0  0  0  0  0  0  0  0  0  0  0  0
   -1.9196   -0.3707    2.9708 C   0  0  0  0  0  0  0  0  0  0  0  0
   -3.9833    2.3999   -0.2948 C   0  0  0  0  0  0  0  0  0  0  0  0
  1  2  2  0
  1  3  2  0
  1  6  1  0
  1 10  1  0
  4 14  1  0
  4 20  1  0
  5 18  1  0
  5 21  1  0
  6 11  1  0
  7 11  2  0
  7 19  1  0
  8 17  1  0
  9 18  1  0
  9 19  2  0
 10 12  2  0
 10 13  1  0
 11 14  1  0
 12 15  1  0
 13 16  2  0
 14 18  2  0
 15 17  2  0
 16 17  1  0
M  END
>  <PUBCHEM_COMPOUND_CID>  (1) 
17134

>  <PUBCHEM_CONFORMER_RMSD>  (1) 
0.8

>  <PUBCHEM_CONFORMER_DIVERSEORDER>  (1) 
1
18
21
19
10
2
24
4
16
3
11
12
23
30
25
29
8
27
9
13
26
17
22
7
20
14
5
28
6
15

>  <PUBCHEM_MMFF94_PARTIAL_CHARGES>  (1) 
29
1 1.45
10 -0.01
11 0.51
12 -0.15
13 -0.15
14 0.08
15 -0.15
16 -0.15
17 0.1
18 0.39
19 0.47
2 -0.65
20 0.28
21 0.28
22 0.42
23 0.15
24 0.15
25 0.15
26 0.15
27 0.15
28 0.4
29 0.4
3 -0.65
4 -0.36
5 -0.36
6 -0.76
7 -0.62
8 -0.9
9 -0.62

>  <PUBCHEM_EFFECTIVE_ROTOR_COUNT>  (1) 
5

>  <PUBCHEM_PHARMACOPHORE_FEATURES>  (1) 
9
1 2 acceptor
1 3 acceptor
1 4 acceptor
1 6 donor
1 8 cation
1 8 donor
3 7 9 19 cation
6 10 12 13 15 16 17 rings
6 7 9 11 14 18 19 rings

>  <PUBCHEM_HEAVY_ATOM_COUNT>  (1) 
21

>  <PUBCHEM_ATOM_DEF_STEREO_COUNT>  (1) 
0

>  <PUBCHEM_ATOM_UDEF_STEREO_COUNT>  (1) 
0

>  <PUBCHEM_BOND_DEF_STEREO_COUNT>  (1) 
0

>  <PUBCHEM_BOND_UDEF_STEREO_COUNT>  (1) 
0

>  <PUBCHEM_ISOTOPIC_ATOM_COUNT>  (1) 
0

>  <PUBCHEM_COMPONENT_COUNT>  (1) 
1

>  <PUBCHEM_CACTVS_TAUTO_COUNT>  (1) 
3

>  <PUBCHEM_CONFORMER_ID>  (1) 
000042EE00000001

>  <PUBCHEM_MMFF94_ENERGY>  (1) 
73.4092

>  <PUBCHEM_FEATURE_SELFOVERLAP>  (1) 
45.689

>  <PUBCHEM_SHAPE_FINGERPRINT>  (1) 
10165383 225 17543124246694798172
11640471 11 18202281407169074209
12507560 18 16882459346119359267
12633257 1 16515685562943385105
128993 33 18053976044862704392
13134695 92 18046340830082232502
13693222 7 18201169826783254440
14115302 16 17273398492551730295
14142880 1 17620777392729335547
15295992 7 18042135262598966985
15664445 248 13901322868478411019
16945 1 18042382712839522630
17492 54 15045495764789522456
17980427 23 17771309073072582890
18522851 12 9222686568865112220
18981168 100 18263383501813101402
192875 21 18052510434580868796
19765921 60 18200868586441147547
20510252 161 17616532200125995518
21475661 188 17606955101814320781
21524375 3 18125452044842254226
23175994 123 17390519488802226922
3286 77 17678183698365035027
474 4 18334845122026016005
49207404 50 18115891679664479769
5262128 65 15625944312738636496
5939293 188 18194399987725440148
6992083 37 17341258060536681826
7832392 63 18269265760177874719
81228 2 17114405078280268058
9981440 41 18119795048574153680

>  <PUBCHEM_SHAPE_MULTIPOLES>  (1) 
392.62
5.68
3.34
1.92
1.92
0.58
-0.91
4.23
0.17
-2.22
0.46
1.12
-0.47
-0.26

>  <PUBCHEM_SHAPE_SELFOVERLAP>  (1) 
819.693

>  <PUBCHEM_SHAPE_VOLUME>  (1) 
223.9

>  <PUBCHEM_COORDINATE_TYPE>  (1) 
2
5
10

$$$$
