17147
     RDKit          3D

 21 22  0  0  0  0  0  0  0  0999 V2000
    4.8614    2.1602    1.1837 O   0  0  0  0  0  0  0  0  0  0  0  0
    4.1133   -2.5799   -1.3487 O   0  0  0  0  0  0  0  0  0  0  0  0
    3.7078   -0.1051   -0.0485 N   0  0  0  0  0  0  0  0  0  0  0  0
   -1.8378    0.5839    0.2856 N   0  0  0  0  0  0  0  0  0  0  0  0
   -2.4224   -0.4070   -0.2121 N   0  0  0  0  0  0  0  0  0  0  0  0
    4.5228    0.8419   -0.7834 C   0  0  0  0  0  0  0  0  0  0  0  0
    4.3489   -1.2265    0.6093 C   0  0  0  0  0  0  0  0  0  0  0  0
    2.3112    0.0698    0.0368 C   0  0  0  0  0  0  0  0  0  0  0  0
    4.4229    2.2281   -0.1669 C   0  0  0  0  0  0  0  0  0  0  0  0
    3.8384   -2.5429    0.0455 C   0  0  0  0  0  0  0  0  0  0  0  0
    1.6225    0.6973   -1.0012 C   0  0  0  0  0  0  0  0  0  0  0  0
    1.6181   -0.3861    1.1581 C   0  0  0  0  0  0  0  0  0  0  0  0
    0.2407    0.8689   -0.9181 C   0  0  0  0  0  0  0  0  0  0  0  0
    0.2363   -0.2146    1.2413 C   0  0  0  0  0  0  0  0  0  0  0  0
   -0.4454    0.4121    0.2028 C   0  0  0  0  0  0  0  0  0  0  0  0
   -3.8077   -0.2367   -0.1296 C   0  0  0  0  0  0  0  0  0  0  0  0
   -4.4965    0.3895   -1.1685 C   0  0  0  0  0  0  0  0  0  0  0  0
   -4.5009   -0.6928    0.9915 C   0  0  0  0  0  0  0  0  0  0  0  0
   -5.8786    0.5595   -1.0862 C   0  0  0  0  0  0  0  0  0  0  0  0
   -5.8830   -0.5229    1.0737 C   0  0  0  0  0  0  0  0  0  0  0  0
   -6.5718    0.1033    0.0349 C   0  0  0  0  0  0  0  0  0  0  0  0
  1  9  1  0
  2 10  1  0
  3  6  1  0
  3  7  1  0
  3  8  1  0
  4  5  2  0
  4 15  1  0
  5 16  1  0
  6  9  1  0
  7 10  1  0
  8 11  2  0
  8 12  1  0
 11 13  1  0
 12 14  2  0
 13 15  2  0
 14 15  1  0
 16 17  2  0
 16 18  1  0
 17 19  1  0
 18 20  2  0
 19 21  2  0
 20 21  1  0
M  END
>  <PUBCHEM_COMPOUND_CID>  (1) 
17147

>  <PUBCHEM_CONFORMER_RMSD>  (1) 
0.8

>  <PUBCHEM_CONFORMER_DIVERSEORDER>  (1) 
1
18
7
12
13
5
10
8
16
15
11
4
14
19
6
20
17
21
9
2
3

>  <PUBCHEM_MMFF94_PARTIAL_CHARGES>  (1) 
32
1 -0.68
10 0.28
11 -0.15
12 -0.15
13 -0.15
14 -0.15
15 0.18
16 0.18
17 -0.15
18 -0.15
19 -0.15
2 -0.68
20 -0.15
21 -0.15
3 -0.84
30 0.15
31 0.15
32 0.15
33 0.15
34 0.4
35 0.4
36 0.15
37 0.15
38 0.15
39 0.15
4 -0.18
40 0.15
5 -0.18
6 0.37
7 0.37
8 0.1
9 0.28

>  <PUBCHEM_EFFECTIVE_ROTOR_COUNT>  (1) 
7

>  <PUBCHEM_PHARMACOPHORE_FEATURES>  (1) 
7
1 1 acceptor
1 1 donor
1 2 acceptor
1 2 donor
1 3 cation
6 16 17 18 19 20 21 rings
6 8 11 12 13 14 15 rings

>  <PUBCHEM_HEAVY_ATOM_COUNT>  (1) 
21

>  <PUBCHEM_ATOM_DEF_STEREO_COUNT>  (1) 
0

>  <PUBCHEM_ATOM_UDEF_STEREO_COUNT>  (1) 
0

>  <PUBCHEM_BOND_DEF_STEREO_COUNT>  (1) 
0

>  <PUBCHEM_BOND_UDEF_STEREO_COUNT>  (1) 
0

>  <PUBCHEM_ISOTOPIC_ATOM_COUNT>  (1) 
0

>  <PUBCHEM_COMPONENT_COUNT>  (1) 
1

>  <PUBCHEM_CACTVS_TAUTO_COUNT>  (1) 
1

>  <PUBCHEM_CONFORMER_ID>  (1) 
000042FB00000001

>  <PUBCHEM_MMFF94_ENERGY>  (1) 
66.7921

>  <PUBCHEM_FEATURE_SELFOVERLAP>  (1) 
35.52

>  <PUBCHEM_SHAPE_FINGERPRINT>  (1) 
10554248 39 17489023748108802693
10912923 1 17418375800817456083
11287383 113 17894351102936846297
11796584 16 18411980235155168699
12236239 1 18410012131190254385
12516196 113 18335419097598472333
12596602 18 18413111675964761003
12730499 353 18336271227710054232
12788726 201 16988576670928185979
12916748 109 17312821576417957157
13073987 5 18411142424748654593
13533116 47 18342178838855656530
13955234 65 18342453743038839362
14341114 176 17894917321840336709
15081414 286 18187367644461956108
15183329 4 17822008658394326587
15788980 27 18409445886828099063
17844677 252 18260552182336603509
18222031 100 15626506103008488209
19489759 90 14405185058871072147
20645477 70 18408325458477781574
220451 1 17989489641070819695
22061861 79 18408603635009163111
2303208 19 17894923910188573243
23081809 10 17632296770549176857
23402539 116 13840254914851172367
23522609 53 17130730403580852545
23559900 14 18409167749056873128
239999 70 18040998436543333794
29717793 49 18340202995064587703
300161 21 18341607161412411365
3004659 81 18040716935622882378
34797466 226 18040722480456991941
4072396 5 16298654058322502344
4214541 1 17312819369342687829
42630746 31 18113898277846676770
4340502 62 18342453777329927738
4990 188 17749111071289431131
5104073 3 18260824848177420857
542803 24 17418378012815485673
6025842 7 18342459249155192718
7164475 11 18129949949411854696

>  <PUBCHEM_SHAPE_MULTIPOLES>  (1) 
405.49
15.72
1.88
1.24
16.57
0.49
-0.02
-0.07
-0.42
-4.11
-0.23
-0.14
0.09
1.64

>  <PUBCHEM_SHAPE_SELFOVERLAP>  (1) 
850.205

>  <PUBCHEM_SHAPE_VOLUME>  (1) 
229.6

>  <PUBCHEM_COORDINATE_TYPE>  (1) 
2
5
10

$$$$
