17143
     RDKit          3D

 21 22  0  0  0  0  0  0  0  0999 V2000
    1.8640   -1.2500    0.7128 O   0  0  0  0  0  0  0  0  0  0  0  0
    1.8020    1.3174    0.7005 O   0  0  0  0  0  0  0  0  0  0  0  0
    1.7713   -2.3907   -1.2846 O   0  0  0  0  0  0  0  0  0  0  0  0
    1.6622    2.4224   -1.3142 O   0  0  0  0  0  0  0  0  0  0  0  0
    3.6955    0.0604   -0.0956 C   0  0  0  0  0  0  0  0  0  0  0  0
    3.2822   -1.2041    0.6392 C   0  0  0  0  0  0  0  0  0  0  0  0
    3.2210    1.3158    0.6193 C   0  0  0  0  0  0  0  0  0  0  0  0
   -0.2411   -1.8538   -0.1238 C   0  0  0  0  0  0  0  0  0  0  0  0
   -0.3253    1.8427   -0.1317 C   0  0  0  0  0  0  0  0  0  0  0  0
    1.2307   -1.8751   -0.3185 C   0  0  0  0  0  0  0  0  0  0  0  0
    1.1439    1.9054   -0.3368 C   0  0  0  0  0  0  0  0  0  0  0  0
   -1.0603   -1.8380   -1.2340 C   0  0  0  0  0  0  0  0  0  0  0  0
   -1.1508    1.7855   -1.2358 C   0  0  0  0  0  0  0  0  0  0  0  0
   -0.7438   -1.8510    1.1612 C   0  0  0  0  0  0  0  0  0  0  0  0
   -0.8194    1.8429    1.1567 C   0  0  0  0  0  0  0  0  0  0  0  0
   -2.4430   -1.8183   -1.0513 C   0  0  0  0  0  0  0  0  0  0  0  0
   -2.5311    1.7263   -1.0433 C   0  0  0  0  0  0  0  0  0  0  0  0
   -2.1266   -1.8314    1.3438 C   0  0  0  0  0  0  0  0  0  0  0  0
   -2.1997    1.7835    1.3492 C   0  0  0  0  0  0  0  0  0  0  0  0
   -2.9761   -1.8151    0.2375 C   0  0  0  0  0  0  0  0  0  0  0  0
   -3.0555    1.7253    0.2492 C   0  0  0  0  0  0  0  0  0  0  0  0
  1  6  1  0
  1 10  1  0
  2  7  1  0
  2 11  1  0
  3 10  2  0
  4 11  2  0
  5  6  1  0
  5  7  1  0
  8 10  1  0
  8 12  2  0
  8 14  1  0
  9 11  1  0
  9 13  2  0
  9 15  1  0
 12 16  1  0
 13 17  1  0
 14 18  2  0
 15 19  2  0
 16 20  2  0
 17 21  2  0
 18 20  1  0
 19 21  1  0
M  END
>  <PUBCHEM_COMPOUND_CID>  (1) 
17143

>  <PUBCHEM_CONFORMER_RMSD>  (1) 
0.8

>  <PUBCHEM_CONFORMER_DIVERSEORDER>  (1) 
2
26
91
59
1
94
170
164
27
86
71
79
24
90
6
64
150
154
148
147
195
99
241
235
81
68
142
67
19
54
7
9
89
226
221
174
240
17
157
182
199
124
53
216
239
70
191
31
44
65
13
243
194
4
162
165
21
109
228
210
28
51
167
40
129
201
153
23
231
22
198
92
219
206
116
236
173
47
133
115
77
103
138
190
204
120
193
82
3
192
80
96
74
200
184
98
14
160
214
202
178
39
117
104
57
134
175
218
149
166
207
237
75
223
217
186
20
238
69
131
172
49
179
183
41
29
145
143
196
76
132
215
73
33
177
123
128
122
25
222
244
159
113
208
55
169
102
8
224
43
181
225
126
118
151
189
213
12
140
60
220
107
111
101
158
205
233
242
61
85
171
114
135
58
16
209
18
97
35
139
93
88
152
180
56
83
234
112
45
229
46
232
230
34
87
62
185
137
52
11
106
48
227
203
130
63
30
156
37
146
161
211
188
125
36
110
155
168
50
212
32
176
72
78
144
42
15
66
163
5
108
10
187
105
84
127
197
38
119
136
141
100
121
95

>  <PUBCHEM_MMFF94_PARTIAL_CHARGES>  (1) 
30
1 -0.43
10 0.63
11 0.63
12 -0.15
13 -0.15
14 -0.15
15 -0.15
16 -0.15
17 -0.15
18 -0.15
19 -0.15
2 -0.43
20 -0.15
21 -0.15
28 0.15
29 0.15
3 -0.57
30 0.15
31 0.15
32 0.15
33 0.15
34 0.15
35 0.15
36 0.15
37 0.15
4 -0.57
6 0.28
7 0.28
8 0.09
9 0.09

>  <PUBCHEM_EFFECTIVE_ROTOR_COUNT>  (1) 
8

>  <PUBCHEM_PHARMACOPHORE_FEATURES>  (1) 
4
1 3 acceptor
1 4 acceptor
6 8 12 14 16 18 20 rings
6 9 13 15 17 19 21 rings

>  <PUBCHEM_HEAVY_ATOM_COUNT>  (1) 
21

>  <PUBCHEM_ATOM_DEF_STEREO_COUNT>  (1) 
0

>  <PUBCHEM_ATOM_UDEF_STEREO_COUNT>  (1) 
0

>  <PUBCHEM_BOND_DEF_STEREO_COUNT>  (1) 
0

>  <PUBCHEM_BOND_UDEF_STEREO_COUNT>  (1) 
0

>  <PUBCHEM_ISOTOPIC_ATOM_COUNT>  (1) 
0

>  <PUBCHEM_COMPONENT_COUNT>  (1) 
1

>  <PUBCHEM_CACTVS_TAUTO_COUNT>  (1) 
1

>  <PUBCHEM_CONFORMER_ID>  (1) 
000042F700000002

>  <PUBCHEM_MMFF94_ENERGY>  (1) 
54.0826

>  <PUBCHEM_FEATURE_SELFOVERLAP>  (1) 
20.298

>  <PUBCHEM_SHAPE_FINGERPRINT>  (1) 
104564 63 18339087119358342540
11680986 33 18340778030744938295
12011746 2 18194407692738637060
12156800 1 15302619780212025270
12422481 6 18267325213003265691
12596599 1 17197970796305357509
13140716 1 18338789031928023432
14251745 187 18338220643997489440
15881359 60 18408890637434424705
16752209 62 18268434722645188028
16945 1 18056747733340305808
17357779 13 18339913943417686655
17492 54 18118389658170868693
18219364 16 18119249454662449361
18981168 100 17916602958956311070
20905425 154 18267869573800366935
21236236 1 18411415142624418328
2334 1 18410006663227323146
23419403 2 16682521123783228880
238 59 17398367751266569957
2748010 2 18340775827611559174
2818148 4 17906778839684187326
4340502 62 18270970029788999969
5282274 181 18194989390535678409
6287921 2 17413878617929332623

>  <PUBCHEM_SHAPE_MULTIPOLES>  (1) 
408.69
5.14
3.63
1.4
2.76
0.06
0.03
-0.09
-0.48
-1.03
0.38
-0.51
0
0

>  <PUBCHEM_SHAPE_SELFOVERLAP>  (1) 
871.514

>  <PUBCHEM_SHAPE_VOLUME>  (1) 
225.9

>  <PUBCHEM_COORDINATE_TYPE>  (1) 
2
5
10

$$$$
