17158
     RDKit          3D

 10 10  0  0  0  0  0  0  0  0999 V2000
   -2.6808   -1.1939   -0.0007 O   0  0  0  0  0  0  0  0  0  0  0  0
   -2.8434    1.0733    0.0002 O   0  0  0  0  0  0  0  0  0  0  0  0
    2.0419   -0.0046    0.0001 N   0  0  0  0  0  0  0  0  0  0  0  0
   -0.6879    0.0351    0.0001 C   0  0  0  0  0  0  0  0  0  0  0  0
    1.4130    1.1787    0.0000 C   0  0  0  0  0  0  0  0  0  0  0  0
    1.3791   -1.1691    0.0002 C   0  0  0  0  0  0  0  0  0  0  0  0
    0.0264    1.2294   -0.0002 C   0  0  0  0  0  0  0  0  0  0  0  0
   -0.0085   -1.1794    0.0005 C   0  0  0  0  0  0  0  0  0  0  0  0
    3.5020   -0.0258   -0.0004 C   0  0  0  0  0  0  0  0  0  0  0  0
   -2.1418    0.0563    0.0002 C   0  0  0  0  0  0  0  0  0  0  0  0
  1 10  1  0
  2 10  2  0
  3  5  2  0
  3  6  1  0
  3  9  1  0
  4  7  2  0
  4  8  1  0
  4 10  1  0
  5  7  1  0
  6  8  2  0
M  CHG  1   3   1
M  END
>  <PUBCHEM_COMPOUND_CID>  (1) 
17158

>  <PUBCHEM_CONFORMER_RMSD>  (1) 
0.4

>  <PUBCHEM_CONFORMER_DIVERSEORDER>  (1) 
1
2

>  <PUBCHEM_MMFF94_PARTIAL_CHARGES>  (1) 
15
1 -0.65
10 0.63
11 0.15
12 0.15
13 0.15
14 0.15
18 0.5
2 -0.57
3 -0.21
4 0.09
5 0.21
6 0.21
7 -0.15
8 -0.15
9 0.49

>  <PUBCHEM_EFFECTIVE_ROTOR_COUNT>  (1) 
1

>  <PUBCHEM_PHARMACOPHORE_FEATURES>  (1) 
4
1 1 acceptor
1 2 acceptor
3 1 2 10 anion
6 3 4 5 6 7 8 rings

>  <PUBCHEM_HEAVY_ATOM_COUNT>  (1) 
10

>  <PUBCHEM_ATOM_DEF_STEREO_COUNT>  (1) 
0

>  <PUBCHEM_ATOM_UDEF_STEREO_COUNT>  (1) 
0

>  <PUBCHEM_BOND_DEF_STEREO_COUNT>  (1) 
0

>  <PUBCHEM_BOND_UDEF_STEREO_COUNT>  (1) 
0

>  <PUBCHEM_ISOTOPIC_ATOM_COUNT>  (1) 
0

>  <PUBCHEM_COMPONENT_COUNT>  (1) 
1

>  <PUBCHEM_CACTVS_TAUTO_COUNT>  (1) 
1

>  <PUBCHEM_CONFORMER_ID>  (1) 
0000430600000001

>  <PUBCHEM_MMFF94_ENERGY>  (1) 
30.3479

>  <PUBCHEM_FEATURE_SELFOVERLAP>  (1) 
20.355

>  <PUBCHEM_SHAPE_FINGERPRINT>  (1) 
10857977 72 18411408540299523690
12032990 46 18411990165098087710
12897270 3 18411418392907008261
12932764 1 17240474801830913372
14325111 11 18410855486114392800
16945 1 18410573942270447396
193761 8 17546164563949413668
20201158 50 18409446964369102447
21040471 1 18338517572408936128
23235685 24 18410288099528261544
23402655 69 18268695127288006197
23552423 10 18333452057767563183
2748010 2 18266739275725550780
29004967 10 18408889520495001106
5084963 1 18270964655966552913
528886 8 18411412886801139353

>  <PUBCHEM_SHAPE_MULTIPOLES>  (1) 
189.08
4.42
1.41
0.59
0.34
0.01
0
0
0
-0.19
0
0.04
0
0

>  <PUBCHEM_SHAPE_SELFOVERLAP>  (1) 
394.308

>  <PUBCHEM_SHAPE_VOLUME>  (1) 
108.8

>  <PUBCHEM_COORDINATE_TYPE>  (1) 
2
5
10

$$$$
