17156
     RDKit          3D

 22 21  0  0  1  0  0  0  0  0999 V2000
   -3.4974   -1.9389    1.3874 O   0  0  0  0  0  0  0  0  0  0  0  0
   -3.0024    3.3565   -0.5266 O   0  0  0  0  0  0  0  0  0  0  0  0
    3.5454   -1.7075   -1.3187 O   0  0  0  0  0  0  0  0  0  0  0  0
    4.3847    1.5719    0.6421 O   0  0  0  0  0  0  0  0  0  0  0  0
   -4.8616   -2.0534   -0.4258 O   0  0  0  0  0  0  0  0  0  0  0  0
   -2.5710    2.1220    1.3314 O   0  0  0  0  0  0  0  0  0  0  0  0
    4.8270   -1.2992    0.5125 O   0  0  0  0  0  0  0  0  0  0  0  0
    3.2953    1.5532   -1.3518 O   0  0  0  0  0  0  0  0  0  0  0  0
   -2.1206   -0.0947   -0.2291 N   0  0  0  0  0  0  0  0  0  0  0  0
    1.6207   -0.3016    0.1742 N   0  0  0  0  0  0  0  0  0  0  0  0
   -0.7145    0.1334   -0.5782 C   0  0  0  0  0  0  0  0  0  0  0  0
    0.2040   -0.5038    0.4941 C   0  0  0  0  0  0  0  0  0  0  0  0
   -0.4807   -0.3719   -2.0037 C   0  0  0  0  0  0  0  0  0  0  0  0
   -0.0476   -0.0008    1.9178 C   0  0  0  0  0  0  0  0  0  0  0  0
   -2.5660   -1.3890   -0.7399 C   0  0  0  0  0  0  0  0  0  0  0  0
   -2.9551    0.9818   -0.7572 C   0  0  0  0  0  0  0  0  0  0  0  0
    2.4305   -1.3655    0.7634 C   0  0  0  0  0  0  0  0  0  0  0  0
    2.0662    1.0066    0.6485 C   0  0  0  0  0  0  0  0  0  0  0  0
   -3.7584   -1.8371    0.0593 C   0  0  0  0  0  0  0  0  0  0  0  0
   -2.8069    2.1857    0.1314 C   0  0  0  0  0  0  0  0  0  0  0  0
    3.7249   -1.4615    0.0040 C   0  0  0  0  0  0  0  0  0  0  0  0
    3.2833    1.4136   -0.1352 C   0  0  0  0  0  0  0  0  0  0  0  0
  1 19  1  0
  2 20  1  0
  3 21  1  0
  4 22  1  0
  5 19  2  0
  6 20  2  0
  7 21  2  0
  8 22  2  0
  9 11  1  0
  9 15  1  0
  9 16  1  0
 10 12  1  0
 10 17  1  0
 10 18  1  0
 11 12  1  0
 11 13  1  0
 12 14  1  0
 15 19  1  0
 16 20  1  0
 17 21  1  0
 18 22  1  0
M  END
>  <PUBCHEM_COMPOUND_CID>  (1) 
17156

>  <PUBCHEM_CONFORMER_RMSD>  (1) 
1

>  <PUBCHEM_CONFORMER_DIVERSEORDER>  (1) 
1
7
12
9
13
2
14
10
15
6
4
5
8
11
3

>  <PUBCHEM_MMFF94_PARTIAL_CHARGES>  (1) 
24
1 -0.65
10 -0.81
11 0.27
12 0.27
15 0.33
16 0.33
17 0.33
18 0.33
19 0.66
2 -0.65
20 0.66
21 0.66
22 0.66
3 -0.65
39 0.5
4 -0.65
40 0.5
41 0.5
42 0.5
5 -0.57
6 -0.57
7 -0.57
8 -0.57
9 -0.81

>  <PUBCHEM_EFFECTIVE_ROTOR_COUNT>  (1) 
11

>  <PUBCHEM_PHARMACOPHORE_FEATURES>  (1) 
14
1 1 acceptor
1 10 cation
1 2 acceptor
1 3 acceptor
1 4 acceptor
1 5 acceptor
1 6 acceptor
1 7 acceptor
1 8 acceptor
1 9 cation
3 1 5 19 anion
3 2 6 20 anion
3 3 7 21 anion
3 4 8 22 anion

>  <PUBCHEM_HEAVY_ATOM_COUNT>  (1) 
22

>  <PUBCHEM_ATOM_DEF_STEREO_COUNT>  (1) 
0

>  <PUBCHEM_ATOM_UDEF_STEREO_COUNT>  (1) 
2

>  <PUBCHEM_BOND_DEF_STEREO_COUNT>  (1) 
0

>  <PUBCHEM_BOND_UDEF_STEREO_COUNT>  (1) 
0

>  <PUBCHEM_ISOTOPIC_ATOM_COUNT>  (1) 
0

>  <PUBCHEM_COMPONENT_COUNT>  (1) 
1

>  <PUBCHEM_CACTVS_TAUTO_COUNT>  (1) 
1

>  <PUBCHEM_CONFORMER_ID>  (1) 
0000430400000001

>  <PUBCHEM_MMFF94_ENERGY>  (1) 
54.5173

>  <PUBCHEM_FEATURE_SELFOVERLAP>  (1) 
71.289

>  <PUBCHEM_SHAPE_FINGERPRINT>  (1) 
10366900 7 18193561287870714744
11405975 8 18336825295175306842
12173636 292 18410285896220510661
12403814 3 17988922323030150279
12596599 1 18041274391948908028
12714826 92 17846780728034449763
13140716 1 18339919308100786744
13224815 77 15574436530894000366
13544653 18 18261955279670204167
13583140 156 17846200168857617848
13675066 3 17845924157142792946
14178342 30 18119786072176927146
14251751 93 18338517422253892579
14289901 80 18336264630044331570
14787075 74 17608650844885513059
17492 89 18412543202172453638
18186145 218 18041555850083235936
19422 9 18409166606147017014
19930381 70 17831860522549450013
20510252 161 18411132567682405739
20645476 183 18122615060087491657
20691752 17 17022902329031339308
23557571 272 18261946444489654285
23558518 356 18187369830647243131
23559900 14 18336532872369201843
23598288 3 18272642437949283351
312423 11 18335428975484897182
3286 77 18260824908607396046
5104073 3 18340197519213362096
58051976 100 18340205180891867447
58051976 378 18264487467627996434
6049 1 17988629822666617361
633830 44 16950574233489473184
7832392 63 18263076630826930748
81228 2 16083082799194464226

>  <PUBCHEM_SHAPE_MULTIPOLES>  (1) 
395.83
9.01
2.77
1.43
2.79
1.3
-0.04
-2.04
-0.11
-2.17
0.01
-0.06
-0.07
0.08

>  <PUBCHEM_SHAPE_SELFOVERLAP>  (1) 
785.702

>  <PUBCHEM_SHAPE_VOLUME>  (1) 
234.2

>  <PUBCHEM_COORDINATE_TYPE>  (1) 
2
5
10

$$$$
