17169
     RDKit          3D

 18 20  0  0  1  0  0  0  0  0999 V2000
    4.8524    0.1056   -0.1137 Cl  0  0  0  0  0  0  0  0  0  0  0  0
   -0.2902   -1.6699   -1.7321 O   0  0  0  0  0  0  0  0  0  0  0  0
   -0.2937   -1.7814    1.8242 O   0  0  0  0  0  0  0  0  0  0  0  0
   -0.4361   -3.4332    0.2598 O   0  0  0  0  0  0  0  0  0  0  0  0
   -0.3170   -1.1205   -0.4287 C   0  0  0  0  0  0  0  0  0  0  0  0
    0.8898   -0.2154   -0.2274 C   0  0  0  0  0  0  0  0  0  0  0  0
   -1.4709   -0.1481   -0.2478 C   0  0  0  0  0  0  0  0  0  0  0  0
    0.4679    1.1079    0.0378 C   0  0  0  0  0  0  0  0  0  0  0  0
   -0.9794    1.1492    0.0251 C   0  0  0  0  0  0  0  0  0  0  0  0
    2.2356   -0.5434   -0.2782 C   0  0  0  0  0  0  0  0  0  0  0  0
   -2.8318   -0.3993   -0.3270 C   0  0  0  0  0  0  0  0  0  0  0  0
   -0.3563   -2.2497    0.5538 C   0  0  0  0  0  0  0  0  0  0  0  0
    1.3956    2.1137    0.2558 C   0  0  0  0  0  0  0  0  0  0  0  0
   -1.8525    2.2060    0.2258 C   0  0  0  0  0  0  0  0  0  0  0  0
    3.1695    0.4706   -0.0586 C   0  0  0  0  0  0  0  0  0  0  0  0
   -3.7108    0.6662   -0.1246 C   0  0  0  0  0  0  0  0  0  0  0  0
    2.7538    1.7860    0.2061 C   0  0  0  0  0  0  0  0  0  0  0  0
   -3.2259    1.9560    0.1497 C   0  0  0  0  0  0  0  0  0  0  0  0
  1 15  1  0
  2  5  1  0
  3 12  1  0
  4 12  2  0
  5  6  1  0
  5  7  1  0
  5 12  1  0
  6  8  2  0
  6 10  1  0
  7  9  2  0
  7 11  1  0
  8  9  1  0
  8 13  1  0
  9 14  1  0
 10 15  2  0
 11 16  2  0
 13 17  2  0
 14 18  2  0
 15 17  1  0
 16 18  1  0
M  END
>  <PUBCHEM_COMPOUND_CID>  (1) 
17169

>  <PUBCHEM_CONFORMER_RMSD>  (1) 
0.6

>  <PUBCHEM_CONFORMER_DIVERSEORDER>  (1) 
2
1

>  <PUBCHEM_MMFF94_PARTIAL_CHARGES>  (1) 
25
1 -0.18
10 -0.15
11 -0.15
12 0.66
13 -0.15
14 -0.15
15 0.18
16 -0.15
17 -0.15
18 -0.15
19 0.15
2 -0.68
20 0.15
21 0.15
22 0.15
23 0.4
24 0.15
25 0.15
26 0.15
27 0.5
3 -0.65
4 -0.57
5 0.63
6 -0.14
7 -0.14

>  <PUBCHEM_EFFECTIVE_ROTOR_COUNT>  (1) 
1.2

>  <PUBCHEM_PHARMACOPHORE_FEATURES>  (1) 
8
1 2 acceptor
1 2 donor
1 3 acceptor
1 4 acceptor
3 3 4 12 anion
5 5 6 7 8 9 rings
6 6 8 10 13 15 17 rings
6 7 9 11 14 16 18 rings

>  <PUBCHEM_HEAVY_ATOM_COUNT>  (1) 
18

>  <PUBCHEM_ATOM_DEF_STEREO_COUNT>  (1) 
0

>  <PUBCHEM_ATOM_UDEF_STEREO_COUNT>  (1) 
1

>  <PUBCHEM_BOND_DEF_STEREO_COUNT>  (1) 
0

>  <PUBCHEM_BOND_UDEF_STEREO_COUNT>  (1) 
0

>  <PUBCHEM_ISOTOPIC_ATOM_COUNT>  (1) 
0

>  <PUBCHEM_COMPONENT_COUNT>  (1) 
1

>  <PUBCHEM_CACTVS_TAUTO_COUNT>  (1) 
1

>  <PUBCHEM_CONFORMER_ID>  (1) 
0000431100000002

>  <PUBCHEM_MMFF94_ENERGY>  (1) 
54.3693

>  <PUBCHEM_FEATURE_SELFOVERLAP>  (1) 
40.82

>  <PUBCHEM_SHAPE_FINGERPRINT>  (1) 
10382601 240 17906751210265145361
10922049 32 18410297994932432035
10948715 1 18411419488118562788
10967382 1 18339923718826536165
11315181 36 17704359866851817032
11680986 33 18124031492825203920
12035759 4 17984670455815316855
12553582 1 17112977924914067518
12592029 89 18337112246177297865
12644460 14 18049733910492338345
13140716 1 18124032600868315464
13380535 76 18413953888496157180
13464514 151 18122348969446342749
13538477 17 18115022038849353752
14115302 16 18187656829489934292
15196674 1 18341611546574527284
15209289 33 18411139116985422512
15279308 132 18411418410350907456
15309172 13 18410581664743276921
15775835 57 18337392647301732500
16945 1 18411420656354766709
18186145 218 18410571764690691860
193761 8 17762337315861698653
19591789 44 18337954489253688266
20510252 161 18270401714793256313
20511035 2 18126848424477752124
20602899 9 16200437970299885150
20645476 183 18042139776572736772
20905425 154 17836647418324659836
21267235 1 18341620329629270676
21501502 16 18194400228491781780
21524375 3 18413388713554718565
22344851 341 18197221338883680273
2334 1 18412825802287989077
23402539 116 18342166791197974621
23419403 2 17264748664356093975
23559900 14 18342176679436730916
23728640 28 18340760533549626826
25 1 18338517434806692869
2748010 2 18411422816961122285
298252 57 17989483004855821487
305870 269 18262797346193454425
34934 24 18198056976770199717
43471831 8 18263923250274133595
54173680 148 18193558002310585682
6138700 20 18052261700730985214
69090 78 18131062762057116788
7364860 26 17978508637797163695
81228 2 17901941173363458385
81539 233 18189616034234670629
8809292 202 18338237179990843920
9709674 26 18270964673621240828

>  <PUBCHEM_SHAPE_MULTIPOLES>  (1) 
354.69
5.85
2.86
0.93
3.56
1.42
-0.06
-2.77
0.32
-0.83
-0.5
-0.08
0.51
0.03

>  <PUBCHEM_SHAPE_SELFOVERLAP>  (1) 
790.997

>  <PUBCHEM_SHAPE_VOLUME>  (1) 
190.5

>  <PUBCHEM_COORDINATE_TYPE>  (1) 
2
5
10

$$$$
