17163
     RDKit          3D

 17 17  0  0  1  0  0  0  0  0999 V2000
   -8.6994   -0.0323   -0.4208 O   0  0  0  0  0  0  0  0  0  0  0  0
   -5.1734    0.0855    0.2975 O   0  0  0  0  0  0  0  0  0  0  0  0
   -7.5472    0.1877    0.4028 C   0  0  0  0  0  0  0  0  0  0  0  0
    2.3180    0.3346    0.2098 C   0  0  0  0  0  0  0  0  0  0  0  0
    1.0762   -0.5142   -0.0731 C   0  0  0  0  0  0  0  0  0  0  0  0
    3.6314   -0.3832   -0.1198 C   0  0  0  0  0  0  0  0  0  0  0  0
   -0.2368    0.2087    0.2449 C   0  0  0  0  0  0  0  0  0  0  0  0
    4.9164    0.3787    0.2237 C   0  0  0  0  0  0  0  0  0  0  0  0
   -1.4802   -0.6302   -0.0604 C   0  0  0  0  0  0  0  0  0  0  0  0
   -8.0564    1.2438   -0.5346 C   0  0  0  0  0  0  0  0  0  0  0  0
   -2.7629    0.1490    0.2487 C   0  0  0  0  0  0  0  0  0  0  0  0
    6.1916   -0.3640   -0.1832 C   0  0  0  0  0  0  0  0  0  0  0  0
   -6.3653   -0.6495    0.0528 C   0  0  0  0  0  0  0  0  0  0  0  0
   -4.0166   -0.6739   -0.0223 C   0  0  0  0  0  0  0  0  0  0  0  0
    7.4711    0.4367    0.0804 C   0  0  0  0  0  0  0  0  0  0  0  0
    8.7456   -0.2909   -0.3494 C   0  0  0  0  0  0  0  0  0  0  0  0
    9.9880    0.5134    0.0030 C   0  0  0  0  0  0  0  0  0  0  0  0
  1  3  1  0
  1 10  1  0
  2 13  1  0
  2 14  1  0
  3 10  1  0
  3 13  1  0
  4  5  1  0
  4  6  1  0
  5  7  1  0
  6  8  1  0
  7  9  1  0
  8 12  1  0
  9 11  1  0
 11 14  1  0
 12 15  1  0
 15 16  1  0
 16 17  1  0
M  END
>  <PUBCHEM_COMPOUND_CID>  (1) 
17163

>  <PUBCHEM_CONFORMER_RMSD>  (1) 
1.2

>  <PUBCHEM_CONFORMER_DIVERSEORDER>  (1) 
1
40
18
49
60
36
61
41
8
27
69
54
12
17
44
59
53
21
9
47
5
24
28
56
43
19
71
48
29
67
45
31
63
15
64
34
26
72
51
62
14
42
70
23
11
13
33
57
3
22
58
25
50
20
68
32
10
38
55
65
2
52
39
46
16
66
37
4
30
7
6
35

>  <PUBCHEM_MMFF94_PARTIAL_CHARGES>  (1) 
9
1 -0.3
10 -0.05
13 0.38
14 0.28
18 0.1
2 -0.56
3 -0.05
31 0.1
32 0.1

>  <PUBCHEM_EFFECTIVE_ROTOR_COUNT>  (1) 
13.6

>  <PUBCHEM_PHARMACOPHORE_FEATURES>  (1) 
3
1 1 acceptor
1 17 hydrophobe
1 2 acceptor

>  <PUBCHEM_HEAVY_ATOM_COUNT>  (1) 
17

>  <PUBCHEM_ATOM_DEF_STEREO_COUNT>  (1) 
0

>  <PUBCHEM_ATOM_UDEF_STEREO_COUNT>  (1) 
1

>  <PUBCHEM_BOND_DEF_STEREO_COUNT>  (1) 
0

>  <PUBCHEM_BOND_UDEF_STEREO_COUNT>  (1) 
0

>  <PUBCHEM_ISOTOPIC_ATOM_COUNT>  (1) 
0

>  <PUBCHEM_COMPONENT_COUNT>  (1) 
1

>  <PUBCHEM_CACTVS_TAUTO_COUNT>  (1) 
1

>  <PUBCHEM_CONFORMER_ID>  (1) 
0000430B00000001

>  <PUBCHEM_MMFF94_ENERGY>  (1) 
7.4965

>  <PUBCHEM_FEATURE_SELFOVERLAP>  (1) 
15.223

>  <PUBCHEM_SHAPE_FINGERPRINT>  (1) 
11315181 36 18060705005175942483
11638347 137 9007065660743722532
12091667 2 18333732425866609931
14123256 10 18410856555350097024
14251764 18 17060342902758435298
14251764 46 17988925574299190206
14428016 248 16660370277026152172
155225 1 18260265227509241365
16120349 18 14979949299266597842
18006028 8 16486973994785725233
18335252 98 11241963772727280032
20621476 8 18410854364911501332
21095086 128 12607407680891258236
21315763 28 11095885964490341746
21362267 313 17968649412068758120
232437 2 18201720665024223303
23521765 1 18342176669965574938
23581129 1 18409449189051210082
246663 6 8574712407653945258
28498 318 18272934908311433334
33684 2 18272933821521112042
4325135 7 18060138738916866180
59567204 34 18339079286457223049
59682541 35 7997965765511363014
67123 10 18410856572524697958
8209 1 18344146995034606122

>  <PUBCHEM_SHAPE_MULTIPOLES>  (1) 
338.11
35.6
0.87
0.67
13.33
0.07
-0.01
6.04
-3.03
-0.63
-0.05
-0.15
0.02
0.43

>  <PUBCHEM_SHAPE_SELFOVERLAP>  (1) 
617.505

>  <PUBCHEM_SHAPE_VOLUME>  (1) 
216.3

>  <PUBCHEM_COORDINATE_TYPE>  (1) 
2
5
10

$$$$
