17165
     RDKit          3D

  8  8  0  0  1  0  0  0  0  0999 V2000
    2.6545   -0.9992   -0.1639 Cl  0  0  0  0  0  0  0  0  0  0  0  0
    0.0573   -0.9813    0.1425 O   0  0  0  0  0  0  0  0  0  0  0  0
   -1.3412    0.8751   -0.0134 O   0  0  0  0  0  0  0  0  0  0  0  0
   -2.1737   -1.2249   -0.1488 O   0  0  0  0  0  0  0  0  0  0  0  0
    1.0513    1.1703   -0.3396 C   0  0  0  0  0  0  0  0  0  0  0  0
    1.1957   -0.1419    0.3895 C   0  0  0  0  0  0  0  0  0  0  0  0
   -0.2379    1.7861    0.1423 C   0  0  0  0  0  0  0  0  0  0  0  0
   -1.2061   -0.4842   -0.0086 C   0  0  0  0  0  0  0  0  0  0  0  0
  1  6  1  0
  2  6  1  0
  2  8  1  0
  3  7  1  0
  3  8  1  0
  4  8  2  0
  5  6  1  0
  5  7  1  0
M  END
>  <PUBCHEM_COMPOUND_CID>  (1) 
17165

>  <PUBCHEM_CONFORMER_RMSD>  (1) 
0.4

>  <PUBCHEM_CONFORMER_DIVERSEORDER>  (1) 
2
1

>  <PUBCHEM_MMFF94_PARTIAL_CHARGES>  (1) 
7
1 -0.29
2 -0.43
3 -0.43
4 -0.57
6 0.57
7 0.28
8 0.87

>  <PUBCHEM_EFFECTIVE_ROTOR_COUNT>  (1) 
1

>  <PUBCHEM_PHARMACOPHORE_FEATURES>  (1) 
1
6 2 3 5 6 7 8 rings

>  <PUBCHEM_HEAVY_ATOM_COUNT>  (1) 
8

>  <PUBCHEM_ATOM_DEF_STEREO_COUNT>  (1) 
0

>  <PUBCHEM_ATOM_UDEF_STEREO_COUNT>  (1) 
1

>  <PUBCHEM_BOND_DEF_STEREO_COUNT>  (1) 
0

>  <PUBCHEM_BOND_UDEF_STEREO_COUNT>  (1) 
0

>  <PUBCHEM_ISOTOPIC_ATOM_COUNT>  (1) 
0

>  <PUBCHEM_COMPONENT_COUNT>  (1) 
1

>  <PUBCHEM_CACTVS_TAUTO_COUNT>  (1) 
1

>  <PUBCHEM_CONFORMER_ID>  (1) 
0000430D00000002

>  <PUBCHEM_MMFF94_ENERGY>  (1) 
16.8444

>  <PUBCHEM_FEATURE_SELFOVERLAP>  (1) 
5.074

>  <PUBCHEM_SHAPE_FINGERPRINT>  (1) 
14128692 85 18410581707829716630
16714656 1 18121786028024521908
18185500 45 18334856069754994762
21040471 1 17762051043401029264
23552423 10 18260553307649469126
29004967 10 18265614475251104378

>  <PUBCHEM_SHAPE_MULTIPOLES>  (1) 
148.9
2.83
1.71
0.63
1.13
0.47
0
-1.33
-0.2
-0.37
-0.05
0.1
0.03
-0.08

>  <PUBCHEM_SHAPE_SELFOVERLAP>  (1) 
285.179

>  <PUBCHEM_SHAPE_VOLUME>  (1) 
90.5

>  <PUBCHEM_COORDINATE_TYPE>  (1) 
2
5
10

$$$$
