17172
     RDKit          3D

 18 20  0  0  0  0  0  0  0  0999 V2000
    0.1560   -1.0522    0.0863 O   0  0  0  0  0  0  0  0  0  0  0  0
    4.9408   -0.7584    0.1525 N   0  0  0  0  0  0  0  0  0  0  0  0
   -4.6112   -1.3908    0.0259 N   0  0  0  0  0  0  0  0  0  0  0  0
    1.1894    1.1413   -0.0035 C   0  0  0  0  0  0  0  0  0  0  0  0
   -1.2252    0.9922   -0.0358 C   0  0  0  0  0  0  0  0  0  0  0  0
    1.2739   -0.2515    0.0659 C   0  0  0  0  0  0  0  0  0  0  0  0
   -1.1043   -0.4624    0.0371 C   0  0  0  0  0  0  0  0  0  0  0  0
   -0.1274    1.7663   -0.0555 C   0  0  0  0  0  0  0  0  0  0  0  0
    2.5155   -0.8863    0.1180 C   0  0  0  0  0  0  0  0  0  0  0  0
    2.3627    1.9012   -0.0209 C   0  0  0  0  0  0  0  0  0  0  0  0
    3.6822   -0.1233    0.1004 C   0  0  0  0  0  0  0  0  0  0  0  0
   -2.5439    1.6026   -0.0867 C   0  0  0  0  0  0  0  0  0  0  0  0
   -2.2000   -1.2352    0.0567 C   0  0  0  0  0  0  0  0  0  0  0  0
    3.6061    1.2679    0.0308 C   0  0  0  0  0  0  0  0  0  0  0  0
   -3.5617   -0.6317    0.0052 C   0  0  0  0  0  0  0  0  0  0  0  0
   -3.6543    0.8546   -0.0685 C   0  0  0  0  0  0  0  0  0  0  0  0
    5.1736   -2.0653   -0.3792 C   0  0  0  0  0  0  0  0  0  0  0  0
   -5.8721   -0.6689   -0.0287 C   0  0  0  0  0  0  0  0  0  0  0  0
  1  6  1  0
  1  7  1  0
  2 11  1  0
  2 17  1  0
  3 15  2  0
  3 18  1  0
  4  6  2  0
  4  8  1  0
  4 10  1  0
  5  7  1  0
  5  8  2  0
  5 12  1  0
  6  9  1  0
  7 13  2  0
  9 11  2  0
 10 14  2  0
 11 14  1  0
 12 16  2  0
 13 15  1  0
 15 16  1  0
M  END
>  <PUBCHEM_COMPOUND_CID>  (1) 
17172

>  <PUBCHEM_CONFORMER_RMSD>  (1) 
0.6

>  <PUBCHEM_CONFORMER_DIVERSEORDER>  (1) 
1

>  <PUBCHEM_MMFF94_PARTIAL_CHARGES>  (1) 
25
1 -0.16
10 -0.15
11 0.1
12 -0.15
13 -0.14
14 -0.15
15 0.42
16 -0.14
17 0.37
18 0.25
19 0.15
2 -0.87
20 0.15
21 0.15
22 0.15
23 0.15
24 0.15
25 0.15
26 0.4
3 -0.7
4 0.03
6 0.08
7 0.08
8 -0.18
9 -0.15

>  <PUBCHEM_EFFECTIVE_ROTOR_COUNT>  (1) 
1

>  <PUBCHEM_PHARMACOPHORE_FEATURES>  (1) 
7
1 1 acceptor
1 2 cation
1 2 donor
1 3 acceptor
6 1 4 5 6 7 8 rings
6 4 6 9 10 11 14 rings
6 5 7 12 13 15 16 rings

>  <PUBCHEM_HEAVY_ATOM_COUNT>  (1) 
18

>  <PUBCHEM_ATOM_DEF_STEREO_COUNT>  (1) 
0

>  <PUBCHEM_ATOM_UDEF_STEREO_COUNT>  (1) 
0

>  <PUBCHEM_BOND_DEF_STEREO_COUNT>  (1) 
0

>  <PUBCHEM_BOND_UDEF_STEREO_COUNT>  (1) 
0

>  <PUBCHEM_ISOTOPIC_ATOM_COUNT>  (1) 
0

>  <PUBCHEM_COMPONENT_COUNT>  (1) 
1

>  <PUBCHEM_CACTVS_TAUTO_COUNT>  (1) 
1

>  <PUBCHEM_CONFORMER_ID>  (1) 
0000431400000001

>  <PUBCHEM_MMFF94_ENERGY>  (1) 
69.8176

>  <PUBCHEM_FEATURE_SELFOVERLAP>  (1) 
35.579

>  <PUBCHEM_SHAPE_FINGERPRINT>  (1) 
10366900 7 17168146719421895576
10967382 1 18337953509885061273
11471102 20 18337106864562286860
12032990 46 18410575080494913548
12236239 1 18060421343934218715
12403259 226 18411131437563356848
12507560 40 18343295981366562624
12715332 25 17988920089204330703
12916754 54 18411420604889382521
13288520 33 18411420579050701662
13533116 47 18272651281044320136
13675066 3 18131060524774722864
13690532 89 18410011035203324088
13862211 1 18409725153601236979
14115302 16 17604155925049457159
14341114 176 18335708268860814587
14866123 147 17479462240237228408
15196674 1 18410292510180346529
15442244 35 18411139112980690000
15536298 74 18412824711687782984
17802600 8 18410007749664333305
17804303 29 18411702067044377812
1813 80 17530964670694745716
18186145 218 17749382676462736140
18522853 276 18412825815457422353
19141452 34 18130506431112808175
200 152 18202280307921106065
20028762 73 18201714080787306599
20645477 70 18409729569354767702
21267235 1 18410018727532215595
21279426 13 18336259055625271869
21682296 61 18129389206760582030
221490 88 18263370333717470794
23402539 116 18272926138125254719
23463225 33 18408885152597988300
23559900 14 18336261331451412920
2871803 45 18187359939284708803
296302 2 8358258150642663025
29717793 49 18272649043619579693
3004659 81 18259706675602025790
3286 77 18413106173600445084
335352 9 18338798892767162357
350125 39 18410576184286022149
4214541 1 18410573951113810441
465052 167 18342182197288207591
5104073 3 18412262830769814568
542803 24 13551465960885694023
559249 180 18263638476752003003
59755656 215 18260827056054367575
69090 78 18342173414433235551
7364860 26 18268991050276308672
77779 3 18410293622576778760
8809292 202 18260552242186480058
9709674 26 18335986470756135986
9981440 41 17327175958306588288

>  <PUBCHEM_SHAPE_MULTIPOLES>  (1) 
354.6
10.9
2.01
0.61
2.13
0.23
0.01
-5.43
0.33
-0.96
0.1
-0.05
0
0.23

>  <PUBCHEM_SHAPE_SELFOVERLAP>  (1) 
778.442

>  <PUBCHEM_SHAPE_VOLUME>  (1) 
191.2

>  <PUBCHEM_COORDINATE_TYPE>  (1) 
2
5
10

$$$$
