17173
     RDKit          3D

  9  8  0  0  0  0  0  0  0  0999 V2000
   -0.8088    2.3142    1.2992 S   0  0  0  0  0  0  0  0  0  0  0  0
   -0.0439    1.0249   -0.1730 P   0  0  0  0  0  0  0  0  0  0  0  0
    1.1802    0.1594    0.4566 O   0  0  0  0  0  0  0  0  0  0  0  0
   -1.1345   -0.1177   -0.5581 O   0  0  0  0  0  0  0  0  0  0  0  0
    0.3810    1.8161   -1.3831 O   0  0  0  0  0  0  0  0  0  0  0  0
    1.8138   -0.8160   -0.3535 C   0  0  0  0  0  0  0  0  0  0  0  0
   -1.6572   -0.9683    0.4478 C   0  0  0  0  0  0  0  0  0  0  0  0
    2.9122   -1.4834    0.4464 C   0  0  0  0  0  0  0  0  0  0  0  0
   -2.6429   -1.9292   -0.1822 C   0  0  0  0  0  0  0  0  0  0  0  0
  1  2  1  0
  2  3  1  0
  2  4  1  0
  2  5  2  0
  3  6  1  0
  4  7  1  0
  6  8  1  0
  7  9  1  0
M  END
>  <PUBCHEM_COMPOUND_CID>  (1) 
17173

>  <PUBCHEM_CONFORMER_RMSD>  (1) 
0.6

>  <PUBCHEM_CONFORMER_DIVERSEORDER>  (1) 
1
12
4
9
8
2
11
14
5
10
15
6
16
17
7
18
3
13

>  <PUBCHEM_MMFF94_PARTIAL_CHARGES>  (1) 
8
1 -0.43
2 1.49
20 0.18
3 -0.55
4 -0.55
5 -0.7
6 0.28
7 0.28

>  <PUBCHEM_EFFECTIVE_ROTOR_COUNT>  (1) 
4

>  <PUBCHEM_PHARMACOPHORE_FEATURES>  (1) 
1
1 5 acceptor

>  <PUBCHEM_HEAVY_ATOM_COUNT>  (1) 
9

>  <PUBCHEM_ATOM_DEF_STEREO_COUNT>  (1) 
0

>  <PUBCHEM_ATOM_UDEF_STEREO_COUNT>  (1) 
0

>  <PUBCHEM_BOND_DEF_STEREO_COUNT>  (1) 
0

>  <PUBCHEM_BOND_UDEF_STEREO_COUNT>  (1) 
0

>  <PUBCHEM_ISOTOPIC_ATOM_COUNT>  (1) 
0

>  <PUBCHEM_COMPONENT_COUNT>  (1) 
1

>  <PUBCHEM_CACTVS_TAUTO_COUNT>  (1) 
2

>  <PUBCHEM_CONFORMER_ID>  (1) 
0000431500000001

>  <PUBCHEM_MMFF94_ENERGY>  (1) 
1.0363

>  <PUBCHEM_FEATURE_SELFOVERLAP>  (1) 
5.074

>  <PUBCHEM_SHAPE_FINGERPRINT>  (1) 
12932764 1 17623582243283009975
14128692 85 18262244424946568910
20653085 51 8574430971527216570
20711978 78 17980463878730016095
20711985 344 18043230371610860139
23552423 10 18117283768522140271
23552449 11 17984702483223100307

>  <PUBCHEM_SHAPE_MULTIPOLES>  (1) 
175.31
3.47
2.67
1.1
2.03
0.69
-0.13
-2.99
0.65
-1.73
0.4
-0.03
0.64
-0.56

>  <PUBCHEM_SHAPE_SELFOVERLAP>  (1) 
289.642

>  <PUBCHEM_SHAPE_VOLUME>  (1) 
122.1

>  <PUBCHEM_COORDINATE_TYPE>  (1) 
2
5
10

$$$$
