17174
     RDKit          3D

  8  8  0  0  0  0  0  0  0  0999 V2000
    1.9527   -1.2290    0.0004 O   0  0  0  0  0  0  0  0  0  0  0  0
    0.0550    0.0027   -0.0001 N   0  0  0  0  0  0  0  0  0  0  0  0
   -2.0911   -0.6481    0.0000 N   0  0  0  0  0  0  0  0  0  0  0  0
    1.4480   -0.1152   -0.0002 C   0  0  0  0  0  0  0  0  0  0  0  0
   -0.7137    1.1449    0.0001 C   0  0  0  0  0  0  0  0  0  0  0  0
   -0.8395   -1.0475   -0.0004 C   0  0  0  0  0  0  0  0  0  0  0  0
    2.2085    1.1757   -0.0001 C   0  0  0  0  0  0  0  0  0  0  0  0
   -2.0199    0.7165    0.0002 C   0  0  0  0  0  0  0  0  0  0  0  0
  1  4  2  0
  2  4  1  0
  2  5  1  0
  2  6  1  0
  3  6  2  0
  3  8  1  0
  4  7  1  0
  5  8  2  0
M  END
>  <PUBCHEM_COMPOUND_CID>  (1) 
17174

>  <PUBCHEM_CONFORMER_RMSD>  (1) 
0.4

>  <PUBCHEM_CONFORMER_DIVERSEORDER>  (1) 
1
3
2
4

>  <PUBCHEM_MMFF94_PARTIAL_CHARGES>  (1) 
11
1 -0.57
10 0.15
14 0.15
2 0.29
3 -0.57
4 0.52
5 -0.3
6 0.04
7 0.06
8 0.08
9 0.15

>  <PUBCHEM_EFFECTIVE_ROTOR_COUNT>  (1) 
1

>  <PUBCHEM_PHARMACOPHORE_FEATURES>  (1) 
2
1 1 acceptor
5 2 3 5 6 8 rings

>  <PUBCHEM_HEAVY_ATOM_COUNT>  (1) 
8

>  <PUBCHEM_ATOM_DEF_STEREO_COUNT>  (1) 
0

>  <PUBCHEM_ATOM_UDEF_STEREO_COUNT>  (1) 
0

>  <PUBCHEM_BOND_DEF_STEREO_COUNT>  (1) 
0

>  <PUBCHEM_BOND_UDEF_STEREO_COUNT>  (1) 
0

>  <PUBCHEM_ISOTOPIC_ATOM_COUNT>  (1) 
0

>  <PUBCHEM_COMPONENT_COUNT>  (1) 
1

>  <PUBCHEM_CACTVS_TAUTO_COUNT>  (1) 
1

>  <PUBCHEM_CONFORMER_ID>  (1) 
0000431600000001

>  <PUBCHEM_MMFF94_ENERGY>  (1) 
9.8785

>  <PUBCHEM_FEATURE_SELFOVERLAP>  (1) 
10.148

>  <PUBCHEM_SHAPE_FINGERPRINT>  (1) 
10857977 72 18193550301365509585
12897270 3 18339081604715312668
14390081 3 18271524298869373056
18185500 45 18338234997767571558
20096714 4 18337673014202962216
21040471 1 18410856563982314080
23552423 10 18333733502753524654
24536 1 18339346505344565168
29004967 10 18188496894405703441
369184 2 18335416872251174329
5084963 1 18200026235874490513

>  <PUBCHEM_SHAPE_MULTIPOLES>  (1) 
148.8
3.12
1.37
0.58
0.5
0
0
0.23
0
0.21
0
0
0.02
0

>  <PUBCHEM_SHAPE_SELFOVERLAP>  (1) 
305.395

>  <PUBCHEM_SHAPE_VOLUME>  (1) 
88.4

>  <PUBCHEM_COORDINATE_TYPE>  (1) 
2
5
10

$$$$
