1718
     RDKit          3D

 23 24  0  0  0  0  0  0  0  0999 V2000
   -0.2869    0.2226   -0.5601 O   0  0  0  0  0  0  0  0  0  0  0  0
   -0.2159    0.7959    1.6987 O   0  0  0  0  0  0  0  0  0  0  0  0
   -6.3833   -1.8958    0.3751 O   0  0  0  0  0  0  0  0  0  0  0  0
   -5.8226    0.3114   -0.2348 N   0  0  0  0  0  0  0  0  0  0  0  0
    5.9655    0.3635    0.0031 N   0  0  0  0  0  0  0  0  0  0  0  0
    7.8904   -0.8401   -0.5455 N   0  0  0  0  0  0  0  0  0  0  0  0
    5.9012   -1.9528   -0.6614 N   0  0  0  0  0  0  0  0  0  0  0  0
   -4.4299    0.2884   -0.3171 C   0  0  0  0  0  0  0  0  0  0  0  0
   -1.6816    0.2452   -0.4768 C   0  0  0  0  0  0  0  0  0  0  0  0
    1.8052    0.4864    0.4717 C   0  0  0  0  0  0  0  0  0  0  0  0
   -3.7348   -0.8921   -0.0556 C   0  0  0  0  0  0  0  0  0  0  0  0
   -3.7328    1.4472   -0.6595 C   0  0  0  0  0  0  0  0  0  0  0  0
   -2.3425   -0.9141   -0.1364 C   0  0  0  0  0  0  0  0  0  0  0  0
   -2.3405    1.4253   -0.7405 C   0  0  0  0  0  0  0  0  0  0  0  0
    2.6181    0.1310    1.5479 C   0  0  0  0  0  0  0  0  0  0  0  0
    2.3776    0.8007   -0.7609 C   0  0  0  0  0  0  0  0  0  0  0  0
    4.5762    0.4041    0.1591 C   0  0  0  0  0  0  0  0  0  0  0  0
    0.3608    0.5295    0.6347 C   0  0  0  0  0  0  0  0  0  0  0  0
    4.0035    0.0899    1.3918 C   0  0  0  0  0  0  0  0  0  0  0  0
    3.7632    0.7596   -0.9171 C   0  0  0  0  0  0  0  0  0  0  0  0
   -6.6874   -0.7415    0.0924 C   0  0  0  0  0  0  0  0  0  0  0  0
   -8.1312   -0.3064    0.0712 C   0  0  0  0  0  0  0  0  0  0  0  0
    6.5279   -0.7579   -0.3802 C   0  0  0  0  0  0  0  0  0  0  0  0
  1  9  1  0
  1 18  1  0
  2 18  2  0
  3 21  2  0
  4  8  1  0
  4 21  1  0
  5 17  1  0
  5 23  2  3
  6 23  1  0
  7 23  1  0
  8 11  2  0
  8 12  1  0
  9 13  2  0
  9 14  1  0
 10 15  2  0
 10 16  1  0
 10 18  1  0
 11 13  1  0
 12 14  2  0
 15 19  1  0
 16 20  2  0
 17 19  2  0
 17 20  1  0
 21 22  1  0
M  END
>  <PUBCHEM_COMPOUND_CID>  (1) 
1718

>  <PUBCHEM_CONFORMER_RMSD>  (1) 
0.8

>  <PUBCHEM_CONFORMER_DIVERSEORDER>  (1) 
1
59
55
19
58
42
62
38
2
49
57
8
31
39
63
36
41
29
12
60
45
64
61
32
35
7
56
34
53
4
50
11
52
23
27
44
37
22
10
6
25
30
3
24
16
21
54
13
26
48
9
47
5
40
46
28
43
33
15
18
17
51
20
14

>  <PUBCHEM_MMFF94_PARTIAL_CHARGES>  (1) 
36
1 -0.23
10 0.09
11 -0.15
12 -0.15
13 -0.15
14 -0.15
15 -0.15
16 -0.15
17 0.18
18 0.63
19 -0.15
2 -0.57
20 -0.15
21 0.57
22 0.06
23 0.55
24 0.15
25 0.15
26 0.15
27 0.15
28 0.15
29 0.15
3 -0.57
30 0.15
31 0.15
32 0.37
36 0.4
37 0.4
38 0.4
39 0.4
4 -0.55
5 -0.63
6 -0.85
7 -0.85
8 0.12
9 0.08

>  <PUBCHEM_EFFECTIVE_ROTOR_COUNT>  (1) 
6

>  <PUBCHEM_PHARMACOPHORE_FEATURES>  (1) 
8
1 2 acceptor
1 3 acceptor
1 4 donor
1 6 donor
1 7 donor
4 5 6 7 23 cation
6 10 15 16 17 19 20 rings
6 8 9 11 12 13 14 rings

>  <PUBCHEM_HEAVY_ATOM_COUNT>  (1) 
23

>  <PUBCHEM_ATOM_DEF_STEREO_COUNT>  (1) 
0

>  <PUBCHEM_ATOM_UDEF_STEREO_COUNT>  (1) 
0

>  <PUBCHEM_BOND_DEF_STEREO_COUNT>  (1) 
0

>  <PUBCHEM_BOND_UDEF_STEREO_COUNT>  (1) 
0

>  <PUBCHEM_ISOTOPIC_ATOM_COUNT>  (1) 
0

>  <PUBCHEM_COMPONENT_COUNT>  (1) 
1

>  <PUBCHEM_CACTVS_TAUTO_COUNT>  (1) 
6

>  <PUBCHEM_CONFORMER_ID>  (1) 
000006B600000001

>  <PUBCHEM_MMFF94_ENERGY>  (1) 
83.2864

>  <PUBCHEM_FEATURE_SELFOVERLAP>  (1) 
40.65

>  <PUBCHEM_SHAPE_FINGERPRINT>  (1) 
10 15 13254792447892749114
10299344 5 17967532367967624651
10693767 8 17604703349704108130
10968037 39 16805320003375977169
11089746 13 11671776079154390985
11524674 6 17346880078886706287
11796584 16 18202563952452751278
11963148 33 18261666069431897067
12166972 35 18412827997206408880
12236239 1 17458057162653096477
125118 31 10303814297900772274
12616971 3 15123500436886088424
13288520 33 18334011705708876461
13533116 47 16515671226400307633
13668630 136 18333170565616453022
13685833 64 17918275350791819430
13885169 127 18342177735392095777
14123256 10 16370724833261256666
14251764 18 14620792717049976329
14251764 46 18342457045114120698
14617045 38 18409729551711194619
14729087 3 10303817575192433811
15183329 4 17821729416827100898
15352257 5 18343585148376824311
15461852 350 10737296735544346137
15475509 35 17917419871328764954
1577012 14 17095796625453307933
18681886 176 18187079581464004512
20157964 124 11963384133715512912
2026 5 18267583499653134982
20281389 69 14836122174267424451
20554085 129 8862662357007144020
21095086 128 18334575741819720083
21150785 3 16732704952073001022
21267235 1 18114184146696516789
21403212 168 15482675663434058229
21623969 137 17775571926919294766
21641784 216 14635153340338095686
21792961 116 17988923310450862365
221357 26 17167859760183554092
22224240 67 13039183702332654628
2297311 6 18408321073258163205
23035841 295 18334011692048449571
23536379 177 18409729535121701324
23559900 14 18338510962407243280
23569943 247 17534616015756768826
246663 6 18412266138258440023
28498 318 18131070411646987567
29717793 49 18187087265133798804
3004659 81 17967812764633425668
33532 11 18272087184229765878
34797466 226 18335702771672304684
3545911 37 16732982037419061793
4325135 7 15213019353678267275
5104073 3 14548194077750747134
5486654 2 15357698591197956561
59755656 215 18408322168179645378
59755656 520 17060049372462484271
636775 72 9151181952405329207
636775 8 17749117720532191763

>  <PUBCHEM_SHAPE_MULTIPOLES>  (1) 
435.8
21.23
1.33
1.1
4.36
0.22
0.39
8.42
-3.08
0.54
-0.27
-1.11
-0.07
0.75

>  <PUBCHEM_SHAPE_SELFOVERLAP>  (1) 
932.07

>  <PUBCHEM_SHAPE_VOLUME>  (1) 
236.8

>  <PUBCHEM_COORDINATE_TYPE>  (1) 
2
5
10

$$$$
