17185
     RDKit          3D

 10  9  0  0  0  0  0  0  0  0999 V2000
   -4.8297    1.3770    0.3673 Cl  0  0  0  0  0  0  0  0  0  0  0  0
    0.5346    0.1548   -0.2461 C   0  0  0  0  0  0  0  0  0  0  0  0
   -0.7091   -0.6448    0.1529 C   0  0  0  0  0  0  0  0  0  0  0  0
    1.8427   -0.4670    0.2480 C   0  0  0  0  0  0  0  0  0  0  0  0
   -2.0198   -0.0095   -0.3193 C   0  0  0  0  0  0  0  0  0  0  0  0
    3.0492    0.3779   -0.1678 C   0  0  0  0  0  0  0  0  0  0  0  0
   -3.2274   -0.8386    0.1309 C   0  0  0  0  0  0  0  0  0  0  0  0
    4.3598   -0.2607    0.2913 C   0  0  0  0  0  0  0  0  0  0  0  0
   -4.5633   -0.2469   -0.3080 C   0  0  0  0  0  0  0  0  0  0  0  0
    5.5629    0.5579   -0.1491 C   0  0  0  0  0  0  0  0  0  0  0  0
  1  9  1  0
  2  3  1  0
  2  4  1  0
  3  5  1  0
  4  6  1  0
  5  7  1  0
  6  8  1  0
  7  9  1  0
  8 10  1  0
M  END
>  <PUBCHEM_COMPOUND_CID>  (1) 
17185

>  <PUBCHEM_CONFORMER_RMSD>  (1) 
0.6

>  <PUBCHEM_CONFORMER_DIVERSEORDER>  (1) 
1
301
139
358
387
392
265
103
361
2
54
275
306
311
39
178
109
8
170
270
252
264
296
394
30
368
101
256
146
279
315
59
294
179
220
137
171
241
111
56
359
45
271
318
210
240
23
112
15
120
89
389
52
254
173
385
84
242
141
9
217
259
234
273
298
266
90
341
307
257
313
145
91
164
201
194
251
128
10
142
198
269
344
189
93
7
24
136
47
380
352
357
57
99
248
235
182
65
384
351
13
200
328
85
214
64
245
381
272
34
299
364
133
12
114
117
244
196
326
181
32
335
382
28
349
36
334
125
329
58
180
238
31
150
369
147
148
339
373
29
108
305
49
26
51
345
162
41
249
124
87
232
375
377
113
119
233
72
43
38
67
367
229
187
228
207
289
40
35
88
250
123
102
116
317
46
246
20
247
213
37
191
130
98
206
309
333
261
159
27
61
258
118
371
4
177
205
343
68
96
293
253
278
188
390
78
76
135
110
283
184
383
209
193
100
284
33
355
71
160
323
94
379
121
223
158
42
386
332
226
197
388
154
50
105
208
331
274
77
115
176
327
337
163
152
80
330
151
295
166
239
286
155
236
302
104
321
22
346
292
370
322
6
55
347
95
219
202
308
74
340
168
21
167
44
153
3
230
82
288
237
70
156
216
268
362
183
276
107
393
300
25
312
83
280
140
204
353
354
169
126
185
342
291
53
149
319
218
391
157
175
131
60
303
350
97
255
376
297
378
360
320
144
11
134
221
227
215
372
316
225
374
75
348
203
365
222
224
262
48
285
81
267
195
366
18
282
277
172
356
66
290
281
243
324
73
79
106
310
161
86
186
5
314
336
62
138
165
174
127
190
63
129
287
14
122
263
211
92
69
199
132
325
19
212
16
260
231
192
143
304
338
17
363

>  <PUBCHEM_MMFF94_PARTIAL_CHARGES>  (1) 
2
1 -0.29
9 0.29

>  <PUBCHEM_EFFECTIVE_ROTOR_COUNT>  (1) 
7

>  <PUBCHEM_PHARMACOPHORE_FEATURES>  (1) 
1
1 10 hydrophobe

>  <PUBCHEM_HEAVY_ATOM_COUNT>  (1) 
10

>  <PUBCHEM_ATOM_DEF_STEREO_COUNT>  (1) 
0

>  <PUBCHEM_ATOM_UDEF_STEREO_COUNT>  (1) 
0

>  <PUBCHEM_BOND_DEF_STEREO_COUNT>  (1) 
0

>  <PUBCHEM_BOND_UDEF_STEREO_COUNT>  (1) 
0

>  <PUBCHEM_ISOTOPIC_ATOM_COUNT>  (1) 
0

>  <PUBCHEM_COMPONENT_COUNT>  (1) 
1

>  <PUBCHEM_CACTVS_TAUTO_COUNT>  (1) 
1

>  <PUBCHEM_CONFORMER_ID>  (1) 
0000432100000001

>  <PUBCHEM_MMFF94_ENERGY>  (1) 
-3.1298

>  <PUBCHEM_FEATURE_SELFOVERLAP>  (1) 
5.074

>  <PUBCHEM_SHAPE_FINGERPRINT>  (1) 
11062470 55 18412544318578522743
114248 4 8862941680130924286
14123238 8 18186237342265765022
1420 363 13190341253462041584
14252887 29 15285636556379973010
15242439 84 16845572028166575706
15501527 16 18341897360000827049
17834072 33 17988639752525451756
17834076 25 18410292514469720771
18342897 14 18409448085339729496
187816 3 15410897370428558767
20621476 66 18129953273911883153
20645477 56 18202566160102474577
20645477 70 16629974222094107854
20719005 15 18113053848479256462
20724930 69 18411140212745161691
20767249 13 12031789162757422566
20767249 213 18411982447426887729
20828058 44 17603307080661274803
22485316 2 18131631188188954870
23402539 116 18131063840072711685
23402655 69 18202281390057685918
366044 4 18187081771317245930
42788 4 18411981373231142686
49783359 22 11746938698224217105
57483677 66 9079122150336784400
7062679 6 18339369573815008661

>  <PUBCHEM_SHAPE_MULTIPOLES>  (1) 
207.67
12.93
1.02
0.68
4.44
0.2
0
3.36
0.24
-0.96
0.08
-0.07
0.01
-0.36

>  <PUBCHEM_SHAPE_SELFOVERLAP>  (1) 
355.293

>  <PUBCHEM_SHAPE_VOLUME>  (1) 
138.6

>  <PUBCHEM_COORDINATE_TYPE>  (1) 
2
5
10

$$$$
