17189
     RDKit          3D

 20 22  0  0  0  0  0  0  0  0999 V2000
   -0.6592   -2.6713    0.0405 O   0  0  0  0  0  0  0  0  0  0  0  0
   -0.6584    2.6715    0.0370 O   0  0  0  0  0  0  0  0  0  0  0  0
    1.9458   -2.8082    0.1203 N   0  0  0  0  0  0  0  0  0  0  0  0
    1.9464    2.8078    0.1207 N   0  0  0  0  0  0  0  0  0  0  0  0
    0.6533   -0.6983    0.0805 C   0  0  0  0  0  0  0  0  0  0  0  0
    0.6534    0.6981    0.0801 C   0  0  0  0  0  0  0  0  0  0  0  0
   -1.8916   -0.6980    0.0017 C   0  0  0  0  0  0  0  0  0  0  0  0
   -1.8914    0.6985    0.0010 C   0  0  0  0  0  0  0  0  0  0  0  0
    1.8661   -1.3967    0.1181 C   0  0  0  0  0  0  0  0  0  0  0  0
    1.8664    1.3962    0.1179 C   0  0  0  0  0  0  0  0  0  0  0  0
   -0.6193   -1.4474    0.0416 C   0  0  0  0  0  0  0  0  0  0  0  0
   -0.6189    1.4476    0.0401 C   0  0  0  0  0  0  0  0  0  0  0  0
    3.0726   -0.6971    0.1554 C   0  0  0  0  0  0  0  0  0  0  0  0
    3.0728    0.6963    0.1555 C   0  0  0  0  0  0  0  0  0  0  0  0
   -3.1046   -1.3961   -0.0354 C   0  0  0  0  0  0  0  0  0  0  0  0
   -3.1043    1.3969   -0.0367 C   0  0  0  0  0  0  0  0  0  0  0  0
   -4.3109   -0.6962   -0.0729 C   0  0  0  0  0  0  0  0  0  0  0  0
   -4.3108    0.6973   -0.0734 C   0  0  0  0  0  0  0  0  0  0  0  0
    3.0450   -3.5217   -0.4480 C   0  0  0  0  0  0  0  0  0  0  0  0
    3.0476    3.5209   -0.4441 C   0  0  0  0  0  0  0  0  0  0  0  0
  1 11  2  0
  2 12  2  0
  3  9  1  0
  3 19  1  0
  4 10  1  0
  4 20  1  0
  5  6  1  0
  5  9  2  0
  5 11  1  0
  6 10  2  0
  6 12  1  0
  7  8  2  0
  7 11  1  0
  7 15  1  0
  8 12  1  0
  8 16  1  0
  9 13  1  0
 10 14  1  0
 13 14  2  0
 15 17  2  0
 16 18  2  0
 17 18  1  0
M  END
>  <PUBCHEM_COMPOUND_CID>  (1) 
17189

>  <PUBCHEM_CONFORMER_RMSD>  (1) 
0.6

>  <PUBCHEM_CONFORMER_DIVERSEORDER>  (1) 
1

>  <PUBCHEM_MMFF94_PARTIAL_CHARGES>  (1) 
28
1 -0.57
10 0.1
11 0.4
12 0.4
13 -0.15
14 -0.15
15 -0.15
16 -0.15
17 -0.15
18 -0.15
19 0.37
2 -0.57
20 0.37
21 0.15
22 0.15
23 0.15
24 0.15
25 0.4
26 0.4
27 0.15
28 0.15
3 -0.87
4 -0.87
5 0.09
6 0.09
7 0.09
8 0.09
9 0.1

>  <PUBCHEM_EFFECTIVE_ROTOR_COUNT>  (1) 
2

>  <PUBCHEM_PHARMACOPHORE_FEATURES>  (1) 
9
1 1 acceptor
1 2 acceptor
1 3 cation
1 3 donor
1 4 cation
1 4 donor
6 5 6 7 8 11 12 rings
6 5 6 9 10 13 14 rings
6 7 8 15 16 17 18 rings

>  <PUBCHEM_HEAVY_ATOM_COUNT>  (1) 
20

>  <PUBCHEM_ATOM_DEF_STEREO_COUNT>  (1) 
0

>  <PUBCHEM_ATOM_UDEF_STEREO_COUNT>  (1) 
0

>  <PUBCHEM_BOND_DEF_STEREO_COUNT>  (1) 
0

>  <PUBCHEM_BOND_UDEF_STEREO_COUNT>  (1) 
0

>  <PUBCHEM_ISOTOPIC_ATOM_COUNT>  (1) 
0

>  <PUBCHEM_COMPONENT_COUNT>  (1) 
1

>  <PUBCHEM_CACTVS_TAUTO_COUNT>  (1) 
6

>  <PUBCHEM_CONFORMER_ID>  (1) 
0000432500000001

>  <PUBCHEM_MMFF94_ENERGY>  (1) 
89.6969

>  <PUBCHEM_FEATURE_SELFOVERLAP>  (1) 
45.711

>  <PUBCHEM_SHAPE_FINGERPRINT>  (1) 
10411042 1 18122344566809913434
10608611 8 18408036325632274557
10616163 171 18120937475430397459
10967382 1 18410854373512004955
11471102 20 18410287016980140791
11578080 2 17096912582542015948
11680986 33 18410015407512011450
12173636 292 17978507868808308972
12403259 226 18263077713253206229
12553582 1 17905043655853897091
13140716 1 18266169724728993346
138480 1 18338517426559324692
14223421 5 18335987566278667107
14790565 3 17471870563535526097
14866123 147 16973085389463822619
15042514 8 17183907411653223178
15196674 1 18337952410921962233
15442244 35 18268711597801361427
15536298 74 18342736269565190363
16945 1 18410576188743961152
17492 89 18412260640896337543
19591789 44 18122911090402127348
20645477 70 18335975441781000423
21267235 1 18411144644909123187
21501502 16 18267297814742160853
221490 88 18408892819183306971
22182313 1 18121481484894554540
2255824 54 18409449223859542748
2334 1 17978227493559094304
23366157 5 18186521007823463658
23463225 33 18410854339468745177
23559900 14 18412257320627200008
2748010 2 18337946784140180215
3071541 12 18410859849590026050
3091708 16 9432170940284862594
335352 9 18338515235772647693
350125 39 18409168800802069277
394222 165 17825377738073911272
4409770 3 17036408476310849604
458136 41 18266193883598675993
5104073 3 18336828688690218137
7364860 26 18412262835370443682
84936 182 18201437046743028249
9709674 26 18409168809676827555
9981440 41 18121774199589656976

>  <PUBCHEM_SHAPE_MULTIPOLES>  (1) 
389.89
6.72
3.92
0.63
4.51
0
-0.01
0
-0.36
-4.43
-0.44
-0.06
0
0

>  <PUBCHEM_SHAPE_SELFOVERLAP>  (1) 
868.771

>  <PUBCHEM_SHAPE_VOLUME>  (1) 
207.2

>  <PUBCHEM_COORDINATE_TYPE>  (1) 
2
5
10

$$$$
