17180
     RDKit          3D

 13 14  0  0  1  0  0  0  0  0999 V2000
    0.5023   -1.0331    0.1856 O   0  0  0  0  0  0  0  0  0  0  0  0
   -0.1261    1.7639   -0.1073 O   0  0  0  0  0  0  0  0  0  0  0  0
    3.8247    0.4807    0.6317 N   0  0  0  0  0  0  0  0  0  0  0  0
    1.4348    0.0112    0.4969 C   0  0  0  0  0  0  0  0  0  0  0  0
    2.8365   -0.5383    0.2758 C   0  0  0  0  0  0  0  0  0  0  0  0
    1.1672    1.2201   -0.3898 C   0  0  0  0  0  0  0  0  0  0  0  0
    3.0342   -0.9794   -1.1731 C   0  0  0  0  0  0  0  0  0  0  0  0
   -0.7824   -0.5664    0.0923 C   0  0  0  0  0  0  0  0  0  0  0  0
   -1.0872    0.7901   -0.0388 C   0  0  0  0  0  0  0  0  0  0  0  0
   -1.8066   -1.5133    0.1222 C   0  0  0  0  0  0  0  0  0  0  0  0
   -2.4181    1.2048   -0.0955 C   0  0  0  0  0  0  0  0  0  0  0  0
   -3.1368   -1.0989    0.0516 C   0  0  0  0  0  0  0  0  0  0  0  0
   -3.4423    0.2586   -0.0517 C   0  0  0  0  0  0  0  0  0  0  0  0
  1  4  1  0
  1  8  1  0
  2  6  1  0
  2  9  1  0
  3  5  1  0
  4  5  1  0
  4  6  1  0
  5  7  1  0
  8  9  2  0
  8 10  1  0
  9 11  1  0
 10 12  2  0
 11 13  2  0
 12 13  1  0
M  END
>  <PUBCHEM_COMPOUND_CID>  (1) 
17180

>  <PUBCHEM_CONFORMER_RMSD>  (1) 
0.6

>  <PUBCHEM_CONFORMER_DIVERSEORDER>  (1) 
2
8
4
1
9
6
3
5
7

>  <PUBCHEM_MMFF94_PARTIAL_CHARGES>  (1) 
18
1 -0.36
10 -0.15
11 -0.15
12 -0.15
13 -0.15
2 -0.36
21 0.36
22 0.36
23 0.15
24 0.15
25 0.15
26 0.15
3 -0.99
4 0.28
5 0.27
6 0.28
8 0.08
9 0.08

>  <PUBCHEM_EFFECTIVE_ROTOR_COUNT>  (1) 
1.8

>  <PUBCHEM_PHARMACOPHORE_FEATURES>  (1) 
6
1 1 acceptor
1 2 acceptor
1 3 cation
1 3 donor
6 1 2 4 6 8 9 rings
6 8 9 10 11 12 13 rings

>  <PUBCHEM_HEAVY_ATOM_COUNT>  (1) 
13

>  <PUBCHEM_ATOM_DEF_STEREO_COUNT>  (1) 
0

>  <PUBCHEM_ATOM_UDEF_STEREO_COUNT>  (1) 
2

>  <PUBCHEM_BOND_DEF_STEREO_COUNT>  (1) 
0

>  <PUBCHEM_BOND_UDEF_STEREO_COUNT>  (1) 
0

>  <PUBCHEM_ISOTOPIC_ATOM_COUNT>  (1) 
0

>  <PUBCHEM_COMPONENT_COUNT>  (1) 
1

>  <PUBCHEM_CACTVS_TAUTO_COUNT>  (1) 
1

>  <PUBCHEM_CONFORMER_ID>  (1) 
0000431C00000002

>  <PUBCHEM_MMFF94_ENERGY>  (1) 
33.8514

>  <PUBCHEM_FEATURE_SELFOVERLAP>  (1) 
30.488

>  <PUBCHEM_SHAPE_FINGERPRINT>  (1) 
10465860 71 18264228974978829430
10608611 8 18342170059826595520
11132069 177 18409445877694812905
11206711 2 18260260828987548101
11543360 7 15068910818659772747
12032990 46 18410581686260155331
12932764 1 17603299336777074677
13296908 3 18342741805941422366
14128692 85 18335987553166931381
14144814 61 18334854996018588579
14325111 11 18411698764145780040
14911166 2 18335696122883147341
14993402 34 18333731295314193629
15219456 202 18131633365963960822
15536298 74 18340208604387256852
16945 1 18334293132876411777
18175812 5 18131350791375382806
19026448 5 15502378911165402899
193761 8 17688029025679134259
20201158 50 18413388730629105567
20279233 1 18201719544127312838
20510252 161 18272651203872487833
20645476 183 17458641020148910790
20871998 184 18272651268370622743
21501502 16 18264211498641058277
21501925 9 18337383958587810225
22802520 49 18056488257202046166
23402539 116 18338503210407706470
23402655 69 18122042245116749733
23463225 33 18334575732865483170
23552423 10 18042688475761171117
23559900 14 18341049610966286126
2748010 2 18264203784943007213
369184 2 16056878026858349667
528886 8 18409441475527394979
57812782 119 18202842153888532207
6333449 129 18412538799708921795
69090 78 18131061645698013679
7364860 26 18197499747227984824
77492 1 17313106328264680518

>  <PUBCHEM_SHAPE_MULTIPOLES>  (1) 
250.81
5.88
1.57
0.78
1.63
0.14
-0.1
-0.81
-0.04
-0.47
-0.11
0.48
-0.08
0.34

>  <PUBCHEM_SHAPE_SELFOVERLAP>  (1) 
532.106

>  <PUBCHEM_SHAPE_VOLUME>  (1) 
139.9

>  <PUBCHEM_COORDINATE_TYPE>  (1) 
2
5
10

$$$$
