17182
     RDKit          3D

 30 33  0  0  1  0  0  0  0  0999 V2000
    1.4606    0.7252    2.2545 S   0  0  0  0  0  0  0  0  0  0  0  0
   -5.3855   -0.1291    0.7473 O   0  0  0  0  0  0  0  0  0  0  0  0
   -6.8280   -0.7505   -1.5684 O   0  0  0  0  0  0  0  0  0  0  0  0
   -0.2769   -0.3786   -1.3023 N   0  0  0  0  0  0  0  0  0  0  0  0
   -2.5712   -0.2129    0.4489 N   0  0  0  0  0  0  0  0  0  0  0  0
    2.6768    0.0914   -0.5355 N   0  0  0  0  0  0  0  0  0  0  0  0
    0.3679   -0.6774   -2.5796 C   0  0  0  0  0  0  0  0  0  0  0  0
    1.7643   -1.3002   -2.3905 C   0  0  0  0  0  0  0  0  0  0  0  0
   -1.2813    0.6803   -1.4604 C   0  0  0  0  0  0  0  0  0  0  0  0
   -0.8897   -1.5848   -0.7329 C   0  0  0  0  0  0  0  0  0  0  0  0
   -1.9596    0.9932   -0.1222 C   0  0  0  0  0  0  0  0  0  0  0  0
   -1.5668   -1.2721    0.6060 C   0  0  0  0  0  0  0  0  0  0  0  0
    2.8382   -0.2924   -1.9439 C   0  0  0  0  0  0  0  0  0  0  0  0
   -3.2141    0.0865    1.7269 C   0  0  0  0  0  0  0  0  0  0  0  0
    2.1872   -2.0279   -3.6718 C   0  0  0  0  0  0  0  0  0  0  0  0
   -4.5647    0.7488    1.5063 C   0  0  0  0  0  0  0  0  0  0  0  0
    2.8073   -0.9305    0.4387 C   0  0  0  0  0  0  0  0  0  0  0  0
    2.4689    1.4653   -0.2530 C   0  0  0  0  0  0  0  0  0  0  0  0
    2.3172   -0.7527    1.7477 C   0  0  0  0  0  0  0  0  0  0  0  0
    1.9449    1.8803    0.9874 C   0  0  0  0  0  0  0  0  0  0  0  0
    3.4602   -2.1510    0.1593 C   0  0  0  0  0  0  0  0  0  0  0  0
    2.8067    2.4782   -1.1770 C   0  0  0  0  0  0  0  0  0  0  0  0
    2.4561   -1.7665    2.7122 C   0  0  0  0  0  0  0  0  0  0  0  0
    1.7475    3.2447    1.2651 C   0  0  0  0  0  0  0  0  0  0  0  0
    3.5999   -3.1535    1.1232 C   0  0  0  0  0  0  0  0  0  0  0  0
    2.6132    3.8330   -0.8938 C   0  0  0  0  0  0  0  0  0  0  0  0
   -6.6676    0.4342    0.5057 C   0  0  0  0  0  0  0  0  0  0  0  0
    3.0944   -2.9621    2.4001 C   0  0  0  0  0  0  0  0  0  0  0  0
    2.0799    4.2165    0.3274 C   0  0  0  0  0  0  0  0  0  0  0  0
   -7.4855   -0.5354   -0.3255 C   0  0  0  0  0  0  0  0  0  0  0  0
  1 19  1  0
  1 20  1  0
  2 16  1  0
  2 27  1  0
  3 30  1  0
  4  7  1  0
  4  9  1  0
  4 10  1  0
  5 11  1  0
  5 12  1  0
  5 14  1  0
  6 13  1  0
  6 17  1  0
  6 18  1  0
  7  8  1  0
  8 13  1  0
  8 15  1  0
  9 11  1  0
 10 12  1  0
 14 16  1  0
 17 19  2  0
 17 21  1  0
 18 20  2  0
 18 22  1  0
 19 23  1  0
 20 24  1  0
 21 25  2  0
 22 26  2  0
 23 28  2  0
 24 29  2  0
 25 28  1  0
 26 29  1  0
 27 30  1  0
M  END
>  <PUBCHEM_COMPOUND_CID>  (1) 
17182

>  <PUBCHEM_CONFORMER_RMSD>  (1) 
1.2

>  <PUBCHEM_CONFORMER_DIVERSEORDER>  (1) 
2
56
27
8
25
22
49
48
13
32
28
24
55
26
11
45
52
38
37
23
5
41
30
42
40
17
43
47
15
20
6
19
50
14
34
16
54
4
39
18
31
51
44
53
33
36
29
46
3
12
7
21
35
9
1
10

>  <PUBCHEM_MMFF94_PARTIAL_CHARGES>  (1) 
37
1 -0.2
10 0.27
11 0.27
12 0.27
13 0.37
14 0.27
16 0.28
17 0.1
18 0.1
19 0.1
2 -0.56
20 0.1
21 -0.15
22 -0.15
23 -0.15
24 -0.15
25 -0.15
26 -0.15
27 0.28
28 -0.15
29 -0.15
3 -0.68
30 0.28
4 -0.81
5 -0.81
51 0.15
52 0.15
53 0.15
54 0.15
55 0.15
56 0.15
59 0.15
6 -0.57
60 0.15
63 0.4
7 0.27
9 0.27

>  <PUBCHEM_EFFECTIVE_ROTOR_COUNT>  (1) 
10.6

>  <PUBCHEM_PHARMACOPHORE_FEATURES>  (1) 
11
1 15 hydrophobe
1 2 acceptor
1 3 acceptor
1 3 donor
1 4 cation
1 5 cation
1 6 cation
6 1 6 17 18 19 20 rings
6 17 19 21 23 25 28 rings
6 18 20 22 24 26 29 rings
6 4 5 9 10 11 12 rings

>  <PUBCHEM_HEAVY_ATOM_COUNT>  (1) 
30

>  <PUBCHEM_ATOM_DEF_STEREO_COUNT>  (1) 
0

>  <PUBCHEM_ATOM_UDEF_STEREO_COUNT>  (1) 
1

>  <PUBCHEM_BOND_DEF_STEREO_COUNT>  (1) 
0

>  <PUBCHEM_BOND_UDEF_STEREO_COUNT>  (1) 
0

>  <PUBCHEM_ISOTOPIC_ATOM_COUNT>  (1) 
0

>  <PUBCHEM_COMPONENT_COUNT>  (1) 
1

>  <PUBCHEM_CACTVS_TAUTO_COUNT>  (1) 
1

>  <PUBCHEM_CONFORMER_ID>  (1) 
0000431E00000002

>  <PUBCHEM_MMFF94_ENERGY>  (1) 
88.4951

>  <PUBCHEM_FEATURE_SELFOVERLAP>  (1) 
55.857

>  <PUBCHEM_SHAPE_FINGERPRINT>  (1) 
10165383 225 17749680691917887636
11399939 17 18200300130303600223
12156800 1 17331138100275700946
13135754 10 17399788307906310698
13533116 47 17967816033646694635
13583140 156 18189067519972247611
15840311 113 17988920107307314216
17349148 13 17988925566110078465
23559900 14 17703805703763427151
3044373 193 18335976554700107181
3052486 1 17619093641196036624
484985 159 16309347599314100986
57527306 92 18343868814672488000
6786 2 17754753941790066368
8988823 20 18333448751244060559

>  <PUBCHEM_SHAPE_MULTIPOLES>  (1) 
594.55
11.29
3.96
3.05
35.52
3.51
1.3
-2.76
-0.88
-6.84
-0.76
-2.52
-2.03
-1.42

>  <PUBCHEM_SHAPE_SELFOVERLAP>  (1) 
1231.531

>  <PUBCHEM_SHAPE_VOLUME>  (1) 
340

>  <PUBCHEM_COORDINATE_TYPE>  (1) 
2
5
10

$$$$
