17194
     RDKit          3D

 34 37  0  0  0  0  0  0  0  0999 V2000
    6.2004   -1.4339    2.5247 F   0  0  0  0  0  0  0  0  0  0  0  0
    6.4513    0.5281    1.6348 F   0  0  0  0  0  0  0  0  0  0  0  0
    4.4547   -0.2804    1.9325 F   0  0  0  0  0  0  0  0  0  0  0  0
   -6.2002   -1.4341   -2.5247 F   0  0  0  0  0  0  0  0  0  0  0  0
   -6.4512    0.5278   -1.6351 F   0  0  0  0  0  0  0  0  0  0  0  0
   -4.4545   -0.2807   -1.9325 F   0  0  0  0  0  0  0  0  0  0  0  0
    3.3125    0.8630   -0.5625 N   0  0  0  0  0  0  0  0  0  0  0  0
   -3.3125    0.8631    0.5624 N   0  0  0  0  0  0  0  0  0  0  0  0
    1.2964    2.2214   -0.2110 C   0  0  0  0  0  0  0  0  0  0  0  0
   -1.2964    2.2213    0.2109 C   0  0  0  0  0  0  0  0  0  0  0  0
    0.9584    1.5001    1.1120 C   0  0  0  0  0  0  0  0  0  0  0  0
    0.7574    3.6659   -0.1242 C   0  0  0  0  0  0  0  0  0  0  0  0
    0.5568    1.4984   -1.3576 C   0  0  0  0  0  0  0  0  0  0  0  0
   -0.5567    1.4987    1.3576 C   0  0  0  0  0  0  0  0  0  0  0  0
   -0.7574    3.6658    0.1236 C   0  0  0  0  0  0  0  0  0  0  0  0
   -0.9583    1.4994   -1.1118 C   0  0  0  0  0  0  0  0  0  0  0  0
    2.8060    2.2218   -0.4563 C   0  0  0  0  0  0  0  0  0  0  0  0
   -2.8059    2.2218    0.4561 C   0  0  0  0  0  0  0  0  0  0  0  0
    4.7494    0.8575   -0.8069 C   0  0  0  0  0  0  0  0  0  0  0  0
   -4.7495    0.8576    0.8067 C   0  0  0  0  0  0  0  0  0  0  0  0
    5.2913   -0.5414   -0.9346 C   0  0  0  0  0  0  0  0  0  0  0  0
   -5.2913   -0.5413    0.9346 C   0  0  0  0  0  0  0  0  0  0  0  0
    5.7492   -1.2388    0.1834 C   0  0  0  0  0  0  0  0  0  0  0  0
   -5.7492   -1.2388   -0.1834 C   0  0  0  0  0  0  0  0  0  0  0  0
    5.3306   -1.1399   -2.1939 C   0  0  0  0  0  0  0  0  0  0  0  0
   -5.3307   -1.1394    2.1941 C   0  0  0  0  0  0  0  0  0  0  0  0
    6.2462   -2.5345    0.0418 C   0  0  0  0  0  0  0  0  0  0  0  0
   -6.2463   -2.5345   -0.0416 C   0  0  0  0  0  0  0  0  0  0  0  0
    5.7170   -0.6191    1.5418 C   0  0  0  0  0  0  0  0  0  0  0  0
   -5.7169   -0.6192   -1.5418 C   0  0  0  0  0  0  0  0  0  0  0  0
    5.8277   -2.4355   -2.3354 C   0  0  0  0  0  0  0  0  0  0  0  0
   -5.8280   -2.4350    2.3357 C   0  0  0  0  0  0  0  0  0  0  0  0
    6.2855   -3.1327   -1.2176 C   0  0  0  0  0  0  0  0  0  0  0  0
   -6.2857   -3.1324    1.2180 C   0  0  0  0  0  0  0  0  0  0  0  0
  1 29  1  0
  2 29  1  0
  3 29  1  0
  4 30  1  0
  5 30  1  0
  6 30  1  0
  7 17  1  0
  7 19  1  0
  8 18  1  0
  8 20  1  0
  9 11  1  0
  9 12  1  0
  9 13  1  0
  9 17  1  0
 10 14  1  0
 10 15  1  0
 10 16  1  0
 10 18  1  0
 11 14  1  0
 12 15  1  0
 13 16  1  0
 19 21  1  0
 20 22  1  0
 21 23  2  0
 21 25  1  0
 22 24  2  0
 22 26  1  0
 23 27  1  0
 23 29  1  0
 24 28  1  0
 24 30  1  0
 25 31  2  0
 26 32  2  0
 27 33  2  0
 28 34  2  0
 31 33  1  0
 32 34  1  0
M  END
>  <PUBCHEM_COMPOUND_CID>  (1) 
17194

>  <PUBCHEM_CONFORMER_RMSD>  (1) 
1.2

>  <PUBCHEM_CONFORMER_DIVERSEORDER>  (1) 
7
21
25
3
24
20
33
9
1
30
31
29
22
26
19
14
18
13
27
15
28
23
2
32
10
8
11
17
5
16
4
6
12

>  <PUBCHEM_MMFF94_PARTIAL_CHARGES>  (1) 
36
1 -0.34
17 0.27
18 0.27
19 0.41
2 -0.34
20 0.41
21 -0.14
22 -0.14
23 -0.14
24 -0.14
25 -0.15
26 -0.15
27 -0.15
28 -0.15
29 1.16
3 -0.34
30 1.16
31 -0.15
32 -0.15
33 -0.15
34 -0.15
4 -0.34
5 -0.34
51 0.36
52 0.36
57 0.15
58 0.15
59 0.15
6 -0.34
60 0.15
61 0.15
62 0.15
63 0.15
64 0.15
7 -0.9
8 -0.9

>  <PUBCHEM_EFFECTIVE_ROTOR_COUNT>  (1) 
11.2

>  <PUBCHEM_PHARMACOPHORE_FEATURES>  (1) 
7
1 7 cation
1 7 donor
1 8 cation
1 8 donor
6 21 23 25 27 31 33 rings
6 22 24 26 28 32 34 rings
8 9 10 11 12 13 14 15 16 rings

>  <PUBCHEM_HEAVY_ATOM_COUNT>  (1) 
34

>  <PUBCHEM_ATOM_DEF_STEREO_COUNT>  (1) 
0

>  <PUBCHEM_ATOM_UDEF_STEREO_COUNT>  (1) 
0

>  <PUBCHEM_BOND_DEF_STEREO_COUNT>  (1) 
0

>  <PUBCHEM_BOND_UDEF_STEREO_COUNT>  (1) 
0

>  <PUBCHEM_ISOTOPIC_ATOM_COUNT>  (1) 
0

>  <PUBCHEM_COMPONENT_COUNT>  (1) 
1

>  <PUBCHEM_CACTVS_TAUTO_COUNT>  (1) 
1

>  <PUBCHEM_CONFORMER_ID>  (1) 
0000432A00000007

>  <PUBCHEM_MMFF94_ENERGY>  (1) 
82.3034

>  <PUBCHEM_FEATURE_SELFOVERLAP>  (1) 
35.522

>  <PUBCHEM_SHAPE_FINGERPRINT>  (1) 
11399510 152 17417238837438817952
11475781 23 12179851623842683606
11497681 19 18336561443277957476
117089 54 18269288871993682350
12422481 6 17489594432765190949
12975358 362 11095069053844193979
1361 4 18337120071486365326
13627167 48 12035718817484432255
13782708 43 18410578387493007493
14211702 104 18411422808323331552
14664723 55 14491018378258948855
14951699 99 12607411021916943537
15082195 135 14418126276143683336
15183329 4 18113623390906926962
15326921 28 16485032154773433729
15510800 12 18410858762958415174
16989378 47 18113627802012211742
19958102 18 16877946082857556531
20058555 10 9079119921317388087
21033648 29 12103582878927587493
21424621 283 9007051344868638780
21599406 157 16443072719881158091
24983565 74 18053949734479676855
2838139 119 10881391058521241628
312425 54 16845579711947509699
32027 91 18340487871924766433
3459 39 10015862076451599497
3610482 184 15140948553454557821
392239 28 16200433563568538617
397830 11 15985099725769480552
4258327 124 8646499471399492411
474113 269 18130504228469734463
50009960 94 18262221224361625618
5104073 3 15770057237277036417
513202 73 18342461426619534245
5364581 5 13182740385962635395
58902169 19 15358804605696297760
6712543 237 17132120113216177439
7918774 8 18410576184174726180

>  <PUBCHEM_SHAPE_MULTIPOLES>  (1) 
646.1
22.37
4.18
2.32
0
0.63
0
-25.15
0
0
0
0
-1.43
2.01

>  <PUBCHEM_SHAPE_SELFOVERLAP>  (1) 
1391.443

>  <PUBCHEM_SHAPE_VOLUME>  (1) 
360.5

>  <PUBCHEM_COORDINATE_TYPE>  (1) 
2
5
10

$$$$
