17201
     RDKit          3D

 22 24  0  0  0  0  0  0  0  0999 V2000
   -2.4069    1.6171   -0.5254 O   0  0  0  0  0  0  0  0  0  0  0  0
    2.3665    1.6689   -0.5269 O   0  0  0  0  0  0  0  0  0  0  0  0
   -2.8435   -3.8452    0.4226 N   0  0  0  0  0  0  0  0  0  0  0  0
    2.9294   -3.7813    0.4244 N   0  0  0  0  0  0  0  0  0  0  0  0
   -1.2139    2.2351   -0.1895 C   0  0  0  0  0  0  0  0  0  0  0  0
    1.1814    2.2506   -0.1961 C   0  0  0  0  0  0  0  0  0  0  0  0
   -0.0200    1.6280   -0.5345 C   0  0  0  0  0  0  0  0  0  0  0  0
   -2.5145    0.2806   -0.2929 C   0  0  0  0  0  0  0  0  0  0  0  0
    2.5058    0.3116   -0.2901 C   0  0  0  0  0  0  0  0  0  0  0  0
   -1.2474    3.4437    0.4824 C   0  0  0  0  0  0  0  0  0  0  0  0
    1.1683    3.4699    0.4815 C   0  0  0  0  0  0  0  0  0  0  0  0
   -0.0460    4.0663    0.8209 C   0  0  0  0  0  0  0  0  0  0  0  0
   -2.0776   -0.2541    0.9191 C   0  0  0  0  0  0  0  0  0  0  0  0
   -3.0605   -0.5550   -1.2673 C   0  0  0  0  0  0  0  0  0  0  0  0
    2.0788   -0.2090    0.9181 C   0  0  0  0  0  0  0  0  0  0  0  0
    3.0695   -0.4880   -1.2678 C   0  0  0  0  0  0  0  0  0  0  0  0
   -2.7323   -2.4598    0.1824 C   0  0  0  0  0  0  0  0  0  0  0  0
    2.7868   -2.3989    0.1836 C   0  0  0  0  0  0  0  0  0  0  0  0
   -2.1863   -1.6243    1.1567 C   0  0  0  0  0  0  0  0  0  0  0  0
   -3.1695   -1.9252   -1.0296 C   0  0  0  0  0  0  0  0  0  0  0  0
    2.2207   -1.5758    1.1570 C   0  0  0  0  0  0  0  0  0  0  0  0
    3.2112   -1.8551   -1.0289 C   0  0  0  0  0  0  0  0  0  0  0  0
  1  5  1  0
  1  8  1  0
  2  6  1  0
  2  9  1  0
  3 17  1  0
  4 18  1  0
  5  7  2  0
  5 10  1  0
  6  7  1  0
  6 11  2  0
  8 13  2  0
  8 14  1  0
  9 15  2  0
  9 16  1  0
 10 12  2  0
 11 12  1  0
 13 19  1  0
 14 20  2  0
 15 21  1  0
 16 22  2  0
 17 19  2  0
 17 20  1  0
 18 21  2  0
 18 22  1  0
M  END
>  <PUBCHEM_COMPOUND_CID>  (1) 
17201

>  <PUBCHEM_CONFORMER_RMSD>  (1) 
0.6

>  <PUBCHEM_CONFORMER_DIVERSEORDER>  (1) 
1
10
40
2
33
31
14
9
11
44
24
45
3
20
36
21
37
8
12
25
30
19
43
13
42
29
26
23
27
22
5
32
28
38
4
35
16
17
18
39
34
6
7
15
41

>  <PUBCHEM_MMFF94_PARTIAL_CHARGES>  (1) 
38
1 -0.17
10 -0.15
11 -0.15
12 -0.15
13 -0.15
14 -0.15
15 -0.15
16 -0.15
17 0.1
18 0.1
19 -0.15
2 -0.17
20 -0.15
21 -0.15
22 -0.15
23 0.15
24 0.15
25 0.15
26 0.15
27 0.15
28 0.15
29 0.15
3 -0.9
30 0.15
31 0.15
32 0.15
33 0.15
34 0.15
35 0.4
36 0.4
37 0.4
38 0.4
4 -0.9
5 0.08
6 0.08
7 -0.15
8 0.08
9 0.08

>  <PUBCHEM_EFFECTIVE_ROTOR_COUNT>  (1) 
4

>  <PUBCHEM_PHARMACOPHORE_FEATURES>  (1) 
9
1 1 acceptor
1 2 acceptor
1 3 cation
1 3 donor
1 4 cation
1 4 donor
6 5 6 7 10 11 12 rings
6 8 13 14 17 19 20 rings
6 9 15 16 18 21 22 rings

>  <PUBCHEM_HEAVY_ATOM_COUNT>  (1) 
22

>  <PUBCHEM_ATOM_DEF_STEREO_COUNT>  (1) 
0

>  <PUBCHEM_ATOM_UDEF_STEREO_COUNT>  (1) 
0

>  <PUBCHEM_BOND_DEF_STEREO_COUNT>  (1) 
0

>  <PUBCHEM_BOND_UDEF_STEREO_COUNT>  (1) 
0

>  <PUBCHEM_ISOTOPIC_ATOM_COUNT>  (1) 
0

>  <PUBCHEM_COMPONENT_COUNT>  (1) 
1

>  <PUBCHEM_CACTVS_TAUTO_COUNT>  (1) 
1

>  <PUBCHEM_CONFORMER_ID>  (1) 
0000433100000001

>  <PUBCHEM_MMFF94_ENERGY>  (1) 
101.7292

>  <PUBCHEM_FEATURE_SELFOVERLAP>  (1) 
45.671

>  <PUBCHEM_SHAPE_FINGERPRINT>  (1) 
11370993 70 17114659078203220355
114674 6 17904485460387100307
12156800 1 11758102975793702155
12422481 6 15955849765791606690
12553582 1 18411422790958794027
12788726 201 18125446314854935869
13122387 1 18336547213038786510
13402501 40 17396142803498819683
14081887 123 18268412552577673392
14178342 30 18126005116234173993
1420 336 18191864526675436163
14251757 5 17907882608141869430
14659021 117 18050548674199229074
14863182 85 17398116431281429661
14916288 52 18410577253674733342
15635459 17 18047469216822690167
16752209 62 17831851357210553261
17859628 97 17329152364505075192
19591789 44 17978793733679725020
19930381 70 18049723215765398915
20645477 70 17837480118484483055
20775438 99 17763980974667094207
21197605 99 16031556647480746266
21285901 2 17318423743181453255
21315764 21 16735777940959786607
21634736 98 18117573829481152758
23184049 29 18339075995551483420
23419403 2 16960351176814703984
23557571 272 18270386201587407706
23559900 14 18120358002986377517
23728640 28 17835522613518290137
238 59 17689695872601523015
5265222 85 17259357566205005246
5309563 4 18267592496939154807
602551 16 17548124542648580994
6443956 14 18049167953903378273
7097593 13 18126308534456944305
81228 2 18265886960861557008
90525 40 17181660572205323192
9795274 37 18261387896751429330

>  <PUBCHEM_SHAPE_MULTIPOLES>  (1) 
431.05
5.94
5.56
1.18
0.15
1.77
-0.04
-5.83
-1.12
-0.12
1.33
0
-0.33
-0.02

>  <PUBCHEM_SHAPE_SELFOVERLAP>  (1) 
948.602

>  <PUBCHEM_SHAPE_VOLUME>  (1) 
232.6

>  <PUBCHEM_COORDINATE_TYPE>  (1) 
2
5
10

$$$$
