17205
     RDKit          3D

 12 11  0  0  0  0  0  0  0  0999 V2000
   -0.3226    2.1490   -0.0413 Cl  0  0  0  0  0  0  0  0  0  0  0  0
    0.3227   -2.1491    0.0427 Cl  0  0  0  0  0  0  0  0  0  0  0  0
   -2.5542   -1.0226    1.4056 Cl  0  0  0  0  0  0  0  0  0  0  0  0
   -3.1188    1.3910   -0.0287 Cl  0  0  0  0  0  0  0  0  0  0  0  0
   -2.3654   -1.0816   -1.4516 Cl  0  0  0  0  0  0  0  0  0  0  0  0
    2.3740    1.0556    1.4681 Cl  0  0  0  0  0  0  0  0  0  0  0  0
    3.1182   -1.3910   -0.0038 Cl  0  0  0  0  0  0  0  0  0  0  0  0
    2.5461    1.0484   -1.3908 Cl  0  0  0  0  0  0  0  0  0  0  0  0
   -0.5522    0.4028   -0.0136 C   0  0  0  0  0  0  0  0  0  0  0  0
    0.5522   -0.4026    0.0137 C   0  0  0  0  0  0  0  0  0  0  0  0
   -2.0250   -0.0397   -0.0230 C   0  0  0  0  0  0  0  0  0  0  0  0
    2.0250    0.0399    0.0227 C   0  0  0  0  0  0  0  0  0  0  0  0
  1  9  1  0
  2 10  1  0
  3 11  1  0
  4 11  1  0
  5 11  1  0
  6 12  1  0
  7 12  1  0
  8 12  1  0
  9 10  2  0
  9 11  1  0
 10 12  1  0
M  END
>  <PUBCHEM_COMPOUND_CID>  (1) 
17205

>  <PUBCHEM_CONFORMER_RMSD>  (1) 
0.6

>  <PUBCHEM_CONFORMER_DIVERSEORDER>  (1) 
1
2
3

>  <PUBCHEM_MMFF94_PARTIAL_CHARGES>  (1) 
10
1 -0.14
11 1.01
12 1.01
2 -0.14
3 -0.29
4 -0.29
5 -0.29
6 -0.29
7 -0.29
8 -0.29

>  <PUBCHEM_EFFECTIVE_ROTOR_COUNT>  (1) 
2

>  <PUBCHEM_PHARMACOPHORE_FEATURES>  (1) 
0

>  <PUBCHEM_HEAVY_ATOM_COUNT>  (1) 
12

>  <PUBCHEM_ATOM_DEF_STEREO_COUNT>  (1) 
0

>  <PUBCHEM_ATOM_UDEF_STEREO_COUNT>  (1) 
0

>  <PUBCHEM_BOND_DEF_STEREO_COUNT>  (1) 
0

>  <PUBCHEM_BOND_UDEF_STEREO_COUNT>  (1) 
1

>  <PUBCHEM_ISOTOPIC_ATOM_COUNT>  (1) 
0

>  <PUBCHEM_COMPONENT_COUNT>  (1) 
1

>  <PUBCHEM_CACTVS_TAUTO_COUNT>  (1) 
1

>  <PUBCHEM_CONFORMER_ID>  (1) 
0000433500000001

>  <PUBCHEM_MMFF94_ENERGY>  (1) 
33.8076

>  <PUBCHEM_FEATURE_SELFOVERLAP>  (1) 
0

>  <PUBCHEM_SHAPE_FINGERPRINT>  (1) 
10857977 72 18334577992202962505
12932764 1 18059862795599478791
14325111 11 18334863817918175238
15775835 57 18201717340713897534
16945 1 18194401331886686215
18186145 218 17561089128484016266
20201158 50 18263646156348674595
20511035 2 18051412868567736709
21524375 3 17980200777919309825
23235687 12 17132112455035982110
23402539 116 18412826906690391268
23552423 10 18261956249794509062
2748010 2 18410572894235039269
3248919 1 18040990773757025733
5084963 1 18336547118912781784
528886 8 18333737887835863200
8030462 33 18410854386391619279
81228 2 18263070042357966409

>  <PUBCHEM_SHAPE_MULTIPOLES>  (1) 
261.91
5.1
2.17
1.34
0
0
0.02
0
0
0
-0.02
0
0
0.01

>  <PUBCHEM_SHAPE_SELFOVERLAP>  (1) 
436.71

>  <PUBCHEM_SHAPE_VOLUME>  (1) 
174.9

>  <PUBCHEM_COORDINATE_TYPE>  (1) 
2
5
10

$$$$
