17208
     RDKit          3D

 14 14  0  0  0  0  0  0  0  0999 V2000
    1.4326   -0.0857    0.0239 N   0  0  0  0  0  0  0  0  0  0  0  0
    0.3952   -0.1072   -1.0895 C   0  0  0  0  0  0  0  0  0  0  0  0
    1.1796   -1.2461    0.9755 C   0  0  0  0  0  0  0  0  0  0  0  0
    1.3309    1.2273    0.7866 C   0  0  0  0  0  0  0  0  0  0  0  0
    2.8247   -0.2171   -0.5770 C   0  0  0  0  0  0  0  0  0  0  0  0
   -1.0120    0.0174   -0.5843 C   0  0  0  0  0  0  0  0  0  0  0  0
    1.2820   -2.5483    0.2117 C   0  0  0  0  0  0  0  0  0  0  0  0
    2.3642    1.2429    1.8917 C   0  0  0  0  0  0  0  0  0  0  0  0
    3.0706    0.9388   -1.5219 C   0  0  0  0  0  0  0  0  0  0  0  0
   -1.7312   -1.1276   -0.2603 C   0  0  0  0  0  0  0  0  0  0  0  0
   -1.5845    1.2769   -0.4443 C   0  0  0  0  0  0  0  0  0  0  0  0
   -3.0394   -1.0119    0.2095 C   0  0  0  0  0  0  0  0  0  0  0  0
   -2.8927    1.3926    0.0257 C   0  0  0  0  0  0  0  0  0  0  0  0
   -3.6201    0.2481    0.3526 C   0  0  0  0  0  0  0  0  0  0  0  0
  1  2  1  0
  1  3  1  0
  1  4  1  0
  1  5  1  0
  2  6  1  0
  3  7  1  0
  4  8  1  0
  5  9  1  0
  6 10  2  0
  6 11  1  0
 10 12  1  0
 11 13  2  0
 12 14  2  0
 13 14  1  0
M  CHG  1   1   1
M  END
>  <PUBCHEM_COMPOUND_CID>  (1) 
17208

>  <PUBCHEM_CONFORMER_RMSD>  (1) 
0.6

>  <PUBCHEM_CONFORMER_DIVERSEORDER>  (1) 
1
2
3

>  <PUBCHEM_MMFF94_PARTIAL_CHARGES>  (1) 
16
1 -1.01
10 -0.15
11 -0.15
12 -0.15
13 -0.15
14 -0.15
2 0.65
3 0.5
32 0.15
33 0.15
34 0.15
35 0.15
36 0.15
4 0.5
5 0.5
6 -0.14

>  <PUBCHEM_EFFECTIVE_ROTOR_COUNT>  (1) 
5

>  <PUBCHEM_PHARMACOPHORE_FEATURES>  (1) 
2
1 1 cation
6 6 10 11 12 13 14 rings

>  <PUBCHEM_HEAVY_ATOM_COUNT>  (1) 
14

>  <PUBCHEM_ATOM_DEF_STEREO_COUNT>  (1) 
0

>  <PUBCHEM_ATOM_UDEF_STEREO_COUNT>  (1) 
0

>  <PUBCHEM_BOND_DEF_STEREO_COUNT>  (1) 
0

>  <PUBCHEM_BOND_UDEF_STEREO_COUNT>  (1) 
0

>  <PUBCHEM_ISOTOPIC_ATOM_COUNT>  (1) 
0

>  <PUBCHEM_COMPONENT_COUNT>  (1) 
1

>  <PUBCHEM_CACTVS_TAUTO_COUNT>  (1) 
1

>  <PUBCHEM_CONFORMER_ID>  (1) 
0000433800000001

>  <PUBCHEM_MMFF94_ENERGY>  (1) 
56.7526

>  <PUBCHEM_FEATURE_SELFOVERLAP>  (1) 
10.148

>  <PUBCHEM_SHAPE_FINGERPRINT>  (1) 
12346645 44 18260555549400728334
12500047 106 18335414613520486765
12808571 1 18113908190441408854
12932764 1 18273210894087733695
13380535 21 18336838497994627119
13380536 127 17385716980809463573
14648413 74 17346316037536356452
15775835 57 18410864226509853899
16945 1 18336819887953847269
18186145 218 17346325924477088874
19422 9 18261682501395392239
20082192 1 17386831833970438404
201361 129 18263093140548886412
20233049 118 18059014956503104104
20511035 2 17977360764563211596
20559304 39 18270956817603907931
20671657 53 15984284962389877652
21501502 16 18336828576741531655
21524375 3 17024326329770433708
230 275 18271229599614420664
23526113 38 17986697998327998966
23552423 10 18041841697236751999
2748010 2 18200867486955925829
305870 269 18270097098580039226
3248919 1 17895184494180293351
528886 8 18113909281426308132
53812653 166 18342173358376939288
57177213 63 18260274035627004094
7364860 26 18271238305597700858
74978 22 17489863834667745455
8030462 33 18411128126496246303
81228 2 17620183673641358870

>  <PUBCHEM_SHAPE_MULTIPOLES>  (1) 
283.13
5.46
1.92
1.32
2.33
0.85
0.21
-1.13
-0.08
-0.38
0.35
-1.29
-0.44
0.1

>  <PUBCHEM_SHAPE_SELFOVERLAP>  (1) 
563.743

>  <PUBCHEM_SHAPE_VOLUME>  (1) 
167.6

>  <PUBCHEM_COORDINATE_TYPE>  (1) 
2
5
10

$$$$
