17215
     RDKit          3D

  7  6  0  0  0  0  0  0  0  0999 V2000
   -0.0055    0.3967   -0.4120 Si  0  0  0  0  0  4  0  0  0  0  0  0
   -1.3829    0.8819    0.3946 O   0  0  0  0  0  0  0  0  0  0  0  0
    0.0158   -1.2595   -0.6101 O   0  0  0  0  0  0  0  0  0  0  0  0
    1.3655    0.8971    0.3963 O   0  0  0  0  0  0  0  0  0  0  0  0
   -2.6574    0.5758   -0.1529 C   0  0  0  0  0  0  0  0  0  0  0  0
    0.0228   -2.0956    0.5380 C   0  0  0  0  0  0  0  0  0  0  0  0
    2.6416    0.6036   -0.1540 C   0  0  0  0  0  0  0  0  0  0  0  0
  1  2  1  0
  1  3  1  0
  1  4  1  0
  2  5  1  0
  3  6  1  0
  4  7  1  0
M  END
>  <PUBCHEM_COMPOUND_CID>  (1) 
17215

>  <PUBCHEM_CONFORMER_RMSD>  (1) 
0.4

>  <PUBCHEM_CONFORMER_DIVERSEORDER>  (1) 
1
11
3
10
9
5
6
7
8
2
4

>  <PUBCHEM_MMFF94_PARTIAL_CHARGES>  (1) 
8
1 1.09
2 -0.58
3 -0.58
4 -0.58
5 0.28
6 0.28
7 0.28
8 -0.2

>  <PUBCHEM_EFFECTIVE_ROTOR_COUNT>  (1) 
3

>  <PUBCHEM_PHARMACOPHORE_FEATURES>  (1) 
0

>  <PUBCHEM_HEAVY_ATOM_COUNT>  (1) 
7

>  <PUBCHEM_ATOM_DEF_STEREO_COUNT>  (1) 
0

>  <PUBCHEM_ATOM_UDEF_STEREO_COUNT>  (1) 
0

>  <PUBCHEM_BOND_DEF_STEREO_COUNT>  (1) 
0

>  <PUBCHEM_BOND_UDEF_STEREO_COUNT>  (1) 
0

>  <PUBCHEM_ISOTOPIC_ATOM_COUNT>  (1) 
0

>  <PUBCHEM_COMPONENT_COUNT>  (1) 
1

>  <PUBCHEM_CACTVS_TAUTO_COUNT>  (1) 
1

>  <PUBCHEM_CONFORMER_ID>  (1) 
0000433F00000001

>  <PUBCHEM_MMFF94_ENERGY>  (1) 
10.8031

>  <PUBCHEM_FEATURE_SELFOVERLAP>  (1) 
0

>  <PUBCHEM_SHAPE_FINGERPRINT>  (1) 
16714656 1 18335140924987310812
18185500 45 17184761190721588219
21040471 1 18410856594147396484
23235685 24 18411418422998471381
23552449 11 17974282119468657299
5084963 1 18272370875393510421
528862 383 18042111069074718178
5943 1 16881613082874464230

>  <PUBCHEM_SHAPE_MULTIPOLES>  (1) 
144.66
3.05
1.76
0.82
0.05
1.37
-0.1
-1.48
0.08
-0.03
0.2
0
0.02
0

>  <PUBCHEM_SHAPE_SELFOVERLAP>  (1) 
244.888

>  <PUBCHEM_SHAPE_VOLUME>  (1) 
99.3

>  <PUBCHEM_COORDINATE_TYPE>  (1) 
2
5
10

$$$$
