1722
     RDKit          3D

 21 21  0  0  1  0  0  0  0  0999 V2000
    3.1278   -1.2704    0.4375 P   0  0  0  0  0  0  0  0  0  0  0  0
    3.9386    1.4991   -0.1335 P   0  0  0  0  0  0  0  0  0  0  0  0
   -4.8090    1.9368    0.3851 F   0  0  0  0  0  0  0  0  0  0  0  0
   -5.4374    0.2003   -0.7524 F   0  0  0  0  0  0  0  0  0  0  0  0
   -5.0767    0.0243    1.3847 F   0  0  0  0  0  0  0  0  0  0  0  0
    1.5501   -0.9141    0.4841 O   0  0  0  0  0  0  0  0  0  0  0  0
    3.7874   -0.0810   -0.4366 O   0  0  0  0  0  0  0  0  0  0  0  0
    3.2233   -2.5506   -0.5470 O   0  0  0  0  0  0  0  0  0  0  0  0
    3.7665   -1.4736    1.7808 O   0  0  0  0  0  0  0  0  0  0  0  0
    4.8389    2.0249   -1.3685 O   0  0  0  0  0  0  0  0  0  0  0  0
    4.9561    1.5427    1.1216 O   0  0  0  0  0  0  0  0  0  0  0  0
    2.6413    2.2251    0.0671 O   0  0  0  0  0  0  0  0  0  0  0  0
   -2.8833   -1.0634   -0.1588 N   0  0  0  0  0  0  0  0  0  0  0  0
   -2.2937    1.2713   -0.0675 N   0  0  0  0  0  0  0  0  0  0  0  0
   -1.2155   -2.7024   -0.5541 N   0  0  0  0  0  0  0  0  0  0  0  0
   -0.5998   -0.3845   -0.4682 C   0  0  0  0  0  0  0  0  0  0  0  0
    0.8361   -0.6997   -0.7211 C   0  0  0  0  0  0  0  0  0  0  0  0
   -1.5837   -1.3445   -0.3877 C   0  0  0  0  0  0  0  0  0  0  0  0
   -1.0122    0.9186   -0.2992 C   0  0  0  0  0  0  0  0  0  0  0  0
   -3.1640    0.2453   -0.0104 C   0  0  0  0  0  0  0  0  0  0  0  0
   -4.5909    0.5956    0.2441 C   0  0  0  0  0  0  0  0  0  0  0  0
  1  6  1  0
  1  7  1  0
  1  8  1  0
  1  9  2  0
  2  7  1  0
  2 10  1  0
  2 11  1  0
  2 12  2  0
  3 21  1  0
  4 21  1  0
  5 21  1  0
  6 17  1  0
 13 18  2  0
 13 20  1  0
 14 19  1  0
 14 20  2  0
 15 18  1  0
 16 17  1  0
 16 18  1  0
 16 19  2  0
 20 21  1  0
M  END
>  <PUBCHEM_COMPOUND_CID>  (1) 
1722

>  <PUBCHEM_CONFORMER_RMSD>  (1) 
0.8

>  <PUBCHEM_CONFORMER_DIVERSEORDER>  (1) 
1
30
12
23
21
14
15
3
28
18
5
22
7
26
27
16
9
25
2
29
8
13
17
20
11
24
4
6
19
10

>  <PUBCHEM_MMFF94_PARTIAL_CHARGES>  (1) 
27
1 1.51
10 -0.77
11 -0.77
12 -0.7
13 -0.62
14 -0.62
15 -0.9
16 -0.14
17 0.42
18 0.41
19 0.16
2 1.51
20 0.48
21 1.16
24 0.15
25 0.4
26 0.4
27 0.5
28 0.5
29 0.5
3 -0.34
4 -0.34
5 -0.34
6 -0.55
7 -0.54
8 -0.77
9 -0.7

>  <PUBCHEM_EFFECTIVE_ROTOR_COUNT>  (1) 
6

>  <PUBCHEM_PHARMACOPHORE_FEATURES>  (1) 
10
1 10 acceptor
1 11 acceptor
1 12 acceptor
1 15 donor
1 8 acceptor
1 9 acceptor
3 13 14 20 cation
3 13 15 18 cation
4 2 10 11 12 anion
6 13 14 16 18 19 20 rings

>  <PUBCHEM_HEAVY_ATOM_COUNT>  (1) 
21

>  <PUBCHEM_ATOM_DEF_STEREO_COUNT>  (1) 
0

>  <PUBCHEM_ATOM_UDEF_STEREO_COUNT>  (1) 
0

>  <PUBCHEM_BOND_DEF_STEREO_COUNT>  (1) 
0

>  <PUBCHEM_BOND_UDEF_STEREO_COUNT>  (1) 
0

>  <PUBCHEM_ISOTOPIC_ATOM_COUNT>  (1) 
0

>  <PUBCHEM_COMPONENT_COUNT>  (1) 
1

>  <PUBCHEM_CACTVS_TAUTO_COUNT>  (1) 
3

>  <PUBCHEM_CONFORMER_ID>  (1) 
000006BA00000001

>  <PUBCHEM_MMFF94_ENERGY>  (1) 
-2.299

>  <PUBCHEM_FEATURE_SELFOVERLAP>  (1) 
50.928

>  <PUBCHEM_SHAPE_FINGERPRINT>  (1) 
12633257 1 18336815425631071938
12644460 14 18335707134963081456
12670543 26 9583241596559245955
12788726 201 17632027350902725272
13533116 47 17604144809742881843
13675066 3 17822014190201603079
13955234 65 18342459197531708778
15342168 16 17749678505652738804
17834072 33 18342734148273216111
17844677 252 18340494344229244337
19050596 39 18334286600479236954
204376 136 18342459223227347591
20645477 56 18410009940013141550
21652331 79 18408322185338194789
23503953 91 18340193133799044866
23559900 14 17987522524353369702
34797466 226 16343420721455047349
3545911 37 18412265043141941492
474 4 17895198869568001004
5104073 3 18408323285055447619
5374978 207 18335135362930543090
633830 44 18200876150242481511
7364860 26 18413108334401420902
90127 26 18262529091379217131
960060 61 12463574006420490520

>  <PUBCHEM_SHAPE_MULTIPOLES>  (1) 
362.02
11.74
2.45
1.03
3.74
0.41
0.23
-5.31
1.74
-2.18
-0.22
-0.69
0.06
-0.87

>  <PUBCHEM_SHAPE_SELFOVERLAP>  (1) 
718.49

>  <PUBCHEM_SHAPE_VOLUME>  (1) 
217

>  <PUBCHEM_COORDINATE_TYPE>  (1) 
2
5
10

$$$$
