17234
     RDKit          3D

 19 18  0  0  0  0  0  0  0  0999 V2000
   -5.4397    0.1783    0.0255 O   0  0  0  0  0  0  0  0  0  0  0  0
   -6.7969   -1.6726   -0.1506 O   0  0  0  0  0  0  0  0  0  0  0  0
    3.3184   -0.4031   -0.1186 C   0  0  0  0  0  0  0  0  0  0  0  0
    2.0010    0.3758   -0.0659 C   0  0  0  0  0  0  0  0  0  0  0  0
    4.5579    0.4899   -0.0173 C   0  0  0  0  0  0  0  0  0  0  0  0
    0.7615   -0.5186   -0.1424 C   0  0  0  0  0  0  0  0  0  0  0  0
    5.8422   -0.3421   -0.0632 C   0  0  0  0  0  0  0  0  0  0  0  0
   -0.5237    0.3077   -0.0542 C   0  0  0  0  0  0  0  0  0  0  0  0
    7.1165    0.4979    0.0648 C   0  0  0  0  0  0  0  0  0  0  0  0
   -1.7646   -0.5798   -0.1639 C   0  0  0  0  0  0  0  0  0  0  0  0
    8.4341   -0.2841    0.0464 C   0  0  0  0  0  0  0  0  0  0  0  0
   -3.0469    0.2406   -0.0427 C   0  0  0  0  0  0  0  0  0  0  0  0
    9.7074    0.5619    0.1184 C   0  0  0  0  0  0  0  0  0  0  0  0
   -4.2861   -0.6407   -0.1078 C   0  0  0  0  0  0  0  0  0  0  0  0
   10.9820   -0.2650    0.1801 C   0  0  0  0  0  0  0  0  0  0  0  0
   -6.6424   -0.4673   -0.0129 C   0  0  0  0  0  0  0  0  0  0  0  0
   -7.7520    0.5150    0.1369 C   0  0  0  0  0  0  0  0  0  0  0  0
   -7.5887    1.9211   -0.3535 C   0  0  0  0  0  0  0  0  0  0  0  0
   -8.8801    0.0847    0.7207 C   0  0  0  0  0  0  0  0  0  0  0  0
  1 14  1  0
  1 16  1  0
  2 16  2  0
  3  4  1  0
  3  5  1  0
  4  6  1  0
  5  7  1  0
  6  8  1  0
  7  9  1  0
  8 10  1  0
  9 11  1  0
 10 12  1  0
 11 13  1  0
 12 14  1  0
 13 15  1  0
 16 17  1  0
 17 18  1  0
 17 19  2  0
M  END
>  <PUBCHEM_COMPOUND_CID>  (1) 
17234

>  <PUBCHEM_CONFORMER_RMSD>  (1) 
1.2

>  <PUBCHEM_CONFORMER_DIVERSEORDER>  (1) 
1
60
29
42
39
13
40
72
38
69
73
10
56
71
14
36
7
12
70
30
22
5
49
51
6
61
63
46
31
43
25
28
47
55
18
19
3
21
50
27
66
4
24
64
62
52
53
34
54
44
67
45
20
9
59
37
35
17
11
41
33
57
58
2
68
16
32
48
65
8
26
15
23

>  <PUBCHEM_MMFF94_PARTIAL_CHARGES>  (1) 
9
1 -0.43
14 0.28
16 0.71
17 -0.12
18 0.14
19 -0.3
2 -0.57
50 0.15
51 0.15

>  <PUBCHEM_EFFECTIVE_ROTOR_COUNT>  (1) 
14

>  <PUBCHEM_PHARMACOPHORE_FEATURES>  (1) 
2
1 15 hydrophobe
1 2 acceptor

>  <PUBCHEM_HEAVY_ATOM_COUNT>  (1) 
19

>  <PUBCHEM_ATOM_DEF_STEREO_COUNT>  (1) 
0

>  <PUBCHEM_ATOM_UDEF_STEREO_COUNT>  (1) 
0

>  <PUBCHEM_BOND_DEF_STEREO_COUNT>  (1) 
0

>  <PUBCHEM_BOND_UDEF_STEREO_COUNT>  (1) 
0

>  <PUBCHEM_ISOTOPIC_ATOM_COUNT>  (1) 
0

>  <PUBCHEM_COMPONENT_COUNT>  (1) 
1

>  <PUBCHEM_CACTVS_TAUTO_COUNT>  (1) 
1

>  <PUBCHEM_CONFORMER_ID>  (1) 
0000435200000001

>  <PUBCHEM_MMFF94_ENERGY>  (1) 
8.8188

>  <PUBCHEM_FEATURE_SELFOVERLAP>  (1) 
10.148

>  <PUBCHEM_SHAPE_FINGERPRINT>  (1) 
11315181 36 17846502539377711931
11638347 137 16153703207698209770
12091667 2 13117998908321013059
13885169 127 18410012113778373957
14123256 10 18410856559645064320
14251764 18 17894627050021569755
14251764 46 17917712405143895434
14428016 248 17749115495675608188
15510794 2 18202006525495125726
21362267 2 17417512706388241624
21362267 313 18263919957099477536
232437 2 18187364329601290770
23521765 1 18341895194645927406
23581129 1 18409449189051203586
246663 6 13190058687605705678
28498 318 18060702775987552374
33684 2 18410575088963320962
59567204 34 18342176614886283753
67123 10 18410856572535247462
8209 1 18273215300924593814

>  <PUBCHEM_SHAPE_MULTIPOLES>  (1) 
379.27
40.34
1.08
0.65
42.14
0.16
0.02
3.99
3.89
-2.1
-0.09
-0.23
0.02
0.16

>  <PUBCHEM_SHAPE_SELFOVERLAP>  (1) 
698.199

>  <PUBCHEM_SHAPE_VOLUME>  (1) 
239.8

>  <PUBCHEM_COORDINATE_TYPE>  (1) 
2
5
10

$$$$
