17241
     RDKit          3D

 16 15  0  0  0  0  0  0  0  0999 V2000
   -3.2016    0.0602    0.1695 S   0  0  0  0  0  0  0  0  0  0  0  0
    0.7636    0.1355   -1.6077 S   0  0  0  0  0  0  0  0  0  0  0  0
    4.2566   -0.2759   -1.5252 S   0  0  0  0  0  0  0  0  0  0  0  0
    2.5815   -0.0775   -0.5230 P   0  0  0  0  0  0  0  0  0  0  0  0
   -3.1975   -1.2912    0.7022 O   0  0  0  0  0  0  0  0  0  0  0  0
   -3.1107    1.2064    1.0573 O   0  0  0  0  0  0  0  0  0  0  0  0
    2.6427    1.1566    0.5483 O   0  0  0  0  0  0  0  0  0  0  0  0
    2.3590   -1.2943    0.5466 O   0  0  0  0  0  0  0  0  0  0  0  0
   -1.9074    0.1853   -1.0265 C   0  0  0  0  0  0  0  0  0  0  0  0
   -4.6777    0.2499   -0.8033 C   0  0  0  0  0  0  0  0  0  0  0  0
   -0.5464    0.0447   -0.3704 C   0  0  0  0  0  0  0  0  0  0  0  0
   -5.9209    0.1712    0.0542 C   0  0  0  0  0  0  0  0  0  0  0  0
    2.8313    2.4879    0.0983 C   0  0  0  0  0  0  0  0  0  0  0  0
    2.2382   -2.6330    0.0948 C   0  0  0  0  0  0  0  0  0  0  0  0
    2.8475    3.4151    1.2948 C   0  0  0  0  0  0  0  0  0  0  0  0
    2.0419   -3.5410    1.2900 C   0  0  0  0  0  0  0  0  0  0  0  0
  1  5  2  0
  1  6  2  0
  1  9  1  0
  1 10  1  0
  2  4  1  0
  2 11  1  0
  3  4  2  0
  4  7  1  0
  4  8  1  0
  7 13  1  0
  8 14  1  0
  9 11  1  0
 10 12  1  0
 13 15  1  0
 14 16  1  0
M  END
>  <PUBCHEM_COMPOUND_CID>  (1) 
17241

>  <PUBCHEM_CONFORMER_RMSD>  (1) 
0.8

>  <PUBCHEM_CONFORMER_DIVERSEORDER>  (1) 
1
45
71
15
133
32
112
19
31
42
95
17
12
135
108
92
47
40
36
74
18
91
137
30
77
89
68
79
53
34
81
88
46
116
75
11
131
119
128
56
5
93
87
50
73
16
127
61
59
29
76
55
65
123
120
62
25
64
85
141
41
54
4
130
82
109
118
139
66
26
27
84
70
90
121
104
24
136
113
33
129
48
100
69
23
124
83
43
126
122
51
80
98
28
14
49
142
107
44
9
7
138
106
111
101
63
35
72
102
115
21
105
2
22
96
52
58
134
67
10
57
110
60
97
143
103
8
78
38
125
39
86
13
140
99
117
20
37
6
114
94
3
132

>  <PUBCHEM_MMFF94_PARTIAL_CHARGES>  (1) 
13
1 1.09
10 0.11
11 0.23
13 0.28
14 0.28
2 -0.48
3 -0.68
4 1.47
5 -0.65
6 -0.65
7 -0.55
8 -0.55
9 0.11

>  <PUBCHEM_EFFECTIVE_ROTOR_COUNT>  (1) 
9

>  <PUBCHEM_PHARMACOPHORE_FEATURES>  (1) 
2
1 5 acceptor
1 6 acceptor

>  <PUBCHEM_HEAVY_ATOM_COUNT>  (1) 
16

>  <PUBCHEM_ATOM_DEF_STEREO_COUNT>  (1) 
0

>  <PUBCHEM_ATOM_UDEF_STEREO_COUNT>  (1) 
0

>  <PUBCHEM_BOND_DEF_STEREO_COUNT>  (1) 
0

>  <PUBCHEM_BOND_UDEF_STEREO_COUNT>  (1) 
0

>  <PUBCHEM_ISOTOPIC_ATOM_COUNT>  (1) 
0

>  <PUBCHEM_COMPONENT_COUNT>  (1) 
1

>  <PUBCHEM_CACTVS_TAUTO_COUNT>  (1) 
1

>  <PUBCHEM_CONFORMER_ID>  (1) 
0000435900000001

>  <PUBCHEM_MMFF94_ENERGY>  (1) 
1.0573

>  <PUBCHEM_FEATURE_SELFOVERLAP>  (1) 
10.166

>  <PUBCHEM_SHAPE_FINGERPRINT>  (1) 
10366900 7 18334585628475550893
13533116 47 18335139744440977555
13583140 156 18410572886167324997
13955234 65 18409443678724565251
14178342 30 18042401520364369487
15142526 21 17982722266739197200
20369508 70 18338511941564626814
20645477 70 18201720665018643621
21503847 285 18202569492496261308
2255824 54 18342455950377456332
23532345 1 18411978100424138105
23557571 272 15502375578181637638
23558518 356 17835229426761959982
23559900 14 18186524319248627901
31174 14 18337381648016776518
474 4 18267581488642523949
495365 180 18335977653161682641
633830 44 18270396221361162940
81228 2 17395851433492426382
8988823 20 18411127027285234007
9999458 23 18410576219035735508

>  <PUBCHEM_SHAPE_MULTIPOLES>  (1) 
321.19
10.33
3.3
1.44
14.97
0.49
-0.2
-1.53
-0.57
-5.59
2.52
-0.94
-0.03
0.38

>  <PUBCHEM_SHAPE_SELFOVERLAP>  (1) 
542.699

>  <PUBCHEM_SHAPE_VOLUME>  (1) 
218.7

>  <PUBCHEM_COORDINATE_TYPE>  (1) 
2
5
10

$$$$
