17242
     RDKit          3D

 15 14  0  0  1  0  0  0  0  0999 V2000
   -3.4113    0.2415    0.4836 S   0  0  0  0  0  0  0  0  0  0  0  0
    0.4951    0.2801   -1.5169 S   0  0  0  0  0  0  0  0  0  0  0  0
    3.9714   -0.2501   -1.6224 S   0  0  0  0  0  0  0  0  0  0  0  0
    2.3516   -0.0545   -0.5327 P   0  0  0  0  0  0  0  0  0  0  0  0
    2.5050    1.1133    0.6017 O   0  0  0  0  0  0  0  0  0  0  0  0
    2.1346   -1.3226    0.4766 O   0  0  0  0  0  0  0  0  0  0  0  0
   -3.4668   -1.1991    0.8836 O   0  0  0  0  0  0  0  0  0  0  0  0
   -2.1417    0.3855   -0.8157 C   0  0  0  0  0  0  0  0  0  0  0  0
   -0.7599    0.1617   -0.2262 C   0  0  0  0  0  0  0  0  0  0  0  0
   -4.8120    0.5634   -0.6133 C   0  0  0  0  0  0  0  0  0  0  0  0
   -6.1278    0.5273    0.1365 C   0  0  0  0  0  0  0  0  0  0  0  0
    2.7203    2.4614    0.2182 C   0  0  0  0  0  0  0  0  0  0  0  0
    1.9460   -2.6286   -0.0430 C   0  0  0  0  0  0  0  0  0  0  0  0
    2.8236    3.3174    1.4624 C   0  0  0  0  0  0  0  0  0  0  0  0
    1.7718   -3.5967    1.1077 C   0  0  0  0  0  0  0  0  0  0  0  0
  1  7  2  0
  1  8  1  0
  1 10  1  0
  2  4  1  0
  2  9  1  0
  3  4  2  0
  4  5  1  0
  4  6  1  0
  5 12  1  0
  6 13  1  0
  8  9  1  0
 10 11  1  0
 12 14  1  0
 13 15  1  0
M  END
>  <PUBCHEM_COMPOUND_CID>  (1) 
17242

>  <PUBCHEM_CONFORMER_RMSD>  (1) 
0.8

>  <PUBCHEM_CONFORMER_DIVERSEORDER>  (1) 
1
111
191
59
5
28
186
21
37
76
70
139
19
200
86
36
16
84
166
45
129
118
35
53
207
146
49
184
153
167
48
7
23
100
124
58
130
81
115
27
102
89
145
121
31
180
106
149
32
82
119
210
144
203
136
105
205
197
140
54
47
137
50
138
93
43
122
199
85
77
74
182
33
39
201
171
17
61
195
107
80
160
51
72
99
161
103
113
148
154
42
112
92
168
109
196
38
123
73
108
62
159
190
194
142
64
88
26
165
52
95
40
170
193
110
163
10
66
25
30
34
173
209
128
44
41
15
188
120
117
134
90
67
104
116
97
151
172
78
185
132
192
211
204
157
152
2
141
101
91
57
176
3
156
131
114
11
55
14
155
6
202
187
183
208
94
158
68
125
96
22
143
9
79
75
206
12
133
177
69
169
65
83
18
127
29
8
56
126
174
178
13
150
87
181
4
164
46
71
20
98
175
198
162
24
60
135
189
63
147
179

>  <PUBCHEM_MMFF94_PARTIAL_CHARGES>  (1) 
12
1 0.11
10 0.19
12 0.28
13 0.28
2 -0.48
3 -0.68
4 1.47
5 -0.55
6 -0.55
7 -0.5
8 0.19
9 0.23

>  <PUBCHEM_EFFECTIVE_ROTOR_COUNT>  (1) 
9

>  <PUBCHEM_PHARMACOPHORE_FEATURES>  (1) 
1
1 7 acceptor

>  <PUBCHEM_HEAVY_ATOM_COUNT>  (1) 
15

>  <PUBCHEM_ATOM_DEF_STEREO_COUNT>  (1) 
0

>  <PUBCHEM_ATOM_UDEF_STEREO_COUNT>  (1) 
1

>  <PUBCHEM_BOND_DEF_STEREO_COUNT>  (1) 
0

>  <PUBCHEM_BOND_UDEF_STEREO_COUNT>  (1) 
0

>  <PUBCHEM_ISOTOPIC_ATOM_COUNT>  (1) 
0

>  <PUBCHEM_COMPONENT_COUNT>  (1) 
1

>  <PUBCHEM_CACTVS_TAUTO_COUNT>  (1) 
1

>  <PUBCHEM_CONFORMER_ID>  (1) 
0000435A00000001

>  <PUBCHEM_MMFF94_ENERGY>  (1) 
0.0518

>  <PUBCHEM_FEATURE_SELFOVERLAP>  (1) 
5.074

>  <PUBCHEM_SHAPE_FINGERPRINT>  (1) 
10366900 7 18335712619494036189
13533116 47 18335703781115927411
13583140 156 18411985771625768109
13955234 65 18410289194734587507
14178342 30 18042964466159954059
15142526 21 17983847058628899553
20369508 70 18339075978244948807
20645477 70 18202846556456987837
21503847 285 18131638889102285268
23532345 1 18413103996157365241
23557571 272 16081653274969718007
23558518 356 17836355322257719310
23559900 14 18187089455377352093
239999 70 18130793373081415079
31174 14 18338227159425908815
495365 180 18409162238170623233
633830 44 18271240633364266421
81228 2 17469033823561984630
9999458 23 18411420630975535468

>  <PUBCHEM_SHAPE_MULTIPOLES>  (1) 
306.48
10.29
3.38
1.42
18.45
0.88
-0.19
-2.41
-0.42
-5.54
2.51
-1.14
-0.16
0.9

>  <PUBCHEM_SHAPE_SELFOVERLAP>  (1) 
506.488

>  <PUBCHEM_SHAPE_VOLUME>  (1) 
212

>  <PUBCHEM_COORDINATE_TYPE>  (1) 
2
5
10

$$$$
