17244
     RDKit          3D

  7  6  0  0  0  0  0  0  0  0999 V2000
    0.6994    1.3530   -0.0035 O   0  0  0  0  0  0  0  0  0  0  0  0
    1.7109   -0.8404   -0.0088 C   0  0  0  0  0  0  0  0  0  0  0  0
    0.5473    0.1344   -0.0053 C   0  0  0  0  0  0  0  0  0  0  0  0
    3.0575   -0.1380    0.0130 C   0  0  0  0  0  0  0  0  0  0  0  0
   -0.8082   -0.4872   -0.0024 C   0  0  0  0  0  0  0  0  0  0  0  0
   -1.9119    0.2711    0.0014 C   0  0  0  0  0  0  0  0  0  0  0  0
   -3.2951   -0.2927    0.0056 C   0  0  0  0  0  0  0  0  0  0  0  0
  1  3  2  0
  2  3  1  0
  2  4  1  0
  3  5  1  0
  5  6  2  0
  6  7  1  0
M  END
>  <PUBCHEM_COMPOUND_CID>  (1) 
17244

>  <PUBCHEM_CONFORMER_RMSD>  (1) 
0.4

>  <PUBCHEM_CONFORMER_DIVERSEORDER>  (1) 
1
6
2
3
5
4

>  <PUBCHEM_MMFF94_PARTIAL_CHARGES>  (1) 
8
1 -0.57
13 0.15
14 0.15
2 0.06
3 0.49
5 -0.14
6 -0.29
7 0.14

>  <PUBCHEM_EFFECTIVE_ROTOR_COUNT>  (1) 
2

>  <PUBCHEM_PHARMACOPHORE_FEATURES>  (1) 
3
1 1 acceptor
1 4 hydrophobe
1 7 hydrophobe

>  <PUBCHEM_HEAVY_ATOM_COUNT>  (1) 
7

>  <PUBCHEM_ATOM_DEF_STEREO_COUNT>  (1) 
0

>  <PUBCHEM_ATOM_UDEF_STEREO_COUNT>  (1) 
0

>  <PUBCHEM_BOND_DEF_STEREO_COUNT>  (1) 
0

>  <PUBCHEM_BOND_UDEF_STEREO_COUNT>  (1) 
1

>  <PUBCHEM_ISOTOPIC_ATOM_COUNT>  (1) 
0

>  <PUBCHEM_COMPONENT_COUNT>  (1) 
1

>  <PUBCHEM_CACTVS_TAUTO_COUNT>  (1) 
5

>  <PUBCHEM_CONFORMER_ID>  (1) 
0000435C00000001

>  <PUBCHEM_MMFF94_ENERGY>  (1) 
3.483

>  <PUBCHEM_FEATURE_SELFOVERLAP>  (1) 
15.223

>  <PUBCHEM_SHAPE_FINGERPRINT>  (1) 
11062470 55 17846778498803978907
12932764 1 15769765819440271631
14325111 11 18410856555566478787
23552423 10 17972042435626189434
29004967 10 18409170991329816202
5460574 1 9223228546355817187

>  <PUBCHEM_SHAPE_MULTIPOLES>  (1) 
138.19
4.79
0.96
0.6
1.02
0.17
0
-0.65
-0.02
-0.22
0
0.01
-0.02
0

>  <PUBCHEM_SHAPE_SELFOVERLAP>  (1) 
249.695

>  <PUBCHEM_SHAPE_VOLUME>  (1) 
89.2

>  <PUBCHEM_COORDINATE_TYPE>  (1) 
2
5
10

$$$$
