17258
     RDKit          3D

 13 12  0  0  0  0  0  0  0  0999 V2000
   -2.7731    0.4133    0.0034 O   0  0  0  0  0  0  0  0  0  0  0  0
   -4.2004   -1.4040   -0.0229 O   0  0  0  0  0  0  0  0  0  0  0  0
    2.1445    0.3874    0.0856 C   0  0  0  0  0  0  0  0  0  0  0  0
    3.4383   -0.4316    0.0586 C   0  0  0  0  0  0  0  0  0  0  0  0
    0.8793   -0.4712    0.0244 C   0  0  0  0  0  0  0  0  0  0  0  0
    4.7034    0.4290    0.0455 C   0  0  0  0  0  0  0  0  0  0  0  0
   -0.3787    0.3961    0.0308 C   0  0  0  0  0  0  0  0  0  0  0  0
    5.9604   -0.4368   -0.0546 C   0  0  0  0  0  0  0  0  0  0  0  0
   -1.6443   -0.4495    0.0116 C   0  0  0  0  0  0  0  0  0  0  0  0
    7.2197    0.4134   -0.1066 C   0  0  0  0  0  0  0  0  0  0  0  0
   -3.9917   -0.2012   -0.0139 C   0  0  0  0  0  0  0  0  0  0  0  0
   -5.0326    0.8475   -0.0222 C   0  0  0  0  0  0  0  0  0  0  0  0
   -6.3246    0.5075   -0.0397 C   0  0  0  0  0  0  0  0  0  0  0  0
  1  9  1  0
  1 11  1  0
  2 11  2  0
  3  4  1  0
  3  5  1  0
  4  6  1  0
  5  7  1  0
  6  8  1  0
  7  9  1  0
  8 10  1  0
 11 12  1  0
 12 13  2  0
M  END
>  <PUBCHEM_COMPOUND_CID>  (1) 
17258

>  <PUBCHEM_CONFORMER_RMSD>  (1) 
1

>  <PUBCHEM_CONFORMER_DIVERSEORDER>  (1) 
1
172
362
170
39
12
503
465
408
119
199
4
367
9
306
202
520
7
40
45
593
5
499
595
2
68
29
435
204
134
205
148
75
112
524
32
591
315
360
13
357
80
108
20
174
33
308
365
150
551
529
511
361
47
146
383
38
53
192
106
326
539
354
147
250
281
272
34
57
62
295
454
355
46
157
554
84
508
120
491

>  <PUBCHEM_MMFF94_PARTIAL_CHARGES>  (1) 
9
1 -0.43
11 0.71
12 -0.14
13 -0.3
2 -0.57
31 0.15
32 0.15
33 0.15
9 0.28

>  <PUBCHEM_EFFECTIVE_ROTOR_COUNT>  (1) 
9

>  <PUBCHEM_PHARMACOPHORE_FEATURES>  (1) 
5
1 10 hydrophobe
1 13 hydrophobe
1 2 acceptor
3 3 5 7 hydrophobe
3 4 6 8 hydrophobe

>  <PUBCHEM_HEAVY_ATOM_COUNT>  (1) 
13

>  <PUBCHEM_ATOM_DEF_STEREO_COUNT>  (1) 
0

>  <PUBCHEM_ATOM_UDEF_STEREO_COUNT>  (1) 
0

>  <PUBCHEM_BOND_DEF_STEREO_COUNT>  (1) 
0

>  <PUBCHEM_BOND_UDEF_STEREO_COUNT>  (1) 
0

>  <PUBCHEM_ISOTOPIC_ATOM_COUNT>  (1) 
0

>  <PUBCHEM_COMPONENT_COUNT>  (1) 
1

>  <PUBCHEM_CACTVS_TAUTO_COUNT>  (1) 
1

>  <PUBCHEM_CONFORMER_ID>  (1) 
0000436A00000001

>  <PUBCHEM_MMFF94_ENERGY>  (1) 
6.3796

>  <PUBCHEM_FEATURE_SELFOVERLAP>  (1) 
25.386

>  <PUBCHEM_SHAPE_FINGERPRINT>  (1) 
11315181 36 17846781827962783313
12091667 2 18407478869073666299
13533116 47 18341045212867456554
1420 363 17704077300251715246
14251718 22 18408886248215315570
14251764 46 16080807806631226257
14729087 3 18114456782546409317
15048467 5 18334857207831845749
15242439 84 17988922279916804091
17834072 33 18411138078109537740
17834072 8 17989486320544109001
17834076 25 17167864162060503008
20281389 69 18260264131485569620
20621476 8 18336266743099695396
20767249 213 18410856564298857684
21130983 4 17749113301042096180
220451 1 17240481412102262402
23402539 116 18412541028733703631
23521765 1 18342175561906197536
23559900 14 18272364308441022464
300161 21 18186795868497953427
33684 2 18410854352031874186
42788 4 18410855464428423336
4463277 17 18409448094362362620
57583515 80 17132116836055572443
8209 1 18342457037083374796

>  <PUBCHEM_SHAPE_MULTIPOLES>  (1) 
255.8
19.02
0.92
0.6
9.49
0.11
0
-2.41
0.64
-0.58
0
0.06
-0.01
0

>  <PUBCHEM_SHAPE_SELFOVERLAP>  (1) 
468.207

>  <PUBCHEM_SHAPE_VOLUME>  (1) 
162.4

>  <PUBCHEM_COORDINATE_TYPE>  (1) 
2
5
10

$$$$
