17256
     RDKit          3D

 19 22  0  0  0  0  0  0  0  0999 V2000
    0.2732   -0.0894   -0.0001 C   0  0  0  0  0  0  0  0  0  0  0  0
    1.6909    0.1687    0.0000 C   0  0  0  0  0  0  0  0  0  0  0  0
   -0.1848   -1.4298   -0.0002 C   0  0  0  0  0  0  0  0  0  0  0  0
    2.5945   -0.9259    0.0000 C   0  0  0  0  0  0  0  0  0  0  0  0
   -0.7210    0.9225    0.0000 C   0  0  0  0  0  0  0  0  0  0  0  0
    2.2648    1.4651    0.0000 C   0  0  0  0  0  0  0  0  0  0  0  0
   -2.1005    0.6400    0.0000 C   0  0  0  0  0  0  0  0  0  0  0  0
   -2.5256   -0.7007    0.0000 C   0  0  0  0  0  0  0  0  0  0  0  0
   -1.5610   -1.7172   -0.0001 C   0  0  0  0  0  0  0  0  0  0  0  0
    0.7357   -2.4813   -0.0001 C   0  0  0  0  0  0  0  0  0  0  0  0
    2.1042   -2.2336    0.0000 C   0  0  0  0  0  0  0  0  0  0  0  0
    3.9830   -0.7087    0.0002 C   0  0  0  0  0  0  0  0  0  0  0  0
    3.6478    1.6676    0.0002 C   0  0  0  0  0  0  0  0  0  0  0  0
   -3.0634    1.6641    0.0001 C   0  0  0  0  0  0  0  0  0  0  0  0
   -3.9010   -0.9896    0.0000 C   0  0  0  0  0  0  0  0  0  0  0  0
    1.5265    2.7669   -0.0007 C   0  0  0  0  0  0  0  0  0  0  0  0
    4.5071    0.5801    0.0003 C   0  0  0  0  0  0  0  0  0  0  0  0
   -4.4259    1.3638    0.0003 C   0  0  0  0  0  0  0  0  0  0  0  0
   -4.8445    0.0375    0.0001 C   0  0  0  0  0  0  0  0  0  0  0  0
  1  2  1  0
  1  3  1  0
  1  5  2  0
  2  4  2  0
  2  6  1  0
  3  9  2  0
  3 10  1  0
  4 11  1  0
  4 12  1  0
  5  7  1  0
  6 13  2  0
  6 16  1  0
  7  8  2  0
  7 14  1  0
  8  9  1  0
  8 15  1  0
 10 11  2  0
 12 17  2  0
 13 17  1  0
 14 18  2  0
 15 19  2  0
 18 19  1  0
M  END
>  <PUBCHEM_COMPOUND_CID>  (1) 
17256

>  <PUBCHEM_CONFORMER_RMSD>  (1) 
0.4

>  <PUBCHEM_CONFORMER_DIVERSEORDER>  (1) 
1

>  <PUBCHEM_MMFF94_PARTIAL_CHARGES>  (1) 
24
10 -0.15
11 -0.15
12 -0.15
13 -0.15
14 -0.15
15 -0.15
16 0.14
17 -0.15
18 -0.15
19 -0.15
20 0.15
21 0.15
22 0.15
23 0.15
24 0.15
25 0.15
26 0.15
27 0.15
31 0.15
32 0.15
33 0.15
5 -0.15
6 -0.14
9 -0.15

>  <PUBCHEM_EFFECTIVE_ROTOR_COUNT>  (1) 
0

>  <PUBCHEM_PHARMACOPHORE_FEATURES>  (1) 
4
6 1 2 3 4 10 11 rings
6 1 3 5 7 8 9 rings
6 2 4 6 12 13 17 rings
6 7 8 14 15 18 19 rings

>  <PUBCHEM_HEAVY_ATOM_COUNT>  (1) 
19

>  <PUBCHEM_ATOM_DEF_STEREO_COUNT>  (1) 
0

>  <PUBCHEM_ATOM_UDEF_STEREO_COUNT>  (1) 
0

>  <PUBCHEM_BOND_DEF_STEREO_COUNT>  (1) 
0

>  <PUBCHEM_BOND_UDEF_STEREO_COUNT>  (1) 
0

>  <PUBCHEM_ISOTOPIC_ATOM_COUNT>  (1) 
0

>  <PUBCHEM_COMPONENT_COUNT>  (1) 
1

>  <PUBCHEM_CACTVS_TAUTO_COUNT>  (1) 
1

>  <PUBCHEM_CONFORMER_ID>  (1) 
0000436800000001

>  <PUBCHEM_MMFF94_ENERGY>  (1) 
79.3836

>  <PUBCHEM_FEATURE_SELFOVERLAP>  (1) 
20.37

>  <PUBCHEM_SHAPE_FINGERPRINT>  (1) 
10411042 1 17401767424209322659
10608611 8 18408884010394929541
10616163 171 18339926025519672095
10967382 1 18410856538386518660
11471102 20 18411134723223127862
12011746 2 18408888425531528966
12107183 9 17620196434342058721
12236239 1 17847061069572317409
12403260 363 18266447892333160750
12592029 89 18408605855153840458
12644460 14 18261396585427850674
13140716 1 18337665416827757112
13380535 76 18409167731323317250
13583140 156 16950549022115504171
138480 1 17834113048212783650
14790565 3 18336273452414280868
15196674 1 18410855460144018534
15442244 35 18195809557184365730
15536298 74 18342176639610783486
1601671 61 18409450267547099804
16945 1 18410574023880367106
17492 89 18411981351862866711
18186145 218 18272380753870765865
19591789 44 18267867379193384675
200 152 18131910468742968397
20645477 70 18271244928305318431
21267235 1 18411427193353357742
21421861 104 17752482053912964010
21524375 3 18335701671416728819
221490 88 18409456864295463891
22854114 111 18409168809301715943
23227448 37 18341611563865056199
2334 1 18338799021869005120
23402539 116 18272362092290560612
23402655 69 18343581832640271085
23558518 356 17756984880688937194
23559900 14 18270115691483381382
25 1 18408601461607933542
2748010 2 16971112350608170474
3004659 81 18261401006162637886
335352 9 18338517430553677022
34934 24 18411975841081332278
350125 39 18265901434938111529
3545911 37 18410294705246043541
4214541 1 18410575076469023553
474 4 18187648037011383997
495365 180 17417802998420080656
4990 188 17988651782929321198
5104073 3 18409449176208572131
543358 83 18268433442665513537
5939293 188 18411978074986734512
6138700 20 18339084770824076310
69090 78 18412823616149291159
7364860 26 18340770342874953710
77779 3 18410857655099153601
7832392 63 18412541046261810190
8272917 22 18342181007724483391
9709674 26 18410862066089193055
9981440 41 17399792091471909272

>  <PUBCHEM_SHAPE_MULTIPOLES>  (1) 
391.01
8.67
2.61
0.62
3.56
0.03
0
2.23
0
-1.01
0
0
0
0

>  <PUBCHEM_SHAPE_SELFOVERLAP>  (1) 
896.776

>  <PUBCHEM_SHAPE_VOLUME>  (1) 
186.5

>  <PUBCHEM_COORDINATE_TYPE>  (1) 
2
5
10

$$$$
