1725
     RDKit          3D

 10 10  0  0  0  0  0  0  0  0999 V2000
    3.5178    0.0173    0.0003 N   0  0  0  0  0  0  0  0  0  0  0  0
   -2.8690    1.1682   -0.0010 N   0  0  0  0  0  0  0  0  0  0  0  0
   -2.7876   -1.1673    0.0023 N   0  0  0  0  0  0  0  0  0  0  0  0
   -0.6823   -0.0086   -0.0002 C   0  0  0  0  0  0  0  0  0  0  0  0
    2.1075    0.0085    0.0001 C   0  0  0  0  0  0  0  0  0  0  0  0
    0.0076    1.2036    0.0007 C   0  0  0  0  0  0  0  0  0  0  0  0
    0.0226   -1.2124   -0.0009 C   0  0  0  0  0  0  0  0  0  0  0  0
    1.4024    1.2122    0.0008 C   0  0  0  0  0  0  0  0  0  0  0  0
    1.4175   -1.2039   -0.0008 C   0  0  0  0  0  0  0  0  0  0  0  0
   -2.1365   -0.0176   -0.0011 C   0  0  0  0  0  0  0  0  0  0  0  0
  1  5  1  0
  2 10  1  0
  3 10  2  0
  4  6  2  0
  4  7  1  0
  4 10  1  0
  5  8  2  0
  5  9  1  0
  6  8  1  0
  7  9  2  0
M  END
>  <PUBCHEM_COMPOUND_CID>  (1) 
1725

>  <PUBCHEM_CONFORMER_RMSD>  (1) 
0.4

>  <PUBCHEM_CONFORMER_DIVERSEORDER>  (1) 
1

>  <PUBCHEM_MMFF94_PARTIAL_CHARGES>  (1) 
19
1 -0.9
10 0.41
11 0.15
12 0.15
13 0.15
14 0.15
15 0.4
16 0.4
17 0.4
18 0.4
19 0.4
2 -0.85
3 -0.85
4 0.09
5 0.1
6 -0.15
7 -0.15
8 -0.15
9 -0.15

>  <PUBCHEM_EFFECTIVE_ROTOR_COUNT>  (1) 
1

>  <PUBCHEM_PHARMACOPHORE_FEATURES>  (1) 
6
1 1 cation
1 1 donor
1 2 donor
1 3 donor
3 2 3 10 cation
6 4 5 6 7 8 9 rings

>  <PUBCHEM_HEAVY_ATOM_COUNT>  (1) 
10

>  <PUBCHEM_ATOM_DEF_STEREO_COUNT>  (1) 
0

>  <PUBCHEM_ATOM_UDEF_STEREO_COUNT>  (1) 
0

>  <PUBCHEM_BOND_DEF_STEREO_COUNT>  (1) 
0

>  <PUBCHEM_BOND_UDEF_STEREO_COUNT>  (1) 
0

>  <PUBCHEM_ISOTOPIC_ATOM_COUNT>  (1) 
0

>  <PUBCHEM_COMPONENT_COUNT>  (1) 
1

>  <PUBCHEM_CACTVS_TAUTO_COUNT>  (1) 
3

>  <PUBCHEM_CONFORMER_ID>  (1) 
000006BD00000001

>  <PUBCHEM_MMFF94_ENERGY>  (1) 
40.2523

>  <PUBCHEM_FEATURE_SELFOVERLAP>  (1) 
30.489

>  <PUBCHEM_SHAPE_FINGERPRINT>  (1) 
10857977 72 18411127065285896258
12032990 46 18411990165098100710
12897270 3 18411417302032781357
12932764 1 17418369220537226911
14325111 11 18410575106343793120
16945 1 18410856568314139682
193761 8 17546165199588755718
20201158 50 18408884023058389227
21040471 1 18338799047401451556
23235685 24 18410288103823222344
23402655 69 18268976602269978605
23552423 10 18333453140130989767
2748010 2 18266739271409516956
29004967 10 18408889524795262634
5084963 1 18271247234760401657
528886 8 18411412886806420609

>  <PUBCHEM_SHAPE_MULTIPOLES>  (1) 
190.85
4.36
1.44
0.59
0.19
0
0
0.05
0
0.21
0
-0.02
0
0

>  <PUBCHEM_SHAPE_SELFOVERLAP>  (1) 
398.149

>  <PUBCHEM_SHAPE_VOLUME>  (1) 
106.9

>  <PUBCHEM_COORDINATE_TYPE>  (1) 
2
5
10

$$$$
