17261
     RDKit          3D

 26 28  0  0  0  0  0  0  0  0999 V2000
   -5.8928   -2.4142    0.1722 Cl  0  0  0  0  0  0  0  0  0  0  0  0
   -3.7739   -4.7421   -0.5182 Cl  0  0  0  0  0  0  0  0  0  0  0  0
    5.8966   -0.8474   -0.5328 O   0  0  0  0  0  0  0  0  0  0  0  0
   -1.6548    0.5892    0.4495 N   0  0  0  0  0  0  0  0  0  0  0  0
   -0.1879   -1.0112   -0.0265 N   0  0  0  0  0  0  0  0  0  0  0  0
   -3.0364    4.0140   -0.0949 N   0  0  0  0  0  0  0  0  0  0  0  0
   -2.1710    1.8988    0.7784 C   0  0  0  0  0  0  0  0  0  0  0  0
   -0.3408    0.2616    0.2626 C   0  0  0  0  0  0  0  0  0  0  0  0
   -2.3996   -0.5480    0.2689 C   0  0  0  0  0  0  0  0  0  0  0  0
   -2.4959    2.7134   -0.4703 C   0  0  0  0  0  0  0  0  0  0  0  0
    0.7429    1.2586    0.3819 C   0  0  0  0  0  0  0  0  0  0  0  0
   -1.4613   -1.5327   -0.0271 C   0  0  0  0  0  0  0  0  0  0  0  0
    2.1341    0.6905    0.1351 C   0  0  0  0  0  0  0  0  0  0  0  0
   -3.7716   -0.7923    0.3370 C   0  0  0  0  0  0  0  0  0  0  0  0
   -1.8998   -2.8448   -0.2725 C   0  0  0  0  0  0  0  0  0  0  0  0
   -4.1905   -2.1037    0.0898 C   0  0  0  0  0  0  0  0  0  0  0  0
   -3.2729   -3.1133   -0.2096 C   0  0  0  0  0  0  0  0  0  0  0  0
   -3.3889    4.7894   -1.2859 C   0  0  0  0  0  0  0  0  0  0  0  0
   -2.0764    4.7544    0.7263 C   0  0  0  0  0  0  0  0  0  0  0  0
    2.6378    0.6966   -1.1490 C   0  0  0  0  0  0  0  0  0  0  0  0
    2.8465    0.1869    1.2035 C   0  0  0  0  0  0  0  0  0  0  0  0
    3.9118    0.1754   -1.3748 C   0  0  0  0  0  0  0  0  0  0  0  0
    4.1206   -0.3343    0.9775 C   0  0  0  0  0  0  0  0  0  0  0  0
    4.6532   -0.3400   -0.3115 C   0  0  0  0  0  0  0  0  0  0  0  0
    6.8378   -0.7484    0.5349 C   0  0  0  0  0  0  0  0  0  0  0  0
    8.2332   -0.6565   -0.0447 C   0  0  0  0  0  0  0  0  0  0  0  0
  1 16  1  0
  2 17  1  0
  3 24  1  0
  3 25  1  0
  4  7  1  0
  4  8  1  0
  4  9  1  0
  5  8  2  0
  5 12  1  0
  6 10  1  0
  6 18  1  0
  6 19  1  0
  7 10  1  0
  8 11  1  0
  9 12  2  0
  9 14  1  0
 11 13  1  0
 12 15  1  0
 13 20  2  0
 13 21  1  0
 14 16  2  0
 15 17  2  0
 16 17  1  0
 20 22  1  0
 21 23  2  0
 22 24  2  0
 23 24  1  0
 25 26  1  0
M  END
>  <PUBCHEM_COMPOUND_CID>  (1) 
17261

>  <PUBCHEM_CONFORMER_RMSD>  (1) 
0.8

>  <PUBCHEM_CONFORMER_DIVERSEORDER>  (1) 
1
5
42
27
29
38
10
21
50
19
7
51
45
49
6
20
48
3
37
32
46
4
28
34
43
15
30
44
25
41
26
8
2
13
33
23
35
16
39
24
11
22
18
31
17
12
47
14
9
36
52
40

>  <PUBCHEM_MMFF94_PARTIAL_CHARGES>  (1) 
31
1 -0.18
10 0.27
11 0.32
12 0.23
13 -0.14
14 -0.15
15 -0.15
16 0.18
17 0.18
18 0.27
19 0.27
2 -0.18
20 -0.15
21 -0.15
22 -0.15
23 -0.15
24 0.08
25 0.28
3 -0.36
33 0.15
34 0.15
4 0.05
41 0.15
42 0.15
43 0.15
44 0.15
5 -0.57
6 -0.81
7 0.26
8 0.01
9 -0.15

>  <PUBCHEM_EFFECTIVE_ROTOR_COUNT>  (1) 
7

>  <PUBCHEM_PHARMACOPHORE_FEATURES>  (1) 
6
1 3 acceptor
1 6 cation
3 4 5 8 cation
5 4 5 8 9 12 rings
6 13 20 21 22 23 24 rings
6 9 12 14 15 16 17 rings

>  <PUBCHEM_HEAVY_ATOM_COUNT>  (1) 
26

>  <PUBCHEM_ATOM_DEF_STEREO_COUNT>  (1) 
0

>  <PUBCHEM_ATOM_UDEF_STEREO_COUNT>  (1) 
0

>  <PUBCHEM_BOND_DEF_STEREO_COUNT>  (1) 
0

>  <PUBCHEM_BOND_UDEF_STEREO_COUNT>  (1) 
0

>  <PUBCHEM_ISOTOPIC_ATOM_COUNT>  (1) 
0

>  <PUBCHEM_COMPONENT_COUNT>  (1) 
1

>  <PUBCHEM_CACTVS_TAUTO_COUNT>  (1) 
1

>  <PUBCHEM_CONFORMER_ID>  (1) 
0000436D00000001

>  <PUBCHEM_MMFF94_ENERGY>  (1) 
61.1679

>  <PUBCHEM_FEATURE_SELFOVERLAP>  (1) 
30.553

>  <PUBCHEM_SHAPE_FINGERPRINT>  (1) 
10319926 262 18271227362774911880
10411042 1 18267021850704778931
105312 117 18192993716617450788
10595046 47 18334298691360593452
10940486 97 18334303033219829996
11062273 23 18410007715964063113
11297750 10 18271796986390872161
11796584 16 18197216954645756674
11809386 21 18334009480578454210
12236239 1 18113338630965965358
12403259 226 18200028585279812313
12760667 363 18271525394117974311
12788726 201 18261384547135725523
13583140 156 17845926360634803348
13690498 29 18412546543941105942
14068700 675 18262800786493849014
14294032 229 18265337214434656057
14347332 77 18409450310354432462
14508225 48 18269546303748159821
14790565 3 17475236799650529664
14955137 171 18046078305181928539
15021287 119 17313680256534754324
15042514 8 18411421743688342019
15230672 131 18049445843026210198
15439362 3 17617657652923937180
15484559 13 13923528309266213020
15664445 248 17690004856723049149
16087824 20 18410292481492376721
16752209 62 18409720747175268417
17492 89 17693093381112945303
1813 80 18124320660341165999
21033650 10 18191333532038274542
21267235 1 18337112379612135707
21285901 2 18058747878541444607
2132832 1 18187365480030476108
21792961 116 18114176454832511411
23081809 10 17676494917957074432
23366157 5 17399512824503201923
23559900 14 18197492046198064523
23929065 36 18339907269218006352
255183 313 18198646371048188337
3004659 81 18114456885493794314
3103668 31 18335410276257847477
335352 9 18341049713987842839
397830 11 18201707493419446928
4409770 3 18408880708018935037
5080951 261 17917415506707594535
5104073 3 17772482436758440619
6327066 14 17972314006292934093
6700243 42 17913246206155426676
77188 2 18051129486952834549
7970288 3 18195807594760033526
9831232 110 18199477559596418094
9981440 41 17977390425966892225

>  <PUBCHEM_SHAPE_MULTIPOLES>  (1) 
517.99
14.79
5.78
1.01
30.73
5.92
-0.12
-10.5
-0.4
-13.84
-1.15
0.48
0.44
0.09

>  <PUBCHEM_SHAPE_SELFOVERLAP>  (1) 
1085.555

>  <PUBCHEM_SHAPE_VOLUME>  (1) 
299.6

>  <PUBCHEM_COORDINATE_TYPE>  (1) 
2
5
10

$$$$
