17279
     RDKit          3D

 16 18  0  0  0  0  0  0  0  0999 V2000
    2.8958    3.0703    0.0003 N   0  0  0  0  0  0  0  0  0  0  0  0
    0.1849   -1.0007    0.0001 C   0  0  0  0  0  0  0  0  0  0  0  0
   -1.1653   -0.5004    0.0001 C   0  0  0  0  0  0  0  0  0  0  0  0
    1.2648   -0.0796   -0.0001 C   0  0  0  0  0  0  0  0  0  0  0  0
   -1.3837    0.9022   -0.0001 C   0  0  0  0  0  0  0  0  0  0  0  0
    1.0095    1.2942    0.0000 C   0  0  0  0  0  0  0  0  0  0  0  0
   -0.2948    1.7776   -0.0001 C   0  0  0  0  0  0  0  0  0  0  0  0
    0.5227   -2.3772    0.0002 C   0  0  0  0  0  0  0  0  0  0  0  0
   -2.3191   -1.3240    0.0002 C   0  0  0  0  0  0  0  0  0  0  0  0
    2.5940   -0.5361   -0.0002 C   0  0  0  0  0  0  0  0  0  0  0  0
   -2.6892    1.4225   -0.0003 C   0  0  0  0  0  0  0  0  0  0  0  0
    1.8489   -2.8178    0.0000 C   0  0  0  0  0  0  0  0  0  0  0  0
   -3.6119   -0.7935    0.0002 C   0  0  0  0  0  0  0  0  0  0  0  0
    2.8849   -1.8968   -0.0003 C   0  0  0  0  0  0  0  0  0  0  0  0
   -3.7969    0.5803   -0.0002 C   0  0  0  0  0  0  0  0  0  0  0  0
    2.0555    2.2790    0.0001 C   0  0  0  0  0  0  0  0  0  0  0  0
  1 16  3  0
  2  3  2  0
  2  4  1  0
  2  8  1  0
  3  5  1  0
  3  9  1  0
  4  6  2  0
  4 10  1  0
  5  7  2  0
  5 11  1  0
  6  7  1  0
  6 16  1  0
  8 12  2  0
  9 13  2  0
 10 14  2  0
 11 15  2  0
 12 14  1  0
 13 15  1  0
M  END
>  <PUBCHEM_COMPOUND_CID>  (1) 
17279

>  <PUBCHEM_CONFORMER_RMSD>  (1) 
0.4

>  <PUBCHEM_CONFORMER_DIVERSEORDER>  (1) 
1

>  <PUBCHEM_MMFF94_PARTIAL_CHARGES>  (1) 
21
1 -0.56
10 -0.15
11 -0.15
12 -0.15
13 -0.15
14 -0.15
15 -0.15
16 0.48
17 0.15
18 0.15
19 0.15
20 0.15
21 0.15
22 0.15
23 0.15
24 0.15
25 0.15
6 0.07
7 -0.15
8 -0.15
9 -0.15

>  <PUBCHEM_EFFECTIVE_ROTOR_COUNT>  (1) 
0

>  <PUBCHEM_PHARMACOPHORE_FEATURES>  (1) 
4
1 1 acceptor
6 2 3 4 5 6 7 rings
6 2 4 8 10 12 14 rings
6 3 5 9 11 13 15 rings

>  <PUBCHEM_HEAVY_ATOM_COUNT>  (1) 
16

>  <PUBCHEM_ATOM_DEF_STEREO_COUNT>  (1) 
0

>  <PUBCHEM_ATOM_UDEF_STEREO_COUNT>  (1) 
0

>  <PUBCHEM_BOND_DEF_STEREO_COUNT>  (1) 
0

>  <PUBCHEM_BOND_UDEF_STEREO_COUNT>  (1) 
0

>  <PUBCHEM_ISOTOPIC_ATOM_COUNT>  (1) 
0

>  <PUBCHEM_COMPONENT_COUNT>  (1) 
1

>  <PUBCHEM_CACTVS_TAUTO_COUNT>  (1) 
1

>  <PUBCHEM_CONFORMER_ID>  (1) 
0000437F00000001

>  <PUBCHEM_MMFF94_ENERGY>  (1) 
52.1813

>  <PUBCHEM_FEATURE_SELFOVERLAP>  (1) 
20.346

>  <PUBCHEM_SHAPE_FINGERPRINT>  (1) 
10319926 262 17041170474658277658
10411042 1 17978510832478654759
10608611 8 18335698321774793685
10967382 1 18338799017157293445
11471102 20 18337948996238254831
11680986 33 18263370337743633586
12553582 1 18122630448390836643
13140716 1 18410013260064955585
13380535 76 18192709175091638472
138480 1 18338797802061428256
13897977 150 18409447007440068781
14250199 8 18411694366515955023
14648413 74 18408886217712681785
14790565 3 16828135664079770040
15042514 8 17399796498228868338
15196674 1 18338516309662404719
15442244 35 18268431226731602529
15536298 74 18343302591241901876
16945 1 18338797801829339173
17990270 104 18337951199255985659
193761 8 18338797952042723558
19591789 44 17762062433501122554
19868273 325 18049163267656098086
20510252 161 17189246103083274258
20559304 39 18410295774429136670
20645477 70 18335974333806103591
21267235 1 18267313023374934407
21501502 16 18413108377134575385
21524375 3 18056199321888104740
221490 88 18408611374345285339
2255824 54 18411139134328666110
2334 1 18266459995445440809
23366157 5 18113336427389201664
23402539 116 17837756847000436151
23419403 2 17679270063129222598
23463225 33 18338235942771399751
23559900 14 18340195306772479944
2748010 2 18264495146638904245
3071541 12 18411422812607918188
3071541 158 18261956224024751012
3091708 16 9505068561179985690
335352 9 18122626050687113365
34934 24 18049151181554966531
352729 6 17616818068506070836
43471831 8 18193272116286235698
458136 41 18193295171686901169
54173680 148 17257370743897174522
6138700 20 18410863153575268596
6992083 37 17767136301885730161
7364860 26 18412263939013638376
7832392 63 18124314900478798721
81228 2 17549830984056137778
84936 182 18129943489221989489
8809292 202 18188780448453040747
90316 7 17687172102605304386
9709674 26 18410294701078189963

>  <PUBCHEM_SHAPE_MULTIPOLES>  (1) 
324.29
5.4
3.23
0.61
3.23
0.82
0
-0.21
0
-3.02
0
0.01
-0.02
0

>  <PUBCHEM_SHAPE_SELFOVERLAP>  (1) 
733.296

>  <PUBCHEM_SHAPE_VOLUME>  (1) 
167.6

>  <PUBCHEM_COORDINATE_TYPE>  (1) 
2
5
10

$$$$
