17270
     RDKit          3D

 19 21  0  0  0  0  0  0  0  0999 V2000
   -5.9019    0.7658   -0.0139 F   0  0  0  0  0  0  0  0  0  0  0  0
    4.4294   -1.4005   -0.6076 O   0  0  0  0  0  0  0  0  0  0  0  0
    3.7801    1.8416    0.6584 O   0  0  0  0  0  0  0  0  0  0  0  0
    3.5895   -0.3480   -0.1498 N   0  0  0  0  0  0  0  0  0  0  0  0
   -1.0196    1.6213   -0.3194 C   0  0  0  0  0  0  0  0  0  0  0  0
    0.0382    0.5467   -0.1795 C   0  0  0  0  0  0  0  0  0  0  0  0
   -0.5624   -0.7123    0.0463 C   0  0  0  0  0  0  0  0  0  0  0  0
   -2.2950    0.8234   -0.1462 C   0  0  0  0  0  0  0  0  0  0  0  0
   -1.9993   -0.5419    0.0669 C   0  0  0  0  0  0  0  0  0  0  0  0
    1.4129    0.6899   -0.2487 C   0  0  0  0  0  0  0  0  0  0  0  0
    0.2176   -1.8455    0.2058 C   0  0  0  0  0  0  0  0  0  0  0  0
    2.1988   -0.4526   -0.0880 C   0  0  0  0  0  0  0  0  0  0  0  0
   -3.5995    1.2844   -0.1771 C   0  0  0  0  0  0  0  0  0  0  0  0
   -3.0178   -1.4617    0.2519 C   0  0  0  0  0  0  0  0  0  0  0  0
    1.6073   -1.7076    0.1369 C   0  0  0  0  0  0  0  0  0  0  0  0
   -4.6260    0.3568    0.0096 C   0  0  0  0  0  0  0  0  0  0  0  0
   -4.3382   -1.0024    0.2220 C   0  0  0  0  0  0  0  0  0  0  0  0
    4.2899    0.8046    0.2335 C   0  0  0  0  0  0  0  0  0  0  0  0
    5.7960    0.7380    0.0988 C   0  0  0  0  0  0  0  0  0  0  0  0
  1 16  1  0
  2  4  1  0
  3 18  2  0
  4 12  1  0
  4 18  1  0
  5  6  1  0
  5  8  1  0
  6  7  2  0
  6 10  1  0
  7  9  1  0
  7 11  1  0
  8  9  2  0
  8 13  1  0
  9 14  1  0
 10 12  2  0
 11 15  2  0
 12 15  1  0
 13 16  2  0
 14 17  2  0
 16 17  1  0
 18 19  1  0
M  END
>  <PUBCHEM_COMPOUND_CID>  (1) 
17270

>  <PUBCHEM_CONFORMER_RMSD>  (1) 
0.6

>  <PUBCHEM_CONFORMER_DIVERSEORDER>  (1) 
1
4
5
8
6
3
2
7

>  <PUBCHEM_MMFF94_PARTIAL_CHARGES>  (1) 
24
1 -0.19
10 -0.15
11 -0.15
12 0.12
13 -0.15
14 -0.15
15 -0.15
16 0.19
17 -0.15
18 0.57
19 0.06
2 -0.44
22 0.15
23 0.15
24 0.15
25 0.15
26 0.15
27 0.15
28 0.4
3 -0.57
4 -0.14
5 0.29
6 -0.14
8 -0.14

>  <PUBCHEM_EFFECTIVE_ROTOR_COUNT>  (1) 
2.2

>  <PUBCHEM_PHARMACOPHORE_FEATURES>  (1) 
4
1 3 acceptor
5 5 6 7 8 9 rings
6 6 7 10 11 12 15 rings
6 8 9 13 14 16 17 rings

>  <PUBCHEM_HEAVY_ATOM_COUNT>  (1) 
19

>  <PUBCHEM_ATOM_DEF_STEREO_COUNT>  (1) 
0

>  <PUBCHEM_ATOM_UDEF_STEREO_COUNT>  (1) 
0

>  <PUBCHEM_BOND_DEF_STEREO_COUNT>  (1) 
0

>  <PUBCHEM_BOND_UDEF_STEREO_COUNT>  (1) 
0

>  <PUBCHEM_ISOTOPIC_ATOM_COUNT>  (1) 
0

>  <PUBCHEM_COMPONENT_COUNT>  (1) 
1

>  <PUBCHEM_CACTVS_TAUTO_COUNT>  (1) 
1

>  <PUBCHEM_CONFORMER_ID>  (1) 
0000437600000001

>  <PUBCHEM_MMFF94_ENERGY>  (1) 
71.196

>  <PUBCHEM_FEATURE_SELFOVERLAP>  (1) 
20.462

>  <PUBCHEM_SHAPE_FINGERPRINT>  (1) 
11132069 177 18261112980347580349
11401426 45 18335420179634448551
11578080 2 16590258689346160326
12236239 1 17385441046730610372
12390115 104 18199763444386033737
12403259 415 18334288747873435284
13081056 2 18411419488329468516
13214271 11 18410009966220905599
13675066 3 18336270123275938859
15048467 5 18202285780136884785
15196674 1 18410012139025970759
15375358 24 18407760335249653675
15536298 74 18412546500627618014
17834072 33 17917425449699270535
19784866 170 18334294266784642819
200 152 18060135444982866119
20510252 161 18341896268388031104
20645477 56 18409166627453048343
20645477 70 17988084392175271558
21267235 1 18336275587081098259
22854114 59 18410575093400739176
23402539 116 18411694426176135254
23559900 14 18412263935224995326
296302 2 18341895182241170863
335352 9 18409730642621747430
34797466 226 17131839810348826605
34934 24 18408316671201384875
351380 180 18411417328256265792
3545911 37 18409168805064861893
4214541 1 18410856533965236653
4340502 62 16587746417219765147
474 4 18040441018307329612
474229 33 18409166636132932998
4990 188 18202008690058019790
5104073 3 18336549330557332483
542803 24 17275388690154638009
59755656 215 18409453544765727254
69090 78 18272086127941805766
7364860 26 18267583507799353442
77779 3 18412827979725118638
9709674 26 18410017645221854846

>  <PUBCHEM_SHAPE_MULTIPOLES>  (1) 
367.02
11.3
1.82
0.66
3.04
0.24
0
-2.57
-0.46
0.17
-0.06
0.13
-0.01
0.59

>  <PUBCHEM_SHAPE_SELFOVERLAP>  (1) 
814.184

>  <PUBCHEM_SHAPE_VOLUME>  (1) 
198.5

>  <PUBCHEM_COORDINATE_TYPE>  (1) 
2
5
10

$$$$
