17280
     RDKit          3D

 15 15  0  0  0  0  0  0  0  0999 V2000
    1.0363    0.0484   -0.7852 P   0  0  0  0  0  0  0  0  0  0  0  0
    1.2461   -1.1327    0.3046 O   0  0  0  0  0  0  0  0  0  0  0  0
    2.3512    0.9819   -0.6115 O   0  0  0  0  0  0  0  0  0  0  0  0
   -0.1502    0.9519   -0.1642 O   0  0  0  0  0  0  0  0  0  0  0  0
    0.8103   -0.4140   -2.1972 O   0  0  0  0  0  0  0  0  0  0  0  0
   -1.4482    0.5459   -0.0107 C   0  0  0  0  0  0  0  0  0  0  0  0
    2.3320   -2.0261    0.1303 C   0  0  0  0  0  0  0  0  0  0  0  0
    2.6940    1.4942    0.6648 C   0  0  0  0  0  0  0  0  0  0  0  0
   -1.8218   -0.7345   -0.4055 C   0  0  0  0  0  0  0  0  0  0  0  0
   -2.3830    1.4177    0.5383 C   0  0  0  0  0  0  0  0  0  0  0  0
    2.3377   -3.0244    1.2365 C   0  0  0  0  0  0  0  0  0  0  0  0
    3.9332    2.3144    0.5554 C   0  0  0  0  0  0  0  0  0  0  0  0
   -3.1448   -1.1480   -0.2497 C   0  0  0  0  0  0  0  0  0  0  0  0
   -3.7060    1.0041    0.6941 C   0  0  0  0  0  0  0  0  0  0  0  0
   -4.0868   -0.2788    0.3001 C   0  0  0  0  0  0  0  0  0  0  0  0
  1  2  1  0
  1  3  1  0
  1  4  1  0
  1  5  2  0
  2  7  1  0
  3  8  1  0
  4  6  1  0
  6  9  2  0
  6 10  1  0
  7 11  1  0
  8 12  1  0
  9 13  1  0
 10 14  2  0
 13 15  2  0
 14 15  1  0
M  END
>  <PUBCHEM_COMPOUND_CID>  (1) 
17280

>  <PUBCHEM_CONFORMER_RMSD>  (1) 
0.6

>  <PUBCHEM_CONFORMER_DIVERSEORDER>  (1) 
1
84
72
86
48
95
10
18
32
45
49
87
4
26
51
21
74
14
40
5
75
19
11
13
77
9
53
28
6
70
65
85
25
54
7
61
33
50
23
42
22
63
67
35
78
41
31
20
68
90
16
36
15
39
52
82
12
24
89
30
2
73
98
29
17
44
46
58
76
3
27
96
37
47
59
8
43
97
94
92
80
60
64
91
66
83
55
38
93
88
56
69
81
34
57
62
79
71

>  <PUBCHEM_MMFF94_PARTIAL_CHARGES>  (1) 
18
1 1.51
10 -0.15
13 -0.15
14 -0.15
15 -0.15
2 -0.55
20 0.15
21 0.15
28 0.15
29 0.15
3 -0.55
30 0.15
4 -0.35
5 -0.7
6 0.08
7 0.28
8 0.28
9 -0.15

>  <PUBCHEM_EFFECTIVE_ROTOR_COUNT>  (1) 
6

>  <PUBCHEM_PHARMACOPHORE_FEATURES>  (1) 
2
1 5 acceptor
6 6 9 10 13 14 15 rings

>  <PUBCHEM_HEAVY_ATOM_COUNT>  (1) 
15

>  <PUBCHEM_ATOM_DEF_STEREO_COUNT>  (1) 
0

>  <PUBCHEM_ATOM_UDEF_STEREO_COUNT>  (1) 
0

>  <PUBCHEM_BOND_DEF_STEREO_COUNT>  (1) 
0

>  <PUBCHEM_BOND_UDEF_STEREO_COUNT>  (1) 
0

>  <PUBCHEM_ISOTOPIC_ATOM_COUNT>  (1) 
0

>  <PUBCHEM_COMPONENT_COUNT>  (1) 
1

>  <PUBCHEM_CACTVS_TAUTO_COUNT>  (1) 
1

>  <PUBCHEM_CONFORMER_ID>  (1) 
0000438000000001

>  <PUBCHEM_MMFF94_ENERGY>  (1) 
23.0542

>  <PUBCHEM_FEATURE_SELFOVERLAP>  (1) 
10.148

>  <PUBCHEM_SHAPE_FINGERPRINT>  (1) 
10922049 32 18130231587628698028
11578080 2 17678449767209737612
12251169 10 18270396079516484851
12346645 44 18272088352544876416
12932764 1 18337124362554521501
13533116 47 18334297522839715659
14178342 30 18115315599711165227
14787075 74 17694778927551527693
15375462 189 18117003173945342042
15536298 74 18413109446222781466
15775835 57 18130790117659929504
15852999 172 17604426426347816611
17041 49 18053107224386196273
170605 34 18131077068767395860
201361 129 18412544323237513128
204376 136 18117839017662561724
20645477 70 18411697652208465927
21501502 16 18272647931259979401
21524375 3 18129381677883163916
22445834 79 18263647268787538699
2255824 54 18188220827099078830
23559900 14 17702956802981149815
298252 57 17274263997360627892
3248919 1 17168440328092621661
34934 24 18272367620456938741
474 4 18263648527097113164
5104073 3 18338528448025779353
633830 44 18270683189991695028
68419 9 17128417039726512230
7097593 13 18122622756125703651
7364860 26 18341896255882885030
81539 233 18411698833218853724

>  <PUBCHEM_SHAPE_MULTIPOLES>  (1) 
289.07
7.13
2.62
1.16
2.49
1.21
-0.44
-1.88
1.93
-3.44
1.11
-0.48
0.27
-0.59

>  <PUBCHEM_SHAPE_SELFOVERLAP>  (1) 
562.27

>  <PUBCHEM_SHAPE_VOLUME>  (1) 
174.6

>  <PUBCHEM_COORDINATE_TYPE>  (1) 
2
5
10

$$$$
