1729
     RDKit          3D

 23 26  0  0  1  0  0  0  0  0999 V2000
   -4.6582    1.2166   -0.8825 O   0  0  0  0  0  0  0  0  0  0  0  0
    3.9907   -1.6430   -0.1016 O   0  0  0  0  0  0  0  0  0  0  0  0
    5.1787    0.7478    0.5287 O   0  0  0  0  0  0  0  0  0  0  0  0
   -0.9947   -0.7256   -0.2077 C   0  0  0  0  0  0  0  0  0  0  0  0
   -0.2797    0.5608    0.2711 C   0  0  0  0  0  0  0  0  0  0  0  0
   -2.3116   -1.0109    0.5750 C   0  0  0  0  0  0  0  0  0  0  0  0
   -3.2181    0.2235    0.8159 C   0  0  0  0  0  0  0  0  0  0  0  0
    1.0970    0.8314   -0.4585 C   0  0  0  0  0  0  0  0  0  0  0  0
   -1.2638    1.7382    0.1677 C   0  0  0  0  0  0  0  0  0  0  0  0
   -2.4643    1.5266    1.0792 C   0  0  0  0  0  0  0  0  0  0  0  0
   -0.0389   -1.9253   -0.0849 C   0  0  0  0  0  0  0  0  0  0  0  0
   -3.2257   -1.9652   -0.2211 C   0  0  0  0  0  0  0  0  0  0  0  0
    1.9568   -0.4430   -0.4525 C   0  0  0  0  0  0  0  0  0  0  0  0
    1.2411   -1.7065   -0.8778 C   0  0  0  0  0  0  0  0  0  0  0  0
   -4.0271    0.2487   -0.4755 C   0  0  0  0  0  0  0  0  0  0  0  0
   -3.9834   -1.0729   -1.2008 C   0  0  0  0  0  0  0  0  0  0  0  0
    1.8277    1.9717    0.3088 C   0  0  0  0  0  0  0  0  0  0  0  0
   -4.2144   -0.0145    1.9660 C   0  0  0  0  0  0  0  0  0  0  0  0
    0.8941    1.2697   -1.9278 C   0  0  0  0  0  0  0  0  0  0  0  0
    3.2973    2.0981   -0.0497 C   0  0  0  0  0  0  0  0  0  0  0  0
    3.2640   -0.4695   -0.1237 C   0  0  0  0  0  0  0  0  0  0  0  0
    4.0012    0.7885    0.1754 C   0  0  0  0  0  0  0  0  0  0  0  0
    3.9315   -2.2452    1.1765 C   0  0  0  0  0  0  0  0  0  0  0  0
  1 15  2  0
  2 21  1  0
  2 23  1  0
  3 22  2  0
  4  5  1  0
  4  6  1  0
  4 11  1  0
  5  8  1  0
  5  9  1  0
  6  7  1  0
  6 12  1  0
  7 10  1  0
  7 15  1  0
  7 18  1  0
  8 13  1  0
  8 17  1  0
  8 19  1  0
  9 10  1  0
 11 14  1  0
 12 16  1  0
 13 14  1  0
 13 21  2  0
 15 16  1  0
 17 20  1  0
 20 22  1  0
 21 22  1  0
M  END
>  <PUBCHEM_COMPOUND_CID>  (1) 
1729

>  <PUBCHEM_CONFORMER_RMSD>  (1) 
0.6

>  <PUBCHEM_CONFORMER_DIVERSEORDER>  (1) 
1
78
37
62
66
63
48
14
65
51
50
74
30
72
38
77
47
55
41
6
61
59
23
60
16
19
36
70
7
69
53
52
34
27
25
11
29
26
28
35
73
54
17
64
75
22
32
8
33
21
13
9
58
3
15
42
44
43
40
20
67
68
76
57
10
39
46
31
45
56
24
12
71
49
2
18
5
4

>  <PUBCHEM_MMFF94_PARTIAL_CHARGES>  (1) 
13
1 -0.57
13 -0.28
14 0.14
15 0.45
16 0.06
2 -0.36
20 0.06
21 0.09
22 0.49
23 0.28
3 -0.57
7 0.06
8 0.14

>  <PUBCHEM_EFFECTIVE_ROTOR_COUNT>  (1) 
2.6

>  <PUBCHEM_PHARMACOPHORE_FEATURES>  (1) 
7
1 1 acceptor
1 2 acceptor
1 3 acceptor
5 6 7 12 15 16 rings
6 4 5 6 7 9 10 rings
6 4 5 8 11 13 14 rings
6 8 13 17 20 21 22 rings

>  <PUBCHEM_HEAVY_ATOM_COUNT>  (1) 
23

>  <PUBCHEM_ATOM_DEF_STEREO_COUNT>  (1) 
0

>  <PUBCHEM_ATOM_UDEF_STEREO_COUNT>  (1) 
5

>  <PUBCHEM_BOND_DEF_STEREO_COUNT>  (1) 
0

>  <PUBCHEM_BOND_UDEF_STEREO_COUNT>  (1) 
0

>  <PUBCHEM_ISOTOPIC_ATOM_COUNT>  (1) 
0

>  <PUBCHEM_COMPONENT_COUNT>  (1) 
1

>  <PUBCHEM_CACTVS_TAUTO_COUNT>  (1) 
10

>  <PUBCHEM_CONFORMER_ID>  (1) 
000006C100000001

>  <PUBCHEM_MMFF94_ENERGY>  (1) 
67.3269

>  <PUBCHEM_FEATURE_SELFOVERLAP>  (1) 
35.736

>  <PUBCHEM_SHAPE_FINGERPRINT>  (1) 
10062212 137 18344143709263695183
10366900 7 17418088819281189675
10863032 1 18342176721162252137
1100329 8 16893697347039686995
11132069 177 18413390938236800045
11370993 70 18412259553677806469
11578080 2 17749940064961394524
12011746 2 18413110563478651228
12107183 9 17908708332525145904
12236239 1 17846500318768791183
12251169 10 18411138052413638864
12403260 363 18341887455183509833
12553582 1 18269572571134924887
12633257 1 18201163152356655811
12670546 56 18130783482072353952
128620 24 15913053144227795965
13134695 92 18260264144533807372
13140716 1 18339936986318234363
13224815 77 18201727270736366663
13544653 18 18333452032166726828
13583140 156 17894348903881864555
13675066 3 18040159526013391875
14289901 80 15626233415629862325
14341114 328 17632866308196570545
14787075 74 17988358286407896072
14790565 3 17756714396798268916
15196674 1 18412825793597444471
15442244 35 18340208492664963450
15536298 74 18272093794616450678
15788980 27 18113900459294443585
1601671 61 18335706078786423900
16945 1 18270695164201877095
17349148 13 18343297067966674407
17492 89 18341614840683165886
17834072 14 18409727361277217541
1813 80 17240487996603573292
18186145 218 18271258191232594757
192875 21 18202276983558565737
200 152 18060131055515818301
20511986 3 18270661143401876550
20645477 70 18409726248923165294
20715895 44 18266453201419530725
21033648 29 18261098691039528433
21267235 1 18341622567344408430
23184049 59 18408042901148018526
23402539 116 18272927262684285509
23557571 272 16200443480700785571
23559900 14 18201722834372844574
296302 2 18201722863967980703
335352 9 18339361842635869391
439807 62 17982713467459452143
5104073 3 18413673517220852563
633830 44 16950282922815920373
9709674 26 18342747324842814894
9981440 41 17760644072381935800

>  <PUBCHEM_SHAPE_MULTIPOLES>  (1) 
455.72
9.38
2.36
1.28
0.72
0.33
-0.01
0.4
-1.5
1.24
-0.07
-0.83
-0.06
-0.65

>  <PUBCHEM_SHAPE_SELFOVERLAP>  (1) 
981.185

>  <PUBCHEM_SHAPE_VOLUME>  (1) 
248.8

>  <PUBCHEM_COORDINATE_TYPE>  (1) 
2
5
10

$$$$
