17301
     RDKit          3D

 15 17  0  0  0  0  0  0  0  0999 V2000
    4.1153    0.1881    0.0001 O   0  0  0  0  0  0  0  0  0  0  0  0
   -0.4751   -1.7597    0.0000 C   0  0  0  0  0  0  0  0  0  0  0  0
    0.5896   -0.6828   -0.0001 C   0  0  0  0  0  0  0  0  0  0  0  0
   -0.0038    0.5997   -0.0002 C   0  0  0  0  0  0  0  0  0  0  0  0
   -1.7464   -0.9367   -0.0001 C   0  0  0  0  0  0  0  0  0  0  0  0
   -1.4424    0.4432   -0.0002 C   0  0  0  0  0  0  0  0  0  0  0  0
    1.9642   -0.8434    0.0001 C   0  0  0  0  0  0  0  0  0  0  0  0
    0.7833    1.7390    0.0000 C   0  0  0  0  0  0  0  0  0  0  0  0
   -3.0543   -1.3891    0.0000 C   0  0  0  0  0  0  0  0  0  0  0  0
   -2.4561    1.3869    0.0000 C   0  0  0  0  0  0  0  0  0  0  0  0
    2.7573    0.3054    0.0001 C   0  0  0  0  0  0  0  0  0  0  0  0
    2.1729    1.5837    0.0000 C   0  0  0  0  0  0  0  0  0  0  0  0
   -4.0758   -0.4376    0.0002 C   0  0  0  0  0  0  0  0  0  0  0  0
   -3.7797    0.9365    0.0003 C   0  0  0  0  0  0  0  0  0  0  0  0
    4.6509   -1.1333    0.0001 C   0  0  0  0  0  0  0  0  0  0  0  0
  1 11  1  0
  1 15  1  0
  2  3  1  0
  2  5  1  0
  3  4  2  0
  3  7  1  0
  4  6  1  0
  4  8  1  0
  5  6  2  0
  5  9  1  0
  6 10  1  0
  7 11  2  0
  8 12  2  0
  9 13  2  0
 10 14  2  0
 11 12  1  0
 13 14  1  0
M  END
>  <PUBCHEM_COMPOUND_CID>  (1) 
17301

>  <PUBCHEM_CONFORMER_RMSD>  (1) 
0.6

>  <PUBCHEM_CONFORMER_DIVERSEORDER>  (1) 
1

>  <PUBCHEM_MMFF94_PARTIAL_CHARGES>  (1) 
20
1 -0.36
10 -0.15
11 0.08
12 -0.15
13 -0.15
14 -0.15
15 0.28
18 0.15
19 0.15
2 0.29
20 0.15
21 0.15
22 0.15
23 0.15
24 0.15
3 -0.14
5 -0.14
7 -0.15
8 -0.15
9 -0.15

>  <PUBCHEM_EFFECTIVE_ROTOR_COUNT>  (1) 
1.2

>  <PUBCHEM_PHARMACOPHORE_FEATURES>  (1) 
4
1 1 acceptor
5 2 3 4 5 6 rings
6 3 4 7 8 11 12 rings
6 5 6 9 10 13 14 rings

>  <PUBCHEM_HEAVY_ATOM_COUNT>  (1) 
15

>  <PUBCHEM_ATOM_DEF_STEREO_COUNT>  (1) 
0

>  <PUBCHEM_ATOM_UDEF_STEREO_COUNT>  (1) 
0

>  <PUBCHEM_BOND_DEF_STEREO_COUNT>  (1) 
0

>  <PUBCHEM_BOND_UDEF_STEREO_COUNT>  (1) 
0

>  <PUBCHEM_ISOTOPIC_ATOM_COUNT>  (1) 
0

>  <PUBCHEM_COMPONENT_COUNT>  (1) 
1

>  <PUBCHEM_CACTVS_TAUTO_COUNT>  (1) 
1

>  <PUBCHEM_CONFORMER_ID>  (1) 
0000439500000001

>  <PUBCHEM_MMFF94_ENERGY>  (1) 
58.9715

>  <PUBCHEM_FEATURE_SELFOVERLAP>  (1) 
20.462

>  <PUBCHEM_SHAPE_FINGERPRINT>  (1) 
10062212 137 18413100662967402751
10608611 8 18411415154760584593
10967382 1 18410575041787323943
11132069 177 18411694387531881472
11401426 45 18341888593497484274
11471102 20 18410852183115659332
12032990 46 18410859866938791242
12403259 226 18339917220841944521
124424 183 18334575737155214731
13140716 1 18411426145708320593
13221675 6 18409165519351628882
13288520 33 18412547579065361998
13380535 76 18411702080040185935
13675066 3 18272647974098895650
13690532 89 18410573976820057378
13862211 1 18410568470498352302
14115302 16 17895205419292861526
14144814 61 18410009944445187337
14325111 11 18410856598558499173
14790565 3 15677755057956038336
15196674 1 18410574010926679076
15309172 13 18341621420988956659
15375462 189 18040710325604650962
15442244 35 18410856564198734864
15536298 74 18342455984637221160
15775835 57 18260550000324126177
16945 1 18122625217247043269
17802600 8 18411132554533837557
17804303 29 18411704296074265236
18186145 218 17894904157090380263
18522853 276 18342175574474757400
19422 9 18260834829643947268
200 152 17988917890734488677
21267235 1 18410583889488798331
21501502 16 18267025135869132469
221490 88 18263651838484834306
23402539 116 18272925007820914069
23402655 69 18269824342941093797
23463225 33 18408322181269625956
23559900 14 18343862221813299056
2748010 2 18338515347790073677
335352 9 18338516339779826301
474 4 16734680899412959548
5104073 3 18411419543958296432
528886 8 18411132528494839673
53812653 166 18412823577383685904
54173680 148 18120376711816361603
69090 78 18201433713964125871
7364860 26 18197779010602473744
8809292 202 18261115218031147867
9709674 26 18339929310942884710
9981440 41 17326611908888966488

>  <PUBCHEM_SHAPE_MULTIPOLES>  (1) 
302.82
7.57
1.8
0.61
2.72
0.12
0
-1.04
0
-0.08
0
-0.03
0
0

>  <PUBCHEM_SHAPE_SELFOVERLAP>  (1) 
676.473

>  <PUBCHEM_SHAPE_VOLUME>  (1) 
163.8

>  <PUBCHEM_COORDINATE_TYPE>  (1) 
2
5
10

$$$$
