17307
     RDKit          3D

 11 11  0  0  0  0  0  0  0  0999 V2000
    1.7272    0.2827    0.0002 O   0  0  0  0  0  0  0  0  0  0  0  0
    1.1494   -1.9455    0.0009 O   0  0  0  0  0  0  0  0  0  0  0  0
   -0.6899    1.0785    0.0006 N   0  0  0  0  0  0  0  0  0  0  0  0
    3.1153   -0.0675   -0.0003 C   0  0  0  0  0  0  0  0  0  0  0  0
   -0.5423   -0.2652    0.0000 C   0  0  0  0  0  0  0  0  0  0  0  0
    0.8275   -0.7490    0.0008 C   0  0  0  0  0  0  0  0  0  0  0  0
   -1.5987   -1.1618   -0.0009 C   0  0  0  0  0  0  0  0  0  0  0  0
    3.9436    1.1998   -0.0010 C   0  0  0  0  0  0  0  0  0  0  0  0
   -2.8900   -0.6460   -0.0009 C   0  0  0  0  0  0  0  0  0  0  0  0
   -3.0825    0.7312   -0.0001 C   0  0  0  0  0  0  0  0  0  0  0  0
   -1.9596    1.5429    0.0007 C   0  0  0  0  0  0  0  0  0  0  0  0
  1  4  1  0
  1  6  1  0
  2  6  2  0
  3  5  2  0
  3 11  1  0
  4  8  1  0
  5  6  1  0
  5  7  1  0
  7  9  2  0
  9 10  1  0
 10 11  2  0
M  END
>  <PUBCHEM_COMPOUND_CID>  (1) 
17307

>  <PUBCHEM_CONFORMER_RMSD>  (1) 
0.6

>  <PUBCHEM_CONFORMER_DIVERSEORDER>  (1) 
1
7
8
14
3
4
13
10
9
2
11
5
6
12

>  <PUBCHEM_MMFF94_PARTIAL_CHARGES>  (1) 
14
1 -0.43
10 -0.15
11 0.16
17 0.15
18 0.15
19 0.15
2 -0.57
20 0.15
3 -0.62
4 0.28
5 0.4
6 0.63
7 -0.15
9 -0.15

>  <PUBCHEM_EFFECTIVE_ROTOR_COUNT>  (1) 
3

>  <PUBCHEM_PHARMACOPHORE_FEATURES>  (1) 
3
1 2 acceptor
1 3 acceptor
6 3 5 7 9 10 11 rings

>  <PUBCHEM_HEAVY_ATOM_COUNT>  (1) 
11

>  <PUBCHEM_ATOM_DEF_STEREO_COUNT>  (1) 
0

>  <PUBCHEM_ATOM_UDEF_STEREO_COUNT>  (1) 
0

>  <PUBCHEM_BOND_DEF_STEREO_COUNT>  (1) 
0

>  <PUBCHEM_BOND_UDEF_STEREO_COUNT>  (1) 
0

>  <PUBCHEM_ISOTOPIC_ATOM_COUNT>  (1) 
0

>  <PUBCHEM_COMPONENT_COUNT>  (1) 
1

>  <PUBCHEM_CACTVS_TAUTO_COUNT>  (1) 
1

>  <PUBCHEM_CONFORMER_ID>  (1) 
0000439B00000001

>  <PUBCHEM_MMFF94_ENERGY>  (1) 
23.1295

>  <PUBCHEM_FEATURE_SELFOVERLAP>  (1) 
15.223

>  <PUBCHEM_SHAPE_FINGERPRINT>  (1) 
10608611 8 18338515235941705780
12346645 44 18410292514796762010
12897270 3 18412544301414328431
12932764 1 17532374158053387555
13380535 21 18341343184053564179
13380535 76 18409446968579927098
14325111 11 18410575085069273796
14390081 3 18412544284245073672
14897335 6 18338229379950406823
15775835 57 18412829088032506840
16945 1 18410855477656223075
170605 34 18334858294817222394
18186145 218 18060149742966015280
20871998 184 18200881793719082743
21501502 16 18340482245053300419
23402655 69 18269822139696737061
23552423 10 18191304875536856163
2748010 2 18192999222981269151
369184 2 16588022394559137009
6333449 129 18413386549054510669
7364860 26 18197498424610094862

>  <PUBCHEM_SHAPE_MULTIPOLES>  (1) 
209.66
5.88
1.61
0.59
4.13
0.12
0
-1.91
0
-0.12
0
-0.02
-0.01
0

>  <PUBCHEM_SHAPE_SELFOVERLAP>  (1) 
428.421

>  <PUBCHEM_SHAPE_VOLUME>  (1) 
120.6

>  <PUBCHEM_COORDINATE_TYPE>  (1) 
2
5
10

$$$$
