1731
     RDKit          3D

  9  9  0  0  0  0  0  0  0  0999 V2000
   -2.8222    0.8367    0.0008 Cl  0  0  0  0  0  0  0  0  0  0  0  0
   -1.5423   -1.8841   -0.0008 O   0  0  0  0  0  0  0  0  0  0  0  0
    2.9440   -0.2928    0.0003 O   0  0  0  0  0  0  0  0  0  0  0  0
   -0.6745   -0.8326    0.0002 C   0  0  0  0  0  0  0  0  0  0  0  0
    1.6069   -0.0377    0.0001 C   0  0  0  0  0  0  0  0  0  0  0  0
    0.6957   -1.0938    0.0004 C   0  0  0  0  0  0  0  0  0  0  0  0
   -1.1335    0.4845   -0.0002 C   0  0  0  0  0  0  0  0  0  0  0  0
    1.1480    1.2795   -0.0004 C   0  0  0  0  0  0  0  0  0  0  0  0
   -0.2222    1.5405   -0.0005 C   0  0  0  0  0  0  0  0  0  0  0  0
  1  7  1  0
  2  4  1  0
  3  5  1  0
  4  6  2  0
  4  7  1  0
  5  6  1  0
  5  8  2  0
  7  9  2  0
  8  9  1  0
M  END
>  <PUBCHEM_COMPOUND_CID>  (1) 
1731

>  <PUBCHEM_CONFORMER_RMSD>  (1) 
0.4

>  <PUBCHEM_CONFORMER_DIVERSEORDER>  (1) 
1

>  <PUBCHEM_MMFF94_PARTIAL_CHARGES>  (1) 
14
1 -0.18
10 0.15
11 0.15
12 0.15
13 0.45
14 0.45
2 -0.53
3 -0.53
4 0.08
5 0.08
6 -0.15
7 0.18
8 -0.15
9 -0.15

>  <PUBCHEM_EFFECTIVE_ROTOR_COUNT>  (1) 
0

>  <PUBCHEM_PHARMACOPHORE_FEATURES>  (1) 
3
1 2 donor
1 3 donor
6 4 5 6 7 8 9 rings

>  <PUBCHEM_HEAVY_ATOM_COUNT>  (1) 
9

>  <PUBCHEM_ATOM_DEF_STEREO_COUNT>  (1) 
0

>  <PUBCHEM_ATOM_UDEF_STEREO_COUNT>  (1) 
0

>  <PUBCHEM_BOND_DEF_STEREO_COUNT>  (1) 
0

>  <PUBCHEM_BOND_UDEF_STEREO_COUNT>  (1) 
0

>  <PUBCHEM_ISOTOPIC_ATOM_COUNT>  (1) 
0

>  <PUBCHEM_COMPONENT_COUNT>  (1) 
1

>  <PUBCHEM_CACTVS_TAUTO_COUNT>  (1) 
9

>  <PUBCHEM_CONFORMER_ID>  (1) 
000006C300000001

>  <PUBCHEM_MMFF94_ENERGY>  (1) 
18.5218

>  <PUBCHEM_FEATURE_SELFOVERLAP>  (1) 
15.223

>  <PUBCHEM_SHAPE_FINGERPRINT>  (1) 
15310529 11 16660642908348714508
16945 1 18410575046056001924
18185500 45 18408039619581838874
193761 8 18050567640352334085
21040471 1 18410855421542203301
23235685 24 18340482266369881261
23402655 69 18051112711254266805
23552423 10 18116151249980711852
2748010 2 18267584791524621948
29004967 10 18188498968875147753
5084963 1 18271527605962191747

>  <PUBCHEM_SHAPE_MULTIPOLES>  (1) 
175.35
3.27
1.7
0.6
0.06
0.28
0
-0.27
0
0.41
0
0.03
-0.03
0

>  <PUBCHEM_SHAPE_SELFOVERLAP>  (1) 
358.488

>  <PUBCHEM_SHAPE_VOLUME>  (1) 
102.6

>  <PUBCHEM_COORDINATE_TYPE>  (1) 
2
5
10

$$$$
