17315
     RDKit          3D

 29 32  0  0  1  0  0  0  0  0999 V2000
   -1.3051   -0.4766    1.1490 F   0  0  0  0  0  0  0  0  0  0  0  0
    3.7373   -1.0784    0.0958 O   0  0  0  0  0  0  0  0  0  0  0  0
   -1.0043   -2.6819   -0.4876 O   0  0  0  0  0  0  0  0  0  0  0  0
    3.8414    2.3522   -0.0753 O   0  0  0  0  0  0  0  0  0  0  0  0
   -6.5791   -0.2510    1.4412 O   0  0  0  0  0  0  0  0  0  0  0  0
    5.2948   -0.1476    1.5259 O   0  0  0  0  0  0  0  0  0  0  0  0
    1.6657   -0.0048   -0.6967 C   0  0  0  0  0  0  0  0  0  0  0  0
    0.8342    1.1591   -0.1218 C   0  0  0  0  0  0  0  0  0  0  0  0
   -0.6692    1.1023   -0.4790 C   0  0  0  0  0  0  0  0  0  0  0  0
   -1.3516   -0.2729   -0.2108 C   0  0  0  0  0  0  0  0  0  0  0  0
    2.9874    0.1236    0.1076 C   0  0  0  0  0  0  0  0  0  0  0  0
    0.9649   -1.3546   -0.4133 C   0  0  0  0  0  0  0  0  0  0  0  0
   -2.8949   -0.2691   -0.6050 C   0  0  0  0  0  0  0  0  0  0  0  0
   -0.5034   -1.3993   -0.8539 C   0  0  0  0  0  0  0  0  0  0  0  0
    1.1797    1.1746    1.3800 C   0  0  0  0  0  0  0  0  0  0  0  0
    2.5449    0.4939    1.5260 C   0  0  0  0  0  0  0  0  0  0  0  0
   -1.4263    2.2392    0.2216 C   0  0  0  0  0  0  0  0  0  0  0  0
    1.8870    0.1361   -2.2150 C   0  0  0  0  0  0  0  0  0  0  0  0
   -3.5749    0.9824   -0.0213 C   0  0  0  0  0  0  0  0  0  0  0  0
   -2.8724    2.2996   -0.2398 C   0  0  0  0  0  0  0  0  0  0  0  0
   -3.5929   -1.5471   -0.0465 C   0  0  0  0  0  0  0  0  0  0  0  0
   -3.0873   -0.2415   -2.1398 C   0  0  0  0  0  0  0  0  0  0  0  0
    3.9231    1.1768   -0.4282 C   0  0  0  0  0  0  0  0  0  0  0  0
   -5.1117   -1.4643   -0.0085 C   0  0  0  0  0  0  0  0  0  0  0  0
   -4.7450    0.9770    0.6391 C   0  0  0  0  0  0  0  0  0  0  0  0
   -5.5486   -0.2567    0.7716 C   0  0  0  0  0  0  0  0  0  0  0  0
    4.9637    0.7191   -1.4141 C   0  0  0  0  0  0  0  0  0  0  0  0
    4.8785   -1.0810    0.8532 C   0  0  0  0  0  0  0  0  0  0  0  0
    5.5640   -2.4094    0.7457 C   0  0  0  0  0  0  0  0  0  0  0  0
  1 10  1  0
  2 11  1  0
  2 28  1  0
  3 14  1  0
  4 23  2  0
  5 26  2  0
  6 28  2  0
  7  8  1  0
  7 11  1  0
  7 12  1  0
  7 18  1  0
  8  9  1  0
  8 15  1  0
  9 10  1  0
  9 17  1  0
 10 13  1  0
 10 14  1  0
 11 16  1  0
 11 23  1  0
 12 14  1  0
 13 19  1  0
 13 21  1  0
 13 22  1  0
 15 16  1  0
 17 20  1  0
 19 20  1  0
 19 25  2  0
 21 24  1  0
 23 27  1  0
 24 26  1  0
 25 26  1  0
 28 29  1  0
M  END
>  <PUBCHEM_COMPOUND_CID>  (1) 
17315

>  <PUBCHEM_CONFORMER_RMSD>  (1) 
0.8

>  <PUBCHEM_CONFORMER_DIVERSEORDER>  (1) 
1
19
60
62
30
35
48
53
47
11
51
65
26
18
67
37
56
66
42
28
34
68
50
23
21
63
20
12
38
41
6
61
46
32
57
10
58
8
64
13
33
44
9
27
25
29
15
43
22
40
54
31
16
69
55
14
24
3
49
17
52
7
5
45
2
59
39
36
4

>  <PUBCHEM_MMFF94_PARTIAL_CHARGES>  (1) 
21
1 -0.34
10 0.34
11 0.34
13 0.14
14 0.28
19 -0.28
2 -0.43
20 0.14
23 0.45
24 0.06
25 -0.14
26 0.49
27 0.06
28 0.66
29 0.06
3 -0.68
4 -0.57
5 -0.57
53 0.4
54 0.15
6 -0.57

>  <PUBCHEM_EFFECTIVE_ROTOR_COUNT>  (1) 
4.8

>  <PUBCHEM_PHARMACOPHORE_FEATURES>  (1) 
9
1 3 acceptor
1 3 donor
1 4 acceptor
1 5 acceptor
1 6 acceptor
5 7 8 11 15 16 rings
6 13 19 21 24 25 26 rings
6 7 8 9 10 12 14 rings
6 9 10 13 17 19 20 rings

>  <PUBCHEM_HEAVY_ATOM_COUNT>  (1) 
29

>  <PUBCHEM_ATOM_DEF_STEREO_COUNT>  (1) 
2

>  <PUBCHEM_ATOM_UDEF_STEREO_COUNT>  (1) 
5

>  <PUBCHEM_BOND_DEF_STEREO_COUNT>  (1) 
0

>  <PUBCHEM_BOND_UDEF_STEREO_COUNT>  (1) 
0

>  <PUBCHEM_ISOTOPIC_ATOM_COUNT>  (1) 
0

>  <PUBCHEM_COMPONENT_COUNT>  (1) 
1

>  <PUBCHEM_CACTVS_TAUTO_COUNT>  (1) 
10

>  <PUBCHEM_CONFORMER_ID>  (1) 
000043A300000001

>  <PUBCHEM_MMFF94_ENERGY>  (1) 
99.3946

>  <PUBCHEM_FEATURE_SELFOVERLAP>  (1) 
45.863

>  <PUBCHEM_SHAPE_FINGERPRINT>  (1) 
10675989 125 16470643721262239616
10863032 1 18334855065191609380
11578080 2 17201346619441636728
11756154 67 17762621690685983710
12035758 1 18060131055072596632
12107183 9 17685487650749373168
12166972 35 17676493847323749884
12236239 1 17676491639932053389
12403259 415 18131347505504257952
12422481 6 18340210661533770543
12592029 89 18341055129150227834
12596602 18 17458348550177021001
12616971 3 18201712959747022638
12633257 1 17632291306596408859
12788726 201 17775016664783474552
13009979 54 18261397693851425964
13140716 1 18199179783756951899
13224815 77 18412826893256856453
13533116 47 18186803578164697034
13583140 156 17241309314224433309
13782708 43 17917430964654063327
13862211 1 18412259554279433639
14178342 30 18197787596094392417
14341114 176 18040157326937531619
14790565 3 18270130131316541261
15196674 1 18411136943916528597
15209289 33 18272930548856285271
15238133 3 16702029672732436297
15685185 35 17173796217137126140
15788980 27 18113333089745867180
16945 1 18199732795055680692
17349148 13 18113340794911895543
1813 80 17168424857868445726
200 152 13984659287475634061
21033648 29 17240747510758820236
21267235 1 18335989679508182162
21792934 111 18410566267829034793
22182313 1 17845379842751639853
23402539 116 18272077288766969061
23522609 53 18194714572679908409
23559900 14 18060149713133262582
3004659 81 18410580570143548086
3383291 50 18261105245381571890
350125 39 18411420579245906372
3680242 22 18342463629309554850
392239 28 18272094894328370043
4340502 62 14764634131310294447
465052 167 18113910389807523339
469060 322 18270138841678965065
5104073 3 18342175578785562553
7495541 125 18343862234049627520

>  <PUBCHEM_SHAPE_MULTIPOLES>  (1) 
560.19
12.67
2.21
1.5
1.46
0.12
-0.35
2.9
3.82
-0.41
0.07
-0.46
-0.01
-0.76

>  <PUBCHEM_SHAPE_SELFOVERLAP>  (1) 
1215.383

>  <PUBCHEM_SHAPE_VOLUME>  (1) 
305.7

>  <PUBCHEM_COORDINATE_TYPE>  (1) 
2
5
10

$$$$
