17321
     RDKit          3D

 15 17  0  0  0  0  0  0  0  0999 V2000
    0.3890   -0.3709    0.0003 C   0  0  0  0  0  0  0  0  0  0  0  0
   -1.0507   -0.3938    0.0001 C   0  0  0  0  0  0  0  0  0  0  0  0
    1.0619    0.8789    0.0003 C   0  0  0  0  0  0  0  0  0  0  0  0
   -1.7624    0.8344    0.0000 C   0  0  0  0  0  0  0  0  0  0  0  0
    0.3262    2.0668    0.0004 C   0  0  0  0  0  0  0  0  0  0  0  0
    2.4661    0.9349    0.0003 C   0  0  0  0  0  0  0  0  0  0  0  0
    1.2025   -1.5316    0.0004 C   0  0  0  0  0  0  0  0  0  0  0  0
   -1.0646    2.0449    0.0001 C   0  0  0  0  0  0  0  0  0  0  0  0
    3.2302   -0.2280    0.0003 C   0  0  0  0  0  0  0  0  0  0  0  0
   -1.8278   -1.5794    0.0001 C   0  0  0  0  0  0  0  0  0  0  0  0
    2.5983   -1.4618    0.0004 C   0  0  0  0  0  0  0  0  0  0  0  0
   -3.1678    0.8464   -0.0004 C   0  0  0  0  0  0  0  0  0  0  0  0
   -3.2249   -1.5533   -0.0001 C   0  0  0  0  0  0  0  0  0  0  0  0
   -3.8950   -0.3399   -0.0006 C   0  0  0  0  0  0  0  0  0  0  0  0
    4.7188   -0.1478   -0.0016 C   0  0  0  0  0  0  0  0  0  0  0  0
  1  2  2  0
  1  3  1  0
  1  7  1  0
  2  4  1  0
  2 10  1  0
  3  5  2  0
  3  6  1  0
  4  8  2  0
  4 12  1  0
  5  8  1  0
  6  9  2  0
  7 11  2  0
  9 11  1  0
  9 15  1  0
 10 13  2  0
 12 14  2  0
 13 14  1  0
M  END
>  <PUBCHEM_COMPOUND_CID>  (1) 
17321

>  <PUBCHEM_CONFORMER_RMSD>  (1) 
0.4

>  <PUBCHEM_CONFORMER_DIVERSEORDER>  (1) 
1

>  <PUBCHEM_MMFF94_PARTIAL_CHARGES>  (1) 
20
10 -0.15
11 -0.15
12 -0.15
13 -0.15
14 -0.15
15 0.14
16 0.15
17 0.15
18 0.15
19 0.15
20 0.15
21 0.15
22 0.15
23 0.15
24 0.15
5 -0.15
6 -0.15
7 -0.15
8 -0.15
9 -0.14

>  <PUBCHEM_EFFECTIVE_ROTOR_COUNT>  (1) 
0

>  <PUBCHEM_PHARMACOPHORE_FEATURES>  (1) 
3
6 1 2 3 4 5 8 rings
6 1 3 6 7 9 11 rings
6 2 4 10 12 13 14 rings

>  <PUBCHEM_HEAVY_ATOM_COUNT>  (1) 
15

>  <PUBCHEM_ATOM_DEF_STEREO_COUNT>  (1) 
0

>  <PUBCHEM_ATOM_UDEF_STEREO_COUNT>  (1) 
0

>  <PUBCHEM_BOND_DEF_STEREO_COUNT>  (1) 
0

>  <PUBCHEM_BOND_UDEF_STEREO_COUNT>  (1) 
0

>  <PUBCHEM_ISOTOPIC_ATOM_COUNT>  (1) 
0

>  <PUBCHEM_COMPONENT_COUNT>  (1) 
1

>  <PUBCHEM_CACTVS_TAUTO_COUNT>  (1) 
1

>  <PUBCHEM_CONFORMER_ID>  (1) 
000043A900000001

>  <PUBCHEM_MMFF94_ENERGY>  (1) 
50.1166

>  <PUBCHEM_FEATURE_SELFOVERLAP>  (1) 
15.272

>  <PUBCHEM_SHAPE_FINGERPRINT>  (1) 
10608611 8 18411414007782692513
10618630 7 18410012130467470412
10967382 1 18410856602605384231
11132069 177 18411695487228093136
11471102 20 18410288151030933021
11543360 7 15647341891236048111
11806522 49 18338232772969425822
12032990 46 18411141354626304483
12251169 10 18342746217141717865
12382932 28 18341332210364448907
13140716 1 18339366391111873737
13214271 11 18342452642777956278
13221675 6 18411419501077278766
13288520 33 18412547583402468854
14115302 16 17967823776855726319
14144814 61 18411700967511540699
15196674 1 18410574019521752004
15375462 189 18259704480066739779
15442244 35 18122062001169537346
15536298 74 18271525411482128552
16945 1 18338517443407111844
17804303 29 18342178881594319920
18522853 276 18412825793623720848
19107657 46 18411699880779326279
193761 8 17762336912145003971
19591789 44 16172866959902445045
200 152 18059848481027414895
20201158 50 18409448085371449443
20510252 161 18128818547103188784
20871998 184 18201999889300576775
21029758 11 18342731919164317601
21029758 27 18260557752735048173
21267235 1 18410583902426499683
21501502 16 18266459793824584138
221490 88 18119253010753160163
22721475 48 18410859862596325189
2334 1 18122626325306596005
23402539 116 18341040865542485574
23463225 33 18409449193404238708
23557571 272 18201166455666554300
23559900 14 18268707208920044566
2748010 2 18194396921061015141
2871803 45 18335698325795408926
3312278 4 18410012117535076281
335352 9 18122624950869400565
34934 24 18337664235437541203
427121 178 15765317092911317945
43471831 8 18262514789228461474
5104073 3 18410855460170386792
528886 8 18411414012082635914
7364860 26 18197497543746153857
8809292 202 18188494682582305923
9709674 26 18411986836324613454

>  <PUBCHEM_SHAPE_MULTIPOLES>  (1) 
308.69
6.79
2.04
0.62
2.4
0.37
0
-1.64
0
-0.52
0
0
0
0

>  <PUBCHEM_SHAPE_SELFOVERLAP>  (1) 
694.215

>  <PUBCHEM_SHAPE_VOLUME>  (1) 
151.5

>  <PUBCHEM_COORDINATE_TYPE>  (1) 
2
5
10

$$$$
