17334
     RDKit          3D

 19 21  0  0  1  0  0  0  0  0999 V2000
    4.8767    0.1640   -0.1669 Cl  0  0  0  0  0  0  0  0  0  0  0  0
   -0.2843   -1.1321   -2.1418 O   0  0  0  0  0  0  0  0  0  0  0  0
   -0.3358   -1.8934    1.3303 O   0  0  0  0  0  0  0  0  0  0  0  0
   -0.5009   -3.2315   -0.5456 O   0  0  0  0  0  0  0  0  0  0  0  0
   -0.3160   -0.8416   -0.7577 C   0  0  0  0  0  0  0  0  0  0  0  0
    0.9095   -0.0240   -0.3760 C   0  0  0  0  0  0  0  0  0  0  0  0
   -1.4483    0.1086   -0.4045 C   0  0  0  0  0  0  0  0  0  0  0  0
    0.5163    1.2349    0.1339 C   0  0  0  0  0  0  0  0  0  0  0  0
   -0.9293    1.3163    0.1162 C   0  0  0  0  0  0  0  0  0  0  0  0
    2.2475   -0.3719   -0.4763 C   0  0  0  0  0  0  0  0  0  0  0  0
   -2.8136   -0.0866   -0.5427 C   0  0  0  0  0  0  0  0  0  0  0  0
   -0.3965   -2.1363   -0.0100 C   0  0  0  0  0  0  0  0  0  0  0  0
    1.4650    2.1555    0.5488 C   0  0  0  0  0  0  0  0  0  0  0  0
   -1.7792    2.3381    0.5076 C   0  0  0  0  0  0  0  0  0  0  0  0
    3.2027    0.5563   -0.0582 C   0  0  0  0  0  0  0  0  0  0  0  0
   -3.6692    0.9436   -0.1480 C   0  0  0  0  0  0  0  0  0  0  0  0
    2.8154    1.8075    0.4496 C   0  0  0  0  0  0  0  0  0  0  0  0
   -3.1570    2.1438    0.3725 C   0  0  0  0  0  0  0  0  0  0  0  0
   -0.4031   -3.0512    2.1688 C   0  0  0  0  0  0  0  0  0  0  0  0
  1 15  1  0
  2  5  1  0
  3 12  1  0
  3 19  1  0
  4 12  2  0
  5  6  1  0
  5  7  1  0
  5 12  1  0
  6  8  2  0
  6 10  1  0
  7  9  2  0
  7 11  1  0
  8  9  1  0
  8 13  1  0
  9 14  1  0
 10 15  2  0
 11 16  2  0
 13 17  2  0
 14 18  2  0
 15 17  1  0
 16 18  1  0
M  END
>  <PUBCHEM_COMPOUND_CID>  (1) 
17334

>  <PUBCHEM_CONFORMER_RMSD>  (1) 
0.6

>  <PUBCHEM_CONFORMER_DIVERSEORDER>  (1) 
1
6
5
4
2
3

>  <PUBCHEM_MMFF94_PARTIAL_CHARGES>  (1) 
25
1 -0.18
10 -0.15
11 -0.15
12 0.66
13 -0.15
14 -0.15
15 0.18
16 -0.15
17 -0.15
18 -0.15
19 0.28
2 -0.68
20 0.15
21 0.15
22 0.15
23 0.15
24 0.4
25 0.15
26 0.15
27 0.15
3 -0.43
4 -0.57
5 0.63
6 -0.14
7 -0.14

>  <PUBCHEM_EFFECTIVE_ROTOR_COUNT>  (1) 
2.2

>  <PUBCHEM_PHARMACOPHORE_FEATURES>  (1) 
6
1 2 acceptor
1 2 donor
1 4 acceptor
5 5 6 7 8 9 rings
6 6 8 10 13 15 17 rings
6 7 9 11 14 16 18 rings

>  <PUBCHEM_HEAVY_ATOM_COUNT>  (1) 
19

>  <PUBCHEM_ATOM_DEF_STEREO_COUNT>  (1) 
0

>  <PUBCHEM_ATOM_UDEF_STEREO_COUNT>  (1) 
1

>  <PUBCHEM_BOND_DEF_STEREO_COUNT>  (1) 
0

>  <PUBCHEM_BOND_UDEF_STEREO_COUNT>  (1) 
0

>  <PUBCHEM_ISOTOPIC_ATOM_COUNT>  (1) 
0

>  <PUBCHEM_COMPONENT_COUNT>  (1) 
1

>  <PUBCHEM_CACTVS_TAUTO_COUNT>  (1) 
1

>  <PUBCHEM_CONFORMER_ID>  (1) 
000043B600000001

>  <PUBCHEM_MMFF94_ENERGY>  (1) 
57.3968

>  <PUBCHEM_FEATURE_SELFOVERLAP>  (1) 
30.616

>  <PUBCHEM_SHAPE_FINGERPRINT>  (1) 
10382601 240 17907595630916231721
10922049 32 18412268319801068077
10948715 1 18411419479539236168
10967382 1 18270963440422606621
11582403 64 13728997853955658487
12035759 4 17914018020441999725
12553582 1 17113260495112550990
12592029 89 18338238133231075489
12644460 14 17980773636436039057
13140716 1 18054506078323769952
13380535 76 18272370867130441796
14115302 16 18187373155495307764
14787075 74 18265893756069186935
14817 1 11268025307413903327
15209289 33 18413108338042234216
15309172 13 18412269410765414153
15852999 172 17240771636206695985
16945 1 18272082820563520437
20510252 161 18200875196522533625
20511035 2 18127412465316014852
20602899 9 16343709824351341494
20645476 183 18260842522073111420
20905425 154 17765435340143955156
21421861 104 17543079982688454505
21524375 3 18411418375790657061
22344851 341 18127136260095111185
2334 1 18343017804750902213
23402539 116 18272922838862728581
23419403 2 17122607133932609375
23558518 356 18264766751770427028
23559900 14 18272932731364654212
23728640 28 18272361010433971206
25 1 18340487755380394188
2748010 2 17190368128645318085
298252 57 17775279439392917543
3759504 43 18186810175139426956
4340502 62 18041853796898090449
43471831 8 18265330616572858067
54173680 148 18196369449263516558
6138700 20 18053951645797243302
69090 78 17917703621624870388
7364860 26 17980763731840059695
81228 2 17901940069556843745
81539 233 18191587449977631093
8809292 202 18338234980988771848
9709674 26 18201155580878133964
9981440 41 17266347616456677528

>  <PUBCHEM_SHAPE_MULTIPOLES>  (1) 
375.27
5.57
3.23
1.25
3.87
2.18
-0.17
-3.38
0.28
-1.12
-1.37
-0.2
1.08
0.07

>  <PUBCHEM_SHAPE_SELFOVERLAP>  (1) 
829.197

>  <PUBCHEM_SHAPE_VOLUME>  (1) 
203.9

>  <PUBCHEM_COORDINATE_TYPE>  (1) 
2
5
10

$$$$
