1733
     RDKit          3D

 13 14  0  0  0  0  0  0  0  0999 V2000
    1.0719    2.0938   -0.0003 N   0  0  0  0  0  0  0  0  0  0  0  0
    2.3695   -2.5301   -0.0013 N   0  0  0  0  0  0  0  0  0  0  0  0
   -0.3890   -0.3129    0.0006 C   0  0  0  0  0  0  0  0  0  0  0  0
   -1.0616    0.9265   -0.0001 C   0  0  0  0  0  0  0  0  0  0  0  0
    1.0107   -0.3242    0.0009 C   0  0  0  0  0  0  0  0  0  0  0  0
    1.6815    0.8893    0.0005 C   0  0  0  0  0  0  0  0  0  0  0  0
   -1.1416   -1.4987    0.0010 C   0  0  0  0  0  0  0  0  0  0  0  0
   -2.4661    0.9594   -0.0008 C   0  0  0  0  0  0  0  0  0  0  0  0
   -0.2803    2.0837   -0.0005 C   0  0  0  0  0  0  0  0  0  0  0  0
   -2.5369   -1.4544    0.0004 C   0  0  0  0  0  0  0  0  0  0  0  0
   -3.1976   -0.2282   -0.0004 C   0  0  0  0  0  0  0  0  0  0  0  0
    3.1763    0.9415    0.0004 C   0  0  0  0  0  0  0  0  0  0  0  0
    1.7632   -1.5459   -0.0004 C   0  0  0  0  0  0  0  0  0  0  0  0
  1  6  2  0
  1  9  1  0
  2 13  3  0
  3  4  1  0
  3  5  2  0
  3  7  1  0
  4  8  1  0
  4  9  2  0
  5  6  1  0
  5 13  1  0
  6 12  1  0
  7 10  2  0
  8 11  2  0
 10 11  1  0
M  END
>  <PUBCHEM_COMPOUND_CID>  (1) 
1733

>  <PUBCHEM_CONFORMER_RMSD>  (1) 
0.4

>  <PUBCHEM_CONFORMER_DIVERSEORDER>  (1) 
1

>  <PUBCHEM_MMFF94_PARTIAL_CHARGES>  (1) 
16
1 -0.62
10 -0.15
11 -0.15
12 0.14
13 0.48
14 0.15
15 0.15
16 0.15
17 0.15
18 0.15
2 -0.56
5 0.07
6 0.17
7 -0.15
8 -0.15
9 0.16

>  <PUBCHEM_EFFECTIVE_ROTOR_COUNT>  (1) 
0

>  <PUBCHEM_PHARMACOPHORE_FEATURES>  (1) 
4
1 1 acceptor
1 2 acceptor
6 1 3 4 5 6 9 rings
6 3 4 7 8 10 11 rings

>  <PUBCHEM_HEAVY_ATOM_COUNT>  (1) 
13

>  <PUBCHEM_ATOM_DEF_STEREO_COUNT>  (1) 
0

>  <PUBCHEM_ATOM_UDEF_STEREO_COUNT>  (1) 
0

>  <PUBCHEM_BOND_DEF_STEREO_COUNT>  (1) 
0

>  <PUBCHEM_BOND_UDEF_STEREO_COUNT>  (1) 
0

>  <PUBCHEM_ISOTOPIC_ATOM_COUNT>  (1) 
0

>  <PUBCHEM_COMPONENT_COUNT>  (1) 
1

>  <PUBCHEM_CACTVS_TAUTO_COUNT>  (1) 
1

>  <PUBCHEM_CONFORMER_ID>  (1) 
000006C500000001

>  <PUBCHEM_MMFF94_ENERGY>  (1) 
35.9355

>  <PUBCHEM_FEATURE_SELFOVERLAP>  (1) 
20.324

>  <PUBCHEM_SHAPE_FINGERPRINT>  (1) 
10967382 1 18410575127649746599
11132069 177 18337664330069454600
12382932 28 18412258449892395160
12524768 44 18410856534060052303
13140716 1 17979075216871213617
13380535 21 18337684060816584523
13380535 76 18335978782806952130
16945 1 18338799030258655045
17990270 104 18409727374162281771
193761 8 18266741277264862560
20201158 50 18336824298774613819
20588541 1 18335422416969563841
20645476 183 17463704443357183748
20645477 70 18411131421074272639
21501502 16 18340207392768239707
2334 1 18410856529590881731
23402655 69 18341035368949769565
23463225 33 18334851749408369568
23552423 10 18335987557482919759
23559900 14 17477198333365319118
241688 4 18193557765965980985
2748010 2 18338232652784064701
528886 8 18339356499628033040
53812653 166 18342737472177100000
63268167 104 18410858754684719097
7364860 26 18342457036867220386
8809292 202 17971193870231539987

>  <PUBCHEM_SHAPE_MULTIPOLES>  (1) 
257.57
4.4
2.44
0.6
0.38
0.41
0
0.63
0
-1.01
0
0.02
0
0

>  <PUBCHEM_SHAPE_SELFOVERLAP>  (1) 
565.91

>  <PUBCHEM_SHAPE_VOLUME>  (1) 
137.2

>  <PUBCHEM_COORDINATE_TYPE>  (1) 
2
5
10

$$$$
