17336
     RDKit          3D

 16 16  0  0  1  0  0  0  0  0999 V2000
   -2.3107   -1.5422    0.1128 O   0  0  0  0  0  0  0  0  0  0  0  0
   -0.8777   -1.4421   -1.8456 O   0  0  0  0  0  0  0  0  0  0  0  0
    0.2080    1.2238    1.8645 O   0  0  0  0  0  0  0  0  0  0  0  0
    2.9336   -2.2381    0.5829 O   0  0  0  0  0  0  0  0  0  0  0  0
    1.0763   -1.7754   -0.6906 N   0  0  0  0  0  0  0  0  0  0  0  0
    1.6182   -0.4441    1.1631 N   0  0  0  0  0  0  0  0  0  0  0  0
   -0.1413    0.3291   -0.3621 C   0  0  0  0  0  0  0  0  0  0  0  0
   -1.6151    0.7377   -0.2244 C   0  0  0  0  0  0  0  0  0  0  0  0
    0.5784    1.3256   -1.2885 C   0  0  0  0  0  0  0  0  0  0  0  0
   -2.3914   -0.2302    0.6627 C   0  0  0  0  0  0  0  0  0  0  0  0
   -0.0520   -1.0417   -1.0253 C   0  0  0  0  0  0  0  0  0  0  0  0
    0.5404    0.4133    1.0000 C   0  0  0  0  0  0  0  0  0  0  0  0
   -3.8563    0.1760    0.7531 C   0  0  0  0  0  0  0  0  0  0  0  0
    0.6046    2.6888   -0.6813 C   0  0  0  0  0  0  0  0  0  0  0  0
    1.9543   -1.5252    0.3571 C   0  0  0  0  0  0  0  0  0  0  0  0
    1.7306    3.3445   -0.3785 C   0  0  0  0  0  0  0  0  0  0  0  0
  1 10  1  0
  2 11  2  0
  3 12  2  0
  4 15  2  0
  5 11  1  0
  5 15  1  0
  6 12  1  0
  6 15  1  0
  7  8  1  0
  7  9  1  0
  7 11  1  0
  7 12  1  0
  8 10  1  0
  9 14  1  0
 10 13  1  0
 14 16  2  0
M  END
>  <PUBCHEM_COMPOUND_CID>  (1) 
17336

>  <PUBCHEM_CONFORMER_RMSD>  (1) 
0.6

>  <PUBCHEM_CONFORMER_DIVERSEORDER>  (1) 
9
12
15
21
10
4
14
1
3
18
5
22
20
2
11
13
17
7
6
19
16
8

>  <PUBCHEM_MMFF94_PARTIAL_CHARGES>  (1) 
20
1 -0.68
10 0.28
11 0.57
12 0.57
14 -0.29
15 0.69
16 -0.3
2 -0.57
22 0.37
23 0.37
27 0.15
28 0.4
29 0.15
3 -0.57
30 0.15
4 -0.57
5 -0.49
6 -0.49
7 0.12
9 0.14

>  <PUBCHEM_EFFECTIVE_ROTOR_COUNT>  (1) 
4.6

>  <PUBCHEM_PHARMACOPHORE_FEATURES>  (1) 
9
1 1 acceptor
1 1 donor
1 16 hydrophobe
1 2 acceptor
1 3 acceptor
1 4 acceptor
1 5 donor
1 6 donor
6 5 6 7 11 12 15 rings

>  <PUBCHEM_HEAVY_ATOM_COUNT>  (1) 
16

>  <PUBCHEM_ATOM_DEF_STEREO_COUNT>  (1) 
0

>  <PUBCHEM_ATOM_UDEF_STEREO_COUNT>  (1) 
1

>  <PUBCHEM_BOND_DEF_STEREO_COUNT>  (1) 
0

>  <PUBCHEM_BOND_UDEF_STEREO_COUNT>  (1) 
0

>  <PUBCHEM_ISOTOPIC_ATOM_COUNT>  (1) 
0

>  <PUBCHEM_COMPONENT_COUNT>  (1) 
1

>  <PUBCHEM_CACTVS_TAUTO_COUNT>  (1) 
5

>  <PUBCHEM_CONFORMER_ID>  (1) 
000043B800000009

>  <PUBCHEM_MMFF94_ENERGY>  (1) 
46.9267

>  <PUBCHEM_FEATURE_SELFOVERLAP>  (1) 
45.741

>  <PUBCHEM_SHAPE_FINGERPRINT>  (1) 
10702982 57 17616257326113176604
10922049 32 17759545629900153565
12592029 89 18191321565732217872
13024252 1 14999125700397367962
14817 1 12473076002575773208
15852999 172 16611647304600084098
16945 1 18336265729503153157
18534176 82 17615395966353544700
19837323 101 17257102986760982404
20511035 2 18201154442527177483
21524375 3 17837508692665006781
22344851 341 18051994789291438708
23419403 2 17983265197966031297
2748010 2 18123447424475156308
305870 269 18119818164077623277
430814 3 17977949316980357277
528862 383 18337111288294095293
68419 9 17769642428103270005
7364860 26 18336273439180705929
81228 2 17614856105954675245

>  <PUBCHEM_SHAPE_MULTIPOLES>  (1) 
295.83
3.68
2.99
1.42
3.47
1.06
0.01
-0.2
-1.05
-3.06
0.4
-0.05
-0.1
-0.69

>  <PUBCHEM_SHAPE_SELFOVERLAP>  (1) 
610.37

>  <PUBCHEM_SHAPE_VOLUME>  (1) 
166

>  <PUBCHEM_COORDINATE_TYPE>  (1) 
2
5
10

$$$$
