17342
     RDKit          3D

 15 15  0  0  0  0  0  0  0  0999 V2000
    3.2308    0.9688   -0.3251 Cl  0  0  0  0  0  0  0  0  0  0  0  0
   -1.9038    2.6768    0.4788 Cl  0  0  0  0  0  0  0  0  0  0  0  0
    1.1895    3.3415    0.2086 Cl  0  0  0  0  0  0  0  0  0  0  0  0
   -0.7321   -2.2103   -0.2667 O   0  0  0  0  0  0  0  0  0  0  0  0
   -2.5212   -0.1884    0.1920 O   0  0  0  0  0  0  0  0  0  0  0  0
    1.9426   -1.6735   -0.5076 O   0  0  0  0  0  0  0  0  0  0  0  0
   -0.2876   -0.9256   -0.1574 C   0  0  0  0  0  0  0  0  0  0  0  0
   -1.1940    0.1083    0.0767 C   0  0  0  0  0  0  0  0  0  0  0  0
    1.0736   -0.6459   -0.2792 C   0  0  0  0  0  0  0  0  0  0  0  0
    1.5284    0.6680   -0.1668 C   0  0  0  0  0  0  0  0  0  0  0  0
   -0.7393    1.4222    0.1889 C   0  0  0  0  0  0  0  0  0  0  0  0
    0.6219    1.7021    0.0672 C   0  0  0  0  0  0  0  0  0  0  0  0
   -1.4136   -2.7568    0.8598 C   0  0  0  0  0  0  0  0  0  0  0  0
   -3.2929   -0.1715   -1.0059 C   0  0  0  0  0  0  0  0  0  0  0  0
    2.4976   -2.3158    0.6368 C   0  0  0  0  0  0  0  0  0  0  0  0
  1 10  1  0
  2 11  1  0
  3 12  1  0
  4  7  1  0
  4 13  1  0
  5  8  1  0
  5 14  1  0
  6  9  1  0
  6 15  1  0
  7  8  2  0
  7  9  1  0
  8 11  1  0
  9 10  2  0
 10 12  1  0
 11 12  2  0
M  END
>  <PUBCHEM_COMPOUND_CID>  (1) 
17342

>  <PUBCHEM_CONFORMER_RMSD>  (1) 
0.6

>  <PUBCHEM_CONFORMER_DIVERSEORDER>  (1) 
2
1
3

>  <PUBCHEM_MMFF94_PARTIAL_CHARGES>  (1) 
15
1 -0.18
10 0.18
11 0.18
12 0.18
13 0.28
14 0.28
15 0.28
2 -0.18
3 -0.18
4 -0.36
5 -0.36
6 -0.36
7 0.08
8 0.08
9 0.08

>  <PUBCHEM_EFFECTIVE_ROTOR_COUNT>  (1) 
3

>  <PUBCHEM_PHARMACOPHORE_FEATURES>  (1) 
4
1 4 acceptor
1 5 acceptor
1 6 acceptor
6 7 8 9 10 11 12 rings

>  <PUBCHEM_HEAVY_ATOM_COUNT>  (1) 
15

>  <PUBCHEM_ATOM_DEF_STEREO_COUNT>  (1) 
0

>  <PUBCHEM_ATOM_UDEF_STEREO_COUNT>  (1) 
0

>  <PUBCHEM_BOND_DEF_STEREO_COUNT>  (1) 
0

>  <PUBCHEM_BOND_UDEF_STEREO_COUNT>  (1) 
0

>  <PUBCHEM_ISOTOPIC_ATOM_COUNT>  (1) 
0

>  <PUBCHEM_COMPONENT_COUNT>  (1) 
1

>  <PUBCHEM_CACTVS_TAUTO_COUNT>  (1) 
1

>  <PUBCHEM_CONFORMER_ID>  (1) 
000043BE00000002

>  <PUBCHEM_MMFF94_ENERGY>  (1) 
70.693

>  <PUBCHEM_FEATURE_SELFOVERLAP>  (1) 
20.309

>  <PUBCHEM_SHAPE_FINGERPRINT>  (1) 
10967382 1 18411420643501786132
11680986 33 18410574036870725178
12423570 1 11045897600251439619
13140716 1 18051414260010858672
13380535 76 18338229470297947694
14617773 55 18059292041986139721
14761567 1 18337121153833974494
16945 1 18338803415251556696
193761 8 18411425050201437928
20588541 1 18337109072091022645
21501502 16 18268148660712002708
2334 1 18339364054528468436
23388829 49 17686893921683990450
23419403 2 17481091887778050529
23526114 1 18266740186216666388
23559900 14 18198354051574791868
241688 4 18124312709781798800
2748010 2 18267590104446808756
81228 2 17764874597729675960

>  <PUBCHEM_SHAPE_MULTIPOLES>  (1) 
296.69
4.04
3.79
0.81
0.16
0.49
0.01
-0.17
0.61
-0.56
-0.98
0.22
-0.12
-0.01

>  <PUBCHEM_SHAPE_SELFOVERLAP>  (1) 
588.774

>  <PUBCHEM_SHAPE_VOLUME>  (1) 
180.8

>  <PUBCHEM_COORDINATE_TYPE>  (1) 
2
5
10

$$$$
