17354
     RDKit          3D

 10 10  0  0  0  0  0  0  0  0999 V2000
    3.6419    0.9153    0.2279 N   0  0  0  0  0  0  0  0  0  0  0  0
   -3.6416    0.9154   -0.2292 N   0  0  0  0  0  0  0  0  0  0  0  0
    1.4684   -0.2289    0.2291 C   0  0  0  0  0  0  0  0  0  0  0  0
   -1.4682   -0.2288   -0.2287 C   0  0  0  0  0  0  0  0  0  0  0  0
    0.7282    1.0340   -0.2297 C   0  0  0  0  0  0  0  0  0  0  0  0
    0.7282   -1.4913   -0.2304 C   0  0  0  0  0  0  0  0  0  0  0  0
   -0.7284    1.0337    0.2312 C   0  0  0  0  0  0  0  0  0  0  0  0
   -0.7282   -1.4914    0.2307 C   0  0  0  0  0  0  0  0  0  0  0  0
    2.9060   -0.2290   -0.2870 C   0  0  0  0  0  0  0  0  0  0  0  0
   -2.9063   -0.2291    0.2861 C   0  0  0  0  0  0  0  0  0  0  0  0
  1  9  1  0
  2 10  1  0
  3  5  1  0
  3  6  1  0
  3  9  1  0
  4  7  1  0
  4  8  1  0
  4 10  1  0
  5  7  1  0
  6  8  1  0
M  END
>  <PUBCHEM_COMPOUND_CID>  (1) 
17354

>  <PUBCHEM_CONFORMER_RMSD>  (1) 
0.6

>  <PUBCHEM_CONFORMER_DIVERSEORDER>  (1) 
1
3
8
7
5
4
2
6

>  <PUBCHEM_MMFF94_PARTIAL_CHARGES>  (1) 
8
1 -0.99
10 0.27
2 -0.99
25 0.36
26 0.36
27 0.36
28 0.36
9 0.27

>  <PUBCHEM_EFFECTIVE_ROTOR_COUNT>  (1) 
3.2

>  <PUBCHEM_PHARMACOPHORE_FEATURES>  (1) 
5
1 1 cation
1 1 donor
1 2 cation
1 2 donor
6 3 4 5 6 7 8 rings

>  <PUBCHEM_HEAVY_ATOM_COUNT>  (1) 
10

>  <PUBCHEM_ATOM_DEF_STEREO_COUNT>  (1) 
0

>  <PUBCHEM_ATOM_UDEF_STEREO_COUNT>  (1) 
0

>  <PUBCHEM_BOND_DEF_STEREO_COUNT>  (1) 
0

>  <PUBCHEM_BOND_UDEF_STEREO_COUNT>  (1) 
0

>  <PUBCHEM_ISOTOPIC_ATOM_COUNT>  (1) 
0

>  <PUBCHEM_COMPONENT_COUNT>  (1) 
1

>  <PUBCHEM_CACTVS_TAUTO_COUNT>  (1) 
1

>  <PUBCHEM_CONFORMER_ID>  (1) 
000043CA00000001

>  <PUBCHEM_MMFF94_ENERGY>  (1) 
3.5755

>  <PUBCHEM_FEATURE_SELFOVERLAP>  (1) 
25.371

>  <PUBCHEM_SHAPE_FINGERPRINT>  (1) 
10219947 1 18408606945969771740
11062470 55 18410855460144167949
13380535 76 18410573989446847174
14325111 11 18410575088963340451
15310529 11 16515954913284947554
16945 1 18410864256221248966
17846911 113 18341604928214170400
20201158 50 18410576162863569411
20645476 183 17750816491576881846
21040471 1 18338517542312652963
21293036 1 18341610434224963775
23235685 24 18410569591399907334
23402539 116 18272640251900652372
23402655 69 18268414760565708757
23552423 10 17972037204413687966
2748010 2 18123753316061168397
29004967 10 18334301937543551011
528886 8 18411976970631299019
53812653 166 18413385449332022984

>  <PUBCHEM_SHAPE_MULTIPOLES>  (1) 
195.83
5.16
1.45
0.66
0
0.28
0
-1.57
0
0
0
0
0.01
0.17

>  <PUBCHEM_SHAPE_SELFOVERLAP>  (1) 
374.688

>  <PUBCHEM_SHAPE_VOLUME>  (1) 
116.5

>  <PUBCHEM_COORDINATE_TYPE>  (1) 
2
5
10

$$$$
