17352
     RDKit          3D

  5  5  0  0  1  0  0  0  0  0999 V2000
   -1.2501    0.8205    0.1993 N   0  0  0  0  0  0  0  0  0  0  0  0
   -0.2810   -0.0411   -0.4265 C   0  0  0  0  0  0  0  0  0  0  0  0
   -1.6077   -0.5730   -0.0328 C   0  0  0  0  0  0  0  0  0  0  0  0
    0.9373   -0.4332    0.3922 C   0  0  0  0  0  0  0  0  0  0  0  0
    2.2015    0.2267   -0.1322 C   0  0  0  0  0  0  0  0  0  0  0  0
  1  2  1  0
  1  3  1  0
  2  3  1  0
  2  4  1  0
  4  5  1  0
M  END
>  <PUBCHEM_COMPOUND_CID>  (1) 
17352

>  <PUBCHEM_CONFORMER_RMSD>  (1) 
0.4

>  <PUBCHEM_CONFORMER_DIVERSEORDER>  (1) 
1
4
5
6
2
3

>  <PUBCHEM_MMFF94_PARTIAL_CHARGES>  (1) 
8
1 -0.68
2 -0.04
3 -0.04
4 0.09
6 0.1
7 0.1
8 0.1
9 0.36

>  <PUBCHEM_EFFECTIVE_ROTOR_COUNT>  (1) 
1.6

>  <PUBCHEM_PHARMACOPHORE_FEATURES>  (1) 
3
1 1 cation
1 1 donor
1 5 hydrophobe

>  <PUBCHEM_HEAVY_ATOM_COUNT>  (1) 
5

>  <PUBCHEM_ATOM_DEF_STEREO_COUNT>  (1) 
0

>  <PUBCHEM_ATOM_UDEF_STEREO_COUNT>  (1) 
1

>  <PUBCHEM_BOND_DEF_STEREO_COUNT>  (1) 
0

>  <PUBCHEM_BOND_UDEF_STEREO_COUNT>  (1) 
0

>  <PUBCHEM_ISOTOPIC_ATOM_COUNT>  (1) 
0

>  <PUBCHEM_COMPONENT_COUNT>  (1) 
1

>  <PUBCHEM_CACTVS_TAUTO_COUNT>  (1) 
1

>  <PUBCHEM_CONFORMER_ID>  (1) 
000043C800000001

>  <PUBCHEM_MMFF94_ENERGY>  (1) 
5.5374

>  <PUBCHEM_FEATURE_SELFOVERLAP>  (1) 
15.223

>  <PUBCHEM_SHAPE_FINGERPRINT>  (1) 
139733 1 9511193957501129175
16714656 1 18131072674788790918
20096714 4 18410293588454300312
24536 1 18339910529066203734
29004967 10 15647059252307265552
5460574 1 8862949376754510174

>  <PUBCHEM_SHAPE_MULTIPOLES>  (1) 
97.92
2.61
0.82
0.68
0.92
0.03
-0.01
0.07
-0.03
-0.17
0.04
0.02
-0.01
-0.1

>  <PUBCHEM_SHAPE_SELFOVERLAP>  (1) 
175.113

>  <PUBCHEM_SHAPE_VOLUME>  (1) 
65.3

>  <PUBCHEM_COORDINATE_TYPE>  (1) 
2
5
10

$$$$
