17356
     RDKit          3D

 14 15  0  0  0  0  0  0  0  0999 V2000
    0.6436   -0.8194    1.4314 S   0  0  0  0  0  0  0  0  0  0  0  0
   -0.6370    0.7861    1.4385 S   0  0  0  0  0  0  0  0  0  0  0  0
    1.8571   -0.3044    0.1700 C   0  0  0  0  0  0  0  0  0  0  0  0
   -1.8557    0.2962    0.1719 C   0  0  0  0  0  0  0  0  0  0  0  0
    2.5329    1.0030    0.5938 C   0  0  0  0  0  0  0  0  0  0  0  0
    2.8838   -1.4180   -0.0568 C   0  0  0  0  0  0  0  0  0  0  0  0
   -2.5382   -1.0134    0.5780 C   0  0  0  0  0  0  0  0  0  0  0  0
   -2.8765    1.4188   -0.0367 C   0  0  0  0  0  0  0  0  0  0  0  0
    3.5978    1.4261   -0.4180 C   0  0  0  0  0  0  0  0  0  0  0  0
    3.9479   -0.9890   -1.0670 C   0  0  0  0  0  0  0  0  0  0  0  0
   -3.6072   -1.4158   -0.4378 C   0  0  0  0  0  0  0  0  0  0  0  0
   -3.9448    1.0104   -1.0511 C   0  0  0  0  0  0  0  0  0  0  0  0
    4.6197    0.3184   -0.6573 C   0  0  0  0  0  0  0  0  0  0  0  0
   -4.6233   -0.2990   -0.6590 C   0  0  0  0  0  0  0  0  0  0  0  0
  1  2  1  0
  1  3  1  0
  2  4  1  0
  3  5  1  0
  3  6  1  0
  4  7  1  0
  4  8  1  0
  5  9  1  0
  6 10  1  0
  7 11  1  0
  8 12  1  0
  9 13  1  0
 10 13  1  0
 11 14  1  0
 12 14  1  0
M  END
>  <PUBCHEM_COMPOUND_CID>  (1) 
17356

>  <PUBCHEM_CONFORMER_RMSD>  (1) 
0.6

>  <PUBCHEM_CONFORMER_DIVERSEORDER>  (1) 
1
67
26
47
55
44
70
29
12
14
40
19
71
64
41
48
11
34
32
66
21
69
62
59
4
65
61
17
36
39
9
15
22
25
16
6
60
3
13
52
18
42
23
28
63
43
27
68
49
51
7
2
46
33
54
24
5
58
53
50
31
56
30
45
38
20
35
57
37
8
10

>  <PUBCHEM_MMFF94_PARTIAL_CHARGES>  (1) 
4
1 -0.23
2 -0.23
3 0.23
4 0.23

>  <PUBCHEM_EFFECTIVE_ROTOR_COUNT>  (1) 
5.4

>  <PUBCHEM_PHARMACOPHORE_FEATURES>  (1) 
2
6 3 5 6 9 10 13 rings
6 4 7 8 11 12 14 rings

>  <PUBCHEM_HEAVY_ATOM_COUNT>  (1) 
14

>  <PUBCHEM_ATOM_DEF_STEREO_COUNT>  (1) 
0

>  <PUBCHEM_ATOM_UDEF_STEREO_COUNT>  (1) 
0

>  <PUBCHEM_BOND_DEF_STEREO_COUNT>  (1) 
0

>  <PUBCHEM_BOND_UDEF_STEREO_COUNT>  (1) 
0

>  <PUBCHEM_ISOTOPIC_ATOM_COUNT>  (1) 
0

>  <PUBCHEM_COMPONENT_COUNT>  (1) 
1

>  <PUBCHEM_CACTVS_TAUTO_COUNT>  (1) 
1

>  <PUBCHEM_CONFORMER_ID>  (1) 
000043CC00000001

>  <PUBCHEM_MMFF94_ENERGY>  (1) 
4.0888

>  <PUBCHEM_FEATURE_SELFOVERLAP>  (1) 
10.149

>  <PUBCHEM_SHAPE_FINGERPRINT>  (1) 
10498660 4 17822282470833201805
11543360 7 18410855473013063699
12670546 177 18410856563934757127
12707595 3 16630520747802224010
13705890 14 18059857259929940400
14123260 362 16371011801675199249
14252887 29 12751519566079130630
14576447 43 17917999360857695598
15239191 94 15626223519861539119
1798214 20 17775283854819699092
1813 80 14908186369163814008
18186145 218 18334298651698390968
18915474 69 17775002422740037518
19862831 5 18410855442953567635
200 152 17918277541093232800
20281475 54 17203614756868050419
20361792 2 15841828949780799937
204376 136 14201397183747537897
20645477 70 18272938193766521934
20671657 53 17346599689924512137
20767249 442 16370725937342138960
20871999 31 18412824685981048913
21713013 43 18343862242728920959
22646028 28 16056880225617809156
23402539 116 17967248707074177772
23402655 69 18409453566071394604
23557571 272 17750806630104987171
23559900 14 18343575240129352392
23596394 208 18202275914111520704
23598291 2 18045496422168348899
328317 168 17385442145788609480
4028521 119 17894909611915234573
42 15 10664103358726508269
474 4 16370728131901641637
4921388 177 18040443221752302731
4990 188 18409731751039768566
5281201 14 18409454682551856252
548570 60 16588023523993111164
5924683 9 7925615688712446121
633830 44 16298667183362477899
90316 7 11455897992191029379
93112 12 18410855442948292640

>  <PUBCHEM_SHAPE_MULTIPOLES>  (1) 
295.81
10.17
1.6
1.26
0.03
0
-0.28
0.05
4.71
0
0.07
-0.01
-0.01
0.24

>  <PUBCHEM_SHAPE_SELFOVERLAP>  (1) 
555.211

>  <PUBCHEM_SHAPE_VOLUME>  (1) 
182.8

>  <PUBCHEM_COORDINATE_TYPE>  (1) 
2
5
10

$$$$
