17353
     RDKit          3D

 24 25  0  0  1  0  0  0  0  0999 V2000
   -1.9669   -1.5673   -0.2238 O   0  0  0  0  0  0  0  0  0  0  0  0
    2.4707   -1.7645   -1.9468 O   0  0  0  0  0  0  0  0  0  0  0  0
    4.2362   -1.8568    0.9482 O   0  0  0  0  0  0  0  0  0  0  0  0
   -4.1213   -0.4469   -0.2280 C   0  0  0  0  0  0  0  0  0  0  0  0
   -5.1202    0.2737    0.7019 C   0  0  0  0  0  0  0  0  0  0  0  0
   -3.8666    0.2806   -1.5672 C   0  0  0  0  0  0  0  0  0  0  0  0
   -6.5063    0.4698    0.0791 C   0  0  0  0  0  0  0  0  0  0  0  0
   -2.8205   -0.7279    0.5419 C   0  0  0  0  0  0  0  0  0  0  0  0
   -7.4842    1.2006    1.0033 C   0  0  0  0  0  0  0  0  0  0  0  0
   -3.2632    1.6729   -1.4427 C   0  0  0  0  0  0  0  0  0  0  0  0
   -8.8544    1.4214    0.3810 C   0  0  0  0  0  0  0  0  0  0  0  0
   -0.6177   -1.4083   -0.0417 C   0  0  0  0  0  0  0  0  0  0  0  0
    0.2533   -1.6677   -1.0936 C   0  0  0  0  0  0  0  0  0  0  0  0
   -0.1347   -0.9877    1.1920 C   0  0  0  0  0  0  0  0  0  0  0  0
    2.1186   -1.0824    0.3261 C   0  0  0  0  0  0  0  0  0  0  0  0
    1.6264   -1.5042   -0.9090 C   0  0  0  0  0  0  0  0  0  0  0  0
    1.2381   -0.8243    1.3767 C   0  0  0  0  0  0  0  0  0  0  0  0
    3.5484   -0.9096    0.5419 C   0  0  0  0  0  0  0  0  0  0  0  0
    4.2435    0.3876    0.2898 C   0  0  0  0  0  0  0  0  0  0  0  0
    3.5019    1.4550   -0.1615 C   0  0  0  0  0  0  0  0  0  0  0  0
    5.5979    0.4646    0.5191 C   0  0  0  0  0  0  0  0  0  0  0  0
    4.1509    2.6670   -0.3967 C   0  0  0  0  0  0  0  0  0  0  0  0
    6.2469    1.6767    0.2839 C   0  0  0  0  0  0  0  0  0  0  0  0
    5.5233    2.7779   -0.1739 C   0  0  0  0  0  0  0  0  0  0  0  0
  1  8  1  0
  1 12  1  0
  2 16  1  0
  3 18  2  0
  4  5  1  0
  4  6  1  0
  4  8  1  0
  5  7  1  0
  6 10  1  0
  7  9  1  0
  9 11  1  0
 12 13  2  0
 12 14  1  0
 13 16  1  0
 14 17  2  0
 15 16  2  0
 15 17  1  0
 15 18  1  0
 18 19  1  0
 19 20  2  0
 19 21  1  0
 20 22  1  0
 21 23  2  0
 22 24  2  0
 23 24  1  0
M  END
>  <PUBCHEM_COMPOUND_CID>  (1) 
17353

>  <PUBCHEM_CONFORMER_RMSD>  (1) 
1

>  <PUBCHEM_CONFORMER_DIVERSEORDER>  (1) 
3
61
34
87
75
53
26
37
95
14
42
63
65
67
86
81
12
8
59
48
18
55
41
9
45
72
36
83
57
47
39
19
79
62
49
94
78
38
13
84
89
54
5
64
35
40
43
76
17
77
70
50
90
16
44
68
22
85
66
58
25
4
29
7
71
15
10
2
52
92
82
6
56
11
80
24
1
91
93
32
69
21
27
60
46
74
28
31
20
30
51
23
73
88
33

>  <PUBCHEM_MMFF94_PARTIAL_CHARGES>  (1) 
26
1 -0.36
12 0.08
13 -0.15
14 -0.15
15 0.09
16 0.08
17 -0.15
18 0.4
19 0.09
2 -0.53
20 -0.15
21 -0.15
22 -0.15
23 -0.15
24 -0.15
3 -0.57
42 0.15
43 0.15
44 0.15
45 0.45
46 0.15
47 0.15
48 0.15
49 0.15
50 0.15
8 0.28

>  <PUBCHEM_EFFECTIVE_ROTOR_COUNT>  (1) 
9

>  <PUBCHEM_PHARMACOPHORE_FEATURES>  (1) 
8
1 1 acceptor
1 10 hydrophobe
1 11 hydrophobe
1 2 donor
1 3 acceptor
5 4 5 6 7 9 hydrophobe
6 12 13 14 15 16 17 rings
6 19 20 21 22 23 24 rings

>  <PUBCHEM_HEAVY_ATOM_COUNT>  (1) 
24

>  <PUBCHEM_ATOM_DEF_STEREO_COUNT>  (1) 
0

>  <PUBCHEM_ATOM_UDEF_STEREO_COUNT>  (1) 
1

>  <PUBCHEM_BOND_DEF_STEREO_COUNT>  (1) 
0

>  <PUBCHEM_BOND_UDEF_STEREO_COUNT>  (1) 
0

>  <PUBCHEM_ISOTOPIC_ATOM_COUNT>  (1) 
0

>  <PUBCHEM_COMPONENT_COUNT>  (1) 
1

>  <PUBCHEM_CACTVS_TAUTO_COUNT>  (1) 
5

>  <PUBCHEM_CONFORMER_ID>  (1) 
000043C900000003

>  <PUBCHEM_MMFF94_ENERGY>  (1) 
69.7975

>  <PUBCHEM_FEATURE_SELFOVERLAP>  (1) 
40.598

>  <PUBCHEM_SHAPE_FINGERPRINT>  (1) 
10 15 17385443232663391785
10411042 1 17832987153461096058
10554248 39 17988071185150758623
106641 1 14201402703054644078
10673678 19 18201162151597809097
117089 54 11026888277423028632
11796584 16 13326557558857594847
125118 31 18339927018200462713
12633257 1 16010142293583776188
13103583 49 12180118731388898263
13533116 47 17531243894676473155
13540713 5 16054937289835566458
13685833 64 8574712395169944009
13782708 43 8574713490587019379
14251757 52 18411702067619430073
14251764 38 18336824195780392620
14251764 75 18192997251776832164
15183329 4 14117522021949938731
15188451 53 13912323495468203817
15475509 35 15936957536802609690
15510800 12 9006785353059743520
15840311 113 18335424564548333077
16760501 71 18334860524153506645
18335252 114 18202002122995137980
20157964 124 18411139117033012346
20715895 44 18272374204488881120
21033648 29 17530968042249165984
21315764 268 18114174194803617997
21637258 2 10159708975496092254
21641784 216 16916799452460894761
21792934 111 17167861934085806917
2215653 11 11815895656855758125
22224240 67 17967814938746883355
22393880 68 15051721015179403175
25269216 80 16199574927066619109
2838139 119 18337096960821617172
33382 64 9583527524889482486
33532 11 8862935070983754225
3472631 163 18412266163722373359
397830 11 18114476647060141683
5104073 3 16806434817719274873
5718773 13 8070026654095558353
59682541 35 17822017506670710441
59682541 52 15482400763239972853
6438161 24 11240003317292862636
8272917 22 18408882950118801978

>  <PUBCHEM_SHAPE_MULTIPOLES>  (1) 
476.3
19.77
2.53
1.31
31.36
1.02
0.36
15.91
-4.33
-3.28
0.41
0.47
-0.3
-0.33

>  <PUBCHEM_SHAPE_SELFOVERLAP>  (1) 
990.244

>  <PUBCHEM_SHAPE_VOLUME>  (1) 
272.2

>  <PUBCHEM_COORDINATE_TYPE>  (1) 
2
5
10

$$$$
