1736
     RDKit          3D

 13 12  0  0  1  0  0  0  0  0999 V2000
   -1.1206   -1.1627    1.7052 O   0  0  0  0  0  0  0  0  0  0  0  0
   -1.6089   -1.3287   -1.1189 O   0  0  0  0  0  0  0  0  0  0  0  0
    3.0331   -1.3052   -0.6613 O   0  0  0  0  0  0  0  0  0  0  0  0
   -2.5626    1.4056    0.8446 O   0  0  0  0  0  0  0  0  0  0  0  0
   -3.5911    0.3416   -0.8917 O   0  0  0  0  0  0  0  0  0  0  0  0
    2.8808    0.9254    1.0795 O   0  0  0  0  0  0  0  0  0  0  0  0
    2.1615    1.8159   -0.8978 O   0  0  0  0  0  0  0  0  0  0  0  0
   -0.3851   -0.4000    0.7416 C   0  0  0  0  0  0  0  0  0  0  0  0
    0.8820   -1.2008    0.4021 C   0  0  0  0  0  0  0  0  0  0  0  0
   -1.2891   -0.1031   -0.4601 C   0  0  0  0  0  0  0  0  0  0  0  0
    1.8633   -0.4943   -0.5310 C   0  0  0  0  0  0  0  0  0  0  0  0
   -2.6105    0.6226   -0.1481 C   0  0  0  0  0  0  0  0  0  0  0  0
    2.3473    0.8838   -0.0639 C   0  0  0  0  0  0  0  0  0  0  0  0
  1  8  1  0
  2 10  1  0
  3 11  1  0
  4 12  1  0
  5 12  2  0
  6 13  1  0
  7 13  2  0
  8  9  1  0
  8 10  1  0
  9 11  1  0
 10 12  1  0
 11 13  1  0
M  CHG  2   4  -1   6  -1
M  END
>  <PUBCHEM_COMPOUND_CID>  (1) 
1736

>  <PUBCHEM_CONFORMER_RMSD>  (1) 
0.6

>  <PUBCHEM_CONFORMER_DIVERSEORDER>  (1) 
3
249
235
59
246
5
214
134
179
69
198
52
231
101
242
232
86
255
25
45
147
9
253
213
186
263
143
6
62
239
220
229
42
90
165
131
71
223
93
250
53
259
27
216
95
218
111
14
261
248
155
262
40
196
104
4
247
227
24
181
221
207
140
29
234
156
92
78
23
260
174
182
252
57
161
38
191
50
254
215
66
100
74
251
116
226
80
39
237
202
56
243
200
30
94
83
130
17
222
162
152
228
37
203
126
238
109
13
73
87
163
175
64
217
230
44
190
58
85
60
172
70
108
33
1
115
209
236
99
244
192
36
225
158
31
122
240
103
258
96
169
88
81
72
195
19
21
206
245
138
16
10
125
35
197
224
160
166
199
257
151
118
75
164
84
91
180
183
102
137
76
135
201
11
133
194
188
148
20
241
43
77
189
150
32
193
212
211
18
34
105
184
28
55
173
82
121
210
177
159
107
128
157
187
61
178
54
67
132
170
48
149
185
51
219
12
139
119
26
41
141
127
176
97
256
65
113
145
8
49
89
117
112
15
79
233
47
171
2
167
106
22
208
142
98
129
123
124
168
110
68
153
46
204
144
7
146
205
63
136
114
154
120

>  <PUBCHEM_MMFF94_PARTIAL_CHARGES>  (1) 
15
1 -0.68
10 0.17
11 0.17
12 0.91
13 0.91
19 0.4
2 -0.68
20 0.4
21 0.4
3 -0.68
4 -0.9
5 -0.9
6 -0.9
7 -0.9
8 0.28

>  <PUBCHEM_EFFECTIVE_ROTOR_COUNT>  (1) 
5

>  <PUBCHEM_PHARMACOPHORE_FEATURES>  (1) 
12
1 1 acceptor
1 1 donor
1 2 acceptor
1 2 donor
1 3 acceptor
1 3 donor
1 4 acceptor
1 5 acceptor
1 6 acceptor
1 7 acceptor
3 4 5 12 anion
3 6 7 13 anion

>  <PUBCHEM_HEAVY_ATOM_COUNT>  (1) 
13

>  <PUBCHEM_ATOM_DEF_STEREO_COUNT>  (1) 
0

>  <PUBCHEM_ATOM_UDEF_STEREO_COUNT>  (1) 
3

>  <PUBCHEM_BOND_DEF_STEREO_COUNT>  (1) 
0

>  <PUBCHEM_BOND_UDEF_STEREO_COUNT>  (1) 
0

>  <PUBCHEM_ISOTOPIC_ATOM_COUNT>  (1) 
0

>  <PUBCHEM_COMPONENT_COUNT>  (1) 
1

>  <PUBCHEM_CACTVS_TAUTO_COUNT>  (1) 
1

>  <PUBCHEM_CONFORMER_ID>  (1) 
000006C800000003

>  <PUBCHEM_MMFF94_ENERGY>  (1) 
24.1366

>  <PUBCHEM_FEATURE_SELFOVERLAP>  (1) 
61.031

>  <PUBCHEM_SHAPE_FINGERPRINT>  (1) 
10857977 72 15430333407729406061
12897270 3 17632010961301637524
12932764 1 15864352479983183182
13571099 52 18339630248275089256
13618510 140 18335146439720265108
15775835 57 18060140967968157756
16945 1 18114182982264325427
18186145 218 18334857169509248085
19973954 147 18261967348137603944
20653085 51 18270972253916699819
21028194 46 18040718047818685559
21947302 44 18408042918285462266
230 275 18334009484609430200
3248919 1 18334293210027528592
81228 2 16952554621271461707
9939556 21 18201998807021838478

>  <PUBCHEM_SHAPE_MULTIPOLES>  (1) 
226.45
5.19
1.55
1.2
0.74
0.19
-0.24
1.5
0.77
-0.55
0.02
0.22
-0.18
0.04

>  <PUBCHEM_SHAPE_SELFOVERLAP>  (1) 
442

>  <PUBCHEM_SHAPE_VOLUME>  (1) 
134.9

>  <PUBCHEM_COORDINATE_TYPE>  (1) 
2
5
10

$$$$
