17361
     RDKit          3D

 24 25  0  0  0  0  0  0  0  0999 V2000
    2.1862    1.3303    0.3865 O   0  0  0  0  0  0  0  0  0  0  0  0
    5.5087   -0.3177   -0.0265 N   0  0  0  0  0  0  0  0  0  0  0  0
    4.4460    0.5565    0.6235 C   0  0  0  0  0  0  0  0  0  0  0  0
    5.0299   -1.7619   -0.0554 C   0  0  0  0  0  0  0  0  0  0  0  0
    6.7995   -0.2272    0.7750 C   0  0  0  0  0  0  0  0  0  0  0  0
    5.7600    0.1619   -1.4487 C   0  0  0  0  0  0  0  0  0  0  0  0
    3.1720    0.4875   -0.1952 C   0  0  0  0  0  0  0  0  0  0  0  0
    4.7818   -2.2331    1.3609 C   0  0  0  0  0  0  0  0  0  0  0  0
    7.8520   -1.0979    0.1243 C   0  0  0  0  0  0  0  0  0  0  0  0
    6.2358    1.5978   -1.4137 C   0  0  0  0  0  0  0  0  0  0  0  0
    0.8777    0.9607    0.2150 C   0  0  0  0  0  0  0  0  0  0  0  0
   -0.0623    1.2898    1.1848 C   0  0  0  0  0  0  0  0  0  0  0  0
    0.5041    0.2606   -0.9264 C   0  0  0  0  0  0  0  0  0  0  0  0
   -1.3942    0.9134    1.0110 C   0  0  0  0  0  0  0  0  0  0  0  0
   -0.8278   -0.1156   -1.1002 C   0  0  0  0  0  0  0  0  0  0  0  0
   -1.7768    0.2108   -0.1315 C   0  0  0  0  0  0  0  0  0  0  0  0
   -3.1653   -0.1822   -0.3135 C   0  0  0  0  0  0  0  0  0  0  0  0
   -4.2239    0.3765    0.3196 C   0  0  0  0  0  0  0  0  0  0  0  0
   -5.6324   -0.0083    0.1211 C   0  0  0  0  0  0  0  0  0  0  0  0
   -5.9268   -1.2470   -0.4253 C   0  0  0  0  0  0  0  0  0  0  0  0
   -6.6351    0.8762    0.4846 C   0  0  0  0  0  0  0  0  0  0  0  0
   -7.2601   -1.6111   -0.6136 C   0  0  0  0  0  0  0  0  0  0  0  0
   -7.9683    0.5119    0.2964 C   0  0  0  0  0  0  0  0  0  0  0  0
   -8.2807   -0.7318   -0.2527 C   0  0  0  0  0  0  0  0  0  0  0  0
  1  7  1  0
  1 11  1  0
  2  3  1  0
  2  4  1  0
  2  5  1  0
  2  6  1  0
  3  7  1  0
  4  8  1  0
  5  9  1  0
  6 10  1  0
 11 12  2  0
 11 13  1  0
 12 14  1  0
 13 15  2  0
 14 16  2  0
 15 16  1  0
 16 17  1  0
 17 18  2  0
 18 19  1  0
 19 20  2  0
 19 21  1  0
 20 22  1  0
 21 23  2  0
 22 24  2  0
 23 24  1  0
M  CHG  1   2   1
M  END
>  <PUBCHEM_COMPOUND_CID>  (1) 
17361

>  <PUBCHEM_CONFORMER_RMSD>  (1) 
1

>  <PUBCHEM_CONFORMER_DIVERSEORDER>  (1) 
5
30
41
17
8
43
26
19
36
35
25
18
54
7
2
24
53
15
39
27
37
29
9
1
16
38
48
40
10
6
14
46
3
49
21
52
12
22
51
47
23
20
11
45
31
50
42
32
4
33
13
34
28
44

>  <PUBCHEM_MMFF94_PARTIAL_CHARGES>  (1) 
32
1 -0.36
11 0.08
12 -0.15
13 -0.15
14 -0.15
15 -0.15
16 0.03
17 -0.18
18 -0.18
19 0.03
2 -1.01
20 -0.15
21 -0.15
22 -0.15
23 -0.15
24 -0.15
3 0.5
4 0.5
44 0.15
45 0.15
46 0.15
47 0.15
48 0.15
49 0.15
5 0.5
50 0.15
51 0.15
52 0.15
53 0.15
54 0.15
6 0.5
7 0.28

>  <PUBCHEM_EFFECTIVE_ROTOR_COUNT>  (1) 
9

>  <PUBCHEM_PHARMACOPHORE_FEATURES>  (1) 
4
1 1 acceptor
1 2 cation
6 11 12 13 14 15 16 rings
6 19 20 21 22 23 24 rings

>  <PUBCHEM_HEAVY_ATOM_COUNT>  (1) 
24

>  <PUBCHEM_ATOM_DEF_STEREO_COUNT>  (1) 
0

>  <PUBCHEM_ATOM_UDEF_STEREO_COUNT>  (1) 
0

>  <PUBCHEM_BOND_DEF_STEREO_COUNT>  (1) 
0

>  <PUBCHEM_BOND_UDEF_STEREO_COUNT>  (1) 
1

>  <PUBCHEM_ISOTOPIC_ATOM_COUNT>  (1) 
0

>  <PUBCHEM_COMPONENT_COUNT>  (1) 
1

>  <PUBCHEM_CACTVS_TAUTO_COUNT>  (1) 
1

>  <PUBCHEM_CONFORMER_ID>  (1) 
000043D100000005

>  <PUBCHEM_MMFF94_ENERGY>  (1) 
98.8242

>  <PUBCHEM_FEATURE_SELFOVERLAP>  (1) 
20.297

>  <PUBCHEM_SHAPE_FINGERPRINT>  (1) 
10 15 16917063386500880785
10299344 5 18408323289450433055
10319688 140 16588852474277786050
106641 1 17561358496660017762
11135609 127 17677620929217297124
11315181 36 18341617040913462553
11524674 6 16702301278654990367
11638347 137 14333415536373219980
11646440 116 15410898474519848075
11719270 70 17489872631008921951
12166972 35 18412546539631243473
125118 31 9223239554726684255
13533116 47 18334856100236510498
13685833 64 18342173367172699688
13885169 127 18341331115870812689
14123256 10 13912322378164829099
14251764 18 18342739628593249071
14251764 46 18410575088958052708
15183329 4 17749105595532962299
15198563 99 16298657292511699943
15301273 46 16343708715991386905
15352257 5 18334574646656073483
15419008 47 15697998509557355425
15690457 1 18201715163002337999
15849732 13 16988563515543753429
19841028 212 18338515215053140234
20735858 18 16487256573173359205
21150785 3 16732701662328362807
21267235 1 17704078395088820864
21792934 111 17346590872441212152
22224240 67 14189573039839269901
22956985 138 17556030091487711958
232437 2 18412544293879688546
23522609 53 18193866827740153989
23559900 14 17604436330759022829
249057 25 18337968839056675933
3004659 81 18131074856632508444
33532 11 18408318869628866443
34797466 226 16877665669017277652
397830 11 14260769780960974127
4073 2 18190179181513929731
4325135 7 18186520995128816602
4340502 62 12031794660020922749
59682541 35 17203603800591185666
59755656 520 18336260232932023319

>  <PUBCHEM_SHAPE_MULTIPOLES>  (1) 
483.06
26.79
1.6
1.16
16.01
0.57
-0.09
7.89
-1.54
-1.37
0.19
-1.25
-0.09
-2.03

>  <PUBCHEM_SHAPE_SELFOVERLAP>  (1) 
996.979

>  <PUBCHEM_SHAPE_VOLUME>  (1) 
279.8

>  <PUBCHEM_COORDINATE_TYPE>  (1) 
2
5
10

$$$$
