17363
     RDKit          3D

 12 11  0  0  1  0  0  0  0  0999 V2000
   -4.7812    0.3692   -0.1208 O   0  0  0  0  0  0  0  0  0  0  0  0
   -3.5623   -1.5328   -0.3688 O   0  0  0  0  0  0  0  0  0  0  0  0
    0.1866    0.6126    0.1621 C   0  0  0  0  0  0  0  0  0  0  0  0
    1.4159   -0.2935   -0.0949 C   0  0  0  0  0  0  0  0  0  0  0  0
    2.7951    0.4041   -0.1170 C   0  0  0  0  0  0  0  0  0  0  0  0
   -1.0980   -0.2337   -0.0106 C   0  0  0  0  0  0  0  0  0  0  0  0
    3.9348   -0.6033   -0.3857 C   0  0  0  0  0  0  0  0  0  0  0  0
    0.2489    1.2657    1.5456 C   0  0  0  0  0  0  0  0  0  0  0  0
    2.8575    1.5132   -1.1732 C   0  0  0  0  0  0  0  0  0  0  0  0
   -2.4108    0.5426    0.0780 C   0  0  0  0  0  0  0  0  0  0  0  0
    4.0321   -1.7167    0.6480 C   0  0  0  0  0  0  0  0  0  0  0  0
   -3.6184   -0.3274   -0.1628 C   0  0  0  0  0  0  0  0  0  0  0  0
  1 12  1  0
  2 12  2  0
  3  4  1  0
  3  6  1  0
  3  8  1  0
  4  5  1  0
  5  7  1  0
  5  9  1  0
  6 10  1  0
  7 11  1  0
 10 12  1  0
M  END
>  <PUBCHEM_COMPOUND_CID>  (1) 
17363

>  <PUBCHEM_CONFORMER_RMSD>  (1) 
0.6

>  <PUBCHEM_CONFORMER_DIVERSEORDER>  (1) 
2
150
78
134
8
75
145
138
114
28
152
71
106
158
136
59
94
7
137
155
151
47
113
125
81
156
119
97
24
93
5
139
14
70
130
89
46
153
146
3
142
147
41
17
27
11
116
135
18
127
95
105
141
117
104
148
110
157
86
101
143
43
58
30
111
16
118
38
140
35
132
26
29
32
124
122
98
22
34
115
13
112
144
85
60
20
96
50
133
44
123
126
154
23
149
76
9
72
100
120
129
109
108
4
48
51
42
131
40
45
87
64
10
39
1
88
92
99
128
31
53
121
54
61
56
19
25
107
74
62
63
21
65
66
33
90
36
103
83
6
77
102
49
15
82
12
67
80
73
37
91
69
52
79
55
84
57
68

>  <PUBCHEM_MMFF94_PARTIAL_CHARGES>  (1) 
5
1 -0.65
10 0.06
12 0.66
2 -0.57
32 0.5

>  <PUBCHEM_EFFECTIVE_ROTOR_COUNT>  (1) 
6

>  <PUBCHEM_PHARMACOPHORE_FEATURES>  (1) 
8
1 1 acceptor
1 11 hydrophobe
1 2 acceptor
1 8 hydrophobe
1 9 hydrophobe
3 1 2 12 anion
3 3 6 10 hydrophobe
3 4 5 7 hydrophobe

>  <PUBCHEM_HEAVY_ATOM_COUNT>  (1) 
12

>  <PUBCHEM_ATOM_DEF_STEREO_COUNT>  (1) 
0

>  <PUBCHEM_ATOM_UDEF_STEREO_COUNT>  (1) 
2

>  <PUBCHEM_BOND_DEF_STEREO_COUNT>  (1) 
0

>  <PUBCHEM_BOND_UDEF_STEREO_COUNT>  (1) 
0

>  <PUBCHEM_ISOTOPIC_ATOM_COUNT>  (1) 
0

>  <PUBCHEM_COMPONENT_COUNT>  (1) 
1

>  <PUBCHEM_CACTVS_TAUTO_COUNT>  (1) 
1

>  <PUBCHEM_CONFORMER_ID>  (1) 
000043D300000002

>  <PUBCHEM_MMFF94_ENERGY>  (1) 
12.6538

>  <PUBCHEM_FEATURE_SELFOVERLAP>  (1) 
41.039

>  <PUBCHEM_SHAPE_FINGERPRINT>  (1) 
10130415 120 18131353011709918488
10465860 250 17917424302658146481
11543360 7 17968381267931860629
11987891 38 18408605855117027090
124424 183 18060697286871680789
13690532 89 18335138644665618658
14123255 52 7853275532980988438
14251717 144 18040997302619493066
14252887 29 15626230112926469550
15477762 27 18259987050914127790
177051 138 18201440242688851566
18186145 218 16153427267911151677
18915474 69 18336826484707453647
19422 9 18410296925575194149
20279233 1 16200434667285300741
20281475 54 18412825824026160403
20645477 70 18186523198304647186
20671657 53 18187365368534827662
21119208 17 18040716956812505519
22485316 2 18342453763774956783
23402539 116 18040991834603509092
23402655 69 18114181921349621788
23557571 272 17059786498704633160
31174 14 13398358919652775756
4990 188 16370445540307332706
522135 26 18040155110903062622
58051976 100 18260550021830949175
5902787 121 17631727287233177490
633830 44 16443065010556909909
81228 2 16772415948956020640

>  <PUBCHEM_SHAPE_MULTIPOLES>  (1) 
235.22
8.9
1.48
1
4.73
0.18
0.24
2.99
-1.32
-1.03
0.04
-0.47
-0.36
-0.88

>  <PUBCHEM_SHAPE_SELFOVERLAP>  (1) 
431.19

>  <PUBCHEM_SHAPE_VOLUME>  (1) 
150

>  <PUBCHEM_COORDINATE_TYPE>  (1) 
2
5
10

$$$$
