17365
     RDKit          3D

 13 13  0  0  0  0  0  0  0  0999 V2000
    0.3167   -0.6438    0.5990 O   0  0  0  0  0  0  0  0  0  0  0  0
   -3.0218    0.4848   -0.0102 O   0  0  0  0  0  0  0  0  0  0  0  0
   -2.1210   -1.6397    0.0458 O   0  0  0  0  0  0  0  0  0  0  0  0
    1.5755   -0.2503    0.2639 C   0  0  0  0  0  0  0  0  0  0  0  0
   -0.7302    0.3097    0.4233 C   0  0  0  0  0  0  0  0  0  0  0  0
   -4.3125   -0.0666   -0.2901 C   0  0  0  0  0  0  0  0  0  0  0  0
    1.9412    1.0909    0.3790 C   0  0  0  0  0  0  0  0  0  0  0  0
    2.5003   -1.1883   -0.1952 C   0  0  0  0  0  0  0  0  0  0  0  0
   -2.0131   -0.4241    0.1341 C   0  0  0  0  0  0  0  0  0  0  0  0
    3.2314    1.4942    0.0348 C   0  0  0  0  0  0  0  0  0  0  0  0
    3.7906   -0.7849   -0.5393 C   0  0  0  0  0  0  0  0  0  0  0  0
    4.1560    0.5563   -0.4242 C   0  0  0  0  0  0  0  0  0  0  0  0
   -5.3131    1.0618   -0.4208 C   0  0  0  0  0  0  0  0  0  0  0  0
  1  4  1  0
  1  5  1  0
  2  6  1  0
  2  9  1  0
  3  9  2  0
  4  7  2  0
  4  8  1  0
  5  9  1  0
  6 13  1  0
  7 10  1  0
  8 11  2  0
 10 12  2  0
 11 12  1  0
M  END
>  <PUBCHEM_COMPOUND_CID>  (1) 
17365

>  <PUBCHEM_CONFORMER_RMSD>  (1) 
0.6

>  <PUBCHEM_CONFORMER_DIVERSEORDER>  (1) 
1
14
40
8
13
89
76
26
18
21
84
38
87
59
9
58
46
50
37
43
4
61
11
2
82
3
23
41
30
28
54
6
10
16
75
24
51
64
83
60
72
5
53
80
62
19
71
31
29
45
33
52
48
67
44
95
25
77
49
66
69
42
81
34
12
91
15
68
63
55
92
27
65
7
74
73
17
85
90
47
22
39
57
32
79
35
86
88
20
56
36
93
70
78
94

>  <PUBCHEM_MMFF94_PARTIAL_CHARGES>  (1) 
17
1 -0.36
10 -0.15
11 -0.15
12 -0.15
18 0.15
19 0.15
2 -0.43
20 0.15
21 0.15
25 0.15
3 -0.57
4 0.08
5 0.34
6 0.28
7 -0.15
8 -0.15
9 0.66

>  <PUBCHEM_EFFECTIVE_ROTOR_COUNT>  (1) 
5

>  <PUBCHEM_PHARMACOPHORE_FEATURES>  (1) 
3
1 1 acceptor
1 3 acceptor
6 4 7 8 10 11 12 rings

>  <PUBCHEM_HEAVY_ATOM_COUNT>  (1) 
13

>  <PUBCHEM_ATOM_DEF_STEREO_COUNT>  (1) 
0

>  <PUBCHEM_ATOM_UDEF_STEREO_COUNT>  (1) 
0

>  <PUBCHEM_BOND_DEF_STEREO_COUNT>  (1) 
0

>  <PUBCHEM_BOND_UDEF_STEREO_COUNT>  (1) 
0

>  <PUBCHEM_ISOTOPIC_ATOM_COUNT>  (1) 
0

>  <PUBCHEM_COMPONENT_COUNT>  (1) 
1

>  <PUBCHEM_CACTVS_TAUTO_COUNT>  (1) 
1

>  <PUBCHEM_CONFORMER_ID>  (1) 
000043D500000001

>  <PUBCHEM_MMFF94_ENERGY>  (1) 
29.0284

>  <PUBCHEM_FEATURE_SELFOVERLAP>  (1) 
15.23

>  <PUBCHEM_SHAPE_FINGERPRINT>  (1) 
11471102 20 18413390934416631876
12500047 106 18410291458008330575
12932764 1 17531234071964531378
13081056 2 18333730200277219005
15242439 84 18408889524827027982
177051 138 10519988170803620241
17834072 33 18272647982920906463
18186145 218 18040990756593104247
200 152 17561083600660633184
20279233 1 18411423925088831042
20432913 95 9943806711881655621
20606313 2 18411983581039751968
20645477 56 18260828228427042709
20645477 70 18272092664803097526
21119208 17 18272934924900380780
212847 35 17968094201113601684
22289505 5 18410569548535208916
22485316 2 17418370319985564271
23402539 116 18411693300910359006
23402655 69 18341614828003011252
23559900 14 18343018904699775906
29717793 49 17131838629253906332
3060560 45 18202568371731213646
4028521 119 18187641384545087453
4047638 21 18260267447373901792
4072396 5 18410562982473926306
4990 188 18342740706450906671
522135 26 18411699859446817006
77779 3 18410857689517018199
93112 12 18341896319985472170

>  <PUBCHEM_SHAPE_MULTIPOLES>  (1) 
249.93
10.12
1.38
0.71
9.62
0.01
-0.01
-2.41
-2.4
-0.47
-0.02
-0.09
-0.01
0.34

>  <PUBCHEM_SHAPE_SELFOVERLAP>  (1) 
505.045

>  <PUBCHEM_SHAPE_VOLUME>  (1) 
146.2

>  <PUBCHEM_COORDINATE_TYPE>  (1) 
2
5
10

$$$$
