17373
     RDKit          3D

 13 13  0  0  0  0  0  0  0  0999 V2000
    2.8445    1.1875    1.4578 Cl  0  0  0  0  0  0  0  0  0  0  0  0
    2.8558    1.1634   -1.4730 Cl  0  0  0  0  0  0  0  0  0  0  0  0
    3.9364   -1.0804    0.0151 Cl  0  0  0  0  0  0  0  0  0  0  0  0
    1.1467   -1.6827   -0.0003 O   0  0  0  0  0  0  0  0  0  0  0  0
    0.2527    0.4812    0.0005 N   0  0  0  0  0  0  0  0  0  0  0  0
   -1.1246    0.2580    0.0005 C   0  0  0  0  0  0  0  0  0  0  0  0
   -2.0062    1.3391   -0.0003 C   0  0  0  0  0  0  0  0  0  0  0  0
   -1.6202   -1.0460    0.0007 C   0  0  0  0  0  0  0  0  0  0  0  0
    1.2951   -0.4628   -0.0001 C   0  0  0  0  0  0  0  0  0  0  0  0
   -3.3831    1.1164   -0.0006 C   0  0  0  0  0  0  0  0  0  0  0  0
   -2.9972   -1.2687    0.0003 C   0  0  0  0  0  0  0  0  0  0  0  0
   -3.8786   -0.1875   -0.0004 C   0  0  0  0  0  0  0  0  0  0  0  0
    2.6787    0.1825   -0.0001 C   0  0  0  0  0  0  0  0  0  0  0  0
  1 13  1  0
  2 13  1  0
  3 13  1  0
  4  9  2  0
  5  6  1  0
  5  9  1  0
  6  7  2  0
  6  8  1  0
  7 10  1  0
  8 11  2  0
  9 13  1  0
 10 12  2  0
 11 12  1  0
M  END
>  <PUBCHEM_COMPOUND_CID>  (1) 
17373

>  <PUBCHEM_CONFORMER_RMSD>  (1) 
0.6

>  <PUBCHEM_CONFORMER_DIVERSEORDER>  (1) 
1
4
2
3

>  <PUBCHEM_MMFF94_PARTIAL_CHARGES>  (1) 
19
1 -0.29
10 -0.15
11 -0.15
12 -0.15
13 0.93
14 0.37
15 0.15
16 0.15
17 0.15
18 0.15
19 0.15
2 -0.29
3 -0.29
4 -0.57
5 -0.55
6 0.12
7 -0.15
8 -0.15
9 0.57

>  <PUBCHEM_EFFECTIVE_ROTOR_COUNT>  (1) 
3

>  <PUBCHEM_PHARMACOPHORE_FEATURES>  (1) 
3
1 4 acceptor
1 5 donor
6 6 7 8 10 11 12 rings

>  <PUBCHEM_HEAVY_ATOM_COUNT>  (1) 
13

>  <PUBCHEM_ATOM_DEF_STEREO_COUNT>  (1) 
0

>  <PUBCHEM_ATOM_UDEF_STEREO_COUNT>  (1) 
0

>  <PUBCHEM_BOND_DEF_STEREO_COUNT>  (1) 
0

>  <PUBCHEM_BOND_UDEF_STEREO_COUNT>  (1) 
0

>  <PUBCHEM_ISOTOPIC_ATOM_COUNT>  (1) 
0

>  <PUBCHEM_COMPONENT_COUNT>  (1) 
1

>  <PUBCHEM_CACTVS_TAUTO_COUNT>  (1) 
2

>  <PUBCHEM_CONFORMER_ID>  (1) 
000043DD00000001

>  <PUBCHEM_MMFF94_ENERGY>  (1) 
34.0985

>  <PUBCHEM_FEATURE_SELFOVERLAP>  (1) 
15.223

>  <PUBCHEM_SHAPE_FINGERPRINT>  (1) 
10608611 8 18342731905936485545
11132069 177 18335413586622434769
12162725 195 18187086156499479764
12500047 106 18338509725651496405
12932764 1 18060139872587772167
13296908 3 17989486350698492401
14144814 61 18410292501853909345
14325111 11 18410856568240286656
15219456 202 18202274827347703296
15775835 57 18271807951520713468
16945 1 18338799026163939943
17802600 8 18341605997402531584
18175812 5 18273212010394193245
18186145 218 16732701670464662229
19422 9 18333737930817256175
200 152 17703496741021960317
20279233 1 17418375783205057487
20528008 55 18341606019235966673
20645464 45 17846499227462002199
20645477 70 17561363963457124926
2255824 54 17894633647756240946
23402539 116 18201710740135257925
23463225 33 18334294236577628822
23559900 14 18412821378729636904
3248919 1 18040432226192614115
474 4 16589444192133236276
5104073 3 18412262839544157635
57096353 35 18336267958812836895
7364860 26 18199466554550067078

>  <PUBCHEM_SHAPE_MULTIPOLES>  (1) 
262.29
7.5
1.6
0.98
0.59
0.13
-0.01
0
0
-0.11
0.01
-1.06
-0.42
0

>  <PUBCHEM_SHAPE_SELFOVERLAP>  (1) 
512.548

>  <PUBCHEM_SHAPE_VOLUME>  (1) 
157.9

>  <PUBCHEM_COORDINATE_TYPE>  (1) 
2
5
10

$$$$
