17381
     RDKit          3D

  7  7  0  0  0  0  0  0  0  0999 V2000
    0.8151    1.1777    0.0264 O   0  0  0  0  0  0  0  0  0  0  0  0
    0.1650   -1.0603    0.3125 O   0  0  0  0  0  0  0  0  0  0  0  0
   -0.2438    0.3075    0.4466 C   0  0  0  0  0  0  0  0  0  0  0  0
   -1.4742    0.5650   -0.4018 C   0  0  0  0  0  0  0  0  0  0  0  0
    1.9678    0.3383    0.0022 C   0  0  0  0  0  0  0  0  0  0  0  0
    1.4058   -1.0006   -0.3904 C   0  0  0  0  0  0  0  0  0  0  0  0
   -2.6358   -0.3277    0.0045 C   0  0  0  0  0  0  0  0  0  0  0  0
  1  3  1  0
  1  5  1  0
  2  3  1  0
  2  6  1  0
  3  4  1  0
  4  7  1  0
  5  6  1  0
M  END
>  <PUBCHEM_COMPOUND_CID>  (1) 
17381

>  <PUBCHEM_CONFORMER_RMSD>  (1) 
0.4

>  <PUBCHEM_CONFORMER_DIVERSEORDER>  (1) 
1
3
2

>  <PUBCHEM_MMFF94_PARTIAL_CHARGES>  (1) 
5
1 -0.56
2 -0.56
3 0.56
5 0.28
6 0.28

>  <PUBCHEM_EFFECTIVE_ROTOR_COUNT>  (1) 
2

>  <PUBCHEM_PHARMACOPHORE_FEATURES>  (1) 
4
1 1 acceptor
1 2 acceptor
1 7 hydrophobe
5 1 2 3 5 6 rings

>  <PUBCHEM_HEAVY_ATOM_COUNT>  (1) 
7

>  <PUBCHEM_ATOM_DEF_STEREO_COUNT>  (1) 
0

>  <PUBCHEM_ATOM_UDEF_STEREO_COUNT>  (1) 
0

>  <PUBCHEM_BOND_DEF_STEREO_COUNT>  (1) 
0

>  <PUBCHEM_BOND_UDEF_STEREO_COUNT>  (1) 
0

>  <PUBCHEM_ISOTOPIC_ATOM_COUNT>  (1) 
0

>  <PUBCHEM_COMPONENT_COUNT>  (1) 
1

>  <PUBCHEM_CACTVS_TAUTO_COUNT>  (1) 
1

>  <PUBCHEM_CONFORMER_ID>  (1) 
000043E500000001

>  <PUBCHEM_MMFF94_ENERGY>  (1) 
9.7289

>  <PUBCHEM_FEATURE_SELFOVERLAP>  (1) 
20.338

>  <PUBCHEM_SHAPE_FINGERPRINT>  (1) 
20096714 4 18409728495122268224
21040471 1 18337952414842311712
23552423 10 18118131272743376358
24536 1 18270103613966299073
29004967 10 18343302543791345019
5460574 1 9295291642347000133

>  <PUBCHEM_SHAPE_MULTIPOLES>  (1) 
132.32
3
1.12
0.68
1.39
0.06
-0.01
0.22
-0.21
-0.29
-0.02
0.03
0.01
0.12

>  <PUBCHEM_SHAPE_SELFOVERLAP>  (1) 
252.328

>  <PUBCHEM_SHAPE_VOLUME>  (1) 
82.4

>  <PUBCHEM_COORDINATE_TYPE>  (1) 
2
5
10

$$$$
