17385
     RDKit          3D

 14 15  0  0  0  0  0  0  0  0999 V2000
   -0.3145    0.0006    0.5409 N   0  0  0  0  0  0  0  0  0  0  0  0
    0.3158    0.0003   -0.5426 N   0  0  0  0  0  0  0  0  0  0  0  0
    4.4424   -0.0008    0.2043 N   0  0  0  0  0  0  0  0  0  0  0  0
   -1.6909    0.0005    0.2936 C   0  0  0  0  0  0  0  0  0  0  0  0
    1.6990    0.0006   -0.2936 C   0  0  0  0  0  0  0  0  0  0  0  0
   -2.3771   -1.2078    0.1707 C   0  0  0  0  0  0  0  0  0  0  0  0
   -2.3777    1.2082    0.1694 C   0  0  0  0  0  0  0  0  0  0  0  0
   -3.7498   -1.2083   -0.0768 C   0  0  0  0  0  0  0  0  0  0  0  0
   -3.7504    1.2076   -0.0780 C   0  0  0  0  0  0  0  0  0  0  0  0
   -4.4365   -0.0007   -0.2011 C   0  0  0  0  0  0  0  0  0  0  0  0
    2.3783   -1.2023   -0.1709 C   0  0  0  0  0  0  0  0  0  0  0  0
    2.3793    1.2029   -0.1697 C   0  0  0  0  0  0  0  0  0  0  0  0
    3.7406   -1.1492    0.0762 C   0  0  0  0  0  0  0  0  0  0  0  0
    3.7415    1.1484    0.0775 C   0  0  0  0  0  0  0  0  0  0  0  0
  1  2  2  0
  1  4  1  0
  2  5  1  0
  3 13  2  0
  3 14  1  0
  4  6  2  0
  4  7  1  0
  5 11  2  0
  5 12  1  0
  6  8  1  0
  7  9  2  0
  8 10  2  0
  9 10  1  0
 11 13  1  0
 12 14  2  0
M  END
>  <PUBCHEM_COMPOUND_CID>  (1) 
17385

>  <PUBCHEM_CONFORMER_RMSD>  (1) 
0.6

>  <PUBCHEM_CONFORMER_DIVERSEORDER>  (1) 
1
2

>  <PUBCHEM_MMFF94_PARTIAL_CHARGES>  (1) 
23
1 -0.18
10 -0.15
11 -0.15
12 -0.15
13 0.16
14 0.16
15 0.15
16 0.15
17 0.15
18 0.15
19 0.15
2 -0.18
20 0.15
21 0.15
22 0.15
23 0.15
3 -0.62
4 0.18
5 0.18
6 -0.15
7 -0.15
8 -0.15
9 -0.15

>  <PUBCHEM_EFFECTIVE_ROTOR_COUNT>  (1) 
2

>  <PUBCHEM_PHARMACOPHORE_FEATURES>  (1) 
3
1 3 acceptor
6 3 5 11 12 13 14 rings
6 4 6 7 8 9 10 rings

>  <PUBCHEM_HEAVY_ATOM_COUNT>  (1) 
14

>  <PUBCHEM_ATOM_DEF_STEREO_COUNT>  (1) 
0

>  <PUBCHEM_ATOM_UDEF_STEREO_COUNT>  (1) 
0

>  <PUBCHEM_BOND_DEF_STEREO_COUNT>  (1) 
0

>  <PUBCHEM_BOND_UDEF_STEREO_COUNT>  (1) 
0

>  <PUBCHEM_ISOTOPIC_ATOM_COUNT>  (1) 
0

>  <PUBCHEM_COMPONENT_COUNT>  (1) 
1

>  <PUBCHEM_CACTVS_TAUTO_COUNT>  (1) 
1

>  <PUBCHEM_CONFORMER_ID>  (1) 
000043E900000001

>  <PUBCHEM_MMFF94_ENERGY>  (1) 
38.1098

>  <PUBCHEM_FEATURE_SELFOVERLAP>  (1) 
15.223

>  <PUBCHEM_SHAPE_FINGERPRINT>  (1) 
10014705 185 18259981561798438485
10608611 8 18410854364943546081
11615757 297 17203332242456298880
12162725 195 18410296912542839517
13167823 11 18410571786144442091
13675066 3 17749396948892365817
14144814 61 18410577270806739915
14325111 11 18410857663451659397
15442244 35 18194684752810623234
17802600 8 18410570690943612357
17834072 33 18409169939432067924
18186145 218 17822006506125198331
19050596 39 18412546521949369761
200 152 18131628993655500999
20279233 1 18342183262497904679
20300324 65 18272085020282984589
20528008 55 18411416228407027807
20645477 56 18335141939100830517
20645477 70 18342176626879258926
21267235 1 18410583885072466247
22485316 2 18410853261126187143
23402539 116 18342168956547332925
23402655 69 18411700976170073060
23559900 14 18270960137983022578
26918003 58 18411134740513864386
3545911 37 18410858758663188069
42 15 18334577927694056686
4214541 1 18410575059146638637
5104073 3 18410856559666164297
5374978 207 18342454854717775329
573450 72 18334847295221296363
69090 78 18410290315710527639
74978 22 15647629963271794029
77779 3 18410857659161973357
93112 12 18409731759350095783
9709674 26 18411144644629944663
9971528 1 17894349973750857372

>  <PUBCHEM_SHAPE_MULTIPOLES>  (1) 
273.17
9.58
1.46
0.66
0.48
0
0
0
0.04
-0.04
0
-0.03
0
0

>  <PUBCHEM_SHAPE_SELFOVERLAP>  (1) 
587.651

>  <PUBCHEM_SHAPE_VOLUME>  (1) 
149.5

>  <PUBCHEM_COORDINATE_TYPE>  (1) 
2
5
10

$$$$
