17383
     RDKit          3D

 10  9  0  0  1  0  0  0  0  0999 V2000
   -0.2045    1.7052    1.0954 O   0  0  0  0  0  0  0  0  0  0  0  0
    1.5503   -0.3855    1.2577 O   0  0  0  0  0  0  0  0  0  0  0  0
   -1.4279   -0.9653    1.1250 O   0  0  0  0  0  0  0  0  0  0  0  0
    0.0157   -0.0295   -0.6037 N   0  0  0  0  0  0  0  0  0  0  0  0
   -0.3261    1.3708   -0.2880 C   0  0  0  0  0  0  0  0  0  0  0  0
    1.3603   -0.4368   -0.1564 C   0  0  0  0  0  0  0  0  0  0  0  0
   -1.0450   -0.9921   -0.2499 C   0  0  0  0  0  0  0  0  0  0  0  0
   -1.7305    1.7363   -0.7750 C   0  0  0  0  0  0  0  0  0  0  0  0
    2.4460    0.4212   -0.8075 C   0  0  0  0  0  0  0  0  0  0  0  0
   -0.6384   -2.4243   -0.5978 C   0  0  0  0  0  0  0  0  0  0  0  0
  1  5  1  0
  2  6  1  0
  3  7  1  0
  4  5  1  0
  4  6  1  0
  4  7  1  0
  5  8  1  0
  6  9  1  0
  7 10  1  0
M  END
>  <PUBCHEM_COMPOUND_CID>  (1) 
17383

>  <PUBCHEM_CONFORMER_RMSD>  (1) 
0.6

>  <PUBCHEM_CONFORMER_DIVERSEORDER>  (1) 
2
8
1
18
7
5
13
17
6
14
11
3
10
15
4
12
9
16

>  <PUBCHEM_MMFF94_PARTIAL_CHARGES>  (1) 
10
1 -0.68
2 -0.68
23 0.4
24 0.4
25 0.4
3 -0.68
4 -0.81
5 0.55
6 0.55
7 0.55

>  <PUBCHEM_EFFECTIVE_ROTOR_COUNT>  (1) 
3

>  <PUBCHEM_PHARMACOPHORE_FEATURES>  (1) 
7
1 1 acceptor
1 1 donor
1 2 acceptor
1 2 donor
1 3 acceptor
1 3 donor
1 4 cation

>  <PUBCHEM_HEAVY_ATOM_COUNT>  (1) 
10

>  <PUBCHEM_ATOM_DEF_STEREO_COUNT>  (1) 
0

>  <PUBCHEM_ATOM_UDEF_STEREO_COUNT>  (1) 
3

>  <PUBCHEM_BOND_DEF_STEREO_COUNT>  (1) 
0

>  <PUBCHEM_BOND_UDEF_STEREO_COUNT>  (1) 
0

>  <PUBCHEM_ISOTOPIC_ATOM_COUNT>  (1) 
0

>  <PUBCHEM_COMPONENT_COUNT>  (1) 
1

>  <PUBCHEM_CACTVS_TAUTO_COUNT>  (1) 
1

>  <PUBCHEM_CONFORMER_ID>  (1) 
000043E700000002

>  <PUBCHEM_MMFF94_ENERGY>  (1) 
14.1972

>  <PUBCHEM_FEATURE_SELFOVERLAP>  (1) 
35.537

>  <PUBCHEM_SHAPE_FINGERPRINT>  (1) 
12423570 1 14226924248614153078
16945 1 18041292048501328990
18185500 45 18049449437032232238
20653091 64 17473271349406166155
21040471 1 18194671579924510316
241688 4 16392395863820938195
29004967 10 17606691489136335194
5084963 1 17762892169701325988

>  <PUBCHEM_SHAPE_MULTIPOLES>  (1) 
183.21
2.34
2.26
1.12
0.89
1.04
-0.28
-0.93
0.35
-0.89
0.27
0.05
-0.07
0.07

>  <PUBCHEM_SHAPE_SELFOVERLAP>  (1) 
336.519

>  <PUBCHEM_SHAPE_VOLUME>  (1) 
115.8

>  <PUBCHEM_COORDINATE_TYPE>  (1) 
2
5
10

$$$$
