17390
     RDKit          3D

 16 16  0  0  0  0  0  0  0  0999 V2000
    0.1518   -0.0288   -0.0730 O   0  0  0  0  0  0  0  0  0  0  0  0
    1.0350   -1.9932   -0.8857 O   0  0  0  0  0  0  0  0  0  0  0  0
   -3.5311    0.1157   -0.1019 N   0  0  0  0  0  0  0  0  0  0  0  0
   -2.1575    0.5601    0.1314 C   0  0  0  0  0  0  0  0  0  0  0  0
   -4.4785    1.1635    0.2765 C   0  0  0  0  0  0  0  0  0  0  0  0
   -3.8041   -1.1133    0.6422 C   0  0  0  0  0  0  0  0  0  0  0  0
   -1.1667   -0.5089   -0.3011 C   0  0  0  0  0  0  0  0  0  0  0  0
   -4.2096    2.4488   -0.4876 C   0  0  0  0  0  0  0  0  0  0  0  0
   -5.2078   -1.6234    0.3637 C   0  0  0  0  0  0  0  0  0  0  0  0
    1.1634   -0.8753   -0.4111 C   0  0  0  0  0  0  0  0  0  0  0  0
    2.4835   -0.2593   -0.1239 C   0  0  0  0  0  0  0  0  0  0  0  0
    3.5436   -1.0778    0.2078 C   0  0  0  0  0  0  0  0  0  0  0  0
    2.6090    1.1129   -0.1976 C   0  0  0  0  0  0  0  0  0  0  0  0
    4.7837   -0.4988    0.4779 C   0  0  0  0  0  0  0  0  0  0  0  0
    3.8490    1.6918    0.0723 C   0  0  0  0  0  0  0  0  0  0  0  0
    4.9363    0.8859    0.4101 C   0  0  0  0  0  0  0  0  0  0  0  0
  1  7  1  0
  1 10  1  0
  2 10  2  0
  3  4  1  0
  3  5  1  0
  3  6  1  0
  4  7  1  0
  5  8  1  0
  6  9  1  0
 10 11  1  0
 11 12  2  0
 11 13  1  0
 12 14  1  0
 13 15  2  0
 14 16  2  0
 15 16  1  0
M  END
>  <PUBCHEM_COMPOUND_CID>  (1) 
17390

>  <PUBCHEM_CONFORMER_RMSD>  (1) 
0.8

>  <PUBCHEM_CONFORMER_DIVERSEORDER>  (1) 
1
42
7
64
68
38
51
75
62
25
3
58
61
23
45
22
73
49
36
56
53
63
13
35
70
69
27
6
12
59
8
71
18
11
67
5
46
44
57
20
47
40
33
29
55
74
34
66
32
65
80
37
72
21
24
14
50
10
28
16
30
77
48
76
43
60
15
26
39
31
41
2
19
9
4
79
78
52
54
17
81

>  <PUBCHEM_MMFF94_PARTIAL_CHARGES>  (1) 
19
1 -0.43
10 0.63
11 0.09
12 -0.15
13 -0.15
14 -0.15
15 -0.15
16 -0.15
2 -0.57
3 -0.81
31 0.15
32 0.15
33 0.15
34 0.15
35 0.15
4 0.27
5 0.27
6 0.27
7 0.28

>  <PUBCHEM_EFFECTIVE_ROTOR_COUNT>  (1) 
7

>  <PUBCHEM_PHARMACOPHORE_FEATURES>  (1) 
3
1 2 acceptor
1 3 cation
6 11 12 13 14 15 16 rings

>  <PUBCHEM_HEAVY_ATOM_COUNT>  (1) 
16

>  <PUBCHEM_ATOM_DEF_STEREO_COUNT>  (1) 
0

>  <PUBCHEM_ATOM_UDEF_STEREO_COUNT>  (1) 
0

>  <PUBCHEM_BOND_DEF_STEREO_COUNT>  (1) 
0

>  <PUBCHEM_BOND_UDEF_STEREO_COUNT>  (1) 
0

>  <PUBCHEM_ISOTOPIC_ATOM_COUNT>  (1) 
0

>  <PUBCHEM_COMPONENT_COUNT>  (1) 
1

>  <PUBCHEM_CACTVS_TAUTO_COUNT>  (1) 
1

>  <PUBCHEM_CONFORMER_ID>  (1) 
000043EE00000001

>  <PUBCHEM_MMFF94_ENERGY>  (1) 
34.2896

>  <PUBCHEM_FEATURE_SELFOVERLAP>  (1) 
15.223

>  <PUBCHEM_SHAPE_FINGERPRINT>  (1) 
10014705 185 18334856074788830141
10354089 29 18410292549610194024
11405975 8 18265336118726735731
12107183 9 17756980108632073321
12403259 118 18409721876572676248
12507557 5 18343018895640719889
13167823 11 18334009497315276467
13214271 11 18411416203048739477
13237642 15 18410295851928510923
13675066 3 18344143691909362878
15196674 1 18410575084747825736
17844677 252 18409737261129589312
18222031 100 14851601098694547310
19433438 28 18409728482321860081
19489759 90 17821725044508058889
20645477 70 17560240193822737631
21065198 57 18336265639403941359
21065199 12 18408043996285551243
21709351 56 18410569578546771452
23402539 116 18186796976652048983
23402655 69 17988922245356852404
23557571 272 18335990804763123221
23559900 14 18126003767271512142
2916195 48 17988070205903411656
351380 180 18333449858760125561
3545911 37 18339646642260307469
42 15 18113898252008340018
4214541 1 18408040693608694361
474229 33 18342458200761646927
5104073 3 18409729538825630849
7495541 125 17774158040770232163
77779 3 18408604755573374097
90127 26 18335995215472938106

>  <PUBCHEM_SHAPE_MULTIPOLES>  (1) 
312.55
12.75
2.03
0.74
3.74
0.56
0.01
1.79
-2.23
1.62
0.2
0.01
-0.09
0.65

>  <PUBCHEM_SHAPE_SELFOVERLAP>  (1) 
627.298

>  <PUBCHEM_SHAPE_VOLUME>  (1) 
185.3

>  <PUBCHEM_COORDINATE_TYPE>  (1) 
2
5
10

$$$$
