17395
     RDKit          3D

 20 21  0  0  1  0  0  0  0  0999 V2000
   -2.3825   -0.7014    0.4152 N   0  0  0  0  0  0  0  0  0  0  0  0
   -0.3254    3.9071   -1.5778 N   0  0  0  0  0  0  0  0  0  0  0  0
   -1.7363    1.6525    0.6618 C   0  0  0  0  0  0  0  0  0  0  0  0
   -1.9855    0.3211    1.3772 C   0  0  0  0  0  0  0  0  0  0  0  0
   -0.6108    1.5521   -0.4038 C   0  0  0  0  0  0  0  0  0  0  0  0
    0.6916    1.0425    0.1318 C   0  0  0  0  0  0  0  0  0  0  0  0
   -3.6108   -0.3079   -0.2765 C   0  0  0  0  0  0  0  0  0  0  0  0
   -2.5654   -1.9917    1.0815 C   0  0  0  0  0  0  0  0  0  0  0  0
    1.2799   -0.1412   -0.3429 C   0  0  0  0  0  0  0  0  0  0  0  0
    2.5126   -0.5692    0.2049 C   0  0  0  0  0  0  0  0  0  0  0  0
    1.3098    1.7933    1.1323 C   0  0  0  0  0  0  0  0  0  0  0  0
   -4.0013   -1.3328   -1.3279 C   0  0  0  0  0  0  0  0  0  0  0  0
   -1.3005   -2.4193    1.8065 C   0  0  0  0  0  0  0  0  0  0  0  0
   -0.4452    2.8721   -1.0667 C   0  0  0  0  0  0  0  0  0  0  0  0
    0.6718   -0.9095   -1.3491 C   0  0  0  0  0  0  0  0  0  0  0  0
    3.1210    0.1992    1.2109 C   0  0  0  0  0  0  0  0  0  0  0  0
    2.5223    1.3725    1.6706 C   0  0  0  0  0  0  0  0  0  0  0  0
    3.1011   -1.7527   -0.2697 C   0  0  0  0  0  0  0  0  0  0  0  0
    1.2706   -2.0829   -1.8084 C   0  0  0  0  0  0  0  0  0  0  0  0
    2.4828   -2.5038   -1.2698 C   0  0  0  0  0  0  0  0  0  0  0  0
  1  4  1  0
  1  7  1  0
  1  8  1  0
  2 14  3  0
  3  4  1  0
  3  5  1  0
  5  6  1  0
  5 14  1  0
  6  9  2  0
  6 11  1  0
  7 12  1  0
  8 13  1  0
  9 10  1  0
  9 15  1  0
 10 16  2  0
 10 18  1  0
 11 17  2  0
 15 19  2  0
 16 17  1  0
 18 20  2  0
 19 20  1  0
M  END
>  <PUBCHEM_COMPOUND_CID>  (1) 
17395

>  <PUBCHEM_CONFORMER_RMSD>  (1) 
0.8

>  <PUBCHEM_CONFORMER_DIVERSEORDER>  (1) 
1
60
18
55
36
27
50
14
53
7
26
51
11
12
44
52
2
34
59
3
17
43
22
47
35
40
41
49
45
25
28
57
19
9
15
20
54
48
56
58
24
16
8
42
6
37
21
10
38
4
61
32
13
5
46
31
23
30
29
39
33

>  <PUBCHEM_MMFF94_PARTIAL_CHARGES>  (1) 
22
1 -0.81
11 -0.15
14 0.36
15 -0.15
16 -0.15
17 -0.15
18 -0.15
19 -0.15
2 -0.56
20 -0.15
30 0.15
37 0.15
38 0.15
39 0.15
4 0.27
40 0.15
41 0.15
42 0.15
5 0.34
6 -0.14
7 0.27
8 0.27

>  <PUBCHEM_EFFECTIVE_ROTOR_COUNT>  (1) 
6

>  <PUBCHEM_PHARMACOPHORE_FEATURES>  (1) 
4
1 1 cation
1 2 acceptor
6 6 9 10 11 16 17 rings
6 9 10 15 18 19 20 rings

>  <PUBCHEM_HEAVY_ATOM_COUNT>  (1) 
20

>  <PUBCHEM_ATOM_DEF_STEREO_COUNT>  (1) 
0

>  <PUBCHEM_ATOM_UDEF_STEREO_COUNT>  (1) 
1

>  <PUBCHEM_BOND_DEF_STEREO_COUNT>  (1) 
0

>  <PUBCHEM_BOND_UDEF_STEREO_COUNT>  (1) 
0

>  <PUBCHEM_ISOTOPIC_ATOM_COUNT>  (1) 
0

>  <PUBCHEM_COMPONENT_COUNT>  (1) 
1

>  <PUBCHEM_CACTVS_TAUTO_COUNT>  (1) 
1

>  <PUBCHEM_CONFORMER_ID>  (1) 
000043F300000001

>  <PUBCHEM_MMFF94_ENERGY>  (1) 
50.1812

>  <PUBCHEM_FEATURE_SELFOVERLAP>  (1) 
20.324

>  <PUBCHEM_SHAPE_FINGERPRINT>  (1) 
10906281 52 18334860566855389545
11471102 22 17989205923910203394
11582403 64 16538405725650023944
12011746 2 18343581880212036806
12553582 1 18262535765568653249
12633257 1 18057046800460980466
13294875 104 16966302515264569712
14022347 108 17969238779864720721
14863182 85 17629487655315218975
15207287 21 18338782520362191075
15415430 2 18190472570925163043
16945 1 18059016201853319864
17357779 13 18341890762350675559
19591789 44 18060137661481474526
20600515 1 17749379386507563109
20691752 17 18261396594376312243
20905425 154 17109617276471803993
22721475 48 18270133313512209130
23419403 2 17414680256036618035
23526113 38 17478038363772961916
2748010 2 18410864252137356227
3797600 57 15266774554485491075
568465 68 17846775192080114194
5845 1 13719167485558664629
81228 2 18264215724999894241
8809292 202 17909562665987325830

>  <PUBCHEM_SHAPE_MULTIPOLES>  (1) 
401.63
5.39
3.59
1.86
2.45
1.72
-0.04
-3.06
-0.34
-0.13
1.37
0.04
-0.19
1.48

>  <PUBCHEM_SHAPE_SELFOVERLAP>  (1) 
840.337

>  <PUBCHEM_SHAPE_VOLUME>  (1) 
226

>  <PUBCHEM_COORDINATE_TYPE>  (1) 
2
5
10

$$$$
