17399
     RDKit          3D

 14 13  0  0  0  0  0  0  0  0999 V2000
    5.6236   -0.6365    0.0055 O   0  0  0  0  0  0  0  0  0  0  0  0
   -5.5901    1.4155    0.0085 O   0  0  0  0  0  0  0  0  0  0  0  0
    4.5678    1.4147   -0.0182 O   0  0  0  0  0  0  0  0  0  0  0  0
   -0.5081    0.2029   -0.0153 C   0  0  0  0  0  0  0  0  0  0  0  0
   -1.7692   -0.6633   -0.0073 C   0  0  0  0  0  0  0  0  0  0  0  0
    0.7571   -0.6565    0.0006 C   0  0  0  0  0  0  0  0  0  0  0  0
   -3.0349    0.1992    0.0105 C   0  0  0  0  0  0  0  0  0  0  0  0
    2.0175    0.2089    0.0270 C   0  0  0  0  0  0  0  0  0  0  0  0
   -4.3120   -0.6390   -0.0158 C   0  0  0  0  0  0  0  0  0  0  0  0
    3.2814   -0.6493    0.0092 C   0  0  0  0  0  0  0  0  0  0  0  0
   -5.5883    0.1856    0.0078 C   0  0  0  0  0  0  0  0  0  0  0  0
    4.5373    0.1919   -0.0036 C   0  0  0  0  0  0  0  0  0  0  0  0
   -6.8794   -0.5910   -0.0058 C   0  0  0  0  0  0  0  0  0  0  0  0
    6.8972    0.0167   -0.0032 C   0  0  0  0  0  0  0  0  0  0  0  0
  1 12  1  0
  1 14  1  0
  2 11  2  0
  3 12  2  0
  4  5  1  0
  4  6  1  0
  5  7  1  0
  6  8  1  0
  7  9  1  0
  8 10  1  0
  9 11  1  0
 10 12  1  0
 11 13  1  0
M  END
>  <PUBCHEM_COMPOUND_CID>  (1) 
17399

>  <PUBCHEM_CONFORMER_RMSD>  (1) 
1

>  <PUBCHEM_CONFORMER_DIVERSEORDER>  (1) 
1
81
551
22
343
383
7
461
11
666
119
236
64
722
85
278
74
593
245
568
331
144
116
91
98
28
133
25
353
79
559
220
269
113
4
286
6
313
17
653
32
312
695
295
205
719
178
90
46
596
9
247
272
251
15
370
664
440
121
29
167
413
213
3
699
369
709
628
253
66
153
211
2
675
277
711
346
34
287
422
328
622
399
31
161
391
83
89
294
430
225
60
686
145
314
536
354
474
352
564
23
603
546
258
43
463
691
93
78
127
24
134
576
418
651
55
48
136
569
291
179
342
649
665
702
406
526
189
260
366
42
341
378
279
338
364
693
374
589
510
515
53
671
63
45
5
250

>  <PUBCHEM_MMFF94_PARTIAL_CHARGES>  (1) 
9
1 -0.43
10 0.06
11 0.45
12 0.66
13 0.06
14 0.28
2 -0.57
3 -0.57
9 0.06

>  <PUBCHEM_EFFECTIVE_ROTOR_COUNT>  (1) 
9

>  <PUBCHEM_PHARMACOPHORE_FEATURES>  (1) 
2
1 2 acceptor
1 3 acceptor

>  <PUBCHEM_HEAVY_ATOM_COUNT>  (1) 
14

>  <PUBCHEM_ATOM_DEF_STEREO_COUNT>  (1) 
0

>  <PUBCHEM_ATOM_UDEF_STEREO_COUNT>  (1) 
0

>  <PUBCHEM_BOND_DEF_STEREO_COUNT>  (1) 
0

>  <PUBCHEM_BOND_UDEF_STEREO_COUNT>  (1) 
0

>  <PUBCHEM_ISOTOPIC_ATOM_COUNT>  (1) 
0

>  <PUBCHEM_COMPONENT_COUNT>  (1) 
1

>  <PUBCHEM_CACTVS_TAUTO_COUNT>  (1) 
3

>  <PUBCHEM_CONFORMER_ID>  (1) 
000043F700000001

>  <PUBCHEM_MMFF94_ENERGY>  (1) 
7.305

>  <PUBCHEM_FEATURE_SELFOVERLAP>  (1) 
10.149

>  <PUBCHEM_SHAPE_FINGERPRINT>  (1) 
12091667 2 18413671314514350627
13167372 99 18411139100043229040
13533116 47 17241036618514336666
14123238 8 17603302648602931319
1420 363 18113340812229090075
14251718 22 18343021095164751739
14251764 18 18260828202968312944
14251764 46 18408884040501924567
17834072 33 18130785689653804525
17834076 25 18410573989615327427
20281389 69 18335137600593056697
20621476 8 18336266743194517493
20645477 70 18059580118533709382
20767249 213 18411138051796375911
21315763 28 18410573994020993077
220451 1 16805602572878629074
22224240 67 15285358448694526296
23402539 116 18272646861823659479
23521765 1 18341895194640789062
23536379 177 18410855447343616819
23559900 14 9439111036463284159
33684 2 18409165506461504202
3545911 37 18334295366022191298
42788 4 18410855464750189699
4463277 17 18410855464718781540
59755656 520 18187078477336123811
8209 1 18411419514352453846

>  <PUBCHEM_SHAPE_MULTIPOLES>  (1) 
270.51
19.85
1
0.6
0.25
0.21
0
1.1
0.02
0.23
0
0.03
-0.02
-0.02

>  <PUBCHEM_SHAPE_SELFOVERLAP>  (1) 
499.687

>  <PUBCHEM_SHAPE_VOLUME>  (1) 
170.7

>  <PUBCHEM_COORDINATE_TYPE>  (1) 
2
5
10

$$$$
