17392
     RDKit          3D

 27 29  0  0  1  0  0  0  0  0999 V2000
   -1.7098   -2.1917   -1.1790 N   0  0  0  0  0  0  0  0  0  0  0  0
    1.8440   -2.9216    2.1954 N   0  0  0  0  0  0  0  0  0  0  0  0
    1.7775   -1.1690    0.2054 C   0  0  0  0  0  0  0  0  0  0  0  0
    3.1868   -1.1967   -0.5257 C   0  0  0  0  0  0  0  0  0  0  0  0
    0.6525   -1.6475   -0.7816 C   0  0  0  0  0  0  0  0  0  0  0  0
    1.4797    0.2762    0.6702 C   0  0  0  0  0  0  0  0  0  0  0  0
   -0.7552   -1.7440   -0.1685 C   0  0  0  0  0  0  0  0  0  0  0  0
    3.5193   -2.5647   -1.1514 C   0  0  0  0  0  0  0  0  0  0  0  0
    4.3686   -0.7689    0.3618 C   0  0  0  0  0  0  0  0  0  0  0  0
    1.4137    1.3022   -0.2485 C   0  0  0  0  0  0  0  0  0  0  0  0
    1.8115   -2.1479    1.3304 C   0  0  0  0  0  0  0  0  0  0  0  0
    1.2954    0.4353    2.0215 C   0  0  0  0  0  0  0  0  0  0  0  0
    1.1374    2.6012    0.2405 C   0  0  0  0  0  0  0  0  0  0  0  0
   -3.0690   -2.1904   -0.6374 C   0  0  0  0  0  0  0  0  0  0  0  0
    1.0238    1.7128    2.5024 C   0  0  0  0  0  0  0  0  0  0  0  0
    1.6060    1.1137   -1.6268 C   0  0  0  0  0  0  0  0  0  0  0  0
   -1.3557   -3.5261   -1.6637 C   0  0  0  0  0  0  0  0  0  0  0  0
    0.9450    2.7896    1.6189 C   0  0  0  0  0  0  0  0  0  0  0  0
    1.0618    3.6735   -0.6632 C   0  0  0  0  0  0  0  0  0  0  0  0
   -3.4686   -0.8312   -0.1281 C   0  0  0  0  0  0  0  0  0  0  0  0
    1.5273    2.1906   -2.5103 C   0  0  0  0  0  0  0  0  0  0  0  0
    1.2557    3.4680   -2.0294 C   0  0  0  0  0  0  0  0  0  0  0  0
   -3.2157   -0.4953    1.1946 C   0  0  0  0  0  0  0  0  0  0  0  0
   -4.0847    0.0670   -0.9884 C   0  0  0  0  0  0  0  0  0  0  0  0
   -3.5862    0.7639    1.6665 C   0  0  0  0  0  0  0  0  0  0  0  0
   -4.4552    1.3263   -0.5165 C   0  0  0  0  0  0  0  0  0  0  0  0
   -4.2060    1.6747    0.8110 C   0  0  0  0  0  0  0  0  0  0  0  0
  1  7  1  0
  1 14  1  0
  1 17  1  0
  2 11  3  0
  3  4  1  0
  3  5  1  0
  3  6  1  0
  3 11  1  0
  4  8  1  0
  4  9  1  0
  5  7  1  0
  6 10  1  0
  6 12  2  0
 10 13  2  0
 10 16  1  0
 12 15  1  0
 13 18  1  0
 13 19  1  0
 14 20  1  0
 15 18  2  0
 16 21  2  0
 19 22  2  0
 20 23  2  0
 20 24  1  0
 21 22  1  0
 23 25  1  0
 24 26  2  0
 25 27  2  0
 26 27  1  0
M  END
>  <PUBCHEM_COMPOUND_CID>  (1) 
17392

>  <PUBCHEM_CONFORMER_RMSD>  (1) 
0.8

>  <PUBCHEM_CONFORMER_DIVERSEORDER>  (1) 
2
41
27
42
5
20
44
31
16
24
10
45
50
40
33
55
3
36
53
22
18
9
30
29
34
37
56
26
12
48
19
21
25
47
4
54
11
15
28
51
8
17
52
13
39
7
49
35
32
38
14
1
23
6
43
46

>  <PUBCHEM_MMFF94_PARTIAL_CHARGES>  (1) 
33
1 -0.81
11 0.36
12 -0.15
14 0.41
15 -0.15
16 -0.15
17 0.27
18 -0.15
19 -0.15
2 -0.56
20 -0.14
21 -0.15
22 -0.15
23 -0.15
24 -0.15
25 -0.15
26 -0.15
27 -0.15
3 0.34
39 0.15
42 0.15
43 0.15
47 0.15
48 0.15
49 0.15
50 0.15
51 0.15
52 0.15
53 0.15
54 0.15
55 0.15
6 -0.14
7 0.27

>  <PUBCHEM_EFFECTIVE_ROTOR_COUNT>  (1) 
7

>  <PUBCHEM_PHARMACOPHORE_FEATURES>  (1) 
6
1 1 cation
1 2 acceptor
3 4 8 9 hydrophobe
6 10 13 16 19 21 22 rings
6 20 23 24 25 26 27 rings
6 6 10 12 13 15 18 rings

>  <PUBCHEM_HEAVY_ATOM_COUNT>  (1) 
27

>  <PUBCHEM_ATOM_DEF_STEREO_COUNT>  (1) 
0

>  <PUBCHEM_ATOM_UDEF_STEREO_COUNT>  (1) 
1

>  <PUBCHEM_BOND_DEF_STEREO_COUNT>  (1) 
0

>  <PUBCHEM_BOND_UDEF_STEREO_COUNT>  (1) 
0

>  <PUBCHEM_ISOTOPIC_ATOM_COUNT>  (1) 
0

>  <PUBCHEM_COMPONENT_COUNT>  (1) 
1

>  <PUBCHEM_CACTVS_TAUTO_COUNT>  (1) 
1

>  <PUBCHEM_CONFORMER_ID>  (1) 
000043F000000002

>  <PUBCHEM_MMFF94_ENERGY>  (1) 
108.343

>  <PUBCHEM_FEATURE_SELFOVERLAP>  (1) 
30.472

>  <PUBCHEM_SHAPE_FINGERPRINT>  (1) 
104564 63 17908426848768576529
10764073 3 18056730236181638864
10940486 97 18271803583761410278
11513181 2 16479097935620058109
11582403 64 15262543780250732552
11640471 11 16599254189141570012
12035759 4 18051731856216196092
12156800 1 15182675856899386541
12166972 35 18343302527228862247
12788726 201 17682114370703602298
128993 33 18195826265192930393
133893 2 17752464719419838046
13583140 156 17895196585062390699
13642711 20 16525323791756868772
14713325 29 16815765604089258940
14955137 171 18197521587120808939
151778 21 18268455541011067649
15238133 3 16734371725922864773
15876981 60 15240013863000306712
1601671 61 18343017783687132622
17093844 170 17181932147388275549
17349148 13 10591756597594735166
17921350 177 17314780803202377477
18769570 83 18334289856169935938
18981168 100 17752490021051105691
20600515 1 18129953273431354454
20715895 44 17684883182043674511
22749437 52 18199172044795479721
23558518 356 18120086440656977443
2818148 4 18054252048462562787
3493558 16 17843104051688365976
350125 39 18271529814040073119
35225 105 17043711982024220661
3797600 57 16451504015782269475
4409770 3 17471823949780559578
550186 7 16545236325589478368

>  <PUBCHEM_SHAPE_MULTIPOLES>  (1) 
545.69
7.07
4.56
2.32
7.14
0.71
-0.32
-1.31
0.02
-1.86
1.48
-0.86
0.83
-1.41

>  <PUBCHEM_SHAPE_SELFOVERLAP>  (1) 
1169.649

>  <PUBCHEM_SHAPE_VOLUME>  (1) 
300.2

>  <PUBCHEM_COORDINATE_TYPE>  (1) 
2
5
10

$$$$
