17391
     RDKit          3D

 23 25  0  0  0  0  0  0  0  0999 V2000
    4.4327    3.5883   -0.1200 Cl  0  0  0  0  0  0  0  0  0  0  0  0
    4.3448   -3.6931    0.1209 Cl  0  0  0  0  0  0  0  0  0  0  0  0
   -5.7440    0.0689    0.0024 Cl  0  0  0  0  0  0  0  0  0  0  0  0
   -1.3594    2.3602   -0.0729 N   0  0  0  0  0  0  0  0  0  0  0  0
   -1.4165   -2.3279    0.0721 N   0  0  0  0  0  0  0  0  0  0  0  0
   -1.3554    0.0158   -0.0003 N   0  0  0  0  0  0  0  0  0  0  0  0
   -3.4479   -1.1580    0.0366 N   0  0  0  0  0  0  0  0  0  0  0  0
   -3.4187    1.2401   -0.0376 N   0  0  0  0  0  0  0  0  0  0  0  0
    0.0204    2.6526   -0.0832 C   0  0  0  0  0  0  0  0  0  0  0  0
   -0.0470   -2.6522    0.0828 C   0  0  0  0  0  0  0  0  0  0  0  0
   -2.0775    1.1491   -0.0352 C   0  0  0  0  0  0  0  0  0  0  0  0
   -2.1065   -1.0968    0.0342 C   0  0  0  0  0  0  0  0  0  0  0  0
    0.4863    3.8388    0.4835 C   0  0  0  0  0  0  0  0  0  0  0  0
    0.9187    1.7555   -0.6610 C   0  0  0  0  0  0  0  0  0  0  0  0
    0.3939   -3.8498   -0.4837 C   0  0  0  0  0  0  0  0  0  0  0  0
    0.8751   -1.7775    0.6610 C   0  0  0  0  0  0  0  0  0  0  0  0
    1.8508    4.1281    0.4722 C   0  0  0  0  0  0  0  0  0  0  0  0
    2.2833    2.0447   -0.6722 C   0  0  0  0  0  0  0  0  0  0  0  0
    1.7510   -4.1715   -0.4720 C   0  0  0  0  0  0  0  0  0  0  0  0
    2.2325   -2.0989    0.6726 C   0  0  0  0  0  0  0  0  0  0  0  0
    2.7494    3.2311   -0.1055 C   0  0  0  0  0  0  0  0  0  0  0  0
    2.6705   -3.2960    0.1060 C   0  0  0  0  0  0  0  0  0  0  0  0
   -4.0363    0.0484   -0.0007 C   0  0  0  0  0  0  0  0  0  0  0  0
  1 21  1  0
  2 22  1  0
  3 23  1  0
  4  9  1  0
  4 11  1  0
  5 10  1  0
  5 12  1  0
  6 11  2  0
  6 12  1  0
  7 12  2  0
  7 23  1  0
  8 11  1  0
  8 23  2  0
  9 13  2  0
  9 14  1  0
 10 15  2  0
 10 16  1  0
 13 17  1  0
 14 18  2  0
 15 19  1  0
 16 20  2  0
 17 21  2  0
 18 21  1  0
 19 22  2  0
 20 22  1  0
M  END
>  <PUBCHEM_COMPOUND_CID>  (1) 
17391

>  <PUBCHEM_CONFORMER_RMSD>  (1) 
0.6

>  <PUBCHEM_CONFORMER_DIVERSEORDER>  (1) 
1
40
6
23
36
46
5
39
11
30
22
38
19
25
8
24
41
48
13
2
20
37
45
9
12
16
14
47
31
21
34
44
35
43
33
7
32
26
17
15
42
28
4
27
18
29
3
10

>  <PUBCHEM_MMFF94_PARTIAL_CHARGES>  (1) 
33
1 -0.18
10 0.1
11 0.72
12 0.72
13 -0.15
14 -0.15
15 -0.15
16 -0.15
17 -0.15
18 -0.15
19 -0.15
2 -0.18
20 -0.15
21 0.18
22 0.18
23 0.8
24 0.4
25 0.4
26 0.15
27 0.15
28 0.15
29 0.15
3 -0.18
30 0.15
31 0.15
32 0.15
33 0.15
4 -0.6
5 -0.6
6 -0.62
7 -0.62
8 -0.62
9 0.1

>  <PUBCHEM_EFFECTIVE_ROTOR_COUNT>  (1) 
4

>  <PUBCHEM_PHARMACOPHORE_FEATURES>  (1) 
7
1 4 donor
1 5 donor
4 4 6 8 11 cation
4 5 6 7 12 cation
6 10 15 16 19 20 22 rings
6 6 7 8 11 12 23 rings
6 9 13 14 17 18 21 rings

>  <PUBCHEM_HEAVY_ATOM_COUNT>  (1) 
23

>  <PUBCHEM_ATOM_DEF_STEREO_COUNT>  (1) 
0

>  <PUBCHEM_ATOM_UDEF_STEREO_COUNT>  (1) 
0

>  <PUBCHEM_BOND_DEF_STEREO_COUNT>  (1) 
0

>  <PUBCHEM_BOND_UDEF_STEREO_COUNT>  (1) 
0

>  <PUBCHEM_ISOTOPIC_ATOM_COUNT>  (1) 
0

>  <PUBCHEM_COMPONENT_COUNT>  (1) 
1

>  <PUBCHEM_CACTVS_TAUTO_COUNT>  (1) 
5

>  <PUBCHEM_CONFORMER_ID>  (1) 
000043EF00000001

>  <PUBCHEM_MMFF94_ENERGY>  (1) 
75.2869

>  <PUBCHEM_FEATURE_SELFOVERLAP>  (1) 
35.564

>  <PUBCHEM_SHAPE_FINGERPRINT>  (1) 
10411042 1 18122344584406377587
10498660 4 17254554898623068966
10670039 82 17832160325043455894
1100329 8 18338795727713634538
11014199 57 17907303148022418670
13540713 4 18113337514854541779
138480 1 18338516322478442501
14028597 1 17701284605553020985
14363568 33 18338255798494964666
14866123 147 17547294861613260403
14955137 171 17834136151585050737
15664445 248 18128553573580746639
15927050 60 18196656413388273519
15961568 22 18123751959532699702
16719943 64 18049160266196768136
167882 2 18409163325261527261
17859628 97 18193555790302357464
17913733 40 18123210128217725443
19591789 44 17905896129848049859
19611394 137 18187944866555207954
19930381 70 18410291384903864954
20028762 73 17333946738452811535
21133410 171 16111434983050674610
21344244 246 18266443469118512463
22440779 20 16034435672235258499
23419403 2 17823396246237090391
23559900 14 18337945702330966475
3178227 256 16605765553459359731
5265222 85 17901400209691342060
532947 4 18339647840255321007
5385378 56 18338808900768949249
6700243 42 17340710512568412214
7364860 26 18409729560601107809

>  <PUBCHEM_SHAPE_MULTIPOLES>  (1) 
454.03
7.78
7.68
0.73
7.14
0.38
0
-0.34
0
-10.89
0.01
-0.21
0
-0.23

>  <PUBCHEM_SHAPE_SELFOVERLAP>  (1) 
956.225

>  <PUBCHEM_SHAPE_VOLUME>  (1) 
252.7

>  <PUBCHEM_COORDINATE_TYPE>  (1) 
2
5
10

$$$$
