17406
     RDKit          3D

 10 10  0  0  1  0  0  0  0  0999 V2000
   -3.3227   -0.5768   -0.7125 N   0  0  0  0  0  0  0  0  0  0  0  0
    3.4789   -0.3024   -0.6993 N   0  0  0  0  0  0  0  0  0  0  0  0
   -1.3282   -0.3625    0.6789 C   0  0  0  0  0  0  0  0  0  0  0  0
    1.1228   -0.2935   -0.0763 C   0  0  0  0  0  0  0  0  0  0  0  0
    0.1009   -0.8774    0.9113 C   0  0  0  0  0  0  0  0  0  0  0  0
   -1.3553    1.1714    0.6340 C   0  0  0  0  0  0  0  0  0  0  0  0
    1.0685    1.2393   -0.0761 C   0  0  0  0  0  0  0  0  0  0  0  0
   -0.3411    1.7590   -0.3448 C   0  0  0  0  0  0  0  0  0  0  0  0
   -1.9559   -0.9770   -0.5752 C   0  0  0  0  0  0  0  0  0  0  0  0
    2.5322   -0.7801    0.2601 C   0  0  0  0  0  0  0  0  0  0  0  0
  1  9  1  0
  2 10  1  0
  3  5  1  0
  3  6  1  0
  3  9  1  0
  4  5  1  0
  4  7  1  0
  4 10  1  0
  6  8  1  0
  7  8  1  0
M  END
>  <PUBCHEM_COMPOUND_CID>  (1) 
17406

>  <PUBCHEM_CONFORMER_RMSD>  (1) 
0.6

>  <PUBCHEM_CONFORMER_DIVERSEORDER>  (1) 
1
5
10
17
4
15
6
7
16
14
8
2
9
3
12
13
11

>  <PUBCHEM_MMFF94_PARTIAL_CHARGES>  (1) 
8
1 -0.99
10 0.27
2 -0.99
25 0.36
26 0.36
27 0.36
28 0.36
9 0.27

>  <PUBCHEM_EFFECTIVE_ROTOR_COUNT>  (1) 
3.2

>  <PUBCHEM_PHARMACOPHORE_FEATURES>  (1) 
5
1 1 cation
1 1 donor
1 2 cation
1 2 donor
6 3 4 5 6 7 8 rings

>  <PUBCHEM_HEAVY_ATOM_COUNT>  (1) 
10

>  <PUBCHEM_ATOM_DEF_STEREO_COUNT>  (1) 
0

>  <PUBCHEM_ATOM_UDEF_STEREO_COUNT>  (1) 
2

>  <PUBCHEM_BOND_DEF_STEREO_COUNT>  (1) 
0

>  <PUBCHEM_BOND_UDEF_STEREO_COUNT>  (1) 
0

>  <PUBCHEM_ISOTOPIC_ATOM_COUNT>  (1) 
0

>  <PUBCHEM_COMPONENT_COUNT>  (1) 
1

>  <PUBCHEM_CACTVS_TAUTO_COUNT>  (1) 
1

>  <PUBCHEM_CONFORMER_ID>  (1) 
000043FE00000001

>  <PUBCHEM_MMFF94_ENERGY>  (1) 
6.7848

>  <PUBCHEM_FEATURE_SELFOVERLAP>  (1) 
25.371

>  <PUBCHEM_SHAPE_FINGERPRINT>  (1) 
11206711 2 18261110733911068156
12897270 3 18410571794771131078
12932764 1 18200319814517596778
13024252 1 17240780436014514392
14128692 85 18201154463685307967
16945 1 18335139795225996906
18185500 45 18408319964992680827
20653085 51 14562820936463560694
21040471 1 17759800347420410424
21293036 1 17967252022140129238
23552423 10 18262238927309256576
241688 4 18408882923430918649
2748010 2 17973735971263832698
369184 2 13840561665404549240
5084963 1 18202565077074422906

>  <PUBCHEM_SHAPE_MULTIPOLES>  (1) 
195.83
4.16
1.53
0.91
1.19
0.65
0.06
-1.45
-1.28
-0.24
-0.02
-0.18
-0.1
-0.3

>  <PUBCHEM_SHAPE_SELFOVERLAP>  (1) 
376.187

>  <PUBCHEM_SHAPE_VOLUME>  (1) 
116.1

>  <PUBCHEM_COORDINATE_TYPE>  (1) 
2
5
10

$$$$
