1740
     RDKit          3D

 13 12  0  0  1  0  0  0  0  0999 V2000
   -1.7965   -1.7594    0.5412 O   0  0  0  0  0  0  0  0  0  0  0  0
   -3.4764    0.1954   -0.0252 O   0  0  0  0  0  0  0  0  0  0  0  0
   -1.7653    1.7077    0.0121 O   0  0  0  0  0  0  0  0  0  0  0  0
    0.6394   -1.4793   -1.4913 O   0  0  0  0  0  0  0  0  0  0  0  0
    0.2214    0.7583   -1.7357 O   0  0  0  0  0  0  0  0  0  0  0  0
    3.1798   -0.7882    0.4477 O   0  0  0  0  0  0  0  0  0  0  0  0
    2.7383    1.4349    0.1259 O   0  0  0  0  0  0  0  0  0  0  0  0
   -1.3782   -0.4432    0.8922 C   0  0  0  0  0  0  0  0  0  0  0  0
    0.0272   -0.2172    0.4131 C   0  0  0  0  0  0  0  0  0  0  0  0
    1.1075    0.0693    1.1561 C   0  0  0  0  0  0  0  0  0  0  0  0
   -2.3016    0.5824    0.2304 C   0  0  0  0  0  0  0  0  0  0  0  0
    0.3229   -0.3234   -1.0886 C   0  0  0  0  0  0  0  0  0  0  0  0
    2.4813    0.2628    0.5222 C   0  0  0  0  0  0  0  0  0  0  0  0
  1  8  1  0
  2 11  1  0
  3 11  2  0
  4 12  1  0
  5 12  2  0
  6 13  1  0
  7 13  2  0
  8  9  1  0
  8 11  1  0
  9 10  2  0
  9 12  1  0
 10 13  1  0
M  CHG  3   2  -1   4  -1   6  -1
M  END
>  <PUBCHEM_COMPOUND_CID>  (1) 
1740

>  <PUBCHEM_CONFORMER_RMSD>  (1) 
0.6

>  <PUBCHEM_CONFORMER_DIVERSEORDER>  (1) 
1
13
34
32
12
26
25
35
18
21
22
7
8
31
29
23
11
28
20
6
33
10
19
30
27
24
14
16
9
5
2
3
17
15
4

>  <PUBCHEM_MMFF94_PARTIAL_CHARGES>  (1) 
15
1 -0.68
10 -0.4
11 0.91
12 1.05
13 1.05
15 0.15
16 0.4
2 -0.9
3 -0.9
4 -0.9
5 -0.9
6 -0.9
7 -0.9
8 0.31
9 -0.39

>  <PUBCHEM_EFFECTIVE_ROTOR_COUNT>  (1) 
4

>  <PUBCHEM_PHARMACOPHORE_FEATURES>  (1) 
11
1 1 acceptor
1 1 donor
1 2 acceptor
1 3 acceptor
1 4 acceptor
1 5 acceptor
1 6 acceptor
1 7 acceptor
3 2 3 11 anion
3 4 5 12 anion
3 6 7 13 anion

>  <PUBCHEM_HEAVY_ATOM_COUNT>  (1) 
13

>  <PUBCHEM_ATOM_DEF_STEREO_COUNT>  (1) 
0

>  <PUBCHEM_ATOM_UDEF_STEREO_COUNT>  (1) 
1

>  <PUBCHEM_BOND_DEF_STEREO_COUNT>  (1) 
0

>  <PUBCHEM_BOND_UDEF_STEREO_COUNT>  (1) 
1

>  <PUBCHEM_ISOTOPIC_ATOM_COUNT>  (1) 
0

>  <PUBCHEM_COMPONENT_COUNT>  (1) 
1

>  <PUBCHEM_CACTVS_TAUTO_COUNT>  (1) 
1

>  <PUBCHEM_CONFORMER_ID>  (1) 
000006CC00000001

>  <PUBCHEM_MMFF94_ENERGY>  (1) 
25.9922

>  <PUBCHEM_FEATURE_SELFOVERLAP>  (1) 
56.002

>  <PUBCHEM_SHAPE_FINGERPRINT>  (1) 
11031198 65 17275111600234197513
12138202 97 18342731932006878735
13839132 238 18196374723578606761
14993402 34 16950282888535348771
15219459 28 18343591741330854591
15775835 57 16845563232105247520
16945 1 18335134267661096296
20653091 64 14419281995475368008
21028194 46 18060411396141199392
23402539 116 18340756079726153757
369184 2 18334574663529409569
5084963 1 16845283990358394088
528862 383 17702661038949360734
528886 8 13542460968774735629

>  <PUBCHEM_SHAPE_MULTIPOLES>  (1) 
226.45
4.27
1.38
1.28
0.09
0.07
0.46
-0.69
-0.86
-0.16
0.15
0.23
0.17
0.23

>  <PUBCHEM_SHAPE_SELFOVERLAP>  (1) 
458.837

>  <PUBCHEM_SHAPE_VOLUME>  (1) 
129.9

>  <PUBCHEM_COORDINATE_TYPE>  (1) 
2
5
10

$$$$
