17405
     RDKit          3D

 17 18  0  0  0  0  0  0  0  0999 V2000
   -0.9095   -0.9799    0.0038 S   0  0  0  0  0  0  0  0  0  0  0  0
    2.1015   -0.4222    0.0028 O   0  0  0  0  0  0  0  0  0  0  0  0
   -5.2788    0.7374   -0.0020 O   0  0  0  0  0  0  0  0  0  0  0  0
    5.5952   -0.5751   -0.0056 O   0  0  0  0  0  0  0  0  0  0  0  0
    4.0662   -2.1502    0.0027 O   0  0  0  0  0  0  0  0  0  0  0  0
   -3.5375   -0.8618    0.0009 N   0  0  0  0  0  0  0  0  0  0  0  0
   -0.9370    1.5822    0.0019 N   0  0  0  0  0  0  0  0  0  0  0  0
   -2.2656    1.1944    0.0009 N   0  0  0  0  0  0  0  0  0  0  0  0
    4.3773   -0.9226   -0.0012 N   0  0  0  0  0  0  0  0  0  0  0  0
    1.2845    0.6638    0.0019 C   0  0  0  0  0  0  0  0  0  0  0  0
   -0.1301    0.5456    0.0037 C   0  0  0  0  0  0  0  0  0  0  0  0
    2.0231    1.8241   -0.0017 C   0  0  0  0  0  0  0  0  0  0  0  0
    3.3755    0.0499   -0.0002 C   0  0  0  0  0  0  0  0  0  0  0  0
    3.3810    1.4254   -0.0031 C   0  0  0  0  0  0  0  0  0  0  0  0
   -2.3912   -0.1155    0.0016 C   0  0  0  0  0  0  0  0  0  0  0  0
   -4.8869   -0.4250   -0.0007 C   0  0  0  0  0  0  0  0  0  0  0  0
   -5.8677   -1.5705   -0.0056 C   0  0  0  0  0  0  0  0  0  0  0  0
  1 11  1  0
  1 15  1  0
  2 10  1  0
  2 13  1  0
  3 16  2  0
  4  9  1  0
  5  9  2  0
  6 15  1  0
  6 16  1  0
  7  8  1  0
  7 11  2  0
  8 15  2  0
  9 13  1  0
 10 11  1  0
 10 12  2  0
 12 14  1  0
 13 14  2  0
 16 17  1  0
M  CHG  2   4  -1   9   1
M  END
>  <PUBCHEM_COMPOUND_CID>  (1) 
17405

>  <PUBCHEM_CONFORMER_RMSD>  (1) 
0.6

>  <PUBCHEM_CONFORMER_DIVERSEORDER>  (1) 
1
11
16
7
5
8
12
15
9
13
10
14
2
4
6
3

>  <PUBCHEM_MMFF94_PARTIAL_CHARGES>  (1) 
20
1 -0.08
10 0.14
11 0.38
12 -0.15
13 0.22
14 -0.15
15 0.44
16 0.57
17 0.06
18 0.15
19 0.15
2 -0.28
20 0.37
3 -0.57
4 -0.52
5 -0.52
6 -0.49
7 -0.34
8 -0.34
9 0.96

>  <PUBCHEM_EFFECTIVE_ROTOR_COUNT>  (1) 
4

>  <PUBCHEM_PHARMACOPHORE_FEATURES>  (1) 
9
1 2 acceptor
1 3 acceptor
1 4 acceptor
1 4 anion
1 5 acceptor
1 6 donor
1 7 acceptor
5 1 7 8 11 15 rings
5 2 10 12 13 14 rings

>  <PUBCHEM_HEAVY_ATOM_COUNT>  (1) 
17

>  <PUBCHEM_ATOM_DEF_STEREO_COUNT>  (1) 
0

>  <PUBCHEM_ATOM_UDEF_STEREO_COUNT>  (1) 
0

>  <PUBCHEM_BOND_DEF_STEREO_COUNT>  (1) 
0

>  <PUBCHEM_BOND_UDEF_STEREO_COUNT>  (1) 
0

>  <PUBCHEM_ISOTOPIC_ATOM_COUNT>  (1) 
0

>  <PUBCHEM_COMPONENT_COUNT>  (1) 
1

>  <PUBCHEM_CACTVS_TAUTO_COUNT>  (1) 
3

>  <PUBCHEM_CONFORMER_ID>  (1) 
000043FD00000001

>  <PUBCHEM_MMFF94_ENERGY>  (1) 
23.646

>  <PUBCHEM_FEATURE_SELFOVERLAP>  (1) 
45.765

>  <PUBCHEM_SHAPE_FINGERPRINT>  (1) 
12032990 46 18408604777391251277
12715332 25 18059572529273554711
13167823 11 18411979195904633511
13288520 33 18411702058311836597
13533116 47 18272089426239013546
13690532 89 18410012130419971553
13862211 1 18341891926825058071
13955234 65 18269554017156366136
14115302 16 17749117724367833030
14251731 8 18335419041531464205
14251764 18 18201725076593621529
14252887 29 17846504691103657446
14350574 20 18261111884941009348
14455015 7 18260274066182431163
15196674 1 18410574011411949765
15477762 27 18409168797160651540
17834072 33 18411983597734116765
17834072 8 18187639194401579221
17844677 252 18409455808192340965
18186145 218 17603856841017854789
200 152 18273494576661849153
20369508 70 18343582967018292608
20374829 77 18334573534058518515
20645477 70 18409166623364082230
21150785 3 11314310594590586899
21267235 1 18412551998528680742
23402539 116 18201715155018818181
23559900 14 18336545027316820112
2871803 45 18113333111226017475
3004659 81 18259703406730882796
3286 77 17989486342140577001
42 15 18411702088439891653
4214541 1 18410856547425164449
465052 167 18343026609354504238
5104073 3 18413672422125472441
522135 26 18335984246258332804
5374978 207 18343297102236878664
542803 24 13045936906913312599
57483677 66 18413106191017496175
59682541 35 18272078449362863186
7364860 26 18340486781182668008
7495541 125 17130987732435663851
77779 3 18409730685972469997
90127 26 17458063781303467469
9709674 26 18189619517321298387

>  <PUBCHEM_SHAPE_MULTIPOLES>  (1) 
310.3
12.48
1.77
0.58
7.28
0.1
0
5.18
-0.03
-0.96
0
0.03
-0.01
0

>  <PUBCHEM_SHAPE_SELFOVERLAP>  (1) 
650.068

>  <PUBCHEM_SHAPE_VOLUME>  (1) 
177.8

>  <PUBCHEM_COORDINATE_TYPE>  (1) 
2
5
10

$$$$
