17404
     RDKit          3D

 18 19  0  0  0  0  0  0  0  0999 V2000
   -4.9626   -1.8304    0.5442 Br  0  0  0  0  0  0  0  0  0  0  0  0
   -3.2352    3.5005   -0.3462 Br  0  0  0  0  0  0  0  0  0  0  0  0
   -1.9216   -2.3717    0.2318 O   0  0  0  0  0  0  0  0  0  0  0  0
    0.4202   -1.6868   -0.7173 O   0  0  0  0  0  0  0  0  0  0  0  0
    1.1429    0.3727    0.1438 N   0  0  0  0  0  0  0  0  0  0  0  0
   -1.2081   -0.1283   -0.1419 C   0  0  0  0  0  0  0  0  0  0  0  0
    2.5536    0.2454    0.1214 C   0  0  0  0  0  0  0  0  0  0  0  0
    0.1783   -0.5595   -0.2595 C   0  0  0  0  0  0  0  0  0  0  0  0
   -2.2283   -1.0478    0.1016 C   0  0  0  0  0  0  0  0  0  0  0  0
   -1.5084    1.2272   -0.2753 C   0  0  0  0  0  0  0  0  0  0  0  0
   -3.5488   -0.6120    0.2119 C   0  0  0  0  0  0  0  0  0  0  0  0
   -2.8288    1.6633   -0.1653 C   0  0  0  0  0  0  0  0  0  0  0  0
   -3.8491    0.7438    0.0783 C   0  0  0  0  0  0  0  0  0  0  0  0
    3.1190   -0.9277   -0.3484 C   0  0  0  0  0  0  0  0  0  0  0  0
    3.3348    1.2969    0.5691 C   0  0  0  0  0  0  0  0  0  0  0  0
    4.5080   -1.0532   -0.3710 C   0  0  0  0  0  0  0  0  0  0  0  0
    4.7239    1.1714    0.5464 C   0  0  0  0  0  0  0  0  0  0  0  0
    5.3104   -0.0037    0.0763 C   0  0  0  0  0  0  0  0  0  0  0  0
  1 11  1  0
  2 12  1  0
  3  9  1  0
  4  8  2  0
  5  7  1  0
  5  8  1  0
  6  8  1  0
  6  9  2  0
  6 10  1  0
  7 14  2  0
  7 15  1  0
  9 11  1  0
 10 12  2  0
 11 13  2  0
 12 13  1  0
 14 16  1  0
 15 17  2  0
 16 18  2  0
 17 18  1  0
M  END
>  <PUBCHEM_COMPOUND_CID>  (1) 
17404

>  <PUBCHEM_CONFORMER_RMSD>  (1) 
0.6

>  <PUBCHEM_CONFORMER_DIVERSEORDER>  (1) 
4
1
5
2
3

>  <PUBCHEM_MMFF94_PARTIAL_CHARGES>  (1) 
27
1 -0.11
10 -0.15
11 0.11
12 0.11
13 -0.15
14 -0.15
15 -0.15
16 -0.15
17 -0.15
18 -0.15
19 0.15
2 -0.11
20 0.37
21 0.15
22 0.15
23 0.15
24 0.15
25 0.15
26 0.15
27 0.45
3 -0.53
4 -0.57
5 -0.55
6 0.09
7 0.12
8 0.54
9 0.08

>  <PUBCHEM_EFFECTIVE_ROTOR_COUNT>  (1) 
3

>  <PUBCHEM_PHARMACOPHORE_FEATURES>  (1) 
7
1 1 hydrophobe
1 2 hydrophobe
1 3 donor
1 4 acceptor
1 5 donor
6 6 9 10 11 12 13 rings
6 7 14 15 16 17 18 rings

>  <PUBCHEM_HEAVY_ATOM_COUNT>  (1) 
18

>  <PUBCHEM_ATOM_DEF_STEREO_COUNT>  (1) 
0

>  <PUBCHEM_ATOM_UDEF_STEREO_COUNT>  (1) 
0

>  <PUBCHEM_BOND_DEF_STEREO_COUNT>  (1) 
0

>  <PUBCHEM_BOND_UDEF_STEREO_COUNT>  (1) 
0

>  <PUBCHEM_ISOTOPIC_ATOM_COUNT>  (1) 
0

>  <PUBCHEM_COMPONENT_COUNT>  (1) 
1

>  <PUBCHEM_CACTVS_TAUTO_COUNT>  (1) 
7

>  <PUBCHEM_CONFORMER_ID>  (1) 
000043FC00000004

>  <PUBCHEM_MMFF94_ENERGY>  (1) 
56.9351

>  <PUBCHEM_FEATURE_SELFOVERLAP>  (1) 
35.52

>  <PUBCHEM_SHAPE_FINGERPRINT>  (1) 
10 15 18268419304667449392
10319926 262 18338502063931039898
10608611 8 18341048532090841636
10646746 165 18410856517070132764
10912923 1 17530965770227524040
12107183 9 17756979013642279122
12173636 292 18337105679362232181
12236239 1 17313103072600374950
12390115 104 18198920123257105129
12403259 226 18341889736096318497
12403259 415 18131347523121827768
12507560 40 18413669119511697380
12596602 18 17240761834711830152
12616971 3 14189573048777026200
12916748 109 18408605885482095450
13073987 5 18334851702422121042
13081056 2 18343302587041763240
13140716 1 18120099643749896651
13167823 11 18261388932270967002
13214271 11 18412543211130913005
13675066 3 18201997738007225288
14341114 176 18411142467481828632
14420673 8 18046905975160250386
15042514 8 18264775539938737659
15196674 1 18412262822432904712
17804303 29 18411704304622053789
17834072 32 18266457598975632573
17844677 252 18408892845301237700
1813 80 17022621983688868454
18186145 218 17989213624923559024
19433438 28 18412543228020735760
200 152 17418089923103745047
20510252 161 18413672405082668305
20645477 56 18265338317919062453
20645477 70 17274829004682577198
21033648 29 17988065747505955392
21065198 57 18411135823251668230
21065199 12 18411980265261442736
21065201 7 18335137557933092546
21236236 1 18413388718704267017
21267235 1 18337399321791660778
21279426 13 18125726682368212638
21339142 126 18341048609996358623
22182937 141 18270123388175721361
2297311 6 18338809986514336620
2306618 200 18272658922313606857
23402539 116 18339356466017601903
23557571 272 18341339937369538036
23559900 14 18269836433052284356
23845131 108 17690295815889727521
245318 6 16593383845734190532
283562 15 18409445878565290131
3545911 37 18271809047101409848
4214541 1 18410855438896217312
474 4 16951698085124359628
5104073 3 18411980222216915930
542803 24 14045744841683652890
573450 72 18114452375687904448
77779 3 18410575076547956472
90127 26 18335149678515561200
9709674 26 18341618113732575326

>  <PUBCHEM_SHAPE_MULTIPOLES>  (1) 
365.6
11.37
2.75
0.74
8.63
1.76
0.01
-0.3
1.34
-4.11
-0.13
0.06
0
1.19

>  <PUBCHEM_SHAPE_SELFOVERLAP>  (1) 
760.91

>  <PUBCHEM_SHAPE_VOLUME>  (1) 
214.2

>  <PUBCHEM_COORDINATE_TYPE>  (1) 
2
5
10

$$$$
