17418
     RDKit          3D

 47 51  0  0  0  0  0  0  0  0999 V2000
  -11.7218   -3.5980   -0.2792 S   0  0  0  0  0  0  0  0  0  0  0  0
  -11.9718   -4.2673    1.1913 O   0  0  0  0  0  0  0  0  0  0  0  0
  -12.9303   -2.8627   -0.6219 O   0  0  0  0  0  0  0  0  0  0  0  0
  -11.2061   -4.6312   -1.1638 O   0  0  0  0  0  0  0  0  0  0  0  0
   13.4430   -2.2938    0.0452 O   0  0  0  0  0  0  0  0  0  0  0  0
   12.1542    1.3284   -1.3525 O   0  0  0  0  0  0  0  0  0  0  0  0
   13.9097    0.4082   -0.2398 O   0  0  0  0  0  0  0  0  0  0  0  0
   -2.3594    2.0280   -0.4821 N   0  0  0  0  0  0  0  0  0  0  0  0
   -3.0059    4.6707    0.2078 N   0  0  0  0  0  0  0  0  0  0  0  0
   -4.3880    0.1282   -0.8730 N   0  0  0  0  0  0  0  0  0  0  0  0
   -7.0840    0.9034   -0.5647 N   0  0  0  0  0  0  0  0  0  0  0  0
   -1.9005    1.6274    0.6134 N   0  0  0  0  0  0  0  0  0  0  0  0
   -7.3500    0.3346    0.5191 N   0  0  0  0  0  0  0  0  0  0  0  0
    7.5103   -0.9853   -0.4396 N   0  0  0  0  0  0  0  0  0  0  0  0
    8.1301   -0.7972    0.6336 N   0  0  0  0  0  0  0  0  0  0  0  0
   -5.3658    4.0849    0.1620 C   0  0  0  0  0  0  0  0  0  0  0  0
   -4.0295    3.7138    0.0122 C   0  0  0  0  0  0  0  0  0  0  0  0
   -3.7057    2.4018   -0.3309 C   0  0  0  0  0  0  0  0  0  0  0  0
   -4.7156    1.4603   -0.5245 C   0  0  0  0  0  0  0  0  0  0  0  0
   -6.0518    1.8315   -0.3748 C   0  0  0  0  0  0  0  0  0  0  0  0
   -6.3769    3.1439   -0.0315 C   0  0  0  0  0  0  0  0  0  0  0  0
    2.1116    0.5125    0.1646 C   0  0  0  0  0  0  0  0  0  0  0  0
    3.4976    0.1276    0.0093 C   0  0  0  0  0  0  0  0  0  0  0  0
   -5.7445    5.4829    0.5294 C   0  0  0  0  0  0  0  0  0  0  0  0
    1.7868    1.8248    0.5075 C   0  0  0  0  0  0  0  0  0  0  0  0
    1.1003   -0.4287   -0.0287 C   0  0  0  0  0  0  0  0  0  0  0  0
   -0.5608    1.2551    0.4635 C   0  0  0  0  0  0  0  0  0  0  0  0
    4.4375    1.0649   -0.4190 C   0  0  0  0  0  0  0  0  0  0  0  0
    3.8940   -1.1804    0.2882 C   0  0  0  0  0  0  0  0  0  0  0  0
    0.4505    2.1962    0.6569 C   0  0  0  0  0  0  0  0  0  0  0  0
   -0.2359   -0.0572    0.1207 C   0  0  0  0  0  0  0  0  0  0  0  0
    6.1705   -0.6136   -0.2896 C   0  0  0  0  0  0  0  0  0  0  0  0
    5.7739    0.6943   -0.5685 C   0  0  0  0  0  0  0  0  0  0  0  0
    5.2305   -1.5509    0.1387 C   0  0  0  0  0  0  0  0  0  0  0  0
   -8.3856   -0.5963    0.3291 C   0  0  0  0  0  0  0  0  0  0  0  0
  -10.4351   -2.4413   -0.0437 C   0  0  0  0  0  0  0  0  0  0  0  0
   -9.7096   -0.1987    0.4866 C   0  0  0  0  0  0  0  0  0  0  0  0
   -8.0785   -1.9094   -0.0134 C   0  0  0  0  0  0  0  0  0  0  0  0
  -10.7370   -1.1235    0.2999 C   0  0  0  0  0  0  0  0  0  0  0  0
   -9.1060   -2.8342   -0.2002 C   0  0  0  0  0  0  0  0  0  0  0  0
    9.4764   -1.1710    0.4825 C   0  0  0  0  0  0  0  0  0  0  0  0
   11.7465   -0.6034   -0.0941 C   0  0  0  0  0  0  0  0  0  0  0  0
   10.4102   -0.2322    0.0551 C   0  0  0  0  0  0  0  0  0  0  0  0
    9.8654   -2.4773    0.7622 C   0  0  0  0  0  0  0  0  0  0  0  0
   12.1423   -1.9116    0.1848 C   0  0  0  0  0  0  0  0  0  0  0  0
   11.2017   -2.8484    0.6130 C   0  0  0  0  0  0  0  0  0  0  0  0
   12.7131    0.3900   -0.5414 C   0  0  0  0  0  0  0  0  0  0  0  0
  1  2  1  0
  1  3  2  0
  1  4  2  0
  1 36  1  0
  5 45  1  0
  6 47  1  0
  7 47  2  0
  8 12  2  0
  8 18  1  0
  9 17  1  0
 10 19  1  0
 11 13  2  0
 11 20  1  0
 12 27  1  0
 13 35  1  0
 14 15  2  0
 14 32  1  0
 15 41  1  0
 16 17  2  0
 16 21  1  0
 16 24  1  0
 17 18  1  0
 18 19  2  0
 19 20  1  0
 20 21  2  0
 22 23  1  0
 22 25  2  0
 22 26  1  0
 23 28  2  0
 23 29  1  0
 25 30  1  0
 26 31  2  0
 27 30  2  0
 27 31  1  0
 28 33  1  0
 29 34  2  0
 32 33  2  0
 32 34  1  0
 35 37  2  0
 35 38  1  0
 36 39  2  0
 36 40  1  0
 37 39  1  0
 38 40  2  0
 41 43  1  0
 41 44  2  0
 42 43  2  0
 42 45  1  0
 42 47  1  0
 44 46  1  0
 45 46  2  0
M  END
>  <PUBCHEM_COMPOUND_CID>  (1) 
17418

>  <PUBCHEM_CONFORMER_RMSD>  (1) 
1.2

>  <PUBCHEM_CONFORMER_DIVERSEORDER>  (1) 
1
2
6
3
4
5

>  <PUBCHEM_MMFF94_PARTIAL_CHARGES>  (1) 
68
1 1.49
10 -0.9
11 -0.18
12 -0.18
13 -0.18
14 -0.18
15 -0.18
16 -0.14
17 0.1
18 0.18
19 0.1
2 -0.68
20 0.18
21 -0.15
24 0.14
25 -0.15
26 -0.15
27 0.18
28 -0.15
29 -0.15
3 -0.65
30 -0.15
31 -0.15
32 0.18
33 -0.15
34 -0.15
35 0.18
36 -0.01
37 -0.15
38 -0.15
39 -0.15
4 -0.65
40 -0.15
41 0.18
42 0.09
43 -0.15
44 -0.15
45 0.08
46 -0.15
47 0.63
48 0.15
5 -0.53
52 0.15
53 0.15
54 0.15
55 0.15
56 0.15
57 0.15
58 0.4
59 0.4
6 -0.65
60 0.15
61 0.15
62 0.4
63 0.4
64 0.15
65 0.15
66 0.15
67 0.15
68 0.15
69 0.15
7 -0.57
70 0.15
71 0.5
72 0.45
73 0.5
8 -0.18
9 -0.9

>  <PUBCHEM_EFFECTIVE_ROTOR_COUNT>  (1) 
9

>  <PUBCHEM_PHARMACOPHORE_FEATURES>  (1) 
17
1 10 cation
1 10 donor
1 2 acceptor
1 3 acceptor
1 4 acceptor
1 5 donor
1 6 acceptor
1 7 acceptor
1 9 cation
1 9 donor
3 6 7 47 anion
4 1 2 3 4 anion
6 16 17 18 19 20 21 rings
6 22 25 26 27 30 31 rings
6 23 28 29 32 33 34 rings
6 35 36 37 38 39 40 rings
6 41 42 43 44 45 46 rings

>  <PUBCHEM_HEAVY_ATOM_COUNT>  (1) 
47

>  <PUBCHEM_ATOM_DEF_STEREO_COUNT>  (1) 
0

>  <PUBCHEM_ATOM_UDEF_STEREO_COUNT>  (1) 
0

>  <PUBCHEM_BOND_DEF_STEREO_COUNT>  (1) 
0

>  <PUBCHEM_BOND_UDEF_STEREO_COUNT>  (1) 
0

>  <PUBCHEM_ISOTOPIC_ATOM_COUNT>  (1) 
0

>  <PUBCHEM_COMPONENT_COUNT>  (1) 
1

>  <PUBCHEM_CACTVS_TAUTO_COUNT>  (1) 
85

>  <PUBCHEM_CONFORMER_ID>  (1) 
0000440A00000001

>  <PUBCHEM_MMFF94_ENERGY>  (1) 
161.8252

>  <PUBCHEM_FEATURE_SELFOVERLAP>  (1) 
86.387

>  <PUBCHEM_SHAPE_FINGERPRINT>  (1) 
10100884 174 18335420206037969987
10580692 12 18409167689127836506
11146346 171 18273213080917060634
12013929 94 18411138030485440226
12089408 11 18262237704393785104
12539745 222 17917717890846314145
12559415 86 11527955556669861034
13248334 5 17762336222028069081
15065858 18 18270114610037384956
15145343 36 18201433723023312116
15145343 6 17989483001547655784
15247644 1 18410575047038015282
15274700 256 18410292523608307714
20105231 36 18413388757068783351
21102433 48 18409446965023984090
21792965 68 8214146275036131893
232437 2 18409448064598012162
23528940 14 18413105066026526723
3092352 35 18260265232326493522
335507 130 18201996612583791796
3525247 94 18336546007286846778
44280117 145 18410575042437112501
5028188 123 18334857173905293269
636775 8 18409729556807508421

>  <PUBCHEM_SHAPE_MULTIPOLES>  (1) 
896.02
64.9
5.53
0.82
89.1
2.46
-0.02
-72.22
-3.27
-22.46
0.38
-0.06
-0.13
-2.49

>  <PUBCHEM_SHAPE_SELFOVERLAP>  (1) 
1969.216

>  <PUBCHEM_SHAPE_VOLUME>  (1) 
484.9

>  <PUBCHEM_COORDINATE_TYPE>  (1) 
2
5
10

$$$$
