17426
     RDKit          3D

 14 13  0  0  1  0  0  0  0  0999 V2000
    3.3446    0.3009    0.6920 S   0  0  0  0  0  0  0  0  0  0  0  0
    0.3849    0.8133    0.7468 S   0  0  0  0  0  0  0  0  0  0  0  0
   -1.3148    0.4436   -0.4320 P   0  0  0  0  0  0  0  0  0  0  0  0
   -1.5902   -1.1538   -0.5573 O   0  0  0  0  0  0  0  0  0  0  0  0
   -2.6354    0.9773    0.3521 O   0  0  0  0  0  0  0  0  0  0  0  0
   -1.1578    1.0869   -1.7858 O   0  0  0  0  0  0  0  0  0  0  0  0
    3.7030    1.7567    0.6311 O   0  0  0  0  0  0  0  0  0  0  0  0
    1.7612    0.0848   -0.1717 C   0  0  0  0  0  0  0  0  0  0  0  0
    4.3442   -0.5527   -0.5517 C   0  0  0  0  0  0  0  0  0  0  0  0
   -1.7657   -1.9372    0.6105 C   0  0  0  0  0  0  0  0  0  0  0  0
   -3.9074    0.7812   -0.2424 C   0  0  0  0  0  0  0  0  0  0  0  0
    5.8090   -0.5817   -0.1666 C   0  0  0  0  0  0  0  0  0  0  0  0
   -2.0044   -3.3767    0.2073 C   0  0  0  0  0  0  0  0  0  0  0  0
   -4.9712    1.3574    0.6676 C   0  0  0  0  0  0  0  0  0  0  0  0
  1  7  2  0
  1  8  1  0
  1  9  1  0
  2  3  1  0
  2  8  1  0
  3  4  1  0
  3  5  1  0
  3  6  2  0
  4 10  1  0
  5 11  1  0
  9 12  1  0
 10 13  1  0
 11 14  1  0
M  END
>  <PUBCHEM_COMPOUND_CID>  (1) 
17426

>  <PUBCHEM_CONFORMER_RMSD>  (1) 
0.8

>  <PUBCHEM_CONFORMER_DIVERSEORDER>  (1) 
1
91
16
171
175
113
40
219
86
83
57
157
182
72
221
59
160
206
205
88
130
92
26
145
51
62
15
111
41
109
172
2
212
44
158
80
3
74
60
126
17
222
165
176
4
56
76
178
122
177
23
218
119
170
65
78
220
27
197
107
133
9
90
204
64
53
55
22
43
179
98
201
115
124
104
33
193
207
147
163
102
194
217
35
139
13
114
156
203
103
19
216
118
10
146
87
213
69
208
180
185
100
52
164
5
168
48
214
68
28
159
105
153
81
106
50
66
63
116
195
46
149
110
128
173
192
154
132
141
71
24
198
121
42
101
184
131
143
37
112
181
127
12
202
152
45
167
144
39
20
34
73
70
191
11
32
18
96
36
120
211
174
148
161
25
189
54
89
30
210
8
215
75
125
162
190
29
58
136
150
169
47
117
209
67
93
129
137
61
138
166
38
77
99
14
108
49
134
84
186
94
7
183
200
199
82
85
123
155
97
6
140
151
188
95
79
196
187
31
142
21
135

>  <PUBCHEM_MMFF94_PARTIAL_CHARGES>  (1) 
11
1 0.11
10 0.28
11 0.28
2 -0.48
3 1.49
4 -0.55
5 -0.55
6 -0.7
7 -0.5
8 0.42
9 0.19

>  <PUBCHEM_EFFECTIVE_ROTOR_COUNT>  (1) 
8

>  <PUBCHEM_PHARMACOPHORE_FEATURES>  (1) 
2
1 6 acceptor
1 7 acceptor

>  <PUBCHEM_HEAVY_ATOM_COUNT>  (1) 
14

>  <PUBCHEM_ATOM_DEF_STEREO_COUNT>  (1) 
0

>  <PUBCHEM_ATOM_UDEF_STEREO_COUNT>  (1) 
1

>  <PUBCHEM_BOND_DEF_STEREO_COUNT>  (1) 
0

>  <PUBCHEM_BOND_UDEF_STEREO_COUNT>  (1) 
0

>  <PUBCHEM_ISOTOPIC_ATOM_COUNT>  (1) 
0

>  <PUBCHEM_COMPONENT_COUNT>  (1) 
1

>  <PUBCHEM_CACTVS_TAUTO_COUNT>  (1) 
1

>  <PUBCHEM_CONFORMER_ID>  (1) 
0000441200000001

>  <PUBCHEM_MMFF94_ENERGY>  (1) 
-0.7

>  <PUBCHEM_FEATURE_SELFOVERLAP>  (1) 
10.149

>  <PUBCHEM_SHAPE_FINGERPRINT>  (1) 
10756046 70 17531826752261649599
11036077 3 18339648832746382579
11405975 8 18411696617221275640
124424 183 17704353273159094048
12500047 106 18409728443846541254
12932764 1 17749657541975551224
13296908 3 18270397308509945930
14115302 16 18410863165579442516
17802600 8 8574422124105791254
18186145 218 18261662740873400968
20645477 56 18261105258049396132
20645477 70 17346880036068368924
20681677 155 18409165506909767570
23402539 116 18130782326731854733
23532345 11 18264763440355715290
23559900 14 18343299293292600824
23598291 2 17750522947425116806
366044 4 18410576150405870643
58051976 100 18408603678022145758

>  <PUBCHEM_SHAPE_MULTIPOLES>  (1) 
276.18
10.73
2.4
1.03
8.96
2.74
0.22
-2.15
-0.56
-2.53
-0.37
-0.14
-0.25
0.48

>  <PUBCHEM_SHAPE_SELFOVERLAP>  (1) 
462.421

>  <PUBCHEM_SHAPE_VOLUME>  (1) 
188.2

>  <PUBCHEM_COORDINATE_TYPE>  (1) 
2
5
10

$$$$
