17438
     RDKit          3D

 18 20  0  0  1  0  0  0  0  0999 V2000
    1.2767    2.7610    0.3862 Cl  0  0  0  0  0  0  0  0  0  0  0  0
    1.2778   -2.7602    0.3887 Cl  0  0  0  0  0  0  0  0  0  0  0  0
    2.1014    0.0015    2.3613 Cl  0  0  0  0  0  0  0  0  0  0  0  0
    3.2544    0.0006   -0.2796 Cl  0  0  0  0  0  0  0  0  0  0  0  0
    0.1225    1.7125   -2.5408 Cl  0  0  0  0  0  0  0  0  0  0  0  0
    0.1231   -1.7149   -2.5392 Cl  0  0  0  0  0  0  0  0  0  0  0  0
   -2.2849    2.3056    0.2658 O   0  0  0  0  0  0  0  0  0  0  0  0
   -2.2835   -2.3062    0.2660 O   0  0  0  0  0  0  0  0  0  0  0  0
   -2.5889   -0.0003    0.1899 N   0  0  0  0  0  0  0  0  0  0  0  0
   -0.5623    0.7827    1.0427 C   0  0  0  0  0  0  0  0  0  0  0  0
   -0.5621   -0.7821    1.0432 C   0  0  0  0  0  0  0  0  0  0  0  0
    0.6921    1.1236    0.1804 C   0  0  0  0  0  0  0  0  0  0  0  0
    0.6926   -1.1232    0.1815 C   0  0  0  0  0  0  0  0  0  0  0  0
    1.6893    0.0007    0.6152 C   0  0  0  0  0  0  0  0  0  0  0  0
    0.4289    0.6690   -1.2437 C   0  0  0  0  0  0  0  0  0  0  0  0
    0.4292   -0.6701   -1.2431 C   0  0  0  0  0  0  0  0  0  0  0  0
   -1.9034    1.1615    0.4627 C   0  0  0  0  0  0  0  0  0  0  0  0
   -1.9028   -1.1617    0.4629 C   0  0  0  0  0  0  0  0  0  0  0  0
  1 12  1  0
  2 13  1  0
  3 14  1  0
  4 14  1  0
  5 15  1  0
  6 16  1  0
  7 17  2  0
  8 18  2  0
  9 17  1  0
  9 18  1  0
 10 11  1  0
 10 12  1  0
 10 17  1  0
 11 13  1  0
 11 18  1  0
 12 14  1  0
 12 15  1  0
 13 14  1  0
 13 16  1  0
 15 16  2  0
M  END
>  <PUBCHEM_COMPOUND_CID>  (1) 
17438

>  <PUBCHEM_CONFORMER_RMSD>  (1) 
0.6

>  <PUBCHEM_CONFORMER_DIVERSEORDER>  (1) 
1
3
2

>  <PUBCHEM_MMFF94_PARTIAL_CHARGES>  (1) 
17
1 -0.29
10 0.06
11 0.06
12 0.43
13 0.43
14 0.58
17 0.57
18 0.57
2 -0.29
21 0.37
3 -0.29
4 -0.29
5 -0.14
6 -0.14
7 -0.57
8 -0.57
9 -0.49

>  <PUBCHEM_EFFECTIVE_ROTOR_COUNT>  (1) 
0.4

>  <PUBCHEM_PHARMACOPHORE_FEATURES>  (1) 
5
1 7 acceptor
1 8 acceptor
1 9 donor
5 9 10 11 17 18 rings
7 10 11 12 13 14 15 16 rings

>  <PUBCHEM_HEAVY_ATOM_COUNT>  (1) 
18

>  <PUBCHEM_ATOM_DEF_STEREO_COUNT>  (1) 
0

>  <PUBCHEM_ATOM_UDEF_STEREO_COUNT>  (1) 
4

>  <PUBCHEM_BOND_DEF_STEREO_COUNT>  (1) 
0

>  <PUBCHEM_BOND_UDEF_STEREO_COUNT>  (1) 
0

>  <PUBCHEM_ISOTOPIC_ATOM_COUNT>  (1) 
0

>  <PUBCHEM_COMPONENT_COUNT>  (1) 
1

>  <PUBCHEM_CACTVS_TAUTO_COUNT>  (1) 
2

>  <PUBCHEM_CONFORMER_ID>  (1) 
0000441E00000001

>  <PUBCHEM_MMFF94_ENERGY>  (1) 
73.0922

>  <PUBCHEM_FEATURE_SELFOVERLAP>  (1) 
25.569

>  <PUBCHEM_SHAPE_FINGERPRINT>  (1) 
10863032 1 18265339395559877034
10948715 1 18128538163148248264
12423570 1 9272758753447873082
13024252 1 14420633080691503130
13132413 78 18042423386079712540
13140716 1 18267031741787167217
141345 1 15769484421762345045
144361 1 17906498485820073749
14817 1 12860629915635320975
15852999 172 18128816352738468193
15881359 60 17757231982731102442
16945 1 18410566288717750099
20511035 2 18130212753637870986
22344851 262 17969239883323201281
2334 1 17978513366550661361
23419403 2 17403426612787089166
23559900 14 18199761250374676654
2748010 2 18050856520142553857
5084963 1 17916313894856635162

>  <PUBCHEM_SHAPE_MULTIPOLES>  (1) 
364.93
3.11
2.76
2.13
0.03
0
-1.28
0
1.11
0.23
-0.28
-0.49
0
0

>  <PUBCHEM_SHAPE_SELFOVERLAP>  (1) 
760.97

>  <PUBCHEM_SHAPE_VOLUME>  (1) 
210.9

>  <PUBCHEM_COORDINATE_TYPE>  (1) 
2
5
10

$$$$
