1743
     RDKit          3D

 21 24  0  0  1  0  0  0  0  0999 V2000
   -5.2186    0.4835    0.6440 O   0  0  0  0  0  0  0  0  0  0  0  0
    4.2249    1.8102    0.4899 O   0  0  0  0  0  0  0  0  0  0  0  0
    5.6274   -0.5149    0.0704 O   0  0  0  0  0  0  0  0  0  0  0  0
   -2.9723   -0.5327    0.4889 C   0  0  0  0  0  0  0  0  0  0  0  0
   -2.2429    0.7729    0.1027 C   0  0  0  0  0  0  0  0  0  0  0  0
   -0.7164    0.7041    0.2950 C   0  0  0  0  0  0  0  0  0  0  0  0
   -0.0663   -0.5227   -0.3914 C   0  0  0  0  0  0  0  0  0  0  0  0
   -4.3628   -0.3277   -0.1578 C   0  0  0  0  0  0  0  0  0  0  0  0
   -2.2714   -1.7644   -0.1318 C   0  0  0  0  0  0  0  0  0  0  0  0
   -2.7215    1.0693   -1.3280 C   0  0  0  0  0  0  0  0  0  0  0  0
   -0.7603   -1.8042    0.1099 C   0  0  0  0  0  0  0  0  0  0  0  0
   -4.0904    0.3959   -1.4789 C   0  0  0  0  0  0  0  0  0  0  0  0
   -0.0174    1.9834   -0.1730 C   0  0  0  0  0  0  0  0  0  0  0  0
   -3.0665   -0.7001    2.0146 C   0  0  0  0  0  0  0  0  0  0  0  0
    1.4532   -0.5171   -0.2324 C   0  0  0  0  0  0  0  0  0  0  0  0
    1.4307    1.9834    0.3050 C   0  0  0  0  0  0  0  0  0  0  0  0
    2.1460    0.6783    0.0588 C   0  0  0  0  0  0  0  0  0  0  0  0
    2.2074   -1.6815   -0.4643 C   0  0  0  0  0  0  0  0  0  0  0  0
    3.5474    0.6667    0.1719 C   0  0  0  0  0  0  0  0  0  0  0  0
    3.5998   -1.6774   -0.3589 C   0  0  0  0  0  0  0  0  0  0  0  0
    4.2699   -0.5049   -0.0345 C   0  0  0  0  0  0  0  0  0  0  0  0
  1  8  1  0
  2 19  1  0
  3 21  1  0
  4  5  1  0
  4  8  1  0
  4  9  1  0
  4 14  1  0
  5  6  1  0
  5 10  1  0
  6  7  1  0
  6 13  1  0
  7 11  1  0
  7 15  1  0
  8 12  1  0
  9 11  1  0
 10 12  1  0
 13 16  1  0
 15 17  2  0
 15 18  1  0
 16 17  1  0
 17 19  1  0
 18 20  2  0
 19 21  2  0
 20 21  1  0
M  END
>  <PUBCHEM_COMPOUND_CID>  (1) 
1743

>  <PUBCHEM_CONFORMER_RMSD>  (1) 
0.6

>  <PUBCHEM_CONFORMER_DIVERSEORDER>  (1) 
4
6
29
11
13
24
17
3
16
15
27
19
20
22
25
1
10
18
2
5
21
14
26
7
23
9
28
8
12

>  <PUBCHEM_MMFF94_PARTIAL_CHARGES>  (1) 
17
1 -0.68
15 -0.14
16 0.14
17 -0.14
18 -0.15
19 0.08
2 -0.53
20 -0.15
21 0.08
3 -0.53
41 0.4
42 0.15
43 0.15
44 0.45
45 0.45
7 0.14
8 0.28

>  <PUBCHEM_EFFECTIVE_ROTOR_COUNT>  (1) 
1.4

>  <PUBCHEM_PHARMACOPHORE_FEATURES>  (1) 
8
1 1 acceptor
1 1 donor
1 2 donor
1 3 donor
5 4 5 8 10 12 rings
6 15 17 18 19 20 21 rings
6 4 5 6 7 9 11 rings
6 6 7 13 15 16 17 rings

>  <PUBCHEM_HEAVY_ATOM_COUNT>  (1) 
21

>  <PUBCHEM_ATOM_DEF_STEREO_COUNT>  (1) 
0

>  <PUBCHEM_ATOM_UDEF_STEREO_COUNT>  (1) 
5

>  <PUBCHEM_BOND_DEF_STEREO_COUNT>  (1) 
0

>  <PUBCHEM_BOND_UDEF_STEREO_COUNT>  (1) 
0

>  <PUBCHEM_ISOTOPIC_ATOM_COUNT>  (1) 
0

>  <PUBCHEM_COMPONENT_COUNT>  (1) 
1

>  <PUBCHEM_CACTVS_TAUTO_COUNT>  (1) 
53

>  <PUBCHEM_CONFORMER_ID>  (1) 
000006CF00000004

>  <PUBCHEM_MMFF94_ENERGY>  (1) 
68.6709

>  <PUBCHEM_FEATURE_SELFOVERLAP>  (1) 
40.808

>  <PUBCHEM_SHAPE_FINGERPRINT>  (1) 
10 15 18261664970494372864
10967382 1 18412262835386449918
11132069 177 18339355361836077016
11471102 20 18341890814217193924
11796584 16 17095518453654543354
12011746 2 18410853243977784950
12236239 1 17060337413795284783
12403259 415 18333444326942851997
12553582 1 18270414836013180372
12596602 18 16271916147363785570
13140716 1 18269555108088017298
13224815 77 18273214226845270246
13296908 3 18333734615102425674
13583140 156 17748823016480780570
13675066 3 18114184171917557970
13862211 1 18412819166916730366
14289901 80 15195291931993074030
14386348 63 18334297565013623002
15099037 51 18408601457471020543
15163728 17 15577217063395385895
15196674 1 18340486767574696278
15219456 202 18408884052980553732
15375358 24 18408316696427616366
15536298 74 18272370888620900878
15635459 17 18412267198973177862
15653759 3 17894351102984228057
15788980 27 17530682112911359868
15848702 151 17774448182843278991
15961568 22 16950849223430013404
16945 1 18342184396321732989
16988056 13 13527904255583638611
17349148 13 18131345302217345662
17357779 13 18336816516183422565
18186145 218 18408603638913662103
19141452 34 18341334470029183279
200 152 17846212254805846375
20279233 1 18408325483883426166
20645477 70 18342174449446624510
21029758 11 18343578521289382321
21033648 29 18334561447894505629
21249577 43 18408321081541772414
21267235 1 18340776970294315054
21279426 13 18120370956380233103
23175994 123 18408891719708446501
23184049 59 18343309162373001271
23402539 116 18131064909572283317
23493267 7 17531241725823112801
23557571 272 17748826280650839476
23559900 14 18412539951319586304
26918003 58 18187085052930365578
2748010 2 18408888412372385246
2871803 45 18336827498905038030
296302 2 18409447011629502093
3286 77 16630231542058746074
335352 9 18412545401268873950
34934 24 18340762728114059726
3545911 37 18410293618635187510
4921388 177 16009041600285969931
5104073 3 18340204197481669746
5283173 99 18115015291097659741
542803 24 17275106132577156313
69090 78 18341890805406038135
8809292 202 18261395588990221283
9709674 26 18263926699185769043

>  <PUBCHEM_SHAPE_MULTIPOLES>  (1) 
414.56
9.78
1.97
1.08
2.99
0.13
0.15
-0.41
0.19
0.93
-0.03
-1.28
-0.02
0.9

>  <PUBCHEM_SHAPE_SELFOVERLAP>  (1) 
906.258

>  <PUBCHEM_SHAPE_VOLUME>  (1) 
223.5

>  <PUBCHEM_COORDINATE_TYPE>  (1) 
2
5
10

$$$$
