17436
     RDKit          3D

  9  8  0  0  0  0  0  0  0  0999 V2000
    1.4477    0.4589    0.0025 O   0  0  0  0  0  0  0  0  0  0  0  0
    0.2728   -1.5148   -0.0052 O   0  0  0  0  0  0  0  0  0  0  0  0
   -2.5148   -1.0373    0.0016 O   0  0  0  0  0  0  0  0  0  0  0  0
   -0.8013    0.5510    0.0065 N   0  0  0  0  0  0  0  0  0  0  0  0
    2.6753   -0.2785   -0.0031 C   0  0  0  0  0  0  0  0  0  0  0  0
    3.8351    0.6944   -0.0001 C   0  0  0  0  0  0  0  0  0  0  0  0
    0.3039   -0.2886    0.0007 C   0  0  0  0  0  0  0  0  0  0  0  0
   -2.1287    0.1283    0.0066 C   0  0  0  0  0  0  0  0  0  0  0  0
   -3.0899    1.2866   -0.0096 C   0  0  0  0  0  0  0  0  0  0  0  0
  1  5  1  0
  1  7  1  0
  2  7  2  0
  3  8  2  0
  4  7  1  0
  4  8  1  0
  5  6  1  0
  8  9  1  0
M  END
>  <PUBCHEM_COMPOUND_CID>  (1) 
17436

>  <PUBCHEM_CONFORMER_RMSD>  (1) 
0.6

>  <PUBCHEM_CONFORMER_DIVERSEORDER>  (1) 
1
2
8
4
5
7
6
3
9

>  <PUBCHEM_MMFF94_PARTIAL_CHARGES>  (1) 
9
1 -0.43
15 0.37
2 -0.57
3 -0.57
4 -0.49
5 0.28
7 0.78
8 0.57
9 0.06

>  <PUBCHEM_EFFECTIVE_ROTOR_COUNT>  (1) 
4

>  <PUBCHEM_PHARMACOPHORE_FEATURES>  (1) 
3
1 2 acceptor
1 3 acceptor
1 4 donor

>  <PUBCHEM_HEAVY_ATOM_COUNT>  (1) 
9

>  <PUBCHEM_ATOM_DEF_STEREO_COUNT>  (1) 
0

>  <PUBCHEM_ATOM_UDEF_STEREO_COUNT>  (1) 
0

>  <PUBCHEM_BOND_DEF_STEREO_COUNT>  (1) 
0

>  <PUBCHEM_BOND_UDEF_STEREO_COUNT>  (1) 
0

>  <PUBCHEM_ISOTOPIC_ATOM_COUNT>  (1) 
0

>  <PUBCHEM_COMPONENT_COUNT>  (1) 
1

>  <PUBCHEM_CACTVS_TAUTO_COUNT>  (1) 
3

>  <PUBCHEM_CONFORMER_ID>  (1) 
0000441C00000001

>  <PUBCHEM_MMFF94_ENERGY>  (1) 
9.6963

>  <PUBCHEM_FEATURE_SELFOVERLAP>  (1) 
15.226

>  <PUBCHEM_SHAPE_FINGERPRINT>  (1) 
11062470 55 17313101947208180109
12932764 1 17275096254247424942
14325111 11 18410856559929926914
14390081 3 18342174436419219625
29004967 10 15913334601834817638
3248919 1 17131837521167927598
5460574 1 9223234044156477728

>  <PUBCHEM_SHAPE_MULTIPOLES>  (1) 
162.63
5.96
1.21
0.57
2.48
0.17
0
-1.97
0.01
-0.5
0
0.02
-0.02
0

>  <PUBCHEM_SHAPE_SELFOVERLAP>  (1) 
302.627

>  <PUBCHEM_SHAPE_VOLUME>  (1) 
101.9

>  <PUBCHEM_COORDINATE_TYPE>  (1) 
2
5
10

$$$$
