17432
     RDKit          3D

 12 12  0  0  0  0  0  0  0  0999 V2000
    1.8352   -2.0641    0.8303 Cl  0  0  0  0  0  0  0  0  0  0  0  0
    2.6503   -0.8282   -1.6967 Cl  0  0  0  0  0  0  0  0  0  0  0  0
    3.5657    0.2437    0.8204 Cl  0  0  0  0  0  0  0  0  0  0  0  0
   -0.5727    2.2422    0.0237 S   0  0  0  0  0  0  0  0  0  0  0  0
   -2.5511    0.4254    0.0015 O   0  0  0  0  0  0  0  0  0  0  0  0
   -0.3350   -0.2803   -0.0007 N   0  0  0  0  0  0  0  0  0  0  0  0
    0.9998    1.6694    0.0207 N   0  0  0  0  0  0  0  0  0  0  0  0
    0.9028    0.3400    0.0077 C   0  0  0  0  0  0  0  0  0  0  0  0
   -2.9529   -0.9361   -0.0127 C   0  0  0  0  0  0  0  0  0  0  0  0
   -1.2024    0.6736    0.0068 C   0  0  0  0  0  0  0  0  0  0  0  0
    2.1254   -0.4815    0.0005 C   0  0  0  0  0  0  0  0  0  0  0  0
   -4.4652   -1.0040   -0.0015 C   0  0  0  0  0  0  0  0  0  0  0  0
  1 11  1  0
  2 11  1  0
  3 11  1  0
  4  7  1  0
  4 10  1  0
  5  9  1  0
  5 10  1  0
  6  8  1  0
  6 10  2  0
  7  8  2  0
  8 11  1  0
  9 12  1  0
M  END
>  <PUBCHEM_COMPOUND_CID>  (1) 
17432

>  <PUBCHEM_CONFORMER_RMSD>  (1) 
0.6

>  <PUBCHEM_CONFORMER_DIVERSEORDER>  (1) 
1
6
8
10
9
3
12
4
11
7
2
5

>  <PUBCHEM_MMFF94_PARTIAL_CHARGES>  (1) 
11
1 -0.29
10 0.44
11 1.05
2 -0.29
3 -0.29
4 0.18
5 -0.34
6 -0.57
7 -0.51
8 0.34
9 0.28

>  <PUBCHEM_EFFECTIVE_ROTOR_COUNT>  (1) 
3

>  <PUBCHEM_PHARMACOPHORE_FEATURES>  (1) 
2
3 6 7 8 cation
5 4 6 7 8 10 rings

>  <PUBCHEM_HEAVY_ATOM_COUNT>  (1) 
12

>  <PUBCHEM_ATOM_DEF_STEREO_COUNT>  (1) 
0

>  <PUBCHEM_ATOM_UDEF_STEREO_COUNT>  (1) 
0

>  <PUBCHEM_BOND_DEF_STEREO_COUNT>  (1) 
0

>  <PUBCHEM_BOND_UDEF_STEREO_COUNT>  (1) 
0

>  <PUBCHEM_ISOTOPIC_ATOM_COUNT>  (1) 
0

>  <PUBCHEM_COMPONENT_COUNT>  (1) 
1

>  <PUBCHEM_CACTVS_TAUTO_COUNT>  (1) 
1

>  <PUBCHEM_CONFORMER_ID>  (1) 
0000441800000001

>  <PUBCHEM_MMFF94_ENERGY>  (1) 
11.6941

>  <PUBCHEM_FEATURE_SELFOVERLAP>  (1) 
10.148

>  <PUBCHEM_SHAPE_FINGERPRINT>  (1) 
11543360 7 15430325788420746635
11806522 49 18339639065658195091
12032990 46 18341618109131152567
12932764 1 18193286191094667656
13296908 3 18271807878231988983
14115302 16 17458348567177594058
14251717 144 18337950202997652691
14252887 29 18130796675943095627
15757776 16 18408599283764180267
16945 1 18114756966031058168
18380122 1 18059566962995678916
20201158 50 18259983799128220691
20281407 28 18408889507900262481
20645477 70 18269835471058854903
20715346 28 17774718654235057324
20871998 184 18130218255601649597
20871998 22 18271813405876036925
21069387 34 15864342490026377440
21501925 9 18412257372061403449
23552423 10 18189061914686543492
23557571 272 18341895147712848452
2748010 2 18199179594910324764
3248919 1 16950857903004301864
449060 23 18272663328491012319
7364860 26 18057607770345014793
8030462 33 18042699312000640606
81228 2 18264499385967363049
94968 8 18410300232732069911

>  <PUBCHEM_SHAPE_MULTIPOLES>  (1) 
240.58
6.29
2.02
1.01
4.99
0.53
0.35
-2.98
-0.11
0.03
-0.25
-1.06
-0.32
0.11

>  <PUBCHEM_SHAPE_SELFOVERLAP>  (1) 
443.64

>  <PUBCHEM_SHAPE_VOLUME>  (1) 
155

>  <PUBCHEM_COORDINATE_TYPE>  (1) 
2
5
10

$$$$
