17446
     RDKit          3D

 12 12  0  0  0  0  0  0  0  0999 V2000
    0.4728   -0.0128    0.8398 O   0  0  0  0  0  0  0  0  0  0  0  0
    3.8568    0.5155   -0.5155 N   0  0  0  0  0  0  0  0  0  0  0  0
    5.0441   -0.2632   -0.3626 N   0  0  0  0  0  0  0  0  0  0  0  0
   -0.8071    0.1162    0.3906 C   0  0  0  0  0  0  0  0  0  0  0  0
    1.4907    0.6540    0.0961 C   0  0  0  0  0  0  0  0  0  0  0  0
   -1.5484   -1.0047    0.0165 C   0  0  0  0  0  0  0  0  0  0  0  0
    2.7904   -0.1208    0.2433 C   0  0  0  0  0  0  0  0  0  0  0  0
   -1.3751    1.3875    0.3073 C   0  0  0  0  0  0  0  0  0  0  0  0
   -2.8576   -0.8541   -0.4407 C   0  0  0  0  0  0  0  0  0  0  0  0
   -0.9569   -2.3731    0.0990 C   0  0  0  0  0  0  0  0  0  0  0  0
   -2.6842    1.5381   -0.1498 C   0  0  0  0  0  0  0  0  0  0  0  0
   -3.4255    0.4173   -0.5239 C   0  0  0  0  0  0  0  0  0  0  0  0
  1  4  1  0
  1  5  1  0
  2  3  1  0
  2  7  1  0
  4  6  2  0
  4  8  1  0
  5  7  1  0
  6  9  1  0
  6 10  1  0
  8 11  2  0
  9 12  2  0
 11 12  1  0
M  END
>  <PUBCHEM_COMPOUND_CID>  (1) 
17446

>  <PUBCHEM_CONFORMER_RMSD>  (1) 
0.6

>  <PUBCHEM_CONFORMER_DIVERSEORDER>  (1) 
1
40
48
29
45
46
19
13
6
44
4
23
21
39
10
18
43
38
33
41
22
26
2
47
27
24
5
20
15
36
28
14
12
32
17
34
31
7
3
9
25
16
11
37
42
35
30
8

>  <PUBCHEM_MMFF94_PARTIAL_CHARGES>  (1) 
19
1 -0.36
10 0.14
11 -0.15
12 -0.15
17 0.15
18 0.15
2 -0.63
22 0.15
23 0.15
24 0.36
25 0.36
26 0.36
3 -0.72
4 0.08
5 0.28
6 -0.14
7 0.27
8 -0.15
9 -0.15

>  <PUBCHEM_EFFECTIVE_ROTOR_COUNT>  (1) 
4

>  <PUBCHEM_PHARMACOPHORE_FEATURES>  (1) 
4
1 1 acceptor
1 2 donor
1 3 donor
6 4 6 8 9 11 12 rings

>  <PUBCHEM_HEAVY_ATOM_COUNT>  (1) 
12

>  <PUBCHEM_ATOM_DEF_STEREO_COUNT>  (1) 
0

>  <PUBCHEM_ATOM_UDEF_STEREO_COUNT>  (1) 
0

>  <PUBCHEM_BOND_DEF_STEREO_COUNT>  (1) 
0

>  <PUBCHEM_BOND_UDEF_STEREO_COUNT>  (1) 
0

>  <PUBCHEM_ISOTOPIC_ATOM_COUNT>  (1) 
0

>  <PUBCHEM_COMPONENT_COUNT>  (1) 
1

>  <PUBCHEM_CACTVS_TAUTO_COUNT>  (1) 
1

>  <PUBCHEM_CONFORMER_ID>  (1) 
0000442600000001

>  <PUBCHEM_MMFF94_ENERGY>  (1) 
30.2167

>  <PUBCHEM_FEATURE_SELFOVERLAP>  (1) 
21.617

>  <PUBCHEM_SHAPE_FINGERPRINT>  (1) 
10726558 24 18339642231228440391
12716758 59 18340760546101693233
13024252 1 13479130203348836761
14911166 2 18412535522960293365
14993402 34 18187638111595216237
15669948 3 18337381733958599554
15775835 57 18040432157399381813
16945 1 18339342137906072787
17870717 6 18130242483960579054
18186145 218 18202272598286342849
200 152 16128654145782442940
20201158 50 17918277549630575854
20279233 1 17703792526919449894
20325693 3 18409740559796094814
20645476 183 17968090941128195411
20645477 56 18409729582018331424
20871999 31 18411412955810721133
21119208 17 18260266352326091916
23402539 116 18343294855953158565
23403322 49 17846222129136263142
23559900 14 18272928337312183472
2748010 2 17906714153803825019
4175511 318 18113613482438253407
58051976 100 18261114080154821670
93112 12 18410013273377306940

>  <PUBCHEM_SHAPE_MULTIPOLES>  (1) 
231.12
7.12
1.71
0.74
10.42
0.73
-0.01
-0.8
1.9
-1.34
-0.05
-0.01
-0.02
-0.05

>  <PUBCHEM_SHAPE_SELFOVERLAP>  (1) 
464.033

>  <PUBCHEM_SHAPE_VOLUME>  (1) 
137.4

>  <PUBCHEM_COORDINATE_TYPE>  (1) 
2
5
10

$$$$
