1744
     RDKit          3D

 29 30  0  0  0  0  0  0  0  0999 V2000
    5.1945   -2.0694   -0.7814 O   0  0  0  0  0  0  0  0  0  0  0  0
   10.6673    1.3293    0.0668 O   0  0  0  0  0  0  0  0  0  0  0  0
    5.3716   -0.2106    0.6490 N   0  0  0  0  0  0  0  0  0  0  0  0
   -7.4168    1.3034   -0.0474 C   0  0  0  0  0  0  0  0  0  0  0  0
   -8.8718    0.8738    0.2855 C   0  0  0  0  0  0  0  0  0  0  0  0
   -8.9285   -0.1321    1.4211 C   0  0  0  0  0  0  0  0  0  0  0  0
   -6.4604    0.0884   -0.0914 C   0  0  0  0  0  0  0  0  0  0  0  0
   -8.1572   -1.3880    1.0440 C   0  0  0  0  0  0  0  0  0  0  0  0
   -6.8180   -1.1317    0.3825 C   0  0  0  0  0  0  0  0  0  0  0  0
   -6.9305    2.3052    1.0251 C   0  0  0  0  0  0  0  0  0  0  0  0
   -7.4898    2.0372   -1.4089 C   0  0  0  0  0  0  0  0  0  0  0  0
   -5.1431    0.3451   -0.6502 C   0  0  0  0  0  0  0  0  0  0  0  0
   -5.9703   -2.3818    0.3313 C   0  0  0  0  0  0  0  0  0  0  0  0
   -4.0132   -0.1606   -0.1297 C   0  0  0  0  0  0  0  0  0  0  0  0
   -2.6568    0.0484   -0.6370 C   0  0  0  0  0  0  0  0  0  0  0  0
   -2.4996    0.9036   -1.8731 C   0  0  0  0  0  0  0  0  0  0  0  0
   -1.5490   -0.4835   -0.0765 C   0  0  0  0  0  0  0  0  0  0  0  0
   -0.1696   -0.3383   -0.4989 C   0  0  0  0  0  0  0  0  0  0  0  0
    0.8530   -0.9220    0.1473 C   0  0  0  0  0  0  0  0  0  0  0  0
    2.2542   -0.8038   -0.2322 C   0  0  0  0  0  0  0  0  0  0  0  0
    3.2943   -1.3798    0.4005 C   0  0  0  0  0  0  0  0  0  0  0  0
    2.4800    0.0296   -1.4656 C   0  0  0  0  0  0  0  0  0  0  0  0
    4.7256   -1.2514    0.0023 C   0  0  0  0  0  0  0  0  0  0  0  0
    6.7232    0.1821    0.5012 C   0  0  0  0  0  0  0  0  0  0  0  0
    7.2011    1.2553    1.2344 C   0  0  0  0  0  0  0  0  0  0  0  0
    7.5387   -0.5149   -0.3747 C   0  0  0  0  0  0  0  0  0  0  0  0
    8.5330    1.6429    1.0876 C   0  0  0  0  0  0  0  0  0  0  0  0
    8.8706   -0.1275   -0.5213 C   0  0  0  0  0  0  0  0  0  0  0  0
    9.3677    0.9515    0.2096 C   0  0  0  0  0  0  0  0  0  0  0  0
  1 23  2  0
  2 29  1  0
  3 23  1  0
  3 24  1  0
  4  5  1  0
  4  7  1  0
  4 10  1  0
  4 11  1  0
  5  6  1  0
  6  8  1  0
  7  9  2  0
  7 12  1  0
  8  9  1  0
  9 13  1  0
 12 14  2  0
 14 15  1  0
 15 16  1  0
 15 17  2  0
 17 18  1  0
 18 19  2  0
 19 20  1  0
 20 21  2  0
 20 22  1  0
 21 23  1  0
 24 25  2  0
 24 26  1  0
 25 27  1  0
 26 28  2  0
 27 29  2  0
 28 29  1  0
M  END
>  <PUBCHEM_COMPOUND_CID>  (1) 
1744

>  <PUBCHEM_CONFORMER_RMSD>  (1) 
1

>  <PUBCHEM_CONFORMER_DIVERSEORDER>  (1) 
1
7
5
8
14
6
11
18
16
9
3
13
12
15
2
4
19
10
17

>  <PUBCHEM_MMFF94_PARTIAL_CHARGES>  (1) 
37
1 -0.57
12 -0.15
13 0.14
14 -0.15
15 -0.14
16 0.14
17 -0.15
18 -0.15
19 -0.15
2 -0.53
20 -0.14
21 -0.14
22 0.14
23 0.62
24 0.12
25 -0.15
26 -0.15
27 -0.15
28 -0.15
29 0.08
3 -0.55
4 0.14
42 0.15
46 0.15
50 0.15
51 0.15
52 0.15
53 0.15
57 0.37
58 0.15
59 0.15
60 0.15
61 0.15
62 0.45
7 -0.14
8 0.14
9 -0.28

>  <PUBCHEM_EFFECTIVE_ROTOR_COUNT>  (1) 
7.8

>  <PUBCHEM_PHARMACOPHORE_FEATURES>  (1) 
8
1 1 acceptor
1 16 hydrophobe
1 2 donor
1 22 hydrophobe
1 3 donor
3 4 10 11 hydrophobe
6 24 25 26 27 28 29 rings
6 4 5 6 7 8 9 rings

>  <PUBCHEM_HEAVY_ATOM_COUNT>  (1) 
29

>  <PUBCHEM_ATOM_DEF_STEREO_COUNT>  (1) 
0

>  <PUBCHEM_ATOM_UDEF_STEREO_COUNT>  (1) 
0

>  <PUBCHEM_BOND_DEF_STEREO_COUNT>  (1) 
0

>  <PUBCHEM_BOND_UDEF_STEREO_COUNT>  (1) 
4

>  <PUBCHEM_ISOTOPIC_ATOM_COUNT>  (1) 
0

>  <PUBCHEM_COMPONENT_COUNT>  (1) 
1

>  <PUBCHEM_CACTVS_TAUTO_COUNT>  (1) 
4

>  <PUBCHEM_CONFORMER_ID>  (1) 
000006D000000001

>  <PUBCHEM_MMFF94_ENERGY>  (1) 
87.4333

>  <PUBCHEM_FEATURE_SELFOVERLAP>  (1) 
40.596

>  <PUBCHEM_SHAPE_FINGERPRINT>  (1) 
10 15 18334009493389463690
10029044 110 16056301952350127458
10625338 86 17417815011375451473
106641 1 17312820490118031950
11135926 11 14418130704439179921
11181472 205 16916515735221013362
11211813 163 9799683797629677997
11315181 36 18201717333252870313
11408170 108 13768192871665307872
11638347 137 16443338751178423938
11966995 178 18334863832164327516
12013929 94 18131067195239502023
12089408 11 16486969592407342862
14118638 360 15697730211477406914
14150022 121 18261108526710159957
14251764 18 15574713586877007734
14251764 46 14692572121892978766
14428016 248 18408045126289503956
14617042 71 18200310044000456592
14937079 2 18335419114842002660
15183329 4 13902187076102104967
15247644 1 13262399964408407945
15510794 2 18412548695377635566
15530121 191 18342450452809976600
15690457 1 12179843901391388224
15706992 2 18409735084551731188
17093844 174 18259703377362372513
1754908 1 17748825211161537872
1754911 235 17489585671469756428
19315958 150 18202287983002089854
2026 5 8574446335259023376
20505436 4 18131342012705817406
21095123 145 17131829907109076543
21130935 74 17969217845920521579
21362267 313 16878494619354581448
21792961 116 16702026335880430866
22224240 67 17749105600229271898
232437 2 17385442112378573618
24771293 8 18113335305954429422
249057 3 14261344778286747082
28498 318 9511464424967283618
3092352 35 16845572019603333918
335507 130 18260269681052710831
3711267 37 17632301207013712776
44280117 145 18340206418592340415
45270241 37 18130793361452112262
4625314 4 18060419149132382966
5758199 1 18260265239692620874
59682541 35 18040154032829328610
6081469 158 8790884081698341466
6201320 215 13551735303081571767
6201320 82 14476138679279736139
636775 72 18271807857813142545
67123 10 18343019995352592999
9663363 56 17167579394041290727
9953998 17 18335702758845366431
9962374 69 16081374106400935647

>  <PUBCHEM_SHAPE_MULTIPOLES>  (1) 
580.09
40.55
1.92
1.23
36.93
0.07
-0.15
13.36
10.31
-1.96
0.2
-0.79
0.37
2.29

>  <PUBCHEM_SHAPE_SELFOVERLAP>  (1) 
1200.296

>  <PUBCHEM_SHAPE_VOLUME>  (1) 
332.1

>  <PUBCHEM_COORDINATE_TYPE>  (1) 
2
5
10

$$$$
