17444
     RDKit          3D

 12 12  0  0  0  0  0  0  0  0999 V2000
   -0.5381    1.8972   -0.4199 O   0  0  0  0  0  0  0  0  0  0  0  0
    3.4674   -0.1608    0.2674 N   0  0  0  0  0  0  0  0  0  0  0  0
    4.3821   -0.4385   -0.7921 N   0  0  0  0  0  0  0  0  0  0  0  0
    1.0674   -0.0937    0.8538 C   0  0  0  0  0  0  0  0  0  0  0  0
   -0.3258   -0.3517    0.3828 C   0  0  0  0  0  0  0  0  0  0  0  0
    2.1144   -0.3965   -0.2249 C   0  0  0  0  0  0  0  0  0  0  0  0
   -1.0679    0.6557   -0.2339 C   0  0  0  0  0  0  0  0  0  0  0  0
   -0.8842   -1.6168    0.5654 C   0  0  0  0  0  0  0  0  0  0  0  0
   -2.3682    0.3978   -0.6680 C   0  0  0  0  0  0  0  0  0  0  0  0
   -2.1846   -1.8745    0.1313 C   0  0  0  0  0  0  0  0  0  0  0  0
   -2.9266   -0.8673   -0.4854 C   0  0  0  0  0  0  0  0  0  0  0  0
   -0.7359    2.8491    0.6235 C   0  0  0  0  0  0  0  0  0  0  0  0
  1  7  1  0
  1 12  1  0
  2  3  1  0
  2  6  1  0
  4  5  1  0
  4  6  1  0
  5  7  2  0
  5  8  1  0
  7  9  1  0
  8 10  2  0
  9 11  2  0
 10 11  1  0
M  END
>  <PUBCHEM_COMPOUND_CID>  (1) 
17444

>  <PUBCHEM_CONFORMER_RMSD>  (1) 
0.6

>  <PUBCHEM_CONFORMER_DIVERSEORDER>  (1) 
2
24
22
3
16
17
21
23
5
10
6
15
19
18
11
4
1
14
8
7
12
13
20
9

>  <PUBCHEM_MMFF94_PARTIAL_CHARGES>  (1) 
19
1 -0.36
10 -0.15
11 -0.15
12 0.28
17 0.15
18 0.15
19 0.15
2 -0.63
20 0.36
21 0.15
25 0.36
26 0.36
3 -0.72
4 0.14
5 -0.14
6 0.27
7 0.08
8 -0.15
9 -0.15

>  <PUBCHEM_EFFECTIVE_ROTOR_COUNT>  (1) 
4

>  <PUBCHEM_PHARMACOPHORE_FEATURES>  (1) 
4
1 1 acceptor
1 2 donor
1 3 donor
6 5 7 8 9 10 11 rings

>  <PUBCHEM_HEAVY_ATOM_COUNT>  (1) 
12

>  <PUBCHEM_ATOM_DEF_STEREO_COUNT>  (1) 
0

>  <PUBCHEM_ATOM_UDEF_STEREO_COUNT>  (1) 
0

>  <PUBCHEM_BOND_DEF_STEREO_COUNT>  (1) 
0

>  <PUBCHEM_BOND_UDEF_STEREO_COUNT>  (1) 
0

>  <PUBCHEM_ISOTOPIC_ATOM_COUNT>  (1) 
0

>  <PUBCHEM_COMPONENT_COUNT>  (1) 
1

>  <PUBCHEM_CACTVS_TAUTO_COUNT>  (1) 
1

>  <PUBCHEM_CONFORMER_ID>  (1) 
0000442400000002

>  <PUBCHEM_MMFF94_ENERGY>  (1) 
34.0177

>  <PUBCHEM_FEATURE_SELFOVERLAP>  (1) 
21.622

>  <PUBCHEM_SHAPE_FINGERPRINT>  (1) 
12423570 1 11697738177253607595
12897270 3 18409726266292853862
13024252 1 17603309245530442131
14128692 85 18114742766937580607
14911166 2 18262785359488585223
15775835 57 17313382275623691342
161256 15 17756984880688995467
16945 1 17822556288009615939
17134986 127 17398951570402980164
19837323 101 18194973936947844025
20300324 65 18335991921776295644
20711985 344 18341605967295536825
20871999 31 18335129917218194599
21061003 4 18271252732408438747
22213442 358 18195805404056628350
228727 97 18040151807946663602
23402539 116 18338786849752476966
23557571 272 18340497737385212278
23559900 14 18411128127076481922
2748010 2 17610886165199911783
353137 74 18189047612318665283
4663303 62 17910103943393353449
53812653 8 18191580848681377841
58734987 51 18413111671369320833
7364860 26 17836925977166262873
81228 2 18411144593116288928

>  <PUBCHEM_SHAPE_MULTIPOLES>  (1) 
231.12
5.11
2.25
0.86
6.62
1.75
0.02
-2.09
-1.55
-1.36
0.43
0.08
0.02
0.19

>  <PUBCHEM_SHAPE_SELFOVERLAP>  (1) 
464.898

>  <PUBCHEM_SHAPE_VOLUME>  (1) 
136.5

>  <PUBCHEM_COORDINATE_TYPE>  (1) 
2
5
10

$$$$
