17452
     RDKit          3D

 13 13  0  0  0  0  0  0  0  0999 V2000
    2.6365   -0.0001    1.2053 O   0  0  0  0  0  0  0  0  0  0  0  0
    2.8033   -0.0008   -1.0616 O   0  0  0  0  0  0  0  0  0  0  0  0
   -0.0520   -1.2080   -0.0190 C   0  0  0  0  0  0  0  0  0  0  0  0
   -0.0510    1.2079   -0.0181 C   0  0  0  0  0  0  0  0  0  0  0  0
    0.6459   -0.0003   -0.0274 C   0  0  0  0  0  0  0  0  0  0  0  0
   -1.4468   -1.2075   -0.0011 C   0  0  0  0  0  0  0  0  0  0  0  0
   -1.4457    1.2085   -0.0003 C   0  0  0  0  0  0  0  0  0  0  0  0
   -2.1437    0.0008    0.0083 C   0  0  0  0  0  0  0  0  0  0  0  0
    0.6894   -2.5082   -0.0271 C   0  0  0  0  0  0  0  0  0  0  0  0
    0.6918    2.5072   -0.0289 C   0  0  0  0  0  0  0  0  0  0  0  0
   -2.2173   -2.4870    0.0075 C   0  0  0  0  0  0  0  0  0  0  0  0
   -2.2160    2.4884    0.0082 C   0  0  0  0  0  0  0  0  0  0  0  0
    2.1057   -0.0009   -0.0459 C   0  0  0  0  0  0  0  0  0  0  0  0
  1 13  1  0
  2 13  2  0
  3  5  2  0
  3  6  1  0
  3  9  1  0
  4  5  1  0
  4  7  2  0
  4 10  1  0
  5 13  1  0
  6  8  2  0
  6 11  1  0
  7  8  1  0
  7 12  1  0
M  END
>  <PUBCHEM_COMPOUND_CID>  (1) 
17452

>  <PUBCHEM_CONFORMER_RMSD>  (1) 
0.4

>  <PUBCHEM_CONFORMER_DIVERSEORDER>  (1) 
1
2
3

>  <PUBCHEM_MMFF94_PARTIAL_CHARGES>  (1) 
15
1 -0.65
10 0.14
11 0.14
12 0.14
13 0.63
14 0.15
2 -0.57
27 0.5
3 -0.14
4 -0.14
5 0.09
6 -0.14
7 -0.14
8 -0.15
9 0.14

>  <PUBCHEM_EFFECTIVE_ROTOR_COUNT>  (1) 
1

>  <PUBCHEM_PHARMACOPHORE_FEATURES>  (1) 
4
1 1 acceptor
1 2 acceptor
3 1 2 13 anion
6 3 4 5 6 7 8 rings

>  <PUBCHEM_HEAVY_ATOM_COUNT>  (1) 
13

>  <PUBCHEM_ATOM_DEF_STEREO_COUNT>  (1) 
0

>  <PUBCHEM_ATOM_UDEF_STEREO_COUNT>  (1) 
0

>  <PUBCHEM_BOND_DEF_STEREO_COUNT>  (1) 
0

>  <PUBCHEM_BOND_UDEF_STEREO_COUNT>  (1) 
0

>  <PUBCHEM_ISOTOPIC_ATOM_COUNT>  (1) 
0

>  <PUBCHEM_COMPONENT_COUNT>  (1) 
1

>  <PUBCHEM_CACTVS_TAUTO_COUNT>  (1) 
1

>  <PUBCHEM_CONFORMER_ID>  (1) 
0000442C00000001

>  <PUBCHEM_MMFF94_ENERGY>  (1) 
45.2937

>  <PUBCHEM_FEATURE_SELFOVERLAP>  (1) 
20.355

>  <PUBCHEM_SHAPE_FINGERPRINT>  (1) 
10967382 1 17689998934088916885
11206711 2 18409448124152574263
12524768 44 17764876088041298494
13140716 1 18266458896345133713
13380535 76 18195517095802812967
14817 1 8787784339417935933
161256 15 17979362184916131060
16945 1 18410573989747079303
193761 8 18410856559972098975
20511035 2 18050847710953892823
20871998 184 18272088348165474302
21040471 1 18266740177568339140
22802520 49 18057904475591995678
2334 1 17978228593165667527
23552423 10 17900260002799276493
23559900 14 18127980716139969726
2748010 2 18122339353098599317
5084963 1 17987529267145691954
53812653 166 18199181798123150121
7364860 26 17116924063355475095
81228 2 18411417336709017947

>  <PUBCHEM_SHAPE_MULTIPOLES>  (1) 
255.8
3.4
3.08
0.75
1.04
0
0.03
0
0
-1.59
-0.02
0.38
0
0

>  <PUBCHEM_SHAPE_SELFOVERLAP>  (1) 
536.353

>  <PUBCHEM_SHAPE_VOLUME>  (1) 
148.8

>  <PUBCHEM_COORDINATE_TYPE>  (1) 
2
5
10

$$$$
