17457
     RDKit          3D

 24 26  0  0  0  0  0  0  0  0999 V2000
    8.4386    0.9542   -0.1898 Cl  0  0  0  0  0  0  0  0  0  0  0  0
    2.7826   -1.5957   -0.2763 S   0  0  0  0  0  0  0  0  0  0  0  0
   -3.1483    1.0543    0.8098 O   0  0  0  0  0  0  0  0  0  0  0  0
   -6.3306   -0.3457   -0.4083 N   0  0  0  0  0  0  0  0  0  0  0  0
    3.2581    0.8878    0.2318 N   0  0  0  0  0  0  0  0  0  0  0  0
   -5.3709    0.6682    0.0022 C   0  0  0  0  0  0  0  0  0  0  0  0
   -7.5773    0.2747   -0.8635 C   0  0  0  0  0  0  0  0  0  0  0  0
   -6.6015   -1.2777    0.6890 C   0  0  0  0  0  0  0  0  0  0  0  0
   -4.0623    0.0254    0.4333 C   0  0  0  0  0  0  0  0  0  0  0  0
   -7.3224    1.2468   -2.0029 C   0  0  0  0  0  0  0  0  0  0  0  0
   -7.5495   -2.3811    0.2508 C   0  0  0  0  0  0  0  0  0  0  0  0
   -1.8224    0.7972    0.6408 C   0  0  0  0  0  0  0  0  0  0  0  0
    0.8940    0.2705    0.2949 C   0  0  0  0  0  0  0  0  0  0  0  0
    2.3004   -0.0022    0.1161 C   0  0  0  0  0  0  0  0  0  0  0  0
   -0.9380    1.8418    0.3721 C   0  0  0  0  0  0  0  0  0  0  0  0
   -1.3478   -0.5109    0.7365 C   0  0  0  0  0  0  0  0  0  0  0  0
    0.4208    1.5784    0.1989 C   0  0  0  0  0  0  0  0  0  0  0  0
    0.0109   -0.7745    0.5636 C   0  0  0  0  0  0  0  0  0  0  0  0
    4.4846    0.2841   -0.0049 C   0  0  0  0  0  0  0  0  0  0  0  0
    4.4280   -1.0810   -0.3014 C   0  0  0  0  0  0  0  0  0  0  0  0
    5.7454    0.9185    0.0287 C   0  0  0  0  0  0  0  0  0  0  0  0
    5.5854   -1.8314   -0.5645 C   0  0  0  0  0  0  0  0  0  0  0  0
    6.9017    0.1776   -0.2323 C   0  0  0  0  0  0  0  0  0  0  0  0
    6.8205   -1.1793   -0.5248 C   0  0  0  0  0  0  0  0  0  0  0  0
  1 23  1  0
  2 14  1  0
  2 20  1  0
  3  9  1  0
  3 12  1  0
  4  6  1  0
  4  7  1  0
  4  8  1  0
  5 14  2  0
  5 19  1  0
  6  9  1  0
  7 10  1  0
  8 11  1  0
 12 15  2  0
 12 16  1  0
 13 14  1  0
 13 17  2  0
 13 18  1  0
 15 17  1  0
 16 18  2  0
 19 20  2  0
 19 21  1  0
 20 22  1  0
 21 23  2  0
 22 24  2  0
 23 24  1  0
M  END
>  <PUBCHEM_COMPOUND_CID>  (1) 
17457

>  <PUBCHEM_CONFORMER_RMSD>  (1) 
0.8

>  <PUBCHEM_CONFORMER_DIVERSEORDER>  (1) 
1
25
6
29
20
14
10
32
24
36
4
37
12
19
3
13
7
31
18
17
28
2
23
11
34
16
30
21
39
26
35
15
40
33
22
27
38
42
8
5
9
41

>  <PUBCHEM_MMFF94_PARTIAL_CHARGES>  (1) 
29
1 -0.18
12 0.08
13 0.05
14 0.33
15 -0.15
16 -0.15
17 -0.15
18 -0.15
19 0.23
2 -0.08
20 0.04
21 -0.15
22 -0.15
23 0.18
24 -0.15
3 -0.36
39 0.15
4 -0.81
40 0.15
41 0.15
42 0.15
43 0.15
44 0.15
45 0.15
5 -0.57
6 0.27
7 0.27
8 0.27
9 0.28

>  <PUBCHEM_EFFECTIVE_ROTOR_COUNT>  (1) 
7

>  <PUBCHEM_PHARMACOPHORE_FEATURES>  (1) 
6
1 3 acceptor
1 4 cation
1 5 acceptor
5 2 5 14 19 20 rings
6 12 13 15 16 17 18 rings
6 19 20 21 22 23 24 rings

>  <PUBCHEM_HEAVY_ATOM_COUNT>  (1) 
24

>  <PUBCHEM_ATOM_DEF_STEREO_COUNT>  (1) 
0

>  <PUBCHEM_ATOM_UDEF_STEREO_COUNT>  (1) 
0

>  <PUBCHEM_BOND_DEF_STEREO_COUNT>  (1) 
0

>  <PUBCHEM_BOND_UDEF_STEREO_COUNT>  (1) 
0

>  <PUBCHEM_ISOTOPIC_ATOM_COUNT>  (1) 
0

>  <PUBCHEM_COMPONENT_COUNT>  (1) 
1

>  <PUBCHEM_CACTVS_TAUTO_COUNT>  (1) 
1

>  <PUBCHEM_CONFORMER_ID>  (1) 
0000443100000001

>  <PUBCHEM_MMFF94_ENERGY>  (1) 
60.7415

>  <PUBCHEM_FEATURE_SELFOVERLAP>  (1) 
30.518

>  <PUBCHEM_SHAPE_FINGERPRINT>  (1) 
10066227 49 18340771434029346678
10299344 5 17060621096648949191
10595046 47 18201443515406400192
106641 1 15913036617784497690
10666366 153 12035717688398221802
10883706 142 14273458059615382649
11200772 48 17530969111907610779
11315181 36 18342179964817479521
11524674 6 15051729798667014541
11963148 33 18413383237625495007
12082328 90 18342175540911617149
12091667 2 17167865266848338609
12236239 1 17917434193952128321
12516196 113 18131914857978285120
12838862 33 18339066156282295472
13668630 136 18412266125152180575
13685833 64 18272937124008110459
13914758 101 16515682212873915532
14123256 10 18342739619876824176
14178184 131 17773595108794148895
14251764 18 17704356567425247322
14251764 46 18410856563940044624
14856354 85 15267339639723428357
15142383 8 7781519200934376046
15183329 4 18260263006810403441
15419008 91 18263342811673539909
15728490 51 18202565120219547550
15849732 13 18409730677160814527
15979999 66 18260829327849974957
18006028 8 17775565334213027841
18335252 98 18341618135080674650
18681886 176 18337104661718844145
20281389 69 8214138556115140279
21033648 29 11459005237989077148
21049683 271 18201441411047317328
21095086 128 15913331278268680772
21130935 74 18058455314144148866
21150785 3 18040155127755858105
21267235 1 18272377472473462931
21344244 181 16056614127584381782
22224240 67 15697995236771188998
22288116 15 14851894711913456171
23035841 295 16056879130701809701
23559900 14 18340766043480958569
23576562 1 16734124507753091455
246663 6 13758355578942223500
2838139 119 14057002724393203767
3004659 81 18259983786179852745
3009799 131 17894349968954872677
34797466 226 16486979505830360064
3633792 109 18261112950214770116
4325135 7 18273496775838144140
4340502 62 14261636110197916100
465052 167 17989491818128530852
54039377 194 18201719613749188383
58083652 198 16630521865416978785
59682541 35 18202559605961204514
5969126 39 18201996595705083081
6201320 215 15937232418350646605
9953998 17 10952048979828403349
999808 66 18337117852054449171

>  <PUBCHEM_SHAPE_MULTIPOLES>  (1) 
483.8
26.11
1.85
0.97
12.96
0.52
-0.31
3.91
-7.48
0.88
-0.05
1.58
-0.17
1.64

>  <PUBCHEM_SHAPE_SELFOVERLAP>  (1) 
1009.132

>  <PUBCHEM_SHAPE_VOLUME>  (1) 
278.1

>  <PUBCHEM_COORDINATE_TYPE>  (1) 
2
5
10

$$$$
