17459
     RDKit          3D

 15 15  0  0  0  0  0  0  0  0999 V2000
    4.7251    1.6143    0.0212 O   0  0  0  0  0  0  0  0  0  0  0  0
    5.2101   -0.5195    0.2434 O   0  0  0  0  0  0  0  0  0  0  0  0
   -6.8916    0.7219    0.2146 O   0  0  0  0  0  0  0  0  0  0  0  0
    4.3815    0.4105    0.0969 N   0  0  0  0  0  0  0  0  0  0  0  0
    0.2889   -0.5453   -0.1473 C   0  0  0  0  0  0  0  0  0  0  0  0
    0.7004    0.7850   -0.2285 C   0  0  0  0  0  0  0  0  0  0  0  0
    1.2334   -1.5590    0.0147 C   0  0  0  0  0  0  0  0  0  0  0  0
    3.0010    0.0880    0.0144 C   0  0  0  0  0  0  0  0  0  0  0  0
    2.0564    1.1016   -0.1477 C   0  0  0  0  0  0  0  0  0  0  0  0
    2.5895   -1.2424    0.0956 C   0  0  0  0  0  0  0  0  0  0  0  0
   -1.1251   -0.8751   -0.2305 C   0  0  0  0  0  0  0  0  0  0  0  0
   -2.1488   -0.0189   -0.0054 C   0  0  0  0  0  0  0  0  0  0  0  0
   -3.5421   -0.4010   -0.0934 C   0  0  0  0  0  0  0  0  0  0  0  0
   -4.5433    0.4585    0.1324 C   0  0  0  0  0  0  0  0  0  0  0  0
   -5.9354   -0.0187    0.0196 C   0  0  0  0  0  0  0  0  0  0  0  0
  1  4  1  0
  2  4  2  0
  3 15  2  0
  4  8  1  0
  5  6  2  0
  5  7  1  0
  5 11  1  0
  6  9  1  0
  7 10  2  0
  8  9  2  0
  8 10  1  0
 11 12  2  0
 12 13  1  0
 13 14  2  0
 14 15  1  0
M  CHG  2   1  -1   4   1
M  END
>  <PUBCHEM_COMPOUND_CID>  (1) 
17459

>  <PUBCHEM_CONFORMER_RMSD>  (1) 
0.6

>  <PUBCHEM_CONFORMER_DIVERSEORDER>  (1) 
1
2
3

>  <PUBCHEM_MMFF94_PARTIAL_CHARGES>  (1) 
24
1 -0.52
10 -0.15
11 -0.18
12 -0.15
13 -0.15
14 -0.14
15 0.5
16 0.15
17 0.15
18 0.15
19 0.15
2 -0.52
20 0.15
21 0.15
22 0.15
23 0.15
24 0.06
3 -0.57
4 0.91
5 0.03
6 -0.15
7 -0.15
8 0.13
9 -0.15

>  <PUBCHEM_EFFECTIVE_ROTOR_COUNT>  (1) 
4

>  <PUBCHEM_PHARMACOPHORE_FEATURES>  (1) 
5
1 1 acceptor
1 1 anion
1 2 acceptor
1 3 acceptor
6 5 6 7 8 9 10 rings

>  <PUBCHEM_HEAVY_ATOM_COUNT>  (1) 
15

>  <PUBCHEM_ATOM_DEF_STEREO_COUNT>  (1) 
0

>  <PUBCHEM_ATOM_UDEF_STEREO_COUNT>  (1) 
0

>  <PUBCHEM_BOND_DEF_STEREO_COUNT>  (1) 
0

>  <PUBCHEM_BOND_UDEF_STEREO_COUNT>  (1) 
2

>  <PUBCHEM_ISOTOPIC_ATOM_COUNT>  (1) 
0

>  <PUBCHEM_COMPONENT_COUNT>  (1) 
1

>  <PUBCHEM_CACTVS_TAUTO_COUNT>  (1) 
1

>  <PUBCHEM_CONFORMER_ID>  (1) 
0000443300000001

>  <PUBCHEM_MMFF94_ENERGY>  (1) 
37.5093

>  <PUBCHEM_FEATURE_SELFOVERLAP>  (1) 
25.452

>  <PUBCHEM_SHAPE_FINGERPRINT>  (1) 
10354089 29 18408042909679696931
11471102 20 18410573980946297622
12236239 1 18131912667797989575
12714333 28 15985103015861732619
13167372 99 18270121206532496257
14123238 8 18341894087193211503
15048467 5 18341894112367169729
17834072 33 18201997759371435071
17834076 25 17846778503394377739
20279233 1 17676215658434707907
20645477 70 18270683056336246175
21267235 1 18337394842652421990
212847 35 18272088318327569528
23402539 116 17703503363851026877
23402655 69 18272930527307654447
23557571 272 16588301631573297350
26918003 58 18041001748068354347
300161 21 18271800225254525103
351380 3 10665227073096637441
3545911 37 18411139134713781391
4047638 21 18334577940510542690
4072396 5 18410565176738218154
42630746 31 18343303639356620030
42788 4 18411136935611255149
449060 50 18334574646470983063
5104073 3 18335696212697971242
542803 24 17275387595217552339
8272917 22 18342178830023401958
9999458 23 17676489475605964566

>  <PUBCHEM_SHAPE_MULTIPOLES>  (1) 
286.1
13.53
1.29
0.61
16.15
0.05
-0.01
-3.64
1.28
-1.18
-0.01
0.05
0.01
-0.16

>  <PUBCHEM_SHAPE_SELFOVERLAP>  (1) 
592.665

>  <PUBCHEM_SHAPE_VOLUME>  (1) 
163.7

>  <PUBCHEM_COORDINATE_TYPE>  (1) 
2
5
10

$$$$
