17465
     RDKit          3D

 16 17  0  0  1  0  0  0  0  0999 V2000
    0.0366    0.2719   -0.4069 O   0  0  0  0  0  0  0  0  0  0  0  0
   -1.5935    1.4270    0.7531 O   0  0  0  0  0  0  0  0  0  0  0  0
    2.4076    0.4443   -0.1707 C   0  0  0  0  0  0  0  0  0  0  0  0
    3.5540    1.2019    0.5115 C   0  0  0  0  0  0  0  0  0  0  0  0
   -2.2151   -0.1810   -0.9323 C   0  0  0  0  0  0  0  0  0  0  0  0
    2.5467   -1.0703    0.0661 C   0  0  0  0  0  0  0  0  0  0  0  0
    1.0497    0.9452    0.3166 C   0  0  0  0  0  0  0  0  0  0  0  0
   -2.5287   -1.5170   -0.2554 C   0  0  0  0  0  0  0  0  0  0  0  0
    4.9170    0.7343   -0.0079 C   0  0  0  0  0  0  0  0  0  0  0  0
   -3.4841    0.6312   -1.2227 C   0  0  0  0  0  0  0  0  0  0  0  0
   -3.3869   -1.3583    1.0042 C   0  0  0  0  0  0  0  0  0  0  0  0
    3.9514   -1.5672   -0.1085 C   0  0  0  0  0  0  0  0  0  0  0  0
   -1.2535    0.6077   -0.0895 C   0  0  0  0  0  0  0  0  0  0  0  0
    5.0155   -0.7543   -0.1561 C   0  0  0  0  0  0  0  0  0  0  0  0
   -4.5335    0.5337   -0.1538 C   0  0  0  0  0  0  0  0  0  0  0  0
   -4.4832   -0.3490    0.8524 C   0  0  0  0  0  0  0  0  0  0  0  0
  1  7  1  0
  1 13  1  0
  2 13  2  0
  3  4  1  0
  3  6  1  0
  3  7  1  0
  4  9  1  0
  5  8  1  0
  5 10  1  0
  5 13  1  0
  6 12  1  0
  8 11  1  0
  9 14  1  0
 10 15  1  0
 11 16  1  0
 12 14  2  0
 15 16  2  0
M  END
>  <PUBCHEM_COMPOUND_CID>  (1) 
17465

>  <PUBCHEM_CONFORMER_RMSD>  (1) 
0.8

>  <PUBCHEM_CONFORMER_DIVERSEORDER>  (1) 
1
77
4
18
38
67
28
10
45
74
23
8
37
89
52
53
7
30
75
2
95
16
36
64
3
78
91
49
51
27
47
70
17
31
81
69
19
79
35
43
12
57
71
15
41
83
56
14
11
85
42
54
80
88
66
61
40
5
55
72
50
93
86
34
73
48
44
87
22
94
24
90
60
46
39
59
26
76
13
25
29
82
9
92
6
32
84
21
20
63
58
65
33
62
68

>  <PUBCHEM_MMFF94_PARTIAL_CHARGES>  (1) 
17
1 -0.43
10 0.14
11 0.14
12 -0.29
13 0.66
14 -0.29
15 -0.29
16 -0.29
2 -0.57
33 0.15
34 0.15
35 0.15
36 0.15
5 0.06
6 0.14
7 0.28
9 0.14

>  <PUBCHEM_EFFECTIVE_ROTOR_COUNT>  (1) 
5.6

>  <PUBCHEM_PHARMACOPHORE_FEATURES>  (1) 
3
1 2 acceptor
6 3 4 6 9 12 14 rings
6 5 8 10 11 15 16 rings

>  <PUBCHEM_HEAVY_ATOM_COUNT>  (1) 
16

>  <PUBCHEM_ATOM_DEF_STEREO_COUNT>  (1) 
0

>  <PUBCHEM_ATOM_UDEF_STEREO_COUNT>  (1) 
2

>  <PUBCHEM_BOND_DEF_STEREO_COUNT>  (1) 
0

>  <PUBCHEM_BOND_UDEF_STEREO_COUNT>  (1) 
0

>  <PUBCHEM_ISOTOPIC_ATOM_COUNT>  (1) 
0

>  <PUBCHEM_COMPONENT_COUNT>  (1) 
1

>  <PUBCHEM_CACTVS_TAUTO_COUNT>  (1) 
1

>  <PUBCHEM_CONFORMER_ID>  (1) 
0000443900000001

>  <PUBCHEM_MMFF94_ENERGY>  (1) 
10.3388

>  <PUBCHEM_FEATURE_SELFOVERLAP>  (1) 
15.223

>  <PUBCHEM_SHAPE_FINGERPRINT>  (1) 
10366900 7 16845851299819944722
10680689 15 17313104146500538965
11128504 68 15285367227629038006
11287383 113 17749392589669423924
124424 183 18273493485961786413
128620 24 17748827427644197886
13167823 11 18408322172806395914
13296908 3 18334572460100410199
13675066 3 18335420196587548845
13760787 5 18060414729046480956
14123238 8 12396299253250104708
14251764 18 18130514089434720105
14252887 29 17775008960276270006
14341114 176 18341337742751843860
14386348 63 18333454243969434810
15196674 1 18410855486046152350
15242433 33 18412825793787244702
15375358 24 18411697681750919391
17834072 33 17917704746948292031
17834074 16 18408885131233785130
17844677 252 18187370925896000396
18186145 218 17603294973095609228
19141452 34 18409169948085611127
200 152 18059851766197393649
20281475 54 18201996680902023052
20325693 3 17167860855552941639
20645477 56 17821720612133880597
20645477 70 18272082765066822334
21267235 1 18343028757492026366
21503847 285 14333406774988206146
22485316 2 18410009948740206446
22646028 1 17847056684057351908
23402539 116 17846491513917367365
23402655 69 18412261740406951972
23557571 272 17749105561009914780
23559900 14 18411132559097921320
239999 70 18409452479946043038
26918003 58 18410572890040298880
2871803 45 18335417929198296354
300161 21 17774995804406411144
3268164 11 15647043867940289583
3545911 37 18409729569159523924
42 15 18412266129452104244
4214541 1 18409166576014031373
4921388 177 16732991950467410043
5104073 3 18411698802795172810
542803 24 14923944535537574948
77779 3 18408886243598562412
9709674 26 18188775075185053394

>  <PUBCHEM_SHAPE_MULTIPOLES>  (1) 
317.53
11.62
1.52
0.94
4.7
0.34
0.03
1.3
-0.41
0.38
-0.15
-0.83
-0.02
0.68

>  <PUBCHEM_SHAPE_SELFOVERLAP>  (1) 
645.817

>  <PUBCHEM_SHAPE_VOLUME>  (1) 
180

>  <PUBCHEM_COORDINATE_TYPE>  (1) 
2
5
10

$$$$
