17468
     RDKit          3D

 12 11  0  0  1  0  0  0  0  0999 V2000
    0.3431    2.8856   -0.9731 Cl  0  0  0  0  0  0  0  0  0  0  0  0
    1.9788    0.4258   -0.0011 O   0  0  0  0  0  0  0  0  0  0  0  0
   -1.6207    0.1106    0.5109 O   0  0  0  0  0  0  0  0  0  0  0  0
    1.9227   -1.5512    0.9828 O   0  0  0  0  0  0  0  0  0  0  0  0
    3.0809   -1.3432   -0.9110 O   0  0  0  0  0  0  0  0  0  0  0  0
   -2.3507   -1.2661   -1.0583 O   0  0  0  0  0  0  0  0  0  0  0  0
   -3.8268   -0.4260    0.3863 O   0  0  0  0  0  0  0  0  0  0  0  0
    2.3691   -0.9396    0.0115 N   0  0  0  0  0  0  0  0  0  0  0  0
   -2.7030   -0.5818   -0.0969 N   0  0  0  0  0  0  0  0  0  0  0  0
    0.7120    0.6571    0.6155 C   0  0  0  0  0  0  0  0  0  0  0  0
   -0.3665   -0.1341   -0.1192 C   0  0  0  0  0  0  0  0  0  0  0  0
    0.4611    2.1629    0.6525 C   0  0  0  0  0  0  0  0  0  0  0  0
  1 12  1  0
  2  8  1  0
  2 10  1  0
  3  9  1  0
  3 11  1  0
  4  8  1  0
  5  8  2  0
  6  9  1  0
  7  9  2  0
 10 11  1  0
 10 12  1  0
M  CHG  4   4  -1   6  -1   8   1   9   1
M  END
>  <PUBCHEM_COMPOUND_CID>  (1) 
17468

>  <PUBCHEM_CONFORMER_RMSD>  (1) 
0.6

>  <PUBCHEM_CONFORMER_DIVERSEORDER>  (1) 
1
74
59
81
77
114
30
70
43
123
86
83
125
122
110
96
53
14
82
118
72
111
64
61
119
105
91
127
104
47
9
124
76
66
10
21
88
51
87
79
75
44
128
113
78
99
28
85
71
129
95
107
50
109
34
102
126
12
112
65
121
117
8
2
25
98
15
32
89
7
24
45
57
46
54
6
67
36
29
33
69
38
27
63
5
90
60
18
19
13
92
55
56
11
100
48
97
20
42
108
68
23
120
35
80
41
37
40
115
22
4
106
26
39
31
3
73
84
17
52
16
93
58
49
94
101
116
62
103

>  <PUBCHEM_MMFF94_PARTIAL_CHARGES>  (1) 
12
1 -0.29
10 0.28
11 0.28
12 0.29
2 -0.27
3 -0.27
4 -0.52
5 -0.52
6 -0.52
7 -0.52
8 1.03
9 1.03

>  <PUBCHEM_EFFECTIVE_ROTOR_COUNT>  (1) 
6

>  <PUBCHEM_PHARMACOPHORE_FEATURES>  (1) 
4
1 4 acceptor
1 5 acceptor
1 6 acceptor
1 7 acceptor

>  <PUBCHEM_HEAVY_ATOM_COUNT>  (1) 
12

>  <PUBCHEM_ATOM_DEF_STEREO_COUNT>  (1) 
0

>  <PUBCHEM_ATOM_UDEF_STEREO_COUNT>  (1) 
1

>  <PUBCHEM_BOND_DEF_STEREO_COUNT>  (1) 
0

>  <PUBCHEM_BOND_UDEF_STEREO_COUNT>  (1) 
0

>  <PUBCHEM_ISOTOPIC_ATOM_COUNT>  (1) 
0

>  <PUBCHEM_COMPONENT_COUNT>  (1) 
1

>  <PUBCHEM_CACTVS_TAUTO_COUNT>  (1) 
1

>  <PUBCHEM_CONFORMER_ID>  (1) 
0000443C00000001

>  <PUBCHEM_MMFF94_ENERGY>  (1) 
33.2863

>  <PUBCHEM_FEATURE_SELFOVERLAP>  (1) 
20.439

>  <PUBCHEM_SHAPE_FINGERPRINT>  (1) 
1 1 17904761429247438004
12932764 1 17023730343012713635
14128692 85 18273217525195459240
161256 15 18412538808541917360
20339313 130 18410020952557247129
20645477 70 18268702999831242631
20708731 107 18189623923947161957
20711985 344 18120373159777706808
20871998 22 18271525308360507586
21524375 3 16889473586181353205
23552423 10 18196084680315902143
23598291 2 18271810176567013207
7364860 26 18128817636554213057
81228 2 18193555554168853216

>  <PUBCHEM_SHAPE_MULTIPOLES>  (1) 
203.65
4.52
2.49
0.98
3.29
2.12
0.1
-3.21
0.4
-1.33
0.53
-0.13
0.08
-0.11

>  <PUBCHEM_SHAPE_SELFOVERLAP>  (1) 
377.546

>  <PUBCHEM_SHAPE_VOLUME>  (1) 
129.6

>  <PUBCHEM_COORDINATE_TYPE>  (1) 
2
5
10

$$$$
