17469
     RDKit          3D

  8  8  0  0  0  0  0  0  0  0999 V2000
   -2.2004    1.4734   -0.0896 Cl  0  0  0  0  0  0  0  0  0  0  0  0
   -2.2249   -1.4357    0.0513 Cl  0  0  0  0  0  0  0  0  0  0  0  0
    0.7980    1.1724    0.1083 O   0  0  0  0  0  0  0  0  0  0  0  0
    0.7787   -1.1716    0.2445 O   0  0  0  0  0  0  0  0  0  0  0  0
    0.0197    0.0239    0.4694 C   0  0  0  0  0  0  0  0  0  0  0  0
    2.1333    0.6780    0.0286 C   0  0  0  0  0  0  0  0  0  0  0  0
    1.9451   -0.7347   -0.4525 C   0  0  0  0  0  0  0  0  0  0  0  0
   -1.2495   -0.0057   -0.3602 C   0  0  0  0  0  0  0  0  0  0  0  0
  1  8  1  0
  2  8  1  0
  3  5  1  0
  3  6  1  0
  4  5  1  0
  4  7  1  0
  5  8  1  0
  6  7  1  0
M  END
>  <PUBCHEM_COMPOUND_CID>  (1) 
17469

>  <PUBCHEM_CONFORMER_RMSD>  (1) 
0.4

>  <PUBCHEM_CONFORMER_DIVERSEORDER>  (1) 
1
2
3

>  <PUBCHEM_MMFF94_PARTIAL_CHARGES>  (1) 
8
1 -0.29
2 -0.29
3 -0.56
4 -0.56
5 0.56
6 0.28
7 0.28
8 0.58

>  <PUBCHEM_EFFECTIVE_ROTOR_COUNT>  (1) 
2

>  <PUBCHEM_PHARMACOPHORE_FEATURES>  (1) 
3
1 3 acceptor
1 4 acceptor
5 3 4 5 6 7 rings

>  <PUBCHEM_HEAVY_ATOM_COUNT>  (1) 
8

>  <PUBCHEM_ATOM_DEF_STEREO_COUNT>  (1) 
0

>  <PUBCHEM_ATOM_UDEF_STEREO_COUNT>  (1) 
0

>  <PUBCHEM_BOND_DEF_STEREO_COUNT>  (1) 
0

>  <PUBCHEM_BOND_UDEF_STEREO_COUNT>  (1) 
0

>  <PUBCHEM_ISOTOPIC_ATOM_COUNT>  (1) 
0

>  <PUBCHEM_COMPONENT_COUNT>  (1) 
1

>  <PUBCHEM_CACTVS_TAUTO_COUNT>  (1) 
1

>  <PUBCHEM_CONFORMER_ID>  (1) 
0000443D00000001

>  <PUBCHEM_MMFF94_ENERGY>  (1) 
13.3476

>  <PUBCHEM_FEATURE_SELFOVERLAP>  (1) 
15.264

>  <PUBCHEM_SHAPE_FINGERPRINT>  (1) 
12897270 3 18337950215840239791
14390081 3 18412820274601580705
19973954 147 18410575110512322357
20096714 4 18337107873837396865
21040471 1 18265328413333840841
23552423 10 18333734610828693806
24536 1 18339341025019017029
29004967 10 17917996096139199018
5084963 1 18271249438036452448

>  <PUBCHEM_SHAPE_MULTIPOLES>  (1) 
156.64
3.41
1.6
0.68
0.21
0.02
0.01
0.04
0.26
0.8
-0.01
0
-0.02
0.15

>  <PUBCHEM_SHAPE_SELFOVERLAP>  (1) 
287.525

>  <PUBCHEM_SHAPE_VOLUME>  (1) 
101.7

>  <PUBCHEM_COORDINATE_TYPE>  (1) 
2
5
10

$$$$
