17467
     RDKit          3D

 35 38  0  0  0  0  0  0  0  0999 V2000
    1.2489   -1.7716    0.5162 S   0  0  0  0  0  0  0  0  0  0  0  0
    6.5677   -1.2877    0.4093 S   0  0  0  0  0  0  0  0  0  0  0  0
   -5.9699   -1.8176   -0.3814 S   0  0  0  0  0  0  0  0  0  0  0  0
    0.5915   -2.0245   -0.9549 O   0  0  0  0  0  0  0  0  0  0  0  0
   -0.0397    3.2508   -0.8706 O   0  0  0  0  0  0  0  0  0  0  0  0
    6.9585   -1.8910   -1.0591 O   0  0  0  0  0  0  0  0  0  0  0  0
    1.8056   -3.0342    0.9650 O   0  0  0  0  0  0  0  0  0  0  0  0
    0.2954   -1.0385    1.3266 O   0  0  0  0  0  0  0  0  0  0  0  0
    7.5332   -0.2404    0.7088 O   0  0  0  0  0  0  0  0  0  0  0  0
    6.3785   -2.4052    1.3210 O   0  0  0  0  0  0  0  0  0  0  0  0
   -7.1196   -0.8279   -0.9830 O   0  0  0  0  0  0  0  0  0  0  0  0
   -5.8404   -2.9360   -1.2985 O   0  0  0  0  0  0  0  0  0  0  0  0
   -6.2407   -2.0307    1.0285 O   0  0  0  0  0  0  0  0  0  0  0  0
    0.0191    0.6386   -0.1525 N   0  0  0  0  0  0  0  0  0  0  0  0
   -0.8421    1.1452   -0.9067 N   0  0  0  0  0  0  0  0  0  0  0  0
    2.4953    0.6745   -0.1500 C   0  0  0  0  0  0  0  0  0  0  0  0
    3.6767    1.4271   -0.3515 C   0  0  0  0  0  0  0  0  0  0  0  0
    2.5961   -0.6762    0.2217 C   0  0  0  0  0  0  0  0  0  0  0  0
    5.0061   -0.5361    0.1950 C   0  0  0  0  0  0  0  0  0  0  0  0
    1.2494    1.2954   -0.3267 C   0  0  0  0  0  0  0  0  0  0  0  0
    4.9245    0.8068   -0.1750 C   0  0  0  0  0  0  0  0  0  0  0  0
    3.8441   -1.2761    0.3927 C   0  0  0  0  0  0  0  0  0  0  0  0
    3.5758    2.7775   -0.7234 C   0  0  0  0  0  0  0  0  0  0  0  0
   -4.2329    0.2275    0.3510 C   0  0  0  0  0  0  0  0  0  0  0  0
   -3.0088    0.9251    0.2168 C   0  0  0  0  0  0  0  0  0  0  0  0
    1.1658    2.6373   -0.6960 C   0  0  0  0  0  0  0  0  0  0  0  0
   -4.4827   -0.8850   -0.4689 C   0  0  0  0  0  0  0  0  0  0  0  0
   -2.0706    0.4895   -0.7332 C   0  0  0  0  0  0  0  0  0  0  0  0
    2.3278    3.3774   -0.8941 C   0  0  0  0  0  0  0  0  0  0  0  0
   -3.5394   -1.3036   -1.4079 C   0  0  0  0  0  0  0  0  0  0  0  0
   -2.3355   -0.6179   -1.5396 C   0  0  0  0  0  0  0  0  0  0  0  0
   -5.1709    0.6630    1.3013 C   0  0  0  0  0  0  0  0  0  0  0  0
   -2.7588    2.0376    1.0366 C   0  0  0  0  0  0  0  0  0  0  0  0
   -4.9059    1.7706    2.1073 C   0  0  0  0  0  0  0  0  0  0  0  0
   -3.7022    2.4566    1.9752 C   0  0  0  0  0  0  0  0  0  0  0  0
  1  4  1  0
  1  7  2  0
  1  8  2  0
  1 18  1  0
  2  6  1  0
  2  9  2  0
  2 10  2  0
  2 19  1  0
  3 11  1  0
  3 12  2  0
  3 13  2  0
  3 27  1  0
  5 26  1  0
 14 15  2  0
 14 20  1  0
 15 28  1  0
 16 17  1  0
 16 18  2  0
 16 20  1  0
 17 21  2  0
 17 23  1  0
 18 22  1  0
 19 21  1  0
 19 22  2  0
 20 26  2  0
 23 29  2  0
 24 25  1  0
 24 27  2  0
 24 32  1  0
 25 28  2  0
 25 33  1  0
 26 29  1  0
 27 30  1  0
 28 31  1  0
 30 31  2  0
 32 34  2  0
 33 35  2  0
 34 35  1  0
M  END
>  <PUBCHEM_COMPOUND_CID>  (1) 
17467

>  <PUBCHEM_CONFORMER_RMSD>  (1) 
0.8

>  <PUBCHEM_CONFORMER_DIVERSEORDER>  (1) 
1
4
5
2
3

>  <PUBCHEM_MMFF94_PARTIAL_CHARGES>  (1) 
45
1 1.49
10 -0.65
11 -0.68
12 -0.65
13 -0.65
14 -0.18
15 -0.18
18 -0.01
19 -0.01
2 1.49
20 0.18
21 -0.15
22 -0.15
23 -0.15
26 0.08
27 -0.01
28 0.18
29 -0.15
3 1.49
30 -0.15
31 -0.15
32 -0.15
33 -0.15
34 -0.15
35 -0.15
36 0.15
37 0.15
38 0.15
39 0.15
4 -0.68
40 0.15
41 0.15
42 0.15
43 0.15
44 0.15
45 0.15
46 0.5
47 0.45
48 0.5
49 0.5
5 -0.53
6 -0.68
7 -0.65
8 -0.65
9 -0.65

>  <PUBCHEM_EFFECTIVE_ROTOR_COUNT>  (1) 
5

>  <PUBCHEM_PHARMACOPHORE_FEATURES>  (1) 
17
1 10 acceptor
1 11 acceptor
1 12 acceptor
1 13 acceptor
1 4 acceptor
1 5 donor
1 6 acceptor
1 7 acceptor
1 8 acceptor
1 9 acceptor
4 1 4 7 8 anion
4 2 6 9 10 anion
4 3 11 12 13 anion
6 16 17 18 19 21 22 rings
6 16 17 20 23 26 29 rings
6 24 25 27 28 30 31 rings
6 24 25 32 33 34 35 rings

>  <PUBCHEM_HEAVY_ATOM_COUNT>  (1) 
35

>  <PUBCHEM_ATOM_DEF_STEREO_COUNT>  (1) 
0

>  <PUBCHEM_ATOM_UDEF_STEREO_COUNT>  (1) 
0

>  <PUBCHEM_BOND_DEF_STEREO_COUNT>  (1) 
0

>  <PUBCHEM_BOND_UDEF_STEREO_COUNT>  (1) 
0

>  <PUBCHEM_ISOTOPIC_ATOM_COUNT>  (1) 
0

>  <PUBCHEM_COMPONENT_COUNT>  (1) 
1

>  <PUBCHEM_CACTVS_TAUTO_COUNT>  (1) 
3

>  <PUBCHEM_CONFORMER_ID>  (1) 
0000443B00000001

>  <PUBCHEM_MMFF94_ENERGY>  (1) 
113.2689

>  <PUBCHEM_FEATURE_SELFOVERLAP>  (1) 
86.503

>  <PUBCHEM_SHAPE_FINGERPRINT>  (1) 
10319926 262 17489315156912007812
10622 236 18127113393969277215
10906281 52 18337686286754278356
11135609 187 18045498870500849661
11963148 33 18263356998288323458
12107183 9 18268156357715715465
12107698 1 18412542132772744967
12166972 35 18342175583560597128
12236239 1 18343023315436367229
12422481 6 17916303840860545222
12596602 18 17988925578219975504
12788726 201 17988652951672076393
13009979 54 18272373074501383041
13533116 47 18267021832992205285
13782708 43 16805602547435769074
13862211 1 18260824870247914042
14040222 275 18263666000063102638
14117953 113 18412255117683673727
14394314 77 18413394241352702560
14784336 7 18126846229923725465
14849402 71 18341614875876224392
14856354 85 17988925613038792711
14955137 171 18342463612572985336
15021287 119 18411421708616472928
15064986 96 17345199891632502471
15183329 4 18260548918552069562
15250474 111 18342460357124892519
15361156 5 17531252712376324029
1577012 14 18342186578218367064
16112460 7 18337111267352054408
19319366 153 17620757619112037061
19841028 212 18263360451362362843
20028762 73 18413106169522028638
20739085 24 18187660101860121964
21033648 29 16515677875041485757
21065198 48 18342464776414592781
21130935 74 18272930480490808266
21133410 230 15244006491127224667
21267235 1 18409449189584161734
21814621 53 16701742623505424850
23522609 53 18120405149227806620
23559900 14 18189892196911907329
23569943 247 18049159969855438874
24771293 8 18412543220232992192
3504750 166 18059849545768127415
3633792 109 18335410267641097175
3737641 26 18120376450171275698
392239 28 18260554381064278330
4112364 45 15050872252854457952
484989 97 17895765126530585650
5028188 123 18200886080781811412
5080951 261 15338821085426371125
5104073 3 18130791182664373208
9849439 229 16338668392225393153
9896288 288 17773041856021514209

>  <PUBCHEM_SHAPE_MULTIPOLES>  (1) 
663.18
17.49
3.57
1.47
4.28
1
0.33
-10.6
2.44
0.38
-0.2
-1.55
0.2
-3.49

>  <PUBCHEM_SHAPE_SELFOVERLAP>  (1) 
1449.856

>  <PUBCHEM_SHAPE_VOLUME>  (1) 
359.7

>  <PUBCHEM_COORDINATE_TYPE>  (1) 
2
5
10

$$$$
