1746
     RDKit          3D

 13 14  0  0  0  0  0  0  0  0999 V2000
    2.1707    3.0042   -0.0004 I   0  0  0  0  0  0  0  0  0  0  0  0
   -0.9685   -1.6886    0.0002 S   0  0  0  0  0  0  0  0  0  0  0  0
   -3.8998   -0.8249   -0.0017 N   0  0  0  0  0  0  0  0  0  0  0  0
   -3.4261    1.4589    0.0012 N   0  0  0  0  0  0  0  0  0  0  0  0
    0.6994    0.2871    0.0000 C   0  0  0  0  0  0  0  0  0  0  0  0
    0.6561   -1.1105    0.0003 C   0  0  0  0  0  0  0  0  0  0  0  0
   -0.6220    0.8477    0.0000 C   0  0  0  0  0  0  0  0  0  0  0  0
   -1.6091   -0.1091   -0.0002 C   0  0  0  0  0  0  0  0  0  0  0  0
    1.9672    0.9175   -0.0002 C   0  0  0  0  0  0  0  0  0  0  0  0
    1.8336   -1.8839    0.0004 C   0  0  0  0  0  0  0  0  0  0  0  0
    3.1371    0.1532   -0.0003 C   0  0  0  0  0  0  0  0  0  0  0  0
   -3.0073    0.1810    0.0005 C   0  0  0  0  0  0  0  0  0  0  0  0
    3.0685   -1.2327    0.0002 C   0  0  0  0  0  0  0  0  0  0  0  0
  1  9  1  0
  2  6  1  0
  2  8  1  0
  3 12  2  0
  4 12  1  0
  5  6  2  0
  5  7  1  0
  5  9  1  0
  6 10  1  0
  7  8  2  0
  8 12  1  0
  9 11  2  0
 10 13  2  0
 11 13  1  0
M  CHG  1   3   1
M  END
>  <PUBCHEM_COMPOUND_CID>  (1) 
1746

>  <PUBCHEM_CONFORMER_RMSD>  (1) 
0.4

>  <PUBCHEM_CONFORMER_DIVERSEORDER>  (1) 
1

>  <PUBCHEM_MMFF94_PARTIAL_CHARGES>  (1) 
20
1 -0.08
10 -0.15
11 -0.15
12 0.78
13 -0.15
14 0.15
15 0.15
16 0.15
17 0.15
18 0.45
19 0.45
2 -0.08
20 0.45
21 0.45
3 -0.75
4 -0.75
6 0.04
7 -0.15
8 -0.04
9 0.08

>  <PUBCHEM_EFFECTIVE_ROTOR_COUNT>  (1) 
1

>  <PUBCHEM_PHARMACOPHORE_FEATURES>  (1) 
6
1 1 hydrophobe
1 3 donor
1 4 donor
3 3 4 12 cation
5 2 5 6 7 8 rings
6 5 6 9 10 11 13 rings

>  <PUBCHEM_HEAVY_ATOM_COUNT>  (1) 
13

>  <PUBCHEM_ATOM_DEF_STEREO_COUNT>  (1) 
0

>  <PUBCHEM_ATOM_UDEF_STEREO_COUNT>  (1) 
0

>  <PUBCHEM_BOND_DEF_STEREO_COUNT>  (1) 
0

>  <PUBCHEM_BOND_UDEF_STEREO_COUNT>  (1) 
0

>  <PUBCHEM_ISOTOPIC_ATOM_COUNT>  (1) 
0

>  <PUBCHEM_COMPONENT_COUNT>  (1) 
1

>  <PUBCHEM_CACTVS_TAUTO_COUNT>  (1) 
2

>  <PUBCHEM_CONFORMER_ID>  (1) 
000006D200000001

>  <PUBCHEM_MMFF94_ENERGY>  (1) 
28.7016

>  <PUBCHEM_FEATURE_SELFOVERLAP>  (1) 
30.549

>  <PUBCHEM_SHAPE_FINGERPRINT>  (1) 
10130415 120 18188768349556203866
10608611 8 18408320008048102021
10967382 1 18338517559524300580
10980938 120 18410857685158766928
11471102 20 18410288086363707039
12032990 46 18339367361600623318
12932764 1 17489298728851679441
13380535 21 18193566785513288336
13380535 76 18192709162306820466
13380536 305 18410579526218484236
13897977 150 18265893734067024540
14144814 61 18411699859436261155
14251717 144 18410851079382969255
14325111 11 18410855451823076803
14648413 74 18336830900265961536
14897335 6 18268144447385865668
15442244 35 18339924801105313440
15501101 241 18259705579646945684
15536298 74 18343582962554240876
16945 1 18410855469024174918
18186145 218 18343589512216005877
193761 8 18050286161307450982
20559304 39 18411702093019916416
20606313 2 18410854317914865428
20645477 70 18412539899658783103
20671657 1 18339366369837652956
21501502 16 18268143352037381902
21524375 3 18124031497188606452
21639500 275 18338783615426007205
221490 88 18336836388907475386
22854114 111 18410857702101330721
22959321 4 18410575106533541355
2334 1 17978511163206187784
23402539 116 18199175209996667894
23402655 69 18341325613743101317
23463225 33 18409729525925040270
23552423 10 18337950220203843702
2748010 2 18120944068479425470
3071541 12 18339083791159926620
3071541 158 18335421240465373868
528886 8 18411414020989230986
53812653 166 18341889740623082664
58051976 378 18196933502907637972
6333272 397 18265613375771345889
7364860 26 18341333391939644404
81228 2 17763474915554647080
84936 182 18129663144038156824
9709674 26 18411141363396178359

>  <PUBCHEM_SHAPE_MULTIPOLES>  (1) 
273.36
5.78
2.69
0.64
4.11
1.22
0
1.25
0
-2.08
0
-0.1
0.05
0

>  <PUBCHEM_SHAPE_SELFOVERLAP>  (1) 
559.045

>  <PUBCHEM_SHAPE_VOLUME>  (1) 
162.3

>  <PUBCHEM_COORDINATE_TYPE>  (1) 
2
5
10

$$$$
