1747
     RDKit          3D

 13 14  0  0  0  0  0  0  0  0999 V2000
    2.2450    2.9887    0.0005 I   0  0  0  0  0  0  0  0  0  0  0  0
   -0.9897   -1.6388   -0.0012 S   0  0  0  0  0  0  0  0  0  0  0  0
   -3.5824    1.4460    0.0009 N   0  0  0  0  0  0  0  0  0  0  0  0
   -3.8535   -0.8751    0.0025 N   0  0  0  0  0  0  0  0  0  0  0  0
    0.7182    0.3023   -0.0004 C   0  0  0  0  0  0  0  0  0  0  0  0
    0.6464   -1.0941   -0.0003 C   0  0  0  0  0  0  0  0  0  0  0  0
   -0.5913    0.8899   -0.0010 C   0  0  0  0  0  0  0  0  0  0  0  0
   -1.5978   -0.0465   -0.0017 C   0  0  0  0  0  0  0  0  0  0  0  0
    1.9988    0.9066    0.0001 C   0  0  0  0  0  0  0  0  0  0  0  0
    1.8078   -1.8914    0.0004 C   0  0  0  0  0  0  0  0  0  0  0  0
    3.1528    0.1186    0.0005 C   0  0  0  0  0  0  0  0  0  0  0  0
    3.0558   -1.2657    0.0008 C   0  0  0  0  0  0  0  0  0  0  0  0
   -3.0099    0.1596   -0.0009 C   0  0  0  0  0  0  0  0  0  0  0  0
  1  9  1  0
  2  6  1  0
  2  8  1  0
  3 13  1  0
  4 13  2  0
  5  6  2  0
  5  7  1  0
  5  9  1  0
  6 10  1  0
  7  8  2  0
  8 13  1  0
  9 11  2  0
 10 12  2  0
 11 12  1  0
M  END
>  <PUBCHEM_COMPOUND_CID>  (1) 
1747

>  <PUBCHEM_CONFORMER_RMSD>  (1) 
0.4

>  <PUBCHEM_CONFORMER_DIVERSEORDER>  (1) 
1

>  <PUBCHEM_MMFF94_PARTIAL_CHARGES>  (1) 
19
1 -0.08
10 -0.15
11 -0.15
12 -0.15
13 0.58
14 0.15
15 0.15
16 0.15
17 0.15
18 0.4
19 0.4
2 -0.08
20 0.4
3 -0.85
4 -0.85
6 0.04
7 -0.15
8 -0.05
9 0.08

>  <PUBCHEM_EFFECTIVE_ROTOR_COUNT>  (1) 
1

>  <PUBCHEM_PHARMACOPHORE_FEATURES>  (1) 
6
1 1 hydrophobe
1 3 donor
1 4 donor
3 3 4 13 cation
5 2 5 6 7 8 rings
6 5 6 9 10 11 12 rings

>  <PUBCHEM_HEAVY_ATOM_COUNT>  (1) 
13

>  <PUBCHEM_ATOM_DEF_STEREO_COUNT>  (1) 
0

>  <PUBCHEM_ATOM_UDEF_STEREO_COUNT>  (1) 
0

>  <PUBCHEM_BOND_DEF_STEREO_COUNT>  (1) 
0

>  <PUBCHEM_BOND_UDEF_STEREO_COUNT>  (1) 
0

>  <PUBCHEM_ISOTOPIC_ATOM_COUNT>  (1) 
0

>  <PUBCHEM_COMPONENT_COUNT>  (1) 
1

>  <PUBCHEM_CACTVS_TAUTO_COUNT>  (1) 
1

>  <PUBCHEM_CONFORMER_ID>  (1) 
000006D300000001

>  <PUBCHEM_MMFF94_ENERGY>  (1) 
31.1243

>  <PUBCHEM_FEATURE_SELFOVERLAP>  (1) 
30.548

>  <PUBCHEM_SHAPE_FINGERPRINT>  (1) 
10130415 120 18260825943573039290
10608611 8 18408320008048095517
10967382 1 18338516464307620612
10980938 120 18411138073477155160
11471102 20 18410288082063464991
12032990 46 18339085890908336942
12932764 1 17489299836963797809
13380535 21 18193566785523811856
13380535 76 18192709166638750000
13380536 305 18410579526229020748
13897977 150 18337951328120776732
13922767 16 18410286974030682128
14144814 61 18411981334418253051
14251717 144 18411132558638829447
14325111 11 18410575080668772483
14648413 74 18336549420989002336
14897335 6 18268144447396415172
15442244 35 18339924801094770440
15501101 241 18259705579657495188
15536298 74 18343584066355580692
16945 1 18410573985431162406
18186145 218 18343589516516254421
193761 8 18050567640610790438
20201158 50 18409167684083951762
20559304 39 18411702093040995936
20606313 2 18410854317930683188
20645477 70 18412822482705381631
20671657 1 18339365270336555188
21501502 16 18267861872770985198
21524375 3 18123467447734100364
21639500 275 18338783615410182933
221490 88 18336836388907468882
22854114 111 18410857706427953016
22959321 4 18410575106507167603
2334 1 17978511158905919752
23402539 116 18199175214286379934
23402655 69 18341325613716721053
23463225 33 18410011005180887470
23552423 10 18337950215924707150
2748010 2 18120944068495275710
3071541 12 18411422851494992292
3071541 158 18335139761162040916
528886 8 18411414025273648778
53812653 166 18341608269951895296
58051976 378 18124594438182704924
6333272 397 18265331905073784769
7364860 26 18341333387671037876
81228 2 17764036765980616376
84936 182 18129663139737908272
9709674 26 18411142462907799639

>  <PUBCHEM_SHAPE_MULTIPOLES>  (1) 
273.36
5.86
2.67
0.64
4.27
1.19
0
1.38
0
-2.09
0
-0.1
0.05
0

>  <PUBCHEM_SHAPE_SELFOVERLAP>  (1) 
557.48

>  <PUBCHEM_SHAPE_VOLUME>  (1) 
162.5

>  <PUBCHEM_COORDINATE_TYPE>  (1) 
2
5
10

$$$$
