17471
     RDKit          3D

 19 20  0  0  0  0  0  0  0  0999 V2000
   -0.0010    1.8756   -0.0001 O   0  0  0  0  0  0  0  0  0  0  0  0
   -4.9570   -1.9963   -0.8857 O   0  0  0  0  0  0  0  0  0  0  0  0
    4.9547   -1.9968    0.8857 O   0  0  0  0  0  0  0  0  0  0  0  0
   -1.1653    1.1717   -0.0324 C   0  0  0  0  0  0  0  0  0  0  0  0
    1.1838    1.1592    0.0328 C   0  0  0  0  0  0  0  0  0  0  0  0
   -3.5531   -0.2693   -0.1000 C   0  0  0  0  0  0  0  0  0  0  0  0
    3.5510   -0.2697    0.1000 C   0  0  0  0  0  0  0  0  0  0  0  0
   -2.2272    1.5421    0.7928 C   0  0  0  0  0  0  0  0  0  0  0  0
    2.2252    1.5419   -0.7929 C   0  0  0  0  0  0  0  0  0  0  0  0
   -1.2973    0.0808   -0.8916 C   0  0  0  0  0  0  0  0  0  0  0  0
    1.2951    0.0806    0.8915 C   0  0  0  0  0  0  0  0  0  0  0  0
   -3.4211    0.8214    0.7590 C   0  0  0  0  0  0  0  0  0  0  0  0
    3.4190    0.8211   -0.7591 C   0  0  0  0  0  0  0  0  0  0  0  0
   -2.4913   -0.6398   -0.9254 C   0  0  0  0  0  0  0  0  0  0  0  0
    2.4890   -0.6399    0.9253 C   0  0  0  0  0  0  0  0  0  0  0  0
   -4.7980   -1.0206   -0.1358 C   0  0  0  0  0  0  0  0  0  0  0  0
    4.7957   -1.0210    0.1358 C   0  0  0  0  0  0  0  0  0  0  0  0
   -5.9566   -0.6202    0.7611 C   0  0  0  0  0  0  0  0  0  0  0  0
    5.9544   -0.6208   -0.7612 C   0  0  0  0  0  0  0  0  0  0  0  0
  1  4  1  0
  1  5  1  0
  2 16  2  0
  3 17  2  0
  4  8  2  0
  4 10  1  0
  5  9  2  0
  5 11  1  0
  6 12  2  0
  6 14  1  0
  6 16  1  0
  7 13  2  0
  7 15  1  0
  7 17  1  0
  8 12  1  0
  9 13  1  0
 10 14  2  0
 11 15  2  0
 16 18  1  0
 17 19  1  0
M  END
>  <PUBCHEM_COMPOUND_CID>  (1) 
17471

>  <PUBCHEM_CONFORMER_RMSD>  (1) 
0.6

>  <PUBCHEM_CONFORMER_DIVERSEORDER>  (1) 
1
6
11
19
16
22
9
2
3
17
14
13
7
20
15
4
10
18
12
5
21
8

>  <PUBCHEM_MMFF94_PARTIAL_CHARGES>  (1) 
27
1 -0.17
10 -0.15
11 -0.15
12 -0.15
13 -0.15
14 -0.15
15 -0.15
16 0.42
17 0.42
18 0.06
19 0.06
2 -0.57
20 0.15
21 0.15
22 0.15
23 0.15
24 0.15
25 0.15
26 0.15
27 0.15
3 -0.57
4 0.08
5 0.08
6 0.09
7 0.09
8 -0.15
9 -0.15

>  <PUBCHEM_EFFECTIVE_ROTOR_COUNT>  (1) 
4

>  <PUBCHEM_PHARMACOPHORE_FEATURES>  (1) 
5
1 1 acceptor
1 2 acceptor
1 3 acceptor
6 4 6 8 10 12 14 rings
6 5 7 9 11 13 15 rings

>  <PUBCHEM_HEAVY_ATOM_COUNT>  (1) 
19

>  <PUBCHEM_ATOM_DEF_STEREO_COUNT>  (1) 
0

>  <PUBCHEM_ATOM_UDEF_STEREO_COUNT>  (1) 
0

>  <PUBCHEM_BOND_DEF_STEREO_COUNT>  (1) 
0

>  <PUBCHEM_BOND_UDEF_STEREO_COUNT>  (1) 
0

>  <PUBCHEM_ISOTOPIC_ATOM_COUNT>  (1) 
0

>  <PUBCHEM_COMPONENT_COUNT>  (1) 
1

>  <PUBCHEM_CACTVS_TAUTO_COUNT>  (1) 
3

>  <PUBCHEM_CONFORMER_ID>  (1) 
0000443F00000001

>  <PUBCHEM_MMFF94_ENERGY>  (1) 
64.993

>  <PUBCHEM_FEATURE_SELFOVERLAP>  (1) 
25.373

>  <PUBCHEM_SHAPE_FINGERPRINT>  (1) 
10366900 7 16008748004600553288
10498660 4 12251903681082282422
11046707 91 18341327816586778072
11578080 2 18266435707337979452
11724838 91 10879985874788440357
12236239 1 18410862057208880709
12553582 1 18338783572439215686
12596602 18 16774076305913961499
12633257 1 15769766996245512483
12892183 10 15697729116081099405
13288520 33 18342740697628817901
13533116 47 18410575131913202009
13551218 46 18130791118297892391
13955234 65 18194120943822369968
1420 369 18413669110579033870
14251752 14 18114175294848073621
14350574 20 17894916234575313880
14576447 43 18260547806123410578
15188451 53 16558176233655557151
15238133 3 14404913521604653410
17804303 29 17917710210268148121
17834072 33 18409169930325350396
17857418 61 18411981364467329671
17959699 21 8070021173158132374
1813 80 18261404308153575884
193927 3 18410583885051315267
19422 9 18410859862475317701
19784866 240 18334298660425436397
200 152 18113617876237503497
20028762 73 18059570338497934039
20645477 70 17749388182864062688
20871999 31 15864062148952687765
21267235 1 18410864256221287939
21637258 2 18410564093841995815
22646028 28 18410573989446450913
22950370 63 18410577283686353956
2297311 6 17775294833109853820
23402539 116 18260547767305272004
23402655 69 10881398737949030096
23503953 91 15338831005940584481
23522609 53 18122377693861233316
23559900 14 18042124421964653849
23596394 208 16153698800265373786
2838139 119 11891335374124911606
2871803 45 17603862308168350857
29717793 49 18409448085492691205
3004659 81 18259982686488746781
312423 11 18410022047515931957
314194 84 18260272915189205290
34797466 226 14996295720396901990
351380 3 18410572885640219619
4028521 119 12324241650474451751
42 15 17917993888589214925
4259306 186 18040433278475620818
46194498 28 16660648487775067942
465052 167 18340213006987094319
5104073 3 17702951482286991923
542803 24 8790888488313142437
559249 180 18338233765692258209
57724786 102 13686000043434637282
7970288 3 18410568491889234467

>  <PUBCHEM_SHAPE_MULTIPOLES>  (1) 
373.4
13.23
1.75
1.04
0.04
0.02
0
-7.98
0
0
0
0
-0.09
-1.23

>  <PUBCHEM_SHAPE_SELFOVERLAP>  (1) 
804.464

>  <PUBCHEM_SHAPE_VOLUME>  (1) 
205.8

>  <PUBCHEM_COORDINATE_TYPE>  (1) 
2
5
10

$$$$
