17474
     RDKit          3D

 10 10  0  0  0  0  0  0  0  0999 V2000
    3.8951   -0.6743    0.0000 Br  0  0  0  0  0  0  0  0  0  0  0  0
   -3.1373   -1.1935    0.0001 O   0  0  0  0  0  0  0  0  0  0  0  0
   -1.9798    0.8712   -0.0001 N   0  0  0  0  0  0  0  0  0  0  0  0
   -0.6307    0.5163    0.0000 C   0  0  0  0  0  0  0  0  0  0  0  0
    0.3510    1.5071    0.0000 C   0  0  0  0  0  0  0  0  0  0  0  0
   -0.2636   -0.8295   -0.0001 C   0  0  0  0  0  0  0  0  0  0  0  0
    1.7000    1.1522    0.0000 C   0  0  0  0  0  0  0  0  0  0  0  0
    1.0854   -1.1845    0.0000 C   0  0  0  0  0  0  0  0  0  0  0  0
    2.0673   -0.1936    0.0000 C   0  0  0  0  0  0  0  0  0  0  0  0
   -3.0873    0.0285    0.0000 C   0  0  0  0  0  0  0  0  0  0  0  0
  1  9  1  0
  2 10  2  0
  3  4  1  0
  3 10  1  0
  4  5  2  0
  4  6  1  0
  5  7  1  0
  6  8  2  0
  7  9  2  0
  8  9  1  0
M  END
>  <PUBCHEM_COMPOUND_CID>  (1) 
17474

>  <PUBCHEM_CONFORMER_RMSD>  (1) 
0.4

>  <PUBCHEM_CONFORMER_DIVERSEORDER>  (1) 
1
3
4
2

>  <PUBCHEM_MMFF94_PARTIAL_CHARGES>  (1) 
16
1 -0.11
10 0.57
11 0.15
12 0.15
13 0.15
14 0.15
15 0.37
16 0.06
2 -0.57
3 -0.55
4 0.12
5 -0.15
6 -0.15
7 -0.15
8 -0.15
9 0.11

>  <PUBCHEM_EFFECTIVE_ROTOR_COUNT>  (1) 
2

>  <PUBCHEM_PHARMACOPHORE_FEATURES>  (1) 
4
1 1 hydrophobe
1 2 acceptor
1 3 donor
6 4 5 6 7 8 9 rings

>  <PUBCHEM_HEAVY_ATOM_COUNT>  (1) 
10

>  <PUBCHEM_ATOM_DEF_STEREO_COUNT>  (1) 
0

>  <PUBCHEM_ATOM_UDEF_STEREO_COUNT>  (1) 
0

>  <PUBCHEM_BOND_DEF_STEREO_COUNT>  (1) 
0

>  <PUBCHEM_BOND_UDEF_STEREO_COUNT>  (1) 
0

>  <PUBCHEM_ISOTOPIC_ATOM_COUNT>  (1) 
0

>  <PUBCHEM_COMPONENT_COUNT>  (1) 
1

>  <PUBCHEM_CACTVS_TAUTO_COUNT>  (1) 
2

>  <PUBCHEM_CONFORMER_ID>  (1) 
0000444200000001

>  <PUBCHEM_MMFF94_ENERGY>  (1) 
24.3676

>  <PUBCHEM_FEATURE_SELFOVERLAP>  (1) 
20.297

>  <PUBCHEM_SHAPE_FINGERPRINT>  (1) 
10219947 1 18272932713240221134
10857977 72 18340475703686051600
11062470 55 11097857388975717134
12032990 46 18412549790736200950
12897270 3 18408319982351930493
12932764 1 17313094250879941209
14128692 85 18412266146494901333
14325111 11 18410855485924586176
16945 1 18410575041855941188
193761 8 17834394905809991302
20201158 50 18408603643388113835
20871998 22 18200040525426129614
21040471 1 18194683889348383104
21293036 1 18334863814034638772
23380061 330 18342451547603617094
23402655 69 18123170339530392981
23552423 10 18333453144457592557
2748010 2 18193560197149468334
29004967 10 18412545379461734273
5084963 1 18411138043217192328
8809292 202 18115031912837223563

>  <PUBCHEM_SHAPE_MULTIPOLES>  (1) 
200.89
5.47
1.45
0.61
0.18
0.18
0
-1.67
0
-0.01
0
0.1
0
0

>  <PUBCHEM_SHAPE_SELFOVERLAP>  (1) 
400.364

>  <PUBCHEM_SHAPE_VOLUME>  (1) 
121.7

>  <PUBCHEM_COORDINATE_TYPE>  (1) 
2
5
10

$$$$
