17489
     RDKit          3D

 11 10  0  0  0  0  0  0  0  0999 V2000
    0.9918   -3.8181   -0.1160 Cl  0  0  0  0  0  0  0  0  0  0  0  0
   -4.1402    0.7960   -0.1680 Cl  0  0  0  0  0  0  0  0  0  0  0  0
    2.6331    1.4907   -0.9743 O   0  0  0  0  0  0  0  0  0  0  0  0
    2.0713    1.5401    1.2267 O   0  0  0  0  0  0  0  0  0  0  0  0
   -0.2040    0.0166    0.1815 N   0  0  0  0  0  0  0  0  0  0  0  0
    0.5930   -1.1376   -0.2325 C   0  0  0  0  0  0  0  0  0  0  0  0
   -1.6049   -0.1678   -0.1958 C   0  0  0  0  0  0  0  0  0  0  0  0
    0.3274    1.2436   -0.4106 C   0  0  0  0  0  0  0  0  0  0  0  0
    0.0159   -2.4104    0.3673 C   0  0  0  0  0  0  0  0  0  0  0  0
   -2.4300    1.0216    0.2703 C   0  0  0  0  0  0  0  0  0  0  0  0
    1.7467    1.4253    0.0516 C   0  0  0  0  0  0  0  0  0  0  0  0
  1  9  1  0
  2 10  1  0
  3 11  1  0
  4 11  2  0
  5  6  1  0
  5  7  1  0
  5  8  1  0
  6  9  1  0
  7 10  1  0
  8 11  1  0
M  END
>  <PUBCHEM_COMPOUND_CID>  (1) 
17489

>  <PUBCHEM_CONFORMER_RMSD>  (1) 
0.6

>  <PUBCHEM_CONFORMER_DIVERSEORDER>  (1) 
1
12
58
35
32
13
33
18
10
59
48
15
23
31
37
52
17
21
8
40
50
7
24
11
39
57
51
36
53
9
38
20
16
19
60
41
34
30
46
54
25
6
22
49
44
4
47
28
14
3
27
29
56
26
2
5
45
43
55
42

>  <PUBCHEM_MMFF94_PARTIAL_CHARGES>  (1) 
12
1 -0.29
10 0.29
11 0.66
2 -0.29
22 0.5
3 -0.65
4 -0.57
5 -0.81
6 0.27
7 0.27
8 0.33
9 0.29

>  <PUBCHEM_EFFECTIVE_ROTOR_COUNT>  (1) 
6

>  <PUBCHEM_PHARMACOPHORE_FEATURES>  (1) 
4
1 3 acceptor
1 4 acceptor
1 5 cation
3 3 4 11 anion

>  <PUBCHEM_HEAVY_ATOM_COUNT>  (1) 
11

>  <PUBCHEM_ATOM_DEF_STEREO_COUNT>  (1) 
0

>  <PUBCHEM_ATOM_UDEF_STEREO_COUNT>  (1) 
0

>  <PUBCHEM_BOND_DEF_STEREO_COUNT>  (1) 
0

>  <PUBCHEM_BOND_UDEF_STEREO_COUNT>  (1) 
0

>  <PUBCHEM_ISOTOPIC_ATOM_COUNT>  (1) 
0

>  <PUBCHEM_COMPONENT_COUNT>  (1) 
1

>  <PUBCHEM_CACTVS_TAUTO_COUNT>  (1) 
1

>  <PUBCHEM_CONFORMER_ID>  (1) 
0000445100000001

>  <PUBCHEM_MMFF94_ENERGY>  (1) 
18.1935

>  <PUBCHEM_FEATURE_SELFOVERLAP>  (1) 
20.355

>  <PUBCHEM_SHAPE_FINGERPRINT>  (1) 
1 1 18411133619469254423
13380535 76 18334009519280365971
14817 1 15324851909678672194
18410436 195 17764301748008506055
19021347 4 18266735968648335579
20645477 70 18263637378258285583
20711985 344 17615410698139050422
20871998 22 17834389025810261915
21040471 1 18266177408167327924
23530152 11 18410294756727901775
2748010 2 18336560415905034223
305870 269 18411411804611980921
7364860 26 18269551642044355291
81228 2 17547852309845106531
81539 233 18261108569674714813

>  <PUBCHEM_SHAPE_MULTIPOLES>  (1) 
213.39
4.5
3.55
0.82
6.48
1.77
0.06
0.84
-0.25
-4.59
0.03
-0.26
-0.32
-0.03

>  <PUBCHEM_SHAPE_SELFOVERLAP>  (1) 
380.557

>  <PUBCHEM_SHAPE_VOLUME>  (1) 
141.1

>  <PUBCHEM_COORDINATE_TYPE>  (1) 
2
5
10

$$$$
