17480
     RDKit          3D

 23 24  0  0  0  0  0  0  0  0999 V2000
    0.0870    1.2716   -1.0064 O   0  0  0  0  0  0  0  0  0  0  0  0
    4.5244    0.5127   -0.2013 N   0  0  0  0  0  0  0  0  0  0  0  0
    1.0151    0.6667    1.0302 N   0  0  0  0  0  0  0  0  0  0  0  0
    3.1824    0.0203    0.1077 C   0  0  0  0  0  0  0  0  0  0  0  0
   -1.3478    0.2202    0.6546 C   0  0  0  0  0  0  0  0  0  0  0  0
    2.3481    1.1223    0.7439 C   0  0  0  0  0  0  0  0  0  0  0  0
    5.1898    0.9801    1.0140 C   0  0  0  0  0  0  0  0  0  0  0  0
    5.3162   -0.5333   -0.8476 C   0  0  0  0  0  0  0  0  0  0  0  0
   -0.0284    0.7800    0.1148 C   0  0  0  0  0  0  0  0  0  0  0  0
   -2.5531    1.0034    0.1495 C   0  0  0  0  0  0  0  0  0  0  0  0
   -1.4873   -1.2844    0.4522 C   0  0  0  0  0  0  0  0  0  0  0  0
    6.5625    1.5520    0.7032 C   0  0  0  0  0  0  0  0  0  0  0  0
    4.6394   -1.0314   -2.1133 C   0  0  0  0  0  0  0  0  0  0  0  0
   -3.0009    2.0818    0.8835 C   0  0  0  0  0  0  0  0  0  0  0  0
   -2.2273   -2.0111    1.3606 C   0  0  0  0  0  0  0  0  0  0  0  0
   -3.1580    0.6093   -1.0257 C   0  0  0  0  0  0  0  0  0  0  0  0
   -0.8693   -1.8692   -0.6326 C   0  0  0  0  0  0  0  0  0  0  0  0
   -4.1043    2.7990    0.4211 C   0  0  0  0  0  0  0  0  0  0  0  0
   -2.3552   -3.3877    1.1755 C   0  0  0  0  0  0  0  0  0  0  0  0
   -4.2613    1.3268   -1.4880 C   0  0  0  0  0  0  0  0  0  0  0  0
   -0.9974   -3.2458   -0.8177 C   0  0  0  0  0  0  0  0  0  0  0  0
   -4.7344    2.4216   -0.7646 C   0  0  0  0  0  0  0  0  0  0  0  0
   -1.7403   -4.0050    0.0864 C   0  0  0  0  0  0  0  0  0  0  0  0
  1  9  2  0
  2  4  1  0
  2  7  1  0
  2  8  1  0
  3  6  1  0
  3  9  1  0
  4  6  1  0
  5  9  1  0
  5 10  1  0
  5 11  1  0
  7 12  1  0
  8 13  1  0
 10 14  2  0
 10 16  1  0
 11 15  2  0
 11 17  1  0
 14 18  1  0
 15 19  1  0
 16 20  2  0
 17 21  2  0
 18 22  2  0
 19 23  2  0
 20 22  1  0
 21 23  1  0
M  END
>  <PUBCHEM_COMPOUND_CID>  (1) 
17480

>  <PUBCHEM_CONFORMER_RMSD>  (1) 
1

>  <PUBCHEM_CONFORMER_DIVERSEORDER>  (1) 
1
35
13
51
30
15
32
40
23
46
31
6
34
22
5
33
39
28
44
26
42
41
18
25
8
29
27
21
49
47
16
45
17
7
37
43
48
11
38
3
4
36
19
14
24
9
2
20
12
50
10

>  <PUBCHEM_MMFF94_PARTIAL_CHARGES>  (1) 
32
1 -0.57
10 -0.14
11 -0.14
14 -0.15
15 -0.15
16 -0.15
17 -0.15
18 -0.15
19 -0.15
2 -0.81
20 -0.15
21 -0.15
22 -0.15
23 -0.15
3 -0.73
33 0.37
4 0.27
40 0.15
41 0.15
42 0.15
43 0.15
44 0.15
45 0.15
46 0.15
47 0.15
48 0.15
49 0.15
5 0.35
6 0.3
7 0.27
8 0.27
9 0.57

>  <PUBCHEM_EFFECTIVE_ROTOR_COUNT>  (1) 
9

>  <PUBCHEM_PHARMACOPHORE_FEATURES>  (1) 
5
1 1 acceptor
1 2 cation
1 3 donor
6 10 14 16 18 20 22 rings
6 11 15 17 19 21 23 rings

>  <PUBCHEM_HEAVY_ATOM_COUNT>  (1) 
23

>  <PUBCHEM_ATOM_DEF_STEREO_COUNT>  (1) 
0

>  <PUBCHEM_ATOM_UDEF_STEREO_COUNT>  (1) 
0

>  <PUBCHEM_BOND_DEF_STEREO_COUNT>  (1) 
0

>  <PUBCHEM_BOND_UDEF_STEREO_COUNT>  (1) 
0

>  <PUBCHEM_ISOTOPIC_ATOM_COUNT>  (1) 
0

>  <PUBCHEM_COMPONENT_COUNT>  (1) 
1

>  <PUBCHEM_CACTVS_TAUTO_COUNT>  (1) 
2

>  <PUBCHEM_CONFORMER_ID>  (1) 
0000444800000001

>  <PUBCHEM_MMFF94_ENERGY>  (1) 
53.1118

>  <PUBCHEM_FEATURE_SELFOVERLAP>  (1) 
25.372

>  <PUBCHEM_SHAPE_FINGERPRINT>  (1) 
10366900 7 16845570937925300088
105312 117 18260825964884248181
107951 10 17895486838071513979
12293681 160 17988351560568719601
12643181 29 18337959987798647822
12788726 201 18190161568391658363
13135754 10 17896057575101109051
13257819 101 16879611701920439005
13583140 156 17631731711688068864
14251751 93 18335423512413344394
14790565 3 18122907521063369217
15042514 8 18192157212276925595
15163728 17 17607520237858304845
167882 2 18193552255586607355
17349148 13 13110959847037347480
17980427 23 13262691288308824053
20554085 129 18055325008523550081
20645477 70 17132116793644288316
21424621 283 18269838623085425993
21521239 73 17774427288307289277
22182313 1 18268170711200980415
22849339 104 18338532905426891822
22907989 373 18264778842593729389
23559900 14 18343306951445999640
23598288 3 18042701661242249995
32027 91 18128267697149027462
340366 18 18187939382102997036
3729539 64 17905901283714236614
3759504 43 18408319969503906281
4015057 19 17561075917439317072
4073 2 18411979192189557848
4409770 3 18336538439227546923
474 4 18122617254878934123
497634 4 15141252086433773874
559249 180 18334286553282180202
59755656 215 18412543198515419767
9709674 26 18201438116569107884

>  <PUBCHEM_SHAPE_MULTIPOLES>  (1) 
457.5
12.03
4.06
1.44
21.01
4.22
0.39
-8.54
1.58
-5.67
-0.49
0.35
0.24
2.19

>  <PUBCHEM_SHAPE_SELFOVERLAP>  (1) 
949.416

>  <PUBCHEM_SHAPE_VOLUME>  (1) 
261

>  <PUBCHEM_COORDINATE_TYPE>  (1) 
2
5
10

$$$$
