17481
     RDKit          3D

 16 17  0  0  0  0  0  0  0  0999 V2000
   -1.2728   -0.3344   -0.7517 O   0  0  0  0  0  0  0  0  0  0  0  0
   -1.7510   -0.2497    1.5107 O   0  0  0  0  0  0  0  0  0  0  0  0
   -3.4048    0.3359   -0.0162 N   0  0  0  0  0  0  0  0  0  0  0  0
    1.0337    0.1611   -0.2325 C   0  0  0  0  0  0  0  0  0  0  0  0
    2.3234   -0.3228    0.0921 C   0  0  0  0  0  0  0  0  0  0  0  0
   -0.0119   -0.7543   -0.4360 C   0  0  0  0  0  0  0  0  0  0  0  0
    2.5295   -1.7075    0.2039 C   0  0  0  0  0  0  0  0  0  0  0  0
    0.8276    1.5457   -0.3439 C   0  0  0  0  0  0  0  0  0  0  0  0
    3.3690    0.5923    0.2958 C   0  0  0  0  0  0  0  0  0  0  0  0
    0.2109   -2.1269   -0.3214 C   0  0  0  0  0  0  0  0  0  0  0  0
    1.4792   -2.6026   -0.0018 C   0  0  0  0  0  0  0  0  0  0  0  0
    1.8781    2.4406   -0.1384 C   0  0  0  0  0  0  0  0  0  0  0  0
    3.1465    1.9648    0.1808 C   0  0  0  0  0  0  0  0  0  0  0  0
   -2.1235   -0.0922    0.3486 C   0  0  0  0  0  0  0  0  0  0  0  0
   -4.3981    0.6269    1.0078 C   0  0  0  0  0  0  0  0  0  0  0  0
   -3.8356    0.5231   -1.3978 C   0  0  0  0  0  0  0  0  0  0  0  0
  1  6  1  0
  1 14  1  0
  2 14  2  0
  3 14  1  0
  3 15  1  0
  3 16  1  0
  4  5  1  0
  4  6  2  0
  4  8  1  0
  5  7  2  0
  5  9  1  0
  6 10  1  0
  7 11  1  0
  8 12  2  0
  9 13  2  0
 10 11  2  0
 12 13  1  0
M  END
>  <PUBCHEM_COMPOUND_CID>  (1) 
17481

>  <PUBCHEM_CONFORMER_RMSD>  (1) 
0.6

>  <PUBCHEM_CONFORMER_DIVERSEORDER>  (1) 
1
13
8
12
4
11
17
3
7
15
2
18
10
16
9
14
5
6

>  <PUBCHEM_MMFF94_PARTIAL_CHARGES>  (1) 
21
1 -0.23
10 -0.15
11 -0.15
12 -0.15
13 -0.15
14 0.78
15 0.3
16 0.3
17 0.15
18 0.15
19 0.15
2 -0.57
20 0.15
21 0.15
22 0.15
23 0.15
3 -0.66
6 0.08
7 -0.15
8 -0.15
9 -0.15

>  <PUBCHEM_EFFECTIVE_ROTOR_COUNT>  (1) 
3

>  <PUBCHEM_PHARMACOPHORE_FEATURES>  (1) 
3
1 2 acceptor
6 4 5 6 7 10 11 rings
6 4 5 8 9 12 13 rings

>  <PUBCHEM_HEAVY_ATOM_COUNT>  (1) 
16

>  <PUBCHEM_ATOM_DEF_STEREO_COUNT>  (1) 
0

>  <PUBCHEM_ATOM_UDEF_STEREO_COUNT>  (1) 
0

>  <PUBCHEM_BOND_DEF_STEREO_COUNT>  (1) 
0

>  <PUBCHEM_BOND_UDEF_STEREO_COUNT>  (1) 
0

>  <PUBCHEM_ISOTOPIC_ATOM_COUNT>  (1) 
0

>  <PUBCHEM_COMPONENT_COUNT>  (1) 
1

>  <PUBCHEM_CACTVS_TAUTO_COUNT>  (1) 
1

>  <PUBCHEM_CONFORMER_ID>  (1) 
0000444900000001

>  <PUBCHEM_MMFF94_ENERGY>  (1) 
50.2277

>  <PUBCHEM_FEATURE_SELFOVERLAP>  (1) 
15.249

>  <PUBCHEM_SHAPE_FINGERPRINT>  (1) 
10465860 228 18342183245244085017
10608611 8 18261107444372301157
10967382 1 18410853257147640116
10980938 120 18410007736795034908
11471102 20 18409724045715445916
11471102 22 18334301945964648122
11640471 11 17775297044843795361
11725454 13 17098298074725523031
12236239 1 17704067378824423151
12346645 6 18412262822427532614
12654215 9 18334289830099360900
13134695 92 18191296079127108798
13140716 1 18265889332326712274
14251717 144 18411972551194386527
14790565 3 18337121145978250252
15219456 202 18186799154311315861
15309172 13 18337109072149077308
15442244 35 18052822446706469201
15775835 57 18059578026551930105
15906896 17 17840868800094073518
16945 1 18410856551487821862
1813 80 17555753009713768950
18186145 218 18342741823005097749
19049666 15 17751073613972563597
20510252 161 17405428188053919106
20645477 70 18337379449336581303
21524375 3 18198903797663802836
21639500 275 18339630205256792725
22854114 111 18411703192452227985
23184049 59 18410855434368914036
2334 1 17977944914876034908
23419403 2 17462534266653676566
23557571 272 13973674040911303635
23598291 2 17988354876235375431
25 1 18410294739489678932
2748010 2 18265624362688053214
2838139 119 15553301791953632632
293599 30 18264495151741577900
3060560 45 18272935981800394526
350125 39 17905050600868378768
474 4 18412545439812978465
49207404 50 18189633794050982011
6333272 397 18339643459499552675
633830 44 18130519603413397749
7364860 26 18342179929750930566
77492 1 17703782600970486607
81228 2 17185315340186760770
8272917 22 18341338799139660439
84936 182 18059569238922521800

>  <PUBCHEM_SHAPE_MULTIPOLES>  (1) 
312.55
6.6
2.47
0.98
6.92
0.44
0.04
-2.54
0.67
-2.58
-0.12
0.99
-0.07
-0.01

>  <PUBCHEM_SHAPE_SELFOVERLAP>  (1) 
670.7

>  <PUBCHEM_SHAPE_VOLUME>  (1) 
172.8

>  <PUBCHEM_COORDINATE_TYPE>  (1) 
2
5
10

$$$$
