1749
     RDKit          3D

 33 35  0  0  1  0  0  0  0  0999 V2000
   -4.7520   -2.0582   -0.0681 S   0  0  0  0  0  0  0  0  0  0  0  0
   -2.6465    0.5243   -1.5657 O   0  0  0  0  0  0  0  0  0  0  0  0
   -0.7000   -2.1780    0.8206 O   0  0  0  0  0  0  0  0  0  0  0  0
    4.0320    0.1118    1.0197 N   0  0  0  0  0  0  0  0  0  0  0  0
   -1.8573    0.3259    0.6069 N   0  0  0  0  0  0  0  0  0  0  0  0
    0.5481   -1.5893   -1.0460 N   0  0  0  0  0  0  0  0  0  0  0  0
   -3.3743   -2.3955   -0.6470 N   0  0  0  0  0  0  0  0  0  0  0  0
   -5.2323   -3.2807    0.7208 N   0  0  0  0  0  0  0  0  0  0  0  0
   -4.2399    0.6541    0.2619 C   0  0  0  0  0  0  0  0  0  0  0  0
   -4.3299    1.8821    1.1905 C   0  0  0  0  0  0  0  0  0  0  0  0
   -4.6632   -0.6377    0.9756 C   0  0  0  0  0  0  0  0  0  0  0  0
   -0.4607    0.1698    0.2814 C   0  0  0  0  0  0  0  0  0  0  0  0
   -3.9815    3.2292    0.5187 C   0  0  0  0  0  0  0  0  0  0  0  0
    0.4186    0.7142    1.4130 C   0  0  0  0  0  0  0  0  0  0  0  0
    1.8803    0.7107    1.0916 C   0  0  0  0  0  0  0  0  0  0  0  0
   -2.8465    0.4921   -0.3533 C   0  0  0  0  0  0  0  0  0  0  0  0
    5.2412   -0.6553    1.2612 C   0  0  0  0  0  0  0  0  0  0  0  0
    2.5789    1.6030    0.2159 C   0  0  0  0  0  0  0  0  0  0  0  0
    3.9223    1.2092    0.1919 C   0  0  0  0  0  0  0  0  0  0  0  0
    5.5726   -1.6942    0.1791 C   0  0  0  0  0  0  0  0  0  0  0  0
    2.8200   -0.1658    1.5966 C   0  0  0  0  0  0  0  0  0  0  0  0
    4.5547   -2.8392    0.0836 C   0  0  0  0  0  0  0  0  0  0  0  0
    3.4263   -2.5497   -0.9119 C   0  0  0  0  0  0  0  0  0  0  0  0
   -0.2424   -1.3242    0.0631 C   0  0  0  0  0  0  0  0  0  0  0  0
   -5.0101    3.5392   -0.5732 C   0  0  0  0  0  0  0  0  0  0  0  0
   -2.5766    3.2371   -0.0866 C   0  0  0  0  0  0  0  0  0  0  0  0
    2.1824   -3.3949   -0.6201 C   0  0  0  0  0  0  0  0  0  0  0  0
    0.9660   -2.9310   -1.4223 C   0  0  0  0  0  0  0  0  0  0  0  0
   -5.8884   -1.6483   -1.3501 C   0  0  0  0  0  0  0  0  0  0  0  0
    2.1834    2.7084   -0.5681 C   0  0  0  0  0  0  0  0  0  0  0  0
    4.8800    1.8783   -0.5865 C   0  0  0  0  0  0  0  0  0  0  0  0
    3.1330    3.3818   -1.3427 C   0  0  0  0  0  0  0  0  0  0  0  0
    4.4617    2.9708   -1.3504 C   0  0  0  0  0  0  0  0  0  0  0  0
  1  7  2  0
  1  8  2  0
  1 11  1  0
  1 29  1  0
  2 16  2  0
  3 24  2  0
  4 17  1  0
  4 19  1  0
  4 21  1  0
  5 12  1  0
  5 16  1  0
  6 24  1  0
  6 28  1  0
  9 10  1  0
  9 11  1  0
  9 16  1  0
 10 13  1  0
 12 14  1  0
 12 24  1  0
 13 25  1  0
 13 26  1  0
 14 15  1  0
 15 18  1  0
 15 21  2  0
 17 20  1  0
 18 19  2  0
 18 30  1  0
 19 31  1  0
 20 22  1  0
 22 23  1  0
 23 27  1  0
 27 28  1  0
 30 32  2  0
 31 33  2  0
 32 33  1  0
M  END
>  <PUBCHEM_COMPOUND_CID>  (1) 
1749

>  <PUBCHEM_CONFORMER_RMSD>  (1) 
1

>  <PUBCHEM_CONFORMER_DIVERSEORDER>  (1) 
8
218
60
197
262
207
24
124
196
181
240
130
164
27
199
178
165
271
100
217
182
110
105
112
195
225
216
132
265
268
84
30
53
263
163
50
206
201
78
228
232
224
269
235
44
247
233
246
135
149
242
272
213
91
48
180
104
185
236
122
189
241
214
255
175
88
264
49
162
254
251
67
75
138
42
243
97
223
45
209
74
190
202
59
133
172
115
71
68
257
148
113
161
108
167
139
191
23
152
253
210
203
73
155
194
166
145
159
171
128
177
82
117
118
156
258
85
87
116
144
227
244
208
249
51
69
270
111
56
137
260
226
70
174
176
86
57
157
72
184
127
158
215
29
62
123
212
151
188
58
40
220
205
198
239
150
248
46
170
140
119
96
52
259
103
267
18
231
98
186
192
230
222
183
95
89
83
229
125
266
211
81
28
99
193
2
21
107
92
114
79
106
146
204
34
38
63
261
143
120
131
90
200
76
237
219
65
102
36
66
109
33
179
94
134
20
129
169
121
93
15
250
9
47
64
39
54
238
136
160
126
37
1
168
43
252
141
153
61
147
41
5
142
10
80
187
173
22
7
4
55
234
221
77
3
12
154
26
6
101
32
19
13
35
16
14
256
17
11
245
31
25

>  <PUBCHEM_MMFF94_PARTIAL_CHARGES>  (1) 
33
1 0.97
11 0.11
12 0.36
14 0.18
15 -0.18
16 0.57
17 0.26
19 -0.15
2 -0.57
21 -0.3
24 0.57
28 0.3
29 0.11
3 -0.57
30 -0.15
31 -0.15
32 -0.15
33 -0.15
4 0.05
43 0.37
48 0.15
5 -0.73
6 -0.73
66 0.37
67 0.15
68 0.15
69 0.4
7 -0.99
70 0.4
71 0.15
72 0.15
8 -0.99
9 0.06

>  <PUBCHEM_EFFECTIVE_ROTOR_COUNT>  (1) 
8.8

>  <PUBCHEM_PHARMACOPHORE_FEATURES>  (1) 
8
1 2 acceptor
1 3 acceptor
1 4 cation
1 5 donor
1 6 donor
3 13 25 26 hydrophobe
5 4 15 18 19 21 rings
6 18 19 30 31 32 33 rings

>  <PUBCHEM_HEAVY_ATOM_COUNT>  (1) 
33

>  <PUBCHEM_ATOM_DEF_STEREO_COUNT>  (1) 
0

>  <PUBCHEM_ATOM_UDEF_STEREO_COUNT>  (1) 
2

>  <PUBCHEM_BOND_DEF_STEREO_COUNT>  (1) 
0

>  <PUBCHEM_BOND_UDEF_STEREO_COUNT>  (1) 
0

>  <PUBCHEM_ISOTOPIC_ATOM_COUNT>  (1) 
0

>  <PUBCHEM_COMPONENT_COUNT>  (1) 
1

>  <PUBCHEM_CACTVS_TAUTO_COUNT>  (1) 
4

>  <PUBCHEM_CONFORMER_ID>  (1) 
000006D500000008

>  <PUBCHEM_MMFF94_ENERGY>  (1) 
67.0083

>  <PUBCHEM_FEATURE_SELFOVERLAP>  (1) 
40.684

>  <PUBCHEM_SHAPE_FINGERPRINT>  (1) 
10670039 82 18340211902479314581
11227688 84 18054779861631979511
11513181 2 18336558152452209492
11963148 33 18124027103406466615
12107183 9 18190738622542672672
12422481 6 17910363140955098458
12788726 201 18266458887781787089
13583140 156 17632280277384370993
140371 6 17698736804302605091
14251764 38 18409452487649676307
14347332 77 18341046402256405251
144659 39 17274816922375110071
15021287 119 18187076257122186648
15250474 111 18341609364725840167
15406563 5 18342448219726520149
15664445 248 16109502109579337582
15799311 1 18340785813357788019
17844677 252 18335426750681295017
19301679 30 18337401538907675395
20642791 178 18341620274200962070
23559900 14 18199746942741237867
338550 245 18343299292939413126
3493558 16 18410300189618775569
460360 51 18200890486611395035
46194498 28 18187358865975453774
508706 21 18339355267452616295
59755656 215 18126843798650138152
6086070 43 17751334236518990487

>  <PUBCHEM_SHAPE_MULTIPOLES>  (1) 
646.33
13.8
5.05
1.39
5.31
0.63
0.03
-0.64
0.08
0.79
1.74
-0.34
0.06
-1.13

>  <PUBCHEM_SHAPE_SELFOVERLAP>  (1) 
1322.354

>  <PUBCHEM_SHAPE_VOLUME>  (1) 
375.8

>  <PUBCHEM_COORDINATE_TYPE>  (1) 
2
5
10

$$$$
