17490
     RDKit          3D

 12 11  0  0  0  0  0  0  0  0999 V2000
    3.7629    1.7209   -0.9895 Cl  0  0  0  0  0  0  0  0  0  0  0  0
   -3.7445    1.7367    0.9838 Cl  0  0  0  0  0  0  0  0  0  0  0  0
    3.1141   -1.1479   -0.1123 O   0  0  0  0  0  0  0  0  0  0  0  0
   -3.1151   -1.1435    0.1297 O   0  0  0  0  0  0  0  0  0  0  0  0
    1.2065   -0.1822    0.7921 N   0  0  0  0  0  0  0  0  0  0  0  0
   -1.2182   -0.1845   -0.8004 N   0  0  0  0  0  0  0  0  0  0  0  0
    0.3563   -1.3431    0.6688 C   0  0  0  0  0  0  0  0  0  0  0  0
   -0.3645   -1.3583   -0.6712 C   0  0  0  0  0  0  0  0  0  0  0  0
    2.5299   -0.1868    0.3848 C   0  0  0  0  0  0  0  0  0  0  0  0
   -2.5307   -0.1898   -0.3815 C   0  0  0  0  0  0  0  0  0  0  0  0
    3.2145    1.1403    0.5906 C   0  0  0  0  0  0  0  0  0  0  0  0
   -3.2113    1.1382   -0.5948 C   0  0  0  0  0  0  0  0  0  0  0  0
  1 11  1  0
  2 12  1  0
  3  9  2  0
  4 10  2  0
  5  7  1  0
  5  9  1  0
  6  8  1  0
  6 10  1  0
  7  8  1  0
  9 11  1  0
 10 12  1  0
M  END
>  <PUBCHEM_COMPOUND_CID>  (1) 
17490

>  <PUBCHEM_CONFORMER_RMSD>  (1) 
0.8

>  <PUBCHEM_CONFORMER_DIVERSEORDER>  (1) 
1
41
16
55
45
2
36
24
58
50
37
52
9
8
6
27
34
32
20
22
53
15
54
43
26
25
39
33
29
7
18
28
13
14
10
47
3
4
5
42
57
19
49
56
48
23
17
30
38
46
35
51
40
31
44
11
21
12

>  <PUBCHEM_MMFF94_PARTIAL_CHARGES>  (1) 
14
1 -0.29
10 0.57
11 0.35
12 0.35
17 0.37
18 0.37
2 -0.29
3 -0.57
4 -0.57
5 -0.73
6 -0.73
7 0.3
8 0.3
9 0.57

>  <PUBCHEM_EFFECTIVE_ROTOR_COUNT>  (1) 
7

>  <PUBCHEM_PHARMACOPHORE_FEATURES>  (1) 
4
1 3 acceptor
1 4 acceptor
1 5 donor
1 6 donor

>  <PUBCHEM_HEAVY_ATOM_COUNT>  (1) 
12

>  <PUBCHEM_ATOM_DEF_STEREO_COUNT>  (1) 
0

>  <PUBCHEM_ATOM_UDEF_STEREO_COUNT>  (1) 
0

>  <PUBCHEM_BOND_DEF_STEREO_COUNT>  (1) 
0

>  <PUBCHEM_BOND_UDEF_STEREO_COUNT>  (1) 
0

>  <PUBCHEM_ISOTOPIC_ATOM_COUNT>  (1) 
0

>  <PUBCHEM_COMPONENT_COUNT>  (1) 
1

>  <PUBCHEM_CACTVS_TAUTO_COUNT>  (1) 
3

>  <PUBCHEM_CONFORMER_ID>  (1) 
0000445200000001

>  <PUBCHEM_MMFF94_ENERGY>  (1) 
8.0038

>  <PUBCHEM_FEATURE_SELFOVERLAP>  (1) 
20.299

>  <PUBCHEM_SHAPE_FINGERPRINT>  (1) 
10149128 111 18410854360622075109
10857977 72 14634866427114921295
11715629 250 18128524045770113944
12932764 1 17274812610085584350
13897977 13 18261675960598011269
14123260 362 18271255970798228537
14325111 11 18410568496199311458
15775835 57 18410576188470070244
17834072 32 18121778336034344997
18186145 218 18335137557822394078
19107657 9 18411984658596638288
19422 9 18410571790423357762
201361 129 18264206924395477747
20621476 51 10737280302878853793
20653085 51 18411984654338490546
20671657 1 18261387893131201334
20711983 171 18202563968835807861
22169311 21 9223232927169802542
23380061 81 18335702706878140234
23590187 138 18411990173561753185
9882013 296 15575009419259605613

>  <PUBCHEM_SHAPE_MULTIPOLES>  (1) 
228.99
7.83
1.91
1.04
0.07
0.37
0
4.55
-0.01
-0.02
0
0
0.24
-0.87

>  <PUBCHEM_SHAPE_SELFOVERLAP>  (1) 
413.851

>  <PUBCHEM_SHAPE_VOLUME>  (1) 
147.1

>  <PUBCHEM_COORDINATE_TYPE>  (1) 
2
5
10

$$$$
