17491
     RDKit          3D

 12 12  0  0  0  0  0  0  0  0999 V2000
    4.4462   -0.0012    0.6345 Cl  0  0  0  0  0  0  0  0  0  0  0  0
   -1.2068    0.0017   -0.9531 O   0  0  0  0  0  0  0  0  0  0  0  0
   -1.7911   -0.0041    1.2974 O   0  0  0  0  0  0  0  0  0  0  0  0
   -3.4213    0.0010   -0.3532 N   0  0  0  0  0  0  0  0  0  0  0  0
    0.1035    0.0011   -0.5852 C   0  0  0  0  0  0  0  0  0  0  0  0
    0.7748   -1.2072   -0.3987 C   0  0  0  0  0  0  0  0  0  0  0  0
    0.7750    1.2088   -0.3947 C   0  0  0  0  0  0  0  0  0  0  0  0
    2.1177   -1.2079   -0.0215 C   0  0  0  0  0  0  0  0  0  0  0  0
    2.1180    1.2082   -0.0176 C   0  0  0  0  0  0  0  0  0  0  0  0
    2.7894   -0.0002    0.1691 C   0  0  0  0  0  0  0  0  0  0  0  0
   -2.1239    0.0001    0.1159 C   0  0  0  0  0  0  0  0  0  0  0  0
   -4.5815   -0.0004    0.5071 C   0  0  0  0  0  0  0  0  0  0  0  0
  1 10  1  0
  2  5  1  0
  2 11  1  0
  3 11  2  0
  4 11  1  0
  4 12  1  0
  5  6  2  0
  5  7  1  0
  6  8  1  0
  7  9  2  0
  8 10  2  0
  9 10  1  0
M  END
>  <PUBCHEM_COMPOUND_CID>  (1) 
17491

>  <PUBCHEM_CONFORMER_RMSD>  (1) 
0.6

>  <PUBCHEM_CONFORMER_DIVERSEORDER>  (1) 
1
11
10
6
8
9
7
5
2
3
4

>  <PUBCHEM_MMFF94_PARTIAL_CHARGES>  (1) 
17
1 -0.18
10 0.18
11 0.78
12 0.3
13 0.15
14 0.15
15 0.15
16 0.15
17 0.37
2 -0.23
3 -0.57
4 -0.73
5 0.08
6 -0.15
7 -0.15
8 -0.15
9 -0.15

>  <PUBCHEM_EFFECTIVE_ROTOR_COUNT>  (1) 
3

>  <PUBCHEM_PHARMACOPHORE_FEATURES>  (1) 
3
1 3 acceptor
1 4 donor
6 5 6 7 8 9 10 rings

>  <PUBCHEM_HEAVY_ATOM_COUNT>  (1) 
12

>  <PUBCHEM_ATOM_DEF_STEREO_COUNT>  (1) 
0

>  <PUBCHEM_ATOM_UDEF_STEREO_COUNT>  (1) 
0

>  <PUBCHEM_BOND_DEF_STEREO_COUNT>  (1) 
0

>  <PUBCHEM_BOND_UDEF_STEREO_COUNT>  (1) 
0

>  <PUBCHEM_ISOTOPIC_ATOM_COUNT>  (1) 
0

>  <PUBCHEM_COMPONENT_COUNT>  (1) 
1

>  <PUBCHEM_CACTVS_TAUTO_COUNT>  (1) 
2

>  <PUBCHEM_CONFORMER_ID>  (1) 
0000445300000001

>  <PUBCHEM_MMFF94_ENERGY>  (1) 
27.5561

>  <PUBCHEM_FEATURE_SELFOVERLAP>  (1) 
15.223

>  <PUBCHEM_SHAPE_FINGERPRINT>  (1) 
10219947 1 18410012135089459332
10465860 250 17168135733143497788
11062470 55 18334295357674674415
12251169 10 18410011052388578463
124424 183 17675919897916573121
14252887 29 18409172073804220474
14943859 89 15051728707513166358
15775835 57 17489869344931412153
16945 1 18410851066972665212
20201158 50 17967814929154433770
20279233 1 17821452352407341163
20645477 70 18265884779477327527
20871998 22 18268432322148866142
22485316 2 16588021324890766882
23402539 116 17967523585012673039
26918003 58 18334860528516565243
2748010 2 18051398584018103036
69090 78 18259984907704653515

>  <PUBCHEM_SHAPE_MULTIPOLES>  (1) 
232.1
7.41
1.11
0.89
3.91
0
-0.09
0
-2.14
-0.72
0.11
0.2
0
0

>  <PUBCHEM_SHAPE_SELFOVERLAP>  (1) 
468.45

>  <PUBCHEM_SHAPE_VOLUME>  (1) 
136.7

>  <PUBCHEM_COORDINATE_TYPE>  (1) 
2
5
10

$$$$
