17497
     RDKit          3D

  8  8  0  0  0  0  0  0  0  0999 V2000
   -1.3197    1.3647    0.3050 C   0  0  0  0  0  0  0  0  0  0  0  0
   -2.2115    0.3141   -0.3462 C   0  0  0  0  0  0  0  0  0  0  0  0
    0.1506    1.1478   -0.0657 C   0  0  0  0  0  0  0  0  0  0  0  0
   -1.7979   -1.0964    0.0747 C   0  0  0  0  0  0  0  0  0  0  0  0
    0.5782   -0.2968    0.0101 C   0  0  0  0  0  0  0  0  0  0  0  0
   -0.3109   -1.3019    0.0882 C   0  0  0  0  0  0  0  0  0  0  0  0
    1.9982   -0.5486    0.0049 C   0  0  0  0  0  0  0  0  0  0  0  0
    2.9129    0.4170   -0.0710 C   0  0  0  0  0  0  0  0  0  0  0  0
  1  2  1  0
  1  3  1  0
  2  4  1  0
  3  5  1  0
  4  6  1  0
  5  6  2  0
  5  7  1  0
  7  8  2  0
M  END
>  <PUBCHEM_COMPOUND_CID>  (1) 
17497

>  <PUBCHEM_CONFORMER_RMSD>  (1) 
0.4

>  <PUBCHEM_CONFORMER_DIVERSEORDER>  (1) 
1

>  <PUBCHEM_MMFF94_PARTIAL_CHARGES>  (1) 
10
17 0.15
18 0.15
19 0.15
20 0.15
3 0.14
4 0.14
5 -0.14
6 -0.29
7 -0.15
8 -0.3

>  <PUBCHEM_EFFECTIVE_ROTOR_COUNT>  (1) 
1.8

>  <PUBCHEM_PHARMACOPHORE_FEATURES>  (1) 
2
1 8 hydrophobe
6 1 2 3 4 5 6 rings

>  <PUBCHEM_HEAVY_ATOM_COUNT>  (1) 
8

>  <PUBCHEM_ATOM_DEF_STEREO_COUNT>  (1) 
0

>  <PUBCHEM_ATOM_UDEF_STEREO_COUNT>  (1) 
0

>  <PUBCHEM_BOND_DEF_STEREO_COUNT>  (1) 
0

>  <PUBCHEM_BOND_UDEF_STEREO_COUNT>  (1) 
0

>  <PUBCHEM_ISOTOPIC_ATOM_COUNT>  (1) 
0

>  <PUBCHEM_COMPONENT_COUNT>  (1) 
1

>  <PUBCHEM_CACTVS_TAUTO_COUNT>  (1) 
1

>  <PUBCHEM_CONFORMER_ID>  (1) 
0000445900000001

>  <PUBCHEM_MMFF94_ENERGY>  (1) 
4.2864

>  <PUBCHEM_FEATURE_SELFOVERLAP>  (1) 
10.148

>  <PUBCHEM_SHAPE_FINGERPRINT>  (1) 
10857977 72 18339913930664387272
12897270 3 18413389834688654980
14325111 11 18410573951092464588
14390081 3 18342735217556503336
16714656 1 18411982459557207719
18185500 45 18334856121241887183
21040471 1 18266741268505882592
23235685 24 18411133598216132713
23552423 10 18261115127963506334
29004967 10 16128374865628978982
369184 2 16298383565355270320
5084963 1 18270676442302192832

>  <PUBCHEM_SHAPE_MULTIPOLES>  (1) 
164.64
3.47
1.46
0.65
1.74
0.06
0
0.19
-0.19
-0.5
0.08
-0.05
0.02
-0.03

>  <PUBCHEM_SHAPE_SELFOVERLAP>  (1) 
322.993

>  <PUBCHEM_SHAPE_VOLUME>  (1) 
96.9

>  <PUBCHEM_COORDINATE_TYPE>  (1) 
2
5
10

$$$$
