17495
     RDKit          3D

 14 14  0  0  0  0  0  0  0  0999 V2000
   -0.9700    3.1179   -0.0011 Cl  0  0  0  0  0  0  0  0  0  0  0  0
   -3.1598   -2.7230    0.0004 Cl  0  0  0  0  0  0  0  0  0  0  0  0
    2.9432    0.2468   -0.0001 O   0  0  0  0  0  0  0  0  0  0  0  0
    1.5807   -1.5901   -0.0005 O   0  0  0  0  0  0  0  0  0  0  0  0
    0.7194    0.5907    0.0003 N   0  0  0  0  0  0  0  0  0  0  0  0
   -0.6664    0.4052    0.0003 C   0  0  0  0  0  0  0  0  0  0  0  0
   -1.5449    1.4888    0.0010 C   0  0  0  0  0  0  0  0  0  0  0  0
   -1.1656   -0.8973   -0.0006 C   0  0  0  0  0  0  0  0  0  0  0  0
   -2.5433   -1.1162   -0.0006 C   0  0  0  0  0  0  0  0  0  0  0  0
   -2.9225    1.2697    0.0007 C   0  0  0  0  0  0  0  0  0  0  0  0
    4.0865   -0.6160    0.0002 C   0  0  0  0  0  0  0  0  0  0  0  0
   -3.4216   -0.0328    0.0001 C   0  0  0  0  0  0  0  0  0  0  0  0
    1.7220   -0.3733   -0.0004 C   0  0  0  0  0  0  0  0  0  0  0  0
    5.3422    0.2296    0.0005 C   0  0  0  0  0  0  0  0  0  0  0  0
  1  7  1  0
  2  9  1  0
  3 11  1  0
  3 13  1  0
  4 13  2  0
  5  6  1  0
  5 13  1  0
  6  7  2  0
  6  8  1  0
  7 10  1  0
  8  9  2  0
  9 12  1  0
 10 12  2  0
 11 14  1  0
M  END
>  <PUBCHEM_COMPOUND_CID>  (1) 
17495

>  <PUBCHEM_CONFORMER_RMSD>  (1) 
0.6

>  <PUBCHEM_CONFORMER_DIVERSEORDER>  (1) 
1
19
15
10
16
6
18
14
13
7
17
5
20
9
11
4
8
12
2
22
3
21

>  <PUBCHEM_MMFF94_PARTIAL_CHARGES>  (1) 
17
1 -0.18
10 -0.15
11 0.28
12 -0.15
13 0.78
15 0.15
16 0.37
17 0.15
2 -0.18
20 0.15
3 -0.43
4 -0.57
5 -0.55
6 0.12
7 0.18
8 -0.15
9 0.18

>  <PUBCHEM_EFFECTIVE_ROTOR_COUNT>  (1) 
4

>  <PUBCHEM_PHARMACOPHORE_FEATURES>  (1) 
3
1 4 acceptor
1 5 donor
6 6 7 8 9 10 12 rings

>  <PUBCHEM_HEAVY_ATOM_COUNT>  (1) 
14

>  <PUBCHEM_ATOM_DEF_STEREO_COUNT>  (1) 
0

>  <PUBCHEM_ATOM_UDEF_STEREO_COUNT>  (1) 
0

>  <PUBCHEM_BOND_DEF_STEREO_COUNT>  (1) 
0

>  <PUBCHEM_BOND_UDEF_STEREO_COUNT>  (1) 
0

>  <PUBCHEM_ISOTOPIC_ATOM_COUNT>  (1) 
0

>  <PUBCHEM_COMPONENT_COUNT>  (1) 
1

>  <PUBCHEM_CACTVS_TAUTO_COUNT>  (1) 
2

>  <PUBCHEM_CONFORMER_ID>  (1) 
0000445700000001

>  <PUBCHEM_MMFF94_ENERGY>  (1) 
29.8855

>  <PUBCHEM_FEATURE_SELFOVERLAP>  (1) 
15.223

>  <PUBCHEM_SHAPE_FINGERPRINT>  (1) 
10608611 8 18269552750246163928
10616163 171 18411139134408411006
10680689 15 18336838515401167810
11680986 33 18125428955288118009
12173636 292 18122063091954269213
12757275 245 18410013268623689475
13024252 1 16805328773498891417
13214271 11 18343298180088819687
15669948 3 18337944615065943555
16945 1 18410575037882753249
20510252 161 18127129676126823401
20645477 56 18338239236958828077
20645477 70 16772956883619109318
20871998 184 18202003239744618607
20871999 31 18335688447913759055
21061003 4 17203889690588217243
21339142 51 18409442596735619693
21650355 55 18410854382418541601
22213442 358 18339360889321869289
2297311 6 18342471334976762452
2306618 200 18201444635912881793
23402539 116 18334851740633948622
23557571 272 18201163173958398060
23559900 14 18270115704842666678
2748010 2 18268698588572417909
3312278 4 18409448081134465539
4214541 1 18338798901894802912
5104073 3 18413106143909993850
5493415 88 18267865167300843761
573450 72 18188478091592821762
58051976 378 18412544280419657118
7364860 26 17908142427861304905
8809292 202 18335422404179861091
9709674 26 18270966730615618342

>  <PUBCHEM_SHAPE_MULTIPOLES>  (1) 
275.13
8.02
2.65
0.6
12.16
0.86
0
-2.36
0
-2.91
0
-0.05
0.01
0

>  <PUBCHEM_SHAPE_SELFOVERLAP>  (1) 
545.923

>  <PUBCHEM_SHAPE_VOLUME>  (1) 
164.7

>  <PUBCHEM_COORDINATE_TYPE>  (1) 
2
5
10

$$$$
