17509
     RDKit          3D

 38 37  0  0  1  0  0  0  0  0999 V2000
    2.2734   -0.2852   -0.2185 S   0  0  0  0  0  0  0  0  0  0  0  0
    7.3095    1.6517   -0.8642 S   0  0  0  0  0  0  0  0  0  0  0  0
   -0.3151   -0.9644   -1.7124 F   0  0  0  0  0  0  0  0  0  0  0  0
   -1.4442   -2.7708   -1.2904 F   0  0  0  0  0  0  0  0  0  0  0  0
   -0.1011   -3.2341    0.9564 F   0  0  0  0  0  0  0  0  0  0  0  0
    1.1260   -3.0682   -0.8277 F   0  0  0  0  0  0  0  0  0  0  0  0
   -2.2996   -1.7735    1.0863 F   0  0  0  0  0  0  0  0  0  0  0  0
   -1.1499    0.0509    0.7997 F   0  0  0  0  0  0  0  0  0  0  0  0
    2.2107   -2.2225    1.4979 F   0  0  0  0  0  0  0  0  0  0  0  0
    0.6570   -0.7306    1.7647 F   0  0  0  0  0  0  0  0  0  0  0  0
   -3.6252   -1.3728   -1.2249 F   0  0  0  0  0  0  0  0  0  0  0  0
   -2.4894    0.4430   -1.6190 F   0  0  0  0  0  0  0  0  0  0  0  0
   -4.4814   -0.3789    1.1693 F   0  0  0  0  0  0  0  0  0  0  0  0
   -3.3294    1.4458    0.8689 F   0  0  0  0  0  0  0  0  0  0  0  0
   -5.8164    0.0211   -1.1455 F   0  0  0  0  0  0  0  0  0  0  0  0
   -4.6873    1.8380   -1.5438 F   0  0  0  0  0  0  0  0  0  0  0  0
   -6.7309    1.0545    1.2131 F   0  0  0  0  0  0  0  0  0  0  0  0
   -7.1271    2.3124   -0.5240 F   0  0  0  0  0  0  0  0  0  0  0  0
   -5.5796    2.8822    0.8928 F   0  0  0  0  0  0  0  0  0  0  0  0
    2.7845   -1.0277   -1.3553 O   0  0  0  0  0  0  0  0  0  0  0  0
    1.4628    0.9000   -0.4277 O   0  0  0  0  0  0  0  0  0  0  0  0
    6.1897    0.9551    0.1011 O   0  0  0  0  0  0  0  0  0  0  0  0
    7.6029    3.0832   -0.1389 O   0  0  0  0  0  0  0  0  0  0  0  0
    6.7127    1.9217   -2.1590 O   0  0  0  0  0  0  0  0  0  0  0  0
    8.5209    0.8582   -0.7710 O   0  0  0  0  0  0  0  0  0  0  0  0
    3.5831    0.1310    0.8113 N   0  0  0  0  0  0  0  0  0  0  0  0
   -0.7834   -1.7330   -0.6991 C   0  0  0  0  0  0  0  0  0  0  0  0
    0.3950   -2.3323    0.0584 C   0  0  0  0  0  0  0  0  0  0  0  0
   -1.7867   -0.9447    0.1324 C   0  0  0  0  0  0  0  0  0  0  0  0
    1.3459   -1.4173    0.8167 C   0  0  0  0  0  0  0  0  0  0  0  0
   -2.9683   -0.3425   -0.6201 C   0  0  0  0  0  0  0  0  0  0  0  0
   -3.9708    0.4454    0.2114 C   0  0  0  0  0  0  0  0  0  0  0  0
    4.7420   -0.7915    0.8839 C   0  0  0  0  0  0  0  0  0  0  0  0
   -5.1490    1.0455   -0.5417 C   0  0  0  0  0  0  0  0  0  0  0  0
    3.2967    0.7802    2.1134 C   0  0  0  0  0  0  0  0  0  0  0  0
    5.7817   -0.3847   -0.1444 C   0  0  0  0  0  0  0  0  0  0  0  0
   -6.1481    1.8280    0.2735 C   0  0  0  0  0  0  0  0  0  0  0  0
    3.9883    2.1270    2.1766 C   0  0  0  0  0  0  0  0  0  0  0  0
  1 20  2  0
  1 21  2  0
  1 26  1  0
  1 30  1  0
  2 22  1  0
  2 23  1  0
  2 24  2  0
  2 25  2  0
  3 27  1  0
  4 27  1  0
  5 28  1  0
  6 28  1  0
  7 29  1  0
  8 29  1  0
  9 30  1  0
 10 30  1  0
 11 31  1  0
 12 31  1  0
 13 32  1  0
 14 32  1  0
 15 34  1  0
 16 34  1  0
 17 37  1  0
 18 37  1  0
 19 37  1  0
 22 36  1  0
 26 33  1  0
 26 35  1  0
 27 28  1  0
 27 29  1  0
 28 30  1  0
 29 31  1  0
 31 32  1  0
 32 34  1  0
 33 36  1  0
 34 37  1  0
 35 38  1  0
M  END
>  <PUBCHEM_COMPOUND_CID>  (1) 
17509

>  <PUBCHEM_CONFORMER_RMSD>  (1) 
1.6

>  <PUBCHEM_CONFORMER_DIVERSEORDER>  (1) 
1
8
30
68
54
33
63
35
56
17
25
29
61
64
2
9
69
58
52
43
15
18
49
10
37
44
7
38
12
42
60
36
46
20
39
66
27
26
34
5
55
22
51
45
3
70
47
16
67
19
71
65
21
28
6
50
23
41
53
59
57
14
24
11
31
32
40
62
48
4
13

>  <PUBCHEM_MMFF94_PARTIAL_CHARGES>  (1) 
38
1 1.33
10 -0.34
11 -0.34
12 -0.34
13 -0.34
14 -0.34
15 -0.34
16 -0.34
17 -0.34
18 -0.34
19 -0.34
2 1.67
20 -0.65
21 -0.65
22 -0.46
23 -0.68
24 -0.65
25 -0.65
26 -0.85
27 0.68
28 0.68
29 0.68
3 -0.34
30 0.79
31 0.68
32 0.68
33 0.36
34 0.68
35 0.36
36 0.28
37 1.02
4 -0.34
48 0.5
5 -0.34
6 -0.34
7 -0.34
8 -0.34
9 -0.34

>  <PUBCHEM_EFFECTIVE_ROTOR_COUNT>  (1) 
14

>  <PUBCHEM_PHARMACOPHORE_FEATURES>  (1) 
6
1 20 acceptor
1 21 acceptor
1 23 acceptor
1 24 acceptor
1 25 acceptor
4 2 23 24 25 anion

>  <PUBCHEM_HEAVY_ATOM_COUNT>  (1) 
38

>  <PUBCHEM_ATOM_DEF_STEREO_COUNT>  (1) 
0

>  <PUBCHEM_ATOM_UDEF_STEREO_COUNT>  (1) 
0

>  <PUBCHEM_BOND_DEF_STEREO_COUNT>  (1) 
0

>  <PUBCHEM_BOND_UDEF_STEREO_COUNT>  (1) 
0

>  <PUBCHEM_ISOTOPIC_ATOM_COUNT>  (1) 
0

>  <PUBCHEM_COMPONENT_COUNT>  (1) 
1

>  <PUBCHEM_CACTVS_TAUTO_COUNT>  (1) 
1

>  <PUBCHEM_CONFORMER_ID>  (1) 
0000446500000001

>  <PUBCHEM_MMFF94_ENERGY>  (1) 
34.3586

>  <PUBCHEM_FEATURE_SELFOVERLAP>  (1) 
30.525

>  <PUBCHEM_SHAPE_FINGERPRINT>  (1) 
10 15 17530966877717208656
10369192 42 18409451396896593751
10906281 52 18409737231075211970
11007060 377 18265895941859686642
1200032 147 18187367623598516832
12596602 18 17095241427952636712
12633257 1 17095525093462667339
13782708 43 11599714078184682905
13885169 86 18186525436109293756
14068700 675 8934998178878871598
14251757 52 18260548931384171804
14840074 17 18187640301775712860
14931854 50 17632580413930939216
15064981 194 17703232922766826761
15183329 4 17561085804722609074
15198563 99 17842540015425464071
15510800 12 9655295990230087020
15840311 113 18113339678827118854
16126227 98 18335706073763365060
17349148 13 13696167137588999963
1813 80 9367061207204286891
18393751 57 17821729424953129971
19958102 18 14620799305999450060
20105231 36 12895057554381702061
2026 5 10879723069850774748
20691028 202 18335138739355580140
21033648 144 18260542304222832135
21033648 29 18340195397489065624
21223535 225 16701477687904530928
21315764 119 15195283122962766244
21424621 283 18409451384249016274
21637258 2 9511458918355070886
21756936 100 18261956344336874886
23559900 14 17345752018863916834
2838139 119 18059563668666072809
3004659 81 13830132771977133180
38570 142 18272932721629682810
4058900 60 18339929220664201802
406291 66 10663828455820725772
4340502 62 14995999948344280360
439807 62 11167939164823957993
474113 269 8358259207500264369
50009960 94 10954324985313859225
5718773 13 10015865375429814940
59682541 52 16988570052942550622
6328613 192 18410576232295468972
9689198 14 18040723567347520160

>  <PUBCHEM_SHAPE_MULTIPOLES>  (1) 
625.87
19.48
3.04
1.71
11.55
0.45
-0.18
-20.14
4.38
-0.19
-0.07
1.12
-0.31
-0.93

>  <PUBCHEM_SHAPE_SELFOVERLAP>  (1) 
1290.471

>  <PUBCHEM_SHAPE_VOLUME>  (1) 
359.7

>  <PUBCHEM_COORDINATE_TYPE>  (1) 
2
5
10

$$$$
