17502
     RDKit          3D

 12 13  0  0  0  0  0  0  0  0999 V2000
    1.4754    1.3106    0.0000 N   0  0  0  0  0  0  0  0  0  0  0  0
    0.1742   -0.7178    0.0000 C   0  0  0  0  0  0  0  0  0  0  0  0
    0.2810    0.6888   -0.0001 C   0  0  0  0  0  0  0  0  0  0  0  0
   -1.0889   -1.3336    0.0001 C   0  0  0  0  0  0  0  0  0  0  0  0
   -0.8943    1.4348    0.0000 C   0  0  0  0  0  0  0  0  0  0  0  0
   -2.2480   -0.5631    0.0001 C   0  0  0  0  0  0  0  0  0  0  0  0
   -2.1502    0.8228    0.0000 C   0  0  0  0  0  0  0  0  0  0  0  0
    1.3571   -1.4693    0.0000 C   0  0  0  0  0  0  0  0  0  0  0  0
   -1.2479   -2.8218   -0.0002 C   0  0  0  0  0  0  0  0  0  0  0  0
   -0.8409    2.9314    0.0000 C   0  0  0  0  0  0  0  0  0  0  0  0
    2.5892   -0.8315    0.0000 C   0  0  0  0  0  0  0  0  0  0  0  0
    2.5932    0.5487    0.0000 C   0  0  0  0  0  0  0  0  0  0  0  0
  1  3  2  0
  1 12  1  0
  2  3  1  0
  2  4  1  0
  2  8  2  0
  3  5  1  0
  4  6  2  0
  4  9  1  0
  5  7  2  0
  5 10  1  0
  6  7  1  0
  8 11  1  0
 11 12  2  0
M  END
>  <PUBCHEM_COMPOUND_CID>  (1) 
17502

>  <PUBCHEM_CONFORMER_RMSD>  (1) 
0.4

>  <PUBCHEM_CONFORMER_DIVERSEORDER>  (1) 
1

>  <PUBCHEM_MMFF94_PARTIAL_CHARGES>  (1) 
16
1 -0.62
10 0.14
11 -0.15
12 0.16
13 0.15
14 0.15
15 0.15
22 0.15
23 0.15
3 0.31
4 -0.14
5 -0.14
6 -0.15
7 -0.15
8 -0.15
9 0.14

>  <PUBCHEM_EFFECTIVE_ROTOR_COUNT>  (1) 
0

>  <PUBCHEM_PHARMACOPHORE_FEATURES>  (1) 
3
1 1 acceptor
6 1 2 3 8 11 12 rings
6 2 3 4 5 6 7 rings

>  <PUBCHEM_HEAVY_ATOM_COUNT>  (1) 
12

>  <PUBCHEM_ATOM_DEF_STEREO_COUNT>  (1) 
0

>  <PUBCHEM_ATOM_UDEF_STEREO_COUNT>  (1) 
0

>  <PUBCHEM_BOND_DEF_STEREO_COUNT>  (1) 
0

>  <PUBCHEM_BOND_UDEF_STEREO_COUNT>  (1) 
0

>  <PUBCHEM_ISOTOPIC_ATOM_COUNT>  (1) 
0

>  <PUBCHEM_COMPONENT_COUNT>  (1) 
1

>  <PUBCHEM_CACTVS_TAUTO_COUNT>  (1) 
1

>  <PUBCHEM_CONFORMER_ID>  (1) 
0000445E00000001

>  <PUBCHEM_MMFF94_ENERGY>  (1) 
37.4481

>  <PUBCHEM_FEATURE_SELFOVERLAP>  (1) 
15.254

>  <PUBCHEM_SHAPE_FINGERPRINT>  (1) 
10967382 1 18338799030068595079
11206711 2 18266178331416388069
12423570 1 10686735495629918802
12524768 44 18342462568421198343
13380535 76 17759799248019539257
16945 1 18410575067678421030
193761 8 15888559675935882592
20510252 161 18200028426440037912
20871998 184 18272936063056567727
21040471 1 18194683653267424740
2334 1 18050286165486172354
23402539 116 18271511057627520623
23552423 10 18116996787249442198
23559900 14 18271534101076467190
241688 4 18266457787774124843
2748010 2 18196087978597545454
5084963 1 17986947449353187315
528886 8 18411695521419149867
66348 1 18410855421473469127

>  <PUBCHEM_SHAPE_MULTIPOLES>  (1) 
241.97
3.25
2.89
0.61
1.42
0.13
0
-0.16
0
-1.28
0
-0.01
0.01
0

>  <PUBCHEM_SHAPE_SELFOVERLAP>  (1) 
528.771

>  <PUBCHEM_SHAPE_VOLUME>  (1) 
132.3

>  <PUBCHEM_COORDINATE_TYPE>  (1) 
2
5
10

$$$$
