17519
     RDKit          3D

 17 17  0  0  1  0  0  0  0  0999 V2000
   -1.3013   -3.1907    0.6342 Cl  0  0  0  0  0  0  0  0  0  0  0  0
   -2.4333    2.8570   -0.4244 Cl  0  0  0  0  0  0  0  0  0  0  0  0
   -4.8628    0.7375   -0.1394 Cl  0  0  0  0  0  0  0  0  0  0  0  0
    1.9083   -0.1205   -2.3484 S   0  0  0  0  0  0  0  0  0  0  0  0
    2.0128   -0.3269   -0.4118 P   0  0  0  0  0  0  0  0  0  0  0  0
    0.7362   -1.0017    0.3253 O   0  0  0  0  0  0  0  0  0  0  0  0
    2.2416    1.0204    0.4711 O   0  0  0  0  0  0  0  0  0  0  0  0
    3.2236   -1.2666    0.1388 O   0  0  0  0  0  0  0  0  0  0  0  0
   -0.5693   -0.6040    0.2185 C   0  0  0  0  0  0  0  0  0  0  0  0
    3.2942    1.9097    0.1390 C   0  0  0  0  0  0  0  0  0  0  0  0
   -1.6112   -1.5190    0.3417 C   0  0  0  0  0  0  0  0  0  0  0  0
   -0.8380    0.7415   -0.0176 C   0  0  0  0  0  0  0  0  0  0  0  0
   -2.1589    1.1753   -0.1313 C   0  0  0  0  0  0  0  0  0  0  0  0
   -2.9321   -1.0852    0.2279 C   0  0  0  0  0  0  0  0  0  0  0  0
    3.2838    3.0707    1.1104 C   0  0  0  0  0  0  0  0  0  0  0  0
   -3.2058    0.2618   -0.0084 C   0  0  0  0  0  0  0  0  0  0  0  0
    3.2122   -2.6593   -0.1259 C   0  0  0  0  0  0  0  0  0  0  0  0
  1 11  1  0
  2 13  1  0
  3 16  1  0
  4  5  2  0
  5  6  1  0
  5  7  1  0
  5  8  1  0
  6  9  1  0
  7 10  1  0
  8 17  1  0
  9 11  2  0
  9 12  1  0
 10 15  1  0
 11 14  1  0
 12 13  2  0
 13 16  1  0
 14 16  2  0
M  END
>  <PUBCHEM_COMPOUND_CID>  (1) 
17519

>  <PUBCHEM_CONFORMER_RMSD>  (1) 
0.6

>  <PUBCHEM_CONFORMER_DIVERSEORDER>  (1) 
1
44
71
40
16
29
69
30
47
76
41
27
46
31
68
38
32
20
23
18
66
62
72
59
21
60
63
22
57
45
75
2
12
43
17
74
73
28
19
52
11
33
35
37
13
61
64
24
53
34
7
42
54
39
3
36
6
50
26
14
67
9
65
5
70
25
56
51
49
48
10
15
58
55
4
8

>  <PUBCHEM_MMFF94_PARTIAL_CHARGES>  (1) 
18
1 -0.18
10 0.28
11 0.18
12 -0.15
13 0.18
14 -0.15
16 0.18
17 0.28
2 -0.18
20 0.15
24 0.15
3 -0.18
4 -0.68
5 1.49
6 -0.35
7 -0.55
8 -0.55
9 0.08

>  <PUBCHEM_EFFECTIVE_ROTOR_COUNT>  (1) 
5

>  <PUBCHEM_PHARMACOPHORE_FEATURES>  (1) 
1
6 9 11 12 13 14 16 rings

>  <PUBCHEM_HEAVY_ATOM_COUNT>  (1) 
17

>  <PUBCHEM_ATOM_DEF_STEREO_COUNT>  (1) 
0

>  <PUBCHEM_ATOM_UDEF_STEREO_COUNT>  (1) 
1

>  <PUBCHEM_BOND_DEF_STEREO_COUNT>  (1) 
0

>  <PUBCHEM_BOND_UDEF_STEREO_COUNT>  (1) 
0

>  <PUBCHEM_ISOTOPIC_ATOM_COUNT>  (1) 
0

>  <PUBCHEM_COMPONENT_COUNT>  (1) 
1

>  <PUBCHEM_CACTVS_TAUTO_COUNT>  (1) 
1

>  <PUBCHEM_CONFORMER_ID>  (1) 
0000446F00000001

>  <PUBCHEM_MMFF94_ENERGY>  (1) 
28.9938

>  <PUBCHEM_FEATURE_SELFOVERLAP>  (1) 
5.074

>  <PUBCHEM_SHAPE_FINGERPRINT>  (1) 
10608611 8 18411134744814236240
12173636 292 18335137583882270605
12403259 226 18192147101269425517
12403260 363 18339350852051844339
12500047 106 18334860536668994070
12553582 1 17468500538531608155
12633257 1 18262499473464306792
13140716 1 18409175394109411163
14178342 30 18043530731712076938
15295992 7 18337404733650609097
16945 1 18189910888097733751
17802600 8 18335981948297881133
17804303 29 18191310381579304798
18186145 218 18272097041437692097
19786989 88 17632583776752778996
20510252 161 18411420631181283129
20645476 183 17823440308233181335
20645477 56 18334575767536522929
20645477 70 17917717911001825540
21524375 3 18116720604015500387
23402539 116 18339353068540065975
23557571 272 18195260037609464373
23559900 14 18413384328741333922
2748010 2 18194979645291871543
3286 77 18336827463986137348
350125 39 18263087617390002213
5104073 3 18408606968056493403
633830 44 18202005374712610117
7364860 26 18412544302005302074
81228 2 18115317816004032243
9709674 26 18412265055737310046

>  <PUBCHEM_SHAPE_MULTIPOLES>  (1) 
345.55
7.38
3.56
1.16
1.62
0.02
0.76
2.52
-0.23
-1.56
-1.02
-1
0.16
1.4

>  <PUBCHEM_SHAPE_SELFOVERLAP>  (1) 
646.98

>  <PUBCHEM_SHAPE_VOLUME>  (1) 
220.2

>  <PUBCHEM_COORDINATE_TYPE>  (1) 
2
5
10

$$$$
