17531
     RDKit          3D

 21 22  0  0  0  0  0  0  0  0999 V2000
   -1.4847    0.1700   -1.0863 S   0  0  0  0  0  0  0  0  0  0  0  0
   -4.7998   -0.3610   -2.1370 S   0  0  0  0  0  0  0  0  0  0  0  0
   -3.5476   -0.1095   -0.6475 P   0  0  0  0  0  0  0  0  0  0  0  0
   -3.9934    1.1187    0.3359 O   0  0  0  0  0  0  0  0  0  0  0  0
   -3.6431   -1.3208    0.4471 O   0  0  0  0  0  0  0  0  0  0  0  0
    1.2920   -1.9545    0.1064 O   0  0  0  0  0  0  0  0  0  0  0  0
    0.7848    0.3016    0.3440 N   0  0  0  0  0  0  0  0  0  0  0  0
    1.2041    1.6027    0.3879 N   0  0  0  0  0  0  0  0  0  0  0  0
    2.4068    1.9172    0.2604 N   0  0  0  0  0  0  0  0  0  0  0  0
   -0.6474    0.1203    0.5095 C   0  0  0  0  0  0  0  0  0  0  0  0
    3.0469   -0.4281    0.0028 C   0  0  0  0  0  0  0  0  0  0  0  0
    1.6344   -0.7769    0.1540 C   0  0  0  0  0  0  0  0  0  0  0  0
    3.3688    0.9210    0.0646 C   0  0  0  0  0  0  0  0  0  0  0  0
    4.0278   -1.4049   -0.1950 C   0  0  0  0  0  0  0  0  0  0  0  0
    4.7109    1.2937   -0.0761 C   0  0  0  0  0  0  0  0  0  0  0  0
   -4.0702    2.4442   -0.1620 C   0  0  0  0  0  0  0  0  0  0  0  0
   -3.3384   -2.6534    0.0700 C   0  0  0  0  0  0  0  0  0  0  0  0
    5.3595   -1.0196   -0.3336 C   0  0  0  0  0  0  0  0  0  0  0  0
    5.7018    0.3296   -0.2744 C   0  0  0  0  0  0  0  0  0  0  0  0
   -4.5037    3.3669    0.9572 C   0  0  0  0  0  0  0  0  0  0  0  0
   -3.5095   -3.5573    1.2722 C   0  0  0  0  0  0  0  0  0  0  0  0
  1  3  1  0
  1 10  1  0
  2  3  2  0
  3  4  1  0
  3  5  1  0
  4 16  1  0
  5 17  1  0
  6 12  2  0
  7  8  1  0
  7 10  1  0
  7 12  1  0
  8  9  2  0
  9 13  1  0
 11 12  1  0
 11 13  2  0
 11 14  1  0
 13 15  1  0
 14 18  2  0
 15 19  2  0
 16 20  1  0
 17 21  1  0
 18 19  1  0
M  END
>  <PUBCHEM_COMPOUND_CID>  (1) 
17531

>  <PUBCHEM_CONFORMER_RMSD>  (1) 
0.8

>  <PUBCHEM_CONFORMER_DIVERSEORDER>  (1) 
1
40
36
35
28
30
17
34
27
20
10
47
16
23
37
48
13
5
21
25
32
33
39
46
18
38
6
26
14
42
9
15
24
41
11
3
19
8
4
2
7
44
12
22
31
43
29
45

>  <PUBCHEM_MMFF94_PARTIAL_CHARGES>  (1) 
23
1 -0.48
10 0.53
11 0.09
12 0.54
13 0.18
14 -0.15
15 -0.15
16 0.28
17 0.28
18 -0.15
19 -0.15
2 -0.68
24 0.15
25 0.15
3 1.47
30 0.15
31 0.15
4 -0.55
5 -0.55
6 -0.57
7 -0.3
8 -0.06
9 -0.18

>  <PUBCHEM_EFFECTIVE_ROTOR_COUNT>  (1) 
7

>  <PUBCHEM_PHARMACOPHORE_FEATURES>  (1) 
3
1 6 acceptor
6 11 13 14 15 18 19 rings
6 7 8 9 11 12 13 rings

>  <PUBCHEM_HEAVY_ATOM_COUNT>  (1) 
21

>  <PUBCHEM_ATOM_DEF_STEREO_COUNT>  (1) 
0

>  <PUBCHEM_ATOM_UDEF_STEREO_COUNT>  (1) 
0

>  <PUBCHEM_BOND_DEF_STEREO_COUNT>  (1) 
0

>  <PUBCHEM_BOND_UDEF_STEREO_COUNT>  (1) 
0

>  <PUBCHEM_ISOTOPIC_ATOM_COUNT>  (1) 
0

>  <PUBCHEM_COMPONENT_COUNT>  (1) 
1

>  <PUBCHEM_CACTVS_TAUTO_COUNT>  (1) 
1

>  <PUBCHEM_CONFORMER_ID>  (1) 
0000447B00000001

>  <PUBCHEM_MMFF94_ENERGY>  (1) 
37.695

>  <PUBCHEM_FEATURE_SELFOVERLAP>  (1) 
15.254

>  <PUBCHEM_SHAPE_FINGERPRINT>  (1) 
10366900 7 18270667762563697135
11014199 57 18189058762444552341
11036077 51 18410577241601779635
11370993 144 18336831875118211631
11405975 8 18408321073141781082
11552529 35 18336542841231447719
12107183 9 17693938497278558843
12236239 1 17846776291697281972
12596602 18 15051442859943770174
12788726 201 17629762279871879233
14251757 5 18341049623260708305
14341114 176 18336270127903066141
15196674 1 18411138048097481578
15788980 27 17775846817647466420
17349148 13 12679171739082979893
17844677 252 18339650030820822356
200 152 18060135453018880298
21709351 56 18342172250254713452
221357 26 18271519892528027591
221490 88 18337956821605449042
23402539 116 18343298137498096076
23402655 69 18342737373619744244
23559900 14 18265321975615733513
4073 2 18408325501596000018
4214541 1 18411419501272554985
5104073 3 18410569591927506784
543358 83 18339643313634091024
59755656 520 18261390015092984989
90127 26 17989202672482836240

>  <PUBCHEM_SHAPE_MULTIPOLES>  (1) 
411.17
13.45
3.27
1.14
6.24
0.43
0.42
-1.51
1.84
-5.52
-1.61
-1.91
0.22
0.11

>  <PUBCHEM_SHAPE_SELFOVERLAP>  (1) 
802.855

>  <PUBCHEM_SHAPE_VOLUME>  (1) 
251

>  <PUBCHEM_COORDINATE_TYPE>  (1) 
2
5
10

$$$$
