17544
     RDKit          3D

 14 13  0  0  0  0  0  0  0  0999 V2000
   -2.0470   -1.0865   -1.2887 O   0  0  0  0  0  0  0  0  0  0  0  0
    0.1972   -0.0299   -0.1352 N   0  0  0  0  0  0  0  0  0  0  0  0
   -2.3994   -2.3919    0.5999 N   0  0  0  0  0  0  0  0  0  0  0  0
   -3.7065   -2.6765    0.2600 N   0  0  0  0  0  0  0  0  0  0  0  0
    1.5422    0.2436    0.3566 C   0  0  0  0  0  0  0  0  0  0  0  0
   -0.7388    0.9975    0.3251 C   0  0  0  0  0  0  0  0  0  0  0  0
    2.5306   -0.7766   -0.2058 C   0  0  0  0  0  0  0  0  0  0  0  0
   -0.2913    2.3768   -0.1555 C   0  0  0  0  0  0  0  0  0  0  0  0
   -0.2504   -1.3548    0.2977 C   0  0  0  0  0  0  0  0  0  0  0  0
    3.9526   -0.4949    0.2809 C   0  0  0  0  0  0  0  0  0  0  0  0
   -1.2677    3.4633    0.2968 C   0  0  0  0  0  0  0  0  0  0  0  0
   -1.6477   -1.5866   -0.2384 C   0  0  0  0  0  0  0  0  0  0  0  0
    4.9368   -1.5270   -0.2460 C   0  0  0  0  0  0  0  0  0  0  0  0
   -0.8106    4.8436   -0.1475 C   0  0  0  0  0  0  0  0  0  0  0  0
  1 12  2  0
  2  5  1  0
  2  6  1  0
  2  9  1  0
  3  4  1  0
  3 12  1  0
  5  7  1  0
  6  8  1  0
  7 10  1  0
  8 11  1  0
  9 12  1  0
 10 13  1  0
 11 14  1  0
M  END
>  <PUBCHEM_COMPOUND_CID>  (1) 
17544

>  <PUBCHEM_CONFORMER_RMSD>  (1) 
0.8

>  <PUBCHEM_CONFORMER_DIVERSEORDER>  (1) 
2
40
20
9
12
18
47
21
15
19
3
28
46
10
24
16
48
32
22
50
35
25
13
53
11
27
34
39
45
54
33
51
6
17
49
44
4
1
36
52
29
26
30
5
14
42
43
31
41
23
37
38
8
7

>  <PUBCHEM_MMFF94_PARTIAL_CHARGES>  (1) 
11
1 -0.57
12 0.57
2 -0.81
3 -0.42
35 0.37
36 0.36
37 0.36
4 -0.73
5 0.27
6 0.27
9 0.33

>  <PUBCHEM_EFFECTIVE_ROTOR_COUNT>  (1) 
9

>  <PUBCHEM_PHARMACOPHORE_FEATURES>  (1) 
6
1 1 acceptor
1 13 hydrophobe
1 14 hydrophobe
1 2 cation
1 3 donor
1 4 donor

>  <PUBCHEM_HEAVY_ATOM_COUNT>  (1) 
14

>  <PUBCHEM_ATOM_DEF_STEREO_COUNT>  (1) 
0

>  <PUBCHEM_ATOM_UDEF_STEREO_COUNT>  (1) 
0

>  <PUBCHEM_BOND_DEF_STEREO_COUNT>  (1) 
0

>  <PUBCHEM_BOND_UDEF_STEREO_COUNT>  (1) 
0

>  <PUBCHEM_ISOTOPIC_ATOM_COUNT>  (1) 
0

>  <PUBCHEM_COMPONENT_COUNT>  (1) 
1

>  <PUBCHEM_CACTVS_TAUTO_COUNT>  (1) 
2

>  <PUBCHEM_CONFORMER_ID>  (1) 
0000448800000002

>  <PUBCHEM_MMFF94_ENERGY>  (1) 
16.6473

>  <PUBCHEM_FEATURE_SELFOVERLAP>  (1) 
31.954

>  <PUBCHEM_SHAPE_FINGERPRINT>  (1) 
1 1 17113257741806373388
11357001 24 18337394837893062410
11833330 49 18408599253847271352
12500047 106 18052534371050469378
12532896 13 17907859496552830684
136203 1 18338517439191181696
13955234 65 17617385421112551747
14123255 52 17762616188426026388
14178000 22 17905322932092071696
15042514 8 18338243665243696609
17539 30 18341321202426540476
18785283 64 17324925253540121505
19021347 4 17978229352968924480
20097449 115 18340205322678477170
20524608 308 18197215850232025966
20671657 1 17690287431337403455
20671657 53 18268717284243427563
20711985 344 18266723732318002010
21041028 32 18338521957855336485
21296965 67 18339078310375442602
21426921 1 18338520738380127494
21499 59 17617653255099264484
21524375 3 17621588420110149212
22713019 5 18054477301995278029
23558518 356 18261117327434771754
23559900 14 17769929092524671802
2748010 2 18197195130819400497
3071541 12 17690285227976781185
3091708 16 9134123020260804488
621550 5 17749955604047608343
68521 5 18410857646461824254
7364860 26 17762056948901758057
77188 2 18266462181525830708
81228 2 18339348691414652640
81539 233 17255684088617616356

>  <PUBCHEM_SHAPE_MULTIPOLES>  (1) 
267.3
6.25
5.1
0.76
11.37
0.96
-0.09
1.59
-0.22
-8.92
0.17
-0.13
-0.17
0.13

>  <PUBCHEM_SHAPE_SELFOVERLAP>  (1) 
492.612

>  <PUBCHEM_SHAPE_VOLUME>  (1) 
170.2

>  <PUBCHEM_COORDINATE_TYPE>  (1) 
2
5
10

$$$$
