17543
     RDKit          3D

 12 11  0  0  0  0  0  0  0  0999 V2000
   -1.6040   -0.1623    1.3722 O   0  0  0  0  0  0  0  0  0  0  0  0
    0.8904   -0.1253    0.2592 N   0  0  0  0  0  0  0  0  0  0  0  0
   -2.5307   -0.6108   -0.7099 N   0  0  0  0  0  0  0  0  0  0  0  0
   -3.8150   -0.3278   -0.2906 N   0  0  0  0  0  0  0  0  0  0  0  0
    0.6748    1.3164    0.1166 C   0  0  0  0  0  0  0  0  0  0  0  0
    2.2098   -0.4933   -0.2602 C   0  0  0  0  0  0  0  0  0  0  0  0
   -0.1573   -0.8723   -0.4220 C   0  0  0  0  0  0  0  0  0  0  0  0
   -0.6700    1.7125    0.7195 C   0  0  0  0  0  0  0  0  0  0  0  0
    0.7472    1.6971   -1.3588 C   0  0  0  0  0  0  0  0  0  0  0  0
    2.4645   -1.9831   -0.0498 C   0  0  0  0  0  0  0  0  0  0  0  0
    3.2794    0.3483    0.4286 C   0  0  0  0  0  0  0  0  0  0  0  0
   -1.4891   -0.4995    0.1950 C   0  0  0  0  0  0  0  0  0  0  0  0
  1 12  2  0
  2  5  1  0
  2  6  1  0
  2  7  1  0
  3  4  1  0
  3 12  1  0
  5  8  1  0
  5  9  1  0
  6 10  1  0
  6 11  1  0
  7 12  1  0
M  END
>  <PUBCHEM_COMPOUND_CID>  (1) 
17543

>  <PUBCHEM_CONFORMER_RMSD>  (1) 
0.6

>  <PUBCHEM_CONFORMER_DIVERSEORDER>  (1) 
1
5
6
2
3
4

>  <PUBCHEM_MMFF94_PARTIAL_CHARGES>  (1) 
11
1 -0.57
12 0.57
2 -0.81
29 0.37
3 -0.42
30 0.36
31 0.36
4 -0.73
5 0.27
6 0.27
7 0.33

>  <PUBCHEM_EFFECTIVE_ROTOR_COUNT>  (1) 
5

>  <PUBCHEM_PHARMACOPHORE_FEATURES>  (1) 
6
1 1 acceptor
1 2 cation
1 3 donor
1 4 donor
3 5 8 9 hydrophobe
3 6 10 11 hydrophobe

>  <PUBCHEM_HEAVY_ATOM_COUNT>  (1) 
12

>  <PUBCHEM_ATOM_DEF_STEREO_COUNT>  (1) 
0

>  <PUBCHEM_ATOM_UDEF_STEREO_COUNT>  (1) 
0

>  <PUBCHEM_BOND_DEF_STEREO_COUNT>  (1) 
0

>  <PUBCHEM_BOND_UDEF_STEREO_COUNT>  (1) 
0

>  <PUBCHEM_ISOTOPIC_ATOM_COUNT>  (1) 
0

>  <PUBCHEM_COMPONENT_COUNT>  (1) 
1

>  <PUBCHEM_CACTVS_TAUTO_COUNT>  (1) 
2

>  <PUBCHEM_CONFORMER_ID>  (1) 
0000448700000001

>  <PUBCHEM_MMFF94_ENERGY>  (1) 
63.0594

>  <PUBCHEM_FEATURE_SELFOVERLAP>  (1) 
31.954

>  <PUBCHEM_SHAPE_FINGERPRINT>  (1) 
10219947 1 18344145899295966151
11062470 55 18410568509073436491
12423570 1 9744356470807962804
13839132 238 15194187962094273673
14128692 85 18129936909542600927
14648413 74 17460320077546751349
14993402 34 18202002161385833502
16945 1 18338528524739110304
18175812 5 12319450030514395167
20201158 50 18260264165850322962
20653085 51 7997675541580801060
20711985 344 17680144080231133588
21501502 16 18196375819132526650
23552423 10 18263372395381121310
241688 4 18118124667299771136
2748010 2 16248574232770764774
29004967 10 18113907073855335378
8030462 33 18337124371139148750
81228 2 17896602773954740852

>  <PUBCHEM_SHAPE_MULTIPOLES>  (1) 
226.14
4.54
1.79
1.01
1.51
0.29
0.04
-1.66
0.01
-0.73
0.2
0.17
0.3
-0.2

>  <PUBCHEM_SHAPE_SELFOVERLAP>  (1) 
434.286

>  <PUBCHEM_SHAPE_VOLUME>  (1) 
140.4

>  <PUBCHEM_COORDINATE_TYPE>  (1) 
2
5
10

$$$$
