17546
     RDKit          3D

 16 15  0  0  0  0  0  0  0  0999 V2000
   -0.7352    2.3621   -1.3788 O   0  0  0  0  0  0  0  0  0  0  0  0
    0.0553    0.3245    0.2728 N   0  0  0  0  0  0  0  0  0  0  0  0
   -0.9982    3.7537    0.4622 N   0  0  0  0  0  0  0  0  0  0  0  0
   -1.7092    4.6983   -0.2501 N   0  0  0  0  0  0  0  0  0  0  0  0
   -1.2231   -0.2088    0.7285 C   0  0  0  0  0  0  0  0  0  0  0  0
    1.1604   -0.5116    0.7449 C   0  0  0  0  0  0  0  0  0  0  0  0
   -1.6478   -1.3879   -0.1451 C   0  0  0  0  0  0  0  0  0  0  0  0
    2.3766   -0.3467   -0.1649 C   0  0  0  0  0  0  0  0  0  0  0  0
   -2.9987   -1.9499    0.3028 C   0  0  0  0  0  0  0  0  0  0  0  0
    3.5377   -1.2291    0.2985 C   0  0  0  0  0  0  0  0  0  0  0  0
    0.2310    1.7039    0.7305 C   0  0  0  0  0  0  0  0  0  0  0  0
   -3.4103   -3.1523   -0.5464 C   0  0  0  0  0  0  0  0  0  0  0  0
    4.7682   -1.0404   -0.5884 C   0  0  0  0  0  0  0  0  0  0  0  0
   -0.5521    2.6169   -0.1897 C   0  0  0  0  0  0  0  0  0  0  0  0
   -4.7677   -3.6928   -0.1257 C   0  0  0  0  0  0  0  0  0  0  0  0
    5.9132   -1.9400   -0.1512 C   0  0  0  0  0  0  0  0  0  0  0  0
  1 14  2  0
  2  5  1  0
  2  6  1  0
  2 11  1  0
  3  4  1  0
  3 14  1  0
  5  7  1  0
  6  8  1  0
  7  9  1  0
  8 10  1  0
  9 12  1  0
 10 13  1  0
 11 14  1  0
 12 15  1  0
 13 16  1  0
M  END
>  <PUBCHEM_COMPOUND_CID>  (1) 
17546

>  <PUBCHEM_CONFORMER_RMSD>  (1) 
1.2

>  <PUBCHEM_CONFORMER_DIVERSEORDER>  (1) 
1
35
5
17
14
25
29
40
39
3
9
31
36
28
18
30
10
4
19
23
6
37
22
41
12
21
32
33
16
26
38
24
2
20
34
7
15
42
13
8
27
11

>  <PUBCHEM_MMFF94_PARTIAL_CHARGES>  (1) 
11
1 -0.57
11 0.33
14 0.57
2 -0.81
3 -0.42
4 -0.73
41 0.37
42 0.36
43 0.36
5 0.27
6 0.27

>  <PUBCHEM_EFFECTIVE_ROTOR_COUNT>  (1) 
11

>  <PUBCHEM_PHARMACOPHORE_FEATURES>  (1) 
6
1 1 acceptor
1 15 hydrophobe
1 16 hydrophobe
1 2 cation
1 3 donor
1 4 donor

>  <PUBCHEM_HEAVY_ATOM_COUNT>  (1) 
16

>  <PUBCHEM_ATOM_DEF_STEREO_COUNT>  (1) 
0

>  <PUBCHEM_ATOM_UDEF_STEREO_COUNT>  (1) 
0

>  <PUBCHEM_BOND_DEF_STEREO_COUNT>  (1) 
0

>  <PUBCHEM_BOND_UDEF_STEREO_COUNT>  (1) 
0

>  <PUBCHEM_ISOTOPIC_ATOM_COUNT>  (1) 
0

>  <PUBCHEM_COMPONENT_COUNT>  (1) 
1

>  <PUBCHEM_CACTVS_TAUTO_COUNT>  (1) 
2

>  <PUBCHEM_CONFORMER_ID>  (1) 
0000448A00000001

>  <PUBCHEM_MMFF94_ENERGY>  (1) 
10.4559

>  <PUBCHEM_FEATURE_SELFOVERLAP>  (1) 
31.954

>  <PUBCHEM_SHAPE_FINGERPRINT>  (1) 
11056379 131 18339654339174381838
12788726 201 18261668156389487283
12841375 25 18339641260286860730
13955234 65 17619073175898521459
14178000 15 18124878112683636065
14178000 29 18268710691468894471
14251757 5 18335974273507665847
17539 30 18339637854366654471
1813 80 18199766888559298302
20286276 3 17761213611274663595
20388580 30 18196376046317952519
20645477 70 17832413568957373635
20671657 53 18268996564666092115
21202864 24 18197231251752998753
21339142 126 18337963285351946610
21426921 1 18338800005664656650
2255824 54 17764310935023004743
22849341 161 18266761227904982795
23557571 272 18129101118045223636
23598288 3 18117301180350966284
283562 15 18334293154636644010
3057174 1 17400351257247152973
4409770 3 18264767658546505773
458136 41 17188133392852829241
57262259 84 18335697234815693815
58779409 54 18337382734717303166
68521 5 18410293584090839234
7364860 26 17762335112732964187
77188 2 18339362001607863085
81228 2 18261391113697570192

>  <PUBCHEM_SHAPE_MULTIPOLES>  (1) 
308.46
9.18
5.7
0.87
8.1
7.39
-0.07
-15.94
-1.38
-6.06
-0.87
-0.01
0.2
0.02

>  <PUBCHEM_SHAPE_SELFOVERLAP>  (1) 
566.081

>  <PUBCHEM_SHAPE_VOLUME>  (1) 
196.9

>  <PUBCHEM_COORDINATE_TYPE>  (1) 
2
5
10

$$$$
