17553
     RDKit          3D

 15 15  0  0  0  0  0  0  0  0999 V2000
    1.2967    3.7522    0.1521 I   0  0  0  0  0  0  0  0  0  0  0  0
    2.9484    0.9633    0.3651 O   0  0  0  0  0  0  0  0  0  0  0  0
   -4.6183   -0.5513   -0.0344 O   0  0  0  0  0  0  0  0  0  0  0  0
   -2.9331   -0.3070    1.4672 O   0  0  0  0  0  0  0  0  0  0  0  0
    1.7229   -2.8617   -0.1262 O   0  0  0  0  0  0  0  0  0  0  0  0
    3.3342   -1.4377    0.3158 O   0  0  0  0  0  0  0  0  0  0  0  0
    2.1394   -1.6900    0.0324 N   0  0  0  0  0  0  0  0  0  0  0  0
   -1.0184    0.1578   -0.5769 C   0  0  0  0  0  0  0  0  0  0  0  0
   -2.4414   -0.1372   -0.9119 C   0  0  0  0  0  0  0  0  0  0  0  0
   -0.1051   -0.8863   -0.4302 C   0  0  0  0  0  0  0  0  0  0  0  0
    1.2253   -0.6101   -0.1145 C   0  0  0  0  0  0  0  0  0  0  0  0
   -0.6012    1.4780   -0.4080 C   0  0  0  0  0  0  0  0  0  0  0  0
    1.6424    0.7102    0.0545 C   0  0  0  0  0  0  0  0  0  0  0  0
    0.7291    1.7543   -0.0922 C   0  0  0  0  0  0  0  0  0  0  0  0
   -3.3208   -0.3343    0.3072 C   0  0  0  0  0  0  0  0  0  0  0  0
  1 14  1  0
  2 13  1  0
  3 15  1  0
  4 15  2  0
  5  7  1  0
  6  7  2  0
  7 11  1  0
  8  9  1  0
  8 10  2  0
  8 12  1  0
  9 15  1  0
 10 11  1  0
 11 13  2  0
 12 14  2  0
 13 14  1  0
M  CHG  2   5  -1   7   1
M  END
>  <PUBCHEM_COMPOUND_CID>  (1) 
17553

>  <PUBCHEM_CONFORMER_RMSD>  (1) 
0.6

>  <PUBCHEM_CONFORMER_DIVERSEORDER>  (1) 
1
5
4
2
3
6

>  <PUBCHEM_MMFF94_PARTIAL_CHARGES>  (1) 
19
1 -0.08
10 -0.15
11 0.13
12 -0.15
13 0.08
14 0.08
15 0.66
18 0.15
19 0.15
2 -0.53
20 0.45
21 0.5
3 -0.65
4 -0.57
5 -0.52
6 -0.52
7 0.91
8 -0.14
9 0.2

>  <PUBCHEM_EFFECTIVE_ROTOR_COUNT>  (1) 
3

>  <PUBCHEM_PHARMACOPHORE_FEATURES>  (1) 
9
1 1 hydrophobe
1 2 donor
1 3 acceptor
1 4 acceptor
1 5 acceptor
1 5 anion
1 6 acceptor
3 3 4 15 anion
6 8 10 11 12 13 14 rings

>  <PUBCHEM_HEAVY_ATOM_COUNT>  (1) 
15

>  <PUBCHEM_ATOM_DEF_STEREO_COUNT>  (1) 
0

>  <PUBCHEM_ATOM_UDEF_STEREO_COUNT>  (1) 
0

>  <PUBCHEM_BOND_DEF_STEREO_COUNT>  (1) 
0

>  <PUBCHEM_BOND_UDEF_STEREO_COUNT>  (1) 
0

>  <PUBCHEM_ISOTOPIC_ATOM_COUNT>  (1) 
0

>  <PUBCHEM_COMPONENT_COUNT>  (1) 
1

>  <PUBCHEM_CACTVS_TAUTO_COUNT>  (1) 
4

>  <PUBCHEM_CONFORMER_ID>  (1) 
0000449100000001

>  <PUBCHEM_MMFF94_ENERGY>  (1) 
39.3211

>  <PUBCHEM_FEATURE_SELFOVERLAP>  (1) 
45.811

>  <PUBCHEM_SHAPE_FINGERPRINT>  (1) 
108231 29 18334014960576818098
10980938 120 18412265068500256101
11471102 20 18410287038613349909
11471102 22 18335426811016597857
12346645 6 18341049708927477781
13140716 1 18049714423819430224
13380536 305 18267026252830031668
14251717 144 18410852204854447751
14790565 3 18265906928518833676
15501101 241 18333450958445930717
16945 1 18338790225422873588
17841504 4 18409451371300973273
193761 8 17545592818140509516
19591789 44 17832150794040656492
201361 129 18198636603770453561
20645477 70 18261943167872641375
20671657 1 18268998759130344116
20871998 22 18198628730910595414
21041028 32 18339361855515846904
21061003 4 18408322168263567245
21524375 3 17697320977018722765
2255824 54 18341333408649820541
2334 1 17617652602237432996
23526113 38 17972569179205577581
2748010 2 18196354953939108644
3091708 16 9213756271042069072
31174 14 18335983146820564613
458136 41 18046924941107711469
54173680 148 17762335821202270356
58807428 26 17979613956447980616
7364860 26 18338797922020157132
77492 1 17703790370750908909
81228 2 17688858753447911804
8272917 22 18411705421830411605

>  <PUBCHEM_SHAPE_MULTIPOLES>  (1) 
286.3
5.47
3.34
0.85
6.13
1.2
-0.1
-0.37
-1.03
-4.31
-0.11
0.47
0.11
0.01

>  <PUBCHEM_SHAPE_SELFOVERLAP>  (1) 
581.732

>  <PUBCHEM_SHAPE_VOLUME>  (1) 
170.5

>  <PUBCHEM_COORDINATE_TYPE>  (1) 
2
5
10

$$$$
