17558
     RDKit          3D

 35 39  0  0  1  0  0  0  0  0999 V2000
   -4.2035    3.5257    0.8302 O   0  0  0  0  0  0  0  0  0  0  0  0
   -6.3963    2.7287   -0.6762 O   0  0  0  0  0  0  0  0  0  0  0  0
    5.4552    2.0870    1.8321 O   0  0  0  0  0  0  0  0  0  0  0  0
    7.1034    1.7169   -0.3720 O   0  0  0  0  0  0  0  0  0  0  0  0
   -2.6182   -2.3997    0.2440 N   0  0  0  0  0  0  0  0  0  0  0  0
    1.5842   -1.4158   -1.4317 N   0  0  0  0  0  0  0  0  0  0  0  0
   -2.4797   -1.0956    0.9256 C   0  0  0  0  0  0  0  0  0  0  0  0
   -1.0307   -0.6100    0.6818 C   0  0  0  0  0  0  0  0  0  0  0  0
    0.0327   -1.6684    0.9042 C   0  0  0  0  0  0  0  0  0  0  0  0
   -1.7514   -3.4060    0.8753 C   0  0  0  0  0  0  0  0  0  0  0  0
   -0.3088   -2.9682    1.0324 C   0  0  0  0  0  0  0  0  0  0  0  0
   -4.0110   -2.8525    0.2252 C   0  0  0  0  0  0  0  0  0  0  0  0
   -3.5137   -0.0647    0.4798 C   0  0  0  0  0  0  0  0  0  0  0  0
    1.4343   -1.1265    0.9610 C   0  0  0  0  0  0  0  0  0  0  0  0
   -4.8363   -1.9058   -0.6433 C   0  0  0  0  0  0  0  0  0  0  0  0
    1.8253   -0.4373   -0.3529 C   0  0  0  0  0  0  0  0  0  0  0  0
   -4.6518   -0.4655   -0.2462 C   0  0  0  0  0  0  0  0  0  0  0  0
    0.6421   -4.0914    1.3419 C   0  0  0  0  0  0  0  0  0  0  0  0
    3.2429    0.1207   -0.3413 C   0  0  0  0  0  0  0  0  0  0  0  0
   -3.3950    1.2856    0.8490 C   0  0  0  0  0  0  0  0  0  0  0  0
   -5.6049    0.4848   -0.6417 C   0  0  0  0  0  0  0  0  0  0  0  0
    2.0734   -0.9134   -2.7130 C   0  0  0  0  0  0  0  0  0  0  0  0
    4.0723   -0.0246   -1.4722 C   0  0  0  0  0  0  0  0  0  0  0  0
    3.5938   -0.7856   -2.6820 C   0  0  0  0  0  0  0  0  0  0  0  0
   -4.3550    2.2225    0.4624 C   0  0  0  0  0  0  0  0  0  0  0  0
    1.2135   -4.7001    0.0783 C   0  0  0  0  0  0  0  0  0  0  0  0
   -5.4558    1.8237   -0.2883 C   0  0  0  0  0  0  0  0  0  0  0  0
    3.7254    0.8551    0.7541 C   0  0  0  0  0  0  0  0  0  0  0  0
    5.3718    0.5035   -1.4639 C   0  0  0  0  0  0  0  0  0  0  0  0
    5.0159    1.3877    0.7483 C   0  0  0  0  0  0  0  0  0  0  0  0
    5.8410    1.2064   -0.3569 C   0  0  0  0  0  0  0  0  0  0  0  0
   -3.4842    4.3719   -0.0644 C   0  0  0  0  0  0  0  0  0  0  0  0
   -7.4932    2.2360   -1.4437 C   0  0  0  0  0  0  0  0  0  0  0  0
    5.2155    3.4928    1.8365 C   0  0  0  0  0  0  0  0  0  0  0  0
    8.1465    0.8819    0.1276 C   0  0  0  0  0  0  0  0  0  0  0  0
  1 25  1  0
  1 32  1  0
  2 27  1  0
  2 33  1  0
  3 30  1  0
  3 34  1  0
  4 31  1  0
  4 35  1  0
  5  7  1  0
  5 10  1  0
  5 12  1  0
  6 16  1  0
  6 22  1  0
  7  8  1  0
  7 13  1  0
  8  9  1  0
  9 11  2  0
  9 14  1  0
 10 11  1  0
 11 18  1  0
 12 15  1  0
 13 17  2  0
 13 20  1  0
 14 16  1  0
 15 17  1  0
 16 19  1  0
 17 21  1  0
 18 26  1  0
 19 23  2  0
 19 28  1  0
 20 25  2  0
 21 27  2  0
 22 24  1  0
 23 24  1  0
 23 29  1  0
 25 27  1  0
 28 30  2  0
 29 31  2  0
 30 31  1  0
M  END
>  <PUBCHEM_COMPOUND_CID>  (1) 
17558

>  <PUBCHEM_CONFORMER_RMSD>  (1) 
1

>  <PUBCHEM_CONFORMER_DIVERSEORDER>  (1) 
1
55
60
64
24
54
8
74
51
38
49
17
66
77
52
75
83
68
28
78
70
40
85
44
30
79
69
23
84
31
82
58
22
42
76
80
53
41
59
71
7
63
50
32
33
9
39
35
29
73
46
20
6
65
27
56
72
19
47
62
21
45
18
34
14
61
13
81
12
3
43
2
67
5
16
37
57
25
48
11
15
26
36
4
10

>  <PUBCHEM_MMFF94_PARTIAL_CHARGES>  (1) 
39
1 -0.36
10 0.41
11 -0.28
12 0.27
13 -0.14
14 0.14
15 0.14
16 0.41
17 -0.14
18 0.14
19 -0.14
2 -0.36
20 -0.15
21 -0.15
22 0.27
23 -0.14
24 0.14
25 0.08
27 0.08
28 -0.15
29 -0.15
3 -0.36
30 0.08
31 0.08
32 0.28
33 0.28
34 0.28
35 0.28
4 -0.36
5 -0.81
50 0.15
51 0.36
52 0.15
6 -0.9
60 0.15
61 0.15
7 0.41
8 0.14
9 -0.28

>  <PUBCHEM_EFFECTIVE_ROTOR_COUNT>  (1) 
8.6

>  <PUBCHEM_PHARMACOPHORE_FEATURES>  (1) 
13
1 1 acceptor
1 2 acceptor
1 26 hydrophobe
1 3 acceptor
1 4 acceptor
1 5 cation
1 6 cation
1 6 donor
6 13 17 20 21 25 27 rings
6 19 23 28 29 30 31 rings
6 5 7 12 13 15 17 rings
6 5 7 8 9 10 11 rings
6 6 16 19 22 23 24 rings

>  <PUBCHEM_HEAVY_ATOM_COUNT>  (1) 
35

>  <PUBCHEM_ATOM_DEF_STEREO_COUNT>  (1) 
0

>  <PUBCHEM_ATOM_UDEF_STEREO_COUNT>  (1) 
2

>  <PUBCHEM_BOND_DEF_STEREO_COUNT>  (1) 
0

>  <PUBCHEM_BOND_UDEF_STEREO_COUNT>  (1) 
0

>  <PUBCHEM_ISOTOPIC_ATOM_COUNT>  (1) 
0

>  <PUBCHEM_COMPONENT_COUNT>  (1) 
1

>  <PUBCHEM_CACTVS_TAUTO_COUNT>  (1) 
1

>  <PUBCHEM_CONFORMER_ID>  (1) 
0000449600000001

>  <PUBCHEM_MMFF94_ENERGY>  (1) 
125.5262

>  <PUBCHEM_FEATURE_SELFOVERLAP>  (1) 
66.046

>  <PUBCHEM_SHAPE_FINGERPRINT>  (1) 
11434127 23 18343865519904980445
12107183 9 18187635853065145210
12422481 6 16877932802924535846
12655364 74 17405983437517562100
13947947 63 18335972074162962060
14739800 52 18338228272017682283
15439362 3 18261109613099469666
15513586 35 16518242039479144717
19053607 189 17895485717411915837
19304671 126 18058735680655235309
21033648 29 18336548317345937592
21859007 373 18272365413202730800
22393880 68 18342748381505139551
23516275 100 18199172057281112328
23559900 14 18127411150845629642
2838139 119 18272929466487570940
3459 39 18186232935618958500
354706 109 18198602501751352752
3918712 181 18335977597533869013
4015057 19 16988012733607267618
4144715 1 18045512065346342130
4173938 306 17632285810083093754
44249763 50 17987785431864127593
508706 21 18339366365173310328
5283173 99 18342182197630611712
7288768 16 17749394741791243035
9849439 229 18334289834705779083
9981440 41 18260832626584967667

>  <PUBCHEM_SHAPE_MULTIPOLES>  (1) 
686.84
18.5
5.26
1.79
7.84
1.42
0.93
-19.92
3.16
-4.39
-2.05
2.17
-0.01
2.53

>  <PUBCHEM_SHAPE_SELFOVERLAP>  (1) 
1472.763

>  <PUBCHEM_SHAPE_VOLUME>  (1) 
379.9

>  <PUBCHEM_COORDINATE_TYPE>  (1) 
2
5
10

$$$$
