17554
     RDKit          3D

  6  5  0  0  0  0  0  0  0  0999 V2000
    2.2927   -1.1035   -0.0002 Cl  0  0  0  0  0  0  0  0  0  0  0  0
    1.2844    1.6604    0.0000 Cl  0  0  0  0  0  0  0  0  0  0  0  0
   -2.6554   -0.2532    0.0000 O   0  0  0  0  0  0  0  0  0  0  0  0
   -0.3066   -0.5419    0.0002 C   0  0  0  0  0  0  0  0  0  0  0  0
    0.9306   -0.0294    0.0002 C   0  0  0  0  0  0  0  0  0  0  0  0
   -1.5457    0.2677   -0.0001 C   0  0  0  0  0  0  0  0  0  0  0  0
  1  5  1  0
  2  5  1  0
  3  6  2  0
  4  5  2  3
  4  6  1  0
M  END
>  <PUBCHEM_COMPOUND_CID>  (1) 
17554

>  <PUBCHEM_CONFORMER_RMSD>  (1) 
0.4

>  <PUBCHEM_CONFORMER_DIVERSEORDER>  (1) 
1
2

>  <PUBCHEM_MMFF94_PARTIAL_CHARGES>  (1) 
8
1 -0.14
2 -0.14
3 -0.57
4 -0.14
5 0.28
6 0.5
7 0.15
8 0.06

>  <PUBCHEM_EFFECTIVE_ROTOR_COUNT>  (1) 
1

>  <PUBCHEM_PHARMACOPHORE_FEATURES>  (1) 
1
1 3 acceptor

>  <PUBCHEM_HEAVY_ATOM_COUNT>  (1) 
6

>  <PUBCHEM_ATOM_DEF_STEREO_COUNT>  (1) 
0

>  <PUBCHEM_ATOM_UDEF_STEREO_COUNT>  (1) 
0

>  <PUBCHEM_BOND_DEF_STEREO_COUNT>  (1) 
0

>  <PUBCHEM_BOND_UDEF_STEREO_COUNT>  (1) 
0

>  <PUBCHEM_ISOTOPIC_ATOM_COUNT>  (1) 
0

>  <PUBCHEM_COMPONENT_COUNT>  (1) 
1

>  <PUBCHEM_CACTVS_TAUTO_COUNT>  (1) 
1

>  <PUBCHEM_CONFORMER_ID>  (1) 
0000449200000001

>  <PUBCHEM_MMFF94_ENERGY>  (1) 
5.3529

>  <PUBCHEM_FEATURE_SELFOVERLAP>  (1) 
5.074

>  <PUBCHEM_SHAPE_FINGERPRINT>  (1) 
12932741 1 17749388200080881131
139733 1 9222931678432556514
20096714 4 18267867361702233676
21040471 1 18050287269345703328
23552449 11 18334845126268027970
29004967 10 18338798918637023738
5460574 1 9223224148256688482

>  <PUBCHEM_SHAPE_MULTIPOLES>  (1) 
121.35
3.28
1.42
0.62
1.37
0.61
0
-0.8
0
-0.99
0
-0.06
0.01
0

>  <PUBCHEM_SHAPE_SELFOVERLAP>  (1) 
205.992

>  <PUBCHEM_SHAPE_VOLUME>  (1) 
82.1

>  <PUBCHEM_COORDINATE_TYPE>  (1) 
2
5
10

$$$$
