17556
     RDKit          3D

  9  8  0  0  0  0  0  0  0  0999 V2000
   -1.7984   -0.9474   -1.2242 Cl  0  0  0  0  0  0  0  0  0  0  0  0
   -0.7284   -1.7244    1.3490 Cl  0  0  0  0  0  0  0  0  0  0  0  0
    0.9626   -0.3258   -1.5036 O   0  0  0  0  0  0  0  0  0  0  0  0
   -0.8024   -0.3812    0.1574 C   0  0  0  0  0  0  0  0  0  0  0  0
   -1.4438    0.8501    0.8125 C   0  0  0  0  0  0  0  0  0  0  0  0
    0.6402   -0.1694   -0.3235 C   0  0  0  0  0  0  0  0  0  0  0  0
    1.6847    0.2194    0.7203 C   0  0  0  0  0  0  0  0  0  0  0  0
   -1.5796    2.0632   -0.1043 C   0  0  0  0  0  0  0  0  0  0  0  0
    3.0650    0.4154    0.1163 C   0  0  0  0  0  0  0  0  0  0  0  0
  1  4  1  0
  2  4  1  0
  3  6  2  0
  4  5  1  0
  4  6  1  0
  5  8  1  0
  6  7  1  0
  7  9  1  0
M  END
>  <PUBCHEM_COMPOUND_CID>  (1) 
17556

>  <PUBCHEM_CONFORMER_RMSD>  (1) 
0.6

>  <PUBCHEM_CONFORMER_DIVERSEORDER>  (1) 
1
20
10
16
19
15
2
26
14
25
12
5
8
6
13
27
7
11
23
9
21
4
17
18
24
3
22

>  <PUBCHEM_MMFF94_PARTIAL_CHARGES>  (1) 
6
1 -0.29
2 -0.29
3 -0.57
4 0.64
6 0.45
7 0.06

>  <PUBCHEM_EFFECTIVE_ROTOR_COUNT>  (1) 
3

>  <PUBCHEM_PHARMACOPHORE_FEATURES>  (1) 
3
1 3 acceptor
1 8 hydrophobe
1 9 hydrophobe

>  <PUBCHEM_HEAVY_ATOM_COUNT>  (1) 
9

>  <PUBCHEM_ATOM_DEF_STEREO_COUNT>  (1) 
0

>  <PUBCHEM_ATOM_UDEF_STEREO_COUNT>  (1) 
0

>  <PUBCHEM_BOND_DEF_STEREO_COUNT>  (1) 
0

>  <PUBCHEM_BOND_UDEF_STEREO_COUNT>  (1) 
0

>  <PUBCHEM_ISOTOPIC_ATOM_COUNT>  (1) 
0

>  <PUBCHEM_COMPONENT_COUNT>  (1) 
1

>  <PUBCHEM_CACTVS_TAUTO_COUNT>  (1) 
2

>  <PUBCHEM_CONFORMER_ID>  (1) 
0000449400000001

>  <PUBCHEM_MMFF94_ENERGY>  (1) 
10.1286

>  <PUBCHEM_FEATURE_SELFOVERLAP>  (1) 
15.223

>  <PUBCHEM_SHAPE_FINGERPRINT>  (1) 
100427 49 17836934764427062729
12138202 97 18130781209713011637
12423570 1 17988651834379205649
12932764 1 17917438652776845882
13024252 1 18113610222510680523
137420 1 16392900024499700691
16945 1 18128231523915666467
20653085 51 18059582325793068448
21040471 1 18043833994925686593
21922407 69 17388002968599540216
23211744 41 18123767356583715137
24536 1 18188507855204590238
3248919 1 18260263088446268002
369184 2 18335416893757594442
5084963 1 17203045313282591610
54338 74 18188478185486295117
68250623 7 18199453377479405838

>  <PUBCHEM_SHAPE_MULTIPOLES>  (1) 
183.09
3.16
1.7
1.35
2.68
0.35
-0.25
0.65
-0.16
-1.23
0.48
-0.33
-0.44
-0.13

>  <PUBCHEM_SHAPE_SELFOVERLAP>  (1) 
322.186

>  <PUBCHEM_SHAPE_VOLUME>  (1) 
121.7

>  <PUBCHEM_COORDINATE_TYPE>  (1) 
2
5
10

$$$$
