17569
     RDKit          3D

 22 22  0  0  0  0  0  0  0  0999 V2000
    3.0724    1.5187    0.1756 O   0  0  0  0  0  0  0  0  0  0  0  0
    5.0284    2.2104   -0.8218 O   0  0  0  0  0  0  0  0  0  0  0  0
    6.0035   -4.0007    0.3051 O   0  0  0  0  0  0  0  0  0  0  0  0
   -3.6380    1.1200    0.4284 C   0  0  0  0  0  0  0  0  0  0  0  0
   -4.6315    0.1714   -0.2513 C   0  0  0  0  0  0  0  0  0  0  0  0
   -2.2341    1.0633   -0.1785 C   0  0  0  0  0  0  0  0  0  0  0  0
   -6.0781    0.2435    0.2505 C   0  0  0  0  0  0  0  0  0  0  0  0
   -1.2384    2.0027    0.5096 C   0  0  0  0  0  0  0  0  0  0  0  0
   -7.0078   -0.7680   -0.4247 C   0  0  0  0  0  0  0  0  0  0  0  0
    0.1720    1.9293   -0.0806 C   0  0  0  0  0  0  0  0  0  0  0  0
   -8.4321   -0.7549    0.1400 C   0  0  0  0  0  0  0  0  0  0  0  0
    1.1317    2.8658    0.6612 C   0  0  0  0  0  0  0  0  0  0  0  0
   -9.3569   -1.7826   -0.5135 C   0  0  0  0  0  0  0  0  0  0  0  0
    2.5382    2.8310    0.0758 C   0  0  0  0  0  0  0  0  0  0  0  0
  -10.7743   -1.6760    0.0289 C   0  0  0  0  0  0  0  0  0  0  0  0
    4.3321    1.3456   -0.3133 C   0  0  0  0  0  0  0  0  0  0  0  0
    4.7718   -0.0633   -0.1513 C   0  0  0  0  0  0  0  0  0  0  0  0
    6.0370   -0.4536   -0.5903 C   0  0  0  0  0  0  0  0  0  0  0  0
    3.9205   -0.9962    0.4406 C   0  0  0  0  0  0  0  0  0  0  0  0
    6.4506   -1.7769   -0.4377 C   0  0  0  0  0  0  0  0  0  0  0  0
    4.3340   -2.3195    0.5933 C   0  0  0  0  0  0  0  0  0  0  0  0
    5.5991   -2.7099    0.1541 C   0  0  0  0  0  0  0  0  0  0  0  0
  1 14  1  0
  1 16  1  0
  2 16  2  0
  3 22  1  0
  4  5  1  0
  4  6  1  0
  5  7  1  0
  6  8  1  0
  7  9  1  0
  8 10  1  0
  9 11  1  0
 10 12  1  0
 11 13  1  0
 12 14  1  0
 13 15  1  0
 16 17  1  0
 17 18  2  0
 17 19  1  0
 18 20  1  0
 19 21  2  0
 20 22  2  0
 21 22  1  0
M  END
>  <PUBCHEM_COMPOUND_CID>  (1) 
17569

>  <PUBCHEM_CONFORMER_RMSD>  (1) 
1.2

>  <PUBCHEM_CONFORMER_DIVERSEORDER>  (1) 
1
76
88
3
69
2
119
63
58
121
124
116
82
65
41
13
73
51
103
19
98
31
52
61
71
53
6
81
17
114
123
62
90
95
64
113
25
23
8
118
22
117
43
12
74
66
33
85
27
78
40
68
36
59
9
107
109
104
34
26
49
122
14
77
80
115
79
105
10
55
84
16
112
89
37
7
97
18
93
42
28
106
30
70
11
100
86
110
96
54
94
101
87
56
21
4
29
92
72
32
91
50
75
60
35
24
108
46
48
102
20
5
39
57
38
47
44
67
99
111
120
15
83
45

>  <PUBCHEM_MMFF94_PARTIAL_CHARGES>  (1) 
16
1 -0.43
14 0.28
16 0.63
17 0.09
18 -0.15
19 -0.15
2 -0.57
20 -0.15
21 -0.15
22 0.08
3 -0.53
48 0.15
49 0.15
50 0.15
51 0.15
52 0.45

>  <PUBCHEM_EFFECTIVE_ROTOR_COUNT>  (1) 
13

>  <PUBCHEM_PHARMACOPHORE_FEATURES>  (1) 
4
1 15 hydrophobe
1 2 acceptor
1 3 donor
6 17 18 19 20 21 22 rings

>  <PUBCHEM_HEAVY_ATOM_COUNT>  (1) 
22

>  <PUBCHEM_ATOM_DEF_STEREO_COUNT>  (1) 
0

>  <PUBCHEM_ATOM_UDEF_STEREO_COUNT>  (1) 
0

>  <PUBCHEM_BOND_DEF_STEREO_COUNT>  (1) 
0

>  <PUBCHEM_BOND_UDEF_STEREO_COUNT>  (1) 
0

>  <PUBCHEM_ISOTOPIC_ATOM_COUNT>  (1) 
0

>  <PUBCHEM_COMPONENT_COUNT>  (1) 
1

>  <PUBCHEM_CACTVS_TAUTO_COUNT>  (1) 
3

>  <PUBCHEM_CONFORMER_ID>  (1) 
000044A100000001

>  <PUBCHEM_MMFF94_ENERGY>  (1) 
25.963

>  <PUBCHEM_FEATURE_SELFOVERLAP>  (1) 
20.297

>  <PUBCHEM_SHAPE_FINGERPRINT>  (1) 
10049733 168 17417540115877702431
10066227 49 18410009958258711775
11146346 29 18338526235501515398
12539765 74 11891321033978385657
12592606 108 18413389822394707137
12838863 1 18042396951358216898
13533116 47 18412544335832764872
14216079 64 18410855473767476709
14617042 71 8790891796451310439
14919807 6 17823120261030651965
15152005 1 18123189005147765182
15475509 35 18130781261732803704
17134984 74 17967810540114660450
20028762 73 18269273461651030154
20165401 70 18342453768677079567
20621476 38 18412825798667936673
20771845 140 16630530639655219663
20982279 24 18042140847011715147
23522609 53 18125756489078347785
2835820 82 18409448068587583067
2835820 83 18339925905018436406
33532 11 18412543241475245669
3472631 163 10809355425115608040
397830 11 10951759829191987517
406291 66 18341612577482716315
437795 160 13973679577973559405
439807 62 18410294727016149311
46194498 28 17458067084223119620
465052 167 18272934903874392268
57676310 108 17345492392824497334
57676310 82 17773299340534997128
6438161 24 18411696604183555105
96874 4 18272084981369998011

>  <PUBCHEM_SHAPE_MULTIPOLES>  (1) 
435.14
31.09
3.87
0.76
83.38
1.02
0
30.33
-3.2
-7.3
0.48
-0.2
-0.03
-1.26

>  <PUBCHEM_SHAPE_SELFOVERLAP>  (1) 
850.205

>  <PUBCHEM_SHAPE_VOLUME>  (1) 
262

>  <PUBCHEM_COORDINATE_TYPE>  (1) 
2
5
10

$$$$
