17562
     RDKit          3D

 16 16  0  0  0  0  0  0  0  0999 V2000
   -5.9671   -0.6880   -0.9184 Cl  0  0  0  0  0  0  0  0  0  0  0  0
    5.9655   -0.6898    0.9214 Cl  0  0  0  0  0  0  0  0  0  0  0  0
   -3.3264   -1.6062    0.2835 O   0  0  0  0  0  0  0  0  0  0  0  0
    3.3267   -1.6057   -0.2862 O   0  0  0  0  0  0  0  0  0  0  0  0
   -2.7784    0.6826    0.2539 N   0  0  0  0  0  0  0  0  0  0  0  0
    2.7787    0.6831   -0.2531 N   0  0  0  0  0  0  0  0  0  0  0  0
   -1.3891    0.6825    0.1261 C   0  0  0  0  0  0  0  0  0  0  0  0
    1.3891    0.6829   -0.1276 C   0  0  0  0  0  0  0  0  0  0  0  0
   -0.6946    1.8905    0.0633 C   0  0  0  0  0  0  0  0  0  0  0  0
    0.6945    1.8907   -0.0635 C   0  0  0  0  0  0  0  0  0  0  0  0
   -0.6944   -0.5254    0.0622 C   0  0  0  0  0  0  0  0  0  0  0  0
    0.6947   -0.5252   -0.0646 C   0  0  0  0  0  0  0  0  0  0  0  0
   -3.6406   -0.4198    0.3321 C   0  0  0  0  0  0  0  0  0  0  0  0
    3.6409   -0.4192   -0.3322 C   0  0  0  0  0  0  0  0  0  0  0  0
   -5.0902   -0.0169    0.4657 C   0  0  0  0  0  0  0  0  0  0  0  0
    5.0907   -0.0161   -0.4627 C   0  0  0  0  0  0  0  0  0  0  0  0
  1 15  1  0
  2 16  1  0
  3 13  2  0
  4 14  2  0
  5  7  1  0
  5 13  1  0
  6  8  1  0
  6 14  1  0
  7  9  2  0
  7 11  1  0
  8 10  2  0
  8 12  1  0
  9 10  1  0
 11 12  2  0
 13 15  1  0
 14 16  1  0
M  END
>  <PUBCHEM_COMPOUND_CID>  (1) 
17562

>  <PUBCHEM_CONFORMER_RMSD>  (1) 
0.8

>  <PUBCHEM_CONFORMER_DIVERSEORDER>  (1) 
1
2
4
10
7
6
5
9
8
3

>  <PUBCHEM_MMFF94_PARTIAL_CHARGES>  (1) 
22
1 -0.29
10 -0.15
11 -0.15
12 -0.15
13 0.57
14 0.57
15 0.35
16 0.35
17 0.15
18 0.15
19 0.15
2 -0.29
20 0.15
21 0.37
22 0.37
3 -0.57
4 -0.57
5 -0.55
6 -0.55
7 0.12
8 0.12
9 -0.15

>  <PUBCHEM_EFFECTIVE_ROTOR_COUNT>  (1) 
6

>  <PUBCHEM_PHARMACOPHORE_FEATURES>  (1) 
5
1 3 acceptor
1 4 acceptor
1 5 donor
1 6 donor
6 7 8 9 10 11 12 rings

>  <PUBCHEM_HEAVY_ATOM_COUNT>  (1) 
16

>  <PUBCHEM_ATOM_DEF_STEREO_COUNT>  (1) 
0

>  <PUBCHEM_ATOM_UDEF_STEREO_COUNT>  (1) 
0

>  <PUBCHEM_BOND_DEF_STEREO_COUNT>  (1) 
0

>  <PUBCHEM_BOND_UDEF_STEREO_COUNT>  (1) 
0

>  <PUBCHEM_ISOTOPIC_ATOM_COUNT>  (1) 
0

>  <PUBCHEM_COMPONENT_COUNT>  (1) 
1

>  <PUBCHEM_CACTVS_TAUTO_COUNT>  (1) 
3

>  <PUBCHEM_CONFORMER_ID>  (1) 
0000449A00000001

>  <PUBCHEM_MMFF94_ENERGY>  (1) 
44.312

>  <PUBCHEM_FEATURE_SELFOVERLAP>  (1) 
25.371

>  <PUBCHEM_SHAPE_FINGERPRINT>  (1) 
10354089 29 13686295786266012466
10447042 23 18334007285876454982
106641 1 15913037759465212802
10803635 8 17603578625974316175
11401426 45 18410013243038047345
11796584 16 16732983128551836818
12032990 46 18410862057198129825
124424 183 18334017220214626427
12555020 224 18410285952730838343
12596602 18 15698000734134713714
12670543 26 17676199152774928645
12815109 37 18410576184174836615
13288520 33 18411140229645533877
13533116 47 17894907396371636282
13690532 89 18408608062661405093
13760787 5 18188503453079577933
13862211 1 18410572885640089698
14251752 14 16805593746746975271
14252887 29 17632025169607321454
17834072 8 18113050546103015191
17834076 25 12396298162433828639
187816 3 17530687606005895529
18785283 64 17630590423061287032
19141452 34 18059857293968328343
200 152 18202845457293350273
20281389 69 11095884852631797578
20374829 77 18334012808840121315
20645477 56 9799690398434677681
20645477 70 18337392737981050151
21267235 1 18410586079779564550
22079108 93 15697989752467431102
221490 88 18118694454957243763
22224240 67 17703500065680484330
23402539 116 18343017779228505301
23536379 177 15647050456208916627
23557571 272 18129113242553511556
23559900 14 18263925603932295920
26918003 58 18333452053499093163
2871803 45 18261112941824996750
293599 30 8718827587087151460
4463277 17 18410578383198377989
4990 188 12540697020162007640
5104073 3 18269563895691306401
5374978 207 18410291415844504968
59682541 35 18059847411928900138
59755656 520 11887951038574689276

>  <PUBCHEM_SHAPE_MULTIPOLES>  (1) 
311.31
13.12
1.55
0.78
0.01
0.44
0
-5.6
-0.01
0
0
0
-0.09
-0.35

>  <PUBCHEM_SHAPE_SELFOVERLAP>  (1) 
619.47

>  <PUBCHEM_SHAPE_VOLUME>  (1) 
184.2

>  <PUBCHEM_COORDINATE_TYPE>  (1) 
2
5
10

$$$$
