17565
     RDKit          3D

  9  8  0  0  0  0  0  0  0  0999 V2000
   -3.7608   -0.4613   -0.0167 N   0  0  0  0  0  0  0  0  0  0  0  0
   -4.9024    0.3952   -0.0102 N   0  0  0  0  0  0  0  0  0  0  0  0
    1.2505   -0.4620    0.0254 C   0  0  0  0  0  0  0  0  0  0  0  0
   -0.0423    0.3589    0.0201 C   0  0  0  0  0  0  0  0  0  0  0  0
    2.5167    0.3960   -0.0193 C   0  0  0  0  0  0  0  0  0  0  0  0
   -1.3093   -0.4998   -0.0099 C   0  0  0  0  0  0  0  0  0  0  0  0
    3.7750   -0.4732    0.0004 C   0  0  0  0  0  0  0  0  0  0  0  0
   -2.5647    0.3720    0.0213 C   0  0  0  0  0  0  0  0  0  0  0  0
    5.0374    0.3742   -0.0110 C   0  0  0  0  0  0  0  0  0  0  0  0
  1  2  1  0
  1  8  1  0
  3  4  1  0
  3  5  1  0
  4  6  1  0
  5  7  1  0
  6  8  1  0
  7  9  1  0
M  END
>  <PUBCHEM_COMPOUND_CID>  (1) 
17565

>  <PUBCHEM_CONFORMER_RMSD>  (1) 
0.6

>  <PUBCHEM_CONFORMER_DIVERSEORDER>  (1) 
1
64
57
154
135
18
169
9
152
11
123
165
19
33
146
166
60
7
147
77
8
161
89
6
160
110
163
120
48
3
134
153
15
90
168
40
69
78
149
66
167
151
25
80
46
87
96
10
51
137
99
5
145
128
83
97
155
12
62
58
164
37
75
125
157
53
39
49
4
31
68
162
34
41
67
144
148
117
72
45
30
158
35
61
42
109
74
21
36
86
116
150
24
91
138
50
142
115
14
106
17
156
141
38
2
71
23
105
79
114
159
121
95
107
52
16
65
55
139
22
85
108
118
130
63
73
127
98
70
54
131
29
136
44
92
104
47
126
113
102
122
100
56
32
140
13
129
112
26
111
81
20
133
101
28
103
76
93
119
88
143
82
59
27
124
43
94
132
84

>  <PUBCHEM_MMFF94_PARTIAL_CHARGES>  (1) 
6
1 -0.63
2 -0.72
25 0.36
26 0.36
27 0.36
8 0.27

>  <PUBCHEM_EFFECTIVE_ROTOR_COUNT>  (1) 
6

>  <PUBCHEM_PHARMACOPHORE_FEATURES>  (1) 
4
1 1 donor
1 2 donor
1 9 hydrophobe
5 3 4 5 6 7 hydrophobe

>  <PUBCHEM_HEAVY_ATOM_COUNT>  (1) 
9

>  <PUBCHEM_ATOM_DEF_STEREO_COUNT>  (1) 
0

>  <PUBCHEM_ATOM_UDEF_STEREO_COUNT>  (1) 
0

>  <PUBCHEM_BOND_DEF_STEREO_COUNT>  (1) 
0

>  <PUBCHEM_BOND_UDEF_STEREO_COUNT>  (1) 
0

>  <PUBCHEM_ISOTOPIC_ATOM_COUNT>  (1) 
0

>  <PUBCHEM_COMPONENT_COUNT>  (1) 
1

>  <PUBCHEM_CACTVS_TAUTO_COUNT>  (1) 
1

>  <PUBCHEM_CONFORMER_ID>  (1) 
0000449D00000001

>  <PUBCHEM_MMFF94_ENERGY>  (1) 
-4.2638

>  <PUBCHEM_FEATURE_SELFOVERLAP>  (1) 
21.622

>  <PUBCHEM_SHAPE_FINGERPRINT>  (1) 
11062470 55 18410575088973902954
14123238 8 18272369780387482740
17834076 25 18410575084668353672
18342897 14 18412545409553028488
20645477 70 18059017173102017726
20719005 15 18410855464444247586
22485316 2 18412260640447255974
23402539 116 18272081699893547925
366044 4 18408322194170852443
42788 4 18410575084668379652

>  <PUBCHEM_SHAPE_MULTIPOLES>  (1) 
175.25
10.49
0.78
0.6
1.1
0.02
0
-0.96
-0.08
-0.08
0
-0.08
0
-0.01

>  <PUBCHEM_SHAPE_SELFOVERLAP>  (1) 
303.227

>  <PUBCHEM_SHAPE_VOLUME>  (1) 
116

>  <PUBCHEM_COORDINATE_TYPE>  (1) 
2
5
10

$$$$
