17563
     RDKit          3D

 13 13  0  0  0  0  0  0  0  0999 V2000
    1.2780   -0.0005   -0.9638 O   0  0  0  0  0  0  0  0  0  0  0  0
    1.9172    0.0022    1.2717 O   0  0  0  0  0  0  0  0  0  0  0  0
    3.5065   -0.0005   -0.4183 N   0  0  0  0  0  0  0  0  0  0  0  0
   -2.0230    1.2080    0.0505 C   0  0  0  0  0  0  0  0  0  0  0  0
   -2.0233   -1.2080    0.0508 C   0  0  0  0  0  0  0  0  0  0  0  0
   -2.6897    0.0002    0.2555 C   0  0  0  0  0  0  0  0  0  0  0  0
   -0.0230   -0.0004   -0.5640 C   0  0  0  0  0  0  0  0  0  0  0  0
   -0.6897    1.2077   -0.3594 C   0  0  0  0  0  0  0  0  0  0  0  0
   -0.6899   -1.2084   -0.3590 C   0  0  0  0  0  0  0  0  0  0  0  0
   -2.7355    2.4997    0.2694 C   0  0  0  0  0  0  0  0  0  0  0  0
   -2.7360   -2.4994    0.2706 C   0  0  0  0  0  0  0  0  0  0  0  0
    2.2209   -0.0003    0.0824 C   0  0  0  0  0  0  0  0  0  0  0  0
    4.6874   -0.0004    0.4135 C   0  0  0  0  0  0  0  0  0  0  0  0
  1  7  1  0
  1 12  1  0
  2 12  2  0
  3 12  1  0
  3 13  1  0
  4  6  2  0
  4  8  1  0
  4 10  1  0
  5  6  1  0
  5  9  2  0
  5 11  1  0
  7  8  2  0
  7  9  1  0
M  END
>  <PUBCHEM_COMPOUND_CID>  (1) 
17563

>  <PUBCHEM_CONFORMER_RMSD>  (1) 
0.6

>  <PUBCHEM_CONFORMER_DIVERSEORDER>  (1) 
1
12
9
6
14
8
3
5
11
4
15
7
10
2
13

>  <PUBCHEM_MMFF94_PARTIAL_CHARGES>  (1) 
17
1 -0.23
10 0.14
11 0.14
12 0.78
13 0.3
14 0.15
15 0.15
16 0.15
2 -0.57
23 0.37
3 -0.73
4 -0.14
5 -0.14
6 -0.15
7 0.08
8 -0.15
9 -0.15

>  <PUBCHEM_EFFECTIVE_ROTOR_COUNT>  (1) 
3

>  <PUBCHEM_PHARMACOPHORE_FEATURES>  (1) 
3
1 2 acceptor
1 3 donor
6 4 5 6 7 8 9 rings

>  <PUBCHEM_HEAVY_ATOM_COUNT>  (1) 
13

>  <PUBCHEM_ATOM_DEF_STEREO_COUNT>  (1) 
0

>  <PUBCHEM_ATOM_UDEF_STEREO_COUNT>  (1) 
0

>  <PUBCHEM_BOND_DEF_STEREO_COUNT>  (1) 
0

>  <PUBCHEM_BOND_UDEF_STEREO_COUNT>  (1) 
0

>  <PUBCHEM_ISOTOPIC_ATOM_COUNT>  (1) 
0

>  <PUBCHEM_COMPONENT_COUNT>  (1) 
1

>  <PUBCHEM_CACTVS_TAUTO_COUNT>  (1) 
2

>  <PUBCHEM_CONFORMER_ID>  (1) 
0000449B00000001

>  <PUBCHEM_MMFF94_ENERGY>  (1) 
31.9099

>  <PUBCHEM_FEATURE_SELFOVERLAP>  (1) 
15.223

>  <PUBCHEM_SHAPE_FINGERPRINT>  (1) 
11357001 24 18334864939274015315
12251169 10 18335424547236653261
124424 183 17703221815812334106
12500047 106 18338792308492405544
12932764 1 17458338616049404260
13024252 1 14273454760763734925
13380535 76 18269554940626542783
15219456 202 17987807310717749134
15653759 3 18202281429039432842
15775835 57 18262238798497336608
16945 1 18410586084633447863
19422 9 18186523220011280454
200 152 16081077204091400146
20510252 161 18271530793102530985
20524608 308 18342458114824923007
20645464 45 18060704970019547341
20645477 56 18339929212052972800
20871998 184 18272375308084564423
21524375 3 17912075050178158829
21650355 55 18338796844194193523
22445834 79 17967529039046275466
23402539 116 18341886403644425487
23500284 214 18059581213518046713
23559900 14 18200596874769113014
2748010 2 17976842899577679111
3071541 236 18334571313987648891
3086196 2 18338232768716643499
573450 72 18261662706545188002
6333449 129 18342457019660919085
75552 356 18409167718496125805
77492 1 17676215684067101828
81228 2 18339374032349127947

>  <PUBCHEM_SHAPE_MULTIPOLES>  (1) 
250.81
6.43
2.1
0.84
8.58
0
0.05
0
1.12
-3.29
0.2
0.28
0
0

>  <PUBCHEM_SHAPE_SELFOVERLAP>  (1) 
513.648

>  <PUBCHEM_SHAPE_VOLUME>  (1) 
145.4

>  <PUBCHEM_COORDINATE_TYPE>  (1) 
2
5
10

$$$$
