1757
     RDKit          3D

 23 24  0  0  0  0  0  0  0  0999 V2000
   -5.6633    1.1687    0.2781 P   0  0  0  0  0  0  0  0  0  0  0  0
    5.6614    1.1693   -0.2781 P   0  0  0  0  0  0  0  0  0  0  0  0
   -4.6488    0.6598   -0.8763 O   0  0  0  0  0  0  0  0  0  0  0  0
    4.6469    0.6599    0.8762 O   0  0  0  0  0  0  0  0  0  0  0  0
   -4.7971    2.2462    1.1179 O   0  0  0  0  0  0  0  0  0  0  0  0
   -6.7012    2.0998   -0.5432 O   0  0  0  0  0  0  0  0  0  0  0  0
    4.7951    2.2470   -1.1175 O   0  0  0  0  0  0  0  0  0  0  0  0
    6.6993    2.1003    0.5434 O   0  0  0  0  0  0  0  0  0  0  0  0
   -6.3105    0.0822    1.0866 O   0  0  0  0  0  0  0  0  0  0  0  0
    6.3088    0.0831   -1.0869 O   0  0  0  0  0  0  0  0  0  0  0  0
   -0.0008   -2.4160   -0.0005 C   0  0  0  0  0  0  0  0  0  0  0  0
   -1.2293   -1.6032   -0.2319 C   0  0  0  0  0  0  0  0  0  0  0  0
    1.2479   -1.5898    0.2349 C   0  0  0  0  0  0  0  0  0  0  0  0
   -1.5802   -1.2230   -1.5271 C   0  0  0  0  0  0  0  0  0  0  0  0
    1.5786   -1.2233    1.5264 C   0  0  0  0  0  0  0  0  0  0  0  0
   -2.0276   -1.2232    0.8470 C   0  0  0  0  0  0  0  0  0  0  0  0
    2.0259   -1.2228   -0.8477 C   0  0  0  0  0  0  0  0  0  0  0  0
   -2.7293   -0.4624   -1.7436 C   0  0  0  0  0  0  0  0  0  0  0  0
    2.7276   -0.4628    1.7431 C   0  0  0  0  0  0  0  0  0  0  0  0
   -3.1768   -0.4627    0.6308 C   0  0  0  0  0  0  0  0  0  0  0  0
    3.1751   -0.4623   -0.6312 C   0  0  0  0  0  0  0  0  0  0  0  0
   -3.5277   -0.0825   -0.6647 C   0  0  0  0  0  0  0  0  0  0  0  0
    3.5260   -0.0824    0.6644 C   0  0  0  0  0  0  0  0  0  0  0  0
  1  3  1  0
  1  5  1  0
  1  6  1  0
  1  9  2  0
  2  4  1  0
  2  7  1  0
  2  8  1  0
  2 10  2  0
  3 22  1  0
  4 23  1  0
 11 12  1  0
 11 13  1  0
 12 14  2  0
 12 16  1  0
 13 15  2  0
 13 17  1  0
 14 18  1  0
 15 19  1  0
 16 20  2  0
 17 21  2  0
 18 22  2  0
 19 23  2  0
 20 22  1  0
 21 23  1  0
M  END
>  <PUBCHEM_COMPOUND_CID>  (1) 
1757

>  <PUBCHEM_CONFORMER_RMSD>  (1) 
0.8

>  <PUBCHEM_CONFORMER_DIVERSEORDER>  (1) 
1
4
6
12
5
2
15
17
16
10
7
11
13
3
8
14
18
9

>  <PUBCHEM_MMFF94_PARTIAL_CHARGES>  (1) 
35
1 1.51
10 -0.7
11 0.29
12 -0.14
13 -0.14
14 -0.15
15 -0.15
16 -0.15
17 -0.15
18 -0.15
19 -0.15
2 1.51
20 -0.15
21 -0.15
22 0.08
23 0.08
26 0.15
27 0.15
28 0.15
29 0.15
3 -0.35
30 0.15
31 0.15
32 0.15
33 0.15
34 0.5
35 0.5
36 0.5
37 0.5
4 -0.35
5 -0.77
6 -0.77
7 -0.77
8 -0.77
9 -0.7

>  <PUBCHEM_EFFECTIVE_ROTOR_COUNT>  (1) 
6

>  <PUBCHEM_PHARMACOPHORE_FEATURES>  (1) 
10
1 10 acceptor
1 5 acceptor
1 6 acceptor
1 7 acceptor
1 8 acceptor
1 9 acceptor
4 1 5 6 9 anion
4 2 7 8 10 anion
6 12 14 16 18 20 22 rings
6 13 15 17 19 21 23 rings

>  <PUBCHEM_HEAVY_ATOM_COUNT>  (1) 
23

>  <PUBCHEM_ATOM_DEF_STEREO_COUNT>  (1) 
0

>  <PUBCHEM_ATOM_UDEF_STEREO_COUNT>  (1) 
0

>  <PUBCHEM_BOND_DEF_STEREO_COUNT>  (1) 
0

>  <PUBCHEM_BOND_UDEF_STEREO_COUNT>  (1) 
0

>  <PUBCHEM_ISOTOPIC_ATOM_COUNT>  (1) 
0

>  <PUBCHEM_COMPONENT_COUNT>  (1) 
1

>  <PUBCHEM_CACTVS_TAUTO_COUNT>  (1) 
1

>  <PUBCHEM_CONFORMER_ID>  (1) 
000006DD00000001

>  <PUBCHEM_MMFF94_ENERGY>  (1) 
-8.574

>  <PUBCHEM_FEATURE_SELFOVERLAP>  (1) 
50.821

>  <PUBCHEM_SHAPE_FINGERPRINT>  (1) 
10 15 15574713612504256950
10498660 4 17561073709688827219
10670039 82 17489029249713794185
10753850 27 9439398038962352981
12390115 104 18334861644633685627
12555020 224 12751233727283908861
12596602 18 17967816020672226353
12633257 1 15719400563284328623
12788726 201 18201155443022904417
12892183 10 15647319789302934731
12895836 83 18060134366661387903
12895837 130 18199749326812473900
12954195 1 12031518649223697227
13885169 86 18335707190613643844
13955234 65 17969216729429751202
14251751 18 8718820981823069849
14341114 176 16081365224709254186
14341114 328 16443073810776334519
15163728 17 17560531577758251149
15183329 4 15769781238399348450
15188451 53 11963389656911372035
15210252 30 18272929440686710528
15342168 16 18409725141127648991
15575132 122 18059575716540429353
15728490 51 10881695624049153004
17134984 74 13542457670625273764
18222031 100 12391520802160924722
19377110 9 16008754631851246067
19784866 240 9727633916793376679
21033648 29 18338230596154015856
21065199 12 15647320893109536303
21637258 2 10665231458110430055
21756936 100 18338793524042373698
22393880 68 15984811675414046494
23559900 14 14548440462359684411
270888 7 18410851062081917029
2838139 119 18202558484326140088
29717793 49 13326854439676404050
3004659 81 12823293489900499678
3009799 131 16128654168064667402
3014063 24 8430313524235480433
312425 54 13768472112214655237
3472631 163 18413386548991194655
38570 142 18411427185043011046
392239 28 15502661532729706569
4259306 186 12031791383134253766
439807 62 10447627116701524989
445580 204 18201719552833526104
465052 167 8718536246818391145
5104073 3 15575539255030979520
559249 180 8502379940848098471
57724786 102 18335415738738790058
59682541 52 16558755568434153692
6438161 24 8430303625063830809
7808743 9 18410570720981795411
960060 61 12679167328547297091

>  <PUBCHEM_SHAPE_MULTIPOLES>  (1) 
434.07
16.58
2.25
1.5
0.04
0.65
0
15.26
0
0
0
0
-0.15
-0.71

>  <PUBCHEM_SHAPE_SELFOVERLAP>  (1) 
892.472

>  <PUBCHEM_SHAPE_VOLUME>  (1) 
250.2

>  <PUBCHEM_COORDINATE_TYPE>  (1) 
2
5
10

$$$$
