17585
     RDKit          3D

 14 13  0  0  0  0  0  0  0  0999 V2000
   -3.9145    0.4401    0.6301 S   0  0  0  0  0  0  0  0  0  0  0  0
    4.2403    1.0601   -0.3807 S   0  0  0  0  0  0  0  0  0  0  0  0
   -6.0119   -0.2890   -0.8052 O   0  0  0  0  0  0  0  0  0  0  0  0
    5.7764   -0.9033    0.5003 O   0  0  0  0  0  0  0  0  0  0  0  0
   -0.8676   -0.4053   -0.1877 C   0  0  0  0  0  0  0  0  0  0  0  0
    0.5552   -0.8833    0.1183 C   0  0  0  0  0  0  0  0  0  0  0  0
   -1.9037   -1.4609    0.2118 C   0  0  0  0  0  0  0  0  0  0  0  0
    1.5885    0.1903   -0.2392 C   0  0  0  0  0  0  0  0  0  0  0  0
   -3.3397   -1.0913   -0.1611 C   0  0  0  0  0  0  0  0  0  0  0  0
    3.0313   -0.2269    0.0462 C   0  0  0  0  0  0  0  0  0  0  0  0
   -5.5446    0.5367   -0.0303 C   0  0  0  0  0  0  0  0  0  0  0  0
    5.7362    0.2339    0.0467 C   0  0  0  0  0  0  0  0  0  0  0  0
   -6.3113    1.7365    0.4486 C   0  0  0  0  0  0  0  0  0  0  0  0
    6.9654    1.0623   -0.1977 C   0  0  0  0  0  0  0  0  0  0  0  0
  1  9  1  0
  1 11  1  0
  2 10  1  0
  2 12  1  0
  3 11  2  0
  4 12  2  0
  5  6  1  0
  5  7  1  0
  6  8  1  0
  7  9  1  0
  8 10  1  0
 11 13  1  0
 12 14  1  0
M  END
>  <PUBCHEM_COMPOUND_CID>  (1) 
17585

>  <PUBCHEM_CONFORMER_RMSD>  (1) 
1

>  <PUBCHEM_CONFORMER_DIVERSEORDER>  (1) 
1
177
10
2
83
27
189
55
167
130
180
96
51
139
99
135
179
8
128
79
30
119
28
138
20
150
34
35
61
40
173
13
161
81
63
129
194
62
108
37
199
82
7
166
170
53
190
106
33
134
144
98
9
154
21
74
88
104
200
126
26
76
204
49
25
171
15
101
5
178
24
46
181
75
121
17
116
132
159
182
32
60
11
146
201
18
87
115
198
112
109
140
73
42
92
44
86
97
29
57
90
141
191
58
69
105
52
48
50
6
143
183
117
16
100
197
186
136
56
188
174
176
203
122
151
107
205
118
125
23
3
12
102
41
123
67
147
192
131
113
54
172
137
4
14
68
64
165
153
184
22
156
164
31
202
78
80
187
65
195
155
185
169
133
84
19
85
95
43
103
77
196
66
148
120
114
127
160
39
168
110
93
38
91
124
36
158
70
47
111
152
89
142
149
59
163
157
72
162
45
175
71
193
145
94

>  <PUBCHEM_MMFF94_PARTIAL_CHARGES>  (1) 
10
1 -0.37
10 0.23
11 0.65
12 0.65
13 0.06
14 0.06
2 -0.37
3 -0.57
4 -0.57
9 0.23

>  <PUBCHEM_EFFECTIVE_ROTOR_COUNT>  (1) 
9

>  <PUBCHEM_PHARMACOPHORE_FEATURES>  (1) 
0

>  <PUBCHEM_HEAVY_ATOM_COUNT>  (1) 
14

>  <PUBCHEM_ATOM_DEF_STEREO_COUNT>  (1) 
0

>  <PUBCHEM_ATOM_UDEF_STEREO_COUNT>  (1) 
0

>  <PUBCHEM_BOND_DEF_STEREO_COUNT>  (1) 
0

>  <PUBCHEM_BOND_UDEF_STEREO_COUNT>  (1) 
0

>  <PUBCHEM_ISOTOPIC_ATOM_COUNT>  (1) 
0

>  <PUBCHEM_COMPONENT_COUNT>  (1) 
1

>  <PUBCHEM_CACTVS_TAUTO_COUNT>  (1) 
1

>  <PUBCHEM_CONFORMER_ID>  (1) 
000044B100000001

>  <PUBCHEM_MMFF94_ENERGY>  (1) 
10.2025

>  <PUBCHEM_FEATURE_SELFOVERLAP>  (1) 
0

>  <PUBCHEM_SHAPE_FINGERPRINT>  (1) 
11089746 13 18341891913312207153
117890 112 18412827992984482436
12091667 2 18342739646000276727
12714333 28 17418375783352717743
13167372 99 18409730634322274584
13288520 33 9079117752601275859
13533116 47 18271805671405328146
13740256 8 8934991569445896551
1420 363 9439404635757838804
14251718 22 10807937059246784690
14251764 18 18334294287943124094
14251764 46 16370725941863927011
14350574 20 10807931561752059787
14729087 3 18413668015293957568
15048467 5 18409730659759444160
15501527 16 18333167262944656661
15716309 27 8718829794916528549
17834072 8 17775005704269124896
17834076 25 18413388747835192615
20281389 69 18260828198035438469
20526848 3 18411987927657672353
20621476 66 18408889537685679465
20621476 8 18334295349760012222
20767249 213 18412546517817913265
21150785 3 15626222437851689756
220451 1 16877660189019166826
22224240 67 15430037681866702025
22288116 15 17846483865055029917
23035841 295 8574713498523066357
23218964 4 18409166614895259034
23402539 116 18272929453117418159
23590187 156 17274820268376075151
2767999 5 18342739611186825305
2838139 119 18342174475432900725
300161 21 18342455958999344610
351380 3 9079115535928743665
42788 4 18410573998073393239
59755656 520 18187359948302541403
7062679 117 10447928377895567077
7062679 6 18408610253168845629

>  <PUBCHEM_SHAPE_MULTIPOLES>  (1) 
284.07
20.09
1.41
0.74
6.41
0.14
0
8.3
-0.01
-1.01
0.09
-0.27
0.02
-0.81

>  <PUBCHEM_SHAPE_SELFOVERLAP>  (1) 
497.977

>  <PUBCHEM_SHAPE_VOLUME>  (1) 
186.3

>  <PUBCHEM_COORDINATE_TYPE>  (1) 
2
5
10

$$$$
