17589
     RDKit          3D

  6  5  0  0  0  0  0  0  0  0999 V2000
   -0.9984   -1.3186    0.0002 O   0  0  0  0  0  0  0  0  0  0  0  0
    1.5150    0.2150    0.0002 N   0  0  0  0  0  0  0  0  0  0  0  0
    2.5176   -0.1858   -0.0006 N   0  0  0  0  0  0  0  0  0  0  0  0
   -2.2820    0.5914   -0.0007 C   0  0  0  0  0  0  0  0  0  0  0  0
   -0.9117   -0.0597    0.0003 C   0  0  0  0  0  0  0  0  0  0  0  0
    0.1595    0.7578    0.0006 C   0  0  0  0  0  0  0  0  0  0  0  0
  1  5  1  0
  2  3  3  0
  2  6  1  0
  4  5  1  0
  5  6  2  0
M  CHG  2   1  -1   2   1
M  END
>  <PUBCHEM_COMPOUND_CID>  (1) 
17589

>  <PUBCHEM_CONFORMER_RMSD>  (1) 
0.4

>  <PUBCHEM_CONFORMER_DIVERSEORDER>  (1) 
1

>  <PUBCHEM_MMFF94_PARTIAL_CHARGES>  (1) 
7
1 -0.85
10 0.15
2 1.36
3 -0.49
4 0.14
5 -0.29
6 -0.02

>  <PUBCHEM_EFFECTIVE_ROTOR_COUNT>  (1) 
0

>  <PUBCHEM_PHARMACOPHORE_FEATURES>  (1) 
0

>  <PUBCHEM_HEAVY_ATOM_COUNT>  (1) 
6

>  <PUBCHEM_ATOM_DEF_STEREO_COUNT>  (1) 
0

>  <PUBCHEM_ATOM_UDEF_STEREO_COUNT>  (1) 
0

>  <PUBCHEM_BOND_DEF_STEREO_COUNT>  (1) 
0

>  <PUBCHEM_BOND_UDEF_STEREO_COUNT>  (1) 
1

>  <PUBCHEM_ISOTOPIC_ATOM_COUNT>  (1) 
0

>  <PUBCHEM_COMPONENT_COUNT>  (1) 
1

>  <PUBCHEM_CACTVS_TAUTO_COUNT>  (1) 
1

>  <PUBCHEM_CONFORMER_ID>  (1) 
000044B500000001

>  <PUBCHEM_MMFF94_ENERGY>  (1) 
6.9649

>  <PUBCHEM_FEATURE_SELFOVERLAP>  (1) 
0

>  <PUBCHEM_SHAPE_FINGERPRINT>  (1) 
139733 1 9222962468937044000
16714656 1 18333732390378061597
20096714 4 18407759239853560617
21040471 1 18410855421637064389
24536 1 18192978542376264972
29004967 10 16558753424860421804
5460574 1 9295287244142350400

>  <PUBCHEM_SHAPE_MULTIPOLES>  (1) 
107.65
3.1
0.99
0.57
1.11
0.23
0
-0.18
0
-0.32
0
-0.05
-0.02
0

>  <PUBCHEM_SHAPE_SELFOVERLAP>  (1) 
197.26

>  <PUBCHEM_SHAPE_VOLUME>  (1) 
68.1

>  <PUBCHEM_COORDINATE_TYPE>  (1) 
2
5
10

$$$$
