17582
     RDKit          3D

 13 13  0  0  0  0  0  0  0  0999 V2000
    3.2720    1.2704   -0.0767 Cl  0  0  0  0  0  0  0  0  0  0  0  0
   -0.9074   -1.6698   -0.0287 O   0  0  0  0  0  0  0  0  0  0  0  0
    1.8209   -1.3496    0.0108 O   0  0  0  0  0  0  0  0  0  0  0  0
   -2.5598    0.5475   -0.1590 O   0  0  0  0  0  0  0  0  0  0  0  0
   -0.3695   -0.4176   -0.0736 C   0  0  0  0  0  0  0  0  0  0  0  0
    1.0153   -0.2503   -0.0538 C   0  0  0  0  0  0  0  0  0  0  0  0
   -1.2058    0.6968   -0.1393 C   0  0  0  0  0  0  0  0  0  0  0  0
    1.5635    1.0316   -0.0997 C   0  0  0  0  0  0  0  0  0  0  0  0
   -0.6577    1.9786   -0.1852 C   0  0  0  0  0  0  0  0  0  0  0  0
    0.7269    2.1460   -0.1655 C   0  0  0  0  0  0  0  0  0  0  0  0
   -1.1377   -2.3199   -1.2764 C   0  0  0  0  0  0  0  0  0  0  0  0
    1.6682   -2.1965    1.1468 C   0  0  0  0  0  0  0  0  0  0  0  0
   -3.2287    0.5327    1.1004 C   0  0  0  0  0  0  0  0  0  0  0  0
  1  8  1  0
  2  5  1  0
  2 11  1  0
  3  6  1  0
  3 12  1  0
  4  7  1  0
  4 13  1  0
  5  6  2  0
  5  7  1  0
  6  8  1  0
  7  9  2  0
  8 10  2  0
  9 10  1  0
M  END
>  <PUBCHEM_COMPOUND_CID>  (1) 
17582

>  <PUBCHEM_CONFORMER_RMSD>  (1) 
0.6

>  <PUBCHEM_CONFORMER_DIVERSEORDER>  (1) 
2
5
6
7
1
3
4

>  <PUBCHEM_MMFF94_PARTIAL_CHARGES>  (1) 
15
1 -0.18
10 -0.15
11 0.28
12 0.28
13 0.28
14 0.15
15 0.15
2 -0.36
3 -0.36
4 -0.36
5 0.08
6 0.08
7 0.08
8 0.18
9 -0.15

>  <PUBCHEM_EFFECTIVE_ROTOR_COUNT>  (1) 
3

>  <PUBCHEM_PHARMACOPHORE_FEATURES>  (1) 
4
1 2 acceptor
1 3 acceptor
1 4 acceptor
6 5 6 7 8 9 10 rings

>  <PUBCHEM_HEAVY_ATOM_COUNT>  (1) 
13

>  <PUBCHEM_ATOM_DEF_STEREO_COUNT>  (1) 
0

>  <PUBCHEM_ATOM_UDEF_STEREO_COUNT>  (1) 
0

>  <PUBCHEM_BOND_DEF_STEREO_COUNT>  (1) 
0

>  <PUBCHEM_BOND_UDEF_STEREO_COUNT>  (1) 
0

>  <PUBCHEM_ISOTOPIC_ATOM_COUNT>  (1) 
0

>  <PUBCHEM_COMPONENT_COUNT>  (1) 
1

>  <PUBCHEM_CACTVS_TAUTO_COUNT>  (1) 
1

>  <PUBCHEM_CONFORMER_ID>  (1) 
000044AE00000002

>  <PUBCHEM_MMFF94_ENERGY>  (1) 
63.6671

>  <PUBCHEM_FEATURE_SELFOVERLAP>  (1) 
20.307

>  <PUBCHEM_SHAPE_FINGERPRINT>  (1) 
11206711 2 18048591822352291876
12423570 1 8681148951443807356
12524768 44 18341334405129757910
13140716 1 18194119848526399800
13380535 21 18339935895227534454
14251711 518 18409722959041623798
14617773 55 17552932027885168533
14761567 1 16677254690809061004
16945 1 18409724088517847908
20511035 2 18045496413541711612
20645476 183 17461183190190824812
20645477 70 18337670798711955173
22112679 90 18269251582596604762
2334 1 17833550480606091996
23552423 10 18120086431982081732
2748010 2 18120930616499910492
5084963 1 17772459097641707655
5255222 1 18410846694205951412
528862 383 18335139765171846681
53812654 25 18270379651255989111

>  <PUBCHEM_SHAPE_MULTIPOLES>  (1) 
251.8
3.86
2.72
0.95
0.1
1.01
0.06
-1.1
0.75
-0.36
-0.12
0.32
0.46
-0.86

>  <PUBCHEM_SHAPE_SELFOVERLAP>  (1) 
508.811

>  <PUBCHEM_SHAPE_VOLUME>  (1) 
150.5

>  <PUBCHEM_COORDINATE_TYPE>  (1) 
2
5
10

$$$$
