17591
     RDKit          3D

 19 20  0  0  0  0  0  0  0  0999 V2000
   -0.4488   -2.1708    1.6540 O   0  0  0  0  0  0  0  0  0  0  0  0
   -4.7668    2.0316    0.2407 N   0  0  0  0  0  0  0  0  0  0  0  0
    4.7206    2.0149    0.4656 N   0  0  0  0  0  0  0  0  0  0  0  0
   -0.0091   -1.0109   -0.4663 C   0  0  0  0  0  0  0  0  0  0  0  0
   -1.3074   -0.1804   -0.2726 C   0  0  0  0  0  0  0  0  0  0  0  0
    1.2760   -0.1878   -0.2132 C   0  0  0  0  0  0  0  0  0  0  0  0
   -0.1017   -1.5659   -1.9122 C   0  0  0  0  0  0  0  0  0  0  0  0
    0.0376   -2.2232    0.5210 C   0  0  0  0  0  0  0  0  0  0  0  0
   -1.2507    1.1578   -0.5352 C   0  0  0  0  0  0  0  0  0  0  0  0
    1.4494    0.3671    1.0249 C   0  0  0  0  0  0  0  0  0  0  0  0
   -2.4264   -0.8393    0.1476 C   0  0  0  0  0  0  0  0  0  0  0  0
    2.1696   -0.0607   -1.2411 C   0  0  0  0  0  0  0  0  0  0  0  0
    0.7690   -3.4737    0.0872 C   0  0  0  0  0  0  0  0  0  0  0  0
   -2.4168    1.9034   -0.3621 C   0  0  0  0  0  0  0  0  0  0  0  0
    2.6086    1.1085    1.2534 C   0  0  0  0  0  0  0  0  0  0  0  0
   -3.5926   -0.0938    0.3206 C   0  0  0  0  0  0  0  0  0  0  0  0
    3.3290    0.6806   -1.0127 C   0  0  0  0  0  0  0  0  0  0  0  0
   -3.5878    1.2776    0.0657 C   0  0  0  0  0  0  0  0  0  0  0  0
    3.5485    1.2652    0.2346 C   0  0  0  0  0  0  0  0  0  0  0  0
  1  8  2  0
  2 18  1  0
  3 19  1  0
  4  5  1  0
  4  6  1  0
  4  7  1  0
  4  8  1  0
  5  9  2  0
  5 11  1  0
  6 10  2  0
  6 12  1  0
  8 13  1  0
  9 14  1  0
 10 15  1  0
 11 16  2  0
 12 17  2  0
 14 18  2  0
 15 19  2  0
 16 18  1  0
 17 19  1  0
M  END
>  <PUBCHEM_COMPOUND_CID>  (1) 
17591

>  <PUBCHEM_CONFORMER_RMSD>  (1) 
0.6

>  <PUBCHEM_CONFORMER_DIVERSEORDER>  (1) 
1
9
8
10
5
2
4
7
3
6

>  <PUBCHEM_MMFF94_PARTIAL_CHARGES>  (1) 
30
1 -0.57
10 -0.15
11 -0.15
12 -0.15
13 0.06
14 -0.15
15 -0.15
16 -0.15
17 -0.15
18 0.1
19 0.1
2 -0.9
23 0.15
24 0.15
25 0.15
26 0.15
3 -0.9
30 0.15
31 0.15
32 0.15
33 0.15
34 0.4
35 0.4
36 0.4
37 0.4
4 0.35
5 -0.14
6 -0.14
8 0.45
9 -0.15

>  <PUBCHEM_EFFECTIVE_ROTOR_COUNT>  (1) 
3

>  <PUBCHEM_PHARMACOPHORE_FEATURES>  (1) 
8
1 1 acceptor
1 2 cation
1 2 donor
1 3 cation
1 3 donor
1 7 hydrophobe
6 5 9 11 14 16 18 rings
6 6 10 12 15 17 19 rings

>  <PUBCHEM_HEAVY_ATOM_COUNT>  (1) 
19

>  <PUBCHEM_ATOM_DEF_STEREO_COUNT>  (1) 
0

>  <PUBCHEM_ATOM_UDEF_STEREO_COUNT>  (1) 
0

>  <PUBCHEM_BOND_DEF_STEREO_COUNT>  (1) 
0

>  <PUBCHEM_BOND_UDEF_STEREO_COUNT>  (1) 
0

>  <PUBCHEM_ISOTOPIC_ATOM_COUNT>  (1) 
0

>  <PUBCHEM_COMPONENT_COUNT>  (1) 
1

>  <PUBCHEM_CACTVS_TAUTO_COUNT>  (1) 
2

>  <PUBCHEM_CONFORMER_ID>  (1) 
000044B700000001

>  <PUBCHEM_MMFF94_ENERGY>  (1) 
92.1386

>  <PUBCHEM_FEATURE_SELFOVERLAP>  (1) 
40.594

>  <PUBCHEM_SHAPE_FINGERPRINT>  (1) 
10498660 4 18411980239455423765
10922049 32 18412549816273844222
10948715 1 18412545426848883686
11132069 177 18260270754594009701
12173636 292 18264203802212475918
122479 349 18340487884535348556
12532896 13 18340766030880652510
12730499 353 18272099249551847289
12788726 201 17319315485318008770
13134695 92 17546707271421581407
13140716 1 18262234417725841675
13294875 104 18058995204064366402
13464514 151 18126300639694792782
13538477 17 17605837138789950790
13764800 53 18189905377448873858
13878862 14 17758666755892656149
13965767 371 17822566080171671468
14178342 30 18041290898215010803
14223421 5 18189617133999278445
14787075 74 18128815433831965673
14817 1 13264897916997227470
15534591 1 18339353175550173106
15775835 57 18341891891847868233
15906896 17 18194962070059226502
16945 1 18338515360564316223
18186145 218 17703802417728076596
19784866 170 18261118439567933845
19784866 9 18267862792067852338
200 152 13326585085366434188
20510252 161 18340774861196146225
20671657 1 18195810656970384431
21452121 103 18119806915953731993
21524375 3 18342735213013492886
21731228 192 18260826007701948120
21756936 100 18337665442803704624
23227448 37 18050287269525558340
23402539 116 18052810631251743439
23419403 2 17481197483854675943
23558518 356 17911498106757115389
23559900 14 18115883909593952535
25 1 17918279744390531860
2748010 2 17680989596299237061
276578 36 18260829276325073650
298252 57 17703787028833965950
305870 269 18336539443632416866
34934 24 18411976945779224253
350125 39 17974856060190972877
427121 178 18261687977805566995
474 4 18410859849933469597
5104073 3 18117850893869751689
633830 44 18343018869765239292
6442390 28 18339090370865181891
68419 9 17626621095125817279
7364860 26 18122624955286128535
7808743 9 18264772254156900260
81228 2 17836349815645746542
81539 233 18335979762233289637
84936 182 18270121180155790689
9999458 23 18189337870614526150

>  <PUBCHEM_SHAPE_MULTIPOLES>  (1) 
375.18
6.89
2.84
1.27
0.89
1.99
-0.14
-6.75
0.65
-0.05
0.43
-0.57
0.4
0.44

>  <PUBCHEM_SHAPE_SELFOVERLAP>  (1) 
811.385

>  <PUBCHEM_SHAPE_VOLUME>  (1) 
206.5

>  <PUBCHEM_COORDINATE_TYPE>  (1) 
2
5
10

$$$$
