17595
     RDKit          3D

  8  8  0  0  0  0  0  0  0  0999 V2000
   -0.1669   -2.0525    0.1048 O   0  0  0  0  0  0  0  0  0  0  0  0
    0.3261    0.2439    0.2641 N   0  0  0  0  0  0  0  0  0  0  0  0
   -0.3616    1.4862    0.0034 C   0  0  0  0  0  0  0  0  0  0  0  0
   -1.8231    1.0896    0.0631 C   0  0  0  0  0  0  0  0  0  0  0  0
   -1.8280   -0.3614   -0.4033 C   0  0  0  0  0  0  0  0  0  0  0  0
   -0.4740   -0.8722    0.0311 C   0  0  0  0  0  0  0  0  0  0  0  0
    1.7343    0.2118    0.5946 C   0  0  0  0  0  0  0  0  0  0  0  0
    2.5932    0.2546   -0.6579 C   0  0  0  0  0  0  0  0  0  0  0  0
  1  6  2  0
  2  3  1  0
  2  6  1  0
  2  7  1  0
  3  4  1  0
  4  5  1  0
  5  6  1  0
  7  8  1  0
M  END
>  <PUBCHEM_COMPOUND_CID>  (1) 
17595

>  <PUBCHEM_CONFORMER_RMSD>  (1) 
0.4

>  <PUBCHEM_CONFORMER_DIVERSEORDER>  (1) 
1
2

>  <PUBCHEM_MMFF94_PARTIAL_CHARGES>  (1) 
6
1 -0.57
2 -0.66
3 0.3
5 0.06
6 0.57
7 0.3

>  <PUBCHEM_EFFECTIVE_ROTOR_COUNT>  (1) 
1.8

>  <PUBCHEM_PHARMACOPHORE_FEATURES>  (1) 
2
1 1 acceptor
5 2 3 4 5 6 rings

>  <PUBCHEM_HEAVY_ATOM_COUNT>  (1) 
8

>  <PUBCHEM_ATOM_DEF_STEREO_COUNT>  (1) 
0

>  <PUBCHEM_ATOM_UDEF_STEREO_COUNT>  (1) 
0

>  <PUBCHEM_BOND_DEF_STEREO_COUNT>  (1) 
0

>  <PUBCHEM_BOND_UDEF_STEREO_COUNT>  (1) 
0

>  <PUBCHEM_ISOTOPIC_ATOM_COUNT>  (1) 
0

>  <PUBCHEM_COMPONENT_COUNT>  (1) 
1

>  <PUBCHEM_CACTVS_TAUTO_COUNT>  (1) 
2

>  <PUBCHEM_CONFORMER_ID>  (1) 
000044BB00000001

>  <PUBCHEM_MMFF94_ENERGY>  (1) 
5.7976

>  <PUBCHEM_FEATURE_SELFOVERLAP>  (1) 
10.148

>  <PUBCHEM_SHAPE_FINGERPRINT>  (1) 
16714656 1 18409732880273366964
18185500 45 18115579495328561424
21040471 1 18410848828746194616
23552423 10 18262798437131277130
29004967 10 15841548587332409240
5084963 1 18273214170831418720

>  <PUBCHEM_SHAPE_MULTIPOLES>  (1) 
153.79
2.85
1.59
0.73
1.39
0.46
0.02
-0.52
0.48
-0.49
-0.06
0.19
-0.03
-0.07

>  <PUBCHEM_SHAPE_SELFOVERLAP>  (1) 
299.347

>  <PUBCHEM_SHAPE_VOLUME>  (1) 
95.4

>  <PUBCHEM_COORDINATE_TYPE>  (1) 
2
5
10

$$$$
