17594
     RDKit          3D

 18 19  0  0  0  0  0  0  0  0999 V2000
   -1.3022   -1.7175   -0.3621 O   0  0  0  0  0  0  0  0  0  0  0  0
    4.0392    2.0026   -0.7618 O   0  0  0  0  0  0  0  0  0  0  0  0
    3.9460   -0.0732    0.3521 N   0  0  0  0  0  0  0  0  0  0  0  0
   -5.3257    2.0385    0.4317 N   0  0  0  0  0  0  0  0  0  0  0  0
    0.0080   -1.3062   -0.1827 C   0  0  0  0  0  0  0  0  0  0  0  0
    2.6258   -0.4868    0.1718 C   0  0  0  0  0  0  0  0  0  0  0  0
   -2.2862   -0.7977   -0.1681 C   0  0  0  0  0  0  0  0  0  0  0  0
    0.4156   -0.1004   -0.7240 C   0  0  0  0  0  0  0  0  0  0  0  0
    0.8754   -2.1129    0.5313 C   0  0  0  0  0  0  0  0  0  0  0  0
    1.7360    0.3127   -0.5453 C   0  0  0  0  0  0  0  0  0  0  0  0
    2.1956   -1.6996    0.7101 C   0  0  0  0  0  0  0  0  0  0  0  0
   -2.2460    0.0432    0.9442 C   0  0  0  0  0  0  0  0  0  0  0  0
   -3.3360   -0.6967   -1.0811 C   0  0  0  0  0  0  0  0  0  0  0  0
   -4.3052    1.0858    0.2308 C   0  0  0  0  0  0  0  0  0  0  0  0
   -3.2555    0.9849    1.1437 C   0  0  0  0  0  0  0  0  0  0  0  0
   -4.3455    0.2451   -0.8816 C   0  0  0  0  0  0  0  0  0  0  0  0
    4.5552    1.1018   -0.1083 C   0  0  0  0  0  0  0  0  0  0  0  0
    6.0053    1.1765    0.2994 C   0  0  0  0  0  0  0  0  0  0  0  0
  1  5  1  0
  1  7  1  0
  2 17  2  0
  3  6  1  0
  3 17  1  0
  4 14  1  0
  5  8  2  0
  5  9  1  0
  6 10  2  0
  6 11  1  0
  7 12  2  0
  7 13  1  0
  8 10  1  0
  9 11  2  0
 12 15  1  0
 13 16  2  0
 14 15  2  0
 14 16  1  0
 17 18  1  0
M  END
>  <PUBCHEM_COMPOUND_CID>  (1) 
17594

>  <PUBCHEM_CONFORMER_RMSD>  (1) 
0.6

>  <PUBCHEM_CONFORMER_DIVERSEORDER>  (1) 
1
8
7
3
9
12
2
4
5
6
10
11

>  <PUBCHEM_MMFF94_PARTIAL_CHARGES>  (1) 
29
1 -0.17
10 -0.15
11 -0.15
12 -0.15
13 -0.15
14 0.1
15 -0.15
16 -0.15
17 0.57
18 0.06
19 0.15
2 -0.57
20 0.15
21 0.15
22 0.15
23 0.15
24 0.15
25 0.37
26 0.15
27 0.15
28 0.4
29 0.4
3 -0.55
4 -0.9
5 0.08
6 0.12
7 0.08
8 -0.15
9 -0.15

>  <PUBCHEM_EFFECTIVE_ROTOR_COUNT>  (1) 
4

>  <PUBCHEM_PHARMACOPHORE_FEATURES>  (1) 
7
1 1 acceptor
1 2 acceptor
1 3 donor
1 4 cation
1 4 donor
6 5 6 8 9 10 11 rings
6 7 12 13 14 15 16 rings

>  <PUBCHEM_HEAVY_ATOM_COUNT>  (1) 
18

>  <PUBCHEM_ATOM_DEF_STEREO_COUNT>  (1) 
0

>  <PUBCHEM_ATOM_UDEF_STEREO_COUNT>  (1) 
0

>  <PUBCHEM_BOND_DEF_STEREO_COUNT>  (1) 
0

>  <PUBCHEM_BOND_UDEF_STEREO_COUNT>  (1) 
0

>  <PUBCHEM_ISOTOPIC_ATOM_COUNT>  (1) 
0

>  <PUBCHEM_COMPONENT_COUNT>  (1) 
1

>  <PUBCHEM_CACTVS_TAUTO_COUNT>  (1) 
2

>  <PUBCHEM_CONFORMER_ID>  (1) 
000044BA00000001

>  <PUBCHEM_MMFF94_ENERGY>  (1) 
72.1121

>  <PUBCHEM_FEATURE_SELFOVERLAP>  (1) 
35.52

>  <PUBCHEM_SHAPE_FINGERPRINT>  (1) 
10498660 4 17703789206403445161
11046707 91 8070034354259568495
11089746 13 18343293799807915340
12236239 1 18343297054823387551
12390115 104 18117012159317144358
12633257 1 15864364574526816153
12644460 14 17749659724019443586
12892183 10 16153983539548967963
13288520 33 8502379935740754346
13583140 156 15213561451823734718
13631057 29 18193268814148293463
13675066 3 16443060578008378278
14123260 362 18201443588077848689
1420 369 8646772192294181128
14251764 75 17341270173009615729
14350574 20 12535343532184474023
14739800 52 17916281949448934026
15188451 53 14562824295776885073
15209294 21 18409164441784141084
15342168 16 18408326570868614565
15375358 24 17168139031462025415
17780758 139 12612742523571578805
18222031 100 10447930542712013198
193927 3 8790886323713188688
19784866 170 17675925391559559550
19784866 34 18408885131033390250
20112054 13 18041000643581465375
20157964 124 18262514776712246469
20300324 65 17560799961389650951
204376 136 18260550043163386658
21713013 43 12894774918945740433
22950370 63 9007068976015051564
23402539 116 18059852887616517716
23402655 69 18130784546897208686
235170 7 15626234523879559460
23557571 272 16917067802323392655
23559900 14 17416965019593048342
23596394 208 15410905032808340996
270888 7 18342177713796180529
2838139 119 18201996655586335272
293599 30 18410293631751996492
296302 2 18335417950525433299
3472631 163 18130790019329518389
34797466 226 16558469806895847820
4259306 186 11312057647018358745
441001 317 18131069367753656736
465052 167 8069154780224739929
474 4 18334012808755725242
5104073 3 18113899346898337003
5924683 9 16226618510478032995
633830 44 18411138021980051334
636775 72 18052816146950522888
76465 3 9295290534335154042

>  <PUBCHEM_SHAPE_MULTIPOLES>  (1) 
348.73
11.69
1.98
0.99
4.75
0.11
-0.01
-8.66
-0.31
0.37
-0.19
-0.58
-0.03
-1.1

>  <PUBCHEM_SHAPE_SELFOVERLAP>  (1) 
747.501

>  <PUBCHEM_SHAPE_VOLUME>  (1) 
192.5

>  <PUBCHEM_COORDINATE_TYPE>  (1) 
2
5
10

$$$$
