17605
     RDKit          3D

 13 13  0  0  0  0  0  0  0  0999 V2000
   -0.6557   -2.6767   -0.5015 Br  0  0  0  0  0  0  0  0  0  0  0  0
    4.1749   -0.2420    0.9946 N   0  0  0  0  0  0  0  0  0  0  0  0
    1.4687    1.0206   -2.3247 N   0  0  0  0  0  0  0  0  0  0  0  0
   -0.6863    0.0194    0.5512 C   0  0  0  0  0  0  0  0  0  0  0  0
   -1.4233   -0.9958   -0.0584 C   0  0  0  0  0  0  0  0  0  0  0  0
   -1.2963    1.2354    0.8595 C   0  0  0  0  0  0  0  0  0  0  0  0
   -2.7703   -0.7952   -0.3596 C   0  0  0  0  0  0  0  0  0  0  0  0
   -2.6434    1.4360    0.5581 C   0  0  0  0  0  0  0  0  0  0  0  0
   -3.3804    0.4208   -0.0515 C   0  0  0  0  0  0  0  0  0  0  0  0
    0.7241   -0.1325    0.8903 C   0  0  0  0  0  0  0  0  0  0  0  0
    1.7807    0.1480    0.0917 C   0  0  0  0  0  0  0  0  0  0  0  0
    3.1009   -0.0678    0.5908 C   0  0  0  0  0  0  0  0  0  0  0  0
    1.6064    0.6297   -1.2406 C   0  0  0  0  0  0  0  0  0  0  0  0
  1  5  1  0
  2 12  3  0
  3 13  3  0
  4  5  2  0
  4  6  1  0
  4 10  1  0
  5  7  1  0
  6  8  2  0
  7  9  2  0
  8  9  1  0
 10 11  2  3
 11 12  1  0
 11 13  1  0
M  END
>  <PUBCHEM_COMPOUND_CID>  (1) 
17605

>  <PUBCHEM_CONFORMER_RMSD>  (1) 
0.4

>  <PUBCHEM_CONFORMER_DIVERSEORDER>  (1) 
2
4
3
1

>  <PUBCHEM_MMFF94_PARTIAL_CHARGES>  (1) 
18
1 -0.11
10 -0.18
11 0.13
12 0.49
13 0.49
14 0.15
15 0.15
16 0.15
17 0.15
18 0.15
2 -0.56
3 -0.56
4 0.03
5 0.11
6 -0.15
7 -0.15
8 -0.15
9 -0.15

>  <PUBCHEM_EFFECTIVE_ROTOR_COUNT>  (1) 
1

>  <PUBCHEM_PHARMACOPHORE_FEATURES>  (1) 
4
1 1 hydrophobe
1 2 acceptor
1 3 acceptor
6 4 5 6 7 8 9 rings

>  <PUBCHEM_HEAVY_ATOM_COUNT>  (1) 
13

>  <PUBCHEM_ATOM_DEF_STEREO_COUNT>  (1) 
0

>  <PUBCHEM_ATOM_UDEF_STEREO_COUNT>  (1) 
0

>  <PUBCHEM_BOND_DEF_STEREO_COUNT>  (1) 
0

>  <PUBCHEM_BOND_UDEF_STEREO_COUNT>  (1) 
0

>  <PUBCHEM_ISOTOPIC_ATOM_COUNT>  (1) 
0

>  <PUBCHEM_COMPONENT_COUNT>  (1) 
1

>  <PUBCHEM_CACTVS_TAUTO_COUNT>  (1) 
1

>  <PUBCHEM_CONFORMER_ID>  (1) 
000044C500000002

>  <PUBCHEM_MMFF94_ENERGY>  (1) 
28.0369

>  <PUBCHEM_FEATURE_SELFOVERLAP>  (1) 
20.297

>  <PUBCHEM_SHAPE_FINGERPRINT>  (1) 
12716758 59 18059306391250271015
13581323 91 18413388756414629739
14115302 16 18263358243247720191
14614273 12 18339921490234485617
15207287 21 17131825495196344950
15219456 202 16486981660875106076
15775835 57 18342456989480019265
15852999 172 17846503612407574254
16945 1 18200606881399178339
17357990 137 18116177517805957365
20201158 50 16774079574409797513
20279233 1 16845857884104925781
20645464 45 17489588969777539707
20645476 183 18115601468286692231
20645477 70 14332855816167100869
21130352 189 16298386863953639412
23175994 123 15647330789183236462
23402539 116 17916851483086266949
23419403 2 15889604031319479906
23552423 10 18124884447892545627
23557571 272 17560809861083715273
23559900 14 17989203721135338514
23598291 2 17895478123835655454
305870 269 18268147548341788443
3286 77 15791737429186336449
6992083 37 18186516609650462574
7364860 26 17771065986503209255
74978 22 17095532837072313888
77492 1 18186523223810330080

>  <PUBCHEM_SHAPE_MULTIPOLES>  (1) 
263.51
5.41
1.86
1.33
2.68
1.48
0.91
-1.02
-0.91
-1.29
0.02
1.09
-0.35
-0.46

>  <PUBCHEM_SHAPE_SELFOVERLAP>  (1) 
537.313

>  <PUBCHEM_SHAPE_VOLUME>  (1) 
154.4

>  <PUBCHEM_COORDINATE_TYPE>  (1) 
2
5
10

$$$$
