17609
     RDKit          3D

  8  7  0  0  0  0  0  0  0  0999 V2000
   -0.8561   -1.9230   -0.0135 Cl  0  0  0  0  0  0  0  0  0  0  0  0
   -3.1390    0.4750   -0.0512 Cl  0  0  0  0  0  0  0  0  0  0  0  0
    1.1536    0.1591    0.1419 S   0  0  0  0  0  0  0  0  0  0  0  0
    1.3251    1.4876    0.7032 O   0  0  0  0  0  0  0  0  0  0  0  0
    1.9114   -0.9515    0.6910 O   0  0  0  0  0  0  0  0  0  0  0  0
    1.5795    0.2709   -1.5785 C   0  0  0  0  0  0  0  0  0  0  0  0
   -0.5298   -0.2438    0.0651 C   0  0  0  0  0  0  0  0  0  0  0  0
   -1.4447    0.7256    0.0421 C   0  0  0  0  0  0  0  0  0  0  0  0
  1  7  1  0
  2  8  1  0
  3  4  2  0
  3  5  2  0
  3  6  1  0
  3  7  1  0
  7  8  2  0
M  END
>  <PUBCHEM_COMPOUND_CID>  (1) 
17609

>  <PUBCHEM_CONFORMER_RMSD>  (1) 
0.4

>  <PUBCHEM_CONFORMER_DIVERSEORDER>  (1) 
1
4
6
2
5
3

>  <PUBCHEM_MMFF94_PARTIAL_CHARGES>  (1) 
9
1 -0.14
12 0.15
2 -0.14
3 1.21
4 -0.65
5 -0.65
6 0.11
7 0.12
8 -0.01

>  <PUBCHEM_EFFECTIVE_ROTOR_COUNT>  (1) 
1

>  <PUBCHEM_PHARMACOPHORE_FEATURES>  (1) 
2
1 4 acceptor
1 5 acceptor

>  <PUBCHEM_HEAVY_ATOM_COUNT>  (1) 
8

>  <PUBCHEM_ATOM_DEF_STEREO_COUNT>  (1) 
0

>  <PUBCHEM_ATOM_UDEF_STEREO_COUNT>  (1) 
0

>  <PUBCHEM_BOND_DEF_STEREO_COUNT>  (1) 
0

>  <PUBCHEM_BOND_UDEF_STEREO_COUNT>  (1) 
1

>  <PUBCHEM_ISOTOPIC_ATOM_COUNT>  (1) 
0

>  <PUBCHEM_COMPONENT_COUNT>  (1) 
1

>  <PUBCHEM_CACTVS_TAUTO_COUNT>  (1) 
1

>  <PUBCHEM_CONFORMER_ID>  (1) 
000044C900000001

>  <PUBCHEM_MMFF94_ENERGY>  (1) 
8.9052

>  <PUBCHEM_FEATURE_SELFOVERLAP>  (1) 
10.167

>  <PUBCHEM_SHAPE_FINGERPRINT>  (1) 
137420 1 10009029672900576684
21040471 1 18408324406041605735
23552423 10 18040996297101195507
24536 1 17202780300562111770
29004967 10 15410888561524221299
3248919 1 16988558005390570365
5084963 1 17822008653830437889

>  <PUBCHEM_SHAPE_MULTIPOLES>  (1) 
160.49
3.4
1.54
1.02
2.2
0.67
-0.35
-0.77
-0.19
0.11
0.18
-0.65
-0.13
-0.07

>  <PUBCHEM_SHAPE_SELFOVERLAP>  (1) 
274.74

>  <PUBCHEM_SHAPE_VOLUME>  (1) 
109

>  <PUBCHEM_COORDINATE_TYPE>  (1) 
2
5
10

$$$$
