17612
     RDKit          3D

 15 15  0  0  1  0  0  0  0  0999 V2000
    1.9577    0.7180    2.4041 S   0  0  0  0  0  0  0  0  0  0  0  0
   -4.5975   -0.7229   -0.3336 S   0  0  0  0  0  0  0  0  0  0  0  0
    2.2204    0.7235    0.4744 P   0  0  0  0  0  0  0  0  0  0  0  0
    0.9880    1.2755   -0.4221 O   0  0  0  0  0  0  0  0  0  0  0  0
    2.5842   -0.6798   -0.2585 O   0  0  0  0  0  0  0  0  0  0  0  0
   -0.3008    0.8143   -0.4018 C   0  0  0  0  0  0  0  0  0  0  0  0
    3.5333    1.8080   -0.1131 C   0  0  0  0  0  0  0  0  0  0  0  0
    3.8275   -1.3154   -0.0195 C   0  0  0  0  0  0  0  0  0  0  0  0
   -0.5512   -0.5189   -0.0943 C   0  0  0  0  0  0  0  0  0  0  0  0
   -1.3485    1.6829   -0.6884 C   0  0  0  0  0  0  0  0  0  0  0  0
   -2.9197   -0.1227   -0.3599 C   0  0  0  0  0  0  0  0  0  0  0  0
   -1.8645   -0.9887   -0.0733 C   0  0  0  0  0  0  0  0  0  0  0  0
   -2.6617    1.2131   -0.6674 C   0  0  0  0  0  0  0  0  0  0  0  0
    3.8915   -2.5934   -0.8283 C   0  0  0  0  0  0  0  0  0  0  0  0
   -4.7587   -1.2934    1.3819 C   0  0  0  0  0  0  0  0  0  0  0  0
  1  3  2  0
  2 11  1  0
  2 15  1  0
  3  4  1  0
  3  5  1  0
  3  7  1  0
  4  6  1  0
  5  8  1  0
  6  9  2  0
  6 10  1  0
  8 14  1  0
  9 12  1  0
 10 13  2  0
 11 12  2  0
 11 13  1  0
M  END
>  <PUBCHEM_COMPOUND_CID>  (1) 
17612

>  <PUBCHEM_CONFORMER_RMSD>  (1) 
0.6

>  <PUBCHEM_CONFORMER_DIVERSEORDER>  (1) 
3
78
66
89
36
85
72
61
75
6
88
7
33
54
58
52
51
21
79
16
86
46
69
20
26
84
77
5
19
15
38
23
50
8
40
87
59
60
74
34
27
11
2
65
42
47
14
68
92
13
22
31
35
73
24
12
18
17
44
81
57
70
1
25
83
64
63
10
37
28
45
9
39
29
71
4
56
90
53
41
48
43
62
67
82
91
32
76
55
49
80
30

>  <PUBCHEM_MMFF94_PARTIAL_CHARGES>  (1) 
17
1 -0.68
10 -0.15
11 0.1
12 -0.15
13 -0.15
15 0.23
2 -0.33
21 0.15
22 0.15
23 0.15
24 0.15
3 1.22
4 -0.35
5 -0.55
6 0.08
8 0.28
9 -0.15

>  <PUBCHEM_EFFECTIVE_ROTOR_COUNT>  (1) 
5

>  <PUBCHEM_PHARMACOPHORE_FEATURES>  (1) 
2
1 15 hydrophobe
6 6 9 10 11 12 13 rings

>  <PUBCHEM_HEAVY_ATOM_COUNT>  (1) 
15

>  <PUBCHEM_ATOM_DEF_STEREO_COUNT>  (1) 
0

>  <PUBCHEM_ATOM_UDEF_STEREO_COUNT>  (1) 
1

>  <PUBCHEM_BOND_DEF_STEREO_COUNT>  (1) 
0

>  <PUBCHEM_BOND_UDEF_STEREO_COUNT>  (1) 
0

>  <PUBCHEM_ISOTOPIC_ATOM_COUNT>  (1) 
0

>  <PUBCHEM_COMPONENT_COUNT>  (1) 
1

>  <PUBCHEM_CACTVS_TAUTO_COUNT>  (1) 
1

>  <PUBCHEM_CONFORMER_ID>  (1) 
000044CC00000003

>  <PUBCHEM_MMFF94_ENERGY>  (1) 
27.8559

>  <PUBCHEM_FEATURE_SELFOVERLAP>  (1) 
10.148

>  <PUBCHEM_SHAPE_FINGERPRINT>  (1) 
11543360 7 13551471488561429419
12032990 46 18260551143154672623
12616999 72 18334580187321751252
12633257 1 17060624408116505975
12932764 1 17417518220012541724
13296908 3 18335976515048220197
13533116 47 17988923396967529651
13675066 3 18336542806992586877
13911882 115 18190472729828429666
13955234 65 18342457101534388368
14251710 61 18335707117546075495
14252887 29 18261395606249127321
15295992 7 17417238828469698417
15342816 4 17240473740984592761
17041 49 15913038820327215282
17804303 29 18341051804892604350
17834074 16 18410853235414561662
18186145 218 17530959168366911557
193927 3 18187373129419600531
20281475 54 18271522108667862031
20510252 161 18410006641948243697
20645477 70 18410846668388493375
20671657 53 18268998583827631580
20871998 22 18334580174157287461
20871999 31 17895199848503773646
23557571 272 17749378274179826420
23559900 14 18336819823350256324
3060560 45 13551193256469858362
31174 14 17846205692006303432
3286 77 17703782617933980361
5104073 3 18409445860483594737
633830 44 18114452410279751231
7364860 26 18338514252800643372
8030462 33 16298660586493450300
9709674 26 18334857242265476166

>  <PUBCHEM_SHAPE_MULTIPOLES>  (1) 
308.5
9.1
2.16
1.37
3.83
0.68
1.11
4.54
0.73
-2.21
-0.48
-0.22
-0.2
1.53

>  <PUBCHEM_SHAPE_SELFOVERLAP>  (1) 
574.663

>  <PUBCHEM_SHAPE_VOLUME>  (1) 
197.2

>  <PUBCHEM_COORDINATE_TYPE>  (1) 
2
5
10

$$$$
