17616
     RDKit          3D

 12 12  0  0  1  0  0  0  0  0999 V2000
   -2.2510    1.8869   -0.5446 O   0  0  0  0  0  0  0  0  0  0  0  0
    3.4924    1.1125    0.5334 O   0  0  0  0  0  0  0  0  0  0  0  0
   -0.3122   -0.9962    0.0522 C   0  0  0  0  0  0  0  0  0  0  0  0
    1.0590   -0.3798    0.3989 C   0  0  0  0  0  0  0  0  0  0  0  0
   -0.9506    0.2489    0.7026 C   0  0  0  0  0  0  0  0  0  0  0  0
    0.3602    0.9956    0.3779 C   0  0  0  0  0  0  0  0  0  0  0  0
   -0.6168   -1.1392   -1.4221 C   0  0  0  0  0  0  0  0  0  0  0  0
   -0.5723   -2.3100    0.7654 C   0  0  0  0  0  0  0  0  0  0  0  0
    2.1560   -0.5202   -0.6539 C   0  0  0  0  0  0  0  0  0  0  0  0
   -2.2484    0.8057    0.0419 C   0  0  0  0  0  0  0  0  0  0  0  0
    3.3751    0.3310   -0.4045 C   0  0  0  0  0  0  0  0  0  0  0  0
   -3.4914   -0.0352    0.1527 C   0  0  0  0  0  0  0  0  0  0  0  0
  1 10  2  0
  2 11  2  0
  3  4  1  0
  3  5  1  0
  3  7  1  0
  3  8  1  0
  4  6  1  0
  4  9  1  0
  5  6  1  0
  5 10  1  0
  9 11  1  0
 10 12  1  0
M  END
>  <PUBCHEM_COMPOUND_CID>  (1) 
17616

>  <PUBCHEM_CONFORMER_RMSD>  (1) 
0.6

>  <PUBCHEM_CONFORMER_DIVERSEORDER>  (1) 
8
18
33
27
9
21
23
12
24
31
2
10
15
19
3
25
20
30
1
13
32
26
17
6
29
4
16
5
22
7
28
11
14

>  <PUBCHEM_MMFF94_PARTIAL_CHARGES>  (1) 
8
1 -0.57
10 0.46
11 0.45
12 0.06
2 -0.57
25 0.06
5 0.05
9 0.06

>  <PUBCHEM_EFFECTIVE_ROTOR_COUNT>  (1) 
3.8

>  <PUBCHEM_PHARMACOPHORE_FEATURES>  (1) 
4
1 1 acceptor
1 2 acceptor
3 3 7 8 hydrophobe
4 3 4 5 6 rings

>  <PUBCHEM_HEAVY_ATOM_COUNT>  (1) 
12

>  <PUBCHEM_ATOM_DEF_STEREO_COUNT>  (1) 
0

>  <PUBCHEM_ATOM_UDEF_STEREO_COUNT>  (1) 
2

>  <PUBCHEM_BOND_DEF_STEREO_COUNT>  (1) 
0

>  <PUBCHEM_BOND_UDEF_STEREO_COUNT>  (1) 
0

>  <PUBCHEM_ISOTOPIC_ATOM_COUNT>  (1) 
0

>  <PUBCHEM_COMPONENT_COUNT>  (1) 
1

>  <PUBCHEM_CACTVS_TAUTO_COUNT>  (1) 
6

>  <PUBCHEM_CONFORMER_ID>  (1) 
000044D000000008

>  <PUBCHEM_MMFF94_ENERGY>  (1) 
22.5654

>  <PUBCHEM_FEATURE_SELFOVERLAP>  (1) 
20.297

>  <PUBCHEM_SHAPE_FINGERPRINT>  (1) 
12119455 92 17023169522909520455
12138202 97 18202280325064149758
12423570 1 15167235857127947811
12716758 59 18409737265793782850
13024252 1 18114462369823821542
13380535 76 18412545418480716018
14128692 85 11455590102563522072
14325111 11 18337955597239089208
14993402 34 18186805789640168925
15775835 57 18341332210591380045
16945 1 18188505651828247507
18186145 218 18199757959459108268
20653085 51 18131079194596553896
21028194 46 18411426072482606862
21293036 1 18131913762561027709
21524375 3 18411135797075780030
23402539 116 18336817675781971981
23419403 2 10868961388827913440
23552423 10 17903919959481327739
2748010 2 18263936440144897847
305870 269 18041836186666902874
369184 2 18334576880096595954
5084963 1 18342181046489744417
528862 383 17896028854512304250
6333449 129 18059852917406800092
69090 78 18059852887173360606
81228 2 18120105127932952171

>  <PUBCHEM_SHAPE_MULTIPOLES>  (1) 
235.22
4.85
1.76
0.99
1.85
0.47
0.19
-2.04
0.18
-0.58
-0.13
-0.03
0.25
0.33

>  <PUBCHEM_SHAPE_SELFOVERLAP>  (1) 
467.27

>  <PUBCHEM_SHAPE_VOLUME>  (1) 
141.5

>  <PUBCHEM_COORDINATE_TYPE>  (1) 
2
5
10

$$$$
