17623
     RDKit          3D

 14 14  0  0  0  0  0  0  0  0999 V2000
    2.8504   -0.7464   -0.3854 O   0  0  0  0  0  0  0  0  0  0  0  0
    1.1748   -1.9048    0.6866 O   0  0  0  0  0  0  0  0  0  0  0  0
   -3.4938   -0.0585   -0.1565 O   0  0  0  0  0  0  0  0  0  0  0  0
   -1.2576   -0.7866   -0.0003 N   0  0  0  0  0  0  0  0  0  0  0  0
   -0.5234    0.4028    0.0171 C   0  0  0  0  0  0  0  0  0  0  0  0
    0.8688    0.3868    0.1037 C   0  0  0  0  0  0  0  0  0  0  0  0
   -1.2039    1.6186   -0.0524 C   0  0  0  0  0  0  0  0  0  0  0  0
    1.5803    1.5865    0.1209 C   0  0  0  0  0  0  0  0  0  0  0  0
   -0.4924    2.8182   -0.0353 C   0  0  0  0  0  0  0  0  0  0  0  0
    0.8996    2.8021    0.0514 C   0  0  0  0  0  0  0  0  0  0  0  0
    1.6108   -0.8656    0.1786 C   0  0  0  0  0  0  0  0  0  0  0  0
   -2.6461   -0.9420   -0.0814 C   0  0  0  0  0  0  0  0  0  0  0  0
   -3.0454   -2.3964   -0.0723 C   0  0  0  0  0  0  0  0  0  0  0  0
    3.6779   -1.9146   -0.3746 C   0  0  0  0  0  0  0  0  0  0  0  0
  1 11  1  0
  1 14  1  0
  2 11  2  0
  3 12  2  0
  4  5  1  0
  4 12  1  0
  5  6  2  0
  5  7  1  0
  6  8  1  0
  6 11  1  0
  7  9  2  0
  8 10  2  0
  9 10  1  0
 12 13  1  0
M  END
>  <PUBCHEM_COMPOUND_CID>  (1) 
17623

>  <PUBCHEM_CONFORMER_RMSD>  (1) 
0.6

>  <PUBCHEM_CONFORMER_DIVERSEORDER>  (1) 
1
9
8
5
6
3
4
7
2

>  <PUBCHEM_MMFF94_PARTIAL_CHARGES>  (1) 
19
1 -0.43
10 -0.15
11 0.63
12 0.57
13 0.06
14 0.28
15 0.15
16 0.15
17 0.37
18 0.15
19 0.15
2 -0.57
3 -0.57
4 -0.55
5 0.12
6 0.09
7 -0.15
8 -0.15
9 -0.15

>  <PUBCHEM_EFFECTIVE_ROTOR_COUNT>  (1) 
4

>  <PUBCHEM_PHARMACOPHORE_FEATURES>  (1) 
4
1 2 acceptor
1 3 acceptor
1 4 donor
6 5 6 7 8 9 10 rings

>  <PUBCHEM_HEAVY_ATOM_COUNT>  (1) 
14

>  <PUBCHEM_ATOM_DEF_STEREO_COUNT>  (1) 
0

>  <PUBCHEM_ATOM_UDEF_STEREO_COUNT>  (1) 
0

>  <PUBCHEM_BOND_DEF_STEREO_COUNT>  (1) 
0

>  <PUBCHEM_BOND_UDEF_STEREO_COUNT>  (1) 
0

>  <PUBCHEM_ISOTOPIC_ATOM_COUNT>  (1) 
0

>  <PUBCHEM_COMPONENT_COUNT>  (1) 
1

>  <PUBCHEM_CACTVS_TAUTO_COUNT>  (1) 
3

>  <PUBCHEM_CONFORMER_ID>  (1) 
000044D700000001

>  <PUBCHEM_MMFF94_ENERGY>  (1) 
44.8451

>  <PUBCHEM_FEATURE_SELFOVERLAP>  (1) 
20.297

>  <PUBCHEM_SHAPE_FINGERPRINT>  (1) 
1 1 17763181744991716085
10967382 1 18050004698946422017
12553582 1 18337386050443248387
13380535 76 17543906166786406595
14251717 144 17978220883657491615
15001771 113 18411987961595125241
15442244 35 18413394254611046129
161256 15 18411415146049252732
16945 1 18049434842960194240
17990270 104 18265328598159846499
193761 8 18410854343516526696
20645477 70 18122051268500276783
20871998 184 17985823731495485606
20871998 22 18412261761391210456
221490 88 18119815965175927355
22213442 358 18412262843849751486
2334 1 18265893738509509489
23526114 1 18266458883180819063
23530152 11 17113258295693565781
23552423 10 18264487454753410173
23557571 272 18058174917198487078
23559900 14 17766553561620365846
23598294 1 18048314440373886723
2748010 2 18338784680551522500
3071541 250 18338527424984759556
458136 41 17614867517872535497
54173680 148 18194965141102734982
7364860 26 18197497543893366049
81228 2 18195813968157983408

>  <PUBCHEM_SHAPE_MULTIPOLES>  (1) 
265.52
4.87
3.35
0.64
1.08
1.33
-0.01
-4.49
0.59
-0.65
0.01
-0.09
-0.06
0.16

>  <PUBCHEM_SHAPE_SELFOVERLAP>  (1) 
550.202

>  <PUBCHEM_SHAPE_VOLUME>  (1) 
151.6

>  <PUBCHEM_COORDINATE_TYPE>  (1) 
2
5
10

$$$$
