1763
     RDKit          3D

 22 24  0  0  1  0  0  0  0  0999 V2000
    3.2714    1.0395   -0.1258 S   0  0  0  0  0  0  0  0  0  0  0  0
    0.7412   -0.5967    0.4100 O   0  0  0  0  0  0  0  0  0  0  0  0
   -0.8065   -3.7446   -0.3362 O   0  0  0  0  0  0  0  0  0  0  0  0
    1.8627   -3.3326    0.0179 O   0  0  0  0  0  0  0  0  0  0  0  0
   -1.6107   -0.7759    0.6300 N   0  0  0  0  0  0  0  0  0  0  0  0
   -3.6953   -0.2618    1.2350 N   0  0  0  0  0  0  0  0  0  0  0  0
   -1.1166    1.1191   -0.8076 N   0  0  0  0  0  0  0  0  0  0  0  0
   -3.0118    2.6510   -0.9396 N   0  0  0  0  0  0  0  0  0  0  0  0
   -5.0619    2.2625    0.2323 N   0  0  0  0  0  0  0  0  0  0  0  0
    7.0016    2.3805    0.7174 N   0  0  0  0  0  0  0  0  0  0  0  0
   -0.2807   -2.4698   -0.6452 C   0  0  0  0  0  0  0  0  0  0  0  0
    1.2090   -2.4925   -0.9281 C   0  0  0  0  0  0  0  0  0  0  0  0
   -0.3568   -1.5219    0.5465 C   0  0  0  0  0  0  0  0  0  0  0  0
    1.5616   -1.0267   -0.6985 C   0  0  0  0  0  0  0  0  0  0  0  0
    3.0169   -0.7376   -0.3810 C   0  0  0  0  0  0  0  0  0  0  0  0
   -1.9072    0.4036    0.0064 C   0  0  0  0  0  0  0  0  0  0  0  0
   -2.7169   -1.1347    1.3554 C   0  0  0  0  0  0  0  0  0  0  0  0
   -3.2029    0.7049    0.3947 C   0  0  0  0  0  0  0  0  0  0  0  0
    5.0460    1.0063    0.2168 C   0  0  0  0  0  0  0  0  0  0  0  0
   -3.7540    1.8783   -0.1104 C   0  0  0  0  0  0  0  0  0  0  0  0
    5.5684    2.4197    0.4423 C   0  0  0  0  0  0  0  0  0  0  0  0
   -1.7578    2.2296   -1.2324 C   0  0  0  0  0  0  0  0  0  0  0  0
  1 15  1  0
  1 19  1  0
  2 13  1  0
  2 14  1  0
  3 11  1  0
  4 12  1  0
  5 13  1  0
  5 16  1  0
  5 17  1  0
  6 17  2  0
  6 18  1  0
  7 16  1  0
  7 22  2  0
  8 20  2  0
  8 22  1  0
  9 20  1  0
 10 21  1  0
 11 12  1  0
 11 13  1  0
 12 14  1  0
 14 15  1  0
 16 18  2  0
 18 20  1  0
 19 21  1  0
M  END
>  <PUBCHEM_COMPOUND_CID>  (1) 
1763

>  <PUBCHEM_CONFORMER_RMSD>  (1) 
0.8

>  <PUBCHEM_CONFORMER_DIVERSEORDER>  (1) 
1
144
229
282
50
5
296
63
275
352
126
224
136
369
230
128
395
402
290
140
340
60
411
348
87
123
94
11
20
139
375
360
216
388
106
33
286
287
313
364
203
190
100
197
122
104
19
172
95
357
103
227
141
305
154
385
41
319
299
169
212
344
181
62
371
145
418
180
332
159
34
358
393
114
47
198
277
56
183
263
233
269
389
247
108
342
162
178
326
415
330
4
37
245
179
186
259
271
76
398
251
164
14
166
240
124
253
311
202
312
214
149
419
260
165
255
231
46
13
112
285
17
133
82
404
218
170
244
331
266
175
65
219
228
196
28
96
401
322
192
381
7
339
119
382
298
52
243
239
69
232
26
116
337
129
397
188
70
394
350
407
148
310
336
85
132
73
191
57
241
171
59
267
204
21
44
31
120
333
268
146
417
354
107
355
265
318
308
258
75
414
400
248
74
289
353
16
380
206
220
392
390
45
156
8
292
213
403
420
84
167
109
22
416
317
161
264
90
238
101
315
185
23
48
43
345
66
343
173
200
111
3
365
89
279
405
92
413
293
36
40
135
91
284
174
261
221
80
288
127
321
194
55
158
309
39
30
223
367
163
18
125
242
384
67
257
152
406
391
410
346
294
58
320
335
177
182
160
187
42
361
222
349
328
113
157
226
252
276
81
378
10
347
211
237
176
205
303
27
217
195
105
235
49
98
379
236
199
280
68
374
9
225
302
97
307
72
274
61
78
142
118
291
110
270
151
25
314
12
304
64
377
295
51
53
234
2
99
341
408
24
93
121
387
88
210
208
273
38
215
373
325
351
283
207
6
366
201
376
386
130
272
77
256
131
138
153
362
184
409
316
363
29
189
249
281
306
383
327
54
324
370
254
71
209
329
356
338
334
15
368
137
323
262
102
134
359
250
115
301
193
278
300
79
117
372
396
143
150
35
399
83
86
246
32
155
168
412
147
297

>  <PUBCHEM_MMFF94_PARTIAL_CHARGES>  (1) 
30
1 -0.46
10 -0.99
11 0.28
12 0.28
13 0.54
14 0.28
15 0.23
16 0.11
17 0.04
18 0.23
19 0.23
2 -0.56
20 0.41
21 0.27
22 0.47
29 0.4
3 -0.68
30 0.4
31 0.15
36 0.15
37 0.4
38 0.4
39 0.36
4 -0.68
40 0.36
5 0.05
6 -0.57
7 -0.57
8 -0.62
9 -0.9

>  <PUBCHEM_EFFECTIVE_ROTOR_COUNT>  (1) 
6

>  <PUBCHEM_PHARMACOPHORE_FEATURES>  (1) 
15
1 10 cation
1 10 donor
1 2 acceptor
1 3 acceptor
1 3 donor
1 4 acceptor
1 4 donor
1 9 cation
1 9 donor
3 5 6 17 cation
3 5 7 16 cation
3 7 8 22 cation
5 2 11 12 13 14 rings
5 5 6 16 17 18 rings
6 7 8 16 18 20 22 rings

>  <PUBCHEM_HEAVY_ATOM_COUNT>  (1) 
22

>  <PUBCHEM_ATOM_DEF_STEREO_COUNT>  (1) 
0

>  <PUBCHEM_ATOM_UDEF_STEREO_COUNT>  (1) 
4

>  <PUBCHEM_BOND_DEF_STEREO_COUNT>  (1) 
0

>  <PUBCHEM_BOND_UDEF_STEREO_COUNT>  (1) 
0

>  <PUBCHEM_ISOTOPIC_ATOM_COUNT>  (1) 
0

>  <PUBCHEM_COMPONENT_COUNT>  (1) 
1

>  <PUBCHEM_CACTVS_TAUTO_COUNT>  (1) 
3

>  <PUBCHEM_CONFORMER_ID>  (1) 
000006E300000001

>  <PUBCHEM_MMFF94_ENERGY>  (1) 
46.1542

>  <PUBCHEM_FEATURE_SELFOVERLAP>  (1) 
76.741

>  <PUBCHEM_SHAPE_FINGERPRINT>  (1) 
10165383 225 18201166549723305569
10411042 1 17474668833270888654
10608611 8 18045510711835830607
10871710 139 17472155336798889020
12107183 9 18336813218755795562
12403259 118 18041568047695736036
12403259 415 18340782480832035014
12892183 10 17822009822351862162
13140716 1 17831592233296008867
13402501 40 18410575093575579000
13583140 156 17023725914833022084
14251764 38 18194680367733871488
14508225 48 17480286207895771054
17980427 23 17749114430038272909
20645477 56 18270969067557335808
21033648 29 18270953653004847632
21302155 148 18190748716428344868
23227448 37 18269557311511917124
23466295 7 12281194095184032476
23557571 272 17897474759900845467
23559900 14 17976820887311695899
2748010 2 18190203212309800007
4371632 12 15695158643233322184
495365 180 18126837205964892699
5104073 3 18260556571444793841
6327066 14 18410004455641111148
633830 44 17559694844492008506
7399639 24 18336560339017700731
7808743 9 18338794641329729400
9709674 26 17831309302890121031
9862522 239 18335695070452720396
9925002 15 17834971041250137103
9981440 41 18334579065960955442

>  <PUBCHEM_SHAPE_MULTIPOLES>  (1) 
409.11
10.68
4
1.05
15.92
1.96
-0.02
-13.12
-3.14
0.39
0.8
-0.48
-0.03
1.7

>  <PUBCHEM_SHAPE_SELFOVERLAP>  (1) 
856.901

>  <PUBCHEM_SHAPE_VOLUME>  (1) 
234.7

>  <PUBCHEM_COORDINATE_TYPE>  (1) 
2
5
10

$$$$
