17639
     RDKit          3D

 10 10  0  0  0  0  0  0  0  0999 V2000
    2.7329   -1.0266    0.8333 S   0  0  0  0  0  0  0  0  0  0  0  0
    2.7714    1.5567   -0.6872 S   0  0  0  0  0  0  0  0  0  0  0  0
    0.7414   -0.1914   -0.7268 O   0  0  0  0  0  0  0  0  0  0  0  0
   -0.2016   -0.9795   -0.0033 C   0  0  0  0  0  0  0  0  0  0  0  0
   -0.5275   -0.3032    1.3293 C   0  0  0  0  0  0  0  0  0  0  0  0
   -1.4522   -1.1598   -0.8639 C   0  0  0  0  0  0  0  0  0  0  0  0
   -1.2929    1.0065    1.1381 C   0  0  0  0  0  0  0  0  0  0  0  0
   -2.2184    0.1504   -1.0502 C   0  0  0  0  0  0  0  0  0  0  0  0
   -2.5445    0.8067    0.2883 C   0  0  0  0  0  0  0  0  0  0  0  0
    1.9915    0.1401   -0.2575 C   0  0  0  0  0  0  0  0  0  0  0  0
  1 10  1  0
  2 10  2  0
  3  4  1  0
  3 10  1  0
  4  5  1  0
  4  6  1  0
  5  7  1  0
  6  8  1  0
  7  9  1  0
  8  9  1  0
M  END
>  <PUBCHEM_COMPOUND_CID>  (1) 
17639

>  <PUBCHEM_CONFORMER_RMSD>  (1) 
0.6

>  <PUBCHEM_CONFORMER_DIVERSEORDER>  (1) 
1
8
3
9
5
10
2
7
4
6

>  <PUBCHEM_MMFF94_PARTIAL_CHARGES>  (1) 
6
1 -0.32
10 0.67
2 -0.38
22 0.18
3 -0.43
4 0.28

>  <PUBCHEM_EFFECTIVE_ROTOR_COUNT>  (1) 
3.2

>  <PUBCHEM_PHARMACOPHORE_FEATURES>  (1) 
3
1 2 acceptor
3 1 2 10 anion
6 4 5 6 7 8 9 rings

>  <PUBCHEM_HEAVY_ATOM_COUNT>  (1) 
10

>  <PUBCHEM_ATOM_DEF_STEREO_COUNT>  (1) 
0

>  <PUBCHEM_ATOM_UDEF_STEREO_COUNT>  (1) 
0

>  <PUBCHEM_BOND_DEF_STEREO_COUNT>  (1) 
0

>  <PUBCHEM_BOND_UDEF_STEREO_COUNT>  (1) 
0

>  <PUBCHEM_ISOTOPIC_ATOM_COUNT>  (1) 
0

>  <PUBCHEM_COMPONENT_COUNT>  (1) 
1

>  <PUBCHEM_CACTVS_TAUTO_COUNT>  (1) 
1

>  <PUBCHEM_CONFORMER_ID>  (1) 
000044E700000001

>  <PUBCHEM_MMFF94_ENERGY>  (1) 
17.7119

>  <PUBCHEM_FEATURE_SELFOVERLAP>  (1) 
15.223

>  <PUBCHEM_SHAPE_FINGERPRINT>  (1) 
12716758 59 16988846021032851679
12897270 3 15554450673628847860
12932764 1 17894355475176708310
13024252 1 13551743119156488975
15310529 11 18334858359035906003
15775835 57 18409454699652915868
16945 1 18189050889363017815
20645464 45 16081081615038663384
20653085 51 18260546688835827853
20715346 28 16370728131922701588
21040471 1 17488472870711837811
23552423 10 17987805102783039463
3248919 1 18272929418942425950
369184 2 17967534592428296475
5084963 1 18336816516093361434

>  <PUBCHEM_SHAPE_MULTIPOLES>  (1) 
207.62
4.37
1.45
1.29
1.7
0.21
0.17
1.06
-0.15
0.97
0
-0.62
-0.04
-0.6

>  <PUBCHEM_SHAPE_SELFOVERLAP>  (1) 
383.319

>  <PUBCHEM_SHAPE_VOLUME>  (1) 
132.4

>  <PUBCHEM_COORDINATE_TYPE>  (1) 
2
5
10

$$$$
