17641
     RDKit          3D

 11 11  0  0  0  0  0  0  0  0999 V2000
    3.7501    1.7039   -0.0316 S   0  0  0  0  0  0  0  0  0  0  0  0
    3.7141   -1.2932    0.0243 S   0  0  0  0  0  0  0  0  0  0  0  0
    1.5201    0.2443   -0.0049 O   0  0  0  0  0  0  0  0  0  0  0  0
   -0.7629   -0.4221    0.0078 C   0  0  0  0  0  0  0  0  0  0  0  0
    0.6551   -0.8845    0.0167 C   0  0  0  0  0  0  0  0  0  0  0  0
   -1.4258   -0.1824    1.2116 C   0  0  0  0  0  0  0  0  0  0  0  0
   -1.4262   -0.2289   -1.2040 C   0  0  0  0  0  0  0  0  0  0  0  0
   -2.7518    0.2503    1.2037 C   0  0  0  0  0  0  0  0  0  0  0  0
   -2.7522    0.2039   -1.2119 C   0  0  0  0  0  0  0  0  0  0  0  0
   -3.4149    0.4435   -0.0081 C   0  0  0  0  0  0  0  0  0  0  0  0
    2.8944    0.1651   -0.0035 C   0  0  0  0  0  0  0  0  0  0  0  0
  1 11  1  0
  2 11  2  0
  3  5  1  0
  3 11  1  0
  4  5  1  0
  4  6  2  0
  4  7  1  0
  6  8  1  0
  7  9  2  0
  8 10  2  0
  9 10  1  0
M  END
>  <PUBCHEM_COMPOUND_CID>  (1) 
17641

>  <PUBCHEM_CONFORMER_RMSD>  (1) 
0.6

>  <PUBCHEM_CONFORMER_DIVERSEORDER>  (1) 
1
3
4
2
6
5

>  <PUBCHEM_MMFF94_PARTIAL_CHARGES>  (1) 
17
1 -0.32
10 -0.15
11 0.67
14 0.15
15 0.15
16 0.15
17 0.15
18 0.15
19 0.18
2 -0.38
3 -0.43
4 -0.14
5 0.42
6 -0.15
7 -0.15
8 -0.15
9 -0.15

>  <PUBCHEM_EFFECTIVE_ROTOR_COUNT>  (1) 
3

>  <PUBCHEM_PHARMACOPHORE_FEATURES>  (1) 
3
1 2 acceptor
3 1 2 11 anion
6 4 6 7 8 9 10 rings

>  <PUBCHEM_HEAVY_ATOM_COUNT>  (1) 
11

>  <PUBCHEM_ATOM_DEF_STEREO_COUNT>  (1) 
0

>  <PUBCHEM_ATOM_UDEF_STEREO_COUNT>  (1) 
0

>  <PUBCHEM_BOND_DEF_STEREO_COUNT>  (1) 
0

>  <PUBCHEM_BOND_UDEF_STEREO_COUNT>  (1) 
0

>  <PUBCHEM_ISOTOPIC_ATOM_COUNT>  (1) 
0

>  <PUBCHEM_COMPONENT_COUNT>  (1) 
1

>  <PUBCHEM_CACTVS_TAUTO_COUNT>  (1) 
1

>  <PUBCHEM_CONFORMER_ID>  (1) 
000044E900000001

>  <PUBCHEM_MMFF94_ENERGY>  (1) 
29.2502

>  <PUBCHEM_FEATURE_SELFOVERLAP>  (1) 
15.223

>  <PUBCHEM_SHAPE_FINGERPRINT>  (1) 
10465860 71 15626231259719940288
10857977 72 16370448864659427423
11132069 177 16660363696888184797
12932764 1 17676485051536591474
13024252 1 16008748009591651479
14144814 61 17489870436153837546
15775835 57 18059859488685962780
18186145 218 18411985758566916230
20279233 1 17675921010714042522
20645464 45 17458059386944755505
20645476 183 17489304243399810164
20645477 70 18336542729699422198
20653085 51 18410286978494376637
20715346 28 17748828531487716246
20871998 184 16588321496287677651
23402539 116 15410321157647626585
23559900 14 16443342027774519354
3248919 1 17847063285469740598
528716 315 16343705469054152989
77492 1 17775564221642229674

>  <PUBCHEM_SHAPE_MULTIPOLES>  (1) 
228.2
7.38
1.24
1.15
4.05
0.23
0
1.45
0
1.77
0
-1.1
0.01
-0.01

>  <PUBCHEM_SHAPE_SELFOVERLAP>  (1) 
442.409

>  <PUBCHEM_SHAPE_VOLUME>  (1) 
139.6

>  <PUBCHEM_COORDINATE_TYPE>  (1) 
2
5
10

$$$$
