17648
     RDKit          3D

 29 31  0  0  1  0  0  0  0  0999 V2000
    5.5574    1.8024   -0.1061 S   0  0  0  0  0  0  0  0  0  0  0  0
   -0.7710    1.9828    1.4083 O   0  0  0  0  0  0  0  0  0  0  0  0
   -3.4911    2.1147    1.1311 O   0  0  0  0  0  0  0  0  0  0  0  0
   -4.7503    0.7422   -0.9117 O   0  0  0  0  0  0  0  0  0  0  0  0
    4.2883   -0.0059    1.9539 O   0  0  0  0  0  0  0  0  0  0  0  0
   -0.2059   -4.6393    0.5255 O   0  0  0  0  0  0  0  0  0  0  0  0
   -0.2264   -2.3124    0.5677 N   0  0  0  0  0  0  0  0  0  0  0  0
    0.7704   -2.0894   -0.4597 C   0  0  0  0  0  0  0  0  0  0  0  0
    0.1762   -2.2224   -1.8802 C   0  0  0  0  0  0  0  0  0  0  0  0
   -0.4503   -0.9787   -2.5241 C   0  0  0  0  0  0  0  0  0  0  0  0
    1.5370   -0.8065   -0.1346 C   0  0  0  0  0  0  0  0  0  0  0  0
   -1.2559   -0.1390   -1.5684 C   0  0  0  0  0  0  0  0  0  0  0  0
   -0.6080    0.5672   -0.5337 C   0  0  0  0  0  0  0  0  0  0  0  0
    0.8733    0.4795   -0.3994 C   0  0  0  0  0  0  0  0  0  0  0  0
   -1.3686    1.3202    0.3738 C   0  0  0  0  0  0  0  0  0  0  0  0
   -2.6501   -0.0682   -1.6836 C   0  0  0  0  0  0  0  0  0  0  0  0
    2.7385   -0.9363    0.4591 C   0  0  0  0  0  0  0  0  0  0  0  0
    1.5155    1.6383   -0.6463 C   0  0  0  0  0  0  0  0  0  0  0  0
   -2.7560    1.3824    0.2459 C   0  0  0  0  0  0  0  0  0  0  0  0
   -3.3948    0.6913   -0.7813 C   0  0  0  0  0  0  0  0  0  0  0  0
    3.6630    0.1343    0.9056 C   0  0  0  0  0  0  0  0  0  0  0  0
   -0.6256   -3.5734    0.9686 C   0  0  0  0  0  0  0  0  0  0  0  0
    2.9346    1.8878   -0.7056 C   0  0  0  0  0  0  0  0  0  0  0  0
    3.9018    1.2814   -0.0070 C   0  0  0  0  0  0  0  0  0  0  0  0
   -1.6531   -3.5195    2.0673 C   0  0  0  0  0  0  0  0  0  0  0  0
   -0.6264    1.2691    2.6326 C   0  0  0  0  0  0  0  0  0  0  0  0
   -3.7313    3.4799    0.7984 C   0  0  0  0  0  0  0  0  0  0  0  0
   -5.5054   -0.2506   -0.2205 C   0  0  0  0  0  0  0  0  0  0  0  0
    6.1141    0.7683   -1.4758 C   0  0  0  0  0  0  0  0  0  0  0  0
  1 24  1  0
  1 29  1  0
  2 15  1  0
  2 26  1  0
  3 19  1  0
  3 27  1  0
  4 20  1  0
  4 28  1  0
  5 21  2  0
  6 22  2  0
  7  8  1  0
  7 22  1  0
  8  9  1  0
  8 11  1  0
  9 10  1  0
 10 12  1  0
 11 14  1  0
 11 17  2  0
 12 13  2  0
 12 16  1  0
 13 14  1  0
 13 15  1  0
 14 18  2  0
 15 19  2  0
 16 20  2  0
 17 21  1  0
 18 23  1  0
 19 20  1  0
 21 24  1  0
 22 25  1  0
 23 24  2  0
M  END
>  <PUBCHEM_COMPOUND_CID>  (1) 
17648

>  <PUBCHEM_CONFORMER_RMSD>  (1) 
0.8

>  <PUBCHEM_CONFORMER_DIVERSEORDER>  (1) 
1
11
20
6
5
9
26
3
12
25
27
23
13
19
18
15
22
14
10
7
2
17
4
24
16
8
21

>  <PUBCHEM_MMFF94_PARTIAL_CHARGES>  (1) 
33
1 -0.33
10 0.14
11 -0.14
12 -0.14
13 0.03
14 -0.03
15 0.08
16 -0.15
17 -0.14
18 -0.15
19 0.08
2 -0.36
20 0.08
21 0.54
22 0.57
23 -0.15
24 0.12
25 0.06
26 0.28
27 0.28
28 0.28
29 0.23
3 -0.36
35 0.37
36 0.15
37 0.15
38 0.15
39 0.15
4 -0.36
5 -0.57
6 -0.57
7 -0.73
8 0.44

>  <PUBCHEM_EFFECTIVE_ROTOR_COUNT>  (1) 
6.6

>  <PUBCHEM_PHARMACOPHORE_FEATURES>  (1) 
10
1 2 acceptor
1 29 hydrophobe
1 3 acceptor
1 4 acceptor
1 5 acceptor
1 6 acceptor
1 7 donor
6 12 13 15 16 19 20 rings
7 11 14 17 18 21 23 24 rings
7 8 9 10 11 12 13 14 rings

>  <PUBCHEM_HEAVY_ATOM_COUNT>  (1) 
29

>  <PUBCHEM_ATOM_DEF_STEREO_COUNT>  (1) 
1

>  <PUBCHEM_ATOM_UDEF_STEREO_COUNT>  (1) 
0

>  <PUBCHEM_BOND_DEF_STEREO_COUNT>  (1) 
0

>  <PUBCHEM_BOND_UDEF_STEREO_COUNT>  (1) 
0

>  <PUBCHEM_ISOTOPIC_ATOM_COUNT>  (1) 
0

>  <PUBCHEM_COMPONENT_COUNT>  (1) 
1

>  <PUBCHEM_CACTVS_TAUTO_COUNT>  (1) 
2

>  <PUBCHEM_CONFORMER_ID>  (1) 
000044F000000001

>  <PUBCHEM_MMFF94_ENERGY>  (1) 
129.5391

>  <PUBCHEM_FEATURE_SELFOVERLAP>  (1) 
50.774

>  <PUBCHEM_SHAPE_FINGERPRINT>  (1) 
10090160 65 18338222796250806543
11370993 70 18187359913973957907
1200032 147 17128764304917766153
12236239 1 18342453746732764188
12592029 89 18260537892626708881
12788726 201 18194670699446334110
13135754 10 17972622110514700706
13140716 1 17487601152113956861
13583140 156 17095529542727370648
13965767 371 17411912673674793889
14787075 74 18340475764396173831
14790565 3 18335987472037865452
14910302 57 12613578075848656136
15131766 46 16372707382525216556
20691752 17 18263937535308908772
20715895 44 17264969490606715281
20739085 24 18115878386751657268
21033650 10 17988382402702594956
21285901 2 8069484667355029401
21756936 100 18412546535467547108
22182313 1 18056508199236374862
23419403 2 17268639007241324251
23559900 14 16911997713568125797
3759504 43 18335699485483921948
392239 28 18410293636179261819
394222 165 18126842694843439443
404807 14 15547732465074780006
4058900 60 18188493458374104317
4258327 124 17605287374592279652
4340502 62 18334294262922309183
4409770 3 18191307297803738507
469060 322 15865463064327078182
474 4 18338795602732263148
59755656 520 18334856138801779278
7097593 13 17689437079663346953
9981440 41 17989198283532707270

>  <PUBCHEM_SHAPE_MULTIPOLES>  (1) 
566.33
9.37
4
2.04
7.06
4.03
-0.2
-6.89
0.98
-2.75
-2
-0.37
0.55
-0.45

>  <PUBCHEM_SHAPE_SELFOVERLAP>  (1) 
1193.71

>  <PUBCHEM_SHAPE_VOLUME>  (1) 
320.1

>  <PUBCHEM_COORDINATE_TYPE>  (1) 
2
5
10

$$$$
