17654
     RDKit          3D

 14 15  0  0  0  0  0  0  0  0999 V2000
    3.7201    0.9006   -0.1270 O   0  0  0  0  0  0  0  0  0  0  0  0
   -0.1063   -2.1452   -0.0983 N   0  0  0  0  0  0  0  0  0  0  0  0
   -4.8606    1.2608   -0.4207 N   0  0  0  0  0  0  0  0  0  0  0  0
   -1.6167   -0.5737    0.3210 C   0  0  0  0  0  0  0  0  0  0  0  0
   -0.3373    0.0456    0.2531 C   0  0  0  0  0  0  0  0  0  0  0  0
    0.5925   -0.9623   -0.0112 C   0  0  0  0  0  0  0  0  0  0  0  0
   -2.9060    0.0978    0.5809 C   0  0  0  0  0  0  0  0  0  0  0  0
   -1.4420   -1.9206    0.1012 C   0  0  0  0  0  0  0  0  0  0  0  0
    0.1203    1.3711    0.3914 C   0  0  0  0  0  0  0  0  0  0  0  0
   -3.6044    0.5757   -0.7057 C   0  0  0  0  0  0  0  0  0  0  0  0
    1.9625   -0.7099   -0.1447 C   0  0  0  0  0  0  0  0  0  0  0  0
    2.3931    0.6124   -0.0035 C   0  0  0  0  0  0  0  0  0  0  0  0
    1.4879    1.6385    0.2603 C   0  0  0  0  0  0  0  0  0  0  0  0
    4.5967   -0.1909   -0.3968 C   0  0  0  0  0  0  0  0  0  0  0  0
  1 12  1  0
  1 14  1  0
  2  6  1  0
  2  8  1  0
  3 10  1  0
  4  5  1  0
  4  7  1  0
  4  8  2  0
  5  6  2  0
  5  9  1  0
  6 11  1  0
  7 10  1  0
  9 13  2  0
 11 12  2  0
 12 13  1  0
M  END
>  <PUBCHEM_COMPOUND_CID>  (1) 
17654

>  <PUBCHEM_CONFORMER_RMSD>  (1) 
0.6

>  <PUBCHEM_CONFORMER_DIVERSEORDER>  (1) 
1
4
8
2
5
7
6
9
3

>  <PUBCHEM_MMFF94_PARTIAL_CHARGES>  (1) 
20
1 -0.36
10 0.27
11 -0.15
12 0.08
13 -0.15
14 0.28
17 0.15
18 0.27
19 0.15
2 0.03
22 0.15
23 0.15
24 0.36
25 0.36
3 -0.99
4 -0.18
6 -0.15
7 0.18
8 -0.3
9 -0.15

>  <PUBCHEM_EFFECTIVE_ROTOR_COUNT>  (1) 
3

>  <PUBCHEM_PHARMACOPHORE_FEATURES>  (1) 
7
1 1 acceptor
1 2 cation
1 2 donor
1 3 cation
1 3 donor
5 2 4 5 6 8 rings
6 5 6 9 11 12 13 rings

>  <PUBCHEM_HEAVY_ATOM_COUNT>  (1) 
14

>  <PUBCHEM_ATOM_DEF_STEREO_COUNT>  (1) 
0

>  <PUBCHEM_ATOM_UDEF_STEREO_COUNT>  (1) 
0

>  <PUBCHEM_BOND_DEF_STEREO_COUNT>  (1) 
0

>  <PUBCHEM_BOND_UDEF_STEREO_COUNT>  (1) 
0

>  <PUBCHEM_ISOTOPIC_ATOM_COUNT>  (1) 
0

>  <PUBCHEM_COMPONENT_COUNT>  (1) 
1

>  <PUBCHEM_CACTVS_TAUTO_COUNT>  (1) 
1

>  <PUBCHEM_CONFORMER_ID>  (1) 
000044F600000001

>  <PUBCHEM_MMFF94_ENERGY>  (1) 
27.0212

>  <PUBCHEM_FEATURE_SELFOVERLAP>  (1) 
35.612

>  <PUBCHEM_SHAPE_FINGERPRINT>  (1) 
10608611 8 18196089065092727416
11132069 177 18341893026246612320
11401426 45 18201715163339642736
11471102 20 18411980226216450853
11543360 7 15554441937575781529
124424 183 18409450306043439482
13380535 76 18413673504209420734
13571099 22 18273500069866920454
13760787 19 17530685420263219866
14115302 16 18335430092493028948
14897335 6 18412260640352303915
14911166 2 18342177765024064404
14943859 89 17530964691568227489
14993402 34 18343021085973404456
15099037 51 18411139130128605476
15279308 100 18338233872518002781
15775835 57 18260265256787671427
16945 1 18271255979392937626
17834072 8 18410862040593072614
18186145 218 18273500087052213905
18511873 20 18334858350683296224
193761 8 17691412914711253832
200 152 16773798090859041500
20233049 118 18334575741624664668
20645476 183 17824280386851387142
21029758 11 18059856164581989504
21524375 3 18408038516134180247
231179 274 17967527943982641053
23402539 116 18272926120259778140
23402655 69 18270954645105025093
23493267 7 17894632560612401417
23559900 14 18272374213685529096
25 1 18410005503760187615
2748010 2 18054512671003500248
3071541 37 18335422305311256007
34934 24 18411693310165074626
366044 4 18409446985959977067
4072396 5 18265317444224718106
528886 8 18412541028649314050
53812653 166 18411417327755112480
6430166 295 18334572451621394724

>  <PUBCHEM_SHAPE_MULTIPOLES>  (1) 
272.28
7.2
1.81
0.72
0.65
0.48
-0.01
-2.6
-1.63
0.37
0.04
0.22
-0.05
0.38

>  <PUBCHEM_SHAPE_SELFOVERLAP>  (1) 
581.712

>  <PUBCHEM_SHAPE_VOLUME>  (1) 
153.6

>  <PUBCHEM_COORDINATE_TYPE>  (1) 
2
5
10

$$$$
