17651
     RDKit          3D

 24 25  0  0  0  0  0  0  0  0999 V2000
    6.4665   -3.1654    0.1012 O   0  0  0  0  0  0  0  0  0  0  0  0
    6.1446    3.3433   -0.4624 O   0  0  0  0  0  0  0  0  0  0  0  0
   -7.6609    0.9525    0.5265 O   0  0  0  0  0  0  0  0  0  0  0  0
   -7.6547   -1.1091   -0.2276 O   0  0  0  0  0  0  0  0  0  0  0  0
    4.6408    0.0202   -0.0249 N   0  0  0  0  0  0  0  0  0  0  0  0
   -0.9230   -0.2061    0.5568 N   0  0  0  0  0  0  0  0  0  0  0  0
   -1.4807    0.1779   -0.4980 N   0  0  0  0  0  0  0  0  0  0  0  0
   -7.0535   -0.0534    0.0863 N   0  0  0  0  0  0  0  0  0  0  0  0
    5.3742   -1.1291   -0.5169 C   0  0  0  0  0  0  0  0  0  0  0  0
    5.3675    1.2236    0.3277 C   0  0  0  0  0  0  0  0  0  0  0  0
    3.2391   -0.0365    0.1216 C   0  0  0  0  0  0  0  0  0  0  0  0
    5.7666   -2.0467    0.6300 C   0  0  0  0  0  0  0  0  0  0  0  0
    5.4405    2.1732   -0.8574 C   0  0  0  0  0  0  0  0  0  0  0  0
    2.5432    1.0700    0.6086 C   0  0  0  0  0  0  0  0  0  0  0  0
    2.5486   -1.1993   -0.2206 C   0  0  0  0  0  0  0  0  0  0  0  0
    1.1570    1.0138    0.7537 C   0  0  0  0  0  0  0  0  0  0  0  0
    1.1624   -1.2554   -0.0756 C   0  0  0  0  0  0  0  0  0  0  0  0
    0.4667   -0.1489    0.4116 C   0  0  0  0  0  0  0  0  0  0  0  0
   -2.8772    0.1201   -0.3517 C   0  0  0  0  0  0  0  0  0  0  0  0
   -3.5669    1.2260    0.1352 C   0  0  0  0  0  0  0  0  0  0  0  0
   -3.5597   -1.0430   -0.6945 C   0  0  0  0  0  0  0  0  0  0  0  0
   -5.6425    0.0049   -0.0614 C   0  0  0  0  0  0  0  0  0  0  0  0
   -4.9529    1.1683    0.2808 C   0  0  0  0  0  0  0  0  0  0  0  0
   -4.9458   -1.1008   -0.5491 C   0  0  0  0  0  0  0  0  0  0  0  0
  1 12  1  0
  2 13  1  0
  3  8  1  0
  4  8  2  0
  5  9  1  0
  5 10  1  0
  5 11  1  0
  6  7  2  0
  6 18  1  0
  7 19  1  0
  8 22  1  0
  9 12  1  0
 10 13  1  0
 11 14  2  0
 11 15  1  0
 14 16  1  0
 15 17  2  0
 16 18  2  0
 17 18  1  0
 19 20  2  0
 19 21  1  0
 20 23  1  0
 21 24  2  0
 22 23  2  0
 22 24  1  0
M  CHG  2   3  -1   8   1
M  END
>  <PUBCHEM_COMPOUND_CID>  (1) 
17651

>  <PUBCHEM_CONFORMER_RMSD>  (1) 
0.8

>  <PUBCHEM_CONFORMER_DIVERSEORDER>  (1) 
2
11
5
12
16
1
14
7
4
6
10
8
15
13
9
3

>  <PUBCHEM_MMFF94_PARTIAL_CHARGES>  (1) 
34
1 -0.68
10 0.37
11 0.1
12 0.28
13 0.28
14 -0.15
15 -0.15
16 -0.15
17 -0.15
18 0.18
19 0.18
2 -0.68
20 -0.15
21 -0.15
22 0.13
23 -0.15
24 -0.15
3 -0.52
33 0.15
34 0.15
35 0.15
36 0.15
37 0.4
38 0.4
39 0.15
4 -0.52
40 0.15
41 0.15
42 0.15
5 -0.84
6 -0.18
7 -0.18
8 0.91
9 0.37

>  <PUBCHEM_EFFECTIVE_ROTOR_COUNT>  (1) 
8

>  <PUBCHEM_PHARMACOPHORE_FEATURES>  (1) 
10
1 1 acceptor
1 1 donor
1 2 acceptor
1 2 donor
1 3 acceptor
1 3 anion
1 4 acceptor
1 5 cation
6 11 14 15 16 17 18 rings
6 19 20 21 22 23 24 rings

>  <PUBCHEM_HEAVY_ATOM_COUNT>  (1) 
24

>  <PUBCHEM_ATOM_DEF_STEREO_COUNT>  (1) 
0

>  <PUBCHEM_ATOM_UDEF_STEREO_COUNT>  (1) 
0

>  <PUBCHEM_BOND_DEF_STEREO_COUNT>  (1) 
0

>  <PUBCHEM_BOND_UDEF_STEREO_COUNT>  (1) 
0

>  <PUBCHEM_ISOTOPIC_ATOM_COUNT>  (1) 
0

>  <PUBCHEM_COMPONENT_COUNT>  (1) 
1

>  <PUBCHEM_CACTVS_TAUTO_COUNT>  (1) 
1

>  <PUBCHEM_CONFORMER_ID>  (1) 
000044F300000002

>  <PUBCHEM_MMFF94_ENERGY>  (1) 
78.4037

>  <PUBCHEM_FEATURE_SELFOVERLAP>  (1) 
50.828

>  <PUBCHEM_SHAPE_FINGERPRINT>  (1) 
10299344 5 18343865520047488911
10411042 1 18192992609713211210
10595046 47 18412544340100897020
11315181 36 18410575120378513121
11524674 6 15985101934157923895
11719270 70 17703507710115980710
11796584 16 14117512169015530628
12166972 35 18261114054137455460
12236239 1 18413389834952528849
12616971 3 17988349413132011374
13533116 47 18412261732017497040
14251764 18 18060419136479173695
14341114 176 18409449189362595933
14933364 13 18410576184644438989
15183329 4 17775011192941988489
15716309 27 18413388731399193343
17844677 252 18336550421727191540
18335252 98 18262523722422463347
20157964 124 18335701659396684872
20281389 69 18260546706131981813
21267235 1 18343586209249031219
21315763 28 18411136905303897447
21521721 280 18335988643956665179
22224240 67 17240479243412549923
23035841 295 18413106143899462987
23081809 10 18131064952569409599
23522609 53 18058192624879929945
23536379 177 18413387618242898202
23559900 14 18270109236563923057
23569943 247 17825101506725073619
3004659 81 18272935999533878422
34797466 226 18059866081518895436
3545911 37 18272931627014356913
4073 2 18188493600218976954
4325135 7 18411983585234577284
4340502 62 16660637479937243048
5104073 3 18202561787082255370
59755656 520 18040713667596284859

>  <PUBCHEM_SHAPE_MULTIPOLES>  (1) 
450.51
21.52
2.36
0.79
18.25
0.25
0.02
-0.5
0.76
-6.05
0.21
-0.26
0.08
-1.38

>  <PUBCHEM_SHAPE_SELFOVERLAP>  (1) 
947.417

>  <PUBCHEM_SHAPE_VOLUME>  (1) 
254.8

>  <PUBCHEM_COORDINATE_TYPE>  (1) 
2
5
10

$$$$
