17659
     RDKit          3D

 26 27  0  0  0  0  0  0  0  0999 V2000
    0.5708   -1.4029   -0.0791 O   0  0  0  0  0  0  0  0  0  0  0  0
   -1.2812   -0.7328    1.7255 O   0  0  0  0  0  0  0  0  0  0  0  0
   -1.3085   -2.2105   -1.1301 O   0  0  0  0  0  0  0  0  0  0  0  0
    4.7483   -0.7259   -0.2746 N   0  0  0  0  0  0  0  0  0  0  0  0
   -1.4980   -0.2869    0.3712 C   0  0  0  0  0  0  0  0  0  0  0  0
    3.3531   -0.8470   -0.6796 C   0  0  0  0  0  0  0  0  0  0  0  0
    2.8102   -2.2221   -0.3042 C   0  0  0  0  0  0  0  0  0  0  0  0
    1.3589   -2.3865   -0.7350 C   0  0  0  0  0  0  0  0  0  0  0  0
   -2.9973   -0.2102    0.0727 C   0  0  0  0  0  0  0  0  0  0  0  0
   -0.8301    1.0745    0.1648 C   0  0  0  0  0  0  0  0  0  0  0  0
    5.4255    0.3079   -1.0595 C   0  0  0  0  0  0  0  0  0  0  0  0
    4.8460   -0.4233    1.1545 C   0  0  0  0  0  0  0  0  0  0  0  0
   -0.7738   -1.4176   -0.3641 C   0  0  0  0  0  0  0  0  0  0  0  0
    4.8044    1.6736   -0.8206 C   0  0  0  0  0  0  0  0  0  0  0  0
    6.2957   -0.3598    1.6044 C   0  0  0  0  0  0  0  0  0  0  0  0
   -3.4647   -0.4562   -1.2184 C   0  0  0  0  0  0  0  0  0  0  0  0
   -0.7415    1.9759    1.2258 C   0  0  0  0  0  0  0  0  0  0  0  0
   -3.8963    0.1052    1.0916 C   0  0  0  0  0  0  0  0  0  0  0  0
   -0.3096    1.4141   -1.0840 C   0  0  0  0  0  0  0  0  0  0  0  0
   -4.8310   -0.3866   -1.4907 C   0  0  0  0  0  0  0  0  0  0  0  0
   -0.1326    3.2167    1.0379 C   0  0  0  0  0  0  0  0  0  0  0  0
   -5.2626    0.1747    0.8192 C   0  0  0  0  0  0  0  0  0  0  0  0
    0.2994    2.6549   -1.2718 C   0  0  0  0  0  0  0  0  0  0  0  0
   -1.8432   -2.0142    1.9268 C   0  0  0  0  0  0  0  0  0  0  0  0
   -5.7299   -0.0712   -0.4720 C   0  0  0  0  0  0  0  0  0  0  0  0
    0.3878    3.5561   -0.2108 C   0  0  0  0  0  0  0  0  0  0  0  0
  1  8  1  0
  1 13  1  0
  2  5  1  0
  2 24  1  0
  3 13  2  0
  4  6  1  0
  4 11  1  0
  4 12  1  0
  5  9  1  0
  5 10  1  0
  5 13  1  0
  6  7  1  0
  7  8  1  0
  9 16  2  0
  9 18  1  0
 10 17  2  0
 10 19  1  0
 11 14  1  0
 12 15  1  0
 16 20  1  0
 17 21  1  0
 18 22  2  0
 19 23  2  0
 20 25  2  0
 21 26  2  0
 22 25  1  0
 23 26  1  0
M  END
>  <PUBCHEM_COMPOUND_CID>  (1) 
17659

>  <PUBCHEM_CONFORMER_RMSD>  (1) 
1.2

>  <PUBCHEM_CONFORMER_DIVERSEORDER>  (1) 
1
12
18
25
3
19
45
41
44
37
34
26
5
10
27
21
29
40
23
20
15
22
14
32
17
35
6
36
4
31
13
2
9
11
43
28
33
16
30
7
24
38
42
39
8

>  <PUBCHEM_MMFF94_PARTIAL_CHARGES>  (1) 
33
1 -0.43
10 -0.14
11 0.27
12 0.27
13 0.66
16 -0.15
17 -0.15
18 -0.15
19 -0.15
2 -0.56
20 -0.15
21 -0.15
22 -0.15
23 -0.15
24 0.28
25 -0.15
26 -0.15
3 -0.57
4 -0.81
43 0.15
44 0.15
45 0.15
46 0.15
47 0.15
48 0.15
49 0.15
5 0.63
50 0.15
54 0.15
55 0.15
6 0.27
8 0.28
9 -0.14

>  <PUBCHEM_EFFECTIVE_ROTOR_COUNT>  (1) 
11

>  <PUBCHEM_PHARMACOPHORE_FEATURES>  (1) 
5
1 2 acceptor
1 3 acceptor
1 4 cation
6 10 17 19 21 23 26 rings
6 9 16 18 20 22 25 rings

>  <PUBCHEM_HEAVY_ATOM_COUNT>  (1) 
26

>  <PUBCHEM_ATOM_DEF_STEREO_COUNT>  (1) 
0

>  <PUBCHEM_ATOM_UDEF_STEREO_COUNT>  (1) 
0

>  <PUBCHEM_BOND_DEF_STEREO_COUNT>  (1) 
0

>  <PUBCHEM_BOND_UDEF_STEREO_COUNT>  (1) 
0

>  <PUBCHEM_ISOTOPIC_ATOM_COUNT>  (1) 
0

>  <PUBCHEM_COMPONENT_COUNT>  (1) 
1

>  <PUBCHEM_CACTVS_TAUTO_COUNT>  (1) 
1

>  <PUBCHEM_CONFORMER_ID>  (1) 
000044FB00000001

>  <PUBCHEM_MMFF94_ENERGY>  (1) 
76.9854

>  <PUBCHEM_FEATURE_SELFOVERLAP>  (1) 
25.372

>  <PUBCHEM_SHAPE_FINGERPRINT>  (1) 
10090160 65 18335700516250218686
10366900 7 18410864239801106682
10498660 4 18340775939813387638
10670039 82 18266477442641685140
10906281 52 18264790820941162149
10930396 42 18119497008499322640
1100329 8 18341053041785306166
11112241 14 17271718687940571944
12035758 1 18261119590618916539
12107698 1 18193272993167199402
12467345 10 16128366112306197514
12788726 201 18261668165084877688
13149001 5 18187938308804180459
13533116 47 17458621165074225738
13782708 43 17241626055700104851
13911987 19 18335431178750704350
14117953 113 18411980231059960566
14170010 4 18412824707788350601
14251757 17 17385716967982422085
14347332 77 18055077549772466462
14787075 74 18408041801541445239
14840074 17 18271814526904738476
14910302 57 17489312937004740390
14955137 171 18270974530444695059
15840311 113 17416143689598184153
15849732 13 17918273143648037215
167882 2 18193556894209452237
17349148 13 18261120651222578692
17980427 23 17275106133141821093
18769570 83 17677326105022936949
18785283 64 17971213636103520141
20600515 1 17896056385268177455
20715895 44 17677043538734013285
21304303 64 18336274487474603061
23419403 2 17825420554834337411
23558518 356 17904205832309117290
23559900 14 18264211494415338312
34797466 226 15339116870342333594
350125 39 18126291831376817094
532947 4 18056473083119798584
6004065 56 18341889744828281559
70251023 43 18053672365005962919

>  <PUBCHEM_SHAPE_MULTIPOLES>  (1) 
512.48
12.02
3.17
1.61
8.36
2.3
0.37
-2.33
0.31
1.17
-0.09
-0.11
-0.12
-0.42

>  <PUBCHEM_SHAPE_SELFOVERLAP>  (1) 
1066.141

>  <PUBCHEM_SHAPE_VOLUME>  (1) 
291.4

>  <PUBCHEM_COORDINATE_TYPE>  (1) 
2
5
10

$$$$
