17650
     RDKit          3D

 28 30  0  0  1  0  0  0  0  0999 V2000
    5.4257    1.8563   -0.3720 S   0  0  0  0  0  0  0  0  0  0  0  0
   -0.8807    2.0062    1.2350 O   0  0  0  0  0  0  0  0  0  0  0  0
   -3.6078    2.0006    0.9989 O   0  0  0  0  0  0  0  0  0  0  0  0
   -4.8442    0.3225   -0.8172 O   0  0  0  0  0  0  0  0  0  0  0  0
    4.2602    0.2942    1.9357 O   0  0  0  0  0  0  0  0  0  0  0  0
   -0.0429   -4.6463    1.3157 O   0  0  0  0  0  0  0  0  0  0  0  0
   -0.1824   -2.3400    0.9614 N   0  0  0  0  0  0  0  0  0  0  0  0
    0.7889   -2.2199   -0.1068 C   0  0  0  0  0  0  0  0  0  0  0  0
    0.1784   -2.5631   -1.4845 C   0  0  0  0  0  0  0  0  0  0  0  0
   -0.5061   -1.4401   -2.2749 C   0  0  0  0  0  0  0  0  0  0  0  0
    1.5099   -0.8780    0.0291 C   0  0  0  0  0  0  0  0  0  0  0  0
   -1.3287   -0.5104   -1.4228 C   0  0  0  0  0  0  0  0  0  0  0  0
   -0.6928    0.3509   -0.5047 C   0  0  0  0  0  0  0  0  0  0  0  0
    0.7926    0.3361   -0.3904 C   0  0  0  0  0  0  0  0  0  0  0  0
   -1.4679    1.1901    0.3102 C   0  0  0  0  0  0  0  0  0  0  0  0
   -2.7263   -0.5065   -1.5176 C   0  0  0  0  0  0  0  0  0  0  0  0
    2.7247   -0.8834    0.6100 C   0  0  0  0  0  0  0  0  0  0  0  0
    1.3854    1.4741   -0.8022 C   0  0  0  0  0  0  0  0  0  0  0  0
   -2.8586    1.1839    0.2038 C   0  0  0  0  0  0  0  0  0  0  0  0
   -3.4859    0.3390   -0.7091 C   0  0  0  0  0  0  0  0  0  0  0  0
    3.6136    0.2703    0.8912 C   0  0  0  0  0  0  0  0  0  0  0  0
    2.7926    1.7651   -0.9234 C   0  0  0  0  0  0  0  0  0  0  0  0
    3.7933    1.2932   -0.1705 C   0  0  0  0  0  0  0  0  0  0  0  0
   -0.4973   -3.5362    1.5607 C   0  0  0  0  0  0  0  0  0  0  0  0
   -0.6893    1.4682    2.5400 C   0  0  0  0  0  0  0  0  0  0  0  0
   -3.9061    3.2994    0.4927 C   0  0  0  0  0  0  0  0  0  0  0  0
   -5.5492   -0.5960    0.0152 C   0  0  0  0  0  0  0  0  0  0  0  0
    6.0009    0.6696   -1.6034 C   0  0  0  0  0  0  0  0  0  0  0  0
  1 23  1  0
  1 28  1  0
  2 15  1  0
  2 25  1  0
  3 19  1  0
  3 26  1  0
  4 20  1  0
  4 27  1  0
  5 21  2  0
  6 24  2  0
  7  8  1  0
  7 24  1  0
  8  9  1  0
  8 11  1  0
  9 10  1  0
 10 12  1  0
 11 14  1  0
 11 17  2  0
 12 13  2  0
 12 16  1  0
 13 14  1  0
 13 15  1  0
 14 18  2  0
 15 19  2  0
 16 20  2  0
 17 21  1  0
 18 22  1  0
 19 20  1  0
 21 23  1  0
 22 23  2  0
M  END
>  <PUBCHEM_COMPOUND_CID>  (1) 
17650

>  <PUBCHEM_CONFORMER_RMSD>  (1) 
0.8

>  <PUBCHEM_CONFORMER_DIVERSEORDER>  (1) 
1
14
4
22
24
35
23
3
36
16
37
9
26
31
32
30
34
6
17
41
39
29
7
20
21
38
12
13
2
18
25
33
40
8
28
10
15
19
5
27
11

>  <PUBCHEM_MMFF94_PARTIAL_CHARGES>  (1) 
33
1 -0.33
10 0.14
11 -0.14
12 -0.14
13 0.03
14 -0.03
15 0.08
16 -0.15
17 -0.14
18 -0.15
19 0.08
2 -0.36
20 0.08
21 0.54
22 -0.15
23 0.12
24 0.57
25 0.28
26 0.28
27 0.28
28 0.23
3 -0.36
34 0.15
35 0.37
36 0.15
37 0.15
38 0.15
39 0.06
4 -0.36
5 -0.57
6 -0.57
7 -0.73
8 0.44

>  <PUBCHEM_EFFECTIVE_ROTOR_COUNT>  (1) 
6.6

>  <PUBCHEM_PHARMACOPHORE_FEATURES>  (1) 
10
1 2 acceptor
1 28 hydrophobe
1 3 acceptor
1 4 acceptor
1 5 acceptor
1 6 acceptor
1 7 donor
6 12 13 15 16 19 20 rings
7 11 14 17 18 21 22 23 rings
7 8 9 10 11 12 13 14 rings

>  <PUBCHEM_HEAVY_ATOM_COUNT>  (1) 
28

>  <PUBCHEM_ATOM_DEF_STEREO_COUNT>  (1) 
1

>  <PUBCHEM_ATOM_UDEF_STEREO_COUNT>  (1) 
0

>  <PUBCHEM_BOND_DEF_STEREO_COUNT>  (1) 
0

>  <PUBCHEM_BOND_UDEF_STEREO_COUNT>  (1) 
0

>  <PUBCHEM_ISOTOPIC_ATOM_COUNT>  (1) 
0

>  <PUBCHEM_COMPONENT_COUNT>  (1) 
1

>  <PUBCHEM_CACTVS_TAUTO_COUNT>  (1) 
2

>  <PUBCHEM_CONFORMER_ID>  (1) 
000044F200000001

>  <PUBCHEM_MMFF94_ENERGY>  (1) 
126.7217

>  <PUBCHEM_FEATURE_SELFOVERLAP>  (1) 
50.774

>  <PUBCHEM_SHAPE_FINGERPRINT>  (1) 
10090160 65 18336535063082247335
10670039 82 18272373044885115524
11370993 70 18113613487255713275
12236239 1 18411979174023725876
12592029 89 18114453496431755699
12788726 201 18120644996869573282
13135754 10 17826258434092463210
13140716 1 18265892458672740736
13583140 156 16805891800229253688
13782708 43 14404890458026017237
13965767 371 17626114040045701689
14341114 328 18412262839908179587
14787075 74 18339070605705325575
14790565 3 18334017160054079332
15131766 46 16011013145527069324
16752209 62 18131629010709146668
16945 1 18189045400547749183
20691752 17 18262249802208557692
20715895 44 17406548113999908921
20739085 24 17969509212697284828
21033650 10 18058471879506130644
21756936 100 18410016567801936660
22149856 69 16627425443612055025
23419403 2 17267518617767044347
23559900 14 17198256673950633159
3759504 43 18262236732760284166
392239 28 18336830883450401395
394222 165 18268706100269752523
404807 14 15906050106106259926
4058900 60 18187086100717698061
4258327 124 17387989809263124204
4340502 62 18260547831893331247
469060 322 16743975216725197652
474 4 18336262340789748376
59755656 215 17917999355845382149
59755656 520 18260829332328804502
633830 44 18339923701699298022
7097593 13 17760645863588642707
9981440 41 18131348657230525046

>  <PUBCHEM_SHAPE_MULTIPOLES>  (1) 
545.75
9.57
3.68
1.89
4.71
3.29
-0.33
-6.64
1.71
-1.68
-1.74
0.24
0.56
-1.01

>  <PUBCHEM_SHAPE_SELFOVERLAP>  (1) 
1153.128

>  <PUBCHEM_SHAPE_VOLUME>  (1) 
307.1

>  <PUBCHEM_COORDINATE_TYPE>  (1) 
2
5
10

$$$$
