17656
     RDKit          3D

  7  6  0  0  0  0  0  0  0  0999 V2000
   -0.9673    0.3060    0.6758 C   0  0  0  0  0  0  0  0  0  0  0  0
   -1.8807    0.1669   -0.5416 C   0  0  0  0  0  0  0  0  0  0  0  0
    0.4063    0.7652    0.2762 C   0  0  0  0  0  0  0  0  0  0  0  0
    1.4840    0.0036    0.0087 C   0  0  0  0  0  0  0  0  0  0  0  0
   -3.2798   -0.2731   -0.1395 C   0  0  0  0  0  0  0  0  0  0  0  0
    2.8352    0.5278   -0.3875 C   0  0  0  0  0  0  0  0  0  0  0  0
    1.4024   -1.4964    0.1078 C   0  0  0  0  0  0  0  0  0  0  0  0
  1  2  1  0
  1  3  1  0
  2  5  1  0
  3  4  2  3
  4  6  1  0
  4  7  1  0
M  END
>  <PUBCHEM_COMPOUND_CID>  (1) 
17656

>  <PUBCHEM_CONFORMER_RMSD>  (1) 
0.4

>  <PUBCHEM_CONFORMER_DIVERSEORDER>  (1) 
1
10
8
5
4
6
3
9
7
2

>  <PUBCHEM_MMFF94_PARTIAL_CHARGES>  (1) 
6
1 0.14
12 0.15
3 -0.29
4 -0.28
6 0.14
7 0.14

>  <PUBCHEM_EFFECTIVE_ROTOR_COUNT>  (1) 
2

>  <PUBCHEM_PHARMACOPHORE_FEATURES>  (1) 
2
1 5 hydrophobe
3 4 6 7 hydrophobe

>  <PUBCHEM_HEAVY_ATOM_COUNT>  (1) 
7

>  <PUBCHEM_ATOM_DEF_STEREO_COUNT>  (1) 
0

>  <PUBCHEM_ATOM_UDEF_STEREO_COUNT>  (1) 
0

>  <PUBCHEM_BOND_DEF_STEREO_COUNT>  (1) 
0

>  <PUBCHEM_BOND_UDEF_STEREO_COUNT>  (1) 
0

>  <PUBCHEM_ISOTOPIC_ATOM_COUNT>  (1) 
0

>  <PUBCHEM_COMPONENT_COUNT>  (1) 
1

>  <PUBCHEM_CACTVS_TAUTO_COUNT>  (1) 
1

>  <PUBCHEM_CONFORMER_ID>  (1) 
000044F800000001

>  <PUBCHEM_MMFF94_ENERGY>  (1) 
1.4557

>  <PUBCHEM_FEATURE_SELFOVERLAP>  (1) 
10.149

>  <PUBCHEM_SHAPE_FINGERPRINT>  (1) 
12897270 3 18335421278813844997
12932764 1 17846206757358581161
14390081 3 14996278115679052349
15310529 11 18335977593311696005
21293036 1 18339368560228548620
23552333 60 18272650108518391298
23552423 10 18192997015120314883
29004967 10 18408324384440279337
5460574 1 9511464424471398401

>  <PUBCHEM_SHAPE_MULTIPOLES>  (1) 
144.06
4.56
1.09
0.76
1.99
0.39
0.02
0.09
-0.8
-0.54
0.05
0.08
-0.04
-0.13

>  <PUBCHEM_SHAPE_SELFOVERLAP>  (1) 
253.636

>  <PUBCHEM_SHAPE_VOLUME>  (1) 
96

>  <PUBCHEM_COORDINATE_TYPE>  (1) 
2
5
10

$$$$
