17666
     RDKit          3D

 23 25  0  0  1  0  0  0  0  0999 V2000
    5.4736   -1.1963   -0.0751 O   0  0  0  0  0  0  0  0  0  0  0  0
    2.6830   -0.6363   -0.1018 N   0  0  0  0  0  0  0  0  0  0  0  0
   -1.3976    2.8063    2.2969 N   0  0  0  0  0  0  0  0  0  0  0  0
   -0.4876    1.5957    0.1214 C   0  0  0  0  0  0  0  0  0  0  0  0
    0.7993    0.8036    0.5392 C   0  0  0  0  0  0  0  0  0  0  0  0
    1.5077    0.0685   -0.6093 C   0  0  0  0  0  0  0  0  0  0  0  0
   -0.0437    2.7161   -0.8777 C   0  0  0  0  0  0  0  0  0  0  0  0
   -1.5043    0.6540   -0.5492 C   0  0  0  0  0  0  0  0  0  0  0  0
    3.6510    0.3090    0.4718 C   0  0  0  0  0  0  0  0  0  0  0  0
    3.3191   -1.4241   -1.1668 C   0  0  0  0  0  0  0  0  0  0  0  0
   -2.0265   -0.4235    0.1423 C   0  0  0  0  0  0  0  0  0  0  0  0
    4.8737   -0.4476    0.9828 C   0  0  0  0  0  0  0  0  0  0  0  0
    4.5490   -2.1405   -0.6164 C   0  0  0  0  0  0  0  0  0  0  0  0
    1.0244    3.6732   -0.3488 C   0  0  0  0  0  0  0  0  0  0  0  0
   -1.0075    2.2718    1.3429 C   0  0  0  0  0  0  0  0  0  0  0  0
   -1.8384    0.9624   -1.8485 C   0  0  0  0  0  0  0  0  0  0  0  0
   -2.9567   -1.2512   -0.5303 C   0  0  0  0  0  0  0  0  0  0  0  0
   -1.6737   -0.7232    1.4683 C   0  0  0  0  0  0  0  0  0  0  0  0
   -2.7535    0.1485   -2.5098 C   0  0  0  0  0  0  0  0  0  0  0  0
   -3.3098   -0.9515   -1.8562 C   0  0  0  0  0  0  0  0  0  0  0  0
   -3.5069   -2.3543    0.1428 C   0  0  0  0  0  0  0  0  0  0  0  0
   -2.2300   -1.8233    2.1215 C   0  0  0  0  0  0  0  0  0  0  0  0
   -3.1448   -2.6373    1.4601 C   0  0  0  0  0  0  0  0  0  0  0  0
  1 12  1  0
  1 13  1  0
  2  6  1  0
  2  9  1  0
  2 10  1  0
  3 15  3  0
  4  5  1  0
  4  7  1  0
  4  8  1  0
  4 15  1  0
  5  6  1  0
  7 14  1  0
  8 11  1  0
  8 16  2  0
  9 12  1  0
 10 13  1  0
 11 17  2  0
 11 18  1  0
 16 19  1  0
 17 20  1  0
 17 21  1  0
 18 22  2  0
 19 20  2  0
 21 23  2  0
 22 23  1  0
M  END
>  <PUBCHEM_COMPOUND_CID>  (1) 
17666

>  <PUBCHEM_CONFORMER_RMSD>  (1) 
0.8

>  <PUBCHEM_CONFORMER_DIVERSEORDER>  (1) 
2
3
1
10
31
14
27
18
26
7
32
4
5
9
20
15
8
30
22
16
17
19
25
13
12
24
11
29
6
28
21
23

>  <PUBCHEM_MMFF94_PARTIAL_CHARGES>  (1) 
25
1 -0.56
10 0.27
12 0.28
13 0.28
15 0.36
16 -0.15
18 -0.15
19 -0.15
2 -0.81
20 -0.15
21 -0.15
22 -0.15
23 -0.15
3 -0.56
4 0.34
41 0.15
42 0.15
43 0.15
44 0.15
45 0.15
46 0.15
47 0.15
6 0.27
8 -0.14
9 0.27

>  <PUBCHEM_EFFECTIVE_ROTOR_COUNT>  (1) 
6.2

>  <PUBCHEM_PHARMACOPHORE_FEATURES>  (1) 
7
1 1 acceptor
1 14 hydrophobe
1 2 cation
1 3 acceptor
6 1 2 9 10 12 13 rings
6 11 17 18 21 22 23 rings
6 8 11 16 17 19 20 rings

>  <PUBCHEM_HEAVY_ATOM_COUNT>  (1) 
23

>  <PUBCHEM_ATOM_DEF_STEREO_COUNT>  (1) 
0

>  <PUBCHEM_ATOM_UDEF_STEREO_COUNT>  (1) 
1

>  <PUBCHEM_BOND_DEF_STEREO_COUNT>  (1) 
0

>  <PUBCHEM_BOND_UDEF_STEREO_COUNT>  (1) 
0

>  <PUBCHEM_ISOTOPIC_ATOM_COUNT>  (1) 
0

>  <PUBCHEM_COMPONENT_COUNT>  (1) 
1

>  <PUBCHEM_CACTVS_TAUTO_COUNT>  (1) 
1

>  <PUBCHEM_CONFORMER_ID>  (1) 
0000450200000002

>  <PUBCHEM_MMFF94_ENERGY>  (1) 
79.8246

>  <PUBCHEM_FEATURE_SELFOVERLAP>  (1) 
35.548

>  <PUBCHEM_SHAPE_FINGERPRINT>  (1) 
11578080 2 17677347137314710061
11582403 64 15744352992520549381
12363563 72 18409169930589179086
12623949 98 17540838495344915507
12714826 92 17530973492061757651
12788726 201 18120075196379628036
13004483 165 17417795241397953069
13135754 10 17981645647302712019
13533116 47 17836938063901358947
13544592 145 17896589756356896031
13544653 18 18273209833135937332
13583140 156 11527946734190200734
14251764 30 16010179663883496059
14341114 328 15410615938670754498
14863182 85 16028476898632046027
17357779 13 18341883104613734502
17980427 23 14404901444837111929
17980427 26 17194889295253133257
1813 80 18130522906316854724
18915476 22 17976534236878249237
18927931 339 18342182107790298142
20101258 96 18060701667728293448
20197701 30 17768254509802233273
20600515 1 17973408170628131544
20693207 138 17895466054813744295
21304303 282 17465630448268661156
22182313 1 17244129746660793487
23114952 82 17752768206093586173
23175994 123 18408320008090111911
23419403 2 18190174783509681205
23526113 38 18118384362486891041
23559900 14 17604980584740494900
23598288 3 17987821642739220808
298252 57 16154535468621823237
3380486 77 16486117582886849989
484985 159 18263654973874861707
4921388 177 17967814911969400302
5104073 3 17986665979758602154
633830 44 12035716566900144958
81228 2 18269273460975511185

>  <PUBCHEM_SHAPE_MULTIPOLES>  (1) 
457.5
8.22
3.47
2.08
11.83
2.18
0.01
-7.81
-0.95
-0.5
0.98
-2.1
0.18
1.09

>  <PUBCHEM_SHAPE_SELFOVERLAP>  (1) 
975.558

>  <PUBCHEM_SHAPE_VOLUME>  (1) 
252.2

>  <PUBCHEM_COORDINATE_TYPE>  (1) 
2
5
10

$$$$
