17662
     RDKit          3D

 21 24  0  0  1  0  0  0  0  0999 V2000
   -4.6638    0.9189    0.0609 O   0  0  0  0  0  0  0  0  0  0  0  0
    5.8542   -0.4119    0.6517 O   0  0  0  0  0  0  0  0  0  0  0  0
   -2.4697   -0.0384    0.5721 C   0  0  0  0  0  0  0  0  0  0  0  0
   -1.8381    0.7675   -0.5955 C   0  0  0  0  0  0  0  0  0  0  0  0
   -0.2969    0.8548   -0.6442 C   0  0  0  0  0  0  0  0  0  0  0  0
   -3.9074   -0.2997    0.0145 C   0  0  0  0  0  0  0  0  0  0  0  0
    0.4069   -0.4841   -0.3204 C   0  0  0  0  0  0  0  0  0  0  0  0
   -1.6879   -1.3499    0.8222 C   0  0  0  0  0  0  0  0  0  0  0  0
   -2.4069    0.1010   -1.8689 C   0  0  0  0  0  0  0  0  0  0  0  0
   -3.6792   -0.6454   -1.4612 C   0  0  0  0  0  0  0  0  0  0  0  0
   -0.1772   -1.1518    0.9345 C   0  0  0  0  0  0  0  0  0  0  0  0
    0.2555    1.9762    0.2452 C   0  0  0  0  0  0  0  0  0  0  0  0
   -2.5319    0.7817    1.8761 C   0  0  0  0  0  0  0  0  0  0  0  0
    1.9197   -0.3379   -0.1959 C   0  0  0  0  0  0  0  0  0  0  0  0
    1.7571    2.1540    0.0263 C   0  0  0  0  0  0  0  0  0  0  0  0
   -4.7189   -1.3714    0.7388 C   0  0  0  0  0  0  0  0  0  0  0  0
    2.5286    0.8580   -0.0440 C   0  0  0  0  0  0  0  0  0  0  0  0
    2.7113   -1.6245   -0.2816 C   0  0  0  0  0  0  0  0  0  0  0  0
    4.0223    1.0230    0.0735 C   0  0  0  0  0  0  0  0  0  0  0  0
    4.1601   -1.4229   -0.7001 C   0  0  0  0  0  0  0  0  0  0  0  0
    4.7625   -0.2971    0.0959 C   0  0  0  0  0  0  0  0  0  0  0  0
  1  6  1  0
  2 21  2  0
  3  4  1  0
  3  6  1  0
  3  8  1  0
  3 13  1  0
  4  5  1  0
  4  9  1  0
  5  7  1  0
  5 12  1  0
  6 10  1  0
  6 16  1  0
  7 11  1  0
  7 14  1  0
  8 11  1  0
  9 10  1  0
 12 15  1  0
 14 17  2  0
 14 18  1  0
 15 17  1  0
 17 19  1  0
 18 20  1  0
 19 21  1  0
 20 21  1  0
M  END
>  <PUBCHEM_COMPOUND_CID>  (1) 
17662

>  <PUBCHEM_CONFORMER_RMSD>  (1) 
0.6

>  <PUBCHEM_CONFORMER_DIVERSEORDER>  (1) 
2
5
9
16
3
12
1
6
11
18
21
17
4
24
19
23
8
15
10
22
7
14
25
13
20

>  <PUBCHEM_MMFF94_PARTIAL_CHARGES>  (1) 
12
1 -0.68
14 -0.28
15 0.14
17 -0.28
18 0.14
19 0.2
2 -0.57
20 0.06
21 0.45
43 0.4
6 0.28
7 0.14

>  <PUBCHEM_EFFECTIVE_ROTOR_COUNT>  (1) 
2

>  <PUBCHEM_PHARMACOPHORE_FEATURES>  (1) 
7
1 1 acceptor
1 1 donor
1 2 acceptor
5 3 4 6 9 10 rings
6 14 17 18 19 20 21 rings
6 3 4 5 7 8 11 rings
6 5 7 12 14 15 17 rings

>  <PUBCHEM_HEAVY_ATOM_COUNT>  (1) 
21

>  <PUBCHEM_ATOM_DEF_STEREO_COUNT>  (1) 
1

>  <PUBCHEM_ATOM_UDEF_STEREO_COUNT>  (1) 
4

>  <PUBCHEM_BOND_DEF_STEREO_COUNT>  (1) 
0

>  <PUBCHEM_BOND_UDEF_STEREO_COUNT>  (1) 
0

>  <PUBCHEM_ISOTOPIC_ATOM_COUNT>  (1) 
0

>  <PUBCHEM_COMPONENT_COUNT>  (1) 
1

>  <PUBCHEM_CACTVS_TAUTO_COUNT>  (1) 
8

>  <PUBCHEM_CONFORMER_ID>  (1) 
000044FE00000002

>  <PUBCHEM_MMFF94_ENERGY>  (1) 
56.705

>  <PUBCHEM_FEATURE_SELFOVERLAP>  (1) 
35.742

>  <PUBCHEM_SHAPE_FINGERPRINT>  (1) 
10062212 137 17989207057876391433
10366900 7 16732983149984351393
11471102 20 18410575110992188396
11796584 16 16732978700788701194
12107183 9 16839683937415881482
12186901 62 16153699917035907493
12236239 1 17489587865665047863
12403259 226 18188768482737321037
12403259 415 17894622686672634677
12403814 3 16845577509035319601
12507557 5 18343019999520959929
12596602 18 16343696669040878634
12670546 56 17060617785092092048
13140716 1 18267582597418624624
13224815 77 18187088364365910022
13288520 33 18410295791798806062
13544653 18 18336270054978267084
13583140 156 14763774223007306866
13675066 3 18273494580645800913
13862211 1 18409722963705784750
14115302 16 17822020825899571870
14386348 63 18259987072035523330
15196674 1 18335704969998994016
15209289 33 18408606963408162347
15788980 27 17918274250958470838
15848702 151 18201444644508155654
16945 1 18260555532068047052
17349148 13 18412258454530188730
17357779 13 18334002883102492716
17804303 29 18040437719492715429
1813 80 18270415914092391148
18186145 218 18040710368538440757
18785283 64 18117842324835229388
19141452 34 18410577318484325583
19489759 90 16153702120101039454
200 152 18202561791287310711
20028762 73 18129101289460002319
20279233 1 18113902654313089994
20645477 70 18334013930190705796
21033648 29 17821995540979233709
21267235 1 18411709776985395358
22854114 59 18272369772034911962
23175994 123 18333454235342668012
23184049 59 18202004322113098982
23402539 116 18343014484677274862
23493267 7 15719387313568780761
23557571 272 16877938309193747020
23559900 14 18186803600034918736
26918003 58 18409729560221351769
3286 77 18336270153794273797
34797466 226 15554450751423783424
474 4 17628904914195124400
5104073 3 18409452521972466305
542803 24 13758355574757960986
59755656 215 17676481757771604603
69090 78 18409165536595119854
7495541 125 17967820491458685844
9709674 26 18116719710287763179

>  <PUBCHEM_SHAPE_MULTIPOLES>  (1) 
420.43
10.04
1.76
1.26
4.96
0.35
-0.1
-2.49
0.5
0.69
0.14
-1.29
-0.04
0.25

>  <PUBCHEM_SHAPE_SELFOVERLAP>  (1) 
902.233

>  <PUBCHEM_SHAPE_VOLUME>  (1) 
231

>  <PUBCHEM_COORDINATE_TYPE>  (1) 
2
5
10

$$$$
