17663
     RDKit          3D

 15 15  0  0  0  0  0  0  0  0999 V2000
    5.3419    0.1020   -0.4674 Br  0  0  0  0  0  0  0  0  0  0  0  0
   -1.7775    3.9977   -0.2489 Cl  0  0  0  0  0  0  0  0  0  0  0  0
   -4.9195   -2.1414    0.0152 Cl  0  0  0  0  0  0  0  0  0  0  0  0
   -1.4996   -0.0190   -0.1344 N   0  0  0  0  0  0  0  0  0  0  0  0
   -0.6428   -0.9067    0.6508 C   0  0  0  0  0  0  0  0  0  0  0  0
   -1.2156    1.3796    0.1849 C   0  0  0  0  0  0  0  0  0  0  0  0
   -2.9094   -0.3226    0.1088 C   0  0  0  0  0  0  0  0  0  0  0  0
    0.8176   -0.6618    0.3788 C   0  0  0  0  0  0  0  0  0  0  0  0
   -2.1300    2.2925   -0.6173 C   0  0  0  0  0  0  0  0  0  0  0  0
   -3.2009   -1.7691   -0.2596 C   0  0  0  0  0  0  0  0  0  0  0  0
    1.4512   -1.3651   -0.6362 C   0  0  0  0  0  0  0  0  0  0  0  0
    1.5094    0.2651    1.1459 C   0  0  0  0  0  0  0  0  0  0  0  0
    2.8038   -1.1368   -0.8891 C   0  0  0  0  0  0  0  0  0  0  0  0
    2.8621    0.4933    0.8930 C   0  0  0  0  0  0  0  0  0  0  0  0
    3.5093   -0.2077   -0.1245 C   0  0  0  0  0  0  0  0  0  0  0  0
  1 15  1  0
  2  9  1  0
  3 10  1  0
  4  5  1  0
  4  6  1  0
  4  7  1  0
  5  8  1  0
  6  9  1  0
  7 10  1  0
  8 11  2  0
  8 12  1  0
 11 13  1  0
 12 14  2  0
 13 15  2  0
 14 15  1  0
M  END
>  <PUBCHEM_COMPOUND_CID>  (1) 
17663

>  <PUBCHEM_CONFORMER_RMSD>  (1) 
0.6

>  <PUBCHEM_CONFORMER_DIVERSEORDER>  (1) 
1
16
17
13
2
12
15
14
19
21
5
24
8
9
10
20
22
3
4
11
23
18
7
6

>  <PUBCHEM_MMFF94_PARTIAL_CHARGES>  (1) 
19
1 -0.11
10 0.29
11 -0.15
12 -0.15
13 -0.15
14 -0.15
15 0.11
2 -0.29
26 0.15
27 0.15
28 0.15
29 0.15
3 -0.29
4 -0.81
5 0.41
6 0.27
7 0.27
8 -0.14
9 0.29

>  <PUBCHEM_EFFECTIVE_ROTOR_COUNT>  (1) 
6

>  <PUBCHEM_PHARMACOPHORE_FEATURES>  (1) 
3
1 1 hydrophobe
1 4 cation
6 8 11 12 13 14 15 rings

>  <PUBCHEM_HEAVY_ATOM_COUNT>  (1) 
15

>  <PUBCHEM_ATOM_DEF_STEREO_COUNT>  (1) 
0

>  <PUBCHEM_ATOM_UDEF_STEREO_COUNT>  (1) 
0

>  <PUBCHEM_BOND_DEF_STEREO_COUNT>  (1) 
0

>  <PUBCHEM_BOND_UDEF_STEREO_COUNT>  (1) 
0

>  <PUBCHEM_ISOTOPIC_ATOM_COUNT>  (1) 
0

>  <PUBCHEM_COMPONENT_COUNT>  (1) 
1

>  <PUBCHEM_CACTVS_TAUTO_COUNT>  (1) 
1

>  <PUBCHEM_CONFORMER_ID>  (1) 
000044FF00000001

>  <PUBCHEM_MMFF94_ENERGY>  (1) 
34.9058

>  <PUBCHEM_FEATURE_SELFOVERLAP>  (1) 
15.223

>  <PUBCHEM_SHAPE_FINGERPRINT>  (1) 
10498660 4 18334851684667622005
10608611 8 18341889641601685232
12173636 292 18049719620919983541
12403259 415 17917703626658160312
12841375 25 18338236085090798519
14115302 16 9871475360976027946
14350574 20 17703799154070019726
17134986 127 17543347155476738525
17357779 13 18269537460331252749
1741750 31 18050562945974367113
17844478 74 18272369788924851755
18186145 218 18057615269916608526
187816 3 17894910780215281275
19433438 38 18272653424692209438
200 152 15285350756287234211
20300324 65 18334297569609309652
20344682 1 18201725101614696366
20871999 31 18334286579215423231
21426921 1 18410012091765493341
21501502 16 18189892011716656370
21524375 3 17466789273494819881
22094290 60 18410578383504034286
22169311 14 8574709083729222310
22926399 65 18266179422966049104
23352939 185 18199760304337490864
23402539 116 18333446560288837990
23557571 272 18409731763687274335
23559900 14 17839741466333058158
2871803 45 18413102874981302199
3268164 11 18334289864205820510
6049 1 18059566975622196336
621550 34 18129654322190290738
621550 5 18060143184123829873
6442390 28 17836094368867526297
68521 5 18407755941793411549
7364860 26 17834113422596929865
7808743 9 18191307083298174612
81228 2 18333736784620177017

>  <PUBCHEM_SHAPE_MULTIPOLES>  (1) 
313.39
8.95
3.1
0.94
3.51
4.15
0.08
-3.99
-1.34
-4.85
-0.62
0.48
0
0.57

>  <PUBCHEM_SHAPE_SELFOVERLAP>  (1) 
595.369

>  <PUBCHEM_SHAPE_VOLUME>  (1) 
199.7

>  <PUBCHEM_COORDINATE_TYPE>  (1) 
2
5
10

$$$$
