17678
     RDKit          3D

 12 11  0  0  1  0  0  0  0  0999 V2000
    1.7645    3.4718   -0.2395 Cl  0  0  0  0  0  0  0  0  0  0  0  0
    3.2901   -2.2245   -0.4677 Cl  0  0  0  0  0  0  0  0  0  0  0  0
   -2.5482    0.3047   -1.4886 O   0  0  0  0  0  0  0  0  0  0  0  0
   -2.8809    0.4524    0.7542 O   0  0  0  0  0  0  0  0  0  0  0  0
    0.0456   -0.0783    0.5764 N   0  0  0  0  0  0  0  0  0  0  0  0
   -0.9937   -0.8323   -0.1238 C   0  0  0  0  0  0  0  0  0  0  0  0
    0.3483    1.1605   -0.1394 C   0  0  0  0  0  0  0  0  0  0  0  0
    1.2527   -0.8900    0.7265 C   0  0  0  0  0  0  0  0  0  0  0  0
   -1.2790   -2.1287    0.6220 C   0  0  0  0  0  0  0  0  0  0  0  0
    1.4043    1.9528    0.6155 C   0  0  0  0  0  0  0  0  0  0  0  0
    1.8310   -1.2202   -0.6409 C   0  0  0  0  0  0  0  0  0  0  0  0
   -2.2347    0.0319   -0.1946 C   0  0  0  0  0  0  0  0  0  0  0  0
  1 10  1  0
  2 11  1  0
  3 12  1  0
  4 12  2  0
  5  6  1  0
  5  7  1  0
  5  8  1  0
  6  9  1  0
  6 12  1  0
  7 10  1  0
  8 11  1  0
M  END
>  <PUBCHEM_COMPOUND_CID>  (1) 
17678

>  <PUBCHEM_CONFORMER_RMSD>  (1) 
0.6

>  <PUBCHEM_CONFORMER_DIVERSEORDER>  (1) 
1
19
20
21
7
11
34
32
3
26
22
16
28
29
24
10
33
5
15
27
4
17
14
30
12
9
8
13
25
2
31
23
6
18

>  <PUBCHEM_MMFF94_PARTIAL_CHARGES>  (1) 
12
1 -0.29
10 0.29
11 0.29
12 0.66
2 -0.29
25 0.5
3 -0.65
4 -0.57
5 -0.81
6 0.33
7 0.27
8 0.27

>  <PUBCHEM_EFFECTIVE_ROTOR_COUNT>  (1) 
6

>  <PUBCHEM_PHARMACOPHORE_FEATURES>  (1) 
4
1 3 acceptor
1 4 acceptor
1 5 cation
3 3 4 12 anion

>  <PUBCHEM_HEAVY_ATOM_COUNT>  (1) 
12

>  <PUBCHEM_ATOM_DEF_STEREO_COUNT>  (1) 
0

>  <PUBCHEM_ATOM_UDEF_STEREO_COUNT>  (1) 
1

>  <PUBCHEM_BOND_DEF_STEREO_COUNT>  (1) 
0

>  <PUBCHEM_BOND_UDEF_STEREO_COUNT>  (1) 
0

>  <PUBCHEM_ISOTOPIC_ATOM_COUNT>  (1) 
0

>  <PUBCHEM_COMPONENT_COUNT>  (1) 
1

>  <PUBCHEM_CACTVS_TAUTO_COUNT>  (1) 
1

>  <PUBCHEM_CONFORMER_ID>  (1) 
0000450E00000001

>  <PUBCHEM_MMFF94_ENERGY>  (1) 
24.2401

>  <PUBCHEM_FEATURE_SELFOVERLAP>  (1) 
20.355

>  <PUBCHEM_SHAPE_FINGERPRINT>  (1) 
1 1 18124314058786664444
13380535 21 18192727845351313043
13380535 76 18048583004784393763
14614273 12 17829881389071492525
14648413 74 18338239365765252898
15279308 128 18120652439862637975
16945 1 18411134753409302688
18380122 1 17756150342462518219
20711985 344 17834950867809469698
207724 885 18270408182845127491
20871998 184 16823345692848130160
21501502 16 18268995469459812291
21524375 3 17686609547794499544
23402539 116 18125434207801116478
23552423 10 18269556198645927727
2748010 2 18189332531991263027
3250762 1 18191879022164108691
4369600 1 18266168431548652802
7364860 26 18341335607847064744
81228 2 17838632062978082226

>  <PUBCHEM_SHAPE_MULTIPOLES>  (1) 
233.97
4.13
3.36
0.98
0.73
2.08
0.15
-0.98
0.68
-3.68
0.11
0.29
-0.03
0.54

>  <PUBCHEM_SHAPE_SELFOVERLAP>  (1) 
424.91

>  <PUBCHEM_SHAPE_VOLUME>  (1) 
152.6

>  <PUBCHEM_COORDINATE_TYPE>  (1) 
2
5
10

$$$$
