1767
     RDKit          3D

 22 22  0  0  1  0  0  0  0  0999 V2000
    3.5838   -0.3029    0.5544 O   0  0  0  0  0  0  0  0  0  0  0  0
    5.0625   -1.8118    1.3353 O   0  0  0  0  0  0  0  0  0  0  0  0
    4.0127    0.9596   -1.5206 C   0  0  0  0  0  0  0  0  0  0  0  0
    5.4825    0.6390   -1.3380 C   0  0  0  0  0  0  0  0  0  0  0  0
    3.3446    0.9339   -0.1546 C   0  0  0  0  0  0  0  0  0  0  0  0
    5.6253   -0.7357   -0.7196 C   0  0  0  0  0  0  0  0  0  0  0  0
    4.7624   -0.9677    0.4939 C   0  0  0  0  0  0  0  0  0  0  0  0
    1.8657    1.1172   -0.2662 C   0  0  0  0  0  0  0  0  0  0  0  0
   -2.9795   -3.4347   -0.4786 C   0  0  0  0  0  0  0  0  0  0  0  0
   -1.9764   -2.6514    0.3739 C   0  0  0  0  0  0  0  0  0  0  0  0
   -4.3972   -2.8571   -0.4196 C   0  0  0  0  0  0  0  0  0  0  0  0
   -0.5839   -3.2793    0.3070 C   0  0  0  0  0  0  0  0  0  0  0  0
    1.1932    2.1155    0.3253 C   0  0  0  0  0  0  0  0  0  0  0  0
   -4.4692   -1.4305   -0.8818 C   0  0  0  0  0  0  0  0  0  0  0  0
    0.4075   -2.5302    1.1830 C   0  0  0  0  0  0  0  0  0  0  0  0
   -4.9569   -0.4285   -0.1351 C   0  0  0  0  0  0  0  0  0  0  0  0
   -0.2391    2.2817    0.2099 C   0  0  0  0  0  0  0  0  0  0  0  0
   -5.0238    0.9984   -0.5953 C   0  0  0  0  0  0  0  0  0  0  0  0
   -0.9087    3.2828    0.8038 C   0  0  0  0  0  0  0  0  0  0  0  0
   -2.3902    3.5526    0.7580 C   0  0  0  0  0  0  0  0  0  0  0  0
   -4.2251    1.9044    0.2955 C   0  0  0  0  0  0  0  0  0  0  0  0
   -3.1903    2.6446   -0.1307 C   0  0  0  0  0  0  0  0  0  0  0  0
  1  5  1  0
  1  7  1  0
  2  7  2  0
  3  4  1  0
  3  5  1  0
  4  6  1  0
  5  8  1  0
  6  7  1  0
  8 13  2  0
  9 10  1  0
  9 11  1  0
 10 12  1  0
 11 14  1  0
 12 15  1  0
 13 17  1  0
 14 16  2  0
 16 18  1  0
 17 19  2  0
 18 21  1  0
 19 20  1  0
 20 22  1  0
 21 22  2  0
M  END
>  <PUBCHEM_COMPOUND_CID>  (1) 
1767

>  <PUBCHEM_CONFORMER_RMSD>  (1) 
1.2

>  <PUBCHEM_CONFORMER_DIVERSEORDER>  (1) 
1
22
27
89
52
98
11
72
13
17
39
108
2
20
95
100
44
114
109
84
90
23
38
99
58
75
111
91
7
94
16
102
18
81
24
120
112
70
110
103
115
37
97
34
25
8
113
86
46
35
45
88
14
107
26
64
19
42
15
43
105
49
69
117
71
30
54
62
63
104
93
57
79
61
47
50
6
59
106
51
119
29
10
36
28
80
60
73
65
21
12
67
74
3
33
78
76
31
41
87
82
101
40
5
55
85
32
4
118
116
66
68
53
96
48
77
83
56
9
92

>  <PUBCHEM_MMFF94_PARTIAL_CHARGES>  (1) 
24
1 -0.43
11 0.14
13 -0.15
14 -0.29
16 -0.29
17 -0.15
18 0.28
19 -0.29
2 -0.57
20 0.28
21 -0.29
22 -0.29
30 0.15
39 0.15
40 0.15
44 0.15
45 0.15
5 0.42
50 0.15
51 0.15
52 0.15
6 0.06
7 0.66
8 -0.29

>  <PUBCHEM_EFFECTIVE_ROTOR_COUNT>  (1) 
11

>  <PUBCHEM_PHARMACOPHORE_FEATURES>  (1) 
4
1 15 hydrophobe
1 2 acceptor
5 9 10 11 12 14 hydrophobe
6 1 3 4 5 6 7 rings

>  <PUBCHEM_HEAVY_ATOM_COUNT>  (1) 
22

>  <PUBCHEM_ATOM_DEF_STEREO_COUNT>  (1) 
0

>  <PUBCHEM_ATOM_UDEF_STEREO_COUNT>  (1) 
1

>  <PUBCHEM_BOND_DEF_STEREO_COUNT>  (1) 
0

>  <PUBCHEM_BOND_UDEF_STEREO_COUNT>  (1) 
4

>  <PUBCHEM_ISOTOPIC_ATOM_COUNT>  (1) 
0

>  <PUBCHEM_COMPONENT_COUNT>  (1) 
1

>  <PUBCHEM_CACTVS_TAUTO_COUNT>  (1) 
1

>  <PUBCHEM_CONFORMER_ID>  (1) 
000006E700000001

>  <PUBCHEM_MMFF94_ENERGY>  (1) 
12.599

>  <PUBCHEM_FEATURE_SELFOVERLAP>  (1) 
20.297

>  <PUBCHEM_SHAPE_FINGERPRINT>  (1) 
12712778 12 18338783585429476658
12788726 201 18411144662220705298
14251740 79 18412270553484755537
14251757 5 18336552723544559239
14289585 56 17168425939794016500
14461889 52 18131342030449493456
14931854 50 18410282602534489495
15183329 4 18410012169070039246
15250474 111 18335980870382337728
15322534 239 18333732429165032635
16719943 64 18411136896972633607
17138139 8 18334852844366444152
17627616 140 18191302685251384291
221357 26 18194399120448670423
338550 245 18262802852531503510
463206 1 18410576180418186761
474144 1 17896298256451893363
636783 261 14637655751456547298
6437827 68 18410294692118555246

>  <PUBCHEM_SHAPE_MULTIPOLES>  (1) 
441.01
13.72
5.2
1.12
9.37
0.54
0.08
3.33
3.7
-6.3
-1.22
1
0.13
-1.8

>  <PUBCHEM_SHAPE_SELFOVERLAP>  (1) 
853.486

>  <PUBCHEM_SHAPE_VOLUME>  (1) 
264.7

>  <PUBCHEM_COORDINATE_TYPE>  (1) 
2
5
10

$$$$
