17686
     RDKit          3D

 17 18  0  0  0  0  0  0  0  0999 V2000
    0.0140   -1.2325    2.0804 O   0  0  0  0  0  0  0  0  0  0  0  0
    0.1861    2.3664   -0.8325 O   0  0  0  0  0  0  0  0  0  0  0  0
   -2.2466   -0.3168   -0.6311 O   0  0  0  0  0  0  0  0  0  0  0  0
   -3.9070    0.7404    0.5949 O   0  0  0  0  0  0  0  0  0  0  0  0
   -0.2930    0.6863    0.7496 N   0  0  0  0  0  0  0  0  0  0  0  0
    1.6397   -0.4740    0.5307 C   0  0  0  0  0  0  0  0  0  0  0  0
    1.6901    0.6037   -0.3409 C   0  0  0  0  0  0  0  0  0  0  0  0
    0.3622   -0.4235    1.2405 C   0  0  0  0  0  0  0  0  0  0  0  0
    0.4454    1.3590   -0.2010 C   0  0  0  0  0  0  0  0  0  0  0  0
   -1.6123    1.0999    1.1846 C   0  0  0  0  0  0  0  0  0  0  0  0
    2.6756   -1.3796    0.6328 C   0  0  0  0  0  0  0  0  0  0  0  0
    2.7792    0.8328   -1.1564 C   0  0  0  0  0  0  0  0  0  0  0  0
    3.7895   -1.1680   -0.1846 C   0  0  0  0  0  0  0  0  0  0  0  0
    3.8409   -0.0724   -1.0704 C   0  0  0  0  0  0  0  0  0  0  0  0
   -2.7271    0.4992    0.3576 C   0  0  0  0  0  0  0  0  0  0  0  0
   -3.2248   -0.9030   -1.4111 C   0  0  0  0  0  0  0  0  0  0  0  0
   -3.4119   -2.2180   -1.5431 C   0  0  0  0  0  0  0  0  0  0  0  0
  1  8  2  0
  2  9  2  0
  3 15  1  0
  3 16  1  0
  4 15  2  0
  5  8  1  0
  5  9  1  0
  5 10  1  0
  6  7  2  0
  6  8  1  0
  6 11  1  0
  7  9  1  0
  7 12  1  0
 10 15  1  0
 11 13  2  0
 12 14  2  0
 13 14  1  0
 16 17  2  0
M  END
>  <PUBCHEM_COMPOUND_CID>  (1) 
17686

>  <PUBCHEM_CONFORMER_RMSD>  (1) 
0.6

>  <PUBCHEM_CONFORMER_DIVERSEORDER>  (1) 
1
24
25
2
20
19
12
6
22
9
15
14
8
23
13
5
16
11
3
18
21
10
17
7
4

>  <PUBCHEM_MMFF94_PARTIAL_CHARGES>  (1) 
24
1 -0.57
10 0.36
11 -0.15
12 -0.15
13 -0.15
14 -0.15
15 0.66
16 -0.07
17 -0.3
2 -0.57
20 0.15
21 0.15
22 0.15
23 0.15
24 0.15
25 0.15
26 0.15
3 -0.23
4 -0.57
5 -0.42
6 0.09
7 0.09
8 0.54
9 0.54

>  <PUBCHEM_EFFECTIVE_ROTOR_COUNT>  (1) 
4.2

>  <PUBCHEM_PHARMACOPHORE_FEATURES>  (1) 
5
1 1 acceptor
1 2 acceptor
1 4 acceptor
5 5 6 7 8 9 rings
6 6 7 11 12 13 14 rings

>  <PUBCHEM_HEAVY_ATOM_COUNT>  (1) 
17

>  <PUBCHEM_ATOM_DEF_STEREO_COUNT>  (1) 
0

>  <PUBCHEM_ATOM_UDEF_STEREO_COUNT>  (1) 
0

>  <PUBCHEM_BOND_DEF_STEREO_COUNT>  (1) 
0

>  <PUBCHEM_BOND_UDEF_STEREO_COUNT>  (1) 
0

>  <PUBCHEM_ISOTOPIC_ATOM_COUNT>  (1) 
0

>  <PUBCHEM_COMPONENT_COUNT>  (1) 
1

>  <PUBCHEM_CACTVS_TAUTO_COUNT>  (1) 
1

>  <PUBCHEM_CONFORMER_ID>  (1) 
0000451600000001

>  <PUBCHEM_MMFF94_ENERGY>  (1) 
41.5016

>  <PUBCHEM_FEATURE_SELFOVERLAP>  (1) 
25.464

>  <PUBCHEM_SHAPE_FINGERPRINT>  (1) 
10764073 3 14647162244253235585
11543360 7 17917439747904056492
11578080 2 18196905860504201297
11769659 78 18060415832847508886
12400797 292 18120926471924690871
12633257 1 14404621116400761743
12730499 353 16081644475314619401
13296908 3 15841550786139458479
14115302 16 17775007882012781161
14576447 43 18339076098620240238
16752209 62 18056182597818509441
16945 1 17750536021854224080
17349148 13 17967525758313578170
18186145 218 17240205425972280354
200 152 18114745937003233510
21452121 199 17487883726058807181
21634736 98 18196367237297499471
21639500 275 17822018648277462164
232386 152 17704069624997464381
23382010 3 17531240724816138266
23402539 116 18113620041423006726
23402655 69 18260552169209050196
23493267 7 15840156476831165714
23559900 14 17060343981433302628
238 59 17096065005074661879
25 1 17313106328053586794
2748010 2 15811201276553776600
568465 68 15482667991794311959
5902787 121 17418087732696668154
633830 44 17749115447913625956
77492 1 18411987927077085849
81228 2 14547366175253738091

>  <PUBCHEM_SHAPE_MULTIPOLES>  (1) 
321.39
6.76
1.86
1.56
1.28
0.36
0.35
3.01
-2.13
1.29
-0.54
-0.07
0.19
-1.44

>  <PUBCHEM_SHAPE_SELFOVERLAP>  (1) 
696.619

>  <PUBCHEM_SHAPE_VOLUME>  (1) 
177.5

>  <PUBCHEM_COORDINATE_TYPE>  (1) 
2
5
10

$$$$
