17680
     RDKit          3D

 15 15  0  0  0  0  0  0  0  0999 V2000
    1.4929   -0.0015   -0.9305 O   0  0  0  0  0  0  0  0  0  0  0  0
    2.0601   -0.5983    1.2440 O   0  0  0  0  0  0  0  0  0  0  0  0
    3.5308   -0.9660   -0.5123 N   0  0  0  0  0  0  0  0  0  0  0  0
   -3.1823   -0.9131    0.1265 C   0  0  0  0  0  0  0  0  0  0  0  0
   -2.0225    0.0223    0.0664 C   0  0  0  0  0  0  0  0  0  0  0  0
   -0.7893   -0.4246   -0.4083 C   0  0  0  0  0  0  0  0  0  0  0  0
   -2.9328   -2.1004    1.0757 C   0  0  0  0  0  0  0  0  0  0  0  0
   -3.5918   -1.4337   -1.2644 C   0  0  0  0  0  0  0  0  0  0  0  0
   -2.1711    1.3446    0.4849 C   0  0  0  0  0  0  0  0  0  0  0  0
    0.2952    0.4510   -0.4644 C   0  0  0  0  0  0  0  0  0  0  0  0
    0.1464    1.7733   -0.0459 C   0  0  0  0  0  0  0  0  0  0  0  0
   -1.0867    2.2201    0.4288 C   0  0  0  0  0  0  0  0  0  0  0  0
    1.2965    2.7239   -0.0980 C   0  0  0  0  0  0  0  0  0  0  0  0
    2.3477   -0.5358    0.0522 C   0  0  0  0  0  0  0  0  0  0  0  0
    4.6069   -1.5617    0.2453 C   0  0  0  0  0  0  0  0  0  0  0  0
  1 10  1  0
  1 14  1  0
  2 14  2  0
  3 14  1  0
  3 15  1  0
  4  5  1  0
  4  7  1  0
  4  8  1  0
  5  6  2  0
  5  9  1  0
  6 10  1  0
  9 12  2  0
 10 11  2  0
 11 12  1  0
 11 13  1  0
M  END
>  <PUBCHEM_COMPOUND_CID>  (1) 
17680

>  <PUBCHEM_CONFORMER_RMSD>  (1) 
0.6

>  <PUBCHEM_CONFORMER_DIVERSEORDER>  (1) 
2
42
41
40
11
25
38
3
9
27
32
37
6
4
26
23
44
21
5
28
29
18
8
20
39
30
17
7
16
31
15
12
19
35
24
22
36
34
10
14
13
33
43
1

>  <PUBCHEM_MMFF94_PARTIAL_CHARGES>  (1) 
17
1 -0.23
10 0.08
11 -0.14
12 -0.15
13 0.14
14 0.78
15 0.3
17 0.15
2 -0.57
24 0.15
25 0.15
29 0.37
3 -0.73
4 0.14
5 -0.14
6 -0.15
9 -0.15

>  <PUBCHEM_EFFECTIVE_ROTOR_COUNT>  (1) 
4

>  <PUBCHEM_PHARMACOPHORE_FEATURES>  (1) 
4
1 2 acceptor
1 3 donor
3 4 7 8 hydrophobe
6 5 6 9 10 11 12 rings

>  <PUBCHEM_HEAVY_ATOM_COUNT>  (1) 
15

>  <PUBCHEM_ATOM_DEF_STEREO_COUNT>  (1) 
0

>  <PUBCHEM_ATOM_UDEF_STEREO_COUNT>  (1) 
0

>  <PUBCHEM_BOND_DEF_STEREO_COUNT>  (1) 
0

>  <PUBCHEM_BOND_UDEF_STEREO_COUNT>  (1) 
0

>  <PUBCHEM_ISOTOPIC_ATOM_COUNT>  (1) 
0

>  <PUBCHEM_COMPONENT_COUNT>  (1) 
1

>  <PUBCHEM_CACTVS_TAUTO_COUNT>  (1) 
2

>  <PUBCHEM_CONFORMER_ID>  (1) 
0000451000000002

>  <PUBCHEM_MMFF94_ENERGY>  (1) 
37.202

>  <PUBCHEM_FEATURE_SELFOVERLAP>  (1) 
20.297

>  <PUBCHEM_SHAPE_FINGERPRINT>  (1) 
10989021 7 18412825819372665885
11578080 2 17822274787305917660
12553582 1 18334009462976526867
13140716 1 18342186570023857409
15375462 189 18041569048296177976
16945 1 18197511640234949165
17841504 4 18339084898939443337
19422 9 18334585598964635374
20645477 70 18193266619361541463
20671657 53 18335138717278850413
20871998 184 18130507422722284742
20871998 22 18411697733343248496
21452121 71 18334303075757512972
21501502 16 18341904029847888113
21501925 9 18342169024654866601
21650355 55 18266175041835546288
22112679 90 18268168516193032748
232386 152 18337119994213903541
23402539 116 18262797363938053414
23419403 2 17842520116319669697
23557571 272 18057052315731569284
23559900 14 18337946793320861104
2748010 2 18341330089030900029
43471831 8 18051413173753735336
5493415 88 18409169943178382937
5902787 121 18407761443256049682
6338986 31 18271234023784001071
7364860 26 18197498630567922032
81228 2 18197507233556162569
81539 233 17829885786802064252

>  <PUBCHEM_SHAPE_MULTIPOLES>  (1) 
291.97
6.56
2.62
0.99
4.02
1.38
0
-5.84
-0.02
-0.02
0.34
-0.4
-0.34
-0.28

>  <PUBCHEM_SHAPE_SELFOVERLAP>  (1) 
595.137

>  <PUBCHEM_SHAPE_VOLUME>  (1) 
169.5

>  <PUBCHEM_COORDINATE_TYPE>  (1) 
2
5
10

$$$$
