17682
     RDKit          3D

 21 22  0  0  0  0  0  0  0  0999 V2000
   -0.0063   -0.9440   -0.2506 P   0  0  0  0  0  0  0  0  0  0  0  0
   -0.0018    0.6174   -0.6816 O   0  0  0  0  0  0  0  0  0  0  0  0
    1.2522   -1.0969    0.7530 O   0  0  0  0  0  0  0  0  0  0  0  0
   -1.2657   -1.0895    0.7530 O   0  0  0  0  0  0  0  0  0  0  0  0
   -0.0092   -1.9192   -1.3949 O   0  0  0  0  0  0  0  0  0  0  0  0
    0.0050    2.9921   -0.3754 C   0  0  0  0  0  0  0  0  0  0  0  0
    0.0245    4.1348    0.6358 C   0  0  0  0  0  0  0  0  0  0  0  0
    0.0012    1.6338    0.3113 C   0  0  0  0  0  0  0  0  0  0  0  0
    0.0719    5.4886   -0.0541 C   0  0  0  0  0  0  0  0  0  0  0  0
    2.5660   -0.9641    0.3916 C   0  0  0  0  0  0  0  0  0  0  0  0
   -2.5789   -0.9490    0.3915 C   0  0  0  0  0  0  0  0  0  0  0  0
    2.8919   -0.6757   -0.9294 C   0  0  0  0  0  0  0  0  0  0  0  0
   -2.9031   -0.6589   -0.9294 C   0  0  0  0  0  0  0  0  0  0  0  0
    3.5631   -1.1192    1.3488 C   0  0  0  0  0  0  0  0  0  0  0  0
   -3.5766   -1.0975    1.3490 C   0  0  0  0  0  0  0  0  0  0  0  0
    4.2306   -0.5413   -1.2976 C   0  0  0  0  0  0  0  0  0  0  0  0
   -4.2409   -0.5151   -1.2973 C   0  0  0  0  0  0  0  0  0  0  0  0
    4.9017   -0.9846    0.9805 C   0  0  0  0  0  0  0  0  0  0  0  0
   -4.9144   -0.9537    0.9810 C   0  0  0  0  0  0  0  0  0  0  0  0
    5.2354   -0.6956   -0.3427 C   0  0  0  0  0  0  0  0  0  0  0  0
   -5.2465   -0.6625   -0.3422 C   0  0  0  0  0  0  0  0  0  0  0  0
  1  2  1  0
  1  3  1  0
  1  4  1  0
  1  5  2  0
  2  8  1  0
  3 10  1  0
  4 11  1  0
  6  7  1  0
  6  8  1  0
  7  9  1  0
 10 12  2  0
 10 14  1  0
 11 13  2  0
 11 15  1  0
 12 16  1  0
 13 17  1  0
 14 18  2  0
 15 19  2  0
 16 20  2  0
 17 21  2  0
 18 20  1  0
 19 21  1  0
M  END
>  <PUBCHEM_COMPOUND_CID>  (1) 
17682

>  <PUBCHEM_CONFORMER_RMSD>  (1) 
0.8

>  <PUBCHEM_CONFORMER_DIVERSEORDER>  (1) 
1
138
47
53
155
164
4
161
156
52
20
169
175
77
124
13
168
119
91
140
81
134
126
48
31
63
172
146
17
118
34
100
59
7
40
61
99
6
55
65
104
87
69
5
46
93
107
88
101
108
18
38
33
98
142
66
154
68
127
160
116
15
174
50
165
86
148
73
80
121
23
105
149
109
114
28
29
150
39
37
110
173
41
30
11
14
163
16
43
19
85
12
49
111
42
78
162
35
26
147
9
51
115
67
8
44
90
82
54
70
170
131
45
113
151
2
122
137
145
159
64
27
123
144
56
166
57
76
62
83
171
176
24
96
94
10
22
112
97
128
3
153
129
74
84
139
79
130
89
25
152
125
102
36
71
21
141
72
143
95
133
135
92
32
158
136
75
117
132
60
106
167
120
58
157
103

>  <PUBCHEM_MMFF94_PARTIAL_CHARGES>  (1) 
28
1 1.51
10 0.08
11 0.08
12 -0.15
13 -0.15
14 -0.15
15 -0.15
16 -0.15
17 -0.15
18 -0.15
19 -0.15
2 -0.55
20 -0.15
21 -0.15
3 -0.35
31 0.15
32 0.15
33 0.15
34 0.15
35 0.15
36 0.15
37 0.15
38 0.15
39 0.15
4 -0.35
40 0.15
5 -0.7
8 0.28

>  <PUBCHEM_EFFECTIVE_ROTOR_COUNT>  (1) 
8

>  <PUBCHEM_PHARMACOPHORE_FEATURES>  (1) 
4
1 5 acceptor
1 9 hydrophobe
6 10 12 14 16 18 20 rings
6 11 13 15 17 19 21 rings

>  <PUBCHEM_HEAVY_ATOM_COUNT>  (1) 
21

>  <PUBCHEM_ATOM_DEF_STEREO_COUNT>  (1) 
0

>  <PUBCHEM_ATOM_UDEF_STEREO_COUNT>  (1) 
0

>  <PUBCHEM_BOND_DEF_STEREO_COUNT>  (1) 
0

>  <PUBCHEM_BOND_UDEF_STEREO_COUNT>  (1) 
0

>  <PUBCHEM_ISOTOPIC_ATOM_COUNT>  (1) 
0

>  <PUBCHEM_COMPONENT_COUNT>  (1) 
1

>  <PUBCHEM_CACTVS_TAUTO_COUNT>  (1) 
1

>  <PUBCHEM_CONFORMER_ID>  (1) 
0000451200000001

>  <PUBCHEM_MMFF94_ENERGY>  (1) 
41.075

>  <PUBCHEM_FEATURE_SELFOVERLAP>  (1) 
20.297

>  <PUBCHEM_SHAPE_FINGERPRINT>  (1) 
12107183 9 15868259946476118099
12293681 160 17900855891574783908
12516196 113 18409727378383558523
12549972 3 17677619842484673449
12553582 1 18411418414408640662
12788726 201 18261956241573709970
13134695 92 18409162255487778973
133893 2 17761743536500891964
13899415 154 18336278915068602210
14347329 18 16300044855159496245
14955137 171 18339939206594942431
15081414 286 18268148832632429880
15230672 131 17252873157963660300
17980427 23 17989216945097192969
1813 80 18201445778374084684
18222031 100 18343018908493927527
18785283 64 18047474714386207857
200 152 17749106677960133866
20600515 1 18200893845054014422
20671657 1 18122912190204042053
21033648 29 17632285758015998163
21041028 32 18410859867229370333
21054139 6 8069735240638248233
21285901 2 17917159299297923190
21304303 282 17541911231766422364
21641784 216 18337409153494294668
23175994 123 18408608071778775911
23402539 116 18343581820024823143
23557571 272 18340210670166014014
23558518 356 17687177595599651563
23559900 14 17022901284869165166
266924 87 18194962933363269422
314173 85 18342178851598016682
3250762 1 17551239466899263919
3298306 158 17831308559544456404
532947 4 18051413169511509000
68521 5 18337671910412412252
6913067 236 17916567779248714502
7164475 11 18192431875239955242
7495541 125 18115878554228916987
81228 2 18192722132839301841

>  <PUBCHEM_SHAPE_MULTIPOLES>  (1) 
412.54
10.42
4.25
1.32
0.18
12.14
0.04
-8.25
-0.3
-0.17
-0.4
0
-0.54
0

>  <PUBCHEM_SHAPE_SELFOVERLAP>  (1) 
840.09

>  <PUBCHEM_SHAPE_VOLUME>  (1) 
238.2

>  <PUBCHEM_COORDINATE_TYPE>  (1) 
2
5
10

$$$$
