17690
     RDKit          3D

  7  6  0  0  0  0  0  0  0  0999 V2000
    3.2841   -0.2688   -0.0001 Br  0  0  0  0  0  0  0  0  0  0  0  0
   -0.9529   -0.0398    0.0000 N   0  0  0  0  0  0  0  0  0  0  0  0
    0.4464   -0.6341    0.0702 C   0  0  0  0  0  0  0  0  0  0  0  0
   -1.0923    0.7807   -1.2742 C   0  0  0  0  0  0  0  0  0  0  0  0
   -1.9808   -1.1621   -0.0042 C   0  0  0  0  0  0  0  0  0  0  0  0
   -1.1850    0.8561    1.2081 C   0  0  0  0  0  0  0  0  0  0  0  0
    1.4806    0.4681    0.0002 C   0  0  0  0  0  0  0  0  0  0  0  0
  1  7  1  0
  2  3  1  0
  2  4  1  0
  2  5  1  0
  2  6  1  0
  3  7  1  0
M  CHG  1   2   1
M  END
>  <PUBCHEM_COMPOUND_CID>  (1) 
17690

>  <PUBCHEM_CONFORMER_RMSD>  (1) 
0.4

>  <PUBCHEM_CONFORMER_DIVERSEORDER>  (1) 
1

>  <PUBCHEM_MMFF94_PARTIAL_CHARGES>  (1) 
7
1 -0.23
2 -1.01
3 0.5
4 0.5
5 0.5
6 0.5
7 0.23

>  <PUBCHEM_EFFECTIVE_ROTOR_COUNT>  (1) 
2

>  <PUBCHEM_PHARMACOPHORE_FEATURES>  (1) 
2
1 1 hydrophobe
1 2 cation

>  <PUBCHEM_HEAVY_ATOM_COUNT>  (1) 
7

>  <PUBCHEM_ATOM_DEF_STEREO_COUNT>  (1) 
0

>  <PUBCHEM_ATOM_UDEF_STEREO_COUNT>  (1) 
0

>  <PUBCHEM_BOND_DEF_STEREO_COUNT>  (1) 
0

>  <PUBCHEM_BOND_UDEF_STEREO_COUNT>  (1) 
0

>  <PUBCHEM_ISOTOPIC_ATOM_COUNT>  (1) 
0

>  <PUBCHEM_COMPONENT_COUNT>  (1) 
1

>  <PUBCHEM_CACTVS_TAUTO_COUNT>  (1) 
1

>  <PUBCHEM_CONFORMER_ID>  (1) 
0000451A00000001

>  <PUBCHEM_MMFF94_ENERGY>  (1) 
21.3822

>  <PUBCHEM_FEATURE_SELFOVERLAP>  (1) 
10.148

>  <PUBCHEM_SHAPE_FINGERPRINT>  (1) 
12932764 1 18041000614181209154
14390081 3 16877940538508477116
16714656 1 18040433317140778550
24536 1 18131063797254874754
29004967 10 17274829081564609418
3248919 1 18130783430870323902
5084963 1 18334293201680226122
5460574 1 9367351435777474738
5943 1 14930909881781074605

>  <PUBCHEM_SHAPE_MULTIPOLES>  (1) 
145.02
3.93
1.11
1.06
3.93
0.11
0.04
0.65
-0.03
-0.5
-0.02
-0.5
-0.35
-0.02

>  <PUBCHEM_SHAPE_SELFOVERLAP>  (1) 
239.71

>  <PUBCHEM_SHAPE_VOLUME>  (1) 
104.7

>  <PUBCHEM_COORDINATE_TYPE>  (1) 
2
5
10

$$$$
