17696
     RDKit          3D

  9  9  0  0  0  0  0  0  0  0999 V2000
   -0.0002    1.6865    0.1830 S   0  0  0  0  0  0  0  0  0  0  0  0
    1.5232   -0.8540    0.7738 S   0  0  0  0  0  0  0  0  0  0  0  0
   -1.5231   -0.8543    0.7737 S   0  0  0  0  0  0  0  0  0  0  0  0
    1.3890    0.6131   -0.3011 C   0  0  0  0  0  0  0  0  0  0  0  0
   -1.3890    0.6129   -0.3013 C   0  0  0  0  0  0  0  0  0  0  0  0
    0.0001   -1.7600    0.3375 C   0  0  0  0  0  0  0  0  0  0  0  0
    2.6833    1.4153   -0.1841 C   0  0  0  0  0  0  0  0  0  0  0  0
   -2.6834    1.4151   -0.1839 C   0  0  0  0  0  0  0  0  0  0  0  0
    0.0001   -2.2746   -1.0978 C   0  0  0  0  0  0  0  0  0  0  0  0
  1  4  1  0
  1  5  1  0
  2  4  1  0
  2  6  1  0
  3  5  1  0
  3  6  1  0
  4  7  1  0
  5  8  1  0
  6  9  1  0
M  END
>  <PUBCHEM_COMPOUND_CID>  (1) 
17696

>  <PUBCHEM_CONFORMER_RMSD>  (1) 
0.4

>  <PUBCHEM_CONFORMER_DIVERSEORDER>  (1) 
1
5
6
3
2
7
8
4

>  <PUBCHEM_MMFF94_PARTIAL_CHARGES>  (1) 
6
1 -0.46
2 -0.46
3 -0.46
4 0.46
5 0.46
6 0.46

>  <PUBCHEM_EFFECTIVE_ROTOR_COUNT>  (1) 
1.2

>  <PUBCHEM_PHARMACOPHORE_FEATURES>  (1) 
1
6 1 2 3 4 5 6 rings

>  <PUBCHEM_HEAVY_ATOM_COUNT>  (1) 
9

>  <PUBCHEM_ATOM_DEF_STEREO_COUNT>  (1) 
0

>  <PUBCHEM_ATOM_UDEF_STEREO_COUNT>  (1) 
0

>  <PUBCHEM_BOND_DEF_STEREO_COUNT>  (1) 
0

>  <PUBCHEM_BOND_UDEF_STEREO_COUNT>  (1) 
0

>  <PUBCHEM_ISOTOPIC_ATOM_COUNT>  (1) 
0

>  <PUBCHEM_COMPONENT_COUNT>  (1) 
1

>  <PUBCHEM_CACTVS_TAUTO_COUNT>  (1) 
1

>  <PUBCHEM_CONFORMER_ID>  (1) 
0000452000000001

>  <PUBCHEM_MMFF94_ENERGY>  (1) 
16.5407

>  <PUBCHEM_FEATURE_SELFOVERLAP>  (1) 
5.074

>  <PUBCHEM_SHAPE_FINGERPRINT>  (1) 
1 1 18338514132002930212
100427 49 17402340269523728981
10149128 76 18334853870837565501
14817 1 11414955219344468799
15775835 57 18337396040357376057
16945 1 17971460819501878026
18185500 45 17114104919647050594
20511035 2 18334571326382037986
20711978 78 17624674779145081397
20871998 184 18051988196421687295
21040471 1 18409444821243770840
23235685 24 18265045847382754488
23552423 10 17906170651182998397
241688 4 16897929358683963443
2748010 2 18409456881369318236
5084963 1 18272370871098582331
528862 383 18115298977892330497
66348 1 18408886226255351320

>  <PUBCHEM_SHAPE_MULTIPOLES>  (1) 
196.76
3.13
2.54
0.96
0
0.7
0.03
-1.89
0
0
0.43
0
0.42
0

>  <PUBCHEM_SHAPE_SELFOVERLAP>  (1) 
332.229

>  <PUBCHEM_SHAPE_VOLUME>  (1) 
132.5

>  <PUBCHEM_COORDINATE_TYPE>  (1) 
2
5
10

$$$$
