17707
     RDKit          3D

 46 51  0  0  0  0  0  0  0  0999 V2000
   -8.8332    2.7640    0.5984 S   0  0  0  0  0  0  0  0  0  0  0  0
    6.2856    2.1226   -0.8206 S   0  0  0  0  0  0  0  0  0  0  0  0
   -9.7124    2.6356    1.9673 O   0  0  0  0  0  0  0  0  0  0  0  0
    6.9090   -2.9721    0.7521 O   0  0  0  0  0  0  0  0  0  0  0  0
    5.5713    2.1716    0.6450 O   0  0  0  0  0  0  0  0  0  0  0  0
   -7.6999    3.6230    0.8926 O   0  0  0  0  0  0  0  0  0  0  0  0
   -9.7349    3.0612   -0.4993 O   0  0  0  0  0  0  0  0  0  0  0  0
    6.3470    3.4843   -1.3183 O   0  0  0  0  0  0  0  0  0  0  0  0
    5.6698    1.0640   -1.5976 O   0  0  0  0  0  0  0  0  0  0  0  0
   -6.4537   -2.6263   -0.3130 N   0  0  0  0  0  0  0  0  0  0  0  0
   -4.8895   -0.4439    0.4718 N   0  0  0  0  0  0  0  0  0  0  0  0
    6.0148   -0.5459   -0.0574 N   0  0  0  0  0  0  0  0  0  0  0  0
   -4.2852   -0.2182   -0.6017 N   0  0  0  0  0  0  0  0  0  0  0  0
    5.3881   -1.3035    0.7201 N   0  0  0  0  0  0  0  0  0  0  0  0
   -9.0303    0.0748   -0.0834 C   0  0  0  0  0  0  0  0  0  0  0  0
   -8.4504   -1.1986   -0.2953 C   0  0  0  0  0  0  0  0  0  0  0  0
   -8.2111    1.1457    0.3097 C   0  0  0  0  0  0  0  0  0  0  0  0
    8.3334    0.3245   -0.0755 C   0  0  0  0  0  0  0  0  0  0  0  0
   -7.0684   -1.3637   -0.1080 C   0  0  0  0  0  0  0  0  0  0  0  0
    9.7067    0.0626    0.1443 C   0  0  0  0  0  0  0  0  0  0  0  0
    7.9371    1.6044   -0.4963 C   0  0  0  0  0  0  0  0  0  0  0  0
   -6.2696   -0.2886    0.2827 C   0  0  0  0  0  0  0  0  0  0  0  0
   -6.8399    0.9636    0.4912 C   0  0  0  0  0  0  0  0  0  0  0  0
    7.3987   -0.7014    0.1323 C   0  0  0  0  0  0  0  0  0  0  0  0
  -10.4123    0.2399   -0.2708 C   0  0  0  0  0  0  0  0  0  0  0  0
   -9.2696   -2.2695   -0.6885 C   0  0  0  0  0  0  0  0  0  0  0  0
   10.6433    1.0884   -0.0633 C   0  0  0  0  0  0  0  0  0  0  0  0
    8.8813    2.6117   -0.6976 C   0  0  0  0  0  0  0  0  0  0  0  0
   10.1030   -1.2173    0.5651 C   0  0  0  0  0  0  0  0  0  0  0  0
    7.8084   -1.9670    0.5503 C   0  0  0  0  0  0  0  0  0  0  0  0
  -11.2112   -0.8350   -0.6615 C   0  0  0  0  0  0  0  0  0  0  0  0
  -10.6409   -2.0873   -0.8700 C   0  0  0  0  0  0  0  0  0  0  0  0
   10.2317    2.3541   -0.4815 C   0  0  0  0  0  0  0  0  0  0  0  0
    9.1589   -2.2245    0.7664 C   0  0  0  0  0  0  0  0  0  0  0  0
   -0.1609   -0.6814   -0.0384 C   0  0  0  0  0  0  0  0  0  0  0  0
    1.2638   -0.8412    0.1563 C   0  0  0  0  0  0  0  0  0  0  0  0
   -2.9012   -0.3735   -0.4125 C   0  0  0  0  0  0  0  0  0  0  0  0
    4.0110   -1.1490    0.5318 C   0  0  0  0  0  0  0  0  0  0  0  0
   -0.9383   -1.7717   -0.4283 C   0  0  0  0  0  0  0  0  0  0  0  0
   -0.7570    0.5635    0.1640 C   0  0  0  0  0  0  0  0  0  0  0  0
    1.9671   -1.7896   -0.5860 C   0  0  0  0  0  0  0  0  0  0  0  0
    1.9339   -0.0466    1.0865 C   0  0  0  0  0  0  0  0  0  0  0  0
   -2.3118   -1.6175   -0.6160 C   0  0  0  0  0  0  0  0  0  0  0  0
   -2.1306    0.7177   -0.0235 C   0  0  0  0  0  0  0  0  0  0  0  0
    3.3407   -1.9436   -0.3982 C   0  0  0  0  0  0  0  0  0  0  0  0
    3.3075   -0.2003    1.2743 C   0  0  0  0  0  0  0  0  0  0  0  0
  1  3  1  0
  1  6  2  0
  1  7  2  0
  1 17  1  0
  2  5  1  0
  2  8  2  0
  2  9  2  0
  2 21  1  0
  4 30  1  0
 10 19  1  0
 11 13  2  0
 11 22  1  0
 12 14  2  0
 12 24  1  0
 13 37  1  0
 14 38  1  0
 15 16  1  0
 15 17  2  0
 15 25  1  0
 16 19  2  0
 16 26  1  0
 17 23  1  0
 18 20  1  0
 18 21  2  0
 18 24  1  0
 19 22  1  0
 20 27  2  0
 20 29  1  0
 21 28  1  0
 22 23  2  0
 24 30  2  0
 25 31  2  0
 26 32  2  0
 27 33  1  0
 28 33  2  0
 29 34  2  0
 30 34  1  0
 31 32  1  0
 35 36  1  0
 35 39  2  0
 35 40  1  0
 36 41  2  0
 36 42  1  0
 37 43  2  0
 37 44  1  0
 38 45  2  0
 38 46  1  0
 39 43  1  0
 40 44  2  0
 41 45  1  0
 42 46  2  0
M  END
>  <PUBCHEM_COMPOUND_CID>  (1) 
17707

>  <PUBCHEM_CONFORMER_RMSD>  (1) 
1

>  <PUBCHEM_CONFORMER_DIVERSEORDER>  (1) 
1
6
7
2
4
8
5
3

>  <PUBCHEM_MMFF94_PARTIAL_CHARGES>  (1) 
63
1 1.49
10 -0.9
11 -0.18
12 -0.18
13 -0.18
14 -0.18
17 -0.01
19 0.1
2 1.49
21 -0.01
22 0.18
23 -0.15
24 0.18
25 -0.15
26 -0.15
27 -0.15
28 -0.15
29 -0.15
3 -0.68
30 0.08
31 -0.15
32 -0.15
33 -0.15
34 -0.15
37 0.18
38 0.18
39 -0.15
4 -0.53
40 -0.15
41 -0.15
42 -0.15
43 -0.15
44 -0.15
45 -0.15
46 -0.15
47 0.15
48 0.15
49 0.15
5 -0.68
50 0.15
51 0.15
52 0.15
53 0.15
54 0.15
55 0.15
56 0.15
57 0.4
58 0.4
59 0.15
6 -0.65
60 0.15
61 0.15
62 0.15
63 0.15
64 0.15
65 0.15
66 0.15
67 0.5
68 0.45
69 0.5
7 -0.65
8 -0.65
9 -0.65

>  <PUBCHEM_EFFECTIVE_ROTOR_COUNT>  (1) 
7

>  <PUBCHEM_PHARMACOPHORE_FEATURES>  (1) 
17
1 10 cation
1 10 donor
1 3 acceptor
1 4 donor
1 5 acceptor
1 6 acceptor
1 7 acceptor
1 8 acceptor
1 9 acceptor
4 1 3 6 7 anion
4 2 5 8 9 anion
6 15 16 17 19 22 23 rings
6 15 16 25 26 31 32 rings
6 18 20 21 27 28 33 rings
6 18 20 24 29 30 34 rings
6 35 37 39 40 43 44 rings
6 36 38 41 42 45 46 rings

>  <PUBCHEM_HEAVY_ATOM_COUNT>  (1) 
46

>  <PUBCHEM_ATOM_DEF_STEREO_COUNT>  (1) 
0

>  <PUBCHEM_ATOM_UDEF_STEREO_COUNT>  (1) 
0

>  <PUBCHEM_BOND_DEF_STEREO_COUNT>  (1) 
0

>  <PUBCHEM_BOND_UDEF_STEREO_COUNT>  (1) 
0

>  <PUBCHEM_ISOTOPIC_ATOM_COUNT>  (1) 
0

>  <PUBCHEM_COMPONENT_COUNT>  (1) 
1

>  <PUBCHEM_CACTVS_TAUTO_COUNT>  (1) 
3

>  <PUBCHEM_CONFORMER_ID>  (1) 
0000452B00000001

>  <PUBCHEM_MMFF94_ENERGY>  (1) 
179.5902

>  <PUBCHEM_FEATURE_SELFOVERLAP>  (1) 
86.441

>  <PUBCHEM_SHAPE_FINGERPRINT>  (1) 
10580692 12 18343863308561590939
11966995 178 18410296918124697356
12013929 94 18338799018281835619
12089408 11 18410573972414593243
12098696 120 16272206388131422846
12144603 126 18410007749749288071
12522641 33 18187363220556451322
12664476 115 18040149635242013380
13553643 46 18336829668239049757
13740195 50 18113901572055217171
14118638 360 15430304794467603467
15061470 23 18408600353738388861
15145343 6 17988639701091320635
15347591 1 18045211640061778918
15554971 5 18411420605437677303
15840311 113 18259987089811524526
15890870 6 18272089409370939230
16728433 110 18040997354475241495
17686467 74 18186523233450193669
20812841 46 18040150722364377298
21362267 313 18264766554745614778
21772524 286 18198906912175736057
22082593 10 18408602548087375645
22164985 6 17894625963485365830
232437 2 18413105061420310131
24771293 8 18335424565297315541
3092352 35 18411415120206031183
335507 130 17988922284507456703
42767 2 18412262856597347469
44280117 145 18059853979640796711
4625314 4 18409167718401543979
54583773 228 18272371970842266849
67123 10 18410291415079906003
9663363 56 16298382466999164503
9937071 3 13767923499347020898

>  <PUBCHEM_SHAPE_MULTIPOLES>  (1) 
888.37
52.03
3.39
1.02
31.13
2.04
-0.08
12.59
1.58
0.72
0.04
0.05
0.31
-5.39

>  <PUBCHEM_SHAPE_SELFOVERLAP>  (1) 
1981.902

>  <PUBCHEM_SHAPE_VOLUME>  (1) 
470.7

>  <PUBCHEM_COORDINATE_TYPE>  (1) 
2
5
10

$$$$
