17705
     RDKit          3D

 27 30  0  0  0  0  0  0  0  0999 V2000
   -3.3471    0.3632   -0.4121 N   0  0  0  0  0  0  0  0  0  0  0  0
    3.6059    0.8598   -0.0673 N   0  0  0  0  0  0  0  0  0  0  0  0
   -4.5822   -0.1664   -0.3288 C   0  0  0  0  0  0  0  0  0  0  0  0
    4.7408   -0.0103   -0.1548 C   0  0  0  0  0  0  0  0  0  0  0  0
   -2.5569    0.6050    0.6578 C   0  0  0  0  0  0  0  0  0  0  0  0
    2.3057    0.3378    0.1025 C   0  0  0  0  0  0  0  0  0  0  0  0
   -2.7927    0.7123   -1.7337 C   0  0  0  0  0  0  0  0  0  0  0  0
   -5.1016   -0.4956    0.9428 C   0  0  0  0  0  0  0  0  0  0  0  0
    3.8977    2.2946   -0.1626 C   0  0  0  0  0  0  0  0  0  0  0  0
    4.5484   -1.4119   -0.0996 C   0  0  0  0  0  0  0  0  0  0  0  0
   -3.0376    0.2914    1.9314 C   0  0  0  0  0  0  0  0  0  0  0  0
    2.1560   -1.1167    0.1439 C   0  0  0  0  0  0  0  0  0  0  0  0
   -4.3075   -0.2575    2.0728 C   0  0  0  0  0  0  0  0  0  0  0  0
    3.1969   -1.9507    0.0484 C   0  0  0  0  0  0  0  0  0  0  0  0
   -1.2503    1.1729    0.5017 C   0  0  0  0  0  0  0  0  0  0  0  0
    1.1704    1.0527    0.2331 C   0  0  0  0  0  0  0  0  0  0  0  0
   -5.3408   -0.3876   -1.4826 C   0  0  0  0  0  0  0  0  0  0  0  0
    6.0650    0.4509   -0.2930 C   0  0  0  0  0  0  0  0  0  0  0  0
   -6.3898   -1.0467    1.0263 C   0  0  0  0  0  0  0  0  0  0  0  0
   -0.1292    0.4451    0.3726 C   0  0  0  0  0  0  0  0  0  0  0  0
    5.6338   -2.2971   -0.1838 C   0  0  0  0  0  0  0  0  0  0  0  0
   -3.1581    2.1438   -2.0721 C   0  0  0  0  0  0  0  0  0  0  0  0
    4.3616    2.8558    1.1656 C   0  0  0  0  0  0  0  0  0  0  0  0
   -6.6186   -0.9360   -1.3803 C   0  0  0  0  0  0  0  0  0  0  0  0
    7.1435   -0.4364   -0.3759 C   0  0  0  0  0  0  0  0  0  0  0  0
   -7.1418   -1.2646   -0.1301 C   0  0  0  0  0  0  0  0  0  0  0  0
    6.9284   -1.8079   -0.3220 C   0  0  0  0  0  0  0  0  0  0  0  0
  1  3  2  0
  1  5  1  0
  1  7  1  0
  2  4  1  0
  2  6  1  0
  2  9  1  0
  3  8  1  0
  3 17  1  0
  4 10  2  0
  4 18  1  0
  5 11  2  0
  5 15  1  0
  6 12  1  0
  6 16  2  0
  7 22  1  0
  8 13  2  0
  8 19  1  0
  9 23  1  0
 10 14  1  0
 10 21  1  0
 11 13  1  0
 12 14  2  0
 15 20  2  0
 16 20  1  0
 17 24  2  0
 18 25  2  0
 19 26  2  0
 21 27  2  0
 24 26  1  0
 25 27  1  0
M  CHG  1   1   1
M  END
>  <PUBCHEM_COMPOUND_CID>  (1) 
17705

>  <PUBCHEM_CONFORMER_RMSD>  (1) 
0.8

>  <PUBCHEM_CONFORMER_DIVERSEORDER>  (1) 
1
7
3
9
4
8
5
2
6

>  <PUBCHEM_MMFF94_PARTIAL_CHARGES>  (1) 
39
1 -0.21
10 0.03
11 -0.15
12 -0.15
13 -0.15
14 -0.18
15 -0.18
16 -0.15
17 -0.15
18 -0.15
19 -0.15
2 -0.57
20 -0.15
21 -0.15
24 -0.15
25 -0.15
26 -0.15
27 -0.15
3 0.36
32 0.15
33 0.15
34 0.15
35 0.15
36 0.15
37 0.15
38 0.15
39 0.15
4 0.1
40 0.15
41 0.15
42 0.15
49 0.15
5 0.39
50 0.15
51 0.15
52 0.15
6 0.1
7 0.49
9 0.37

>  <PUBCHEM_EFFECTIVE_ROTOR_COUNT>  (1) 
4.2

>  <PUBCHEM_PHARMACOPHORE_FEATURES>  (1) 
5
1 2 cation
6 1 3 5 8 11 13 rings
6 2 4 6 10 12 14 rings
6 3 8 17 19 24 26 rings
6 4 10 18 21 25 27 rings

>  <PUBCHEM_HEAVY_ATOM_COUNT>  (1) 
27

>  <PUBCHEM_ATOM_DEF_STEREO_COUNT>  (1) 
0

>  <PUBCHEM_ATOM_UDEF_STEREO_COUNT>  (1) 
0

>  <PUBCHEM_BOND_DEF_STEREO_COUNT>  (1) 
0

>  <PUBCHEM_BOND_UDEF_STEREO_COUNT>  (1) 
2

>  <PUBCHEM_ISOTOPIC_ATOM_COUNT>  (1) 
0

>  <PUBCHEM_COMPONENT_COUNT>  (1) 
1

>  <PUBCHEM_CACTVS_TAUTO_COUNT>  (1) 
1

>  <PUBCHEM_CONFORMER_ID>  (1) 
0000452900000001

>  <PUBCHEM_MMFF94_ENERGY>  (1) 
108.7426

>  <PUBCHEM_FEATURE_SELFOVERLAP>  (1) 
25.427

>  <PUBCHEM_SHAPE_FINGERPRINT>  (1) 
10299344 5 17846782914004251727
10670039 82 16371005161713860396
11315181 36 15864079771060980711
12166972 35 18413672426410318272
12236239 1 17704073992763056528
12616971 3 17346595283557195124
13533116 47 18272652380893934864
13668630 136 18413390921152305278
13782708 43 18259982656535044490
14251764 18 17632578266636824614
14415360 78 17480852456896584408
14849402 71 16844999226391810336
14856354 85 16988842817620265231
15082195 135 16226053279823208406
15131766 46 17699557349716706033
15183329 4 14201397192501106287
15419008 47 17967249805937680661
17844677 252 18412267220242539205
17857418 61 18131071528027287107
19377110 9 17418373610109978360
19489759 90 16298391244672373595
20028762 73 18060420192751836182
2026 5 18189051989513917570
21033648 29 18113890564101821924
21033650 10 16660642891232746717
21267235 1 18272375252618942534
21623969 137 18341618087999655910
22061861 79 18260266351935714647
23081809 10 18131079250600375993
23522609 53 17487362519072651369
23559900 14 17313107479194882541
23569914 152 17324890718161990111
3004659 81 18334853917918376802
335352 9 18411427220489225262
3411729 13 15338256005105309024
34797466 226 17313392269775537101
4015057 19 18337679714594992697
4098825 35 18336826399298964837
4325135 7 18343585144308229503
44880568 143 17458062655536642829
46194498 28 17967249827944994468
59755656 215 17458061560251273514

>  <PUBCHEM_SHAPE_MULTIPOLES>  (1) 
545.69
21.34
2.21
1.53
1.28
0.63
-0.02
-9.63
-2.39
3.49
-0.1
-3.07
0.44
1.22

>  <PUBCHEM_SHAPE_SELFOVERLAP>  (1) 
1194.77

>  <PUBCHEM_SHAPE_VOLUME>  (1) 
293.8

>  <PUBCHEM_COORDINATE_TYPE>  (1) 
2
5
10

$$$$
