17708
     RDKit          3D

 19 20  0  0  1  0  0  0  0  0999 V2000
   -0.2254   -0.7002   -1.0310 O   0  0  0  0  0  0  0  0  0  0  0  0
    6.2073   -0.9138   -0.2198 O   0  0  0  0  0  0  0  0  0  0  0  0
    0.9496    0.7360    0.4059 N   0  0  0  0  0  0  0  0  0  0  0  0
   -1.4545    0.9556    0.2302 C   0  0  0  0  0  0  0  0  0  0  0  0
   -1.6701    2.2191   -0.6281 C   0  0  0  0  0  0  0  0  0  0  0  0
   -2.6480    0.0152    0.2043 C   0  0  0  0  0  0  0  0  0  0  0  0
   -0.1835    0.2164   -0.2152 C   0  0  0  0  0  0  0  0  0  0  0  0
   -2.8601    3.0540   -0.1718 C   0  0  0  0  0  0  0  0  0  0  0  0
   -3.3943   -0.0873   -0.9531 C   0  0  0  0  0  0  0  0  0  0  0  0
   -2.9529   -0.7102    1.3390 C   0  0  0  0  0  0  0  0  0  0  0  0
    2.2912    0.3151    0.2463 C   0  0  0  0  0  0  0  0  0  0  0  0
   -4.4899   -0.9503   -0.9767 C   0  0  0  0  0  0  0  0  0  0  0  0
   -4.0486   -1.5732    1.3155 C   0  0  0  0  0  0  0  0  0  0  0  0
   -4.8170   -1.6933    0.1576 C   0  0  0  0  0  0  0  0  0  0  0  0
    3.2922    0.9589    0.9547 C   0  0  0  0  0  0  0  0  0  0  0  0
    2.5749   -0.7316   -0.6151 C   0  0  0  0  0  0  0  0  0  0  0  0
    4.6146    0.5443    0.7970 C   0  0  0  0  0  0  0  0  0  0  0  0
    3.8973   -1.1463   -0.7728 C   0  0  0  0  0  0  0  0  0  0  0  0
    4.9172   -0.5083   -0.0668 C   0  0  0  0  0  0  0  0  0  0  0  0
  1  7  2  0
  2 19  1  0
  3  7  1  0
  3 11  1  0
  4  5  1  0
  4  6  1  0
  4  7  1  0
  5  8  1  0
  6  9  2  0
  6 10  1  0
  9 12  1  0
 10 13  2  0
 11 15  2  0
 11 16  1  0
 12 14  2  0
 13 14  1  0
 15 17  1  0
 16 18  2  0
 17 19  2  0
 18 19  1  0
M  END
>  <PUBCHEM_COMPOUND_CID>  (1) 
17708

>  <PUBCHEM_CONFORMER_RMSD>  (1) 
0.6

>  <PUBCHEM_CONFORMER_DIVERSEORDER>  (1) 
3
14
10
20
16
24
7
4
21
26
5
25
22
11
9
2
15
19
27
23
18
6
12
8
1
13
17

>  <PUBCHEM_MMFF94_PARTIAL_CHARGES>  (1) 
28
1 -0.57
10 -0.15
11 0.12
12 -0.15
13 -0.15
14 -0.15
15 -0.15
16 -0.15
17 -0.15
18 -0.15
19 0.08
2 -0.53
26 0.15
27 0.15
28 0.37
29 0.15
3 -0.55
30 0.15
31 0.15
32 0.15
33 0.15
34 0.15
35 0.15
36 0.45
4 0.2
6 -0.14
7 0.57
9 -0.15

>  <PUBCHEM_EFFECTIVE_ROTOR_COUNT>  (1) 
5

>  <PUBCHEM_PHARMACOPHORE_FEATURES>  (1) 
6
1 1 acceptor
1 2 donor
1 3 donor
1 8 hydrophobe
6 11 15 16 17 18 19 rings
6 6 9 10 12 13 14 rings

>  <PUBCHEM_HEAVY_ATOM_COUNT>  (1) 
19

>  <PUBCHEM_ATOM_DEF_STEREO_COUNT>  (1) 
0

>  <PUBCHEM_ATOM_UDEF_STEREO_COUNT>  (1) 
1

>  <PUBCHEM_BOND_DEF_STEREO_COUNT>  (1) 
0

>  <PUBCHEM_BOND_UDEF_STEREO_COUNT>  (1) 
0

>  <PUBCHEM_ISOTOPIC_ATOM_COUNT>  (1) 
0

>  <PUBCHEM_COMPONENT_COUNT>  (1) 
1

>  <PUBCHEM_CACTVS_TAUTO_COUNT>  (1) 
4

>  <PUBCHEM_CONFORMER_ID>  (1) 
0000452C00000003

>  <PUBCHEM_MMFF94_ENERGY>  (1) 
54.6597

>  <PUBCHEM_FEATURE_SELFOVERLAP>  (1) 
30.446

>  <PUBCHEM_SHAPE_FINGERPRINT>  (1) 
10366900 7 18334294279674975786
10680689 15 18342457023649937708
10912923 1 17530966852733375432
11315181 36 17676210173819324004
11370993 144 17702679739236480187
11405975 8 18269836406966028056
11545043 162 18341328899567214448
12236239 1 16056882450569273562
12363563 72 18261964036860243593
12403259 415 17989479724060112960
12616971 3 14117509953102302408
12916754 54 18412265055568355752
13544653 18 18343022228772503761
13583140 156 18130500834511568956
14341114 328 15913057563770509035
14386348 63 18408041840169933107
14508225 48 18261384577396058589
14528608 73 14923947885928888726
14849402 71 16199856402338436906
15880784 105 17917711356992943155
15961568 22 17823133587840125588
17844677 252 18413110563315503856
17870717 6 17676487254992120179
1813 80 18200328713616163109
18927931 339 18409736148944095455
193927 3 18334587861874356035
19433438 28 18342735213514691808
19489759 90 17967809435859483606
200 152 15068339016741493262
21033648 29 17988345006326981552
21065201 7 18262794065181468248
21267235 1 17988931067963405542
21682296 61 17916595232816983318
2297311 6 18334301971713365759
23175994 123 18260829358536159093
23402539 116 18334292072288456677
23557571 272 18339644438520390621
23559900 14 17895470448486556069
268830 7 14979662321967230528
300161 21 14201392811597359094
312423 11 18188221977929041036
314173 85 18409173237966990201
3268164 11 18114455686970805973
4214541 1 18341611473565241032
5104073 3 18271801273247547672
5283173 99 18187631480582865205
53917941 68 17970052367399789541
59755656 520 18119243957474166981
7495541 125 18272369785278601112
90127 26 18412262827081501616

>  <PUBCHEM_SHAPE_MULTIPOLES>  (1) 
374.29
12.24
2.07
1.12
10.61
1.6
0.12
-5.44
0.31
-2.54
-0.08
-0.55
-0.24
1.2

>  <PUBCHEM_SHAPE_SELFOVERLAP>  (1) 
794.652

>  <PUBCHEM_SHAPE_VOLUME>  (1) 
207.8

>  <PUBCHEM_COORDINATE_TYPE>  (1) 
2
5
10

$$$$
