17703
     RDKit          3D

 11 10  0  0  1  0  0  0  0  0999 V2000
    4.4847    1.5448   -0.0171 O   0  0  0  0  0  0  0  0  0  0  0  0
   -0.8713   -1.7717   -0.3595 C   0  0  0  0  0  0  0  0  0  0  0  0
    0.3745   -1.0590   -0.9283 C   0  0  0  0  0  0  0  0  0  0  0  0
   -1.7587   -0.8071    0.4582 C   0  0  0  0  0  0  0  0  0  0  0  0
    1.2781   -0.4468    0.1489 C   0  0  0  0  0  0  0  0  0  0  0  0
   -2.2246    0.4228   -0.3277 C   0  0  0  0  0  0  0  0  0  0  0  0
   -0.4902   -2.9652    0.5245 C   0  0  0  0  0  0  0  0  0  0  0  0
    2.4767    0.3086   -0.4291 C   0  0  0  0  0  0  0  0  0  0  0  0
   -3.1182    1.3210    0.5298 C   0  0  0  0  0  0  0  0  0  0  0  0
    3.4022    0.8895    0.6314 C   0  0  0  0  0  0  0  0  0  0  0  0
   -3.5533    2.5632   -0.2312 C   0  0  0  0  0  0  0  0  0  0  0  0
  1 10  1  0
  2  3  1  0
  2  4  1  0
  2  7  1  0
  3  5  1  0
  4  6  1  0
  5  8  1  0
  6  9  1  0
  8 10  1  0
  9 11  1  0
M  END
>  <PUBCHEM_COMPOUND_CID>  (1) 
17703

>  <PUBCHEM_CONFORMER_RMSD>  (1) 
0.6

>  <PUBCHEM_CONFORMER_DIVERSEORDER>  (1) 
2
9
179
169
89
120
206
201
3
36
167
40
213
97
23
172
158
78
118
161
74
192
46
196
93
210
187
28
42
61
111
55
177
66
197
200
14
17
183
99
102
163
151
170
134
56
194
59
21
173
19
110
198
145
91
190
174
49
75
98
27
131
209
165
30
37
22
50
215
216
149
144
147
24
212
43
4
48
126
44
146
18
123
8
150
95
141
58
218
41
11
157
168
60
214
107
15
73
34
203
94
207
71
121
128
72
185
5
204
122
133
86
112
127
103
202
65
16
29
63
39
186
88
82
69
211
106
188
154
45
152
153
205
191
1
176
31
108
77
199
83
136
80
47
184
175
13
129
125
195
38
132
54
109
90
25
189
178
52
139
208
193
92
85
180
57
143
124
181
35
84
137
96
159
53
171
101
51
33
104
217
148
7
156
68
62
117
10
32
105
164
20
182
67
119
160
26
70
113
140
135
6
64
142
115
12
138
130
116
76
79
87
166
81
162
100
114
155

>  <PUBCHEM_MMFF94_PARTIAL_CHARGES>  (1) 
3
1 -0.68
10 0.28
33 0.4

>  <PUBCHEM_EFFECTIVE_ROTOR_COUNT>  (1) 
7

>  <PUBCHEM_PHARMACOPHORE_FEATURES>  (1) 
4
1 1 acceptor
1 1 donor
1 11 hydrophobe
1 7 hydrophobe

>  <PUBCHEM_HEAVY_ATOM_COUNT>  (1) 
11

>  <PUBCHEM_ATOM_DEF_STEREO_COUNT>  (1) 
0

>  <PUBCHEM_ATOM_UDEF_STEREO_COUNT>  (1) 
1

>  <PUBCHEM_BOND_DEF_STEREO_COUNT>  (1) 
0

>  <PUBCHEM_BOND_UDEF_STEREO_COUNT>  (1) 
0

>  <PUBCHEM_ISOTOPIC_ATOM_COUNT>  (1) 
0

>  <PUBCHEM_COMPONENT_COUNT>  (1) 
1

>  <PUBCHEM_CACTVS_TAUTO_COUNT>  (1) 
1

>  <PUBCHEM_CONFORMER_ID>  (1) 
0000452700000002

>  <PUBCHEM_MMFF94_ENERGY>  (1) 
4.9388

>  <PUBCHEM_FEATURE_SELFOVERLAP>  (1) 
20.297

>  <PUBCHEM_SHAPE_FINGERPRINT>  (1) 
10149128 76 18341613672572269583
11127187 94 10375880645139331323
11357001 24 18117844527810359715
12006461 19 8502072072780733549
122479 349 18411700989033830364
13618510 140 18341895126137986537
14123255 52 18410291367803500313
14252887 29 8790013251356246757
15775835 57 18411135809881716633
170605 34 18199750241687525743
1741750 31 18412825798108507858
17834072 32 18411702097072777776
18342897 96 18273207595447361943
20605781 55 18411702049980325769
20621476 13 17758666759449067205
20645477 56 18271253827725157032
20645477 70 16845032168743231084
20653085 51 18131076991357835799
20671657 1 18050853213044369375
21499 59 18339635638622602189
21524375 3 18342450409558583447
23402539 116 18196927984328739639
23500284 214 18342746225241185057
305870 269 18335419006839617787
8050 44 18120092789035209941

>  <PUBCHEM_SHAPE_MULTIPOLES>  (1) 
220.51
6.69
2.93
0.84
3.61
1.04
0.03
-7.7
-0.57
-1.41
-0.27
0.02
0.11
0.28

>  <PUBCHEM_SHAPE_SELFOVERLAP>  (1) 
391.326

>  <PUBCHEM_SHAPE_VOLUME>  (1) 
144.4

>  <PUBCHEM_COORDINATE_TYPE>  (1) 
2
5
10

$$$$
