17700
     RDKit          3D

 25 26  0  0  0  0  0  0  0  0999 V2000
   -0.4997    0.7788   -1.2636 O   0  0  0  0  0  0  0  0  0  0  0  0
    1.6060    0.0218    0.1943 O   0  0  0  0  0  0  0  0  0  0  0  0
    0.3547    1.0545    1.8240 O   0  0  0  0  0  0  0  0  0  0  0  0
    5.2363    0.1183    0.8249 N   0  0  0  0  0  0  0  0  0  0  0  0
   -0.7710    0.0035   -0.0782 C   0  0  0  0  0  0  0  0  0  0  0  0
   -2.1260    0.3985    0.5141 C   0  0  0  0  0  0  0  0  0  0  0  0
   -0.7389   -1.4877   -0.4205 C   0  0  0  0  0  0  0  0  0  0  0  0
    0.4288    0.4418    0.7654 C   0  0  0  0  0  0  0  0  0  0  0  0
   -3.1216    0.8144   -0.3394 C   0  0  0  0  0  0  0  0  0  0  0  0
   -0.3118   -2.3752    0.5403 C   0  0  0  0  0  0  0  0  0  0  0  0
   -2.2958    0.3228    1.8772 C   0  0  0  0  0  0  0  0  0  0  0  0
   -1.1381   -1.8839   -1.6762 C   0  0  0  0  0  0  0  0  0  0  0  0
    2.7939    0.3378    0.9084 C   0  0  0  0  0  0  0  0  0  0  0  0
    3.9869   -0.1998    0.1343 C   0  0  0  0  0  0  0  0  0  0  0  0
   -0.4704    2.1598   -0.9629 C   0  0  0  0  0  0  0  0  0  0  0  0
   -4.3563    1.1747    0.2006 C   0  0  0  0  0  0  0  0  0  0  0  0
   -0.2823   -3.7343    0.2280 C   0  0  0  0  0  0  0  0  0  0  0  0
   -3.5304    0.6830    2.4172 C   0  0  0  0  0  0  0  0  0  0  0  0
   -1.1088   -3.2431   -1.9884 C   0  0  0  0  0  0  0  0  0  0  0  0
   -4.5606    1.1089    1.5789 C   0  0  0  0  0  0  0  0  0  0  0  0
   -0.6808   -4.1682   -1.0365 C   0  0  0  0  0  0  0  0  0  0  0  0
    6.3793   -0.4157    0.0853 C   0  0  0  0  0  0  0  0  0  0  0  0
    5.3704    1.5642    0.9986 C   0  0  0  0  0  0  0  0  0  0  0  0
   -0.1947    2.9412   -2.1689 C   0  0  0  0  0  0  0  0  0  0  0  0
    0.0312    3.5842   -3.1572 C   0  0  0  0  0  0  0  0  0  0  0  0
  1  5  1  0
  1 15  1  0
  2  8  1  0
  2 13  1  0
  3  8  2  0
  4 14  1  0
  4 22  1  0
  4 23  1  0
  5  6  1  0
  5  7  1  0
  5  8  1  0
  6  9  2  0
  6 11  1  0
  7 10  2  0
  7 12  1  0
  9 16  1  0
 10 17  1  0
 11 18  2  0
 12 19  2  0
 13 14  1  0
 15 24  1  0
 16 20  2  0
 17 21  2  0
 18 20  1  0
 19 21  1  0
 24 25  3  0
M  END
>  <PUBCHEM_COMPOUND_CID>  (1) 
17700

>  <PUBCHEM_CONFORMER_RMSD>  (1) 
1

>  <PUBCHEM_CONFORMER_DIVERSEORDER>  (1) 
1
19
27
29
28
26
12
7
13
21
25
18
3
5
20
23
10
4
16
6
9
24
8
17
2
11
15
14
22

>  <PUBCHEM_MMFF94_PARTIAL_CHARGES>  (1) 
36
1 -0.56
10 -0.15
11 -0.15
12 -0.15
13 0.28
14 0.27
15 0.48
16 -0.15
17 -0.15
18 -0.15
19 -0.15
2 -0.43
20 -0.15
21 -0.15
22 0.27
23 0.27
24 -0.2
25 -0.18
26 0.15
27 0.15
28 0.15
29 0.15
3 -0.57
36 0.15
37 0.15
38 0.15
39 0.15
4 -0.81
40 0.15
41 0.15
48 0.18
5 0.63
6 -0.14
7 -0.14
8 0.66
9 -0.15

>  <PUBCHEM_EFFECTIVE_ROTOR_COUNT>  (1) 
9

>  <PUBCHEM_PHARMACOPHORE_FEATURES>  (1) 
6
1 1 acceptor
1 25 hydrophobe
1 3 acceptor
1 4 cation
6 6 9 11 16 18 20 rings
6 7 10 12 17 19 21 rings

>  <PUBCHEM_HEAVY_ATOM_COUNT>  (1) 
25

>  <PUBCHEM_ATOM_DEF_STEREO_COUNT>  (1) 
0

>  <PUBCHEM_ATOM_UDEF_STEREO_COUNT>  (1) 
0

>  <PUBCHEM_BOND_DEF_STEREO_COUNT>  (1) 
0

>  <PUBCHEM_BOND_UDEF_STEREO_COUNT>  (1) 
0

>  <PUBCHEM_ISOTOPIC_ATOM_COUNT>  (1) 
0

>  <PUBCHEM_COMPONENT_COUNT>  (1) 
1

>  <PUBCHEM_CACTVS_TAUTO_COUNT>  (1) 
1

>  <PUBCHEM_CONFORMER_ID>  (1) 
0000452400000001

>  <PUBCHEM_MMFF94_ENERGY>  (1) 
84.8886

>  <PUBCHEM_FEATURE_SELFOVERLAP>  (1) 
30.446

>  <PUBCHEM_SHAPE_FINGERPRINT>  (1) 
10756046 70 18116726294625602429
11115154 58 17339534396452668271
11578080 2 17764320439854533977
12058002 1 17757878525654638417
12403814 3 18260541217248141024
12616971 3 18040990787786802584
12633257 1 18343293765695765784
12788726 201 17839192049103928119
14790565 3 18059018276412766912
14840074 17 18261116270582764028
14866123 147 18201153355521481391
14943834 7 17758690222938911125
15775530 1 17469037761493003245
15849732 13 18334293201622320989
17980427 23 18261121794195822457
21033648 29 18341315713902325152
23419403 2 17617384978751460365
3729539 64 17840325332603125334
5080951 261 17841675691985305258
5104073 3 18200863098438184730
550186 7 17532649023328735252
5845 1 8548531357118591719
59755656 520 18060136518239490882
81228 2 18049698996080683642
9925002 15 18193559106075113109

>  <PUBCHEM_SHAPE_MULTIPOLES>  (1) 
491.9
8.66
4.27
2.39
15.4
3.52
1.02
-3.81
-5.75
-1.34
4.04
-1.45
-1.71
-0.68

>  <PUBCHEM_SHAPE_SELFOVERLAP>  (1) 
1036.564

>  <PUBCHEM_SHAPE_VOLUME>  (1) 
275.3

>  <PUBCHEM_COORDINATE_TYPE>  (1) 
2
5
10

$$$$
