17716
     RDKit          3D

 18 19  0  0  1  0  0  0  0  0999 V2000
   -6.8673   -0.1085    0.1196 Cl  0  0  0  0  0  0  0  0  0  0  0  0
    5.5045    0.1658    0.0651 S   0  0  0  0  0  0  0  0  0  0  0  0
    5.4370    0.8133   -1.4071 O   0  0  0  0  0  0  0  0  0  0  0  0
    5.9746   -1.2530   -0.0924 O   0  0  0  0  0  0  0  0  0  0  0  0
   -0.4450   -0.0113    0.6562 N   0  0  0  0  0  0  0  0  0  0  0  0
   -0.9900    0.0664   -0.4699 N   0  0  0  0  0  0  0  0  0  0  0  0
    0.9463    0.0300    0.5180 C   0  0  0  0  0  0  0  0  0  0  0  0
    3.7211    0.1126    0.2422 C   0  0  0  0  0  0  0  0  0  0  0  0
    1.6135    1.2545    0.5450 C   0  0  0  0  0  0  0  0  0  0  0  0
    1.6663   -1.1533    0.3531 C   0  0  0  0  0  0  0  0  0  0  0  0
    3.0009    1.2958    0.4070 C   0  0  0  0  0  0  0  0  0  0  0  0
    3.0538   -1.1120    0.2152 C   0  0  0  0  0  0  0  0  0  0  0  0
   -2.3878    0.0246   -0.3307 C   0  0  0  0  0  0  0  0  0  0  0  0
   -3.1007    1.2079   -0.1662 C   0  0  0  0  0  0  0  0  0  0  0  0
   -3.0481   -1.1999   -0.3572 C   0  0  0  0  0  0  0  0  0  0  0  0
   -4.4880    1.1665   -0.0269 C   0  0  0  0  0  0  0  0  0  0  0  0
   -4.4355   -1.2414   -0.2180 C   0  0  0  0  0  0  0  0  0  0  0  0
   -5.1555   -0.0582   -0.0529 C   0  0  0  0  0  0  0  0  0  0  0  0
  1 18  1  0
  2  3  1  0
  2  4  2  0
  2  8  1  0
  5  6  2  0
  5  7  1  0
  6 13  1  0
  7  9  2  0
  7 10  1  0
  8 11  2  0
  8 12  1  0
  9 11  1  0
 10 12  2  0
 13 14  2  0
 13 15  1  0
 14 16  1  0
 15 17  2  0
 16 18  2  0
 17 18  1  0
M  END
>  <PUBCHEM_COMPOUND_CID>  (1) 
17716

>  <PUBCHEM_CONFORMER_RMSD>  (1) 
0.6

>  <PUBCHEM_CONFORMER_DIVERSEORDER>  (1) 
1
4
5
3
6
2

>  <PUBCHEM_MMFF94_PARTIAL_CHARGES>  (1) 
27
1 -0.18
10 -0.15
11 -0.15
12 -0.15
13 0.18
14 -0.15
15 -0.15
16 -0.15
17 -0.15
18 0.18
19 0.15
2 0.49
20 0.15
21 0.15
22 0.15
23 0.15
24 0.15
25 0.15
26 0.15
27 0.5
3 -0.55
4 -0.5
5 -0.18
6 -0.18
7 0.18
8 0.06
9 -0.15

>  <PUBCHEM_EFFECTIVE_ROTOR_COUNT>  (1) 
3

>  <PUBCHEM_PHARMACOPHORE_FEATURES>  (1) 
2
6 13 14 15 16 17 18 rings
6 7 8 9 10 11 12 rings

>  <PUBCHEM_HEAVY_ATOM_COUNT>  (1) 
18

>  <PUBCHEM_ATOM_DEF_STEREO_COUNT>  (1) 
0

>  <PUBCHEM_ATOM_UDEF_STEREO_COUNT>  (1) 
0

>  <PUBCHEM_BOND_DEF_STEREO_COUNT>  (1) 
0

>  <PUBCHEM_BOND_UDEF_STEREO_COUNT>  (1) 
0

>  <PUBCHEM_ISOTOPIC_ATOM_COUNT>  (1) 
0

>  <PUBCHEM_COMPONENT_COUNT>  (1) 
1

>  <PUBCHEM_CACTVS_TAUTO_COUNT>  (1) 
1

>  <PUBCHEM_CONFORMER_ID>  (1) 
0000453400000001

>  <PUBCHEM_MMFF94_ENERGY>  (1) 
44.8236

>  <PUBCHEM_FEATURE_SELFOVERLAP>  (1) 
10.149

>  <PUBCHEM_SHAPE_FINGERPRINT>  (1) 
10354089 29 18412543214814067392
10366900 7 16443060604116058705
10968037 39 18260266361348608063
11128504 68 17530968003367723668
11524674 6 16487255495743548591
12107183 9 17690559685129879185
12236239 1 17918274255211214336
12730499 353 18114186336855596546
13288520 33 18413387649146348197
13533116 47 14273723037222023552
13668630 136 16487257690191819783
1420 363 17894633655897639843
14251764 18 18272934921470609291
14251764 46 17894630352978066306
14341114 176 18411702114547533001
15183329 4 18201727236476829068
15788980 27 16917064477485922812
17834072 33 18410574002516086132
17834072 8 17989489623315950396
17834076 25 18040715870085630707
17844677 252 18272937132487782113
19489759 90 14549022083405885499
200 152 18131912662996522817
20281389 69 18408038502848585697
20645477 70 18341612556066012630
21267235 1 18411985767188401921
221357 26 18412822482235999825
22224240 67 8142080936739996700
2297311 6 18201725054860555845
23035841 295 18409166610647862067
23402539 116 17748821904126344804
23402655 69 18409726231621853241
23536379 177 18410011018408531432
23557571 272 18409731724974949285
23559900 14 18269827765629030545
29717793 49 17060625507522599640
3004659 81 18336548227642539846
34797466 226 17704078421375751924
3545911 37 18411697686530955921
4072396 5 9151178628073404188
4073 2 18113903800826986426
4214541 1 18413105048556130513
42788 4 18410572881344862576
4325135 7 18113900463621111662
4990 188 18202006529884401678
5104073 3 18341607161533874507
542803 24 17603865606703227549
59755656 215 18273218577510270679
59755656 520 17240198846462633547
77779 3 18412259545520440593

>  <PUBCHEM_SHAPE_MULTIPOLES>  (1) 
354.45
15.94
1.38
0.79
2.7
0.01
-0.1
0.91
-1.71
-0.13
0.02
-0.5
-0.08
-0.21

>  <PUBCHEM_SHAPE_SELFOVERLAP>  (1) 
736.959

>  <PUBCHEM_SHAPE_VOLUME>  (1) 
203

>  <PUBCHEM_COORDINATE_TYPE>  (1) 
2
5
10

$$$$
