1771
     RDKit          3D

 23 22  0  0  1  0  0  0  0  0999 V2000
    3.2034    3.0781    2.4486 O   0  0  0  0  0  0  0  0  0  0  0  0
    4.9435   -3.1312   -1.0285 O   0  0  0  0  0  0  0  0  0  0  0  0
    3.7746   -1.5505   -2.1685 O   0  0  0  0  0  0  0  0  0  0  0  0
   -2.1430   -3.3723    1.6466 C   0  0  0  0  0  0  0  0  0  0  0  0
   -1.0538   -2.5276    0.9746 C   0  0  0  0  0  0  0  0  0  0  0  0
    3.6521    0.9998    1.3258 C   0  0  0  0  0  0  0  0  0  0  0  0
    3.6146    0.1932    0.0228 C   0  0  0  0  0  0  0  0  0  0  0  0
   -3.5556   -3.2148    1.0735 C   0  0  0  0  0  0  0  0  0  0  0  0
   -0.8750   -2.7542   -0.5285 C   0  0  0  0  0  0  0  0  0  0  0  0
    2.9701    2.3733    1.2293 C   0  0  0  0  0  0  0  0  0  0  0  0
    4.3666   -1.1306    0.1355 C   0  0  0  0  0  0  0  0  0  0  0  0
   -4.0467   -1.7959    1.0938 C   0  0  0  0  0  0  0  0  0  0  0  0
    0.1862   -1.8629   -1.1549 C   0  0  0  0  0  0  0  0  0  0  0  0
    1.4928    2.2743    0.9479 C   0  0  0  0  0  0  0  0  0  0  0  0
   -4.4599   -1.1427   -0.0020 C   0  0  0  0  0  0  0  0  0  0  0  0
   -4.9680    0.2687   -0.0047 C   0  0  0  0  0  0  0  0  0  0  0  0
    4.3160   -1.9343   -1.1398 C   0  0  0  0  0  0  0  0  0  0  0  0
    0.8447    2.8114   -0.0980 C   0  0  0  0  0  0  0  0  0  0  0  0
   -4.1841    1.1374   -0.9452 C   0  0  0  0  0  0  0  0  0  0  0  0
   -2.7305    3.1277   -1.5882 C   0  0  0  0  0  0  0  0  0  0  0  0
   -0.5845    2.6809   -0.2783 C   0  0  0  0  0  0  0  0  0  0  0  0
   -3.5137    2.2613   -0.6444 C   0  0  0  0  0  0  0  0  0  0  0  0
   -1.2499    3.2109   -1.3173 C   0  0  0  0  0  0  0  0  0  0  0  0
  1 10  1  0
  2 17  1  0
  3 17  2  0
  4  5  1  0
  4  8  1  0
  5  9  1  0
  6  7  1  0
  6 10  1  0
  7 11  1  0
  8 12  1  0
  9 13  1  0
 10 14  1  0
 11 17  1  0
 12 15  2  0
 14 18  2  0
 15 16  1  0
 16 19  1  0
 18 21  1  0
 19 22  2  0
 20 22  1  0
 20 23  1  0
 21 23  2  0
M  END
>  <PUBCHEM_COMPOUND_CID>  (1) 
1771

>  <PUBCHEM_CONFORMER_RMSD>  (1) 
1.4

>  <PUBCHEM_CONFORMER_DIVERSEORDER>  (1) 
1
82
103
68
86
59
36
58
115
76
104
21
119
55
3
108
12
94
113
70
37
64
71
123
2
98
50
38
31
29
110
97
72
126
18
44
107
127
81
61
114
46
80
105
56
8
63
109
111
48
26
120
27
116
11
99
125
14
41
74
35
124
19
78
9
57
69
117
75
33
88
102
51
17
87
128
23
83
85
52
25
60
121
49
24
84
100
106
90
101
77
30
92
67
91
39
79
16
13
15
7
6
96
118
42
53
122
62
28
40
112
43
65
32
95
45
34
47
5
22
73
4
54
10
20
93
89
66

>  <PUBCHEM_MMFF94_PARTIAL_CHARGES>  (1) 
27
1 -0.68
10 0.42
11 0.06
12 -0.29
14 -0.29
15 -0.29
16 0.28
17 0.66
18 -0.15
19 -0.29
2 -0.65
20 0.28
21 -0.15
22 -0.29
23 -0.29
3 -0.57
39 0.15
43 0.15
44 0.15
47 0.15
48 0.4
49 0.15
52 0.15
53 0.15
54 0.15
55 0.5
8 0.14

>  <PUBCHEM_EFFECTIVE_ROTOR_COUNT>  (1) 
14

>  <PUBCHEM_PHARMACOPHORE_FEATURES>  (1) 
7
1 1 acceptor
1 1 donor
1 13 hydrophobe
1 2 acceptor
1 3 acceptor
3 2 3 17 anion
5 4 5 8 9 12 hydrophobe

>  <PUBCHEM_HEAVY_ATOM_COUNT>  (1) 
23

>  <PUBCHEM_ATOM_DEF_STEREO_COUNT>  (1) 
0

>  <PUBCHEM_ATOM_UDEF_STEREO_COUNT>  (1) 
1

>  <PUBCHEM_BOND_DEF_STEREO_COUNT>  (1) 
0

>  <PUBCHEM_BOND_UDEF_STEREO_COUNT>  (1) 
4

>  <PUBCHEM_ISOTOPIC_ATOM_COUNT>  (1) 
0

>  <PUBCHEM_COMPONENT_COUNT>  (1) 
1

>  <PUBCHEM_CACTVS_TAUTO_COUNT>  (1) 
1

>  <PUBCHEM_CONFORMER_ID>  (1) 
000006EB00000001

>  <PUBCHEM_MMFF94_ENERGY>  (1) 
9.8015

>  <PUBCHEM_FEATURE_SELFOVERLAP>  (1) 
35.578

>  <PUBCHEM_SHAPE_FINGERPRINT>  (1) 
108634 29 18196939868677217150
12100795 323 18126276682420099684
13402501 40 18340206301925668093
14251757 17 18412260635999178482
14251757 5 18187944866591435478
17627616 140 17684649822784019251
17977149 70 18334011670758489480
21196832 93 18338808802084967470
238918 7 18269541879240631395
445580 2 18411698777057250807
5047190 48 17905882935503138952
508706 21 18334572426252361935
636783 150 17977105657151574734

>  <PUBCHEM_SHAPE_MULTIPOLES>  (1) 
455.72
10.98
5.92
1.82
2.65
0.2
0.19
-4.33
-0.34
-1.33
0.07
1.47
0.12
5.6

>  <PUBCHEM_SHAPE_SELFOVERLAP>  (1) 
859.308

>  <PUBCHEM_SHAPE_VOLUME>  (1) 
280

>  <PUBCHEM_COORDINATE_TYPE>  (1) 
2
5
10

$$$$
