17721
     RDKit          3D

 24 24  0  0  0  0  0  0  0  0999 V2000
   -3.5583    0.4445   -0.1969 O   0  0  0  0  0  0  0  0  0  0  0  0
    3.5539    0.4369    0.2032 O   0  0  0  0  0  0  0  0  0  0  0  0
   -3.0133   -0.8983   -0.1174 O   0  0  0  0  0  0  0  0  0  0  0  0
    2.9994   -0.9080    0.1434 O   0  0  0  0  0  0  0  0  0  0  0  0
   -2.6559    1.1459   -1.0832 C   0  0  0  0  0  0  0  0  0  0  0  0
    2.6966    1.1550    1.0786 C   0  0  0  0  0  0  0  0  0  0  0  0
   -1.2731    1.1485   -0.5244 C   0  0  0  0  0  0  0  0  0  0  0  0
    1.2813    1.1533    0.5071 C   0  0  0  0  0  0  0  0  0  0  0  0
   -0.1741    1.1362   -1.3834 C   0  0  0  0  0  0  0  0  0  0  0  0
    1.1193    1.1386   -0.8611 C   0  0  0  0  0  0  0  0  0  0  0  0
   -1.0785    1.1631    0.8569 C   0  0  0  0  0  0  0  0  0  0  0  0
    0.2149    1.1656    1.3790 C   0  0  0  0  0  0  0  0  0  0  0  0
   -3.1960    2.5877   -1.2164 C   0  0  0  0  0  0  0  0  0  0  0  0
   -2.8065    0.4282   -2.4490 C   0  0  0  0  0  0  0  0  0  0  0  0
    3.2123    2.5962    1.1678 C   0  0  0  0  0  0  0  0  0  0  0  0
    2.8112    0.4659    2.4464 C   0  0  0  0  0  0  0  0  0  0  0  0
   -3.8922   -1.5979    0.7515 C   0  0  0  0  0  0  0  0  0  0  0  0
    3.8638   -1.6264   -0.7375 C   0  0  0  0  0  0  0  0  0  0  0  0
   -3.8820   -0.9061    2.1139 C   0  0  0  0  0  0  0  0  0  0  0  0
   -5.2935   -1.5810    0.1424 C   0  0  0  0  0  0  0  0  0  0  0  0
   -3.3760   -3.0301    0.8726 C   0  0  0  0  0  0  0  0  0  0  0  0
    5.2749   -1.6137   -0.1513 C   0  0  0  0  0  0  0  0  0  0  0  0
    3.3356   -3.0560   -0.8357 C   0  0  0  0  0  0  0  0  0  0  0  0
    3.8363   -0.9482   -2.1064 C   0  0  0  0  0  0  0  0  0  0  0  0
  1  3  1  0
  1  5  1  0
  2  4  1  0
  2  6  1  0
  3 17  1  0
  4 18  1  0
  5  7  1  0
  5 13  1  0
  5 14  1  0
  6  8  1  0
  6 15  1  0
  6 16  1  0
  7  9  2  0
  7 11  1  0
  8 10  2  0
  8 12  1  0
  9 10  1  0
 11 12  2  0
 17 19  1  0
 17 20  1  0
 17 21  1  0
 18 22  1  0
 18 23  1  0
 18 24  1  0
M  END
>  <PUBCHEM_COMPOUND_CID>  (1) 
17721

>  <PUBCHEM_CONFORMER_RMSD>  (1) 
0.8

>  <PUBCHEM_CONFORMER_DIVERSEORDER>  (1) 
1
31
30
24
32
27
29
2
18
19
25
10
33
6
11
8
26
5
4
3
23
17
21
22
28
7
13
20
12
14
34
15
16
9

>  <PUBCHEM_MMFF94_PARTIAL_CHARGES>  (1) 
18
1 -0.28
10 -0.15
11 -0.15
12 -0.15
17 0.28
18 0.28
2 -0.28
25 0.15
26 0.15
27 0.15
28 0.15
3 -0.28
4 -0.28
5 0.42
6 0.42
7 -0.14
8 -0.14
9 -0.15

>  <PUBCHEM_EFFECTIVE_ROTOR_COUNT>  (1) 
8

>  <PUBCHEM_PHARMACOPHORE_FEATURES>  (1) 
5
3 5 13 14 hydrophobe
3 6 15 16 hydrophobe
4 17 19 20 21 hydrophobe
4 18 22 23 24 hydrophobe
6 7 8 9 10 11 12 rings

>  <PUBCHEM_HEAVY_ATOM_COUNT>  (1) 
24

>  <PUBCHEM_ATOM_DEF_STEREO_COUNT>  (1) 
0

>  <PUBCHEM_ATOM_UDEF_STEREO_COUNT>  (1) 
0

>  <PUBCHEM_BOND_DEF_STEREO_COUNT>  (1) 
0

>  <PUBCHEM_BOND_UDEF_STEREO_COUNT>  (1) 
0

>  <PUBCHEM_ISOTOPIC_ATOM_COUNT>  (1) 
0

>  <PUBCHEM_COMPONENT_COUNT>  (1) 
1

>  <PUBCHEM_CACTVS_TAUTO_COUNT>  (1) 
1

>  <PUBCHEM_CONFORMER_ID>  (1) 
0000453900000001

>  <PUBCHEM_MMFF94_ENERGY>  (1) 
78.3576

>  <PUBCHEM_FEATURE_SELFOVERLAP>  (1) 
25.374

>  <PUBCHEM_SHAPE_FINGERPRINT>  (1) 
10369192 42 18051407663659244036
107951 10 18046903780494512381
11370993 144 18271814527411277153
11552529 35 17415277518732030887
11796584 16 18045214947772204734
12035759 4 15647063701877585934
12549972 3 18058995190937164089
12553582 1 17023188253641687137
12596599 1 17748820800314930141
12596602 18 15841262774238711395
12633257 1 15841550777507215390
12644460 14 16917073299770956228
12670546 177 17240493502313718982
12892183 10 17773606107808611403
13103583 49 17560539329799999131
13135754 10 17750820799798065841
13402501 40 18410862061499073450
13533116 47 17845938541236382275
13583140 156 18131624612536275097
13911882 115 18265900344327629074
14251751 18 18334014965288653002
14251757 17 18410571756179963194
14289901 80 17988063599737626081
14910302 57 18334289877375656007
14950920 106 17561092440125926067
15209294 21 13182740312225290077
15342816 4 17531235205825341720
16752209 62 17458059378586988299
17349148 13 15266761261662287845
17913733 40 17772457126969417312
1813 80 17458908262109859255
19078846 21 14620791613486059088
20645477 70 17774422920183377492
20693207 138 18408889537727702196
20871999 31 17603596205085288266
221490 88 18413387627344652512
22907989 373 14562826464318592441
23227448 37 9727342516310716835
23557571 272 18041550429566100205
23559900 14 18408317791702812604
314194 84 17703219617079586638
392239 28 16629091344939388122
463206 1 17754447955129471650
4921388 177 17968661518953674773
5352402 22 18272937149767481547
5486654 36 17986967245290081882
574716 61 15430043179261745503
59755656 520 18194961843423160773
6823239 73 18408038520339197736
9709674 26 18339065047542656957

>  <PUBCHEM_SHAPE_MULTIPOLES>  (1) 
470.43
10.47
3.07
2.11
0.23
1.31
0
6.88
0.08
-0.08
0
0.04
-0.34
3.34

>  <PUBCHEM_SHAPE_SELFOVERLAP>  (1) 
950.457

>  <PUBCHEM_SHAPE_VOLUME>  (1) 
281.2

>  <PUBCHEM_COORDINATE_TYPE>  (1) 
2
5
10

$$$$
