17725
     RDKit          3D

  8  7  0  0  0  0  0  0  0  0999 V2000
    0.0453   -2.2320   -0.0624 S   0  0  0  0  0  0  0  0  0  0  0  0
   -1.1971    0.1973   -0.0428 N   0  0  0  0  0  0  0  0  0  0  0  0
    1.1934    0.2406    0.0491 N   0  0  0  0  0  0  0  0  0  0  0  0
    0.0126   -0.5338   -0.0171 C   0  0  0  0  0  0  0  0  0  0  0  0
   -2.4360   -0.3430    0.5179 C   0  0  0  0  0  0  0  0  0  0  0  0
   -1.3620    1.4289   -0.8143 C   0  0  0  0  0  0  0  0  0  0  0  0
    1.2478    1.5480    0.7025 C   0  0  0  0  0  0  0  0  0  0  0  0
    2.4959   -0.3061   -0.3329 C   0  0  0  0  0  0  0  0  0  0  0  0
  1  4  2  0
  2  4  1  0
  2  5  1  0
  2  6  1  0
  3  4  1  0
  3  7  1  0
  3  8  1  0
M  END
>  <PUBCHEM_COMPOUND_CID>  (1) 
17725

>  <PUBCHEM_CONFORMER_RMSD>  (1) 
0.4

>  <PUBCHEM_CONFORMER_DIVERSEORDER>  (1) 
3
2
1
4

>  <PUBCHEM_MMFF94_PARTIAL_CHARGES>  (1) 
8
1 -0.38
2 -0.66
3 -0.66
4 0.5
5 0.3
6 0.3
7 0.3
8 0.3

>  <PUBCHEM_EFFECTIVE_ROTOR_COUNT>  (1) 
2

>  <PUBCHEM_PHARMACOPHORE_FEATURES>  (1) 
1
1 1 acceptor

>  <PUBCHEM_HEAVY_ATOM_COUNT>  (1) 
8

>  <PUBCHEM_ATOM_DEF_STEREO_COUNT>  (1) 
0

>  <PUBCHEM_ATOM_UDEF_STEREO_COUNT>  (1) 
0

>  <PUBCHEM_BOND_DEF_STEREO_COUNT>  (1) 
0

>  <PUBCHEM_BOND_UDEF_STEREO_COUNT>  (1) 
0

>  <PUBCHEM_ISOTOPIC_ATOM_COUNT>  (1) 
0

>  <PUBCHEM_COMPONENT_COUNT>  (1) 
1

>  <PUBCHEM_CACTVS_TAUTO_COUNT>  (1) 
1

>  <PUBCHEM_CONFORMER_ID>  (1) 
0000453D00000003

>  <PUBCHEM_MMFF94_ENERGY>  (1) 
34.92

>  <PUBCHEM_FEATURE_SELFOVERLAP>  (1) 
5.074

>  <PUBCHEM_SHAPE_FINGERPRINT>  (1) 
10857977 72 17968943131532875809
137420 1 11837314791335112666
15310529 11 17675927599235962042
16714656 1 18261964036533202542
21040471 1 18338796843988244232
23552423 10 17901679167489623422
29004967 10 17917435280837180342
5084963 1 18201433709547553259

>  <PUBCHEM_SHAPE_MULTIPOLES>  (1) 
158.52
2.91
2.02
0.81
0.05
0.68
0.02
-0.33
-0.07
0.06
0.03
-0.09
-0.19
0.47

>  <PUBCHEM_SHAPE_SELFOVERLAP>  (1) 
274.883

>  <PUBCHEM_SHAPE_VOLUME>  (1) 
108.7

>  <PUBCHEM_COORDINATE_TYPE>  (1) 
2
5
10

$$$$
