17727
     RDKit          3D

 14 13  0  0  0  0  0  0  0  0999 V2000
    8.1572    0.3609    0.1443 N   0  0  0  0  0  0  0  0  0  0  0  0
   -8.1386   -0.3187    0.1589 N   0  0  0  0  0  0  0  0  0  0  0  0
    0.6319    0.4163   -0.0716 C   0  0  0  0  0  0  0  0  0  0  0  0
   -0.6406   -0.4323   -0.0693 C   0  0  0  0  0  0  0  0  0  0  0  0
    1.8853   -0.4603   -0.0829 C   0  0  0  0  0  0  0  0  0  0  0  0
   -1.8940    0.4442   -0.0920 C   0  0  0  0  0  0  0  0  0  0  0  0
    3.1579    0.3881   -0.0522 C   0  0  0  0  0  0  0  0  0  0  0  0
   -3.1665   -0.4039   -0.0562 C   0  0  0  0  0  0  0  0  0  0  0  0
    4.4113   -0.4893   -0.0298 C   0  0  0  0  0  0  0  0  0  0  0  0
   -4.4196    0.4734   -0.0453 C   0  0  0  0  0  0  0  0  0  0  0  0
    5.6832    0.3622    0.0302 C   0  0  0  0  0  0  0  0  0  0  0  0
   -5.6919   -0.3739    0.0242 C   0  0  0  0  0  0  0  0  0  0  0  0
    6.9640   -0.4732    0.0694 C   0  0  0  0  0  0  0  0  0  0  0  0
   -6.9396    0.5065    0.0721 C   0  0  0  0  0  0  0  0  0  0  0  0
  1 13  1  0
  2 14  1  0
  3  4  1  0
  3  5  1  0
  4  6  1  0
  5  7  1  0
  6  8  1  0
  7  9  1  0
  8 10  1  0
  9 11  1  0
 10 12  1  0
 11 13  1  0
 12 14  1  0
M  END
>  <PUBCHEM_COMPOUND_CID>  (1) 
17727

>  <PUBCHEM_CONFORMER_RMSD>  (1) 
1.2

>  <PUBCHEM_CONFORMER_DIVERSEORDER>  (1) 
1
17
18
9
11
29
30
22
3
25
7
5
13
19
16
8
6
20
15
27
12
32
24
2
4
10
28
23
31
14
26
21

>  <PUBCHEM_MMFF94_PARTIAL_CHARGES>  (1) 
8
1 -0.99
13 0.27
14 0.27
2 -0.99
39 0.36
40 0.36
41 0.36
42 0.36

>  <PUBCHEM_EFFECTIVE_ROTOR_COUNT>  (1) 
11

>  <PUBCHEM_PHARMACOPHORE_FEATURES>  (1) 
4
1 1 cation
1 1 donor
1 2 cation
1 2 donor

>  <PUBCHEM_HEAVY_ATOM_COUNT>  (1) 
14

>  <PUBCHEM_ATOM_DEF_STEREO_COUNT>  (1) 
0

>  <PUBCHEM_ATOM_UDEF_STEREO_COUNT>  (1) 
0

>  <PUBCHEM_BOND_DEF_STEREO_COUNT>  (1) 
0

>  <PUBCHEM_BOND_UDEF_STEREO_COUNT>  (1) 
0

>  <PUBCHEM_ISOTOPIC_ATOM_COUNT>  (1) 
0

>  <PUBCHEM_COMPONENT_COUNT>  (1) 
1

>  <PUBCHEM_CACTVS_TAUTO_COUNT>  (1) 
1

>  <PUBCHEM_CONFORMER_ID>  (1) 
0000453F00000001

>  <PUBCHEM_MMFF94_ENERGY>  (1) 
-9.3587

>  <PUBCHEM_FEATURE_SELFOVERLAP>  (1) 
20.297

>  <PUBCHEM_SHAPE_FINGERPRINT>  (1) 
11315181 36 17917433146634080035
12091667 2 18411699886018305175
13533116 47 18339918212837147482
14123256 10 18410855455833194538
14251764 18 18410573972266549378
14251764 46 18410575088958072195
17834076 25 18410575084663085430
18006028 8 18342738515996759353
20281389 69 18409164411704032968
20621476 8 18413108338358524734
22224240 67 17530964700506393498
23402539 116 18343858935340300606
23521765 1 18341894090834051086
33684 2 18410573980856496843
42788 4 18410292510580987380
59567204 34 17632301108894291761
8209 1 18410573985156732397

>  <PUBCHEM_SHAPE_MULTIPOLES>  (1) 
278.15
24.94
0.79
0.61
0.37
0
0.01
-0.22
-1.66
0
0
0
0
0.04

>  <PUBCHEM_SHAPE_SELFOVERLAP>  (1) 
494.218

>  <PUBCHEM_SHAPE_VOLUME>  (1) 
178.7

>  <PUBCHEM_COORDINATE_TYPE>  (1) 
2
5
10

$$$$
