17722
     RDKit          3D

 16 15  0  0  0  0  0  0  0  0999 V2000
   -1.1684    0.5086   -0.3684 P   0  0  0  0  0  0  0  0  0  0  0  0
   -1.0194   -0.7573   -1.3707 O   0  0  0  0  0  0  0  0  0  0  0  0
   -2.6358    0.3025    0.2862 O   0  0  0  0  0  0  0  0  0  0  0  0
   -0.9656    1.8312   -1.0525 O   0  0  0  0  0  0  0  0  0  0  0  0
    2.9252   -2.8929    1.5573 O   0  0  0  0  0  0  0  0  0  0  0  0
    3.3744    2.9506   -0.9571 O   0  0  0  0  0  0  0  0  0  0  0  0
    1.3026    0.1859    0.3321 N   0  0  0  0  0  0  0  0  0  0  0  0
   -0.0219    0.1659    0.9572 C   0  0  0  0  0  0  0  0  0  0  0  0
    2.2252   -0.6505    1.1064 C   0  0  0  0  0  0  0  0  0  0  0  0
    1.8510    1.5399    0.2304 C   0  0  0  0  0  0  0  0  0  0  0  0
    2.0008   -2.1226    0.8001 C   0  0  0  0  0  0  0  0  0  0  0  0
    2.8829    1.6188   -0.8834 C   0  0  0  0  0  0  0  0  0  0  0  0
   -1.6721   -1.9838   -1.0916 C   0  0  0  0  0  0  0  0  0  0  0  0
   -3.1794    1.3478    1.0732 C   0  0  0  0  0  0  0  0  0  0  0  0
   -1.3537   -2.9734   -2.1920 C   0  0  0  0  0  0  0  0  0  0  0  0
   -4.5457    0.9295    1.5729 C   0  0  0  0  0  0  0  0  0  0  0  0
  1  2  1  0
  1  3  1  0
  1  4  2  0
  1  8  1  0
  2 13  1  0
  3 14  1  0
  5 11  1  0
  6 12  1  0
  7  8  1  0
  7  9  1  0
  7 10  1  0
  9 11  1  0
 10 12  1  0
 13 15  1  0
 14 16  1  0
M  END
>  <PUBCHEM_COMPOUND_CID>  (1) 
17722

>  <PUBCHEM_CONFORMER_RMSD>  (1) 
0.8

>  <PUBCHEM_CONFORMER_DIVERSEORDER>  (1) 
1
154
175
115
199
99
70
123
232
183
91
185
43
117
144
111
86
189
233
33
234
4
97
139
116
180
46
193
50
157
197
61
122
126
105
94
93
203
90
125
40
238
221
62
167
95
173
152
52
30
67
191
165
87
106
218
162
48
37
103
209
143
42
26
215
72
224
83
15
14
32
16
104
178
76
166
78
68
151
18
110
96
156
148
136
146
213
153
145
181
124
98
107
36
39
202
208
222
49
65
77
179
22
225
71
127
216
79
161
230
66
12
34
168
219
121
128
231
20
112
88
159
81
80
133
158
47
9
56
114
63
150
102
200
57
188
11
69
131
2
198
113
59
204
54
155
141
64
92
31
7
160
142
24
190
237
84
186
220
85
172
45
5
51
28
187
3
89
205
21
8
227
210
211
134
177
132
170
109
174
137
100
226
184
38
196
13
35
29
44
164
223
53
201
75
217
82
60
236
6
147
235
41
73
229
119
129
17
214
206
212
163
74
135
118
23
149
239
25
108
176
207
169
55
19
27
101
10
192
58
194
171
228
130
182
140
195
120
138

>  <PUBCHEM_MMFF94_PARTIAL_CHARGES>  (1) 
16
1 1.24
10 0.27
11 0.28
12 0.28
13 0.28
14 0.28
2 -0.55
3 -0.55
37 0.4
38 0.4
4 -0.7
5 -0.68
6 -0.68
7 -0.81
8 0.27
9 0.27

>  <PUBCHEM_EFFECTIVE_ROTOR_COUNT>  (1) 
10

>  <PUBCHEM_PHARMACOPHORE_FEATURES>  (1) 
6
1 4 acceptor
1 5 acceptor
1 5 donor
1 6 acceptor
1 6 donor
1 7 cation

>  <PUBCHEM_HEAVY_ATOM_COUNT>  (1) 
16

>  <PUBCHEM_ATOM_DEF_STEREO_COUNT>  (1) 
0

>  <PUBCHEM_ATOM_UDEF_STEREO_COUNT>  (1) 
0

>  <PUBCHEM_BOND_DEF_STEREO_COUNT>  (1) 
0

>  <PUBCHEM_BOND_UDEF_STEREO_COUNT>  (1) 
0

>  <PUBCHEM_ISOTOPIC_ATOM_COUNT>  (1) 
0

>  <PUBCHEM_COMPONENT_COUNT>  (1) 
1

>  <PUBCHEM_CACTVS_TAUTO_COUNT>  (1) 
1

>  <PUBCHEM_CONFORMER_ID>  (1) 
0000453A00000001

>  <PUBCHEM_MMFF94_ENERGY>  (1) 
15.9506

>  <PUBCHEM_FEATURE_SELFOVERLAP>  (1) 
30.447

>  <PUBCHEM_SHAPE_FINGERPRINT>  (1) 
10756046 70 18340762641861351055
12788726 201 17844240942533017655
15279307 12 18340767138744753430
15842332 3 18341037614252313694
16752209 62 17703220827996632959
20645476 183 18201445791538626145
20671657 1 18341893000176433672
20711985 344 17558826428233485031
21041028 32 18044092350473692880
23526113 38 15984560986604644964
23558518 356 17692818502657063328
23566358 27 18260555536605906378
23598291 2 18412541041713557558
23598294 1 17987801942235469219
2748010 2 17476908065798528758
31174 14 17967537822164705536
3286 77 17241334538293212355
465052 167 18264219006660798907
53748568 43 18340490087705754980
6992083 37 18052792798594639122
81228 2 17415823933314095959
88987 49 17703782669357595352

>  <PUBCHEM_SHAPE_MULTIPOLES>  (1) 
298.79
6.07
3.41
1.81
2.74
2.06
-0.13
-3.08
2.34
-1.55
-1.29
0.04
0.95
-3.42

>  <PUBCHEM_SHAPE_SELFOVERLAP>  (1) 
536.365

>  <PUBCHEM_SHAPE_VOLUME>  (1) 
193.6

>  <PUBCHEM_COORDINATE_TYPE>  (1) 
2
5
10

$$$$
