1772
     RDKit          3D

 24 23  0  0  1  0  0  0  0  0999 V2000
   -2.0911    2.9313    1.0128 O   0  0  0  0  0  0  0  0  0  0  0  0
   -1.6294    3.1051    2.3778 O   0  0  0  0  0  0  0  0  0  0  0  0
   -6.9176   -1.3462   -2.4631 O   0  0  0  0  0  0  0  0  0  0  0  0
   -5.7587   -2.2281   -0.7185 O   0  0  0  0  0  0  0  0  0  0  0  0
    4.2742    2.0412   -1.9370 C   0  0  0  0  0  0  0  0  0  0  0  0
    3.6375    2.1715   -0.5482 C   0  0  0  0  0  0  0  0  0  0  0  0
   -3.5754    1.4709   -0.1895 C   0  0  0  0  0  0  0  0  0  0  0  0
   -4.2681    0.1059   -0.2736 C   0  0  0  0  0  0  0  0  0  0  0  0
   -2.5491    1.5807    0.9488 C   0  0  0  0  0  0  0  0  0  0  0  0
    5.2938    0.9084   -2.0979 C   0  0  0  0  0  0  0  0  0  0  0  0
    2.5831    3.2715   -0.4049 C   0  0  0  0  0  0  0  0  0  0  0  0
   -5.3331    0.0598   -1.3664 C   0  0  0  0  0  0  0  0  0  0  0  0
    4.6961   -0.4560   -1.9071 C   0  0  0  0  0  0  0  0  0  0  0  0
    1.9518    3.3314    0.9773 C   0  0  0  0  0  0  0  0  0  0  0  0
   -1.3882    0.6340    0.7830 C   0  0  0  0  0  0  0  0  0  0  0  0
    5.0564   -1.2872   -0.9185 C   0  0  0  0  0  0  0  0  0  0  0  0
    4.4641   -2.6480   -0.6989 C   0  0  0  0  0  0  0  0  0  0  0  0
   -6.0037   -1.2878   -1.4631 C   0  0  0  0  0  0  0  0  0  0  0  0
   -1.0041   -0.3133    1.6532 C   0  0  0  0  0  0  0  0  0  0  0  0
    3.7397   -2.7312    0.6131 C   0  0  0  0  0  0  0  0  0  0  0  0
    0.1393   -1.1677    1.4189 C   0  0  0  0  0  0  0  0  0  0  0  0
    1.7113   -3.0541    2.1196 C   0  0  0  0  0  0  0  0  0  0  0  0
    2.4327   -2.9717    0.8051 C   0  0  0  0  0  0  0  0  0  0  0  0
    0.5385   -2.1202    2.2771 C   0  0  0  0  0  0  0  0  0  0  0  0
  1  2  1  0
  1  9  1  0
  3 18  1  0
  4 18  2  0
  5  6  1  0
  5 10  1  0
  6 11  1  0
  7  8  1  0
  7  9  1  0
  8 12  1  0
  9 15  1  0
 10 13  1  0
 11 14  1  0
 12 18  1  0
 13 16  2  0
 15 19  2  0
 16 17  1  0
 17 20  1  0
 19 21  1  0
 20 23  2  0
 21 24  2  0
 22 23  1  0
 22 24  1  0
M  END
>  <PUBCHEM_COMPOUND_CID>  (1) 
1772

>  <PUBCHEM_CONFORMER_RMSD>  (1) 
1.4

>  <PUBCHEM_CONFORMER_DIVERSEORDER>  (1) 
1
27
45
59
43
121
93
63
42
108
16
144
86
82
84
103
5
76
101
54
4
19
140
48
141
151
51
94
152
65
106
79
77
37
55
81
2
146
20
147
47
3
124
98
14
150
104
31
80
88
6
49
107
28
87
127
116
119
99
41
35
123
21
52
69
50
148
70
112
92
91
38
9
90
61
58
128
134
8
44
157
30
132
161
25
24
40
115
117
75
105
159
62
139
133
122
78
149
72
33
17
12
118
66
13
131
142
67
155
95
46
11
138
57
102
89
56
97
60
64
129
160
143
136
74
135
18
32
39
53
109
125
10
71
29
96
7
73
26
158
85
34
83
110
111
36
113
120
130
114
156
22
153
137
23
126
145
68
15
100
154

>  <PUBCHEM_MMFF94_PARTIAL_CHARGES>  (1) 
28
1 -0.28
10 0.14
12 0.06
13 -0.29
15 -0.29
16 -0.29
17 0.28
18 0.66
19 -0.15
2 -0.4
20 -0.29
21 -0.15
22 0.28
23 -0.29
24 -0.29
3 -0.65
4 -0.57
40 0.15
44 0.15
45 0.15
48 0.15
49 0.15
50 0.15
53 0.15
54 0.15
55 0.4
56 0.5
9 0.42

>  <PUBCHEM_EFFECTIVE_ROTOR_COUNT>  (1) 
15

>  <PUBCHEM_PHARMACOPHORE_FEATURES>  (1) 
5
1 14 hydrophobe
1 3 acceptor
1 4 acceptor
3 3 4 18 anion
5 5 6 10 11 13 hydrophobe

>  <PUBCHEM_HEAVY_ATOM_COUNT>  (1) 
24

>  <PUBCHEM_ATOM_DEF_STEREO_COUNT>  (1) 
0

>  <PUBCHEM_ATOM_UDEF_STEREO_COUNT>  (1) 
1

>  <PUBCHEM_BOND_DEF_STEREO_COUNT>  (1) 
0

>  <PUBCHEM_BOND_UDEF_STEREO_COUNT>  (1) 
4

>  <PUBCHEM_ISOTOPIC_ATOM_COUNT>  (1) 
0

>  <PUBCHEM_COMPONENT_COUNT>  (1) 
1

>  <PUBCHEM_CACTVS_TAUTO_COUNT>  (1) 
1

>  <PUBCHEM_CONFORMER_ID>  (1) 
000006EC00000001

>  <PUBCHEM_MMFF94_ENERGY>  (1) 
9.5353

>  <PUBCHEM_FEATURE_SELFOVERLAP>  (1) 
25.429

>  <PUBCHEM_SHAPE_FINGERPRINT>  (1) 
10049733 234 17831855021361697119
10838868 217 10158330183963526211
12661589 4 16772373236039317471
12769317 202 17895484635438774714
13165053 371 9653931454162311863
13383661 66 17332249105299908235
13773456 30 17904200678708026292
14040221 126 16691574666273671767
14428016 6 18187366540681162878
14931854 50 18262817198202151780
15721738 15 18192434301301021956
17138139 8 18269571463888353084
19026451 147 18340764862992549774
21315763 76 17895198758120397210
21421861 104 10447925092356732426
21968339 14 17459179695306137866
3459 39 12757439323719228839
354706 35 18192165986879228860
394071 54 9655586196742844157
4371632 12 18189064242590596568
44344687 77 18198076961516785211
45266715 3 18267297806627701056
7918774 8 15913325788789208431

>  <PUBCHEM_SHAPE_MULTIPOLES>  (1) 
470.43
14.94
4.84
2.55
16.54
0.83
0.06
-4.19
15.45
-4.86
-2.22
0.96
-0.21
-3.57

>  <PUBCHEM_SHAPE_SELFOVERLAP>  (1) 
886.069

>  <PUBCHEM_SHAPE_VOLUME>  (1) 
289.6

>  <PUBCHEM_COORDINATE_TYPE>  (1) 
2
5
10

$$$$
