17729
     RDKit          3D

 21 24  0  0  0  0  0  0  0  0999 V2000
    2.0414    0.4110    1.7650 S   0  0  0  0  0  0  0  0  0  0  0  0
   -1.1625   -1.0288    0.0909 S   0  0  0  0  0  0  0  0  0  0  0  0
    2.0257    0.6008   -0.7358 N   0  0  0  0  0  0  0  0  0  0  0  0
   -2.4848    1.2988    0.1520 N   0  0  0  0  0  0  0  0  0  0  0  0
    1.2949    0.8362    0.3078 C   0  0  0  0  0  0  0  0  0  0  0  0
   -1.1988    0.7562    0.1845 C   0  0  0  0  0  0  0  0  0  0  0  0
    3.2545    0.0545   -0.4415 C   0  0  0  0  0  0  0  0  0  0  0  0
   -3.4723    0.3002    0.0500 C   0  0  0  0  0  0  0  0  0  0  0  0
   -0.0270    1.4047    0.2750 C   0  0  0  0  0  0  0  0  0  0  0  0
    3.4490   -0.1284    0.9219 C   0  0  0  0  0  0  0  0  0  0  0  0
   -2.9521   -1.0130    0.0050 C   0  0  0  0  0  0  0  0  0  0  0  0
    1.6016    0.8817   -2.0915 C   0  0  0  0  0  0  0  0  0  0  0  0
   -2.8679    2.6964    0.2071 C   0  0  0  0  0  0  0  0  0  0  0  0
    4.2476   -0.3019   -1.3651 C   0  0  0  0  0  0  0  0  0  0  0  0
   -4.8511    0.4797   -0.0079 C   0  0  0  0  0  0  0  0  0  0  0  0
    4.6415   -0.6740    1.4175 C   0  0  0  0  0  0  0  0  0  0  0  0
   -3.7724   -2.1283   -0.0943 C   0  0  0  0  0  0  0  0  0  0  0  0
    5.4386   -0.8464   -0.8753 C   0  0  0  0  0  0  0  0  0  0  0  0
   -5.6862   -0.6384   -0.1084 C   0  0  0  0  0  0  0  0  0  0  0  0
    5.6312   -1.0290    0.4939 C   0  0  0  0  0  0  0  0  0  0  0  0
   -5.1509   -1.9320   -0.1511 C   0  0  0  0  0  0  0  0  0  0  0  0
  1  5  1  0
  1 10  1  0
  2  6  1  0
  2 11  1  0
  3  5  2  0
  3  7  1  0
  3 12  1  0
  4  6  1  0
  4  8  1  0
  4 13  1  0
  5  9  1  0
  6  9  2  0
  7 10  2  0
  7 14  1  0
  8 11  2  0
  8 15  1  0
 10 16  1  0
 11 17  1  0
 14 18  2  0
 15 19  2  0
 16 20  2  0
 17 21  2  0
 18 20  1  0
 19 21  1  0
M  CHG  1   3   1
M  END
>  <PUBCHEM_COMPOUND_CID>  (1) 
17729

>  <PUBCHEM_CONFORMER_RMSD>  (1) 
0.6

>  <PUBCHEM_CONFORMER_DIVERSEORDER>  (1) 
2
4
3
1

>  <PUBCHEM_MMFF94_PARTIAL_CHARGES>  (1) 
30
1 -0.08
10 0.04
11 0.1
12 0.51
13 0.37
14 -0.15
15 -0.15
16 -0.15
17 -0.15
18 -0.15
19 -0.15
2 -0.2
20 -0.15
21 -0.15
22 0.15
29 0.15
3 -0.18
30 0.15
31 0.15
32 0.15
33 0.15
34 0.15
35 0.15
36 0.15
4 -0.57
5 0.33
6 0.2
7 0.33
8 0.1
9 -0.11

>  <PUBCHEM_EFFECTIVE_ROTOR_COUNT>  (1) 
1.4

>  <PUBCHEM_PHARMACOPHORE_FEATURES>  (1) 
5
1 4 cation
5 1 3 5 7 10 rings
5 2 4 6 8 11 rings
6 7 10 14 16 18 20 rings
6 8 11 15 17 19 21 rings

>  <PUBCHEM_HEAVY_ATOM_COUNT>  (1) 
21

>  <PUBCHEM_ATOM_DEF_STEREO_COUNT>  (1) 
0

>  <PUBCHEM_ATOM_UDEF_STEREO_COUNT>  (1) 
0

>  <PUBCHEM_BOND_DEF_STEREO_COUNT>  (1) 
0

>  <PUBCHEM_BOND_UDEF_STEREO_COUNT>  (1) 
1

>  <PUBCHEM_ISOTOPIC_ATOM_COUNT>  (1) 
0

>  <PUBCHEM_COMPONENT_COUNT>  (1) 
1

>  <PUBCHEM_CACTVS_TAUTO_COUNT>  (1) 
1

>  <PUBCHEM_CONFORMER_ID>  (1) 
0000454100000002

>  <PUBCHEM_MMFF94_ENERGY>  (1) 
71.8543

>  <PUBCHEM_FEATURE_SELFOVERLAP>  (1) 
25.509

>  <PUBCHEM_SHAPE_FINGERPRINT>  (1) 
10 15 17631999928501397546
10688039 33 16487258755211821424
11128504 68 17385725815688748254
11545043 162 18131628959005820576
11796584 16 18413389821661776390
12107183 9 17613710423528408912
12166972 35 17894914074686935925
12236239 1 17894912910376251704
12633257 1 16343701083686964878
12969540 114 13695582286901173243
13288520 33 18411982460000306345
13402501 40 17988928872407332159
13583140 156 17703215231268981316
13862211 1 18340483461209715527
13911987 19 15068919529306999722
14251751 18 18272368702203427106
14251752 14 17894622631143794069
14294032 229 18044936771684526973
14341114 176 16559032701220072098
14386348 63 17704356558624355110
14576447 43 17822007610432940570
15183329 4 17385715881645774847
15788980 27 18260832596129032603
16752209 62 18334570248656437707
17349148 13 18260832609246231479
17804303 29 18342174488164497209
17834072 33 18040154024223628140
17844677 252 18342459235832824416
17857418 61 18334009488756782386
18222031 100 17967811648237295372
18927931 339 18342459249155199279
19141452 34 17489585714509152471
200 152 17095240311013134973
20374829 77 18412544327569306007
21033648 29 16916489368458897224
21033650 10 18119556261662331076
21065201 7 18342732975446438096
21267235 1 18336831983230956691
21623969 137 16773796987627518086
21641784 216 14852171650993583534
21781051 124 18115036337334403835
22646028 1 18187080667678916433
2297311 6 18341618118174722289
23402539 116 18410852157889285101
23557571 272 18059583438216205709
23559900 14 18341044220213000817
239999 70 18131069351354561274
26918003 58 16774079583226709011
29717793 49 17822010883002899702
3004659 81 18261112997411372686
312423 11 18263094343303779313
335352 9 18411417311641100605
3411729 13 18127401479285940496
34797466 226 18059868294149862652
351380 3 18113898264555924339
4214541 1 18411981330113074017
4325135 7 18336826485788803672
4340502 62 14548745044871779823
465052 167 17561367279720503318
5104073 3 18271812384217224601
559249 180 18261669281966076947
59682541 52 15430576425453456419
59755656 215 18341047424448351799
59755656 520 17984428438877974553
602551 16 18341892983170442690
67856867 119 18262520432731176884
7471813 234 17821731637109467700
7495541 125 17989487450511034656
7970288 3 18337668741075428635
960060 61 16877663465825862902

>  <PUBCHEM_SHAPE_MULTIPOLES>  (1) 
429.91
13.49
1.89
1.32
0.37
0.33
-0.17
-6.36
-0.28
-2.55
0.02
1.99
0.14
-0.29

>  <PUBCHEM_SHAPE_SELFOVERLAP>  (1) 
929.044

>  <PUBCHEM_SHAPE_VOLUME>  (1) 
239.3

>  <PUBCHEM_COORDINATE_TYPE>  (1) 
2
5
10

$$$$
