1774
     RDKit          3D

  8  8  0  0  0  0  0  0  0  0999 V2000
   -0.5204   -1.9637   -0.0082 O   0  0  0  0  0  0  0  0  0  0  0  0
    0.1020   -0.8559    0.0093 N   0  0  0  0  0  0  0  0  0  0  0  0
   -0.5899    0.4543    0.0002 C   0  0  0  0  0  0  0  0  0  0  0  0
    0.5680    1.3655    0.4274 C   0  0  0  0  0  0  0  0  0  0  0  0
    1.8324    0.6380   -0.0175 C   0  0  0  0  0  0  0  0  0  0  0  0
   -1.7297    0.4349    1.0081 C   0  0  0  0  0  0  0  0  0  0  0  0
   -1.0657    0.7115   -1.4256 C   0  0  0  0  0  0  0  0  0  0  0  0
    1.4032   -0.7846    0.0062 C   0  0  0  0  0  0  0  0  0  0  0  0
  1  2  1  0
  2  3  1  0
  2  8  2  0
  3  4  1  0
  3  6  1  0
  3  7  1  0
  4  5  1  0
  5  8  1  0
M  CHG  2   1  -1   2   1
M  END
>  <PUBCHEM_COMPOUND_CID>  (1) 
1774

>  <PUBCHEM_CONFORMER_RMSD>  (1) 
0.4

>  <PUBCHEM_CONFORMER_DIVERSEORDER>  (1) 
1

>  <PUBCHEM_MMFF94_PARTIAL_CHARGES>  (1) 
6
1 -0.63
19 0.06
2 0.53
3 0.1
5 0.06
8 -0.12

>  <PUBCHEM_EFFECTIVE_ROTOR_COUNT>  (1) 
0.6

>  <PUBCHEM_PHARMACOPHORE_FEATURES>  (1) 
3
1 1 anion
3 3 6 7 hydrophobe
5 2 3 4 5 8 rings

>  <PUBCHEM_HEAVY_ATOM_COUNT>  (1) 
8

>  <PUBCHEM_ATOM_DEF_STEREO_COUNT>  (1) 
0

>  <PUBCHEM_ATOM_UDEF_STEREO_COUNT>  (1) 
0

>  <PUBCHEM_BOND_DEF_STEREO_COUNT>  (1) 
0

>  <PUBCHEM_BOND_UDEF_STEREO_COUNT>  (1) 
0

>  <PUBCHEM_ISOTOPIC_ATOM_COUNT>  (1) 
0

>  <PUBCHEM_COMPONENT_COUNT>  (1) 
1

>  <PUBCHEM_CACTVS_TAUTO_COUNT>  (1) 
1

>  <PUBCHEM_CONFORMER_ID>  (1) 
000006EE00000001

>  <PUBCHEM_MMFF94_ENERGY>  (1) 
19.4383

>  <PUBCHEM_FEATURE_SELFOVERLAP>  (1) 
15.223

>  <PUBCHEM_SHAPE_FINGERPRINT>  (1) 
137420 1 10548250850828840093
18185500 45 17624668203544662039
21040471 1 18341341053813030528
24536 1 18059004124563694848
29004967 10 18121506743259631857
5084963 1 17605006826969379096
5943 1 11418111513669516925

>  <PUBCHEM_SHAPE_MULTIPOLES>  (1) 
153.79
1.98
1.53
1.03
0.2
0.57
0.24
-0.29
-0.18
0.14
-0.05
-0.53
-0.23
0.1

>  <PUBCHEM_SHAPE_SELFOVERLAP>  (1) 
306.433

>  <PUBCHEM_SHAPE_VOLUME>  (1) 
94.8

>  <PUBCHEM_COORDINATE_TYPE>  (1) 
2
5
10

$$$$
