17743
     RDKit          3D

 15 17  0  0  0  0  0  0  0  0999 V2000
   -1.4120    3.0369   -0.0001 O   0  0  0  0  0  0  0  0  0  0  0  0
   -0.0615    1.1880    0.0004 N   0  0  0  0  0  0  0  0  0  0  0  0
   -0.2288    2.6352    0.0003 N   0  0  0  0  0  0  0  0  0  0  0  0
   -0.5298   -0.9921    0.0003 C   0  0  0  0  0  0  0  0  0  0  0  0
    0.8918   -0.8278    0.0004 C   0  0  0  0  0  0  0  0  0  0  0  0
   -1.0964    0.2827    0.0001 C   0  0  0  0  0  0  0  0  0  0  0  0
    1.1526    0.5427    0.0002 C   0  0  0  0  0  0  0  0  0  0  0  0
   -1.3884   -2.1115    0.0002 C   0  0  0  0  0  0  0  0  0  0  0  0
    1.9829   -1.7220    0.0003 C   0  0  0  0  0  0  0  0  0  0  0  0
   -2.4795    0.4965   -0.0002 C   0  0  0  0  0  0  0  0  0  0  0  0
    2.4505    1.0662   -0.0001 C   0  0  0  0  0  0  0  0  0  0  0  0
   -2.7738   -1.9138   -0.0002 C   0  0  0  0  0  0  0  0  0  0  0  0
    3.2867   -1.2135   -0.0003 C   0  0  0  0  0  0  0  0  0  0  0  0
   -3.3092   -0.6281   -0.0005 C   0  0  0  0  0  0  0  0  0  0  0  0
    3.5147    0.1606   -0.0007 C   0  0  0  0  0  0  0  0  0  0  0  0
  1  3  2  0
  2  3  1  0
  2  6  1  0
  2  7  1  0
  4  5  1  0
  4  6  2  0
  4  8  1  0
  5  7  2  0
  5  9  1  0
  6 10  1  0
  7 11  1  0
  8 12  2  0
  9 13  2  0
 10 14  2  0
 11 15  2  0
 12 14  1  0
 13 15  1  0
M  END
>  <PUBCHEM_COMPOUND_CID>  (1) 
17743

>  <PUBCHEM_CONFORMER_RMSD>  (1) 
0.4

>  <PUBCHEM_CONFORMER_DIVERSEORDER>  (1) 
1

>  <PUBCHEM_MMFF94_PARTIAL_CHARGES>  (1) 
21
1 -0.16
10 -0.15
11 -0.15
12 -0.15
13 -0.15
14 -0.15
15 -0.15
16 0.15
17 0.15
18 0.15
19 0.15
2 0.63
20 0.15
21 0.15
22 0.15
23 0.15
3 -0.16
6 -0.15
7 -0.15
8 -0.15
9 -0.15

>  <PUBCHEM_EFFECTIVE_ROTOR_COUNT>  (1) 
1

>  <PUBCHEM_PHARMACOPHORE_FEATURES>  (1) 
3
5 2 4 5 6 7 rings
6 4 6 8 10 12 14 rings
6 5 7 9 11 13 15 rings

>  <PUBCHEM_HEAVY_ATOM_COUNT>  (1) 
15

>  <PUBCHEM_ATOM_DEF_STEREO_COUNT>  (1) 
0

>  <PUBCHEM_ATOM_UDEF_STEREO_COUNT>  (1) 
0

>  <PUBCHEM_BOND_DEF_STEREO_COUNT>  (1) 
0

>  <PUBCHEM_BOND_UDEF_STEREO_COUNT>  (1) 
0

>  <PUBCHEM_ISOTOPIC_ATOM_COUNT>  (1) 
0

>  <PUBCHEM_COMPONENT_COUNT>  (1) 
1

>  <PUBCHEM_CACTVS_TAUTO_COUNT>  (1) 
1

>  <PUBCHEM_CONFORMER_ID>  (1) 
0000454F00000001

>  <PUBCHEM_MMFF94_ENERGY>  (1) 
38.3215

>  <PUBCHEM_FEATURE_SELFOVERLAP>  (1) 
15.403

>  <PUBCHEM_SHAPE_FINGERPRINT>  (1) 
10608611 8 18412258432934123744
10967382 1 18050286169607131303
11132069 177 18341044194332030962
12032990 46 18410299150215720850
12382932 28 18411981390158012370
13140716 1 18410292544692994698
13380535 76 17835513830442187933
14144814 61 18411419535389784834
15442244 35 18192991513594503266
16945 1 18338798909983746498
193761 8 17906170646666465511
19591789 44 16610833661547614286
20510252 161 18271242712138987064
20711985 365 18337389327386626940
20871998 184 18201438051712244447
21029758 11 18340760542207645853
21267235 1 18338526321131276194
21501502 16 18337956662828685570
221490 88 17831580143301141739
2334 1 18266459999803848038
23402539 116 18272359867909094391
23463225 33 18409730694314471806
23559900 14 18341325588369150474
2748010 2 18268144430132104534
3071541 158 18116709806103760757
3312278 4 18408042931001818994
335352 9 18194682557829361526
34934 24 18339350972005265847
427121 178 15908310796216787345
5104073 3 18410855486014374890
528886 8 18411977000854527018
7364860 26 17907860956857697729
81228 2 18335989679080933944
8809292 202 18333735736210742098

>  <PUBCHEM_SHAPE_MULTIPOLES>  (1) 
292.86
5.16
2.64
0.6
1.12
1.58
0
-1.68
0
-0.89
0
0.01
-0.04
0

>  <PUBCHEM_SHAPE_SELFOVERLAP>  (1) 
659.495

>  <PUBCHEM_SHAPE_VOLUME>  (1) 
155.8

>  <PUBCHEM_COORDINATE_TYPE>  (1) 
2
5
10

$$$$
