17747
     RDKit          3D

  8  7  0  0  0  0  0  0  0  0999 V2000
   -2.9085    0.8760   -0.5297 F   0  0  0  0  0  0  0  0  0  0  0  0
   -0.3361    0.2201    0.2290 O   0  0  0  0  0  0  0  0  0  0  0  0
    1.2429   -1.3759   -0.2975 O   0  0  0  0  0  0  0  0  0  0  0  0
    3.2487    0.4521   -0.0636 N   0  0  0  0  0  0  0  0  0  0  0  0
   -1.3700   -0.7621    0.1059 C   0  0  0  0  0  0  0  0  0  0  0  0
    1.8906    0.9248    0.1672 C   0  0  0  0  0  0  0  0  0  0  0  0
   -2.7020   -0.1056    0.3909 C   0  0  0  0  0  0  0  0  0  0  0  0
    0.9344   -0.2294   -0.0021 C   0  0  0  0  0  0  0  0  0  0  0  0
  1  7  1  0
  2  5  1  0
  2  8  1  0
  3  8  2  0
  4  6  1  0
  5  7  1  0
  6  8  1  0
M  END
>  <PUBCHEM_COMPOUND_CID>  (1) 
17747

>  <PUBCHEM_CONFORMER_RMSD>  (1) 
0.6

>  <PUBCHEM_CONFORMER_DIVERSEORDER>  (1) 
1
16
34
22
31
4
33
32
10
29
27
7
20
11
9
2
8
26
19
24
14
23
30
18
3
15
5
28
17
13
6
12
25
21

>  <PUBCHEM_MMFF94_PARTIAL_CHARGES>  (1) 
10
1 -0.34
15 0.36
16 0.36
2 -0.43
3 -0.57
4 -0.99
5 0.28
6 0.33
7 0.34
8 0.66

>  <PUBCHEM_EFFECTIVE_ROTOR_COUNT>  (1) 
4

>  <PUBCHEM_PHARMACOPHORE_FEATURES>  (1) 
3
1 3 acceptor
1 4 cation
1 4 donor

>  <PUBCHEM_HEAVY_ATOM_COUNT>  (1) 
8

>  <PUBCHEM_ATOM_DEF_STEREO_COUNT>  (1) 
0

>  <PUBCHEM_ATOM_UDEF_STEREO_COUNT>  (1) 
0

>  <PUBCHEM_BOND_DEF_STEREO_COUNT>  (1) 
0

>  <PUBCHEM_BOND_UDEF_STEREO_COUNT>  (1) 
0

>  <PUBCHEM_ISOTOPIC_ATOM_COUNT>  (1) 
0

>  <PUBCHEM_COMPONENT_COUNT>  (1) 
1

>  <PUBCHEM_CACTVS_TAUTO_COUNT>  (1) 
1

>  <PUBCHEM_CONFORMER_ID>  (1) 
0000455300000001

>  <PUBCHEM_MMFF94_ENERGY>  (1) 
2.9848

>  <PUBCHEM_FEATURE_SELFOVERLAP>  (1) 
15.223

>  <PUBCHEM_SHAPE_FINGERPRINT>  (1) 
12897270 3 18273497887765207657
14325111 11 18339643451009695416
14390081 3 18412824702855131857
21040471 1 18268993257583082418
29004967 10 18335991921064178067
5460574 1 9007064556192958755

>  <PUBCHEM_SHAPE_MULTIPOLES>  (1) 
140.64
4.71
1.08
0.63
0.31
0.17
0.01
-1.22
-0.14
-0.13
-0.09
0.14
-0.02
0.25

>  <PUBCHEM_SHAPE_SELFOVERLAP>  (1) 
257.235

>  <PUBCHEM_SHAPE_VOLUME>  (1) 
89.2

>  <PUBCHEM_COORDINATE_TYPE>  (1) 
2
5
10

$$$$
