17740
     RDKit          3D

 34 37  0  0  0  0  0  0  0  0999 V2000
   -0.8013   -0.3138    0.7156 O   0  0  0  0  0  0  0  0  0  0  0  0
   -2.9697   -2.9372   -0.8262 O   0  0  0  0  0  0  0  0  0  0  0  0
   -4.2085    1.7475    0.7258 O   0  0  0  0  0  0  0  0  0  0  0  0
    7.8576   -2.0654    0.1544 O   0  0  0  0  0  0  0  0  0  0  0  0
   -3.2544   -0.2624   -0.0193 N   0  0  0  0  0  0  0  0  0  0  0  0
    1.6516    0.9134    0.5499 N   0  0  0  0  0  0  0  0  0  0  0  0
    2.0393    0.4557   -0.5481 N   0  0  0  0  0  0  0  0  0  0  0  0
    6.5851   -3.9463    0.4726 N   0  0  0  0  0  0  0  0  0  0  0  0
    0.5525    3.0472    0.0886 C   0  0  0  0  0  0  0  0  0  0  0  0
   -0.6456    3.7773   -0.0965 C   0  0  0  0  0  0  0  0  0  0  0  0
   -1.9279    1.7421    0.2675 C   0  0  0  0  0  0  0  0  0  0  0  0
    0.4831    1.6712    0.3609 C   0  0  0  0  0  0  0  0  0  0  0  0
   -1.8777    3.1097   -0.0039 C   0  0  0  0  0  0  0  0  0  0  0  0
   -0.7496    1.0242    0.4499 C   0  0  0  0  0  0  0  0  0  0  0  0
    1.7847    3.7144   -0.0044 C   0  0  0  0  0  0  0  0  0  0  0  0
   -0.5762    5.1533   -0.3688 C   0  0  0  0  0  0  0  0  0  0  0  0
   -3.2259    1.0871    0.3556 C   0  0  0  0  0  0  0  0  0  0  0  0
    1.8351    5.0821   -0.2754 C   0  0  0  0  0  0  0  0  0  0  0  0
    0.6569    5.8002   -0.4572 C   0  0  0  0  0  0  0  0  0  0  0  0
   -4.3644   -1.1417   -0.0591 C   0  0  0  0  0  0  0  0  0  0  0  0
   -4.1918   -2.4556   -0.4617 C   0  0  0  0  0  0  0  0  0  0  0  0
   -5.6085   -0.6573    0.3105 C   0  0  0  0  0  0  0  0  0  0  0  0
   -5.2944   -3.3094   -0.4956 C   0  0  0  0  0  0  0  0  0  0  0  0
   -6.7110   -1.5112    0.2764 C   0  0  0  0  0  0  0  0  0  0  0  0
   -6.5540   -2.8371   -0.1267 C   0  0  0  0  0  0  0  0  0  0  0  0
    3.2078   -0.3019   -0.3596 C   0  0  0  0  0  0  0  0  0  0  0  0
   -2.4522   -4.0290   -0.0691 C   0  0  0  0  0  0  0  0  0  0  0  0
    3.1117   -1.6640   -0.0911 C   0  0  0  0  0  0  0  0  0  0  0  0
    4.4524    0.3149   -0.4436 C   0  0  0  0  0  0  0  0  0  0  0  0
    5.5214   -1.8033    0.0124 C   0  0  0  0  0  0  0  0  0  0  0  0
    4.2713   -2.4164    0.0954 C   0  0  0  0  0  0  0  0  0  0  0  0
    5.6120   -0.4377   -0.2572 C   0  0  0  0  0  0  0  0  0  0  0  0
   -0.9398   -3.9626   -0.0787 C   0  0  0  0  0  0  0  0  0  0  0  0
    6.7303   -2.5879    0.2064 C   0  0  0  0  0  0  0  0  0  0  0  0
  1 14  1  0
  2 21  1  0
  2 27  1  0
  3 17  2  0
  4 34  2  0
  5 17  1  0
  5 20  1  0
  6  7  2  0
  6 12  1  0
  7 26  1  0
  8 34  1  0
  9 10  1  0
  9 12  2  0
  9 15  1  0
 10 13  2  0
 10 16  1  0
 11 13  1  0
 11 14  2  0
 11 17  1  0
 12 14  1  0
 15 18  2  0
 16 19  2  0
 18 19  1  0
 20 21  2  0
 20 22  1  0
 21 23  1  0
 22 24  2  0
 23 25  2  0
 24 25  1  0
 26 28  2  0
 26 29  1  0
 27 33  1  0
 28 31  1  0
 29 32  2  0
 30 31  2  0
 30 32  1  0
 30 34  1  0
M  END
>  <PUBCHEM_COMPOUND_CID>  (1) 
17740

>  <PUBCHEM_CONFORMER_RMSD>  (1) 
1

>  <PUBCHEM_CONFORMER_DIVERSEORDER>  (1) 
1
26
21
20
8
25
3
19
4
2
28
11
18
23
10
6
16
5
7
24
14
15
22
9
13
12
30
29
27
17

>  <PUBCHEM_MMFF94_PARTIAL_CHARGES>  (1) 
48
1 -0.53
11 0.09
12 0.18
13 -0.15
14 0.08
15 -0.15
16 -0.15
17 0.54
18 -0.15
19 -0.15
2 -0.36
20 0.12
21 0.08
22 -0.15
23 -0.15
24 -0.15
25 -0.15
26 0.18
27 0.28
28 -0.15
29 -0.15
3 -0.57
30 0.09
31 -0.15
32 -0.15
34 0.54
35 0.15
36 0.15
37 0.15
38 0.15
39 0.15
4 -0.57
40 0.37
41 0.15
42 0.45
43 0.15
44 0.15
45 0.15
48 0.15
49 0.15
5 -0.55
50 0.15
51 0.15
55 0.37
56 0.37
6 -0.18
7 -0.18
8 -0.8

>  <PUBCHEM_EFFECTIVE_ROTOR_COUNT>  (1) 
8

>  <PUBCHEM_PHARMACOPHORE_FEATURES>  (1) 
10
1 1 donor
1 2 acceptor
1 3 acceptor
1 4 acceptor
1 5 donor
1 8 donor
6 20 21 22 23 24 25 rings
6 26 28 29 30 31 32 rings
6 9 10 11 12 13 14 rings
6 9 10 15 16 18 19 rings

>  <PUBCHEM_HEAVY_ATOM_COUNT>  (1) 
34

>  <PUBCHEM_ATOM_DEF_STEREO_COUNT>  (1) 
0

>  <PUBCHEM_ATOM_UDEF_STEREO_COUNT>  (1) 
0

>  <PUBCHEM_BOND_DEF_STEREO_COUNT>  (1) 
0

>  <PUBCHEM_BOND_UDEF_STEREO_COUNT>  (1) 
0

>  <PUBCHEM_ISOTOPIC_ATOM_COUNT>  (1) 
0

>  <PUBCHEM_COMPONENT_COUNT>  (1) 
1

>  <PUBCHEM_CACTVS_TAUTO_COUNT>  (1) 
14

>  <PUBCHEM_CONFORMER_ID>  (1) 
0000454C00000001

>  <PUBCHEM_MMFF94_ENERGY>  (1) 
120.2401

>  <PUBCHEM_FEATURE_SELFOVERLAP>  (1) 
50.788

>  <PUBCHEM_SHAPE_FINGERPRINT>  (1) 
10050765 1 18411983593999371009
10100884 174 18260545598785658186
10290309 65 17402338070738532440
10319688 140 18121781892002950301
10319688 45 18339078168879009088
10411042 1 18410293605396701720
10622 236 17628059407360716487
10939801 23 18270678779524719734
11135926 11 17834668680047984461
11136131 41 17833819852828829224
11719270 70 17763176238949865297
11756154 67 18411703162419112102
11963148 33 17694498548235193735
12107183 9 18342189856285736289
13248334 5 18122344854578360800
1361 2 18122344846557781376
14068700 675 18202004347687789131
14117953 113 18341331094453700039
14394314 77 18338519638652365163
14844126 61 18119253865594278664
15264996 163 18188206477244019557
15320467 1 18411419548380668943
15400415 2 17185593513072670740
15419008 145 18265885862331942610
15803439 3 16885798533000741093
15927050 60 17620759821976111542
15968369 26 17757261953123767776
16087824 20 18193839242045984909
16992752 21 18339090311420929276
17492 89 18267584787952295657
17686467 74 18343012282466873760
19246450 95 18054527824513915001
21133410 171 17538796448516690914
21779490 112 16388758250593275916
21796203 349 17976017324758038499
22311459 1 18050288360062623153
22956985 138 18339075003752258816
23559900 14 18269267049200858985
23569914 152 18122873540283826949
255183 313 17910132225901185073
255183 451 18341053007473177149
3103668 31 18262514767869669861
32027 91 18339916117256512469
3504750 166 17756699742559096090
4280585 95 18410851040659886593
4409770 3 18046623404692540181
463206 1 18335147513451455058
6057620 51 18334021597435128300
6058803 2 17984714569915413561
70251023 43 18335985371582475953
7970288 3 18410572872845059994

>  <PUBCHEM_SHAPE_MULTIPOLES>  (1) 
656.3
16.05
8.27
0.72
6.77
8.77
-0.01
-25.73
0.41
2.95
-0.95
-0.11
0.01
-1.4

>  <PUBCHEM_SHAPE_SELFOVERLAP>  (1) 
1448.865

>  <PUBCHEM_SHAPE_VOLUME>  (1) 
352

>  <PUBCHEM_COORDINATE_TYPE>  (1) 
2
5
10

$$$$
