17748
     RDKit          3D

 14 15  0  0  0  0  0  0  0  0999 V2000
   -3.2851    1.4757   -0.0004 Cl  0  0  0  0  0  0  0  0  0  0  0  0
   -0.4246   -2.6969   -0.0002 O   0  0  0  0  0  0  0  0  0  0  0  0
   -0.5978    2.6466   -0.0001 O   0  0  0  0  0  0  0  0  0  0  0  0
   -2.8829   -1.5520    0.0002 N   0  0  0  0  0  0  0  0  0  0  0  0
    0.7743   -0.6796    0.0000 C   0  0  0  0  0  0  0  0  0  0  0  0
    0.7326    0.7136    0.0002 C   0  0  0  0  0  0  0  0  0  0  0  0
   -0.4710   -1.4707    0.0002 C   0  0  0  0  0  0  0  0  0  0  0  0
   -0.5591    1.4216    0.0001 C   0  0  0  0  0  0  0  0  0  0  0  0
   -1.7775   -0.7473    0.0002 C   0  0  0  0  0  0  0  0  0  0  0  0
    2.0099   -1.3394   -0.0002 C   0  0  0  0  0  0  0  0  0  0  0  0
   -1.7914    0.5945    0.0001 C   0  0  0  0  0  0  0  0  0  0  0  0
    1.9243    1.4493    0.0001 C   0  0  0  0  0  0  0  0  0  0  0  0
    3.1955   -0.6039   -0.0001 C   0  0  0  0  0  0  0  0  0  0  0  0
    3.1527    0.7884    0.0000 C   0  0  0  0  0  0  0  0  0  0  0  0
  1 11  1  0
  2  7  2  0
  3  8  2  0
  4  9  1  0
  5  6  2  0
  5  7  1  0
  5 10  1  0
  6  8  1  0
  6 12  1  0
  7  9  1  0
  8 11  1  0
  9 11  2  0
 10 13  2  0
 12 14  2  0
 13 14  1  0
M  END
>  <PUBCHEM_COMPOUND_CID>  (1) 
17748

>  <PUBCHEM_CONFORMER_RMSD>  (1) 
0.4

>  <PUBCHEM_CONFORMER_DIVERSEORDER>  (1) 
1

>  <PUBCHEM_MMFF94_PARTIAL_CHARGES>  (1) 
20
1 -0.14
10 -0.15
11 0.15
12 -0.15
13 -0.15
14 -0.15
15 0.15
16 0.15
17 0.15
18 0.15
19 0.4
2 -0.57
20 0.4
3 -0.57
4 -0.9
5 0.09
6 0.09
7 0.47
8 0.47
9 0.11

>  <PUBCHEM_EFFECTIVE_ROTOR_COUNT>  (1) 
0

>  <PUBCHEM_PHARMACOPHORE_FEATURES>  (1) 
6
1 2 acceptor
1 3 acceptor
1 4 cation
1 4 donor
6 5 6 10 12 13 14 rings
6 5 6 7 8 9 11 rings

>  <PUBCHEM_HEAVY_ATOM_COUNT>  (1) 
14

>  <PUBCHEM_ATOM_DEF_STEREO_COUNT>  (1) 
0

>  <PUBCHEM_ATOM_UDEF_STEREO_COUNT>  (1) 
0

>  <PUBCHEM_BOND_DEF_STEREO_COUNT>  (1) 
0

>  <PUBCHEM_BOND_UDEF_STEREO_COUNT>  (1) 
0

>  <PUBCHEM_ISOTOPIC_ATOM_COUNT>  (1) 
0

>  <PUBCHEM_COMPONENT_COUNT>  (1) 
1

>  <PUBCHEM_CACTVS_TAUTO_COUNT>  (1) 
3

>  <PUBCHEM_CONFORMER_ID>  (1) 
0000455400000001

>  <PUBCHEM_MMFF94_ENERGY>  (1) 
39.5874

>  <PUBCHEM_FEATURE_SELFOVERLAP>  (1) 
30.467

>  <PUBCHEM_SHAPE_FINGERPRINT>  (1) 
10608611 8 18412541050319634488
10967382 1 18266740181873836453
11132069 177 18341608187951890728
11471102 20 18193833748075392621
12382932 28 18412261748511797912
12423570 1 11661276696217304139
13140716 1 18410573950902489513
13380535 76 18266456516748719407
13897977 150 18411133598110670213
14325111 11 18410855468770980320
14790565 3 15595562917479077121
15775835 57 18335145254319411876
16945 1 18194401078546925765
193761 8 17617940227490902977
20510252 161 18272091629515252904
20588541 1 18267587905555207557
20645476 183 17896341214667158830
20871998 184 18273216421378438391
21501502 16 18410292527623660996
22802520 49 18057621888097488022
2334 1 18410856602768817089
23402539 116 18271231824333679062
23402655 69 18196920103490948093
23463225 33 18408323280591401656
23552423 10 18261113001885733308
23559900 14 18343305873551802244
2748010 2 18410857672194574911
528886 8 18411132502740879657
53812653 166 18342172254459788928
6333449 129 18411696595176758988
7364860 26 17909547255317659206
8809292 202 18335145250024613658

>  <PUBCHEM_SHAPE_MULTIPOLES>  (1) 
273.26
4.7
2.5
0.6
0.17
0.28
0
-0.65
0
-0.8
0
0.01
-0.02
0

>  <PUBCHEM_SHAPE_SELFOVERLAP>  (1) 
594.287

>  <PUBCHEM_SHAPE_VOLUME>  (1) 
149.9

>  <PUBCHEM_COORDINATE_TYPE>  (1) 
2
5
10

$$$$
