17757
     RDKit          3D

 18 19  0  0  0  0  0  0  0  0999 V2000
    3.6451   -0.9934   -0.2161 O   0  0  0  0  0  0  0  0  0  0  0  0
   -3.6931   -1.0315   -0.2272 O   0  0  0  0  0  0  0  0  0  0  0  0
    1.3109   -2.4013   -0.3246 O   0  0  0  0  0  0  0  0  0  0  0  0
    1.2917    3.1023    0.0919 O   0  0  0  0  0  0  0  0  0  0  0  0
   -1.2729   -2.3285   -0.3214 O   0  0  0  0  0  0  0  0  0  0  0  0
   -1.3104    2.9996    0.0814 O   0  0  0  0  0  0  0  0  0  0  0  0
    0.0317   -0.3522   -0.1708 C   0  0  0  0  0  0  0  0  0  0  0  0
    0.0248    1.0405   -0.0653 C   0  0  0  0  0  0  0  0  0  0  0  0
    1.2485   -1.0419   -0.2218 C   0  0  0  0  0  0  0  0  0  0  0  0
    1.2333    1.7442   -0.0109 C   0  0  0  0  0  0  0  0  0  0  0  0
   -1.2358   -1.1072   -0.2292 C   0  0  0  0  0  0  0  0  0  0  0  0
   -1.2504    1.7796   -0.0106 C   0  0  0  0  0  0  0  0  0  0  0  0
    2.4515   -0.3371   -0.1675 C   0  0  0  0  0  0  0  0  0  0  0  0
   -2.5018   -0.3360   -0.1728 C   0  0  0  0  0  0  0  0  0  0  0  0
    2.4439    1.0527   -0.0624 C   0  0  0  0  0  0  0  0  0  0  0  0
   -2.5007    0.9951   -0.0720 C   0  0  0  0  0  0  0  0  0  0  0  0
    4.2109   -1.4010    1.0276 C   0  0  0  0  0  0  0  0  0  0  0  0
   -4.1275   -1.3839    1.0715 C   0  0  0  0  0  0  0  0  0  0  0  0
  1 13  1  0
  1 17  1  0
  2 14  1  0
  2 18  1  0
  3  9  1  0
  4 10  1  0
  5 11  2  0
  6 12  2  0
  7  8  1  0
  7  9  2  0
  7 11  1  0
  8 10  2  0
  8 12  1  0
  9 13  1  0
 10 15  1  0
 11 14  1  0
 12 16  1  0
 13 15  2  0
 14 16  2  0
M  END
>  <PUBCHEM_COMPOUND_CID>  (1) 
17757

>  <PUBCHEM_CONFORMER_RMSD>  (1) 
0.6

>  <PUBCHEM_CONFORMER_DIVERSEORDER>  (1) 
1
2

>  <PUBCHEM_MMFF94_PARTIAL_CHARGES>  (1) 
22
1 -0.36
10 0.08
11 0.47
12 0.47
13 0.08
14 0.09
15 -0.15
16 -0.14
17 0.28
18 0.28
19 0.15
2 -0.36
20 0.15
21 0.45
22 0.45
3 -0.53
4 -0.53
5 -0.57
6 -0.57
7 0.09
8 0.09
9 0.08

>  <PUBCHEM_EFFECTIVE_ROTOR_COUNT>  (1) 
2

>  <PUBCHEM_PHARMACOPHORE_FEATURES>  (1) 
8
1 1 acceptor
1 2 acceptor
1 3 donor
1 4 donor
1 5 acceptor
1 6 acceptor
6 7 8 11 12 14 16 rings
6 7 8 9 10 13 15 rings

>  <PUBCHEM_HEAVY_ATOM_COUNT>  (1) 
18

>  <PUBCHEM_ATOM_DEF_STEREO_COUNT>  (1) 
0

>  <PUBCHEM_ATOM_UDEF_STEREO_COUNT>  (1) 
0

>  <PUBCHEM_BOND_DEF_STEREO_COUNT>  (1) 
0

>  <PUBCHEM_BOND_UDEF_STEREO_COUNT>  (1) 
0

>  <PUBCHEM_ISOTOPIC_ATOM_COUNT>  (1) 
0

>  <PUBCHEM_COMPONENT_COUNT>  (1) 
1

>  <PUBCHEM_CACTVS_TAUTO_COUNT>  (1) 
8

>  <PUBCHEM_CONFORMER_ID>  (1) 
0000455D00000001

>  <PUBCHEM_MMFF94_ENERGY>  (1) 
68.799

>  <PUBCHEM_FEATURE_SELFOVERLAP>  (1) 
40.624

>  <PUBCHEM_SHAPE_FINGERPRINT>  (1) 
10967382 1 18195528309851601140
11132069 177 18268989782870065936
11471102 20 18339077194031715647
11543360 7 15864362375377122542
11578080 2 17273385410329494633
12032990 46 18410016528472043286
12382932 28 18124872365890728472
12553582 1 18412546534950686686
13140716 1 18268147745720594498
14178342 30 18125440817512821776
14420673 8 17329977007771923826
15042514 8 18120937200805724218
15196674 1 18411136939405231517
15442244 35 18411982481026749936
16945 1 18412826888771744636
17804303 29 18342175536236581584
193761 8 18411419509657060181
200 152 18130493189812621479
20510252 161 18200591402331775656
20559304 39 18409732893469407820
20645477 70 18264760138185468639
20739085 24 18192175843686644025
21029758 27 18335145292995151804
21267235 1 18410865360117956622
21501502 16 18410300202524945412
22182313 1 17985272876054282742
22721475 48 18411143532206339693
2297311 6 18341902832063546814
23184049 59 18269848652128785267
2334 1 17979916343081956087
23402539 116 18270665494267395591
23463225 33 18338517546486151661
23559900 14 18269553833158229964
2748010 2 18054230925243545998
3091708 16 9137491936710213744
5104073 3 18410856555345044080
54173680 148 18122346770359439350
5493415 88 18410288099296380424
7364860 26 18269837691235310048
8809292 202 18260833691514712627
90316 7 17899401001388698792

>  <PUBCHEM_SHAPE_MULTIPOLES>  (1) 
335.22
6.08
2.96
0.74
0.06
1.55
0.13
-3.51
1.57
0.05
0.1
-0.02
-0.22
0.01

>  <PUBCHEM_SHAPE_SELFOVERLAP>  (1) 
734.369

>  <PUBCHEM_SHAPE_VOLUME>  (1) 
180.7

>  <PUBCHEM_COORDINATE_TYPE>  (1) 
2
5
10

$$$$
