17758
     RDKit          3D

 15 15  0  0  1  0  0  0  0  0999 V2000
   -3.3137   -0.4568   -0.0486 N   0  0  0  0  0  0  0  0  0  0  0  0
    1.1098    3.2840   -0.9593 N   0  0  0  0  0  0  0  0  0  0  0  0
    0.1756    1.1851    0.3675 C   0  0  0  0  0  0  0  0  0  0  0  0
   -1.2568    0.8750   -0.1776 C   0  0  0  0  0  0  0  0  0  0  0  0
   -1.9891   -0.2684    0.5368 C   0  0  0  0  0  0  0  0  0  0  0  0
    1.1232   -0.0049    0.1400 C   0  0  0  0  0  0  0  0  0  0  0  0
    0.0636    1.6263    1.8474 C   0  0  0  0  0  0  0  0  0  0  0  0
    0.7018    2.3649   -0.3794 C   0  0  0  0  0  0  0  0  0  0  0  0
    1.3178   -0.4453   -1.1451 C   0  0  0  0  0  0  0  0  0  0  0  0
    1.7307   -0.5714    1.2321 C   0  0  0  0  0  0  0  0  0  0  0  0
   -4.0385   -1.5170    0.6525 C   0  0  0  0  0  0  0  0  0  0  0  0
   -3.2052   -0.7702   -1.4737 C   0  0  0  0  0  0  0  0  0  0  0  0
    2.1773   -1.5243   -1.3516 C   0  0  0  0  0  0  0  0  0  0  0  0
    2.5902   -1.6504    1.0255 C   0  0  0  0  0  0  0  0  0  0  0  0
    2.8135   -2.1268   -0.2665 C   0  0  0  0  0  0  0  0  0  0  0  0
  1  5  1  0
  1 11  1  0
  1 12  1  0
  2  8  3  0
  3  4  1  0
  3  6  1  0
  3  7  1  0
  3  8  1  0
  4  5  1  0
  6  9  2  0
  6 10  1  0
  9 13  1  0
 10 14  2  0
 13 15  2  0
 14 15  1  0
M  END
>  <PUBCHEM_COMPOUND_CID>  (1) 
17758

>  <PUBCHEM_CONFORMER_RMSD>  (1) 
0.6

>  <PUBCHEM_CONFORMER_DIVERSEORDER>  (1) 
1
30
32
28
18
24
29
25
4
20
31
23
27
22
12
21
19
11
15
16
6
9
8
2
3
26
5
10
17
13
7
14

>  <PUBCHEM_MMFF94_PARTIAL_CHARGES>  (1) 
18
1 -0.81
10 -0.15
11 0.27
12 0.27
13 -0.15
14 -0.15
15 -0.15
2 -0.56
23 0.15
24 0.15
3 0.34
31 0.15
32 0.15
33 0.15
5 0.27
6 -0.14
8 0.36
9 -0.15

>  <PUBCHEM_EFFECTIVE_ROTOR_COUNT>  (1) 
4

>  <PUBCHEM_PHARMACOPHORE_FEATURES>  (1) 
4
1 1 cation
1 2 acceptor
1 7 hydrophobe
6 6 9 10 13 14 15 rings

>  <PUBCHEM_HEAVY_ATOM_COUNT>  (1) 
15

>  <PUBCHEM_ATOM_DEF_STEREO_COUNT>  (1) 
0

>  <PUBCHEM_ATOM_UDEF_STEREO_COUNT>  (1) 
1

>  <PUBCHEM_BOND_DEF_STEREO_COUNT>  (1) 
0

>  <PUBCHEM_BOND_UDEF_STEREO_COUNT>  (1) 
0

>  <PUBCHEM_ISOTOPIC_ATOM_COUNT>  (1) 
0

>  <PUBCHEM_COMPONENT_COUNT>  (1) 
1

>  <PUBCHEM_CACTVS_TAUTO_COUNT>  (1) 
1

>  <PUBCHEM_CONFORMER_ID>  (1) 
0000455E00000001

>  <PUBCHEM_MMFF94_ENERGY>  (1) 
45.3706

>  <PUBCHEM_FEATURE_SELFOVERLAP>  (1) 
20.297

>  <PUBCHEM_SHAPE_FINGERPRINT>  (1) 
1 1 18048878794787278004
10610426 29 16517342445799473570
12707595 3 18333732416396025471
12725867 57 18263064609060280480
13380537 58 17183623192108124628
14004458 79 17974288724838637356
14181834 199 18128517435588455741
14817 1 15372975003933147984
15501101 241 17775272855435016298
15502722 9 18190469457052767869
15906896 17 17103987810728162912
16945 1 18264214771342886192
18186145 218 11891339694656198507
20361792 2 18410294666459482135
20559304 39 17631739386620124771
20645477 70 18265047110868277471
20671657 53 18261392226093963019
20711985 344 17977378339574784737
21452121 199 18411691119330924577
21524375 3 17470163030055815213
21665056 4 16897934860579546782
22112679 90 18051160032517637532
2255824 54 18338240491305296575
23402539 116 18336832970698992134
23419403 2 17838291351317118208
23557571 272 18194671576041129440
2748010 2 18268131098453403964
3060560 45 17830170573372698685
4175511 376 18116162245112950300
549884 4 13623530138787064783
7364860 26 18339083825071116145
81228 2 17981044115726525545
81539 233 17972879438599652669

>  <PUBCHEM_SHAPE_MULTIPOLES>  (1) 
298.73
5.24
2.79
1.51
5.22
2.07
-0.09
-4.88
0.11
-1.33
0.49
-0.2
0.06
-0.1

>  <PUBCHEM_SHAPE_SELFOVERLAP>  (1) 
605.77

>  <PUBCHEM_SHAPE_VOLUME>  (1) 
173.3

>  <PUBCHEM_COORDINATE_TYPE>  (1) 
2
5
10

$$$$
