17765
     RDKit          3D

 19 20  0  0  1  0  0  0  0  0999 V2000
    5.0073   -0.8527   -0.2156 O   0  0  0  0  0  0  0  0  0  0  0  0
    2.5086    0.4577    0.1599 N   0  0  0  0  0  0  0  0  0  0  0  0
   -1.6406    2.7822    1.6318 N   0  0  0  0  0  0  0  0  0  0  0  0
   -1.2987    1.0421   -0.3382 C   0  0  0  0  0  0  0  0  0  0  0  0
    0.2404    0.9725   -0.6294 C   0  0  0  0  0  0  0  0  0  0  0  0
    1.0985    0.4736    0.5436 C   0  0  0  0  0  0  0  0  0  0  0  0
   -1.9885    1.6429   -1.6086 C   0  0  0  0  0  0  0  0  0  0  0  0
    2.7329   -0.4613   -0.9647 C   0  0  0  0  0  0  0  0  0  0  0  0
    3.3551    0.0758    1.2988 C   0  0  0  0  0  0  0  0  0  0  0  0
   -1.8538   -0.3632   -0.0429 C   0  0  0  0  0  0  0  0  0  0  0  0
    4.2124   -0.4707   -1.3389 C   0  0  0  0  0  0  0  0  0  0  0  0
    4.8197    0.0548    0.8710 C   0  0  0  0  0  0  0  0  0  0  0  0
   -3.4954    1.8682   -1.4850 C   0  0  0  0  0  0  0  0  0  0  0  0
   -1.4953    2.0134    0.7741 C   0  0  0  0  0  0  0  0  0  0  0  0
   -2.4549   -0.5823    1.1702 C   0  0  0  0  0  0  0  0  0  0  0  0
   -1.7215   -1.3296   -1.0072 C   0  0  0  0  0  0  0  0  0  0  0  0
   -2.9582   -1.8553    1.4378 C   0  0  0  0  0  0  0  0  0  0  0  0
   -2.2249   -2.6027   -0.7395 C   0  0  0  0  0  0  0  0  0  0  0  0
   -2.8432   -2.8655    0.4829 C   0  0  0  0  0  0  0  0  0  0  0  0
  1 11  1  0
  1 12  1  0
  2  6  1  0
  2  8  1  0
  2  9  1  0
  3 14  3  0
  4  5  1  0
  4  7  1  0
  4 10  1  0
  4 14  1  0
  5  6  1  0
  7 13  1  0
  8 11  1  0
  9 12  1  0
 10 15  2  0
 10 16  1  0
 15 17  1  0
 16 18  2  0
 17 19  2  0
 18 19  1  0
M  END
>  <PUBCHEM_COMPOUND_CID>  (1) 
17765

>  <PUBCHEM_CONFORMER_RMSD>  (1) 
0.8

>  <PUBCHEM_CONFORMER_DIVERSEORDER>  (1) 
1
31
16
28
22
32
3
9
27
23
18
11
24
2
30
12
4
19
21
15
8
10
7
29
26
20
14
13
25
5
17
6

>  <PUBCHEM_MMFF94_PARTIAL_CHARGES>  (1) 
21
1 -0.56
10 -0.14
11 0.28
12 0.28
14 0.36
15 -0.15
16 -0.15
17 -0.15
18 -0.15
19 -0.15
2 -0.81
3 -0.56
37 0.15
38 0.15
39 0.15
4 0.34
40 0.15
41 0.15
6 0.27
8 0.27
9 0.27

>  <PUBCHEM_EFFECTIVE_ROTOR_COUNT>  (1) 
6.2

>  <PUBCHEM_PHARMACOPHORE_FEATURES>  (1) 
6
1 1 acceptor
1 13 hydrophobe
1 2 cation
1 3 acceptor
6 1 2 8 9 11 12 rings
6 10 15 16 17 18 19 rings

>  <PUBCHEM_HEAVY_ATOM_COUNT>  (1) 
19

>  <PUBCHEM_ATOM_DEF_STEREO_COUNT>  (1) 
0

>  <PUBCHEM_ATOM_UDEF_STEREO_COUNT>  (1) 
1

>  <PUBCHEM_BOND_DEF_STEREO_COUNT>  (1) 
0

>  <PUBCHEM_BOND_UDEF_STEREO_COUNT>  (1) 
0

>  <PUBCHEM_ISOTOPIC_ATOM_COUNT>  (1) 
0

>  <PUBCHEM_COMPONENT_COUNT>  (1) 
1

>  <PUBCHEM_CACTVS_TAUTO_COUNT>  (1) 
1

>  <PUBCHEM_CONFORMER_ID>  (1) 
0000456500000001

>  <PUBCHEM_MMFF94_ENERGY>  (1) 
47.6819

>  <PUBCHEM_FEATURE_SELFOVERLAP>  (1) 
30.446

>  <PUBCHEM_SHAPE_FINGERPRINT>  (1) 
10366900 7 17632563938757858968
11370993 144 17203063901964618786
11578080 2 18192988438556675045
12173636 292 18126858087853598025
12346177 29 18334849511413773966
12363563 72 18191586556408356826
12553582 1 18126577931505635534
12596599 1 18335428941674077492
12633257 1 17131291158267804538
12714826 92 18335421300441525779
13583140 156 18339623587281771754
14178342 30 18339928108820942650
15163728 17 17464813472469477485
16752209 62 18187631531568408931
1813 80 18116445927629082687
187816 3 18200014158938754965
200 152 15051431821946222365
20279233 1 18131061611475224004
20645476 183 17969213456690200541
20671657 53 17459463540613412494
23419403 2 16340291580350886087
23557571 272 18341039809349737312
23559900 14 18340480072622554014
23598288 3 17895491270693411029
298252 57 17315052382574359869
3027735 51 18334003991536792907
4921388 177 18409170978597791070
559249 180 17896587402356225506
59755656 520 18194967340189605913
6049 1 18131634500004288040
633830 44 15864363389764494062
90127 26 17274820221717094976
9709674 26 17703227304843900868

>  <PUBCHEM_SHAPE_MULTIPOLES>  (1) 
375.18
8.28
2.81
1.62
12.94
0.33
-0.06
2.47
0.13
-4.37
-0.19
-0.38
-0.4
0.88

>  <PUBCHEM_SHAPE_SELFOVERLAP>  (1) 
771.728

>  <PUBCHEM_SHAPE_VOLUME>  (1) 
213.2

>  <PUBCHEM_COORDINATE_TYPE>  (1) 
2
5
10

$$$$
