17764
     RDKit          3D

 20 21  0  0  1  0  0  0  0  0999 V2000
   -2.5693   -0.3571   -0.2736 N   0  0  0  0  0  0  0  0  0  0  0  0
    1.6112   -2.1306   -2.2757 N   0  0  0  0  0  0  0  0  0  0  0  0
    1.2735   -0.8813    0.0397 C   0  0  0  0  0  0  0  0  0  0  0  0
   -0.2643   -0.9332    0.3580 C   0  0  0  0  0  0  0  0  0  0  0  0
   -1.1679   -0.2376   -0.6749 C   0  0  0  0  0  0  0  0  0  0  0  0
    2.0853   -1.6697    1.1536 C   0  0  0  0  0  0  0  0  0  0  0  0
   -2.7923    0.3070    1.0183 C   0  0  0  0  0  0  0  0  0  0  0  0
   -3.4506    0.1934   -1.3130 C   0  0  0  0  0  0  0  0  0  0  0  0
   -4.2429    0.1493    1.4767 C   0  0  0  0  0  0  0  0  0  0  0  0
   -4.9227    0.0317   -0.9308 C   0  0  0  0  0  0  0  0  0  0  0  0
   -5.2167    0.6661    0.4238 C   0  0  0  0  0  0  0  0  0  0  0  0
    1.7485    0.5908    0.0177 C   0  0  0  0  0  0  0  0  0  0  0  0
    3.6042   -1.6914    0.8967 C   0  0  0  0  0  0  0  0  0  0  0  0
    1.6105   -3.1159    1.3781 C   0  0  0  0  0  0  0  0  0  0  0  0
    1.4684   -1.5764   -1.2655 C   0  0  0  0  0  0  0  0  0  0  0  0
    2.2747    1.0781   -1.1473 C   0  0  0  0  0  0  0  0  0  0  0  0
    1.6161    1.3255    1.1640 C   0  0  0  0  0  0  0  0  0  0  0  0
    2.7028    2.4055   -1.1675 C   0  0  0  0  0  0  0  0  0  0  0  0
    2.0441    2.6529    1.1438 C   0  0  0  0  0  0  0  0  0  0  0  0
    2.5875    3.1929   -0.0220 C   0  0  0  0  0  0  0  0  0  0  0  0
  1  5  1  0
  1  7  1  0
  1  8  1  0
  2 15  3  0
  3  4  1  0
  3  6  1  0
  3 12  1  0
  3 15  1  0
  4  5  1  0
  6 13  1  0
  6 14  1  0
  7  9  1  0
  8 10  1  0
  9 11  1  0
 10 11  1  0
 12 16  2  0
 12 17  1  0
 16 18  1  0
 17 19  2  0
 18 20  2  0
 19 20  1  0
M  END
>  <PUBCHEM_COMPOUND_CID>  (1) 
17764

>  <PUBCHEM_CONFORMER_RMSD>  (1) 
0.8

>  <PUBCHEM_CONFORMER_DIVERSEORDER>  (1) 
1
50
38
45
46
25
40
14
47
44
49
8
33
31
21
18
39
34
10
24
42
16
37
12
19
35
26
17
15
6
41
29
32
48
7
13
11
43
30
23
9
5
36
3
2
27
20
28
4
22

>  <PUBCHEM_MMFF94_PARTIAL_CHARGES>  (1) 
18
1 -0.81
12 -0.14
15 0.36
16 -0.15
17 -0.15
18 -0.15
19 -0.15
2 -0.56
20 -0.15
3 0.34
42 0.15
43 0.15
44 0.15
45 0.15
46 0.15
5 0.27
7 0.27
8 0.27

>  <PUBCHEM_EFFECTIVE_ROTOR_COUNT>  (1) 
6.2

>  <PUBCHEM_PHARMACOPHORE_FEATURES>  (1) 
5
1 1 cation
1 2 acceptor
3 6 13 14 hydrophobe
6 1 7 8 9 10 11 rings
6 12 16 17 18 19 20 rings

>  <PUBCHEM_HEAVY_ATOM_COUNT>  (1) 
20

>  <PUBCHEM_ATOM_DEF_STEREO_COUNT>  (1) 
0

>  <PUBCHEM_ATOM_UDEF_STEREO_COUNT>  (1) 
1

>  <PUBCHEM_BOND_DEF_STEREO_COUNT>  (1) 
0

>  <PUBCHEM_BOND_UDEF_STEREO_COUNT>  (1) 
0

>  <PUBCHEM_ISOTOPIC_ATOM_COUNT>  (1) 
0

>  <PUBCHEM_COMPONENT_COUNT>  (1) 
1

>  <PUBCHEM_CACTVS_TAUTO_COUNT>  (1) 
1

>  <PUBCHEM_CONFORMER_ID>  (1) 
0000456400000001

>  <PUBCHEM_MMFF94_ENERGY>  (1) 
46.8481

>  <PUBCHEM_FEATURE_SELFOVERLAP>  (1) 
25.371

>  <PUBCHEM_SHAPE_FINGERPRINT>  (1) 
10165383 225 17970369193576872140
10382601 240 18409452517830758328
10498660 4 18198624526512386073
11405975 8 18261672572333019041
12616971 3 18272365353067439315
13009979 54 16699796461510931227
13134695 92 18265032670744661870
13294875 104 18128527366165072960
13533116 47 18334014970042225275
13583140 156 18187076214420796903
13878862 14 18263344925308938533
14955137 171 18272653420444851258
15238133 3 17756159886085656009
17868525 174 17972871459083322425
17980427 23 17915712397624797674
1813 80 18127697015515800062
18785283 64 17967813894615999936
19078846 21 18122069706345946321
20369508 70 18187923920210032051
20559304 39 17846218817394503529
20645477 70 18413671314171329589
20671657 1 18411694421859906355
21524375 3 18124591135632370508
21864079 5 18060148639233637409
2255824 54 18410293592586029667
23419403 2 16736598267355511994
23557571 272 15123784081295693179
23558518 356 17834390507853287790
23559900 14 16515686602926636495
238 59 18269850842071437673
25 1 18198921372944648236
2637199 183 17774177819115820093
3060560 45 17917714625520811740
31174 14 18260260815928670007
312423 11 18271814497436072689
3286 77 17968378927475585563
394222 165 18268984452836738336
474 4 18337104691530589057
49207404 50 17822296846299556145
495365 180 18040986333351782923
5895379 119 17059229041787654017
6049 1 17603863356652087149
6442390 28 17900840531985444299
7364860 26 18335130990870087586
7615 1 17988916761205653361
7808743 9 17466235544631065756
81228 2 17330836816624757200
9841814 1 18336828567766644298
9971528 1 17916585319520481430
9999458 23 17822289111110974022

>  <PUBCHEM_SHAPE_MULTIPOLES>  (1) 
401.63
8.31
3.17
1.71
14.55
0.5
0.4
1.87
-0.53
-5.18
-0.52
-0.19
-0.45
-0.42

>  <PUBCHEM_SHAPE_SELFOVERLAP>  (1) 
822.496

>  <PUBCHEM_SHAPE_VOLUME>  (1) 
229.6

>  <PUBCHEM_COORDINATE_TYPE>  (1) 
2
5
10

$$$$
