17779
     RDKit          3D

  8  8  0  0  1  0  0  0  0  0999 V2000
   -0.8233    0.7036    0.3565 C   0  0  0  0  0  0  0  0  0  0  0  0
   -0.6891   -0.6810   -0.2921 C   0  0  0  0  0  0  0  0  0  0  0  0
    1.5155   -0.0556    0.3946 C   0  0  0  0  0  0  0  0  0  0  0  0
    0.6250    1.1895    0.5331 C   0  0  0  0  0  0  0  0  0  0  0  0
    0.5515   -1.2422    0.3995 C   0  0  0  0  0  0  0  0  0  0  0  0
   -1.6741    1.6750   -0.4485 C   0  0  0  0  0  0  0  0  0  0  0  0
   -1.9114   -1.5666   -0.1063 C   0  0  0  0  0  0  0  0  0  0  0  0
    2.4058   -0.0226   -0.8368 C   0  0  0  0  0  0  0  0  0  0  0  0
  1  2  1  0
  1  4  1  0
  1  6  1  0
  2  5  1  0
  2  7  1  0
  3  4  1  0
  3  5  1  0
  3  8  1  0
M  END
>  <PUBCHEM_COMPOUND_CID>  (1) 
17779

>  <PUBCHEM_CONFORMER_RMSD>  (1) 
0.4

>  <PUBCHEM_CONFORMER_DIVERSEORDER>  (1) 
1
3
2

>  <PUBCHEM_MMFF94_PARTIAL_CHARGES>  (1) 
0

>  <PUBCHEM_EFFECTIVE_ROTOR_COUNT>  (1) 
1

>  <PUBCHEM_PHARMACOPHORE_FEATURES>  (1) 
1
5 1 2 3 4 5 rings

>  <PUBCHEM_HEAVY_ATOM_COUNT>  (1) 
8

>  <PUBCHEM_ATOM_DEF_STEREO_COUNT>  (1) 
0

>  <PUBCHEM_ATOM_UDEF_STEREO_COUNT>  (1) 
2

>  <PUBCHEM_BOND_DEF_STEREO_COUNT>  (1) 
0

>  <PUBCHEM_BOND_UDEF_STEREO_COUNT>  (1) 
0

>  <PUBCHEM_ISOTOPIC_ATOM_COUNT>  (1) 
0

>  <PUBCHEM_COMPONENT_COUNT>  (1) 
1

>  <PUBCHEM_CACTVS_TAUTO_COUNT>  (1) 
1

>  <PUBCHEM_CONFORMER_ID>  (1) 
0000457300000001

>  <PUBCHEM_MMFF94_ENERGY>  (1) 
15.6828

>  <PUBCHEM_FEATURE_SELFOVERLAP>  (1) 
5.074

>  <PUBCHEM_SHAPE_FINGERPRINT>  (1) 
12716758 59 18269840826571654382
161256 15 18198059394314106113
16714656 1 18339654394259330999
18185500 45 18263917748563322250
20653085 51 17751952188372334764
20711978 78 16987721375298637864
21040471 1 18194955245234360505
23552423 10 18261678077990819642
241688 4 18266742574328869737
29004967 10 17977661240575615851
5084963 1 18342182201693489736

>  <PUBCHEM_SHAPE_MULTIPOLES>  (1) 
164.64
2.66
1.76
0.83
0.66
0.08
-0.05
-0.13
-0.64
-1.05
-0.01
0.21
0.06
0.09

>  <PUBCHEM_SHAPE_SELFOVERLAP>  (1) 
316.082

>  <PUBCHEM_SHAPE_VOLUME>  (1) 
99.5

>  <PUBCHEM_COORDINATE_TYPE>  (1) 
2
5
10

$$$$
