17778
     RDKit          3D

 23 25  0  0  0  0  0  0  0  0999 V2000
    1.8095   -2.7981    0.3562 Cl  0  0  0  0  0  0  0  0  0  0  0  0
   -1.4648   -2.9738   -0.3499 O   0  0  0  0  0  0  0  0  0  0  0  0
    5.9374    1.8581   -0.2573 O   0  0  0  0  0  0  0  0  0  0  0  0
    6.3338   -0.3003   -0.3131 O   0  0  0  0  0  0  0  0  0  0  0  0
   -0.5025   -0.3868   -0.4943 N   0  0  0  0  0  0  0  0  0  0  0  0
    0.0806   -0.3188    0.6106 N   0  0  0  0  0  0  0  0  0  0  0  0
    5.5443    0.6680   -0.1973 N   0  0  0  0  0  0  0  0  0  0  0  0
   -2.7703    0.4645   -0.1620 C   0  0  0  0  0  0  0  0  0  0  0  0
   -4.1455    0.1985    0.0402 C   0  0  0  0  0  0  0  0  0  0  0  0
   -1.8752   -0.6098   -0.2925 C   0  0  0  0  0  0  0  0  0  0  0  0
   -4.5851   -1.1338    0.1057 C   0  0  0  0  0  0  0  0  0  0  0  0
   -2.3310    1.7967   -0.2277 C   0  0  0  0  0  0  0  0  0  0  0  0
   -2.3292   -1.9274   -0.2244 C   0  0  0  0  0  0  0  0  0  0  0  0
   -5.0409    1.2725    0.1705 C   0  0  0  0  0  0  0  0  0  0  0  0
   -3.6817   -2.1889   -0.0259 C   0  0  0  0  0  0  0  0  0  0  0  0
   -3.2344    2.8516   -0.0959 C   0  0  0  0  0  0  0  0  0  0  0  0
   -4.5869    2.5901    0.1030 C   0  0  0  0  0  0  0  0  0  0  0  0
    1.4535   -0.0961    0.4092 C   0  0  0  0  0  0  0  0  0  0  0  0
    2.3446   -1.1584    0.2778 C   0  0  0  0  0  0  0  0  0  0  0  0
    1.9111    1.2177    0.3409 C   0  0  0  0  0  0  0  0  0  0  0  0
    4.1633    0.4091    0.0085 C   0  0  0  0  0  0  0  0  0  0  0  0
    3.7017   -0.9053    0.0772 C   0  0  0  0  0  0  0  0  0  0  0  0
    3.2679    1.4707    0.1404 C   0  0  0  0  0  0  0  0  0  0  0  0
  1 19  1  0
  2 13  1  0
  3  7  1  0
  4  7  2  0
  5  6  2  0
  5 10  1  0
  6 18  1  0
  7 21  1  0
  8  9  1  0
  8 10  2  0
  8 12  1  0
  9 11  2  0
  9 14  1  0
 10 13  1  0
 11 15  1  0
 12 16  2  0
 13 15  2  0
 14 17  2  0
 16 17  1  0
 18 19  2  0
 18 20  1  0
 19 22  1  0
 20 23  2  0
 21 22  2  0
 21 23  1  0
M  CHG  2   3  -1   7   1
M  END
>  <PUBCHEM_COMPOUND_CID>  (1) 
17778

>  <PUBCHEM_CONFORMER_RMSD>  (1) 
0.6

>  <PUBCHEM_CONFORMER_DIVERSEORDER>  (1) 
1
8
5
6
3
2
4
7

>  <PUBCHEM_MMFF94_PARTIAL_CHARGES>  (1) 
31
1 -0.18
10 0.18
11 -0.15
12 -0.15
13 0.08
14 -0.15
15 -0.15
16 -0.15
17 -0.15
18 0.18
19 0.18
2 -0.53
20 -0.15
21 0.13
22 -0.15
23 -0.15
24 0.15
25 0.15
26 0.15
27 0.15
28 0.15
29 0.15
3 -0.52
30 0.15
31 0.15
32 0.15
33 0.45
4 -0.52
5 -0.18
6 -0.18
7 0.91

>  <PUBCHEM_EFFECTIVE_ROTOR_COUNT>  (1) 
3

>  <PUBCHEM_PHARMACOPHORE_FEATURES>  (1) 
7
1 2 donor
1 3 acceptor
1 3 anion
1 4 acceptor
6 18 19 20 21 22 23 rings
6 8 9 10 11 13 15 rings
6 8 9 12 14 16 17 rings

>  <PUBCHEM_HEAVY_ATOM_COUNT>  (1) 
23

>  <PUBCHEM_ATOM_DEF_STEREO_COUNT>  (1) 
0

>  <PUBCHEM_ATOM_UDEF_STEREO_COUNT>  (1) 
0

>  <PUBCHEM_BOND_DEF_STEREO_COUNT>  (1) 
0

>  <PUBCHEM_BOND_UDEF_STEREO_COUNT>  (1) 
0

>  <PUBCHEM_ISOTOPIC_ATOM_COUNT>  (1) 
0

>  <PUBCHEM_COMPONENT_COUNT>  (1) 
1

>  <PUBCHEM_CACTVS_TAUTO_COUNT>  (1) 
3

>  <PUBCHEM_CONFORMER_ID>  (1) 
0000457200000001

>  <PUBCHEM_MMFF94_ENERGY>  (1) 
70.6559

>  <PUBCHEM_FEATURE_SELFOVERLAP>  (1) 
35.628

>  <PUBCHEM_SHAPE_FINGERPRINT>  (1) 
10366900 7 18340475768501139571
10411042 1 17978791543626484999
10595046 47 18335701689155611310
10616163 171 18411136961202159111
12107183 9 17831573185036748386
12173636 292 18411692184720112991
12236239 1 17967813851254740300
12390115 104 18271819977677348153
12403259 415 18059851822533356344
12788726 201 18262226837662731859
14341114 176 18409454652344783501
14790565 3 18336831987146011804
15042514 8 18194404618423651011
15183329 4 18411420583994450390
15196674 1 18410573959576962626
1601671 61 18411135814756926032
17844677 252 18339368560392299556
1813 80 16733272252601368990
20645477 56 18410855443344139425
21033648 29 17703774947323019328
21065198 48 18261386728546549203
21236236 1 18411136956600911901
21267235 1 18337396053754110691
21279426 13 18270405984412813214
21421861 104 17824534172247722506
21709351 56 18409725188271835356
221357 26 18271804669859763747
22393880 68 18341895186694445718
23402539 116 18412541037260334716
23402655 69 18410572881751057504
23557571 272 18271813448804779772
23559900 14 18343295955475140848
245318 6 17026018516862965852
3004659 81 18409451354817579318
350125 39 18411982468706350609
3545911 37 18411419492619355905
4073 2 18114187466922612274
4214541 1 18411699885074358393
474 4 17676773144920638180
5104073 3 18335698317131524690
59755656 215 18343026549889327606
6327066 14 18190736437174777029
77779 3 18410573980867130834
7808743 9 18410571786138745314
9709674 26 18412829062405693103

>  <PUBCHEM_SHAPE_MULTIPOLES>  (1) 
442.65
12.94
3.1
0.66
11.96
0.52
-0.02
-5.57
0.62
-2.39
0.04
-0.01
0.03
-0.34

>  <PUBCHEM_SHAPE_SELFOVERLAP>  (1) 
973.255

>  <PUBCHEM_SHAPE_VOLUME>  (1) 
239.7

>  <PUBCHEM_COORDINATE_TYPE>  (1) 
2
5
10

$$$$
