17775
     RDKit          3D

  4  3  0  0  0  0  0  0  0  0999 V2000
    1.5078   -0.7101    0.0000 Cl  0  0  0  0  0  0  0  0  0  0  0  0
   -1.4167   -0.8587    0.0000 S   0  0  0  0  0  0  0  0  0  0  0  0
   -0.1067    1.3937    0.0001 O   0  0  0  0  0  0  0  0  0  0  0  0
    0.0156    0.1751   -0.0001 C   0  0  0  0  0  0  0  0  0  0  0  0
  1  4  1  0
  2  4  1  0
  3  4  2  0
M  END
>  <PUBCHEM_COMPOUND_CID>  (1) 
17775

>  <PUBCHEM_CONFORMER_RMSD>  (1) 
0.4

>  <PUBCHEM_CONFORMER_DIVERSEORDER>  (1) 
1

>  <PUBCHEM_MMFF94_PARTIAL_CHARGES>  (1) 
5
1 -0.21
2 -0.32
3 -0.57
4 0.92
5 0.18

>  <PUBCHEM_EFFECTIVE_ROTOR_COUNT>  (1) 
0

>  <PUBCHEM_PHARMACOPHORE_FEATURES>  (1) 
1
3 2 3 4 anion

>  <PUBCHEM_HEAVY_ATOM_COUNT>  (1) 
4

>  <PUBCHEM_ATOM_DEF_STEREO_COUNT>  (1) 
0

>  <PUBCHEM_ATOM_UDEF_STEREO_COUNT>  (1) 
0

>  <PUBCHEM_BOND_DEF_STEREO_COUNT>  (1) 
0

>  <PUBCHEM_BOND_UDEF_STEREO_COUNT>  (1) 
0

>  <PUBCHEM_ISOTOPIC_ATOM_COUNT>  (1) 
0

>  <PUBCHEM_COMPONENT_COUNT>  (1) 
1

>  <PUBCHEM_CACTVS_TAUTO_COUNT>  (1) 
2

>  <PUBCHEM_CONFORMER_ID>  (1) 
0000456F00000001

>  <PUBCHEM_MMFF94_ENERGY>  (1) 
0.6801

>  <PUBCHEM_FEATURE_SELFOVERLAP>  (1) 
5.074

>  <PUBCHEM_SHAPE_FINGERPRINT>  (1) 
139733 1 9295292737405606435
16714656 1 18195821677598048646
20096714 4 17476365371037176913
21015797 1 9583518694062129988
5943 1 16770109379624151429

>  <PUBCHEM_SHAPE_MULTIPOLES>  (1) 
82.17
1.85
1.31
0.63
0.04
0.37
0
-0.82
0
-0.02
0
0.02
-0.05
0

>  <PUBCHEM_SHAPE_SELFOVERLAP>  (1) 
126.084

>  <PUBCHEM_SHAPE_VOLUME>  (1) 
61.1

>  <PUBCHEM_COORDINATE_TYPE>  (1) 
2
5
10

$$$$
