17772
     RDKit          3D

  5  4  0  0  0  0  0  0  0  0999 V2000
    2.0513   -0.6420    0.2274 Cl  0  0  0  0  0  0  0  0  0  0  0  0
   -0.8011   -0.9518   -0.3289 S   0  0  0  0  0  0  0  0  0  0  0  0
    0.3850    1.3869   -0.1183 O   0  0  0  0  0  0  0  0  0  0  0  0
   -2.1801    0.0339    0.2951 C   0  0  0  0  0  0  0  0  0  0  0  0
    0.5449    0.1730   -0.0752 C   0  0  0  0  0  0  0  0  0  0  0  0
  1  5  1  0
  2  4  1  0
  2  5  1  0
  3  5  2  0
M  END
>  <PUBCHEM_COMPOUND_CID>  (1) 
17772

>  <PUBCHEM_CONFORMER_RMSD>  (1) 
0.4

>  <PUBCHEM_CONFORMER_DIVERSEORDER>  (1) 
2
3
5
4
6
1

>  <PUBCHEM_MMFF94_PARTIAL_CHARGES>  (1) 
5
1 -0.21
2 -0.37
3 -0.57
4 0.23
5 0.92

>  <PUBCHEM_EFFECTIVE_ROTOR_COUNT>  (1) 
1

>  <PUBCHEM_PHARMACOPHORE_FEATURES>  (1) 
1
1 4 hydrophobe

>  <PUBCHEM_HEAVY_ATOM_COUNT>  (1) 
5

>  <PUBCHEM_ATOM_DEF_STEREO_COUNT>  (1) 
0

>  <PUBCHEM_ATOM_UDEF_STEREO_COUNT>  (1) 
0

>  <PUBCHEM_BOND_DEF_STEREO_COUNT>  (1) 
0

>  <PUBCHEM_BOND_UDEF_STEREO_COUNT>  (1) 
0

>  <PUBCHEM_ISOTOPIC_ATOM_COUNT>  (1) 
0

>  <PUBCHEM_COMPONENT_COUNT>  (1) 
1

>  <PUBCHEM_CACTVS_TAUTO_COUNT>  (1) 
1

>  <PUBCHEM_CONFORMER_ID>  (1) 
0000456C00000002

>  <PUBCHEM_MMFF94_ENERGY>  (1) 
2.6107

>  <PUBCHEM_FEATURE_SELFOVERLAP>  (1) 
5.074

>  <PUBCHEM_SHAPE_FINGERPRINT>  (1) 
139733 1 9943804508347063598
16714656 1 18340489958877822110
20096714 4 18268717293017608101
21015797 1 8859903746530274102
24536 1 18048301529791917195
29004967 10 18113620083934953370
5460574 1 9007059067071961987
5943 1 11767876895635697884

>  <PUBCHEM_SHAPE_MULTIPOLES>  (1) 
102.75
2.73
1.2
0.68
0.15
0.2
0
-0.44
-0.46
-0.09
0.1
0.04
-0.06
-0.13

>  <PUBCHEM_SHAPE_SELFOVERLAP>  (1) 
160.269

>  <PUBCHEM_SHAPE_VOLUME>  (1) 
75

>  <PUBCHEM_COORDINATE_TYPE>  (1) 
2
5
10

$$$$
