17771
     RDKit          3D

 12 12  0  0  0  0  0  0  0  0999 V2000
   -3.3094    0.1181   -0.0008 Br  0  0  0  0  0  0  0  0  0  0  0  0
    3.3093    0.1191   -0.0002 Br  0  0  0  0  0  0  0  0  0  0  0  0
   -1.6710   -2.8207    0.0008 Br  0  0  0  0  0  0  0  0  0  0  0  0
    1.6721   -2.8202   -0.0007 Br  0  0  0  0  0  0  0  0  0  0  0  0
   -0.6975    1.2524    0.0001 C   0  0  0  0  0  0  0  0  0  0  0  0
    0.6973    1.2527    0.0001 C   0  0  0  0  0  0  0  0  0  0  0  0
   -1.3949    0.0443    0.0001 C   0  0  0  0  0  0  0  0  0  0  0  0
    1.3948    0.0448    0.0000 C   0  0  0  0  0  0  0  0  0  0  0  0
   -1.4165    2.5679   -0.0002 C   0  0  0  0  0  0  0  0  0  0  0  0
    1.4156    2.5685    0.0005 C   0  0  0  0  0  0  0  0  0  0  0  0
   -0.6973   -1.1637    0.0002 C   0  0  0  0  0  0  0  0  0  0  0  0
    0.6976   -1.1634    0.0001 C   0  0  0  0  0  0  0  0  0  0  0  0
  1  7  1  0
  2  8  1  0
  3 11  1  0
  4 12  1  0
  5  6  2  0
  5  7  1  0
  5  9  1  0
  6  8  1  0
  6 10  1  0
  7 11  2  0
  8 12  2  0
 11 12  1  0
M  END
>  <PUBCHEM_COMPOUND_CID>  (1) 
17771

>  <PUBCHEM_CONFORMER_RMSD>  (1) 
0.4

>  <PUBCHEM_CONFORMER_DIVERSEORDER>  (1) 
1

>  <PUBCHEM_MMFF94_PARTIAL_CHARGES>  (1) 
12
1 -0.11
10 0.14
11 0.11
12 0.11
2 -0.11
3 -0.11
4 -0.11
5 -0.14
6 -0.14
7 0.11
8 0.11
9 0.14

>  <PUBCHEM_EFFECTIVE_ROTOR_COUNT>  (1) 
0

>  <PUBCHEM_PHARMACOPHORE_FEATURES>  (1) 
5
1 1 hydrophobe
1 2 hydrophobe
1 3 hydrophobe
1 4 hydrophobe
6 5 6 7 8 11 12 rings

>  <PUBCHEM_HEAVY_ATOM_COUNT>  (1) 
12

>  <PUBCHEM_ATOM_DEF_STEREO_COUNT>  (1) 
0

>  <PUBCHEM_ATOM_UDEF_STEREO_COUNT>  (1) 
0

>  <PUBCHEM_BOND_DEF_STEREO_COUNT>  (1) 
0

>  <PUBCHEM_BOND_UDEF_STEREO_COUNT>  (1) 
0

>  <PUBCHEM_ISOTOPIC_ATOM_COUNT>  (1) 
0

>  <PUBCHEM_COMPONENT_COUNT>  (1) 
1

>  <PUBCHEM_CACTVS_TAUTO_COUNT>  (1) 
1

>  <PUBCHEM_CONFORMER_ID>  (1) 
0000456B00000001

>  <PUBCHEM_MMFF94_ENERGY>  (1) 
44.7328

>  <PUBCHEM_FEATURE_SELFOVERLAP>  (1) 
25.374

>  <PUBCHEM_SHAPE_FINGERPRINT>  (1) 
10967382 1 18410573972314151943
12423570 1 11897454242042517835
13140716 1 18267021845813290808
13380535 76 18410570690912028806
16945 1 18410856559639841540
193761 8 18410575084663267302
20588541 1 18410577283702321135
21501502 16 18123190095603844248
2334 1 17978511167210920294
23402539 116 18342162345954256990
23526114 1 18122344854550863295
23552423 10 18046062924144015620
23559900 14 18342464781458289396
241688 4 17906170655108402081
2748010 2 15744725971078479958
5255222 1 18410849966865087653
528886 8 18339637948813736978

>  <PUBCHEM_SHAPE_MULTIPOLES>  (1) 
270.72
4.1
3.66
0.66
0
0.86
0
0.13
0
0
0
0
0.05
0

>  <PUBCHEM_SHAPE_SELFOVERLAP>  (1) 
506.12

>  <PUBCHEM_SHAPE_VOLUME>  (1) 
172.8

>  <PUBCHEM_COORDINATE_TYPE>  (1) 
2
5
10

$$$$
