17776
     RDKit          3D

 20 20  0  0  1  0  0  0  0  0999 V2000
    2.0346   -0.0448   -0.4267 O   0  0  0  0  0  0  0  0  0  0  0  0
    0.1386   -3.6367   -0.6122 O   0  0  0  0  0  0  0  0  0  0  0  0
    1.9992   -2.4785   -0.7393 O   0  0  0  0  0  0  0  0  0  0  0  0
   -4.1130    0.7189    0.5917 O   0  0  0  0  0  0  0  0  0  0  0  0
   -4.0431   -1.4552    0.2968 O   0  0  0  0  0  0  0  0  0  0  0  0
    2.3342   -0.3446    1.8756 O   0  0  0  0  0  0  0  0  0  0  0  0
    0.7600   -2.5489   -0.5630 N   0  0  0  0  0  0  0  0  0  0  0  0
   -3.4770   -0.3372    0.3588 N   0  0  0  0  0  0  0  0  0  0  0  0
    0.6351    2.3671    0.0972 C   0  0  0  0  0  0  0  0  0  0  0  0
   -0.0548    1.0156    0.0242 C   0  0  0  0  0  0  0  0  0  0  0  0
    0.1207    3.3718   -0.9538 C   0  0  0  0  0  0  0  0  0  0  0  0
    0.4994    2.9659    1.5026 C   0  0  0  0  0  0  0  0  0  0  0  0
    0.6853   -0.1224   -0.2348 C   0  0  0  0  0  0  0  0  0  0  0  0
   -1.4222    0.9671    0.2222 C   0  0  0  0  0  0  0  0  0  0  0  0
    0.2509    2.8609   -2.3836 C   0  0  0  0  0  0  0  0  0  0  0  0
    0.0345   -1.3545   -0.2986 C   0  0  0  0  0  0  0  0  0  0  0  0
   -2.0729   -0.2648    0.1585 C   0  0  0  0  0  0  0  0  0  0  0  0
   -1.3447   -1.4257   -0.1019 C   0  0  0  0  0  0  0  0  0  0  0  0
    2.7861   -0.1763    0.7507 C   0  0  0  0  0  0  0  0  0  0  0  0
    4.2492   -0.0776    0.4357 C   0  0  0  0  0  0  0  0  0  0  0  0
  1 13  1  0
  1 19  1  0
  2  7  1  0
  3  7  2  0
  4  8  1  0
  5  8  2  0
  6 19  2  0
  7 16  1  0
  8 17  1  0
  9 10  1  0
  9 11  1  0
  9 12  1  0
 10 13  2  0
 10 14  1  0
 11 15  1  0
 13 16  1  0
 14 17  2  0
 16 18  2  0
 17 18  1  0
 19 20  1  0
M  CHG  4   2  -1   4  -1   7   1   8   1
M  END
>  <PUBCHEM_COMPOUND_CID>  (1) 
17776

>  <PUBCHEM_CONFORMER_RMSD>  (1) 
0.8

>  <PUBCHEM_CONFORMER_DIVERSEORDER>  (1) 
1
8
3
7
6
4
5
2

>  <PUBCHEM_MMFF94_PARTIAL_CHARGES>  (1) 
19
1 -0.23
10 -0.14
13 0.08
14 -0.15
16 0.13
17 0.13
18 -0.15
19 0.66
2 -0.52
20 0.06
27 0.15
3 -0.52
31 0.15
4 -0.52
5 -0.52
6 -0.57
7 0.91
8 0.91
9 0.14

>  <PUBCHEM_EFFECTIVE_ROTOR_COUNT>  (1) 
6

>  <PUBCHEM_PHARMACOPHORE_FEATURES>  (1) 
10
1 12 hydrophobe
1 15 hydrophobe
1 2 acceptor
1 2 anion
1 3 acceptor
1 4 acceptor
1 4 anion
1 5 acceptor
1 6 acceptor
6 10 13 14 16 17 18 rings

>  <PUBCHEM_HEAVY_ATOM_COUNT>  (1) 
20

>  <PUBCHEM_ATOM_DEF_STEREO_COUNT>  (1) 
0

>  <PUBCHEM_ATOM_UDEF_STEREO_COUNT>  (1) 
1

>  <PUBCHEM_BOND_DEF_STEREO_COUNT>  (1) 
0

>  <PUBCHEM_BOND_UDEF_STEREO_COUNT>  (1) 
0

>  <PUBCHEM_ISOTOPIC_ATOM_COUNT>  (1) 
0

>  <PUBCHEM_COMPONENT_COUNT>  (1) 
1

>  <PUBCHEM_CACTVS_TAUTO_COUNT>  (1) 
1

>  <PUBCHEM_CONFORMER_ID>  (1) 
0000457000000001

>  <PUBCHEM_MMFF94_ENERGY>  (1) 
65.0837

>  <PUBCHEM_FEATURE_SELFOVERLAP>  (1) 
50.911

>  <PUBCHEM_SHAPE_FINGERPRINT>  (1) 
10967382 1 18341614836371568526
11680986 33 17977379761224654274
13140716 1 18124880320270816395
14178342 30 18342747295331763115
14181834 199 18195519522464714213
14614273 12 18120929512835662148
14790565 3 18341061799530285864
14943834 7 17616526697961588110
14955137 171 18267889317622381010
15279307 12 17614848843291578301
15852999 172 17254800133124710648
1601671 61 18410860927943659817
16945 1 18272922839031227825
193761 8 17764593114184142602
20511035 2 18047195433921085387
20600515 1 18341617065939584820
20671657 1 17975138952385734341
20739085 24 17979952365500175627
21029758 27 18261113010470561996
21330990 113 18270119007197841920
21524375 3 17539985282911189029
2334 1 17764308744716089487
23402539 116 18272923934459131918
23419403 2 17678709401945620468
2748010 2 18196094339650021159
3250762 1 17690840064784518070
350125 39 17906739459366095523
352729 6 18053950838042886343
589210 1 17692812592886948554
7364860 26 18124879211689264425
81228 2 17828783745638783545
90316 7 18115852053789888928
9981440 41 17046767112942852448

>  <PUBCHEM_SHAPE_MULTIPOLES>  (1) 
366.41
4.97
3.96
1.35
2.28
0.73
0.26
-1.83
-1.86
-0.76
1.57
-0.57
1.08
-0.01

>  <PUBCHEM_SHAPE_SELFOVERLAP>  (1) 
764.638

>  <PUBCHEM_SHAPE_VOLUME>  (1) 
207.3

>  <PUBCHEM_COORDINATE_TYPE>  (1) 
2
5
10

$$$$
