17780
     RDKit          3D

  9  9  0  0  1  0  0  0  0  0999 V2000
    0.9198    1.8294    0.6553 O   0  0  0  0  0  0  0  0  0  0  0  0
   -1.1813    0.7530    0.2485 C   0  0  0  0  0  0  0  0  0  0  0  0
    1.0801   -0.3093   -0.4697 C   0  0  0  0  0  0  0  0  0  0  0  0
   -1.6312   -0.6344    0.7126 C   0  0  0  0  0  0  0  0  0  0  0  0
    0.5772   -1.6508    0.0687 C   0  0  0  0  0  0  0  0  0  0  0  0
   -0.9409   -1.7717   -0.0365 C   0  0  0  0  0  0  0  0  0  0  0  0
    0.3387    0.8359    0.2175 C   0  0  0  0  0  0  0  0  0  0  0  0
   -1.7528    1.1389   -1.1121 C   0  0  0  0  0  0  0  0  0  0  0  0
    2.5905   -0.1910   -0.2843 C   0  0  0  0  0  0  0  0  0  0  0  0
  1  7  2  0
  2  4  1  0
  2  7  1  0
  2  8  1  0
  3  5  1  0
  3  7  1  0
  3  9  1  0
  4  6  1  0
  5  6  1  0
M  END
>  <PUBCHEM_COMPOUND_CID>  (1) 
17780

>  <PUBCHEM_CONFORMER_RMSD>  (1) 
0.4

>  <PUBCHEM_CONFORMER_DIVERSEORDER>  (1) 
2
4
6
3
1
7
5
8

>  <PUBCHEM_MMFF94_PARTIAL_CHARGES>  (1) 
4
1 -0.57
2 0.06
3 0.06
7 0.45

>  <PUBCHEM_EFFECTIVE_ROTOR_COUNT>  (1) 
1

>  <PUBCHEM_PHARMACOPHORE_FEATURES>  (1) 
2
1 1 acceptor
6 2 3 4 5 6 7 rings

>  <PUBCHEM_HEAVY_ATOM_COUNT>  (1) 
9

>  <PUBCHEM_ATOM_DEF_STEREO_COUNT>  (1) 
0

>  <PUBCHEM_ATOM_UDEF_STEREO_COUNT>  (1) 
2

>  <PUBCHEM_BOND_DEF_STEREO_COUNT>  (1) 
0

>  <PUBCHEM_BOND_UDEF_STEREO_COUNT>  (1) 
0

>  <PUBCHEM_ISOTOPIC_ATOM_COUNT>  (1) 
0

>  <PUBCHEM_COMPONENT_COUNT>  (1) 
1

>  <PUBCHEM_CACTVS_TAUTO_COUNT>  (1) 
2

>  <PUBCHEM_CONFORMER_ID>  (1) 
0000457400000002

>  <PUBCHEM_MMFF94_ENERGY>  (1) 
9.0622

>  <PUBCHEM_FEATURE_SELFOVERLAP>  (1) 
10.148

>  <PUBCHEM_SHAPE_FINGERPRINT>  (1) 
137420 1 13770980042439759186
15310529 11 17313116249691816836
16945 1 18199487604052558691
18185500 45 16031264542574943791
20711978 78 17344645956582819476
21040471 1 18264489490219794374
21922407 69 15267338565221721570
23235685 24 18266744579925771752
23552423 10 17974011953061709166
241688 4 15670127727875971451
2748010 2 17978232995180514143
29004967 10 17988373589180971754
5084963 1 18186810209129861178

>  <PUBCHEM_SHAPE_MULTIPOLES>  (1) 
179.35
2.55
1.9
0.89
0.94
0.3
0.09
-0.26
0.38
-0.23
-0.14
-0.26
-0.19
0.39

>  <PUBCHEM_SHAPE_SELFOVERLAP>  (1) 
350.446

>  <PUBCHEM_SHAPE_VOLUME>  (1) 
107.9

>  <PUBCHEM_COORDINATE_TYPE>  (1) 
2
5
10

$$$$
