17785
     RDKit          3D

 13 14  0  0  1  0  0  0  0  0999 V2000
   -2.7994    1.8883    0.8232 O   0  0  0  0  0  0  0  0  0  0  0  0
    1.9174   -0.2493    0.7751 N   0  0  0  0  0  0  0  0  0  0  0  0
   -2.2691    0.8303    0.3526 N   0  0  0  0  0  0  0  0  0  0  0  0
    1.1921   -0.4765   -0.4909 C   0  0  0  0  0  0  0  0  0  0  0  0
    1.7346    0.5990   -1.4502 C   0  0  0  0  0  0  0  0  0  0  0  0
    2.8076    1.3336   -0.6588 C   0  0  0  0  0  0  0  0  0  0  0  0
    3.2071    0.3380    0.4116 C   0  0  0  0  0  0  0  0  0  0  0  0
   -0.3112   -0.4050   -0.3231 C   0  0  0  0  0  0  0  0  0  0  0  0
    2.0714   -1.4585    1.5739 C   0  0  0  0  0  0  0  0  0  0  0  0
   -0.8998    0.7444    0.1902 C   0  0  0  0  0  0  0  0  0  0  0  0
   -1.1085   -1.4855   -0.6793 C   0  0  0  0  0  0  0  0  0  0  0  0
   -2.4878   -1.4098   -0.5201 C   0  0  0  0  0  0  0  0  0  0  0  0
   -3.0544   -0.2490   -0.0041 C   0  0  0  0  0  0  0  0  0  0  0  0
  1  3  1  0
  2  4  1  0
  2  7  1  0
  2  9  1  0
  3 10  2  0
  3 13  1  0
  4  5  1  0
  4  8  1  0
  5  6  1  0
  6  7  1  0
  8 10  1  0
  8 11  2  0
 11 12  1  0
 12 13  2  0
M  CHG  2   1  -1   3   1
M  END
>  <PUBCHEM_COMPOUND_CID>  (1) 
17785

>  <PUBCHEM_CONFORMER_RMSD>  (1) 
0.6

>  <PUBCHEM_CONFORMER_DIVERSEORDER>  (1) 
1
12
15
3
6
8
16
2
9
4
10
14
5
7
13
11

>  <PUBCHEM_MMFF94_PARTIAL_CHARGES>  (1) 
15
1 -0.75
10 -0.06
11 -0.15
12 -0.15
13 -0.06
2 -0.81
24 0.15
25 0.15
26 0.15
27 0.15
3 0.57
4 0.41
7 0.27
8 -0.14
9 0.27

>  <PUBCHEM_EFFECTIVE_ROTOR_COUNT>  (1) 
2

>  <PUBCHEM_PHARMACOPHORE_FEATURES>  (1) 
4
1 1 anion
1 2 cation
5 2 4 5 6 7 rings
6 3 8 10 11 12 13 rings

>  <PUBCHEM_HEAVY_ATOM_COUNT>  (1) 
13

>  <PUBCHEM_ATOM_DEF_STEREO_COUNT>  (1) 
0

>  <PUBCHEM_ATOM_UDEF_STEREO_COUNT>  (1) 
1

>  <PUBCHEM_BOND_DEF_STEREO_COUNT>  (1) 
0

>  <PUBCHEM_BOND_UDEF_STEREO_COUNT>  (1) 
0

>  <PUBCHEM_ISOTOPIC_ATOM_COUNT>  (1) 
0

>  <PUBCHEM_COMPONENT_COUNT>  (1) 
1

>  <PUBCHEM_CACTVS_TAUTO_COUNT>  (1) 
1

>  <PUBCHEM_CONFORMER_ID>  (1) 
0000457900000001

>  <PUBCHEM_MMFF94_ENERGY>  (1) 
29.0872

>  <PUBCHEM_FEATURE_SELFOVERLAP>  (1) 
20.297

>  <PUBCHEM_SHAPE_FINGERPRINT>  (1) 
10219947 1 16877935083915705452
10857977 72 17703223031045615719
11471102 22 16443335499223438108
12326174 3 16588289593264977154
12932764 1 17967535635999854620
13380536 127 18342174492148188955
13538477 17 18337667624119479487
13764800 53 17917162627897408449
13839132 238 17917438579229782013
14144814 61 18410009939986657119
15219456 202 17203618077125482334
15279307 12 18260827137352804154
15669948 3 18200588211018321199
15775835 57 18408890628623274952
16945 1 18131348656808382535
17357990 137 18338808801214340504
201361 129 18333453136295010464
20510252 161 17989213659235805513
20559304 39 18409726270434704066
20645464 45 16845566530566388139
22445834 79 18187639180883940810
22802520 49 16772696333111212188
23236772 104 18263365952486864321
23402539 116 18059563741664641007
25610 171 17703500060630857683
2748010 2 18057340391972754639
3248919 1 18342168955956528127
369184 2 17530960306686121727
7364860 26 18271247119129094310
77492 1 18261390074426046070
8030462 33 18336262435247542871

>  <PUBCHEM_SHAPE_MULTIPOLES>  (1) 
251.7
5.25
1.63
1.19
0.31
0.02
-0.04
0.9
-0.56
0.33
-0.3
-0.44
-0.11
-1.34

>  <PUBCHEM_SHAPE_SELFOVERLAP>  (1) 
525.206

>  <PUBCHEM_SHAPE_VOLUME>  (1) 
144.9

>  <PUBCHEM_COORDINATE_TYPE>  (1) 
2
5
10

$$$$
