17791
     RDKit          3D

 18 20  0  0  0  0  0  0  0  0999 V2000
   -3.7348   -2.4553    0.0005 F   0  0  0  0  0  0  0  0  0  0  0  0
    4.0972   -1.7832   -0.0031 O   0  0  0  0  0  0  0  0  0  0  0  0
    3.7036    0.5412    0.0011 N   0  0  0  0  0  0  0  0  0  0  0  0
   -0.8889   -1.4739   -0.0005 C   0  0  0  0  0  0  0  0  0  0  0  0
    0.1591   -0.3806   -0.0011 C   0  0  0  0  0  0  0  0  0  0  0  0
   -0.4542    0.8923   -0.0011 C   0  0  0  0  0  0  0  0  0  0  0  0
   -2.1727   -0.6708   -0.0002 C   0  0  0  0  0  0  0  0  0  0  0  0
   -1.8902    0.7137   -0.0006 C   0  0  0  0  0  0  0  0  0  0  0  0
    1.5359   -0.5200   -0.0010 C   0  0  0  0  0  0  0  0  0  0  0  0
    0.3152    2.0438   -0.0009 C   0  0  0  0  0  0  0  0  0  0  0  0
   -3.4734   -1.1433    0.0008 C   0  0  0  0  0  0  0  0  0  0  0  0
   -2.9183    1.6416    0.0002 C   0  0  0  0  0  0  0  0  0  0  0  0
    2.3112    0.6409   -0.0007 C   0  0  0  0  0  0  0  0  0  0  0  0
    1.7070    1.9100   -0.0008 C   0  0  0  0  0  0  0  0  0  0  0  0
   -4.5096   -0.2077    0.0014 C   0  0  0  0  0  0  0  0  0  0  0  0
   -4.2349    1.1708    0.0011 C   0  0  0  0  0  0  0  0  0  0  0  0
    4.4870   -0.6199    0.0014 C   0  0  0  0  0  0  0  0  0  0  0  0
    5.9608   -0.2995    0.0036 C   0  0  0  0  0  0  0  0  0  0  0  0
  1 11  1  0
  2 17  2  0
  3 13  1  0
  3 17  1  0
  4  5  1  0
  4  7  1  0
  5  6  2  0
  5  9  1  0
  6  8  1  0
  6 10  1  0
  7  8  2  0
  7 11  1  0
  8 12  1  0
  9 13  2  0
 10 14  2  0
 11 15  2  0
 12 16  2  0
 13 14  1  0
 15 16  1  0
 17 18  1  0
M  END
>  <PUBCHEM_COMPOUND_CID>  (1) 
17791

>  <PUBCHEM_CONFORMER_RMSD>  (1) 
0.6

>  <PUBCHEM_CONFORMER_DIVERSEORDER>  (1) 
1
3
2
4

>  <PUBCHEM_MMFF94_PARTIAL_CHARGES>  (1) 
23
1 -0.19
10 -0.15
11 0.19
12 -0.15
13 0.12
14 -0.15
15 -0.15
16 -0.15
17 0.57
18 0.06
2 -0.57
21 0.15
22 0.15
23 0.15
24 0.15
25 0.15
26 0.15
27 0.37
3 -0.55
4 0.29
5 -0.14
7 -0.14
9 -0.15

>  <PUBCHEM_EFFECTIVE_ROTOR_COUNT>  (1) 
2.2

>  <PUBCHEM_PHARMACOPHORE_FEATURES>  (1) 
5
1 2 acceptor
1 3 donor
5 4 5 6 7 8 rings
6 5 6 9 10 13 14 rings
6 7 8 11 12 15 16 rings

>  <PUBCHEM_HEAVY_ATOM_COUNT>  (1) 
18

>  <PUBCHEM_ATOM_DEF_STEREO_COUNT>  (1) 
0

>  <PUBCHEM_ATOM_UDEF_STEREO_COUNT>  (1) 
0

>  <PUBCHEM_BOND_DEF_STEREO_COUNT>  (1) 
0

>  <PUBCHEM_BOND_UDEF_STEREO_COUNT>  (1) 
0

>  <PUBCHEM_ISOTOPIC_ATOM_COUNT>  (1) 
0

>  <PUBCHEM_COMPONENT_COUNT>  (1) 
1

>  <PUBCHEM_CACTVS_TAUTO_COUNT>  (1) 
2

>  <PUBCHEM_CONFORMER_ID>  (1) 
0000457F00000001

>  <PUBCHEM_MMFF94_ENERGY>  (1) 
58.8929

>  <PUBCHEM_FEATURE_SELFOVERLAP>  (1) 
25.536

>  <PUBCHEM_SHAPE_FINGERPRINT>  (1) 
10062212 137 18342172280445850927
10968037 39 18408608067731670180
11315181 36 18272937120372610744
11401426 45 18412542098301950804
12032990 46 18410294735047057536
12107183 9 17688588260886700346
12236239 1 17821730512017257320
12403259 226 18340481296229836697
12916754 54 18339363101572859769
13140716 1 18340494456104363089
13167823 11 18408884040343896402
13214271 11 18272084980958372773
13288520 33 18411983550800693332
13675066 3 18202558505785054904
13690532 89 18410575080463271536
13862211 1 18410851049350021934
14115302 16 17822021925316286486
15042514 8 18266462190865410227
15099037 51 18410011018070979797
15196674 1 18410574028175249956
15209289 33 18187367635971747939
15442244 35 18410856585504844209
15536298 74 18341610464363945152
16945 1 18050287273909689477
17492 89 18193556902862670707
17804303 29 18412546526276245317
17834072 33 18335143120137501332
1813 80 17385729062979352318
18186145 218 17676197009327849813
19141452 34 18342176665596845679
200 152 17917706907633248909
20374829 77 18408319978204630234
21267235 1 18409455808155157875
21279426 13 18122062005205697828
221490 88 18263649635092602537
2297311 6 18200886093455683916
23175994 123 17275107227841530360
23366157 5 17969782084749220580
23402539 116 18343014484671954828
23463225 33 18409730668433839812
23559900 14 18342450465646697408
23622692 118 17986380295107344791
2748010 2 18338795749404846397
3004659 81 18187931626151494254
335352 9 18410573981584705365
34934 24 18337387124015838451
350125 39 18409733958911876225
3545911 37 18411982442720249361
4214541 1 18410856551065893605
4463277 17 18410294714237028196
5104073 3 18340769333393934297
559249 180 18335134241917958402
633830 44 17022904574935491485
67856867 119 18261957470288401620
7364860 26 18268710700570473576
77779 3 18410012156327055308
8809292 202 18334016133413957339
9709674 26 18191306189606646051
9981440 41 17398391317847731112

>  <PUBCHEM_SHAPE_MULTIPOLES>  (1) 
352.31
10.29
2.05
0.6
8.6
0.05
0
2.78
-0.01
-0.93
0
-0.02
-0.02
0

>  <PUBCHEM_SHAPE_SELFOVERLAP>  (1) 
782.644

>  <PUBCHEM_SHAPE_VOLUME>  (1) 
189.8

>  <PUBCHEM_COORDINATE_TYPE>  (1) 
2
5
10

$$$$
