17792
     RDKit          3D

 18 20  0  0  0  0  0  0  0  0999 V2000
    1.3978   -2.4595    0.0003 F   0  0  0  0  0  0  0  0  0  0  0  0
    4.3587    1.6725    0.0022 O   0  0  0  0  0  0  0  0  0  0  0  0
    3.3185   -0.4431    0.0000 N   0  0  0  0  0  0  0  0  0  0  0  0
   -1.5217   -1.7607    0.0001 C   0  0  0  0  0  0  0  0  0  0  0  0
   -0.3238   -0.8342   -0.0004 C   0  0  0  0  0  0  0  0  0  0  0  0
   -0.7424    0.5154   -0.0009 C   0  0  0  0  0  0  0  0  0  0  0  0
   -2.6729   -0.7768   -0.0001 C   0  0  0  0  0  0  0  0  0  0  0  0
   -2.1891    0.5508   -0.0007 C   0  0  0  0  0  0  0  0  0  0  0  0
    1.0174   -1.1753    0.0000 C   0  0  0  0  0  0  0  0  0  0  0  0
    0.1886    1.5406   -0.0008 C   0  0  0  0  0  0  0  0  0  0  0  0
   -4.0291   -1.0521    0.0007 C   0  0  0  0  0  0  0  0  0  0  0  0
    1.9556   -0.1416    0.0002 C   0  0  0  0  0  0  0  0  0  0  0  0
   -3.0689    1.6203   -0.0004 C   0  0  0  0  0  0  0  0  0  0  0  0
    1.5454    1.2028   -0.0003 C   0  0  0  0  0  0  0  0  0  0  0  0
   -4.9158    0.0263    0.0009 C   0  0  0  0  0  0  0  0  0  0  0  0
   -4.4406    1.3490    0.0003 C   0  0  0  0  0  0  0  0  0  0  0  0
    4.4006    0.4465   -0.0005 C   0  0  0  0  0  0  0  0  0  0  0  0
    5.7217   -0.2810   -0.0005 C   0  0  0  0  0  0  0  0  0  0  0  0
  1  9  1  0
  2 17  2  0
  3 12  1  0
  3 17  1  0
  4  5  1  0
  4  7  1  0
  5  6  2  0
  5  9  1  0
  6  8  1  0
  6 10  1  0
  7  8  2  0
  7 11  1  0
  8 13  1  0
  9 12  2  0
 10 14  2  0
 11 15  2  0
 12 14  1  0
 13 16  2  0
 15 16  1  0
 17 18  1  0
M  END
>  <PUBCHEM_COMPOUND_CID>  (1) 
17792

>  <PUBCHEM_CONFORMER_RMSD>  (1) 
0.6

>  <PUBCHEM_CONFORMER_DIVERSEORDER>  (1) 
1
3
2
4

>  <PUBCHEM_MMFF94_PARTIAL_CHARGES>  (1) 
23
1 -0.19
10 -0.15
11 -0.15
12 0.12
13 -0.15
14 -0.15
15 -0.15
16 -0.15
17 0.57
18 0.06
2 -0.57
21 0.15
22 0.15
23 0.15
24 0.15
25 0.15
26 0.15
27 0.37
3 -0.55
4 0.29
5 -0.14
7 -0.14
9 0.19

>  <PUBCHEM_EFFECTIVE_ROTOR_COUNT>  (1) 
2.2

>  <PUBCHEM_PHARMACOPHORE_FEATURES>  (1) 
5
1 2 acceptor
1 3 donor
5 4 5 6 7 8 rings
6 5 6 9 10 12 14 rings
6 7 8 11 13 15 16 rings

>  <PUBCHEM_HEAVY_ATOM_COUNT>  (1) 
18

>  <PUBCHEM_ATOM_DEF_STEREO_COUNT>  (1) 
0

>  <PUBCHEM_ATOM_UDEF_STEREO_COUNT>  (1) 
0

>  <PUBCHEM_BOND_DEF_STEREO_COUNT>  (1) 
0

>  <PUBCHEM_BOND_UDEF_STEREO_COUNT>  (1) 
0

>  <PUBCHEM_ISOTOPIC_ATOM_COUNT>  (1) 
0

>  <PUBCHEM_COMPONENT_COUNT>  (1) 
1

>  <PUBCHEM_CACTVS_TAUTO_COUNT>  (1) 
2

>  <PUBCHEM_CONFORMER_ID>  (1) 
0000458000000001

>  <PUBCHEM_MMFF94_ENERGY>  (1) 
59.2173

>  <PUBCHEM_FEATURE_SELFOVERLAP>  (1) 
25.536

>  <PUBCHEM_SHAPE_FINGERPRINT>  (1) 
10062212 137 18409160039089553114
10411042 1 17545884192574778022
10967382 1 18410573951303422183
11401426 45 18412824694048750476
11578080 2 16880181209539880415
12236239 1 17894348887139799372
12390115 104 18129115433034617025
12403814 3 17676202464157972693
13140716 1 18122352543070006507
13214271 11 18410011048473471455
13288520 33 18412546513322557404
13380535 76 18408888442579957723
13533116 47 13901918765811651812
13862211 1 18410569595964218278
14790565 3 18410017658286202252
15042514 8 18193561292762547291
15196674 1 18410573985241180390
15375358 24 18412547608576277550
15442244 35 18123470475733257123
15536298 74 18342459184008139518
16945 1 18338799017716605543
17804303 29 18412263977578790249
18522853 276 18412265042973272777
19784866 170 18334297543581042963
19784866 9 18335980887599169354
200 152 18060697304083114069
20510252 161 18272373027625735289
20645477 70 17560528296287439886
21267235 1 18410301327906369843
21279426 13 18196656194418222870
23402539 116 18271801336986260845
23402655 69 18270674273850383541
23559900 14 18270681961884223126
2748010 2 17762338415710709147
296302 2 18334295353395570371
3004659 81 18334862698007819038
335352 9 18410575067678590372
34934 24 18337949000612401695
350125 39 18411140260196023897
3545911 37 18410575068047712129
4072396 5 18336532842494484570
4214541 1 18410573985157057185
4340502 62 16950288382109601395
474 4 17168994563647505916
4990 188 18060426802594916196
5104073 3 18409167688310042834
6138700 20 18337675205528190502
7364860 26 18269838610205493142
9709674 26 18411425011779230695

>  <PUBCHEM_SHAPE_MULTIPOLES>  (1) 
352.31
10.34
1.89
0.6
6.47
0.28
0
-1.79
0
-0.3
0
-0.05
-0.01
0

>  <PUBCHEM_SHAPE_SELFOVERLAP>  (1) 
783.12

>  <PUBCHEM_SHAPE_VOLUME>  (1) 
189.6

>  <PUBCHEM_COORDINATE_TYPE>  (1) 
2
5
10

$$$$
