17807
     RDKit          3D

 23 25  0  0  1  0  0  0  0  0999 V2000
   -2.6886   -0.6125    0.1192 N   0  0  0  0  0  0  0  0  0  0  0  0
    1.4037    2.8068   -2.2949 N   0  0  0  0  0  0  0  0  0  0  0  0
    0.4964    1.5996   -0.1164 C   0  0  0  0  0  0  0  0  0  0  0  0
   -0.7975    0.8165   -0.5289 C   0  0  0  0  0  0  0  0  0  0  0  0
   -1.5052    0.0846    0.6222 C   0  0  0  0  0  0  0  0  0  0  0  0
   -3.6481    0.3461   -0.4467 C   0  0  0  0  0  0  0  0  0  0  0  0
   -3.3049   -1.4141    1.1858 C   0  0  0  0  0  0  0  0  0  0  0  0
   -4.8705   -0.3709   -1.0221 C   0  0  0  0  0  0  0  0  0  0  0  0
   -4.5160   -2.1886    0.6639 C   0  0  0  0  0  0  0  0  0  0  0  0
   -5.5380   -1.2552    0.0249 C   0  0  0  0  0  0  0  0  0  0  0  0
    0.0648    2.7218    0.8862 C   0  0  0  0  0  0  0  0  0  0  0  0
    1.5102    0.6505    0.5482 C   0  0  0  0  0  0  0  0  0  0  0  0
    2.0220   -0.4295   -0.1471 C   0  0  0  0  0  0  0  0  0  0  0  0
   -0.9996    3.6864    0.3636 C   0  0  0  0  0  0  0  0  0  0  0  0
    1.0148    2.2738   -1.3397 C   0  0  0  0  0  0  0  0  0  0  0  0
    1.8526    0.9551    1.8462 C   0  0  0  0  0  0  0  0  0  0  0  0
    2.9501   -1.2642    0.5200 C   0  0  0  0  0  0  0  0  0  0  0  0
    2.7656    0.1345    2.5021 C   0  0  0  0  0  0  0  0  0  0  0  0
    1.6609   -0.7254   -1.4717 C   0  0  0  0  0  0  0  0  0  0  0  0
    3.3116   -0.9683    1.8445 C   0  0  0  0  0  0  0  0  0  0  0  0
    3.4897   -2.3699   -0.1571 C   0  0  0  0  0  0  0  0  0  0  0  0
    2.2067   -1.8283   -2.1290 C   0  0  0  0  0  0  0  0  0  0  0  0
    3.1194   -2.6491   -1.4729 C   0  0  0  0  0  0  0  0  0  0  0  0
  1  5  1  0
  1  6  1  0
  1  7  1  0
  2 15  3  0
  3  4  1  0
  3 11  1  0
  3 12  1  0
  3 15  1  0
  4  5  1  0
  6  8  1  0
  7  9  1  0
  8 10  1  0
  9 10  1  0
 11 14  1  0
 12 13  1  0
 12 16  2  0
 13 17  2  0
 13 19  1  0
 16 18  1  0
 17 20  1  0
 17 21  1  0
 18 20  2  0
 19 22  2  0
 21 23  2  0
 22 23  1  0
M  END
>  <PUBCHEM_COMPOUND_CID>  (1) 
17807

>  <PUBCHEM_CONFORMER_RMSD>  (1) 
0.8

>  <PUBCHEM_CONFORMER_DIVERSEORDER>  (1) 
2
3
28
37
29
10
34
41
15
43
31
21
4
6
40
8
9
5
38
19
23
14
22
1
16
18
17
42
26
39
20
25
13
36
35
33
7
32
12
24
11
30
27

>  <PUBCHEM_MMFF94_PARTIAL_CHARGES>  (1) 
22
1 -0.81
12 -0.14
15 0.36
16 -0.15
18 -0.15
19 -0.15
2 -0.56
20 -0.15
21 -0.15
22 -0.15
23 -0.15
3 0.34
43 0.15
44 0.15
45 0.15
46 0.15
47 0.15
48 0.15
49 0.15
5 0.27
6 0.27
7 0.27

>  <PUBCHEM_EFFECTIVE_ROTOR_COUNT>  (1) 
6.2

>  <PUBCHEM_PHARMACOPHORE_FEATURES>  (1) 
6
1 1 cation
1 14 hydrophobe
1 2 acceptor
6 1 6 7 8 9 10 rings
6 12 13 16 17 18 20 rings
6 13 17 19 21 22 23 rings

>  <PUBCHEM_HEAVY_ATOM_COUNT>  (1) 
23

>  <PUBCHEM_ATOM_DEF_STEREO_COUNT>  (1) 
0

>  <PUBCHEM_ATOM_UDEF_STEREO_COUNT>  (1) 
1

>  <PUBCHEM_BOND_DEF_STEREO_COUNT>  (1) 
0

>  <PUBCHEM_BOND_UDEF_STEREO_COUNT>  (1) 
0

>  <PUBCHEM_ISOTOPIC_ATOM_COUNT>  (1) 
0

>  <PUBCHEM_COMPONENT_COUNT>  (1) 
1

>  <PUBCHEM_CACTVS_TAUTO_COUNT>  (1) 
1

>  <PUBCHEM_CONFORMER_ID>  (1) 
0000458F00000002

>  <PUBCHEM_MMFF94_ENERGY>  (1) 
71.3845

>  <PUBCHEM_FEATURE_SELFOVERLAP>  (1) 
30.472

>  <PUBCHEM_SHAPE_FINGERPRINT>  (1) 
11578080 2 17631185099373861456
11582403 64 15744915641826272928
116883 192 18339924805743581325
12293681 25 17979327808024287702
12363563 72 18410015420681756459
13134695 92 18267564966304165397
13224815 77 11312063136688066219
13533116 47 17632582665116404547
13681431 1 18261962932753429404
13965767 371 13686293552382093010
14004458 79 17461425950095192804
14251764 30 16055498058525506558
14863182 85 18270964673383772886
14866123 147 17764594209933780755
15163728 17 15866628571884255180
15420108 30 17624113298039229744
15422964 175 18342452621419170623
16752209 62 17823694162322209665
17357779 13 18270389473946285893
1813 80 18260267408577005149
18186145 218 11169913862122171875
20197701 30 17756151442280692364
20600515 1 18115569475033255453
20645477 70 18189058762528753215
20775530 9 17840043848245481311
21452121 199 18410866455381843116
22112679 90 17534075072914934664
229495 10 16843855638981668208
23557571 272 18266166258363532424
23559900 14 18335423491186330143
3052486 1 17971475096210890893
31174 14 17632002075299301354
38695281 34 17978794837322815804
484985 159 16334729876533101550
6443956 14 18412824681580528035
6669772 16 17767976690037935236
6823239 73 18337401533657886683
81228 2 18192997006567472553
8988823 20 17060329743701183971
9841814 1 18113616815459651001

>  <PUBCHEM_SHAPE_MULTIPOLES>  (1) 
463.37
8.51
3.49
2.07
12.87
2.19
0.02
-7.85
-0.94
-0.86
0.99
-2.12
0.13
1.07

>  <PUBCHEM_SHAPE_SELFOVERLAP>  (1) 
985.177

>  <PUBCHEM_SHAPE_VOLUME>  (1) 
255.7

>  <PUBCHEM_COORDINATE_TYPE>  (1) 
2
5
10

$$$$
