17805
     RDKit          3D

 13 13  0  0  0  0  0  0  0  0999 V2000
   -2.3446    0.8132   -0.0031 N   0  0  0  0  0  0  0  0  0  0  0  0
    2.3447    0.8318    0.0027 N   0  0  0  0  0  0  0  0  0  0  0  0
   -0.0002    0.8543    0.0011 N   0  0  0  0  0  0  0  0  0  0  0  0
    1.2080   -1.2190    0.0019 N   0  0  0  0  0  0  0  0  0  0  0  0
   -1.1915   -1.2286   -0.0010 N   0  0  0  0  0  0  0  0  0  0  0  0
    0.0164   -3.2387   -0.0006 N   0  0  0  0  0  0  0  0  0  0  0  0
   -1.1339    0.1206   -0.0006 C   0  0  0  0  0  0  0  0  0  0  0  0
    1.1250    0.1213    0.0021 C   0  0  0  0  0  0  0  0  0  0  0  0
   -3.6157    0.1005   -0.0058 C   0  0  0  0  0  0  0  0  0  0  0  0
   -2.3745    2.2702    0.0110 C   0  0  0  0  0  0  0  0  0  0  0  0
    3.6069    0.1207    0.0031 C   0  0  0  0  0  0  0  0  0  0  0  0
    2.3487    2.2806   -0.0112 C   0  0  0  0  0  0  0  0  0  0  0  0
    0.0107   -1.8269    0.0004 C   0  0  0  0  0  0  0  0  0  0  0  0
  1  7  1  0
  1  9  1  0
  1 10  1  0
  2  8  1  0
  2 11  1  0
  2 12  1  0
  3  7  2  0
  3  8  1  0
  4  8  2  0
  4 13  1  0
  5  7  1  0
  5 13  2  0
  6 13  1  0
M  END
>  <PUBCHEM_COMPOUND_CID>  (1) 
17805

>  <PUBCHEM_CONFORMER_RMSD>  (1) 
0.6

>  <PUBCHEM_CONFORMER_DIVERSEORDER>  (1) 
1
3
2

>  <PUBCHEM_MMFF94_PARTIAL_CHARGES>  (1) 
15
1 -0.84
10 0.37
11 0.37
12 0.37
13 0.72
2 -0.84
26 0.4
27 0.4
3 -0.62
4 -0.62
5 -0.62
6 -0.9
7 0.72
8 0.72
9 0.37

>  <PUBCHEM_EFFECTIVE_ROTOR_COUNT>  (1) 
2

>  <PUBCHEM_PHARMACOPHORE_FEATURES>  (1) 
5
1 6 donor
4 1 3 5 7 cation
4 2 3 4 8 cation
4 4 5 6 13 cation
6 3 4 5 7 8 13 rings

>  <PUBCHEM_HEAVY_ATOM_COUNT>  (1) 
13

>  <PUBCHEM_ATOM_DEF_STEREO_COUNT>  (1) 
0

>  <PUBCHEM_ATOM_UDEF_STEREO_COUNT>  (1) 
0

>  <PUBCHEM_BOND_DEF_STEREO_COUNT>  (1) 
0

>  <PUBCHEM_BOND_UDEF_STEREO_COUNT>  (1) 
0

>  <PUBCHEM_ISOTOPIC_ATOM_COUNT>  (1) 
0

>  <PUBCHEM_COMPONENT_COUNT>  (1) 
1

>  <PUBCHEM_CACTVS_TAUTO_COUNT>  (1) 
3

>  <PUBCHEM_CONFORMER_ID>  (1) 
0000458D00000001

>  <PUBCHEM_MMFF94_ENERGY>  (1) 
54.1908

>  <PUBCHEM_FEATURE_SELFOVERLAP>  (1) 
25.501

>  <PUBCHEM_SHAPE_FINGERPRINT>  (1) 
1 1 18338516335300125542
13380535 76 18410573985157102667
14325111 11 18410855451543826752
14648413 74 17976824186131084609
16945 1 18410856563934834819
17990270 104 18049721811310781331
18186145 218 18273221871750173304
19021347 11 18338515231593854483
193761 8 17185594612119457640
20510252 161 18198627820245380649
20645476 183 17969522535653915702
20645477 56 18339081622275360144
20645477 70 18197210348732413055
20871998 184 17910967059873536046
21028194 46 18334297565077173309
21040471 1 18410575119239140578
21501502 16 18193834834833772793
21524375 3 18334856112641403122
23402539 116 18270668874480250741
23526114 1 18123470470984706662
23552423 10 18195808462416033063
23559900 14 18343311379837019524
2748010 2 18337399334639470583
305870 269 18264767666640470736
3071541 12 18051980212246327982
7364860 26 18124596375344836991
81228 2 17835229426245144459

>  <PUBCHEM_SHAPE_MULTIPOLES>  (1) 
237.65
4.93
2.78
0.58
0.06
1.21
0
-2.57
0
-0.02
0
0
-0.02
-0.01

>  <PUBCHEM_SHAPE_SELFOVERLAP>  (1) 
476.197

>  <PUBCHEM_SHAPE_VOLUME>  (1) 
132.2

>  <PUBCHEM_COORDINATE_TYPE>  (1) 
2
5
10

$$$$
