17802
     RDKit          3D

 11 11  0  0  0  0  0  0  0  0999 V2000
    1.8109   -0.7189   -0.0039 O   0  0  0  0  0  0  0  0  0  0  0  0
   -0.4147   -1.3511   -0.0008 N   0  0  0  0  0  0  0  0  0  0  0  0
    0.2217    0.9625   -0.0012 N   0  0  0  0  0  0  0  0  0  0  0  0
   -2.1002    0.3569    0.0015 N   0  0  0  0  0  0  0  0  0  0  0  0
   -2.6915   -1.9124    0.0014 N   0  0  0  0  0  0  0  0  0  0  0  0
   -1.4478    2.6093    0.0011 N   0  0  0  0  0  0  0  0  0  0  0  0
    2.7603    0.3376   -0.0050 C   0  0  0  0  0  0  0  0  0  0  0  0
    0.4849   -0.3541   -0.0019 C   0  0  0  0  0  0  0  0  0  0  0  0
    4.1544   -0.2523    0.0077 C   0  0  0  0  0  0  0  0  0  0  0  0
   -1.6866   -0.9208    0.0008 C   0  0  0  0  0  0  0  0  0  0  0  0
   -1.0915    1.2432    0.0003 C   0  0  0  0  0  0  0  0  0  0  0  0
  1  7  1  0
  1  8  1  0
  2  8  2  0
  2 10  1  0
  3  8  1  0
  3 11  2  0
  4 10  2  0
  4 11  1  0
  5 10  1  0
  6 11  1  0
  7  9  1  0
M  END
>  <PUBCHEM_COMPOUND_CID>  (1) 
17802

>  <PUBCHEM_CONFORMER_RMSD>  (1) 
0.4

>  <PUBCHEM_CONFORMER_DIVERSEORDER>  (1) 
1
4
2
3

>  <PUBCHEM_MMFF94_PARTIAL_CHARGES>  (1) 
14
1 -0.36
10 0.72
11 0.72
17 0.4
18 0.4
19 0.4
2 -0.62
20 0.4
3 -0.62
4 -0.62
5 -0.9
6 -0.9
7 0.28
8 0.7

>  <PUBCHEM_EFFECTIVE_ROTOR_COUNT>  (1) 
2

>  <PUBCHEM_PHARMACOPHORE_FEATURES>  (1) 
5
1 5 donor
1 6 donor
4 2 4 5 10 cation
4 3 4 6 11 cation
6 2 3 4 8 10 11 rings

>  <PUBCHEM_HEAVY_ATOM_COUNT>  (1) 
11

>  <PUBCHEM_ATOM_DEF_STEREO_COUNT>  (1) 
0

>  <PUBCHEM_ATOM_UDEF_STEREO_COUNT>  (1) 
0

>  <PUBCHEM_BOND_DEF_STEREO_COUNT>  (1) 
0

>  <PUBCHEM_BOND_UDEF_STEREO_COUNT>  (1) 
0

>  <PUBCHEM_ISOTOPIC_ATOM_COUNT>  (1) 
0

>  <PUBCHEM_COMPONENT_COUNT>  (1) 
1

>  <PUBCHEM_CACTVS_TAUTO_COUNT>  (1) 
5

>  <PUBCHEM_CONFORMER_ID>  (1) 
0000458A00000001

>  <PUBCHEM_MMFF94_ENERGY>  (1) 
31.4037

>  <PUBCHEM_FEATURE_SELFOVERLAP>  (1) 
25.415

>  <PUBCHEM_SHAPE_FINGERPRINT>  (1) 
10857977 72 18341321301300543426
12032990 46 18266181810366576443
12716758 59 18268998579010586982
13024252 1 17676207970121299507
13380535 76 18196928864348012063
14325111 11 18410575046678279758
16945 1 18410575054624707589
20871998 184 18273498982971442391
21040471 1 18050568443563810053
23402539 116 18271798043131726599
23552423 10 18187928425609178142
2748010 2 18195797686169202501
6333449 129 18341610386853852780

>  <PUBCHEM_SHAPE_MULTIPOLES>  (1) 
195.6
4.98
1.95
0.57
5.7
0.82
0
-1.08
0.01
-1.93
0
0.04
0
0

>  <PUBCHEM_SHAPE_SELFOVERLAP>  (1) 
395.844

>  <PUBCHEM_SHAPE_VOLUME>  (1) 
110.8

>  <PUBCHEM_COORDINATE_TYPE>  (1) 
2
5
10

$$$$
