17801
     RDKit          3D

 19 22  0  0  0  0  0  0  0  0999 V2000
   -4.1125   -1.9719   -0.1028 O   0  0  0  0  0  0  0  0  0  0  0  0
    0.0168   -1.6744    0.0581 N   0  0  0  0  0  0  0  0  0  0  0  0
   -1.5759    0.6166   -0.0151 C   0  0  0  0  0  0  0  0  0  0  0  0
   -2.4642    1.8431   -0.0469 C   0  0  0  0  0  0  0  0  0  0  0  0
   -3.8604    1.5659    0.5004 C   0  0  0  0  0  0  0  0  0  0  0  0
   -2.1592   -0.6542   -0.0145 C   0  0  0  0  0  0  0  0  0  0  0  0
   -0.1550    0.7233   -0.0310 C   0  0  0  0  0  0  0  0  0  0  0  0
   -4.4943    0.3851   -0.2086 C   0  0  0  0  0  0  0  0  0  0  0  0
   -3.6283   -0.8440   -0.0863 C   0  0  0  0  0  0  0  0  0  0  0  0
    0.6140   -0.4666    0.0178 C   0  0  0  0  0  0  0  0  0  0  0  0
    2.0258   -0.3852    0.0184 C   0  0  0  0  0  0  0  0  0  0  0  0
    0.5212    1.9586   -0.0996 C   0  0  0  0  0  0  0  0  0  0  0  0
   -1.3286   -1.7545    0.0310 C   0  0  0  0  0  0  0  0  0  0  0  0
    2.6753    0.8716   -0.0407 C   0  0  0  0  0  0  0  0  0  0  0  0
    1.9105    2.0330   -0.1027 C   0  0  0  0  0  0  0  0  0  0  0  0
    2.8435   -1.5363    0.0746 C   0  0  0  0  0  0  0  0  0  0  0  0
    4.0786    0.9468   -0.0414 C   0  0  0  0  0  0  0  0  0  0  0  0
    4.2377   -1.4493    0.0736 C   0  0  0  0  0  0  0  0  0  0  0  0
    4.8551   -0.2075    0.0158 C   0  0  0  0  0  0  0  0  0  0  0  0
  1  9  2  0
  2 10  2  0
  2 13  1  0
  3  4  1  0
  3  6  1  0
  3  7  2  0
  4  5  1  0
  5  8  1  0
  6  9  1  0
  6 13  2  0
  7 10  1  0
  7 12  1  0
  8  9  1  0
 10 11  1  0
 11 14  2  0
 11 16  1  0
 12 15  2  0
 14 15  1  0
 14 17  1  0
 16 18  2  0
 17 19  2  0
 18 19  1  0
M  END
>  <PUBCHEM_COMPOUND_CID>  (1) 
17801

>  <PUBCHEM_CONFORMER_RMSD>  (1) 
0.6

>  <PUBCHEM_CONFORMER_DIVERSEORDER>  (1) 
1

>  <PUBCHEM_MMFF94_PARTIAL_CHARGES>  (1) 
22
1 -0.57
10 0.31
12 -0.15
13 0.16
15 -0.15
16 -0.15
17 -0.15
18 -0.15
19 -0.15
2 -0.62
26 0.15
27 0.15
28 0.15
29 0.15
3 -0.14
30 0.15
31 0.15
32 0.15
4 0.14
6 0.09
8 0.06
9 0.42

>  <PUBCHEM_EFFECTIVE_ROTOR_COUNT>  (1) 
0.6

>  <PUBCHEM_PHARMACOPHORE_FEATURES>  (1) 
6
1 1 acceptor
1 2 acceptor
6 11 14 16 17 18 19 rings
6 2 3 6 7 10 13 rings
6 3 4 5 6 8 9 rings
6 7 10 11 12 14 15 rings

>  <PUBCHEM_HEAVY_ATOM_COUNT>  (1) 
19

>  <PUBCHEM_ATOM_DEF_STEREO_COUNT>  (1) 
0

>  <PUBCHEM_ATOM_UDEF_STEREO_COUNT>  (1) 
0

>  <PUBCHEM_BOND_DEF_STEREO_COUNT>  (1) 
0

>  <PUBCHEM_BOND_UDEF_STEREO_COUNT>  (1) 
0

>  <PUBCHEM_ISOTOPIC_ATOM_COUNT>  (1) 
0

>  <PUBCHEM_COMPONENT_COUNT>  (1) 
1

>  <PUBCHEM_CACTVS_TAUTO_COUNT>  (1) 
2

>  <PUBCHEM_CONFORMER_ID>  (1) 
0000458900000001

>  <PUBCHEM_MMFF94_ENERGY>  (1) 
57.3474

>  <PUBCHEM_FEATURE_SELFOVERLAP>  (1) 
30.522

>  <PUBCHEM_SHAPE_FINGERPRINT>  (1) 
10062212 137 18343295968502538871
10616163 171 18340771532502013887
10967382 1 18338235960093440322
1100329 8 16753249008936465192
11132069 177 18410289177290830792
11471102 20 18409727365841203652
11578080 2 16914522526940957891
11806522 49 18408602599563133998
12107183 9 17762055436962526746
12403259 226 18340199795388376705
13140716 1 18411699846430176584
13221675 6 18408602569456197354
13288520 33 18412829049710110646
13583140 156 15051719868190980958
13675066 3 18059851770613595874
13862211 1 18409725128131925130
14866123 147 16975907849050659770
15196674 1 18410573998046909028
15375462 189 17968654909136215082
15442244 35 18410856546775999712
15536298 74 18341893004571393568
16945 1 18193843866712159352
17492 89 18412263964752625279
17804303 29 18412547621429556837
1813 80 17240485793026965700
18186145 218 17967525774828919199
18522853 276 18413106160520085032
19141452 34 18411702063086871277
19591789 44 18409728443598803266
200 152 18131626799090756133
20510252 161 18272371957814784297
21029758 11 18341889697204170977
21267235 1 18410582789866387746
21421861 104 17752482049734327106
21501502 16 18410298037913967877
221490 88 18263650717424387091
23402539 116 18342731910136182590
23463225 33 18409167701369082108
23559900 14 18342451573721846952
2748010 2 18410291384930303852
3004659 81 18260834748936685870
335352 9 18338517426570050013
34934 24 18411412943284567034
350125 39 18410859863139988521
3545911 37 18411700971922584877
4214541 1 18411136918083427713
474 4 17313954172432210556
5104073 3 18411418423008729440
633830 44 17022907843368628493
69090 78 18413105056639578447
7364860 26 18269272542401064624
77779 3 18411420609120669408
8809292 202 18333454261275807219
9709674 26 18411143562366601950
9981440 41 17399233543601594352

>  <PUBCHEM_SHAPE_MULTIPOLES>  (1) 
380.16
9.11
2.25
0.63
0.62
0.09
0.01
-1.06
0.09
-0.46
0.01
-0.04
0.04
-0.26

>  <PUBCHEM_SHAPE_SELFOVERLAP>  (1) 
864.823

>  <PUBCHEM_SHAPE_VOLUME>  (1) 
196.6

>  <PUBCHEM_COORDINATE_TYPE>  (1) 
2
5
10

$$$$
