1780
     RDKit          3D

 22 21  0  0  0  0  0  0  0  0999 V2000
   -6.4669   -0.0293   -1.2351 O   0  0  0  0  0  0  0  0  0  0  0  0
   -5.7532    0.9367    0.6912 O   0  0  0  0  0  0  0  0  0  0  0  0
   -0.9730   -3.4738    0.7977 C   0  0  0  0  0  0  0  0  0  0  0  0
    0.2945   -2.7513    0.3274 C   0  0  0  0  0  0  0  0  0  0  0  0
   -2.0737   -2.4770    1.1584 C   0  0  0  0  0  0  0  0  0  0  0  0
    1.4356   -3.7110   -0.0156 C   0  0  0  0  0  0  0  0  0  0  0  0
   -3.3250   -3.1806    1.6579 C   0  0  0  0  0  0  0  0  0  0  0  0
   -3.1635    1.4904   -0.3823 C   0  0  0  0  0  0  0  0  0  0  0  0
   -4.2355    0.7803   -1.2093 C   0  0  0  0  0  0  0  0  0  0  0  0
    2.6477   -3.0012   -0.4456 C   0  0  0  0  0  0  0  0  0  0  0  0
   -1.8532    1.6700   -1.1534 C   0  0  0  0  0  0  0  0  0  0  0  0
   -5.5345    0.5834   -0.4591 C   0  0  0  0  0  0  0  0  0  0  0  0
    3.6355   -2.4062   -0.7812 C   0  0  0  0  0  0  0  0  0  0  0  0
   -0.8448    2.3491   -0.3279 C   0  0  0  0  0  0  0  0  0  0  0  0
    4.8360   -1.6587   -1.1743 C   0  0  0  0  0  0  0  0  0  0  0  0
   -0.0122    2.8856    0.3513 C   0  0  0  0  0  0  0  0  0  0  0  0
    1.0098    3.5287    1.1858 C   0  0  0  0  0  0  0  0  0  0  0  0
    4.8492   -0.2890   -0.6456 C   0  0  0  0  0  0  0  0  0  0  0  0
    4.8323    2.1938    0.3345 C   0  0  0  0  0  0  0  0  0  0  0  0
    2.3688    3.0591    0.8896 C   0  0  0  0  0  0  0  0  0  0  0  0
    4.8472    0.8293   -0.2068 C   0  0  0  0  0  0  0  0  0  0  0  0
    3.4788    2.6718    0.6425 C   0  0  0  0  0  0  0  0  0  0  0  0
  1 12  1  0
  2 12  2  0
  3  4  1  0
  3  5  1  0
  4  6  1  0
  5  7  1  0
  6 10  1  0
  8  9  1  0
  8 11  1  0
  9 12  1  0
 10 13  3  0
 11 14  1  0
 13 15  1  0
 14 16  3  0
 15 18  1  0
 16 17  1  0
 17 20  1  0
 18 21  3  0
 19 21  1  0
 19 22  1  0
 20 22  3  0
M  END
>  <PUBCHEM_COMPOUND_CID>  (1) 
1780

>  <PUBCHEM_CONFORMER_RMSD>  (1) 
0.8

>  <PUBCHEM_CONFORMER_DIVERSEORDER>  (1) 
1
41
36
10
12
22
39
31
37
15
5
42
24
33
20
35
28
17
30
3
29
38
19
43
11
4
18
27
34
26
16
2
32
23
40
14
9
7
13
6
8
21
25

>  <PUBCHEM_MMFF94_PARTIAL_CHARGES>  (1) 
18
1 -0.65
10 -0.2
11 0.2
12 0.66
13 -0.2
14 -0.2
15 0.4
16 -0.2
17 0.4
18 -0.2
19 0.4
2 -0.57
20 -0.2
21 -0.2
22 -0.2
42 0.5
6 0.2
9 0.06

>  <PUBCHEM_EFFECTIVE_ROTOR_COUNT>  (1) 
6

>  <PUBCHEM_PHARMACOPHORE_FEATURES>  (1) 
6
1 1 acceptor
1 2 acceptor
1 7 hydrophobe
3 1 2 12 anion
4 8 9 11 14 hydrophobe
5 3 4 5 6 10 hydrophobe

>  <PUBCHEM_HEAVY_ATOM_COUNT>  (1) 
22

>  <PUBCHEM_ATOM_DEF_STEREO_COUNT>  (1) 
0

>  <PUBCHEM_ATOM_UDEF_STEREO_COUNT>  (1) 
0

>  <PUBCHEM_BOND_DEF_STEREO_COUNT>  (1) 
0

>  <PUBCHEM_BOND_UDEF_STEREO_COUNT>  (1) 
0

>  <PUBCHEM_ISOTOPIC_ATOM_COUNT>  (1) 
0

>  <PUBCHEM_COMPONENT_COUNT>  (1) 
1

>  <PUBCHEM_CACTVS_TAUTO_COUNT>  (1) 
1

>  <PUBCHEM_CONFORMER_ID>  (1) 
000006F400000001

>  <PUBCHEM_MMFF94_ENERGY>  (1) 
0.0401

>  <PUBCHEM_FEATURE_SELFOVERLAP>  (1) 
30.505

>  <PUBCHEM_SHAPE_FINGERPRINT>  (1) 
10049733 57 18264216966567352507
10316853 100 18408323310677310823
11014199 57 17259339973670632006
13402501 40 18409167735586278686
14428016 6 18412536618176979751
14931854 50 18267029362792023356
15110567 62 18412823560610310428
437795 51 18408322173165040351
437795 96 18192998333770701371
5047190 48 17329712535984499280
532947 4 18410288117077356993
6422251 121 18340200770219164149

>  <PUBCHEM_SHAPE_MULTIPOLES>  (1) 
441.01
13.06
6.31
1.31
9.55
2.61
0.09
-2.31
-3.74
-2.93
2.21
0.79
0.21
3.57

>  <PUBCHEM_SHAPE_SELFOVERLAP>  (1) 
836.986

>  <PUBCHEM_SHAPE_VOLUME>  (1) 
263.6

>  <PUBCHEM_COORDINATE_TYPE>  (1) 
2
5
10

$$$$
