1781
     RDKit          3D

 22 21  0  0  0  0  0  0  0  0999 V2000
   -0.9306   -1.6708   -3.5135 O   0  0  0  0  0  0  0  0  0  0  0  0
    1.3212   -1.4061   -3.3205 O   0  0  0  0  0  0  0  0  0  0  0  0
    1.4727    1.4864   -1.1864 C   0  0  0  0  0  0  0  0  0  0  0  0
    1.8835    1.8413    0.2458 C   0  0  0  0  0  0  0  0  0  0  0  0
   -0.0352    1.6119   -1.4218 C   0  0  0  0  0  0  0  0  0  0  0  0
    3.3839    1.6247    0.4586 C   0  0  0  0  0  0  0  0  0  0  0  0
   -0.5525    3.0460   -1.2549 C   0  0  0  0  0  0  0  0  0  0  0  0
    3.8542    1.9840    1.8696 C   0  0  0  0  0  0  0  0  0  0  0  0
   -2.0626    3.1559   -1.4854 C   0  0  0  0  0  0  0  0  0  0  0  0
    5.3554    1.8369    2.0652 C   0  0  0  0  0  0  0  0  0  0  0  0
   -2.8124    2.3140   -0.5431 C   0  0  0  0  0  0  0  0  0  0  0  0
    1.3831   -2.7401   -0.8215 C   0  0  0  0  0  0  0  0  0  0  0  0
    0.0597   -2.5258   -1.5601 C   0  0  0  0  0  0  0  0  0  0  0  0
   -3.3796    1.6105    0.2480 C   0  0  0  0  0  0  0  0  0  0  0  0
    1.2230   -3.5374    0.4737 C   0  0  0  0  0  0  0  0  0  0  0  0
   -4.0174    0.7305    1.2344 C   0  0  0  0  0  0  0  0  0  0  0  0
    0.2577   -1.8051   -2.8705 C   0  0  0  0  0  0  0  0  0  0  0  0
    0.3808   -2.8438    1.4570 C   0  0  0  0  0  0  0  0  0  0  0  0
   -3.0418   -0.0957    1.9568 C   0  0  0  0  0  0  0  0  0  0  0  0
   -1.1987   -1.5767    3.1954 C   0  0  0  0  0  0  0  0  0  0  0  0
   -0.3230   -2.2769    2.2480 C   0  0  0  0  0  0  0  0  0  0  0  0
   -2.2213   -0.7639    2.5253 C   0  0  0  0  0  0  0  0  0  0  0  0
  1 17  1  0
  2 17  2  0
  3  4  1  0
  3  5  1  0
  4  6  1  0
  5  7  1  0
  6  8  1  0
  7  9  1  0
  8 10  1  0
  9 11  1  0
 11 14  3  0
 12 13  1  0
 12 15  1  0
 13 17  1  0
 14 16  1  0
 15 18  1  0
 16 19  1  0
 18 21  3  0
 19 22  3  0
 20 21  1  0
 20 22  1  0
M  END
>  <PUBCHEM_COMPOUND_CID>  (1) 
1781

>  <PUBCHEM_CONFORMER_RMSD>  (1) 
0.8

>  <PUBCHEM_CONFORMER_DIVERSEORDER>  (1) 
1
371
298
442
283
49
420
227
110
143
67
348
153
335
44
395
429
174
441
15
282
440
98
11
444
106
232
53
302
244
388
266
270
115
326
372
247
150
193
75
3
428
258
260
136
349
448
204
23
426
86
234
367
405
255
162
114
391
438
212
297
5
427
358
248
39
399
334
131
290
245
31
366
392
447
117
72
211
287
265
35
249
329
37
16
364
446
201
17
186
416
435
178
259
7
203
374
18
105
65
345
51
423
26
306
74
353
407
397
376
413
396
158
316
48
148
84
29
377
69
254
439
294
437
50
58
414
443
54
279
229
272
398
2
225
394
88
228
12
402
314
222
73
432
223
63
230
154
400
305
337
285
339
129
379
252
207
322
403
242
139
412
331
431
134
57
135
120
276
251
351
10
303
128
101
363
309
210
292
434
280
267
409
209
9
112
93
344
318
338
300
307
333
387
332
246
382
368
161
319
80
311
380
132
202
71
321
56
393
340
62
55
220
198
422
152
342
419
320
330
175
264
208
274
370
8
357
433
328
197
215
238
30
121
384
107
103
336
289
180
166
383
216
346
109
424
219
271
116
4
312
137
113
214
32
237
13
241
436
373
126
445
181
355
415
20
171
85
14
196
381
145
52
97
77
390
421
155
27
33
124
360
304
130
378
262
81
315
361
277
327
100
6
187
118
359
142
182
179
190
354
347
408
22
170
401
250
133
224
324
341
286
365
350
156
157
325
263
43
25
159
141
404
138
59
160
38
188
146
430
99
122
149
291
261
385
89
127
356
226
76
42
425
41
386
87
310
313
96
362
172
111
176
168
323
46
293
206
308
140
61
213
60
125
169
243
275
281
28
389
91
417
268
24
257
194
183
90
239
410
278
369
273
66
68
288
299
40
21
192
34
231
104
94
296
144
151
343
147
406
164
205
79
70
95
177
295
195
165
47
218
83
253
200
123
189
82
236
221
235
102
418
191
119
173
45
352
411
19
301
92
233
64
36
256
108
185
78
240
217
375
317
167
284
184
269
163
199

>  <PUBCHEM_MMFF94_PARTIAL_CHARGES>  (1) 
15
1 -0.65
11 -0.2
13 0.06
14 -0.2
15 0.2
16 0.4
17 0.66
18 -0.2
19 -0.2
2 -0.57
20 0.4
21 -0.2
22 -0.2
50 0.5
9 0.2

>  <PUBCHEM_EFFECTIVE_ROTOR_COUNT>  (1) 
9

>  <PUBCHEM_PHARMACOPHORE_FEATURES>  (1) 
5
1 1 acceptor
1 10 hydrophobe
1 2 acceptor
3 1 2 17 anion
4 12 13 15 18 hydrophobe

>  <PUBCHEM_HEAVY_ATOM_COUNT>  (1) 
22

>  <PUBCHEM_ATOM_DEF_STEREO_COUNT>  (1) 
0

>  <PUBCHEM_ATOM_UDEF_STEREO_COUNT>  (1) 
0

>  <PUBCHEM_BOND_DEF_STEREO_COUNT>  (1) 
0

>  <PUBCHEM_BOND_UDEF_STEREO_COUNT>  (1) 
0

>  <PUBCHEM_ISOTOPIC_ATOM_COUNT>  (1) 
0

>  <PUBCHEM_COMPONENT_COUNT>  (1) 
1

>  <PUBCHEM_CACTVS_TAUTO_COUNT>  (1) 
1

>  <PUBCHEM_CONFORMER_ID>  (1) 
000006F500000001

>  <PUBCHEM_MMFF94_ENERGY>  (1) 
-0.2818

>  <PUBCHEM_FEATURE_SELFOVERLAP>  (1) 
25.429

>  <PUBCHEM_SHAPE_FINGERPRINT>  (1) 
11244481 83 17905596710144347289
11427363 43 17262695081561950318
12655364 131 15553904209031235012
12717326 25 18131062754691048504
13615921 28 15592404406413139234
14114207 22 15577205045628615561
19777482 4 17332231503890107633
20397935 3 17535782627114777151
20531524 4 17896338933807247153
23419403 2 18196950876477481600
238918 7 18334573525684810432
484985 159 17680114625593559082
81228 2 17838311318994630500

>  <PUBCHEM_SHAPE_MULTIPOLES>  (1) 
441.01
6.3
5.07
3.99
4.43
1.22
2.24
-6.11
-6.46
0.35
0.61
0.36
2.67
2.81

>  <PUBCHEM_SHAPE_SELFOVERLAP>  (1) 
831.391

>  <PUBCHEM_SHAPE_VOLUME>  (1) 
266.1

>  <PUBCHEM_COORDINATE_TYPE>  (1) 
2
5
10

$$$$
