17818
     RDKit          3D

  9  9  0  0  0  0  0  0  0  0999 V2000
   -1.6200    1.8359    0.0002 O   0  0  0  0  0  0  0  0  0  0  0  0
    2.9561    0.3581   -0.0007 N   0  0  0  0  0  0  0  0  0  0  0  0
   -1.1523   -0.5150    0.0005 C   0  0  0  0  0  0  0  0  0  0  0  0
   -0.7213    0.8117    0.0003 C   0  0  0  0  0  0  0  0  0  0  0  0
   -0.2190   -1.5516    0.0006 C   0  0  0  0  0  0  0  0  0  0  0  0
    1.5765    0.0650    0.0000 C   0  0  0  0  0  0  0  0  0  0  0  0
    0.6432    1.1017    0.0000 C   0  0  0  0  0  0  0  0  0  0  0  0
    1.1453   -1.2616    0.0003 C   0  0  0  0  0  0  0  0  0  0  0  0
   -2.6085   -0.8440   -0.0012 C   0  0  0  0  0  0  0  0  0  0  0  0
  1  4  1  0
  2  6  1  0
  3  4  2  0
  3  5  1  0
  3  9  1  0
  4  7  1  0
  5  8  2  0
  6  7  2  0
  6  8  1  0
M  END
>  <PUBCHEM_COMPOUND_CID>  (1) 
17818

>  <PUBCHEM_CONFORMER_RMSD>  (1) 
0.4

>  <PUBCHEM_CONFORMER_DIVERSEORDER>  (1) 
1

>  <PUBCHEM_MMFF94_PARTIAL_CHARGES>  (1) 
15
1 -0.53
10 0.15
11 0.15
12 0.15
16 0.4
17 0.4
18 0.45
2 -0.9
3 -0.14
4 0.08
5 -0.15
6 0.1
7 -0.15
8 -0.15
9 0.14

>  <PUBCHEM_EFFECTIVE_ROTOR_COUNT>  (1) 
0

>  <PUBCHEM_PHARMACOPHORE_FEATURES>  (1) 
4
1 1 donor
1 2 cation
1 2 donor
6 3 4 5 6 7 8 rings

>  <PUBCHEM_HEAVY_ATOM_COUNT>  (1) 
9

>  <PUBCHEM_ATOM_DEF_STEREO_COUNT>  (1) 
0

>  <PUBCHEM_ATOM_UDEF_STEREO_COUNT>  (1) 
0

>  <PUBCHEM_BOND_DEF_STEREO_COUNT>  (1) 
0

>  <PUBCHEM_BOND_UDEF_STEREO_COUNT>  (1) 
0

>  <PUBCHEM_ISOTOPIC_ATOM_COUNT>  (1) 
0

>  <PUBCHEM_COMPONENT_COUNT>  (1) 
1

>  <PUBCHEM_CACTVS_TAUTO_COUNT>  (1) 
9

>  <PUBCHEM_CONFORMER_ID>  (1) 
0000459A00000001

>  <PUBCHEM_MMFF94_ENERGY>  (1) 
32.4391

>  <PUBCHEM_FEATURE_SELFOVERLAP>  (1) 
20.297

>  <PUBCHEM_SHAPE_FINGERPRINT>  (1) 
12423570 1 11399413708643403648
16714656 1 18339645649843157326
16945 1 18410856606937339750
18185500 45 18195243553556864535
193761 8 18122624942337747655
21040471 1 18122624959496413892
23402655 69 18268128909048835725
23552423 10 18189340078254174262
2748010 2 18267023860205842830
29004967 10 18335144244981095987
5084963 1 18202005451388745858

>  <PUBCHEM_SHAPE_MULTIPOLES>  (1) 
174.37
3.13
1.69
0.6
0.49
0.21
0
-0.06
0
-0.45
0
-0.01
-0.02
0

>  <PUBCHEM_SHAPE_SELFOVERLAP>  (1) 
362.445

>  <PUBCHEM_SHAPE_VOLUME>  (1) 
100.9

>  <PUBCHEM_COORDINATE_TYPE>  (1) 
2
5
10

$$$$
