17816
     RDKit          3D

 10  9  0  0  0  0  0  0  0  0999 V2000
    0.7011   -0.2071   -0.5168 O   0  0  0  0  0  0  0  0  0  0  0  0
   -0.4891   -1.8619    0.5624 O   0  0  0  0  0  0  0  0  0  0  0  0
   -2.3963    0.6934   -0.2671 C   0  0  0  0  0  0  0  0  0  0  0  0
   -1.5845   -0.3724   -1.0194 C   0  0  0  0  0  0  0  0  0  0  0  0
   -2.9568    0.1454    1.0477 C   0  0  0  0  0  0  0  0  0  0  0  0
   -1.5216    1.9167    0.0138 C   0  0  0  0  0  0  0  0  0  0  0  0
   -0.4255   -0.9172   -0.2124 C   0  0  0  0  0  0  0  0  0  0  0  0
    1.8958   -0.6321    0.1468 C   0  0  0  0  0  0  0  0  0  0  0  0
    3.0248    0.2399   -0.2926 C   0  0  0  0  0  0  0  0  0  0  0  0
    3.7521    0.9955    0.5376 C   0  0  0  0  0  0  0  0  0  0  0  0
  1  7  1  0
  1  8  1  0
  2  7  2  0
  3  4  1  0
  3  5  1  0
  3  6  1  0
  4  7  1  0
  8  9  1  0
  9 10  2  0
M  END
>  <PUBCHEM_COMPOUND_CID>  (1) 
17816

>  <PUBCHEM_CONFORMER_RMSD>  (1) 
0.6

>  <PUBCHEM_CONFORMER_DIVERSEORDER>  (1) 
1
32
6
22
24
29
31
7
35
8
34
28
19
23
16
17
37
5
26
38
18
9
21
30
4
36
15
27
14
10
2
12
33
20
3
25
11
13

>  <PUBCHEM_MMFF94_PARTIAL_CHARGES>  (1) 
10
1 -0.43
10 -0.3
2 -0.57
22 0.15
23 0.15
24 0.15
4 0.06
7 0.66
8 0.42
9 -0.29

>  <PUBCHEM_EFFECTIVE_ROTOR_COUNT>  (1) 
5

>  <PUBCHEM_PHARMACOPHORE_FEATURES>  (1) 
3
1 10 hydrophobe
1 2 acceptor
3 3 5 6 hydrophobe

>  <PUBCHEM_HEAVY_ATOM_COUNT>  (1) 
10

>  <PUBCHEM_ATOM_DEF_STEREO_COUNT>  (1) 
0

>  <PUBCHEM_ATOM_UDEF_STEREO_COUNT>  (1) 
0

>  <PUBCHEM_BOND_DEF_STEREO_COUNT>  (1) 
0

>  <PUBCHEM_BOND_UDEF_STEREO_COUNT>  (1) 
0

>  <PUBCHEM_ISOTOPIC_ATOM_COUNT>  (1) 
0

>  <PUBCHEM_COMPONENT_COUNT>  (1) 
1

>  <PUBCHEM_CACTVS_TAUTO_COUNT>  (1) 
1

>  <PUBCHEM_CONFORMER_ID>  (1) 
0000459800000001

>  <PUBCHEM_MMFF94_ENERGY>  (1) 
8.3176

>  <PUBCHEM_FEATURE_SELFOVERLAP>  (1) 
15.223

>  <PUBCHEM_SHAPE_FINGERPRINT>  (1) 
10857977 72 17603879883475108919
11127187 94 11024105451804018721
12897270 3 11095884860852057852
12932764 1 18201999911076171318
13549 16 9943528453993464833
14325111 11 18409729517408796350
14390081 3 18343578547290989396
15775835 57 18273214166515456449
18619055 16 10087627200502059722
20211469 26 12251899313000302376
20281407 28 8214141863281954772
20645464 45 18409731759556084078
20653085 51 17703520895385367358
20711983 138 10953747698431678533
20828058 19 12179851618904176713
21028194 46 18339929220821839846
23500284 214 18271811254424547408
305870 269 18189327966456728258

>  <PUBCHEM_SHAPE_MULTIPOLES>  (1) 
194.06
5.56
1.56
0.92
4.34
0.18
0.04
2.13
0.99
-0.37
0.16
-0.41
-0.06
0.13

>  <PUBCHEM_SHAPE_SELFOVERLAP>  (1) 
358.609

>  <PUBCHEM_SHAPE_VOLUME>  (1) 
122.7

>  <PUBCHEM_COORDINATE_TYPE>  (1) 
2
5
10

$$$$
