17823
     RDKit          3D

 12 12  0  0  0  0  0  0  0  0999 V2000
    2.8952   -0.4535    0.3569 O   0  0  0  0  0  0  0  0  0  0  0  0
   -3.3014   -1.1403   -0.0897 O   0  0  0  0  0  0  0  0  0  0  0  0
   -3.2863    1.1293   -0.2123 O   0  0  0  0  0  0  0  0  0  0  0  0
    1.7670    2.1140    0.1272 N   0  0  0  0  0  0  0  0  0  0  0  0
    0.9643    0.9524    0.1283 C   0  0  0  0  0  0  0  0  0  0  0  0
    1.5445   -0.3110    0.2436 C   0  0  0  0  0  0  0  0  0  0  0  0
   -1.2249   -0.0636    0.0154 C   0  0  0  0  0  0  0  0  0  0  0  0
   -0.4204    1.0760    0.0142 C   0  0  0  0  0  0  0  0  0  0  0  0
    0.7398   -1.4504    0.2448 C   0  0  0  0  0  0  0  0  0  0  0  0
   -0.6448   -1.3268    0.1306 C   0  0  0  0  0  0  0  0  0  0  0  0
   -2.6686    0.0648   -0.1051 C   0  0  0  0  0  0  0  0  0  0  0  0
    3.6356   -0.5911   -0.8539 C   0  0  0  0  0  0  0  0  0  0  0  0
  1  6  1  0
  1 12  1  0
  2 11  1  0
  3 11  2  0
  4  5  1  0
  5  6  2  0
  5  8  1  0
  6  9  1  0
  7  8  2  0
  7 10  1  0
  7 11  1  0
  9 10  2  0
M  END
>  <PUBCHEM_COMPOUND_CID>  (1) 
17823

>  <PUBCHEM_CONFORMER_RMSD>  (1) 
0.6

>  <PUBCHEM_CONFORMER_DIVERSEORDER>  (1) 
1
4
3
2

>  <PUBCHEM_MMFF94_PARTIAL_CHARGES>  (1) 
18
1 -0.36
10 -0.15
11 0.63
12 0.28
13 0.15
14 0.15
15 0.15
16 0.4
17 0.4
2 -0.65
21 0.5
3 -0.57
4 -0.9
5 0.1
6 0.08
7 0.09
8 -0.15
9 -0.15

>  <PUBCHEM_EFFECTIVE_ROTOR_COUNT>  (1) 
2

>  <PUBCHEM_PHARMACOPHORE_FEATURES>  (1) 
7
1 1 acceptor
1 2 acceptor
1 3 acceptor
1 4 cation
1 4 donor
3 2 3 11 anion
6 5 6 7 8 9 10 rings

>  <PUBCHEM_HEAVY_ATOM_COUNT>  (1) 
12

>  <PUBCHEM_ATOM_DEF_STEREO_COUNT>  (1) 
0

>  <PUBCHEM_ATOM_UDEF_STEREO_COUNT>  (1) 
0

>  <PUBCHEM_BOND_DEF_STEREO_COUNT>  (1) 
0

>  <PUBCHEM_BOND_UDEF_STEREO_COUNT>  (1) 
0

>  <PUBCHEM_ISOTOPIC_ATOM_COUNT>  (1) 
0

>  <PUBCHEM_COMPONENT_COUNT>  (1) 
1

>  <PUBCHEM_CACTVS_TAUTO_COUNT>  (1) 
1

>  <PUBCHEM_CONFORMER_ID>  (1) 
0000459F00000001

>  <PUBCHEM_MMFF94_ENERGY>  (1) 
54.0279

>  <PUBCHEM_FEATURE_SELFOVERLAP>  (1) 
35.578

>  <PUBCHEM_SHAPE_FINGERPRINT>  (1) 
10465860 71 18270138850152211692
11206711 2 18335135341345119021
12032990 46 18412269440682329610
12932764 1 17676758817020365513
13380535 21 18048610496864741656
13380535 76 18050278464810381312
14325111 11 18410290354375646409
14911166 2 18410576162831849726
14993402 34 18411700963242947214
16945 1 18409441458147065619
18186145 218 18411134736176809333
193761 8 17833550472089620658
20201158 50 18411417276300160631
20645476 183 17749687258823013494
21040471 1 18193272116291614361
21293036 1 18335989718115246286
23402539 116 18342167826981600486
23402655 69 18194946462981354125
23463225 33 18190737531895188226
23552423 10 18262233434077674995
23559900 14 18412548696321309494
2748010 2 18192711361050559546
5084963 1 18273213122933134787
528886 8 18338509755605400379
53812653 166 18411410683572645904
63268167 104 18337391517930691979
7364860 26 18128818732214108568

>  <PUBCHEM_SHAPE_MULTIPOLES>  (1) 
224.37
5.18
1.66
0.68
0.47
0.41
0.04
-0.45
1
-0.17
-0.08
-0.26
-0.05
0.17

>  <PUBCHEM_SHAPE_SELFOVERLAP>  (1) 
469.972

>  <PUBCHEM_SHAPE_VOLUME>  (1) 
127.6

>  <PUBCHEM_COORDINATE_TYPE>  (1) 
2
5
10

$$$$
