17836
     RDKit          3D

 24 26  0  0  1  0  0  0  0  0999 V2000
   -3.6884    2.7636    2.0925 Cl  0  0  0  0  0  0  0  0  0  0  0  0
   -1.1526   -1.1997   -2.7709 Cl  0  0  0  0  0  0  0  0  0  0  0  0
    3.4738   -0.1535    0.1395 O   0  0  0  0  0  0  0  0  0  0  0  0
    2.9660    1.0317   -2.1486 O   0  0  0  0  0  0  0  0  0  0  0  0
    2.9199   -1.1552    2.1462 O   0  0  0  0  0  0  0  0  0  0  0  0
    1.0210    1.9895   -1.4317 N   0  0  0  0  0  0  0  0  0  0  0  0
    1.1215   -0.6974   -0.0719 N   0  0  0  0  0  0  0  0  0  0  0  0
   -0.6276    1.0266    0.1645 C   0  0  0  0  0  0  0  0  0  0  0  0
   -0.1219   -0.3712    0.0211 C   0  0  0  0  0  0  0  0  0  0  0  0
   -0.1170    2.0842   -0.6047 C   0  0  0  0  0  0  0  0  0  0  0  0
    2.1407    0.3341    0.0051 C   0  0  0  0  0  0  0  0  0  0  0  0
   -1.1105   -1.4851   -0.0574 C   0  0  0  0  0  0  0  0  0  0  0  0
    2.0786    1.1135   -1.2973 C   0  0  0  0  0  0  0  0  0  0  0  0
   -1.7228    1.2523    1.0144 C   0  0  0  0  0  0  0  0  0  0  0  0
   -0.7784    3.3212   -0.5894 C   0  0  0  0  0  0  0  0  0  0  0  0
   -2.3397    2.5020    1.0560 C   0  0  0  0  0  0  0  0  0  0  0  0
   -1.8788    3.5310    0.2417 C   0  0  0  0  0  0  0  0  0  0  0  0
   -1.6246   -1.9207   -1.2741 C   0  0  0  0  0  0  0  0  0  0  0  0
   -1.5086   -2.0836    1.1337 C   0  0  0  0  0  0  0  0  0  0  0  0
   -2.5477   -2.9662   -1.3003 C   0  0  0  0  0  0  0  0  0  0  0  0
   -2.4316   -3.1292    1.1074 C   0  0  0  0  0  0  0  0  0  0  0  0
   -2.9511   -3.5704   -0.1096 C   0  0  0  0  0  0  0  0  0  0  0  0
    3.7242   -0.8869    1.2639 C   0  0  0  0  0  0  0  0  0  0  0  0
    5.1557   -1.3306    1.2702 C   0  0  0  0  0  0  0  0  0  0  0  0
  1 16  1  0
  2 18  1  0
  3 11  1  0
  3 23  1  0
  4 13  2  0
  5 23  2  0
  6 10  1  0
  6 13  1  0
  7  9  2  0
  7 11  1  0
  8  9  1  0
  8 10  2  0
  8 14  1  0
  9 12  1  0
 10 15  1  0
 11 13  1  0
 12 18  2  0
 12 19  1  0
 14 16  2  0
 15 17  2  0
 16 17  1  0
 18 20  1  0
 19 21  2  0
 20 22  2  0
 21 22  1  0
 23 24  1  0
M  END
>  <PUBCHEM_COMPOUND_CID>  (1) 
17836

>  <PUBCHEM_CONFORMER_RMSD>  (1) 
0.6

>  <PUBCHEM_CONFORMER_DIVERSEORDER>  (1) 
1
31
22
11
38
29
7
24
30
8
2
36
37
3
27
40
33
23
34
21
26
25
16
32
15
19
12
13
35
28
14
39
5
4
10
20
9
6
17
18

>  <PUBCHEM_MMFF94_PARTIAL_CHARGES>  (1) 
32
1 -0.18
10 0.12
11 0.59
12 0.09
13 0.57
14 -0.15
15 -0.15
16 0.18
17 -0.15
18 0.18
19 -0.15
2 -0.18
20 -0.15
21 -0.15
22 -0.15
23 0.66
24 0.06
26 0.37
27 0.15
28 0.15
29 0.15
3 -0.43
30 0.15
31 0.15
32 0.15
33 0.15
4 -0.57
5 -0.57
6 -0.55
7 -0.7
8 0.09
9 0.28

>  <PUBCHEM_EFFECTIVE_ROTOR_COUNT>  (1) 
3.4

>  <PUBCHEM_PHARMACOPHORE_FEATURES>  (1) 
7
1 4 acceptor
1 5 acceptor
1 6 donor
1 7 acceptor
6 12 18 19 20 21 22 rings
6 8 10 14 15 16 17 rings
7 6 7 8 9 10 11 13 rings

>  <PUBCHEM_HEAVY_ATOM_COUNT>  (1) 
24

>  <PUBCHEM_ATOM_DEF_STEREO_COUNT>  (1) 
0

>  <PUBCHEM_ATOM_UDEF_STEREO_COUNT>  (1) 
1

>  <PUBCHEM_BOND_DEF_STEREO_COUNT>  (1) 
0

>  <PUBCHEM_BOND_UDEF_STEREO_COUNT>  (1) 
0

>  <PUBCHEM_ISOTOPIC_ATOM_COUNT>  (1) 
0

>  <PUBCHEM_COMPONENT_COUNT>  (1) 
1

>  <PUBCHEM_CACTVS_TAUTO_COUNT>  (1) 
3

>  <PUBCHEM_CONFORMER_ID>  (1) 
000045AC00000001

>  <PUBCHEM_MMFF94_ENERGY>  (1) 
82.475

>  <PUBCHEM_FEATURE_SELFOVERLAP>  (1) 
35.535

>  <PUBCHEM_SHAPE_FINGERPRINT>  (1) 
10764073 3 15942597841852240981
11578080 2 17417546752044382136
12160290 23 18272378550842771429
12293681 160 17113000997267885605
12553582 1 18051707821057454734
12788726 201 18267881629889461851
12839892 36 18193005811772805689
13004483 165 18197760284212545986
13134695 92 17837187626500212463
13140716 1 18338514247956497817
13583140 156 16971404816707820511
13681431 1 17763160832848446131
14178342 30 18337384951348391074
14863182 85 17834993822200007153
14866123 147 18120361069645937138
1813 80 17842010071551458486
21033648 29 17908403776832757592
21731228 192 18052819148071242345
22112679 90 18336836376227899016
229495 10 17023201447433359997
22956985 138 17398406226063941267
23419403 2 17551462972718210885
23598288 3 18338530719203712959
23728640 28 18337105644807367018
25 1 16396356979515557269
25147074 1 18260559947890571972
266924 1 18116164422919923484
266924 78 16444778118471479292
59554788 248 17900271809854810141
6438718 38 18272931600585222182
7471813 234 18124020497487295678
81228 2 18340470214733625867

>  <PUBCHEM_SHAPE_MULTIPOLES>  (1) 
470.08
6.21
4.87
2.13
8.28
0.04
-0.59
-1.46
3.6
-6.68
0.25
0.23
-0.25
-2.52

>  <PUBCHEM_SHAPE_SELFOVERLAP>  (1) 
1006.917

>  <PUBCHEM_SHAPE_VOLUME>  (1) 
258.8

>  <PUBCHEM_COORDINATE_TYPE>  (1) 
2
5
10

$$$$
