1783
     RDKit          3D

 29 31  0  0  0  0  0  0  0  0999 V2000
    6.5600   -0.9363   -0.6930 Cl  0  0  0  0  0  0  0  0  0  0  0  0
    3.8277    1.7411    3.1137 Cl  0  0  0  0  0  0  0  0  0  0  0  0
    1.2360   -1.8888   -0.0188 S   0  0  0  0  0  0  0  0  0  0  0  0
   -2.4180    2.9674    0.1087 O   0  0  0  0  0  0  0  0  0  0  0  0
   -4.6072    3.2736    0.7515 O   0  0  0  0  0  0  0  0  0  0  0  0
   -0.8924   -0.2035    0.1649 N   0  0  0  0  0  0  0  0  0  0  0  0
   -0.5822    1.3655   -1.3760 N   0  0  0  0  0  0  0  0  0  0  0  0
   -4.2083   -3.9232   -0.2396 N   0  0  0  0  0  0  0  0  0  0  0  0
   -3.1562    5.0469    0.5599 N   0  0  0  0  0  0  0  0  0  0  0  0
    1.5541    0.6389   -2.3670 C   0  0  0  0  0  0  0  0  0  0  0  0
    0.4543    0.4664   -1.4030 C   0  0  0  0  0  0  0  0  0  0  0  0
    0.2601   -0.4809   -0.4669 C   0  0  0  0  0  0  0  0  0  0  0  0
   -1.3759    0.9332   -0.4214 C   0  0  0  0  0  0  0  0  0  0  0  0
   -1.5300   -0.9245    1.2457 C   0  0  0  0  0  0  0  0  0  0  0  0
    1.1027    0.5454   -3.8443 C   0  0  0  0  0  0  0  0  0  0  0  0
    2.3539    1.9479   -2.1649 C   0  0  0  0  0  0  0  0  0  0  0  0
   -2.6430    1.5625    0.0044 C   0  0  0  0  0  0  0  0  0  0  0  0
   -2.4702   -1.9773    0.7241 C   0  0  0  0  0  0  0  0  0  0  0  0
    2.7257   -1.0266    0.4441 C   0  0  0  0  0  0  0  0  0  0  0  0
   -1.9999   -3.2558    0.4830 C   0  0  0  0  0  0  0  0  0  0  0  0
   -3.7956   -1.6559    0.4914 C   0  0  0  0  0  0  0  0  0  0  0  0
    2.6970   -0.0900    1.4773 C   0  0  0  0  0  0  0  0  0  0  0  0
    3.9202   -1.2886   -0.2270 C   0  0  0  0  0  0  0  0  0  0  0  0
   -2.9053   -4.1887    0.0035 C   0  0  0  0  0  0  0  0  0  0  0  0
   -4.6207   -2.6603    0.0115 C   0  0  0  0  0  0  0  0  0  0  0  0
    5.0860   -0.6138    0.1351 C   0  0  0  0  0  0  0  0  0  0  0  0
    3.8628    0.5848    1.8394 C   0  0  0  0  0  0  0  0  0  0  0  0
   -3.4930    3.7175    0.4955 C   0  0  0  0  0  0  0  0  0  0  0  0
    5.0573    0.3231    1.1682 C   0  0  0  0  0  0  0  0  0  0  0  0
  1 26  1  0
  2 27  1  0
  3 12  1  0
  3 19  1  0
  4 17  1  0
  4 28  1  0
  5 28  2  0
  6 12  1  0
  6 13  1  0
  6 14  1  0
  7 11  1  0
  7 13  2  0
  8 24  2  0
  8 25  1  0
  9 28  1  0
 10 11  1  0
 10 15  1  0
 10 16  1  0
 11 12  2  0
 13 17  1  0
 14 18  1  0
 18 20  2  0
 18 21  1  0
 19 22  2  0
 19 23  1  0
 20 24  1  0
 21 25  2  0
 22 27  1  0
 23 26  2  0
 26 29  1  0
 27 29  2  0
M  END
>  <PUBCHEM_COMPOUND_CID>  (1) 
1783

>  <PUBCHEM_CONFORMER_RMSD>  (1) 
1

>  <PUBCHEM_CONFORMER_DIVERSEORDER>  (1) 
2
5
71
63
64
17
74
47
73
45
54
107
105
42
81
100
38
119
43
37
84
93
104
53
96
101
51
111
33
89
66
24
10
40
60
6
36
65
70
124
112
58
69
72
116
87
16
110
25
62
68
77
86
78
27
57
97
1
106
13
22
79
35
26
121
120
85
80
103
117
99
76
59
19
115
44
122
56
108
15
31
61
95
28
30
109
12
14
34
118
4
46
55
92
18
91
8
49
3
29
23
50
123
90
82
75
48
94
9
98
83
7
113
67
52
88
39
20
32
102
21
114
11
41

>  <PUBCHEM_MMFF94_PARTIAL_CHARGES>  (1) 
36
1 -0.18
10 0.18
11 0.05
12 -0.1
13 0.01
14 0.4
17 0.46
18 -0.14
19 0.1
2 -0.18
20 -0.15
21 -0.15
22 -0.15
23 -0.15
24 0.16
25 0.16
26 0.18
27 0.18
28 0.78
29 -0.15
3 -0.16
4 -0.43
41 0.15
42 0.15
43 0.15
44 0.15
45 0.15
46 0.15
47 0.15
48 0.37
49 0.37
5 -0.57
6 0.05
7 -0.57
8 -0.62
9 -0.8

>  <PUBCHEM_EFFECTIVE_ROTOR_COUNT>  (1) 
8

>  <PUBCHEM_PHARMACOPHORE_FEATURES>  (1) 
8
1 5 acceptor
1 8 acceptor
1 9 donor
3 10 15 16 hydrophobe
3 6 7 13 cation
5 6 7 11 12 13 rings
6 19 22 23 26 27 29 rings
6 8 18 20 21 24 25 rings

>  <PUBCHEM_HEAVY_ATOM_COUNT>  (1) 
29

>  <PUBCHEM_ATOM_DEF_STEREO_COUNT>  (1) 
0

>  <PUBCHEM_ATOM_UDEF_STEREO_COUNT>  (1) 
0

>  <PUBCHEM_BOND_DEF_STEREO_COUNT>  (1) 
0

>  <PUBCHEM_BOND_UDEF_STEREO_COUNT>  (1) 
0

>  <PUBCHEM_ISOTOPIC_ATOM_COUNT>  (1) 
0

>  <PUBCHEM_COMPONENT_COUNT>  (1) 
1

>  <PUBCHEM_CACTVS_TAUTO_COUNT>  (1) 
2

>  <PUBCHEM_CONFORMER_ID>  (1) 
000006F700000002

>  <PUBCHEM_MMFF94_ENERGY>  (1) 
59.5303

>  <PUBCHEM_FEATURE_SELFOVERLAP>  (1) 
40.596

>  <PUBCHEM_SHAPE_FINGERPRINT>  (1) 
10165383 225 18119533137837646210
11377469 6 17676209121193958747
11445158 3 16342571954022693056
11552529 35 18335973216808852986
11578080 2 17916605145062821129
11582403 64 17700399287654272453
12553582 1 18122084240985235411
12788726 201 18191045550001500375
13009979 54 18115599290907123491
133893 2 16588601931760717124
13540713 5 17896341227509967004
13583140 156 17846215536287675630
13782708 43 18343869922785411910
14068700 675 18189329233493536886
14178342 30 18334574607653013218
15131766 46 15982552298977196241
15420108 30 17973159530902504545
17349148 13 17895190072979392122
17818456 19 18334580144271662919
17980427 26 17476626591016913013
1813 80 17460014383392162406
18222031 100 17896029000989734234
20600515 1 17912650395486532283
21033648 29 18048302358837507536
2132832 1 18042124413469353221
23419403 2 17321786044678950220
23559900 14 18411416237171542450
244849 19 17345493504038591573
25147074 1 17823156625278907180
3004659 81 17750792345044247503
3380486 145 17096634418990404028
4058900 60 17694227672736681217
463206 1 17901669598371650963
5895379 119 18335435546763722398
6009941 240 18128818548205462250
653340 110 18411695478786176595
9777508 108 18340480071926332641

>  <PUBCHEM_SHAPE_MULTIPOLES>  (1) 
572.73
10.98
5.01
2.42
7.68
2.97
-1.43
-2.91
3.49
-11.1
1.08
3.24
1.6
0.01

>  <PUBCHEM_SHAPE_SELFOVERLAP>  (1) 
1192.624

>  <PUBCHEM_SHAPE_VOLUME>  (1) 
330.8

>  <PUBCHEM_COORDINATE_TYPE>  (1) 
2
5
10

$$$$
