17841
     RDKit          3D

 21 24  0  0  0  0  0  0  0  0999 V2000
    5.0490    0.1136   -0.3843 O   0  0  0  0  0  0  0  0  0  0  0  0
    2.3381    0.2156    0.3131 N   0  0  0  0  0  0  0  0  0  0  0  0
    0.4438   -0.8019    0.9696 N   0  0  0  0  0  0  0  0  0  0  0  0
    0.4056    1.2945   -0.2595 N   0  0  0  0  0  0  0  0  0  0  0  0
    3.0500   -1.0598    0.3299 C   0  0  0  0  0  0  0  0  0  0  0  0
    3.1822    1.3956    0.4835 C   0  0  0  0  0  0  0  0  0  0  0  0
    0.9880    0.2878    0.3221 C   0  0  0  0  0  0  0  0  0  0  0  0
    4.2039   -1.0056   -0.6639 C   0  0  0  0  0  0  0  0  0  0  0  0
    4.3300    1.3425   -0.5171 C   0  0  0  0  0  0  0  0  0  0  0  0
   -0.6890   -1.4996    0.5032 C   0  0  0  0  0  0  0  0  0  0  0  0
   -1.7894   -0.8705   -0.1103 C   0  0  0  0  0  0  0  0  0  0  0  0
   -2.0028    0.5993   -0.0724 C   0  0  0  0  0  0  0  0  0  0  0  0
   -0.9686    1.5538   -0.1501 C   0  0  0  0  0  0  0  0  0  0  0  0
   -0.6342   -2.9112    0.5629 C   0  0  0  0  0  0  0  0  0  0  0  0
   -2.7604   -1.7065   -0.7140 C   0  0  0  0  0  0  0  0  0  0  0  0
   -3.3248    1.0923    0.0819 C   0  0  0  0  0  0  0  0  0  0  0  0
   -1.2912    2.9291   -0.1309 C   0  0  0  0  0  0  0  0  0  0  0  0
   -1.6242   -3.7044   -0.0078 C   0  0  0  0  0  0  0  0  0  0  0  0
   -2.6824   -3.0996   -0.6638 C   0  0  0  0  0  0  0  0  0  0  0  0
   -3.6225    2.4556    0.1119 C   0  0  0  0  0  0  0  0  0  0  0  0
   -2.6010    3.3793   -0.0040 C   0  0  0  0  0  0  0  0  0  0  0  0
  1  8  1  0
  1  9  1  0
  2  5  1  0
  2  6  1  0
  2  7  1  0
  3  7  1  0
  3 10  1  0
  4  7  2  0
  4 13  1  0
  5  8  1  0
  6  9  1  0
 10 11  2  0
 10 14  1  0
 11 12  1  0
 11 15  1  0
 12 13  2  0
 12 16  1  0
 13 17  1  0
 14 18  2  0
 15 19  2  0
 16 20  2  0
 17 21  2  0
 18 19  1  0
 20 21  1  0
M  END
>  <PUBCHEM_COMPOUND_CID>  (1) 
17841

>  <PUBCHEM_CONFORMER_RMSD>  (1) 
0.6

>  <PUBCHEM_CONFORMER_DIVERSEORDER>  (1) 
1
6
3
4
2
5

>  <PUBCHEM_MMFF94_PARTIAL_CHARGES>  (1) 
28
1 -0.56
10 0.1
13 0.18
14 -0.15
15 -0.15
16 -0.15
17 -0.15
18 -0.15
19 -0.15
2 -0.79
20 -0.15
21 -0.15
3 -0.55
30 0.4
31 0.15
32 0.15
33 0.15
34 0.15
35 0.15
36 0.15
37 0.15
38 0.15
4 -0.63
5 0.37
6 0.37
7 0.55
8 0.28
9 0.28

>  <PUBCHEM_EFFECTIVE_ROTOR_COUNT>  (1) 
2.4

>  <PUBCHEM_PHARMACOPHORE_FEATURES>  (1) 
7
1 1 acceptor
1 3 donor
4 2 3 4 7 cation
6 1 2 5 6 8 9 rings
6 10 11 14 15 18 19 rings
6 12 13 16 17 20 21 rings
7 3 4 7 10 11 12 13 rings

>  <PUBCHEM_HEAVY_ATOM_COUNT>  (1) 
21

>  <PUBCHEM_ATOM_DEF_STEREO_COUNT>  (1) 
0

>  <PUBCHEM_ATOM_UDEF_STEREO_COUNT>  (1) 
0

>  <PUBCHEM_BOND_DEF_STEREO_COUNT>  (1) 
0

>  <PUBCHEM_BOND_UDEF_STEREO_COUNT>  (1) 
0

>  <PUBCHEM_ISOTOPIC_ATOM_COUNT>  (1) 
0

>  <PUBCHEM_COMPONENT_COUNT>  (1) 
1

>  <PUBCHEM_CACTVS_TAUTO_COUNT>  (1) 
1

>  <PUBCHEM_CONFORMER_ID>  (1) 
000045B100000001

>  <PUBCHEM_MMFF94_ENERGY>  (1) 
91.9774

>  <PUBCHEM_FEATURE_SELFOVERLAP>  (1) 
35.54

>  <PUBCHEM_SHAPE_FINGERPRINT>  (1) 
10319926 262 18198034016391611328
10411042 1 17977948217311143043
10616163 171 18412265068896265462
10967382 1 17474382474920623811
1100329 8 18266178512670222833
11578080 2 17345462872279102384
116883 192 18267584783040299358
12035759 4 18052226572108477927
12173636 292 18338509746820637868
12553582 1 18049163572646443811
12592029 89 18049728408237870257
12788726 201 18263636419473484451
13140716 1 17758957412748679651
138480 1 16825588086641420919
14081887 123 18268695281384413936
14178342 30 18264751290531499808
14508225 48 18124303059375224877
14790565 3 18267874882480899025
14955137 171 18119542178760415019
15042514 8 18337398235576255291
16087824 20 18410012174646420367
16752209 62 18338221717860866507
17134986 127 18048875195620033941
18785283 64 17402057695420785561
19591789 44 18194683666136424499
20510252 161 18413670223070574353
21029758 11 18049994799410996543
21041028 32 17900838342058512515
21133410 171 17474892966524781046
21478907 32 18267302221748326431
21524375 3 18044658598539582137
22620623 9 18271820050464861134
23227448 37 18411984650254506956
23366157 5 17323525085917366627
23419403 2 17130693067223926137
23557571 272 18271534199058848500
23558518 356 18261394494295533872
23559900 14 18272086047065238818
238 59 16960657682649813485
25147074 1 18040426690892321538
2748010 2 14873283871626133947
3091708 16 9200000259786851307
352729 6 18339072667014872795
3729539 64 17477229144906527566
394222 165 17827357683130700777
458136 41 17908712730703915193
6138700 20 17546732547890349638
7364860 26 17474386877299057873
7399639 24 17770770523223866488
81228 2 18262511636315797161
9709674 26 18342181081187300966

>  <PUBCHEM_SHAPE_MULTIPOLES>  (1) 
411.36
7.52
4.38
0.78
9.89
1.3
0
-2.23
1.34
-5.16
0.15
0.1
0.19
-0.36

>  <PUBCHEM_SHAPE_SELFOVERLAP>  (1) 
905.482

>  <PUBCHEM_SHAPE_VOLUME>  (1) 
217.1

>  <PUBCHEM_COORDINATE_TYPE>  (1) 
2
5
10

$$$$
