17844
     RDKit          3D

 15 15  0  0  1  0  0  0  0  0999 V2000
   -0.8285   -0.5800    0.4553 S   0  0  0  0  0  0  0  0  0  0  0  0
   -1.1663   -1.8245   -0.5414 O   0  0  0  0  0  0  0  0  0  0  0  0
   -0.9712   -1.0262    1.8263 O   0  0  0  0  0  0  0  0  0  0  0  0
   -1.6074    0.5095   -0.2932 N   0  0  0  0  0  0  0  0  0  0  0  0
   -3.0781    0.5069   -0.2859 C   0  0  0  0  0  0  0  0  0  0  0  0
   -3.5573   -0.1165    1.0273 C   0  0  0  0  0  0  0  0  0  0  0  0
   -3.5601    1.9552   -0.3972 C   0  0  0  0  0  0  0  0  0  0  0  0
   -3.5694   -0.3132   -1.4811 C   0  0  0  0  0  0  0  0  0  0  0  0
    0.8793   -0.2303    0.2078 C   0  0  0  0  0  0  0  0  0  0  0  0
    1.3971    0.9819    0.6411 C   0  0  0  0  0  0  0  0  0  0  0  0
    1.6857   -1.1708   -0.4172 C   0  0  0  0  0  0  0  0  0  0  0  0
    3.5706    0.3223   -0.1821 C   0  0  0  0  0  0  0  0  0  0  0  0
    2.7499    1.2598    0.4450 C   0  0  0  0  0  0  0  0  0  0  0  0
    3.0385   -0.8930   -0.6132 C   0  0  0  0  0  0  0  0  0  0  0  0
    5.0172    0.6189   -0.3914 C   0  0  0  0  0  0  0  0  0  0  0  0
  1  2  1  0
  1  3  2  0
  1  4  2  0
  1  9  1  0
  4  5  1  0
  5  6  1  0
  5  7  1  0
  5  8  1  0
  9 10  2  0
  9 11  1  0
 10 13  1  0
 11 14  2  0
 12 13  2  0
 12 14  1  0
 12 15  1  0
M  END
>  <PUBCHEM_COMPOUND_CID>  (1) 
17844

>  <PUBCHEM_CONFORMER_RMSD>  (1) 
0.6

>  <PUBCHEM_CONFORMER_DIVERSEORDER>  (1) 
1
2
3

>  <PUBCHEM_MMFF94_PARTIAL_CHARGES>  (1) 
17
1 1.43
10 -0.15
11 -0.15
12 -0.14
13 -0.15
14 -0.15
15 0.14
2 -0.68
25 0.15
26 0.15
27 0.15
28 0.15
29 0.5
3 -0.65
4 -1.11
5 0.52
9 -0.01

>  <PUBCHEM_EFFECTIVE_ROTOR_COUNT>  (1) 
2

>  <PUBCHEM_PHARMACOPHORE_FEATURES>  (1) 
2
4 5 6 7 8 hydrophobe
6 9 10 11 12 13 14 rings

>  <PUBCHEM_HEAVY_ATOM_COUNT>  (1) 
15

>  <PUBCHEM_ATOM_DEF_STEREO_COUNT>  (1) 
0

>  <PUBCHEM_ATOM_UDEF_STEREO_COUNT>  (1) 
0

>  <PUBCHEM_BOND_DEF_STEREO_COUNT>  (1) 
0

>  <PUBCHEM_BOND_UDEF_STEREO_COUNT>  (1) 
0

>  <PUBCHEM_ISOTOPIC_ATOM_COUNT>  (1) 
0

>  <PUBCHEM_COMPONENT_COUNT>  (1) 
1

>  <PUBCHEM_CACTVS_TAUTO_COUNT>  (1) 
1

>  <PUBCHEM_CONFORMER_ID>  (1) 
000045B400000001

>  <PUBCHEM_MMFF94_ENERGY>  (1) 
32.7023

>  <PUBCHEM_FEATURE_SELFOVERLAP>  (1) 
10.148

>  <PUBCHEM_SHAPE_FINGERPRINT>  (1) 
10498660 4 17896026668595717741
10608611 8 18411416245497557568
11046707 91 11095878267908771725
11401426 45 18060416933124040552
11471102 20 18272370858840992500
11543360 7 17989197174861244437
12251169 10 12612757904034133681
124424 183 18334012796429973210
12500047 106 18410854391103577686
13675066 3 14201394984956273548
13705890 14 16988839505889054596
14943859 89 17749108898262546946
14993402 34 16988844977798774076
15219456 202 18336272270791222490
15375358 24 18410574007238308376
15375462 478 12901543529147029551
15775835 57 18261389997243293701
16945 1 18412255138462014779
18186145 218 17346310501323375705
19862831 5 17060344032645829968
200 152 16200434680286259822
20201158 50 18341897385474887266
20279233 1 18341619235019225958
20281407 28 11384116344841665721
20361792 2 13901900146321418363
20645477 56 18411138069087190368
20645477 70 18201167555315832438
20671657 53 16343985823181614720
20711985 327 11527655410568481091
20871999 31 17988911276653775109
21119208 17 17203326701980330196
22485316 2 11600008734521598060
23402539 116 18409159996345595692
23402655 69 18130224861119231124
23500284 214 18040722450017836777
23557571 272 18260835950962954771
23559900 14 18113622253695479402
25 1 18410856529765097994
276578 36 16950564329051932208
3082319 5 17917419934945418757
4028521 119 18261099760596778517
633830 44 18115588136750085047
69090 78 18342453768344471143
77492 1 16558758892316970538
81228 2 17315650748696001707
93112 12 18201153347051865852

>  <PUBCHEM_SHAPE_MULTIPOLES>  (1) 
295.82
8.41
1.52
1.15
2.69
0.13
0.19
2.53
-1.92
-0.39
-0.11
-0.87
-0.22
0.4

>  <PUBCHEM_SHAPE_SELFOVERLAP>  (1) 
590.658

>  <PUBCHEM_SHAPE_VOLUME>  (1) 
177.4

>  <PUBCHEM_COORDINATE_TYPE>  (1) 
2
5
10

$$$$
