17847
     RDKit          3D

  7  6  0  0  0  0  0  0  0  0999 V2000
    0.6273    1.9339   -0.0001 Cl  0  0  0  0  0  0  0  0  0  0  0  0
   -2.3742    0.9504    0.0006 Cl  0  0  0  0  0  0  0  0  0  0  0  0
   -1.5308   -1.8434   -0.0007 Cl  0  0  0  0  0  0  0  0  0  0  0  0
    0.2489    0.2208   -0.0018 C   0  0  0  0  0  0  0  0  0  0  0  0
    1.3841   -0.6992    0.0017 C   0  0  0  0  0  0  0  0  0  0  0  0
   -1.0432   -0.1731    0.0007 C   0  0  0  0  0  0  0  0  0  0  0  0
    2.6879   -0.3893   -0.0003 C   0  0  0  0  0  0  0  0  0  0  0  0
  1  4  1  0
  2  6  1  0
  3  6  1  0
  4  5  1  0
  4  6  2  3
  5  7  2  0
M  END
>  <PUBCHEM_COMPOUND_CID>  (1) 
17847

>  <PUBCHEM_CONFORMER_RMSD>  (1) 
0.4

>  <PUBCHEM_CONFORMER_DIVERSEORDER>  (1) 
1
2

>  <PUBCHEM_MMFF94_PARTIAL_CHARGES>  (1) 
10
1 -0.14
10 0.15
2 -0.14
3 -0.14
4 0.14
5 -0.15
6 0.28
7 -0.3
8 0.15
9 0.15

>  <PUBCHEM_EFFECTIVE_ROTOR_COUNT>  (1) 
1

>  <PUBCHEM_PHARMACOPHORE_FEATURES>  (1) 
1
1 7 hydrophobe

>  <PUBCHEM_HEAVY_ATOM_COUNT>  (1) 
7

>  <PUBCHEM_ATOM_DEF_STEREO_COUNT>  (1) 
0

>  <PUBCHEM_ATOM_UDEF_STEREO_COUNT>  (1) 
0

>  <PUBCHEM_BOND_DEF_STEREO_COUNT>  (1) 
0

>  <PUBCHEM_BOND_UDEF_STEREO_COUNT>  (1) 
0

>  <PUBCHEM_ISOTOPIC_ATOM_COUNT>  (1) 
0

>  <PUBCHEM_COMPONENT_COUNT>  (1) 
1

>  <PUBCHEM_CACTVS_TAUTO_COUNT>  (1) 
1

>  <PUBCHEM_CONFORMER_ID>  (1) 
000045B700000001

>  <PUBCHEM_MMFF94_ENERGY>  (1) 
12.296

>  <PUBCHEM_FEATURE_SELFOVERLAP>  (1) 
5.074

>  <PUBCHEM_SHAPE_FINGERPRINT>  (1) 
15310529 11 16660647293462695046
16714656 1 18265897964567509140
18185500 45 18335702723857737738
20711978 1 18195240238042604583
21040471 1 18338798888382199043
22082395 3 18265615381531401642
23552423 10 18117277171093398119
23552449 1 18411134732055707436
24536 1 18194945551677659721
29004967 10 18413110554461435514
5460574 1 9294993674532329537

>  <PUBCHEM_SHAPE_MULTIPOLES>  (1) 
149.67
3.3
1.94
0.63
0.63
0.21
0
-0.38
0
-0.55
0
-0.02
0.01
0

>  <PUBCHEM_SHAPE_SELFOVERLAP>  (1) 
253.968

>  <PUBCHEM_SHAPE_VOLUME>  (1) 
100.1

>  <PUBCHEM_COORDINATE_TYPE>  (1) 
2
5
10

$$$$
