17876
     RDKit          3D

 25 30  0  0  0  0  0  0  0  0999 V2000
    0.3539   -0.9320    0.1004 C   0  0  0  0  0  0  0  0  0  0  0  0
   -0.5750    0.1439    0.1023 C   0  0  0  0  0  0  0  0  0  0  0  0
    1.7524   -0.7084   -0.0293 C   0  0  0  0  0  0  0  0  0  0  0  0
   -1.9963   -0.2084    0.0041 C   0  0  0  0  0  0  0  0  0  0  0  0
   -0.0169    1.4825    0.1992 C   0  0  0  0  0  0  0  0  0  0  0  0
    2.2653    0.6043   -0.1374 C   0  0  0  0  0  0  0  0  0  0  0  0
   -0.0994   -2.2722    0.2225 C   0  0  0  0  0  0  0  0  0  0  0  0
    1.3763    1.7119    0.0045 C   0  0  0  0  0  0  0  0  0  0  0  0
    2.6463   -1.8208   -0.0625 C   0  0  0  0  0  0  0  0  0  0  0  0
   -2.4075   -1.5525    0.1848 C   0  0  0  0  0  0  0  0  0  0  0  0
   -1.4565   -2.5538    0.3265 C   0  0  0  0  0  0  0  0  0  0  0  0
   -3.0494    0.6854   -0.3354 C   0  0  0  0  0  0  0  0  0  0  0  0
    0.8014   -3.3397    0.2311 C   0  0  0  0  0  0  0  0  0  0  0  0
    2.1607   -3.1179    0.0798 C   0  0  0  0  0  0  0  0  0  0  0  0
    3.6664    0.7390   -0.3301 C   0  0  0  0  0  0  0  0  0  0  0  0
   -0.7905    2.6197    0.5590 C   0  0  0  0  0  0  0  0  0  0  0  0
    4.0181   -1.6314   -0.2378 C   0  0  0  0  0  0  0  0  0  0  0  0
    1.8466    3.0550    0.0029 C   0  0  0  0  0  0  0  0  0  0  0  0
   -3.7663   -1.9194    0.1790 C   0  0  0  0  0  0  0  0  0  0  0  0
    4.5267   -0.3546   -0.3832 C   0  0  0  0  0  0  0  0  0  0  0  0
   -4.3996    0.3167   -0.3595 C   0  0  0  0  0  0  0  0  0  0  0  0
   -0.2956    3.9235    0.5792 C   0  0  0  0  0  0  0  0  0  0  0  0
   -4.7613   -0.9859   -0.0754 C   0  0  0  0  0  0  0  0  0  0  0  0
   -2.8248    1.9694   -1.0925 C   0  0  0  0  0  0  0  0  0  0  0  0
    1.0250    4.1457    0.2679 C   0  0  0  0  0  0  0  0  0  0  0  0
  1  2  2  0
  1  3  1  0
  1  7  1  0
  2  4  1  0
  2  5  1  0
  3  6  2  0
  3  9  1  0
  4 10  2  0
  4 12  1  0
  5  8  2  0
  5 16  1  0
  6  8  1  0
  6 15  1  0
  7 11  2  0
  7 13  1  0
  8 18  1  0
  9 14  1  0
  9 17  2  0
 10 11  1  0
 10 19  1  0
 12 21  2  0
 12 24  1  0
 13 14  2  0
 15 20  2  0
 16 22  2  0
 17 20  1  0
 18 25  2  0
 19 23  2  0
 21 23  1  0
 22 25  1  0
M  END
>  <PUBCHEM_COMPOUND_CID>  (1) 
17876

>  <PUBCHEM_CONFORMER_RMSD>  (1) 
0.6

>  <PUBCHEM_CONFORMER_DIVERSEORDER>  (1) 
1

>  <PUBCHEM_MMFF94_PARTIAL_CHARGES>  (1) 
28
11 -0.15
12 -0.14
13 -0.15
14 -0.15
15 -0.15
16 -0.15
17 -0.15
18 -0.15
19 -0.15
20 -0.15
21 -0.15
22 -0.15
23 -0.15
24 0.14
25 -0.15
26 0.15
27 0.15
28 0.15
29 0.15
30 0.15
31 0.15
32 0.15
33 0.15
34 0.15
35 0.15
36 0.15
37 0.15
41 0.15

>  <PUBCHEM_EFFECTIVE_ROTOR_COUNT>  (1) 
0

>  <PUBCHEM_PHARMACOPHORE_FEATURES>  (1) 
6
6 1 2 3 5 6 8 rings
6 1 2 4 7 10 11 rings
6 1 3 7 9 13 14 rings
6 3 6 9 15 17 20 rings
6 4 10 12 19 21 23 rings
6 5 8 16 18 22 25 rings

>  <PUBCHEM_HEAVY_ATOM_COUNT>  (1) 
25

>  <PUBCHEM_ATOM_DEF_STEREO_COUNT>  (1) 
0

>  <PUBCHEM_ATOM_UDEF_STEREO_COUNT>  (1) 
0

>  <PUBCHEM_BOND_DEF_STEREO_COUNT>  (1) 
0

>  <PUBCHEM_BOND_UDEF_STEREO_COUNT>  (1) 
0

>  <PUBCHEM_ISOTOPIC_ATOM_COUNT>  (1) 
0

>  <PUBCHEM_COMPONENT_COUNT>  (1) 
1

>  <PUBCHEM_CACTVS_TAUTO_COUNT>  (1) 
1

>  <PUBCHEM_CONFORMER_ID>  (1) 
000045D400000001

>  <PUBCHEM_MMFF94_ENERGY>  (1) 
130.4236

>  <PUBCHEM_FEATURE_SELFOVERLAP>  (1) 
30.62

>  <PUBCHEM_SHAPE_FINGERPRINT>  (1) 
10411042 1 18339081488646454050
10675989 125 17253695089584813453
10693767 8 18129926919734137951
10967382 1 18410573985172569674
1100329 8 18267303321106759130
11112241 14 16770961497347490280
11578080 2 17271411661770524233
12403259 226 18335699502853779399
12553582 1 18339365158271422379
12788726 201 18265617585266531690
12954195 1 17982749480437812302
13140716 1 17832704943221135570
13402501 40 18337109063485179199
138480 1 18411419535405485576
14178342 30 17688857654184314842
14466204 15 18336817676156485970
14790565 3 18266189498532551284
14866123 147 17186157565920129162
15081414 286 18341345451870221034
15196674 1 18409449167603195654
15927050 60 17692817399066109726
15950262 2 13743797211756226674
16087824 20 18123193399199618905
16945 1 18050573941290858018
19591789 44 18265898153836304903
19930381 70 18266455593541714921
20775438 99 17335570609720927551
20905425 154 18126567812773546238
21267235 1 18410302384379102118
22113638 7 18341325690841834270
221357 26 18410005538341530847
221490 88 18264775539537265339
2334 1 18122629624057555850
23558518 356 17831590781760573610
23559900 14 18339918328626794497
23566358 2 18266176128182704159
238 59 17976497824508998125
2748010 2 17255969390325401826
283562 15 18339648820030077984
335352 9 18410294718030829495
350125 39 18264495159945818703
352729 6 17403455169871756976
463206 1 18411418453343109871
5265222 85 17111576039400574428
5939293 188 18339640156859749010
6438718 38 17341238273938620181
6443956 14 18410295825995215588
7364860 26 18267584800088228177
9709674 26 18193556907284076155
9981440 41 17331671861056470400

>  <PUBCHEM_SHAPE_MULTIPOLES>  (1) 
514.49
7.16
4.87
0.73
2.4
3.03
0.04
-2.76
1.29
-1.42
-0.8
0.14
0.17
0.39

>  <PUBCHEM_SHAPE_SELFOVERLAP>  (1) 
1215.24

>  <PUBCHEM_SHAPE_VOLUME>  (1) 
232.9

>  <PUBCHEM_COORDINATE_TYPE>  (1) 
2
5
10

$$$$
