17881
     RDKit          3D

 44 47  0  0  0  0  0  0  0  0999 V2000
   -1.7546   -2.7213   -0.1386 S   0  0  0  0  0  0  0  0  0  0  0  0
    1.7880    2.9247    0.2452 S   0  0  0  0  0  0  0  0  0  0  0  0
   -1.1097   -2.5984    1.3569 O   0  0  0  0  0  0  0  0  0  0  0  0
    1.1440    2.8927   -1.2554 O   0  0  0  0  0  0  0  0  0  0  0  0
   -0.6670   -2.8035   -1.0981 O   0  0  0  0  0  0  0  0  0  0  0  0
   -2.7789   -3.7508   -0.0802 O   0  0  0  0  0  0  0  0  0  0  0  0
    2.8408    3.9253    0.2679 O   0  0  0  0  0  0  0  0  0  0  0  0
    0.6809    2.9835    1.1854 O   0  0  0  0  0  0  0  0  0  0  0  0
  -12.0205    0.3441    0.3330 O   0  0  0  0  0  0  0  0  0  0  0  0
   12.0161   -0.2300   -0.3948 O   0  0  0  0  0  0  0  0  0  0  0  0
   -6.0223    0.0557   -0.6946 N   0  0  0  0  0  0  0  0  0  0  0  0
    6.0209    0.0688    0.6467 N   0  0  0  0  0  0  0  0  0  0  0  0
   -6.4733    0.2609    0.4569 N   0  0  0  0  0  0  0  0  0  0  0  0
    6.4703   -0.0748   -0.5147 N   0  0  0  0  0  0  0  0  0  0  0  0
   -1.8519   -0.0065   -0.6031 C   0  0  0  0  0  0  0  0  0  0  0  0
    1.8354    0.1872    0.5562 C   0  0  0  0  0  0  0  0  0  0  0  0
   -2.5549   -1.1866   -0.4149 C   0  0  0  0  0  0  0  0  0  0  0  0
    2.5692    1.3673    0.4368 C   0  0  0  0  0  0  0  0  0  0  0  0
   -0.3787    0.0182   -0.5794 C   0  0  0  0  0  0  0  0  0  0  0  0
    0.3783    0.1818    0.5294 C   0  0  0  0  0  0  0  0  0  0  0  0
   -2.5109    1.1945   -0.8214 C   0  0  0  0  0  0  0  0  0  0  0  0
    2.4956   -1.0324    0.7056 C   0  0  0  0  0  0  0  0  0  0  0  0
   -3.9493   -1.1658   -0.4451 C   0  0  0  0  0  0  0  0  0  0  0  0
    3.9631    1.3280    0.4671 C   0  0  0  0  0  0  0  0  0  0  0  0
   -4.6243    0.0351   -0.6637 C   0  0  0  0  0  0  0  0  0  0  0  0
    4.6233    0.1084    0.6168 C   0  0  0  0  0  0  0  0  0  0  0  0
   -3.9053    1.2153   -0.8518 C   0  0  0  0  0  0  0  0  0  0  0  0
    3.8895   -1.0719    0.7360 C   0  0  0  0  0  0  0  0  0  0  0  0
   -7.8782    0.2819    0.4262 C   0  0  0  0  0  0  0  0  0  0  0  0
    7.8749   -0.1144   -0.4850 C   0  0  0  0  0  0  0  0  0  0  0  0
  -10.6599    0.3238    0.3648 C   0  0  0  0  0  0  0  0  0  0  0  0
   10.6560   -0.1923   -0.4256 C   0  0  0  0  0  0  0  0  0  0  0  0
   -8.5460    1.4828    0.2074 C   0  0  0  0  0  0  0  0  0  0  0  0
    8.6014    1.0662   -0.6044 C   0  0  0  0  0  0  0  0  0  0  0  0
   -8.5908   -0.8981    0.6146 C   0  0  0  0  0  0  0  0  0  0  0  0
    8.5284   -1.3336   -0.3362 C   0  0  0  0  0  0  0  0  0  0  0  0
   -9.9404    1.5037    0.1767 C   0  0  0  0  0  0  0  0  0  0  0  0
    9.9954    1.0272   -0.5747 C   0  0  0  0  0  0  0  0  0  0  0  0
   -9.9851   -0.8771    0.5839 C   0  0  0  0  0  0  0  0  0  0  0  0
    9.9224   -1.3727   -0.3065 C   0  0  0  0  0  0  0  0  0  0  0  0
  -12.6771   -0.8376   -0.1235 C   0  0  0  0  0  0  0  0  0  0  0  0
   12.6196   -1.2696    0.3739 C   0  0  0  0  0  0  0  0  0  0  0  0
  -13.9915   -0.4534   -0.7687 C   0  0  0  0  0  0  0  0  0  0  0  0
   13.9569   -0.7861    0.8931 C   0  0  0  0  0  0  0  0  0  0  0  0
  1  3  1  0
  1  5  2  0
  1  6  2  0
  1 17  1  0
  2  4  1  0
  2  7  2  0
  2  8  2  0
  2 18  1  0
  9 31  1  0
  9 41  1  0
 10 32  1  0
 10 42  1  0
 11 13  2  0
 11 25  1  0
 12 14  2  0
 12 26  1  0
 13 29  1  0
 14 30  1  0
 15 17  2  0
 15 19  1  0
 15 21  1  0
 16 18  2  0
 16 20  1  0
 16 22  1  0
 17 23  1  0
 18 24  1  0
 19 20  2  0
 21 27  2  0
 22 28  2  0
 23 25  2  0
 24 26  2  0
 25 27  1  0
 26 28  1  0
 29 33  2  0
 29 35  1  0
 30 34  2  0
 30 36  1  0
 31 37  2  0
 31 39  1  0
 32 38  2  0
 32 40  1  0
 33 37  1  0
 34 38  1  0
 35 39  2  0
 36 40  2  0
 41 43  1  0
 42 44  1  0
M  END
>  <PUBCHEM_COMPOUND_CID>  (1) 
17881

>  <PUBCHEM_CONFORMER_RMSD>  (1) 
1.2

>  <PUBCHEM_CONFORMER_DIVERSEORDER>  (1) 
1
3
2
5
4

>  <PUBCHEM_MMFF94_PARTIAL_CHARGES>  (1) 
60
1 1.49
10 -0.36
11 -0.18
12 -0.18
13 -0.18
14 -0.18
15 0.03
16 0.03
17 -0.01
18 -0.01
19 -0.18
2 1.49
20 -0.18
21 -0.15
22 -0.15
23 -0.15
24 -0.15
25 0.18
26 0.18
27 -0.15
28 -0.15
29 0.18
3 -0.68
30 0.18
31 0.08
32 0.08
33 -0.15
34 -0.15
35 -0.15
36 -0.15
37 -0.15
38 -0.15
39 -0.15
4 -0.68
40 -0.15
41 0.28
42 0.28
45 0.15
46 0.15
47 0.15
48 0.15
49 0.15
5 -0.65
50 0.15
51 0.15
52 0.15
53 0.5
54 0.5
55 0.15
56 0.15
57 0.15
58 0.15
59 0.15
6 -0.65
60 0.15
61 0.15
62 0.15
7 -0.65
8 -0.65
9 -0.36

>  <PUBCHEM_EFFECTIVE_ROTOR_COUNT>  (1) 
12

>  <PUBCHEM_PHARMACOPHORE_FEATURES>  (1) 
14
1 10 acceptor
1 3 acceptor
1 4 acceptor
1 5 acceptor
1 6 acceptor
1 7 acceptor
1 8 acceptor
1 9 acceptor
4 1 3 5 6 anion
4 2 4 7 8 anion
6 15 17 21 23 25 27 rings
6 16 18 22 24 26 28 rings
6 29 31 33 35 37 39 rings
6 30 32 34 36 38 40 rings

>  <PUBCHEM_HEAVY_ATOM_COUNT>  (1) 
44

>  <PUBCHEM_ATOM_DEF_STEREO_COUNT>  (1) 
0

>  <PUBCHEM_ATOM_UDEF_STEREO_COUNT>  (1) 
0

>  <PUBCHEM_BOND_DEF_STEREO_COUNT>  (1) 
0

>  <PUBCHEM_BOND_UDEF_STEREO_COUNT>  (1) 
1

>  <PUBCHEM_ISOTOPIC_ATOM_COUNT>  (1) 
0

>  <PUBCHEM_COMPONENT_COUNT>  (1) 
1

>  <PUBCHEM_CACTVS_TAUTO_COUNT>  (1) 
1

>  <PUBCHEM_CONFORMER_ID>  (1) 
000045D900000001

>  <PUBCHEM_MMFF94_ENERGY>  (1) 
126.944

>  <PUBCHEM_FEATURE_SELFOVERLAP>  (1) 
71.167

>  <PUBCHEM_SHAPE_FINGERPRINT>  (1) 
10165383 225 17095242522800019178
10580692 12 18272653429461793951
10674148 151 18413669115264235818
11410812 94 14117528601861475467
12013929 2 18334293163864316569
12013929 94 18334580149315866123
12202916 173 11024107663533023229
12664476 115 17894910737550321469
14251920 1 17312821571769438423
15064986 266 18262801911654688579
15274700 256 15554447379747590002
15347591 1 18122908899731468512
15890870 6 18410294705430945835
16087824 20 18412545388294632232
16728433 110 17603587447700194084
20105231 36 18334576845320171651
20501277 279 10881402036958570015
232437 2 18410293609686368271
249057 3 18411698819948751860
3092352 35 18260830397084963891
54039377 194 18411139138455354532
58083652 198 16056881382082903490
9663363 56 16415478247580340994

>  <PUBCHEM_SHAPE_MULTIPOLES>  (1) 
846.32
54.96
2.78
0.96
1.15
0.56
-0.01
-10.98
-0.55
-0.49
-0.09
-0.13
0.02
-0.39

>  <PUBCHEM_SHAPE_SELFOVERLAP>  (1) 
1802.745

>  <PUBCHEM_SHAPE_VOLUME>  (1) 
470.4

>  <PUBCHEM_COORDINATE_TYPE>  (1) 
2
5
10

$$$$
