17887
     RDKit          3D

  9  8  0  0  0  0  0  0  0  0999 V2000
    3.9538   -0.8695   -0.0487 Cl  0  0  0  0  0  0  0  0  0  0  0  0
   -3.9548   -0.8692   -0.0038 Cl  0  0  0  0  0  0  0  0  0  0  0  0
    2.5231    1.3595    0.0195 O   0  0  0  0  0  0  0  0  0  0  0  0
   -2.5221    1.3597   -0.0362 O   0  0  0  0  0  0  0  0  0  0  0  0
   -0.0001    0.1584    0.0390 C   0  0  0  0  0  0  0  0  0  0  0  0
    1.2617   -0.7023    0.0227 C   0  0  0  0  0  0  0  0  0  0  0  0
   -1.2618   -0.7024    0.0169 C   0  0  0  0  0  0  0  0  0  0  0  0
    2.5299    0.1328    0.0012 C   0  0  0  0  0  0  0  0  0  0  0  0
   -2.5298    0.1330   -0.0106 C   0  0  0  0  0  0  0  0  0  0  0  0
  1  8  1  0
  2  9  1  0
  3  8  2  0
  4  9  2  0
  5  6  1  0
  5  7  1  0
  6  8  1  0
  7  9  1  0
M  END
>  <PUBCHEM_COMPOUND_CID>  (1) 
17887

>  <PUBCHEM_CONFORMER_RMSD>  (1) 
0.6

>  <PUBCHEM_CONFORMER_DIVERSEORDER>  (1) 
1
55
12
52
35
8
14
58
4
36
24
13
9
5
40
39
54
53
38
44
47
23
3
2
57
37
31
7
56
51
50
18
6
15
42
11
10
41
33
26
32
27
34
49
28
25
16
17
22
19
30
29
45
46
21
20
48
43

>  <PUBCHEM_MMFF94_PARTIAL_CHARGES>  (1) 
8
1 -0.21
2 -0.21
3 -0.57
4 -0.57
6 0.06
7 0.06
8 0.72
9 0.72

>  <PUBCHEM_EFFECTIVE_ROTOR_COUNT>  (1) 
4

>  <PUBCHEM_PHARMACOPHORE_FEATURES>  (1) 
0

>  <PUBCHEM_HEAVY_ATOM_COUNT>  (1) 
9

>  <PUBCHEM_ATOM_DEF_STEREO_COUNT>  (1) 
0

>  <PUBCHEM_ATOM_UDEF_STEREO_COUNT>  (1) 
0

>  <PUBCHEM_BOND_DEF_STEREO_COUNT>  (1) 
0

>  <PUBCHEM_BOND_UDEF_STEREO_COUNT>  (1) 
0

>  <PUBCHEM_ISOTOPIC_ATOM_COUNT>  (1) 
0

>  <PUBCHEM_COMPONENT_COUNT>  (1) 
1

>  <PUBCHEM_CACTVS_TAUTO_COUNT>  (1) 
1

>  <PUBCHEM_CONFORMER_ID>  (1) 
000045DF00000001

>  <PUBCHEM_MMFF94_ENERGY>  (1) 
6.4926

>  <PUBCHEM_FEATURE_SELFOVERLAP>  (1) 
0

>  <PUBCHEM_SHAPE_FINGERPRINT>  (1) 
12162725 195 18410294713498432972
12932764 1 17240754082216524810
14325111 11 18410573989446418440
14390081 3 18410291415084849497
177051 138 18411699893738120014
190213 19 18411415115847039267
1986462 14 18336830801191582895
20211469 26 18186799192929195607
23402539 116 18271516546774858591

>  <PUBCHEM_SHAPE_MULTIPOLES>  (1) 
177.22
7.48
1.21
0.61
0
0.26
0
-1.36
0.11
0
0.01
0
-0.04
0.03

>  <PUBCHEM_SHAPE_SELFOVERLAP>  (1) 
312.378

>  <PUBCHEM_SHAPE_VOLUME>  (1) 
114.7

>  <PUBCHEM_COORDINATE_TYPE>  (1) 
2
5
10

$$$$
