17886
     RDKit          3D

 23 24  0  0  1  0  0  0  0  0999 V2000
    5.4826   -1.7835    1.8955 O   0  0  0  0  0  0  0  0  0  0  0  0
   -7.2855   -0.7252   -0.8088 O   0  0  0  0  0  0  0  0  0  0  0  0
   -7.2802    0.8515    0.7186 O   0  0  0  0  0  0  0  0  0  0  0  0
    5.0167    0.1339   -0.1569 N   0  0  0  0  0  0  0  0  0  0  0  0
   -0.5618    0.4723   -0.4916 N   0  0  0  0  0  0  0  0  0  0  0  0
   -1.0894   -0.3179    0.3260 N   0  0  0  0  0  0  0  0  0  0  0  0
   -6.6770    0.0261   -0.0089 N   0  0  0  0  0  0  0  0  0  0  0  0
    5.6919   -1.1245   -0.4048 C   0  0  0  0  0  0  0  0  0  0  0  0
    5.8028    1.3003    0.1926 C   0  0  0  0  0  0  0  0  0  0  0  0
    3.6112    0.2188   -0.2412 C   0  0  0  0  0  0  0  0  0  0  0  0
    5.1900   -2.1830    0.5625 C   0  0  0  0  0  0  0  0  0  0  0  0
    2.9141   -0.6069   -1.1233 C   0  0  0  0  0  0  0  0  0  0  0  0
    2.9184    1.1289    0.5574 C   0  0  0  0  0  0  0  0  0  0  0  0
    5.6235    2.4096   -0.8300 C   0  0  0  0  0  0  0  0  0  0  0  0
    1.5243   -0.5227   -1.2069 C   0  0  0  0  0  0  0  0  0  0  0  0
    1.5285    1.2130    0.4738 C   0  0  0  0  0  0  0  0  0  0  0  0
    0.8316    0.3872   -0.4083 C   0  0  0  0  0  0  0  0  0  0  0  0
   -2.4897   -0.2318    0.2420 C   0  0  0  0  0  0  0  0  0  0  0  0
   -3.1806   -1.0569   -0.6396 C   0  0  0  0  0  0  0  0  0  0  0  0
   -3.1745    0.6784    1.0412 C   0  0  0  0  0  0  0  0  0  0  0  0
   -5.2622   -0.0607    0.0757 C   0  0  0  0  0  0  0  0  0  0  0  0
   -4.5703   -0.9711   -0.7231 C   0  0  0  0  0  0  0  0  0  0  0  0
   -4.5642    0.7642    0.9580 C   0  0  0  0  0  0  0  0  0  0  0  0
  1 11  1  0
  2  7  1  0
  3  7  2  0
  4  8  1  0
  4  9  1  0
  4 10  1  0
  5  6  2  0
  5 17  1  0
  6 18  1  0
  7 21  1  0
  8 11  1  0
  9 14  1  0
 10 12  2  0
 10 13  1  0
 12 15  1  0
 13 16  2  0
 15 17  2  0
 16 17  1  0
 18 19  2  0
 18 20  1  0
 19 22  1  0
 20 23  2  0
 21 22  2  0
 21 23  1  0
M  CHG  2   2  -1   7   1
M  END
>  <PUBCHEM_COMPOUND_CID>  (1) 
17886

>  <PUBCHEM_CONFORMER_RMSD>  (1) 
0.8

>  <PUBCHEM_CONFORMER_DIVERSEORDER>  (1) 
1
12
10
5
3
13
6
11
2
14
9
4
8
7

>  <PUBCHEM_MMFF94_PARTIAL_CHARGES>  (1) 
31
1 -0.68
10 0.1
11 0.28
12 -0.15
13 -0.15
15 -0.15
16 -0.15
17 0.18
18 0.18
19 -0.15
2 -0.52
20 -0.15
21 0.13
22 -0.15
23 -0.15
3 -0.52
30 0.15
31 0.15
35 0.15
36 0.15
37 0.4
38 0.15
39 0.15
4 -0.84
40 0.15
41 0.15
5 -0.18
6 -0.18
7 0.91
8 0.37
9 0.37

>  <PUBCHEM_EFFECTIVE_ROTOR_COUNT>  (1) 
7

>  <PUBCHEM_PHARMACOPHORE_FEATURES>  (1) 
8
1 1 acceptor
1 1 donor
1 2 acceptor
1 2 anion
1 3 acceptor
1 4 cation
6 10 12 13 15 16 17 rings
6 18 19 20 21 22 23 rings

>  <PUBCHEM_HEAVY_ATOM_COUNT>  (1) 
23

>  <PUBCHEM_ATOM_DEF_STEREO_COUNT>  (1) 
0

>  <PUBCHEM_ATOM_UDEF_STEREO_COUNT>  (1) 
0

>  <PUBCHEM_BOND_DEF_STEREO_COUNT>  (1) 
0

>  <PUBCHEM_BOND_UDEF_STEREO_COUNT>  (1) 
0

>  <PUBCHEM_ISOTOPIC_ATOM_COUNT>  (1) 
0

>  <PUBCHEM_COMPONENT_COUNT>  (1) 
1

>  <PUBCHEM_CACTVS_TAUTO_COUNT>  (1) 
1

>  <PUBCHEM_CONFORMER_ID>  (1) 
000045DE00000001

>  <PUBCHEM_MMFF94_ENERGY>  (1) 
76.6648

>  <PUBCHEM_FEATURE_SELFOVERLAP>  (1) 
40.676

>  <PUBCHEM_SHAPE_FINGERPRINT>  (1) 
10 15 16343409670757441634
106641 1 17775557642686217090
10912923 1 18272092703657736912
10968037 39 17632863044955010917
11315181 36 17060344046026545929
11524674 6 16515691061287157659
11719270 70 17561365058526547310
11796584 16 18335425685920367266
12107183 9 17482286910956854282
12166972 35 18409731776942175137
12236239 1 18412826889341508611
12516196 113 17530684329146445285
12596602 18 18334579074608717219
13533116 47 18113898226518390786
13914758 101 18262234422701089281
14251752 14 18187358784423880933
14251764 18 18272933834036807277
15183329 4 18341898476022151203
17844677 252 18186802448657175492
17857418 61 18273213097179336967
20281389 69 18412545405590675857
21150785 3 15482679008966122876
21344244 78 18341880859174430392
220451 1 18335143111241657126
2297311 6 14490475262269340295
23081809 10 18272654554046906149
23402539 116 17775564248155832237
23522609 53 18127721337631261137
23536379 177 18412265034420086105
23559900 14 17774435100968903417
29717793 49 16515407356647491086
3004659 81 18341899576277505982
34797466 226 15502383322440084406
3545911 37 17632581565266718365
4072396 5 17775001267800049214
4073 2 18189900996867244098
4325135 7 18411141359607470716
4340502 62 17894907465138338538
5104073 3 17988645254700630211
59755656 215 16056611953513381708
59755656 520 18260264166668396691
67856867 119 17988079031882174793
8988823 20 18259983773980558030

>  <PUBCHEM_SHAPE_MULTIPOLES>  (1) 
435.8
19.79
1.71
1.12
17.59
0.01
-0.19
-0.48
-1.2
-3.23
-0.15
-0.7
-0.23
-1.99

>  <PUBCHEM_SHAPE_SELFOVERLAP>  (1) 
918.99

>  <PUBCHEM_SHAPE_VOLUME>  (1) 
246.6

>  <PUBCHEM_COORDINATE_TYPE>  (1) 
2
5
10

$$$$
