17884
     RDKit          3D

 18 20  0  0  0  0  0  0  0  0999 V2000
    2.4322    3.0596    0.0006 Cl  0  0  0  0  0  0  0  0  0  0  0  0
   -0.3753   -2.6822   -0.0024 O   0  0  0  0  0  0  0  0  0  0  0  0
   -0.2963    2.6583   -0.0023 O   0  0  0  0  0  0  0  0  0  0  0  0
    2.2282   -2.8679    0.0003 N   0  0  0  0  0  0  0  0  0  0  0  0
    0.9747   -0.7341   -0.0002 C   0  0  0  0  0  0  0  0  0  0  0  0
    1.0012    0.6621    0.0000 C   0  0  0  0  0  0  0  0  0  0  0  0
   -1.5709   -0.6861    0.0002 C   0  0  0  0  0  0  0  0  0  0  0  0
   -1.5445    0.7101   -0.0002 C   0  0  0  0  0  0  0  0  0  0  0  0
   -0.3122   -1.4592   -0.0003 C   0  0  0  0  0  0  0  0  0  0  0  0
   -0.2576    1.4351   -0.0007 C   0  0  0  0  0  0  0  0  0  0  0  0
    2.1749   -1.4551    0.0001 C   0  0  0  0  0  0  0  0  0  0  0  0
    2.2275    1.3373    0.0006 C   0  0  0  0  0  0  0  0  0  0  0  0
   -2.7974   -1.3613    0.0008 C   0  0  0  0  0  0  0  0  0  0  0  0
   -2.7447    1.4312   -0.0001 C   0  0  0  0  0  0  0  0  0  0  0  0
    3.3949   -0.7782    0.0005 C   0  0  0  0  0  0  0  0  0  0  0  0
    3.4211    0.6150    0.0009 C   0  0  0  0  0  0  0  0  0  0  0  0
   -3.9910   -0.6389    0.0013 C   0  0  0  0  0  0  0  0  0  0  0  0
   -3.9647    0.7543    0.0008 C   0  0  0  0  0  0  0  0  0  0  0  0
  1 12  1  0
  2  9  2  0
  3 10  2  0
  4 11  1  0
  5  6  2  0
  5  9  1  0
  5 11  1  0
  6 10  1  0
  6 12  1  0
  7  8  2  0
  7  9  1  0
  7 13  1  0
  8 10  1  0
  8 14  1  0
 11 15  2  0
 12 16  2  0
 13 17  2  0
 14 18  2  0
 15 16  1  0
 17 18  1  0
M  END
>  <PUBCHEM_COMPOUND_CID>  (1) 
17884

>  <PUBCHEM_CONFORMER_RMSD>  (1) 
0.4

>  <PUBCHEM_CONFORMER_DIVERSEORDER>  (1) 
1

>  <PUBCHEM_MMFF94_PARTIAL_CHARGES>  (1) 
26
1 -0.18
10 0.4
11 0.1
12 0.18
13 -0.15
14 -0.15
15 -0.15
16 -0.15
17 -0.15
18 -0.15
19 0.15
2 -0.57
20 0.15
21 0.15
22 0.15
23 0.15
24 0.15
25 0.4
26 0.4
3 -0.57
4 -0.9
5 0.09
6 0.09
7 0.09
8 0.09
9 0.4

>  <PUBCHEM_EFFECTIVE_ROTOR_COUNT>  (1) 
0

>  <PUBCHEM_PHARMACOPHORE_FEATURES>  (1) 
7
1 2 acceptor
1 3 acceptor
1 4 cation
1 4 donor
6 5 6 11 12 15 16 rings
6 5 6 7 8 9 10 rings
6 7 8 13 14 17 18 rings

>  <PUBCHEM_HEAVY_ATOM_COUNT>  (1) 
18

>  <PUBCHEM_ATOM_DEF_STEREO_COUNT>  (1) 
0

>  <PUBCHEM_ATOM_UDEF_STEREO_COUNT>  (1) 
0

>  <PUBCHEM_BOND_DEF_STEREO_COUNT>  (1) 
0

>  <PUBCHEM_BOND_UDEF_STEREO_COUNT>  (1) 
0

>  <PUBCHEM_ISOTOPIC_ATOM_COUNT>  (1) 
0

>  <PUBCHEM_COMPONENT_COUNT>  (1) 
1

>  <PUBCHEM_CACTVS_TAUTO_COUNT>  (1) 
3

>  <PUBCHEM_CONFORMER_ID>  (1) 
000045DC00000001

>  <PUBCHEM_MMFF94_ENERGY>  (1) 
70.6267

>  <PUBCHEM_FEATURE_SELFOVERLAP>  (1) 
35.562

>  <PUBCHEM_SHAPE_FINGERPRINT>  (1) 
10411042 1 17978510823656631079
10608611 8 18408882945106110949
10616163 171 18266462203021915622
10967382 1 18410575067530714982
10980938 120 18409730694124359890
11132069 177 18412256233694486545
11471102 20 18410570682353262188
12553582 1 18122347873928865515
13140716 1 18266171923799786600
13221675 6 18410855455880797238
13380535 76 18337952389056950066
138480 1 18338797793545301218
13897977 150 18410290315631250501
14790565 3 18337965596467098332
15196674 1 18410855460170379311
15442244 35 18195529194598909979
15536298 74 18343301470218312960
16945 1 18410573989789322790
18186145 218 18342463616546088853
193761 8 17906453577536602883
19591789 44 18266744756103904870
200 152 18131059451391504253
20559304 39 18409448055659911386
20645477 70 18409724041789854183
21267235 1 18410865355865076839
21501502 16 18340767147392593365
221490 88 18336554896814017194
2334 1 18410855486103687397
23402539 116 18342728620397202510
23463225 33 18409730638374187517
23559900 14 18413102840990302704
238 59 17829847093789406797
2748010 2 18410011035393208765
335352 9 17978228253705035005
34934 24 18411692175687098927
350125 39 18409735057990993829
5104073 3 18410293618339626849
7364860 26 18412826902068291360
8809292 202 18261117356761304939
9709674 26 18410860979251412135

>  <PUBCHEM_SHAPE_MULTIPOLES>  (1) 
355.58
6.24
3.06
0.6
2.71
0.15
0
0.45
0
-1.77
0
0
0.02
0

>  <PUBCHEM_SHAPE_SELFOVERLAP>  (1) 
797.477

>  <PUBCHEM_SHAPE_VOLUME>  (1) 
187.9

>  <PUBCHEM_COORDINATE_TYPE>  (1) 
2
5
10

$$$$
