1789
     RDKit          3D

 27 27  0  0  1  0  0  0  0  0999 V2000
    6.4360    1.2555    0.4225 P   0  0  0  0  0  0  0  0  0  0  0  0
   -1.6757    1.8894    1.8749 O   0  0  0  0  0  0  0  0  0  0  0  0
   -4.2096    1.6920   -0.7702 O   0  0  0  0  0  0  0  0  0  0  0  0
   -4.1032    4.0956    0.7434 O   0  0  0  0  0  0  0  0  0  0  0  0
   -3.1308    5.7140   -1.3200 O   0  0  0  0  0  0  0  0  0  0  0  0
    7.2718    2.3619   -0.3953 O   0  0  0  0  0  0  0  0  0  0  0  0
    5.8026    2.0773    1.6534 O   0  0  0  0  0  0  0  0  0  0  0  0
    0.6313   -4.1718   -1.5093 O   0  0  0  0  0  0  0  0  0  0  0  0
    7.1658    0.0064    0.7722 O   0  0  0  0  0  0  0  0  0  0  0  0
   -3.1382   -4.9135    1.0110 O   0  0  0  0  0  0  0  0  0  0  0  0
   -1.7798   -0.5291    0.3930 N   0  0  0  0  0  0  0  0  0  0  0  0
   -2.4141   -2.7635    0.6666 N   0  0  0  0  0  0  0  0  0  0  0  0
   -1.2501   -4.5599   -0.2516 N   0  0  0  0  0  0  0  0  0  0  0  0
   -2.8912    1.4666    1.2556 C   0  0  0  0  0  0  0  0  0  0  0  0
   -3.0080    2.1246   -0.1337 C   0  0  0  0  0  0  0  0  0  0  0  0
    1.7528   -1.1334   -0.3549 C   0  0  0  0  0  0  0  0  0  0  0  0
    0.5496   -1.3983   -1.2551 C   0  0  0  0  0  0  0  0  0  0  0  0
    2.7791   -0.1836   -0.9820 C   0  0  0  0  0  0  0  0  0  0  0  0
   -2.8970   -0.0651    1.1866 C   0  0  0  0  0  0  0  0  0  0  0  0
   -0.4915   -2.2699   -0.6079 C   0  0  0  0  0  0  0  0  0  0  0  0
   -3.0148    3.6640   -0.0758 C   0  0  0  0  0  0  0  0  0  0  0  0
    3.9491    0.0710   -0.0294 C   0  0  0  0  0  0  0  0  0  0  0  0
   -1.5369   -1.8372    0.1347 C   0  0  0  0  0  0  0  0  0  0  0  0
    5.0026    0.9837   -0.6431 C   0  0  0  0  0  0  0  0  0  0  0  0
   -3.1682    4.2969   -1.4581 C   0  0  0  0  0  0  0  0  0  0  0  0
   -0.3044   -3.7405   -0.8392 C   0  0  0  0  0  0  0  0  0  0  0  0
   -2.3270   -4.1329    0.5117 C   0  0  0  0  0  0  0  0  0  0  0  0
  1  6  1  0
  1  7  1  0
  1  9  2  0
  1 24  1  0
  2 14  1  0
  3 15  1  0
  4 21  1  0
  5 25  1  0
  8 26  2  0
 10 27  2  0
 11 19  1  0
 11 23  1  0
 12 23  1  0
 12 27  1  0
 13 26  1  0
 13 27  1  0
 14 15  1  0
 14 19  1  0
 15 21  1  0
 16 17  1  0
 16 18  1  0
 17 20  1  0
 18 22  1  0
 20 23  2  0
 20 26  1  0
 21 25  1  0
 22 24  1  0
M  END
>  <PUBCHEM_COMPOUND_CID>  (1) 
1789

>  <PUBCHEM_CONFORMER_RMSD>  (1) 
1.4

>  <PUBCHEM_CONFORMER_DIVERSEORDER>  (1) 
2
84
22
63
74
12
41
125
18
36
138
158
51
150
140
107
57
103
94
75
32
127
120
40
156
33
81
47
21
4
23
28
145
157
71
106
7
68
1
101
3
128
49
52
14
86
45
87
34
72
15
67
134
129
98
151
48
93
97
46
123
6
99
19
30
29
65
64
142
119
80
116
70
135
146
110
78
37
55
56
11
143
61
133
62
50
100
60
108
38
16
88
53
141
115
95
132
77
13
44
58
79
148
113
69
24
8
25
109
31
118
10
20
153
90
89
73
35
85
26
17
126
104
112
92
96
144
54
82
91
83
130
152
27
131
42
111
5
114
9
137
76
117
39
43
102
59
149
105
122
66
147
139
154
124
136
155
121

>  <PUBCHEM_MMFF94_PARTIAL_CHARGES>  (1) 
32
1 1.24
10 -0.57
11 -0.87
12 -0.54
13 -0.49
14 0.28
15 0.28
17 0.14
19 0.37
2 -0.68
20 -0.12
21 0.28
23 0.21
25 0.28
26 0.62
27 0.69
3 -0.68
4 -0.68
41 0.4
46 0.37
47 0.4
48 0.4
49 0.37
5 -0.68
50 0.4
51 0.4
52 0.5
53 0.5
6 -0.77
7 -0.77
8 -0.57
9 -0.7

>  <PUBCHEM_EFFECTIVE_ROTOR_COUNT>  (1) 
12

>  <PUBCHEM_PHARMACOPHORE_FEATURES>  (1) 
20
1 10 acceptor
1 11 cation
1 11 donor
1 12 donor
1 13 donor
1 2 acceptor
1 2 donor
1 3 acceptor
1 3 donor
1 4 acceptor
1 4 donor
1 5 acceptor
1 5 donor
1 6 acceptor
1 7 acceptor
1 8 acceptor
1 9 acceptor
4 1 6 7 9 anion
4 16 17 18 22 hydrophobe
6 12 13 20 23 26 27 rings

>  <PUBCHEM_HEAVY_ATOM_COUNT>  (1) 
27

>  <PUBCHEM_ATOM_DEF_STEREO_COUNT>  (1) 
0

>  <PUBCHEM_ATOM_UDEF_STEREO_COUNT>  (1) 
3

>  <PUBCHEM_BOND_DEF_STEREO_COUNT>  (1) 
0

>  <PUBCHEM_BOND_UDEF_STEREO_COUNT>  (1) 
0

>  <PUBCHEM_ISOTOPIC_ATOM_COUNT>  (1) 
0

>  <PUBCHEM_COMPONENT_COUNT>  (1) 
1

>  <PUBCHEM_CACTVS_TAUTO_COUNT>  (1) 
9

>  <PUBCHEM_CONFORMER_ID>  (1) 
000006FD00000002

>  <PUBCHEM_MMFF94_ENERGY>  (1) 
17.5147

>  <PUBCHEM_FEATURE_SELFOVERLAP>  (1) 
101.648

>  <PUBCHEM_SHAPE_FINGERPRINT>  (1) 
100830 39 18339644546812197620
11059845 2 18193251063416984624
12107183 9 18263071125512378994
13134695 92 16751287484999709423
15326921 28 18339346475855353080
16988056 13 17040069845578192524
16992779 147 17406575614095354865
18335252 114 15882927230661851517
23522609 53 17749969829844333052
3117164 225 18337948983992254226
3418910 222 17686628244467997820
376196 1 18196655081721460879
4409770 3 18341327915603537263
508706 21 18270669978661931208
57124632 79 17978228253668163529
7399639 24 18046932410973107283
9981440 41 18263367988718347817

>  <PUBCHEM_SHAPE_MULTIPOLES>  (1) 
491.73
13.19
8.22
1.4
35.04
0.73
-0.11
-15.73
-3.03
-13.47
1.96
-0.32
-0.53
2.48

>  <PUBCHEM_SHAPE_SELFOVERLAP>  (1) 
966.166

>  <PUBCHEM_SHAPE_VOLUME>  (1) 
294.1

>  <PUBCHEM_COORDINATE_TYPE>  (1) 
2
5
10

$$$$
