17890
     RDKit          3D

 15 16  0  0  0  0  0  0  0  0999 V2000
    1.9375    0.5612   -1.7669 O   0  0  0  0  0  0  0  0  0  0  0  0
    0.1939    0.8525   -0.2162 C   0  0  0  0  0  0  0  0  0  0  0  0
   -0.7908   -0.1442   -0.1196 C   0  0  0  0  0  0  0  0  0  0  0  0
    2.5987    0.2291    0.5271 C   0  0  0  0  0  0  0  0  0  0  0  0
   -2.1119    0.2203    0.2334 C   0  0  0  0  0  0  0  0  0  0  0  0
    1.5774    0.5542   -0.5750 C   0  0  0  0  0  0  0  0  0  0  0  0
    3.7167   -0.7025    0.0587 C   0  0  0  0  0  0  0  0  0  0  0  0
   -0.1194    2.1894    0.0315 C   0  0  0  0  0  0  0  0  0  0  0  0
   -0.4935   -1.4945   -0.3656 C   0  0  0  0  0  0  0  0  0  0  0  0
   -2.4094    1.5706    0.4798 C   0  0  0  0  0  0  0  0  0  0  0  0
   -1.4185    2.5478    0.3791 C   0  0  0  0  0  0  0  0  0  0  0  0
   -3.0967   -0.7763    0.3302 C   0  0  0  0  0  0  0  0  0  0  0  0
    4.6839   -1.0231    1.1864 C   0  0  0  0  0  0  0  0  0  0  0  0
   -1.4844   -2.4714   -0.2651 C   0  0  0  0  0  0  0  0  0  0  0  0
   -2.7836   -2.1130    0.0821 C   0  0  0  0  0  0  0  0  0  0  0  0
  1  6  2  0
  2  3  2  0
  2  6  1  0
  2  8  1  0
  3  5  1  0
  3  9  1  0
  4  6  1  0
  4  7  1  0
  5 10  2  0
  5 12  1  0
  7 13  1  0
  8 11  2  0
  9 14  2  0
 10 11  1  0
 12 15  2  0
 14 15  1  0
M  END
>  <PUBCHEM_COMPOUND_CID>  (1) 
17890

>  <PUBCHEM_CONFORMER_RMSD>  (1) 
0.6

>  <PUBCHEM_CONFORMER_DIVERSEORDER>  (1) 
1
12
5
8
9
13
16
7
15
6
2
14
10
11
3
4

>  <PUBCHEM_MMFF94_PARTIAL_CHARGES>  (1) 
18
1 -0.57
10 -0.15
11 -0.15
12 -0.15
14 -0.15
15 -0.15
2 0.09
20 0.15
21 0.15
22 0.15
23 0.15
24 0.15
28 0.15
29 0.15
4 0.06
6 0.42
8 -0.15
9 -0.15

>  <PUBCHEM_EFFECTIVE_ROTOR_COUNT>  (1) 
3

>  <PUBCHEM_PHARMACOPHORE_FEATURES>  (1) 
4
1 1 acceptor
1 13 hydrophobe
6 2 3 5 8 10 11 rings
6 3 5 9 12 14 15 rings

>  <PUBCHEM_HEAVY_ATOM_COUNT>  (1) 
15

>  <PUBCHEM_ATOM_DEF_STEREO_COUNT>  (1) 
0

>  <PUBCHEM_ATOM_UDEF_STEREO_COUNT>  (1) 
0

>  <PUBCHEM_BOND_DEF_STEREO_COUNT>  (1) 
0

>  <PUBCHEM_BOND_UDEF_STEREO_COUNT>  (1) 
0

>  <PUBCHEM_ISOTOPIC_ATOM_COUNT>  (1) 
0

>  <PUBCHEM_COMPONENT_COUNT>  (1) 
1

>  <PUBCHEM_CACTVS_TAUTO_COUNT>  (1) 
2

>  <PUBCHEM_CONFORMER_ID>  (1) 
000045E200000001

>  <PUBCHEM_MMFF94_ENERGY>  (1) 
42.6439

>  <PUBCHEM_FEATURE_SELFOVERLAP>  (1) 
20.324

>  <PUBCHEM_SHAPE_FINGERPRINT>  (1) 
11357001 24 18409727339781295203
11578080 2 17751334340047424140
11680986 33 17977678506602679835
12553582 1 18196665213486164551
13140716 1 18269563891544181097
13380535 76 18196092145079968797
13538477 17 18334585650166756364
14420673 8 17834954171199548578
15042514 8 18410016507403246027
15375462 189 18118698848228590114
15669948 3 18339091461807617036
16752209 62 18336255778396244191
16945 1 18341910601136866317
17780758 139 18121193430640156322
17804303 29 18341897355573724474
1813 80 17241335642949425494
19049666 15 17558562309282699814
193761 8 17835252151449616927
20361792 2 16877939413284970276
20510252 161 18201721704321809296
20871998 184 18201719556832710990
21650355 55 18412255117224958040
22112679 90 18187657890035860292
23184049 29 18268147737172389940
232386 152 18410013281793096918
2334 1 17765723803427763799
23402539 116 18200863020569532053
23419403 2 17977911851791010060
23463225 33 18408608092852861270
23552423 10 17545046360755827989
23559900 14 18129113225721522982
23598291 2 17822869601731873172
23728640 28 18337668616156763427
257057 1 18054215811501505543
2748010 2 17979659852515406317
3086196 2 18340476825041709474
43471831 8 18264207997989939850
5706482 22 18268988687706127145
58807428 26 18123197800959939571
6338986 31 18054780956151729127
6992083 37 18114751412780970836
7364860 26 17265549405374279301
77492 1 17895489067559882268
81228 2 18270698518539829697
90316 7 18410577279428764889

>  <PUBCHEM_SHAPE_MULTIPOLES>  (1) 
302.82
6.08
2.65
0.95
7.46
0.16
-0.18
-2.73
1.96
-2.18
0.13
0.69
0.04
-0.64

>  <PUBCHEM_SHAPE_SELFOVERLAP>  (1) 
648.077

>  <PUBCHEM_SHAPE_VOLUME>  (1) 
169.3

>  <PUBCHEM_COORDINATE_TYPE>  (1) 
2
5
10

$$$$
