17892
     RDKit          3D

 16 16  0  0  0  0  0  0  0  0999 V2000
    0.3761   -2.6820    0.3600 Cl  0  0  0  0  0  0  0  0  0  0  0  0
    0.3538    2.6950    0.3496 Cl  0  0  0  0  0  0  0  0  0  0  0  0
   -2.7712    2.7141   -0.1605 Cl  0  0  0  0  0  0  0  0  0  0  0  0
   -2.7484   -2.7287   -0.1505 Cl  0  0  0  0  0  0  0  0  0  0  0  0
   -4.3170   -0.0143   -0.4104 Cl  0  0  0  0  0  0  0  0  0  0  0  0
    1.5050    0.0116    0.5411 O   0  0  0  0  0  0  0  0  0  0  0  0
    4.5959   -0.0270   -1.2749 O   0  0  0  0  0  0  0  0  0  0  0  0
    4.1948    0.0183    0.9667 O   0  0  0  0  0  0  0  0  0  0  0  0
    0.1562    0.0056    0.3205 C   0  0  0  0  0  0  0  0  0  0  0  0
   -0.5270   -1.2054    0.2104 C   0  0  0  0  0  0  0  0  0  0  0  0
   -0.5371    1.2106    0.2056 C   0  0  0  0  0  0  0  0  0  0  0  0
   -1.9137    1.2046   -0.0194 C   0  0  0  0  0  0  0  0  0  0  0  0
   -1.9035   -1.2115   -0.0147 C   0  0  0  0  0  0  0  0  0  0  0  0
   -2.5970   -0.0066   -0.1295 C   0  0  0  0  0  0  0  0  0  0  0  0
    2.3452    0.0128   -0.6089 C   0  0  0  0  0  0  0  0  0  0  0  0
    3.7878    0.0029   -0.1853 C   0  0  0  0  0  0  0  0  0  0  0  0
  1 10  1  0
  2 11  1  0
  3 12  1  0
  4 13  1  0
  5 14  1  0
  6  9  1  0
  6 15  1  0
  7 16  1  0
  8 16  2  0
  9 10  2  0
  9 11  1  0
 10 13  1  0
 11 12  2  0
 12 14  1  0
 13 14  2  0
 15 16  1  0
M  END
>  <PUBCHEM_COMPOUND_CID>  (1) 
17892

>  <PUBCHEM_CONFORMER_RMSD>  (1) 
0.6

>  <PUBCHEM_CONFORMER_DIVERSEORDER>  (1) 
1
5
4
3
2
6

>  <PUBCHEM_MMFF94_PARTIAL_CHARGES>  (1) 
17
1 -0.18
10 0.18
11 0.18
12 0.18
13 0.18
14 0.18
15 0.34
16 0.66
19 0.5
2 -0.18
3 -0.18
4 -0.18
5 -0.18
6 -0.36
7 -0.65
8 -0.57
9 0.08

>  <PUBCHEM_EFFECTIVE_ROTOR_COUNT>  (1) 
3

>  <PUBCHEM_PHARMACOPHORE_FEATURES>  (1) 
5
1 6 acceptor
1 7 acceptor
1 8 acceptor
3 7 8 16 anion
6 9 10 11 12 13 14 rings

>  <PUBCHEM_HEAVY_ATOM_COUNT>  (1) 
16

>  <PUBCHEM_ATOM_DEF_STEREO_COUNT>  (1) 
0

>  <PUBCHEM_ATOM_UDEF_STEREO_COUNT>  (1) 
0

>  <PUBCHEM_BOND_DEF_STEREO_COUNT>  (1) 
0

>  <PUBCHEM_BOND_UDEF_STEREO_COUNT>  (1) 
0

>  <PUBCHEM_ISOTOPIC_ATOM_COUNT>  (1) 
0

>  <PUBCHEM_COMPONENT_COUNT>  (1) 
1

>  <PUBCHEM_CACTVS_TAUTO_COUNT>  (1) 
1

>  <PUBCHEM_CONFORMER_ID>  (1) 
000045E400000001

>  <PUBCHEM_MMFF94_ENERGY>  (1) 
44.1527

>  <PUBCHEM_FEATURE_SELFOVERLAP>  (1) 
25.434

>  <PUBCHEM_SHAPE_FINGERPRINT>  (1) 
10062212 137 18187635865279873778
10967382 1 18410852131871489787
11132069 177 18412824706970608194
11680986 33 18124028194358730073
12236239 1 17676482844171015874
13140716 1 18266742570529709745
13862211 1 18410848893730256427
14115302 16 18260552268151319853
14614273 12 18115582647855746981
14790565 3 18339092514365605625
14911166 2 18410848880865979597
16752209 62 18409444778373082762
16945 1 18410562994952561539
17804303 29 18339926016939786777
193761 8 17834392324466074747
20510252 161 18343302535349474104
20645476 183 17749112230893898602
20871999 31 18411710902108539116
21029758 11 18272081712836959065
21029758 27 18260557744461773957
21501502 16 18122056508085479923
22182313 1 17976522129871337103
2334 1 17905602556116849123
23366157 5 17680432139071573034
23402539 116 18341602728921831126
23419403 2 17345176986471276753
23526113 38 17775565329991796690
23557571 272 18130516249260217388
23559900 14 18272089341315451078
2748010 2 18049712216564526755
43471831 8 18263359209462641034
53812653 8 18336824191627206883
559249 180 18191020102431548098
7364860 26 17836361554055117082
77492 1 17676201369125726960
81228 2 18200050451169566160
9709674 26 18272376317602443022

>  <PUBCHEM_SHAPE_MULTIPOLES>  (1) 
321.01
7.03
3.03
0.81
6.09
0
0.07
0.01
1.52
-2.44
-0.26
0.53
0
0.01

>  <PUBCHEM_SHAPE_SELFOVERLAP>  (1) 
626.869

>  <PUBCHEM_SHAPE_VOLUME>  (1) 
197.4

>  <PUBCHEM_COORDINATE_TYPE>  (1) 
2
5
10

$$$$
