17904
     RDKit          3D

 15 16  0  0  1  0  0  0  0  0999 V2000
   -3.7118   -2.0596    0.0533 Cl  0  0  0  0  0  0  0  0  0  0  0  0
    2.1268    1.8701   -0.0865 O   0  0  0  0  0  0  0  0  0  0  0  0
    1.1059   -0.2869   -0.0930 N   0  0  0  0  0  0  0  0  0  0  0  0
    3.4480   -0.1441   -0.3014 C   0  0  0  0  0  0  0  0  0  0  0  0
    3.0658   -1.5221    0.2181 C   0  0  0  0  0  0  0  0  0  0  0  0
    1.6098   -1.6445   -0.1844 C   0  0  0  0  0  0  0  0  0  0  0  0
    2.1619    0.6487   -0.1234 C   0  0  0  0  0  0  0  0  0  0  0  0
    4.6277    0.4647    0.4331 C   0  0  0  0  0  0  0  0  0  0  0  0
   -0.2899    0.0047   -0.0463 C   0  0  0  0  0  0  0  0  0  0  0  0
   -1.2256   -1.0336   -0.0211 C   0  0  0  0  0  0  0  0  0  0  0  0
   -0.7308    1.3311   -0.0263 C   0  0  0  0  0  0  0  0  0  0  0  0
   -2.5901   -0.7480    0.0238 C   0  0  0  0  0  0  0  0  0  0  0  0
   -2.0952    1.6169    0.0186 C   0  0  0  0  0  0  0  0  0  0  0  0
   -3.0250    0.5772    0.0437 C   0  0  0  0  0  0  0  0  0  0  0  0
   -4.4775    0.9254    0.0919 C   0  0  0  0  0  0  0  0  0  0  0  0
  1 12  1  0
  2  7  2  0
  3  6  1  0
  3  7  1  0
  3  9  1  0
  4  5  1  0
  4  7  1  0
  4  8  1  0
  5  6  1  0
  9 10  2  0
  9 11  1  0
 10 12  1  0
 11 13  2  0
 12 14  2  0
 13 14  1  0
 14 15  1  0
M  END
>  <PUBCHEM_COMPOUND_CID>  (1) 
17904

>  <PUBCHEM_CONFORMER_RMSD>  (1) 
0.6

>  <PUBCHEM_CONFORMER_DIVERSEORDER>  (1) 
1
3
2
4

>  <PUBCHEM_MMFF94_PARTIAL_CHARGES>  (1) 
16
1 -0.18
10 -0.15
11 -0.15
12 0.18
13 -0.15
14 -0.14
15 0.14
2 -0.57
24 0.15
25 0.15
26 0.15
3 -0.48
4 0.06
6 0.3
7 0.57
9 0.12

>  <PUBCHEM_EFFECTIVE_ROTOR_COUNT>  (1) 
1.8

>  <PUBCHEM_PHARMACOPHORE_FEATURES>  (1) 
3
1 2 acceptor
5 3 4 5 6 7 rings
6 9 10 11 12 13 14 rings

>  <PUBCHEM_HEAVY_ATOM_COUNT>  (1) 
15

>  <PUBCHEM_ATOM_DEF_STEREO_COUNT>  (1) 
0

>  <PUBCHEM_ATOM_UDEF_STEREO_COUNT>  (1) 
1

>  <PUBCHEM_BOND_DEF_STEREO_COUNT>  (1) 
0

>  <PUBCHEM_BOND_UDEF_STEREO_COUNT>  (1) 
0

>  <PUBCHEM_ISOTOPIC_ATOM_COUNT>  (1) 
0

>  <PUBCHEM_COMPONENT_COUNT>  (1) 
1

>  <PUBCHEM_CACTVS_TAUTO_COUNT>  (1) 
2

>  <PUBCHEM_CONFORMER_ID>  (1) 
000045F000000001

>  <PUBCHEM_MMFF94_ENERGY>  (1) 
42.4517

>  <PUBCHEM_FEATURE_SELFOVERLAP>  (1) 
15.223

>  <PUBCHEM_SHAPE_FINGERPRINT>  (1) 
10608611 8 18410853235419888300
10616163 171 18412547647463546615
10967382 1 18338517426253590479
11132069 177 18410292501679874913
11471102 20 18410853222518824508
11806522 49 18335982064362315830
12251169 10 18410294687744414509
12932764 1 17458337512036879271
13214271 11 18342453759754335335
13296908 3 18410857685243221351
13380535 76 18410293592612364390
14144814 61 18411137991856737938
14325111 11 18410575071794007812
14445660 50 18271534121580547681
15196674 1 18410856568520036902
15219456 202 18341615892970336255
15442244 35 18122626050671295298
15536298 74 18342176627079315934
15775835 57 18409453557090972392
16945 1 18267873778720743695
17802600 8 18410006637257384092
17834074 16 18411703183772694075
18186145 218 17894345575161143855
18522853 276 18413387614159258720
19050596 39 18408604772742667802
19107657 46 18411419518299508495
200 152 18059848480974589423
20201158 50 18411138008851984202
20510252 161 18128255584660569417
20528008 55 18412259511028898309
20645477 56 18261672584880590085
20645477 70 18199748055117097431
20871998 184 18202004339340687911
21267235 1 18338244850723670575
21501502 16 18409732876009918279
21501925 9 18409724105787069546
221490 88 18409458006967618226
22485316 2 18409165497945344707
23402539 116 18334569165902854638
23402655 69 18340483366055673589
23463225 33 18409450271409355556
23557571 272 18200887256590136727
23559900 14 18341328899424938778
2748010 2 18411136974123536165
2871803 45 18335696195687107743
3312278 4 18412547608776581771
34934 24 18409442557906580651
3545911 37 18411420587635341932
5104073 3 18411698777167982274
53812653 166 18342452643300273632
57096353 35 18336269053881791326
58051976 100 18410576193065464927
58051976 378 18342175548646795079
69090 78 18412259502618324863
7364860 26 18270681940114020014
77779 3 18411703183598497326
8809292 202 18334019388740860739
9709674 26 18410580590843522015

>  <PUBCHEM_SHAPE_MULTIPOLES>  (1) 
299.71
8.26
1.98
0.64
1.07
0.32
-0.01
0.17
-0.63
-0.79
-0.01
0.07
0.02
0.01

>  <PUBCHEM_SHAPE_SELFOVERLAP>  (1) 
624.501

>  <PUBCHEM_SHAPE_VOLUME>  (1) 
173.9

>  <PUBCHEM_COORDINATE_TYPE>  (1) 
2
5
10

$$$$
