17918
     RDKit          3D

 25 26  0  0  1  0  0  0  0  0999 V2000
   -1.0038    1.1450    0.5473 O   0  0  0  0  0  0  0  0  0  0  0  0
    1.2243    0.5528    1.8936 O   0  0  0  0  0  0  0  0  0  0  0  0
    0.5432    2.2273   -0.7656 O   0  0  0  0  0  0  0  0  0  0  0  0
   -4.0478    0.2223   -0.9886 N   0  0  0  0  0  0  0  0  0  0  0  0
   -3.8698    0.3598    0.4568 C   0  0  0  0  0  0  0  0  0  0  0  0
   -3.3227    1.7471    0.8231 C   0  0  0  0  0  0  0  0  0  0  0  0
    1.2061    0.2321    0.4875 C   0  0  0  0  0  0  0  0  0  0  0  0
   -1.9959    2.0830    0.1476 C   0  0  0  0  0  0  0  0  0  0  0  0
   -5.2133    0.1178    1.1432 C   0  0  0  0  0  0  0  0  0  0  0  0
    0.6392   -1.1753    0.2881 C   0  0  0  0  0  0  0  0  0  0  0  0
    2.6159    0.3408   -0.0985 C   0  0  0  0  0  0  0  0  0  0  0  0
    0.2482    1.3276    0.0121 C   0  0  0  0  0  0  0  0  0  0  0  0
   -5.0236    1.1953   -1.4778 C   0  0  0  0  0  0  0  0  0  0  0  0
   -4.4686   -1.1372   -1.3246 C   0  0  0  0  0  0  0  0  0  0  0  0
    0.8626   -2.1195    1.2637 C   0  0  0  0  0  0  0  0  0  0  0  0
    2.7549    0.7261   -1.4120 C   0  0  0  0  0  0  0  0  0  0  0  0
   -0.0725   -1.4424   -0.8587 C   0  0  0  0  0  0  0  0  0  0  0  0
    3.6898    0.0494    0.7107 C   0  0  0  0  0  0  0  0  0  0  0  0
    0.3457   -3.4023    1.0822 C   0  0  0  0  0  0  0  0  0  0  0  0
    4.0396    0.8253   -1.9461 C   0  0  0  0  0  0  0  0  0  0  0  0
   -0.5894   -2.7253   -1.0401 C   0  0  0  0  0  0  0  0  0  0  0  0
    4.9744    0.1489    0.1765 C   0  0  0  0  0  0  0  0  0  0  0  0
    1.6942    1.8697    2.1009 C   0  0  0  0  0  0  0  0  0  0  0  0
   -0.3802   -3.7051   -0.0695 C   0  0  0  0  0  0  0  0  0  0  0  0
    5.1493    0.5369   -1.1520 C   0  0  0  0  0  0  0  0  0  0  0  0
  1  8  1  0
  1 12  1  0
  2  7  1  0
  2 23  1  0
  3 12  2  0
  4  5  1  0
  4 13  1  0
  4 14  1  0
  5  6  1  0
  5  9  1  0
  6  8  1  0
  7 10  1  0
  7 11  1  0
  7 12  1  0
 10 15  2  0
 10 17  1  0
 11 16  2  0
 11 18  1  0
 15 19  1  0
 16 20  1  0
 17 21  2  0
 18 22  2  0
 19 24  2  0
 20 25  2  0
 21 24  1  0
 22 25  1  0
M  END
>  <PUBCHEM_COMPOUND_CID>  (1) 
17918

>  <PUBCHEM_CONFORMER_RMSD>  (1) 
1

>  <PUBCHEM_CONFORMER_DIVERSEORDER>  (1) 
1
13
35
74
80
39
66
64
33
76
65
28
42
30
24
51
54
55
26
15
40
71
41
34
17
47
25
57
29
63
49
44
48
79
58
50
7
60
75
77
56
11
69
38
14
21
72
73
4
12
53
62
31
32
23
70
67
78
20
59
27
19
68
9
16
61
45
6
37
18
2
5
43
3
22
10
52
46
8
36

>  <PUBCHEM_MMFF94_PARTIAL_CHARGES>  (1) 
33
1 -0.43
10 -0.14
11 -0.14
12 0.66
13 0.27
14 0.27
15 -0.15
16 -0.15
17 -0.15
18 -0.15
19 -0.15
2 -0.56
20 -0.15
21 -0.15
22 -0.15
23 0.28
24 -0.15
25 -0.15
3 -0.57
4 -0.81
40 0.15
41 0.15
42 0.15
43 0.15
44 0.15
45 0.15
46 0.15
47 0.15
5 0.27
51 0.15
52 0.15
7 0.63
8 0.28

>  <PUBCHEM_EFFECTIVE_ROTOR_COUNT>  (1) 
9

>  <PUBCHEM_PHARMACOPHORE_FEATURES>  (1) 
5
1 2 acceptor
1 3 acceptor
1 4 cation
6 10 15 17 19 21 24 rings
6 11 16 18 20 22 25 rings

>  <PUBCHEM_HEAVY_ATOM_COUNT>  (1) 
25

>  <PUBCHEM_ATOM_DEF_STEREO_COUNT>  (1) 
0

>  <PUBCHEM_ATOM_UDEF_STEREO_COUNT>  (1) 
1

>  <PUBCHEM_BOND_DEF_STEREO_COUNT>  (1) 
0

>  <PUBCHEM_BOND_UDEF_STEREO_COUNT>  (1) 
0

>  <PUBCHEM_ISOTOPIC_ATOM_COUNT>  (1) 
0

>  <PUBCHEM_COMPONENT_COUNT>  (1) 
1

>  <PUBCHEM_CACTVS_TAUTO_COUNT>  (1) 
1

>  <PUBCHEM_CONFORMER_ID>  (1) 
000045FE00000001

>  <PUBCHEM_MMFF94_ENERGY>  (1) 
89.3528

>  <PUBCHEM_FEATURE_SELFOVERLAP>  (1) 
25.372

>  <PUBCHEM_SHAPE_FINGERPRINT>  (1) 
10090160 65 18114185194125023330
10366900 7 18342731893668827321
108634 29 17838879779274859167
11488393 25 17842018601241048391
11578080 2 17627523953518489368
12293681 25 17558581138398746926
12553582 1 18272928298573315577
12969540 114 18187082896820093716
13052359 8 18335142050189854906
13149001 5 18129949004424000056
13583140 156 16516547614646016832
14251757 17 16773805770218323846
14787075 74 18060137660964971264
14790565 3 18409177609706419748
15209289 33 18131072640724555529
15537594 2 18343303652763293383
15849732 13 17822011991626552134
1601671 61 18333165063784420013
16752209 62 18264204880133703338
18681886 176 18259984911356386708
19591789 44 18340481162837664386
20197701 30 18334576824119661254
20567600 347 18338528438523629987
21344244 181 17844832341764564014
21421861 104 17765169275615365665
22393880 68 18130207321226954261
22956985 138 17900259697825853554
23419403 2 17272863253674315530
298252 57 18114756987864617112
3052486 1 18264194984370577034
3493558 16 13987797400302409629
3759504 43 18041005084762597210
404807 78 18115301328337271867
56616090 284 17631752469338629780
59755656 215 18202001062481328735
81228 2 17979336883284662122

>  <PUBCHEM_SHAPE_MULTIPOLES>  (1) 
491.9
9.75
3.22
1.73
4.45
3.46
0.04
-4.2
-3.23
0.9
0.47
-0.35
-0.32
-0.61

>  <PUBCHEM_SHAPE_SELFOVERLAP>  (1) 
1035.492

>  <PUBCHEM_SHAPE_VOLUME>  (1) 
276.7

>  <PUBCHEM_COORDINATE_TYPE>  (1) 
2
5
10

$$$$
