1791
     RDKit          3D

 27 29  0  0  1  0  0  0  0  0999 V2000
    2.7372   -2.6817   -0.9078 Cl  0  0  0  0  0  0  0  0  0  0  0  0
    1.6017    0.0338   -1.5323 O   0  0  0  0  0  0  0  0  0  0  0  0
    7.4119    1.3510    0.5488 O   0  0  0  0  0  0  0  0  0  0  0  0
   -8.5158   -0.6877    1.4154 O   0  0  0  0  0  0  0  0  0  0  0  0
    7.5815   -0.9176    0.7883 N   0  0  0  0  0  0  0  0  0  0  0  0
   -9.7766   -1.1380    1.0434 N   0  0  0  0  0  0  0  0  0  0  0  0
   -3.1886    0.1620   -0.4237 C   0  0  0  0  0  0  0  0  0  0  0  0
   -4.2864    0.8888    0.3562 C   0  0  0  0  0  0  0  0  0  0  0  0
   -1.8184    0.7950   -0.1761 C   0  0  0  0  0  0  0  0  0  0  0  0
   -5.6621    0.2738    0.0806 C   0  0  0  0  0  0  0  0  0  0  0  0
   -0.7276    0.0909   -0.9801 C   0  0  0  0  0  0  0  0  0  0  0  0
   -6.7941    0.9488    0.8633 C   0  0  0  0  0  0  0  0  0  0  0  0
    0.6324    0.7420   -0.7722 C   0  0  0  0  0  0  0  0  0  0  0  0
   -8.1470    0.3346    0.6019 C   0  0  0  0  0  0  0  0  0  0  0  0
    8.8195   -0.3160    1.3110 C   0  0  0  0  0  0  0  0  0  0  0  0
    8.7872    1.1156    0.8150 C   0  0  0  0  0  0  0  0  0  0  0  0
    6.8720    0.1123    0.4467 C   0  0  0  0  0  0  0  0  0  0  0  0
    5.4962    0.0834   -0.0697 C   0  0  0  0  0  0  0  0  0  0  0  0
    2.8846    0.0302   -1.0494 C   0  0  0  0  0  0  0  0  0  0  0  0
   -9.1391    0.5787   -0.3105 C   0  0  0  0  0  0  0  0  0  0  0  0
   10.0286   -1.0914    0.8237 C   0  0  0  0  0  0  0  0  0  0  0  0
    4.8362   -1.1349   -0.2304 C   0  0  0  0  0  0  0  0  0  0  0  0
    4.8504    1.2752   -0.3988 C   0  0  0  0  0  0  0  0  0  0  0  0
    3.5303   -1.1615   -0.7201 C   0  0  0  0  0  0  0  0  0  0  0  0
    3.5447    1.2485   -0.8889 C   0  0  0  0  0  0  0  0  0  0  0  0
  -10.1284   -0.3668    0.0108 C   0  0  0  0  0  0  0  0  0  0  0  0
  -11.4303   -0.5689   -0.6452 C   0  0  0  0  0  0  0  0  0  0  0  0
  1 24  1  0
  2 13  1  0
  2 19  1  0
  3 16  1  0
  3 17  1  0
  4  6  1  0
  4 14  1  0
  5 15  1  0
  5 17  2  0
  6 26  2  0
  7  8  1  0
  7  9  1  0
  8 10  1  0
  9 11  1  0
 10 12  1  0
 11 13  1  0
 12 14  1  0
 14 20  2  0
 15 16  1  0
 15 21  1  0
 17 18  1  0
 18 22  2  0
 18 23  1  0
 19 24  2  0
 19 25  1  0
 20 26  1  0
 22 24  1  0
 23 25  2  0
 26 27  1  0
M  END
>  <PUBCHEM_COMPOUND_CID>  (1) 
1791

>  <PUBCHEM_CONFORMER_RMSD>  (1) 
1.4

>  <PUBCHEM_CONFORMER_DIVERSEORDER>  (1) 
1
45
46
24
7
37
35
77
50
39
80
70
67
17
71
54
6
44
55
31
59
11
79
34
68
20
72
51
62
47
19
75
13
78
53
15
29
5
18
64
8
58
16
25
41
42
14
57
56
30
4
48
2
66
23
12
52
9
76
61
26
21
65
10
22
36
28
43
38
73
81
33
82
32
69
74
3
40
49
63
60
27

>  <PUBCHEM_MMFF94_PARTIAL_CHARGES>  (1) 
25
1 -0.18
12 0.18
13 0.28
14 -0.04
15 0.25
16 0.28
17 0.51
18 0.09
19 0.08
2 -0.36
20 -0.15
22 -0.15
23 -0.15
24 0.18
25 -0.15
26 0.11
27 0.18
3 -0.43
4 -0.02
45 0.15
49 0.15
5 -0.7
50 0.15
51 0.15
6 -0.41

>  <PUBCHEM_EFFECTIVE_ROTOR_COUNT>  (1) 
10.6

>  <PUBCHEM_PHARMACOPHORE_FEATURES>  (1) 
7
1 2 acceptor
1 6 acceptor
3 7 9 11 hydrophobe
3 8 10 12 hydrophobe
5 3 5 15 16 17 rings
5 4 6 14 20 26 rings
6 18 19 22 23 24 25 rings

>  <PUBCHEM_HEAVY_ATOM_COUNT>  (1) 
27

>  <PUBCHEM_ATOM_DEF_STEREO_COUNT>  (1) 
0

>  <PUBCHEM_ATOM_UDEF_STEREO_COUNT>  (1) 
1

>  <PUBCHEM_BOND_DEF_STEREO_COUNT>  (1) 
0

>  <PUBCHEM_BOND_UDEF_STEREO_COUNT>  (1) 
0

>  <PUBCHEM_ISOTOPIC_ATOM_COUNT>  (1) 
0

>  <PUBCHEM_COMPONENT_COUNT>  (1) 
1

>  <PUBCHEM_CACTVS_TAUTO_COUNT>  (1) 
1

>  <PUBCHEM_CONFORMER_ID>  (1) 
000006FF00000001

>  <PUBCHEM_MMFF94_ENERGY>  (1) 
48.3508

>  <PUBCHEM_FEATURE_SELFOVERLAP>  (1) 
35.522

>  <PUBCHEM_SHAPE_FINGERPRINT>  (1) 
10 15 16988844973667220301
10162869 55 18342455967705311149
10165383 225 13254793539088781476
106641 1 17917992776451265085
10883706 142 17632858620342117596
11534866 41 17895192170020939138
11607047 141 15769499717486481318
11638347 137 18259984856080214706
12089408 11 14549019858291144549
12539745 222 17822006467756187541
12664476 115 12823293481505919683
14117953 113 13262399951142898312
14251764 18 17775010081568747709
14251764 46 18410854360621815265
14344974 52 12679169531780954717
14428016 248 14261635041040917387
15065858 18 17095522924762847053
15247644 1 16805325496560483467
15326923 82 15936412256560765372
15510794 2 17822007593216050741
155225 1 14045740426204013194
15690457 1 17385443223820145721
15706992 2 15482672402852357792
15840311 113 17846216683761803576
1754911 235 10231753379805505569
212700 22 18260269655784437267
232437 2 17603303747650400537
24893992 56 17775281694577704522
4874694 18 18411699890235021831
54076057 127 17274546430009830486
5758199 1 14836410212407883005
57828716 8 18261106397139239963
59521099 67 13984670265217644862
59521270 166 14490465375803159871
59682541 35 17775286071313065257
6081469 158 8070032168316426322
67123 10 17703790323743664765
9663363 56 11241970387652051694
9937071 3 14490191596379657304

>  <PUBCHEM_SHAPE_MULTIPOLES>  (1) 
529.95
44.27
1.51
1.18
70.86
0.71
0.05
4.01
16.98
-1.98
-0.15
-0.36
0.08
0.11

>  <PUBCHEM_SHAPE_SELFOVERLAP>  (1) 
1091.08

>  <PUBCHEM_SHAPE_VOLUME>  (1) 
307.2

>  <PUBCHEM_COORDINATE_TYPE>  (1) 
2
5
10

$$$$
