17915
     RDKit          3D

 28 30  0  0  0  0  0  0  0  0999 V2000
    0.5051    0.8520    0.0456 O   0  0  0  0  0  0  0  0  0  0  0  0
   -1.6231    0.6703   -1.5658 O   0  0  0  0  0  0  0  0  0  0  0  0
   -1.0865    1.8361    1.3824 O   0  0  0  0  0  0  0  0  0  0  0  0
    5.6023    0.2752    0.3325 N   0  0  0  0  0  0  0  0  0  0  0  0
    2.8579    1.2662    0.0480 C   0  0  0  0  0  0  0  0  0  0  0  0
    3.9843    2.1215    0.6380 C   0  0  0  0  0  0  0  0  0  0  0  0
    3.1798   -0.2193    0.2423 C   0  0  0  0  0  0  0  0  0  0  0  0
    5.3486    1.7012    0.0874 C   0  0  0  0  0  0  0  0  0  0  0  0
    4.5710   -0.5623   -0.2946 C   0  0  0  0  0  0  0  0  0  0  0  0
    1.5126    1.6225    0.6745 C   0  0  0  0  0  0  0  0  0  0  0  0
    6.9305   -0.0994   -0.1526 C   0  0  0  0  0  0  0  0  0  0  0  0
    7.2429   -1.5512    0.1680 C   0  0  0  0  0  0  0  0  0  0  0  0
   -1.7640    0.1298   -0.2361 C   0  0  0  0  0  0  0  0  0  0  0  0
   -0.7817    1.0497    0.4935 C   0  0  0  0  0  0  0  0  0  0  0  0
   -1.3200   -1.3347   -0.2264 C   0  0  0  0  0  0  0  0  0  0  0  0
   -3.2128    0.2640    0.2392 C   0  0  0  0  0  0  0  0  0  0  0  0
   -1.5027   -2.1262   -1.3604 C   0  0  0  0  0  0  0  0  0  0  0  0
   -3.4880    0.4494    1.5941 C   0  0  0  0  0  0  0  0  0  0  0  0
   -0.7322   -1.8779    0.9161 C   0  0  0  0  0  0  0  0  0  0  0  0
   -4.2580    0.2015   -0.6825 C   0  0  0  0  0  0  0  0  0  0  0  0
   -1.9766    2.0389   -1.5901 C   0  0  0  0  0  0  0  0  0  0  0  0
   -1.0978   -3.4610   -1.3518 C   0  0  0  0  0  0  0  0  0  0  0  0
   -4.8081    0.5720    2.0274 C   0  0  0  0  0  0  0  0  0  0  0  0
   -0.3273   -3.2127    0.9244 C   0  0  0  0  0  0  0  0  0  0  0  0
   -5.5782    0.3241   -0.2491 C   0  0  0  0  0  0  0  0  0  0  0  0
   -1.8147    2.5649   -3.0003 C   0  0  0  0  0  0  0  0  0  0  0  0
   -0.5101   -4.0042   -0.2095 C   0  0  0  0  0  0  0  0  0  0  0  0
   -5.8532    0.5094    1.1059 C   0  0  0  0  0  0  0  0  0  0  0  0
  1 10  1  0
  1 14  1  0
  2 13  1  0
  2 21  1  0
  3 14  2  0
  4  8  1  0
  4  9  1  0
  4 11  1  0
  5  6  1  0
  5  7  1  0
  5 10  1  0
  6  8  1  0
  7  9  1  0
 11 12  1  0
 13 14  1  0
 13 15  1  0
 13 16  1  0
 15 17  2  0
 15 19  1  0
 16 18  2  0
 16 20  1  0
 17 22  1  0
 18 23  1  0
 19 24  2  0
 20 25  2  0
 21 26  1  0
 22 27  2  0
 23 28  2  0
 24 27  1  0
 25 28  1  0
M  END
>  <PUBCHEM_COMPOUND_CID>  (1) 
17915

>  <PUBCHEM_CONFORMER_RMSD>  (1) 
1

>  <PUBCHEM_CONFORMER_DIVERSEORDER>  (1) 
1
15
22
52
50
45
27
35
41
20
54
57
30
12
4
44
29
16
46
21
32
31
7
24
25
43
13
33
53
19
40
3
39
2
34
36
17
18
10
8
56
42
5
49
26
51
47
55
28
11
14
37
9
48
6
23
38

>  <PUBCHEM_MMFF94_PARTIAL_CHARGES>  (1) 
33
1 -0.43
10 0.28
11 0.27
13 0.63
14 0.66
15 -0.14
16 -0.14
17 -0.15
18 -0.15
19 -0.15
2 -0.56
20 -0.15
21 0.28
22 -0.15
23 -0.15
24 -0.15
25 -0.15
27 -0.15
28 -0.15
3 -0.57
4 -0.81
45 0.15
46 0.15
47 0.15
48 0.15
51 0.15
52 0.15
53 0.15
54 0.15
58 0.15
59 0.15
8 0.27
9 0.27

>  <PUBCHEM_EFFECTIVE_ROTOR_COUNT>  (1) 
10.2

>  <PUBCHEM_PHARMACOPHORE_FEATURES>  (1) 
6
1 2 acceptor
1 3 acceptor
1 4 cation
6 15 17 19 22 24 27 rings
6 16 18 20 23 25 28 rings
6 4 5 6 7 8 9 rings

>  <PUBCHEM_HEAVY_ATOM_COUNT>  (1) 
28

>  <PUBCHEM_ATOM_DEF_STEREO_COUNT>  (1) 
0

>  <PUBCHEM_ATOM_UDEF_STEREO_COUNT>  (1) 
0

>  <PUBCHEM_BOND_DEF_STEREO_COUNT>  (1) 
0

>  <PUBCHEM_BOND_UDEF_STEREO_COUNT>  (1) 
0

>  <PUBCHEM_ISOTOPIC_ATOM_COUNT>  (1) 
0

>  <PUBCHEM_COMPONENT_COUNT>  (1) 
1

>  <PUBCHEM_CACTVS_TAUTO_COUNT>  (1) 
1

>  <PUBCHEM_CONFORMER_ID>  (1) 
000045FB00000001

>  <PUBCHEM_MMFF94_ENERGY>  (1) 
74.9497

>  <PUBCHEM_FEATURE_SELFOVERLAP>  (1) 
30.447

>  <PUBCHEM_SHAPE_FINGERPRINT>  (1) 
10906281 52 17773898513224291576
11036077 3 18341898484949890683
11405975 8 18200312247096464224
11524674 6 18272652346175571678
12082328 90 16877942695283620950
12549972 3 17416114221200013922
12633257 1 18342457058510647700
12788726 201 17346052111959873296
14713325 29 17824258207303043789
14790565 3 18271533017774602529
14840074 17 18187085069999341557
14866123 147 18270119153327684027
15361156 5 18262807397086957196
15537594 2 18186516610288870386
15775530 1 17610612021716441101
15849732 13 18040999565660686493
19141452 34 18339923830717199444
19958102 18 18337659893542266054
20771845 38 18338233760939187394
21033648 29 18336809949310834392
21403212 168 18272375231096711505
21639891 77 12750656518218185871
23559900 14 18129372869211228032
23569917 315 18342182202111364791
249057 3 18410859880630853636
3298306 158 18189605056372186414
3383291 50 18201721777495190626
3411729 13 18198072387312701003
3729539 64 18340481154400697554
4015057 19 17702931669196998256
4073 2 18198620141920223304
5080951 261 17984954181376255510
5104073 3 18199179763125823168
5265222 85 18261117391964698596
550186 7 17096351866040446093
58260988 521 18187942676659216203
59755656 520 18343300379344235679
6138700 20 18342177739069774210
6669772 16 18342460292474335830
70251023 43 17406261613257113347

>  <PUBCHEM_SHAPE_MULTIPOLES>  (1) 
553.64
13.96
3.53
1.72
21.4
3.7
0.78
-2.75
-3.22
-0.08
1.16
-2.42
-0.88
0.31

>  <PUBCHEM_SHAPE_SELFOVERLAP>  (1) 
1164.966

>  <PUBCHEM_SHAPE_VOLUME>  (1) 
310.4

>  <PUBCHEM_COORDINATE_TYPE>  (1) 
2
5
10

$$$$
