17911
     RDKit          3D

 15 15  0  0  0  0  0  0  0  0999 V2000
    2.6092    2.4145    0.7155 O   0  0  0  0  0  0  0  0  0  0  0  0
    2.9308    0.0990    0.7905 N   0  0  0  0  0  0  0  0  0  0  0  0
    2.1875   -0.6466   -0.2663 C   0  0  0  0  0  0  0  0  0  0  0  0
    0.7127   -0.4438   -0.1760 C   0  0  0  0  0  0  0  0  0  0  0  0
    2.8528   -0.1931   -1.5965 C   0  0  0  0  0  0  0  0  0  0  0  0
    2.5471   -2.1395   -0.0564 C   0  0  0  0  0  0  0  0  0  0  0  0
    0.0266   -0.8199    0.9789 C   0  0  0  0  0  0  0  0  0  0  0  0
    0.0195    0.1225   -1.2459 C   0  0  0  0  0  0  0  0  0  0  0  0
   -2.0458   -0.0635   -0.0058 C   0  0  0  0  0  0  0  0  0  0  0  0
   -1.3526   -0.6298    1.0639 C   0  0  0  0  0  0  0  0  0  0  0  0
   -1.3598    0.3126   -1.1607 C   0  0  0  0  0  0  0  0  0  0  0  0
   -3.4838    0.1355    0.0833 C   0  0  0  0  0  0  0  0  0  0  0  0
   -4.1185    1.2781   -0.6888 C   0  0  0  0  0  0  0  0  0  0  0  0
   -4.2877   -0.6744    0.8224 C   0  0  0  0  0  0  0  0  0  0  0  0
    2.7620    1.2484    0.7419 C   0  0  0  0  0  0  0  0  0  0  0  0
  1 15  2  0
  2  3  1  0
  2 15  2  0
  3  4  1  0
  3  5  1  0
  3  6  1  0
  4  7  2  0
  4  8  1  0
  7 10  1  0
  8 11  2  0
  9 10  2  0
  9 11  1  0
  9 12  1  0
 12 13  1  0
 12 14  2  0
M  END
>  <PUBCHEM_COMPOUND_CID>  (1) 
17911

>  <PUBCHEM_CONFORMER_RMSD>  (1) 
0.6

>  <PUBCHEM_CONFORMER_DIVERSEORDER>  (1) 
1
6
9
7
8
4
3
12
5
2
13
10
11

>  <PUBCHEM_MMFF94_PARTIAL_CHARGES>  (1) 
19
1 -0.49
10 -0.15
11 -0.15
12 -0.17
13 0.14
14 -0.3
15 0.79
2 -0.55
22 0.15
23 0.15
24 0.15
25 0.15
29 0.15
3 0.39
30 0.15
4 -0.14
7 -0.15
8 -0.15
9 0.03

>  <PUBCHEM_EFFECTIVE_ROTOR_COUNT>  (1) 
3

>  <PUBCHEM_PHARMACOPHORE_FEATURES>  (1) 
3
1 2 acceptor
3 3 5 6 hydrophobe
6 4 7 8 9 10 11 rings

>  <PUBCHEM_HEAVY_ATOM_COUNT>  (1) 
15

>  <PUBCHEM_ATOM_DEF_STEREO_COUNT>  (1) 
0

>  <PUBCHEM_ATOM_UDEF_STEREO_COUNT>  (1) 
0

>  <PUBCHEM_BOND_DEF_STEREO_COUNT>  (1) 
0

>  <PUBCHEM_BOND_UDEF_STEREO_COUNT>  (1) 
0

>  <PUBCHEM_ISOTOPIC_ATOM_COUNT>  (1) 
0

>  <PUBCHEM_COMPONENT_COUNT>  (1) 
1

>  <PUBCHEM_CACTVS_TAUTO_COUNT>  (1) 
1

>  <PUBCHEM_CONFORMER_ID>  (1) 
000045F700000001

>  <PUBCHEM_MMFF94_ENERGY>  (1) 
50.8155

>  <PUBCHEM_FEATURE_SELFOVERLAP>  (1) 
15.223

>  <PUBCHEM_SHAPE_FINGERPRINT>  (1) 
10608611 8 18408600353532770913
10646746 165 18187640267658476469
10980938 120 17989483052105775232
11031198 65 18059575844798110664
11132069 177 17458622290196855589
11543360 7 17988066877382579597
12500047 106 18334579048654523943
12932764 1 18413392029396091223
13296908 3 18040438759223142687
13538477 17 16558738040409095094
13675066 3 18113904840815167787
13760787 5 15985107397039571807
14289901 80 18272366503617761907
15219456 202 18409163311864928931
15775835 57 17274256274698368744
16945 1 17917155991745888767
1813 80 17201656445824925038
18186145 218 18131638863427199539
19026448 4 18411700967917689967
19026448 5 17847057775237592311
20559304 39 15913331260619403706
20645476 183 16343700001350003412
20645477 70 18130220454788818903
21501925 9 17168143494291631595
22096605 113 18201431531999303305
2255824 54 17989211434485275478
22892500 29 18411697660455177644
231179 274 18201156645993229760
23402539 116 17603300440541712335
23559900 14 17894915079313838806
3060560 45 17775008964365593926
3286 77 18336263440412425266
4072396 5 15936671715302936105
474 4 18200025291077124864
633830 44 17417542332449194487
90316 7 15864337048271314261

>  <PUBCHEM_SHAPE_MULTIPOLES>  (1) 
297.84
7.11
1.59
1.3
5.22
0.25
0.19
0.93
-0.42
-1.08
-0.36
-0.56
0.2
1.15

>  <PUBCHEM_SHAPE_SELFOVERLAP>  (1) 
620.615

>  <PUBCHEM_SHAPE_VOLUME>  (1) 
171

>  <PUBCHEM_COORDINATE_TYPE>  (1) 
2
5
10

$$$$
