17916
     RDKit          3D

  7  6  0  0  1  0  0  0  0  0999 V2000
    3.1288   -0.3231   -0.0811 O   0  0  0  0  0  0  0  0  0  0  0  0
   -0.5242    0.0671    0.2180 N   0  0  0  0  0  0  0  0  0  0  0  0
    0.7479   -0.5082   -0.2176 C   0  0  0  0  0  0  0  0  0  0  0  0
   -1.6421   -0.7520   -0.2489 C   0  0  0  0  0  0  0  0  0  0  0  0
    1.9166    0.2796    0.3526 C   0  0  0  0  0  0  0  0  0  0  0  0
   -0.6577    1.4395   -0.2690 C   0  0  0  0  0  0  0  0  0  0  0  0
   -2.9694   -0.2029    0.2461 C   0  0  0  0  0  0  0  0  0  0  0  0
  1  5  1  0
  2  3  1  0
  2  4  1  0
  2  6  1  0
  3  5  1  0
  4  7  1  0
M  END
>  <PUBCHEM_COMPOUND_CID>  (1) 
17916

>  <PUBCHEM_CONFORMER_RMSD>  (1) 
0.4

>  <PUBCHEM_CONFORMER_DIVERSEORDER>  (1) 
1
38
10
26
29
15
12
16
30
35
2
25
34
39
8
17
28
20
36
5
24
27
22
31
37
14
23
18
6
13
32
19
9
33
21
4
11
7
3

>  <PUBCHEM_MMFF94_PARTIAL_CHARGES>  (1) 
7
1 -0.68
2 -0.81
20 0.4
3 0.27
4 0.27
5 0.28
6 0.27

>  <PUBCHEM_EFFECTIVE_ROTOR_COUNT>  (1) 
3

>  <PUBCHEM_PHARMACOPHORE_FEATURES>  (1) 
3
1 1 acceptor
1 1 donor
1 2 cation

>  <PUBCHEM_HEAVY_ATOM_COUNT>  (1) 
7

>  <PUBCHEM_ATOM_DEF_STEREO_COUNT>  (1) 
0

>  <PUBCHEM_ATOM_UDEF_STEREO_COUNT>  (1) 
0

>  <PUBCHEM_BOND_DEF_STEREO_COUNT>  (1) 
0

>  <PUBCHEM_BOND_UDEF_STEREO_COUNT>  (1) 
0

>  <PUBCHEM_ISOTOPIC_ATOM_COUNT>  (1) 
0

>  <PUBCHEM_COMPONENT_COUNT>  (1) 
1

>  <PUBCHEM_CACTVS_TAUTO_COUNT>  (1) 
1

>  <PUBCHEM_CONFORMER_ID>  (1) 
000045FC00000001

>  <PUBCHEM_MMFF94_ENERGY>  (1) 
8.0119

>  <PUBCHEM_FEATURE_SELFOVERLAP>  (1) 
15.223

>  <PUBCHEM_SHAPE_FINGERPRINT>  (1) 
10857977 72 18337944692427810257
11062470 55 16877941646177438143
16714656 1 18411980264923917023
21040471 1 17904475203941783476
23552423 10 18042406820401459562
23552449 1 18336259033807888084
29004967 10 18334017219866518891
5460574 1 9583522018372169826

>  <PUBCHEM_SHAPE_MULTIPOLES>  (1) 
133.21
4.19
1.07
0.65
0.87
0.38
0
-0.78
0.33
-0.24
-0.11
-0.04
0.01
0.06

>  <PUBCHEM_SHAPE_SELFOVERLAP>  (1) 
232.211

>  <PUBCHEM_SHAPE_VOLUME>  (1) 
89.9

>  <PUBCHEM_COORDINATE_TYPE>  (1) 
2
5
10

$$$$
