17928
     RDKit          3D

 18 20  0  0  1  0  0  0  0  0999 V2000
    1.0612    1.4275    1.9060 O   0  0  0  0  0  0  0  0  0  0  0  0
   -2.9516   -2.4591    0.1359 O   0  0  0  0  0  0  0  0  0  0  0  0
    4.6859    0.0224   -0.5408 O   0  0  0  0  0  0  0  0  0  0  0  0
    2.8251    0.7292    0.6169 N   0  0  0  0  0  0  0  0  0  0  0  0
    0.5474   -0.1257    0.1068 C   0  0  0  0  0  0  0  0  0  0  0  0
    0.4219   -1.4396    0.9126 C   0  0  0  0  0  0  0  0  0  0  0  0
    1.1591   -0.3151   -1.2976 C   0  0  0  0  0  0  0  0  0  0  0  0
   -0.8454    0.4884   -0.0722 C   0  0  0  0  0  0  0  0  0  0  0  0
   -0.5732   -2.4077    0.3011 C   0  0  0  0  0  0  0  0  0  0  0  0
    1.4717    0.7678    0.9490 C   0  0  0  0  0  0  0  0  0  0  0  0
    2.5763   -0.8565   -1.2414 C   0  0  0  0  0  0  0  0  0  0  0  0
   -2.0102   -0.3013   -0.0368 C   0  0  0  0  0  0  0  0  0  0  0  0
   -1.9329   -1.7734    0.1526 C   0  0  0  0  0  0  0  0  0  0  0  0
    3.4650    0.0068   -0.3838 C   0  0  0  0  0  0  0  0  0  0  0  0
   -0.9892    1.8645   -0.3365 C   0  0  0  0  0  0  0  0  0  0  0  0
   -3.2739    0.2813   -0.2130 C   0  0  0  0  0  0  0  0  0  0  0  0
   -2.2478    2.4404   -0.5136 C   0  0  0  0  0  0  0  0  0  0  0  0
   -3.3894    1.6502   -0.4452 C   0  0  0  0  0  0  0  0  0  0  0  0
  1 10  2  0
  2 13  2  0
  3 14  2  0
  4 10  1  0
  4 14  1  0
  5  6  1  0
  5  7  1  0
  5  8  1  0
  5 10  1  0
  6  9  1  0
  7 11  1  0
  8 12  2  0
  8 15  1  0
  9 13  1  0
 11 14  1  0
 12 13  1  0
 12 16  1  0
 15 17  2  0
 16 18  2  0
 17 18  1  0
M  END
>  <PUBCHEM_COMPOUND_CID>  (1) 
17928

>  <PUBCHEM_CONFORMER_RMSD>  (1) 
0.6

>  <PUBCHEM_CONFORMER_DIVERSEORDER>  (1) 
1
3
4
2

>  <PUBCHEM_MMFF94_PARTIAL_CHARGES>  (1) 
21
1 -0.57
10 0.57
11 0.06
12 0.09
13 0.42
14 0.57
15 -0.15
16 -0.15
17 -0.15
18 -0.15
2 -0.57
27 0.37
28 0.15
29 0.15
3 -0.57
30 0.15
31 0.15
4 -0.49
5 0.2
8 -0.14
9 0.06

>  <PUBCHEM_EFFECTIVE_ROTOR_COUNT>  (1) 
1

>  <PUBCHEM_PHARMACOPHORE_FEATURES>  (1) 
7
1 1 acceptor
1 2 acceptor
1 3 acceptor
1 4 donor
6 4 5 7 10 11 14 rings
6 5 6 8 9 12 13 rings
6 8 12 15 16 17 18 rings

>  <PUBCHEM_HEAVY_ATOM_COUNT>  (1) 
18

>  <PUBCHEM_ATOM_DEF_STEREO_COUNT>  (1) 
0

>  <PUBCHEM_ATOM_UDEF_STEREO_COUNT>  (1) 
1

>  <PUBCHEM_BOND_DEF_STEREO_COUNT>  (1) 
0

>  <PUBCHEM_BOND_UDEF_STEREO_COUNT>  (1) 
0

>  <PUBCHEM_ISOTOPIC_ATOM_COUNT>  (1) 
0

>  <PUBCHEM_COMPONENT_COUNT>  (1) 
1

>  <PUBCHEM_CACTVS_TAUTO_COUNT>  (1) 
6

>  <PUBCHEM_CONFORMER_ID>  (1) 
0000460800000001

>  <PUBCHEM_MMFF94_ENERGY>  (1) 
49.2695

>  <PUBCHEM_FEATURE_SELFOVERLAP>  (1) 
35.544

>  <PUBCHEM_SHAPE_FINGERPRINT>  (1) 
10498660 4 18261665970562532133
10608611 8 18342172306242138792
10863032 1 18336262340985122102
10967382 1 18264483984367074469
12138202 97 18412544288629764046
12236239 1 17095242522947451892
12491281 212 17895199887322035168
12500047 106 18409164377090665038
12716301 132 18338222830120032178
13140716 1 18190754209527329857
13464514 151 17984706618891452001
13538477 17 17967803955655293723
14251745 187 18342171172090872950
15219456 202 18058728138549783880
15775835 57 18261956236883135961
16945 1 18408887308623779751
17357779 13 18198046183474940383
18186145 218 18197791998430128500
19049666 15 18272652316179014978
19868273 325 18262237849562498703
200 152 16343705392029545894
20510252 161 18338519754199542825
20645476 183 17530965778521988019
21501502 16 18262789671076743378
22802520 49 18343584074607885747
23175994 123 17561093496777219952
2334 1 17975132355642638389
23402539 116 18408599270958198798
23419403 2 17559950090108685368
23493267 7 18341331094084408600
23526113 38 17916870114691411358
23557571 272 18340216279224464886
23559900 14 18342177714318049622
25 1 18129098909873046085
2748010 2 18194109944637126859
474 4 16444768244764114020
53812653 166 18340202999264739273
7364860 26 17833827175347265423
77492 1 17095238137843838836
81228 2 18264205984235301291
8809292 202 18341896302863527866
9709674 26 18342745074506772982

>  <PUBCHEM_SHAPE_MULTIPOLES>  (1) 
347.84
5.83
2.43
1.12
3.17
0.74
-0.18
-1.21
1.33
-2.3
-0.2
0.7
-0.19
0.66

>  <PUBCHEM_SHAPE_SELFOVERLAP>  (1) 
764.496

>  <PUBCHEM_SHAPE_VOLUME>  (1) 
184

>  <PUBCHEM_COORDINATE_TYPE>  (1) 
2
5
10

$$$$
