17920
     RDKit          3D

 26 27  0  0  1  0  0  0  0  0999 V2000
   -1.1414    0.4998   -0.7222 O   0  0  0  0  0  0  0  0  0  0  0  0
    0.5728    0.7217    1.3124 O   0  0  0  0  0  0  0  0  0  0  0  0
    0.5687    1.6205   -1.7748 O   0  0  0  0  0  0  0  0  0  0  0  0
   -4.9979    0.0265    0.5827 N   0  0  0  0  0  0  0  0  0  0  0  0
   -3.9318    0.9245    0.1389 C   0  0  0  0  0  0  0  0  0  0  0  0
    1.0744    0.1278    0.0977 C   0  0  0  0  0  0  0  0  0  0  0  0
   -3.4828    0.5947   -1.2920 C   0  0  0  0  0  0  0  0  0  0  0  0
   -2.0752    1.0833   -1.6230 C   0  0  0  0  0  0  0  0  0  0  0  0
    2.5644    0.4372   -0.0669 C   0  0  0  0  0  0  0  0  0  0  0  0
    0.8305   -1.3828    0.1248 C   0  0  0  0  0  0  0  0  0  0  0  0
   -4.4355    2.3649    0.2216 C   0  0  0  0  0  0  0  0  0  0  0  0
    0.1735    0.8536   -0.9048 C   0  0  0  0  0  0  0  0  0  0  0  0
   -4.4448   -1.2701    0.9714 C   0  0  0  0  0  0  0  0  0  0  0  0
   -5.9979   -0.1392   -0.4713 C   0  0  0  0  0  0  0  0  0  0  0  0
    3.1107    0.5780   -1.3427 C   0  0  0  0  0  0  0  0  0  0  0  0
    0.8521   -2.0710    1.3379 C   0  0  0  0  0  0  0  0  0  0  0  0
    3.3760    0.5788    1.0587 C   0  0  0  0  0  0  0  0  0  0  0  0
    0.5863   -2.0714   -1.0634 C   0  0  0  0  0  0  0  0  0  0  0  0
    0.7378    2.1254    1.2888 C   0  0  0  0  0  0  0  0  0  0  0  0
    4.4684    0.8602   -1.4929 C   0  0  0  0  0  0  0  0  0  0  0  0
    0.6296   -3.4478    1.3628 C   0  0  0  0  0  0  0  0  0  0  0  0
    4.7338    0.8611    0.9085 C   0  0  0  0  0  0  0  0  0  0  0  0
    0.3637   -3.4483   -1.0385 C   0  0  0  0  0  0  0  0  0  0  0  0
    5.2799    1.0019   -0.3674 C   0  0  0  0  0  0  0  0  0  0  0  0
    0.3853   -4.1364    0.1747 C   0  0  0  0  0  0  0  0  0  0  0  0
    0.1997    2.7069    2.5788 C   0  0  0  0  0  0  0  0  0  0  0  0
  1  8  1  0
  1 12  1  0
  2  6  1  0
  2 19  1  0
  3 12  2  0
  4  5  1  0
  4 13  1  0
  4 14  1  0
  5  7  1  0
  5 11  1  0
  6  9  1  0
  6 10  1  0
  6 12  1  0
  7  8  1  0
  9 15  2  0
  9 17  1  0
 10 16  2  0
 10 18  1  0
 15 20  1  0
 16 21  1  0
 17 22  2  0
 18 23  2  0
 19 26  1  0
 20 24  2  0
 21 25  2  0
 22 24  1  0
 23 25  1  0
M  END
>  <PUBCHEM_COMPOUND_CID>  (1) 
17920

>  <PUBCHEM_CONFORMER_RMSD>  (1) 
1

>  <PUBCHEM_CONFORMER_DIVERSEORDER>  (1) 
1
60
111
48
100
68
70
13
73
93
29
85
8
104
51
114
38
86
91
98
64
45
101
14
59
54
52
65
15
72
53
37
95
39
33
17
75
11
117
107
22
87
23
63
35
41
18
113
69
97
26
96
90
109
24
46
10
108
4
102
88
84
66
2
79
55
32
76
43
21
6
61
74
82
103
7
44
30
57
67
58
116
99
40
20
16
27
112
49
89
50
34
47
12
31
83
78
62
80
5
3
25
28
36
19
115
9
105
77
56
92
81
106
71
42
110
94

>  <PUBCHEM_MMFF94_PARTIAL_CHARGES>  (1) 
33
1 -0.43
10 -0.14
12 0.66
13 0.27
14 0.27
15 -0.15
16 -0.15
17 -0.15
18 -0.15
19 0.28
2 -0.56
20 -0.15
21 -0.15
22 -0.15
23 -0.15
24 -0.15
25 -0.15
3 -0.57
4 -0.81
41 0.15
42 0.15
43 0.15
44 0.15
47 0.15
48 0.15
49 0.15
5 0.27
50 0.15
51 0.15
52 0.15
6 0.63
8 0.28
9 -0.14

>  <PUBCHEM_EFFECTIVE_ROTOR_COUNT>  (1) 
10

>  <PUBCHEM_PHARMACOPHORE_FEATURES>  (1) 
5
1 2 acceptor
1 3 acceptor
1 4 cation
6 10 16 18 21 23 25 rings
6 9 15 17 20 22 24 rings

>  <PUBCHEM_HEAVY_ATOM_COUNT>  (1) 
26

>  <PUBCHEM_ATOM_DEF_STEREO_COUNT>  (1) 
0

>  <PUBCHEM_ATOM_UDEF_STEREO_COUNT>  (1) 
1

>  <PUBCHEM_BOND_DEF_STEREO_COUNT>  (1) 
0

>  <PUBCHEM_BOND_UDEF_STEREO_COUNT>  (1) 
0

>  <PUBCHEM_ISOTOPIC_ATOM_COUNT>  (1) 
0

>  <PUBCHEM_COMPONENT_COUNT>  (1) 
1

>  <PUBCHEM_CACTVS_TAUTO_COUNT>  (1) 
1

>  <PUBCHEM_CONFORMER_ID>  (1) 
0000460000000001

>  <PUBCHEM_MMFF94_ENERGY>  (1) 
84.4223

>  <PUBCHEM_FEATURE_SELFOVERLAP>  (1) 
25.372

>  <PUBCHEM_SHAPE_FINGERPRINT>  (1) 
10064457 181 18339639061394967261
10366900 7 18412538830496574361
10759866 29 17983019951107254937
10906281 52 17531545199875748669
11421498 54 18342182116026791833
11488393 25 18195541298060363022
12293681 4 17775009036878916616
12422481 6 18043231480050338362
12592029 89 17967812709173124416
12788726 201 17757279545410454894
12839892 36 18113891663180575811
13149001 5 18128249198096837176
13257819 37 18042709298163965278
133893 2 17755317677611583634
14787075 74 18201158844510200224
14790565 3 18261682565936492268
15849732 13 17676483952625980350
1601671 61 18334577962074868088
17349148 13 11675170215604413141
17980427 23 11458706058492995463
192875 21 10737292312012646943
20028762 73 18268151049088898887
20197701 30 18409450297458877002
20567600 347 18335986389220569438
20602899 9 18336840723241100886
21120745 212 16759173195200237550
21421861 104 17981327789699962321
21521721 280 18339650047768758649
22224240 67 18409725201325347021
22956985 138 17752193990446872106
23419403 2 15039717539765586476
3052486 1 17823715229010806847
3383291 50 18270963432872636206
345986 75 12678636161256784908
404807 78 18043249257564015995
4258327 124 17824843350159599028
474229 33 18113900485053782431
59755656 520 18410009949288807062
6442390 28 18409730677113464758
7226269 152 18201715185152278120
81228 2 17543605978637408135

>  <PUBCHEM_SHAPE_MULTIPOLES>  (1) 
512.48
9.83
3.79
1.84
8.02
4.63
0.31
-5.07
-1.03
-0.2
1.23
-0.51
-0.72
0.14

>  <PUBCHEM_SHAPE_SELFOVERLAP>  (1) 
1067.857

>  <PUBCHEM_SHAPE_VOLUME>  (1) 
291

>  <PUBCHEM_COORDINATE_TYPE>  (1) 
2
5
10

$$$$
