17929
     RDKit          3D

 19 21  0  0  1  0  0  0  0  0999 V2000
    2.0308   -1.5938   -0.7081 N   0  0  0  0  0  0  0  0  0  0  0  0
   -0.3517   -1.8919    1.0472 N   0  0  0  0  0  0  0  0  0  0  0  0
    1.4179    3.7941    0.8529 N   0  0  0  0  0  0  0  0  0  0  0  0
    1.8701   -0.2638   -0.3304 C   0  0  0  0  0  0  0  0  0  0  0  0
    1.8159   -2.6835    0.2531 C   0  0  0  0  0  0  0  0  0  0  0  0
    0.6869    0.1986    0.2866 C   0  0  0  0  0  0  0  0  0  0  0  0
    0.9755   -2.3226    1.4690 C   0  0  0  0  0  0  0  0  0  0  0  0
   -0.4662   -0.7225    0.5098 C   0  0  0  0  0  0  0  0  0  0  0  0
    2.8746    0.6961   -0.5658 C   0  0  0  0  0  0  0  0  0  0  0  0
    0.5416    1.5370    0.6882 C   0  0  0  0  0  0  0  0  0  0  0  0
    2.8693   -1.9127   -1.8589 C   0  0  0  0  0  0  0  0  0  0  0  0
   -1.8269   -0.2891    0.0802 C   0  0  0  0  0  0  0  0  0  0  0  0
    1.5635    2.4501    0.4543 C   0  0  0  0  0  0  0  0  0  0  0  0
    2.7268    2.0318   -0.1784 C   0  0  0  0  0  0  0  0  0  0  0  0
   -1.9651    0.5678   -1.0059 C   0  0  0  0  0  0  0  0  0  0  0  0
   -2.9445   -0.7464    0.7692 C   0  0  0  0  0  0  0  0  0  0  0  0
   -3.2377    0.9732   -1.4080 C   0  0  0  0  0  0  0  0  0  0  0  0
   -4.2171   -0.3411    0.3668 C   0  0  0  0  0  0  0  0  0  0  0  0
   -4.3637    0.5187   -0.7218 C   0  0  0  0  0  0  0  0  0  0  0  0
  1  4  1  0
  1  5  1  0
  1 11  1  0
  2  7  1  0
  2  8  2  0
  3 13  1  0
  4  6  2  0
  4  9  1  0
  5  7  1  0
  6  8  1  0
  6 10  1  0
  8 12  1  0
  9 14  2  0
 10 13  2  0
 12 15  2  0
 12 16  1  0
 13 14  1  0
 15 17  1  0
 16 18  2  0
 17 19  2  0
 18 19  1  0
M  END
>  <PUBCHEM_COMPOUND_CID>  (1) 
17929

>  <PUBCHEM_CONFORMER_RMSD>  (1) 
0.6

>  <PUBCHEM_CONFORMER_DIVERSEORDER>  (1) 
1
3
2
4

>  <PUBCHEM_MMFF94_PARTIAL_CHARGES>  (1) 
29
1 -0.84
10 -0.15
11 0.37
12 0.09
13 0.1
14 -0.15
15 -0.15
16 -0.15
17 -0.15
18 -0.15
19 -0.15
2 -0.7
24 0.15
25 0.15
29 0.15
3 -0.9
30 0.15
31 0.15
32 0.15
33 0.15
34 0.4
35 0.4
36 0.15
4 0.1
5 0.37
6 0.09
7 0.25
8 0.28
9 -0.15

>  <PUBCHEM_EFFECTIVE_ROTOR_COUNT>  (1) 
1.6

>  <PUBCHEM_PHARMACOPHORE_FEATURES>  (1) 
7
1 1 cation
1 2 acceptor
1 3 cation
1 3 donor
6 12 15 16 17 18 19 rings
6 4 6 9 10 13 14 rings
7 1 2 4 5 6 7 8 rings

>  <PUBCHEM_HEAVY_ATOM_COUNT>  (1) 
19

>  <PUBCHEM_ATOM_DEF_STEREO_COUNT>  (1) 
0

>  <PUBCHEM_ATOM_UDEF_STEREO_COUNT>  (1) 
0

>  <PUBCHEM_BOND_DEF_STEREO_COUNT>  (1) 
0

>  <PUBCHEM_BOND_UDEF_STEREO_COUNT>  (1) 
0

>  <PUBCHEM_ISOTOPIC_ATOM_COUNT>  (1) 
0

>  <PUBCHEM_COMPONENT_COUNT>  (1) 
1

>  <PUBCHEM_CACTVS_TAUTO_COUNT>  (1) 
1

>  <PUBCHEM_CONFORMER_ID>  (1) 
0000460900000001

>  <PUBCHEM_MMFF94_ENERGY>  (1) 
94.5674

>  <PUBCHEM_FEATURE_SELFOVERLAP>  (1) 
35.534

>  <PUBCHEM_SHAPE_FINGERPRINT>  (1) 
10165383 225 18117295837248542077
10498660 4 17458340823873565549
10608611 8 18186794760712804797
10764073 3 16598656755085867504
10906281 52 18269012984874613016
116883 192 17624982633773935932
12553582 1 18051987917291498323
12623949 98 17839216161520430407
12654215 9 18334570209722156894
12707595 3 18339359648108391687
12730499 353 18336267946349817291
13134695 92 18268412560698063854
13140716 1 18123464140282215824
13294875 104 18188474844312787330
13464514 151 18409450280141929208
14866123 147 15669835262558674195
15490181 7 18190170368410031587
16945 1 18201442514309826192
1813 80 17416142585079614398
18186145 218 18335149656729488087
18219364 16 18191601928206787265
18981168 100 16879046582681478863
19049666 15 18188485779389271237
20600515 1 16451747630400856610
20645477 70 18342733010201757007
21041028 32 18268995276154648513
21524375 3 18049995890058142912
21639500 275 18341607157217768237
22112679 90 17837495150300384626
23419403 2 17759288236847309098
23526113 38 18338250335322924866
23559900 14 17749102267096954983
238 59 18194937816626241533
25 1 18339928228616108396
2748010 2 17974022930702959178
2803657 2 17396980159007311968
3323516 105 18408613564799393471
3524813 1 18187085048424252485
474 4 18199183078097406793
5262128 65 18130519521687472439
6049 1 18113904836446457869
6438718 38 17267490700469408021
6442390 28 18044663228905003331
7364860 26 18336255765263578523
7832392 63 18055079748521083793
81228 2 17330257378007121771
9981440 41 16048973899812768760

>  <PUBCHEM_SHAPE_MULTIPOLES>  (1) 
376.07
6.24
3.21
1.32
6.9
1.3
0.3
0.37
2.03
-3.52
-0.97
-0.18
-0.42
1.19

>  <PUBCHEM_SHAPE_SELFOVERLAP>  (1) 
820.131

>  <PUBCHEM_SHAPE_VOLUME>  (1) 
200.3

>  <PUBCHEM_COORDINATE_TYPE>  (1) 
2
5
10

$$$$
