17936
     RDKit          3D

 18 18  0  0  0  0  0  0  0  0999 V2000
   -0.7194    0.8808    0.0321 O   0  0  0  0  0  0  0  0  0  0  0  0
    3.1358   -0.3231    0.2604 O   0  0  0  0  0  0  0  0  0  0  0  0
    0.7649    1.7159   -1.5089 O   0  0  0  0  0  0  0  0  0  0  0  0
    4.8982    1.1559    0.2787 O   0  0  0  0  0  0  0  0  0  0  0  0
    1.3362    1.4882    0.7295 N   0  0  0  0  0  0  0  0  0  0  0  0
    2.7406   -3.6688   -0.1960 N   0  0  0  0  0  0  0  0  0  0  0  0
   -2.9532    0.1590   -0.4086 C   0  0  0  0  0  0  0  0  0  0  0  0
   -1.6979    0.7277   -1.0022 C   0  0  0  0  0  0  0  0  0  0  0  0
   -3.9331    1.0156    0.0806 C   0  0  0  0  0  0  0  0  0  0  0  0
   -3.1250   -1.2197   -0.3525 C   0  0  0  0  0  0  0  0  0  0  0  0
    2.6793    1.9873    0.6587 C   0  0  0  0  0  0  0  0  0  0  0  0
   -5.0998    0.4867    0.6328 C   0  0  0  0  0  0  0  0  0  0  0  0
   -4.2917   -1.7484    0.1996 C   0  0  0  0  0  0  0  0  0  0  0  0
   -5.2790   -0.8954    0.6922 C   0  0  0  0  0  0  0  0  0  0  0  0
    0.4860    1.3922   -0.3591 C   0  0  0  0  0  0  0  0  0  0  0  0
    3.7007    0.9097    0.3802 C   0  0  0  0  0  0  0  0  0  0  0  0
    4.0416   -1.3991   -0.0057 C   0  0  0  0  0  0  0  0  0  0  0  0
    3.3156   -2.6645   -0.1119 C   0  0  0  0  0  0  0  0  0  0  0  0
  1  8  1  0
  1 15  1  0
  2 16  1  0
  2 17  1  0
  3 15  2  0
  4 16  2  0
  5 11  1  0
  5 15  1  0
  6 18  3  0
  7  8  1  0
  7  9  2  0
  7 10  1  0
  9 12  1  0
 10 13  2  0
 11 16  1  0
 12 14  2  0
 13 14  1  0
 17 18  1  0
M  END
>  <PUBCHEM_COMPOUND_CID>  (1) 
17936

>  <PUBCHEM_CONFORMER_RMSD>  (1) 
0.8

>  <PUBCHEM_CONFORMER_DIVERSEORDER>  (1) 
1
373
142
14
331
237
131
200
185
83
322
296
70
82
21
169
319
89
252
33
232
195
310
162
335
118
119
125
276
73
273
346
223
103
134
236
214
336
50
9
209
16
57
261
215
97
127
117
192
144
28
221
122
190
88
2
205
366
315
249
235
271
133
277
74
306
193
69
270
4
321
3
128
353
68
330
184
95
371
325
159
143
285
123
105
254
100
115
347
317
86
257
158
272
377
288
368
153
248
43
302
340
165
59
6
121
36
282
251
164
151
339
189
63
360
265
40
124
199
202
187
180
374
345
64
34
19
229
363
216
244
114
203
98
365
168
20
52
7
93
182
289
303
188
17
206
126
258
41
253
147
38
264
32
370
66
18
46
286
25
220
8
49
358
222
316
78
99
110
378
31
218
56
39
75
243
178
160
5
146
94
376
76
175
295
47
141
71
27
212
362
239
167
30
308
12
163
320
65
364
13
156
15
116
157
372
255
37
329
238
101
225
226
62
150
149
29
280
332
104
148
130
90
230
245
281
54
85
247
55
287
311
352
10
135
136
177
26
129
344
84
337
112
318
60
174
45
350
351
154
324
240
120
375
312
170
139
152
91
208
294
42
268
300
24
382
106
161
231
326
327
196
242
179
172
314
228
109
53
22
201
183
348
260
291
77
234
383
173
379
44
213
380
210
11
297
155
307
111
384
292
176
207
284
246
356
194
81
354
355
334
328
107
87
48
204
250
361
241
299
369
61
293
279
263
386
80
211
266
102
367
227
191
304
309
145
138
333
298
113
267
79
259
301
269
385
186
217
96
108
198
58
342
313
197
72
338
323
137
290
275
92
349
35
274
166
381
219
256
171
278
23
233
357
132
343
224
283
67
140
51
181
305
341
262
359

>  <PUBCHEM_MMFF94_PARTIAL_CHARGES>  (1) 
24
1 -0.43
10 -0.15
11 0.36
12 -0.15
13 -0.15
14 -0.15
15 0.78
16 0.66
17 0.48
18 0.36
2 -0.43
21 0.15
22 0.15
25 0.15
26 0.15
27 0.37
28 0.15
3 -0.57
4 -0.57
5 -0.73
6 -0.56
7 -0.14
8 0.42
9 -0.15

>  <PUBCHEM_EFFECTIVE_ROTOR_COUNT>  (1) 
8

>  <PUBCHEM_PHARMACOPHORE_FEATURES>  (1) 
5
1 3 acceptor
1 4 acceptor
1 5 donor
1 6 acceptor
6 7 9 10 12 13 14 rings

>  <PUBCHEM_HEAVY_ATOM_COUNT>  (1) 
18

>  <PUBCHEM_ATOM_DEF_STEREO_COUNT>  (1) 
0

>  <PUBCHEM_ATOM_UDEF_STEREO_COUNT>  (1) 
0

>  <PUBCHEM_BOND_DEF_STEREO_COUNT>  (1) 
0

>  <PUBCHEM_BOND_UDEF_STEREO_COUNT>  (1) 
0

>  <PUBCHEM_ISOTOPIC_ATOM_COUNT>  (1) 
0

>  <PUBCHEM_COMPONENT_COUNT>  (1) 
1

>  <PUBCHEM_CACTVS_TAUTO_COUNT>  (1) 
2

>  <PUBCHEM_CONFORMER_ID>  (1) 
0000461000000001

>  <PUBCHEM_MMFF94_ENERGY>  (1) 
28.9229

>  <PUBCHEM_FEATURE_SELFOVERLAP>  (1) 
25.373

>  <PUBCHEM_SHAPE_FINGERPRINT>  (1) 
11089746 13 10735884945313183712
114674 6 18334575724687746274
12107183 9 17911529688031373881
12596602 18 16988280996604978002
12670546 177 10737280260392546761
12892183 10 18272649064931327193
13167823 11 18271525389949003417
13255334 9 18335704931397367235
13402501 40 18334577940864380114
13533116 47 18272367581833803659
13551218 46 18410859863319330083
13583140 156 18059844108582480397
13911882 115 18261964032491676978
14252887 29 18333448750880459976
14341114 176 18342464733422254225
14420673 8 18266466390984580155
14617045 38 18410019857214207022
14863182 85 18334580170400182630
14866123 147 17476923450365972049
15110567 62 18409451358432382946
15342816 4 17313094229531880864
15537594 2 18202282528582748390
1813 80 17240486901086278149
193927 3 17531537580756408545
20645477 70 18335137583792541202
21065199 12 18412822516917491697
212916 134 14908179738019086917
21673915 165 18339075011840650159
2215653 11 18336256865360541639
22224240 67 18199456831434841968
23559900 14 18410849966992091072
33824 294 18411133645909101114
3421961 26 18340765949497806962
3472631 163 8790068244914459851
42 15 18411701027978939673
5352402 22 18408886226228704653
6433294 58 18338233769666206194

>  <PUBCHEM_SHAPE_MULTIPOLES>  (1) 
336.99
12.12
2.94
0.9
4.57
2.7
-0.15
3.46
2.67
-3.73
-0.11
0.2
-0.3
0.61

>  <PUBCHEM_SHAPE_SELFOVERLAP>  (1) 
685.39

>  <PUBCHEM_SHAPE_VOLUME>  (1) 
192

>  <PUBCHEM_COORDINATE_TYPE>  (1) 
2
5
10

$$$$
