17941
     RDKit          3D

 17 18  0  0  0  0  0  0  0  0999 V2000
    0.0248    1.1142   -2.2331 Cl  0  0  0  0  0  0  0  0  0  0  0  0
    0.6007    2.0078    1.9631 Cl  0  0  0  0  0  0  0  0  0  0  0  0
   -0.2600    3.1243   -0.2654 O   0  0  0  0  0  0  0  0  0  0  0  0
   -0.0067    0.6779   -0.4203 C   0  0  0  0  0  0  0  0  0  0  0  0
   -1.2982   -0.0359   -0.2031 C   0  0  0  0  0  0  0  0  0  0  0  0
    1.3089   -0.1181   -0.1330 C   0  0  0  0  0  0  0  0  0  0  0  0
   -1.5839   -1.1955   -0.9239 C   0  0  0  0  0  0  0  0  0  0  0  0
    1.2592   -1.0821    0.8249 C   0  0  0  0  0  0  0  0  0  0  0  0
   -2.2203    0.4559    0.7208 C   0  0  0  0  0  0  0  0  0  0  0  0
    2.4093    0.2100   -0.8618 C   0  0  0  0  0  0  0  0  0  0  0  0
    0.0910    2.0822    0.2847 C   0  0  0  0  0  0  0  0  0  0  0  0
   -2.7915   -1.8634   -0.7207 C   0  0  0  0  0  0  0  0  0  0  0  0
    2.4321   -1.7921    1.0810 C   0  0  0  0  0  0  0  0  0  0  0  0
   -3.4279   -0.2121    0.9240 C   0  0  0  0  0  0  0  0  0  0  0  0
    3.5823   -0.5002   -0.6057 C   0  0  0  0  0  0  0  0  0  0  0  0
   -3.7135   -1.3717    0.2031 C   0  0  0  0  0  0  0  0  0  0  0  0
    3.5936   -1.5012    0.3656 C   0  0  0  0  0  0  0  0  0  0  0  0
  1  4  1  0
  2 11  1  0
  3 11  2  0
  4  5  1  0
  4  6  1  0
  4 11  1  0
  5  7  2  0
  5  9  1  0
  6  8  2  0
  6 10  1  0
  7 12  1  0
  8 13  1  0
  9 14  2  0
 10 15  2  0
 12 16  2  0
 13 17  2  0
 14 16  1  0
 15 17  1  0
M  END
>  <PUBCHEM_COMPOUND_CID>  (1) 
17941

>  <PUBCHEM_CONFORMER_RMSD>  (1) 
0.6

>  <PUBCHEM_CONFORMER_DIVERSEORDER>  (1) 
1
3
5
8
11
9
6
2
10
12
7
4

>  <PUBCHEM_MMFF94_PARTIAL_CHARGES>  (1) 
27
1 -0.29
10 -0.15
11 0.72
12 -0.15
13 -0.15
14 -0.15
15 -0.15
16 -0.15
17 -0.15
18 0.15
19 0.15
2 -0.21
20 0.15
21 0.15
22 0.15
23 0.15
24 0.15
25 0.15
26 0.15
27 0.15
3 -0.57
4 0.64
5 -0.14
6 -0.14
7 -0.15
8 -0.15
9 -0.15

>  <PUBCHEM_EFFECTIVE_ROTOR_COUNT>  (1) 
3

>  <PUBCHEM_PHARMACOPHORE_FEATURES>  (1) 
2
6 5 7 9 12 14 16 rings
6 6 8 10 13 15 17 rings

>  <PUBCHEM_HEAVY_ATOM_COUNT>  (1) 
17

>  <PUBCHEM_ATOM_DEF_STEREO_COUNT>  (1) 
0

>  <PUBCHEM_ATOM_UDEF_STEREO_COUNT>  (1) 
0

>  <PUBCHEM_BOND_DEF_STEREO_COUNT>  (1) 
0

>  <PUBCHEM_BOND_UDEF_STEREO_COUNT>  (1) 
0

>  <PUBCHEM_ISOTOPIC_ATOM_COUNT>  (1) 
0

>  <PUBCHEM_COMPONENT_COUNT>  (1) 
1

>  <PUBCHEM_CACTVS_TAUTO_COUNT>  (1) 
1

>  <PUBCHEM_CONFORMER_ID>  (1) 
0000461500000001

>  <PUBCHEM_MMFF94_ENERGY>  (1) 
63.5313

>  <PUBCHEM_FEATURE_SELFOVERLAP>  (1) 
10.149

>  <PUBCHEM_SHAPE_FINGERPRINT>  (1) 
10618630 7 18261392209072628618
11578080 2 18263342789729120853
12423570 1 9092010994925582404
12553582 1 18410571794771449367
13132413 78 18341341062413767917
13538477 17 18192430758326899220
14787075 74 18196374934417132696
14817 1 15529949573064343028
15375462 189 18408329894820140091
15490181 8 17257646149794744225
15906896 17 17837756846947727797
16752209 62 18123745353255137733
16945 1 18266741272853617044
1813 80 18115045016671511718
18186145 218 13840272476445074590
19422 9 18409176501604344118
200 152 17895195476501671354
20291156 8 18408888425247114226
20361792 2 18411691110603878943
20600515 1 17987536843547435173
21296965 67 18410855455896569501
21731516 1 18411691084718023946
22112679 90 18270418147195582277
22445834 79 18339365283295310011
2255824 54 18122348140327386933
232386 152 18272379701825441631
23402539 116 18186801349235107566
23419403 2 18122872482830892564
23526113 38 15068918485155238652
23557571 272 18059577941269528706
23559900 14 17630627642925457772
25222932 49 16403647806902780943
2748010 2 18267839805213233141
7364860 26 17843964990319454713
74978 22 18269271434331033927
77492 1 18335998509507197223
81228 2 18128255571358747512
83771 10 18259705592436914687
90316 7 18341616949558788465

>  <PUBCHEM_SHAPE_MULTIPOLES>  (1) 
347.72
5.57
2.48
1.56
0.49
1.4
0.22
-4.13
-0.62
-0.04
-0.39
-0.19
0.59
-0.52

>  <PUBCHEM_SHAPE_SELFOVERLAP>  (1) 
732.259

>  <PUBCHEM_SHAPE_VOLUME>  (1) 
194.3

>  <PUBCHEM_COORDINATE_TYPE>  (1) 
2
5
10

$$$$
