17947
     RDKit          3D

 12 12  0  0  0  0  0  0  0  0999 V2000
    0.7795    2.7187   -0.2194 Cl  0  0  0  0  0  0  0  0  0  0  0  0
   -3.1657   -2.0979    0.1455 Cl  0  0  0  0  0  0  0  0  0  0  0  0
    2.0704   -1.0722   -0.6447 O   0  0  0  0  0  0  0  0  0  0  0  0
    2.3148    0.3006    1.1869 O   0  0  0  0  0  0  0  0  0  0  0  0
    0.1908    0.0778    0.1269 C   0  0  0  0  0  0  0  0  0  0  0  0
   -0.2883    1.3660   -0.1118 C   0  0  0  0  0  0  0  0  0  0  0  0
   -0.6991   -0.9934    0.2074 C   0  0  0  0  0  0  0  0  0  0  0  0
   -2.0679   -0.7764    0.0492 C   0  0  0  0  0  0  0  0  0  0  0  0
   -1.6571    1.5828   -0.2701 C   0  0  0  0  0  0  0  0  0  0  0  0
   -2.5470    0.5117   -0.1895 C   0  0  0  0  0  0  0  0  0  0  0  0
    1.6124   -0.1958    0.2992 C   0  0  0  0  0  0  0  0  0  0  0  0
    3.4571   -1.4219   -0.5795 C   0  0  0  0  0  0  0  0  0  0  0  0
  1  6  1  0
  2  8  1  0
  3 11  1  0
  3 12  1  0
  4 11  2  0
  5  6  2  0
  5  7  1  0
  5 11  1  0
  6  9  1  0
  7  8  2  0
  8 10  1  0
  9 10  2  0
M  END
>  <PUBCHEM_COMPOUND_CID>  (1) 
17947

>  <PUBCHEM_CONFORMER_RMSD>  (1) 
0.6

>  <PUBCHEM_CONFORMER_DIVERSEORDER>  (1) 
2
1

>  <PUBCHEM_MMFF94_PARTIAL_CHARGES>  (1) 
15
1 -0.18
10 -0.15
11 0.63
12 0.28
13 0.15
14 0.15
15 0.15
2 -0.18
3 -0.43
4 -0.57
5 0.09
6 0.18
7 -0.15
8 0.18
9 -0.15

>  <PUBCHEM_EFFECTIVE_ROTOR_COUNT>  (1) 
2

>  <PUBCHEM_PHARMACOPHORE_FEATURES>  (1) 
2
1 4 acceptor
6 5 6 7 8 9 10 rings

>  <PUBCHEM_HEAVY_ATOM_COUNT>  (1) 
12

>  <PUBCHEM_ATOM_DEF_STEREO_COUNT>  (1) 
0

>  <PUBCHEM_ATOM_UDEF_STEREO_COUNT>  (1) 
0

>  <PUBCHEM_BOND_DEF_STEREO_COUNT>  (1) 
0

>  <PUBCHEM_BOND_UDEF_STEREO_COUNT>  (1) 
0

>  <PUBCHEM_ISOTOPIC_ATOM_COUNT>  (1) 
0

>  <PUBCHEM_COMPONENT_COUNT>  (1) 
1

>  <PUBCHEM_CACTVS_TAUTO_COUNT>  (1) 
1

>  <PUBCHEM_CONFORMER_ID>  (1) 
0000461B00000002

>  <PUBCHEM_MMFF94_ENERGY>  (1) 
32.1812

>  <PUBCHEM_FEATURE_SELFOVERLAP>  (1) 
10.148

>  <PUBCHEM_SHAPE_FINGERPRINT>  (1) 
1 1 17690283028737553260
12032990 46 18411422812592282331
12524768 44 18341881974800062776
12716758 59 18265609879720519515
12932764 1 17458622285358673141
13024252 1 16806467824205171769
13380535 76 17614277092902435027
14128692 85 18334866038384748837
14911166 2 18335694984753906173
15219456 202 18202274801983957890
161256 15 18191872438242767053
16945 1 18262510399676471369
17990270 104 18337952410389140857
18380122 1 18199168745891299144
193761 8 18337392759429889581
19973954 147 18411417345130400673
20201158 50 17987234422173243870
20588541 1 18055357933309830151
20645476 183 17459197274363991895
20645477 70 18048307049442727263
20711985 344 18194395585336683768
20715346 28 18201429294247436979
20871998 184 18272933795440364639
20871998 22 18338801233603336219
20871999 31 18334017163958195239
21061003 4 16916787302220030686
21501502 16 18264489662446020409
22213442 358 18411141359200755894
22802520 49 18199468770721075558
23402539 116 18125991672943800141
23552423 10 18188208809632553589
23557571 272 18271254803078359396
23559900 14 18125154928133072518
241688 4 18337955588654540105
2748010 2 18412252935112143348
3071541 250 18264500640107875701
369184 2 16343691123873849387
528862 383 17830446537874232321
7364860 26 18196938996228993940
81228 2 18266169552725034217

>  <PUBCHEM_SHAPE_MULTIPOLES>  (1) 
238.96
4.66
2.5
0.78
0.6
1.09
0.07
-3.3
-0.29
-0.07
-0.3
0.33
-0.04
0.48

>  <PUBCHEM_SHAPE_SELFOVERLAP>  (1) 
479.921

>  <PUBCHEM_SHAPE_VOLUME>  (1) 
142.7

>  <PUBCHEM_COORDINATE_TYPE>  (1) 
2
5
10

$$$$
