17942
     RDKit          3D

 11 10  0  0  0  0  0  0  0  0999 V2000
   -0.4621   -0.5707    1.4854 O   0  0  0  0  0  0  0  0  0  0  0  0
    1.8167   -1.3699   -0.0902 C   0  0  0  0  0  0  0  0  0  0  0  0
    2.1740    0.0891   -0.3897 C   0  0  0  0  0  0  0  0  0  0  0  0
    0.3749   -1.7045   -0.4715 C   0  0  0  0  0  0  0  0  0  0  0  0
    3.6104    0.4052    0.0283 C   0  0  0  0  0  0  0  0  0  0  0  0
   -0.6466   -0.9062    0.3189 C   0  0  0  0  0  0  0  0  0  0  0  0
    3.9604    1.8604   -0.2392 C   0  0  0  0  0  0  0  0  0  0  0  0
   -1.9248   -0.6096   -0.3888 C   0  0  0  0  0  0  0  0  0  0  0  0
   -2.6779    0.4864   -0.1908 C   0  0  0  0  0  0  0  0  0  0  0  0
   -3.9687    0.8076   -0.8911 C   0  0  0  0  0  0  0  0  0  0  0  0
   -2.2563    1.5123    0.8287 C   0  0  0  0  0  0  0  0  0  0  0  0
  1  6  2  0
  2  3  1  0
  2  4  1  0
  3  5  1  0
  4  6  1  0
  5  7  1  0
  6  8  1  0
  8  9  2  3
  9 10  1  0
  9 11  1  0
M  END
>  <PUBCHEM_COMPOUND_CID>  (1) 
17942

>  <PUBCHEM_CONFORMER_RMSD>  (1) 
0.6

>  <PUBCHEM_CONFORMER_DIVERSEORDER>  (1) 
6
114
70
157
144
115
11
158
9
81
154
132
52
164
90
100
67
155
121
143
146
32
46
17
160
42
134
156
50
137
141
58
25
165
18
163
49
148
83
68
61
82
54
107
2
127
133
23
136
97
162
104
31
74
76
128
48
7
119
88
159
73
22
108
130
110
153
92
99
93
66
33
13
75
45
151
47
41
102
79
94
140
85
98
161
28
142
29
1
59
122
139
131
95
19
124
3
135
51
53
109
44
71
55
36
8
57
111
40
72
35
56
84
126
37
125
38
123
27
118
87
10
5
78
103
86
24
116
89
15
62
80
150
105
147
34
43
26
117
77
4
91
65
113
39
152
69
14
145
112
60
149
106
120
64
129
138
96
63
101
12
21
30
16
20

>  <PUBCHEM_MMFF94_PARTIAL_CHARGES>  (1) 
8
1 -0.57
10 0.14
11 0.14
23 0.15
4 0.06
6 0.49
8 -0.14
9 -0.28

>  <PUBCHEM_EFFECTIVE_ROTOR_COUNT>  (1) 
5

>  <PUBCHEM_PHARMACOPHORE_FEATURES>  (1) 
4
1 1 acceptor
1 7 hydrophobe
3 9 10 11 hydrophobe
4 2 3 4 5 hydrophobe

>  <PUBCHEM_HEAVY_ATOM_COUNT>  (1) 
11

>  <PUBCHEM_ATOM_DEF_STEREO_COUNT>  (1) 
0

>  <PUBCHEM_ATOM_UDEF_STEREO_COUNT>  (1) 
0

>  <PUBCHEM_BOND_DEF_STEREO_COUNT>  (1) 
0

>  <PUBCHEM_BOND_UDEF_STEREO_COUNT>  (1) 
0

>  <PUBCHEM_ISOTOPIC_ATOM_COUNT>  (1) 
0

>  <PUBCHEM_COMPONENT_COUNT>  (1) 
1

>  <PUBCHEM_CACTVS_TAUTO_COUNT>  (1) 
5

>  <PUBCHEM_CONFORMER_ID>  (1) 
0000461600000006

>  <PUBCHEM_MMFF94_ENERGY>  (1) 
10.38

>  <PUBCHEM_FEATURE_SELFOVERLAP>  (1) 
20.298

>  <PUBCHEM_SHAPE_FINGERPRINT>  (1) 
10149128 111 18409171017205231892
10149128 76 18411987957463584190
10465860 71 15626218026798892673
12162725 195 18270116807900084578
122479 349 18113900506792382428
12251169 10 12035735292677805135
13618510 140 18411423933810777308
14123260 362 18263376913644739892
14251710 61 10735875096968907517
14390081 3 18411704261630137343
14897335 6 18410851058008547894
15775835 57 18408321090274242308
170605 34 18334293128381205291
17834072 32 18265058118621816748
18186145 218 18339088072751483046
20281407 28 9511463312206789574
20653085 51 18200046027052369259
20767249 462 18334859450226917100
20871998 22 10881668080070306658
20871999 31 16486964150662563199
21293036 1 16558743520666006223
21499 59 18411976957830955767
21524375 3 18411696586882405438
22096605 113 18410291380688174855
22169311 14 14273461383123381012
22485316 2 9079116644198929214
22926399 37 18412821378867144365
22959321 54 18411700975985573520
23500284 214 18186527617556677200
23552423 10 17484805914082907479
305870 269 18040429958582121122
328317 168 18411412946888730493
83771 10 9439405735380307958
94968 8 11455884776222770300

>  <PUBCHEM_SHAPE_MULTIPOLES>  (1) 
220.51
7.06
1.82
0.96
2.06
0.15
0.19
4.65
-1.56
0.84
-0.03
-0.47
0.04
-0.14

>  <PUBCHEM_SHAPE_SELFOVERLAP>  (1) 
406.456

>  <PUBCHEM_SHAPE_VOLUME>  (1) 
139.8

>  <PUBCHEM_COORDINATE_TYPE>  (1) 
2
5
10

$$$$
