17945
     RDKit          3D

 11 11  0  0  0  0  0  0  0  0999 V2000
    1.6157    2.3091   -0.2130 Cl  0  0  0  0  0  0  0  0  0  0  0  0
   -3.2992   -1.5126    0.1568 Cl  0  0  0  0  0  0  0  0  0  0  0  0
    2.3317   -1.9550   -1.0160 Cl  0  0  0  0  0  0  0  0  0  0  0  0
    2.5460   -0.3783    1.0731 O   0  0  0  0  0  0  0  0  0  0  0  0
    0.4591   -0.1459    0.0596 C   0  0  0  0  0  0  0  0  0  0  0  0
    0.2747    1.2267   -0.1063 C   0  0  0  0  0  0  0  0  0  0  0  0
   -0.6459   -0.9933    0.1405 C   0  0  0  0  0  0  0  0  0  0  0  0
   -1.9353   -0.4680    0.0555 C   0  0  0  0  0  0  0  0  0  0  0  0
   -1.0146    1.7520   -0.1913 C   0  0  0  0  0  0  0  0  0  0  0  0
   -2.1197    0.9046   -0.1102 C   0  0  0  0  0  0  0  0  0  0  0  0
    1.7875   -0.7394    0.1513 C   0  0  0  0  0  0  0  0  0  0  0  0
  1  6  1  0
  2  8  1  0
  3 11  1  0
  4 11  2  0
  5  6  2  0
  5  7  1  0
  5 11  1  0
  6  9  1  0
  7  8  2  0
  8 10  1  0
  9 10  2  0
M  END
>  <PUBCHEM_COMPOUND_CID>  (1) 
17945

>  <PUBCHEM_CONFORMER_RMSD>  (1) 
0.4

>  <PUBCHEM_CONFORMER_DIVERSEORDER>  (1) 
1
2
3
4

>  <PUBCHEM_MMFF94_PARTIAL_CHARGES>  (1) 
14
1 -0.18
10 -0.15
11 0.69
12 0.15
13 0.15
14 0.15
2 -0.18
3 -0.21
4 -0.57
5 0.09
6 0.18
7 -0.15
8 0.18
9 -0.15

>  <PUBCHEM_EFFECTIVE_ROTOR_COUNT>  (1) 
1

>  <PUBCHEM_PHARMACOPHORE_FEATURES>  (1) 
1
6 5 6 7 8 9 10 rings

>  <PUBCHEM_HEAVY_ATOM_COUNT>  (1) 
11

>  <PUBCHEM_ATOM_DEF_STEREO_COUNT>  (1) 
0

>  <PUBCHEM_ATOM_UDEF_STEREO_COUNT>  (1) 
0

>  <PUBCHEM_BOND_DEF_STEREO_COUNT>  (1) 
0

>  <PUBCHEM_BOND_UDEF_STEREO_COUNT>  (1) 
0

>  <PUBCHEM_ISOTOPIC_ATOM_COUNT>  (1) 
0

>  <PUBCHEM_COMPONENT_COUNT>  (1) 
1

>  <PUBCHEM_CACTVS_TAUTO_COUNT>  (1) 
1

>  <PUBCHEM_CONFORMER_ID>  (1) 
0000461900000001

>  <PUBCHEM_MMFF94_ENERGY>  (1) 
29.0222

>  <PUBCHEM_FEATURE_SELFOVERLAP>  (1) 
5.074

>  <PUBCHEM_SHAPE_FINGERPRINT>  (1) 
10857977 72 18338783555290910898
12423570 1 11820922683973497009
12524768 44 18336833107694515647
12716758 59 17977946782743865799
13380535 76 17975412734875168019
14128692 85 18336557048518558644
161256 15 18336835293764401629
16945 1 18191303780261933013
17990270 104 18411140242324720406
193761 8 18409732863347062669
19973954 147 18411419492503226889
20645477 70 18265610069406592535
20653091 64 18260545662264914544
20871998 184 18271516524857150663
20871998 22 18411706482302517027
21040471 1 17687461269588886285
21501502 16 18336547204801948481
22213442 358 18340495482379857766
22802520 49 17912086049357269438
23552423 10 18260551134126907533
23559900 14 17693657018635602774
241688 4 18123194506588044000
2748010 2 18268705013521622574
5084963 1 18273217478030122275
528862 383 18118679061324897785
7364860 26 18270124633536388660
81228 2 18194396689206731801

>  <PUBCHEM_SHAPE_MULTIPOLES>  (1) 
226.11
4.12
2.42
0.81
1.57
0.62
-0.01
-2.04
-0.12
-0.89
0.47
-0.4
-0.19
0.35

>  <PUBCHEM_SHAPE_SELFOVERLAP>  (1) 
445.785

>  <PUBCHEM_SHAPE_VOLUME>  (1) 
136.1

>  <PUBCHEM_COORDINATE_TYPE>  (1) 
2
5
10

$$$$
