17954
     RDKit          3D

 21 23  0  0  0  0  0  0  0  0999 V2000
    1.3711    0.6795   -1.1780 O   0  0  0  0  0  0  0  0  0  0  0  0
    3.0797   -1.3923   -0.7464 O   0  0  0  0  0  0  0  0  0  0  0  0
    5.4292   -0.9525    0.8652 O   0  0  0  0  0  0  0  0  0  0  0  0
   -2.2068    0.2819   -0.4492 N   0  0  0  0  0  0  0  0  0  0  0  0
    3.3905   -0.1730   -0.2033 C   0  0  0  0  0  0  0  0  0  0  0  0
   -0.9475    0.0429   -1.1149 C   0  0  0  0  0  0  0  0  0  0  0  0
    2.5009    0.8749   -0.4420 C   0  0  0  0  0  0  0  0  0  0  0  0
    0.1259    0.9500   -0.5376 C   0  0  0  0  0  0  0  0  0  0  0  0
    4.5349    0.0427    0.5686 C   0  0  0  0  0  0  0  0  0  0  0  0
   -3.2547   -0.5994   -0.9591 C   0  0  0  0  0  0  0  0  0  0  0  0
    4.2004   -2.2809   -0.7386 C   0  0  0  0  0  0  0  0  0  0  0  0
    4.8849   -2.2510    0.6141 C   0  0  0  0  0  0  0  0  0  0  0  0
   -4.5662   -0.3783   -0.2531 C   0  0  0  0  0  0  0  0  0  0  0  0
    2.7728    2.1451    0.0667 C   0  0  0  0  0  0  0  0  0  0  0  0
    4.8128    1.3163    1.0655 C   0  0  0  0  0  0  0  0  0  0  0  0
    3.9296    2.3667    0.8147 C   0  0  0  0  0  0  0  0  0  0  0  0
   -4.8595   -1.1112    0.8884 C   0  0  0  0  0  0  0  0  0  0  0  0
   -5.4629    0.5554   -0.7535 C   0  0  0  0  0  0  0  0  0  0  0  0
   -6.0743   -0.9063    1.5427 C   0  0  0  0  0  0  0  0  0  0  0  0
   -6.6776    0.7602   -0.0991 C   0  0  0  0  0  0  0  0  0  0  0  0
   -6.9833    0.0292    1.0490 C   0  0  0  0  0  0  0  0  0  0  0  0
  1  7  1  0
  1  8  1  0
  2  5  1  0
  2 11  1  0
  3  9  1  0
  3 12  1  0
  4  6  1  0
  4 10  1  0
  5  7  1  0
  5  9  2  0
  6  8  1  0
  7 14  2  0
  9 15  1  0
 10 13  1  0
 11 12  1  0
 13 17  2  0
 13 18  1  0
 14 16  1  0
 15 16  2  0
 17 19  1  0
 18 20  2  0
 19 21  2  0
 20 21  1  0
M  END
>  <PUBCHEM_COMPOUND_CID>  (1) 
17954

>  <PUBCHEM_CONFORMER_RMSD>  (1) 
0.8

>  <PUBCHEM_CONFORMER_DIVERSEORDER>  (1) 
1
102
15
128
40
126
117
95
111
153
125
131
96
109
8
76
6
162
39
149
143
141
133
150
19
146
24
138
124
74
38
33
64
21
116
56
104
12
94
5
136
47
72
58
25
41
86
69
18
78
71
157
161
70
144
139
3
122
79
14
145
129
148
80
26
16
17
160
4
75
89
27
82
36
2
152
84
158
61
135
88
110
121
91
90
66
37
140
42
154
29
54
22
99
35
97
106
137
55
127
107
103
31
119
53
9
142
49
20
34
120
48
108
118
105
132
83
63
32
44
51
163
65
10
85
57
67
134
101
87
11
155
159
30
59
156
68
45
77
123
151
62
147
13
115
81
164
7
23
114
52
113
28
73
100
92
43
60
93
130
46
112
98
50

>  <PUBCHEM_MMFF94_PARTIAL_CHARGES>  (1) 
30
1 -0.36
10 0.41
11 0.28
12 0.28
13 -0.14
14 -0.15
15 -0.15
16 -0.15
17 -0.15
18 -0.15
19 -0.15
2 -0.36
20 -0.15
21 -0.15
3 -0.36
30 0.36
33 0.15
34 0.15
35 0.15
36 0.15
37 0.15
38 0.15
39 0.15
4 -0.9
40 0.15
5 0.08
6 0.27
7 0.08
8 0.28
9 0.08

>  <PUBCHEM_EFFECTIVE_ROTOR_COUNT>  (1) 
6.8

>  <PUBCHEM_PHARMACOPHORE_FEATURES>  (1) 
8
1 1 acceptor
1 2 acceptor
1 3 acceptor
1 4 cation
1 4 donor
6 13 17 18 19 20 21 rings
6 2 3 5 9 11 12 rings
6 5 7 9 14 15 16 rings

>  <PUBCHEM_HEAVY_ATOM_COUNT>  (1) 
21

>  <PUBCHEM_ATOM_DEF_STEREO_COUNT>  (1) 
0

>  <PUBCHEM_ATOM_UDEF_STEREO_COUNT>  (1) 
0

>  <PUBCHEM_BOND_DEF_STEREO_COUNT>  (1) 
0

>  <PUBCHEM_BOND_UDEF_STEREO_COUNT>  (1) 
0

>  <PUBCHEM_ISOTOPIC_ATOM_COUNT>  (1) 
0

>  <PUBCHEM_COMPONENT_COUNT>  (1) 
1

>  <PUBCHEM_CACTVS_TAUTO_COUNT>  (1) 
1

>  <PUBCHEM_CONFORMER_ID>  (1) 
0000462200000001

>  <PUBCHEM_MMFF94_ENERGY>  (1) 
62.4519

>  <PUBCHEM_FEATURE_SELFOVERLAP>  (1) 
40.643

>  <PUBCHEM_SHAPE_FINGERPRINT>  (1) 
10299344 5 13118001085669121541
10316853 100 17748832920628483995
10319926 262 17894636950865380567
10912923 1 17489302036082012405
12596602 18 18201441415331156787
12616971 3 18059850675555204415
12778500 126 18059859432645458833
13167372 99 17989210309256695385
13533116 47 18413390925568247562
13785724 45 17700707163948049590
13955234 65 18262517113080029444
14211702 104 17896608478167474939
14251758 9 18410857646857444047
14251764 18 17775001323956208589
14341114 176 18412826884587748452
14347424 109 18342736295340243176
14528608 73 10592049050792346469
15183329 4 16056882442596349113
15238133 3 16271924943662425674
15348495 7 18335985371803391793
15475509 35 17458891649392838306
15475509 84 17917429774848123288
15961568 22 12319734769392581594
17844677 252 18335143085746367773
18222031 100 15864070979294730597
20281389 69 18060139843399051681
20554085 129 15554445163972109407
21315759 148 18041565849009896113
21623969 137 18407760347881458411
21859007 373 18189326867499385549
220451 1 18342741861828576197
23016692 55 15791731897389785063
2303208 19 17821449054194022615
23081809 10 17489583489773965981
23424782 7 10231459840619419621
23522609 53 13768497371529162879
239999 70 17967812769339667752
2767999 5 15985106310523765209
29717793 49 11963379743915849745
312425 54 18335426785674211739
3178227 256 18411129274128552072
3472631 163 13829835951087645954
351380 3 14707204435821107897
3663271 9 18201721803686273163
4073 2 18188211025609130723
497634 4 7997976786941172703
5104073 3 18339637837292787384
6327066 14 9438242457070264922
8509985 295 17131830975690587672
8863177 126 18259989283638206466
960060 61 12468638339249329902
9995097 60 18410007698578309445

>  <PUBCHEM_SHAPE_MULTIPOLES>  (1) 
409.58
19.43
2.09
1.24
24.36
0.18
0.15
2.82
6.75
-4.3
0.26
0.69
0.11
1.21

>  <PUBCHEM_SHAPE_SELFOVERLAP>  (1) 
873.66

>  <PUBCHEM_SHAPE_VOLUME>  (1) 
226.6

>  <PUBCHEM_COORDINATE_TYPE>  (1) 
2
5
10

$$$$
