17964
     RDKit          3D

 21 23  0  0  0  0  0  0  0  0999 V2000
   -0.6006    0.1368    0.9469 O   0  0  0  0  0  0  0  0  0  0  0  0
   -2.6515   -1.5577    0.3732 O   0  0  0  0  0  0  0  0  0  0  0  0
   -5.1991   -0.4556   -0.4053 O   0  0  0  0  0  0  0  0  0  0  0  0
    2.7838   -0.3559   -0.5785 N   0  0  0  0  0  0  0  0  0  0  0  0
    3.8205   -1.4776   -0.4288 C   0  0  0  0  0  0  0  0  0  0  0  0
    3.2703    1.0389   -0.1626 C   0  0  0  0  0  0  0  0  0  0  0  0
    1.5450   -0.6950    0.2640 C   0  0  0  0  0  0  0  0  0  0  0  0
    4.6636   -1.3746    0.8379 C   0  0  0  0  0  0  0  0  0  0  0  0
    4.7032    1.3453   -0.5863 C   0  0  0  0  0  0  0  0  0  0  0  0
    5.9379   -0.5588    0.6273 C   0  0  0  0  0  0  0  0  0  0  0  0
    5.7258    0.9415    0.4740 C   0  0  0  0  0  0  0  0  0  0  0  0
    2.3354   -0.3192   -2.0471 C   0  0  0  0  0  0  0  0  0  0  0  0
    0.5335    0.4275    0.1409 C   0  0  0  0  0  0  0  0  0  0  0  0
   -1.7991    0.6373    0.5268 C   0  0  0  0  0  0  0  0  0  0  0  0
   -2.8698   -0.2109    0.2432 C   0  0  0  0  0  0  0  0  0  0  0  0
   -1.9530    2.0173    0.3929 C   0  0  0  0  0  0  0  0  0  0  0  0
   -4.1014    0.3225   -0.1448 C   0  0  0  0  0  0  0  0  0  0  0  0
   -3.1751    2.5484   -0.0208 C   0  0  0  0  0  0  0  0  0  0  0  0
   -3.6755   -2.3278   -0.2624 C   0  0  0  0  0  0  0  0  0  0  0  0
   -4.2503    1.7018   -0.2915 C   0  0  0  0  0  0  0  0  0  0  0  0
   -5.0435   -1.7841    0.1011 C   0  0  0  0  0  0  0  0  0  0  0  0
  1 13  1  0
  1 14  1  0
  2 15  1  0
  2 19  1  0
  3 17  1  0
  3 21  1  0
  4  5  1  0
  4  6  1  0
  4  7  1  0
  4 12  1  0
  5  8  1  0
  6  9  1  0
  7 13  1  0
  8 10  1  0
  9 11  1  0
 10 11  1  0
 14 15  1  0
 14 16  2  0
 15 17  2  0
 16 18  1  0
 17 20  1  0
 18 20  2  0
 19 21  1  0
M  CHG  1   4   1
M  END
>  <PUBCHEM_COMPOUND_CID>  (1) 
17964

>  <PUBCHEM_CONFORMER_RMSD>  (1) 
0.8

>  <PUBCHEM_CONFORMER_DIVERSEORDER>  (1) 
1
58
71
48
69
50
49
22
84
37
34
35
98
19
15
40
93
8
55
31
13
36
63
57
23
30
56
107
27
67
4
51
14
47
2
99
24
20
3
97
10
45
26
78
41
21
106
38
65
44
74
89
6
59
42
91
83
17
11
82
94
79
64
73
29
54
101
104
90
61
62
75
60
16
102
28
72
70
92
9
43
7
5
18
33
68
95
53
25
88
85
52
66
12
81
108
103
100
77
76
39
80
105
87
86
96
46
32

>  <PUBCHEM_MMFF94_PARTIAL_CHARGES>  (1) 
20
1 -0.36
12 0.5
13 0.28
14 0.08
15 0.08
16 -0.15
17 0.08
18 -0.15
19 0.28
2 -0.36
20 -0.15
21 0.28
3 -0.36
4 -1.01
41 0.15
42 0.15
45 0.15
5 0.5
6 0.5
7 0.5

>  <PUBCHEM_EFFECTIVE_ROTOR_COUNT>  (1) 
6.2

>  <PUBCHEM_PHARMACOPHORE_FEATURES>  (1) 
7
1 1 acceptor
1 2 acceptor
1 3 acceptor
1 4 cation
6 14 15 16 17 18 20 rings
6 2 3 15 17 19 21 rings
7 4 5 6 8 9 10 11 rings

>  <PUBCHEM_HEAVY_ATOM_COUNT>  (1) 
21

>  <PUBCHEM_ATOM_DEF_STEREO_COUNT>  (1) 
0

>  <PUBCHEM_ATOM_UDEF_STEREO_COUNT>  (1) 
0

>  <PUBCHEM_BOND_DEF_STEREO_COUNT>  (1) 
0

>  <PUBCHEM_BOND_UDEF_STEREO_COUNT>  (1) 
0

>  <PUBCHEM_ISOTOPIC_ATOM_COUNT>  (1) 
0

>  <PUBCHEM_COMPONENT_COUNT>  (1) 
1

>  <PUBCHEM_CACTVS_TAUTO_COUNT>  (1) 
1

>  <PUBCHEM_CONFORMER_ID>  (1) 
0000462C00000001

>  <PUBCHEM_MMFF94_ENERGY>  (1) 
81.5418

>  <PUBCHEM_FEATURE_SELFOVERLAP>  (1) 
35.57

>  <PUBCHEM_SHAPE_FINGERPRINT>  (1) 
10595046 47 18335420192540514416
11315181 36 18187365436821871984
12107183 9 17758952619828993098
12166972 35 17530685441500900524
12236239 1 17894909624520516139
12616971 3 17385453111003919701
128620 24 17203612571061953948
13167823 11 18335136479859689818
13583140 156 17917699189582253786
14251764 38 18335425677261834812
15196674 1 18410293596817303648
15788980 27 18113622274484253896
17349148 13 17458067066557374816
17492 89 18411985719770539278
17834072 33 18335420175476631344
17844677 252 18410862053309474480
17857418 61 18408600366370122234
18927931 339 18409456886044269119
192875 21 17313109673901994260
19489759 90 18260546718779305528
200 152 18408321103137882675
20300324 65 18408887334784194697
20511986 3 18115009858111066786
21315763 129 18410008828202531424
21728266 224 18408879642202413803
22393880 68 18340216180704266774
23402539 116 18334572451510527636
23557571 272 18272093794178938568
23559900 14 18341039792117484577
3004659 81 18335422348777770162
32027 91 17768537092843602790
329604 57 18340488957939491032
34797466 226 17846506967178088804
351380 180 18334857212617520936
4073 2 18040722489316251066
4214541 1 18409729534478149049
4325135 7 18412826914895047740
5104073 3 18412829062157202336
5283173 99 18337667525208884505
559249 180 18261950726582838499
573450 72 18334289834177972554
67856867 119 18262520407035070092
7495541 125 17988638631913573248
9709674 26 18199757955217116223
9971528 1 17240204318403377428
9981440 41 18261116253366686691

>  <PUBCHEM_SHAPE_MULTIPOLES>  (1) 
409.58
14.41
2.28
1
7.54
0.17
-0.37
-1.75
0.66
-2.45
0.02
0.84
-0.09
-0.27

>  <PUBCHEM_SHAPE_SELFOVERLAP>  (1) 
849.623

>  <PUBCHEM_SHAPE_VOLUME>  (1) 
232.6

>  <PUBCHEM_COORDINATE_TYPE>  (1) 
2
5
10

$$$$
