17966
     RDKit          3D

 33 36  0  0  0  0  0  0  0  0999 V2000
    5.3979    1.3738   -0.9800 S   0  0  0  0  0  0  0  0  0  0  0  0
   -0.2774    4.6644    0.4425 F   0  0  0  0  0  0  0  0  0  0  0  0
   -1.1407    2.8613   -0.3988 F   0  0  0  0  0  0  0  0  0  0  0  0
   -0.5681    2.9132    1.6985 F   0  0  0  0  0  0  0  0  0  0  0  0
   -7.0771   -0.2347   -0.7540 O   0  0  0  0  0  0  0  0  0  0  0  0
   -8.1357    0.4905    1.1671 O   0  0  0  0  0  0  0  0  0  0  0  0
   -0.9846   -2.2376    0.2554 N   0  0  0  0  0  0  0  0  0  0  0  0
   -3.8181   -1.8523   -0.1701 N   0  0  0  0  0  0  0  0  0  0  0  0
    2.9933   -0.4690   -0.2822 N   0  0  0  0  0  0  0  0  0  0  0  0
   -1.7532   -1.2800    1.0600 C   0  0  0  0  0  0  0  0  0  0  0  0
   -1.8452   -3.3401   -0.1905 C   0  0  0  0  0  0  0  0  0  0  0  0
   -2.9571   -0.7493    0.2739 C   0  0  0  0  0  0  0  0  0  0  0  0
   -3.0499   -2.8094   -0.9755 C   0  0  0  0  0  0  0  0  0  0  0  0
    0.1615   -2.7451    1.0072 C   0  0  0  0  0  0  0  0  0  0  0  0
    1.3305   -1.7553    1.0068 C   0  0  0  0  0  0  0  0  0  0  0  0
   -4.9654   -1.3455   -0.9204 C   0  0  0  0  0  0  0  0  0  0  0  0
    1.8419   -1.3753   -0.3824 C   0  0  0  0  0  0  0  0  0  0  0  0
   -5.9900   -0.7280    0.0178 C   0  0  0  0  0  0  0  0  0  0  0  0
    2.7278    0.9235   -0.2591 C   0  0  0  0  0  0  0  0  0  0  0  0
    4.2769   -1.0567   -0.1506 C   0  0  0  0  0  0  0  0  0  0  0  0
    3.7428    1.8609   -0.5348 C   0  0  0  0  0  0  0  0  0  0  0  0
    5.4454   -0.3156   -0.4157 C   0  0  0  0  0  0  0  0  0  0  0  0
    1.4549    1.4367    0.0734 C   0  0  0  0  0  0  0  0  0  0  0  0
    4.4481   -2.3896    0.2831 C   0  0  0  0  0  0  0  0  0  0  0  0
    1.1963    2.8097    0.1080 C   0  0  0  0  0  0  0  0  0  0  0  0
    3.4759    3.2413   -0.5033 C   0  0  0  0  0  0  0  0  0  0  0  0
    6.7164   -0.9012   -0.2766 C   0  0  0  0  0  0  0  0  0  0  0  0
    2.2070    3.7128   -0.1840 C   0  0  0  0  0  0  0  0  0  0  0  0
    5.7139   -2.9652    0.4246 C   0  0  0  0  0  0  0  0  0  0  0  0
    6.8490   -2.2212    0.1412 C   0  0  0  0  0  0  0  0  0  0  0  0
   -0.1687    3.3029    0.4530 C   0  0  0  0  0  0  0  0  0  0  0  0
   -8.0892    0.3551   -0.0481 C   0  0  0  0  0  0  0  0  0  0  0  0
   -9.1591    0.8250   -0.9865 C   0  0  0  0  0  0  0  0  0  0  0  0
  1 21  1  0
  1 22  1  0
  2 31  1  0
  3 31  1  0
  4 31  1  0
  5 18  1  0
  5 32  1  0
  6 32  2  0
  7 10  1  0
  7 11  1  0
  7 14  1  0
  8 12  1  0
  8 13  1  0
  8 16  1  0
  9 17  1  0
  9 19  1  0
  9 20  1  0
 10 12  1  0
 11 13  1  0
 14 15  1  0
 15 17  1  0
 16 18  1  0
 19 21  2  0
 19 23  1  0
 20 22  2  0
 20 24  1  0
 21 26  1  0
 22 27  1  0
 23 25  2  0
 24 29  2  0
 25 28  1  0
 25 31  1  0
 26 28  2  0
 27 30  2  0
 29 30  1  0
 32 33  1  0
M  END
>  <PUBCHEM_COMPOUND_CID>  (1) 
17966

>  <PUBCHEM_CONFORMER_RMSD>  (1) 
1.2

>  <PUBCHEM_CONFORMER_DIVERSEORDER>  (1) 
1
50
82
74
13
89
66
5
28
61
68
94
87
27
41
47
76
26
86
58
44
9
90
91
63
35
72
69
34
70
95
65
24
37
11
51
54
2
43
77
93
84
83
59
8
73
78
16
6
45
10
85
92
12
64
31
52
60
18
80
14
39
67
15
36
29
23
75
4
53
57
42
71
48
17
55
40
30
32
21
3
88
33
81
22
62
79
19
25
20
56
46
7
38
49

>  <PUBCHEM_MMFF94_PARTIAL_CHARGES>  (1) 
39
1 -0.2
10 0.27
11 0.27
12 0.27
13 0.27
14 0.27
16 0.27
17 0.37
18 0.28
19 0.1
2 -0.34
20 0.1
21 0.1
22 0.1
23 -0.15
24 -0.15
25 -0.14
26 -0.15
27 -0.15
28 -0.15
29 -0.15
3 -0.34
30 -0.15
31 1.16
32 0.66
33 0.06
4 -0.34
5 -0.43
52 0.15
53 0.15
54 0.15
55 0.15
56 0.15
57 0.15
58 0.15
6 -0.57
7 -0.81
8 -0.81
9 -0.57

>  <PUBCHEM_EFFECTIVE_ROTOR_COUNT>  (1) 
10.6

>  <PUBCHEM_PHARMACOPHORE_FEATURES>  (1) 
8
1 6 acceptor
1 7 cation
1 8 cation
1 9 cation
6 1 9 19 20 21 22 rings
6 19 21 23 25 26 28 rings
6 20 22 24 27 29 30 rings
6 7 8 10 11 12 13 rings

>  <PUBCHEM_HEAVY_ATOM_COUNT>  (1) 
33

>  <PUBCHEM_ATOM_DEF_STEREO_COUNT>  (1) 
0

>  <PUBCHEM_ATOM_UDEF_STEREO_COUNT>  (1) 
0

>  <PUBCHEM_BOND_DEF_STEREO_COUNT>  (1) 
0

>  <PUBCHEM_BOND_UDEF_STEREO_COUNT>  (1) 
0

>  <PUBCHEM_ISOTOPIC_ATOM_COUNT>  (1) 
0

>  <PUBCHEM_COMPONENT_COUNT>  (1) 
1

>  <PUBCHEM_CACTVS_TAUTO_COUNT>  (1) 
1

>  <PUBCHEM_CONFORMER_ID>  (1) 
0000462E00000001

>  <PUBCHEM_MMFF94_ENERGY>  (1) 
82.4993

>  <PUBCHEM_FEATURE_SELFOVERLAP>  (1) 
40.63

>  <PUBCHEM_SHAPE_FINGERPRINT>  (1) 
10006869 2 18342173402191847052
10483366 6 18411135814899325105
10675989 125 18261955279891860700
1100329 8 18337956662961067624
11456790 92 18040994012167999691
11720765 8 18342452703003366657
12788726 201 18335138657935831314
14068700 675 18272369737548982848
14117953 113 18273218577547311255
14395042 24 18190450559291312712
14725015 67 18410568448986118368
15183329 4 18201725067977300005
15351339 4 18115297865569647891
15439362 3 18192430998840104912
15927050 60 17544479649034515418
16087824 20 18410575063325652604
18335252 114 18409720751982341471
19301679 30 18120930612759630306
21033648 29 17386286618079848762
21133410 90 17203320143533634576
22122407 14 18409177597759846115
22224240 67 8574423223322325238
23559900 14 18269267035920805402
24893992 56 18334293193855721979
249057 3 18342737421107380567
3103668 31 18117838798445390972
4144715 1 18044380663007112779
439807 62 18335139769926211421
57527295 17 17971755734239074522
58902169 19 18201991149796978135

>  <PUBCHEM_SHAPE_MULTIPOLES>  (1) 
634.47
20.38
5.19
0.99
41.53
3.98
-0.11
-4.72
4.01
-3.71
-0.63
0.6
0.03
-1.22

>  <PUBCHEM_SHAPE_SELFOVERLAP>  (1) 
1330.969

>  <PUBCHEM_SHAPE_VOLUME>  (1) 
361.8

>  <PUBCHEM_COORDINATE_TYPE>  (1) 
2
5
10

$$$$
