17967
     RDKit          3D

 25 26  0  0  0  0  0  0  0  0999 V2000
   -3.3121   -2.6480    1.5197 O   0  0  0  0  0  0  0  0  0  0  0  0
    3.3114   -2.6476   -1.5211 O   0  0  0  0  0  0  0  0  0  0  0  0
   -1.1468   -2.6180    1.1601 O   0  0  0  0  0  0  0  0  0  0  0  0
    1.1464   -2.6176   -1.1599 O   0  0  0  0  0  0  0  0  0  0  0  0
   -5.2133    2.7023   -0.9623 O   0  0  0  0  0  0  0  0  0  0  0  0
    5.2147    2.7015    0.9621 O   0  0  0  0  0  0  0  0  0  0  0  0
   -6.0932    0.9795    0.0754 O   0  0  0  0  0  0  0  0  0  0  0  0
    6.0937    0.9791   -0.0769 O   0  0  0  0  0  0  0  0  0  0  0  0
    0.0003   -0.7405    0.0009 N   0  0  0  0  0  0  0  0  0  0  0  0
   -2.2820   -2.0948    1.0689 N   0  0  0  0  0  0  0  0  0  0  0  0
    2.2816   -2.0945   -1.0692 N   0  0  0  0  0  0  0  0  0  0  0  0
   -5.1027    1.5869   -0.3985 N   0  0  0  0  0  0  0  0  0  0  0  0
    5.1037    1.5863    0.3978 N   0  0  0  0  0  0  0  0  0  0  0  0
   -1.2904   -0.1717   -0.0892 C   0  0  0  0  0  0  0  0  0  0  0  0
    1.2847   -0.1745    0.0900 C   0  0  0  0  0  0  0  0  0  0  0  0
   -2.4055   -0.8288    0.4306 C   0  0  0  0  0  0  0  0  0  0  0  0
    2.4057   -0.8288   -0.4305 C   0  0  0  0  0  0  0  0  0  0  0  0
   -1.4386    1.0679   -0.7114 C   0  0  0  0  0  0  0  0  0  0  0  0
    1.4397    1.0675    0.7131 C   0  0  0  0  0  0  0  0  0  0  0  0
   -3.6687   -0.2463    0.3285 C   0  0  0  0  0  0  0  0  0  0  0  0
    3.6691   -0.2464   -0.3290 C   0  0  0  0  0  0  0  0  0  0  0  0
   -3.8169    0.9933   -0.2937 C   0  0  0  0  0  0  0  0  0  0  0  0
    3.8178    0.9929    0.2937 C   0  0  0  0  0  0  0  0  0  0  0  0
   -2.7018    1.6505   -0.8137 C   0  0  0  0  0  0  0  0  0  0  0  0
    2.7031    1.6499    0.8147 C   0  0  0  0  0  0  0  0  0  0  0  0
  1 10  1  0
  2 11  1  0
  3 10  2  0
  4 11  2  0
  5 12  1  0
  6 13  1  0
  7 12  2  0
  8 13  2  0
  9 14  1  0
  9 15  1  0
 10 16  1  0
 11 17  1  0
 12 22  1  0
 13 23  1  0
 14 16  2  0
 14 18  1  0
 15 17  2  0
 15 19  1  0
 16 20  1  0
 17 21  1  0
 18 24  2  0
 19 25  2  0
 20 22  2  0
 21 23  2  0
 22 24  1  0
 23 25  1  0
M  CHG  8   1  -1   2  -1   5  -1   6  -1  10   1  11   1  12   1  13   1
M  END
>  <PUBCHEM_COMPOUND_CID>  (1) 
17967

>  <PUBCHEM_CONFORMER_RMSD>  (1) 
0.8

>  <PUBCHEM_CONFORMER_DIVERSEORDER>  (1) 
2
1
3
4

>  <PUBCHEM_MMFF94_PARTIAL_CHARGES>  (1) 
32
1 -0.52
10 0.91
11 0.91
12 0.91
13 0.91
14 0.1
15 0.1
16 0.13
17 0.13
18 -0.15
19 -0.15
2 -0.52
20 -0.15
21 -0.15
22 0.13
23 0.13
24 -0.15
25 -0.15
26 0.4
27 0.15
28 0.15
29 0.15
3 -0.52
30 0.15
31 0.15
32 0.15
4 -0.52
5 -0.52
6 -0.52
7 -0.52
8 -0.52
9 -0.6

>  <PUBCHEM_EFFECTIVE_ROTOR_COUNT>  (1) 
6

>  <PUBCHEM_PHARMACOPHORE_FEATURES>  (1) 
16
1 1 acceptor
1 1 anion
1 2 acceptor
1 2 anion
1 3 acceptor
1 4 acceptor
1 5 acceptor
1 5 anion
1 6 acceptor
1 6 anion
1 7 acceptor
1 8 acceptor
1 9 cation
1 9 donor
6 14 16 18 20 22 24 rings
6 15 17 19 21 23 25 rings

>  <PUBCHEM_HEAVY_ATOM_COUNT>  (1) 
25

>  <PUBCHEM_ATOM_DEF_STEREO_COUNT>  (1) 
0

>  <PUBCHEM_ATOM_UDEF_STEREO_COUNT>  (1) 
0

>  <PUBCHEM_BOND_DEF_STEREO_COUNT>  (1) 
0

>  <PUBCHEM_BOND_UDEF_STEREO_COUNT>  (1) 
0

>  <PUBCHEM_ISOTOPIC_ATOM_COUNT>  (1) 
0

>  <PUBCHEM_COMPONENT_COUNT>  (1) 
1

>  <PUBCHEM_CACTVS_TAUTO_COUNT>  (1) 
1

>  <PUBCHEM_CONFORMER_ID>  (1) 
0000462F00000002

>  <PUBCHEM_MMFF94_ENERGY>  (1) 
109.9468

>  <PUBCHEM_FEATURE_SELFOVERLAP>  (1) 
81.53

>  <PUBCHEM_SHAPE_FINGERPRINT>  (1) 
10319926 262 18260818324728123234
10366900 7 18131063848779152153
12236239 1 15791730819041861160
12403259 118 18117833516015313808
12403259 415 18410586084074609799
12730499 353 18343304759989207956
13402501 40 18410572885640278084
13540713 4 18338531784277026631
13544592 145 18264497195591798015
14178342 30 17676772058230992323
14341114 328 17313100908390882764
15099037 37 18116433824326878930
15375358 24 18410855460128161799
17980427 23 17750515251002121148
17980427 26 18119790444680559167
1813 80 13840536304023723186
18915476 22 18060149725528073190
20600515 1 17749394784197389157
20642791 13 18262799700384620019
20645477 56 18333450937150571849
20645477 70 17703232819281358630
20832881 197 17906739098710363383
21033648 29 18057591261187178808
21859007 373 17098037348277123900
22182313 1 18339941388353900406
23557571 272 18188783845402529786
23559900 14 18261686874020584398
2916195 48 18408318865898226061
3380486 145 18198358423576815827
3545911 37 18411139134133850997
495365 180 18059845143347455826
5104073 3 18335424547405309755
56616090 163 18409733958579190172
59755656 215 18410295775035908764
633830 44 18195516001219305093
8272917 22 18060138696009378556
9709674 26 18410859862760199959

>  <PUBCHEM_SHAPE_MULTIPOLES>  (1) 
442.63
12.03
3.06
1.11
0.01
1.26
0
-8.52
0
0
0
0
0.53
3.17

>  <PUBCHEM_SHAPE_SELFOVERLAP>  (1) 
963.519

>  <PUBCHEM_SHAPE_VOLUME>  (1) 
240.1

>  <PUBCHEM_COORDINATE_TYPE>  (1) 
2
5
10

$$$$
