17984
     RDKit          3D

 29 30  0  0  0  0  0  0  0  0999 V2000
    0.3146    0.4520    1.5207 O   0  0  0  0  0  0  0  0  0  0  0  0
   -1.7965    1.7778    0.5628 O   0  0  0  0  0  0  0  0  0  0  0  0
   -1.3810   -0.8445    2.3765 O   0  0  0  0  0  0  0  0  0  0  0  0
    3.1414    0.3433    1.1987 N   0  0  0  0  0  0  0  0  0  0  0  0
    4.1522    1.3236    0.7987 C   0  0  0  0  0  0  0  0  0  0  0  0
    3.7377   -0.9796    1.3424 C   0  0  0  0  0  0  0  0  0  0  0  0
    2.4986    0.7572    2.4472 C   0  0  0  0  0  0  0  0  0  0  0  0
    3.4856    2.5506    0.1790 C   0  0  0  0  0  0  0  0  0  0  0  0
    3.9024   -1.6390   -0.0259 C   0  0  0  0  0  0  0  0  0  0  0  0
    1.1493    0.0754    2.6080 C   0  0  0  0  0  0  0  0  0  0  0  0
   -1.7281    0.3658    0.2776 C   0  0  0  0  0  0  0  0  0  0  0  0
    2.6906    2.1749   -1.0720 C   0  0  0  0  0  0  0  0  0  0  0  0
    4.5465   -3.0200    0.1002 C   0  0  0  0  0  0  0  0  0  0  0  0
   -0.9508   -0.0838    1.5175 C   0  0  0  0  0  0  0  0  0  0  0  0
   -3.1372   -0.2233    0.1789 C   0  0  0  0  0  0  0  0  0  0  0  0
   -0.9501    0.1403   -1.0207 C   0  0  0  0  0  0  0  0  0  0  0  0
    1.9948    3.3850   -1.6746 C   0  0  0  0  0  0  0  0  0  0  0  0
    4.6816   -3.6978   -1.2541 C   0  0  0  0  0  0  0  0  0  0  0  0
   -3.3694   -1.5443    0.5623 C   0  0  0  0  0  0  0  0  0  0  0  0
   -1.0056    1.0902   -2.0409 C   0  0  0  0  0  0  0  0  0  0  0  0
   -4.1896    0.5607   -0.2940 C   0  0  0  0  0  0  0  0  0  0  0  0
   -0.1852   -1.0147   -1.1841 C   0  0  0  0  0  0  0  0  0  0  0  0
   -4.6536   -2.0813    0.4726 C   0  0  0  0  0  0  0  0  0  0  0  0
   -0.2964    0.8849   -3.2244 C   0  0  0  0  0  0  0  0  0  0  0  0
   -5.4739    0.0237   -0.3836 C   0  0  0  0  0  0  0  0  0  0  0  0
    0.5241   -1.2197   -2.3676 C   0  0  0  0  0  0  0  0  0  0  0  0
   -2.4647    2.0098    1.7868 C   0  0  0  0  0  0  0  0  0  0  0  0
   -5.7058   -1.2973   -0.0003 C   0  0  0  0  0  0  0  0  0  0  0  0
    0.4684   -0.2699   -3.3876 C   0  0  0  0  0  0  0  0  0  0  0  0
  1 10  1  0
  1 14  1  0
  2 11  1  0
  2 27  1  0
  3 14  2  0
  4  5  1  0
  4  6  1  0
  4  7  1  0
  5  8  1  0
  6  9  1  0
  7 10  1  0
  8 12  1  0
  9 13  1  0
 11 14  1  0
 11 15  1  0
 11 16  1  0
 12 17  1  0
 13 18  1  0
 15 19  2  0
 15 21  1  0
 16 20  2  0
 16 22  1  0
 19 23  1  0
 20 24  1  0
 21 25  2  0
 22 26  2  0
 23 28  2  0
 24 29  2  0
 25 28  1  0
 26 29  1  0
M  END
>  <PUBCHEM_COMPOUND_CID>  (1) 
17984

>  <PUBCHEM_CONFORMER_RMSD>  (1) 
1.2

>  <PUBCHEM_CONFORMER_DIVERSEORDER>  (1) 
1
32
12
45
7
9
16
40
31
65
53
61
59
54
69
36
35
14
71
6
10
76
72
58
60
70
52
22
49
43
27
28
41
4
39
8
37
17
26
25
75
64
63
46
21
5
56
74
68
57
51
15
13
29
19
23
34
67
50
38
2
30
18
44
48
47
33
3
55
11
66
62
73
42
20
24

>  <PUBCHEM_MMFF94_PARTIAL_CHARGES>  (1) 
33
1 -0.43
10 0.28
11 0.63
14 0.66
15 -0.14
16 -0.14
19 -0.15
2 -0.56
20 -0.15
21 -0.15
22 -0.15
23 -0.15
24 -0.15
25 -0.15
26 -0.15
27 0.28
28 -0.15
29 -0.15
3 -0.57
4 -0.81
5 0.27
52 0.15
53 0.15
54 0.15
55 0.15
56 0.15
57 0.15
58 0.15
59 0.15
6 0.27
63 0.15
64 0.15
7 0.27

>  <PUBCHEM_EFFECTIVE_ROTOR_COUNT>  (1) 
14

>  <PUBCHEM_PHARMACOPHORE_FEATURES>  (1) 
7
1 17 hydrophobe
1 18 hydrophobe
1 2 acceptor
1 3 acceptor
1 4 cation
6 15 19 21 23 25 28 rings
6 16 20 22 24 26 29 rings

>  <PUBCHEM_HEAVY_ATOM_COUNT>  (1) 
29

>  <PUBCHEM_ATOM_DEF_STEREO_COUNT>  (1) 
0

>  <PUBCHEM_ATOM_UDEF_STEREO_COUNT>  (1) 
0

>  <PUBCHEM_BOND_DEF_STEREO_COUNT>  (1) 
0

>  <PUBCHEM_BOND_UDEF_STEREO_COUNT>  (1) 
0

>  <PUBCHEM_ISOTOPIC_ATOM_COUNT>  (1) 
0

>  <PUBCHEM_COMPONENT_COUNT>  (1) 
1

>  <PUBCHEM_CACTVS_TAUTO_COUNT>  (1) 
1

>  <PUBCHEM_CONFORMER_ID>  (1) 
0000464000000001

>  <PUBCHEM_MMFF94_ENERGY>  (1) 
72.8096

>  <PUBCHEM_FEATURE_SELFOVERLAP>  (1) 
35.52

>  <PUBCHEM_SHAPE_FINGERPRINT>  (1) 
10369192 42 18118670257507630840
11578080 2 17201111161061669905
12422481 6 16486697948463326267
12467345 10 18042962254288583489
12596599 1 18113897143722324296
12788726 201 15482676822521548954
14022347 108 16127821897380079320
14170010 4 15792281714024279143
14910302 57 17896588510516226330
15003188 3 17240764020971476748
15664445 248 16153718677764371724
15840311 113 17894908521795797389
15848702 151 18041271157986291917
1813 80 16588015827622927935
19319366 153 17773869982230869608
20642791 239 13840851914825834174
23559900 14 18411133606774587859
34797466 226 18114737231152075491
3493558 16 18268429044989092561
35225 105 16240159219460087660
404807 14 17899972738460352579
460360 51 17130446613589784443
484985 159 16894837537042345278
513532 50 17458632280000856854
70251023 43 15721327887409896849

>  <PUBCHEM_SHAPE_MULTIPOLES>  (1) 
574.22
10.16
3.18
3.05
4.8
0.55
-1.3
5.97
1.79
-4.72
-1.04
-1.17
-0.61
0.58

>  <PUBCHEM_SHAPE_SELFOVERLAP>  (1) 
1179.041

>  <PUBCHEM_SHAPE_VOLUME>  (1) 
331.4

>  <PUBCHEM_COORDINATE_TYPE>  (1) 
2
5
10

$$$$
