17987
     RDKit          3D

 11 11  0  0  0  0  0  0  0  0999 V2000
    3.4820   -0.0008    0.0016 Cl  0  0  0  0  0  0  0  0  0  0  0  0
   -0.8751   -2.3450   -0.0007 N   0  0  0  0  0  0  0  0  0  0  0  0
   -0.8736    2.3456    0.0007 N   0  0  0  0  0  0  0  0  0  0  0  0
   -0.9070    0.0003    0.0000 N   0  0  0  0  0  0  0  0  0  0  0  0
    1.1715    1.1993   -0.0003 N   0  0  0  0  0  0  0  0  0  0  0  0
    1.1708   -1.2002   -0.0010 N   0  0  0  0  0  0  0  0  0  0  0  0
   -0.1697   -1.1222   -0.0005 C   0  0  0  0  0  0  0  0  0  0  0  0
   -0.1691    1.1221    0.0000 C   0  0  0  0  0  0  0  0  0  0  0  0
   -2.3027   -2.4167    0.0015 C   0  0  0  0  0  0  0  0  0  0  0  0
   -2.3012    2.4181   -0.0004 C   0  0  0  0  0  0  0  0  0  0  0  0
    1.7741   -0.0006   -0.0009 C   0  0  0  0  0  0  0  0  0  0  0  0
  1 11  1  0
  2  7  1  0
  2  9  1  0
  3  8  1  0
  3 10  1  0
  4  7  2  0
  4  8  1  0
  5  8  2  0
  5 11  1  0
  6  7  1  0
  6 11  2  0
M  END
>  <PUBCHEM_COMPOUND_CID>  (1) 
17987

>  <PUBCHEM_CONFORMER_RMSD>  (1) 
0.4

>  <PUBCHEM_CONFORMER_DIVERSEORDER>  (1) 
1
3
2
6
5
4
7

>  <PUBCHEM_MMFF94_PARTIAL_CHARGES>  (1) 
13
1 -0.18
10 0.37
11 0.8
12 0.4
13 0.4
2 -0.87
3 -0.87
4 -0.62
5 -0.62
6 -0.62
7 0.72
8 0.72
9 0.37

>  <PUBCHEM_EFFECTIVE_ROTOR_COUNT>  (1) 
2

>  <PUBCHEM_PHARMACOPHORE_FEATURES>  (1) 
5
1 2 donor
1 3 donor
4 2 4 6 7 cation
4 3 4 5 8 cation
6 4 5 6 7 8 11 rings

>  <PUBCHEM_HEAVY_ATOM_COUNT>  (1) 
11

>  <PUBCHEM_ATOM_DEF_STEREO_COUNT>  (1) 
0

>  <PUBCHEM_ATOM_UDEF_STEREO_COUNT>  (1) 
0

>  <PUBCHEM_BOND_DEF_STEREO_COUNT>  (1) 
0

>  <PUBCHEM_BOND_UDEF_STEREO_COUNT>  (1) 
0

>  <PUBCHEM_ISOTOPIC_ATOM_COUNT>  (1) 
0

>  <PUBCHEM_COMPONENT_COUNT>  (1) 
1

>  <PUBCHEM_CACTVS_TAUTO_COUNT>  (1) 
5

>  <PUBCHEM_CONFORMER_ID>  (1) 
0000464300000001

>  <PUBCHEM_MMFF94_ENERGY>  (1) 
31.8278

>  <PUBCHEM_FEATURE_SELFOVERLAP>  (1) 
25.415

>  <PUBCHEM_SHAPE_FINGERPRINT>  (1) 
1 1 17689154513242807828
12423570 1 9294444034972631270
13380535 76 18197490723680543934
14648413 74 17111002098050017635
16945 1 18410575089179585798
19021347 4 18194964041327311289
193761 8 18410855464755444966
20871998 184 18201158840531386918
21040471 1 18266740173621622404
23530152 11 18122908620806494805
241688 4 18194684988796467450
2748010 2 18049736121730075565
54173680 148 18409729581707036514
81228 2 18409171047048242666

>  <PUBCHEM_SHAPE_MULTIPOLES>  (1) 
203.34
3.71
3.08
0.58
2.52
0
0
0
0
-3.33
0
0.02
0
0

>  <PUBCHEM_SHAPE_SELFOVERLAP>  (1) 
400.995

>  <PUBCHEM_SHAPE_VOLUME>  (1) 
119.8

>  <PUBCHEM_COORDINATE_TYPE>  (1) 
2
5
10

$$$$
