1798
     RDKit          3D

 14 14  0  0  0  0  0  0  0  0999 V2000
   -2.9131    0.5331   -0.0914 S   0  0  0  0  0  0  0  0  0  0  0  0
    0.0333    0.9344   -0.0492 S   0  0  0  0  0  0  0  0  0  0  0  0
   -2.7857    1.8475   -0.7224 O   0  0  0  0  0  0  0  0  0  0  0  0
   -3.7707   -0.4855   -0.6957 O   0  0  0  0  0  0  0  0  0  0  0  0
    2.7391    1.9477   -0.0189 O   0  0  0  0  0  0  0  0  0  0  0  0
    0.3390   -1.5701    0.0083 N   0  0  0  0  0  0  0  0  0  0  0  0
   -1.0364   -1.4438   -0.0194 N   0  0  0  0  0  0  0  0  0  0  0  0
    2.3841   -0.3748    0.0209 N   0  0  0  0  0  0  0  0  0  0  0  0
   -3.4597    0.7935    1.5225 N   0  0  0  0  0  0  0  0  0  0  0  0
    1.0437   -0.4421   -0.0022 C   0  0  0  0  0  0  0  0  0  0  0  0
   -1.3168   -0.1565   -0.0516 C   0  0  0  0  0  0  0  0  0  0  0  0
    0.8834   -2.9127    0.0439 C   0  0  0  0  0  0  0  0  0  0  0  0
    3.1952    0.8139    0.0111 C   0  0  0  0  0  0  0  0  0  0  0  0
    4.6647    0.5156    0.0442 C   0  0  0  0  0  0  0  0  0  0  0  0
  1  3  2  0
  1  4  2  0
  1  9  1  0
  1 11  1  0
  2 10  1  0
  2 11  1  0
  5 13  2  0
  6  7  1  0
  6 10  2  0
  6 12  1  0
  7 11  2  0
  8 10  1  0
  8 13  1  0
 13 14  1  0
M  CHG  1   6   1
M  END
>  <PUBCHEM_COMPOUND_CID>  (1) 
1798

>  <PUBCHEM_CONFORMER_RMSD>  (1) 
0.6

>  <PUBCHEM_CONFORMER_DIVERSEORDER>  (1) 
1
16
14
7
6
17
12
5
15
10
13
8
18
11
3
9
4
2

>  <PUBCHEM_MMFF94_PARTIAL_CHARGES>  (1) 
17
1 1.5
10 0.82
11 0.32
12 0.51
13 0.89
14 0.06
18 0.45
19 0.42
2 -0.13
20 0.42
3 -0.65
4 -0.65
5 -0.57
6 -0.46
7 -0.29
8 -0.66
9 -0.98

>  <PUBCHEM_EFFECTIVE_ROTOR_COUNT>  (1) 
3

>  <PUBCHEM_PHARMACOPHORE_FEATURES>  (1) 
7
1 3 acceptor
1 4 acceptor
1 5 acceptor
1 7 acceptor
1 8 donor
1 9 donor
5 2 6 7 10 11 rings

>  <PUBCHEM_HEAVY_ATOM_COUNT>  (1) 
14

>  <PUBCHEM_ATOM_DEF_STEREO_COUNT>  (1) 
0

>  <PUBCHEM_ATOM_UDEF_STEREO_COUNT>  (1) 
0

>  <PUBCHEM_BOND_DEF_STEREO_COUNT>  (1) 
0

>  <PUBCHEM_BOND_UDEF_STEREO_COUNT>  (1) 
0

>  <PUBCHEM_ISOTOPIC_ATOM_COUNT>  (1) 
0

>  <PUBCHEM_COMPONENT_COUNT>  (1) 
1

>  <PUBCHEM_CACTVS_TAUTO_COUNT>  (1) 
3

>  <PUBCHEM_CONFORMER_ID>  (1) 
0000070600000001

>  <PUBCHEM_MMFF94_ENERGY>  (1) 
17.9465

>  <PUBCHEM_FEATURE_SELFOVERLAP>  (1) 
35.54

>  <PUBCHEM_SHAPE_FINGERPRINT>  (1) 
10608611 8 18190175689974582141
10980938 120 18410008797736482906
11543360 7 15554154973841953952
12346645 44 18343304738604055363
12932764 1 18265625273268469351
13380535 76 18408320003621428330
14325111 11 18410008827616618212
14897335 6 18411695495892172974
15219456 202 18189056395611129635
15309172 13 18409172133775260177
15775835 57 18342177764865789237
16945 1 18338235951313790063
18186145 218 18272376347471723108
201361 129 18200042720059225609
20281407 28 8935005879876078340
20510252 161 18053384580579044802
20645477 56 18337952419696798976
20645477 70 18266732477246171119
21499 59 18410288129313522991
21524375 3 18340766030780542510
23402539 116 18271515485522375620
23402655 69 18342163433229985397
25 1 18342742896936760624
2748010 2 18337965579012376886
305870 269 18334572400166261178
366044 4 18409727391653445722
458136 41 18337973202436707522
58051976 378 18413101762668766079
5902787 121 10591753281958785668
6333449 129 18339079405554861462
6430166 295 18408317792240525192
69090 78 18341326794690321950
7364860 26 18196088850592418830
81228 2 17690268730965491770
81539 233 18187360991578375398

>  <PUBCHEM_SHAPE_MULTIPOLES>  (1) 
258.28
7.03
2.21
0.78
1.97
1.41
-0.17
-3.37
-0.22
0.53
0.08
-0.67
-0.15
-0.11

>  <PUBCHEM_SHAPE_SELFOVERLAP>  (1) 
496.837

>  <PUBCHEM_SHAPE_VOLUME>  (1) 
159.6

>  <PUBCHEM_COORDINATE_TYPE>  (1) 
2
5
10

$$$$
