17993
     RDKit          3D

 26 27  0  0  1  0  0  0  0  0999 V2000
   -0.8443    1.2074    0.1350 O   0  0  0  0  0  0  0  0  0  0  0  0
    1.1803    0.6615    1.7889 O   0  0  0  0  0  0  0  0  0  0  0  0
    0.8797    2.2012   -1.0178 O   0  0  0  0  0  0  0  0  0  0  0  0
   -3.5628    0.4773   -0.2867 N   0  0  0  0  0  0  0  0  0  0  0  0
   -4.6350    0.0072    0.5897 C   0  0  0  0  0  0  0  0  0  0  0  0
   -3.1531    1.8305    0.0872 C   0  0  0  0  0  0  0  0  0  0  0  0
    1.3387    0.2675    0.4106 C   0  0  0  0  0  0  0  0  0  0  0  0
   -3.9921    0.4410   -1.6842 C   0  0  0  0  0  0  0  0  0  0  0  0
   -1.7586    2.1334   -0.4372 C   0  0  0  0  0  0  0  0  0  0  0  0
   -5.6534    1.1197    0.8234 C   0  0  0  0  0  0  0  0  0  0  0  0
   -4.0386   -0.4754    1.9080 C   0  0  0  0  0  0  0  0  0  0  0  0
    0.7775   -1.1420    0.2107 C   0  0  0  0  0  0  0  0  0  0  0  0
    2.8144    0.3296    0.0086 C   0  0  0  0  0  0  0  0  0  0  0  0
    0.4702    1.3471   -0.2405 C   0  0  0  0  0  0  0  0  0  0  0  0
   -4.4217   -0.9585   -2.0905 C   0  0  0  0  0  0  0  0  0  0  0  0
    0.8414   -2.0719    1.2486 C   0  0  0  0  0  0  0  0  0  0  0  0
    3.1671    0.6452   -1.3036 C   0  0  0  0  0  0  0  0  0  0  0  0
    0.2015   -1.4971   -1.0092 C   0  0  0  0  0  0  0  0  0  0  0  0
    3.8065    0.0709    0.9544 C   0  0  0  0  0  0  0  0  0  0  0  0
    0.3296   -3.3566    1.0666 C   0  0  0  0  0  0  0  0  0  0  0  0
    4.5117    0.7021   -1.6700 C   0  0  0  0  0  0  0  0  0  0  0  0
   -0.3103   -2.7819   -1.1911 C   0  0  0  0  0  0  0  0  0  0  0  0
    5.1512    0.1278    0.5878 C   0  0  0  0  0  0  0  0  0  0  0  0
    1.6428    1.9822    1.9887 C   0  0  0  0  0  0  0  0  0  0  0  0
   -0.2463   -3.7116   -0.1532 C   0  0  0  0  0  0  0  0  0  0  0  0
    5.5038    0.4433   -0.7243 C   0  0  0  0  0  0  0  0  0  0  0  0
  1  9  1  0
  1 14  1  0
  2  7  1  0
  2 24  1  0
  3 14  2  0
  4  5  1  0
  4  6  1  0
  4  8  1  0
  5 10  1  0
  5 11  1  0
  6  9  1  0
  7 12  1  0
  7 13  1  0
  7 14  1  0
  8 15  1  0
 12 16  2  0
 12 18  1  0
 13 17  2  0
 13 19  1  0
 16 20  1  0
 17 21  1  0
 18 22  2  0
 19 23  2  0
 20 25  2  0
 21 26  2  0
 22 25  1  0
 23 26  1  0
M  END
>  <PUBCHEM_COMPOUND_CID>  (1) 
17993

>  <PUBCHEM_CONFORMER_RMSD>  (1) 
1

>  <PUBCHEM_CONFORMER_DIVERSEORDER>  (1) 
1
98
102
71
91
43
52
55
77
90
137
115
42
53
20
109
112
126
12
46
85
124
138
56
25
141
29
134
88
139
82
128
11
79
62
59
7
48
70
117
3
44
97
129
51
110
54
28
8
61
10
76
95
121
64
83
96
36
30
45
108
87
111
19
17
47
130
106
135
39
100
136
125
22
89
23
6
27
101
78
72
2
4
73
68
49
24
99
58
80
140
57
119
35
21
33
114
26
113
93
107
31
74
40
92
38
131
104
32
86
34
9
75
120
37
94
132
127
65
81
60
67
15
122
5
118
14
63
84
50
105
66
16
103
123
69
18
116
13
133
41

>  <PUBCHEM_MMFF94_PARTIAL_CHARGES>  (1) 
33
1 -0.43
12 -0.14
13 -0.14
14 0.66
16 -0.15
17 -0.15
18 -0.15
19 -0.15
2 -0.56
20 -0.15
21 -0.15
22 -0.15
23 -0.15
24 0.28
25 -0.15
26 -0.15
3 -0.57
4 -0.81
43 0.15
44 0.15
45 0.15
46 0.15
47 0.15
48 0.15
49 0.15
5 0.27
50 0.15
54 0.15
55 0.15
6 0.27
7 0.63
8 0.27
9 0.28

>  <PUBCHEM_EFFECTIVE_ROTOR_COUNT>  (1) 
10

>  <PUBCHEM_PHARMACOPHORE_FEATURES>  (1) 
6
1 2 acceptor
1 3 acceptor
1 4 cation
3 5 10 11 hydrophobe
6 12 16 18 20 22 25 rings
6 13 17 19 21 23 26 rings

>  <PUBCHEM_HEAVY_ATOM_COUNT>  (1) 
26

>  <PUBCHEM_ATOM_DEF_STEREO_COUNT>  (1) 
0

>  <PUBCHEM_ATOM_UDEF_STEREO_COUNT>  (1) 
0

>  <PUBCHEM_BOND_DEF_STEREO_COUNT>  (1) 
0

>  <PUBCHEM_BOND_UDEF_STEREO_COUNT>  (1) 
0

>  <PUBCHEM_ISOTOPIC_ATOM_COUNT>  (1) 
0

>  <PUBCHEM_COMPONENT_COUNT>  (1) 
1

>  <PUBCHEM_CACTVS_TAUTO_COUNT>  (1) 
1

>  <PUBCHEM_CONFORMER_ID>  (1) 
0000464900000001

>  <PUBCHEM_MMFF94_ENERGY>  (1) 
82.212

>  <PUBCHEM_FEATURE_SELFOVERLAP>  (1) 
30.446

>  <PUBCHEM_SHAPE_FINGERPRINT>  (1) 
10090160 65 18114178597044797882
10119406 146 18339373976831824822
10366900 7 18412819171454453425
10906281 52 17969526843501228353
11421498 54 18128266601135736937
11488393 25 17983877587283046798
11578080 2 16082765899275060167
12035758 1 18200877374260512896
12422481 6 17976228306806285082
12467345 10 16443354212058336784
12553582 1 18409160013942468957
13140716 1 18265897033029221433
13149001 5 18129943506971343232
13583140 156 16515957146852707471
14251757 17 16845576413365147822
14787075 74 18131063866170011192
14790565 3 18337121123754255956
15209289 33 18131350821403321293
15537594 2 18343021065242399101
15849732 13 17749392551478714886
1601671 61 18410015433439726448
18681886 176 18187930620180009884
19591789 44 18338790114070143834
20028762 73 18272090564817485991
20197701 30 18335419028725748486
20567600 347 18336837381113427450
21344244 181 17916605158185802294
21421861 104 17908996404571837481
21521721 280 18340498836565135088
22224240 67 18413952789200950297
22393880 68 18058146432875283357
22956985 138 17827074000705232930
23557571 272 15864355710241890229
3052486 1 18190725621797811170
3383291 50 18058174917431635318
345986 75 12246848032271069132
3493558 16 13988078888264053724
474229 33 18333737909389756120
6009941 240 14764358106378017597
7226269 152 18201720665461787584
81228 2 17834936943261842835

>  <PUBCHEM_SHAPE_MULTIPOLES>  (1) 
512.48
10.48
3.14
1.84
2.74
3.18
-0.01
-4.2
-1.25
0.62
0.23
0.57
0.02
-0.53

>  <PUBCHEM_SHAPE_SELFOVERLAP>  (1) 
1069.576

>  <PUBCHEM_SHAPE_VOLUME>  (1) 
291.4

>  <PUBCHEM_COORDINATE_TYPE>  (1) 
2
5
10

$$$$
