17991
     RDKit          3D

 27 28  0  0  1  0  0  0  0  0999 V2000
    1.4727    0.2346    1.7159 O   0  0  0  0  0  0  0  0  0  0  0  0
   -0.8461    0.1177    0.3960 O   0  0  0  0  0  0  0  0  0  0  0  0
    0.1928    1.7925   -0.7889 O   0  0  0  0  0  0  0  0  0  0  0  0
   -4.5237    0.3642    0.4024 N   0  0  0  0  0  0  0  0  0  0  0  0
    1.5434    0.0575    0.2864 C   0  0  0  0  0  0  0  0  0  0  0  0
   -3.1998   -0.1822    0.6985 C   0  0  0  0  0  0  0  0  0  0  0  0
   -4.7416    0.4217   -1.0425 C   0  0  0  0  0  0  0  0  0  0  0  0
    2.8118    0.7121   -0.2661 C   0  0  0  0  0  0  0  0  0  0  0  0
    1.5088   -1.4352   -0.0493 C   0  0  0  0  0  0  0  0  0  0  0  0
   -2.1126    0.6744    0.0693 C   0  0  0  0  0  0  0  0  0  0  0  0
   -5.5634   -0.4392    1.0446 C   0  0  0  0  0  0  0  0  0  0  0  0
    0.2506    0.7801   -0.1011 C   0  0  0  0  0  0  0  0  0  0  0  0
   -6.0990    1.0494   -1.3490 C   0  0  0  0  0  0  0  0  0  0  0  0
    2.7809    1.2392   -1.5365 C   0  0  0  0  0  0  0  0  0  0  0  0
    2.0707   -2.3231    0.8389 C   0  0  0  0  0  0  0  0  0  0  0  0
    3.9342    0.7478    0.5287 C   0  0  0  0  0  0  0  0  0  0  0  0
    0.9178   -1.8322   -1.2266 C   0  0  0  0  0  0  0  0  0  0  0  0
   -5.3526   -0.5100    2.5475 C   0  0  0  0  0  0  0  0  0  0  0  0
    1.4487    1.6080    2.0498 C   0  0  0  0  0  0  0  0  0  0  0  0
   -6.3596    1.1014   -2.8466 C   0  0  0  0  0  0  0  0  0  0  0  0
    3.9367    1.8356   -2.0402 C   0  0  0  0  0  0  0  0  0  0  0  0
    2.0393   -3.6837    0.5331 C   0  0  0  0  0  0  0  0  0  0  0  0
    5.0901    1.3443    0.0249 C   0  0  0  0  0  0  0  0  0  0  0  0
    0.8866   -3.1928   -1.5325 C   0  0  0  0  0  0  0  0  0  0  0  0
    5.0915    1.8882   -1.2595 C   0  0  0  0  0  0  0  0  0  0  0  0
    1.4473   -4.1185   -0.6526 C   0  0  0  0  0  0  0  0  0  0  0  0
    1.3746    1.7483    3.5553 C   0  0  0  0  0  0  0  0  0  0  0  0
  1  5  1  0
  1 19  1  0
  2 10  1  0
  2 12  1  0
  3 12  2  0
  4  6  1  0
  4  7  1  0
  4 11  1  0
  5  8  1  0
  5  9  1  0
  5 12  1  0
  6 10  1  0
  7 13  1  0
  8 14  2  0
  8 16  1  0
  9 15  2  0
  9 17  1  0
 11 18  1  0
 13 20  1  0
 14 21  1  0
 15 22  1  0
 16 23  2  0
 17 24  2  0
 19 27  1  0
 21 25  2  0
 22 26  2  0
 23 25  1  0
 24 26  1  0
M  END
>  <PUBCHEM_COMPOUND_CID>  (1) 
17991

>  <PUBCHEM_CONFORMER_RMSD>  (1) 
1

>  <PUBCHEM_CONFORMER_DIVERSEORDER>  (1) 
1
58
35
27
124
127
139
23
100
75
111
33
92
90
91
120
114
54
98
101
138
40
129
48
95
122
52
141
79
142
18
70
4
32
80
53
62
49
50
85
143
77
43
14
64
93
116
130
89
31
110
128
25
136
107
109
147
84
36
30
69
105
104
94
51
66
65
59
144
9
103
86
68
41
137
7
39
112
10
37
71
97
47
74
106
118
15
67
28
125
45
81
108
61
6
60
24
140
13
72
42
56
17
19
117
44
113
63
73
26
123
121
102
83
96
135
119
131
76
2
3
99
115
134
11
55
78
12
146
132
145
22
34
8
126
38
88
16
133
46
87
29
20
21
82
5
57

>  <PUBCHEM_MMFF94_PARTIAL_CHARGES>  (1) 
33
1 -0.56
10 0.28
11 0.27
12 0.66
14 -0.15
15 -0.15
16 -0.15
17 -0.15
19 0.28
2 -0.43
21 -0.15
22 -0.15
23 -0.15
24 -0.15
25 -0.15
26 -0.15
3 -0.57
38 0.15
39 0.15
4 -0.81
40 0.15
41 0.15
5 0.63
50 0.15
51 0.15
52 0.15
53 0.15
54 0.15
55 0.15
6 0.27
7 0.27
8 -0.14
9 -0.14

>  <PUBCHEM_EFFECTIVE_ROTOR_COUNT>  (1) 
12

>  <PUBCHEM_PHARMACOPHORE_FEATURES>  (1) 
6
1 1 acceptor
1 20 hydrophobe
1 3 acceptor
1 4 cation
6 8 14 16 21 23 25 rings
6 9 15 17 22 24 26 rings

>  <PUBCHEM_HEAVY_ATOM_COUNT>  (1) 
27

>  <PUBCHEM_ATOM_DEF_STEREO_COUNT>  (1) 
0

>  <PUBCHEM_ATOM_UDEF_STEREO_COUNT>  (1) 
0

>  <PUBCHEM_BOND_DEF_STEREO_COUNT>  (1) 
0

>  <PUBCHEM_BOND_UDEF_STEREO_COUNT>  (1) 
0

>  <PUBCHEM_ISOTOPIC_ATOM_COUNT>  (1) 
0

>  <PUBCHEM_COMPONENT_COUNT>  (1) 
1

>  <PUBCHEM_CACTVS_TAUTO_COUNT>  (1) 
1

>  <PUBCHEM_CONFORMER_ID>  (1) 
0000464700000001

>  <PUBCHEM_MMFF94_ENERGY>  (1) 
81.2018

>  <PUBCHEM_FEATURE_SELFOVERLAP>  (1) 
30.446

>  <PUBCHEM_SHAPE_FINGERPRINT>  (1) 
10366900 7 18131347523227173513
10764073 3 16443332175172322778
11069576 57 18129091217660875447
11421498 54 18129402447907073889
11488393 25 18263371295880380830
12977781 61 17241637003450650818
13149001 5 17629490954208817648
133893 2 17901984892452742714
13533116 47 18129934586814541671
15849732 13 18113339735162860052
17134984 74 17700944830890934815
20600515 1 17260463674606557258
20645477 70 18337950083202967543
21421861 104 17914074013519304235
21521721 280 18199484318740376256
22393880 68 17845358011897130343
23559900 14 17896316922564312371
298252 57 18115880757673473976
32027 91 17752482062851876619
376196 1 17459480016219450868
404807 78 18120650495103023275
44802255 64 17682434612703486574
513532 50 16271916113114972798
70251023 43 17484272706445766614

>  <PUBCHEM_SHAPE_MULTIPOLES>  (1) 
533.06
12.62
3.5
2.63
22.86
5.2
1.18
-7.13
-4.59
-4.41
-0.74
1.84
-1.5
0.9

>  <PUBCHEM_SHAPE_SELFOVERLAP>  (1) 
1107.365

>  <PUBCHEM_SHAPE_VOLUME>  (1) 
304

>  <PUBCHEM_COORDINATE_TYPE>  (1) 
2
5
10

$$$$
