18
     RDKit          3D

 13 12  0  0  1  0  0  0  0  0999 V2000
    1.8377    0.9994    1.4608 O   0  0  0  0  0  0  0  0  0  0  0  0
    1.8175    1.0183   -1.3889 O   0  0  0  0  0  0  0  0  0  0  0  0
    2.5985   -2.1413   -0.2243 O   0  0  0  0  0  0  0  0  0  0  0  0
   -0.5121    2.2088   -0.7744 O   0  0  0  0  0  0  0  0  0  0  0  0
   -1.8944    0.8565    1.3263 O   0  0  0  0  0  0  0  0  0  0  0  0
   -3.1644   -1.1972    0.6539 O   0  0  0  0  0  0  0  0  0  0  0  0
   -1.9084   -1.4028   -1.2586 O   0  0  0  0  0  0  0  0  0  0  0  0
    1.5480   -0.1702    0.6954 C   0  0  0  0  0  0  0  0  0  0  0  0
    0.9032    0.2302   -0.6388 C   0  0  0  0  0  0  0  0  0  0  0  0
    2.8436   -0.9611    0.5234 C   0  0  0  0  0  0  0  0  0  0  0  0
   -0.3595    1.0445   -0.4328 C   0  0  0  0  0  0  0  0  0  0  0  0
   -1.5063    0.3734    0.2728 C   0  0  0  0  0  0  0  0  0  0  0  0
   -2.2034   -0.8585   -0.2149 C   0  0  0  0  0  0  0  0  0  0  0  0
  1  8  1  0
  2  9  1  0
  3 10  1  0
  4 11  2  0
  5 12  2  0
  6 13  1  0
  7 13  2  0
  8  9  1  0
  8 10  1  0
  9 11  1  0
 11 12  1  0
 12 13  1  0
M  END
>  <PUBCHEM_COMPOUND_CID>  (1) 
18

>  <PUBCHEM_CONFORMER_RMSD>  (1) 
0.6

>  <PUBCHEM_CONFORMER_DIVERSEORDER>  (1) 
1
141
225
109
277
341
144
343
58
337
164
295
178
114
270
282
103
314
20
121
202
162
7
294
351
227
18
274
80
246
57
324
315
100
260
156
64
251
297
333
37
330
22
174
6
321
72
226
285
71
79
181
153
313
318
280
312
147
264
102
311
304
232
68
51
275
241
258
3
152
233
259
155
243
216
48
187
203
250
320
154
93
40
218
56
265
29
257
133
148
116
16
131
81
12
327
168
279
53
323
220
165
126
332
140
9
267
44
293
125
85
335
340
193
86
119
306
350
213
69
234
210
5
151
15
10
87
201
194
198
101
113
2
263
139
301
62
34
83
143
228
325
172
190
244
348
88
347
344
161
291
60
112
120
45
345
326
212
67
104
303
111
90
77
191
24
284
95
276
78
288
189
296
118
197
349
52
269
207
240
94
13
99
338
262
273
298
339
346
115
175
14
271
42
146
135
4
26
132
63
92
237
299
182
8
17
308
160
82
208
316
268
336
59
84
196
105
171
205
91
249
28
163
231
300
98
307
221
167
176
129
97
305
235
145
283
130
128
19
224
184
217
255
30
252
286
43
289
136
55
169
159
219
173
21
76
122
266
186
261
170
248
25
192
32
66
123
310
50
96
127
185
292
183
204
110
23
211
124
334
108
206
49
38
188
242
33
47
230
214
166
31
317
236
287
54
342
254
195
36
281
89
278
329
65
245
35
199
41
117
239
328
179
177
107
229
46
309
200
149
74
158
61
137
319
302
106
223
215
209
157
150
247
142
180
27
39
331
11
138
134
70
75
290
73
253
272
222
322
256
238

>  <PUBCHEM_MMFF94_PARTIAL_CHARGES>  (1) 
17
1 -0.68
10 0.28
11 0.51
12 0.57
13 0.72
18 0.4
19 0.4
2 -0.68
20 0.4
21 0.5
3 -0.68
4 -0.57
5 -0.57
6 -0.65
7 -0.57
8 0.28
9 0.34

>  <PUBCHEM_EFFECTIVE_ROTOR_COUNT>  (1) 
5

>  <PUBCHEM_PHARMACOPHORE_FEATURES>  (1) 
12
1 1 acceptor
1 1 donor
1 12 anion
1 2 acceptor
1 2 donor
1 3 acceptor
1 3 donor
1 4 acceptor
1 5 acceptor
1 6 acceptor
1 7 acceptor
3 6 7 13 anion

>  <PUBCHEM_HEAVY_ATOM_COUNT>  (1) 
13

>  <PUBCHEM_ATOM_DEF_STEREO_COUNT>  (1) 
0

>  <PUBCHEM_ATOM_UDEF_STEREO_COUNT>  (1) 
2

>  <PUBCHEM_BOND_DEF_STEREO_COUNT>  (1) 
0

>  <PUBCHEM_BOND_UDEF_STEREO_COUNT>  (1) 
0

>  <PUBCHEM_ISOTOPIC_ATOM_COUNT>  (1) 
0

>  <PUBCHEM_COMPONENT_COUNT>  (1) 
1

>  <PUBCHEM_CACTVS_TAUTO_COUNT>  (1) 
63

>  <PUBCHEM_CONFORMER_ID>  (1) 
0000001200000001

>  <PUBCHEM_MMFF94_ENERGY>  (1) 
16.5582

>  <PUBCHEM_FEATURE_SELFOVERLAP>  (1) 
61.302

>  <PUBCHEM_SHAPE_FINGERPRINT>  (1) 
12251169 10 17847056688078123194
12897270 3 13046238177009428546
12932764 1 18059579134716549033
13299463 15 13768510642418722968
14128692 85 18263092041438230878
16945 1 18127397076226387137
17841504 4 17703495632688419594
20361792 2 18187363250794197311
20645477 70 17753327862329687995
20711985 344 17097198446717125564
20871998 184 18268146465946505623
23552423 10 17968097499342438958
5084963 1 18409446960031872306
81228 2 18116131299805517613

>  <PUBCHEM_SHAPE_MULTIPOLES>  (1) 
226.45
4.26
1.85
1.24
0.05
0
-0.07
2.4
-0.69
0.15
0.4
0.06
-0.24
-0.17

>  <PUBCHEM_SHAPE_SELFOVERLAP>  (1) 
447.211

>  <PUBCHEM_SHAPE_VOLUME>  (1) 
133.2

>  <PUBCHEM_COORDINATE_TYPE>  (1) 
2
5
10

$$$$
