18007
     RDKit          3D

 29 30  0  0  1  0  0  0  0  0999 V2000
    0.2827    0.9197   -1.1149 O   0  0  0  0  0  0  0  0  0  0  0  0
   -1.2384   -1.2754   -1.0955 O   0  0  0  0  0  0  0  0  0  0  0  0
   -1.7692    1.8634   -1.5482 O   0  0  0  0  0  0  0  0  0  0  0  0
    2.9159    1.7451   -0.4143 N   0  0  0  0  0  0  0  0  0  0  0  0
    4.2013    1.0614   -0.3351 C   0  0  0  0  0  0  0  0  0  0  0  0
    4.0008   -0.4524   -0.3815 C   0  0  0  0  0  0  0  0  0  0  0  0
    2.4202    1.7531   -1.7917 C   0  0  0  0  0  0  0  0  0  0  0  0
   -1.6409   -0.1946   -0.2297 C   0  0  0  0  0  0  0  0  0  0  0  0
    5.3371   -1.1908   -0.2782 C   0  0  0  0  0  0  0  0  0  0  0  0
    3.0280    3.1139    0.0927 C   0  0  0  0  0  0  0  0  0  0  0  0
    0.9169    1.9788   -1.8199 C   0  0  0  0  0  0  0  0  0  0  0  0
    5.1438   -2.7049   -0.3599 C   0  0  0  0  0  0  0  0  0  0  0  0
   -3.1633   -0.1808   -0.0726 C   0  0  0  0  0  0  0  0  0  0  0  0
   -0.9534   -0.3411    1.1298 C   0  0  0  0  0  0  0  0  0  0  0  0
   -1.0888    0.9758   -1.0476 C   0  0  0  0  0  0  0  0  0  0  0  0
    3.4783    3.1269    1.5436 C   0  0  0  0  0  0  0  0  0  0  0  0
    6.4659   -3.4433   -0.2242 C   0  0  0  0  0  0  0  0  0  0  0  0
   -3.8341    1.0275    0.1169 C   0  0  0  0  0  0  0  0  0  0  0  0
   -0.6631   -1.6100    1.6313 C   0  0  0  0  0  0  0  0  0  0  0  0
   -3.8803   -1.3765   -0.1196 C   0  0  0  0  0  0  0  0  0  0  0  0
   -0.6166    0.7940    1.8671 C   0  0  0  0  0  0  0  0  0  0  0  0
   -1.8185   -1.1333   -2.3767 C   0  0  0  0  0  0  0  0  0  0  0  0
   -5.2215    1.0402    0.2597 C   0  0  0  0  0  0  0  0  0  0  0  0
   -0.0363   -1.7438    2.8701 C   0  0  0  0  0  0  0  0  0  0  0  0
   -5.2678   -1.3637    0.0232 C   0  0  0  0  0  0  0  0  0  0  0  0
    0.0104    0.6602    3.1060 C   0  0  0  0  0  0  0  0  0  0  0  0
   -5.9383   -0.1553    0.2129 C   0  0  0  0  0  0  0  0  0  0  0  0
    0.3005   -0.6088    3.6075 C   0  0  0  0  0  0  0  0  0  0  0  0
   -1.3712   -2.2853   -3.2511 C   0  0  0  0  0  0  0  0  0  0  0  0
  1 11  1  0
  1 15  1  0
  2  8  1  0
  2 22  1  0
  3 15  2  0
  4  5  1  0
  4  7  1  0
  4 10  1  0
  5  6  1  0
  6  9  1  0
  7 11  1  0
  8 13  1  0
  8 14  1  0
  8 15  1  0
  9 12  1  0
 10 16  1  0
 12 17  1  0
 13 18  2  0
 13 20  1  0
 14 19  2  0
 14 21  1  0
 18 23  1  0
 19 24  1  0
 20 25  2  0
 21 26  2  0
 22 29  1  0
 23 27  2  0
 24 28  2  0
 25 27  1  0
 26 28  1  0
M  END
>  <PUBCHEM_COMPOUND_CID>  (1) 
18007

>  <PUBCHEM_CONFORMER_RMSD>  (1) 
1.4

>  <PUBCHEM_CONFORMER_DIVERSEORDER>  (1) 
1
20
32
40
33
19
54
13
45
28
53
7
50
3
48
38
42
12
35
41
8
17
26
22
24
2
16
46
15
52
51
18
23
37
25
31
30
21
6
27
39
36
34
29
11
9
10
47
44
5
43
49
4
14

>  <PUBCHEM_MMFF94_PARTIAL_CHARGES>  (1) 
33
1 -0.43
10 0.27
11 0.28
13 -0.14
14 -0.14
15 0.66
18 -0.15
19 -0.15
2 -0.56
20 -0.15
21 -0.15
22 0.28
23 -0.15
24 -0.15
25 -0.15
26 -0.15
27 -0.15
28 -0.15
3 -0.57
4 -0.81
5 0.27
50 0.15
51 0.15
52 0.15
53 0.15
56 0.15
57 0.15
58 0.15
59 0.15
60 0.15
61 0.15
7 0.27
8 0.63

>  <PUBCHEM_EFFECTIVE_ROTOR_COUNT>  (1) 
14

>  <PUBCHEM_PHARMACOPHORE_FEATURES>  (1) 
6
1 17 hydrophobe
1 2 acceptor
1 3 acceptor
1 4 cation
6 13 18 20 23 25 27 rings
6 14 19 21 24 26 28 rings

>  <PUBCHEM_HEAVY_ATOM_COUNT>  (1) 
29

>  <PUBCHEM_ATOM_DEF_STEREO_COUNT>  (1) 
0

>  <PUBCHEM_ATOM_UDEF_STEREO_COUNT>  (1) 
0

>  <PUBCHEM_BOND_DEF_STEREO_COUNT>  (1) 
0

>  <PUBCHEM_BOND_UDEF_STEREO_COUNT>  (1) 
0

>  <PUBCHEM_ISOTOPIC_ATOM_COUNT>  (1) 
0

>  <PUBCHEM_COMPONENT_COUNT>  (1) 
1

>  <PUBCHEM_CACTVS_TAUTO_COUNT>  (1) 
1

>  <PUBCHEM_CONFORMER_ID>  (1) 
0000465700000001

>  <PUBCHEM_MMFF94_ENERGY>  (1) 
74.2036

>  <PUBCHEM_FEATURE_SELFOVERLAP>  (1) 
30.446

>  <PUBCHEM_SHAPE_FINGERPRINT>  (1) 
10816530 23 17758962910682105312
10930396 42 15696566889900861930
12166972 35 18059857238618933138
12422481 6 18412827958545649495
13165053 137 15598620989101093746
13533116 47 18411423938047605340
13583140 156 17983589781402592409
1361 2 18260551125822602250
13782708 43 16987719177167270775
13911987 19 15122403201997505485
14022347 108 16732704978085898284
14931854 50 17024033653783174234
17349148 13 15984281710524790301
19930381 70 17896033252601260066
21781051 124 15791744013461061265
23559900 14 17749682886434945452
3380486 77 17418386795569795642
3493558 16 17125655912357031585
3729539 64 17023464115043752130
404807 14 17549839788840250198
437815 12 18337117752958509942
484985 159 17692536616138419830
59755656 215 17240476997144777335
6138700 20 17676491584155500818
9981440 41 16750440384268535221

>  <PUBCHEM_SHAPE_MULTIPOLES>  (1) 
574.22
11.68
3.32
3.07
4.83
0.13
-1.81
6.19
0.96
5.7
0.73
-0.29
0.43
-0.74

>  <PUBCHEM_SHAPE_SELFOVERLAP>  (1) 
1178.013

>  <PUBCHEM_SHAPE_VOLUME>  (1) 
330.8

>  <PUBCHEM_COORDINATE_TYPE>  (1) 
2
5
10

$$$$
