1801
     RDKit          3D

 12 13  0  0  0  0  0  0  0  0999 V2000
    2.2093    1.4027    0.0005 N   0  0  0  0  0  0  0  0  0  0  0  0
    2.8918   -0.7125   -0.0007 N   0  0  0  0  0  0  0  0  0  0  0  0
   -3.5843   -0.7779    0.0005 N   0  0  0  0  0  0  0  0  0  0  0  0
   -3.0398    1.4946   -0.0025 N   0  0  0  0  0  0  0  0  0  0  0  0
    1.0640    0.6485    0.0004 C   0  0  0  0  0  0  0  0  0  0  0  0
    1.5165   -0.6680   -0.0004 C   0  0  0  0  0  0  0  0  0  0  0  0
   -1.2072   -0.0598    0.0007 C   0  0  0  0  0  0  0  0  0  0  0  0
   -0.2878    0.9943    0.0011 C   0  0  0  0  0  0  0  0  0  0  0  0
    0.5790   -1.7145   -0.0006 C   0  0  0  0  0  0  0  0  0  0  0  0
   -0.7837   -1.3909   -0.0001 C   0  0  0  0  0  0  0  0  0  0  0  0
    3.2738    0.5450   -0.0001 C   0  0  0  0  0  0  0  0  0  0  0  0
   -2.6315    0.2386    0.0010 C   0  0  0  0  0  0  0  0  0  0  0  0
  1  5  1  0
  1 11  1  0
  2  6  1  0
  2 11  2  0
  3 12  1  0
  4 12  2  0
  5  6  2  0
  5  8  1  0
  6  9  1  0
  7  8  2  0
  7 10  1  0
  7 12  1  0
  9 10  2  0
M  END
>  <PUBCHEM_COMPOUND_CID>  (1) 
1801

>  <PUBCHEM_CONFORMER_RMSD>  (1) 
0.4

>  <PUBCHEM_CONFORMER_DIVERSEORDER>  (1) 
1

>  <PUBCHEM_MMFF94_PARTIAL_CHARGES>  (1) 
20
1 0.03
10 -0.15
11 0.04
12 0.41
13 0.15
14 0.15
15 0.15
16 0.27
17 0.15
18 0.4
19 0.4
2 -0.57
20 0.4
3 -0.85
4 -0.85
5 -0.15
6 0.23
7 0.09
8 -0.15
9 -0.15

>  <PUBCHEM_EFFECTIVE_ROTOR_COUNT>  (1) 
1

>  <PUBCHEM_PHARMACOPHORE_FEATURES>  (1) 
7
1 1 donor
1 3 donor
1 4 donor
3 1 2 11 cation
3 3 4 12 cation
5 1 2 5 6 11 rings
6 5 6 7 8 9 10 rings

>  <PUBCHEM_HEAVY_ATOM_COUNT>  (1) 
12

>  <PUBCHEM_ATOM_DEF_STEREO_COUNT>  (1) 
0

>  <PUBCHEM_ATOM_UDEF_STEREO_COUNT>  (1) 
0

>  <PUBCHEM_BOND_DEF_STEREO_COUNT>  (1) 
0

>  <PUBCHEM_BOND_UDEF_STEREO_COUNT>  (1) 
0

>  <PUBCHEM_ISOTOPIC_ATOM_COUNT>  (1) 
0

>  <PUBCHEM_COMPONENT_COUNT>  (1) 
1

>  <PUBCHEM_CACTVS_TAUTO_COUNT>  (1) 
4

>  <PUBCHEM_CONFORMER_ID>  (1) 
0000070900000001

>  <PUBCHEM_MMFF94_ENERGY>  (1) 
28.3402

>  <PUBCHEM_FEATURE_SELFOVERLAP>  (1) 
35.671

>  <PUBCHEM_SHAPE_FINGERPRINT>  (1) 
10219947 1 18187085061293401261
10608611 8 18410290315568200269
11471102 20 18338511946054578045
12032990 46 18410864256226777087
12932764 1 17346589790267201477
13380535 76 18410291440891894810
14144814 61 18410292510211754849
14325111 11 18410855460217968993
15775835 57 18411141333204293541
16945 1 18410856551197690950
17844478 74 18113907056686138957
18186145 218 18272939297166804888
193761 8 17402049998575230948
20645477 70 18340482254112961095
21028194 46 18411140250830174483
21040471 1 18338797926531038342
23235685 24 18411132545848788492
23402539 116 18272358797950378845
23402655 69 18268977701829053117
23463225 33 18335136458294993994
23559900 14 18343591746648591436
2748010 2 18267026235496798230
5084963 1 18272932721555784257
528886 8 18410568491983270722
53812653 166 18341889688640434920
63268167 104 18341898445973113521

>  <PUBCHEM_SHAPE_MULTIPOLES>  (1) 
227.03
5.15
1.59
0.59
1.33
0.17
0
-0.93
0
0.08
0
-0.01
0.01
0

>  <PUBCHEM_SHAPE_SELFOVERLAP>  (1) 
499.921

>  <PUBCHEM_SHAPE_VOLUME>  (1) 
123

>  <PUBCHEM_COORDINATE_TYPE>  (1) 
2
5
10

$$$$
