18010
     RDKit          3D

 20 21  0  0  1  0  0  0  0  0999 V2000
   -0.2919   -0.4854    2.0958 O   0  0  0  0  0  0  0  0  0  0  0  0
    4.4331    0.0796    0.9150 O   0  0  0  0  0  0  0  0  0  0  0  0
   -2.5751    2.3705    0.0824 N   0  0  0  0  0  0  0  0  0  0  0  0
   -1.6167    0.1305    0.1626 C   0  0  0  0  0  0  0  0  0  0  0  0
   -0.4158   -0.7324    0.6794 C   0  0  0  0  0  0  0  0  0  0  0  0
   -3.0033   -0.4419    0.5330 C   0  0  0  0  0  0  0  0  0  0  0  0
   -0.5970   -2.2663    0.5479 C   0  0  0  0  0  0  0  0  0  0  0  0
   -3.5302   -1.4418   -0.4979 C   0  0  0  0  0  0  0  0  0  0  0  0
   -1.3362   -2.7714   -0.6899 C   0  0  0  0  0  0  0  0  0  0  0  0
   -1.5254    1.5816    0.6756 C   0  0  0  0  0  0  0  0  0  0  0  0
   -2.8499   -2.8042   -0.4962 C   0  0  0  0  0  0  0  0  0  0  0  0
    0.9181   -0.3305    0.0183 C   0  0  0  0  0  0  0  0  0  0  0  0
    2.0822   -0.3091    0.7770 C   0  0  0  0  0  0  0  0  0  0  0  0
    0.9426    0.0060   -1.3298 C   0  0  0  0  0  0  0  0  0  0  0  0
   -2.4665    2.3858   -1.3836 C   0  0  0  0  0  0  0  0  0  0  0  0
   -2.5587    3.7492    0.5926 C   0  0  0  0  0  0  0  0  0  0  0  0
    3.2886    0.0544    0.1789 C   0  0  0  0  0  0  0  0  0  0  0  0
    2.1491    0.3696   -1.9280 C   0  0  0  0  0  0  0  0  0  0  0  0
    3.3222    0.3938   -1.1736 C   0  0  0  0  0  0  0  0  0  0  0  0
    5.6309    0.4620    0.2406 C   0  0  0  0  0  0  0  0  0  0  0  0
  1  5  1  0
  2 17  1  0
  2 20  1  0
  3 10  1  0
  3 15  1  0
  3 16  1  0
  4  5  1  0
  4  6  1  0
  4 10  1  0
  5  7  1  0
  5 12  1  0
  6  8  1  0
  7  9  1  0
  8 11  1  0
  9 11  1  0
 12 13  2  0
 12 14  1  0
 13 17  1  0
 14 18  2  0
 17 19  2  0
 18 19  1  0
M  END
>  <PUBCHEM_COMPOUND_CID>  (1) 
18010

>  <PUBCHEM_CONFORMER_RMSD>  (1) 
0.8

>  <PUBCHEM_CONFORMER_DIVERSEORDER>  (1) 
6
41
36
34
62
20
19
27
29
12
49
13
56
11
28
22
54
66
21
45
16
59
3
32
18
63
9
65
68
55
15
44
39
31
52
35
60
58
4
50
33
57
10
30
61
26
40
47
48
64
5
51
42
23
17
46
14
1
8
37
24
25
67
7
38
43
2
53

>  <PUBCHEM_MMFF94_PARTIAL_CHARGES>  (1) 
19
1 -0.68
10 0.27
12 -0.14
13 -0.15
14 -0.15
15 0.27
16 0.27
17 0.08
18 -0.15
19 -0.15
2 -0.36
20 0.28
3 -0.81
34 0.4
35 0.15
36 0.15
43 0.15
44 0.15
5 0.42

>  <PUBCHEM_EFFECTIVE_ROTOR_COUNT>  (1) 
5.4

>  <PUBCHEM_PHARMACOPHORE_FEATURES>  (1) 
6
1 1 acceptor
1 1 donor
1 2 acceptor
1 3 cation
6 12 13 14 17 18 19 rings
7 4 5 6 7 8 9 11 rings

>  <PUBCHEM_HEAVY_ATOM_COUNT>  (1) 
20

>  <PUBCHEM_ATOM_DEF_STEREO_COUNT>  (1) 
0

>  <PUBCHEM_ATOM_UDEF_STEREO_COUNT>  (1) 
2

>  <PUBCHEM_BOND_DEF_STEREO_COUNT>  (1) 
0

>  <PUBCHEM_BOND_UDEF_STEREO_COUNT>  (1) 
0

>  <PUBCHEM_ISOTOPIC_ATOM_COUNT>  (1) 
0

>  <PUBCHEM_COMPONENT_COUNT>  (1) 
1

>  <PUBCHEM_CACTVS_TAUTO_COUNT>  (1) 
1

>  <PUBCHEM_CONFORMER_ID>  (1) 
0000465A00000006

>  <PUBCHEM_MMFF94_ENERGY>  (1) 
76.5668

>  <PUBCHEM_FEATURE_SELFOVERLAP>  (1) 
30.446

>  <PUBCHEM_SHAPE_FINGERPRINT>  (1) 
11640471 11 18041844991265710481
11725454 13 16841306936905700024
11833330 49 18339357586523771209
12107183 9 17976250250078608146
12173636 292 18198066867963863877
12236239 1 17967526921543288050
12403814 3 17631729494840976183
12788726 201 18264221363969804383
13140716 1 18120946258786367051
13296909 8 18334851714837719116
13583140 156 17702641325471322530
13955234 65 17259357566262858793
13965767 371 17682402438186242428
14142880 1 18114460068127754069
14614273 12 18201166489841994347
15961568 22 18052249898097955008
16752209 62 18335975424337555911
16945 1 18340496646168418535
17349148 13 17603861260650121842
1741750 31 18268150846929542769
1813 80 17911534386884129847
192875 21 17822291344108891820
200 152 17823129184822802474
20510252 161 18343304751515396153
20600515 1 17770794699162557395
20645477 56 18343028769865173504
20693207 138 17416436236478253582
21285901 2 17988374749202372879
21524375 3 18115595820499558945
23402539 116 18340481265784984871
23419403 2 17344327098516693945
23557571 272 18131354115532584576
23558518 356 18261962846891195347
23559900 14 18058170527963781238
2748010 2 18049744935309084543
3268164 11 18341610434103768116
350125 39 18051709749961656455
57100710 210 18271799177008438902
6442390 28 17984724237649173481
7364860 26 17402897717771867113
7615 1 17895203241849931260
81228 2 18269292298954999891
9862522 239 17605548851737042668

>  <PUBCHEM_SHAPE_MULTIPOLES>  (1) 
394.87
7.53
3.25
1.44
10.24
1.57
-0.21
1.14
0.06
-5.5
-0.16
0.43
0.18
-0.45

>  <PUBCHEM_SHAPE_SELFOVERLAP>  (1) 
808.883

>  <PUBCHEM_SHAPE_VOLUME>  (1) 
227.9

>  <PUBCHEM_COORDINATE_TYPE>  (1) 
2
5
10

$$$$
