18019
     RDKit          3D

 14 13  0  0  0  0  0  0  0  0999 V2000
    4.1633   -0.3563    0.0114 S   0  0  0  0  0  0  0  0  0  0  0  0
   -4.1632   -0.3561   -0.0115 S   0  0  0  0  0  0  0  0  0  0  0  0
    2.5499   -0.1047   -0.0436 O   0  0  0  0  0  0  0  0  0  0  0  0
   -2.5504   -0.1057    0.0438 O   0  0  0  0  0  0  0  0  0  0  0  0
    4.6434   -0.1069    1.3554 O   0  0  0  0  0  0  0  0  0  0  0  0
    4.7842    0.2470   -1.1505 O   0  0  0  0  0  0  0  0  0  0  0  0
   -4.6430   -0.1072   -1.3556 O   0  0  0  0  0  0  0  0  0  0  0  0
   -4.7844    0.2474    1.1499 O   0  0  0  0  0  0  0  0  0  0  0  0
    4.1092   -2.1123   -0.2396 C   0  0  0  0  0  0  0  0  0  0  0  0
   -4.1092   -2.1120    0.2401 C   0  0  0  0  0  0  0  0  0  0  0  0
    2.0597    1.2177    0.1157 C   0  0  0  0  0  0  0  0  0  0  0  0
   -2.0596    1.2178   -0.1158 C   0  0  0  0  0  0  0  0  0  0  0  0
    0.5996    1.2156    0.0336 C   0  0  0  0  0  0  0  0  0  0  0  0
   -0.5995    1.2157   -0.0333 C   0  0  0  0  0  0  0  0  0  0  0  0
  1  3  1  0
  1  5  2  0
  1  6  2  0
  1  9  1  0
  2  4  1  0
  2  7  2  0
  2  8  2  0
  2 10  1  0
  3 11  1  0
  4 12  1  0
 11 13  1  0
 12 14  1  0
 13 14  3  0
M  END
>  <PUBCHEM_COMPOUND_CID>  (1) 
18019

>  <PUBCHEM_CONFORMER_RMSD>  (1) 
0.6

>  <PUBCHEM_CONFORMER_DIVERSEORDER>  (1) 
1
18
17
15
5
22
21
3
19
8
11
2
10
20
13
4
7
16
12
6
14
9

>  <PUBCHEM_MMFF94_PARTIAL_CHARGES>  (1) 
14
1 1.38
10 0.11
11 0.48
12 0.48
13 -0.2
14 -0.2
2 1.38
3 -0.46
4 -0.46
5 -0.65
6 -0.65
7 -0.65
8 -0.65
9 0.11

>  <PUBCHEM_EFFECTIVE_ROTOR_COUNT>  (1) 
4

>  <PUBCHEM_PHARMACOPHORE_FEATURES>  (1) 
4
1 5 acceptor
1 6 acceptor
1 7 acceptor
1 8 acceptor

>  <PUBCHEM_HEAVY_ATOM_COUNT>  (1) 
14

>  <PUBCHEM_ATOM_DEF_STEREO_COUNT>  (1) 
0

>  <PUBCHEM_ATOM_UDEF_STEREO_COUNT>  (1) 
0

>  <PUBCHEM_BOND_DEF_STEREO_COUNT>  (1) 
0

>  <PUBCHEM_BOND_UDEF_STEREO_COUNT>  (1) 
0

>  <PUBCHEM_ISOTOPIC_ATOM_COUNT>  (1) 
0

>  <PUBCHEM_COMPONENT_COUNT>  (1) 
1

>  <PUBCHEM_CACTVS_TAUTO_COUNT>  (1) 
1

>  <PUBCHEM_CONFORMER_ID>  (1) 
0000466300000001

>  <PUBCHEM_MMFF94_ENERGY>  (1) 
7.5307

>  <PUBCHEM_FEATURE_SELFOVERLAP>  (1) 
20.332

>  <PUBCHEM_SHAPE_FINGERPRINT>  (1) 
100836 57 10159695828579963920
10803635 8 17676475143247402063
11089746 13 9367343700541355156
114248 4 15719115776877380676
122479 349 9943513120754859820
12555020 224 18410282632636638175
12596602 18 15697994162813554374
14123255 352 10519992547549628235
1420 369 18411700959032434266
14251710 61 18410857659151443334
14252887 29 17346885533441904268
15477762 27 18335143077346207308
15880784 105 16559029410900895214
17834072 33 18114186366973140940
20281475 54 18410579487010111404
20374829 77 18259978288779897809
20432913 95 18272933821067438074
20621476 51 17700122498729994671
20645477 56 9727632830066567049
20645477 70 18260830431650242120
20871999 31 17822290154266145117
212847 35 11024107647101687698
22485316 2 18410572889934972544
23402539 116 15864064356159793180
23403322 49 18409166623659325391
23559900 14 18337386162033270344
351380 3 18410576184174973039

>  <PUBCHEM_SHAPE_MULTIPOLES>  (1) 
260.6
12.98
1.79
0.96
0
0.9
0
5.46
0
0
0
0
0
0.13

>  <PUBCHEM_SHAPE_SELFOVERLAP>  (1) 
471.523

>  <PUBCHEM_SHAPE_VOLUME>  (1) 
166.7

>  <PUBCHEM_COORDINATE_TYPE>  (1) 
2
5
10

$$$$
