18026
     RDKit          3D

 19 19  0  0  1  0  0  0  0  0999 V2000
   -0.0859    0.5872    2.7116 O   0  0  0  0  0  0  0  0  0  0  0  0
   -1.1039    2.8195   -0.1629 O   0  0  0  0  0  0  0  0  0  0  0  0
   -3.0573   -2.3336   -0.3148 O   0  0  0  0  0  0  0  0  0  0  0  0
    1.8186    0.1667   -0.4368 N   0  0  0  0  0  0  0  0  0  0  0  0
    2.9356   -0.6936   -0.8404 C   0  0  0  0  0  0  0  0  0  0  0  0
    1.4998   -0.0349    0.9665 C   0  0  0  0  0  0  0  0  0  0  0  0
    0.2717    0.8225    1.3469 C   0  0  0  0  0  0  0  0  0  0  0  0
    2.7794   -1.0317   -2.3268 C   0  0  0  0  0  0  0  0  0  0  0  0
    4.2457    0.0668   -0.6090 C   0  0  0  0  0  0  0  0  0  0  0  0
    2.9170   -1.9780   -0.0032 C   0  0  0  0  0  0  0  0  0  0  0  0
    2.7410    0.3188    1.7881 C   0  0  0  0  0  0  0  0  0  0  0  0
   -0.9582    0.5257    0.5157 C   0  0  0  0  0  0  0  0  0  0  0  0
   -1.5763    1.5420   -0.1925 C   0  0  0  0  0  0  0  0  0  0  0  0
   -1.4391   -0.7727    0.4862 C   0  0  0  0  0  0  0  0  0  0  0  0
   -2.5719   -1.0628   -0.2743 C   0  0  0  0  0  0  0  0  0  0  0  0
   -2.7091    1.2516   -0.9531 C   0  0  0  0  0  0  0  0  0  0  0  0
   -3.2068   -0.0508   -0.9939 C   0  0  0  0  0  0  0  0  0  0  0  0
   -0.1407    3.1772   -1.1520 C   0  0  0  0  0  0  0  0  0  0  0  0
   -2.3597   -3.3199    0.4445 C   0  0  0  0  0  0  0  0  0  0  0  0
  1  7  1  0
  2 13  1  0
  2 18  1  0
  3 15  1  0
  3 19  1  0
  4  5  1  0
  4  6  1  0
  5  8  1  0
  5  9  1  0
  5 10  1  0
  6  7  1  0
  6 11  1  0
  7 12  1  0
 12 13  2  0
 12 14  1  0
 13 16  1  0
 14 15  2  0
 15 17  1  0
 16 17  2  0
M  END
>  <PUBCHEM_COMPOUND_CID>  (1) 
18026

>  <PUBCHEM_CONFORMER_RMSD>  (1) 
0.8

>  <PUBCHEM_CONFORMER_DIVERSEORDER>  (1) 
1
26
31
24
33
13
36
11
39
30
2
21
4
40
22
34
9
41
32
18
15
29
28
38
5
35
19
7
20
37
27
23
25
3
14
6
8
17
16
10
12

>  <PUBCHEM_MMFF94_PARTIAL_CHARGES>  (1) 
20
1 -0.68
12 -0.14
13 0.08
14 -0.15
15 0.08
16 -0.15
17 -0.15
18 0.28
19 0.28
2 -0.36
21 0.36
3 -0.36
35 0.15
36 0.4
37 0.15
38 0.15
4 -0.9
5 0.27
6 0.27
7 0.42

>  <PUBCHEM_EFFECTIVE_ROTOR_COUNT>  (1) 
6

>  <PUBCHEM_PHARMACOPHORE_FEATURES>  (1) 
8
1 1 acceptor
1 1 donor
1 2 acceptor
1 3 acceptor
1 4 cation
1 4 donor
4 5 8 9 10 hydrophobe
6 12 13 14 15 16 17 rings

>  <PUBCHEM_HEAVY_ATOM_COUNT>  (1) 
19

>  <PUBCHEM_ATOM_DEF_STEREO_COUNT>  (1) 
0

>  <PUBCHEM_ATOM_UDEF_STEREO_COUNT>  (1) 
2

>  <PUBCHEM_BOND_DEF_STEREO_COUNT>  (1) 
0

>  <PUBCHEM_BOND_UDEF_STEREO_COUNT>  (1) 
0

>  <PUBCHEM_ISOTOPIC_ATOM_COUNT>  (1) 
0

>  <PUBCHEM_COMPONENT_COUNT>  (1) 
1

>  <PUBCHEM_CACTVS_TAUTO_COUNT>  (1) 
1

>  <PUBCHEM_CONFORMER_ID>  (1) 
0000466A00000001

>  <PUBCHEM_MMFF94_ENERGY>  (1) 
87.2435

>  <PUBCHEM_FEATURE_SELFOVERLAP>  (1) 
40.596

>  <PUBCHEM_SHAPE_FINGERPRINT>  (1) 
11582403 64 15681023059258061648
11640471 11 17095803200863310212
12173636 292 18120368753146887021
12202030 40 18059848506417559915
12553582 1 18262797492481305747
14817 1 13994227546270796337
15635459 17 17775282781025693054
16945 1 18337945697550572641
17492 54 17468492850639491996
20600515 1 18120058858572077625
20645476 183 17240476962684987555
20645477 70 17203313537873692175
20871999 31 18334570261604766583
20905425 154 17538547104464075297
21330990 113 18050879670375092579
21452121 199 18050840319446798259
21639500 275 14707198916329203298
21665056 4 18051135783037221863
22721475 48 18060137647794842735
22802520 49 18342730802161253057
23402539 116 18187077378245625236
23557571 272 18339348751665520616
23559900 14 18341038628623978146
23598288 3 17749942263841880523
27216 239 12469512489780090630
2748010 2 18197198442581986267
4921388 177 18339375083977987598
5262128 65 18263086672333699549
7364860 26 17834110128056521829
77492 1 17168129109982024833
81228 2 18410566276102152985
84936 31 17556291005717088105

>  <PUBCHEM_SHAPE_MULTIPOLES>  (1) 
368.42
6.08
3.01
1.82
3.12
0.1
-0.48
2.69
2.15
-2.56
0.58
1.21
-0.23
0.75

>  <PUBCHEM_SHAPE_SELFOVERLAP>  (1) 
748.686

>  <PUBCHEM_SHAPE_VOLUME>  (1) 
217.4

>  <PUBCHEM_COORDINATE_TYPE>  (1) 
2
5
10

$$$$
