18032
     RDKit          3D

 23 25  0  0  0  0  0  0  0  0999 V2000
    5.9938   -1.0499    0.0000 F   0  0  0  0  0  0  0  0  0  0  0  0
    6.3943    0.7966   -1.0895 F   0  0  0  0  0  0  0  0  0  0  0  0
    6.3982    0.7934    1.0897 F   0  0  0  0  0  0  0  0  0  0  0  0
   -6.9687   -0.2327   -0.0003 O   0  0  0  0  0  0  0  0  0  0  0  0
   -6.2845    1.8532    0.0008 O   0  0  0  0  0  0  0  0  0  0  0  0
    3.9061    1.7719   -0.0028 O   0  0  0  0  0  0  0  0  0  0  0  0
    3.5153   -0.5523    0.0003 N   0  0  0  0  0  0  0  0  0  0  0  0
   -6.0492    0.6209    0.0001 N   0  0  0  0  0  0  0  0  0  0  0  0
   -1.0817    1.4528    0.0010 C   0  0  0  0  0  0  0  0  0  0  0  0
   -0.0313    0.3619    0.0004 C   0  0  0  0  0  0  0  0  0  0  0  0
   -2.3638    0.6467    0.0004 C   0  0  0  0  0  0  0  0  0  0  0  0
   -0.6416   -0.9125   -0.0003 C   0  0  0  0  0  0  0  0  0  0  0  0
   -2.0780   -0.7371   -0.0002 C   0  0  0  0  0  0  0  0  0  0  0  0
    1.3451    0.5043    0.0004 C   0  0  0  0  0  0  0  0  0  0  0  0
    0.1304   -2.0623   -0.0007 C   0  0  0  0  0  0  0  0  0  0  0  0
   -3.6656    1.1162    0.0004 C   0  0  0  0  0  0  0  0  0  0  0  0
   -3.1040   -1.6672   -0.0006 C   0  0  0  0  0  0  0  0  0  0  0  0
    2.1231   -0.6549    0.0003 C   0  0  0  0  0  0  0  0  0  0  0  0
    1.5219   -1.9253   -0.0003 C   0  0  0  0  0  0  0  0  0  0  0  0
   -4.6995    0.1782    0.0000 C   0  0  0  0  0  0  0  0  0  0  0  0
   -4.4217   -1.1995   -0.0005 C   0  0  0  0  0  0  0  0  0  0  0  0
    4.2964    0.6094    0.0007 C   0  0  0  0  0  0  0  0  0  0  0  0
    5.7651    0.2882    0.0006 C   0  0  0  0  0  0  0  0  0  0  0  0
  1 23  1  0
  2 23  1  0
  3 23  1  0
  4  8  1  0
  5  8  2  0
  6 22  2  0
  7 18  1  0
  7 22  1  0
  8 20  1  0
  9 10  1  0
  9 11  1  0
 10 12  2  0
 10 14  1  0
 11 13  2  0
 11 16  1  0
 12 13  1  0
 12 15  1  0
 13 17  1  0
 14 18  2  0
 15 19  2  0
 16 20  2  0
 17 21  2  0
 18 19  1  0
 20 21  1  0
 22 23  1  0
M  CHG  2   4  -1   8   1
M  END
>  <PUBCHEM_COMPOUND_CID>  (1) 
18032

>  <PUBCHEM_CONFORMER_RMSD>  (1) 
0.8

>  <PUBCHEM_CONFORMER_DIVERSEORDER>  (1) 
1
2

>  <PUBCHEM_MMFF94_PARTIAL_CHARGES>  (1) 
28
1 -0.34
10 -0.14
11 -0.14
14 -0.15
15 -0.15
16 -0.15
17 -0.15
18 0.12
19 -0.15
2 -0.34
20 0.13
21 -0.15
22 0.57
23 1.08
26 0.15
27 0.15
28 0.15
29 0.15
3 -0.34
30 0.15
31 0.15
32 0.37
4 -0.52
5 -0.52
6 -0.57
7 -0.55
8 0.91
9 0.29

>  <PUBCHEM_EFFECTIVE_ROTOR_COUNT>  (1) 
4.2

>  <PUBCHEM_PHARMACOPHORE_FEATURES>  (1) 
8
1 4 acceptor
1 4 anion
1 5 acceptor
1 6 acceptor
1 7 donor
5 9 10 11 12 13 rings
6 10 12 14 15 18 19 rings
6 11 13 16 17 20 21 rings

>  <PUBCHEM_HEAVY_ATOM_COUNT>  (1) 
23

>  <PUBCHEM_ATOM_DEF_STEREO_COUNT>  (1) 
0

>  <PUBCHEM_ATOM_UDEF_STEREO_COUNT>  (1) 
0

>  <PUBCHEM_BOND_DEF_STEREO_COUNT>  (1) 
0

>  <PUBCHEM_BOND_UDEF_STEREO_COUNT>  (1) 
0

>  <PUBCHEM_ISOTOPIC_ATOM_COUNT>  (1) 
0

>  <PUBCHEM_COMPONENT_COUNT>  (1) 
1

>  <PUBCHEM_CACTVS_TAUTO_COUNT>  (1) 
2

>  <PUBCHEM_CONFORMER_ID>  (1) 
0000467000000001

>  <PUBCHEM_MMFF94_ENERGY>  (1) 
72.5496

>  <PUBCHEM_FEATURE_SELFOVERLAP>  (1) 
40.841

>  <PUBCHEM_SHAPE_FINGERPRINT>  (1) 
10 15 18040720289659875449
10411042 1 17834114530805052583
10906281 52 18261691310552625267
10968037 39 18411982464627583151
11315181 36 17846503655156624793
11578080 2 16952515902309840007
12107183 9 17614555948265528816
12236239 1 17967533488853881390
12390115 104 18058461906539166153
12403259 415 18336253609443619316
12516196 113 17917991685260722145
12788726 201 17417252018487746769
12838862 33 18338217320389257765
13533116 47 17168134595177566890
14251764 18 18410856564831614267
14790565 3 18410578426438233789
15048467 5 18410855443528677745
15183329 4 18271814497441256226
15196674 1 18338797917635142146
17980427 23 17967539012060791479
19784866 170 18407760331081208931
20281389 69 18334573533879495224
21033648 29 18200863097868361784
21150785 3 16343979222085886421
21236236 1 18339923822444211199
21267235 1 18410300219704528715
23198884 109 16415484843974926275
23402539 116 18342452677143086422
23559900 14 18343014536201454697
293599 30 18412262839433523311
300161 21 18409162195548062703
3004659 81 18335141973987855622
335352 9 18410575102375750454
34797466 226 16988848297845650812
34934 24 18410570665738259031
350125 39 18409448089645649084
351380 180 18411418436484370162
3545911 37 18410575080663510767
4073 2 18041005071972855666
4340502 62 16515685528831359274
4463277 17 18411138038932573041
5104073 3 18261680251555196843
542803 24 17603585244608278366
5486654 2 18411985775451386326
59755656 215 18411986832208760598
59755656 520 17530681030538066427

>  <PUBCHEM_SHAPE_MULTIPOLES>  (1) 
423.94
16.26
1.81
0.66
5.6
0.33
0
-5.18
0
-0.52
0
0.44
-0.04
0

>  <PUBCHEM_SHAPE_SELFOVERLAP>  (1) 
943.115

>  <PUBCHEM_SHAPE_VOLUME>  (1) 
227.9

>  <PUBCHEM_COORDINATE_TYPE>  (1) 
2
5
10

$$$$
