1804
     RDKit          3D

 24 26  0  0  0  0  0  0  0  0999 V2000
   -4.6393    0.0429   -0.6400 Br  0  0  0  0  0  0  0  0  0  0  0  0
   -3.3443    2.8069    0.0743 S   0  0  0  0  0  0  0  0  0  0  0  0
    1.1758    2.6426    0.5773 O   0  0  0  0  0  0  0  0  0  0  0  0
   -2.3374   -2.3323    0.4714 O   0  0  0  0  0  0  0  0  0  0  0  0
   -2.2546   -2.0657   -1.8370 O   0  0  0  0  0  0  0  0  0  0  0  0
    0.9283    0.3733   -0.0205 N   0  0  0  0  0  0  0  0  0  0  0  0
    0.0655   -0.6815   -0.3020 N   0  0  0  0  0  0  0  0  0  0  0  0
   -1.1693    4.2638    0.6061 N   0  0  0  0  0  0  0  0  0  0  0  0
   -0.9585    1.8625    0.1298 C   0  0  0  0  0  0  0  0  0  0  0  0
   -1.8029    0.7738   -0.1820 C   0  0  0  0  0  0  0  0  0  0  0  0
    0.4781    1.6891    0.2473 C   0  0  0  0  0  0  0  0  0  0  0  0
   -1.2178   -0.5194   -0.3825 C   0  0  0  0  0  0  0  0  0  0  0  0
    2.3165   -0.0255   -0.0226 C   0  0  0  0  0  0  0  0  0  0  0  0
   -1.6609    3.0356    0.3002 C   0  0  0  0  0  0  0  0  0  0  0  0
   -3.1284    1.1364   -0.2473 C   0  0  0  0  0  0  0  0  0  0  0  0
    3.3049    0.8934   -0.3736 C   0  0  0  0  0  0  0  0  0  0  0  0
    2.6670   -1.3294    0.3258 C   0  0  0  0  0  0  0  0  0  0  0  0
   -2.0072   -1.7413   -0.6915 C   0  0  0  0  0  0  0  0  0  0  0  0
    4.9967   -0.7962   -0.0276 C   0  0  0  0  0  0  0  0  0  0  0  0
    4.6455    0.5079   -0.3761 C   0  0  0  0  0  0  0  0  0  0  0  0
    4.0076   -1.7149    0.3235 C   0  0  0  0  0  0  0  0  0  0  0  0
    6.4303   -1.2081   -0.0296 C   0  0  0  0  0  0  0  0  0  0  0  0
   -3.1017   -3.5352    0.3471 C   0  0  0  0  0  0  0  0  0  0  0  0
   -3.3938   -4.0789    1.7295 C   0  0  0  0  0  0  0  0  0  0  0  0
  1 15  1  0
  2 14  1  0
  2 15  1  0
  3 11  2  0
  4 18  1  0
  4 23  1  0
  5 18  2  0
  6  7  1  0
  6 11  1  0
  6 13  1  0
  7 12  2  0
  8 14  1  0
  9 10  1  0
  9 11  1  0
  9 14  2  0
 10 12  1  0
 10 15  2  0
 12 18  1  0
 13 16  2  0
 13 17  1  0
 16 20  1  0
 17 21  2  0
 19 20  2  0
 19 21  1  0
 19 22  1  0
 23 24  1  0
M  END
>  <PUBCHEM_COMPOUND_CID>  (1) 
1804

>  <PUBCHEM_CONFORMER_RMSD>  (1) 
0.8

>  <PUBCHEM_CONFORMER_DIVERSEORDER>  (1) 
1
4
5
2
3

>  <PUBCHEM_MMFF94_PARTIAL_CHARGES>  (1) 
29
1 -0.06
10 -0.09
11 0.72
12 0.54
13 0.12
14 0.12
15 0.1
16 -0.15
17 -0.15
18 0.72
19 -0.14
2 -0.08
20 -0.15
21 -0.15
22 0.14
23 0.28
25 0.15
26 0.15
27 0.15
28 0.15
29 0.4
3 -0.57
30 0.4
4 -0.43
5 -0.57
6 -0.11
7 -0.51
8 -0.88
9 -0.09

>  <PUBCHEM_EFFECTIVE_ROTOR_COUNT>  (1) 
4

>  <PUBCHEM_PHARMACOPHORE_FEATURES>  (1) 
9
1 1 hydrophobe
1 3 acceptor
1 5 acceptor
1 7 acceptor
1 8 cation
1 8 donor
5 2 9 10 14 15 rings
6 13 16 17 19 20 21 rings
6 6 7 9 10 11 12 rings

>  <PUBCHEM_HEAVY_ATOM_COUNT>  (1) 
24

>  <PUBCHEM_ATOM_DEF_STEREO_COUNT>  (1) 
0

>  <PUBCHEM_ATOM_UDEF_STEREO_COUNT>  (1) 
0

>  <PUBCHEM_BOND_DEF_STEREO_COUNT>  (1) 
0

>  <PUBCHEM_BOND_UDEF_STEREO_COUNT>  (1) 
0

>  <PUBCHEM_ISOTOPIC_ATOM_COUNT>  (1) 
0

>  <PUBCHEM_COMPONENT_COUNT>  (1) 
1

>  <PUBCHEM_CACTVS_TAUTO_COUNT>  (1) 
3

>  <PUBCHEM_CONFORMER_ID>  (1) 
0000070C00000001

>  <PUBCHEM_MMFF94_ENERGY>  (1) 
65.8113

>  <PUBCHEM_FEATURE_SELFOVERLAP>  (1) 
45.746

>  <PUBCHEM_SHAPE_FINGERPRINT>  (1) 
10411042 1 18267583705141132287
10616163 171 18413107234673671158
10906281 52 18200889395937530845
1100329 8 18410294735685465033
11578080 2 17058911446225174233
11680986 33 18125711534002903857
12107183 9 17473257674852599954
12236239 1 18187929409715942644
12553582 1 18340755001182888759
12788726 201 18339911615825084587
13140716 1 18341335599304895417
138480 1 16392963207663215835
13911852 28 18049164668222489107
14251757 5 18408318874050115827
14363568 33 17762911256504236977
14790565 3 18053670170156504889
14844126 61 18411974780399081418
14866123 147 18408888412779204051
15042514 8 18410862057530289873
15196674 1 18268708316689304084
15475509 84 17912672347427821225
17492 89 18410301311338930822
19591789 44 18124031226383867369
20101258 96 18339650047805188186
20510252 161 17986108513407668689
21267235 1 18412268298705968414
221490 88 18265897033029026368
23402539 116 18200583692618001285
23557571 272 18130507436308793340
23559900 14 18343010083117012088
23598288 3 18412269462172815575
2748010 2 18055056912211651733
283562 15 18125156035876114289
3091708 16 8987760456340513489
3178227 256 18339372851603108265
335352 9 18341608201417346997
3421961 26 17760937637802354163
350125 39 18341048511223251209
3759504 43 18262236599922292021
4073 2 18337111177786144762
4214541 1 18339922602646781164
5104073 3 18412821400716125090
5309563 4 18122347040695394683
5364581 5 18057297644638356232
54173680 148 18410575110707332225
559249 180 18267579101236384166
58807428 26 17764310535390404729
70251023 43 17765417035489777199
9709674 26 18271529676479638342

>  <PUBCHEM_SHAPE_MULTIPOLES>  (1) 
471.15
10.31
4.67
0.96
15.26
0.94
0.03
4.39
0.53
-6.69
-1.95
-0.78
0.67
0.39

>  <PUBCHEM_SHAPE_SELFOVERLAP>  (1) 
998.015

>  <PUBCHEM_SHAPE_VOLUME>  (1) 
269.5

>  <PUBCHEM_COORDINATE_TYPE>  (1) 
2
5
10

$$$$
