18045
     RDKit          3D

 15 15  0  0  0  0  0  0  0  0999 V2000
    1.2422   -2.1624   -1.2399 O   0  0  0  0  0  0  0  0  0  0  0  0
   -0.4401    0.8193    1.9741 O   0  0  0  0  0  0  0  0  0  0  0  0
    3.3984    1.7884   -0.3461 O   0  0  0  0  0  0  0  0  0  0  0  0
    2.2630   -0.1429   -0.8623 N   0  0  0  0  0  0  0  0  0  0  0  0
    1.4230    1.3462    0.7437 N   0  0  0  0  0  0  0  0  0  0  0  0
   -0.0189   -0.4831   -0.0276 C   0  0  0  0  0  0  0  0  0  0  0  0
   -0.7868   -1.6342    0.6384 C   0  0  0  0  0  0  0  0  0  0  0  0
   -0.9100    0.1698   -1.0994 C   0  0  0  0  0  0  0  0  0  0  0  0
    1.2089   -1.0364   -0.7440 C   0  0  0  0  0  0  0  0  0  0  0  0
    0.2908    0.5909    1.0105 C   0  0  0  0  0  0  0  0  0  0  0  0
    0.0688   -2.3329    1.6728 C   0  0  0  0  0  0  0  0  0  0  0  0
   -2.1469    0.7377   -0.4847 C   0  0  0  0  0  0  0  0  0  0  0  0
    2.4209    1.0570   -0.1793 C   0  0  0  0  0  0  0  0  0  0  0  0
   -3.3855    0.3531   -0.8253 C   0  0  0  0  0  0  0  0  0  0  0  0
   -4.6277    0.9295   -0.2311 C   0  0  0  0  0  0  0  0  0  0  0  0
  1  9  2  0
  2 10  2  0
  3 13  2  0
  4  9  1  0
  4 13  1  0
  5 10  1  0
  5 13  1  0
  6  7  1  0
  6  8  1  0
  6  9  1  0
  6 10  1  0
  7 11  1  0
  8 12  1  0
 12 14  2  0
 14 15  1  0
M  END
>  <PUBCHEM_COMPOUND_CID>  (1) 
18045

>  <PUBCHEM_CONFORMER_RMSD>  (1) 
0.6

>  <PUBCHEM_CONFORMER_DIVERSEORDER>  (1) 
1
6
5
9
8
10
7
2
11
4
3

>  <PUBCHEM_MMFF94_PARTIAL_CHARGES>  (1) 
17
1 -0.57
10 0.57
12 -0.29
13 0.69
14 -0.29
15 0.14
2 -0.57
23 0.15
24 0.37
25 0.37
26 0.15
3 -0.57
4 -0.49
5 -0.49
6 0.12
8 0.14
9 0.57

>  <PUBCHEM_EFFECTIVE_ROTOR_COUNT>  (1) 
3.6

>  <PUBCHEM_PHARMACOPHORE_FEATURES>  (1) 
8
1 1 acceptor
1 11 hydrophobe
1 15 hydrophobe
1 2 acceptor
1 3 acceptor
1 4 donor
1 5 donor
6 4 5 6 9 10 13 rings

>  <PUBCHEM_HEAVY_ATOM_COUNT>  (1) 
15

>  <PUBCHEM_ATOM_DEF_STEREO_COUNT>  (1) 
0

>  <PUBCHEM_ATOM_UDEF_STEREO_COUNT>  (1) 
0

>  <PUBCHEM_BOND_DEF_STEREO_COUNT>  (1) 
0

>  <PUBCHEM_BOND_UDEF_STEREO_COUNT>  (1) 
1

>  <PUBCHEM_ISOTOPIC_ATOM_COUNT>  (1) 
0

>  <PUBCHEM_COMPONENT_COUNT>  (1) 
1

>  <PUBCHEM_CACTVS_TAUTO_COUNT>  (1) 
5

>  <PUBCHEM_CONFORMER_ID>  (1) 
0000467D00000001

>  <PUBCHEM_MMFF94_ENERGY>  (1) 
35.1807

>  <PUBCHEM_FEATURE_SELFOVERLAP>  (1) 
40.636

>  <PUBCHEM_SHAPE_FINGERPRINT>  (1) 
10922049 32 18040150725377579912
11031198 65 18201719569828460653
12138202 97 18263085568447872470
12251169 10 11674884398331240125
12423570 1 18055326099254948854
12716301 132 18118953930779031987
13380535 76 18410009965978085078
15219456 202 18338243750969189935
15775835 57 17168135767324037605
15848700 24 10952050026982810561
15852999 172 18409453617510768826
16945 1 18202007620225891437
18186145 218 18410014295342094877
19765921 60 18411129251640514657
201361 129 18192150395957890321
20645477 70 18268136575391164839
20820808 20 18273210910872145741
21501502 16 18337941393861739511
21524375 3 18336814385795071948
21930827 45 18191012607085401483
21947302 44 18409450267262087900
23402539 116 18261942037753183532
23419403 2 17977990913675672923
25 1 18342175578769828581
2748010 2 18055939790241973534
276578 36 17968088712060826129
528886 8 17489577987345697207
5337951 7 18343580724744599319
5845 1 9392987060005413951
7364860 26 17898277321542065763
81228 2 17464806162318496771

>  <PUBCHEM_SHAPE_MULTIPOLES>  (1) 
281.12
5.05
2.06
1.44
5.36
1.22
0.36
-3.41
-1.17
-1.09
0.43
-0.23
0.36
0.39

>  <PUBCHEM_SHAPE_SELFOVERLAP>  (1) 
574.945

>  <PUBCHEM_SHAPE_VOLUME>  (1) 
160

>  <PUBCHEM_COORDINATE_TYPE>  (1) 
2
5
10

$$$$
