18046
     RDKit          3D

 10 11  0  0  0  0  0  0  0  0999 V2000
   -1.3526   -1.4913    0.0642 S   0  0  0  0  0  0  0  0  0  0  0  0
   -1.2405    1.0957   -0.0495 N   0  0  0  0  0  0  0  0  0  0  0  0
   -3.4223    0.1817   -0.0100 N   0  0  0  0  0  0  0  0  0  0  0  0
    2.6333   -0.5751   -0.3238 C   0  0  0  0  0  0  0  0  0  0  0  0
    2.5200    0.8174    0.3221 C   0  0  0  0  0  0  0  0  0  0  0  0
    1.4719   -1.5002    0.0845 C   0  0  0  0  0  0  0  0  0  0  0  0
    1.2225    1.5378   -0.0865 C   0  0  0  0  0  0  0  0  0  0  0  0
    0.1814   -0.7560    0.0290 C   0  0  0  0  0  0  0  0  0  0  0  0
    0.0531    0.6178   -0.0253 C   0  0  0  0  0  0  0  0  0  0  0  0
   -2.0668    0.0721   -0.0046 C   0  0  0  0  0  0  0  0  0  0  0  0
  1  8  1  0
  1 10  1  0
  2  9  1  0
  2 10  2  0
  3 10  1  0
  4  5  1  0
  4  6  1  0
  5  7  1  0
  6  8  1  0
  7  9  1  0
  8  9  2  0
M  END
>  <PUBCHEM_COMPOUND_CID>  (1) 
18046

>  <PUBCHEM_CONFORMER_RMSD>  (1) 
0.4

>  <PUBCHEM_CONFORMER_DIVERSEORDER>  (1) 
1

>  <PUBCHEM_MMFF94_PARTIAL_CHARGES>  (1) 
10
1 -0.08
10 0.46
19 0.4
2 -0.57
20 0.4
3 -0.88
6 0.18
7 0.18
8 -0.14
9 0.05

>  <PUBCHEM_EFFECTIVE_ROTOR_COUNT>  (1) 
0.8

>  <PUBCHEM_PHARMACOPHORE_FEATURES>  (1) 
4
1 3 donor
3 2 3 10 cation
5 1 2 8 9 10 rings
6 4 5 6 7 8 9 rings

>  <PUBCHEM_HEAVY_ATOM_COUNT>  (1) 
10

>  <PUBCHEM_ATOM_DEF_STEREO_COUNT>  (1) 
0

>  <PUBCHEM_ATOM_UDEF_STEREO_COUNT>  (1) 
0

>  <PUBCHEM_BOND_DEF_STEREO_COUNT>  (1) 
0

>  <PUBCHEM_BOND_UDEF_STEREO_COUNT>  (1) 
0

>  <PUBCHEM_ISOTOPIC_ATOM_COUNT>  (1) 
0

>  <PUBCHEM_COMPONENT_COUNT>  (1) 
1

>  <PUBCHEM_CACTVS_TAUTO_COUNT>  (1) 
2

>  <PUBCHEM_CONFORMER_ID>  (1) 
0000467E00000001

>  <PUBCHEM_MMFF94_ENERGY>  (1) 
8.7781

>  <PUBCHEM_FEATURE_SELFOVERLAP>  (1) 
20.366

>  <PUBCHEM_SHAPE_FINGERPRINT>  (1) 
12524768 44 18340491079674518758
12897270 3 18410293618355515182
13380535 76 18410569630097194330
14325111 11 18411136956880525705
16945 1 18409448085270995266
20201158 50 18410573972345943386
21040471 1 18194402418851054692
23235685 24 18409724097207736368
23402655 69 18341601604357928437
23552423 10 18261674899408747270
241688 4 17905893578468281392
2748010 2 18193841676225999998
29004967 10 18334861610320822464
369184 2 18412260653184204987
5084963 1 18272932691475214936
528886 8 18411414042258183226
53812653 166 18342452690418326424

>  <PUBCHEM_SHAPE_MULTIPOLES>  (1) 
199.68
4.05
1.65
0.63
1.27
0.18
0
-0.26
-0.02
-0.34
0.01
-0.08
0.02
0.11

>  <PUBCHEM_SHAPE_SELFOVERLAP>  (1) 
407.772

>  <PUBCHEM_SHAPE_VOLUME>  (1) 
118

>  <PUBCHEM_COORDINATE_TYPE>  (1) 
2
5
10

$$$$
