18043
     RDKit          3D

 22 23  0  0  0  0  0  0  0  0999 V2000
    2.9280    0.0127   -0.0691 N   0  0  0  0  0  0  0  0  0  0  0  0
   -0.8402    0.0721   -0.1580 N   0  0  0  0  0  0  0  0  0  0  0  0
    1.5096    0.0111    0.4825 C   0  0  0  0  0  0  0  0  0  0  0  0
    3.1070   -1.1684   -1.0121 C   0  0  0  0  0  0  0  0  0  0  0  0
    3.9192   -0.1008    1.0801 C   0  0  0  0  0  0  0  0  0  0  0  0
    3.1762    1.3089   -0.8270 C   0  0  0  0  0  0  0  0  0  0  0  0
    0.5133    0.1243   -0.6578 C   0  0  0  0  0  0  0  0  0  0  0  0
    2.8591   -2.4538   -0.2533 C   0  0  0  0  0  0  0  0  0  0  0  0
    3.7365    1.0756    2.0138 C   0  0  0  0  0  0  0  0  0  0  0  0
    4.5875    1.3047   -1.3727 C   0  0  0  0  0  0  0  0  0  0  0  0
   -1.4020   -1.2338   -0.0140 C   0  0  0  0  0  0  0  0  0  0  0  0
   -1.5860    1.2896   -0.0755 C   0  0  0  0  0  0  0  0  0  0  0  0
   -1.8723   -1.8985   -1.1353 C   0  0  0  0  0  0  0  0  0  0  0  0
   -2.9162    1.2973   -0.4618 C   0  0  0  0  0  0  0  0  0  0  0  0
   -1.4660   -1.8102    1.2447 C   0  0  0  0  0  0  0  0  0  0  0  0
   -0.9623    2.4360    0.3885 C   0  0  0  0  0  0  0  0  0  0  0  0
   -2.4213   -3.1730   -0.9944 C   0  0  0  0  0  0  0  0  0  0  0  0
   -3.6432    2.4850   -0.3819 C   0  0  0  0  0  0  0  0  0  0  0  0
   -2.0149   -3.0848    1.3855 C   0  0  0  0  0  0  0  0  0  0  0  0
   -1.6895    3.6237    0.4684 C   0  0  0  0  0  0  0  0  0  0  0  0
   -2.4926   -3.7662    0.2660 C   0  0  0  0  0  0  0  0  0  0  0  0
   -3.0299    3.6482    0.0833 C   0  0  0  0  0  0  0  0  0  0  0  0
  1  3  1  0
  1  4  1  0
  1  5  1  0
  1  6  1  0
  2  7  1  0
  2 11  1  0
  2 12  1  0
  3  7  1  0
  4  8  1  0
  5  9  1  0
  6 10  1  0
 11 13  2  0
 11 15  1  0
 12 14  2  0
 12 16  1  0
 13 17  1  0
 14 18  1  0
 15 19  2  0
 16 20  2  0
 17 21  2  0
 18 22  2  0
 19 21  1  0
 20 22  1  0
M  CHG  1   1   1
M  END
>  <PUBCHEM_COMPOUND_CID>  (1) 
18043

>  <PUBCHEM_CONFORMER_RMSD>  (1) 
0.8

>  <PUBCHEM_CONFORMER_DIVERSEORDER>  (1) 
4
34
22
80
67
85
57
17
49
23
56
65
68
52
64
50
24
78
51
14
16
69
66
32
77
72
33
15
18
35
70
58
13
36
38
71
31
2
79
73
59
37
74
76
45
1
75
60
39
43
3
62
44
46
25
81
61
47
27
82
63
26
83
48
30
84
29
42
28
40
6
19
41
21
5
20
10
11
9
12
7
8
53
54
55

>  <PUBCHEM_MMFF94_PARTIAL_CHARGES>  (1) 
29
1 -1.01
11 0.1
12 0.1
13 -0.15
14 -0.15
15 -0.15
16 -0.15
17 -0.15
18 -0.15
19 -0.15
2 -0.57
20 -0.15
21 -0.15
22 -0.15
3 0.5
4 0.5
42 0.15
43 0.15
44 0.15
45 0.15
46 0.15
47 0.15
48 0.15
49 0.15
5 0.5
50 0.15
51 0.15
6 0.5
7 0.37

>  <PUBCHEM_EFFECTIVE_ROTOR_COUNT>  (1) 
8

>  <PUBCHEM_PHARMACOPHORE_FEATURES>  (1) 
4
1 1 cation
1 2 cation
6 11 13 15 17 19 21 rings
6 12 14 16 18 20 22 rings

>  <PUBCHEM_HEAVY_ATOM_COUNT>  (1) 
22

>  <PUBCHEM_ATOM_DEF_STEREO_COUNT>  (1) 
0

>  <PUBCHEM_ATOM_UDEF_STEREO_COUNT>  (1) 
0

>  <PUBCHEM_BOND_DEF_STEREO_COUNT>  (1) 
0

>  <PUBCHEM_BOND_UDEF_STEREO_COUNT>  (1) 
0

>  <PUBCHEM_ISOTOPIC_ATOM_COUNT>  (1) 
0

>  <PUBCHEM_COMPONENT_COUNT>  (1) 
1

>  <PUBCHEM_CACTVS_TAUTO_COUNT>  (1) 
1

>  <PUBCHEM_CONFORMER_ID>  (1) 
0000467B00000004

>  <PUBCHEM_MMFF94_ENERGY>  (1) 
107.4398

>  <PUBCHEM_FEATURE_SELFOVERLAP>  (1) 
20.297

>  <PUBCHEM_SHAPE_FINGERPRINT>  (1) 
10090160 65 18192706740463003477
11578080 2 17345184700369599569
12160290 23 18260544515793437399
12173636 292 18268701719482511125
12500047 106 18340767027497505948
12553582 1 18050291662891895610
12788726 201 18262237832372353083
12930653 34 18270384084416560906
13140716 1 18196367232981822969
13583140 156 17846489358012323258
13681431 1 17619912098843210443
14081887 123 18341322383653375120
14178342 30 18336533967965794090
14787075 74 16960984714729442140
15842332 3 17894625968380979064
1813 80 17838906175922301135
19591789 44 18122626046487071695
20197701 30 18192702346420743989
20600515 1 17320377557599535217
21049683 271 17178570356326332343
21304303 282 17759755417788593725
21524375 3 18052256185465046973
23366157 5 17254565898646444925
23419403 2 17343767460241468875
23557571 272 18343012337584153504
23558518 356 18338227163869004271
23559900 14 18270116808617444534
23598288 3 18409731798084267326
283562 15 18118411867546930550
3091708 16 9129347845935875745
3187 122 17907262766619031248
474 4 17904490597363281973
5309563 4 17688877852967166555
6049 1 17846505880593314032
6138700 20 17187009691953762222
633830 44 17982166721509789309
7364860 26 17187846416275596061
7615 1 17821719577041233652
81228 2 18336260223602973641
9709674 26 18271801303006492870
9981440 41 17772154657949496280

>  <PUBCHEM_SHAPE_MULTIPOLES>  (1) 
442.79
7.53
5.07
1.36
7.69
0.44
-0.33
-2.27
0.51
-6.96
-0.4
1.02
0.3
0.22

>  <PUBCHEM_SHAPE_SELFOVERLAP>  (1) 
912.633

>  <PUBCHEM_SHAPE_VOLUME>  (1) 
252.1

>  <PUBCHEM_COORDINATE_TYPE>  (1) 
2
5
10

$$$$
