1805
     RDKit          3D

 17 18  0  0  1  0  0  0  0  0999 V2000
   -1.2586   -0.7816   -0.6466 O   0  0  0  0  0  0  0  0  0  0  0  0
   -1.0691    2.7099    0.0160 O   0  0  0  0  0  0  0  0  0  0  0  0
   -3.3096    1.1832    1.5338 O   0  0  0  0  0  0  0  0  0  0  0  0
   -3.3252   -2.7014   -0.5480 O   0  0  0  0  0  0  0  0  0  0  0  0
    1.7514    0.8668   -2.1987 O   0  0  0  0  0  0  0  0  0  0  0  0
    0.8577    0.1142   -0.2180 N   0  0  0  0  0  0  0  0  0  0  0  0
    3.1946    0.0337   -0.6486 N   0  0  0  0  0  0  0  0  0  0  0  0
    2.3356   -0.7523    1.4010 N   0  0  0  0  0  0  0  0  0  0  0  0
    4.6469   -0.8198    0.9480 N   0  0  0  0  0  0  0  0  0  0  0  0
   -1.1672    1.3518    0.4051 C   0  0  0  0  0  0  0  0  0  0  0  0
   -2.6019    0.8773    0.3481 C   0  0  0  0  0  0  0  0  0  0  0  0
   -2.4135   -0.6210    0.1924 C   0  0  0  0  0  0  0  0  0  0  0  0
   -0.4897    0.4311   -0.5977 C   0  0  0  0  0  0  0  0  0  0  0  0
   -3.6066   -1.3155   -0.4387 C   0  0  0  0  0  0  0  0  0  0  0  0
    1.9293    0.3670   -1.0872 C   0  0  0  0  0  0  0  0  0  0  0  0
    1.1481   -0.4468    1.0062 C   0  0  0  0  0  0  0  0  0  0  0  0
    3.3778   -0.4965    0.5327 C   0  0  0  0  0  0  0  0  0  0  0  0
  1 12  1  0
  1 13  1  0
  2 10  1  0
  3 11  1  0
  4 14  1  0
  5 15  2  0
  6 13  1  0
  6 15  1  0
  6 16  1  0
  7 15  1  0
  7 17  2  0
  8 16  2  0
  8 17  1  0
  9 17  1  0
 10 11  1  0
 10 13  1  0
 11 12  1  0
 12 14  1  0
M  END
>  <PUBCHEM_COMPOUND_CID>  (1) 
1805

>  <PUBCHEM_CONFORMER_RMSD>  (1) 
0.6

>  <PUBCHEM_CONFORMER_DIVERSEORDER>  (1) 
5
96
69
49
63
88
2
74
39
23
103
1
100
95
57
77
56
73
80
60
71
26
14
24
104
67
101
81
32
75
94
28
65
89
38
48
61
18
78
13
66
79
47
92
45
59
9
53
17
97
8
82
93
50
54
85
91
99
36
76
11
102
58
20
40
51
34
83
42
31
4
37
19
16
25
86
72
29
68
35
27
44
21
55
62
6
43
10
41
84
3
7
52
87
90
12
98
46
64
70
30
22
15
33

>  <PUBCHEM_MMFF94_PARTIAL_CHARGES>  (1) 
23
1 -0.56
10 0.28
11 0.28
12 0.28
13 0.58
14 0.28
15 0.84
16 0.45
17 0.71
2 -0.68
24 0.4
25 0.4
26 0.06
27 0.4
28 0.4
29 0.4
3 -0.68
4 -0.68
5 -0.57
6 -0.42
7 -0.66
8 -0.66
9 -0.85

>  <PUBCHEM_EFFECTIVE_ROTOR_COUNT>  (1) 
3

>  <PUBCHEM_PHARMACOPHORE_FEATURES>  (1) 
12
1 1 acceptor
1 2 acceptor
1 2 donor
1 3 acceptor
1 3 donor
1 4 acceptor
1 4 donor
1 5 acceptor
1 7 donor
1 9 donor
5 1 10 11 12 13 rings
6 6 7 8 15 16 17 rings

>  <PUBCHEM_HEAVY_ATOM_COUNT>  (1) 
17

>  <PUBCHEM_ATOM_DEF_STEREO_COUNT>  (1) 
0

>  <PUBCHEM_ATOM_UDEF_STEREO_COUNT>  (1) 
4

>  <PUBCHEM_BOND_DEF_STEREO_COUNT>  (1) 
0

>  <PUBCHEM_BOND_UDEF_STEREO_COUNT>  (1) 
0

>  <PUBCHEM_ISOTOPIC_ATOM_COUNT>  (1) 
0

>  <PUBCHEM_COMPONENT_COUNT>  (1) 
1

>  <PUBCHEM_CACTVS_TAUTO_COUNT>  (1) 
3

>  <PUBCHEM_CONFORMER_ID>  (1) 
0000070D00000005

>  <PUBCHEM_MMFF94_ENERGY>  (1) 
47.6434

>  <PUBCHEM_FEATURE_SELFOVERLAP>  (1) 
60.95

>  <PUBCHEM_SHAPE_FINGERPRINT>  (1) 
11132069 177 18201445735746288361
11578080 2 18043785749696052309
12202030 40 17273999993661959751
12236239 1 18186804672916958159
13538477 17 18408326562131214029
13581323 91 18342735209024552046
13583140 156 17485892351946123562
14178342 30 18131080307357327279
15219456 202 16415482623212966660
15375462 189 18187940511789684657
15653759 3 17561081397490272402
16945 1 18270126712411433637
17844478 74 16630812114046425728
18219364 16 15338829872079813458
19049666 15 16557646126546700023
19422 9 18408888455496300198
200 152 17749102296655297723
20279233 1 16773798073768765293
20645464 45 17203324481619219249
20645477 70 16588020234164590250
20671657 53 17167850972295350846
20715346 28 16558760004924457741
21639500 275 16806180984824936332
21650355 55 18342733018554418393
22112679 90 18337682983096564301
232386 152 18339921618756301111
23402539 116 18411689998217905206
23419403 2 17484480703586103401
23557571 272 17775016673399489876
23559900 14 17845107190180898740
5902787 121 18126283284243997063
6049 1 16271667627444309741
7615 1 18260837024293413381
77492 1 18187374237135911268
81228 2 18130798832580992313
90316 7 18410859815478850777

>  <PUBCHEM_SHAPE_MULTIPOLES>  (1) 
300.58
6.88
1.86
1.35
2.63
0.09
-0.23
-2.95
1.25
-2.16
-0.09
0.65
0.19
-1.43

>  <PUBCHEM_SHAPE_SELFOVERLAP>  (1) 
633.754

>  <PUBCHEM_SHAPE_VOLUME>  (1) 
168.2

>  <PUBCHEM_COORDINATE_TYPE>  (1) 
2
5
10

$$$$
