18057
     RDKit          3D

 12 13  0  0  0  0  0  0  0  0999 V2000
    3.1955   -0.0246   -0.0015 O   0  0  0  0  0  0  0  0  0  0  0  0
    1.9611    1.7958   -0.0004 O   0  0  0  0  0  0  0  0  0  0  0  0
   -2.5504    0.4531   -0.0010 N   0  0  0  0  0  0  0  0  0  0  0  0
   -2.1844    1.7456    0.0001 N   0  0  0  0  0  0  0  0  0  0  0  0
    2.0767    0.5454    0.0000 N   0  0  0  0  0  0  0  0  0  0  0  0
   -0.3593    0.3650    0.0007 C   0  0  0  0  0  0  0  0  0  0  0  0
   -1.5020   -0.4271   -0.0003 C   0  0  0  0  0  0  0  0  0  0  0  0
    0.9040   -0.2496    0.0013 C   0  0  0  0  0  0  0  0  0  0  0  0
   -1.4612   -1.8230   -0.0008 C   0  0  0  0  0  0  0  0  0  0  0  0
   -0.8508    1.6881    0.0007 C   0  0  0  0  0  0  0  0  0  0  0  0
    0.9673   -1.6486    0.0011 C   0  0  0  0  0  0  0  0  0  0  0  0
   -0.1964   -2.4201    0.0000 C   0  0  0  0  0  0  0  0  0  0  0  0
  1  5  1  0
  2  5  2  0
  3  4  1  0
  3  7  1  0
  4 10  2  0
  5  8  1  0
  6  7  2  0
  6  8  1  0
  6 10  1  0
  7  9  1  0
  8 11  2  0
  9 12  2  0
 11 12  1  0
M  CHG  2   1  -1   5   1
M  END
>  <PUBCHEM_COMPOUND_CID>  (1) 
18057

>  <PUBCHEM_CONFORMER_RMSD>  (1) 
0.4

>  <PUBCHEM_CONFORMER_DIVERSEORDER>  (1) 
1

>  <PUBCHEM_MMFF94_PARTIAL_CHARGES>  (1) 
16
1 -0.52
10 0.14
11 -0.15
12 -0.15
13 0.15
14 0.15
15 0.15
16 0.27
17 0.15
2 -0.52
3 0.3
4 -0.71
5 0.91
7 -0.15
8 0.13
9 -0.15

>  <PUBCHEM_EFFECTIVE_ROTOR_COUNT>  (1) 
1

>  <PUBCHEM_PHARMACOPHORE_FEATURES>  (1) 
7
1 1 acceptor
1 1 anion
1 2 acceptor
1 3 donor
1 4 acceptor
5 3 4 6 7 10 rings
6 6 7 8 9 11 12 rings

>  <PUBCHEM_HEAVY_ATOM_COUNT>  (1) 
12

>  <PUBCHEM_ATOM_DEF_STEREO_COUNT>  (1) 
0

>  <PUBCHEM_ATOM_UDEF_STEREO_COUNT>  (1) 
0

>  <PUBCHEM_BOND_DEF_STEREO_COUNT>  (1) 
0

>  <PUBCHEM_BOND_UDEF_STEREO_COUNT>  (1) 
0

>  <PUBCHEM_ISOTOPIC_ATOM_COUNT>  (1) 
0

>  <PUBCHEM_COMPONENT_COUNT>  (1) 
1

>  <PUBCHEM_CACTVS_TAUTO_COUNT>  (1) 
2

>  <PUBCHEM_CONFORMER_ID>  (1) 
0000468900000001

>  <PUBCHEM_MMFF94_ENERGY>  (1) 
29.6457

>  <PUBCHEM_FEATURE_SELFOVERLAP>  (1) 
35.691

>  <PUBCHEM_SHAPE_FINGERPRINT>  (1) 
12423570 1 17340106867904751111
13380535 76 18338230466682881007
16945 1 18410573976603850983
193761 8 18338517422154178723
20871998 184 18127416858756283270
21040471 1 18410573955128956034
2334 1 18050568739779286500
23552423 10 18044374057288498806
23559900 14 18271535204904109374
241688 4 16249973915220419059
2748010 2 18123187071915297391
5084963 1 18131069350573690130
528886 8 18410849936831893801
66348 1 18410009948576591700

>  <PUBCHEM_SHAPE_MULTIPOLES>  (1) 
220.27
3.27
2.45
0.58
1.38
0.61
0
-1.19
0
-0.44
0
-0.03
0.04
0

>  <PUBCHEM_SHAPE_SELFOVERLAP>  (1) 
487.818

>  <PUBCHEM_SHAPE_VOLUME>  (1) 
120.2

>  <PUBCHEM_COORDINATE_TYPE>  (1) 
2
5
10

$$$$
