18053
     RDKit          3D

  7  6  0  0  1  0  0  0  0  0999 V2000
   -2.5560   -1.0353    0.1131 O   0  0  0  0  0  0  0  0  0  0  0  0
    3.1177   -0.2242   -0.1392 O   0  0  0  0  0  0  0  0  0  0  0  0
   -0.5950    0.3950    0.2903 C   0  0  0  0  0  0  0  0  0  0  0  0
    0.8739    0.6118   -0.1166 C   0  0  0  0  0  0  0  0  0  0  0  0
   -1.2250   -0.8498   -0.3482 C   0  0  0  0  0  0  0  0  0  0  0  0
   -1.4080    1.6448   -0.0661 C   0  0  0  0  0  0  0  0  0  0  0  0
    1.7925   -0.5423    0.2666 C   0  0  0  0  0  0  0  0  0  0  0  0
  1  5  1  0
  2  7  1  0
  3  4  1  0
  3  5  1  0
  3  6  1  0
  4  7  1  0
M  END
>  <PUBCHEM_COMPOUND_CID>  (1) 
18053

>  <PUBCHEM_CONFORMER_RMSD>  (1) 
0.4

>  <PUBCHEM_CONFORMER_DIVERSEORDER>  (1) 
1
31
18
23
9
4
26
5
20
30
29
22
8
12
6
21
28
17
7
15
11
10
27
24
25
3
19
14
16
2
13

>  <PUBCHEM_MMFF94_PARTIAL_CHARGES>  (1) 
6
1 -0.68
18 0.4
19 0.4
2 -0.68
5 0.28
7 0.28

>  <PUBCHEM_EFFECTIVE_ROTOR_COUNT>  (1) 
3

>  <PUBCHEM_PHARMACOPHORE_FEATURES>  (1) 
5
1 1 acceptor
1 1 donor
1 2 acceptor
1 2 donor
1 6 hydrophobe

>  <PUBCHEM_HEAVY_ATOM_COUNT>  (1) 
7

>  <PUBCHEM_ATOM_DEF_STEREO_COUNT>  (1) 
0

>  <PUBCHEM_ATOM_UDEF_STEREO_COUNT>  (1) 
1

>  <PUBCHEM_BOND_DEF_STEREO_COUNT>  (1) 
0

>  <PUBCHEM_BOND_UDEF_STEREO_COUNT>  (1) 
0

>  <PUBCHEM_ISOTOPIC_ATOM_COUNT>  (1) 
0

>  <PUBCHEM_COMPONENT_COUNT>  (1) 
1

>  <PUBCHEM_CACTVS_TAUTO_COUNT>  (1) 
1

>  <PUBCHEM_CONFORMER_ID>  (1) 
0000468500000001

>  <PUBCHEM_MMFF94_ENERGY>  (1) 
7.2247

>  <PUBCHEM_FEATURE_SELFOVERLAP>  (1) 
25.371

>  <PUBCHEM_SHAPE_FINGERPRINT>  (1) 
12932741 1 17774429508763195672
139733 1 8934734300382607219
16714656 1 18413108359601265359
21040471 1 18051408461715240465
23552423 10 18260267464416646860
23552449 1 18340484482742070944
29004967 10 18191303994994252923
5460574 1 9439406830591680570

>  <PUBCHEM_SHAPE_MULTIPOLES>  (1) 
132.32
3.61
1.37
0.64
2.07
0.31
0
-0.87
-0.05
-0.96
-0.04
-0.01
0
-0.03

>  <PUBCHEM_SHAPE_SELFOVERLAP>  (1) 
231.368

>  <PUBCHEM_SHAPE_VOLUME>  (1) 
87.9

>  <PUBCHEM_COORDINATE_TYPE>  (1) 
2
5
10

$$$$
