18060
     RDKit          3D

 36 39  0  0  0  0  0  0  0  0999 V2000
    2.6893   -3.0090    0.1670 S   0  0  0  0  0  0  0  0  0  0  0  0
    3.1062    2.0850    0.4815 O   0  0  0  0  0  0  0  0  0  0  0  0
    1.9782   -2.9910   -1.3037 O   0  0  0  0  0  0  0  0  0  0  0  0
    3.6283   -4.1192    0.1741 O   0  0  0  0  0  0  0  0  0  0  0  0
    1.6487   -2.9064    1.1762 O   0  0  0  0  0  0  0  0  0  0  0  0
   -0.1655    2.3729   -0.6179 O   0  0  0  0  0  0  0  0  0  0  0  0
    1.5874   -0.2015    0.3659 N   0  0  0  0  0  0  0  0  0  0  0  0
    8.1014    3.0882    0.4499 N   0  0  0  0  0  0  0  0  0  0  0  0
    1.1413   -0.1019   -0.7998 N   0  0  0  0  0  0  0  0  0  0  0  0
   -4.4385    0.2094   -0.6753 N   0  0  0  0  0  0  0  0  0  0  0  0
   -4.8426    0.1629    0.5096 N   0  0  0  0  0  0  0  0  0  0  0  0
  -10.4283    0.5179    0.6298 N   0  0  0  0  0  0  0  0  0  0  0  0
    5.1526    0.8225    0.3618 C   0  0  0  0  0  0  0  0  0  0  0  0
    5.7907   -0.4373    0.2698 C   0  0  0  0  0  0  0  0  0  0  0  0
    3.6147   -1.5245    0.2432 C   0  0  0  0  0  0  0  0  0  0  0  0
    3.7498    0.8812    0.3922 C   0  0  0  0  0  0  0  0  0  0  0  0
    2.9872   -0.2855    0.3333 C   0  0  0  0  0  0  0  0  0  0  0  0
    5.0073   -1.6013    0.2111 C   0  0  0  0  0  0  0  0  0  0  0  0
    5.9360    1.9866    0.4207 C   0  0  0  0  0  0  0  0  0  0  0  0
    7.1935   -0.4959    0.2392 C   0  0  0  0  0  0  0  0  0  0  0  0
    7.3287    1.9097    0.3897 C   0  0  0  0  0  0  0  0  0  0  0  0
    7.9563    0.6708    0.2989 C   0  0  0  0  0  0  0  0  0  0  0  0
   -0.2613   -0.0179   -0.7678 C   0  0  0  0  0  0  0  0  0  0  0  0
   -2.4066   -1.1182   -0.7966 C   0  0  0  0  0  0  0  0  0  0  0  0
   -1.0139   -1.1877   -0.8274 C   0  0  0  0  0  0  0  0  0  0  0  0
   -0.8906    1.2206   -0.6778 C   0  0  0  0  0  0  0  0  0  0  0  0
   -3.0414    0.1206   -0.7064 C   0  0  0  0  0  0  0  0  0  0  0  0
   -2.2833    1.2899   -0.6471 C   0  0  0  0  0  0  0  0  0  0  0  0
   -3.1971   -2.3839   -0.8639 C   0  0  0  0  0  0  0  0  0  0  0  0
   -6.2449    0.2523    0.5413 C   0  0  0  0  0  0  0  0  0  0  0  0
    0.1560    3.0009   -1.8572 C   0  0  0  0  0  0  0  0  0  0  0  0
   -7.0116   -0.9071    0.4829 C   0  0  0  0  0  0  0  0  0  0  0  0
   -6.8557    1.4993    0.6294 C   0  0  0  0  0  0  0  0  0  0  0  0
   -9.0214    0.4288    0.6012 C   0  0  0  0  0  0  0  0  0  0  0  0
   -8.4035   -0.8187    0.5129 C   0  0  0  0  0  0  0  0  0  0  0  0
   -8.2475    1.5877    0.6595 C   0  0  0  0  0  0  0  0  0  0  0  0
  1  3  1  0
  1  4  2  0
  1  5  2  0
  1 15  1  0
  2 16  1  0
  6 26  1  0
  6 31  1  0
  7  9  2  0
  7 17  1  0
  8 21  1  0
  9 23  1  0
 10 11  2  0
 10 27  1  0
 11 30  1  0
 12 34  1  0
 13 14  1  0
 13 16  2  0
 13 19  1  0
 14 18  2  0
 14 20  1  0
 15 17  2  0
 15 18  1  0
 16 17  1  0
 19 21  2  0
 20 22  2  0
 21 22  1  0
 23 25  1  0
 23 26  2  0
 24 25  2  0
 24 27  1  0
 24 29  1  0
 26 28  1  0
 27 28  2  0
 30 32  2  0
 30 33  1  0
 32 35  1  0
 33 36  2  0
 34 35  2  0
 34 36  1  0
M  END
>  <PUBCHEM_COMPOUND_CID>  (1) 
18060

>  <PUBCHEM_CONFORMER_RMSD>  (1) 
1

>  <PUBCHEM_CONFORMER_DIVERSEORDER>  (1) 
1
10
6
8
9
4
7
5
2
3

>  <PUBCHEM_MMFF94_PARTIAL_CHARGES>  (1) 
50
1 1.49
10 -0.18
11 -0.18
12 -0.9
15 -0.01
16 0.08
17 0.18
18 -0.15
19 -0.15
2 -0.53
20 -0.15
21 0.1
22 -0.15
23 0.18
24 -0.14
25 -0.15
26 0.08
27 0.18
28 -0.15
29 0.14
3 -0.68
30 0.18
31 0.28
32 -0.15
33 -0.15
34 0.1
35 -0.15
36 -0.15
37 0.15
38 0.15
39 0.15
4 -0.65
40 0.15
41 0.15
42 0.45
43 0.15
44 0.4
45 0.4
49 0.5
5 -0.65
53 0.15
54 0.15
55 0.15
56 0.15
57 0.4
58 0.4
6 -0.36
7 -0.18
8 -0.9
9 -0.18

>  <PUBCHEM_EFFECTIVE_ROTOR_COUNT>  (1) 
6

>  <PUBCHEM_PHARMACOPHORE_FEATURES>  (1) 
14
1 12 cation
1 12 donor
1 2 donor
1 3 acceptor
1 4 acceptor
1 5 acceptor
1 6 acceptor
1 8 cation
1 8 donor
4 1 3 4 5 anion
6 13 14 15 16 17 18 rings
6 13 14 19 20 21 22 rings
6 23 24 25 26 27 28 rings
6 30 32 33 34 35 36 rings

>  <PUBCHEM_HEAVY_ATOM_COUNT>  (1) 
36

>  <PUBCHEM_ATOM_DEF_STEREO_COUNT>  (1) 
0

>  <PUBCHEM_ATOM_UDEF_STEREO_COUNT>  (1) 
0

>  <PUBCHEM_BOND_DEF_STEREO_COUNT>  (1) 
0

>  <PUBCHEM_BOND_UDEF_STEREO_COUNT>  (1) 
0

>  <PUBCHEM_ISOTOPIC_ATOM_COUNT>  (1) 
0

>  <PUBCHEM_COMPONENT_COUNT>  (1) 
1

>  <PUBCHEM_CACTVS_TAUTO_COUNT>  (1) 
15

>  <PUBCHEM_CONFORMER_ID>  (1) 
0000468C00000001

>  <PUBCHEM_MMFF94_ENERGY>  (1) 
131.8459

>  <PUBCHEM_FEATURE_SELFOVERLAP>  (1) 
71.129

>  <PUBCHEM_SHAPE_FINGERPRINT>  (1) 
10 15 18273216400757994453
10050765 1 18121497955772745081
10165383 225 18342174492965860128
10258939 38 17822566114737014444
106641 1 18409731785921733481
10904742 90 18272088313811250795
10939801 23 18342176665749780849
11135926 11 18337941355301810966
11534866 41 17458067062489658131
12013929 94 18341333409636757731
12539747 91 17167853172257389805
13150687 139 11527948958952163573
13617811 41 18041009418864394316
13811026 1 18333454236260228115
14251764 18 18131067151940948101
14394314 77 18410854390940040965
14849402 71 18272089418467276321
15064986 96 17775011154340615710
15183329 4 10447933866995594839
15247644 1 15068620491692422705
15392192 104 17275103930008416783
15439362 3 17841985891482565152
15461852 350 16916780821704913549
1577012 14 17846208977803900095
15840311 113 18412549808285049868
15849732 13 18410576184971376373
18335252 114 10231753375114970643
18603816 31 14996572845774100457
18608769 82 18334011717966271315
19315958 150 18341336621834438571
20505436 4 18060132167607036510
20554085 129 15051733071373902645
21033648 29 18197765799910449072
21130935 74 18337678512821937243
21521721 280 18411979196305339600
22224240 67 18187364345931957570
23576562 1 13038602111920475521
24771293 8 18413107277797008413
249057 3 8718823189241386537
3178227 256 18409445908382329640
3383291 50 17313681425351350731
4073 2 18335985358397101483
4093350 32 17489871514349190190
4169191 19 18201719514716662913
5028188 123 18058734744810969876
5283156 175 11458423535781127593
5758199 1 18411416245861184194
58902169 19 10809351061502188393
59682541 35 18113340825361853697
6691757 9 17203331152811745567
99344 41 18410857668738845387
9962374 69 16009038340917760887

>  <PUBCHEM_SHAPE_MULTIPOLES>  (1) 
685.48
27.92
3.35
1.04
39.69
1.58
-0.26
-11.29
10.93
-5.11
-0.36
0.47
-0.14
-0.07

>  <PUBCHEM_SHAPE_SELFOVERLAP>  (1) 
1499.926

>  <PUBCHEM_SHAPE_VOLUME>  (1) 
374.2

>  <PUBCHEM_COORDINATE_TYPE>  (1) 
2
5
10

$$$$
