18079
     RDKit          3D

 17 17  0  0  1  0  0  0  0  0999 V2000
    0.2023   -2.0946   -1.0951 O   0  0  0  0  0  0  0  0  0  0  0  0
    0.3895    2.0270    1.1470 O   0  0  0  0  0  0  0  0  0  0  0  0
    4.0183   -0.7806    1.0883 O   0  0  0  0  0  0  0  0  0  0  0  0
    2.1398   -1.3919   -0.0875 N   0  0  0  0  0  0  0  0  0  0  0  0
    2.2330    0.6666    1.0330 N   0  0  0  0  0  0  0  0  0  0  0  0
    0.3665    0.2515   -0.5043 C   0  0  0  0  0  0  0  0  0  0  0  0
   -1.1658    0.2663   -0.4037 C   0  0  0  0  0  0  0  0  0  0  0  0
   -1.6080   -0.4591    0.8831 C   0  0  0  0  0  0  0  0  0  0  0  0
    0.7971    0.9427   -1.8104 C   0  0  0  0  0  0  0  0  0  0  0  0
   -3.1245   -0.4752    1.1615 C   0  0  0  0  0  0  0  0  0  0  0  0
   -1.7704   -0.3557   -1.6627 C   0  0  0  0  0  0  0  0  0  0  0  0
    0.8586   -1.1904   -0.5788 C   0  0  0  0  0  0  0  0  0  0  0  0
    0.9606    1.0593    0.6453 C   0  0  0  0  0  0  0  0  0  0  0  0
    0.3798    2.3960   -1.8165 C   0  0  0  0  0  0  0  0  0  0  0  0
   -3.7202    0.9308    1.2384 C   0  0  0  0  0  0  0  0  0  0  0  0
   -3.8397   -1.2792    0.0713 C   0  0  0  0  0  0  0  0  0  0  0  0
    2.8831   -0.5131    0.6912 C   0  0  0  0  0  0  0  0  0  0  0  0
  1 12  2  0
  2 13  2  0
  3 17  2  0
  4 12  1  0
  4 17  1  0
  5 13  1  0
  5 17  1  0
  6  7  1  0
  6  9  1  0
  6 12  1  0
  6 13  1  0
  7  8  1  0
  7 11  1  0
  8 10  1  0
  9 14  1  0
 10 15  1  0
 10 16  1  0
M  END
>  <PUBCHEM_COMPOUND_CID>  (1) 
18079

>  <PUBCHEM_CONFORMER_RMSD>  (1) 
0.6

>  <PUBCHEM_CONFORMER_DIVERSEORDER>  (1) 
1
4
2
5
7
3
6

>  <PUBCHEM_MMFF94_PARTIAL_CHARGES>  (1) 
11
1 -0.57
12 0.57
13 0.57
17 0.69
2 -0.57
3 -0.57
36 0.37
37 0.37
4 -0.49
5 -0.49
6 0.12

>  <PUBCHEM_EFFECTIVE_ROTOR_COUNT>  (1) 
4.6

>  <PUBCHEM_PHARMACOPHORE_FEATURES>  (1) 
9
1 1 acceptor
1 11 hydrophobe
1 14 hydrophobe
1 2 acceptor
1 3 acceptor
1 4 donor
1 5 donor
3 10 15 16 hydrophobe
6 4 5 6 12 13 17 rings

>  <PUBCHEM_HEAVY_ATOM_COUNT>  (1) 
17

>  <PUBCHEM_ATOM_DEF_STEREO_COUNT>  (1) 
0

>  <PUBCHEM_ATOM_UDEF_STEREO_COUNT>  (1) 
1

>  <PUBCHEM_BOND_DEF_STEREO_COUNT>  (1) 
0

>  <PUBCHEM_BOND_UDEF_STEREO_COUNT>  (1) 
0

>  <PUBCHEM_ISOTOPIC_ATOM_COUNT>  (1) 
0

>  <PUBCHEM_COMPONENT_COUNT>  (1) 
1

>  <PUBCHEM_CACTVS_TAUTO_COUNT>  (1) 
5

>  <PUBCHEM_CONFORMER_ID>  (1) 
0000469F00000001

>  <PUBCHEM_MMFF94_ENERGY>  (1) 
62.5447

>  <PUBCHEM_FEATURE_SELFOVERLAP>  (1) 
45.713

>  <PUBCHEM_SHAPE_FINGERPRINT>  (1) 
12251169 10 17917989507590925219
12423570 1 7993684232466947996
13132413 78 17918273159968440081
13134695 92 17894629300769257405
13705890 14 13334747837783683826
14817 1 8822384523024768796
15375462 478 17561361790282800795
15501101 241 18411699876631902530
15775835 57 16343980312395832067
16945 1 18272921743904296758
17844478 74 18188759570743056450
1813 80 18261403208758018318
20511035 2 18193565698765490186
20559304 39 18129118830274003049
21061003 4 18040431079467942607
21524375 3 16840507870999191089
23419403 2 18190153811095080964
25 1 9367351452509068051
2748010 2 17840572714018013878
3286 77 18339639066027635835
430814 3 17467369140944625269
568465 68 18410298003559576011
6786 2 13665377847777326749
68419 9 17545043057588400022
7364860 26 17605284079824744813
81228 2 17607248645168558909
83771 10 17458344134855415898

>  <PUBCHEM_SHAPE_MULTIPOLES>  (1) 
322.28
5.38
1.95
1.71
2.34
1.16
0.09
-2.65
-2.24
-0.71
0.59
0.22
0.28
-0.28

>  <PUBCHEM_SHAPE_SELFOVERLAP>  (1) 
657.515

>  <PUBCHEM_SHAPE_VOLUME>  (1) 
184.6

>  <PUBCHEM_COORDINATE_TYPE>  (1) 
2
5
10

$$$$
