18082
     RDKit          3D

 13 13  0  0  0  0  0  0  0  0999 V2000
    4.7563   -0.1867    0.5281 Cl  0  0  0  0  0  0  0  0  0  0  0  0
   -2.2981   -2.4952    0.3661 N   0  0  0  0  0  0  0  0  0  0  0  0
   -4.3443    1.3381    0.0408 N   0  0  0  0  0  0  0  0  0  0  0  0
   -1.0490    0.5580   -0.8024 C   0  0  0  0  0  0  0  0  0  0  0  0
    0.3934    0.3726   -0.4709 C   0  0  0  0  0  0  0  0  0  0  0  0
   -2.0202    0.1263    0.3258 C   0  0  0  0  0  0  0  0  0  0  0  0
    1.1058    1.4027    0.1429 C   0  0  0  0  0  0  0  0  0  0  0  0
    1.0299   -0.8306   -0.7757 C   0  0  0  0  0  0  0  0  0  0  0  0
    2.4549    1.2297    0.4519 C   0  0  0  0  0  0  0  0  0  0  0  0
    2.3791   -1.0037   -0.4666 C   0  0  0  0  0  0  0  0  0  0  0  0
    3.0917    0.0266    0.1472 C   0  0  0  0  0  0  0  0  0  0  0  0
   -2.1776   -1.3412    0.3473 C   0  0  0  0  0  0  0  0  0  0  0  0
   -3.3219    0.8033    0.1653 C   0  0  0  0  0  0  0  0  0  0  0  0
  1 11  1  0
  2 12  3  0
  3 13  3  0
  4  5  1  0
  4  6  1  0
  5  7  2  0
  5  8  1  0
  6 12  1  0
  6 13  1  0
  7  9  1  0
  8 10  2  0
  9 11  2  0
 10 11  1  0
M  END
>  <PUBCHEM_COMPOUND_CID>  (1) 
18082

>  <PUBCHEM_CONFORMER_RMSD>  (1) 
0.6

>  <PUBCHEM_CONFORMER_DIVERSEORDER>  (1) 
1
6
4
3
5
2
7

>  <PUBCHEM_MMFF94_PARTIAL_CHARGES>  (1) 
17
1 -0.18
10 -0.15
11 0.18
12 0.36
13 0.36
17 0.15
18 0.15
19 0.15
2 -0.56
20 0.15
3 -0.56
4 0.14
5 -0.14
6 0.4
7 -0.15
8 -0.15
9 -0.15

>  <PUBCHEM_EFFECTIVE_ROTOR_COUNT>  (1) 
2

>  <PUBCHEM_PHARMACOPHORE_FEATURES>  (1) 
3
1 2 acceptor
1 3 acceptor
6 5 7 8 9 10 11 rings

>  <PUBCHEM_HEAVY_ATOM_COUNT>  (1) 
13

>  <PUBCHEM_ATOM_DEF_STEREO_COUNT>  (1) 
0

>  <PUBCHEM_ATOM_UDEF_STEREO_COUNT>  (1) 
0

>  <PUBCHEM_BOND_DEF_STEREO_COUNT>  (1) 
0

>  <PUBCHEM_BOND_UDEF_STEREO_COUNT>  (1) 
0

>  <PUBCHEM_ISOTOPIC_ATOM_COUNT>  (1) 
0

>  <PUBCHEM_COMPONENT_COUNT>  (1) 
1

>  <PUBCHEM_CACTVS_TAUTO_COUNT>  (1) 
1

>  <PUBCHEM_CONFORMER_ID>  (1) 
000046A200000001

>  <PUBCHEM_MMFF94_ENERGY>  (1) 
22.6981

>  <PUBCHEM_FEATURE_SELFOVERLAP>  (1) 
15.223

>  <PUBCHEM_SHAPE_FINGERPRINT>  (1) 
10608611 8 18341331184036414409
11132069 177 18410856560061906178
12251169 10 18409167709779694536
12382932 28 18413674616547629402
124424 183 18202280303388956880
12500047 106 18409445882174325011
13214271 11 18272083924712928900
13380535 76 18342739589896527295
13705890 14 12179837304205557504
13760787 19 18186806885468745822
13922767 16 18131347501414856544
14115302 16 18261406515566136716
14965852 173 18335701692901854971
15375358 24 18271806791658010550
15375462 189 17749100067957544826
15775835 57 18113337487818927707
16945 1 18339938025373096740
18175812 5 18410854391013803100
18186145 218 18198912418312291525
18511873 20 18259988162756918969
19422 9 18115309002767823516
200 152 17632567280178962567
20201158 50 18342178838586514222
20279233 1 18342181054784351342
20281475 54 18186517730942920750
20361792 2 16226043444068434775
20528008 55 18413106143572278901
20645464 45 18411703175446334791
20645477 70 17203050660606592230
21293036 1 10737290125953452984
21501502 16 18189622815761145180
22169311 14 18411979178392234216
22485316 2 18259981574635503768
22959321 60 18130778023448541360
23402539 116 18341603803339161149
23402655 69 17917141681453221061
23559900 14 18339649945549276286
53812653 166 18410011009512739090
57426455 114 18410569570231110641
69090 78 18411697682462861447
8809292 202 18408325488362925410

>  <PUBCHEM_SHAPE_MULTIPOLES>  (1) 
259.44
7.53
1.73
0.81
0.8
0.73
0.07
-0.78
-1.57
-1.21
-0.2
0.13
0.04
0.43

>  <PUBCHEM_SHAPE_SELFOVERLAP>  (1) 
524.951

>  <PUBCHEM_SHAPE_VOLUME>  (1) 
148.3

>  <PUBCHEM_COORDINATE_TYPE>  (1) 
2
5
10

$$$$
