18089
     RDKit          3D

 14 14  0  0  0  0  0  0  0  0999 V2000
   -0.2529    2.5061    0.7763 Cl  0  0  0  0  0  0  0  0  0  0  0  0
   -4.7076   -0.4518    0.2193 Cl  0  0  0  0  0  0  0  0  0  0  0  0
    4.5719    0.2464   -0.8791 N   0  0  0  0  0  0  0  0  0  0  0  0
    1.7341   -1.3476    2.1773 N   0  0  0  0  0  0  0  0  0  0  0  0
   -0.3056    0.1285   -0.5755 C   0  0  0  0  0  0  0  0  0  0  0  0
   -1.0139    1.0834    0.1538 C   0  0  0  0  0  0  0  0  0  0  0  0
   -0.9586   -1.0052   -1.0594 C   0  0  0  0  0  0  0  0  0  0  0  0
   -2.3753    0.9048    0.3993 C   0  0  0  0  0  0  0  0  0  0  0  0
   -2.3199   -1.1839   -0.8137 C   0  0  0  0  0  0  0  0  0  0  0  0
   -3.0284   -0.2289   -0.0844 C   0  0  0  0  0  0  0  0  0  0  0  0
    1.1178    0.2669   -0.8614 C   0  0  0  0  0  0  0  0  0  0  0  0
    2.1419   -0.1644   -0.0881 C   0  0  0  0  0  0  0  0  0  0  0  0
    3.4818    0.0630   -0.5253 C   0  0  0  0  0  0  0  0  0  0  0  0
    1.9147   -0.8173    1.1608 C   0  0  0  0  0  0  0  0  0  0  0  0
  1  6  1  0
  2 10  1  0
  3 13  3  0
  4 14  3  0
  5  6  2  0
  5  7  1  0
  5 11  1  0
  6  8  1  0
  7  9  2  0
  8 10  2  0
  9 10  1  0
 11 12  2  3
 12 13  1  0
 12 14  1  0
M  END
>  <PUBCHEM_COMPOUND_CID>  (1) 
18089

>  <PUBCHEM_CONFORMER_RMSD>  (1) 
0.4

>  <PUBCHEM_CONFORMER_DIVERSEORDER>  (1) 
1
3
4
2

>  <PUBCHEM_MMFF94_PARTIAL_CHARGES>  (1) 
18
1 -0.18
10 0.18
11 -0.18
12 0.13
13 0.49
14 0.49
15 0.15
16 0.15
17 0.15
18 0.15
2 -0.18
3 -0.56
4 -0.56
5 0.03
6 0.18
7 -0.15
8 -0.15
9 -0.15

>  <PUBCHEM_EFFECTIVE_ROTOR_COUNT>  (1) 
1

>  <PUBCHEM_PHARMACOPHORE_FEATURES>  (1) 
3
1 3 acceptor
1 4 acceptor
6 5 6 7 8 9 10 rings

>  <PUBCHEM_HEAVY_ATOM_COUNT>  (1) 
14

>  <PUBCHEM_ATOM_DEF_STEREO_COUNT>  (1) 
0

>  <PUBCHEM_ATOM_UDEF_STEREO_COUNT>  (1) 
0

>  <PUBCHEM_BOND_DEF_STEREO_COUNT>  (1) 
0

>  <PUBCHEM_BOND_UDEF_STEREO_COUNT>  (1) 
0

>  <PUBCHEM_ISOTOPIC_ATOM_COUNT>  (1) 
0

>  <PUBCHEM_COMPONENT_COUNT>  (1) 
1

>  <PUBCHEM_CACTVS_TAUTO_COUNT>  (1) 
1

>  <PUBCHEM_CONFORMER_ID>  (1) 
000046A900000001

>  <PUBCHEM_MMFF94_ENERGY>  (1) 
28.4536

>  <PUBCHEM_FEATURE_SELFOVERLAP>  (1) 
15.223

>  <PUBCHEM_SHAPE_FINGERPRINT>  (1) 
10857977 72 17917422125463187429
11578080 2 17899658428279504356
12186901 62 18202009776436877836
12236239 1 18261116270392775620
12932764 1 18262502771545379213
13760787 19 18040151812632105191
14993402 34 18272087210410396165
15076042 46 18124024633440217619
15375462 189 18261385663457807419
16945 1 18059278912444922885
18175812 5 16200146629588031733
18222031 100 17917136291437550055
19422 9 18263647277551377634
200 152 17458343043738478823
204376 136 16805896198945261966
20510252 161 17916594137236020273
20645477 70 16878491350541896363
228727 97 18334017181359649024
2297311 6 17917448509742894372
23236772 104 18334020471130524536
23402539 116 17704070681765199853
23419403 2 15615165804926206373
23526113 38 14923941232486600492
23532345 42 17917136278188573185
23557571 272 17775019959571892892
23598294 1 18270116795142036985
474 4 18043255845700833212
7364860 26 17701252774696451193
77492 1 18260828172544806790

>  <PUBCHEM_SHAPE_MULTIPOLES>  (1) 
281.89
6.89
1.63
1.29
0.16
1.19
0.8
-1.46
-0.42
-0.62
0.13
1.03
-0.43
-0.5

>  <PUBCHEM_SHAPE_SELFOVERLAP>  (1) 
573.642

>  <PUBCHEM_SHAPE_VOLUME>  (1) 
161

>  <PUBCHEM_COORDINATE_TYPE>  (1) 
2
5
10

$$$$
