18086
     RDKit          3D

 18 18  0  0  0  0  0  0  0  0999 V2000
    2.5528    1.6685    2.0057 Cl  0  0  0  0  0  0  0  0  0  0  0  0
    6.1485   -1.9961    0.3754 Cl  0  0  0  0  0  0  0  0  0  0  0  0
   -6.5412   -2.6264    1.0534 Cl  0  0  0  0  0  0  0  0  0  0  0  0
    1.2383    1.0670   -0.6291 O   0  0  0  0  0  0  0  0  0  0  0  0
   -2.2779    0.4378   -0.5959 O   0  0  0  0  0  0  0  0  0  0  0  0
   -1.0516    2.2680    0.0936 O   0  0  0  0  0  0  0  0  0  0  0  0
    2.3893    0.3612   -0.3739 C   0  0  0  0  0  0  0  0  0  0  0  0
    0.0556    0.3191   -0.8298 C   0  0  0  0  0  0  0  0  0  0  0  0
    3.0919    0.5481    0.8101 C   0  0  0  0  0  0  0  0  0  0  0  0
    2.8337   -0.5453   -1.3288 C   0  0  0  0  0  0  0  0  0  0  0  0
   -3.4821    1.0918   -0.2214 C   0  0  0  0  0  0  0  0  0  0  0  0
   -1.1229    1.1435   -0.3833 C   0  0  0  0  0  0  0  0  0  0  0  0
    4.2571   -0.1828    1.0430 C   0  0  0  0  0  0  0  0  0  0  0  0
    3.9986   -1.2761   -1.0960 C   0  0  0  0  0  0  0  0  0  0  0  0
    4.7103   -1.0948    0.0899 C   0  0  0  0  0  0  0  0  0  0  0  0
   -4.6327    0.1869   -0.5199 C   0  0  0  0  0  0  0  0  0  0  0  0
   -5.5050   -0.2390    0.4055 C   0  0  0  0  0  0  0  0  0  0  0  0
   -6.6629   -1.1314    0.1015 C   0  0  0  0  0  0  0  0  0  0  0  0
  1  9  1  0
  2 15  1  0
  3 18  1  0
  4  7  1  0
  4  8  1  0
  5 11  1  0
  5 12  1  0
  6 12  2  0
  7  9  2  0
  7 10  1  0
  8 12  1  0
  9 13  1  0
 10 14  2  0
 11 16  1  0
 13 15  2  0
 14 15  1  0
 16 17  2  0
 17 18  1  0
M  END
>  <PUBCHEM_COMPOUND_CID>  (1) 
18086

>  <PUBCHEM_CONFORMER_RMSD>  (1) 
0.8

>  <PUBCHEM_CONFORMER_DIVERSEORDER>  (1) 
1
180
139
77
160
153
35
140
124
203
49
59
109
209
22
93
201
97
120
47
188
24
46
182
189
94
200
193
99
34
127
64
42
82
125
136
132
167
51
159
39
149
45
110
107
52
187
116
198
151
126
43
202
164
128
55
170
81
175
185
7
171
138
181
152
27
70
210
86
17
158
54
173
119
174
84
13
91
50
166
145
73
184
156
16
62
41
104
141
19
131
206
68
87
142
130
32
176
36
143
178
53
28
23
103
137
211
147
172
63
20
29
144
183
204
135
106
133
12
89
21
205
169
179
14
208
67
186
129
150
214
71
61
78
161
165
155
26
57
197
113
85
83
117
163
33
194
177
79
108
191
154
102
74
213
196
114
88
112
95
58
115
48
101
212
118
66
2
92
72
56
192
69
100
105
146
25
37
123
111
15
190
3
195
30
18
40
122
38
96
76
65
207
31
199
90
98
9
162
134
157
4
10
8
44
60
5
75
148
121
80
168
11
6

>  <PUBCHEM_MMFF94_PARTIAL_CHARGES>  (1) 
23
1 -0.18
10 -0.15
11 0.42
12 0.66
13 -0.15
14 -0.15
15 0.18
16 -0.29
17 -0.29
18 0.43
2 -0.18
21 0.15
24 0.15
25 0.15
26 0.15
27 0.15
3 -0.29
4 -0.36
5 -0.43
6 -0.57
7 0.08
8 0.34
9 0.18

>  <PUBCHEM_EFFECTIVE_ROTOR_COUNT>  (1) 
7

>  <PUBCHEM_PHARMACOPHORE_FEATURES>  (1) 
3
1 4 acceptor
1 6 acceptor
6 7 9 10 13 14 15 rings

>  <PUBCHEM_HEAVY_ATOM_COUNT>  (1) 
18

>  <PUBCHEM_ATOM_DEF_STEREO_COUNT>  (1) 
0

>  <PUBCHEM_ATOM_UDEF_STEREO_COUNT>  (1) 
0

>  <PUBCHEM_BOND_DEF_STEREO_COUNT>  (1) 
0

>  <PUBCHEM_BOND_UDEF_STEREO_COUNT>  (1) 
1

>  <PUBCHEM_ISOTOPIC_ATOM_COUNT>  (1) 
0

>  <PUBCHEM_COMPONENT_COUNT>  (1) 
1

>  <PUBCHEM_CACTVS_TAUTO_COUNT>  (1) 
1

>  <PUBCHEM_CONFORMER_ID>  (1) 
000046A600000001

>  <PUBCHEM_MMFF94_ENERGY>  (1) 
33.8248

>  <PUBCHEM_FEATURE_SELFOVERLAP>  (1) 
15.23

>  <PUBCHEM_SHAPE_FINGERPRINT>  (1) 
10354089 29 16272206388505773844
10693767 8 15358529732648798258
11545043 162 18340482279703449049
117890 112 12031792457255944447
11796584 16 18117272558303822958
12596602 18 18273497883950152633
12616971 3 16917061179267791037
13167372 99 11815903335766919831
13668630 136 17312823779873492451
13862211 1 18334859424705013511
13955234 65 18271237339683967784
14123256 34 18413113844142880566
14251740 57 18261392307914885721
14251764 30 18408885131434180667
14341114 176 17346880044041222096
14341114 328 15482671307989034149
14528608 73 11241968200933501085
14848160 23 18410289220878638325
15183329 4 13695860425194618895
15188451 53 18411697691047456247
15238133 3 14045738253124706242
15348495 7 18060420261744859315
15475509 35 18263349318907326442
18222031 100 17675924313581005109
20281389 69 11743846850568915647
20526848 3 11671776083091103746
20621476 21 18335144180778463711
20645477 70 13768204948290612176
21637258 2 17676763155396432906
23402655 69 12829493618942724644
23559900 14 18041281062339496053
25122255 55 18334585650583812531
2916195 48 10015574013427547173
29717793 49 16515687702026671462
3004659 81 17312822688656068831
3060560 45 13551482428117244104
312425 54 18130801006008621811
351380 3 18113617880838432311
465052 167 18411141346078659262
5104073 3 17845935108881870512
59682541 52 12901531434503072801
7062679 6 11455896858430127275
7495541 125 18273210894082738096
7970288 3 18259703376403010979
8863177 126 18340769337926641339
960060 61 14851601085693366961

>  <PUBCHEM_SHAPE_MULTIPOLES>  (1) 
358.43
17.24
2.16
1.32
21.74
0.59
0.36
14.21
4.07
0.86
0.69
-0.97
-0.15
1.97

>  <PUBCHEM_SHAPE_SELFOVERLAP>  (1) 
700.712

>  <PUBCHEM_SHAPE_VOLUME>  (1) 
217.4

>  <PUBCHEM_COORDINATE_TYPE>  (1) 
2
5
10

$$$$
