18097
     RDKit          3D

 16 17  0  0  0  0  0  0  0  0999 V2000
   -1.4459    0.4164   -2.3098 O   0  0  0  0  0  0  0  0  0  0  0  0
   -1.4351    0.2697    2.3212 O   0  0  0  0  0  0  0  0  0  0  0  0
    1.6732   -2.7997   -0.0427 O   0  0  0  0  0  0  0  0  0  0  0  0
   -0.3811   -2.0258   -0.0297 O   0  0  0  0  0  0  0  0  0  0  0  0
   -0.9233    0.4069    0.0066 N   0  0  0  0  0  0  0  0  0  0  0  0
    0.8592   -1.8469   -0.0283 N   0  0  0  0  0  0  0  0  0  0  0  0
    0.4985    0.5811    0.0088 C   0  0  0  0  0  0  0  0  0  0  0  0
    1.3610   -0.5151   -0.0093 C   0  0  0  0  0  0  0  0  0  0  0  0
   -1.7135    0.3279   -1.1226 C   0  0  0  0  0  0  0  0  0  0  0  0
   -1.7126    0.2920    1.1332 C   0  0  0  0  0  0  0  0  0  0  0  0
    1.0167    1.8760    0.0291 C   0  0  0  0  0  0  0  0  0  0  0  0
    2.7417   -0.3162   -0.0072 C   0  0  0  0  0  0  0  0  0  0  0  0
   -3.0975    0.1451   -0.6615 C   0  0  0  0  0  0  0  0  0  0  0  0
   -3.0984    0.1351    0.6678 C   0  0  0  0  0  0  0  0  0  0  0  0
    2.3974    2.0747    0.0312 C   0  0  0  0  0  0  0  0  0  0  0  0
    3.2598    0.9787    0.0131 C   0  0  0  0  0  0  0  0  0  0  0  0
  1  9  2  0
  2 10  2  0
  3  6  1  0
  4  6  2  0
  5  7  1  0
  5  9  1  0
  5 10  1  0
  6  8  1  0
  7  8  2  0
  7 11  1  0
  8 12  1  0
  9 13  1  0
 10 14  1  0
 11 15  2  0
 12 16  2  0
 13 14  2  0
 15 16  1  0
M  CHG  2   3  -1   6   1
M  END
>  <PUBCHEM_COMPOUND_CID>  (1) 
18097

>  <PUBCHEM_CONFORMER_RMSD>  (1) 
0.6

>  <PUBCHEM_CONFORMER_DIVERSEORDER>  (1) 
1

>  <PUBCHEM_MMFF94_PARTIAL_CHARGES>  (1) 
22
1 -0.57
10 0.62
11 -0.15
12 -0.15
13 -0.14
14 -0.14
15 -0.15
16 -0.15
17 0.15
18 0.15
19 0.15
2 -0.57
20 0.15
21 0.15
22 0.15
3 -0.52
4 -0.52
5 -0.24
6 0.91
7 0.12
8 0.13
9 0.62

>  <PUBCHEM_EFFECTIVE_ROTOR_COUNT>  (1) 
2.2

>  <PUBCHEM_PHARMACOPHORE_FEATURES>  (1) 
7
1 1 acceptor
1 2 acceptor
1 3 acceptor
1 3 anion
1 4 acceptor
5 5 9 10 13 14 rings
6 7 8 11 12 15 16 rings

>  <PUBCHEM_HEAVY_ATOM_COUNT>  (1) 
16

>  <PUBCHEM_ATOM_DEF_STEREO_COUNT>  (1) 
0

>  <PUBCHEM_ATOM_UDEF_STEREO_COUNT>  (1) 
0

>  <PUBCHEM_BOND_DEF_STEREO_COUNT>  (1) 
0

>  <PUBCHEM_BOND_UDEF_STEREO_COUNT>  (1) 
0

>  <PUBCHEM_ISOTOPIC_ATOM_COUNT>  (1) 
0

>  <PUBCHEM_COMPONENT_COUNT>  (1) 
1

>  <PUBCHEM_CACTVS_TAUTO_COUNT>  (1) 
1

>  <PUBCHEM_CONFORMER_ID>  (1) 
000046B100000001

>  <PUBCHEM_MMFF94_ENERGY>  (1) 
67.2856

>  <PUBCHEM_FEATURE_SELFOVERLAP>  (1) 
35.604

>  <PUBCHEM_SHAPE_FINGERPRINT>  (1) 
12326174 3 18188199914781670722
12423570 1 17822856518850078005
12491281 212 16701761409238554008
13538477 17 17346590885578872661
13898156 1 17274815809936180305
14817 1 10825186523927822763
15207287 21 17749101223066448371
15219456 202 18040994008110200765
15309172 13 18336272352543398112
15775835 57 18261673795776219052
16945 1 18410856546855166440
18175812 5 17677054645524747261
18186145 218 18271809063833269476
18219364 16 18335421309031629232
19049666 15 17678169391454289097
20201158 50 18186801344391169905
20344682 1 17822290236091602061
22112679 90 17274813619466001089
22802520 49 17897714375625259741
228727 97 17560802164570834361
23236772 104 17704075122339377465
2334 1 18050567640679089382
23419403 2 15949724047858928942
23493267 7 17240481365037112632
23557571 272 17240207616758951461
23559900 14 16515678914924367458
25 1 18408599245093657005
2748010 2 18193846061814844598
528886 8 18339916108112858720
63268167 104 18272087188666670536
77492 1 17704071785223693193
81228 2 17398663992525317210
8272917 22 18270972228568921517

>  <PUBCHEM_SHAPE_MULTIPOLES>  (1) 
295.83
4.65
2.03
1.35
0.06
1.29
0.01
-1.17
0.01
-1.69
-0.03
1.26
-0.26
0.05

>  <PUBCHEM_SHAPE_SELFOVERLAP>  (1) 
650.611

>  <PUBCHEM_SHAPE_VOLUME>  (1) 
157.4

>  <PUBCHEM_COORDINATE_TYPE>  (1) 
2
5
10

$$$$
