18096
     RDKit          3D

 11 10  0  0  0  0  0  0  0  0999 V2000
    0.0023   -0.2525   -0.2804 S   0  0  0  0  0  0  0  0  0  0  0  0
   -1.2749    0.6537    0.1890 O   0  0  0  0  0  0  0  0  0  0  0  0
    1.2743    0.6622    0.1872 O   0  0  0  0  0  0  0  0  0  0  0  0
    0.0015   -0.3140   -1.7305 O   0  0  0  0  0  0  0  0  0  0  0  0
    0.0070   -1.4683    0.5124 O   0  0  0  0  0  0  0  0  0  0  0  0
   -2.5830    0.2355   -0.1706 C   0  0  0  0  0  0  0  0  0  0  0  0
    2.5845    0.2527   -0.1742 C   0  0  0  0  0  0  0  0  0  0  0  0
   -2.8484   -1.1411    0.4195 C   0  0  0  0  0  0  0  0  0  0  0  0
   -3.5900    1.2655    0.3180 C   0  0  0  0  0  0  0  0  0  0  0  0
    3.5905    1.2556    0.3699 C   0  0  0  0  0  0  0  0  0  0  0  0
    2.8363   -1.1492    0.3597 C   0  0  0  0  0  0  0  0  0  0  0  0
  1  2  1  0
  1  3  1  0
  1  4  2  0
  1  5  2  0
  2  6  1  0
  3  7  1  0
  6  8  1  0
  6  9  1  0
  7 10  1  0
  7 11  1  0
M  END
>  <PUBCHEM_COMPOUND_CID>  (1) 
18096

>  <PUBCHEM_CONFORMER_RMSD>  (1) 
0.6

>  <PUBCHEM_CONFORMER_DIVERSEORDER>  (1) 
1
19
11
10
16
14
6
20
21
8
3
4
5
2
12
15
18
17
13
9
7

>  <PUBCHEM_MMFF94_PARTIAL_CHARGES>  (1) 
7
1 1.67
2 -0.46
3 -0.46
4 -0.65
5 -0.65
6 0.28
7 0.28

>  <PUBCHEM_EFFECTIVE_ROTOR_COUNT>  (1) 
4

>  <PUBCHEM_PHARMACOPHORE_FEATURES>  (1) 
4
1 4 acceptor
1 5 acceptor
3 6 8 9 hydrophobe
3 7 10 11 hydrophobe

>  <PUBCHEM_HEAVY_ATOM_COUNT>  (1) 
11

>  <PUBCHEM_ATOM_DEF_STEREO_COUNT>  (1) 
0

>  <PUBCHEM_ATOM_UDEF_STEREO_COUNT>  (1) 
0

>  <PUBCHEM_BOND_DEF_STEREO_COUNT>  (1) 
0

>  <PUBCHEM_BOND_UDEF_STEREO_COUNT>  (1) 
0

>  <PUBCHEM_ISOTOPIC_ATOM_COUNT>  (1) 
0

>  <PUBCHEM_COMPONENT_COUNT>  (1) 
1

>  <PUBCHEM_CACTVS_TAUTO_COUNT>  (1) 
1

>  <PUBCHEM_CONFORMER_ID>  (1) 
000046B000000001

>  <PUBCHEM_MMFF94_ENERGY>  (1) 
10.6065

>  <PUBCHEM_FEATURE_SELFOVERLAP>  (1) 
20.315

>  <PUBCHEM_SHAPE_FINGERPRINT>  (1) 
10219947 1 17022907834841640231
12932764 1 18410581681748715367
14325111 11 18409730668333463632
14993402 34 16878230852000628526
15775835 57 18272651255174523216
17834069 15 18334857190762590445
18186145 218 18410295783135141892
20711983 171 18342458140299178213
20711985 327 16298385798759311708
3248919 1 17313390062220089650
449060 50 18187649154093368564

>  <PUBCHEM_SHAPE_MULTIPOLES>  (1) 
206.75
6.32
1.41
0.9
0.02
0.1
-0.34
-1.82
1.22
0
0.27
0
0.1
0.04

>  <PUBCHEM_SHAPE_SELFOVERLAP>  (1) 
372.313

>  <PUBCHEM_SHAPE_VOLUME>  (1) 
134.8

>  <PUBCHEM_COORDINATE_TYPE>  (1) 
2
5
10

$$$$
