18092
     RDKit          3D

 16 17  0  0  0  0  0  0  0  0999 V2000
    4.6672   -0.9453   -0.9290 N   0  0  0  0  0  0  0  0  0  0  0  0
    2.1374    0.3736    2.5056 N   0  0  0  0  0  0  0  0  0  0  0  0
   -1.0198   -0.1950   -0.2999 C   0  0  0  0  0  0  0  0  0  0  0  0
   -2.2825    0.3674    0.0033 C   0  0  0  0  0  0  0  0  0  0  0  0
    0.0616    0.6558   -0.5811 C   0  0  0  0  0  0  0  0  0  0  0  0
   -0.8754   -1.5919   -0.3123 C   0  0  0  0  0  0  0  0  0  0  0  0
   -2.4267    1.7644    0.0161 C   0  0  0  0  0  0  0  0  0  0  0  0
   -3.3638   -0.4835    0.2846 C   0  0  0  0  0  0  0  0  0  0  0  0
   -0.0997    2.0416   -0.5642 C   0  0  0  0  0  0  0  0  0  0  0  0
   -1.3414    2.5946   -0.2661 C   0  0  0  0  0  0  0  0  0  0  0  0
   -1.9605   -2.4223   -0.0306 C   0  0  0  0  0  0  0  0  0  0  0  0
   -3.2022   -1.8692    0.2671 C   0  0  0  0  0  0  0  0  0  0  0  0
    1.3980    0.1607   -0.9045 C   0  0  0  0  0  0  0  0  0  0  0  0
    2.4025   -0.0718   -0.0300 C   0  0  0  0  0  0  0  0  0  0  0  0
    3.6513   -0.5534   -0.5271 C   0  0  0  0  0  0  0  0  0  0  0  0
    2.2540    0.1741    1.3682 C   0  0  0  0  0  0  0  0  0  0  0  0
  1 15  3  0
  2 16  3  0
  3  4  1  0
  3  5  2  0
  3  6  1  0
  4  7  2  0
  4  8  1  0
  5  9  1  0
  5 13  1  0
  6 11  2  0
  7 10  1  0
  8 12  2  0
  9 10  2  0
 11 12  1  0
 13 14  2  3
 14 15  1  0
 14 16  1  0
M  END
>  <PUBCHEM_COMPOUND_CID>  (1) 
18092

>  <PUBCHEM_CONFORMER_RMSD>  (1) 
0.6

>  <PUBCHEM_CONFORMER_DIVERSEORDER>  (1) 
1
3
2
4

>  <PUBCHEM_MMFF94_PARTIAL_CHARGES>  (1) 
22
1 -0.56
10 -0.15
11 -0.15
12 -0.15
13 -0.18
14 0.13
15 0.49
16 0.49
17 0.15
18 0.15
19 0.15
2 -0.56
20 0.15
21 0.15
22 0.15
23 0.15
24 0.15
5 0.03
6 -0.15
7 -0.15
8 -0.15
9 -0.15

>  <PUBCHEM_EFFECTIVE_ROTOR_COUNT>  (1) 
1

>  <PUBCHEM_PHARMACOPHORE_FEATURES>  (1) 
4
1 1 acceptor
1 2 acceptor
6 3 4 5 7 9 10 rings
6 3 4 6 8 11 12 rings

>  <PUBCHEM_HEAVY_ATOM_COUNT>  (1) 
16

>  <PUBCHEM_ATOM_DEF_STEREO_COUNT>  (1) 
0

>  <PUBCHEM_ATOM_UDEF_STEREO_COUNT>  (1) 
0

>  <PUBCHEM_BOND_DEF_STEREO_COUNT>  (1) 
0

>  <PUBCHEM_BOND_UDEF_STEREO_COUNT>  (1) 
0

>  <PUBCHEM_ISOTOPIC_ATOM_COUNT>  (1) 
0

>  <PUBCHEM_COMPONENT_COUNT>  (1) 
1

>  <PUBCHEM_CACTVS_TAUTO_COUNT>  (1) 
1

>  <PUBCHEM_CONFORMER_ID>  (1) 
000046AC00000001

>  <PUBCHEM_MMFF94_ENERGY>  (1) 
43.2868

>  <PUBCHEM_FEATURE_SELFOVERLAP>  (1) 
20.324

>  <PUBCHEM_SHAPE_FINGERPRINT>  (1) 
12553582 1 18260824955678073523
12716301 132 18267856199161372472
13140716 1 18267038313435302249
13538477 17 18041552551342819252
15295992 7 17346593028387953600
15375462 175 18336544928258051162
15375462 189 17749387113190281561
15653759 3 18131631175498906978
16752209 62 18260817177581516479
16945 1 18335974307688218029
17804303 29 18343591741166876110
19049666 15 17916306026592593022
19422 9 17822577101563576674
19784866 135 18409449150808474538
200 152 15719386227131751060
20510252 161 18342178834386758985
20645477 70 17613994518921317167
20871998 184 18343025484167693591
23175994 123 17060065792101292012
232386 152 18263091057516265031
23402539 116 18343299254553258967
23419403 2 16896739060406983605
23526113 38 17558550201785866294
23559900 14 18412823582248534340
23598291 2 17531546324661276037
23598294 1 18261389992674201945
2748010 2 18266452290659357373
3286 77 17060338560683583987
43471831 8 18188772725806579715
53748568 43 17458626666488955240
6049 1 18131624599956932384
7364860 26 17835244819481805677
77492 1 17458345204444710148
81228 2 18338503201606807649
84936 182 17118310010822139193

>  <PUBCHEM_SHAPE_MULTIPOLES>  (1) 
319.31
6.15
2.4
1.21
4.92
0.48
0.85
-2.71
-0.16
-2.25
-0.29
1.26
0.09
0.44

>  <PUBCHEM_SHAPE_SELFOVERLAP>  (1) 
696.792

>  <PUBCHEM_SHAPE_VOLUME>  (1) 
169.3

>  <PUBCHEM_COORDINATE_TYPE>  (1) 
2
5
10

$$$$
