1810
     RDKit          3D

 17 18  0  0  1  0  0  0  0  0999 V2000
   -3.4402   -2.9043   -0.7502 Cl  0  0  0  0  0  0  0  0  0  0  0  0
   -1.3103   -0.7121   -0.7086 O   0  0  0  0  0  0  0  0  0  0  0  0
   -0.9680    2.7234    0.1554 O   0  0  0  0  0  0  0  0  0  0  0  0
   -3.2431    1.1984    1.6227 O   0  0  0  0  0  0  0  0  0  0  0  0
    1.8478    1.7926   -1.4365 O   0  0  0  0  0  0  0  0  0  0  0  0
    0.8475    0.0721   -0.2683 N   0  0  0  0  0  0  0  0  0  0  0  0
    3.2416    0.3576   -0.3642 N   0  0  0  0  0  0  0  0  0  0  0  0
    4.6642   -1.1174    0.7353 N   0  0  0  0  0  0  0  0  0  0  0  0
   -1.1147    1.3494    0.4654 C   0  0  0  0  0  0  0  0  0  0  0  0
   -2.5683    0.9362    0.4077 C   0  0  0  0  0  0  0  0  0  0  0  0
   -0.4920    0.4642   -0.6028 C   0  0  0  0  0  0  0  0  0  0  0  0
   -2.4436   -0.5563    0.1602 C   0  0  0  0  0  0  0  0  0  0  0  0
   -3.6743   -1.1641   -0.4879 C   0  0  0  0  0  0  0  0  0  0  0  0
    1.0342   -1.0482    0.5268 C   0  0  0  0  0  0  0  0  0  0  0  0
    1.9785    0.7937   -0.7268 C   0  0  0  0  0  0  0  0  0  0  0  0
    2.2402   -1.4842    0.8853 C   0  0  0  0  0  0  0  0  0  0  0  0
    3.4003   -0.7008    0.3866 C   0  0  0  0  0  0  0  0  0  0  0  0
  1 13  1  0
  2 11  1  0
  2 12  1  0
  3  9  1  0
  4 10  1  0
  5 15  2  0
  6 11  1  0
  6 14  1  0
  6 15  1  0
  7 15  1  0
  7 17  2  0
  8 17  1  0
  9 10  1  0
  9 11  1  0
 10 12  1  0
 12 13  1  0
 14 16  2  0
 16 17  1  0
M  END
>  <PUBCHEM_COMPOUND_CID>  (1) 
1810

>  <PUBCHEM_CONFORMER_RMSD>  (1) 
0.6

>  <PUBCHEM_CONFORMER_DIVERSEORDER>  (1) 
1
100
35
75
123
132
59
115
140
20
137
77
66
101
81
111
139
143
120
31
70
124
29
122
50
65
103
67
63
3
49
30
116
107
109
87
125
149
53
105
45
95
106
17
88
114
74
43
10
96
126
72
15
136
19
147
71
14
108
118
69
73
2
44
51
102
46
26
24
78
54
145
129
83
131
16
6
85
117
80
36
62
99
84
119
37
7
25
61
91
38
86
18
89
93
68
128
76
90
64
55
104
42
98
48
130
133
141
135
34
21
22
60
8
79
52
82
40
28
121
12
112
27
32
97
5
146
127
23
56
13
138
94
4
58
9
39
41
92
144
33
47
134
148
11
110
150
142
113
57

>  <PUBCHEM_MMFF94_PARTIAL_CHARGES>  (1) 
23
1 -0.29
10 0.28
11 0.58
12 0.28
13 0.29
14 -0.04
15 0.84
16 -0.14
17 0.49
2 -0.56
24 0.4
25 0.4
26 0.15
27 0.15
28 0.4
29 0.4
3 -0.68
4 -0.68
5 -0.57
6 -0.47
7 -0.66
8 -0.85
9 0.28

>  <PUBCHEM_EFFECTIVE_ROTOR_COUNT>  (1) 
3

>  <PUBCHEM_PHARMACOPHORE_FEATURES>  (1) 
10
1 2 acceptor
1 3 acceptor
1 3 donor
1 4 acceptor
1 4 donor
1 5 acceptor
1 7 donor
1 8 donor
5 2 9 10 11 12 rings
6 6 7 14 15 16 17 rings

>  <PUBCHEM_HEAVY_ATOM_COUNT>  (1) 
17

>  <PUBCHEM_ATOM_DEF_STEREO_COUNT>  (1) 
0

>  <PUBCHEM_ATOM_UDEF_STEREO_COUNT>  (1) 
4

>  <PUBCHEM_BOND_DEF_STEREO_COUNT>  (1) 
0

>  <PUBCHEM_BOND_UDEF_STEREO_COUNT>  (1) 
0

>  <PUBCHEM_ISOTOPIC_ATOM_COUNT>  (1) 
0

>  <PUBCHEM_COMPONENT_COUNT>  (1) 
1

>  <PUBCHEM_CACTVS_TAUTO_COUNT>  (1) 
3

>  <PUBCHEM_CONFORMER_ID>  (1) 
0000071200000001

>  <PUBCHEM_MMFF94_ENERGY>  (1) 
47.4515

>  <PUBCHEM_FEATURE_SELFOVERLAP>  (1) 
50.794

>  <PUBCHEM_SHAPE_FINGERPRINT>  (1) 
11132069 177 18201444627554983801
11578080 2 18192121954336875109
11769659 78 18334851740401723078
11806522 49 18334850662823893558
12251169 10 18336834065324607681
13538477 17 18413111641035524205
13764800 53 16845300384612547209
14787075 74 17693936701666126924
15375462 189 18193846066294902491
15375462 478 18412537704581964878
16945 1 18267872687498571661
17844478 74 15195575605945684635
17862501 102 18335975424527590138
19422 9 18411704313227825694
19433438 48 18336261258489885530
200 152 18259977184788835823
20645477 70 17240479255859913254
21634736 98 18191307276423607366
21650355 55 18272082790857536473
22112679 90 18342185487533602517
22445834 79 18189057490711745880
23388829 49 18334013873971093596
23402539 116 18340758308387243894
23557571 272 17703799097602182260
23559900 14 18341882013734369440
23598291 2 18334869311228969460
57096353 35 18261682587484532190
6992083 37 18263085413892392476
7097593 13 18194120720425593426
77492 1 18408893948569470493
90316 7 18340491066990414809

>  <PUBCHEM_SHAPE_MULTIPOLES>  (1) 
313.3
7.07
2.42
1.08
2.21
0.08
-0.05
3.79
-0.64
-1.8
0.13
-0.08
-0.21
-1.83

>  <PUBCHEM_SHAPE_SELFOVERLAP>  (1) 
648.649

>  <PUBCHEM_SHAPE_VOLUME>  (1) 
180.4

>  <PUBCHEM_COORDINATE_TYPE>  (1) 
2
5
10

$$$$
