18106
     RDKit          3D

 16 16  0  0  1  0  0  0  0  0999 V2000
    0.0073   -2.8647   -1.1513 O   0  0  0  0  0  0  0  0  0  0  0  0
   -3.2212    0.8862   -0.3744 N   0  0  0  0  0  0  0  0  0  0  0  0
    1.8722   -2.6759    0.1570 N   0  0  0  0  0  0  0  0  0  0  0  0
    0.1109   -0.9591    0.3901 C   0  0  0  0  0  0  0  0  0  0  0  0
   -1.2841   -0.6121   -0.2314 C   0  0  0  0  0  0  0  0  0  0  0  0
   -1.9269    0.6867    0.2727 C   0  0  0  0  0  0  0  0  0  0  0  0
    1.1006    0.1891    0.1265 C   0  0  0  0  0  0  0  0  0  0  0  0
   -0.0891   -1.3049    1.8860 C   0  0  0  0  0  0  0  0  0  0  0  0
    0.6369   -2.2530   -0.2890 C   0  0  0  0  0  0  0  0  0  0  0  0
    1.3514    0.5459   -1.1742 C   0  0  0  0  0  0  0  0  0  0  0  0
    1.6868    0.8027    1.2045 C   0  0  0  0  0  0  0  0  0  0  0  0
   -3.8326    2.1366    0.0765 C   0  0  0  0  0  0  0  0  0  0  0  0
   -4.1104   -0.2432   -0.1022 C   0  0  0  0  0  0  0  0  0  0  0  0
    2.2488    1.5867   -1.4130 C   0  0  0  0  0  0  0  0  0  0  0  0
    2.5842    1.8434    0.9656 C   0  0  0  0  0  0  0  0  0  0  0  0
    2.8652    2.2355   -0.3432 C   0  0  0  0  0  0  0  0  0  0  0  0
  1  9  2  0
  2  6  1  0
  2 12  1  0
  2 13  1  0
  3  9  1  0
  4  5  1  0
  4  7  1  0
  4  8  1  0
  4  9  1  0
  5  6  1  0
  7 10  2  0
  7 11  1  0
 10 14  1  0
 11 15  2  0
 14 16  2  0
 15 16  1  0
M  END
>  <PUBCHEM_COMPOUND_CID>  (1) 
18106

>  <PUBCHEM_CONFORMER_RMSD>  (1) 
0.6

>  <PUBCHEM_CONFORMER_DIVERSEORDER>  (1) 
1
45
30
60
59
52
34
58
54
43
37
64
49
27
57
46
32
24
55
39
31
25
17
35
50
22
61
56
65
53
12
11
44
42
62
19
47
9
23
63
20
7
5
13
26
40
4
48
18
6
38
51
3
29
10
2
15
16
33
41
14
28
21
36
8

>  <PUBCHEM_MMFF94_PARTIAL_CHARGES>  (1) 
21
1 -0.57
10 -0.15
11 -0.15
12 0.27
13 0.27
14 -0.15
15 -0.15
16 -0.15
2 -0.81
24 0.15
25 0.15
3 -0.8
32 0.37
33 0.37
34 0.15
35 0.15
36 0.15
4 0.2
6 0.27
7 -0.14
9 0.57

>  <PUBCHEM_EFFECTIVE_ROTOR_COUNT>  (1) 
5

>  <PUBCHEM_PHARMACOPHORE_FEATURES>  (1) 
5
1 1 acceptor
1 2 cation
1 3 donor
1 8 hydrophobe
6 7 10 11 14 15 16 rings

>  <PUBCHEM_HEAVY_ATOM_COUNT>  (1) 
16

>  <PUBCHEM_ATOM_DEF_STEREO_COUNT>  (1) 
0

>  <PUBCHEM_ATOM_UDEF_STEREO_COUNT>  (1) 
1

>  <PUBCHEM_BOND_DEF_STEREO_COUNT>  (1) 
0

>  <PUBCHEM_BOND_UDEF_STEREO_COUNT>  (1) 
0

>  <PUBCHEM_ISOTOPIC_ATOM_COUNT>  (1) 
0

>  <PUBCHEM_COMPONENT_COUNT>  (1) 
1

>  <PUBCHEM_CACTVS_TAUTO_COUNT>  (1) 
2

>  <PUBCHEM_CONFORMER_ID>  (1) 
000046BA00000001

>  <PUBCHEM_MMFF94_ENERGY>  (1) 
53.8836

>  <PUBCHEM_FEATURE_SELFOVERLAP>  (1) 
25.371

>  <PUBCHEM_SHAPE_FINGERPRINT>  (1) 
1 1 18410854347937555478
10465860 228 18337391530889894857
10922049 32 18337397148485195106
11725454 13 16556750196680192896
12138202 97 17913498105902673556
13132413 78 17766280877665756372
13134695 92 18048026376880517870
13294875 104 18201993339950353376
13380537 58 18051413169474046636
13464514 151 18265913366452283364
13764800 53 18043823197562728897
14004458 79 17477485777406912222
14181834 199 18339929186467681526
14648413 74 18267023843511270251
14817 1 16095682802832422706
15490181 7 18269845383289609122
15534591 1 16809564281146690580
15775835 57 18261949764431166129
15906896 17 17826797245817906858
16945 1 18192729868270541714
17041 50 17831859049844529557
17134986 127 18410295843159403556
17357990 137 17895754139982928836
18186145 218 17916600832952826105
18410436 195 17908984301222004486
19837323 101 18047758379621808786
20511035 2 18261681458129925874
20645477 56 17982178021790284400
20671657 1 18411138000383427511
20711985 344 17619626230062442102
21524375 3 18261387905362254897
2255824 54 18189900807941573235
23402539 116 17983848170956350556
23419403 2 17321603324128116554
23557571 272 17407687675923056152
2748010 2 18193862506954613654
298252 57 18264491852604924680
305870 269 18411694396185171444
3071541 158 18050005497868380935
3250762 1 18116176465502365091
430814 3 18335133254001367582
6442390 28 18126022669918194371
7364860 26 18269270166888147149
81228 2 17405717359285385866
81539 233 18260541243107375287
84936 182 18272369741638403585

>  <PUBCHEM_SHAPE_MULTIPOLES>  (1) 
313.44
5.45
3.01
1.31
5.79
1.54
0.22
-4.66
-0.34
-0.9
-0.4
-0.68
0.13
-0.11

>  <PUBCHEM_SHAPE_SELFOVERLAP>  (1) 
637.783

>  <PUBCHEM_SHAPE_VOLUME>  (1) 
183.1

>  <PUBCHEM_COORDINATE_TYPE>  (1) 
2
5
10

$$$$
