1811
     RDKit          2D

 13 12  0  0  1  0  0  0  0  0999 V2000
    0.0000    0.0000    0.0000 O   0  0  0  0  0  0  0  0  0  0  0  0
    0.0000    0.0000    0.0000 O   0  0  0  0  0  0  0  0  0  0  0  0
    0.0000    0.0000    0.0000 O   0  0  0  0  0  0  0  0  0  0  0  0
    0.0000    0.0000    0.0000 O   0  0  0  0  0  0  0  0  0  0  0  0
    0.0000    0.0000    0.0000 O   0  0  0  0  0  0  0  0  0  0  0  0
    0.0000    0.0000    0.0000 O   0  0  0  0  0  0  0  0  0  0  0  0
    0.0000    0.0000    0.0000 O   0  0  0  0  0  0  0  0  0  0  0  0
    0.0000    0.0000    0.0000 C   0  0  0  0  0  0  0  0  0  0  0  0
    0.0000    0.0000    0.0000 C   0  0  0  0  0  0  0  0  0  0  0  0
    0.0000    0.0000    0.0000 C   0  0  0  0  0  0  0  0  0  0  0  0
    0.0000    0.0000    0.0000 C   0  0  0  0  0  0  0  0  0  0  0  0
    0.0000    0.0000    0.0000 C   0  0  0  0  0  0  0  0  0  0  0  0
    0.0000    0.0000    0.0000 C   0  0  0  0  0  0  0  0  0  0  0  0
  1  8  1  0
  2  9  1  0
  3 11  2  0
  4 12  1  0
  5 12  2  0
  6 13  1  0
  7 13  2  0
  8  9  1  0
  8 10  1  0
  9 12  1  0
 10 11  1  0
 11 13  1  0
M  CHG  2   4  -1   6  -1
M  END
>  <PUBCHEM_COMPOUND_CID>  (1) 
1811

>  <PUBCHEM_CONFORMER_RMSD>  (1) 
0.6

>  <PUBCHEM_CONFORMER_DIVERSEORDER>  (1) 
27
150
6
98
19
132
49
29
77
126
8
152
131
50
123
57
22
75
137
151
47
40
111
65
149
1
56
141
119
35
36
127
144
85
112
124
115
92
100
55
4
133
154
30
73
37
31
9
134
84
7
117
2
120
140
145
24
95
113
13
63
106
28
86
146
69
90
87
136
14
142
108
83
143
99
148
116
26
54
80
12
44
153
42
78
3
72
79
16
59
17
18
23
5
41
138
105
129
147
71
110
103
89
61
93
45
104
118
58
32
96
33
130
25
11
114
135
15
39
43
121
122
91
139
38
128
52
64
62
107
46
88
109
125
53
70
68
21
97
94
51
101
20
81
76
74
66
60
34
102
10
67
82
48

>  <PUBCHEM_MMFF94_PARTIAL_CHARGES>  (1) 
15
1 -0.68
10 0.06
11 0.36
12 0.91
13 0.95
18 0.4
19 0.4
2 -0.68
3 -0.57
4 -0.9
5 -0.9
6 -0.9
7 -0.9
8 0.28
9 0.17

>  <PUBCHEM_EFFECTIVE_ROTOR_COUNT>  (1) 
5

>  <PUBCHEM_PHARMACOPHORE_FEATURES>  (1) 
11
1 1 acceptor
1 1 donor
1 2 acceptor
1 2 donor
1 3 acceptor
1 4 acceptor
1 5 acceptor
1 6 acceptor
1 7 acceptor
3 4 5 12 anion
3 6 7 13 anion

>  <PUBCHEM_HEAVY_ATOM_COUNT>  (1) 
13

>  <PUBCHEM_ATOM_DEF_STEREO_COUNT>  (1) 
0

>  <PUBCHEM_ATOM_UDEF_STEREO_COUNT>  (1) 
2

>  <PUBCHEM_BOND_DEF_STEREO_COUNT>  (1) 
0

>  <PUBCHEM_BOND_UDEF_STEREO_COUNT>  (1) 
0

>  <PUBCHEM_ISOTOPIC_ATOM_COUNT>  (1) 
0

>  <PUBCHEM_COMPONENT_COUNT>  (1) 
1

>  <PUBCHEM_CACTVS_TAUTO_COUNT>  (1) 
2

$$$$
