1812
     RDKit          3D

 25 28  0  0  1  0  0  0  0  0999 V2000
   -1.9884   -1.3672   -0.0174 O   0  0  0  0  0  0  0  0  0  0  0  0
    2.3248   -0.4731   -1.7937 O   0  0  0  0  0  0  0  0  0  0  0  0
    0.9602    0.7354    1.8877 O   0  0  0  0  0  0  0  0  0  0  0  0
   -4.5319    2.7571   -0.0239 O   0  0  0  0  0  0  0  0  0  0  0  0
    6.8050   -0.5253   -0.2438 O   0  0  0  0  0  0  0  0  0  0  0  0
    0.4089    0.0053   -0.3558 C   0  0  0  0  0  0  0  0  0  0  0  0
   -0.9273    0.7111   -0.2641 C   0  0  0  0  0  0  0  0  0  0  0  0
   -3.1719   -2.1748    0.1623 C   0  0  0  0  0  0  0  0  0  0  0  0
   -2.1129   -0.0089   -0.0930 C   0  0  0  0  0  0  0  0  0  0  0  0
    1.1202    0.2918   -1.6785 C   0  0  0  0  0  0  0  0  0  0  0  0
   -3.3347    0.6619   -0.0099 C   0  0  0  0  0  0  0  0  0  0  0  0
    1.3449    0.3697    0.7828 C   0  0  0  0  0  0  0  0  0  0  0  0
   -4.4795   -1.4232    0.2469 C   0  0  0  0  0  0  0  0  0  0  0  0
   -0.9601    2.1023   -0.3522 C   0  0  0  0  0  0  0  0  0  0  0  0
    2.7868    0.1840    0.5095 C   0  0  0  0  0  0  0  0  0  0  0  0
   -4.5626   -0.0936    0.1668 C   0  0  0  0  0  0  0  0  0  0  0  0
   -3.2195   -3.1403   -1.0279 C   0  0  0  0  0  0  0  0  0  0  0  0
   -2.9596   -2.9673    1.4579 C   0  0  0  0  0  0  0  0  0  0  0  0
   -3.3619    2.0589   -0.0991 C   0  0  0  0  0  0  0  0  0  0  0  0
    3.1931   -0.2467   -0.7573 C   0  0  0  0  0  0  0  0  0  0  0  0
   -2.1768    2.7760   -0.2697 C   0  0  0  0  0  0  0  0  0  0  0  0
    3.7313    0.3955    1.5177 C   0  0  0  0  0  0  0  0  0  0  0  0
    4.5433   -0.4990   -1.0048 C   0  0  0  0  0  0  0  0  0  0  0  0
    5.0820    0.1606    1.2581 C   0  0  0  0  0  0  0  0  0  0  0  0
    5.4867   -0.2904    0.0015 C   0  0  0  0  0  0  0  0  0  0  0  0
  1  8  1  0
  1  9  1  0
  2 10  1  0
  2 20  1  0
  3 12  2  0
  4 19  1  0
  5 25  1  0
  6  7  1  0
  6 10  1  0
  6 12  1  0
  7  9  2  0
  7 14  1  0
  8 13  1  0
  8 17  1  0
  8 18  1  0
  9 11  1  0
 11 16  1  0
 11 19  2  0
 12 15  1  0
 13 16  2  0
 14 21  2  0
 15 20  2  0
 15 22  1  0
 19 21  1  0
 20 23  1  0
 22 24  2  0
 23 25  2  0
 24 25  1  0
M  END
>  <PUBCHEM_COMPOUND_CID>  (1) 
1812

>  <PUBCHEM_CONFORMER_RMSD>  (1) 
0.6

>  <PUBCHEM_CONFORMER_DIVERSEORDER>  (1) 
1
15
9
8
10
14
7
18
11
12
3
17
4
2
16
6
13
5

>  <PUBCHEM_MMFF94_PARTIAL_CHARGES>  (1) 
32
1 -0.36
10 0.28
11 0.03
12 0.42
13 -0.29
14 -0.15
15 0.09
16 -0.18
19 0.08
2 -0.36
20 0.08
21 -0.15
22 -0.15
23 -0.15
24 -0.15
25 0.08
29 0.15
3 -0.57
30 0.15
31 0.15
38 0.15
39 0.15
4 -0.53
40 0.15
41 0.15
42 0.45
43 0.45
5 -0.53
6 0.2
7 -0.14
8 0.42
9 0.08

>  <PUBCHEM_EFFECTIVE_ROTOR_COUNT>  (1) 
2

>  <PUBCHEM_PHARMACOPHORE_FEATURES>  (1) 
10
1 1 acceptor
1 2 acceptor
1 3 acceptor
1 4 donor
1 5 donor
3 8 17 18 hydrophobe
6 1 8 9 11 13 16 rings
6 15 20 22 23 24 25 rings
6 2 6 10 12 15 20 rings
6 7 9 11 14 19 21 rings

>  <PUBCHEM_HEAVY_ATOM_COUNT>  (1) 
25

>  <PUBCHEM_ATOM_DEF_STEREO_COUNT>  (1) 
0

>  <PUBCHEM_ATOM_UDEF_STEREO_COUNT>  (1) 
1

>  <PUBCHEM_BOND_DEF_STEREO_COUNT>  (1) 
0

>  <PUBCHEM_BOND_UDEF_STEREO_COUNT>  (1) 
0

>  <PUBCHEM_ISOTOPIC_ATOM_COUNT>  (1) 
0

>  <PUBCHEM_COMPONENT_COUNT>  (1) 
1

>  <PUBCHEM_CACTVS_TAUTO_COUNT>  (1) 
37

>  <PUBCHEM_CONFORMER_ID>  (1) 
0000071400000001

>  <PUBCHEM_MMFF94_ENERGY>  (1) 
80.0516

>  <PUBCHEM_FEATURE_SELFOVERLAP>  (1) 
50.806

>  <PUBCHEM_SHAPE_FINGERPRINT>  (1) 
10 15 18059560431041278464
10319926 262 18268976636592365034
10366900 7 18201707440777357037
10369192 42 17697298966150621256
10411042 1 18193559106887807715
11045977 3 18273208694922462632
11315181 36 18040719177558705836
11370993 144 17417827105602222219
11545043 162 18343864424867751842
11796584 16 18341051801389531718
12107183 9 17684358456903145464
12236239 1 17458065954050127300
12363563 72 18192996152222583783
12403259 415 17917987296310476400
12553582 1 18261108642831921547
12616971 3 16950289490258616748
12633257 1 17273991305212580331
12788726 201 18116453594135136803
13009979 54 17896048791866166359
13140716 1 18193563492048735171
13402501 40 18131632279231726847
13583140 156 18060131021177191934
13782708 43 17989203763563129534
14294032 229 18042959879889730989
14386348 63 17917996078980454806
14844126 61 18409167753183516211
15099037 37 18413386561775960405
15250474 111 18114447990843592722
16752209 62 18261100873536366877
17349148 13 16732979830243682736
17844677 252 18413392059772267552
18927931 339 18411422834046020207
200 152 16081084870444597348
20511986 3 17313652785391107348
20554085 129 18054205663090300129
20600515 1 18410584963405125037
21033648 144 15194701516214626504
21033648 29 17631998789654633936
21033650 10 18044117669574752716
21065201 7 18410855430606826650
21133410 52 15968762418169609022
21267235 1 18261679263644243771
21792961 116 17775292621934523452
2297311 6 18411423916298358296
23175994 123 17274823557930959121
23402539 116 18040434395509762358
23557571 272 18342181050700594932
23559900 14 18270408166155719622
23569914 152 13845830409420004090
335352 9 18408321104066375805
3383291 50 18336267942424966523
4015057 19 17774421868048576865
4073 2 18409452466981993954
4214541 1 18410855443133240232
5104073 3 18411136965650198928
5265222 85 18270129041064508486
5364581 5 18198610232892945768
57527293 21 17915750979184006215
602551 16 18409448094140595834
67856867 119 18042693973683950676
7495541 125 18201439220734581048
7970288 3 18046348797321407443

>  <PUBCHEM_SHAPE_MULTIPOLES>  (1) 
485.14
12.06
2.76
1.35
13.64
0.33
-0.07
2.68
-0.87
-5.87
0
1.11
0.31
0.6

>  <PUBCHEM_SHAPE_SELFOVERLAP>  (1) 
1082.256

>  <PUBCHEM_SHAPE_VOLUME>  (1) 
257.1

>  <PUBCHEM_COORDINATE_TYPE>  (1) 
2
5
10

$$$$
