18120
     RDKit          2D

 22 24  0  0  1  0  0  0  0  0999 V2000
    0.0000    0.0000    0.0000 O   0  0  0  0  0  0  0  0  0  0  0  0
    0.0000    0.0000    0.0000 N   0  0  0  0  0  0  0  0  0  0  0  0
    0.0000    0.0000    0.0000 N   0  0  0  0  0  0  0  0  0  0  0  0
    0.0000    0.0000    0.0000 C   0  0  0  0  0  0  0  0  0  0  0  0
    0.0000    0.0000    0.0000 C   0  0  0  0  0  0  0  0  0  0  0  0
    0.0000    0.0000    0.0000 C   0  0  0  0  0  0  0  0  0  0  0  0
    0.0000    0.0000    0.0000 C   0  0  0  0  0  0  0  0  0  0  0  0
    0.0000    0.0000    0.0000 C   0  0  0  0  0  0  0  0  0  0  0  0
    0.0000    0.0000    0.0000 C   0  0  0  0  0  0  0  0  0  0  0  0
    0.0000    0.0000    0.0000 C   0  0  0  0  0  0  0  0  0  0  0  0
    0.0000    0.0000    0.0000 C   0  0  0  0  0  0  0  0  0  0  0  0
    0.0000    0.0000    0.0000 C   0  0  0  0  0  0  0  0  0  0  0  0
    0.0000    0.0000    0.0000 C   0  0  0  0  0  0  0  0  0  0  0  0
    0.0000    0.0000    0.0000 C   0  0  0  0  0  0  0  0  0  0  0  0
    0.0000    0.0000    0.0000 C   0  0  0  0  0  0  0  0  0  0  0  0
    0.0000    0.0000    0.0000 C   0  0  0  0  0  0  0  0  0  0  0  0
    0.0000    0.0000    0.0000 C   0  0  0  0  0  0  0  0  0  0  0  0
    0.0000    0.0000    0.0000 C   0  0  0  0  0  0  0  0  0  0  0  0
    0.0000    0.0000    0.0000 C   0  0  0  0  0  0  0  0  0  0  0  0
    0.0000    0.0000    0.0000 C   0  0  0  0  0  0  0  0  0  0  0  0
    0.0000    0.0000    0.0000 C   0  0  0  0  0  0  0  0  0  0  0  0
    0.0000    0.0000    0.0000 C   0  0  0  0  0  0  0  0  0  0  0  0
  1 11  1  0
  1 12  1  0
  2  6  1  0
  2  7  1  0
  2  8  1  0
  3 15  3  0
  4  5  1  0
  4  9  1  0
  4 10  1  0
  4 15  1  0
  5  6  1  0
  7 11  1  0
  8 12  1  0
  9 13  1  0
  9 14  2  0
 13 16  2  0
 13 17  1  0
 14 18  1  0
 16 19  1  0
 16 20  1  0
 17 21  2  0
 18 19  2  0
 20 22  2  0
 21 22  1  0
M  END
>  <PUBCHEM_COMPOUND_CID>  (1) 
18120

>  <PUBCHEM_CONFORMER_RMSD>  (1) 
0.8

>  <PUBCHEM_CONFORMER_DIVERSEORDER>  (1) 
19
6
5
11
22
18
21
24
9
1
4
26
15
10
20
25
14
17
13
23
8
16
2
27
12
7
3

>  <PUBCHEM_MMFF94_PARTIAL_CHARGES>  (1) 
25
1 -0.56
11 0.28
12 0.28
14 -0.15
15 0.36
17 -0.15
18 -0.15
19 -0.15
2 -0.81
20 -0.15
21 -0.15
22 -0.15
3 -0.56
38 0.15
39 0.15
4 0.34
40 0.15
41 0.15
42 0.15
43 0.15
44 0.15
6 0.27
7 0.27
8 0.27
9 -0.14

>  <PUBCHEM_EFFECTIVE_ROTOR_COUNT>  (1) 
5.2

>  <PUBCHEM_PHARMACOPHORE_FEATURES>  (1) 
7
1 1 acceptor
1 10 hydrophobe
1 2 cation
1 3 acceptor
6 1 2 7 8 11 12 rings
6 13 16 17 20 21 22 rings
6 9 13 14 16 18 19 rings

>  <PUBCHEM_HEAVY_ATOM_COUNT>  (1) 
22

>  <PUBCHEM_ATOM_DEF_STEREO_COUNT>  (1) 
0

>  <PUBCHEM_ATOM_UDEF_STEREO_COUNT>  (1) 
1

>  <PUBCHEM_BOND_DEF_STEREO_COUNT>  (1) 
0

>  <PUBCHEM_BOND_UDEF_STEREO_COUNT>  (1) 
0

>  <PUBCHEM_ISOTOPIC_ATOM_COUNT>  (1) 
0

>  <PUBCHEM_COMPONENT_COUNT>  (1) 
1

>  <PUBCHEM_CACTVS_TAUTO_COUNT>  (1) 
1

$$$$
