18129
     RDKit          3D

 11 11  0  0  0  0  0  0  0  0999 V2000
    3.8399   -1.4362   -0.0002 Br  0  0  0  0  0  0  0  0  0  0  0  0
   -2.8829    1.0282   -0.0003 O   0  0  0  0  0  0  0  0  0  0  0  0
   -1.3883   -0.7925    0.0003 N   0  0  0  0  0  0  0  0  0  0  0  0
   -3.6768   -1.1145   -0.0002 N   0  0  0  0  0  0  0  0  0  0  0  0
   -0.1304   -0.1890    0.0003 C   0  0  0  0  0  0  0  0  0  0  0  0
    1.0216   -0.9755    0.0001 C   0  0  0  0  0  0  0  0  0  0  0  0
   -0.0254    1.2020    0.0002 C   0  0  0  0  0  0  0  0  0  0  0  0
    2.2787   -0.3709   -0.0001 C   0  0  0  0  0  0  0  0  0  0  0  0
    1.2316    1.8065    0.0000 C   0  0  0  0  0  0  0  0  0  0  0  0
    2.3836    1.0201   -0.0002 C   0  0  0  0  0  0  0  0  0  0  0  0
   -2.6516   -0.1782    0.0000 C   0  0  0  0  0  0  0  0  0  0  0  0
  1  8  1  0
  2 11  2  0
  3  5  1  0
  3 11  1  0
  4 11  1  0
  5  6  2  0
  5  7  1  0
  6  8  1  0
  7  9  2  0
  8 10  2  0
  9 10  1  0
M  END
>  <PUBCHEM_COMPOUND_CID>  (1) 
18129

>  <PUBCHEM_CONFORMER_RMSD>  (1) 
0.4

>  <PUBCHEM_CONFORMER_DIVERSEORDER>  (1) 
1
19
13
20
18
12
17
4
10
7
5
2
22
21
16
14
15
9
11
8
6
3

>  <PUBCHEM_MMFF94_PARTIAL_CHARGES>  (1) 
18
1 -0.11
10 -0.15
11 0.69
12 0.15
13 0.15
14 0.37
15 0.15
16 0.15
17 0.37
18 0.37
2 -0.57
3 -0.55
4 -0.8
5 0.12
6 -0.15
7 -0.15
8 0.11
9 -0.15

>  <PUBCHEM_EFFECTIVE_ROTOR_COUNT>  (1) 
2

>  <PUBCHEM_PHARMACOPHORE_FEATURES>  (1) 
5
1 1 hydrophobe
1 2 acceptor
1 3 donor
1 4 donor
6 5 6 7 8 9 10 rings

>  <PUBCHEM_HEAVY_ATOM_COUNT>  (1) 
11

>  <PUBCHEM_ATOM_DEF_STEREO_COUNT>  (1) 
0

>  <PUBCHEM_ATOM_UDEF_STEREO_COUNT>  (1) 
0

>  <PUBCHEM_BOND_DEF_STEREO_COUNT>  (1) 
0

>  <PUBCHEM_BOND_UDEF_STEREO_COUNT>  (1) 
0

>  <PUBCHEM_ISOTOPIC_ATOM_COUNT>  (1) 
0

>  <PUBCHEM_COMPONENT_COUNT>  (1) 
1

>  <PUBCHEM_CACTVS_TAUTO_COUNT>  (1) 
3

>  <PUBCHEM_CONFORMER_ID>  (1) 
000046D100000001

>  <PUBCHEM_MMFF94_ENERGY>  (1) 
28.7121

>  <PUBCHEM_FEATURE_SELFOVERLAP>  (1) 
25.42

>  <PUBCHEM_SHAPE_FINGERPRINT>  (1) 
10130415 120 18335420136668964514
10219947 1 18272932717524762382
11769659 78 18413103965739029702
12032990 46 18411422778411762126
12932764 1 17560517425413729717
14252887 29 18202006495588544786
14325111 11 18410574015401007425
16945 1 18194683898006811520
20201158 50 18409729521572200102
20645477 70 18410569613276190415
20871998 22 18200319793037693390
21040471 1 18050287273746211136
21501925 9 18411690006950141202
23402655 69 18412536631251747069
23463225 33 18410856529960257366
23552423 10 18333733550024389268
2748010 2 18337941316842335644
7364860 26 18270680991036913424
8809292 202 18260272944874356451

>  <PUBCHEM_SHAPE_MULTIPOLES>  (1) 
216.49
5.96
1.71
0.61
1.68
0.44
0
-2.72
0
-0.63
0
-0.12
-0.01
0

>  <PUBCHEM_SHAPE_SELFOVERLAP>  (1) 
433.845

>  <PUBCHEM_SHAPE_VOLUME>  (1) 
130.4

>  <PUBCHEM_COORDINATE_TYPE>  (1) 
2
5
10

$$$$
