18126
     RDKit          3D

  9  9  0  0  1  0  0  0  0  0999 V2000
   -3.8857   -0.3475   -0.2508 O   0  0  0  0  0  0  0  0  0  0  0  0
   -2.7407   -0.0017    0.5107 C   0  0  0  0  0  0  0  0  0  0  0  0
   -1.4718   -0.6881    0.0307 C   0  0  0  0  0  0  0  0  0  0  0  0
   -3.4101    1.0011   -0.3502 C   0  0  0  0  0  0  0  0  0  0  0  0
   -0.2352    0.1688    0.3009 C   0  0  0  0  0  0  0  0  0  0  0  0
    1.0430   -0.5398   -0.1532 C   0  0  0  0  0  0  0  0  0  0  0  0
    2.2826    0.3037    0.1532 C   0  0  0  0  0  0  0  0  0  0  0  0
    3.5924   -0.3709   -0.2601 C   0  0  0  0  0  0  0  0  0  0  0  0
    4.8256    0.4743    0.0189 C   0  0  0  0  0  0  0  0  0  0  0  0
  1  2  1  0
  1  4  1  0
  2  3  1  0
  2  4  1  0
  3  5  1  0
  5  6  1  0
  6  7  1  0
  7  8  1  0
  8  9  1  0
M  END
>  <PUBCHEM_COMPOUND_CID>  (1) 
18126

>  <PUBCHEM_CONFORMER_RMSD>  (1) 
0.6

>  <PUBCHEM_CONFORMER_DIVERSEORDER>  (1) 
1
122
129
124
120
4
106
47
131
2
68
112
118
84
108
110
3
99
126
100
28
25
138
121
103
58
5
109
113
23
30
107
6
83
89
93
115
102
32
114
90
17
54
65
46
79
14
91
8
24
134
55
137
96
125
56
44
21
15
130
116
123
52
62
92
63
38
98
85
31
66
136
40
51
45
97
57
88
119
7
48
73
133
132
10
36
77
111
29
43
135
37
69
34
82
86
49
20
81
59
41
26
22
94
95
128
71
80
50
87
16
101
19
12
127
75
13
72
18
78
60
105
11
76
42
33
67
117
104
64
27
9
39
35
61
53
74
70

>  <PUBCHEM_MMFF94_PARTIAL_CHARGES>  (1) 
7
1 -0.3
10 0.1
13 0.1
14 0.1
2 -0.05
3 0.09
4 -0.05

>  <PUBCHEM_EFFECTIVE_ROTOR_COUNT>  (1) 
5.6

>  <PUBCHEM_PHARMACOPHORE_FEATURES>  (1) 
3
1 1 acceptor
1 9 hydrophobe
5 3 5 6 7 8 hydrophobe

>  <PUBCHEM_HEAVY_ATOM_COUNT>  (1) 
9

>  <PUBCHEM_ATOM_DEF_STEREO_COUNT>  (1) 
0

>  <PUBCHEM_ATOM_UDEF_STEREO_COUNT>  (1) 
1

>  <PUBCHEM_BOND_DEF_STEREO_COUNT>  (1) 
0

>  <PUBCHEM_BOND_UDEF_STEREO_COUNT>  (1) 
0

>  <PUBCHEM_ISOTOPIC_ATOM_COUNT>  (1) 
0

>  <PUBCHEM_COMPONENT_COUNT>  (1) 
1

>  <PUBCHEM_CACTVS_TAUTO_COUNT>  (1) 
1

>  <PUBCHEM_CONFORMER_ID>  (1) 
000046CE00000001

>  <PUBCHEM_MMFF94_ENERGY>  (1) 
2.0647

>  <PUBCHEM_FEATURE_SELFOVERLAP>  (1) 
15.223

>  <PUBCHEM_SHAPE_FINGERPRINT>  (1) 
11062470 55 18333452040861948570
114248 4 17917711326911931818
11987891 38 10447936070372171148
14123238 8 18408886256557219910
14325111 11 18409449171913727355
17834076 25 17632298973239619800
18342897 14 13262395557460075398
190213 19 16877665655910874674
20645477 70 18059862710386487862
20719005 15 18410575097727439314
20828058 44 8862940576240121516
21293036 1 17632295678878436362
22485316 2 18341891892243591566
23402539 116 18409721863692744085

>  <PUBCHEM_SHAPE_MULTIPOLES>  (1) 
179.35
9.16
0.87
0.68
4.46
0.07
0.02
1.52
-0.61
-0.25
-0.05
-0.08
0.01
0.18

>  <PUBCHEM_SHAPE_SELFOVERLAP>  (1) 
325.237

>  <PUBCHEM_SHAPE_VOLUME>  (1) 
116

>  <PUBCHEM_COORDINATE_TYPE>  (1) 
2
5
10

$$$$
