18130
     RDKit          3D

 19 20  0  0  0  0  0  0  0  0999 V2000
   -5.1014    2.4314   -0.4773 Br  0  0  0  0  0  0  0  0  0  0  0  0
    5.1670    2.3466   -0.2560 Br  0  0  0  0  0  0  0  0  0  0  0  0
   -0.2148   -2.4335   -1.8761 Cl  0  0  0  0  0  0  0  0  0  0  0  0
   -1.4192   -3.3099    0.5972 Cl  0  0  0  0  0  0  0  0  0  0  0  0
    1.4583   -3.3124    0.3450 Cl  0  0  0  0  0  0  0  0  0  0  0  0
   -0.0136   -0.9162    0.5180 C   0  0  0  0  0  0  0  0  0  0  0  0
   -1.2439   -0.1082    0.2769 C   0  0  0  0  0  0  0  0  0  0  0  0
    1.2881   -0.0979    0.3242 C   0  0  0  0  0  0  0  0  0  0  0  0
   -0.0230   -2.3794   -0.0941 C   0  0  0  0  0  0  0  0  0  0  0  0
   -1.3387    0.6957   -0.8590 C   0  0  0  0  0  0  0  0  0  0  0  0
    1.6111    0.8248    1.2791 C   0  0  0  0  0  0  0  0  0  0  0  0
   -2.2991   -0.1555    1.1879 C   0  0  0  0  0  0  0  0  0  0  0  0
    2.0383   -0.3447   -0.7913 C   0  0  0  0  0  0  0  0  0  0  0  0
   -2.4886    1.4523   -1.0840 C   0  0  0  0  0  0  0  0  0  0  0  0
    2.7821    1.5623    1.1042 C   0  0  0  0  0  0  0  0  0  0  0  0
   -3.4493    0.6010    0.9630 C   0  0  0  0  0  0  0  0  0  0  0  0
    3.2094    0.3927   -0.9663 C   0  0  0  0  0  0  0  0  0  0  0  0
   -3.5441    1.4050   -0.1731 C   0  0  0  0  0  0  0  0  0  0  0  0
    3.5814    1.3462   -0.0184 C   0  0  0  0  0  0  0  0  0  0  0  0
  1 18  1  0
  2 19  1  0
  3  9  1  0
  4  9  1  0
  5  9  1  0
  6  7  1  0
  6  8  1  0
  6  9  1  0
  7 10  2  0
  7 12  1  0
  8 11  2  0
  8 13  1  0
 10 14  1  0
 11 15  1  0
 12 16  2  0
 13 17  2  0
 14 18  2  0
 15 19  2  0
 16 18  1  0
 17 19  1  0
M  END
>  <PUBCHEM_COMPOUND_CID>  (1) 
18130

>  <PUBCHEM_CONFORMER_RMSD>  (1) 
0.6

>  <PUBCHEM_CONFORMER_DIVERSEORDER>  (1) 
1
2

>  <PUBCHEM_MMFF94_PARTIAL_CHARGES>  (1) 
27
1 -0.11
10 -0.15
11 -0.15
12 -0.15
13 -0.15
14 -0.15
15 -0.15
16 -0.15
17 -0.15
18 0.11
19 0.11
2 -0.11
21 0.15
22 0.15
23 0.15
24 0.15
25 0.15
26 0.15
27 0.15
28 0.15
3 -0.29
4 -0.29
5 -0.29
6 0.29
7 -0.14
8 -0.14
9 0.87

>  <PUBCHEM_EFFECTIVE_ROTOR_COUNT>  (1) 
3

>  <PUBCHEM_PHARMACOPHORE_FEATURES>  (1) 
4
1 1 hydrophobe
1 2 hydrophobe
6 7 10 12 14 16 18 rings
6 8 11 13 15 17 19 rings

>  <PUBCHEM_HEAVY_ATOM_COUNT>  (1) 
19

>  <PUBCHEM_ATOM_DEF_STEREO_COUNT>  (1) 
0

>  <PUBCHEM_ATOM_UDEF_STEREO_COUNT>  (1) 
0

>  <PUBCHEM_BOND_DEF_STEREO_COUNT>  (1) 
0

>  <PUBCHEM_BOND_UDEF_STEREO_COUNT>  (1) 
0

>  <PUBCHEM_ISOTOPIC_ATOM_COUNT>  (1) 
0

>  <PUBCHEM_COMPONENT_COUNT>  (1) 
1

>  <PUBCHEM_CACTVS_TAUTO_COUNT>  (1) 
1

>  <PUBCHEM_CONFORMER_ID>  (1) 
000046D200000001

>  <PUBCHEM_MMFF94_ENERGY>  (1) 
59.453

>  <PUBCHEM_FEATURE_SELFOVERLAP>  (1) 
20.297

>  <PUBCHEM_SHAPE_FINGERPRINT>  (1) 
10165383 225 18339941388290525673
10498660 4 18409730651439158541
12173636 292 18265050426018183388
12403259 415 18337124400903219897
12500047 106 18269556199352764024
12532896 13 18410853300055342438
12730499 353 18338524028335775401
12788726 201 18050270759359860535
13134695 92 17760917459697772758
13140716 1 18189051997892121371
13294875 104 18129645440498772210
13583140 156 16660913495546698861
13681431 1 17622446043247993631
13955234 65 18118970183272928899
14142880 1 18263635337251982445
15309172 13 18409733967100669969
16945 1 18261396714514271835
17134986 127 18411416198347590004
17357779 13 17697588154276100095
1813 80 17125362325288450566
18186145 218 18131359595905488528
18222031 100 11602827886450997800
18785283 64 18189896405183155666
20600515 1 16371022775776025013
20645477 56 18267594683372556768
20645477 70 18127969698947098365
21033648 29 18411977005208082112
21524375 3 18342173366808917030
21756936 100 16734690773780039340
2255824 54 18052814746209993423
23227448 37 18192999450525443324
23402539 116 17835800068770245190
23419403 2 17411390603093410911
23557571 272 17982184610576026020
23559900 14 17460892695777445951
238 59 18199182893603210391
25 1 18060146431240300960
2748010 2 18129674126337525794
283562 15 18049715514583250938
3060560 45 17916580925742200493
350125 39 18409733971253699762
3729539 64 18051157829764125878
474 4 18411697652050482825
495365 180 18193827159732515697
5104073 3 17969792878381655993
559249 180 18341332297413781542
6327066 14 18334008419231363388
633830 44 17845393062756129825
6442390 28 18409175424005279403
7364860 26 18121777231752327115
77188 2 17327735102676021506
7808743 9 18262237849663531004
81228 2 17836356425579342218
8272917 22 18055353544438926469
84936 182 18198339546541448073
9999458 23 18116714010723989918

>  <PUBCHEM_SHAPE_MULTIPOLES>  (1) 
408.51
8.25
3.75
1.34
0.22
3.27
0.21
-10.65
0.63
-0.12
0.27
-0.11
0.23
0.66

>  <PUBCHEM_SHAPE_SELFOVERLAP>  (1) 
812.256

>  <PUBCHEM_SHAPE_VOLUME>  (1) 
240.1

>  <PUBCHEM_COORDINATE_TYPE>  (1) 
2
5
10

$$$$
