18137
     RDKit          3D

 13 13  0  0  0  0  0  0  0  0999 V2000
    1.2026   -0.0003   -0.2283 Si  0  0  0  0  0  4  0  0  0  0  0  0
    1.9120    0.0003    1.2806 O   0  0  0  0  0  0  0  0  0  0  0  0
    1.6015   -1.3711   -1.0920 O   0  0  0  0  0  0  0  0  0  0  0  0
    1.6025    1.3699   -1.0928 O   0  0  0  0  0  0  0  0  0  0  0  0
   -0.6601    0.0004   -0.0114 C   0  0  0  0  0  0  0  0  0  0  0  0
   -1.2014    0.0011    1.2679 C   0  0  0  0  0  0  0  0  0  0  0  0
   -1.4813   -0.0003   -1.1319 C   0  0  0  0  0  0  0  0  0  0  0  0
   -2.5868    0.0008    1.4296 C   0  0  0  0  0  0  0  0  0  0  0  0
   -2.8668   -0.0004   -0.9701 C   0  0  0  0  0  0  0  0  0  0  0  0
   -3.4195    0.0002    0.3107 C   0  0  0  0  0  0  0  0  0  0  0  0
    3.3282   -0.0001    1.3893 C   0  0  0  0  0  0  0  0  0  0  0  0
    1.2837   -2.6555   -0.5750 C   0  0  0  0  0  0  0  0  0  0  0  0
    1.2853    2.6549   -0.5765 C   0  0  0  0  0  0  0  0  0  0  0  0
  1  2  1  0
  1  3  1  0
  1  4  1  0
  1  5  1  0
  2 11  1  0
  3 12  1  0
  4 13  1  0
  5  6  2  0
  5  7  1  0
  6  8  1  0
  7  9  2  0
  8 10  2  0
  9 10  1  0
M  END
>  <PUBCHEM_COMPOUND_CID>  (1) 
18137

>  <PUBCHEM_CONFORMER_RMSD>  (1) 
0.6

>  <PUBCHEM_CONFORMER_DIVERSEORDER>  (1) 
1
5
9
7
6
2
8
3
4

>  <PUBCHEM_MMFF94_PARTIAL_CHARGES>  (1) 
18
1 1.11
10 -0.15
11 0.28
12 0.28
13 0.28
14 0.15
15 0.15
16 0.15
17 0.15
18 0.15
2 -0.58
3 -0.58
4 -0.58
5 -0.22
6 -0.15
7 -0.15
8 -0.15
9 -0.15

>  <PUBCHEM_EFFECTIVE_ROTOR_COUNT>  (1) 
4

>  <PUBCHEM_PHARMACOPHORE_FEATURES>  (1) 
1
6 5 6 7 8 9 10 rings

>  <PUBCHEM_HEAVY_ATOM_COUNT>  (1) 
13

>  <PUBCHEM_ATOM_DEF_STEREO_COUNT>  (1) 
0

>  <PUBCHEM_ATOM_UDEF_STEREO_COUNT>  (1) 
0

>  <PUBCHEM_BOND_DEF_STEREO_COUNT>  (1) 
0

>  <PUBCHEM_BOND_UDEF_STEREO_COUNT>  (1) 
0

>  <PUBCHEM_ISOTOPIC_ATOM_COUNT>  (1) 
0

>  <PUBCHEM_COMPONENT_COUNT>  (1) 
1

>  <PUBCHEM_CACTVS_TAUTO_COUNT>  (1) 
1

>  <PUBCHEM_CONFORMER_ID>  (1) 
000046D900000001

>  <PUBCHEM_MMFF94_ENERGY>  (1) 
27.2335

>  <PUBCHEM_FEATURE_SELFOVERLAP>  (1) 
5.074

>  <PUBCHEM_SHAPE_FINGERPRINT>  (1) 
10219947 1 18410280415984639450
10465860 250 17241308210655429568
12326174 3 18187373137893276132
124424 183 17458889471000269500
12524768 44 18041293144134688541
12932764 1 17346050986788736609
15775835 57 18044661046803153956
16945 1 18410580582506054581
19786989 88 18262808487523223629
20082192 1 18335148617273646987
20511035 2 17750228286951717012
20711985 344 17540253146972488402
21524375 3 17467652810750130292
232386 152 16588304960320683418
23419403 2 12481484925998060381
23552423 10 18202291294611051143
2748010 2 18122902023531000174
3248919 1 18411706495519384171
5084963 1 17988096503692492685
8030462 33 17632306670063646245
81228 2 17684085786361978004

>  <PUBCHEM_SHAPE_MULTIPOLES>  (1) 
268.14
4.79
1.93
1.53
1.92
0
0.32
0
1.27
-1.78
-0.86
-0.06
0
0

>  <PUBCHEM_SHAPE_SELFOVERLAP>  (1) 
526.629

>  <PUBCHEM_SHAPE_VOLUME>  (1) 
161.7

>  <PUBCHEM_COORDINATE_TYPE>  (1) 
2
5
10

$$$$
