18138
     RDKit          3D

 24 29  0  0  0  0  0  0  0  0999 V2000
   -0.3757    0.0000    0.0001 C   0  0  0  0  0  0  0  0  0  0  0  0
    1.0281    0.0000    0.0001 C   0  0  0  0  0  0  0  0  0  0  0  0
   -1.1910   -1.1239   -0.0625 C   0  0  0  0  0  0  0  0  0  0  0  0
   -1.1911    1.1238    0.0627 C   0  0  0  0  0  0  0  0  0  0  0  0
   -2.5849   -0.7058   -0.0422 C   0  0  0  0  0  0  0  0  0  0  0  0
   -2.5850    0.7057    0.0423 C   0  0  0  0  0  0  0  0  0  0  0  0
    1.6117   -1.3511    0.0325 C   0  0  0  0  0  0  0  0  0  0  0  0
    1.6116    1.3511   -0.0323 C   0  0  0  0  0  0  0  0  0  0  0  0
    0.7596   -2.5064   -0.0713 C   0  0  0  0  0  0  0  0  0  0  0  0
    0.7594    2.5064    0.0714 C   0  0  0  0  0  0  0  0  0  0  0  0
   -0.6326   -2.3790   -0.1300 C   0  0  0  0  0  0  0  0  0  0  0  0
   -0.6328    2.3789    0.1302 C   0  0  0  0  0  0  0  0  0  0  0  0
   -3.7678   -1.4207   -0.0845 C   0  0  0  0  0  0  0  0  0  0  0  0
   -3.7679    1.4206    0.0845 C   0  0  0  0  0  0  0  0  0  0  0  0
    2.9874   -1.6402    0.2063 C   0  0  0  0  0  0  0  0  0  0  0  0
    2.9872    1.6404   -0.2064 C   0  0  0  0  0  0  0  0  0  0  0  0
    1.2939   -3.8052   -0.0901 C   0  0  0  0  0  0  0  0  0  0  0  0
    1.2937    3.8053    0.0901 C   0  0  0  0  0  0  0  0  0  0  0  0
   -4.9659   -0.7024   -0.0420 C   0  0  0  0  0  0  0  0  0  0  0  0
   -4.9659    0.7022    0.0416 C   0  0  0  0  0  0  0  0  0  0  0  0
    3.5045   -2.9414    0.1953 C   0  0  0  0  0  0  0  0  0  0  0  0
    3.5044    2.9415   -0.1954 C   0  0  0  0  0  0  0  0  0  0  0  0
    2.6597   -4.0235    0.0307 C   0  0  0  0  0  0  0  0  0  0  0  0
    2.6595    4.0237   -0.0309 C   0  0  0  0  0  0  0  0  0  0  0  0
  1  2  2  0
  1  3  1  0
  1  4  1  0
  2  7  1  0
  2  8  1  0
  3  5  1  0
  3 11  2  0
  4  6  1  0
  4 12  2  0
  5  6  2  0
  5 13  1  0
  6 14  1  0
  7  9  2  0
  7 15  1  0
  8 10  2  0
  8 16  1  0
  9 11  1  0
  9 17  1  0
 10 12  1  0
 10 18  1  0
 13 19  2  0
 14 20  2  0
 15 21  2  0
 16 22  2  0
 17 23  2  0
 18 24  2  0
 19 20  1  0
 21 23  1  0
 22 24  1  0
M  END
>  <PUBCHEM_COMPOUND_CID>  (1) 
18138

>  <PUBCHEM_CONFORMER_RMSD>  (1) 
0.6

>  <PUBCHEM_CONFORMER_DIVERSEORDER>  (1) 
1

>  <PUBCHEM_MMFF94_PARTIAL_CHARGES>  (1) 
28
11 -0.15
12 -0.15
13 -0.15
14 -0.15
15 -0.15
16 -0.15
17 -0.15
18 -0.15
19 -0.15
20 -0.15
21 -0.15
22 -0.15
23 -0.15
24 -0.15
25 0.15
26 0.15
27 0.15
28 0.15
29 0.15
30 0.15
31 0.15
32 0.15
33 0.15
34 0.15
35 0.15
36 0.15
37 0.15
38 0.15

>  <PUBCHEM_EFFECTIVE_ROTOR_COUNT>  (1) 
0

>  <PUBCHEM_PHARMACOPHORE_FEATURES>  (1) 
6
5 1 3 4 5 6 rings
6 1 2 3 7 9 11 rings
6 1 2 4 8 10 12 rings
6 5 6 13 14 19 20 rings
6 7 9 15 17 21 23 rings
6 8 10 16 18 22 24 rings

>  <PUBCHEM_HEAVY_ATOM_COUNT>  (1) 
24

>  <PUBCHEM_ATOM_DEF_STEREO_COUNT>  (1) 
0

>  <PUBCHEM_ATOM_UDEF_STEREO_COUNT>  (1) 
0

>  <PUBCHEM_BOND_DEF_STEREO_COUNT>  (1) 
0

>  <PUBCHEM_BOND_UDEF_STEREO_COUNT>  (1) 
0

>  <PUBCHEM_ISOTOPIC_ATOM_COUNT>  (1) 
0

>  <PUBCHEM_COMPONENT_COUNT>  (1) 
1

>  <PUBCHEM_CACTVS_TAUTO_COUNT>  (1) 
1

>  <PUBCHEM_CONFORMER_ID>  (1) 
000046DA00000001

>  <PUBCHEM_MMFF94_ENERGY>  (1) 
112.301

>  <PUBCHEM_FEATURE_SELFOVERLAP>  (1) 
30.797

>  <PUBCHEM_SHAPE_FINGERPRINT>  (1) 
10006869 2 16606041986154182897
10050765 1 18410575090255797611
10319926 262 17119714611711143304
10411042 1 18122344571252534791
10693767 8 18130791165605804294
10967382 1 18410856576830221250
1100329 8 18338514257211479674
11115154 58 17050438356689253189
11370993 70 18122904493243222565
11578080 2 17386835132489686581
12107183 9 18053956048307618001
12173636 292 17834391602621808757
12403259 226 18189613852586294269
12553582 1 18051706446598964983
12592029 89 18266463281111233977
12730499 353 18265061400134280843
12788726 201 17540822693933049034
13004483 165 17760919650257720251
13009979 54 17773042964360044369
13140716 1 18265890440196289442
138480 1 18338516326841981568
14028597 1 17701564976496406657
14508225 48 17979342067515910471
14787075 74 18042978583659791026
14790565 3 18121507022649491797
14866123 147 17762617700354299874
14955137 171 17906198177818224995
15042514 8 17112413875216695642
15230672 131 18119251921076977828
15475509 35 17022907809562363619
15664445 248 18128273206884991998
15927050 60 18196939000703614982
16087824 20 17473828325667493613
16728300 4 17607768839445346136
17492 89 18410855473836743595
18681886 176 18341045225309577770
18785283 64 18335423486442794435
19591789 44 18050290559095291394
19611394 137 18187942685133788770
19930381 70 18410009931428397072
20028762 73 17263293224858184423
20101258 96 17906747903192866938
20775438 99 17689380102949147821
21049683 271 18189071844445015612
21267235 1 18195535779232921035
221490 88 18335990804895329755
2334 1 18411418444441327970
23366157 5 18259423026474979943
23419403 2 17969201370504530502
23558518 356 17037833443307230722
23559900 14 18338509755668729867
24771293 8 18200579320794792722
25147074 1 18060420214779650537
3091708 16 9215997062685353938
335352 9 18266741466676272020
350125 39 18409730668523776916
352729 6 17761495094043651908
3886686 26 17478860124646750312
4409770 3 17108468277587616204
5104073 3 18408330986706879689
5265222 85 17831594428594672276
532947 4 18340212976684621628
59755656 215 18121216752133348319
6138700 20 18411143545972437156
6443956 14 18264770960880367390
7364860 26 18410293614002434564
79837 15 17833549381115160978
9709674 26 18408042918702765523
9981440 41 18121494927983968633

>  <PUBCHEM_SHAPE_MULTIPOLES>  (1) 
493.91
7.37
5.62
0.63
8.28
0
0
0
0
-7.62
0
-0.02
0
-0.32

>  <PUBCHEM_SHAPE_SELFOVERLAP>  (1) 
1167.908

>  <PUBCHEM_SHAPE_VOLUME>  (1) 
226.9

>  <PUBCHEM_COORDINATE_TYPE>  (1) 
2
5
10

$$$$
