18134
     RDKit          3D

 35 34  0  0  1  0  0  0  0  0999 V2000
    2.9556    0.2340    0.9617 S   0  0  0  0  0  0  0  0  0  0  0  0
    0.2456    1.4814    1.6640 F   0  0  0  0  0  0  0  0  0  0  0  0
   -0.6199    3.0861    0.4842 F   0  0  0  0  0  0  0  0  0  0  0  0
   -0.2830   -0.2832   -0.4914 F   0  0  0  0  0  0  0  0  0  0  0  0
   -1.1882    1.3848   -1.5549 F   0  0  0  0  0  0  0  0  0  0  0  0
    1.0963    2.7124   -1.5111 F   0  0  0  0  0  0  0  0  0  0  0  0
    2.0076    3.1047    0.4206 F   0  0  0  0  0  0  0  0  0  0  0  0
   -2.8912    1.8383    0.4832 F   0  0  0  0  0  0  0  0  0  0  0  0
   -2.0156    0.2151    1.6412 F   0  0  0  0  0  0  0  0  0  0  0  0
    3.3531    1.4834   -1.2709 F   0  0  0  0  0  0  0  0  0  0  0  0
    1.7204    0.0540   -1.3156 F   0  0  0  0  0  0  0  0  0  0  0  0
   -3.4572    0.1344   -1.5733 F   0  0  0  0  0  0  0  0  0  0  0  0
   -2.5519   -1.5293   -0.4967 F   0  0  0  0  0  0  0  0  0  0  0  0
   -4.3016   -1.0324    1.6271 F   0  0  0  0  0  0  0  0  0  0  0  0
   -5.1699    0.5901    0.4661 F   0  0  0  0  0  0  0  0  0  0  0  0
   -5.8026   -1.1367   -1.5552 F   0  0  0  0  0  0  0  0  0  0  0  0
   -6.5872   -1.7208    0.3942 F   0  0  0  0  0  0  0  0  0  0  0  0
   -4.9014   -2.7965   -0.4590 F   0  0  0  0  0  0  0  0  0  0  0  0
    3.7727    1.2150    1.6510 O   0  0  0  0  0  0  0  0  0  0  0  0
    1.8500   -0.4056    1.6499 O   0  0  0  0  0  0  0  0  0  0  0  0
    6.9411   -1.6861   -1.5199 O   0  0  0  0  0  0  0  0  0  0  0  0
    6.4516   -2.2466    0.6298 O   0  0  0  0  0  0  0  0  0  0  0  0
    3.9748   -0.9909    0.3216 N   0  0  0  0  0  0  0  0  0  0  0  0
    0.0194    1.8838    0.3896 C   0  0  0  0  0  0  0  0  0  0  0  0
   -0.9148    0.9040   -0.3084 C   0  0  0  0  0  0  0  0  0  0  0  0
    1.3547    2.1448   -0.2959 C   0  0  0  0  0  0  0  0  0  0  0  0
    2.3174    0.9900   -0.5331 C   0  0  0  0  0  0  0  0  0  0  0  0
   -2.2529    0.6386    0.3729 C   0  0  0  0  0  0  0  0  0  0  0  0
   -3.1861   -0.3407   -0.3250 C   0  0  0  0  0  0  0  0  0  0  0  0
   -4.5209   -0.6040    0.3567 C   0  0  0  0  0  0  0  0  0  0  0  0
    3.3579   -2.2740   -0.0936 C   0  0  0  0  0  0  0  0  0  0  0  0
    5.1075   -0.6007   -0.5525 C   0  0  0  0  0  0  0  0  0  0  0  0
   -5.4527   -1.5731   -0.3271 C   0  0  0  0  0  0  0  0  0  0  0  0
    3.3583   -3.2779    1.0467 C   0  0  0  0  0  0  0  0  0  0  0  0
    6.2132   -1.5962   -0.3768 C   0  0  0  0  0  0  0  0  0  0  0  0
  1 19  2  0
  1 20  2  0
  1 23  1  0
  1 27  1  0
  2 24  1  0
  3 24  1  0
  4 25  1  0
  5 25  1  0
  6 26  1  0
  7 26  1  0
  8 28  1  0
  9 28  1  0
 10 27  1  0
 11 27  1  0
 12 29  1  0
 13 29  1  0
 14 30  1  0
 15 30  1  0
 16 33  1  0
 17 33  1  0
 18 33  1  0
 21 35  1  0
 22 35  2  0
 23 31  1  0
 23 32  1  0
 24 25  1  0
 24 26  1  0
 25 28  1  0
 26 27  1  0
 28 29  1  0
 29 30  1  0
 30 33  1  0
 31 34  1  0
 32 35  1  0
M  END
>  <PUBCHEM_COMPOUND_CID>  (1) 
18134

>  <PUBCHEM_CONFORMER_RMSD>  (1) 
1.2

>  <PUBCHEM_CONFORMER_DIVERSEORDER>  (1) 
1
231
245
150
14
25
53
8
199
43
138
74
21
146
162
135
70
136
303
260
154
67
109
160
132
115
85
23
185
166
131
283
225
114
157
158
155
93
156
2
300
244
96
188
208
113
242
147
134
232
84
55
137
98
265
118
30
4
261
35
291
204
27
222
12
286
91
127
235
83
103
56
26
153
186
133
161
40
250
298
175
95
241
170
130
200
194
177
236
32
264
224
168
45
219
172
240
49
92
279
46
124
77
100
126
193
31
229
87
61
257
234
292
289
152
139
171
79
141
192
278
52
117
165
277
80
62
189
217
290
99
266
110
82
230
198
86
16
111
293
169
90
215
180
47
48
294
76
78
88
256
68
176
223
295
24
50
164
221
299
116
259
66
187
81
44
252
13
143
297
253
106
211
267
304
263
140
272
120
144
69
123
270
214
54
163
284
184
72
9
203
209
128
105
19
145
104
190
97
51
212
276
285
121
181
39
282
179
167
17
251
28
15
102
59
220
129
243
302
151
173
10
37
258
36
178
205
268
107
57
271
101
281
73
246
269
228
41
75
195
248
201
22
237
122
29
38
174
247
262
6
207
18
273
233
249
280
296
216
197
275
119
254
196
218
149
255
142
301
206
89
108
7
239
288
34
287
125
227
58
63
64
182
183
210
226
20
112
3
33
238
94
71
274
42
60
159
148
11
213
65
191
5
202

>  <PUBCHEM_MMFF94_PARTIAL_CHARGES>  (1) 
35
1 1.33
10 -0.34
11 -0.34
12 -0.34
13 -0.34
14 -0.34
15 -0.34
16 -0.34
17 -0.34
18 -0.34
19 -0.65
2 -0.34
20 -0.65
21 -0.65
22 -0.57
23 -0.85
24 0.68
25 0.68
26 0.68
27 0.79
28 0.68
29 0.68
3 -0.34
30 0.68
31 0.36
32 0.42
33 1.02
35 0.66
4 -0.34
43 0.5
5 -0.34
6 -0.34
7 -0.34
8 -0.34
9 -0.34

>  <PUBCHEM_EFFECTIVE_ROTOR_COUNT>  (1) 
12

>  <PUBCHEM_PHARMACOPHORE_FEATURES>  (1) 
5
1 19 acceptor
1 20 acceptor
1 21 acceptor
1 22 acceptor
3 21 22 35 anion

>  <PUBCHEM_HEAVY_ATOM_COUNT>  (1) 
35

>  <PUBCHEM_ATOM_DEF_STEREO_COUNT>  (1) 
0

>  <PUBCHEM_ATOM_UDEF_STEREO_COUNT>  (1) 
0

>  <PUBCHEM_BOND_DEF_STEREO_COUNT>  (1) 
0

>  <PUBCHEM_BOND_UDEF_STEREO_COUNT>  (1) 
0

>  <PUBCHEM_ISOTOPIC_ATOM_COUNT>  (1) 
0

>  <PUBCHEM_COMPONENT_COUNT>  (1) 
1

>  <PUBCHEM_CACTVS_TAUTO_COUNT>  (1) 
1

>  <PUBCHEM_CONFORMER_ID>  (1) 
000046D600000001

>  <PUBCHEM_MMFF94_ENERGY>  (1) 
34.2218

>  <PUBCHEM_FEATURE_SELFOVERLAP>  (1) 
25.449

>  <PUBCHEM_SHAPE_FINGERPRINT>  (1) 
10 15 13254791352422978334
10042902 136 18272367594444678550
10319926 262 15841286869089300108
10622 236 17679851623266349138
10692045 39 11311788233096039812
117089 54 18120382214007734219
11796584 16 18200035010777701260
11961588 58 14418142833310791472
12107183 9 18269847419700323985
12166972 35 18271807955562603417
12293681 160 12757150169193274780
12403259 118 12031493432631386121
12553582 1 18339068316403152730
12596602 18 17489587887213997802
12633257 1 15123498229399037456
12760667 363 18411421695905767911
12895836 83 12685095903633453867
13009979 54 18130796645973575840
13103583 49 17846226526839798587
13533116 47 18271805790925628833
13583140 156 12607396693795040767
13631057 29 18337674101694935802
13690498 29 18113334189716437847
14068700 675 18410294688361670968
14251764 30 18341611499582958218
14767858 380 18114196215960950262
14931854 50 18040716922622384066
15183329 4 15864065460282938207
15238133 3 10519692420173691914
15927050 60 17838054067975788758
17349148 13 17775006842846720103
17492 54 16443067192605894930
17492 89 18195809793983015023
17980427 23 12247383605934205408
1813 80 18040710372612258324
18222031 100 18334007298623907936
19784866 240 18413673517220604817
20028762 73 18273215300798961790
20645477 70 18187641474422837365
20775530 9 18339910559094532366
21033648 29 13973700407694506699
21033650 10 16008740278597999269
21267235 1 18412833477557817598
21637258 2 18341890779852070356
23522609 53 18123223214303424892
23559900 14 18041001807681223845
25269216 80 14996570646714525387
2838139 119 11097864016363832678
3004659 81 18113898273113943854
329604 57 18188493472129522010
345986 75 18130783426116499419
3472631 163 8574424327265479490
34797466 226 16371288969453762165
3737641 26 18056203471322943822
4098825 35 17822294561287537597
46194498 28 17458906053964056156
463206 1 18338515351790200482
465052 167 18342745160178979527
5104073 3 17774170118750823825
5309563 4 18411697664839958490
543368 44 10737282455411076151
633830 44 8862943874806803289
6669772 16 18120945160082309244
70251023 43 18333450945556059232
7970288 3 18411980256419112598

>  <PUBCHEM_SHAPE_MULTIPOLES>  (1) 
572.02
14.48
3.18
1.42
0.93
0.2
-0.06
-13.73
2.09
-1.38
-0.13
-0.26
0.14
-0.37

>  <PUBCHEM_SHAPE_SELFOVERLAP>  (1) 
1200.458

>  <PUBCHEM_SHAPE_VOLUME>  (1) 
322.6

>  <PUBCHEM_COORDINATE_TYPE>  (1) 
2
5
10

$$$$
