1814
     RDKit          3D

 18 19  0  0  1  0  0  0  0  0999 V2000
   -1.5907   -0.1664    0.9176 O   0  0  0  0  0  0  0  0  0  0  0  0
   -3.8061    1.2774   -0.5150 O   0  0  0  0  0  0  0  0  0  0  0  0
   -4.8073   -1.7284    0.1964 O   0  0  0  0  0  0  0  0  0  0  0  0
    0.9553    2.9838    0.1187 O   0  0  0  0  0  0  0  0  0  0  0  0
    4.4564    0.0026    0.1773 O   0  0  0  0  0  0  0  0  0  0  0  0
    0.4488    0.7048    0.1632 N   0  0  0  0  0  0  0  0  0  0  0  0
    2.6919    1.4860    0.1475 N   0  0  0  0  0  0  0  0  0  0  0  0
   -0.9740    0.8856    0.1600 C   0  0  0  0  0  0  0  0  0  0  0  0
   -2.9402    0.2494   -0.9801 C   0  0  0  0  0  0  0  0  0  0  0  0
   -1.5760    0.8472   -1.2376 C   0  0  0  0  0  0  0  0  0  0  0  0
   -2.6228   -0.7650    0.1111 C   0  0  0  0  0  0  0  0  0  0  0  0
   -3.7853   -1.1629    1.0014 C   0  0  0  0  0  0  0  0  0  0  0  0
    0.9565   -0.5902    0.1882 C   0  0  0  0  0  0  0  0  0  0  0  0
    1.3306    1.8098    0.1414 C   0  0  0  0  0  0  0  0  0  0  0  0
    2.2597   -0.8966    0.1939 C   0  0  0  0  0  0  0  0  0  0  0  0
    3.2468    0.2154    0.1725 C   0  0  0  0  0  0  0  0  0  0  0  0
    2.7800   -2.2979    0.2209 C   0  0  0  0  0  0  0  0  0  0  0  0
    2.9764   -2.8546   -1.1775 C   0  0  0  0  0  0  0  0  0  0  0  0
  1  8  1  0
  1 11  1  0
  2  9  1  0
  3 12  1  0
  4 14  2  0
  5 16  2  0
  6  8  1  0
  6 13  1  0
  6 14  1  0
  7 14  1  0
  7 16  1  0
  8 10  1  0
  9 10  1  0
  9 11  1  0
 11 12  1  0
 13 15  2  0
 15 16  1  0
 15 17  1  0
 17 18  1  0
M  END
>  <PUBCHEM_COMPOUND_CID>  (1) 
1814

>  <PUBCHEM_CONFORMER_RMSD>  (1) 
0.6

>  <PUBCHEM_CONFORMER_DIVERSEORDER>  (1) 
1
107
84
4
156
119
133
16
113
69
163
158
165
123
71
120
147
162
41
21
61
173
12
174
155
152
106
154
111
24
77
117
140
62
112
125
34
172
37
167
89
92
159
94
114
93
136
160
8
116
80
127
126
5
58
157
66
30
83
148
55
129
82
151
103
143
145
118
153
6
68
134
36
91
67
105
170
54
124
3
109
40
169
130
108
142
29
52
9
161
63
2
168
65
139
33
98
138
81
137
14
13
122
121
79
28
75
35
27
25
43
26
11
150
57
99
131
50
72
171
44
53
102
22
96
46
20
135
56
104
18
17
39
76
48
49
128
110
95
146
166
149
10
97
42
164
132
51
19
88
32
7
144
115
74
73
78
64
31
60
47
59
86
100
70
85
23
38
87
101
45
15
90
141

>  <PUBCHEM_MMFF94_PARTIAL_CHARGES>  (1) 
20
1 -0.56
11 0.28
12 0.28
13 -0.04
14 0.69
15 -0.12
16 0.62
17 0.14
2 -0.68
26 0.15
27 0.4
28 0.37
3 -0.68
31 0.4
4 -0.57
5 -0.57
6 -0.47
7 -0.49
8 0.58
9 0.28

>  <PUBCHEM_EFFECTIVE_ROTOR_COUNT>  (1) 
4

>  <PUBCHEM_PHARMACOPHORE_FEATURES>  (1) 
11
1 1 acceptor
1 18 hydrophobe
1 2 acceptor
1 2 donor
1 3 acceptor
1 3 donor
1 4 acceptor
1 5 acceptor
1 7 donor
5 1 8 9 10 11 rings
6 6 7 13 14 15 16 rings

>  <PUBCHEM_HEAVY_ATOM_COUNT>  (1) 
18

>  <PUBCHEM_ATOM_DEF_STEREO_COUNT>  (1) 
0

>  <PUBCHEM_ATOM_UDEF_STEREO_COUNT>  (1) 
3

>  <PUBCHEM_BOND_DEF_STEREO_COUNT>  (1) 
0

>  <PUBCHEM_BOND_UDEF_STEREO_COUNT>  (1) 
0

>  <PUBCHEM_ISOTOPIC_ATOM_COUNT>  (1) 
0

>  <PUBCHEM_COMPONENT_COUNT>  (1) 
1

>  <PUBCHEM_CACTVS_TAUTO_COUNT>  (1) 
3

>  <PUBCHEM_CONFORMER_ID>  (1) 
0000071600000001

>  <PUBCHEM_MMFF94_ENERGY>  (1) 
38.2613

>  <PUBCHEM_FEATURE_SELFOVERLAP>  (1) 
55.824

>  <PUBCHEM_SHAPE_FINGERPRINT>  (1) 
116883 192 17981602667891898596
12596602 18 16773236313753913491
13140716 1 18052252096756265370
13296908 3 18336264548429617643
14252887 29 18273218586458738634
14863182 85 18340216262604102878
14866123 147 17260189895963236995
15219456 202 18262231222396611241
15375462 189 17775564264460027563
15422964 175 18412262800921086606
15477762 27 18411419531258081426
15635459 17 18335424585949621810
16945 1 18341045319597748480
17834074 16 18334575763268065779
18186145 218 17895189935719319071
19433438 38 18113612395874921510
200 152 18272644675627296193
20201158 50 18334571326466414424
20281475 54 18335989683338704897
20645477 70 18270389495389824679
20871998 22 18341057324120823190
221490 88 18408045104323972498
2255824 54 18196376042133664068
23402539 116 16732972124734665604
23526113 38 18264470828708232077
23557571 272 17748820822090050653
23559900 14 18190451659109239290
2748010 2 18267012873990573532
2871803 45 18040709307766291539
3323516 105 18335424568753713802
33824 294 18337953505785454954
5104073 3 18408316683495560976
7364860 26 18267021833108126424
81228 2 17907576922265283656
9709674 26 18334860545364657587

>  <PUBCHEM_SHAPE_MULTIPOLES>  (1) 
331.12
7.88
2.63
0.95
3.44
0.15
-0.18
3.75
0.15
-1.72
-0.27
0.39
0.22
1.19

>  <PUBCHEM_SHAPE_SELFOVERLAP>  (1) 
689.953

>  <PUBCHEM_SHAPE_VOLUME>  (1) 
188.4

>  <PUBCHEM_COORDINATE_TYPE>  (1) 
2
5
10

$$$$
