18145
     RDKit          3D

  9  8  0  0  1  0  0  0  0  0999 V2000
   -4.2129    0.9514    0.0107 S   0  0  0  0  0  0  0  0  0  0  0  0
   -0.2334   -0.2431   -0.2206 C   0  0  0  0  0  0  0  0  0  0  0  0
    1.0297    0.5130    0.2026 C   0  0  0  0  0  0  0  0  0  0  0  0
   -1.4978    0.5557    0.1170 C   0  0  0  0  0  0  0  0  0  0  0  0
    2.2928   -0.2675   -0.1681 C   0  0  0  0  0  0  0  0  0  0  0  0
   -2.7861   -0.1351   -0.3554 C   0  0  0  0  0  0  0  0  0  0  0  0
    3.5863    0.4591    0.2059 C   0  0  0  0  0  0  0  0  0  0  0  0
   -3.0217   -1.4909    0.3039 C   0  0  0  0  0  0  0  0  0  0  0  0
    4.8430   -0.3426   -0.0960 C   0  0  0  0  0  0  0  0  0  0  0  0
  1  6  1  0
  2  3  1  0
  2  4  1  0
  3  5  1  0
  4  6  1  0
  5  7  1  0
  6  8  1  0
  7  9  1  0
M  END
>  <PUBCHEM_COMPOUND_CID>  (1) 
18145

>  <PUBCHEM_CONFORMER_RMSD>  (1) 
0.6

>  <PUBCHEM_CONFORMER_DIVERSEORDER>  (1) 
1
111
92
25
38
24
106
49
3
104
81
93
113
102
48
35
40
108
64
75
18
6
31
114
46
15
11
36
41
2
86
61
90
32
45
73
50
58
95
68
42
76
17
88
78
44
60
16
14
67
7
66
43
63
85
9
99
105
84
37
21
80
65
103
107
55
13
47
34
5
29
79
82
57
96
100
39
74
72
8
77
19
101
12
30
10
62
110
33
70
94
53
91
112
59
54
23
98
109
4
51
22
26
56
87
20
83
89
28
52
97
71
27
69

>  <PUBCHEM_MMFF94_PARTIAL_CHARGES>  (1) 
3
1 -0.41
27 0.18
6 0.23

>  <PUBCHEM_EFFECTIVE_ROTOR_COUNT>  (1) 
5

>  <PUBCHEM_PHARMACOPHORE_FEATURES>  (1) 
2
1 9 hydrophobe
5 2 3 4 5 7 hydrophobe

>  <PUBCHEM_HEAVY_ATOM_COUNT>  (1) 
9

>  <PUBCHEM_ATOM_DEF_STEREO_COUNT>  (1) 
0

>  <PUBCHEM_ATOM_UDEF_STEREO_COUNT>  (1) 
1

>  <PUBCHEM_BOND_DEF_STEREO_COUNT>  (1) 
0

>  <PUBCHEM_BOND_UDEF_STEREO_COUNT>  (1) 
0

>  <PUBCHEM_ISOTOPIC_ATOM_COUNT>  (1) 
0

>  <PUBCHEM_COMPONENT_COUNT>  (1) 
1

>  <PUBCHEM_CACTVS_TAUTO_COUNT>  (1) 
1

>  <PUBCHEM_CONFORMER_ID>  (1) 
000046E100000001

>  <PUBCHEM_MMFF94_ENERGY>  (1) 
3.0032

>  <PUBCHEM_FEATURE_SELFOVERLAP>  (1) 
10.149

>  <PUBCHEM_SHAPE_FINGERPRINT>  (1) 
11062470 55 18412544301403908837
124424 183 17989203746314291969
12932764 1 17023169553037523373
14123238 8 10665232548805185440
14325111 11 18410855481639947542
15242439 84 18272368659427496164
17834076 25 18410012117587940677
18342897 14 18273495671783707064
190213 19 17917994983884990184
20279233 1 17846504729083091063
20645477 56 18260546684989513357
20645477 70 17274545300079750374
20719005 15 18411418414381831669
20828058 44 18409448094066794666
22485316 2 18408882936626790258
23402539 116 18410567383860661476
3248919 1 14261358006659600117
42788 4 18413107256127031612

>  <PUBCHEM_SHAPE_MULTIPOLES>  (1) 
189.07
9.64
1.1
0.67
5.62
0.24
0
-0.29
-0.02
-1.08
-0.09
-0.08
0.01
0.19

>  <PUBCHEM_SHAPE_SELFOVERLAP>  (1) 
321.761

>  <PUBCHEM_SHAPE_VOLUME>  (1) 
127.6

>  <PUBCHEM_COORDINATE_TYPE>  (1) 
2
5
10

$$$$
