18147
     RDKit          3D

 13 13  0  0  1  0  0  0  0  0999 V2000
    1.3740   -1.8401    0.6421 O   0  0  0  0  0  0  0  0  0  0  0  0
   -3.1250    2.1004    0.2024 O   0  0  0  0  0  0  0  0  0  0  0  0
    3.3109    0.3044    0.4507 N   0  0  0  0  0  0  0  0  0  0  0  0
    1.9409    0.4241   -0.0639 C   0  0  0  0  0  0  0  0  0  0  0  0
    0.9944   -0.4672    0.7713 C   0  0  0  0  0  0  0  0  0  0  0  0
   -0.4570   -0.3739    0.3513 C   0  0  0  0  0  0  0  0  0  0  0  0
    1.9575    0.0387   -1.5444 C   0  0  0  0  0  0  0  0  0  0  0  0
   -1.1196    0.8347    0.4743 C   0  0  0  0  0  0  0  0  0  0  0  0
   -1.0892   -1.5003   -0.1450 C   0  0  0  0  0  0  0  0  0  0  0  0
    4.2087    1.1799   -0.2823 C   0  0  0  0  0  0  0  0  0  0  0  0
   -2.4574    0.9198    0.0883 C   0  0  0  0  0  0  0  0  0  0  0  0
   -2.4270   -1.4153   -0.5307 C   0  0  0  0  0  0  0  0  0  0  0  0
   -3.1111   -0.2053   -0.4142 C   0  0  0  0  0  0  0  0  0  0  0  0
  1  5  1  0
  2 11  1  0
  3  4  1  0
  3 10  1  0
  4  5  1  0
  4  7  1  0
  5  6  1  0
  6  8  2  0
  6  9  1  0
  8 11  1  0
  9 12  2  0
 11 13  2  0
 12 13  1  0
M  END
>  <PUBCHEM_COMPOUND_CID>  (1) 
18147

>  <PUBCHEM_CONFORMER_RMSD>  (1) 
0.6

>  <PUBCHEM_CONFORMER_DIVERSEORDER>  (1) 
7
14
4
20
15
29
9
39
25
18
28
13
35
19
8
27
38
36
12
16
30
10
34
22
21
33
26
40
24
6
17
5
31
1
32
3
11
23
37
2

>  <PUBCHEM_MMFF94_PARTIAL_CHARGES>  (1) 
19
1 -0.68
10 0.27
11 0.08
12 -0.15
13 -0.15
19 0.36
2 -0.53
20 0.15
21 0.15
22 0.4
26 0.15
27 0.15
28 0.45
3 -0.9
4 0.27
5 0.42
6 -0.14
8 -0.15
9 -0.15

>  <PUBCHEM_EFFECTIVE_ROTOR_COUNT>  (1) 
3

>  <PUBCHEM_PHARMACOPHORE_FEATURES>  (1) 
6
1 1 acceptor
1 1 donor
1 2 donor
1 3 cation
1 3 donor
6 6 8 9 11 12 13 rings

>  <PUBCHEM_HEAVY_ATOM_COUNT>  (1) 
13

>  <PUBCHEM_ATOM_DEF_STEREO_COUNT>  (1) 
0

>  <PUBCHEM_ATOM_UDEF_STEREO_COUNT>  (1) 
2

>  <PUBCHEM_BOND_DEF_STEREO_COUNT>  (1) 
0

>  <PUBCHEM_BOND_UDEF_STEREO_COUNT>  (1) 
0

>  <PUBCHEM_ISOTOPIC_ATOM_COUNT>  (1) 
0

>  <PUBCHEM_COMPONENT_COUNT>  (1) 
1

>  <PUBCHEM_CACTVS_TAUTO_COUNT>  (1) 
3

>  <PUBCHEM_CONFORMER_ID>  (1) 
000046E300000007

>  <PUBCHEM_MMFF94_ENERGY>  (1) 
30.698

>  <PUBCHEM_FEATURE_SELFOVERLAP>  (1) 
30.449

>  <PUBCHEM_SHAPE_FINGERPRINT>  (1) 
10219947 1 16805595984794175498
12138202 97 17846493729618988111
12346645 44 18334573559886364138
12491281 212 18334859415529334712
12716758 59 18272661125083196551
12932764 1 17703498969714666339
13024252 1 17968094274365448595
14325111 11 18411135814160625832
14614273 12 18260256443704651981
14897335 6 18336823108894554099
15669948 3 18271513286509929047
15775835 57 18335985285324095657
16945 1 18339635745917689147
1741750 31 18271808965096384201
18186145 218 17988374667175681936
20201158 50 17418380215706291374
20645477 56 18343308058693253633
20653085 51 18337686234085867177
20671657 53 16843632395693335406
20871999 31 17774995821839423477
21501502 16 18340196397763115067
22485316 2 10447657876765999932
22802520 49 17702403765843928479
22926399 65 18343019969277016144
23402539 116 18270390715160250838
23552423 10 18264480690148842275
23557571 272 17988371467250940805
23559900 14 18059859416452097750
305870 269 18187644665694347242
3248919 1 17531252759356654347
53812653 8 18411414021005120163
6333449 129 18201438103462698809
7364860 26 18269273457018205898
8030462 33 18339629105808656551

>  <PUBCHEM_SHAPE_MULTIPOLES>  (1) 
250.81
6.12
1.69
0.95
3.67
0.07
-0.23
2.4
-0.79
-1.06
0.14
0.4
-0.1
-0.45

>  <PUBCHEM_SHAPE_SELFOVERLAP>  (1) 
511.112

>  <PUBCHEM_SHAPE_VOLUME>  (1) 
146.3

>  <PUBCHEM_COORDINATE_TYPE>  (1) 
2
5
10

$$$$
