18153
     RDKit          3D

 13 13  0  0  0  0  0  0  0  0999 V2000
   -3.0910    2.4462   -0.1374 Cl  0  0  0  0  0  0  0  0  0  0  0  0
    1.6408    1.0190    0.0846 N   0  0  0  0  0  0  0  0  0  0  0  0
    0.0021   -0.6591    0.0923 N   0  0  0  0  0  0  0  0  0  0  0  0
   -0.6126    1.6578   -0.0182 N   0  0  0  0  0  0  0  0  0  0  0  0
   -1.6825   -2.2911    0.0968 N   0  0  0  0  0  0  0  0  0  0  0  0
   -2.3126   -0.0356   -0.0119 N   0  0  0  0  0  0  0  0  0  0  0  0
    2.7230    0.0678    0.1602 C   0  0  0  0  0  0  0  0  0  0  0  0
    3.9782    0.7362    0.7063 C   0  0  0  0  0  0  0  0  0  0  0  0
    2.9806   -0.5588   -1.2045 C   0  0  0  0  0  0  0  0  0  0  0  0
    0.3019    0.6611    0.0520 C   0  0  0  0  0  0  0  0  0  0  0  0
   -1.3128   -0.9292    0.0571 C   0  0  0  0  0  0  0  0  0  0  0  0
   -1.8876    1.2377   -0.0460 C   0  0  0  0  0  0  0  0  0  0  0  0
   -0.7273   -3.3520    0.1689 C   0  0  0  0  0  0  0  0  0  0  0  0
  1 12  1  0
  2  7  1  0
  2 10  1  0
  3 10  2  0
  3 11  1  0
  4 10  1  0
  4 12  2  0
  5 11  1  0
  5 13  1  0
  6 11  2  0
  6 12  1  0
  7  8  1  0
  7  9  1  0
M  END
>  <PUBCHEM_COMPOUND_CID>  (1) 
18153

>  <PUBCHEM_CONFORMER_RMSD>  (1) 
0.6

>  <PUBCHEM_CONFORMER_DIVERSEORDER>  (1) 
1
9
14
10
16
13
11
15
4
12
6
7
8
2
3
5

>  <PUBCHEM_MMFF94_PARTIAL_CHARGES>  (1) 
13
1 -0.18
10 0.72
11 0.72
12 0.8
13 0.37
15 0.4
2 -0.87
22 0.4
3 -0.62
4 -0.62
5 -0.87
6 -0.62
7 0.37

>  <PUBCHEM_EFFECTIVE_ROTOR_COUNT>  (1) 
3

>  <PUBCHEM_PHARMACOPHORE_FEATURES>  (1) 
6
1 2 donor
1 5 donor
3 7 8 9 hydrophobe
4 2 3 4 10 cation
4 3 5 6 11 cation
6 3 4 6 10 11 12 rings

>  <PUBCHEM_HEAVY_ATOM_COUNT>  (1) 
13

>  <PUBCHEM_ATOM_DEF_STEREO_COUNT>  (1) 
0

>  <PUBCHEM_ATOM_UDEF_STEREO_COUNT>  (1) 
0

>  <PUBCHEM_BOND_DEF_STEREO_COUNT>  (1) 
0

>  <PUBCHEM_BOND_UDEF_STEREO_COUNT>  (1) 
0

>  <PUBCHEM_ISOTOPIC_ATOM_COUNT>  (1) 
0

>  <PUBCHEM_COMPONENT_COUNT>  (1) 
1

>  <PUBCHEM_CACTVS_TAUTO_COUNT>  (1) 
9

>  <PUBCHEM_CONFORMER_ID>  (1) 
000046E900000001

>  <PUBCHEM_MMFF94_ENERGY>  (1) 
32.5232

>  <PUBCHEM_FEATURE_SELFOVERLAP>  (1) 
30.488

>  <PUBCHEM_SHAPE_FINGERPRINT>  (1) 
1 1 17977100167554317479
11322862 65 18410301272040237871
12500047 106 18411134715176583652
12532896 13 18339920420365304557
12716758 59 18412268311279731254
13380535 76 18341607066759620126
14325111 11 18339641140101480024
15669948 3 18334575789132581190
16945 1 18337396031719786685
18186145 218 18127977407912838524
20279233 1 18202283589545256036
20510252 161 18344148081361074377
20524608 308 18411701001829093914
20645476 183 18041860431836462334
20645477 56 18410857655078574368
20671657 1 17764586521715220377
20711985 365 18264768933761337589
20871998 184 18128538347837123502
20871998 22 17761778768107363563
23402539 116 18341598365709747199
23526113 38 17846492608695827216
23552423 10 17971193870289295580
23557571 272 18271252724256548852
23559900 14 18270966744349333022
257057 1 17690833884221265895
2748010 2 18265627484970878887
3071541 12 17546725954824815081
3071541 37 17903078837497168925
43471831 8 18263643966152782563
6333449 129 18411695491386131104
7364860 26 17690838956656575375
81228 2 18265615562141626307
81539 233 17898853440134163989
88987 49 18336272309925930868

>  <PUBCHEM_SHAPE_MULTIPOLES>  (1) 
244.5
5.39
2.99
0.76
3.86
2.8
0.12
-3.16
0
-2.56
-0.21
0.53
0
0.52

>  <PUBCHEM_SHAPE_SELFOVERLAP>  (1) 
479.137

>  <PUBCHEM_SHAPE_VOLUME>  (1) 
145

>  <PUBCHEM_COORDINATE_TYPE>  (1) 
2
5
10

$$$$
