18159
     RDKit          3D

 16 15  0  0  0  0  0  0  0  0999 V2000
    4.9195    1.6252    0.0082 O   0  0  0  0  0  0  0  0  0  0  0  0
    6.1568   -0.3359   -0.0422 N   0  0  0  0  0  0  0  0  0  0  0  0
   -1.4363   -0.3840    0.1568 C   0  0  0  0  0  0  0  0  0  0  0  0
   -2.7283    0.4343    0.0645 C   0  0  0  0  0  0  0  0  0  0  0  0
   -0.1712    0.4708    0.0490 C   0  0  0  0  0  0  0  0  0  0  0  0
   -3.9935   -0.4261    0.0978 C   0  0  0  0  0  0  0  0  0  0  0  0
    1.1209   -0.3526    0.0813 C   0  0  0  0  0  0  0  0  0  0  0  0
   -5.2507    0.4303   -0.0705 C   0  0  0  0  0  0  0  0  0  0  0  0
    2.4229    0.4499   -0.0008 C   0  0  0  0  0  0  0  0  0  0  0  0
   -6.5180   -0.4238   -0.0053 C   0  0  0  0  0  0  0  0  0  0  0  0
    3.6771   -0.4260   -0.0286 C   0  0  0  0  0  0  0  0  0  0  0  0
   -7.7751    0.4354   -0.1393 C   0  0  0  0  0  0  0  0  0  0  0  0
    4.9624    0.3924   -0.0181 C   0  0  0  0  0  0  0  0  0  0  0  0
   -9.0376   -0.4060   -0.0415 C   0  0  0  0  0  0  0  0  0  0  0  0
    7.4678    0.3092   -0.0382 C   0  0  0  0  0  0  0  0  0  0  0  0
    6.1832   -1.7930   -0.0731 C   0  0  0  0  0  0  0  0  0  0  0  0
  1 13  2  0
  2 13  1  0
  2 15  1  0
  2 16  1  0
  3  4  1  0
  3  5  1  0
  4  6  1  0
  5  7  1  0
  6  8  1  0
  7  9  1  0
  8 10  1  0
  9 11  1  0
 10 12  1  0
 11 13  1  0
 12 14  1  0
M  END
>  <PUBCHEM_COMPOUND_CID>  (1) 
18159

>  <PUBCHEM_CONFORMER_RMSD>  (1) 
1.2

>  <PUBCHEM_CONFORMER_DIVERSEORDER>  (1) 
1
80
45
5
82
46
34
94
63
2
74
25
65
19
15
76
26
23
71
52
66
50
21
11
39
22
14
61
8
12
42
51
44
75
97
6
36
27
32
33
7
96
92
18
3
10
83
79
59
89
43
102
47
100
70
84
56
29
72
13
86
77
60
30
24
99
95
31
41
17
49
40
16
57
87
54
53
88
62
58
4
9
55
85
98
90
35
64
69
101
91
78
48
37
67
38
93
81
73
20
68
28

>  <PUBCHEM_MMFF94_PARTIAL_CHARGES>  (1) 
6
1 -0.57
11 0.06
13 0.57
15 0.3
16 0.3
2 -0.66

>  <PUBCHEM_EFFECTIVE_ROTOR_COUNT>  (1) 
11

>  <PUBCHEM_PHARMACOPHORE_FEATURES>  (1) 
2
1 1 acceptor
1 14 hydrophobe

>  <PUBCHEM_HEAVY_ATOM_COUNT>  (1) 
16

>  <PUBCHEM_ATOM_DEF_STEREO_COUNT>  (1) 
0

>  <PUBCHEM_ATOM_UDEF_STEREO_COUNT>  (1) 
0

>  <PUBCHEM_BOND_DEF_STEREO_COUNT>  (1) 
0

>  <PUBCHEM_BOND_UDEF_STEREO_COUNT>  (1) 
0

>  <PUBCHEM_ISOTOPIC_ATOM_COUNT>  (1) 
0

>  <PUBCHEM_COMPONENT_COUNT>  (1) 
1

>  <PUBCHEM_CACTVS_TAUTO_COUNT>  (1) 
1

>  <PUBCHEM_CONFORMER_ID>  (1) 
000046EF00000001

>  <PUBCHEM_MMFF94_ENERGY>  (1) 
10.1354

>  <PUBCHEM_FEATURE_SELFOVERLAP>  (1) 
10.148

>  <PUBCHEM_SHAPE_FINGERPRINT>  (1) 
10066227 49 18341896225597269727
10299344 5 18202563982295683647
11315181 36 18131355228683163763
12091667 2 18333450946520890473
13533116 47 16950552247636015632
13885169 127 18408041789315900245
14123256 10 18410573985156725897
14251764 18 18060140925281956275
14251764 46 18410573989446424938
15716309 27 18272931631377935119
17834076 25 18410855464433685097
18006028 8 17704353269228305657
20281389 69 18410290311415716329
20621476 8 17894909616589906031
21315763 28 18412545405833139017
22224240 67 14273456998156996217
23035841 295 17561361790699583879
23521765 1 18342175570633223721
28498 318 18410292489011218503
33532 11 18410291384978419547
33684 2 18410573985156732402
42788 4 18410575089005655425
4325135 7 18272651251290817909
5283156 175 18059858346393174835
59755656 520 18113893888628295515
67123 10 18410856581125182069
8209 1 18410575088958046213

>  <PUBCHEM_SHAPE_MULTIPOLES>  (1) 
318.42
27.91
1.08
0.61
24.54
0.13
0
2.35
-1.2
-1.67
-0.01
0.07
0.01
0.09

>  <PUBCHEM_SHAPE_SELFOVERLAP>  (1) 
577.467

>  <PUBCHEM_SHAPE_VOLUME>  (1) 
204.8

>  <PUBCHEM_COORDINATE_TYPE>  (1) 
2
5
10

$$$$
