18150
     RDKit          3D

  7  7  0  0  1  0  0  0  0  0999 V2000
   -2.8351    0.4125    0.1744 Cl  0  0  0  0  0  0  0  0  0  0  0  0
    0.1238    1.0264   -0.0107 O   0  0  0  0  0  0  0  0  0  0  0  0
   -0.2607   -0.3178    0.3235 C   0  0  0  0  0  0  0  0  0  0  0  0
    0.9071   -1.2034   -0.0752 C   0  0  0  0  0  0  0  0  0  0  0  0
    2.0798   -0.2962    0.2002 C   0  0  0  0  0  0  0  0  0  0  0  0
    1.5417    1.0510   -0.2327 C   0  0  0  0  0  0  0  0  0  0  0  0
   -1.5566   -0.6725   -0.3794 C   0  0  0  0  0  0  0  0  0  0  0  0
  1  7  1  0
  2  3  1  0
  2  6  1  0
  3  4  1  0
  3  7  1  0
  4  5  1  0
  5  6  1  0
M  END
>  <PUBCHEM_COMPOUND_CID>  (1) 
18150

>  <PUBCHEM_CONFORMER_RMSD>  (1) 
0.4

>  <PUBCHEM_CONFORMER_DIVERSEORDER>  (1) 
1
8
7
3
6
4
5
2

>  <PUBCHEM_MMFF94_PARTIAL_CHARGES>  (1) 
5
1 -0.29
2 -0.56
3 0.28
6 0.28
7 0.29

>  <PUBCHEM_EFFECTIVE_ROTOR_COUNT>  (1) 
2

>  <PUBCHEM_PHARMACOPHORE_FEATURES>  (1) 
2
1 2 acceptor
5 2 3 4 5 6 rings

>  <PUBCHEM_HEAVY_ATOM_COUNT>  (1) 
7

>  <PUBCHEM_ATOM_DEF_STEREO_COUNT>  (1) 
0

>  <PUBCHEM_ATOM_UDEF_STEREO_COUNT>  (1) 
1

>  <PUBCHEM_BOND_DEF_STEREO_COUNT>  (1) 
0

>  <PUBCHEM_BOND_UDEF_STEREO_COUNT>  (1) 
0

>  <PUBCHEM_ISOTOPIC_ATOM_COUNT>  (1) 
0

>  <PUBCHEM_COMPONENT_COUNT>  (1) 
1

>  <PUBCHEM_CACTVS_TAUTO_COUNT>  (1) 
1

>  <PUBCHEM_CONFORMER_ID>  (1) 
000046E600000001

>  <PUBCHEM_MMFF94_ENERGY>  (1) 
8.9605

>  <PUBCHEM_FEATURE_SELFOVERLAP>  (1) 
10.148

>  <PUBCHEM_SHAPE_FINGERPRINT>  (1) 
14390081 3 18201435925935521841
20096714 4 18337953514185147423
21040471 1 18194401314938919122
24536 1 18263350550934717843
29004967 10 18260833674134272939
5460574 1 9079116661362935107

>  <PUBCHEM_SHAPE_MULTIPOLES>  (1) 
140.06
3.37
1.21
0.67
1.95
0.03
0
0.39
-0.12
-0.31
0.07
0.04
-0.02
-0.15

>  <PUBCHEM_SHAPE_SELFOVERLAP>  (1) 
260.482

>  <PUBCHEM_SHAPE_VOLUME>  (1) 
90.5

>  <PUBCHEM_COORDINATE_TYPE>  (1) 
2
5
10

$$$$
