18160
     RDKit          3D

 19 20  0  0  0  0  0  0  0  0999 V2000
   -6.1418   -0.2191    0.1926 O   0  0  0  0  0  0  0  0  0  0  0  0
    5.4856    0.0692   -0.1488 N   0  0  0  0  0  0  0  0  0  0  0  0
   -0.0662    0.0035    0.5724 N   0  0  0  0  0  0  0  0  0  0  0  0
   -0.6404   -0.1497   -0.5312 N   0  0  0  0  0  0  0  0  0  0  0  0
    4.0869    0.0529    0.0327 C   0  0  0  0  0  0  0  0  0  0  0  0
    3.3617    1.2431   -0.0263 C   0  0  0  0  0  0  0  0  0  0  0  0
    3.4287   -1.1536    0.2714 C   0  0  0  0  0  0  0  0  0  0  0  0
    1.3205    0.0206    0.3920 C   0  0  0  0  0  0  0  0  0  0  0  0
    1.9786    1.2270    0.1534 C   0  0  0  0  0  0  0  0  0  0  0  0
    2.0454   -1.1697    0.4510 C   0  0  0  0  0  0  0  0  0  0  0  0
    6.2623    1.2299    0.2382 C   0  0  0  0  0  0  0  0  0  0  0  0
    6.1659   -1.0801   -0.7119 C   0  0  0  0  0  0  0  0  0  0  0  0
   -2.0338   -0.1670   -0.3494 C   0  0  0  0  0  0  0  0  0  0  0  0
   -4.7925   -0.2019    0.0147 C   0  0  0  0  0  0  0  0  0  0  0  0
   -2.7530    1.0225   -0.4084 C   0  0  0  0  0  0  0  0  0  0  0  0
   -2.6835   -1.3739   -0.1097 C   0  0  0  0  0  0  0  0  0  0  0  0
   -4.1358    1.0050   -0.2258 C   0  0  0  0  0  0  0  0  0  0  0  0
   -4.0663   -1.3915    0.0728 C   0  0  0  0  0  0  0  0  0  0  0  0
   -6.8222    1.0330    0.1203 C   0  0  0  0  0  0  0  0  0  0  0  0
  1 14  1  0
  1 19  1  0
  2  5  1  0
  2 11  1  0
  2 12  1  0
  3  4  2  0
  3  8  1  0
  4 13  1  0
  5  6  2  0
  5  7  1  0
  6  9  1  0
  7 10  2  0
  8  9  2  0
  8 10  1  0
 13 15  2  0
 13 16  1  0
 14 17  2  0
 14 18  1  0
 15 17  1  0
 16 18  2  0
M  END
>  <PUBCHEM_COMPOUND_CID>  (1) 
18160

>  <PUBCHEM_CONFORMER_RMSD>  (1) 
0.6

>  <PUBCHEM_CONFORMER_DIVERSEORDER>  (1) 
1
6
2
5
3
4

>  <PUBCHEM_MMFF94_PARTIAL_CHARGES>  (1) 
27
1 -0.36
10 -0.15
11 0.37
12 0.37
13 0.18
14 0.08
15 -0.15
16 -0.15
17 -0.15
18 -0.15
19 0.28
2 -0.84
20 0.15
21 0.15
22 0.15
23 0.15
3 -0.18
30 0.15
31 0.15
32 0.15
33 0.15
4 -0.18
5 0.1
6 -0.15
7 -0.15
8 0.18
9 -0.15

>  <PUBCHEM_EFFECTIVE_ROTOR_COUNT>  (1) 
4

>  <PUBCHEM_PHARMACOPHORE_FEATURES>  (1) 
4
1 1 acceptor
1 2 cation
6 13 14 15 16 17 18 rings
6 5 6 7 8 9 10 rings

>  <PUBCHEM_HEAVY_ATOM_COUNT>  (1) 
19

>  <PUBCHEM_ATOM_DEF_STEREO_COUNT>  (1) 
0

>  <PUBCHEM_ATOM_UDEF_STEREO_COUNT>  (1) 
0

>  <PUBCHEM_BOND_DEF_STEREO_COUNT>  (1) 
0

>  <PUBCHEM_BOND_UDEF_STEREO_COUNT>  (1) 
0

>  <PUBCHEM_ISOTOPIC_ATOM_COUNT>  (1) 
0

>  <PUBCHEM_COMPONENT_COUNT>  (1) 
1

>  <PUBCHEM_CACTVS_TAUTO_COUNT>  (1) 
1

>  <PUBCHEM_CONFORMER_ID>  (1) 
000046F000000001

>  <PUBCHEM_MMFF94_ENERGY>  (1) 
76.0275

>  <PUBCHEM_FEATURE_SELFOVERLAP>  (1) 
20.297

>  <PUBCHEM_SHAPE_FINGERPRINT>  (1) 
10354089 29 18187364329026180280
10968037 39 18260266361163959271
11315181 36 17775289386806109505
12107183 9 17688587161042834673
12236239 1 18060138747453988200
12730499 353 18186806872457542650
12916748 109 18259984864543821388
13533116 47 13829861166545209908
1420 363 17749111097048516602
14251764 18 18343865533132753395
14251764 46 17989487407661328302
14341114 176 18409452483301701645
14933364 13 18410294709208811901
15048467 5 18410011039735824153
15183329 4 18272376339092856490
15716309 27 12612753523362703273
15788980 27 17346877870861422068
17834072 33 18410009953077319854
17844677 252 18412833477405083536
200 152 18202282515418206378
20281389 69 18261108556352359068
20645477 70 18339923706464263478
20681677 155 18410007766849776371
21267235 1 18409736153027786541
220451 1 17022901254809584682
221357 26 18411697669056077332
22224240 67 15719392858266000385
2297311 6 18410016520224915797
23035841 295 18259984864042622626
23402539 116 18411976992058610879
23402655 69 18410852166225946830
23536379 177 18342458136310120616
23559900 14 18341043120685328057
29717793 49 17846785096322197116
300161 21 18334006194643356307
3004659 81 18408605830265088718
34797466 226 18131357423169099132
3545911 37 18408322181301358893
4073 2 18113623429899522378
4214541 1 18410009936087413149
42788 4 18410855464444234604
4340502 62 16226042302234803970
4463277 17 18411136939400054160
5104073 3 18335978769868978689
542803 24 17275105032938934568
59755656 215 18410858724345940310
59755656 520 16877660180081157499
77779 3 18408884048901896635

>  <PUBCHEM_SHAPE_MULTIPOLES>  (1) 
370.2
17.22
1.46
0.7
2.17
0.06
-0.02
-2.09
-0.61
-0.24
0.01
-0.18
0.03
0.33

>  <PUBCHEM_SHAPE_SELFOVERLAP>  (1) 
783.065

>  <PUBCHEM_SHAPE_VOLUME>  (1) 
209.2

>  <PUBCHEM_COORDINATE_TYPE>  (1) 
2
5
10

$$$$
