18167
     RDKit          3D

 18 19  0  0  0  0  0  0  0  0999 V2000
   -2.6561   -2.5203   -0.0096 Cl  0  0  0  0  0  0  0  0  0  0  0  0
    4.8765   -0.0286   -0.1797 N   0  0  0  0  0  0  0  0  0  0  0  0
   -0.6612    0.2303    0.6033 N   0  0  0  0  0  0  0  0  0  0  0  0
   -1.2552    0.1262   -0.4955 N   0  0  0  0  0  0  0  0  0  0  0  0
    3.4814    0.0368    0.0173 C   0  0  0  0  0  0  0  0  0  0  0  0
    2.8287    1.2692   -0.0189 C   0  0  0  0  0  0  0  0  0  0  0  0
    2.7542   -1.1309    0.2486 C   0  0  0  0  0  0  0  0  0  0  0  0
    0.7220    0.1663    0.4075 C   0  0  0  0  0  0  0  0  0  0  0  0
    1.4491    1.3339    0.1763 C   0  0  0  0  0  0  0  0  0  0  0  0
    1.3745   -1.0661    0.4437 C   0  0  0  0  0  0  0  0  0  0  0  0
    5.7259    1.0782    0.2126 C   0  0  0  0  0  0  0  0  0  0  0  0
    5.4803   -1.2094   -0.7646 C   0  0  0  0  0  0  0  0  0  0  0  0
   -2.6452    0.1904   -0.2982 C   0  0  0  0  0  0  0  0  0  0  0  0
   -3.3942   -0.9606   -0.0659 C   0  0  0  0  0  0  0  0  0  0  0  0
   -3.2661    1.4364   -0.3398 C   0  0  0  0  0  0  0  0  0  0  0  0
   -4.7726   -0.8648    0.1261 C   0  0  0  0  0  0  0  0  0  0  0  0
   -4.6444    1.5319   -0.1480 C   0  0  0  0  0  0  0  0  0  0  0  0
   -5.3976    0.3815    0.0849 C   0  0  0  0  0  0  0  0  0  0  0  0
  1 14  1  0
  2  5  1  0
  2 11  1  0
  2 12  1  0
  3  4  2  0
  3  8  1  0
  4 13  1  0
  5  6  2  0
  5  7  1  0
  6  9  1  0
  7 10  2  0
  8  9  2  0
  8 10  1  0
 13 14  2  0
 13 15  1  0
 14 16  1  0
 15 17  2  0
 16 18  2  0
 17 18  1  0
M  END
>  <PUBCHEM_COMPOUND_CID>  (1) 
18167

>  <PUBCHEM_CONFORMER_RMSD>  (1) 
0.6

>  <PUBCHEM_CONFORMER_DIVERSEORDER>  (1) 
1
6
5
3
7
2
4

>  <PUBCHEM_MMFF94_PARTIAL_CHARGES>  (1) 
26
1 -0.18
10 -0.15
11 0.37
12 0.37
13 0.18
14 0.18
15 -0.15
16 -0.15
17 -0.15
18 -0.15
19 0.15
2 -0.84
20 0.15
21 0.15
22 0.15
29 0.15
3 -0.18
30 0.15
31 0.15
32 0.15
4 -0.18
5 0.1
6 -0.15
7 -0.15
8 0.18
9 -0.15

>  <PUBCHEM_EFFECTIVE_ROTOR_COUNT>  (1) 
3

>  <PUBCHEM_PHARMACOPHORE_FEATURES>  (1) 
3
1 2 cation
6 13 14 15 16 17 18 rings
6 5 6 7 8 9 10 rings

>  <PUBCHEM_HEAVY_ATOM_COUNT>  (1) 
18

>  <PUBCHEM_ATOM_DEF_STEREO_COUNT>  (1) 
0

>  <PUBCHEM_ATOM_UDEF_STEREO_COUNT>  (1) 
0

>  <PUBCHEM_BOND_DEF_STEREO_COUNT>  (1) 
0

>  <PUBCHEM_BOND_UDEF_STEREO_COUNT>  (1) 
0

>  <PUBCHEM_ISOTOPIC_ATOM_COUNT>  (1) 
0

>  <PUBCHEM_COMPONENT_COUNT>  (1) 
1

>  <PUBCHEM_CACTVS_TAUTO_COUNT>  (1) 
1

>  <PUBCHEM_CONFORMER_ID>  (1) 
000046F700000001

>  <PUBCHEM_MMFF94_ENERGY>  (1) 
63.0869

>  <PUBCHEM_FEATURE_SELFOVERLAP>  (1) 
15.223

>  <PUBCHEM_SHAPE_FINGERPRINT>  (1) 
10616163 171 18410855507816641319
11287383 113 18410856581600072232
11315181 36 17489871548339364465
12107183 9 17615966612856926777
12236239 1 17988926660514595992
12788726 201 17773878597413169225
13167823 11 18408039632335053834
13760787 19 18334853905060127939
14251731 8 18412825768080679429
14251764 18 18131355220072116881
14341114 176 18411423911945401221
15042514 8 18265055920131278475
15196674 1 18410854369438830530
15242433 33 18409728439272070547
15788980 27 18335424568943364426
17834072 33 18411419522668205316
17844677 252 18412270527615160008
18186145 218 18187072970949965373
18222031 100 13254796841717847378
200 152 18131070441537633393
20621476 66 18130232549796701465
20645477 56 18408037408138047949
20645477 70 17845940632816734422
20681677 155 18408602561093142395
21267235 1 18408611379003820691
21709351 56 18261386775733070084
221490 88 18265619977341665362
2297311 6 18411707573582783053
23035841 295 18410857638193798938
23402539 116 16950276312908679188
23402655 69 18408602552339566728
23536379 177 18412263917765616384
23557571 272 18410578353159968125
23559900 14 18342166821679749857
239999 70 18343304752343772526
300161 21 18334005082104265433
3004659 81 18335423422894361486
34797466 226 17917439769405507372
3545911 37 18409729552048304393
4073 2 18187931737409051314
4214541 1 18410573985589417953
42788 4 18410573981093958120
4990 188 18413394224451277598
5104073 3 18410008849101907632
542803 24 17418375787595087129
58051976 100 18408321111975984031
59755656 215 18340492166802476326
59755656 520 16732704947604097515
633830 44 17604147137741288480
77779 3 18409448094214435705
9709674 26 18411984676267371351

>  <PUBCHEM_SHAPE_MULTIPOLES>  (1) 
357.36
13.56
1.85
0.71
5.04
0.59
0.01
-0.91
1.2
-0.92
0.05
0.16
0.04
0.47

>  <PUBCHEM_SHAPE_SELFOVERLAP>  (1) 
750.324

>  <PUBCHEM_SHAPE_VOLUME>  (1) 
202.4

>  <PUBCHEM_COORDINATE_TYPE>  (1) 
2
5
10

$$$$
