18166
     RDKit          3D

 20 21  0  0  0  0  0  0  0  0999 V2000
   -3.4047    2.7906   -0.0636 O   0  0  0  0  0  0  0  0  0  0  0  0
   -1.3994    1.9516   -0.3702 O   0  0  0  0  0  0  0  0  0  0  0  0
    5.1389    0.0590   -0.1731 N   0  0  0  0  0  0  0  0  0  0  0  0
   -0.3749   -0.4626    0.6465 N   0  0  0  0  0  0  0  0  0  0  0  0
   -0.9716   -0.4926   -0.4554 N   0  0  0  0  0  0  0  0  0  0  0  0
   -2.6315    1.8118   -0.1873 N   0  0  0  0  0  0  0  0  0  0  0  0
    3.7497   -0.0721    0.0332 C   0  0  0  0  0  0  0  0  0  0  0  0
    2.9530    1.0657    0.1620 C   0  0  0  0  0  0  0  0  0  0  0  0
    3.1725   -1.3398    0.1087 C   0  0  0  0  0  0  0  0  0  0  0  0
    1.0022   -0.3316    0.4416 C   0  0  0  0  0  0  0  0  0  0  0  0
    1.5793    0.9360    0.3662 C   0  0  0  0  0  0  0  0  0  0  0  0
    1.7987   -1.4695    0.3129 C   0  0  0  0  0  0  0  0  0  0  0  0
    5.8558    1.1996    0.3613 C   0  0  0  0  0  0  0  0  0  0  0  0
    5.8699   -0.9523   -0.9105 C   0  0  0  0  0  0  0  0  0  0  0  0
   -2.3554   -0.6244   -0.2490 C   0  0  0  0  0  0  0  0  0  0  0  0
   -3.1708    0.4971   -0.1170 C   0  0  0  0  0  0  0  0  0  0  0  0
   -2.9031   -1.9034   -0.1780 C   0  0  0  0  0  0  0  0  0  0  0  0
   -4.5417    0.3388    0.0870 C   0  0  0  0  0  0  0  0  0  0  0  0
   -4.2739   -2.0614    0.0261 C   0  0  0  0  0  0  0  0  0  0  0  0
   -5.0931   -0.9404    0.1587 C   0  0  0  0  0  0  0  0  0  0  0  0
  1  6  1  0
  2  6  2  0
  3  7  1  0
  3 13  1  0
  3 14  1  0
  4  5  2  0
  4 10  1  0
  5 15  1  0
  6 16  1  0
  7  8  2  0
  7  9  1  0
  8 11  1  0
  9 12  2  0
 10 11  2  0
 10 12  1  0
 15 16  2  0
 15 17  1  0
 16 18  1  0
 17 19  2  0
 18 20  2  0
 19 20  1  0
M  CHG  2   1  -1   6   1
M  END
>  <PUBCHEM_COMPOUND_CID>  (1) 
18166

>  <PUBCHEM_CONFORMER_RMSD>  (1) 
0.6

>  <PUBCHEM_CONFORMER_DIVERSEORDER>  (1) 
1
3
2
4
5

>  <PUBCHEM_MMFF94_PARTIAL_CHARGES>  (1) 
28
1 -0.52
10 0.18
11 -0.15
12 -0.15
13 0.37
14 0.37
15 0.18
16 0.13
17 -0.15
18 -0.15
19 -0.15
2 -0.52
20 -0.15
21 0.15
22 0.15
23 0.15
24 0.15
3 -0.84
31 0.15
32 0.15
33 0.15
34 0.15
4 -0.18
5 -0.18
6 0.91
7 0.1
8 -0.15
9 -0.15

>  <PUBCHEM_EFFECTIVE_ROTOR_COUNT>  (1) 
4

>  <PUBCHEM_PHARMACOPHORE_FEATURES>  (1) 
6
1 1 acceptor
1 1 anion
1 2 acceptor
1 3 cation
6 15 16 17 18 19 20 rings
6 7 8 9 10 11 12 rings

>  <PUBCHEM_HEAVY_ATOM_COUNT>  (1) 
20

>  <PUBCHEM_ATOM_DEF_STEREO_COUNT>  (1) 
0

>  <PUBCHEM_ATOM_UDEF_STEREO_COUNT>  (1) 
0

>  <PUBCHEM_BOND_DEF_STEREO_COUNT>  (1) 
0

>  <PUBCHEM_BOND_UDEF_STEREO_COUNT>  (1) 
0

>  <PUBCHEM_ISOTOPIC_ATOM_COUNT>  (1) 
0

>  <PUBCHEM_COMPONENT_COUNT>  (1) 
1

>  <PUBCHEM_CACTVS_TAUTO_COUNT>  (1) 
1

>  <PUBCHEM_CONFORMER_ID>  (1) 
000046F600000001

>  <PUBCHEM_MMFF94_ENERGY>  (1) 
79.5609

>  <PUBCHEM_FEATURE_SELFOVERLAP>  (1) 
30.527

>  <PUBCHEM_SHAPE_FINGERPRINT>  (1) 
10366900 7 18261107508607056291
10595046 47 18335138709084801290
10616163 171 18411418414730498047
12107183 9 17686613550561276802
12236239 1 17775290477706976274
12390115 104 18128266584372572681
12403259 415 18059849593434754208
12916748 109 18408324406352803242
13073987 5 18335134276841933162
13167823 11 18335698317432633066
13288520 33 18412828001542989495
13897977 58 18409167701685469709
14341114 176 18410860966286797782
15196674 1 18410009897395784232
17844677 252 18341338838068841576
200 152 17988926690579412658
20645477 70 17489316252814529134
21033648 29 17417513761957438096
21033650 10 18045528351524874548
21267235 1 18336552711345680395
221357 26 18342737429158621192
22393880 68 18339361864685815870
2297311 6 18412270549152962367
23175994 123 17060339625835356937
23402539 116 18260823834364347094
23402655 69 18335980870192498484
23557571 272 18343308045739526748
23559900 14 18340196496774255345
335352 9 18410572890942645509
34797466 226 17846225492370079380
350125 39 18411982485411803913
3545911 37 18409448081266191319
4214541 1 18411699859330817953
4990 188 18272094872980387222
5104073 3 18338231566378846706
542803 24 17022620883755441758
59755656 215 18410012117572558398
77779 3 18410855438795925514
9709674 26 18410015429029448507

>  <PUBCHEM_SHAPE_MULTIPOLES>  (1) 
379.93
13.21
2.15
0.71
9.09
0.76
-0.02
-1.08
-0.99
-1.95
-0.11
0.29
-0.07
0.52

>  <PUBCHEM_SHAPE_SELFOVERLAP>  (1) 
812.904

>  <PUBCHEM_SHAPE_VOLUME>  (1) 
211.9

>  <PUBCHEM_COORDINATE_TYPE>  (1) 
2
5
10

$$$$
