18168
     RDKit          3D

 18 19  0  0  0  0  0  0  0  0999 V2000
    5.1141    0.0209    0.1590 N   0  0  0  0  0  0  0  0  0  0  0  0
   -0.4345   -0.0667   -0.5833 N   0  0  0  0  0  0  0  0  0  0  0  0
   -1.0165    0.0563    0.5201 N   0  0  0  0  0  0  0  0  0  0  0  0
    3.7163   -0.0014   -0.0278 C   0  0  0  0  0  0  0  0  0  0  0  0
    3.0260   -1.2129    0.0140 C   0  0  0  0  0  0  0  0  0  0  0  0
    3.0239    1.1882   -0.2545 C   0  0  0  0  0  0  0  0  0  0  0  0
    0.9582   -0.0454   -0.3967 C   0  0  0  0  0  0  0  0  0  0  0  0
    1.6436   -1.2349   -0.1710 C   0  0  0  0  0  0  0  0  0  0  0  0
    1.6414    1.1661   -0.4394 C   0  0  0  0  0  0  0  0  0  0  0  0
    5.9259   -1.1119   -0.2390 C   0  0  0  0  0  0  0  0  0  0  0  0
    5.7585    1.1826    0.7385 C   0  0  0  0  0  0  0  0  0  0  0  0
   -5.1677   -0.0062   -0.0323 C   0  0  0  0  0  0  0  0  0  0  0  0
   -2.4025    0.0353    0.3348 C   0  0  0  0  0  0  0  0  0  0  0  0
   -4.4763   -1.1964    0.1926 C   0  0  0  0  0  0  0  0  0  0  0  0
   -4.4767    1.2049   -0.0736 C   0  0  0  0  0  0  0  0  0  0  0  0
   -3.0936   -1.1757    0.3762 C   0  0  0  0  0  0  0  0  0  0  0  0
   -3.0941    1.2257    0.1099 C   0  0  0  0  0  0  0  0  0  0  0  0
   -6.6460   -0.0284   -0.2276 C   0  0  0  0  0  0  0  0  0  0  0  0
  1  4  1  0
  1 10  1  0
  1 11  1  0
  2  3  2  0
  2  7  1  0
  3 13  1  0
  4  5  2  0
  4  6  1  0
  5  8  1  0
  6  9  2  0
  7  8  2  0
  7  9  1  0
 12 14  2  0
 12 15  1  0
 12 18  1  0
 13 16  2  0
 13 17  1  0
 14 16  1  0
 15 17  2  0
M  END
>  <PUBCHEM_COMPOUND_CID>  (1) 
18168

>  <PUBCHEM_CONFORMER_RMSD>  (1) 
0.6

>  <PUBCHEM_CONFORMER_DIVERSEORDER>  (1) 
1
2
3
4

>  <PUBCHEM_MMFF94_PARTIAL_CHARGES>  (1) 
26
1 -0.84
10 0.37
11 0.37
12 -0.14
13 0.18
14 -0.15
15 -0.15
16 -0.15
17 -0.15
18 0.14
19 0.15
2 -0.18
20 0.15
21 0.15
22 0.15
29 0.15
3 -0.18
30 0.15
31 0.15
32 0.15
4 0.1
5 -0.15
6 -0.15
7 0.18
8 -0.15
9 -0.15

>  <PUBCHEM_EFFECTIVE_ROTOR_COUNT>  (1) 
3

>  <PUBCHEM_PHARMACOPHORE_FEATURES>  (1) 
3
1 1 cation
6 12 13 14 15 16 17 rings
6 4 5 6 7 8 9 rings

>  <PUBCHEM_HEAVY_ATOM_COUNT>  (1) 
18

>  <PUBCHEM_ATOM_DEF_STEREO_COUNT>  (1) 
0

>  <PUBCHEM_ATOM_UDEF_STEREO_COUNT>  (1) 
0

>  <PUBCHEM_BOND_DEF_STEREO_COUNT>  (1) 
0

>  <PUBCHEM_BOND_UDEF_STEREO_COUNT>  (1) 
0

>  <PUBCHEM_ISOTOPIC_ATOM_COUNT>  (1) 
0

>  <PUBCHEM_COMPONENT_COUNT>  (1) 
1

>  <PUBCHEM_CACTVS_TAUTO_COUNT>  (1) 
1

>  <PUBCHEM_CONFORMER_ID>  (1) 
000046F800000001

>  <PUBCHEM_MMFF94_ENERGY>  (1) 
64.2071

>  <PUBCHEM_FEATURE_SELFOVERLAP>  (1) 
15.223

>  <PUBCHEM_SHAPE_FINGERPRINT>  (1) 
10 15 18339633543079625104
10968037 39 18412825798673003655
11315181 36 18410016546073834329
12107183 9 17616813236636072129
12166972 35 18342741827395712280
12236239 1 17989487420002904886
12507557 5 18413390955659736809
12516196 113 18273213105679730833
12815109 37 18187364333067946483
13073987 5 18262237716766620449
13167823 11 18408885148471838995
13533116 47 17274825705784060382
1420 363 18343868809433287983
14251764 46 18411980247649147714
14341114 176 18410860962187028872
15788980 27 18408889546233266635
17834072 33 18411982476969166092
17834076 25 18410293605401969959
17844677 252 18272941492259168064
19489759 90 18408322181533480617
200 152 18201719548627768041
20645477 70 18271247105838160110
21033648 29 17488728009007346160
21267235 1 18335993012318232363
21709351 56 18334290985165930597
220451 1 14562533981176944456
22224240 67 18410003373820529306
23402539 116 18408881858869457119
23559900 14 18338512053703333537
26918003 58 18334296487351391171
29717793 49 18272938206360929332
300161 21 18334851710658698787
34797466 226 17489875959635033916
351380 180 18408323302134894409
3545911 37 18409168805391805519
4073 2 18041003980982369850
4214541 1 18408605842664492501
42630746 31 17917997153244785126
42788 4 18413671305159421104
5104073 3 18337676308617004395
542803 24 15267345123710583643
59755656 215 18261675887188298678
67856867 119 18263083386742026173
7495541 125 17274819215913915587
9709674 26 18409459085194625319
9971528 1 17821730559056559588

>  <PUBCHEM_SHAPE_MULTIPOLES>  (1) 
355.49
15.84
1.42
0.71
1.65
0.01
-0.01
-0.03
-0.77
-0.43
-0.02
-0.15
0.04
0.43

>  <PUBCHEM_SHAPE_SELFOVERLAP>  (1) 
752.687

>  <PUBCHEM_SHAPE_VOLUME>  (1) 
201.2

>  <PUBCHEM_COORDINATE_TYPE>  (1) 
2
5
10

$$$$
