18170
     RDKit          3D

 10 10  0  0  0  0  0  0  0  0999 V2000
    1.9931   -0.0604    0.9209 S   0  0  0  0  0  0  0  0  0  0  0  0
    4.5726    0.0476   -0.2853 N   0  0  0  0  0  0  0  0  0  0  0  0
   -0.4766   -0.0136   -0.3078 C   0  0  0  0  0  0  0  0  0  0  0  0
    0.9870   -0.0360   -0.5941 C   0  0  0  0  0  0  0  0  0  0  0  0
   -1.1412    1.2048   -0.1675 C   0  0  0  0  0  0  0  0  0  0  0  0
   -1.1809   -1.2110   -0.1807 C   0  0  0  0  0  0  0  0  0  0  0  0
   -2.5100    1.2260    0.1000 C   0  0  0  0  0  0  0  0  0  0  0  0
   -2.5498   -1.1897    0.0867 C   0  0  0  0  0  0  0  0  0  0  0  0
   -3.2143    0.0287    0.2271 C   0  0  0  0  0  0  0  0  0  0  0  0
    3.5201    0.0036    0.2007 C   0  0  0  0  0  0  0  0  0  0  0  0
  1  4  1  0
  1 10  1  0
  2 10  3  0
  3  4  1  0
  3  5  2  0
  3  6  1  0
  5  7  1  0
  6  8  2  0
  7  9  2  0
  8  9  1  0
M  END
>  <PUBCHEM_COMPOUND_CID>  (1) 
18170

>  <PUBCHEM_CONFORMER_RMSD>  (1) 
0.4

>  <PUBCHEM_CONFORMER_DIVERSEORDER>  (1) 
1
8
7
6
5
2
3
4

>  <PUBCHEM_MMFF94_PARTIAL_CHARGES>  (1) 
15
1 -0.27
10 0.59
13 0.15
14 0.15
15 0.15
16 0.15
17 0.15
2 -0.56
3 -0.14
4 0.37
5 -0.15
6 -0.15
7 -0.15
8 -0.15
9 -0.15

>  <PUBCHEM_EFFECTIVE_ROTOR_COUNT>  (1) 
2

>  <PUBCHEM_PHARMACOPHORE_FEATURES>  (1) 
2
1 2 acceptor
6 3 5 6 7 8 9 rings

>  <PUBCHEM_HEAVY_ATOM_COUNT>  (1) 
10

>  <PUBCHEM_ATOM_DEF_STEREO_COUNT>  (1) 
0

>  <PUBCHEM_ATOM_UDEF_STEREO_COUNT>  (1) 
0

>  <PUBCHEM_BOND_DEF_STEREO_COUNT>  (1) 
0

>  <PUBCHEM_BOND_UDEF_STEREO_COUNT>  (1) 
0

>  <PUBCHEM_ISOTOPIC_ATOM_COUNT>  (1) 
0

>  <PUBCHEM_COMPONENT_COUNT>  (1) 
1

>  <PUBCHEM_CACTVS_TAUTO_COUNT>  (1) 
1

>  <PUBCHEM_CONFORMER_ID>  (1) 
000046FA00000001

>  <PUBCHEM_MMFF94_ENERGY>  (1) 
17.3449

>  <PUBCHEM_FEATURE_SELFOVERLAP>  (1) 
10.148

>  <PUBCHEM_SHAPE_FINGERPRINT>  (1) 
10857977 72 18342170098670867433
11062470 55 13695865922140769354
12932764 1 17703495654184458514
13024252 1 15068620474854845797
14325111 11 18410854330889425042
15219456 202 17916875616391504454
15775835 57 18334857173493024816
190213 19 17894630353289218110
20645464 45 17847067679120830239
20871998 184 18272091651343770463
23402539 116 18201148919584032263
369184 2 18410847759621045803
6333449 129 18272929423358517527
75552 356 18408885156903232243

>  <PUBCHEM_SHAPE_MULTIPOLES>  (1) 
204.66
6.64
1.21
0.79
7.08
0.01
0.08
0.09
0.27
-1.06
-0.01
0.23
-0.01
-0.03

>  <PUBCHEM_SHAPE_SELFOVERLAP>  (1) 
403.665

>  <PUBCHEM_SHAPE_VOLUME>  (1) 
120.8

>  <PUBCHEM_COORDINATE_TYPE>  (1) 
2
5
10

$$$$
