18175
     RDKit          3D

  5  4  0  0  1  0  0  0  0  0999 V2000
   -2.1514    0.7111    0.0340 Br  0  0  0  0  0  0  0  0  0  0  0  0
    2.3040    0.1401   -0.0771 Cl  0  0  0  0  0  0  0  0  0  0  0  0
   -0.4067   -0.1009   -0.3675 C   0  0  0  0  0  0  0  0  0  0  0  0
    0.6739    0.7781    0.2502 C   0  0  0  0  0  0  0  0  0  0  0  0
   -0.4199   -1.5283    0.1604 C   0  0  0  0  0  0  0  0  0  0  0  0
  1  3  1  0
  2  4  1  0
  3  4  1  0
  3  5  1  0
M  END
>  <PUBCHEM_COMPOUND_CID>  (1) 
18175

>  <PUBCHEM_CONFORMER_RMSD>  (1) 
0.4

>  <PUBCHEM_CONFORMER_DIVERSEORDER>  (1) 
1
6
3
2
4
5

>  <PUBCHEM_MMFF94_PARTIAL_CHARGES>  (1) 
4
1 -0.23
2 -0.29
3 0.23
4 0.29

>  <PUBCHEM_EFFECTIVE_ROTOR_COUNT>  (1) 
1

>  <PUBCHEM_PHARMACOPHORE_FEATURES>  (1) 
2
1 1 hydrophobe
3 1 3 5 hydrophobe

>  <PUBCHEM_HEAVY_ATOM_COUNT>  (1) 
5

>  <PUBCHEM_ATOM_DEF_STEREO_COUNT>  (1) 
0

>  <PUBCHEM_ATOM_UDEF_STEREO_COUNT>  (1) 
1

>  <PUBCHEM_BOND_DEF_STEREO_COUNT>  (1) 
0

>  <PUBCHEM_BOND_UDEF_STEREO_COUNT>  (1) 
0

>  <PUBCHEM_ISOTOPIC_ATOM_COUNT>  (1) 
0

>  <PUBCHEM_COMPONENT_COUNT>  (1) 
1

>  <PUBCHEM_CACTVS_TAUTO_COUNT>  (1) 
1

>  <PUBCHEM_CONFORMER_ID>  (1) 
000046FF00000001

>  <PUBCHEM_MMFF94_ENERGY>  (1) 
3.0017

>  <PUBCHEM_FEATURE_SELFOVERLAP>  (1) 
11.082

>  <PUBCHEM_SHAPE_FINGERPRINT>  (1) 
139733 1 9581593479456705766
16714656 1 18333452040598393004
20096714 4 18412822482272611217
21040471 1 18410290306872393860
24536 1 18050268551846539908
29004967 10 14345792742808911996
5460574 1 8502654809257947884
5943 1 11124529986308514023

>  <PUBCHEM_SHAPE_MULTIPOLES>  (1) 
110.71
2.98
1.32
0.69
0.43
0.55
0.01
-0.91
0.03
-0.24
-0.1
-0.04
-0.01
0.02

>  <PUBCHEM_SHAPE_SELFOVERLAP>  (1) 
168.855

>  <PUBCHEM_SHAPE_VOLUME>  (1) 
82.4

>  <PUBCHEM_COORDINATE_TYPE>  (1) 
2
5
10

$$$$
