18183
     RDKit          3D

 21 22  0  0  1  0  0  0  0  0999 V2000
    3.3731   -2.9103   -1.4306 Cl  0  0  0  0  0  0  0  0  0  0  0  0
    3.2430   -2.4326    0.5166 S   0  0  0  0  0  0  0  0  0  0  0  0
    0.8097    0.7141   -1.1815 O   0  0  0  0  0  0  0  0  0  0  0  0
    2.2202   -1.1945    0.4072 O   0  0  0  0  0  0  0  0  0  0  0  0
    2.4678   -3.6201    1.0068 O   0  0  0  0  0  0  0  0  0  0  0  0
    1.7191    1.0876   -0.1476 C   0  0  0  0  0  0  0  0  0  0  0  0
    2.8113    0.0209   -0.0501 C   0  0  0  0  0  0  0  0  0  0  0  0
    2.3009    2.4634   -0.4710 C   0  0  0  0  0  0  0  0  0  0  0  0
    3.9168    0.4319    0.9217 C   0  0  0  0  0  0  0  0  0  0  0  0
    3.3974    2.8628    0.5092 C   0  0  0  0  0  0  0  0  0  0  0  0
    4.4918    1.8024    0.5837 C   0  0  0  0  0  0  0  0  0  0  0  0
   -4.5475   -0.1586    0.3581 C   0  0  0  0  0  0  0  0  0  0  0  0
   -0.4898    0.5030   -0.8082 C   0  0  0  0  0  0  0  0  0  0  0  0
   -3.1317    0.0722   -0.0490 C   0  0  0  0  0  0  0  0  0  0  0  0
   -1.0736   -0.7427   -1.0165 C   0  0  0  0  0  0  0  0  0  0  0  0
   -1.2167    1.5350   -0.2231 C   0  0  0  0  0  0  0  0  0  0  0  0
   -5.2695    1.0702    1.0045 C   0  0  0  0  0  0  0  0  0  0  0  0
   -5.4295   -0.5618   -0.8643 C   0  0  0  0  0  0  0  0  0  0  0  0
   -4.6537   -1.3038    1.4125 C   0  0  0  0  0  0  0  0  0  0  0  0
   -2.3980   -0.9584   -0.6360 C   0  0  0  0  0  0  0  0  0  0  0  0
   -2.5411    1.3190    0.1575 C   0  0  0  0  0  0  0  0  0  0  0  0
  1  2  1  0
  2  4  1  0
  2  5  2  0
  3  6  1  0
  3 13  1  0
  4  7  1  0
  6  7  1  0
  6  8  1  0
  7  9  1  0
  8 10  1  0
  9 11  1  0
 10 11  1  0
 12 14  1  0
 12 17  1  0
 12 18  1  0
 12 19  1  0
 13 15  2  0
 13 16  1  0
 14 20  2  0
 14 21  1  0
 15 20  1  0
 16 21  2  0
M  END
>  <PUBCHEM_COMPOUND_CID>  (1) 
18183

>  <PUBCHEM_CONFORMER_RMSD>  (1) 
0.8

>  <PUBCHEM_CONFORMER_DIVERSEORDER>  (1) 
1
64
114
55
41
74
109
95
67
134
49
118
39
40
87
16
121
80
54
131
120
116
93
97
69
51
105
86
28
34
47
123
128
88
103
15
29
76
4
77
10
18
101
96
122
82
30
127
71
68
106
129
5
81
36
61
132
72
63
130
84
26
75
59
70
78
53
11
50
73
3
37
20
119
7
104
85
102
6
24
99
22
31
14
62
113
35
45
27
112
52
33
43
91
90
19
89
46
32
110
57
126
38
58
60
125
9
42
23
98
108
66
135
2
111
115
44
12
25
83
48
13
107
21
100
65
56
17
133
124
94
8
79
92
117

>  <PUBCHEM_MMFF94_PARTIAL_CHARGES>  (1) 
18
1 -0.11
12 0.14
13 0.08
14 -0.14
15 -0.15
16 -0.15
2 0.66
20 -0.15
21 -0.15
3 -0.36
4 -0.33
41 0.15
42 0.15
43 0.15
44 0.15
5 -0.5
6 0.28
7 0.28

>  <PUBCHEM_EFFECTIVE_ROTOR_COUNT>  (1) 
6.2

>  <PUBCHEM_PHARMACOPHORE_FEATURES>  (1) 
4
1 3 acceptor
4 12 17 18 19 hydrophobe
6 13 14 15 16 20 21 rings
6 6 7 8 9 10 11 rings

>  <PUBCHEM_HEAVY_ATOM_COUNT>  (1) 
21

>  <PUBCHEM_ATOM_DEF_STEREO_COUNT>  (1) 
0

>  <PUBCHEM_ATOM_UDEF_STEREO_COUNT>  (1) 
3

>  <PUBCHEM_BOND_DEF_STEREO_COUNT>  (1) 
0

>  <PUBCHEM_BOND_UDEF_STEREO_COUNT>  (1) 
0

>  <PUBCHEM_ISOTOPIC_ATOM_COUNT>  (1) 
0

>  <PUBCHEM_COMPONENT_COUNT>  (1) 
1

>  <PUBCHEM_CACTVS_TAUTO_COUNT>  (1) 
1

>  <PUBCHEM_CONFORMER_ID>  (1) 
0000470700000001

>  <PUBCHEM_MMFF94_ENERGY>  (1) 
63.3601

>  <PUBCHEM_FEATURE_SELFOVERLAP>  (1) 
20.297

>  <PUBCHEM_SHAPE_FINGERPRINT>  (1) 
10366900 7 18334021617897634504
114674 6 18186519869668310506
11578080 2 17605543350453551740
12107183 9 17909553861488973073
12251169 10 18341610451199520501
12507560 40 18336261258648342349
12553582 1 18051400778678488470
12596602 18 17845946241949064595
12670546 56 18343299271511782957
12788726 201 17060070224180826329
12892183 10 18409737296106434737
13140716 1 18193549206597267696
13533116 47 18409169896556306307
13583140 156 18337949103950229245
13675066 3 18186519921450094957
13785724 45 17768541481877977943
14178342 30 18120373417354503319
14251764 30 17913217451529299078
14252887 29 18113053835393985504
14341114 328 18271803591992121896
14739800 52 17346305033935737576
14863182 85 18261397767319017950
15142526 21 17697867413070921824
17492 89 18341049618949831999
1813 80 17095529482819004621
19784866 9 18271241720318228152
20511986 3 18058993095362037565
20645477 70 18411410709310879335
21065198 48 18272089392280331529
21065199 12 18407760339597465961
21197605 99 18120097444321303931
21421861 104 18412261705889036192
22182313 1 17822837702709137693
22224240 67 18267572676176429576
23557571 272 16733530646471310293
23559900 14 18041009435611616199
26918003 58 17895468232684319025
3117164 225 18124607379489101169
31174 14 18337103480439170878
33824 294 18335415790283360666
341906 21 16415481536860567235
3421961 26 18336262336890686490
3633792 109 18337093606868494287
465052 167 17603857932435719440
474 4 18264767843009014536
5104073 3 18341065042857439425
59755656 215 18335137605320359060
633830 44 18128535071278555196
7097593 13 18341608192220503668
7364860 26 18342738512128612028
8272917 22 18412828001637863596
9709674 26 18335423465200228875
9841814 1 18336263427891715250

>  <PUBCHEM_SHAPE_MULTIPOLES>  (1) 
420.28
11.43
3.3
1.2
10.5
1.67
0.01
0.36
2.87
-5.63
0.28
0.19
0.5
0.24

>  <PUBCHEM_SHAPE_SELFOVERLAP>  (1) 
844.09

>  <PUBCHEM_SHAPE_VOLUME>  (1) 
250.9

>  <PUBCHEM_COORDINATE_TYPE>  (1) 
2
5
10

$$$$
