18182
     RDKit          3D

  6  5  0  0  0  0  0  0  0  0999 V2000
    1.7488   -1.1571   -0.1483 N   0  0  0  0  0  0  0  0  0  0  0  0
    1.6115    1.1984   -0.1233 N   0  0  0  0  0  0  0  0  0  0  0  0
   -1.3569   -0.0062   -0.4860 C   0  0  0  0  0  0  0  0  0  0  0  0
   -0.3165   -0.0454    0.6311 C   0  0  0  0  0  0  0  0  0  0  0  0
   -2.7863   -0.0150    0.0363 C   0  0  0  0  0  0  0  0  0  0  0  0
    1.0994    0.0252    0.0903 C   0  0  0  0  0  0  0  0  0  0  0  0
  1  6  1  0
  2  6  2  0
  3  4  1  0
  3  5  1  0
  4  6  1  0
M  END
>  <PUBCHEM_COMPOUND_CID>  (1) 
18182

>  <PUBCHEM_CONFORMER_RMSD>  (1) 
0.4

>  <PUBCHEM_CONFORMER_DIVERSEORDER>  (1) 
1
6
4
7
2
5
3

>  <PUBCHEM_MMFF94_PARTIAL_CHARGES>  (1) 
7
1 -0.85
14 0.4
15 0.4
16 0.4
2 -0.85
4 0.06
6 0.44

>  <PUBCHEM_EFFECTIVE_ROTOR_COUNT>  (1) 
2

>  <PUBCHEM_PHARMACOPHORE_FEATURES>  (1) 
4
1 1 donor
1 2 donor
1 5 hydrophobe
3 1 2 6 cation

>  <PUBCHEM_HEAVY_ATOM_COUNT>  (1) 
6

>  <PUBCHEM_ATOM_DEF_STEREO_COUNT>  (1) 
0

>  <PUBCHEM_ATOM_UDEF_STEREO_COUNT>  (1) 
0

>  <PUBCHEM_BOND_DEF_STEREO_COUNT>  (1) 
0

>  <PUBCHEM_BOND_UDEF_STEREO_COUNT>  (1) 
0

>  <PUBCHEM_ISOTOPIC_ATOM_COUNT>  (1) 
0

>  <PUBCHEM_COMPONENT_COUNT>  (1) 
1

>  <PUBCHEM_CACTVS_TAUTO_COUNT>  (1) 
1

>  <PUBCHEM_CONFORMER_ID>  (1) 
0000470600000001

>  <PUBCHEM_MMFF94_ENERGY>  (1) 
5.2537

>  <PUBCHEM_FEATURE_SELFOVERLAP>  (1) 
20.336

>  <PUBCHEM_SHAPE_FINGERPRINT>  (1) 
139733 1 10809642397286063874
14390081 3 18341329002288006065
20096714 4 18334855068953904581
21040471 1 18268144451654264346
23552449 11 18262503823891585498
24536 1 18337657681333200361
29004967 10 18410855447248606306
5460574 1 9295293845865618097

>  <PUBCHEM_SHAPE_MULTIPOLES>  (1) 
113.52
3.32
0.97
0.71
1.78
0.02
-0.04
-0.07
0.2
-0.64
0.06
0.1
-0.01
0.01

>  <PUBCHEM_SHAPE_SELFOVERLAP>  (1) 
198.635

>  <PUBCHEM_SHAPE_VOLUME>  (1) 
72.8

>  <PUBCHEM_COORDINATE_TYPE>  (1) 
2
5
10

$$$$
