18199
     RDKit          3D

  3  2  0  0  0  0  0  0  0  0999 V2000
    0.0180    0.5812    0.0000 O   0  0  0  0  0  0  0  0  0  0  0  0
   -1.1505   -0.2837    0.0000 O   0  0  0  0  0  0  0  0  0  0  0  0
    1.1324   -0.2975    0.0000 C   0  0  0  0  0  0  0  0  0  0  0  0
  1  2  1  0
  1  3  1  0
M  END
>  <PUBCHEM_COMPOUND_CID>  (1) 
18199

>  <PUBCHEM_CONFORMER_RMSD>  (1) 
0.4

>  <PUBCHEM_CONFORMER_DIVERSEORDER>  (1) 
1

>  <PUBCHEM_MMFF94_PARTIAL_CHARGES>  (1) 
4
1 -0.28
2 -0.4
3 0.28
7 0.4

>  <PUBCHEM_EFFECTIVE_ROTOR_COUNT>  (1) 
0

>  <PUBCHEM_PHARMACOPHORE_FEATURES>  (1) 
0

>  <PUBCHEM_HEAVY_ATOM_COUNT>  (1) 
3

>  <PUBCHEM_ATOM_DEF_STEREO_COUNT>  (1) 
0

>  <PUBCHEM_ATOM_UDEF_STEREO_COUNT>  (1) 
0

>  <PUBCHEM_BOND_DEF_STEREO_COUNT>  (1) 
0

>  <PUBCHEM_BOND_UDEF_STEREO_COUNT>  (1) 
0

>  <PUBCHEM_ISOTOPIC_ATOM_COUNT>  (1) 
0

>  <PUBCHEM_COMPONENT_COUNT>  (1) 
1

>  <PUBCHEM_CACTVS_TAUTO_COUNT>  (1) 
1

>  <PUBCHEM_CONFORMER_ID>  (1) 
0000471700000001

>  <PUBCHEM_MMFF94_ENERGY>  (1) 
-0.6996

>  <PUBCHEM_FEATURE_SELFOVERLAP>  (1) 
0

>  <PUBCHEM_SHAPE_FINGERPRINT>  (1) 
21015797 1 17908418400552041886

>  <PUBCHEM_SHAPE_MULTIPOLES>  (1) 
50
1.44
0.7
0.54
0.02
0.02
0
-0.24
0
-0.02
0
-0.05
-0.01
0

>  <PUBCHEM_SHAPE_SELFOVERLAP>  (1) 
73.755

>  <PUBCHEM_SHAPE_VOLUME>  (1) 
38.2

>  <PUBCHEM_COORDINATE_TYPE>  (1) 
2
5
10

$$$$
