18215
     RDKit          3D

 16 17  0  0  0  0  0  0  0  0999 V2000
    1.8932    2.4962    0.7204 F   0  0  0  0  0  0  0  0  0  0  0  0
    0.9633    2.2463   -1.2230 F   0  0  0  0  0  0  0  0  0  0  0  0
   -0.2014    1.9283    0.5856 F   0  0  0  0  0  0  0  0  0  0  0  0
   -2.5928    0.7688   -0.2693 N   0  0  0  0  0  0  0  0  0  0  0  0
   -2.1796   -1.4294    0.1511 N   0  0  0  0  0  0  0  0  0  0  0  0
   -0.6215   -0.2873   -1.3595 C   0  0  0  0  0  0  0  0  0  0  0  0
   -1.8156   -0.3325   -0.4637 C   0  0  0  0  0  0  0  0  0  0  0  0
    0.6234   -0.6911   -0.6227 C   0  0  0  0  0  0  0  0  0  0  0  0
   -3.6889    0.4503    0.5949 C   0  0  0  0  0  0  0  0  0  0  0  0
   -3.3974   -1.0229    0.9184 C   0  0  0  0  0  0  0  0  0  0  0  0
    1.3988    0.2584    0.0338 C   0  0  0  0  0  0  0  0  0  0  0  0
    0.9861   -2.0338   -0.6085 C   0  0  0  0  0  0  0  0  0  0  0  0
    2.5507   -0.1394    0.7128 C   0  0  0  0  0  0  0  0  0  0  0  0
    1.0233    1.7038    0.0283 C   0  0  0  0  0  0  0  0  0  0  0  0
    2.1381   -2.4313    0.0703 C   0  0  0  0  0  0  0  0  0  0  0  0
    2.9202   -1.4843    0.7310 C   0  0  0  0  0  0  0  0  0  0  0  0
  1 14  1  0
  2 14  1  0
  3 14  1  0
  4  7  1  0
  4  9  1  0
  5  7  2  0
  5 10  1  0
  6  7  1  0
  6  8  1  0
  8 11  2  0
  8 12  1  0
  9 10  1  0
 11 13  1  0
 11 14  1  0
 12 15  2  0
 13 16  2  0
 15 16  1  0
M  END
>  <PUBCHEM_COMPOUND_CID>  (1) 
18215

>  <PUBCHEM_CONFORMER_RMSD>  (1) 
0.6

>  <PUBCHEM_CONFORMER_DIVERSEORDER>  (1) 
1
4
5
7
6
2
3

>  <PUBCHEM_MMFF94_PARTIAL_CHARGES>  (1) 
21
1 -0.34
10 0.25
11 -0.14
12 -0.15
13 -0.15
14 1.16
15 -0.15
16 -0.15
2 -0.34
23 0.4
24 0.15
25 0.15
26 0.15
27 0.15
3 -0.34
4 -0.82
5 -0.7
6 0.2
7 0.44
8 -0.14
9 0.37

>  <PUBCHEM_EFFECTIVE_ROTOR_COUNT>  (1) 
3.6

>  <PUBCHEM_PHARMACOPHORE_FEATURES>  (1) 
4
1 4 donor
3 4 5 7 cation
5 4 5 7 9 10 rings
6 8 11 12 13 15 16 rings

>  <PUBCHEM_HEAVY_ATOM_COUNT>  (1) 
16

>  <PUBCHEM_ATOM_DEF_STEREO_COUNT>  (1) 
0

>  <PUBCHEM_ATOM_UDEF_STEREO_COUNT>  (1) 
0

>  <PUBCHEM_BOND_DEF_STEREO_COUNT>  (1) 
0

>  <PUBCHEM_BOND_UDEF_STEREO_COUNT>  (1) 
0

>  <PUBCHEM_ISOTOPIC_ATOM_COUNT>  (1) 
0

>  <PUBCHEM_COMPONENT_COUNT>  (1) 
1

>  <PUBCHEM_CACTVS_TAUTO_COUNT>  (1) 
1

>  <PUBCHEM_CONFORMER_ID>  (1) 
0000472700000001

>  <PUBCHEM_MMFF94_ENERGY>  (1) 
38.9682

>  <PUBCHEM_FEATURE_SELFOVERLAP>  (1) 
20.297

>  <PUBCHEM_SHAPE_FINGERPRINT>  (1) 
1100329 8 16104453164953642227
11086676 242 18270962323952370098
11471102 22 18409449206247163658
12251169 10 18412263956378383771
12382932 28 18339636729101449947
12696612 119 18411702097098580007
15501101 241 18259704505799652599
15775835 57 17843126054500016753
16945 1 18271516524909664286
17357990 137 17203063953298153689
17841504 4 18409449184978016323
17990270 104 18408322198296845691
20379382 53 18334294313728603079
20559304 39 18341059574630854331
21061003 4 18337101272567829414
21130352 189 18339356340935659247
21501502 16 18339082708901806639
21524375 3 17697318773610426348
2748010 2 17911221833481386814
305870 269 18196647617031247032
31174 14 18336273435223166947
3797600 57 17270907244042972915
430814 3 17684372045779048428
6992083 37 17845636080390067519
7364860 26 18341055197885210382
81228 2 17690849951667280214
8809292 202 17618782453588073318

>  <PUBCHEM_SHAPE_MULTIPOLES>  (1) 
297.49
5.05
2.55
1.05
3.73
0.96
0.15
-1.65
-1.86
-1.59
-0.06
0.06
0.04
0.16

>  <PUBCHEM_SHAPE_SELFOVERLAP>  (1) 
637.373

>  <PUBCHEM_SHAPE_VOLUME>  (1) 
166.8

>  <PUBCHEM_COORDINATE_TYPE>  (1) 
2
5
10

$$$$
