18212
     RDKit          3D

 14 14  0  0  0  0  0  0  0  0999 V2000
   -0.6792    2.8557   -0.0833 O   0  0  0  0  0  0  0  0  0  0  0  0
    1.4900   -1.2661   -0.1004 N   0  0  0  0  0  0  0  0  0  0  0  0
   -0.8523   -1.1962   -0.0109 N   0  0  0  0  0  0  0  0  0  0  0  0
    0.4342    0.8277   -0.0938 N   0  0  0  0  0  0  0  0  0  0  0  0
   -3.1919   -1.0630    0.0779 N   0  0  0  0  0  0  0  0  0  0  0  0
   -1.9613    0.9316   -0.0027 N   0  0  0  0  0  0  0  0  0  0  0  0
    2.8113   -0.6797   -0.1627 C   0  0  0  0  0  0  0  0  0  0  0  0
    3.7935   -1.7114   -0.7014 C   0  0  0  0  0  0  0  0  0  0  0  0
    3.2190   -0.1958    1.2230 C   0  0  0  0  0  0  0  0  0  0  0  0
    0.3229   -0.5230   -0.0673 C   0  0  0  0  0  0  0  0  0  0  0  0
   -1.9410   -0.4108    0.0184 C   0  0  0  0  0  0  0  0  0  0  0  0
   -0.7379    1.4820   -0.0589 C   0  0  0  0  0  0  0  0  0  0  0  0
   -3.3236   -2.4861    0.1049 C   0  0  0  0  0  0  0  0  0  0  0  0
    0.6162    3.4353   -0.1427 C   0  0  0  0  0  0  0  0  0  0  0  0
  1 12  1  0
  1 14  1  0
  2  7  1  0
  2 10  1  0
  3 10  2  0
  3 11  1  0
  4 10  1  0
  4 12  2  0
  5 11  1  0
  5 13  1  0
  6 11  2  0
  6 12  1  0
  7  8  1  0
  7  9  1  0
M  END
>  <PUBCHEM_COMPOUND_CID>  (1) 
18212

>  <PUBCHEM_CONFORMER_RMSD>  (1) 
0.6

>  <PUBCHEM_CONFORMER_DIVERSEORDER>  (1) 
1
23
13
6
25
28
15
18
2
22
17
30
3
21
12
8
20
26
10
29
27
16
19
24
14
9
5
7
11
4

>  <PUBCHEM_MMFF94_PARTIAL_CHARGES>  (1) 
14
1 -0.36
10 0.72
11 0.72
12 0.7
13 0.37
14 0.28
16 0.4
2 -0.87
23 0.4
3 -0.62
4 -0.62
5 -0.87
6 -0.62
7 0.37

>  <PUBCHEM_EFFECTIVE_ROTOR_COUNT>  (1) 
4

>  <PUBCHEM_PHARMACOPHORE_FEATURES>  (1) 
6
1 2 donor
1 5 donor
3 7 8 9 hydrophobe
4 2 3 4 10 cation
4 3 5 6 11 cation
6 3 4 6 10 11 12 rings

>  <PUBCHEM_HEAVY_ATOM_COUNT>  (1) 
14

>  <PUBCHEM_ATOM_DEF_STEREO_COUNT>  (1) 
0

>  <PUBCHEM_ATOM_UDEF_STEREO_COUNT>  (1) 
0

>  <PUBCHEM_BOND_DEF_STEREO_COUNT>  (1) 
0

>  <PUBCHEM_BOND_UDEF_STEREO_COUNT>  (1) 
0

>  <PUBCHEM_ISOTOPIC_ATOM_COUNT>  (1) 
0

>  <PUBCHEM_COMPONENT_COUNT>  (1) 
1

>  <PUBCHEM_CACTVS_TAUTO_COUNT>  (1) 
9

>  <PUBCHEM_CONFORMER_ID>  (1) 
0000472400000001

>  <PUBCHEM_MMFF94_ENERGY>  (1) 
41.8588

>  <PUBCHEM_FEATURE_SELFOVERLAP>  (1) 
30.488

>  <PUBCHEM_SHAPE_FINGERPRINT>  (1) 
1 1 17617377728715088133
108231 29 18261680375434398003
10989021 7 18338799038880062769
12032990 46 18411704300301063487
14022349 108 18050281771803701064
16945 1 18193271893000722712
18380122 1 18202271494906833458
193761 8 18338237184407572253
20510252 161 18340767031708032056
20645477 70 17976529839449215311
20871998 184 18201438034574631815
20871998 22 18340488962287238259
21296965 67 18411134770715843755
21339142 51 18335977580447938685
21524375 3 17189806853597046212
21650355 55 18336251362985306402
22213442 358 18339078297564224815
22802520 49 17985545559644134798
23402539 116 18198895912647270421
23557571 272 18272094833924547172
23559900 14 18268143172376820662
23598294 1 18118684322723029073
2748010 2 18340472435189727804
3071541 250 18337402654627981053
3071541 37 17758116286659522261
43471831 8 17328581138276301097
528862 383 17904475551870888833
5902787 121 18189328133849988579
6049 1 17987795203595208170
7364860 26 18051415372412409313
81228 2 18267590113089315585
81539 233 17468188285850077693

>  <PUBCHEM_SHAPE_MULTIPOLES>  (1) 
257.34
5.51
3.31
0.74
1.52
3.2
0.12
-5.2
0.22
-0.81
-0.34
0.55
-0.1
0.42

>  <PUBCHEM_SHAPE_SELFOVERLAP>  (1) 
511.645

>  <PUBCHEM_SHAPE_VOLUME>  (1) 
150.1

>  <PUBCHEM_COORDINATE_TYPE>  (1) 
2
5
10

$$$$
