18210
     RDKit          3D

  9  9  0  0  0  0  0  0  0  0999 V2000
    2.2103   -1.2477    0.0012 O   0  0  0  0  0  0  0  0  0  0  0  0
    2.0436    0.9455   -0.0012 O   0  0  0  0  0  0  0  0  0  0  0  0
   -0.7326    0.7716   -0.0001 N   0  0  0  0  0  0  0  0  0  0  0  0
   -2.0393   -1.0242   -0.0002 N   0  0  0  0  0  0  0  0  0  0  0  0
    1.5047   -0.1984    0.0001 N   0  0  0  0  0  0  0  0  0  0  0  0
    0.1099   -0.3043   -0.0007 C   0  0  0  0  0  0  0  0  0  0  0  0
   -0.3646    2.1684    0.0009 C   0  0  0  0  0  0  0  0  0  0  0  0
   -2.0122    0.2900    0.0003 C   0  0  0  0  0  0  0  0  0  0  0  0
   -0.7196   -1.4010   -0.0003 C   0  0  0  0  0  0  0  0  0  0  0  0
  1  5  1  0
  2  5  2  0
  3  6  1  0
  3  7  1  0
  3  8  1  0
  4  8  2  0
  4  9  1  0
  5  6  1  0
  6  9  2  0
M  CHG  2   1  -1   5   1
M  END
>  <PUBCHEM_COMPOUND_CID>  (1) 
18210

>  <PUBCHEM_CONFORMER_RMSD>  (1) 
0.4

>  <PUBCHEM_CONFORMER_DIVERSEORDER>  (1) 
1

>  <PUBCHEM_MMFF94_PARTIAL_CHARGES>  (1) 
11
1 -0.52
13 0.15
14 0.15
2 -0.52
3 0.05
4 -0.57
5 0.96
6 -0.07
7 0.26
8 0.04
9 0.08

>  <PUBCHEM_EFFECTIVE_ROTOR_COUNT>  (1) 
1

>  <PUBCHEM_PHARMACOPHORE_FEATURES>  (1) 
5
1 1 acceptor
1 1 anion
1 2 acceptor
3 3 4 8 cation
5 3 4 6 8 9 rings

>  <PUBCHEM_HEAVY_ATOM_COUNT>  (1) 
9

>  <PUBCHEM_ATOM_DEF_STEREO_COUNT>  (1) 
0

>  <PUBCHEM_ATOM_UDEF_STEREO_COUNT>  (1) 
0

>  <PUBCHEM_BOND_DEF_STEREO_COUNT>  (1) 
0

>  <PUBCHEM_BOND_UDEF_STEREO_COUNT>  (1) 
0

>  <PUBCHEM_ISOTOPIC_ATOM_COUNT>  (1) 
0

>  <PUBCHEM_COMPONENT_COUNT>  (1) 
1

>  <PUBCHEM_CACTVS_TAUTO_COUNT>  (1) 
1

>  <PUBCHEM_CONFORMER_ID>  (1) 
0000472200000001

>  <PUBCHEM_MMFF94_ENERGY>  (1) 
16.3813

>  <PUBCHEM_FEATURE_SELFOVERLAP>  (1) 
25.452

>  <PUBCHEM_SHAPE_FINGERPRINT>  (1) 
16714656 1 18411421674415042111
18185500 45 18266461082035165566
21040471 1 17690279309380017380
23552423 10 18260551121300268294
2748010 2 18410855477461050919
29004967 10 18263648531328296451
5084963 1 18058162821795121322

>  <PUBCHEM_SHAPE_MULTIPOLES>  (1) 
158.53
2.69
1.84
0.56
0.78
0.73
0
-0.57
0
-0.09
0
-0.04
0.01
0

>  <PUBCHEM_SHAPE_SELFOVERLAP>  (1) 
327.851

>  <PUBCHEM_SHAPE_VOLUME>  (1) 
92.7

>  <PUBCHEM_COORDINATE_TYPE>  (1) 
2
5
10

$$$$
