18219
     RDKit          3D

 13 14  0  0  0  0  0  0  0  0999 V2000
   -2.4479    1.1103    0.0925 N   0  0  0  0  0  0  0  0  0  0  0  0
   -2.4756   -1.1528   -0.1455 N   0  0  0  0  0  0  0  0  0  0  0  0
   -0.8589   -0.2355    1.4542 C   0  0  0  0  0  0  0  0  0  0  0  0
   -1.9568   -0.1087    0.4496 C   0  0  0  0  0  0  0  0  0  0  0  0
   -3.4586    0.9583   -0.9100 C   0  0  0  0  0  0  0  0  0  0  0  0
   -3.5149   -0.5705   -1.0497 C   0  0  0  0  0  0  0  0  0  0  0  0
    0.4885   -0.1286    0.7995 C   0  0  0  0  0  0  0  0  0  0  0  0
    1.1193   -1.2759    0.3334 C   0  0  0  0  0  0  0  0  0  0  0  0
    1.0905    1.1169    0.6666 C   0  0  0  0  0  0  0  0  0  0  0  0
    2.9820    0.0699   -0.4119 C   0  0  0  0  0  0  0  0  0  0  0  0
    2.3708   -1.1762   -0.2745 C   0  0  0  0  0  0  0  0  0  0  0  0
    2.3419    1.2165    0.0586 C   0  0  0  0  0  0  0  0  0  0  0  0
    4.3196    0.1765   -1.0627 C   0  0  0  0  0  0  0  0  0  0  0  0
  1  4  1  0
  1  5  1  0
  2  4  2  0
  2  6  1  0
  3  4  1  0
  3  7  1  0
  5  6  1  0
  7  8  2  0
  7  9  1  0
  8 11  1  0
  9 12  2  0
 10 11  2  0
 10 12  1  0
 10 13  1  0
M  END
>  <PUBCHEM_COMPOUND_CID>  (1) 
18219

>  <PUBCHEM_CONFORMER_RMSD>  (1) 
0.6

>  <PUBCHEM_CONFORMER_DIVERSEORDER>  (1) 
1
4
3
2

>  <PUBCHEM_MMFF94_PARTIAL_CHARGES>  (1) 
18
1 -0.82
10 -0.14
11 -0.15
12 -0.15
13 0.14
2 -0.7
20 0.4
21 0.15
22 0.15
23 0.15
24 0.15
3 0.2
4 0.44
5 0.37
6 0.25
7 -0.14
8 -0.15
9 -0.15

>  <PUBCHEM_EFFECTIVE_ROTOR_COUNT>  (1) 
2.6

>  <PUBCHEM_PHARMACOPHORE_FEATURES>  (1) 
4
1 1 donor
3 1 2 4 cation
5 1 2 4 5 6 rings
6 7 8 9 10 11 12 rings

>  <PUBCHEM_HEAVY_ATOM_COUNT>  (1) 
13

>  <PUBCHEM_ATOM_DEF_STEREO_COUNT>  (1) 
0

>  <PUBCHEM_ATOM_UDEF_STEREO_COUNT>  (1) 
0

>  <PUBCHEM_BOND_DEF_STEREO_COUNT>  (1) 
0

>  <PUBCHEM_BOND_UDEF_STEREO_COUNT>  (1) 
0

>  <PUBCHEM_ISOTOPIC_ATOM_COUNT>  (1) 
0

>  <PUBCHEM_COMPONENT_COUNT>  (1) 
1

>  <PUBCHEM_CACTVS_TAUTO_COUNT>  (1) 
1

>  <PUBCHEM_CONFORMER_ID>  (1) 
0000472B00000001

>  <PUBCHEM_MMFF94_ENERGY>  (1) 
35.3461

>  <PUBCHEM_FEATURE_SELFOVERLAP>  (1) 
20.297

>  <PUBCHEM_SHAPE_FINGERPRINT>  (1) 
10498660 4 17241032211788512477
11127187 94 17703783730757843183
11401426 45 18412262831481593418
11769659 78 15697449814916938622
12138202 97 17676776469209735282
12251169 10 8862939481023324649
12382932 28 8646777689693869567
124424 183 17748827419344310016
12696612 119 9007051387612479706
12897270 3 18412257367792641033
12932764 1 18411136943895351939
13296908 3 14979949264041689171
13675066 3 12468637244544346212
13705890 14 17703791448645262164
13764800 53 16226057652194997545
14250199 8 18336829792048757349
14993402 34 17989491814234496750
15375462 189 12535635951022795700
15775835 57 14779544603809245741
16945 1 18341623611427338178
18186145 218 18342181089402552672
200 152 17632298964913461680
20281407 28 13542470855778836568
20361792 2 15554439721768191921
20671657 53 17489592255443533744
20871999 31 18337943576448697295
21119208 17 18272932717398032061
21501925 9 10447921776441097305
21713013 43 18059001900008006439
22485316 2 14333130754028922294
22926399 65 17530686498136539172
231179 274 16298099887223867428
23402539 116 17749103392462743700
23402655 69 18337951190856104605
23557571 272 17313683644794120883
25 1 18187087208750649683
2748010 2 17981057619593970400
305870 269 15213293106271891368
3082319 5 18412821374297461103
4028521 119 17822002086873065037
8030462 33 18060698364481159051
93112 12 18341890805384627285

>  <PUBCHEM_SHAPE_MULTIPOLES>  (1) 
257.57
6.94
1.33
1.15
0.07
0
-0.06
0.68
3.55
-0.03
0.01
0.22
0
0.1

>  <PUBCHEM_SHAPE_SELFOVERLAP>  (1) 
541.428

>  <PUBCHEM_SHAPE_VOLUME>  (1) 
143.3

>  <PUBCHEM_COORDINATE_TYPE>  (1) 
2
5
10

$$$$
