18229
     RDKit          3D

 16 17  0  0  0  0  0  0  0  0999 V2000
   -0.8724   -2.8447   -0.1789 O   0  0  0  0  0  0  0  0  0  0  0  0
   -0.0984   -0.6527   -0.3865 N   0  0  0  0  0  0  0  0  0  0  0  0
   -3.4384    0.9648    0.0639 N   0  0  0  0  0  0  0  0  0  0  0  0
    0.9988    0.2618   -0.2564 C   0  0  0  0  0  0  0  0  0  0  0  0
    2.2985   -1.5778    0.8610 C   0  0  0  0  0  0  0  0  0  0  0  0
   -1.4125   -0.1334   -0.7545 C   0  0  0  0  0  0  0  0  0  0  0  0
    2.1996   -0.1788    0.3278 C   0  0  0  0  0  0  0  0  0  0  0  0
    1.4755   -2.5124    0.0003 C   0  0  0  0  0  0  0  0  0  0  0  0
    0.0504   -2.0276   -0.1621 C   0  0  0  0  0  0  0  0  0  0  0  0
   -2.1427    0.4266    0.4574 C   0  0  0  0  0  0  0  0  0  0  0  0
    0.9063    1.6000   -0.6715 C   0  0  0  0  0  0  0  0  0  0  0  0
    3.2738    0.7079    0.4916 C   0  0  0  0  0  0  0  0  0  0  0  0
    1.9863    2.4732   -0.5178 C   0  0  0  0  0  0  0  0  0  0  0  0
    3.1691    2.0280    0.0624 C   0  0  0  0  0  0  0  0  0  0  0  0
   -4.1309    1.5398    1.2189 C   0  0  0  0  0  0  0  0  0  0  0  0
   -4.2630   -0.0747   -0.5556 C   0  0  0  0  0  0  0  0  0  0  0  0
  1  9  2  0
  2  4  1  0
  2  6  1  0
  2  9  1  0
  3 10  1  0
  3 15  1  0
  3 16  1  0
  4  7  2  0
  4 11  1  0
  5  7  1  0
  5  8  1  0
  6 10  1  0
  7 12  1  0
  8  9  1  0
 11 13  2  0
 12 14  2  0
 13 14  1  0
M  END
>  <PUBCHEM_COMPOUND_CID>  (1) 
18229

>  <PUBCHEM_CONFORMER_RMSD>  (1) 
0.6

>  <PUBCHEM_CONFORMER_DIVERSEORDER>  (1) 
2
7
10
8
5
4
6
9
3
1

>  <PUBCHEM_MMFF94_PARTIAL_CHARGES>  (1) 
20
1 -0.57
10 0.27
11 -0.15
12 -0.15
13 -0.15
14 -0.15
15 0.27
16 0.27
2 -0.48
25 0.15
26 0.15
27 0.15
28 0.15
3 -0.81
4 0.12
5 0.14
6 0.3
7 -0.14
8 0.06
9 0.57

>  <PUBCHEM_EFFECTIVE_ROTOR_COUNT>  (1) 
3.6

>  <PUBCHEM_PHARMACOPHORE_FEATURES>  (1) 
4
1 1 acceptor
1 3 cation
6 2 4 5 7 8 9 rings
6 4 7 11 12 13 14 rings

>  <PUBCHEM_HEAVY_ATOM_COUNT>  (1) 
16

>  <PUBCHEM_ATOM_DEF_STEREO_COUNT>  (1) 
0

>  <PUBCHEM_ATOM_UDEF_STEREO_COUNT>  (1) 
0

>  <PUBCHEM_BOND_DEF_STEREO_COUNT>  (1) 
0

>  <PUBCHEM_BOND_UDEF_STEREO_COUNT>  (1) 
0

>  <PUBCHEM_ISOTOPIC_ATOM_COUNT>  (1) 
0

>  <PUBCHEM_COMPONENT_COUNT>  (1) 
1

>  <PUBCHEM_CACTVS_TAUTO_COUNT>  (1) 
1

>  <PUBCHEM_CONFORMER_ID>  (1) 
0000473500000002

>  <PUBCHEM_MMFF94_ENERGY>  (1) 
42.6939

>  <PUBCHEM_FEATURE_SELFOVERLAP>  (1) 
20.322

>  <PUBCHEM_SHAPE_FINGERPRINT>  (1) 
10382601 240 18260263032395662520
10465860 228 18341900636564884729
10967382 1 18409162216753867444
10980938 120 18335419054068342804
11471102 22 18188214191078973609
11640471 11 17988933232189215937
12346645 6 18409164394249545444
12390115 104 17977399544335350860
12491281 212 18118121613694120112
12644460 14 18114460081086041362
13140716 1 18263351650884137368
13380535 76 18338231673442077759
14123255 52 18339923834775108264
14178342 30 18121482799307404824
14251717 144 18409721838281616775
14790565 3 18337400331821424300
15501101 241 18115027389919668989
15775835 57 18131070437369565401
15906896 17 17984700275219786983
16945 1 18262501655291641070
1741750 31 18198059385887922792
18186145 218 18341897355294234261
19591789 44 18193838137848317758
20157964 124 18266737975406040709
20510252 161 17691689312873207280
20645477 70 18261383400500529397
20671657 1 18410577288250470182
20739085 24 18191597349956388920
21524375 3 18270962452717083837
21639500 275 18337093619141615733
21665062 11 18336272240647622584
22094290 62 18409727374394221392
2255824 54 18339647724370662991
23184049 59 18335414643247530680
2334 1 17902506318340560492
23557571 272 14476666521574457401
23558518 356 17974007555284444202
2748010 2 18263920111291376166
276578 36 18413113861443906520
3060560 45 18341897333766845422
474 4 18410856538692597409
49207404 50 18189354483843173203
6333272 397 18410856607269545219
633830 44 18202008698663830629
7364860 26 18341335487435064710
7832392 63 18339077206979907876
81228 2 17471577001987477380
8272917 22 18339928100183658613
84936 182 18202842158131272297

>  <PUBCHEM_SHAPE_MULTIPOLES>  (1) 
313.44
6.51
2.94
0.9
7.08
1.11
0.11
-3.55
1.35
-1.62
-0.1
0.34
-0.16
-0.92

>  <PUBCHEM_SHAPE_SELFOVERLAP>  (1) 
651.87

>  <PUBCHEM_SHAPE_VOLUME>  (1) 
179.7

>  <PUBCHEM_COORDINATE_TYPE>  (1) 
2
5
10

$$$$
