18227
     RDKit          3D

 19 21  0  0  0  0  0  0  0  0999 V2000
    5.2221   -0.9213   -0.0059 O   0  0  0  0  0  0  0  0  0  0  0  0
   -0.9029    3.1457    0.4017 O   0  0  0  0  0  0  0  0  0  0  0  0
    2.7154    0.4248   -0.0810 N   0  0  0  0  0  0  0  0  0  0  0  0
   -0.9853    0.8149    0.3140 N   0  0  0  0  0  0  0  0  0  0  0  0
    1.3209    0.5443   -0.5012 C   0  0  0  0  0  0  0  0  0  0  0  0
    0.4113    0.6658    0.7127 C   0  0  0  0  0  0  0  0  0  0  0  0
    2.9144   -0.7845    0.7297 C   0  0  0  0  0  0  0  0  0  0  0  0
    3.6113    0.4033   -1.2457 C   0  0  0  0  0  0  0  0  0  0  0  0
   -1.7781   -0.3620    0.1053 C   0  0  0  0  0  0  0  0  0  0  0  0
   -3.8173    1.1086    0.0882 C   0  0  0  0  0  0  0  0  0  0  0  0
   -3.1716   -0.2397   -0.0382 C   0  0  0  0  0  0  0  0  0  0  0  0
   -2.8925    2.1723   -0.4641 C   0  0  0  0  0  0  0  0  0  0  0  0
    4.3784   -0.8934    1.1460 C   0  0  0  0  0  0  0  0  0  0  0  0
    5.0590    0.2654   -0.7833 C   0  0  0  0  0  0  0  0  0  0  0  0
   -1.5130    2.1030    0.1561 C   0  0  0  0  0  0  0  0  0  0  0  0
   -1.2097   -1.6455    0.0653 C   0  0  0  0  0  0  0  0  0  0  0  0
   -3.9678   -1.3810   -0.2130 C   0  0  0  0  0  0  0  0  0  0  0  0
   -2.0085   -2.7762   -0.1235 C   0  0  0  0  0  0  0  0  0  0  0  0
   -3.3859   -2.6446   -0.2632 C   0  0  0  0  0  0  0  0  0  0  0  0
  1 13  1  0
  1 14  1  0
  2 15  2  0
  3  5  1  0
  3  7  1  0
  3  8  1  0
  4  6  1  0
  4  9  1  0
  4 15  1  0
  5  6  1  0
  7 13  1  0
  8 14  1  0
  9 11  2  0
  9 16  1  0
 10 11  1  0
 10 12  1  0
 11 17  1  0
 12 15  1  0
 16 18  2  0
 17 19  2  0
 18 19  1  0
M  END
>  <PUBCHEM_COMPOUND_CID>  (1) 
18227

>  <PUBCHEM_CONFORMER_RMSD>  (1) 
0.6

>  <PUBCHEM_CONFORMER_DIVERSEORDER>  (1) 
1
11
13
22
14
2
24
12
18
9
23
16
17
19
5
15
20
4
21
6
3
8
10
7

>  <PUBCHEM_MMFF94_PARTIAL_CHARGES>  (1) 
23
1 -0.56
10 0.14
11 -0.14
12 0.06
13 0.28
14 0.28
15 0.57
16 -0.15
17 -0.15
18 -0.15
19 -0.15
2 -0.57
3 -0.81
36 0.15
37 0.15
38 0.15
39 0.15
4 -0.48
5 0.27
6 0.3
7 0.27
8 0.27
9 0.12

>  <PUBCHEM_EFFECTIVE_ROTOR_COUNT>  (1) 
4.8

>  <PUBCHEM_PHARMACOPHORE_FEATURES>  (1) 
6
1 1 acceptor
1 2 acceptor
1 3 cation
6 1 3 7 8 13 14 rings
6 4 9 10 11 12 15 rings
6 9 11 16 17 18 19 rings

>  <PUBCHEM_HEAVY_ATOM_COUNT>  (1) 
19

>  <PUBCHEM_ATOM_DEF_STEREO_COUNT>  (1) 
0

>  <PUBCHEM_ATOM_UDEF_STEREO_COUNT>  (1) 
0

>  <PUBCHEM_BOND_DEF_STEREO_COUNT>  (1) 
0

>  <PUBCHEM_BOND_UDEF_STEREO_COUNT>  (1) 
0

>  <PUBCHEM_ISOTOPIC_ATOM_COUNT>  (1) 
0

>  <PUBCHEM_COMPONENT_COUNT>  (1) 
1

>  <PUBCHEM_CACTVS_TAUTO_COUNT>  (1) 
1

>  <PUBCHEM_CONFORMER_ID>  (1) 
0000473300000001

>  <PUBCHEM_MMFF94_ENERGY>  (1) 
44.1171

>  <PUBCHEM_FEATURE_SELFOVERLAP>  (1) 
30.471

>  <PUBCHEM_SHAPE_FINGERPRINT>  (1) 
10062212 137 18260543416044575963
10319926 262 18198880580104680282
10366900 7 17703502208272877808
10616163 171 18410857659431615878
11046707 91 18341332274815461891
12107183 9 17757544158550893794
12236239 1 17894632534689629241
12553582 1 18338514265353105963
12633257 1 18273225183175168673
12757275 245 18411702088387072623
12788726 201 18407762538235424610
13140716 1 18342177816795884769
13167823 11 18259987063582771298
13583140 156 17774988065318533498
13862211 1 18340203098740486247
14386348 63 17489875938144197902
14790565 3 18052825754275068097
15042514 8 18409735067060606251
16752209 62 18337094714310894147
17492 89 18408325488669634010
17804303 29 18343020029727928417
17870717 6 18272103664314160342
18186145 218 15213019371100593120
200 152 18113620105525775712
20871999 31 18409448115531016773
21267235 1 18337117855468363659
21634736 98 18190462847066307812
21728266 224 18336814343246306162
2297311 6 18342470256676285518
23366157 5 17973159827118831941
23402539 116 18341887476953888621
23557571 272 18202292393727014108
23559900 14 18343580738104391344
23598291 2 17967532346524514582
238078 22 18341059600253348344
2748010 2 17905592656512669877
3004659 81 18187361060614369750
335352 9 18411698825293421143
4214541 1 18409449167993209028
5104073 3 18341613750024327464
559249 180 18189329083380574258
573450 72 18334570222844474794
58051976 100 18334012782912094492
602551 16 18342172267893323386
67856867 119 18261391217605356252
7364860 26 17621882419533151073
9709674 26 18271812276605957198

>  <PUBCHEM_SHAPE_MULTIPOLES>  (1) 
369.31
9.83
2.85
0.9
11.87
0.22
-0.02
-2.82
-0.99
-3.72
0.04
0.83
0.01
-0.72

>  <PUBCHEM_SHAPE_SELFOVERLAP>  (1) 
778.924

>  <PUBCHEM_SHAPE_VOLUME>  (1) 
206.4

>  <PUBCHEM_COORDINATE_TYPE>  (1) 
2
5
10

$$$$
