1823
     RDKit          3D

 22 21  0  0  1  0  0  0  0  0999 V2000
   -8.4084    1.9869    0.1513 O   0  0  0  0  0  0  0  0  0  0  0  0
    6.6320    0.2965    0.1724 C   0  0  0  0  0  0  0  0  0  0  0  0
    5.2553   -0.2783   -0.2307 C   0  0  0  0  0  0  0  0  0  0  0  0
    4.0676    0.5302    0.3010 C   0  0  0  0  0  0  0  0  0  0  0  0
    2.7392   -0.0460   -0.1958 C   0  0  0  0  0  0  0  0  0  0  0  0
    7.7395   -0.6143   -0.4061 C   0  0  0  0  0  0  0  0  0  0  0  0
    1.5530    0.7818    0.3017 C   0  0  0  0  0  0  0  0  0  0  0  0
    0.2234    0.1867   -0.1670 C   0  0  0  0  0  0  0  0  0  0  0  0
   -0.9591    1.0355    0.3040 C   0  0  0  0  0  0  0  0  0  0  0  0
    9.0897   -0.4731    0.3057 C   0  0  0  0  0  0  0  0  0  0  0  0
   -2.3205    0.4749   -0.1189 C   0  0  0  0  0  0  0  0  0  0  0  0
    6.7933    1.7483   -0.2888 C   0  0  0  0  0  0  0  0  0  0  0  0
   -3.5408    1.3143    0.2723 C   0  0  0  0  0  0  0  0  0  0  0  0
   -4.8630    0.7476   -0.2497 C   0  0  0  0  0  0  0  0  0  0  0  0
   10.1964   -1.3254   -0.3224 C   0  0  0  0  0  0  0  0  0  0  0  0
   -6.0424    1.6413    0.1448 C   0  0  0  0  0  0  0  0  0  0  0  0
   -7.3972    1.0982   -0.3264 C   0  0  0  0  0  0  0  0  0  0  0  0
   11.5474   -1.1705    0.3590 C   0  0  0  0  0  0  0  0  0  0  0  0
   -7.6864   -0.2790    0.2034 C   0  0  0  0  0  0  0  0  0  0  0  0
   -7.9556   -1.3311   -0.5818 C   0  0  0  0  0  0  0  0  0  0  0  0
   -8.2199   -2.6176   -0.0401 C   0  0  0  0  0  0  0  0  0  0  0  0
   -8.4435   -3.7070    0.4121 C   0  0  0  0  0  0  0  0  0  0  0  0
  1 17  1  0
  2  3  1  0
  2  6  1  0
  2 12  1  0
  3  4  1  0
  4  5  1  0
  5  7  1  0
  6 10  1  0
  7  8  1  0
  8  9  1  0
  9 11  1  0
 10 15  1  0
 11 13  1  0
 13 14  1  0
 14 16  1  0
 15 18  1  0
 16 17  1  0
 17 19  1  0
 19 20  2  0
 20 21  1  0
 21 22  3  0
M  END
>  <PUBCHEM_COMPOUND_CID>  (1) 
1823

>  <PUBCHEM_CONFORMER_RMSD>  (1) 
1.4

>  <PUBCHEM_CONFORMER_DIVERSEORDER>  (1) 
1
19
135
95
70
89
148
88
38
126
77
66
76
64
4
101
72
149
29
151
21
123
154
42
91
62
75
68
115
54
107
30
44
55
17
36
105
51
57
143
40
112
111
25
152
46
26
97
23
79
63
103
81
82
12
139
67
45
159
134
142
28
144
84
128
5
108
20
114
125
94
121
85
99
35
119
120
58
83
122
129
116
53
156
13
48
31
146
92
74
86
6
50
138
113
140
16
71
131
34
22
65
61
7
80
136
118
24
133
150
141
39
104
127
87
10
69
43
110
153
100
117
130
27
109
9
93
78
155
132
102
59
90
147
47
106
37
11
52
32
157
15
137
73
124
8
3
14
145
33
18
60
98
56
41
49
96
158
2

>  <PUBCHEM_MMFF94_PARTIAL_CHARGES>  (1) 
10
1 -0.68
17 0.42
19 -0.29
20 -0.09
21 -0.06
22 -0.18
57 0.15
58 0.4
59 0.15
60 0.18

>  <PUBCHEM_EFFECTIVE_ROTOR_COUNT>  (1) 
15

>  <PUBCHEM_PHARMACOPHORE_FEATURES>  (1) 
5
1 1 acceptor
1 1 donor
1 12 hydrophobe
1 18 hydrophobe
1 22 hydrophobe

>  <PUBCHEM_HEAVY_ATOM_COUNT>  (1) 
22

>  <PUBCHEM_ATOM_DEF_STEREO_COUNT>  (1) 
0

>  <PUBCHEM_ATOM_UDEF_STEREO_COUNT>  (1) 
2

>  <PUBCHEM_BOND_DEF_STEREO_COUNT>  (1) 
0

>  <PUBCHEM_BOND_UDEF_STEREO_COUNT>  (1) 
1

>  <PUBCHEM_ISOTOPIC_ATOM_COUNT>  (1) 
0

>  <PUBCHEM_COMPONENT_COUNT>  (1) 
1

>  <PUBCHEM_CACTVS_TAUTO_COUNT>  (1) 
1

>  <PUBCHEM_CONFORMER_ID>  (1) 
0000071F00000001

>  <PUBCHEM_MMFF94_ENERGY>  (1) 
9.307

>  <PUBCHEM_FEATURE_SELFOVERLAP>  (1) 
25.373

>  <PUBCHEM_SHAPE_FINGERPRINT>  (1) 
12089408 11 18334297574120853732
12498461 61 18410852166548434498
14202775 3 18343306938472232998
14251764 18 17676202472679289993
14251764 46 16805609140458578656
14428016 248 11455884785102907274
15152005 1 17832987523319250795
15461852 350 18335424586460824357
15510794 2 18411982477581160890
20721686 146 8285941059904574371
21095086 128 18334856109021545588
21102433 48 18188203210256925074
21315763 28 18410575076485289572
21362267 20 18412261748397032827
232437 2 18409449172662599194
33684 2 18411136901721236072
395649 100 17967817193472955411
57676310 188 17894627029196425059
636775 8 18409450310771235167
67123 10 18411981352152185436
8209 1 18341612594768041540
9937071 3 17489872610103901422

>  <PUBCHEM_SHAPE_MULTIPOLES>  (1) 
446.88
45.25
2.48
0.7
45.64
2.25
0.01
24.88
-0.08
-8.38
-0.21
0.03
0.04
0.16

>  <PUBCHEM_SHAPE_SELFOVERLAP>  (1) 
822.795

>  <PUBCHEM_SHAPE_VOLUME>  (1) 
281.9

>  <PUBCHEM_COORDINATE_TYPE>  (1) 
2
5
10

$$$$
