18236
     RDKit          3D

 24 26  0  0  1  0  0  0  0  0999 V2000
   -1.4887    0.2554   -0.3902 O   0  0  0  0  0  0  0  0  0  0  0  0
    0.3657   -0.4332    1.7228 O   0  0  0  0  0  0  0  0  0  0  0  0
   -0.5644   -1.8065   -0.8174 O   0  0  0  0  0  0  0  0  0  0  0  0
   -4.6996   -0.9544   -0.0400 N   0  0  0  0  0  0  0  0  0  0  0  0
   -2.6987   -0.1605   -1.0078 C   0  0  0  0  0  0  0  0  0  0  0  0
   -3.7405    0.9533   -0.9361 C   0  0  0  0  0  0  0  0  0  0  0  0
   -3.2948   -1.3268   -0.2216 C   0  0  0  0  0  0  0  0  0  0  0  0
   -4.6986    0.4947    0.1517 C   0  0  0  0  0  0  0  0  0  0  0  0
    0.7500   -0.1170    0.3692 C   0  0  0  0  0  0  0  0  0  0  0  0
   -5.3266   -1.6635    1.0649 C   0  0  0  0  0  0  0  0  0  0  0  0
   -0.4772   -0.6746   -0.3565 C   0  0  0  0  0  0  0  0  0  0  0  0
    0.9339    1.3942    0.2103 C   0  0  0  0  0  0  0  0  0  0  0  0
    2.0371   -0.8639    0.0121 C   0  0  0  0  0  0  0  0  0  0  0  0
    0.6495    1.9674   -1.0077 C   0  0  0  0  0  0  0  0  0  0  0  0
    2.9544   -1.1086    1.0080 C   0  0  0  0  0  0  0  0  0  0  0  0
    1.3759    2.1210    1.2916 C   0  0  0  0  0  0  0  0  0  0  0  0
    2.2275   -1.2624   -1.2910 C   0  0  0  0  0  0  0  0  0  0  0  0
    0.1929   -1.8273    1.8817 C   0  0  0  0  0  0  0  0  0  0  0  0
    0.8168    3.3446   -1.1525 C   0  0  0  0  0  0  0  0  0  0  0  0
    4.1274   -1.7896    0.6827 C   0  0  0  0  0  0  0  0  0  0  0  0
    1.5430    3.4982    1.1465 C   0  0  0  0  0  0  0  0  0  0  0  0
    3.4006   -1.9435   -1.6161 C   0  0  0  0  0  0  0  0  0  0  0  0
    1.2635    4.1100   -0.0755 C   0  0  0  0  0  0  0  0  0  0  0  0
    4.3506   -2.2070   -0.6292 C   0  0  0  0  0  0  0  0  0  0  0  0
  1  5  1  0
  1 11  1  0
  2  9  1  0
  2 18  1  0
  3 11  2  0
  4  7  1  0
  4  8  1  0
  4 10  1  0
  5  6  1  0
  5  7  1  0
  6  8  1  0
  9 11  1  0
  9 12  1  0
  9 13  1  0
 12 14  2  0
 12 16  1  0
 13 15  2  0
 13 17  1  0
 14 19  1  0
 15 20  1  0
 16 21  2  0
 17 22  2  0
 19 23  2  0
 20 24  2  0
 21 23  1  0
 22 24  1  0
M  END
>  <PUBCHEM_COMPOUND_CID>  (1) 
18236

>  <PUBCHEM_CONFORMER_RMSD>  (1) 
0.8

>  <PUBCHEM_CONFORMER_DIVERSEORDER>  (1) 
3
39
63
24
84
55
47
42
29
54
31
82
65
80
69
46
23
19
59
17
21
30
36
34
62
37
53
50
49
81
28
57
75
22
45
74
70
10
5
32
25
27
52
76
20
79
73
48
16
33
13
67
35
18
60
40
43
51
83
38
64
41
68
6
15
2
26
77
7
61
1
71
66
58
4
56
14
72
8
44
78
9
11
12

>  <PUBCHEM_MMFF94_PARTIAL_CHARGES>  (1) 
33
1 -0.43
10 0.27
11 0.66
12 -0.14
13 -0.14
14 -0.15
15 -0.15
16 -0.15
17 -0.15
18 0.28
19 -0.15
2 -0.56
20 -0.15
21 -0.15
22 -0.15
23 -0.15
24 -0.15
3 -0.57
35 0.15
36 0.15
37 0.15
38 0.15
4 -0.81
42 0.15
43 0.15
44 0.15
45 0.15
46 0.15
47 0.15
5 0.28
7 0.27
8 0.27
9 0.63

>  <PUBCHEM_EFFECTIVE_ROTOR_COUNT>  (1) 
7

>  <PUBCHEM_PHARMACOPHORE_FEATURES>  (1) 
6
1 2 acceptor
1 3 acceptor
1 4 cation
5 4 5 6 7 8 rings
6 12 14 16 19 21 23 rings
6 13 15 17 20 22 24 rings

>  <PUBCHEM_HEAVY_ATOM_COUNT>  (1) 
24

>  <PUBCHEM_ATOM_DEF_STEREO_COUNT>  (1) 
0

>  <PUBCHEM_ATOM_UDEF_STEREO_COUNT>  (1) 
1

>  <PUBCHEM_BOND_DEF_STEREO_COUNT>  (1) 
0

>  <PUBCHEM_BOND_UDEF_STEREO_COUNT>  (1) 
0

>  <PUBCHEM_ISOTOPIC_ATOM_COUNT>  (1) 
0

>  <PUBCHEM_COMPONENT_COUNT>  (1) 
1

>  <PUBCHEM_CACTVS_TAUTO_COUNT>  (1) 
1

>  <PUBCHEM_CONFORMER_ID>  (1) 
0000473C00000003

>  <PUBCHEM_MMFF94_ENERGY>  (1) 
88.2866

>  <PUBCHEM_FEATURE_SELFOVERLAP>  (1) 
30.448

>  <PUBCHEM_SHAPE_FINGERPRINT>  (1) 
10366900 7 17530965770422709611
11421498 54 17605838014694215337
11578080 2 17244178060172847912
12035758 1 18190447437108915296
12160290 23 17405117670313693700
12422481 6 17982130609867662368
12617007 42 18413110545797563510
12788726 201 18118967984345027954
13009979 54 17917163718777046609
13134695 92 18342451543340506372
13149001 5 18188220895618186650
133893 2 18194145077058697512
13590594 115 18338812104266250841
13681431 1 18340780311773538028
14251757 5 18047753698340130365
14347329 18 16301178378512398917
14713325 29 17695351369936892646
14950920 106 18121533304350293267
14955137 171 18341902857168556303
15238133 3 17753314388779572261
15420108 30 17770474724615684432
15806764 133 18408039598666256445
1601671 61 18196651800640382877
16945 1 17561070419786011286
17357779 13 18056458574519630884
17876694 64 17632309938206815696
1813 80 18272095954694980342
18785283 64 18267586986210562677
20600515 1 17917714578366095246
21029758 27 18411699842214155078
21033648 29 17345172429927797803
21041028 32 18342458110535509737
21049683 271 18335713792363168828
21285901 2 17771906039151087150
21304303 282 16965163451668262700
21330990 113 17699855016407612726
21503847 285 18410013230628100769
21524375 3 17615952744265368825
22182313 1 18192968513744115396
23366157 5 18190736633972379102
23419403 2 18119496956875539348
23557571 272 18054219935039245030
23558518 356 18123454244920710959
23559900 14 17749671891719691695
23566358 27 18193277618556378879
283562 15 18119251658408213226
312423 11 18270401711067877639
4409770 3 17756976810176746221
5104073 3 18339653347390027035
59755656 215 18191584361869849541
6049 1 18041267838451358805
6287921 2 18191869148529758229
6442390 28 17331127598716600409
6786 2 17469900229944846828
6823239 73 18040428915321611113
7164475 11 17975130934130081670
7364860 26 18270396229903773732
7495541 125 18261398866393295719
81228 2 18051987926371556072
9841814 1 18334566962695375954
9981440 41 17620181470254402609

>  <PUBCHEM_SHAPE_MULTIPOLES>  (1) 
471.32
8.25
4.04
1.52
9.85
5.24
-0.24
-6.85
0.17
-3.31
-0.1
-0.58
-0.22
1.16

>  <PUBCHEM_SHAPE_SELFOVERLAP>  (1) 
1019.415

>  <PUBCHEM_SHAPE_VOLUME>  (1) 
259.4

>  <PUBCHEM_COORDINATE_TYPE>  (1) 
2
5
10

$$$$
