18246
     RDKit          3D

 26 28  0  0  1  0  0  0  0  0999 V2000
   -0.9564   -0.2795   -0.1553 O   0  0  0  0  0  0  0  0  0  0  0  0
    1.1643   -0.2858   -1.7857 O   0  0  0  0  0  0  0  0  0  0  0  0
    0.2948   -1.9369    0.8328 O   0  0  0  0  0  0  0  0  0  0  0  0
   -4.6309   -0.6510    0.2184 N   0  0  0  0  0  0  0  0  0  0  0  0
   -3.3344   -0.0523   -0.1277 C   0  0  0  0  0  0  0  0  0  0  0  0
   -3.4075    0.0485   -1.6527 C   0  0  0  0  0  0  0  0  0  0  0  0
   -4.8952    0.1077   -1.9812 C   0  0  0  0  0  0  0  0  0  0  0  0
   -5.6030    0.0325   -0.6385 C   0  0  0  0  0  0  0  0  0  0  0  0
   -2.1425   -0.8852    0.3272 C   0  0  0  0  0  0  0  0  0  0  0  0
   -4.9725   -0.5134    1.6290 C   0  0  0  0  0  0  0  0  0  0  0  0
   -6.3541   -1.0762    1.9167 C   0  0  0  0  0  0  0  0  0  0  0  0
    1.4262   -0.1343   -0.3756 C   0  0  0  0  0  0  0  0  0  0  0  0
    0.2237   -0.9098    0.1684 C   0  0  0  0  0  0  0  0  0  0  0  0
    2.7796   -0.7539   -0.0190 C   0  0  0  0  0  0  0  0  0  0  0  0
    1.3899    1.3494   -0.0023 C   0  0  0  0  0  0  0  0  0  0  0  0
    2.9419   -1.3065    1.2305 C   0  0  0  0  0  0  0  0  0  0  0  0
    1.7942    2.2740   -0.9376 C   0  0  0  0  0  0  0  0  0  0  0  0
    3.7815   -0.7348   -0.9617 C   0  0  0  0  0  0  0  0  0  0  0  0
    0.9541    1.7021    1.2543 C   0  0  0  0  0  0  0  0  0  0  0  0
    1.1391   -1.6524   -2.1464 C   0  0  0  0  0  0  0  0  0  0  0  0
    4.1750   -1.8714    1.5556 C   0  0  0  0  0  0  0  0  0  0  0  0
    1.7609    3.6263   -0.5976 C   0  0  0  0  0  0  0  0  0  0  0  0
    5.0147   -1.2999   -0.6364 C   0  0  0  0  0  0  0  0  0  0  0  0
    0.9208    3.0545    1.5942 C   0  0  0  0  0  0  0  0  0  0  0  0
    5.2114   -1.8682    0.6221 C   0  0  0  0  0  0  0  0  0  0  0  0
    1.3243    4.0165    0.6683 C   0  0  0  0  0  0  0  0  0  0  0  0
  1  9  1  0
  1 13  1  0
  2 12  1  0
  2 20  1  0
  3 13  2  0
  4  5  1  0
  4  8  1  0
  4 10  1  0
  5  6  1  0
  5  9  1  0
  6  7  1  0
  7  8  1  0
 10 11  1  0
 12 13  1  0
 12 14  1  0
 12 15  1  0
 14 16  2  0
 14 18  1  0
 15 17  2  0
 15 19  1  0
 16 21  1  0
 17 22  1  0
 18 23  2  0
 19 24  2  0
 21 25  2  0
 22 26  2  0
 23 25  1  0
 24 26  1  0
M  END
>  <PUBCHEM_COMPOUND_CID>  (1) 
18246

>  <PUBCHEM_CONFORMER_RMSD>  (1) 
1

>  <PUBCHEM_CONFORMER_DIVERSEORDER>  (1) 
1
36
25
54
63
14
27
16
23
70
45
64
30
71
6
78
72
19
65
4
60
49
15
56
33
47
17
35
40
9
38
31
58
11
51
50
32
10
73
74
12
46
75
69
55
37
52
3
41
28
21
26
2
29
43
67
44
20
77
48
22
76
57
68
24
8
61
34
39
62
66
7
18
13
42
5
59
53

>  <PUBCHEM_MMFF94_PARTIAL_CHARGES>  (1) 
33
1 -0.43
10 0.27
12 0.63
13 0.66
14 -0.14
15 -0.14
16 -0.15
17 -0.15
18 -0.15
19 -0.15
2 -0.56
20 0.28
21 -0.15
22 -0.15
23 -0.15
24 -0.15
25 -0.15
26 -0.15
3 -0.57
4 -0.81
41 0.15
42 0.15
43 0.15
44 0.15
48 0.15
49 0.15
5 0.27
50 0.15
51 0.15
52 0.15
53 0.15
8 0.27
9 0.28

>  <PUBCHEM_EFFECTIVE_ROTOR_COUNT>  (1) 
9

>  <PUBCHEM_PHARMACOPHORE_FEATURES>  (1) 
6
1 2 acceptor
1 3 acceptor
1 4 cation
5 4 5 6 7 8 rings
6 14 16 18 21 23 25 rings
6 15 17 19 22 24 26 rings

>  <PUBCHEM_HEAVY_ATOM_COUNT>  (1) 
26

>  <PUBCHEM_ATOM_DEF_STEREO_COUNT>  (1) 
0

>  <PUBCHEM_ATOM_UDEF_STEREO_COUNT>  (1) 
1

>  <PUBCHEM_BOND_DEF_STEREO_COUNT>  (1) 
0

>  <PUBCHEM_BOND_UDEF_STEREO_COUNT>  (1) 
0

>  <PUBCHEM_ISOTOPIC_ATOM_COUNT>  (1) 
0

>  <PUBCHEM_COMPONENT_COUNT>  (1) 
1

>  <PUBCHEM_CACTVS_TAUTO_COUNT>  (1) 
1

>  <PUBCHEM_CONFORMER_ID>  (1) 
0000474600000001

>  <PUBCHEM_MMFF94_ENERGY>  (1) 
80.3837

>  <PUBCHEM_FEATURE_SELFOVERLAP>  (1) 
30.447

>  <PUBCHEM_SHAPE_FINGERPRINT>  (1) 
10162869 55 17917991682046903487
10165383 225 17899716826896853005
10930396 42 18052501519130843338
11265709 11 18340770351823441600
11545043 162 17603584132475486275
11578080 2 17680733688767045048
11646440 116 18412265008566270034
11796584 16 17603863343435369579
12166972 35 17967825924428921590
12403259 415 17822290219449698895
12516196 113 18410567367145308114
12616971 3 18060143167750860771
12633257 1 18273217517128017783
12788726 201 18264205812668821898
13134695 92 18341601633884862884
13583140 156 18187356637062039287
13590594 115 18342177730691278201
13782708 43 18113908195253964795
13899415 154 18409175402725530682
14347329 18 16155931822867287101
14863182 85 16917359129564710262
14950920 106 18266760107245352171
14955137 171 18411708668393690458
17349148 13 17989209243819761323
17980427 23 17274813688111676737
1813 80 18202005387117178356
18222031 100 18201431455038090598
192875 21 18131911568107013777
21033648 29 17822560699226002253
21054139 6 11026095619590296409
21065201 7 16660354901391202973
22122407 14 18199489731201029497
22393880 68 14129054833673550599
23419403 2 18055883599196155944
23557571 272 14476968921357242003
23559900 14 17022900160389411455
23569943 247 17629489583656445103
283562 15 18121214286769191050
3178227 256 18335995215837292723
3380486 77 18334861567798813714
345986 75 17826210935917138650
513202 73 17841716214574794126
5252454 2 17979361077300144789
5385378 56 18196376033728736080
5895379 119 16915687837605027481
6086070 43 18336249164727091133
6823239 73 17240759610177402613
7164475 11 18048875196321900642
7471813 234 18131343116137384569
7495541 125 18186806898000395219
8863177 126 18041571355142606739
9841814 1 18410573998347654712
9971528 1 17989199343867175498
9981440 41 17405968030751323440

>  <PUBCHEM_SHAPE_MULTIPOLES>  (1) 
512.48
11.9
3.37
1.91
16.08
4.98
0.2
-7.72
-2.11
-4.27
-0.88
1.29
-0.34
0.39

>  <PUBCHEM_SHAPE_SELFOVERLAP>  (1) 
1094.23

>  <PUBCHEM_SHAPE_VOLUME>  (1) 
285.3

>  <PUBCHEM_COORDINATE_TYPE>  (1) 
2
5
10

$$$$
