18240
     RDKit          3D

 26 28  0  0  1  0  0  0  0  0999 V2000
   -1.1799   -0.3989   -1.0573 O   0  0  0  0  0  0  0  0  0  0  0  0
    1.3809   -0.2333   -1.7984 O   0  0  0  0  0  0  0  0  0  0  0  0
   -0.2505   -1.9043    0.4119 O   0  0  0  0  0  0  0  0  0  0  0  0
   -4.3609   -0.6765    0.2466 N   0  0  0  0  0  0  0  0  0  0  0  0
   -2.4087   -1.1103   -1.0067 C   0  0  0  0  0  0  0  0  0  0  0  0
   -3.4591   -0.4159   -1.8702 C   0  0  0  0  0  0  0  0  0  0  0  0
   -2.9604   -1.0695    0.4172 C   0  0  0  0  0  0  0  0  0  0  0  0
   -4.3683    0.2728   -0.8649 C   0  0  0  0  0  0  0  0  0  0  0  0
   -4.9359   -0.1187    1.4612 C   0  0  0  0  0  0  0  0  0  0  0  0
    1.0910   -0.0255   -0.4010 C   0  0  0  0  0  0  0  0  0  0  0  0
   -0.1576   -0.9041   -0.2899 C   0  0  0  0  0  0  0  0  0  0  0  0
   -4.9441   -1.1415    2.5847 C   0  0  0  0  0  0  0  0  0  0  0  0
    2.2646   -0.4999    0.4595 C   0  0  0  0  0  0  0  0  0  0  0  0
    0.7951    1.4552   -0.1518 C   0  0  0  0  0  0  0  0  0  0  0  0
    3.5380   -0.4025   -0.0522 C   0  0  0  0  0  0  0  0  0  0  0  0
   -0.1011    1.7905    0.8368 C   0  0  0  0  0  0  0  0  0  0  0  0
    2.0006   -1.0060    1.7113 C   0  0  0  0  0  0  0  0  0  0  0  0
    1.4364    2.3944   -0.9263 C   0  0  0  0  0  0  0  0  0  0  0  0
    1.6053   -1.6034   -2.0649 C   0  0  0  0  0  0  0  0  0  0  0  0
    4.6072   -0.8352    0.7320 C   0  0  0  0  0  0  0  0  0  0  0  0
   -0.3709    3.1402    1.0636 C   0  0  0  0  0  0  0  0  0  0  0  0
    3.0700   -1.4386    2.4955 C   0  0  0  0  0  0  0  0  0  0  0  0
    1.1667    3.7439   -0.6994 C   0  0  0  0  0  0  0  0  0  0  0  0
    1.9052   -1.7764   -3.5386 C   0  0  0  0  0  0  0  0  0  0  0  0
    4.3732   -1.3533    2.0059 C   0  0  0  0  0  0  0  0  0  0  0  0
    0.2631    4.1168    0.2954 C   0  0  0  0  0  0  0  0  0  0  0  0
  1  5  1  0
  1 11  1  0
  2 10  1  0
  2 19  1  0
  3 11  2  0
  4  7  1  0
  4  8  1  0
  4  9  1  0
  5  6  1  0
  5  7  1  0
  6  8  1  0
  9 12  1  0
 10 11  1  0
 10 13  1  0
 10 14  1  0
 13 15  2  0
 13 17  1  0
 14 16  2  0
 14 18  1  0
 15 20  1  0
 16 21  1  0
 17 22  2  0
 18 23  2  0
 19 24  1  0
 20 25  2  0
 21 26  2  0
 22 25  1  0
 23 26  1  0
M  END
>  <PUBCHEM_COMPOUND_CID>  (1) 
18240

>  <PUBCHEM_CONFORMER_RMSD>  (1) 
1

>  <PUBCHEM_CONFORMER_DIVERSEORDER>  (1) 
1
6
38
12
27
37
18
31
23
8
29
32
40
26
24
14
33
46
36
10
48
34
28
42
47
22
51
50
43
7
25
44
11
30
19
15
35
4
20
13
41
21
5
49
39
16
17
3
9
45
2

>  <PUBCHEM_MMFF94_PARTIAL_CHARGES>  (1) 
33
1 -0.43
10 0.63
11 0.66
13 -0.14
14 -0.14
15 -0.15
16 -0.15
17 -0.15
18 -0.15
19 0.28
2 -0.56
20 -0.15
21 -0.15
22 -0.15
23 -0.15
25 -0.15
26 -0.15
3 -0.57
39 0.15
4 -0.81
40 0.15
41 0.15
42 0.15
45 0.15
46 0.15
47 0.15
48 0.15
5 0.28
52 0.15
53 0.15
7 0.27
8 0.27
9 0.27

>  <PUBCHEM_EFFECTIVE_ROTOR_COUNT>  (1) 
9

>  <PUBCHEM_PHARMACOPHORE_FEATURES>  (1) 
6
1 2 acceptor
1 3 acceptor
1 4 cation
5 4 5 6 7 8 rings
6 13 15 17 20 22 25 rings
6 14 16 18 21 23 26 rings

>  <PUBCHEM_HEAVY_ATOM_COUNT>  (1) 
26

>  <PUBCHEM_ATOM_DEF_STEREO_COUNT>  (1) 
0

>  <PUBCHEM_ATOM_UDEF_STEREO_COUNT>  (1) 
1

>  <PUBCHEM_BOND_DEF_STEREO_COUNT>  (1) 
0

>  <PUBCHEM_BOND_UDEF_STEREO_COUNT>  (1) 
0

>  <PUBCHEM_ISOTOPIC_ATOM_COUNT>  (1) 
0

>  <PUBCHEM_COMPONENT_COUNT>  (1) 
1

>  <PUBCHEM_CACTVS_TAUTO_COUNT>  (1) 
1

>  <PUBCHEM_CONFORMER_ID>  (1) 
0000474000000001

>  <PUBCHEM_MMFF94_ENERGY>  (1) 
81.7801

>  <PUBCHEM_FEATURE_SELFOVERLAP>  (1) 
30.447

>  <PUBCHEM_SHAPE_FINGERPRINT>  (1) 
10165383 225 17463714317270959557
10382601 240 18193844975051650761
107951 10 17322973595069132108
11578080 2 17025959001479428716
12160290 23 17836368151051316605
12166972 35 18058427946585586501
12422481 6 17917148273863497346
12549972 3 17677310810987410093
12553582 1 18412263925949394982
12633257 1 18337971064323917979
12788726 201 18336257934781044016
13004483 165 18118659072831887386
13134695 92 18266717225326842020
133893 2 17977076266035169125
13583140 156 17968932119416414439
14022347 108 18267608847747509015
14251757 17 14779552235966352265
14943834 7 17049605313183850574
14950920 106 18190200030287329667
14955137 171 18335145292842762386
15163728 17 15912205506419456232
15238133 3 18043539317873921557
15295992 7 18114169849061449509
15420108 30 17628908216856026460
1601671 61 18060138769113629476
17349148 13 17845640573458478991
17876694 64 17969502615579935044
17980427 23 17774711082228787537
1813 80 18342462516944634502
18785283 64 17533779566137773096
19078846 21 18408327661938260473
20600515 1 18413388743777758226
20739085 24 18272372013744583840
21330990 113 17203318997246701546
21524375 3 17476075108389015685
22182313 1 17914903032512469629
23175994 123 18261101950945534099
23419403 2 17172880138955389644
23559900 14 16443055128475711975
3052486 1 18194132819190184524
3380486 77 18336254670025890434
34934 24 18196356234319235044
3493558 16 15761550461836436369
394222 165 17980765161974973032
513202 73 18125439705391176498
5895379 119 17274282611575127601
59554788 62 17703506588986474047
6086070 43 18334842932383706709
6786 2 17031650300939652812
7495541 125 17894917368800309531
81228 2 18127138467602949253
8509985 295 18188757388899663669
9841814 1 18335994137293708929

>  <PUBCHEM_SHAPE_MULTIPOLES>  (1) 
512.48
8.41
3.47
2.68
7.86
5.73
0.79
-5.35
-4.76
-1.43
0.06
-0.61
-2.05
-0.22

>  <PUBCHEM_SHAPE_SELFOVERLAP>  (1) 
1095.455

>  <PUBCHEM_SHAPE_VOLUME>  (1) 
285.3

>  <PUBCHEM_COORDINATE_TYPE>  (1) 
2
5
10

$$$$
