18248
     RDKit          3D

 27 29  0  0  1  0  0  0  0  0999 V2000
    0.7167    0.1370   -0.3687 O   0  0  0  0  0  0  0  0  0  0  0  0
   -1.5195    0.0239   -1.8322 O   0  0  0  0  0  0  0  0  0  0  0  0
   -0.3854    1.9800    0.4541 O   0  0  0  0  0  0  0  0  0  0  0  0
    4.4215    0.3652   -0.3079 N   0  0  0  0  0  0  0  0  0  0  0  0
    3.0784   -0.2078   -0.4733 C   0  0  0  0  0  0  0  0  0  0  0  0
    3.0311   -0.5261   -1.9691 C   0  0  0  0  0  0  0  0  0  0  0  0
    5.2961   -0.4820   -1.1224 C   0  0  0  0  0  0  0  0  0  0  0  0
    4.4858   -0.7086   -2.3879 C   0  0  0  0  0  0  0  0  0  0  0  0
    4.8632    0.4101    1.0807 C   0  0  0  0  0  0  0  0  0  0  0  0
    1.9604    0.7418   -0.0619 C   0  0  0  0  0  0  0  0  0  0  0  0
    6.0442    1.3657    1.2304 C   0  0  0  0  0  0  0  0  0  0  0  0
    6.5385    1.4144    2.6679 C   0  0  0  0  0  0  0  0  0  0  0  0
   -1.6797    0.0865   -0.4002 C   0  0  0  0  0  0  0  0  0  0  0  0
   -0.4080    0.8672   -0.0584 C   0  0  0  0  0  0  0  0  0  0  0  0
   -2.9749    0.8200   -0.0439 C   0  0  0  0  0  0  0  0  0  0  0  0
   -1.6771   -1.3295    0.1799 C   0  0  0  0  0  0  0  0  0  0  0  0
   -3.0517    1.5695    1.1300 C   0  0  0  0  0  0  0  0  0  0  0  0
   -2.1893   -2.3903   -0.5672 C   0  0  0  0  0  0  0  0  0  0  0  0
   -4.0787    0.7393   -0.8932 C   0  0  0  0  0  0  0  0  0  0  0  0
   -1.1620   -1.5598    1.4557 C   0  0  0  0  0  0  0  0  0  0  0  0
   -1.4648    1.3229   -2.3871 C   0  0  0  0  0  0  0  0  0  0  0  0
   -4.2320    2.2382    1.4548 C   0  0  0  0  0  0  0  0  0  0  0  0
   -2.1869   -3.6811   -0.0386 C   0  0  0  0  0  0  0  0  0  0  0  0
   -5.2590    1.4081   -0.5684 C   0  0  0  0  0  0  0  0  0  0  0  0
   -1.1594   -2.8508    1.9842 C   0  0  0  0  0  0  0  0  0  0  0  0
   -5.3356    2.1575    0.6056 C   0  0  0  0  0  0  0  0  0  0  0  0
   -1.6719   -3.9114    1.2370 C   0  0  0  0  0  0  0  0  0  0  0  0
  1 10  1  0
  1 14  1  0
  2 13  1  0
  2 21  1  0
  3 14  2  0
  4  5  1  0
  4  7  1  0
  4  9  1  0
  5  6  1  0
  5 10  1  0
  6  8  1  0
  7  8  1  0
  9 11  1  0
 11 12  1  0
 13 14  1  0
 13 15  1  0
 13 16  1  0
 15 17  2  0
 15 19  1  0
 16 18  2  0
 16 20  1  0
 17 22  1  0
 18 23  1  0
 19 24  2  0
 20 25  2  0
 22 26  2  0
 23 27  2  0
 24 26  1  0
 25 27  1  0
M  END
>  <PUBCHEM_COMPOUND_CID>  (1) 
18248

>  <PUBCHEM_CONFORMER_RMSD>  (1) 
1

>  <PUBCHEM_CONFORMER_DIVERSEORDER>  (1) 
1
140
41
105
48
47
141
5
115
57
82
109
14
111
60
23
50
97
87
114
100
69
96
99
9
56
62
118
35
8
116
27
38
142
77
39
68
3
110
11
135
40
130
58
30
146
6
121
83
84
22
33
88
119
122
34
18
10
17
72
92
70
108
101
65
143
24
120
12
132
126
32
102
25
29
55
125
139
138
104
53
107
137
45
13
133
36
71
124
4
93
52
15
113
19
59
64
117
127
98
78
144
89
20
37
42
94
49
2
90
76
26
145
128
106
81
54
85
95
28
123
136
112
129
46
134
131
79
75
44
74
67
63
51
80
61
103
66
43
16
86
31
7
21
91
73

>  <PUBCHEM_MMFF94_PARTIAL_CHARGES>  (1) 
33
1 -0.43
10 0.28
13 0.63
14 0.66
15 -0.14
16 -0.14
17 -0.15
18 -0.15
19 -0.15
2 -0.56
20 -0.15
21 0.28
22 -0.15
23 -0.15
24 -0.15
25 -0.15
26 -0.15
27 -0.15
3 -0.57
4 -0.81
44 0.15
45 0.15
46 0.15
47 0.15
5 0.27
51 0.15
52 0.15
53 0.15
54 0.15
55 0.15
56 0.15
7 0.27
9 0.27

>  <PUBCHEM_EFFECTIVE_ROTOR_COUNT>  (1) 
10

>  <PUBCHEM_PHARMACOPHORE_FEATURES>  (1) 
7
1 12 hydrophobe
1 2 acceptor
1 3 acceptor
1 4 cation
5 4 5 6 7 8 rings
6 15 17 19 22 24 26 rings
6 16 18 20 23 25 27 rings

>  <PUBCHEM_HEAVY_ATOM_COUNT>  (1) 
27

>  <PUBCHEM_ATOM_DEF_STEREO_COUNT>  (1) 
0

>  <PUBCHEM_ATOM_UDEF_STEREO_COUNT>  (1) 
1

>  <PUBCHEM_BOND_DEF_STEREO_COUNT>  (1) 
0

>  <PUBCHEM_BOND_UDEF_STEREO_COUNT>  (1) 
0

>  <PUBCHEM_ISOTOPIC_ATOM_COUNT>  (1) 
0

>  <PUBCHEM_COMPONENT_COUNT>  (1) 
1

>  <PUBCHEM_CACTVS_TAUTO_COUNT>  (1) 
1

>  <PUBCHEM_CONFORMER_ID>  (1) 
0000474800000001

>  <PUBCHEM_MMFF94_ENERGY>  (1) 
76.496

>  <PUBCHEM_FEATURE_SELFOVERLAP>  (1) 
35.522

>  <PUBCHEM_SHAPE_FINGERPRINT>  (1) 
10906281 52 18201449081510507368
11135926 11 14851895820136200878
12422481 6 17023464123111063154
12616971 3 16805316717757748232
12633257 1 18040716982972855732
13004483 165 17905900523626279235
13135754 10 17461191947455393171
13533116 47 18267304223440417702
13583140 156 17131270289480271960
13726171 33 17827113811236627884
13782708 43 10953734487555933464
14468879 13 17846780702143619222
17809404 112 17988931102075022646
17980427 23 17749386040302974020
20197701 30 18336271133220890483
20554085 129 18336816490956989737
21033648 29 18335981952461791949
21424621 283 18271249305241237001
22224240 67 18335991879090711081
23559900 14 18341626893257138774
255183 313 18187359926763758265
312425 54 18335123307938590874
3383291 50 18337956791857845547
3411729 13 17753621144266005633
3729539 64 17830472586830583118
3759504 43 18041575675868759987
4015057 19 17704068499616196088
4073 2 18341613746467779178
484985 159 16298943281425549043
5080951 261 18119781798884855902
59755656 520 18335707091865942831
9981440 41 17989486337703035102

>  <PUBCHEM_SHAPE_MULTIPOLES>  (1) 
533.06
13.05
3.43
2.23
18.16
4.09
0.16
-8.9
-3.54
-4.72
-1.81
2.54
-0.11
1.9

>  <PUBCHEM_SHAPE_SELFOVERLAP>  (1) 
1126.984

>  <PUBCHEM_SHAPE_VOLUME>  (1) 
299.7

>  <PUBCHEM_COORDINATE_TYPE>  (1) 
2
5
10

$$$$
