18242
     RDKit          3D

 27 29  0  0  1  0  0  0  0  0999 V2000
   -1.2798   -0.0931    0.3102 O   0  0  0  0  0  0  0  0  0  0  0  0
    0.8029   -0.7818   -1.2206 O   0  0  0  0  0  0  0  0  0  0  0  0
    0.1081   -0.9855    1.9121 O   0  0  0  0  0  0  0  0  0  0  0  0
   -4.9094   -0.4317    1.0113 N   0  0  0  0  0  0  0  0  0  0  0  0
   -3.6671   -0.0099    0.3496 C   0  0  0  0  0  0  0  0  0  0  0  0
   -3.7775   -0.6719   -1.0255 C   0  0  0  0  0  0  0  0  0  0  0  0
   -5.2719   -0.8611   -1.2621 C   0  0  0  0  0  0  0  0  0  0  0  0
   -5.9455   -0.3080   -0.0171 C   0  0  0  0  0  0  0  0  0  0  0  0
   -2.4089   -0.4484    1.0885 C   0  0  0  0  0  0  0  0  0  0  0  0
   -5.2320    0.3595    2.1925 C   0  0  0  0  0  0  0  0  0  0  0  0
    1.0810    0.0539   -0.0786 C   0  0  0  0  0  0  0  0  0  0  0  0
   -0.0508   -0.4200    0.8367 C   0  0  0  0  0  0  0  0  0  0  0  0
    2.4828   -0.2383    0.4623 C   0  0  0  0  0  0  0  0  0  0  0  0
    0.9442    1.5262   -0.4730 C   0  0  0  0  0  0  0  0  0  0  0  0
    0.8701   -2.1493   -0.8689 C   0  0  0  0  0  0  0  0  0  0  0  0
    2.7454   -0.1071    1.8260 C   0  0  0  0  0  0  0  0  0  0  0  0
    1.2579    1.9328   -1.7700 C   0  0  0  0  0  0  0  0  0  0  0  0
    3.4975   -0.6362   -0.4082 C   0  0  0  0  0  0  0  0  0  0  0  0
    0.5053    2.4616    0.4643 C   0  0  0  0  0  0  0  0  0  0  0  0
    1.0693   -2.9727   -2.1321 C   0  0  0  0  0  0  0  0  0  0  0  0
    4.0227   -0.3735    2.3192 C   0  0  0  0  0  0  0  0  0  0  0  0
    1.1330    3.2747   -2.1296 C   0  0  0  0  0  0  0  0  0  0  0  0
    4.7748   -0.9027    0.0851 C   0  0  0  0  0  0  0  0  0  0  0  0
    0.3804    3.8034    0.1044 C   0  0  0  0  0  0  0  0  0  0  0  0
    5.0373   -0.7713    1.4487 C   0  0  0  0  0  0  0  0  0  0  0  0
    0.6942    4.2100   -1.1925 C   0  0  0  0  0  0  0  0  0  0  0  0
    1.1361   -4.4595   -1.8325 C   0  0  0  0  0  0  0  0  0  0  0  0
  1  9  1  0
  1 12  1  0
  2 11  1  0
  2 15  1  0
  3 12  2  0
  4  5  1  0
  4  8  1  0
  4 10  1  0
  5  6  1  0
  5  9  1  0
  6  7  1  0
  7  8  1  0
 11 12  1  0
 11 13  1  0
 11 14  1  0
 13 16  2  0
 13 18  1  0
 14 17  2  0
 14 19  1  0
 15 20  1  0
 16 21  1  0
 17 22  1  0
 18 23  2  0
 19 24  2  0
 20 27  1  0
 21 25  2  0
 22 26  2  0
 23 25  1  0
 24 26  1  0
M  END
>  <PUBCHEM_COMPOUND_CID>  (1) 
18242

>  <PUBCHEM_CONFORMER_RMSD>  (1) 
1

>  <PUBCHEM_CONFORMER_DIVERSEORDER>  (1) 
1
55
86
57
14
68
44
82
45
18
66
59
36
58
79
61
8
38
12
93
23
33
48
88
34
10
87
73
21
95
51
69
96
2
46
65
22
84
71
17
92
41
77
43
42
89
81
47
19
7
80
98
97
49
60
5
31
40
29
9
16
39
72
76
26
78
67
27
52
83
32
25
70
6
91
15
74
4
35
62
20
50
64
28
37
94
53
85
24
54
75
56
3
63
90
30
13
11

>  <PUBCHEM_MMFF94_PARTIAL_CHARGES>  (1) 
33
1 -0.43
10 0.27
11 0.63
12 0.66
13 -0.14
14 -0.14
15 0.28
16 -0.15
17 -0.15
18 -0.15
19 -0.15
2 -0.56
21 -0.15
22 -0.15
23 -0.15
24 -0.15
25 -0.15
26 -0.15
3 -0.57
4 -0.81
42 0.15
43 0.15
44 0.15
45 0.15
48 0.15
49 0.15
5 0.27
50 0.15
51 0.15
52 0.15
53 0.15
8 0.27
9 0.28

>  <PUBCHEM_EFFECTIVE_ROTOR_COUNT>  (1) 
10

>  <PUBCHEM_PHARMACOPHORE_FEATURES>  (1) 
7
1 2 acceptor
1 27 hydrophobe
1 3 acceptor
1 4 cation
5 4 5 6 7 8 rings
6 13 16 18 21 23 25 rings
6 14 17 19 22 24 26 rings

>  <PUBCHEM_HEAVY_ATOM_COUNT>  (1) 
27

>  <PUBCHEM_ATOM_DEF_STEREO_COUNT>  (1) 
0

>  <PUBCHEM_ATOM_UDEF_STEREO_COUNT>  (1) 
1

>  <PUBCHEM_BOND_DEF_STEREO_COUNT>  (1) 
0

>  <PUBCHEM_BOND_UDEF_STEREO_COUNT>  (1) 
0

>  <PUBCHEM_ISOTOPIC_ATOM_COUNT>  (1) 
0

>  <PUBCHEM_COMPONENT_COUNT>  (1) 
1

>  <PUBCHEM_CACTVS_TAUTO_COUNT>  (1) 
1

>  <PUBCHEM_CONFORMER_ID>  (1) 
0000474200000001

>  <PUBCHEM_MMFF94_ENERGY>  (1) 
76.7267

>  <PUBCHEM_FEATURE_SELFOVERLAP>  (1) 
35.522

>  <PUBCHEM_SHAPE_FINGERPRINT>  (1) 
10165383 225 17989486338768398962
10764073 3 16414924024299137844
10930396 42 18045187614953677672
11578080 2 17556874528790554864
12058002 1 18196121921851063978
12166972 35 18410287051920407577
12422481 6 17984406460997369306
12516196 113 18113610192778193354
12616971 3 18339646741719541843
12633257 1 18334296496168425747
12788726 201 17895189940547108112
13134695 92 18260541264155372757
14863182 85 18130799952939995350
14943834 7 17691957585426522142
14950920 106 17896909675897376841
14955137 171 18411141359032093566
15420108 30 17909255125213045360
15775530 1 17693372244511416342
15849732 13 18341325695321138518
17349148 13 18413114969819581043
17980427 23 18271518822717122011
17980427 26 17243277594688707898
1813 80 18409172077787827852
18222031 100 18408599258189289146
18365409 1 17630310068654517055
192875 21 18411420639686932105
20600515 1 17749967565183069158
20739085 24 18412265059984661756
21033648 144 18190178086940879821
21033648 29 17987497291367264753
21330990 113 18129937876200249742
22149856 69 17843985830693798395
23419403 2 18117529968917176980
23559900 14 14851604406325546979
3380486 77 17749113257817915482
340366 18 18338510970907435575
345986 75 17097184191958002200
34934 24 18189057671870719772
4340502 62 17131821084729499994
513202 73 18120367658262730410
5895379 119 17915767317678048001
6086070 43 17895457186624350941
7471813 234 18410569613297406081
7495541 125 17458633349579400467
81228 2 17902531301822767720
9971528 1 18412258458487812369
9999458 23 17489863852021844026

>  <PUBCHEM_SHAPE_MULTIPOLES>  (1) 
533.06
9.99
4.21
2.28
13.49
2.07
-0.16
-4.13
-4.77
-2.76
4.05
-0.59
-0.4
-0.61

>  <PUBCHEM_SHAPE_SELFOVERLAP>  (1) 
1126.683

>  <PUBCHEM_SHAPE_VOLUME>  (1) 
299.5

>  <PUBCHEM_COORDINATE_TYPE>  (1) 
2
5
10

$$$$
