18244
     RDKit          3D

 28 30  0  0  1  0  0  0  0  0999 V2000
    1.3387    0.1093   -0.3742 O   0  0  0  0  0  0  0  0  0  0  0  0
   -0.8134   -0.7756    0.9451 O   0  0  0  0  0  0  0  0  0  0  0  0
   -0.0562   -0.3328   -2.1483 O   0  0  0  0  0  0  0  0  0  0  0  0
    4.9608   -0.2753   -1.0903 N   0  0  0  0  0  0  0  0  0  0  0  0
    3.7273    0.0628   -0.3669 C   0  0  0  0  0  0  0  0  0  0  0  0
    3.7698   -0.8875    0.8316 C   0  0  0  0  0  0  0  0  0  0  0  0
    5.2459   -1.2086    1.0385 C   0  0  0  0  0  0  0  0  0  0  0  0
    5.9773   -0.4374   -0.0478 C   0  0  0  0  0  0  0  0  0  0  0  0
    2.4655   -0.1320   -1.1982 C   0  0  0  0  0  0  0  0  0  0  0  0
    5.3530    0.7341   -2.0664 C   0  0  0  0  0  0  0  0  0  0  0  0
   -1.0195    0.3028    0.0100 C   0  0  0  0  0  0  0  0  0  0  0  0
    0.1069   -0.0246   -0.9736 C   0  0  0  0  0  0  0  0  0  0  0  0
   -2.4216    0.2157   -0.5978 C   0  0  0  0  0  0  0  0  0  0  0  0
   -0.8140    1.6439    0.7179 C   0  0  0  0  0  0  0  0  0  0  0  0
   -0.9449   -2.0278    0.3025 C   0  0  0  0  0  0  0  0  0  0  0  0
   -1.2177   -3.0939    1.3540 C   0  0  0  0  0  0  0  0  0  0  0  0
   -2.6444    0.6550   -1.9029 C   0  0  0  0  0  0  0  0  0  0  0  0
   -1.1363    1.7761    2.0687 C   0  0  0  0  0  0  0  0  0  0  0  0
   -3.4764   -0.3034    0.1530 C   0  0  0  0  0  0  0  0  0  0  0  0
   -0.3039    2.7340    0.0127 C   0  0  0  0  0  0  0  0  0  0  0  0
   -1.3554   -4.4794    0.7292 C   0  0  0  0  0  0  0  0  0  0  0  0
   -3.9220    0.5755   -2.4571 C   0  0  0  0  0  0  0  0  0  0  0  0
   -0.9489    2.9984    2.7140 C   0  0  0  0  0  0  0  0  0  0  0  0
   -4.7540   -0.3830   -0.4014 C   0  0  0  0  0  0  0  0  0  0  0  0
   -0.1163    3.9562    0.6583 C   0  0  0  0  0  0  0  0  0  0  0  0
   -4.9767    0.0565   -1.7063 C   0  0  0  0  0  0  0  0  0  0  0  0
   -0.4388    4.0884    2.0090 C   0  0  0  0  0  0  0  0  0  0  0  0
   -1.5849   -5.5471    1.7867 C   0  0  0  0  0  0  0  0  0  0  0  0
  1  9  1  0
  1 12  1  0
  2 11  1  0
  2 15  1  0
  3 12  2  0
  4  5  1  0
  4  8  1  0
  4 10  1  0
  5  6  1  0
  5  9  1  0
  6  7  1  0
  7  8  1  0
 11 12  1  0
 11 13  1  0
 11 14  1  0
 13 17  2  0
 13 19  1  0
 14 18  2  0
 14 20  1  0
 15 16  1  0
 16 21  1  0
 17 22  1  0
 18 23  1  0
 19 24  2  0
 20 25  2  0
 21 28  1  0
 22 26  2  0
 23 27  2  0
 24 26  1  0
 25 27  1  0
M  END
>  <PUBCHEM_COMPOUND_CID>  (1) 
18244

>  <PUBCHEM_CONFORMER_RMSD>  (1) 
1

>  <PUBCHEM_CONFORMER_DIVERSEORDER>  (1) 
1
65
38
4
44
49
25
17
11
67
53
13
19
45
6
34
66
3
39
84
68
15
83
69
36
29
74
73
51
76
46
56
10
26
22
81
61
80
85
77
31
21
58
20
41
48
33
40
8
2
71
23
28
37
9
63
78
62
55
5
59
12
14
70
27
64
88
52
24
32
57
30
72
47
35
18
50
16
42
54
79
60
86
75
7
43
82
87

>  <PUBCHEM_MMFF94_PARTIAL_CHARGES>  (1) 
33
1 -0.43
10 0.27
11 0.63
12 0.66
13 -0.14
14 -0.14
15 0.28
17 -0.15
18 -0.15
19 -0.15
2 -0.56
20 -0.15
22 -0.15
23 -0.15
24 -0.15
25 -0.15
26 -0.15
27 -0.15
3 -0.57
4 -0.81
45 0.15
46 0.15
47 0.15
48 0.15
5 0.27
51 0.15
52 0.15
53 0.15
54 0.15
55 0.15
56 0.15
8 0.27
9 0.28

>  <PUBCHEM_EFFECTIVE_ROTOR_COUNT>  (1) 
11

>  <PUBCHEM_PHARMACOPHORE_FEATURES>  (1) 
7
1 2 acceptor
1 28 hydrophobe
1 3 acceptor
1 4 cation
5 4 5 6 7 8 rings
6 13 17 19 22 24 26 rings
6 14 18 20 23 25 27 rings

>  <PUBCHEM_HEAVY_ATOM_COUNT>  (1) 
28

>  <PUBCHEM_ATOM_DEF_STEREO_COUNT>  (1) 
0

>  <PUBCHEM_ATOM_UDEF_STEREO_COUNT>  (1) 
1

>  <PUBCHEM_BOND_DEF_STEREO_COUNT>  (1) 
0

>  <PUBCHEM_BOND_UDEF_STEREO_COUNT>  (1) 
0

>  <PUBCHEM_ISOTOPIC_ATOM_COUNT>  (1) 
0

>  <PUBCHEM_COMPONENT_COUNT>  (1) 
1

>  <PUBCHEM_CACTVS_TAUTO_COUNT>  (1) 
1

>  <PUBCHEM_CONFORMER_ID>  (1) 
0000474400000001

>  <PUBCHEM_MMFF94_ENERGY>  (1) 
76.4398

>  <PUBCHEM_FEATURE_SELFOVERLAP>  (1) 
35.522

>  <PUBCHEM_SHAPE_FINGERPRINT>  (1) 
10006869 2 17624426277371281041
10165383 225 18186800245871442821
10366900 7 18202847647821837682
10670039 82 18059308569843539988
11135609 149 17330255681607173711
11297750 10 17903921406912050515
11421498 54 18194671589152689913
11578080 2 17900551373702845373
12058002 1 18196682664159334813
12293681 160 18341039723439913289
12293681 25 17399213731318208959
12788726 201 18342736269876115088
13149001 5 18268135647240423795
133893 2 17246682459845716242
13911987 19 18334579027290288751
14028597 1 18269275660689337651
140371 6 18341625814740416196
14347332 77 17702385048940883894
14955137 171 17560799996008027845
15775530 1 17834104621855551547
15849732 13 16702297945850298789
17349148 13 18412550886047794484
1813 80 17774993609478104749
18681886 176 17386276701706686109
20600515 1 18338529602501946253
20602899 9 18260545593513880063
21033650 10 17772770290357060376
23402539 116 18202280269097757901
23419403 2 17909837866269693395
23558518 356 17980770337336587862
23559900 14 18336824303586682196
283562 15 18268424638104135961
298252 57 17022899038959627725
3027735 51 18194958552396160085
3178227 256 18337403707966003483
3380486 77 18260838072170351812
3411729 13 11026337392116357949
3633792 109 18043800997093001910
404807 14 16669630119053078946
469060 322 18059864926125226432
5171179 24 17909262829814714251
7226269 152 18412821365454390380
7399639 24 16773503388053180564
81228 2 18058189248755644113

>  <PUBCHEM_SHAPE_MULTIPOLES>  (1) 
553.64
9.71
5.21
2.42
14.04
4.37
0.02
2.47
5.69
-3.69
-5.87
-1.04
-1.03
0.13

>  <PUBCHEM_SHAPE_SELFOVERLAP>  (1) 
1164.618

>  <PUBCHEM_SHAPE_VOLUME>  (1) 
312.5

>  <PUBCHEM_COORDINATE_TYPE>  (1) 
2
5
10

$$$$
