18268
     RDKit          3D

 26 27  0  0  1  0  0  0  0  0999 V2000
    1.0525    0.6324    1.5698 O   0  0  0  0  0  0  0  0  0  0  0  0
   -1.0953    0.4135   -0.0023 O   0  0  0  0  0  0  0  0  0  0  0  0
    0.2674    1.6575   -1.3749 O   0  0  0  0  0  0  0  0  0  0  0  0
   -4.6925    0.9840   -0.5677 N   0  0  0  0  0  0  0  0  0  0  0  0
    1.2661    0.1143    0.2409 C   0  0  0  0  0  0  0  0  0  0  0  0
   -5.8457    0.1173   -0.3276 C   0  0  0  0  0  0  0  0  0  0  0  0
   -3.4870    0.4071    0.0262 C   0  0  0  0  0  0  0  0  0  0  0  0
    2.6594    0.5017   -0.2607 C   0  0  0  0  0  0  0  0  0  0  0  0
    1.0917   -1.4060    0.2474 C   0  0  0  0  0  0  0  0  0  0  0  0
   -2.2395    0.9879   -0.6202 C   0  0  0  0  0  0  0  0  0  0  0  0
    0.1230    0.8370   -0.4764 C   0  0  0  0  0  0  0  0  0  0  0  0
   -5.8266   -0.4037    1.1067 C   0  0  0  0  0  0  0  0  0  0  0  0
   -5.8333   -1.0335   -1.3288 C   0  0  0  0  0  0  0  0  0  0  0  0
   -4.9376    2.3216   -0.0296 C   0  0  0  0  0  0  0  0  0  0  0  0
    2.8747    0.7215   -1.6213 C   0  0  0  0  0  0  0  0  0  0  0  0
    1.4318   -2.1423    1.3823 C   0  0  0  0  0  0  0  0  0  0  0  0
    3.7139    0.6353    0.6427 C   0  0  0  0  0  0  0  0  0  0  0  0
    0.5921   -2.0557   -0.8814 C   0  0  0  0  0  0  0  0  0  0  0  0
    1.1553    2.0422    1.5802 C   0  0  0  0  0  0  0  0  0  0  0  0
    4.1442    1.0748   -2.0785 C   0  0  0  0  0  0  0  0  0  0  0  0
    1.2726   -3.5280    1.3885 C   0  0  0  0  0  0  0  0  0  0  0  0
    4.9835    0.9886    0.1853 C   0  0  0  0  0  0  0  0  0  0  0  0
    0.4328   -3.4415   -0.8753 C   0  0  0  0  0  0  0  0  0  0  0  0
    5.1986    1.2083   -1.1752 C   0  0  0  0  0  0  0  0  0  0  0  0
    0.7730   -4.1776    0.2597 C   0  0  0  0  0  0  0  0  0  0  0  0
    0.9250    2.5430    2.9901 C   0  0  0  0  0  0  0  0  0  0  0  0
  1  5  1  0
  1 19  1  0
  2 10  1  0
  2 11  1  0
  3 11  2  0
  4  6  1  0
  4  7  1  0
  4 14  1  0
  5  8  1  0
  5  9  1  0
  5 11  1  0
  6 12  1  0
  6 13  1  0
  7 10  1  0
  8 15  2  0
  8 17  1  0
  9 16  2  0
  9 18  1  0
 15 20  1  0
 16 21  1  0
 17 22  2  0
 18 23  2  0
 19 26  1  0
 20 24  2  0
 21 25  2  0
 22 24  1  0
 23 25  1  0
M  END
>  <PUBCHEM_COMPOUND_CID>  (1) 
18268

>  <PUBCHEM_CONFORMER_RMSD>  (1) 
1

>  <PUBCHEM_CONFORMER_DIVERSEORDER>  (1) 
1
74
37
27
94
50
64
62
47
89
49
10
71
22
44
51
95
32
31
17
45
42
56
65
91
79
73
20
53
66
13
75
34
48
26
63
35
23
5
81
19
90
11
87
69
58
24
93
2
83
36
29
7
77
3
40
96
25
88
39
55
12
43
46
85
84
67
59
61
41
70
54
4
14
92
21
57
82
52
28
38
16
8
86
76
78
33
15
68
80
6
9
72
60
18
30

>  <PUBCHEM_MMFF94_PARTIAL_CHARGES>  (1) 
33
1 -0.56
10 0.28
11 0.66
14 0.27
15 -0.15
16 -0.15
17 -0.15
18 -0.15
19 0.28
2 -0.43
20 -0.15
21 -0.15
22 -0.15
23 -0.15
24 -0.15
25 -0.15
3 -0.57
4 -0.81
41 0.15
42 0.15
43 0.15
44 0.15
47 0.15
48 0.15
49 0.15
5 0.63
50 0.15
51 0.15
52 0.15
6 0.27
7 0.27
8 -0.14
9 -0.14

>  <PUBCHEM_EFFECTIVE_ROTOR_COUNT>  (1) 
10

>  <PUBCHEM_PHARMACOPHORE_FEATURES>  (1) 
6
1 1 acceptor
1 3 acceptor
1 4 cation
3 6 12 13 hydrophobe
6 8 15 17 20 22 24 rings
6 9 16 18 21 23 25 rings

>  <PUBCHEM_HEAVY_ATOM_COUNT>  (1) 
26

>  <PUBCHEM_ATOM_DEF_STEREO_COUNT>  (1) 
0

>  <PUBCHEM_ATOM_UDEF_STEREO_COUNT>  (1) 
0

>  <PUBCHEM_BOND_DEF_STEREO_COUNT>  (1) 
0

>  <PUBCHEM_BOND_UDEF_STEREO_COUNT>  (1) 
0

>  <PUBCHEM_ISOTOPIC_ATOM_COUNT>  (1) 
0

>  <PUBCHEM_COMPONENT_COUNT>  (1) 
1

>  <PUBCHEM_CACTVS_TAUTO_COUNT>  (1) 
1

>  <PUBCHEM_CONFORMER_ID>  (1) 
0000475C00000001

>  <PUBCHEM_MMFF94_ENERGY>  (1) 
81.5621

>  <PUBCHEM_FEATURE_SELFOVERLAP>  (1) 
30.446

>  <PUBCHEM_SHAPE_FINGERPRINT>  (1) 
10090160 65 18114179735364060447
10366900 7 18412822513007276177
10906281 52 17604730901286107181
11405975 8 10231742410791380101
11421498 54 18341623568341022001
12293681 160 18131079220973422400
12592029 89 18040999505958288608
12788726 201 17611763588158252270
13149001 5 18057608874647326376
13257819 37 18042992989248764142
133893 2 17682988517149741962
13583140 156 18130209490375680469
14790565 3 18262242238729503493
14863182 85 18260275122253944590
15131766 46 13481131435371991574
15537594 2 18343303674312217023
15849732 13 17748827428298196156
18681886 176 18042407000647966837
20567600 347 18335988592697015478
21054139 6 18338791321082639607
21344244 181 18059594480820133494
21421861 104 18052545365607708337
21521721 280 18340214093107671536
22393880 68 18059565928187947293
22956985 138 17825939330691410698
23419403 2 14390364655593214544
23559900 14 18046334241865917133
298252 57 17895482517877290928
3178227 256 18411143575414670921
404807 78 17971193871028527963
4258327 124 17897745381954622948
4340502 62 18412545414227563742
57359948 33 17604140421261829679
70251023 43 17769955483901207286
81228 2 17616793870765839666

>  <PUBCHEM_SHAPE_MULTIPOLES>  (1) 
512.48
11.45
3.79
1.92
17.6
4.93
0.76
-5.41
-3.79
-1.31
1.32
-1.31
-0.92
-0.67

>  <PUBCHEM_SHAPE_SELFOVERLAP>  (1) 
1067.841

>  <PUBCHEM_SHAPE_VOLUME>  (1) 
291.5

>  <PUBCHEM_COORDINATE_TYPE>  (1) 
2
5
10

$$$$
