18264
     RDKit          3D

 25 26  0  0  1  0  0  0  0  0999 V2000
    0.8622   -0.5955   -1.6056 O   0  0  0  0  0  0  0  0  0  0  0  0
   -1.2989   -0.2404   -0.0772 O   0  0  0  0  0  0  0  0  0  0  0  0
   -0.0716   -1.6165    1.2969 O   0  0  0  0  0  0  0  0  0  0  0  0
   -4.9424   -0.5366    0.3947 N   0  0  0  0  0  0  0  0  0  0  0  0
    1.0839   -0.1237   -0.2609 C   0  0  0  0  0  0  0  0  0  0  0  0
    1.0295    1.4054   -0.2368 C   0  0  0  0  0  0  0  0  0  0  0  0
    2.4300   -0.6302    0.2628 C   0  0  0  0  0  0  0  0  0  0  0  0
   -0.1293   -0.7687    0.4142 C   0  0  0  0  0  0  0  0  0  0  0  0
   -3.6814   -0.0445   -0.1590 C   0  0  0  0  0  0  0  0  0  0  0  0
   -2.4992   -0.7354    0.5018 C   0  0  0  0  0  0  0  0  0  0  0  0
    0.5555    2.0690    0.8951 C   0  0  0  0  0  0  0  0  0  0  0  0
    3.4922   -0.8280   -0.6196 C   0  0  0  0  0  0  0  0  0  0  0  0
    1.4536    2.1361   -1.3468 C   0  0  0  0  0  0  0  0  0  0  0  0
    2.5945   -0.8948    1.6225 C   0  0  0  0  0  0  0  0  0  0  0  0
    0.8543   -2.0085   -1.6456 C   0  0  0  0  0  0  0  0  0  0  0  0
   -6.0304   -0.3461   -0.5637 C   0  0  0  0  0  0  0  0  0  0  0  0
    0.5056    3.4628    0.9167 C   0  0  0  0  0  0  0  0  0  0  0  0
    4.7187   -1.2900   -0.1421 C   0  0  0  0  0  0  0  0  0  0  0  0
    1.4038    3.5298   -1.3251 C   0  0  0  0  0  0  0  0  0  0  0  0
    3.8210   -1.3566    2.0999 C   0  0  0  0  0  0  0  0  0  0  0  0
   -5.2465    0.1411    1.6544 C   0  0  0  0  0  0  0  0  0  0  0  0
    0.9299    4.1931   -0.1935 C   0  0  0  0  0  0  0  0  0  0  0  0
    4.8830   -1.5543    1.2177 C   0  0  0  0  0  0  0  0  0  0  0  0
    0.6193   -2.4601   -3.0713 C   0  0  0  0  0  0  0  0  0  0  0  0
   -7.3373   -0.9074   -0.0296 C   0  0  0  0  0  0  0  0  0  0  0  0
  1  5  1  0
  1 15  1  0
  2  8  1  0
  2 10  1  0
  3  8  2  0
  4  9  1  0
  4 16  1  0
  4 21  1  0
  5  6  1  0
  5  7  1  0
  5  8  1  0
  6 11  2  0
  6 13  1  0
  7 12  2  0
  7 14  1  0
  9 10  1  0
 11 17  1  0
 12 18  1  0
 13 19  2  0
 14 20  2  0
 15 24  1  0
 16 25  1  0
 17 22  2  0
 18 23  2  0
 19 22  1  0
 20 23  1  0
M  END
>  <PUBCHEM_COMPOUND_CID>  (1) 
18264

>  <PUBCHEM_CONFORMER_RMSD>  (1) 
1

>  <PUBCHEM_CONFORMER_DIVERSEORDER>  (1) 
1
77
65
48
56
15
34
72
29
17
88
84
60
45
54
52
30
31
69
66
67
71
32
6
7
26
70
42
83
21
58
19
16
39
62
86
12
55
89
50
44
35
33
79
47
18
4
43
57
63
2
90
9
13
22
10
24
82
85
25
28
5
49
76
27
36
11
38
40
3
41
14
73
74
61
87
20
51
78
37
59
75
53
81
46
8
80
68
23
64

>  <PUBCHEM_MMFF94_PARTIAL_CHARGES>  (1) 
33
1 -0.56
10 0.28
11 -0.15
12 -0.15
13 -0.15
14 -0.15
15 0.28
16 0.27
17 -0.15
18 -0.15
19 -0.15
2 -0.43
20 -0.15
21 0.27
22 -0.15
23 -0.15
3 -0.57
30 0.15
31 0.15
32 0.15
33 0.15
38 0.15
39 0.15
4 -0.81
40 0.15
41 0.15
45 0.15
46 0.15
5 0.63
6 -0.14
7 -0.14
8 0.66
9 0.27

>  <PUBCHEM_EFFECTIVE_ROTOR_COUNT>  (1) 
10

>  <PUBCHEM_PHARMACOPHORE_FEATURES>  (1) 
5
1 1 acceptor
1 3 acceptor
1 4 cation
6 6 11 13 17 19 22 rings
6 7 12 14 18 20 23 rings

>  <PUBCHEM_HEAVY_ATOM_COUNT>  (1) 
25

>  <PUBCHEM_ATOM_DEF_STEREO_COUNT>  (1) 
0

>  <PUBCHEM_ATOM_UDEF_STEREO_COUNT>  (1) 
0

>  <PUBCHEM_BOND_DEF_STEREO_COUNT>  (1) 
0

>  <PUBCHEM_BOND_UDEF_STEREO_COUNT>  (1) 
0

>  <PUBCHEM_ISOTOPIC_ATOM_COUNT>  (1) 
0

>  <PUBCHEM_COMPONENT_COUNT>  (1) 
1

>  <PUBCHEM_CACTVS_TAUTO_COUNT>  (1) 
1

>  <PUBCHEM_CONFORMER_ID>  (1) 
0000475800000001

>  <PUBCHEM_MMFF94_ENERGY>  (1) 
75.7349

>  <PUBCHEM_FEATURE_SELFOVERLAP>  (1) 
25.372

>  <PUBCHEM_SHAPE_FINGERPRINT>  (1) 
10162869 55 18131625704749854271
10756046 70 18199460137947522486
11578080 2 17170698818937768445
12166972 35 18342736325974622849
12516196 113 18334288752004781410
12549972 3 17459200749240520265
12616971 3 18271805766226567183
12633257 1 18410857676985810719
12788726 201 18188494549991863434
13004483 165 18261943051866528058
13134695 92 18409722988979768572
13294875 104 17840870986295944800
133893 2 17467313010575864972
13590594 115 18335143059829124361
14170010 4 18337668719420614049
14863182 85 17489880327363560463
14950920 106 18044969907377406009
14955137 171 18343866627642720622
15420108 30 17698706323515979920
15849732 13 18130786784897007990
17349148 13 18202571674487100667
17980427 23 17844509188350709823
17980427 26 17825935185899620358
1813 80 18339930320212154700
18222031 100 18412263913133149386
20369508 70 18187081771654401211
20600515 1 18335714801400635186
21033648 29 17559937867006411435
22149856 69 17273716415507878907
23419403 2 18194936656991066824
23558518 356 17402040597192669372
23559900 14 16008751329828322379
283562 15 18043527201639181378
3060560 45 17987814027967589517
3178227 256 18260557723292860891
3380486 77 18260558787901314082
3411729 13 18266734873827691128
345986 75 17605814950941609698
34934 24 18338801251363265764
394222 165 18123481741111130800
465052 167 18409168809402520851
5104073 3 18264498446239600163
57359948 33 12679196981681627699
5895379 119 17630913545987778361
7471813 234 18342172276341086545
7495541 125 18041000665515263883
81228 2 17907603349003760088
8509985 295 18260828206894171163
9841814 1 18334301971734542921
9999458 23 17676766569368042411

>  <PUBCHEM_SHAPE_MULTIPOLES>  (1) 
491.9
11.15
3.75
1.99
24.81
5.68
0.76
-7.27
-3.69
-3.13
1.22
-1.22
-1.18
-0.96

>  <PUBCHEM_SHAPE_SELFOVERLAP>  (1) 
1025.095

>  <PUBCHEM_SHAPE_VOLUME>  (1) 
279.6

>  <PUBCHEM_COORDINATE_TYPE>  (1) 
2
5
10

$$$$
