18279
     RDKit          3D

 18 17  0  0  1  0  0  0  0  0999 V2000
   -3.3451    1.7054    0.0678 S   0  0  0  0  0  0  0  0  0  0  0  0
   -1.9730    2.4830    0.4770 O   0  0  0  0  0  0  0  0  0  0  0  0
   -4.2264    1.6664    1.2154 O   0  0  0  0  0  0  0  0  0  0  0  0
   -3.7878    2.1792   -1.2264 O   0  0  0  0  0  0  0  0  0  0  0  0
   -2.9943   -1.6648   -1.6773 O   0  0  0  0  0  0  0  0  0  0  0  0
   -4.8351   -0.7875   -0.6719 O   0  0  0  0  0  0  0  0  0  0  0  0
   -0.2495   -1.9185    0.3177 C   0  0  0  0  0  0  0  0  0  0  0  0
    0.8688   -1.0002    0.8146 C   0  0  0  0  0  0  0  0  0  0  0  0
   -1.5228   -1.8439    1.1661 C   0  0  0  0  0  0  0  0  0  0  0  0
    2.1439   -1.1832   -0.0115 C   0  0  0  0  0  0  0  0  0  0  0  0
   -2.2139   -0.4761    1.2150 C   0  0  0  0  0  0  0  0  0  0  0  0
    3.2531   -0.2424    0.4622 C   0  0  0  0  0  0  0  0  0  0  0  0
    4.5388   -0.4480   -0.3422 C   0  0  0  0  0  0  0  0  0  0  0  0
   -2.6261    0.0929   -0.1440 C   0  0  0  0  0  0  0  0  0  0  0  0
    5.6361    0.5172    0.1119 C   0  0  0  0  0  0  0  0  0  0  0  0
    6.9361    0.3742   -0.6826 C   0  0  0  0  0  0  0  0  0  0  0  0
   -3.6243   -0.8026   -0.8401 C   0  0  0  0  0  0  0  0  0  0  0  0
    8.0213    1.3489   -0.2518 C   0  0  0  0  0  0  0  0  0  0  0  0
  1  2  1  0
  1  3  2  0
  1  4  2  0
  1 14  1  0
  5 17  1  0
  6 17  2  0
  7  8  1  0
  7  9  1  0
  8 10  1  0
  9 11  1  0
 10 12  1  0
 11 14  1  0
 12 13  1  0
 13 15  1  0
 14 17  1  0
 15 16  1  0
 16 18  1  0
M  END
>  <PUBCHEM_COMPOUND_CID>  (1) 
18279

>  <PUBCHEM_CONFORMER_RMSD>  (1) 
1

>  <PUBCHEM_CONFORMER_DIVERSEORDER>  (1) 
1
95
153
66
174
96
127
63
70
56
31
47
181
86
64
67
146
161
177
163
38
102
116
20
115
139
46
94
175
18
125
37
16
113
68
135
183
159
168
17
82
3
117
162
99
160
172
118
10
28
112
104
167
4
134
133
124
8
126
155
73
90
72
178
158
132
180
92
142
75
179
42
22
19
43
149
9
97
170
165
24
29
157
147
54
77
84
52
128
7
27
5
156
25
13
111
140
26
129
78
59
83
71
154
44
11
166
39
109
151
145
107
53
173
45
85
34
6
114
164
79
41
55
81
137
121
103
141
57
80
12
120
2
91
62
89
143
105
122
152
65
15
123
33
130
40
50
30
138
108
110
184
60
144
98
171
169
32
35
148
150
88
36
119
176
23
131
182
101
93
14
21
100
106
87
48
58
76
51
74
69
136
49
61

>  <PUBCHEM_MMFF94_PARTIAL_CHARGES>  (1) 
10
1 1.38
14 0.17
17 0.66
2 -0.68
3 -0.65
4 -0.65
41 0.5
42 0.5
5 -0.65
6 -0.57

>  <PUBCHEM_EFFECTIVE_ROTOR_COUNT>  (1) 
11

>  <PUBCHEM_PHARMACOPHORE_FEATURES>  (1) 
8
1 18 hydrophobe
1 2 acceptor
1 3 acceptor
1 4 acceptor
1 5 acceptor
1 6 acceptor
3 5 6 17 anion
4 1 2 3 4 anion

>  <PUBCHEM_HEAVY_ATOM_COUNT>  (1) 
18

>  <PUBCHEM_ATOM_DEF_STEREO_COUNT>  (1) 
0

>  <PUBCHEM_ATOM_UDEF_STEREO_COUNT>  (1) 
1

>  <PUBCHEM_BOND_DEF_STEREO_COUNT>  (1) 
0

>  <PUBCHEM_BOND_UDEF_STEREO_COUNT>  (1) 
0

>  <PUBCHEM_ISOTOPIC_ATOM_COUNT>  (1) 
0

>  <PUBCHEM_COMPONENT_COUNT>  (1) 
1

>  <PUBCHEM_CACTVS_TAUTO_COUNT>  (1) 
1

>  <PUBCHEM_CONFORMER_ID>  (1) 
0000476700000001

>  <PUBCHEM_MMFF94_ENERGY>  (1) 
7.2857

>  <PUBCHEM_FEATURE_SELFOVERLAP>  (1) 
40.709

>  <PUBCHEM_SHAPE_FINGERPRINT>  (1) 
10291535 26 18334300889381776466
10730089 173 18342457041151534292
11089746 13 18409444826429930872
11315181 36 17895478124146534270
12507557 5 16732988643089260750
12596602 18 16950282892967577280
12895837 130 18342746208067090608
13740256 8 10015862077243169218
14251764 75 17834961867147992081
15183329 4 18113335298467093170
15348495 7 11891338677555740022
17780758 139 10737283550105458430
20058555 10 18117846727820585076
20281389 69 18040434391652703296
20300324 65 18342735208929651987
20765182 5 18261114058675217516
21054139 6 13183024004455015828
21150785 3 16916789639230502070
21403212 168 8862676724332008175
23198884 109 18409729577981813982
23402539 116 18413106156778836742
23402655 69 18202002088788244090
23557571 272 17846501434832651123
270888 7 18115867399834936749
2838139 119 18333449863867703396
351380 3 12463571781585109638
441001 317 18335142007746103530
531348 171 18202003197006377510
5486654 36 9871457755741590375
7062679 6 18186810188551817188

>  <PUBCHEM_SHAPE_MULTIPOLES>  (1) 
344.93
16.65
2.3
1.18
38.17
0.85
-0.11
8.57
-3.67
-2.63
0.13
-1.32
-0.17
-0.61

>  <PUBCHEM_SHAPE_SELFOVERLAP>  (1) 
637.667

>  <PUBCHEM_SHAPE_VOLUME>  (1) 
216.7

>  <PUBCHEM_COORDINATE_TYPE>  (1) 
2
5
10

$$$$
