18285
     RDKit          3D

 24 27  0  0  0  0  0  0  0  0999 V2000
    2.1691   -0.7573   -0.9010 N   0  0  0  0  0  0  0  0  0  0  0  0
   -4.3699   -1.5537    0.4499 N   0  0  0  0  0  0  0  0  0  0  0  0
    2.0901    1.0133    0.6461 C   0  0  0  0  0  0  0  0  0  0  0  0
    1.3397    0.0226   -0.2723 C   0  0  0  0  0  0  0  0  0  0  0  0
    3.5069    0.5991    0.3763 C   0  0  0  0  0  0  0  0  0  0  0  0
    3.4969   -0.4470   -0.5410 C   0  0  0  0  0  0  0  0  0  0  0  0
    1.8405    2.4604    0.2144 C   0  0  0  0  0  0  0  0  0  0  0  0
    1.7150    0.7944    2.1138 C   0  0  0  0  0  0  0  0  0  0  0  0
   -0.1227    0.0145   -0.3774 C   0  0  0  0  0  0  0  0  0  0  0  0
    4.6997    1.0881    0.8826 C   0  0  0  0  0  0  0  0  0  0  0  0
    4.6673   -1.0406   -0.9854 C   0  0  0  0  0  0  0  0  0  0  0  0
    1.9106   -1.8391   -1.8645 C   0  0  0  0  0  0  0  0  0  0  0  0
    5.8912    0.5032    0.4472 C   0  0  0  0  0  0  0  0  0  0  0  0
   -0.8790   -0.7395    0.4075 C   0  0  0  0  0  0  0  0  0  0  0  0
    5.8747   -0.5525   -0.4794 C   0  0  0  0  0  0  0  0  0  0  0  0
   -2.3496   -0.7886    0.3332 C   0  0  0  0  0  0  0  0  0  0  0  0
   -3.1725    0.2627   -0.0443 C   0  0  0  0  0  0  0  0  0  0  0  0
   -3.0557   -1.8902    0.6344 C   0  0  0  0  0  0  0  0  0  0  0  0
   -4.4711   -0.2448    0.0352 C   0  0  0  0  0  0  0  0  0  0  0  0
   -2.9906    1.5997   -0.4502 C   0  0  0  0  0  0  0  0  0  0  0  0
   -2.6811   -3.2475    1.0807 C   0  0  0  0  0  0  0  0  0  0  0  0
   -5.6014    0.5209   -0.2723 C   0  0  0  0  0  0  0  0  0  0  0  0
   -4.1118    2.3776   -0.7608 C   0  0  0  0  0  0  0  0  0  0  0  0
   -5.3963    1.8443   -0.6728 C   0  0  0  0  0  0  0  0  0  0  0  0
  1  4  2  0
  1  6  1  0
  1 12  1  0
  2 18  1  0
  2 19  1  0
  3  4  1  0
  3  5  1  0
  3  7  1  0
  3  8  1  0
  4  9  1  0
  5  6  2  0
  5 10  1  0
  6 11  1  0
  9 14  2  0
 10 13  2  0
 11 15  2  0
 13 15  1  0
 14 16  1  0
 16 17  1  0
 16 18  2  0
 17 19  2  0
 17 20  1  0
 18 21  1  0
 19 22  1  0
 20 23  2  0
 22 24  2  0
 23 24  1  0
M  CHG  1   1   1
M  END
>  <PUBCHEM_COMPOUND_CID>  (1) 
18285

>  <PUBCHEM_CONFORMER_RMSD>  (1) 
0.6

>  <PUBCHEM_CONFORMER_DIVERSEORDER>  (1) 
1
4
6
3
5
7
2
8
9

>  <PUBCHEM_MMFF94_PARTIAL_CHARGES>  (1) 
32
1 -0.04
10 -0.15
11 -0.15
12 0.35
13 -0.15
14 -0.1
15 -0.15
16 -0.05
18 -0.33
19 -0.15
2 0.03
20 -0.15
21 0.18
22 -0.15
23 -0.15
24 -0.15
3 0.2
31 0.15
32 0.15
33 0.15
37 0.15
38 0.15
39 0.15
4 0.32
40 0.27
41 0.15
45 0.15
46 0.15
47 0.15
5 -0.14
6 0.3
9 -0.14

>  <PUBCHEM_EFFECTIVE_ROTOR_COUNT>  (1) 
2.2

>  <PUBCHEM_PHARMACOPHORE_FEATURES>  (1) 
7
1 2 cation
1 2 donor
3 3 7 8 hydrophobe
5 1 3 4 5 6 rings
5 2 16 17 18 19 rings
6 17 19 20 22 23 24 rings
6 5 6 10 11 13 15 rings

>  <PUBCHEM_HEAVY_ATOM_COUNT>  (1) 
24

>  <PUBCHEM_ATOM_DEF_STEREO_COUNT>  (1) 
0

>  <PUBCHEM_ATOM_UDEF_STEREO_COUNT>  (1) 
0

>  <PUBCHEM_BOND_DEF_STEREO_COUNT>  (1) 
0

>  <PUBCHEM_BOND_UDEF_STEREO_COUNT>  (1) 
1

>  <PUBCHEM_ISOTOPIC_ATOM_COUNT>  (1) 
0

>  <PUBCHEM_COMPONENT_COUNT>  (1) 
1

>  <PUBCHEM_CACTVS_TAUTO_COUNT>  (1) 
1

>  <PUBCHEM_CONFORMER_ID>  (1) 
0000476D00000001

>  <PUBCHEM_MMFF94_ENERGY>  (1) 
78.9637

>  <PUBCHEM_FEATURE_SELFOVERLAP>  (1) 
35.706

>  <PUBCHEM_SHAPE_FINGERPRINT>  (1) 
10319926 262 18335688486188682936
10411042 1 17901111034476520979
10673678 19 18194130831728648572
10835480 77 18343014519449178224
11421498 54 15936683766491396460
11545043 162 18334580191305508379
11796584 16 18334297544336027858
12107183 9 17609198079289731480
12166972 35 14836110074969966185
12236239 1 16587744239418072844
12403259 415 18272650181464250528
12596602 18 16226058820357549613
12616971 3 14836126602162389603
12788726 201 18058444296978009241
13134695 92 17203326719577106656
13402501 40 18341892974364438205
13583140 156 18202001070469707263
13911987 19 17417818395640732388
140371 6 18342187634843729368
14341114 176 18409452517761933288
14386348 63 18342741810025276141
14573314 32 18410856542676282892
15042514 8 18043539511474822723
15183329 4 18336826394776683360
15788980 27 17988923387923407806
15961568 22 17969222424672514788
17349148 13 14261350275433500729
17844677 252 18261398896294387136
18608769 82 18334863844521857931
19489759 90 18335138696067842255
200 152 16630526211232791361
20645477 56 18334859398982344581
20645477 70 17489311849919019886
20681677 155 17894912927413657531
21033648 144 16343124948453132880
21033648 29 18059280041657572128
21033650 10 17533237279540629460
21065198 57 18336827597108965706
21065201 7 18334853956594396131
21133410 52 15748667712386740222
21279426 13 18267304218538432046
21709351 56 18201152243108101605
21792961 116 18200886097871905622
221357 26 18059569153429454705
23402539 116 18334852835591867047
23557571 272 18409735066522510013
23559900 14 18413103974439734305
3004659 81 18114465540427934714
3298306 158 18342177734822845079
3545911 37 18412263922050053517
4015057 19 18058719334294497785
4073 2 18259989309977482394
4214541 1 18407760348044780761
508706 21 18339637940556676951
5104073 3 18341896303106258258
5283173 99 18338797806024579944
5385378 56 18117281350887952707
542803 24 16732703848028892580
59755656 215 18410573950939607390
59755656 520 18187076235826918887
602551 16 18186800296350558274
9709674 26 18339080514099502991
9995097 60 18343019999468101788

>  <PUBCHEM_SHAPE_MULTIPOLES>  (1) 
483.95
13.84
2.48
1.25
1.67
0.6
-0.12
-2.35
1.28
-2.67
-0.18
0.75
0.25
2.54

>  <PUBCHEM_SHAPE_SELFOVERLAP>  (1) 
1076.783

>  <PUBCHEM_SHAPE_VOLUME>  (1) 
263.2

>  <PUBCHEM_COORDINATE_TYPE>  (1) 
2
5
10

$$$$
