1828
     RDKit          3D

 18 19  0  0  1  0  0  0  0  0999 V2000
   -1.4151   -0.5800   -0.8638 O   0  0  0  0  0  0  0  0  0  0  0  0
   -1.3665    2.6672    0.5921 O   0  0  0  0  0  0  0  0  0  0  0  0
   -3.4248    0.6867    1.8153 O   0  0  0  0  0  0  0  0  0  0  0  0
   -3.3686   -2.6010   -1.1192 O   0  0  0  0  0  0  0  0  0  0  0  0
    1.4337    2.3550   -1.2187 O   0  0  0  0  0  0  0  0  0  0  0  0
    2.6204   -2.4642    1.0580 O   0  0  0  0  0  0  0  0  0  0  0  0
    4.5664   -0.6371    0.3429 O   0  0  0  0  0  0  0  0  0  0  0  0
    0.6744    0.3282   -0.3401 N   0  0  0  0  0  0  0  0  0  0  0  0
    2.9887    0.8591   -0.4374 N   0  0  0  0  0  0  0  0  0  0  0  0
   -1.3691    1.2524    0.6549 C   0  0  0  0  0  0  0  0  0  0  0  0
   -2.7779    0.7114    0.5578 C   0  0  0  0  0  0  0  0  0  0  0  0
   -0.7088    0.6359   -0.5683 C   0  0  0  0  0  0  0  0  0  0  0  0
   -2.5219   -0.6943    0.0447 C   0  0  0  0  0  0  0  0  0  0  0  0
   -3.7144   -1.2998   -0.6731 C   0  0  0  0  0  0  0  0  0  0  0  0
    1.0285   -0.8857    0.2375 C   0  0  0  0  0  0  0  0  0  0  0  0
    1.6734    1.2608   -0.7036 C   0  0  0  0  0  0  0  0  0  0  0  0
    2.2872   -1.2575    0.4864 C   0  0  0  0  0  0  0  0  0  0  0  0
    3.3944   -0.3373    0.1344 C   0  0  0  0  0  0  0  0  0  0  0  0
  1 12  1  0
  1 13  1  0
  2 10  1  0
  3 11  1  0
  4 14  1  0
  5 16  2  0
  6 17  1  0
  7 18  2  0
  8 12  1  0
  8 15  1  0
  8 16  1  0
  9 16  1  0
  9 18  1  0
 10 11  1  0
 10 12  1  0
 11 13  1  0
 13 14  1  0
 15 17  2  0
 17 18  1  0
M  END
>  <PUBCHEM_COMPOUND_CID>  (1) 
1828

>  <PUBCHEM_CONFORMER_RMSD>  (1) 
0.6

>  <PUBCHEM_CONFORMER_DIVERSEORDER>  (1) 
1
86
20
26
77
91
94
79
41
93
31
14
35
85
67
97
74
71
83
11
6
99
73
23
54
12
95
27
59
82
53
88
72
92
43
98
40
81
15
3
46
47
18
96
57
28
56
42
44
66
84
37
70
76
48
38
19
7
50
5
63
55
33
22
78
10
21
80
52
2
58
75
30
65
61
34
87
32
68
49
25
69
64
4
16
51
36
29
45
39
90
8
89
9
17
60
24
13
62

>  <PUBCHEM_MMFF94_PARTIAL_CHARGES>  (1) 
24
1 -0.56
10 0.28
11 0.28
12 0.58
13 0.28
14 0.28
15 -0.04
16 0.69
17 0.09
18 0.62
2 -0.68
25 0.4
26 0.4
27 0.15
28 0.37
29 0.4
3 -0.68
30 0.45
4 -0.68
5 -0.57
6 -0.53
7 -0.57
8 -0.47
9 -0.49

>  <PUBCHEM_EFFECTIVE_ROTOR_COUNT>  (1) 
3

>  <PUBCHEM_PHARMACOPHORE_FEATURES>  (1) 
13
1 1 acceptor
1 2 acceptor
1 2 donor
1 3 acceptor
1 3 donor
1 4 acceptor
1 4 donor
1 5 acceptor
1 6 donor
1 7 acceptor
1 9 donor
5 1 10 11 12 13 rings
6 8 9 15 16 17 18 rings

>  <PUBCHEM_HEAVY_ATOM_COUNT>  (1) 
18

>  <PUBCHEM_ATOM_DEF_STEREO_COUNT>  (1) 
0

>  <PUBCHEM_ATOM_UDEF_STEREO_COUNT>  (1) 
4

>  <PUBCHEM_BOND_DEF_STEREO_COUNT>  (1) 
0

>  <PUBCHEM_BOND_UDEF_STEREO_COUNT>  (1) 
0

>  <PUBCHEM_ISOTOPIC_ATOM_COUNT>  (1) 
0

>  <PUBCHEM_COMPONENT_COUNT>  (1) 
1

>  <PUBCHEM_CACTVS_TAUTO_COUNT>  (1) 
6

>  <PUBCHEM_CONFORMER_ID>  (1) 
0000072400000001

>  <PUBCHEM_MMFF94_ENERGY>  (1) 
44.1105

>  <PUBCHEM_FEATURE_SELFOVERLAP>  (1) 
65.981

>  <PUBCHEM_SHAPE_FINGERPRINT>  (1) 
11578080 2 18196624445915475813
11769659 78 18409724075563971518
11806522 49 18337665421143868654
12251169 10 18338805511174426753
12553582 1 18187088321448021874
13538477 17 18272093790173920173
13764800 53 16343431613565645187
14787075 74 17552628562544319496
15375462 189 18411426137112831891
16945 1 18113905999781318860
19050596 39 18410298003585637920
19422 9 18343025527001328142
19433438 48 18411134718960017146
200 152 18335693970777653151
20442098 301 18340488859302955738
20645477 70 17676763287743795135
21634736 98 18193839468882166838
22112679 90 18201448020742794781
22445834 79 18335708182639754384
2255824 54 18188217618848101732
23388829 49 18408887334414923004
23402539 116 18335974303588585446
23557571 272 17418102013426042785
23598291 2 18338529602554544348
2748010 2 17475812952544136173
6992083 37 18193842535177423561
7097593 13 18267870479938135618
77492 1 18340495546514229725
90316 7 18271533009290130273

>  <PUBCHEM_SHAPE_MULTIPOLES>  (1) 
319.38
6.91
2.4
1.12
1.28
0
-0.15
2.98
-0.61
-0.48
0.17
-0.62
-0.07
-1.92

>  <PUBCHEM_SHAPE_SELFOVERLAP>  (1) 
674.043

>  <PUBCHEM_SHAPE_VOLUME>  (1) 
178.7

>  <PUBCHEM_COORDINATE_TYPE>  (1) 
2
5
10

$$$$
