1829
     RDKit          3D

 16 16  0  0  0  0  0  0  0  0999 V2000
    4.9650    1.4845    0.0440 I   0  0  0  0  0  0  0  0  0  0  0  0
    1.8190   -2.9259   -0.5605 O   0  0  0  0  0  0  0  0  0  0  0  0
   -0.1434   -2.6242    0.5462 O   0  0  0  0  0  0  0  0  0  0  0  0
   -2.2062    2.0146   -0.0462 O   0  0  0  0  0  0  0  0  0  0  0  0
   -4.5327    0.9331   -0.0578 O   0  0  0  0  0  0  0  0  0  0  0  0
   -3.6034   -1.1539   -0.0149 O   0  0  0  0  0  0  0  0  0  0  0  0
   -1.1032   -0.0734   -0.0038 N   0  0  0  0  0  0  0  0  0  0  0  0
    0.2553    0.2556    0.0071 C   0  0  0  0  0  0  0  0  0  0  0  0
    1.2346   -0.7374    0.0319 C   0  0  0  0  0  0  0  0  0  0  0  0
    0.6256    1.6002   -0.0070 C   0  0  0  0  0  0  0  0  0  0  0  0
    2.5844   -0.3855    0.0425 C   0  0  0  0  0  0  0  0  0  0  0  0
    1.9753    1.9521    0.0035 C   0  0  0  0  0  0  0  0  0  0  0  0
    2.9548    0.9591    0.0284 C   0  0  0  0  0  0  0  0  0  0  0  0
    0.8810   -2.1515    0.0478 C   0  0  0  0  0  0  0  0  0  0  0  0
   -2.1904    0.7947   -0.0282 C   0  0  0  0  0  0  0  0  0  0  0  0
   -3.5159    0.0578   -0.0330 C   0  0  0  0  0  0  0  0  0  0  0  0
  1 13  1  0
  2 14  1  0
  3 14  2  0
  4 15  2  0
  5 16  1  0
  6 16  2  0
  7  8  1  0
  7 15  1  0
  8  9  2  0
  8 10  1  0
  9 11  1  0
  9 14  1  0
 10 12  2  0
 11 13  2  0
 12 13  1  0
 15 16  1  0
M  END
>  <PUBCHEM_COMPOUND_CID>  (1) 
1829

>  <PUBCHEM_CONFORMER_RMSD>  (1) 
0.6

>  <PUBCHEM_CONFORMER_DIVERSEORDER>  (1) 
1
3
4
2

>  <PUBCHEM_MMFF94_PARTIAL_CHARGES>  (1) 
22
1 -0.08
10 -0.15
11 -0.15
12 -0.15
13 0.08
14 0.63
15 0.63
16 0.72
17 0.15
18 0.15
19 0.37
2 -0.65
20 0.15
21 0.5
22 0.5
3 -0.57
4 -0.57
5 -0.65
6 -0.57
7 -0.55
8 0.12
9 0.09

>  <PUBCHEM_EFFECTIVE_ROTOR_COUNT>  (1) 
4

>  <PUBCHEM_PHARMACOPHORE_FEATURES>  (1) 
10
1 1 hydrophobe
1 2 acceptor
1 3 acceptor
1 4 acceptor
1 5 acceptor
1 6 acceptor
1 7 donor
3 2 3 14 anion
3 5 6 16 anion
6 8 9 10 11 12 13 rings

>  <PUBCHEM_HEAVY_ATOM_COUNT>  (1) 
16

>  <PUBCHEM_ATOM_DEF_STEREO_COUNT>  (1) 
0

>  <PUBCHEM_ATOM_UDEF_STEREO_COUNT>  (1) 
0

>  <PUBCHEM_BOND_DEF_STEREO_COUNT>  (1) 
0

>  <PUBCHEM_BOND_UDEF_STEREO_COUNT>  (1) 
0

>  <PUBCHEM_ISOTOPIC_ATOM_COUNT>  (1) 
0

>  <PUBCHEM_COMPONENT_COUNT>  (1) 
1

>  <PUBCHEM_CACTVS_TAUTO_COUNT>  (1) 
3

>  <PUBCHEM_CONFORMER_ID>  (1) 
0000072500000001

>  <PUBCHEM_MMFF94_ENERGY>  (1) 
44.9368

>  <PUBCHEM_FEATURE_SELFOVERLAP>  (1) 
50.873

>  <PUBCHEM_SHAPE_FINGERPRINT>  (1) 
10608611 8 18335698278825315653
10922049 32 18341334487155999694
10967382 1 18410573972271837000
10980938 120 18411136900924612088
11471102 20 18411133615243164157
12553582 1 17545604448606459659
13140716 1 18049166866748872321
13380535 76 18337110163302950538
13836976 161 18261674869296581765
14251717 144 18410571756110955815
15196674 1 18410011048082951218
15442244 35 17981046306349789505
15536298 74 18271807874153357894
16945 1 18337683008824020576
193761 8 17834394515179360208
200 152 18201431506767699525
204376 136 18337674217136819912
20645477 70 18268705026986753951
21524375 3 18336263539502329416
221490 88 18337681818970886747
22182313 1 18196960935523497734
23402539 116 18341324604220344196
23402655 69 18341608201064003261
23526113 38 17846512456293674240
23559900 14 18124306104291006314
25 1 18410853274200843812
2748010 2 18265050224012256574
2871803 45 18339352085103448327
298252 57 18336828697301030394
3071541 37 18335707117962508166
33824 294 18408602543902690971
34934 24 18341888572418520693
352729 6 18193848260690446024
366044 4 18410009983500884528
474229 33 18338233894050796562
4990 188 17988654007923106948
5104073 3 18335988558669359881
54173680 148 17904201782360971330
58051976 378 18411698794247598029
6138700 20 18339648824757951814
69090 78 18339640169797236016
7364860 26 18269836428092633150
81228 2 17401187367183902850
81539 233 18334573529752995390
8272917 22 18340491058610944045
9709674 26 18408888408742458771

>  <PUBCHEM_SHAPE_MULTIPOLES>  (1) 
306.88
7.8
2.72
0.64
0.67
2.08
0
-4.17
-0.05
-0.47
-0.08
-0.19
0.04
0.19

>  <PUBCHEM_SHAPE_SELFOVERLAP>  (1) 
627.463

>  <PUBCHEM_SHAPE_VOLUME>  (1) 
179.7

>  <PUBCHEM_COORDINATE_TYPE>  (1) 
2
5
10

$$$$
