18292
     RDKit          3D

 41 43  0  0  1  0  0  0  0  0999 V2000
    0.0965   -2.0336   -1.0649 P   0  0  0  0  0  0  0  0  0  0  0  0
    2.0574   -0.0479    0.1509 O   0  0  0  0  0  0  0  0  0  0  0  0
    1.2068   -2.2639    0.0882 O   0  0  0  0  0  0  0  0  0  0  0  0
   -3.7666   -1.2765    0.7196 O   0  0  0  0  0  0  0  0  0  0  0  0
    4.9908   -1.9880    2.3225 O   0  0  0  0  0  0  0  0  0  0  0  0
    2.4985    1.1921   -2.2835 O   0  0  0  0  0  0  0  0  0  0  0  0
   -1.3281   -2.2170   -0.3164 O   0  0  0  0  0  0  0  0  0  0  0  0
   -5.9948   -3.0932   -0.1313 O   0  0  0  0  0  0  0  0  0  0  0  0
   -6.7534   -0.6911   -1.1764 O   0  0  0  0  0  0  0  0  0  0  0  0
    2.5276    2.3536    0.3369 O   0  0  0  0  0  0  0  0  0  0  0  0
   -0.1451   -1.7038    2.3537 O   0  0  0  0  0  0  0  0  0  0  0  0
   -0.1258    0.3944    1.4631 O   0  0  0  0  0  0  0  0  0  0  0  0
    0.1986   -3.3597   -1.9873 O   0  0  0  0  0  0  0  0  0  0  0  0
    4.4522    4.5113   -0.3158 O   0  0  0  0  0  0  0  0  0  0  0  0
    0.2417   -0.7462   -1.8245 O   0  0  0  0  0  0  0  0  0  0  0  0
    6.9783    0.7205    0.5647 O   0  0  0  0  0  0  0  0  0  0  0  0
   -6.4709    1.7909    1.0224 O   0  0  0  0  0  0  0  0  0  0  0  0
    5.6292   -0.9471   -0.3393 N   0  0  0  0  0  0  0  0  0  0  0  0
   -4.4440    0.9277    0.3352 N   0  0  0  0  0  0  0  0  0  0  0  0
   -4.8165    3.2938    0.6275 N   0  0  0  0  0  0  0  0  0  0  0  0
   -3.1177    4.8287    0.2194 N   0  0  0  0  0  0  0  0  0  0  0  0
    4.4190   -0.6382    0.3890 C   0  0  0  0  0  0  0  0  0  0  0  0
    3.2734   -0.2772   -0.5711 C   0  0  0  0  0  0  0  0  0  0  0  0
    4.0273   -1.8201    1.2851 C   0  0  0  0  0  0  0  0  0  0  0  0
    2.6676   -1.5773    1.9375 C   0  0  0  0  0  0  0  0  0  0  0  0
    1.6211   -1.1755    0.9010 C   0  0  0  0  0  0  0  0  0  0  0  0
    3.5624    1.0006   -1.3551 C   0  0  0  0  0  0  0  0  0  0  0  0
   -3.7121   -2.3994   -0.1874 C   0  0  0  0  0  0  0  0  0  0  0  0
   -5.0396   -2.3988   -0.9330 C   0  0  0  0  0  0  0  0  0  0  0  0
   -5.3727   -0.9228   -0.9863 C   0  0  0  0  0  0  0  0  0  0  0  0
    3.7171    2.2302   -0.4514 C   0  0  0  0  0  0  0  0  0  0  0  0
   -4.8800   -0.4394    0.3667 C   0  0  0  0  0  0  0  0  0  0  0  0
    0.3697   -0.7164    1.5808 C   0  0  0  0  0  0  0  0  0  0  0  0
   -2.5082   -2.2133   -1.1011 C   0  0  0  0  0  0  0  0  0  0  0  0
    3.8966    3.5461   -1.2050 C   0  0  0  0  0  0  0  0  0  0  0  0
    6.8067   -0.2366   -0.1856 C   0  0  0  0  0  0  0  0  0  0  0  0
   -3.1398    1.2020   -0.0467 C   0  0  0  0  0  0  0  0  0  0  0  0
    7.9170   -0.7830   -1.0425 C   0  0  0  0  0  0  0  0  0  0  0  0
   -5.3054    1.9996    0.6804 C   0  0  0  0  0  0  0  0  0  0  0  0
   -2.6510    2.4392   -0.1052 C   0  0  0  0  0  0  0  0  0  0  0  0
   -3.5837    3.5352    0.2655 C   0  0  0  0  0  0  0  0  0  0  0  0
  1  3  1  0
  1  7  1  0
  1 13  1  0
  1 15  2  0
  2 23  1  0
  2 26  1  0
  3 26  1  0
  4 28  1  0
  4 32  1  0
  5 24  1  0
  6 27  1  0
  7 34  1  0
  8 29  1  0
  9 30  1  0
 10 31  1  0
 11 33  1  0
 12 33  2  0
 14 35  1  0
 16 36  2  0
 17 39  2  0
 18 22  1  0
 18 36  1  0
 19 32  1  0
 19 37  1  0
 19 39  1  0
 20 39  1  0
 20 41  2  0
 21 41  1  0
 22 23  1  0
 22 24  1  0
 23 27  1  0
 24 25  1  0
 25 26  1  0
 26 33  1  0
 27 31  1  0
 28 29  1  0
 28 34  1  0
 29 30  1  0
 30 32  1  0
 31 35  1  0
 36 38  1  0
 37 40  2  0
 40 41  1  0
M  END
>  <PUBCHEM_COMPOUND_CID>  (1) 
18292

>  <PUBCHEM_CONFORMER_RMSD>  (1) 
1.4

>  <PUBCHEM_CONFORMER_DIVERSEORDER>  (1) 
1
119
13
46
133
6
39
57
108
17
16
26
27
25
126
51
110
92
71
109
78
36
38
142
82
47
66
11
87
144
54
159
43
112
31
101
37
103
64
125
129
131
45
44
140
81
35
123
76
58
91
98
137
156
65
67
4
97
75
33
88
41
2
50
85
84
113
128
94
56
10
68
152
77
149
158
53
90
116
48
138
139
122
96
124
143
62
93
22
59
42
157
74
120
106
19
141
105
114
28
95
60
154
23
15
117
153
29
70
9
150
155
18
79
86
32
135
14
40
61
7
99
160
136
100
83
111
148
55
147
20
63
69
118
102
49
30
89
107
21
146
12
80
127
73
72
145
52
5
3
151
104
34
24
8
134
130
115
132
121

>  <PUBCHEM_MMFF94_PARTIAL_CHARGES>  (1) 
53
1 1.51
10 -0.68
11 -0.65
12 -0.57
13 -0.77
14 -0.68
15 -0.7
16 -0.57
17 -0.57
18 -0.73
19 -0.47
2 -0.56
20 -0.66
21 -0.85
22 0.3
23 0.28
24 0.28
26 0.62
27 0.28
28 0.28
29 0.28
3 -0.55
30 0.28
31 0.28
32 0.58
33 0.66
34 0.28
35 0.28
36 0.57
37 -0.04
38 0.06
39 0.84
4 -0.56
40 -0.14
41 0.49
5 -0.68
52 0.37
56 0.4
59 0.4
6 -0.68
60 0.4
61 0.4
62 0.4
63 0.15
64 0.5
68 0.5
69 0.4
7 -0.55
70 0.15
71 0.4
72 0.4
8 -0.68
9 -0.68

>  <PUBCHEM_EFFECTIVE_ROTOR_COUNT>  (1) 
14.2

>  <PUBCHEM_PHARMACOPHORE_FEATURES>  (1) 
27
1 10 acceptor
1 10 donor
1 11 acceptor
1 12 acceptor
1 13 acceptor
1 14 acceptor
1 14 donor
1 15 acceptor
1 16 acceptor
1 17 acceptor
1 18 donor
1 2 acceptor
1 20 donor
1 21 donor
1 4 acceptor
1 5 acceptor
1 5 donor
1 6 acceptor
1 6 donor
1 8 acceptor
1 8 donor
1 9 acceptor
1 9 donor
3 11 12 33 anion
5 4 28 29 30 32 rings
6 19 20 37 39 40 41 rings
6 2 22 23 24 25 26 rings

>  <PUBCHEM_HEAVY_ATOM_COUNT>  (1) 
41

>  <PUBCHEM_ATOM_DEF_STEREO_COUNT>  (1) 
8

>  <PUBCHEM_ATOM_UDEF_STEREO_COUNT>  (1) 
2

>  <PUBCHEM_BOND_DEF_STEREO_COUNT>  (1) 
0

>  <PUBCHEM_BOND_UDEF_STEREO_COUNT>  (1) 
0

>  <PUBCHEM_ISOTOPIC_ATOM_COUNT>  (1) 
0

>  <PUBCHEM_COMPONENT_COUNT>  (1) 
1

>  <PUBCHEM_CACTVS_TAUTO_COUNT>  (1) 
6

>  <PUBCHEM_CONFORMER_ID>  (1) 
0000477400000001

>  <PUBCHEM_MMFF94_ENERGY>  (1) 
92.1265

>  <PUBCHEM_FEATURE_SELFOVERLAP>  (1) 
137.241

>  <PUBCHEM_SHAPE_FINGERPRINT>  (1) 
10439779 11 18196086634384168976
10670039 82 18343017783528851215
12107698 1 18408037424721629814
14294032 229 18199753557729715929
14295345 954 18410862049251669918
14739800 52 18195799893798340600
14849402 71 18113624499763181580
14856354 85 18412825807105384591
14950920 106 17821733814905436275
15001296 14 18408885157104160109
15183329 4 17894910737550386138
15297060 5 17988648432744021721
16112460 7 17822005385418920370
18681886 176 18343298163520808864
21033648 29 17631715111660575458
22122407 14 18261681444833398755
23559900 14 17986402083481803159
23569943 247 16734647716432659098
24771293 8 18334290990558637040
25223398 141 18131626777083410162
508180 173 18341062856656048560
508706 21 18201716203138784919
6036956 94 18190468349664129069
6371009 1 18340192038676959655
6700243 42 17699600187809603327

>  <PUBCHEM_SHAPE_MULTIPOLES>  (1) 
733.78
17.58
4.84
1.7
4.76
5.19
0.22
1.73
-1.19
-3.35
-0.52
1.15
-0.88
-3.23

>  <PUBCHEM_SHAPE_SELFOVERLAP>  (1) 
1524.899

>  <PUBCHEM_SHAPE_VOLUME>  (1) 
417.3

>  <PUBCHEM_COORDINATE_TYPE>  (1) 
2
5
10

$$$$
