18309
     RDKit          3D

  9  9  0  0  1  0  0  0  0  0999 V2000
   -1.1577    0.2663   -0.0188 C   0  0  0  0  0  0  0  0  0  0  0  0
    0.1445    1.0548   -0.2935 C   0  0  0  0  0  0  0  0  0  0  0  0
    1.4012    0.3884    0.2900 C   0  0  0  0  0  0  0  0  0  0  0  0
   -0.9858   -1.2038   -0.4616 C   0  0  0  0  0  0  0  0  0  0  0  0
    1.5222   -1.0626   -0.1898 C   0  0  0  0  0  0  0  0  0  0  0  0
    0.2635   -1.8688    0.1140 C   0  0  0  0  0  0  0  0  0  0  0  0
   -1.5349    0.3427    1.4735 C   0  0  0  0  0  0  0  0  0  0  0  0
   -2.3054    0.9005   -0.8278 C   0  0  0  0  0  0  0  0  0  0  0  0
    2.6524    1.1826   -0.0862 C   0  0  0  0  0  0  0  0  0  0  0  0
  1  2  1  0
  1  4  1  0
  1  7  1  0
  1  8  1  0
  2  3  1  0
  3  5  1  0
  3  9  1  0
  4  6  1  0
  5  6  1  0
M  END
>  <PUBCHEM_COMPOUND_CID>  (1) 
18309

>  <PUBCHEM_CONFORMER_RMSD>  (1) 
0.4

>  <PUBCHEM_CONFORMER_DIVERSEORDER>  (1) 
2
3
4
1

>  <PUBCHEM_MMFF94_PARTIAL_CHARGES>  (1) 
0

>  <PUBCHEM_EFFECTIVE_ROTOR_COUNT>  (1) 
1.2

>  <PUBCHEM_PHARMACOPHORE_FEATURES>  (1) 
2
3 1 7 8 hydrophobe
6 1 2 3 4 5 6 rings

>  <PUBCHEM_HEAVY_ATOM_COUNT>  (1) 
9

>  <PUBCHEM_ATOM_DEF_STEREO_COUNT>  (1) 
0

>  <PUBCHEM_ATOM_UDEF_STEREO_COUNT>  (1) 
1

>  <PUBCHEM_BOND_DEF_STEREO_COUNT>  (1) 
0

>  <PUBCHEM_BOND_UDEF_STEREO_COUNT>  (1) 
0

>  <PUBCHEM_ISOTOPIC_ATOM_COUNT>  (1) 
0

>  <PUBCHEM_COMPONENT_COUNT>  (1) 
1

>  <PUBCHEM_CACTVS_TAUTO_COUNT>  (1) 
1

>  <PUBCHEM_CONFORMER_ID>  (1) 
0000478500000002

>  <PUBCHEM_MMFF94_ENERGY>  (1) 
15.6596

>  <PUBCHEM_FEATURE_SELFOVERLAP>  (1) 
10.148

>  <PUBCHEM_SHAPE_FINGERPRINT>  (1) 
12423570 1 15389207996121312035
13024252 1 15141783172156583936
16945 1 18194402182300935714
18185500 45 18056188081784630775
21040471 1 18410567418368027708
23211744 41 17459455672486767645
23235685 24 18342740753484543768
23552423 10 18339071584472364535
241688 4 16825580394112251506
2748010 2 18409732867499358462
29004967 10 18115882814276844121
369184 2 15647601371827706228
5084963 1 18341895254938993358

>  <PUBCHEM_SHAPE_MULTIPOLES>  (1) 
185.22
2.99
1.7
0.98
0.73
0.64
-0.28
-1.25
0.21
0.35
0.15
-0.55
-0.13
0.06

>  <PUBCHEM_SHAPE_SELFOVERLAP>  (1) 
355.837

>  <PUBCHEM_SHAPE_VOLUME>  (1) 
114.7

>  <PUBCHEM_COORDINATE_TYPE>  (1) 
2
5
10

$$$$
