18308
     RDKit          3D

 49 55  0  0  0  0  0  0  0  0999 V2000
   -7.4730   -2.9367    0.0479 S   0  0  0  0  0  0  0  0  0  0  0  0
   10.7826   -1.3299   -0.0135 S   0  0  0  0  0  0  0  0  0  0  0  0
   -7.9679   -2.7850   -1.4988 O   0  0  0  0  0  0  0  0  0  0  0  0
   -7.6233   -4.3322    0.4162 O   0  0  0  0  0  0  0  0  0  0  0  0
   -8.0837   -1.8808    0.8324 O   0  0  0  0  0  0  0  0  0  0  0  0
   11.1704   -0.5084    1.3423 O   0  0  0  0  0  0  0  0  0  0  0  0
   11.2489   -2.6941    0.1606 O   0  0  0  0  0  0  0  0  0  0  0  0
   11.1889   -0.5389   -1.1605 O   0  0  0  0  0  0  0  0  0  0  0  0
   -7.3608   -0.1820   -0.4896 N   0  0  0  0  0  0  0  0  0  0  0  0
   -1.7738    0.2090   -0.4897 N   0  0  0  0  0  0  0  0  0  0  0  0
   -1.3693    0.4855    0.6622 N   0  0  0  0  0  0  0  0  0  0  0  0
    4.6451    0.7379   -0.5017 N   0  0  0  0  0  0  0  0  0  0  0  0
    4.2055    0.9450    0.6519 N   0  0  0  0  0  0  0  0  0  0  0  0
   -5.1624   -1.3319   -0.2353 C   0  0  0  0  0  0  0  0  0  0  0  0
   -3.7519   -1.2158   -0.2388 C   0  0  0  0  0  0  0  0  0  0  0  0
   -5.7476   -2.5864    0.0018 C   0  0  0  0  0  0  0  0  0  0  0  0
   -5.9461   -0.1901   -0.4682 C   0  0  0  0  0  0  0  0  0  0  0  0
   -3.1687    0.0386   -0.4754 C   0  0  0  0  0  0  0  0  0  0  0  0
   -2.9681   -2.3574   -0.0054 C   0  0  0  0  0  0  0  0  0  0  0  0
   -5.3478    1.0485   -0.7017 C   0  0  0  0  0  0  0  0  0  0  0  0
   -4.9534   -3.7101    0.2318 C   0  0  0  0  0  0  0  0  0  0  0  0
   -3.9608    1.1628   -0.7053 C   0  0  0  0  0  0  0  0  0  0  0  0
   -3.5664   -3.5959    0.2283 C   0  0  0  0  0  0  0  0  0  0  0  0
    8.2416   -0.2264   -0.2631 C   0  0  0  0  0  0  0  0  0  0  0  0
    6.8312   -0.3431   -0.2602 C   0  0  0  0  0  0  0  0  0  0  0  0
    9.0257   -1.3679   -0.0298 C   0  0  0  0  0  0  0  0  0  0  0  0
    0.6091    1.9102    0.4125 C   0  0  0  0  0  0  0  0  0  0  0  0
    2.0196    2.0263    0.4100 C   0  0  0  0  0  0  0  0  0  0  0  0
    0.0238    0.6556    0.6486 C   0  0  0  0  0  0  0  0  0  0  0  0
   -8.3095    0.8037   -0.1679 C   0  0  0  0  0  0  0  0  0  0  0  0
    6.0472    0.7985   -0.4939 C   0  0  0  0  0  0  0  0  0  0  0  0
    2.8014    0.8844    0.6436 C   0  0  0  0  0  0  0  0  0  0  0  0
    8.8264    1.0284   -0.4995 C   0  0  0  0  0  0  0  0  0  0  0  0
    6.2464   -1.5979   -0.0242 C   0  0  0  0  0  0  0  0  0  0  0  0
    8.4277   -2.6067    0.2029 C   0  0  0  0  0  0  0  0  0  0  0  0
    0.8179   -0.4683    0.8787 C   0  0  0  0  0  0  0  0  0  0  0  0
    6.6451    2.0373   -0.7270 C   0  0  0  0  0  0  0  0  0  0  0  0
    7.0407   -2.7215    0.2057 C   0  0  0  0  0  0  0  0  0  0  0  0
    2.2047   -0.3541    0.8762 C   0  0  0  0  0  0  0  0  0  0  0  0
   -0.1745    3.0520    0.1794 C   0  0  0  0  0  0  0  0  0  0  0  0
    8.0321    2.1519   -0.7298 C   0  0  0  0  0  0  0  0  0  0  0  0
    2.6049    3.2811    0.1744 C   0  0  0  0  0  0  0  0  0  0  0  0
   -9.5454    0.8289   -0.8196 C   0  0  0  0  0  0  0  0  0  0  0  0
   -8.0219    1.7644    0.8054 C   0  0  0  0  0  0  0  0  0  0  0  0
    0.4240    4.2907   -0.0529 C   0  0  0  0  0  0  0  0  0  0  0  0
    1.8109    4.4051   -0.0555 C   0  0  0  0  0  0  0  0  0  0  0  0
  -10.4866    1.8077   -0.5007 C   0  0  0  0  0  0  0  0  0  0  0  0
   -8.9631    2.7431    1.1243 C   0  0  0  0  0  0  0  0  0  0  0  0
  -10.1955    2.7647    0.4712 C   0  0  0  0  0  0  0  0  0  0  0  0
  1  3  1  0
  1  4  2  0
  1  5  2  0
  1 16  1  0
  2  6  1  0
  2  7  2  0
  2  8  2  0
  2 26  1  0
  9 17  1  0
  9 30  1  0
 10 11  2  0
 10 18  1  0
 11 29  1  0
 12 13  2  0
 12 31  1  0
 13 32  1  0
 14 15  1  0
 14 16  2  0
 14 17  1  0
 15 18  1  0
 15 19  2  0
 16 21  1  0
 17 20  2  0
 18 22  2  0
 19 23  1  0
 20 22  1  0
 21 23  2  0
 24 25  1  0
 24 26  2  0
 24 33  1  0
 25 31  1  0
 25 34  2  0
 26 35  1  0
 27 28  2  0
 27 29  1  0
 27 40  1  0
 28 32  1  0
 28 42  1  0
 29 36  2  0
 30 43  2  0
 30 44  1  0
 31 37  2  0
 32 39  2  0
 33 41  2  0
 34 38  1  0
 35 38  2  0
 36 39  1  0
 37 41  1  0
 40 45  2  0
 42 46  2  0
 43 47  1  0
 44 48  2  0
 45 46  1  0
 47 49  2  0
 48 49  1  0
M  END
>  <PUBCHEM_COMPOUND_CID>  (1) 
18308

>  <PUBCHEM_CONFORMER_RMSD>  (1) 
1.2

>  <PUBCHEM_CONFORMER_DIVERSEORDER>  (1) 
1
17
5
11
20
12
18
9
15
8
21
19
3
16
14
7
10
2
13
4
6

>  <PUBCHEM_MMFF94_PARTIAL_CHARGES>  (1) 
68
1 1.49
10 -0.18
11 -0.18
12 -0.18
13 -0.18
16 -0.01
17 0.1
18 0.18
19 -0.15
2 1.49
20 -0.15
21 -0.15
22 -0.15
23 -0.15
26 -0.01
29 0.18
3 -0.68
30 0.1
31 0.18
32 0.18
33 -0.15
34 -0.15
35 -0.15
36 -0.15
37 -0.15
38 -0.15
39 -0.15
4 -0.65
40 -0.15
41 -0.15
42 -0.15
43 -0.15
44 -0.15
45 -0.15
46 -0.15
47 -0.15
48 -0.15
49 -0.15
5 -0.65
50 0.15
51 0.15
52 0.15
53 0.15
54 0.15
55 0.4
56 0.15
57 0.15
58 0.15
59 0.15
6 -0.68
60 0.15
61 0.15
62 0.15
63 0.15
64 0.15
65 0.15
66 0.15
67 0.15
68 0.15
69 0.15
7 -0.65
70 0.5
71 0.15
72 0.15
73 0.15
74 0.5
8 -0.65
9 -0.6

>  <PUBCHEM_EFFECTIVE_ROTOR_COUNT>  (1) 
8

>  <PUBCHEM_PHARMACOPHORE_FEATURES>  (1) 
17
1 3 acceptor
1 4 acceptor
1 5 acceptor
1 6 acceptor
1 7 acceptor
1 8 acceptor
1 9 cation
1 9 donor
4 1 3 4 5 anion
4 2 6 7 8 anion
6 14 15 16 19 21 23 rings
6 14 15 17 18 20 22 rings
6 24 25 26 34 35 38 rings
6 24 25 31 33 37 41 rings
6 27 28 29 32 36 39 rings
6 27 28 40 42 45 46 rings
6 30 43 44 47 48 49 rings

>  <PUBCHEM_HEAVY_ATOM_COUNT>  (1) 
49

>  <PUBCHEM_ATOM_DEF_STEREO_COUNT>  (1) 
0

>  <PUBCHEM_ATOM_UDEF_STEREO_COUNT>  (1) 
0

>  <PUBCHEM_BOND_DEF_STEREO_COUNT>  (1) 
0

>  <PUBCHEM_BOND_UDEF_STEREO_COUNT>  (1) 
0

>  <PUBCHEM_ISOTOPIC_ATOM_COUNT>  (1) 
0

>  <PUBCHEM_COMPONENT_COUNT>  (1) 
1

>  <PUBCHEM_CACTVS_TAUTO_COUNT>  (1) 
3

>  <PUBCHEM_CONFORMER_ID>  (1) 
0000478400000001

>  <PUBCHEM_MMFF94_ENERGY>  (1) 
186.1273

>  <PUBCHEM_FEATURE_SELFOVERLAP>  (1) 
86.469

>  <PUBCHEM_SHAPE_FINGERPRINT>  (1) 
10674148 151 18409727357082516513
11410812 94 14764352584041781233
11672396 167 18341888658640230983
12089408 11 18333732450766086276
12758862 56 18411692210189431721
13811026 1 18410853296287519066
13947934 56 18411980239513342240
14400156 260 18187355524575527992
15064986 266 18187650236647056987
15065858 18 17989202673026083690
15347591 1 18194683889844528105
18603816 31 17417799673624796807
19841028 212 18408321082633789242
20105231 36 18260834847415238819
22164985 6 18260264153545702844
439807 62 18411981348179049540
58083652 198 16271924952184023442
6691757 9 15051735318121801039

>  <PUBCHEM_SHAPE_MULTIPOLES>  (1) 
955.98
44.02
5.01
0.92
36.33
0.26
-0.01
13.32
2.9
-5.57
-0.37
-0.24
-0.07
-1.41

>  <PUBCHEM_SHAPE_SELFOVERLAP>  (1) 
2138.382

>  <PUBCHEM_SHAPE_VOLUME>  (1) 
504.9

>  <PUBCHEM_COORDINATE_TYPE>  (1) 
2
5
10

$$$$
