1831
     RDKit          3D

 23 22  0  0  0  0  0  0  0  0999 V2000
    3.0667   -1.1033   -1.5186 O   0  0  0  0  0  0  0  0  0  0  0  0
    8.4839    1.6141    0.7434 O   0  0  0  0  0  0  0  0  0  0  0  0
    7.6009    1.0011   -1.2596 O   0  0  0  0  0  0  0  0  0  0  0  0
   -4.1090    3.3702   -1.0382 C   0  0  0  0  0  0  0  0  0  0  0  0
   -2.8704    2.6837   -0.4492 C   0  0  0  0  0  0  0  0  0  0  0  0
   -5.4532    2.8798   -0.4866 C   0  0  0  0  0  0  0  0  0  0  0  0
   -2.6148    2.8774    1.0460 C   0  0  0  0  0  0  0  0  0  0  0  0
   -5.6926    1.4121   -0.6819 C   0  0  0  0  0  0  0  0  0  0  0  0
   -1.3217    2.2442    1.5344 C   0  0  0  0  0  0  0  0  0  0  0  0
   -5.7952    0.5307    0.3242 C   0  0  0  0  0  0  0  0  0  0  0  0
    5.3081   -0.0800   -0.1613 C   0  0  0  0  0  0  0  0  0  0  0  0
    4.0834   -0.5739    0.6073 C   0  0  0  0  0  0  0  0  0  0  0  0
   -6.0295   -0.9365    0.1206 C   0  0  0  0  0  0  0  0  0  0  0  0
    6.3807    0.4925    0.7612 C   0  0  0  0  0  0  0  0  0  0  0  0
   -4.8584   -1.7518    0.5854 C   0  0  0  0  0  0  0  0  0  0  0  0
    2.9695   -1.0800   -0.2944 C   0  0  0  0  0  0  0  0  0  0  0  0
   -4.0513   -2.5118   -0.1716 C   0  0  0  0  0  0  0  0  0  0  0  0
   -2.8803   -3.3272    0.2929 C   0  0  0  0  0  0  0  0  0  0  0  0
    7.5328    1.0447   -0.0381 C   0  0  0  0  0  0  0  0  0  0  0  0
    1.7235   -1.5149    0.4012 C   0  0  0  0  0  0  0  0  0  0  0  0
   -1.6023   -2.8792   -0.3542 C   0  0  0  0  0  0  0  0  0  0  0  0
    0.6781   -1.9784   -0.2964 C   0  0  0  0  0  0  0  0  0  0  0  0
   -0.5488   -2.4132    0.3336 C   0  0  0  0  0  0  0  0  0  0  0  0
  1 16  2  0
  2 19  1  0
  3 19  2  0
  4  5  1  0
  4  6  1  0
  5  7  1  0
  6  8  1  0
  7  9  1  0
  8 10  2  0
 10 13  1  0
 11 12  1  0
 11 14  1  0
 12 16  1  0
 13 15  1  0
 14 19  1  0
 15 17  2  0
 16 20  1  0
 17 18  1  0
 18 21  1  0
 20 22  2  0
 21 23  2  0
 22 23  1  0
M  END
>  <PUBCHEM_COMPOUND_CID>  (1) 
1831

>  <PUBCHEM_CONFORMER_RMSD>  (1) 
1.2

>  <PUBCHEM_CONFORMER_DIVERSEORDER>  (1) 
9
47
110
164
77
80
76
152
21
90
8
42
124
163
162
72
183
131
35
17
116
84
173
74
23
56
166
139
82
176
37
157
67
44
55
171
39
132
5
111
25
75
12
19
105
26
179
62
59
73
89
69
70
46
129
180
121
57
165
48
94
71
144
154
92
22
167
114
107
24
98
158
64
137
102
68
122
51
113
85
174
108
30
134
186
31
83
106
120
155
172
34
91
79
54
153
115
32
109
184
104
147
88
11
138
38
123
146
58
135
133
41
170
169
143
61
118
14
3
168
28
125
175
126
151
119
78
159
142
93
49
45
13
178
145
96
177
148
81
63
1
140
112
97
4
36
52
181
15
101
86
99
95
66
156
130
182
65
16
160
87
185
141
40
150
100
53
128
6
18
27
117
127
136
43
103
161
33
2
29
10
50
20
60
7
149

>  <PUBCHEM_MMFF94_PARTIAL_CHARGES>  (1) 
27
1 -0.57
10 -0.29
12 0.06
13 0.28
14 0.06
15 -0.29
16 0.49
17 -0.29
18 0.28
19 0.66
2 -0.65
20 -0.14
21 -0.29
22 -0.15
23 -0.15
3 -0.57
32 0.15
36 0.15
45 0.15
46 0.15
49 0.15
50 0.15
51 0.15
52 0.15
53 0.5
6 0.14
8 -0.29

>  <PUBCHEM_EFFECTIVE_ROTOR_COUNT>  (1) 
14

>  <PUBCHEM_PHARMACOPHORE_FEATURES>  (1) 
6
1 1 acceptor
1 2 acceptor
1 3 acceptor
1 9 hydrophobe
3 2 3 19 anion
5 4 5 6 7 8 hydrophobe

>  <PUBCHEM_HEAVY_ATOM_COUNT>  (1) 
23

>  <PUBCHEM_ATOM_DEF_STEREO_COUNT>  (1) 
0

>  <PUBCHEM_ATOM_UDEF_STEREO_COUNT>  (1) 
0

>  <PUBCHEM_BOND_DEF_STEREO_COUNT>  (1) 
0

>  <PUBCHEM_BOND_UDEF_STEREO_COUNT>  (1) 
4

>  <PUBCHEM_ISOTOPIC_ATOM_COUNT>  (1) 
0

>  <PUBCHEM_COMPONENT_COUNT>  (1) 
1

>  <PUBCHEM_CACTVS_TAUTO_COUNT>  (1) 
2

>  <PUBCHEM_CONFORMER_ID>  (1) 
0000072700000009

>  <PUBCHEM_MMFF94_ENERGY>  (1) 
11.9264

>  <PUBCHEM_FEATURE_SELFOVERLAP>  (1) 
30.505

>  <PUBCHEM_SHAPE_FINGERPRINT>  (1) 
100830 39 18410292497780481600
10087517 78 18408320016648638351
10454371 7 18343868818371473164
10669705 176 18412268312102501844
10883706 163 18186516631146691069
11408170 253 18338811107881563900
13726171 33 18265617581378162545
13947920 24 18342458110809381763
14598715 104 18129932486158764306
14765038 42 17986968366820112401
15328684 2 17895737561699038168
155225 5 18338234856366668157
15604295 49 18198336467968210448
18336668 15 18187367675085214197
20765182 40 18340196410916958251
20765182 5 18335421253476597277
44249763 50 17917133005366107794
445580 37 18408893949191923910
5047190 69 18341325686573234384
57828716 94 15937551431726490596
59567204 34 18412262860897712993
636775 72 18338795727671579640

>  <PUBCHEM_SHAPE_MULTIPOLES>  (1) 
455.72
21.82
4.68
1.09
43.12
0.53
0.01
13.28
-1.19
-7.91
-0.11
0.28
0.53
1.16

>  <PUBCHEM_SHAPE_SELFOVERLAP>  (1) 
865.363

>  <PUBCHEM_SHAPE_VOLUME>  (1) 
278

>  <PUBCHEM_COORDINATE_TYPE>  (1) 
2
5
10

$$$$
