18312
     RDKit          3D

  9  8  0  0  0  0  0  0  0  0999 V2000
   -0.4893    0.1445    0.4461 C   0  0  0  0  0  0  0  0  0  0  0  0
    0.5784    1.0545   -0.2066 C   0  0  0  0  0  0  0  0  0  0  0  0
    2.0178    0.4992   -0.2359 C   0  0  0  0  0  0  0  0  0  0  0  0
   -0.7012   -1.1942   -0.2969 C   0  0  0  0  0  0  0  0  0  0  0  0
   -1.8362    0.8876    0.6072 C   0  0  0  0  0  0  0  0  0  0  0  0
    2.4692    0.1640    1.1892 C   0  0  0  0  0  0  0  0  0  0  0  0
    2.1442   -0.7420   -1.1201 C   0  0  0  0  0  0  0  0  0  0  0  0
   -1.7235   -2.1317    0.3315 C   0  0  0  0  0  0  0  0  0  0  0  0
   -2.4595    1.3182   -0.7145 C   0  0  0  0  0  0  0  0  0  0  0  0
  1  2  1  0
  1  4  1  0
  1  5  1  0
  2  3  1  0
  3  6  1  0
  3  7  1  0
  4  8  1  0
  5  9  1  0
M  END
>  <PUBCHEM_COMPOUND_CID>  (1) 
18312

>  <PUBCHEM_CONFORMER_RMSD>  (1) 
0.6

>  <PUBCHEM_CONFORMER_DIVERSEORDER>  (1) 
3
2
1

>  <PUBCHEM_MMFF94_PARTIAL_CHARGES>  (1) 
0

>  <PUBCHEM_EFFECTIVE_ROTOR_COUNT>  (1) 
4

>  <PUBCHEM_PHARMACOPHORE_FEATURES>  (1) 
4
1 8 hydrophobe
1 9 hydrophobe
3 3 6 7 hydrophobe
5 1 2 3 4 5 hydrophobe

>  <PUBCHEM_HEAVY_ATOM_COUNT>  (1) 
9

>  <PUBCHEM_ATOM_DEF_STEREO_COUNT>  (1) 
0

>  <PUBCHEM_ATOM_UDEF_STEREO_COUNT>  (1) 
0

>  <PUBCHEM_BOND_DEF_STEREO_COUNT>  (1) 
0

>  <PUBCHEM_BOND_UDEF_STEREO_COUNT>  (1) 
0

>  <PUBCHEM_ISOTOPIC_ATOM_COUNT>  (1) 
0

>  <PUBCHEM_COMPONENT_COUNT>  (1) 
1

>  <PUBCHEM_CACTVS_TAUTO_COUNT>  (1) 
1

>  <PUBCHEM_CONFORMER_ID>  (1) 
0000478800000003

>  <PUBCHEM_MMFF94_ENERGY>  (1) 
16.6607

>  <PUBCHEM_FEATURE_SELFOVERLAP>  (1) 
20.353

>  <PUBCHEM_SHAPE_FINGERPRINT>  (1) 
12138202 97 18341884208177626308
12716758 59 18412545375177296971
12932741 1 17989494030316347468
12932764 1 17968103035729597192
15310529 11 16878239596617242596
20082192 1 18339658826818808232
20711978 78 16414103891403221566
20711983 171 15864640444708388469
20711985 344 18262530306691775703
21040471 1 18337675208899640913
23235685 24 18270127815890922561
23552423 10 18115876384753019366
24536 1 18202006555274617952
2748010 2 18272662259112831422
29004967 10 17632303418699595792
5084963 1 18200882751190587509

>  <PUBCHEM_SHAPE_MULTIPOLES>  (1) 
185.22
3.75
1.78
1.07
0.74
0.83
-0.02
-0.45
0.03
-1.35
0.06
0.45
-0.01
0.46

>  <PUBCHEM_SHAPE_SELFOVERLAP>  (1) 
328.618

>  <PUBCHEM_SHAPE_VOLUME>  (1) 
123.1

>  <PUBCHEM_COORDINATE_TYPE>  (1) 
2
5
10

$$$$
