18319
     RDKit          3D

 15 14  0  0  1  0  0  0  0  0999 V2000
   -6.6976    0.3702   -0.4385 S   0  0  0  0  0  0  0  0  0  0  0  0
   -6.8463    1.4711    0.5651 O   0  0  0  0  0  0  0  0  0  0  0  0
    1.1533    0.2925   -0.1149 C   0  0  0  0  0  0  0  0  0  0  0  0
   -0.1326   -0.4909    0.1645 C   0  0  0  0  0  0  0  0  0  0  0  0
    2.4276   -0.5021    0.1844 C   0  0  0  0  0  0  0  0  0  0  0  0
   -1.4046    0.2762   -0.2034 C   0  0  0  0  0  0  0  0  0  0  0  0
    3.6775    0.3033   -0.1806 C   0  0  0  0  0  0  0  0  0  0  0  0
   -2.6582   -0.5392    0.1257 C   0  0  0  0  0  0  0  0  0  0  0  0
    4.9861   -0.4343    0.1183 C   0  0  0  0  0  0  0  0  0  0  0  0
    6.2353    0.3983   -0.1774 C   0  0  0  0  0  0  0  0  0  0  0  0
   -3.9322    0.2407   -0.2170 C   0  0  0  0  0  0  0  0  0  0  0  0
    7.5080   -0.3580    0.2064 C   0  0  0  0  0  0  0  0  0  0  0  0
   -5.2050   -0.5669    0.0109 C   0  0  0  0  0  0  0  0  0  0  0  0
    8.7516    0.4784   -0.0494 C   0  0  0  0  0  0  0  0  0  0  0  0
   -7.8629   -0.9393    0.0058 C   0  0  0  0  0  0  0  0  0  0  0  0
  1  2  2  0
  1 13  1  0
  1 15  1  0
  3  4  1  0
  3  5  1  0
  4  6  1  0
  5  7  1  0
  6  8  1  0
  7  9  1  0
  8 11  1  0
  9 10  1  0
 10 12  1  0
 11 13  1  0
 12 14  1  0
M  END
>  <PUBCHEM_COMPOUND_CID>  (1) 
18319

>  <PUBCHEM_CONFORMER_RMSD>  (1) 
1.2

>  <PUBCHEM_CONFORMER_DIVERSEORDER>  (1) 
1
89
79
30
48
128
4
3
103
124
8
117
99
38
28
33
126
110
6
75
111
112
132
92
51
104
9
46
10
21
68
73
39
86
14
47
55
2
58
141
22
90
56
62
54
152
129
40
125
100
26
136
43
16
143
120
11
109
41
107
118
20
17
59
151
98
61
15
144
12
81
76
31
18
36
57
44
72
106
70
7
96
147
142
42
50
119
102
63
34
131
5
84
97
135
71
80
122
74
37
137
67
105
25
101
121
32
35
78
60
82
127
66
27
64
83
123
52
49
138
87
19
29
116
134
150
130
45
91
85
77
13
53
114
69
148
24
95
23
65
140
153
93
88
108
94
139
133
149
146
115
113
145

>  <PUBCHEM_MMFF94_PARTIAL_CHARGES>  (1) 
4
1 0.11
13 0.19
15 0.19
2 -0.5

>  <PUBCHEM_EFFECTIVE_ROTOR_COUNT>  (1) 
11

>  <PUBCHEM_PHARMACOPHORE_FEATURES>  (1) 
2
1 14 hydrophobe
1 2 acceptor

>  <PUBCHEM_HEAVY_ATOM_COUNT>  (1) 
15

>  <PUBCHEM_ATOM_DEF_STEREO_COUNT>  (1) 
0

>  <PUBCHEM_ATOM_UDEF_STEREO_COUNT>  (1) 
1

>  <PUBCHEM_BOND_DEF_STEREO_COUNT>  (1) 
0

>  <PUBCHEM_BOND_UDEF_STEREO_COUNT>  (1) 
0

>  <PUBCHEM_ISOTOPIC_ATOM_COUNT>  (1) 
0

>  <PUBCHEM_COMPONENT_COUNT>  (1) 
1

>  <PUBCHEM_CACTVS_TAUTO_COUNT>  (1) 
1

>  <PUBCHEM_CONFORMER_ID>  (1) 
0000478F00000001

>  <PUBCHEM_MMFF94_ENERGY>  (1) 
-2.1826

>  <PUBCHEM_FEATURE_SELFOVERLAP>  (1) 
10.148

>  <PUBCHEM_SHAPE_FINGERPRINT>  (1) 
11315181 36 17561367305189776283
12091667 2 17917991681693436615
13533116 47 16950832627570139088
13885169 127 18413108342653472265
14123256 10 18411136935110160206
14251764 18 18187363220571170706
14251764 46 16732700554527506731
14729087 3 18271805701116482801
17834076 25 18408322189659191455
18006028 8 12391513087671823570
20621476 8 18260547797364684054
21150785 3 16845573119198934684
21315763 28 18410011052742123317
22224240 67 17240481425082122746
232437 2 18411982464511947790
23521765 1 18341894095482498262
246663 6 9439403545099961172
33684 2 17967531277051257967
57583515 80 18412546513760329435
59567204 34 17845939525095552241
59682541 35 18187365462739336696
67123 10 18410574010953026926
8209 1 18334012795907779086

>  <PUBCHEM_SHAPE_MULTIPOLES>  (1) 
306.67
28.64
0.93
0.67
11.52
0.08
-0.01
1.8
0.23
-1.02
0.07
-0.21
0.03
-0.34

>  <PUBCHEM_SHAPE_SELFOVERLAP>  (1) 
534.87

>  <PUBCHEM_SHAPE_VOLUME>  (1) 
202.4

>  <PUBCHEM_COORDINATE_TYPE>  (1) 
2
5
10

$$$$
