18314
     RDKit          3D

  9  8  0  0  1  0  0  0  0  0999 V2000
    0.7125    0.0185    0.3822 C   0  0  0  0  0  0  0  0  0  0  0  0
   -0.8452    0.0906    0.5198 C   0  0  0  0  0  0  0  0  0  0  0  0
    1.2951    1.2443   -0.3653 C   0  0  0  0  0  0  0  0  0  0  0  0
    1.2128   -1.2988   -0.2627 C   0  0  0  0  0  0  0  0  0  0  0  0
   -1.5822   -0.0780   -0.8257 C   0  0  0  0  0  0  0  0  0  0  0  0
   -1.2811    1.3781    1.2371 C   0  0  0  0  0  0  0  0  0  0  0  0
    2.8171    1.2505   -0.4498 C   0  0  0  0  0  0  0  0  0  0  0  0
    0.7710   -2.5652    0.4582 C   0  0  0  0  0  0  0  0  0  0  0  0
   -3.1000   -0.0400   -0.6938 C   0  0  0  0  0  0  0  0  0  0  0  0
  1  2  1  0
  1  3  1  0
  1  4  1  0
  2  5  1  0
  2  6  1  0
  3  7  1  0
  4  8  1  0
  5  9  1  0
M  END
>  <PUBCHEM_COMPOUND_CID>  (1) 
18314

>  <PUBCHEM_CONFORMER_RMSD>  (1) 
0.6

>  <PUBCHEM_CONFORMER_DIVERSEORDER>  (1) 
1
3
13
11
10
9
15
4
2
6
16
7
8
12
14
5

>  <PUBCHEM_MMFF94_PARTIAL_CHARGES>  (1) 
0

>  <PUBCHEM_EFFECTIVE_ROTOR_COUNT>  (1) 
4

>  <PUBCHEM_PHARMACOPHORE_FEATURES>  (1) 
5
1 6 hydrophobe
1 7 hydrophobe
1 8 hydrophobe
1 9 hydrophobe
5 1 2 3 4 5 hydrophobe

>  <PUBCHEM_HEAVY_ATOM_COUNT>  (1) 
9

>  <PUBCHEM_ATOM_DEF_STEREO_COUNT>  (1) 
0

>  <PUBCHEM_ATOM_UDEF_STEREO_COUNT>  (1) 
1

>  <PUBCHEM_BOND_DEF_STEREO_COUNT>  (1) 
0

>  <PUBCHEM_BOND_UDEF_STEREO_COUNT>  (1) 
0

>  <PUBCHEM_ISOTOPIC_ATOM_COUNT>  (1) 
0

>  <PUBCHEM_COMPONENT_COUNT>  (1) 
1

>  <PUBCHEM_CACTVS_TAUTO_COUNT>  (1) 
1

>  <PUBCHEM_CONFORMER_ID>  (1) 
0000478A00000001

>  <PUBCHEM_MMFF94_ENERGY>  (1) 
10.1608

>  <PUBCHEM_FEATURE_SELFOVERLAP>  (1) 
25.415

>  <PUBCHEM_SHAPE_FINGERPRINT>  (1) 
12423570 1 13806841473204774742
12897270 3 18410851109579765141
137420 1 12087505376870357658
14128692 85 18058161730884178958
18185500 45 18053383197520577299
20653085 51 17751080429959386844
20653091 64 18268426828421412331
20711985 344 16773802455010226521
21040471 1 18192425492644097396
228727 97 17988370346359642945
23211744 25 17910374414737444871
23211744 41 16951108651858869061
23235685 24 18337389456156725892
23552333 60 18272081661138582747
23552423 10 18268426845912335799
5084963 1 18342175583296819964

>  <PUBCHEM_SHAPE_MULTIPOLES>  (1) 
185.22
3.58
2.09
1.03
1.04
1.4
0.13
-1.15
-1.16
-1.23
0.41
0.41
-0.21
-0.56

>  <PUBCHEM_SHAPE_SELFOVERLAP>  (1) 
326.718

>  <PUBCHEM_SHAPE_VOLUME>  (1) 
123.7

>  <PUBCHEM_COORDINATE_TYPE>  (1) 
2
5
10

$$$$
