18327
     RDKit          3D

 13 13  0  0  0  0  0  0  0  0999 V2000
   -0.0301    4.0915   -0.0007 Br  0  0  0  0  0  0  0  0  0  0  0  0
    2.3410   -0.4485    0.0122 N   0  0  0  0  0  0  0  0  0  0  0  0
   -2.3487   -0.4753   -0.0123 N   0  0  0  0  0  0  0  0  0  0  0  0
   -0.0037   -0.4938    0.0008 N   0  0  0  0  0  0  0  0  0  0  0  0
   -1.2155    1.5773   -0.0060 N   0  0  0  0  0  0  0  0  0  0  0  0
    1.1840    1.5912    0.0064 N   0  0  0  0  0  0  0  0  0  0  0  0
    2.4492   -1.8802    0.0127 C   0  0  0  0  0  0  0  0  0  0  0  0
   -2.4119   -1.9034   -0.0129 C   0  0  0  0  0  0  0  0  0  0  0  0
    1.1330    0.2394    0.0063 C   0  0  0  0  0  0  0  0  0  0  0  0
   -1.1301    0.2373   -0.0054 C   0  0  0  0  0  0  0  0  0  0  0  0
    3.8961   -2.3273   -0.0197 C   0  0  0  0  0  0  0  0  0  0  0  0
   -3.8442   -2.3954    0.0186 C   0  0  0  0  0  0  0  0  0  0  0  0
   -0.0192    2.1873   -0.0001 C   0  0  0  0  0  0  0  0  0  0  0  0
  1 13  1  0
  2  7  1  0
  2  9  1  0
  3  8  1  0
  3 10  1  0
  4  9  2  0
  4 10  1  0
  5 10  2  0
  5 13  1  0
  6  9  1  0
  6 13  2  0
  7 11  1  0
  8 12  1  0
M  END
>  <PUBCHEM_COMPOUND_CID>  (1) 
18327

>  <PUBCHEM_CONFORMER_RMSD>  (1) 
0.6

>  <PUBCHEM_CONFORMER_DIVERSEORDER>  (1) 
1
10
13
2
15
12
7
6
11
4
9
16
8
14
5
3

>  <PUBCHEM_MMFF94_PARTIAL_CHARGES>  (1) 
13
1 -0.11
10 0.72
13 0.73
18 0.4
19 0.4
2 -0.87
3 -0.87
4 -0.62
5 -0.62
6 -0.62
7 0.37
8 0.37
9 0.72

>  <PUBCHEM_EFFECTIVE_ROTOR_COUNT>  (1) 
4

>  <PUBCHEM_PHARMACOPHORE_FEATURES>  (1) 
6
1 1 hydrophobe
1 2 donor
1 3 donor
4 2 4 6 9 cation
4 3 4 5 10 cation
6 4 5 6 9 10 13 rings

>  <PUBCHEM_HEAVY_ATOM_COUNT>  (1) 
13

>  <PUBCHEM_ATOM_DEF_STEREO_COUNT>  (1) 
0

>  <PUBCHEM_ATOM_UDEF_STEREO_COUNT>  (1) 
0

>  <PUBCHEM_BOND_DEF_STEREO_COUNT>  (1) 
0

>  <PUBCHEM_BOND_UDEF_STEREO_COUNT>  (1) 
0

>  <PUBCHEM_ISOTOPIC_ATOM_COUNT>  (1) 
0

>  <PUBCHEM_COMPONENT_COUNT>  (1) 
1

>  <PUBCHEM_CACTVS_TAUTO_COUNT>  (1) 
5

>  <PUBCHEM_CONFORMER_ID>  (1) 
0000479700000001

>  <PUBCHEM_MMFF94_ENERGY>  (1) 
27.0991

>  <PUBCHEM_FEATURE_SELFOVERLAP>  (1) 
30.488

>  <PUBCHEM_SHAPE_FINGERPRINT>  (1) 
1 1 17761773270607013149
12500047 106 17690555287426466618
15042514 8 18193844734538315363
15442244 35 18412550937887835219
19021347 4 17546729253069281761
20510252 161 17623565346422725440
20524608 308 17907297650522172122
20645476 183 17397855391912152774
20645477 70 17975683198273786551
20671657 53 18412265068727518687
20871998 184 18057881351372211342
20871998 22 18411416249744928714
21426921 1 18194404390610672566
21665056 4 17545038199975450958
2255824 54 17979640361505456567
23402539 116 17982155730788608109
23530152 11 17112976820737960581
23557571 272 17913491238740571254
23559900 14 17550941491803297010
257057 1 18410852161593304461
2748010 2 18340755001140911692
3091708 16 9209549526494898209
54173680 148 18266458711186805345
7364860 26 18051131685543307057
81228 2 18195231239885795945
81539 233 17542496584643240493

>  <PUBCHEM_SHAPE_MULTIPOLES>  (1) 
248.57
5.14
4.66
0.6
0.41
4.7
0
-7.93
0
-0.31
0
0
0.04
0.02

>  <PUBCHEM_SHAPE_SELFOVERLAP>  (1) 
477.703

>  <PUBCHEM_SHAPE_VOLUME>  (1) 
154.8

>  <PUBCHEM_COORDINATE_TYPE>  (1) 
2
5
10

$$$$
