18320
     RDKit          3D

 22 22  0  0  1  0  0  0  0  0999 V2000
   -2.6792   -0.7526    0.2600 N   0  0  0  0  0  0  0  0  0  0  0  0
    2.6946    0.7631    0.2509 N   0  0  0  0  0  0  0  0  0  0  0  0
   -4.9497   -0.8940   -0.6352 C   0  0  0  0  0  0  0  0  0  0  0  0
    4.9481    0.8783   -0.6515 C   0  0  0  0  0  0  0  0  0  0  0  0
   -5.3557    0.4806   -0.0853 C   0  0  0  0  0  0  0  0  0  0  0  0
    5.3586   -0.4818   -0.0698 C   0  0  0  0  0  0  0  0  0  0  0  0
   -3.4484   -0.9818   -0.9453 C   0  0  0  0  0  0  0  0  0  0  0  0
    3.4444    0.9586   -0.9512 C   0  0  0  0  0  0  0  0  0  0  0  0
   -6.8628    0.5998    0.2111 C   0  0  0  0  0  0  0  0  0  0  0  0
    6.8680   -0.5936    0.2170 C   0  0  0  0  0  0  0  0  0  0  0  0
   -3.0873   -2.3534   -1.5074 C   0  0  0  0  0  0  0  0  0  0  0  0
    3.0786    2.3155   -1.5453 C   0  0  0  0  0  0  0  0  0  0  0  0
   -7.2708   -0.4455    1.2521 C   0  0  0  0  0  0  0  0  0  0  0  0
   -7.2531    1.9951    0.7006 C   0  0  0  0  0  0  0  0  0  0  0  0
    7.2848    0.4779    1.2275 C   0  0  0  0  0  0  0  0  0  0  0  0
    7.2623   -1.9761    0.7389 C   0  0  0  0  0  0  0  0  0  0  0  0
   -1.3479   -0.3770    0.2578 C   0  0  0  0  0  0  0  0  0  0  0  0
    1.3371    0.3803    0.2531 C   0  0  0  0  0  0  0  0  0  0  0  0
   -0.6784   -0.1740    1.4645 C   0  0  0  0  0  0  0  0  0  0  0  0
    0.6640    0.2046    1.4624 C   0  0  0  0  0  0  0  0  0  0  0  0
   -0.6748   -0.2014   -0.9513 C   0  0  0  0  0  0  0  0  0  0  0  0
    0.6677    0.1773   -0.9536 C   0  0  0  0  0  0  0  0  0  0  0  0
  1  7  1  0
  1 17  1  0
  2  8  1  0
  2 18  1  0
  3  5  1  0
  3  7  1  0
  4  6  1  0
  4  8  1  0
  5  9  1  0
  6 10  1  0
  7 11  1  0
  8 12  1  0
  9 13  1  0
  9 14  1  0
 10 15  1  0
 10 16  1  0
 17 19  2  0
 17 21  1  0
 18 20  2  0
 18 22  1  0
 19 20  1  0
 21 22  2  0
M  END
>  <PUBCHEM_COMPOUND_CID>  (1) 
18320

>  <PUBCHEM_CONFORMER_RMSD>  (1) 
1.2

>  <PUBCHEM_CONFORMER_DIVERSEORDER>  (1) 
1
36
18
4
37
5
21
25
29
33
38
13
31
34
17
27
47
2
10
39
19
35
14
11
40
42
43
6
20
24
45
49
23
15
7
41
44
8
48
46
30
9
28
32
3
26
12
22
16
50

>  <PUBCHEM_MMFF94_PARTIAL_CHARGES>  (1) 
16
1 -0.87
17 0.1
18 0.1
19 -0.15
2 -0.87
20 -0.15
21 -0.15
22 -0.15
35 0.4
36 0.4
55 0.15
56 0.15
57 0.15
58 0.15
7 0.37
8 0.37

>  <PUBCHEM_EFFECTIVE_ROTOR_COUNT>  (1) 
10

>  <PUBCHEM_PHARMACOPHORE_FEATURES>  (1) 
7
1 1 cation
1 1 donor
1 2 cation
1 2 donor
3 10 15 16 hydrophobe
3 9 13 14 hydrophobe
6 17 18 19 20 21 22 rings

>  <PUBCHEM_HEAVY_ATOM_COUNT>  (1) 
22

>  <PUBCHEM_ATOM_DEF_STEREO_COUNT>  (1) 
0

>  <PUBCHEM_ATOM_UDEF_STEREO_COUNT>  (1) 
2

>  <PUBCHEM_BOND_DEF_STEREO_COUNT>  (1) 
0

>  <PUBCHEM_BOND_UDEF_STEREO_COUNT>  (1) 
0

>  <PUBCHEM_ISOTOPIC_ATOM_COUNT>  (1) 
0

>  <PUBCHEM_COMPONENT_COUNT>  (1) 
1

>  <PUBCHEM_CACTVS_TAUTO_COUNT>  (1) 
1

>  <PUBCHEM_CONFORMER_ID>  (1) 
0000479000000001

>  <PUBCHEM_MMFF94_ENERGY>  (1) 
60.6009

>  <PUBCHEM_FEATURE_SELFOVERLAP>  (1) 
35.52

>  <PUBCHEM_SHAPE_FINGERPRINT>  (1) 
10 15 15267334133897212314
10613725 11 18410575097547980825
11315181 36 15698000768984776939
11475781 23 16701753644027821337
11796584 16 18060421352239765398
11809386 21 17845083155455168719
12236239 1 18410575119022817398
12403259 415 15647042811161810199
12616971 3 18261954153771179012
12730499 353 15864066577153686160
13533116 47 18410288139032306456
13914758 101 18342741784398014296
14251752 14 18272373070575148057
14251764 18 18410575093258288460
1454969 45 9295287239921249393
14955137 171 15285648719579630109
15183329 4 18273224092195466125
15728490 51 9871454426968180509
20281389 69 18342460365883820641
20554085 129 16271919385759155790
21095086 128 17821730555215253331
21150785 3 11671778261061132545
21267235 1 16443064997513700604
21781051 124 14418137301298450200
21859007 373 17489582329500222257
2297311 6 14056715747262596127
23035841 295 16732701657774932843
23081809 10 18338516464154348157
23536379 177 18410293635456172181
23559900 14 16271921645191080067
246663 6 15646774478806130272
2838139 119 18202561783547144021
3009799 131 15985105206358344153
328311 84 17167582691326064290
347723 3 18410856568229724393
34797466 226 14851613185260084830
3545911 37 15574711408711267258
559249 180 18131347535970027359
59755656 520 17603305973113607203

>  <PUBCHEM_SHAPE_MULTIPOLES>  (1) 
442.79
22.5
1.78
1.44
0.21
0.02
0
-0.08
-6.83
-0.05
0.6
0.02
-0.01
-2.15

>  <PUBCHEM_SHAPE_SELFOVERLAP>  (1) 
865.783

>  <PUBCHEM_SHAPE_VOLUME>  (1) 
266.3

>  <PUBCHEM_COORDINATE_TYPE>  (1) 
2
5
10

$$$$
