18328
     RDKit          3D

 10  9  0  0  0  0  0  0  0  0999 V2000
    0.0115    0.4260    0.3789 S   0  0  0  0  0  0  0  0  0  0  0  0
   -0.1778    1.6370   -0.4794 O   0  0  0  0  0  0  0  0  0  0  0  0
    2.7277    0.0826   -0.1545 C   0  0  0  0  0  0  0  0  0  0  0  0
   -2.6885   -0.2266    0.3784 C   0  0  0  0  0  0  0  0  0  0  0  0
    1.3507   -0.5555   -0.3695 C   0  0  0  0  0  0  0  0  0  0  0  0
   -1.3041   -0.7462   -0.0255 C   0  0  0  0  0  0  0  0  0  0  0  0
    2.9930    0.2395    1.3454 C   0  0  0  0  0  0  0  0  0  0  0  0
    3.8530   -0.7410   -0.7865 C   0  0  0  0  0  0  0  0  0  0  0  0
   -2.9633    1.1050   -0.3259 C   0  0  0  0  0  0  0  0  0  0  0  0
   -3.8021   -1.2208    0.0387 C   0  0  0  0  0  0  0  0  0  0  0  0
  1  2  2  0
  1  5  1  0
  1  6  1  0
  3  5  1  0
  3  7  1  0
  3  8  1  0
  4  6  1  0
  4  9  1  0
  4 10  1  0
M  END
>  <PUBCHEM_COMPOUND_CID>  (1) 
18328

>  <PUBCHEM_CONFORMER_RMSD>  (1) 
0.6

>  <PUBCHEM_CONFORMER_DIVERSEORDER>  (1) 
2
3
4
1

>  <PUBCHEM_MMFF94_PARTIAL_CHARGES>  (1) 
4
1 0.11
2 -0.5
5 0.19
6 0.19

>  <PUBCHEM_EFFECTIVE_ROTOR_COUNT>  (1) 
4

>  <PUBCHEM_PHARMACOPHORE_FEATURES>  (1) 
3
1 2 acceptor
3 3 7 8 hydrophobe
3 4 9 10 hydrophobe

>  <PUBCHEM_HEAVY_ATOM_COUNT>  (1) 
10

>  <PUBCHEM_ATOM_DEF_STEREO_COUNT>  (1) 
0

>  <PUBCHEM_ATOM_UDEF_STEREO_COUNT>  (1) 
0

>  <PUBCHEM_BOND_DEF_STEREO_COUNT>  (1) 
0

>  <PUBCHEM_BOND_UDEF_STEREO_COUNT>  (1) 
0

>  <PUBCHEM_ISOTOPIC_ATOM_COUNT>  (1) 
0

>  <PUBCHEM_COMPONENT_COUNT>  (1) 
1

>  <PUBCHEM_CACTVS_TAUTO_COUNT>  (1) 
1

>  <PUBCHEM_CONFORMER_ID>  (1) 
0000479800000002

>  <PUBCHEM_MMFF94_ENERGY>  (1) 
10.6284

>  <PUBCHEM_FEATURE_SELFOVERLAP>  (1) 
15.223

>  <PUBCHEM_SHAPE_FINGERPRINT>  (1) 
10219947 1 16343986913813118193
10857977 72 18411412925419006177
11062470 55 18409168809296441176
12032990 46 18341619225859702647
12932764 1 17917987274139268534
13296908 3 18343864415702726166
14325111 11 18413671305122543322
177051 138 18342459257069926310
18175812 5 18131912645948613268
190213 19 18343581845482955298
1986462 14 18410859836937343367
20201158 50 18059859419992808006
20211469 26 17917712374683498486
20281407 28 18410856546802425570
20711983 171 16660917786281974247
20711985 327 18341059591721332213
22485316 2 18413387622759638790
23402539 116 18186799154474904710
23532345 42 18411133671246290664
3248919 1 16732702739980129963
449060 50 17631445825478979216

>  <PUBCHEM_SHAPE_MULTIPOLES>  (1) 
203.78
7.21
1.26
0.93
0.31
0.18
0.18
-1.8
-0.09
-0.69
-0.18
0.65
0.08
0.62

>  <PUBCHEM_SHAPE_SELFOVERLAP>  (1) 
354.497

>  <PUBCHEM_SHAPE_VOLUME>  (1) 
136.3

>  <PUBCHEM_COORDINATE_TYPE>  (1) 
2
5
10

$$$$
