18326
     RDKit          3D

 12 12  0  0  0  0  0  0  0  0999 V2000
    2.6337    2.6456    0.0062 Cl  0  0  0  0  0  0  0  0  0  0  0  0
   -1.9585    0.8047   -0.0093 N   0  0  0  0  0  0  0  0  0  0  0  0
   -0.1791   -0.7236   -0.0035 N   0  0  0  0  0  0  0  0  0  0  0  0
    1.6419   -2.2017    0.0023 N   0  0  0  0  0  0  0  0  0  0  0  0
    0.2319    1.6406   -0.0034 N   0  0  0  0  0  0  0  0  0  0  0  0
    2.0738    0.1025    0.0026 N   0  0  0  0  0  0  0  0  0  0  0  0
   -2.9552   -0.2588   -0.0116 C   0  0  0  0  0  0  0  0  0  0  0  0
   -0.6009    0.5676   -0.0054 C   0  0  0  0  0  0  0  0  0  0  0  0
   -4.3640    0.3091    0.0192 C   0  0  0  0  0  0  0  0  0  0  0  0
    1.1549   -0.8766    0.0004 C   0  0  0  0  0  0  0  0  0  0  0  0
    1.5392    1.3344    0.0004 C   0  0  0  0  0  0  0  0  0  0  0  0
    0.7822   -3.3438    0.0021 C   0  0  0  0  0  0  0  0  0  0  0  0
  1 11  1  0
  2  7  1  0
  2  8  1  0
  3  8  2  0
  3 10  1  0
  4 10  1  0
  4 12  1  0
  5  8  1  0
  5 11  2  0
  6 10  2  0
  6 11  1  0
  7  9  1  0
M  END
>  <PUBCHEM_COMPOUND_CID>  (1) 
18326

>  <PUBCHEM_CONFORMER_RMSD>  (1) 
0.6

>  <PUBCHEM_CONFORMER_DIVERSEORDER>  (1) 
1
12
11
7
10
2
5
4
9
8
6
3

>  <PUBCHEM_MMFF94_PARTIAL_CHARGES>  (1) 
13
1 -0.18
10 0.72
11 0.8
12 0.37
15 0.4
19 0.4
2 -0.87
3 -0.62
4 -0.87
5 -0.62
6 -0.62
7 0.37
8 0.72

>  <PUBCHEM_EFFECTIVE_ROTOR_COUNT>  (1) 
3

>  <PUBCHEM_PHARMACOPHORE_FEATURES>  (1) 
5
1 2 donor
1 4 donor
4 2 3 5 8 cation
4 3 4 6 10 cation
6 3 5 6 8 10 11 rings

>  <PUBCHEM_HEAVY_ATOM_COUNT>  (1) 
12

>  <PUBCHEM_ATOM_DEF_STEREO_COUNT>  (1) 
0

>  <PUBCHEM_ATOM_UDEF_STEREO_COUNT>  (1) 
0

>  <PUBCHEM_BOND_DEF_STEREO_COUNT>  (1) 
0

>  <PUBCHEM_BOND_UDEF_STEREO_COUNT>  (1) 
0

>  <PUBCHEM_ISOTOPIC_ATOM_COUNT>  (1) 
0

>  <PUBCHEM_COMPONENT_COUNT>  (1) 
1

>  <PUBCHEM_CACTVS_TAUTO_COUNT>  (1) 
9

>  <PUBCHEM_CONFORMER_ID>  (1) 
0000479600000001

>  <PUBCHEM_MMFF94_ENERGY>  (1) 
28.9789

>  <PUBCHEM_FEATURE_SELFOVERLAP>  (1) 
25.414

>  <PUBCHEM_SHAPE_FINGERPRINT>  (1) 
1 1 18410009965888375380
12346645 6 18409445903607210389
13380535 76 18263360455028952387
13380536 305 18411425028969123236
14251717 144 18411695491739468127
14325111 11 18338799047596994149
15442244 35 17980765939749110265
16945 1 18410855421489423316
17990270 104 18265330608178141251
19021347 4 18122342651274870954
193761 8 18050567348468871628
201361 129 18271258157121231153
20201158 50 18334859377196564251
20645477 70 18335975394826737927
20871998 22 17981607065564136030
21040471 1 18122344850641297092
21499 59 18265608969388205373
23530152 11 18266743665166381062
23552423 10 18339646633448742357
241688 4 17689717459133286168
257057 1 17760641473662678138
2748010 2 18192164899655994078
3071541 37 18334582360258717844
33824 294 18408603699607830131
366044 4 18265614471251932288
7364860 26 18412262800657257970
81228 2 17114370447594697280
81539 233 18261951942037302317

>  <PUBCHEM_SHAPE_MULTIPOLES>  (1) 
223.92
5.04
3.18
0.58
6.4
2.84
0
-3.03
0.02
-2.81
0.01
0
-0.01
0

>  <PUBCHEM_SHAPE_SELFOVERLAP>  (1) 
437.263

>  <PUBCHEM_SHAPE_VOLUME>  (1) 
132.9

>  <PUBCHEM_COORDINATE_TYPE>  (1) 
2
5
10

$$$$
