18331
     RDKit          3D

 17 18  0  0  0  0  0  0  0  0999 V2000
    0.4283    0.7203    0.1655 N   0  0  0  0  0  0  0  0  0  0  0  0
   -4.7796   -1.3568   -0.0290 N   0  0  0  0  0  0  0  0  0  0  0  0
    0.6111    2.1446    0.0250 C   0  0  0  0  0  0  0  0  0  0  0  0
   -0.9005    0.1925    0.1159 C   0  0  0  0  0  0  0  0  0  0  0  0
    1.6165   -0.0715    0.1016 C   0  0  0  0  0  0  0  0  0  0  0  0
   -0.5726    2.8921    0.6251 C   0  0  0  0  0  0  0  0  0  0  0  0
    0.8138    2.5159   -1.4388 C   0  0  0  0  0  0  0  0  0  0  0  0
   -1.5333   -0.1604    1.2960 C   0  0  0  0  0  0  0  0  0  0  0  0
   -1.5250    0.0447   -1.1113 C   0  0  0  0  0  0  0  0  0  0  0  0
    1.6015   -1.2623   -0.6066 C   0  0  0  0  0  0  0  0  0  0  0  0
    2.7598    0.3675    0.7497 C   0  0  0  0  0  0  0  0  0  0  0  0
   -2.8283   -0.6764    1.2477 C   0  0  0  0  0  0  0  0  0  0  0  0
   -2.8201   -0.4713   -1.1595 C   0  0  0  0  0  0  0  0  0  0  0  0
   -3.4717   -0.8317    0.0201 C   0  0  0  0  0  0  0  0  0  0  0  0
    2.7610   -2.0352   -0.6682 C   0  0  0  0  0  0  0  0  0  0  0  0
    3.9194   -0.4054    0.6878 C   0  0  0  0  0  0  0  0  0  0  0  0
    3.9198   -1.6068   -0.0211 C   0  0  0  0  0  0  0  0  0  0  0  0
  1  3  1  0
  1  4  1  0
  1  5  1  0
  2 14  1  0
  3  6  1  0
  3  7  1  0
  4  8  2  0
  4  9  1  0
  5 10  2  0
  5 11  1  0
  8 12  1  0
  9 13  2  0
 10 15  1  0
 11 16  2  0
 12 14  2  0
 13 14  1  0
 15 17  2  0
 16 17  1  0
M  END
>  <PUBCHEM_COMPOUND_CID>  (1) 
18331

>  <PUBCHEM_CONFORMER_RMSD>  (1) 
0.6

>  <PUBCHEM_CONFORMER_DIVERSEORDER>  (1) 
2
3
6
1
7
4
5

>  <PUBCHEM_MMFF94_PARTIAL_CHARGES>  (1) 
26
1 -0.57
10 -0.15
11 -0.15
12 -0.15
13 -0.15
14 0.1
15 -0.15
16 -0.15
17 -0.15
2 -0.9
25 0.15
26 0.15
27 0.15
28 0.15
29 0.15
3 0.37
30 0.15
31 0.15
32 0.15
33 0.15
34 0.4
35 0.4
4 0.1
5 0.1
8 -0.15
9 -0.15

>  <PUBCHEM_EFFECTIVE_ROTOR_COUNT>  (1) 
3

>  <PUBCHEM_PHARMACOPHORE_FEATURES>  (1) 
6
1 1 cation
1 2 cation
1 2 donor
3 3 6 7 hydrophobe
6 4 8 9 12 13 14 rings
6 5 10 11 15 16 17 rings

>  <PUBCHEM_HEAVY_ATOM_COUNT>  (1) 
17

>  <PUBCHEM_ATOM_DEF_STEREO_COUNT>  (1) 
0

>  <PUBCHEM_ATOM_UDEF_STEREO_COUNT>  (1) 
0

>  <PUBCHEM_BOND_DEF_STEREO_COUNT>  (1) 
0

>  <PUBCHEM_BOND_UDEF_STEREO_COUNT>  (1) 
0

>  <PUBCHEM_ISOTOPIC_ATOM_COUNT>  (1) 
0

>  <PUBCHEM_COMPONENT_COUNT>  (1) 
1

>  <PUBCHEM_CACTVS_TAUTO_COUNT>  (1) 
1

>  <PUBCHEM_CONFORMER_ID>  (1) 
0000479B00000002

>  <PUBCHEM_MMFF94_ENERGY>  (1) 
87.5233

>  <PUBCHEM_FEATURE_SELFOVERLAP>  (1) 
30.446

>  <PUBCHEM_SHAPE_FINGERPRINT>  (1) 
10465860 250 17821995511277913720
10618630 7 18411420570735112534
11322862 65 17619637882044939876
11578080 2 17058051533807029313
116883 192 18336544911110253013
12251169 10 16988841678905382802
12363563 72 18260832574828587834
12553582 1 18339100231867324834
12707595 3 17968101948939276338
12759256 9 18338516472960858756
13134695 92 18341604975438127213
13296908 3 18409726223179611678
13544653 18 18410292501748375182
13583140 156 13973105511336954998
13681431 1 18260838141064226420
14115302 16 16370725945716120699
14123255 52 8790887376011772651
14181834 199 18115874173024398820
14252887 29 18413107268822270130
15375462 189 17418368112393862978
15375462 478 17704076196371208835
15422964 175 18411422778063836535
15501101 241 18202559584101375688
15848700 24 18408038511480399914
16945 1 18273208716623775496
17357779 13 18338783538163984244
1813 80 18270978872529862124
19765921 60 16765915945856734625
200 152 18409443674324095883
20361792 2 18410294696360664558
20559304 39 18129952307169272513
20645477 70 18189611825456961571
20671657 53 17822007609905549636
20711985 344 17972310720731908456
20871998 22 18413109437601061966
21041028 32 18411703188352907233
21061003 4 18409450284399752467
21296965 67 18410289198876398041
21501502 16 18195246607979978616
2255824 54 18053666059845714037
23114952 82 17749676319150719541
23175994 123 18187366515043117285
23388829 49 18272089430687318616
23402539 116 18335133147038849602
23419403 2 18119777379174006892
23526113 38 17967532419169739257
23557571 272 18335700482211642612
23559900 14 16588306145778960854
2748010 2 17984974896156140860
276578 36 11672065229279844508
298252 57 13623530151550355176
3286 77 18262235642260713919
7364860 26 18194402414229429553
77492 1 17489028274634475749
81228 2 18118125766664089088
83771 10 18412263917417508586

>  <PUBCHEM_SHAPE_MULTIPOLES>  (1) 
339.89
6.87
2.49
1.22
1.14
2
0.08
-5.34
-0.6
-0.67
0.41
0.38
0.17
0.14

>  <PUBCHEM_SHAPE_SELFOVERLAP>  (1) 
722.883

>  <PUBCHEM_SHAPE_VOLUME>  (1) 
189.7

>  <PUBCHEM_COORDINATE_TYPE>  (1) 
2
5
10

$$$$
