18347
     RDKit          3D

 25 26  0  0  0  0  0  0  0  0999 V2000
    1.4089   -0.8770   -1.0321 O   0  0  0  0  0  0  0  0  0  0  0  0
   -5.3429   -0.5661   -0.0892 O   0  0  0  0  0  0  0  0  0  0  0  0
   -5.6249    1.6889    0.2771 O   0  0  0  0  0  0  0  0  0  0  0  0
    4.0244   -0.4286   -0.6188 N   0  0  0  0  0  0  0  0  0  0  0  0
    0.7635    0.8740    0.3925 N   0  0  0  0  0  0  0  0  0  0  0  0
    5.4061   -0.0763   -0.2976 C   0  0  0  0  0  0  0  0  0  0  0  0
    6.3424   -0.5818   -1.4006 C   0  0  0  0  0  0  0  0  0  0  0  0
    5.7898   -0.6632    1.0652 C   0  0  0  0  0  0  0  0  0  0  0  0
    7.8049   -0.2983   -1.0619 C   0  0  0  0  0  0  0  0  0  0  0  0
    7.2532   -0.3804    1.4009 C   0  0  0  0  0  0  0  0  0  0  0  0
    8.1884   -0.8714    0.2995 C   0  0  0  0  0  0  0  0  0  0  0  0
    3.0937    0.4428    0.0819 C   0  0  0  0  0  0  0  0  0  0  0  0
    1.6696    0.0487   -0.2704 C   0  0  0  0  0  0  0  0  0  0  0  0
   -0.6497    0.8307    0.3296 C   0  0  0  0  0  0  0  0  0  0  0  0
   -1.3309   -0.3210    0.7232 C   0  0  0  0  0  0  0  0  0  0  0  0
   -1.3614    1.9408   -0.1253 C   0  0  0  0  0  0  0  0  0  0  0  0
   -2.7237   -0.3628    0.6619 C   0  0  0  0  0  0  0  0  0  0  0  0
   -2.7543    1.8989   -0.1865 C   0  0  0  0  0  0  0  0  0  0  0  0
   -3.4355    0.7472    0.2070 C   0  0  0  0  0  0  0  0  0  0  0  0
   -0.5961   -1.5253    1.2172 C   0  0  0  0  0  0  0  0  0  0  0  0
   -0.6594    3.1890   -0.5529 C   0  0  0  0  0  0  0  0  0  0  0  0
   -4.8877    0.7033    0.1420 C   0  0  0  0  0  0  0  0  0  0  0  0
   -6.7614   -0.7392   -0.1758 C   0  0  0  0  0  0  0  0  0  0  0  0
   -7.0628   -2.2075   -0.4340 C   0  0  0  0  0  0  0  0  0  0  0  0
   -8.5541   -2.4654   -0.5531 C   0  0  0  0  0  0  0  0  0  0  0  0
  1 13  2  0
  2 22  1  0
  2 23  1  0
  3 22  2  0
  4  6  1  0
  4 12  1  0
  5 13  1  0
  5 14  1  0
  6  7  1  0
  6  8  1  0
  7  9  1  0
  8 10  1  0
  9 11  1  0
 10 11  1  0
 12 13  1  0
 14 15  2  0
 14 16  1  0
 15 17  1  0
 15 20  1  0
 16 18  2  0
 16 21  1  0
 17 19  2  0
 18 19  1  0
 19 22  1  0
 23 24  1  0
 24 25  1  0
M  END
>  <PUBCHEM_COMPOUND_CID>  (1) 
18347

>  <PUBCHEM_CONFORMER_RMSD>  (1) 
1

>  <PUBCHEM_CONFORMER_DIVERSEORDER>  (1) 
1
19
4
30
27
26
33
16
12
23
9
13
10
34
37
32
35
17
24
41
14
29
11
3
20
39
22
8
5
36
7
2
25
21
18
38
40
28
31
6
15

>  <PUBCHEM_MMFF94_PARTIAL_CHARGES>  (1) 
22
1 -0.57
12 0.33
13 0.57
14 0.12
15 -0.14
16 -0.14
17 -0.15
18 -0.15
19 0.09
2 -0.43
20 0.14
21 0.14
22 0.63
23 0.28
3 -0.57
37 0.36
4 -0.9
40 0.37
41 0.15
42 0.15
5 -0.55
6 0.27

>  <PUBCHEM_EFFECTIVE_ROTOR_COUNT>  (1) 
10.2

>  <PUBCHEM_PHARMACOPHORE_FEATURES>  (1) 
8
1 1 acceptor
1 25 hydrophobe
1 3 acceptor
1 4 cation
1 4 donor
1 5 donor
6 14 15 16 17 18 19 rings
6 6 7 8 9 10 11 rings

>  <PUBCHEM_HEAVY_ATOM_COUNT>  (1) 
25

>  <PUBCHEM_ATOM_DEF_STEREO_COUNT>  (1) 
0

>  <PUBCHEM_ATOM_UDEF_STEREO_COUNT>  (1) 
0

>  <PUBCHEM_BOND_DEF_STEREO_COUNT>  (1) 
0

>  <PUBCHEM_BOND_UDEF_STEREO_COUNT>  (1) 
0

>  <PUBCHEM_ISOTOPIC_ATOM_COUNT>  (1) 
0

>  <PUBCHEM_COMPONENT_COUNT>  (1) 
1

>  <PUBCHEM_CACTVS_TAUTO_COUNT>  (1) 
3

>  <PUBCHEM_CONFORMER_ID>  (1) 
000047AB00000001

>  <PUBCHEM_MMFF94_ENERGY>  (1) 
59.2858

>  <PUBCHEM_FEATURE_SELFOVERLAP>  (1) 
40.595

>  <PUBCHEM_SHAPE_FINGERPRINT>  (1) 
10 15 18343575249784748128
10411042 1 18339079397983532105
106641 1 17775562066222716674
11315181 36 17240496801281417288
11524674 6 16917065559743998166
11963148 33 18411975845435303166
12107183 9 16957869309200076344
12166972 35 17530689814067992324
12236239 1 16877949313052978616
13533116 47 17822289029886339186
13668630 136 17775010059703521350
13862211 1 18334574655292935257
13914758 101 16153704280617412668
14068700 675 18260831500971193884
14251764 18 17894915118448364866
14429380 56 16515689970518302030
15183329 4 17458062660079197690
15419008 47 17989200418211199168
15461852 350 18408044009006897182
18335252 114 15574711421760076670
18335252 98 17847064385387634966
19489759 90 18335704897744250800
21033648 29 17559941149047461544
21130935 74 18058733494585589554
21150785 3 17312820485132305946
21267235 1 18411140273275682363
23402539 116 18335137570549280885
23559900 14 18187650258158835760
23569943 247 17697334914968794406
23576562 1 15358269328576367375
2838139 119 15213019328430457047
3178227 256 16056881355421340638
3383291 50 18411419544307274051
34797466 226 18272377460775815652
3633792 109 16298660599304155106
484989 97 17605285180238641603
54039377 194 18339082709535309855
59682541 35 17989199374480638090
5969126 39 18408880724882631277
59755656 520 16805044033804042363

>  <PUBCHEM_SHAPE_MULTIPOLES>  (1) 
486.92
25
2.24
1.07
10.67
0.97
0.02
-16.87
-3.38
-4.81
-0.33
1.57
-0.28
-0.86

>  <PUBCHEM_SHAPE_SELFOVERLAP>  (1) 
994.655

>  <PUBCHEM_SHAPE_VOLUME>  (1) 
281

>  <PUBCHEM_COORDINATE_TYPE>  (1) 
2
5
10

$$$$
