1834
     RDKit          3D

 21 22  0  0  1  0  0  0  0  0999 V2000
    4.5117   -1.2730    0.4177 P   0  0  0  0  0  0  0  0  0  0  0  0
    0.5212    0.3637    0.2279 O   0  0  0  0  0  0  0  0  0  0  0  0
    1.5648    3.1427   -0.2552 O   0  0  0  0  0  0  0  0  0  0  0  0
    3.0486   -0.7997   -0.0865 O   0  0  0  0  0  0  0  0  0  0  0  0
   -3.0274    1.9568    1.4619 O   0  0  0  0  0  0  0  0  0  0  0  0
    4.8222   -0.2951    1.6677 O   0  0  0  0  0  0  0  0  0  0  0  0
    5.4902   -0.7154   -0.7427 O   0  0  0  0  0  0  0  0  0  0  0  0
    4.6400   -2.7406    0.7039 O   0  0  0  0  0  0  0  0  0  0  0  0
   -1.8194    0.4532    0.2013 N   0  0  0  0  0  0  0  0  0  0  0  0
   -4.1056    0.0821    0.7797 N   0  0  0  0  0  0  0  0  0  0  0  0
   -5.2388   -1.8151    0.1043 N   0  0  0  0  0  0  0  0  0  0  0  0
    1.0171    2.2041   -1.1728 C   0  0  0  0  0  0  0  0  0  0  0  0
    1.4108    0.7735   -0.8280 C   0  0  0  0  0  0  0  0  0  0  0  0
   -0.4812    2.1564   -0.9780 C   0  0  0  0  0  0  0  0  0  0  0  0
   -0.6185    1.2366    0.2272 C   0  0  0  0  0  0  0  0  0  0  0  0
    2.8461    0.5736   -0.3782 C   0  0  0  0  0  0  0  0  0  0  0  0
   -1.7920   -0.7421   -0.4784 C   0  0  0  0  0  0  0  0  0  0  0  0
   -2.9859    0.8893    0.8477 C   0  0  0  0  0  0  0  0  0  0  0  0
   -2.8561   -1.5455   -0.5628 C   0  0  0  0  0  0  0  0  0  0  0  0
   -4.0886   -1.0572    0.1348 C   0  0  0  0  0  0  0  0  0  0  0  0
   -2.8593   -2.8483   -1.2916 C   0  0  0  0  0  0  0  0  0  0  0  0
  1  4  1  0
  1  6  1  0
  1  7  1  0
  1  8  2  0
  2 13  1  0
  2 15  1  0
  3 12  1  0
  4 16  1  0
  5 18  2  0
  9 15  1  0
  9 17  1  0
  9 18  1  0
 10 18  1  0
 10 20  2  0
 11 20  1  0
 12 13  1  0
 12 14  1  0
 13 16  1  0
 14 15  1  0
 17 19  2  0
 19 20  1  0
 19 21  1  0
M  END
>  <PUBCHEM_COMPOUND_CID>  (1) 
1834

>  <PUBCHEM_CONFORMER_RMSD>  (1) 
0.8

>  <PUBCHEM_CONFORMER_DIVERSEORDER>  (1) 
1
130
95
58
142
88
57
118
101
109
19
128
134
121
132
117
133
15
2
85
13
125
20
97
83
119
135
144
69
34
157
64
149
53
3
136
99
80
46
154
49
114
75
127
92
141
42
146
89
151
14
104
67
59
152
78
31
112
74
70
43
145
90
27
139
36
29
33
124
63
51
23
147
28
126
129
54
60
100
65
107
47
103
91
148
110
50
4
150
38
8
120
26
111
116
98
137
106
81
71
84
62
37
52
138
77
44
55
22
21
72
39
86
153
155
82
115
6
93
68
32
102
140
35
105
73
96
122
113
48
61
123
87
156
94
143
9
24
12
25
40
18
45
131
10
30
7
41
79
17
108
76
5
66
56
11
16

>  <PUBCHEM_MMFF94_PARTIAL_CHARGES>  (1) 
26
1 1.51
10 -0.66
11 -0.85
12 0.28
13 0.28
15 0.58
16 0.28
17 -0.04
18 0.84
19 -0.12
2 -0.56
20 0.49
21 0.14
29 0.4
3 -0.68
30 0.15
34 0.4
35 0.4
36 0.5
37 0.5
4 -0.55
5 -0.57
6 -0.77
7 -0.77
8 -0.7
9 -0.47

>  <PUBCHEM_EFFECTIVE_ROTOR_COUNT>  (1) 
5

>  <PUBCHEM_PHARMACOPHORE_FEATURES>  (1) 
12
1 10 donor
1 11 donor
1 2 acceptor
1 3 acceptor
1 3 donor
1 5 acceptor
1 6 acceptor
1 7 acceptor
1 8 acceptor
4 1 6 7 8 anion
5 2 12 13 14 15 rings
6 9 10 17 18 19 20 rings

>  <PUBCHEM_HEAVY_ATOM_COUNT>  (1) 
21

>  <PUBCHEM_ATOM_DEF_STEREO_COUNT>  (1) 
0

>  <PUBCHEM_ATOM_UDEF_STEREO_COUNT>  (1) 
3

>  <PUBCHEM_BOND_DEF_STEREO_COUNT>  (1) 
0

>  <PUBCHEM_BOND_UDEF_STEREO_COUNT>  (1) 
0

>  <PUBCHEM_ISOTOPIC_ATOM_COUNT>  (1) 
0

>  <PUBCHEM_COMPONENT_COUNT>  (1) 
1

>  <PUBCHEM_CACTVS_TAUTO_COUNT>  (1) 
3

>  <PUBCHEM_CONFORMER_ID>  (1) 
0000072A00000001

>  <PUBCHEM_MMFF94_ENERGY>  (1) 
19.9795

>  <PUBCHEM_FEATURE_SELFOVERLAP>  (1) 
60.983

>  <PUBCHEM_SHAPE_FINGERPRINT>  (1) 
11045977 3 17489301971567851608
11265709 11 18408886247993834620
11552529 35 18060125536393334322
11578080 2 18266156470482172813
12553582 1 18333730208872363294
12633257 1 16415197935659111307
12892183 10 17846212229204854392
13009979 54 18270131213452646985
13167823 11 18412268341571342646
13533116 47 18267305511650590081
13544653 18 17967535636590730604
13583140 156 16558744568848938616
13828863 39 16770674512217791760
14178342 30 18129955476659685309
1420 369 18334573529959119874
14251757 17 13767929039844640742
15099037 8 18340487893056451533
15442244 35 18411706512425278021
15537594 2 18189066317344662978
15842332 3 18267326376517928605
17492 89 18193561292509196707
17780758 139 18129654180788900538
17977361 122 18412824698729294471
1813 80 17967813842970936572
18222031 100 18408603665047293812
19141452 34 18340486660168806909
19784866 240 18333454261497372767
20281475 54 18336547132056276532
20291156 8 18334856095809784518
204376 136 12391793467347419060
20645477 70 17749949002186729052
21033648 29 15482394144969630536
2255824 54 18117288166516099076
22950370 63 18336272245596347174
235170 7 14490479651520376922
23557571 272 16772976777359283289
23559900 14 18130503132060973153
25147074 1 18266478631456757589
314194 84 18260278455475451378
351380 3 18333452036736286546
4409770 3 17899407584983136085
5104073 3 18199764698890238691
559249 180 18336544924316589707
7064713 232 18059017176710857659
76465 3 18333448733721345364
7970288 3 18259981557161288290
9981440 41 17328020382920046840

>  <PUBCHEM_SHAPE_MULTIPOLES>  (1) 
379.99
10.64
3.04
1.18
6.77
0.12
0.1
-8.42
2.61
0.12
-0.61
0.09
0.11
-1.87

>  <PUBCHEM_SHAPE_SELFOVERLAP>  (1) 
778.076

>  <PUBCHEM_SHAPE_VOLUME>  (1) 
221.5

>  <PUBCHEM_COORDINATE_TYPE>  (1) 
2
5
10

$$$$
