18355
     RDKit          3D

 18 20  0  0  0  0  0  0  0  0999 V2000
    0.7713   -2.6252   -0.0013 O   0  0  0  0  0  0  0  0  0  0  0  0
   -4.0205   -1.5750    0.0031 O   0  0  0  0  0  0  0  0  0  0  0  0
   -3.5067    0.7259   -0.0007 N   0  0  0  0  0  0  0  0  0  0  0  0
    0.6697    0.8724    0.0005 C   0  0  0  0  0  0  0  0  0  0  0  0
   -0.0207   -0.3519    0.0004 C   0  0  0  0  0  0  0  0  0  0  0  0
    2.0935    0.6144    0.0004 C   0  0  0  0  0  0  0  0  0  0  0  0
    2.3103   -0.7744    0.0002 C   0  0  0  0  0  0  0  0  0  0  0  0
    0.9872   -1.4333    0.0001 C   0  0  0  0  0  0  0  0  0  0  0  0
   -1.3977   -0.4454    0.0002 C   0  0  0  0  0  0  0  0  0  0  0  0
   -0.0425    2.0586    0.0003 C   0  0  0  0  0  0  0  0  0  0  0  0
   -2.1112    0.7532    0.0001 C   0  0  0  0  0  0  0  0  0  0  0  0
    3.1767    1.4752    0.0002 C   0  0  0  0  0  0  0  0  0  0  0  0
    3.5670   -1.3452   -0.0003 C   0  0  0  0  0  0  0  0  0  0  0  0
   -1.4415    1.9920    0.0000 C   0  0  0  0  0  0  0  0  0  0  0  0
    4.4633    0.9218   -0.0002 C   0  0  0  0  0  0  0  0  0  0  0  0
    4.6558   -0.4732   -0.0005 C   0  0  0  0  0  0  0  0  0  0  0  0
   -4.3495   -0.3932   -0.0007 C   0  0  0  0  0  0  0  0  0  0  0  0
   -5.8046    0.0032   -0.0018 C   0  0  0  0  0  0  0  0  0  0  0  0
  1  8  2  0
  2 17  2  0
  3 11  1  0
  3 17  1  0
  4  5  2  0
  4  6  1  0
  4 10  1  0
  5  8  1  0
  5  9  1  0
  6  7  2  0
  6 12  1  0
  7  8  1  0
  7 13  1  0
  9 11  2  0
 10 14  2  0
 11 14  1  0
 12 15  2  0
 13 16  2  0
 15 16  1  0
 17 18  1  0
M  END
>  <PUBCHEM_COMPOUND_CID>  (1) 
18355

>  <PUBCHEM_CONFORMER_RMSD>  (1) 
0.6

>  <PUBCHEM_CONFORMER_DIVERSEORDER>  (1) 
1
2
3
4

>  <PUBCHEM_MMFF94_PARTIAL_CHARGES>  (1) 
24
1 -0.57
10 -0.15
11 0.12
12 -0.15
13 -0.15
14 -0.15
15 -0.15
16 -0.15
17 0.57
18 0.06
19 0.15
2 -0.57
20 0.15
21 0.15
22 0.15
23 0.15
24 0.15
25 0.15
26 0.37
3 -0.55
5 0.09
7 0.09
8 0.4
9 -0.15

>  <PUBCHEM_EFFECTIVE_ROTOR_COUNT>  (1) 
2

>  <PUBCHEM_PHARMACOPHORE_FEATURES>  (1) 
6
1 1 acceptor
1 2 acceptor
1 3 donor
5 4 5 6 7 8 rings
6 4 5 9 10 11 14 rings
6 6 7 12 13 15 16 rings

>  <PUBCHEM_HEAVY_ATOM_COUNT>  (1) 
18

>  <PUBCHEM_ATOM_DEF_STEREO_COUNT>  (1) 
0

>  <PUBCHEM_ATOM_UDEF_STEREO_COUNT>  (1) 
0

>  <PUBCHEM_BOND_DEF_STEREO_COUNT>  (1) 
0

>  <PUBCHEM_BOND_UDEF_STEREO_COUNT>  (1) 
0

>  <PUBCHEM_ISOTOPIC_ATOM_COUNT>  (1) 
0

>  <PUBCHEM_COMPONENT_COUNT>  (1) 
1

>  <PUBCHEM_CACTVS_TAUTO_COUNT>  (1) 
6

>  <PUBCHEM_CONFORMER_ID>  (1) 
000047B300000001

>  <PUBCHEM_MMFF94_ENERGY>  (1) 
63.874

>  <PUBCHEM_FEATURE_SELFOVERLAP>  (1) 
30.615

>  <PUBCHEM_SHAPE_FINGERPRINT>  (1) 
10906281 52 18263384563012882497
10967382 1 18410856564462238566
11471102 20 18410291414989878005
11578080 2 16880749635666424406
11806522 49 18410012139057528389
12032990 46 18411140220770788612
12236239 1 17847062190437449377
12403259 226 18264765472566712980
12403259 415 18410846668700034644
12839892 36 18266160765427915546
13140716 1 18194391411213963266
13862211 1 18410569591431906635
14178342 30 17979907216708826264
14787075 74 18410291457913034232
14790565 3 18412270561906391553
15196674 1 18410575050319411652
15536298 74 18342739607092129612
16945 1 18050567335799948740
17862501 102 18335978675785950882
19591789 44 18412262822348807582
200 152 18272649043872819337
20028762 73 18201995555647901295
20261772 1 18131066064976800703
20510252 161 18272369733343783672
20645477 70 18411699846467281615
21267235 1 18411427189021330807
21421861 104 17898569774513013051
221490 88 18191030212562698579
23402539 116 18341887519571200167
23402655 69 18411976932461942085
23559900 14 18408884057692356368
26918003 58 18186239541547444627
2748010 2 18410016571922538358
2871803 45 18335699412437783615
335352 9 18410575076131257975
33824 294 18408603643261571858
350125 39 18410573985816622060
4072396 5 18261940895249431482
4214541 1 18410855417732837985
474229 33 18410574002584774754
4990 188 18060428992996595180
5104073 3 18339922610788265216
5283173 99 17969210149929912397
537710 114 18410579508706669476
5486654 2 18411141367616630166
59755656 215 18410579444424715078
602551 16 15410317979492985261
69090 78 18413386553428781118
8809292 202 18187651340342628715
9709674 26 18337679611267850378

>  <PUBCHEM_SHAPE_MULTIPOLES>  (1) 
353.71
9.78
2.06
0.6
7.48
0.17
0
1.14
0
-0.47
0
-0.03
-0.02
0

>  <PUBCHEM_SHAPE_SELFOVERLAP>  (1) 
791.694

>  <PUBCHEM_SHAPE_VOLUME>  (1) 
188.8

>  <PUBCHEM_COORDINATE_TYPE>  (1) 
2
5
10

$$$$
