18354
     RDKit          3D

 15 17  0  0  0  0  0  0  0  0999 V2000
   -4.7904   -0.1666    0.0009 Cl  0  0  0  0  0  0  0  0  0  0  0  0
    0.2834   -2.7454   -0.0007 O   0  0  0  0  0  0  0  0  0  0  0  0
   -0.3670    0.6928   -0.0005 C   0  0  0  0  0  0  0  0  0  0  0  0
    1.0797    0.6619   -0.0004 C   0  0  0  0  0  0  0  0  0  0  0  0
   -0.8562   -0.6251   -0.0002 C   0  0  0  0  0  0  0  0  0  0  0  0
    1.5123   -0.6755   -0.0002 C   0  0  0  0  0  0  0  0  0  0  0  0
    0.3092   -1.5344   -0.0001 C   0  0  0  0  0  0  0  0  0  0  0  0
   -1.2570    1.7522   -0.0008 C   0  0  0  0  0  0  0  0  0  0  0  0
    2.0140    1.6824    0.0001 C   0  0  0  0  0  0  0  0  0  0  0  0
   -2.2013   -0.9339    0.0003 C   0  0  0  0  0  0  0  0  0  0  0  0
    2.8431   -1.0414    0.0004 C   0  0  0  0  0  0  0  0  0  0  0  0
   -2.6280    1.4662   -0.0003 C   0  0  0  0  0  0  0  0  0  0  0  0
   -3.0944    0.1375    0.0004 C   0  0  0  0  0  0  0  0  0  0  0  0
    3.3716    1.3383    0.0005 C   0  0  0  0  0  0  0  0  0  0  0  0
    3.7811   -0.0091    0.0006 C   0  0  0  0  0  0  0  0  0  0  0  0
  1 13  1  0
  2  7  2  0
  3  4  1  0
  3  5  2  0
  3  8  1  0
  4  6  2  0
  4  9  1  0
  5  7  1  0
  5 10  1  0
  6  7  1  0
  6 11  1  0
  8 12  2  0
  9 14  2  0
 10 13  2  0
 11 15  2  0
 12 13  1  0
 14 15  1  0
M  END
>  <PUBCHEM_COMPOUND_CID>  (1) 
18354

>  <PUBCHEM_CONFORMER_RMSD>  (1) 
0.4

>  <PUBCHEM_CONFORMER_DIVERSEORDER>  (1) 
1

>  <PUBCHEM_MMFF94_PARTIAL_CHARGES>  (1) 
20
1 -0.18
10 -0.15
11 -0.15
12 -0.15
13 0.18
14 -0.15
15 -0.15
16 0.15
17 0.15
18 0.15
19 0.15
2 -0.57
20 0.15
21 0.15
22 0.15
5 0.09
6 0.09
7 0.4
8 -0.15
9 -0.15

>  <PUBCHEM_EFFECTIVE_ROTOR_COUNT>  (1) 
0

>  <PUBCHEM_PHARMACOPHORE_FEATURES>  (1) 
4
1 2 acceptor
5 3 4 5 6 7 rings
6 3 5 8 10 12 13 rings
6 4 6 9 11 14 15 rings

>  <PUBCHEM_HEAVY_ATOM_COUNT>  (1) 
15

>  <PUBCHEM_ATOM_DEF_STEREO_COUNT>  (1) 
0

>  <PUBCHEM_ATOM_UDEF_STEREO_COUNT>  (1) 
0

>  <PUBCHEM_BOND_DEF_STEREO_COUNT>  (1) 
0

>  <PUBCHEM_BOND_UDEF_STEREO_COUNT>  (1) 
0

>  <PUBCHEM_ISOTOPIC_ATOM_COUNT>  (1) 
0

>  <PUBCHEM_COMPONENT_COUNT>  (1) 
1

>  <PUBCHEM_CACTVS_TAUTO_COUNT>  (1) 
1

>  <PUBCHEM_CONFORMER_ID>  (1) 
000047B200000001

>  <PUBCHEM_MMFF94_ENERGY>  (1) 
50.6299

>  <PUBCHEM_FEATURE_SELFOVERLAP>  (1) 
20.466

>  <PUBCHEM_SHAPE_FINGERPRINT>  (1) 
10608611 8 18409444752424333621
10967382 1 18410573985214774150
11132069 177 18341325673429525105
11471102 20 18410570678359033685
11806522 49 18411979204552272175
13140716 1 18338513165609246378
13221675 6 18411418397434155511
13380535 76 18409449189104275995
14144814 61 18410292493200801152
14251717 144 18411697677693127503
14325111 11 18410575076205331424
15196674 1 18410856525348850341
15219456 202 18335981978536803485
15309172 13 18411427219112319947
15442244 35 18123187905339386962
15536298 74 18343584031958932084
15775835 57 18271810150264530589
16945 1 18266459797850493477
17802600 8 18410287004085014096
18186145 218 18343025467067081628
193761 8 17762338015867248484
200 152 18201992223496220149
20510252 161 18272371962052047664
20645477 70 18341326691943617871
21267235 1 18411145718350149910
21501502 16 18193838145989723057
21524375 3 18411418418793129338
2334 1 18410575119234099680
23402539 116 18342729766921102199
23402655 69 18341604881381123333
23463225 33 18335136449778769496
23559900 14 18267860584476066154
2748010 2 18409734001238608836
2871803 45 18408880716318472511
335352 9 18050285868954042324
43471831 8 18335417920165620658
5104073 3 18410293566911016449
528886 8 18411132558533230491
537710 114 18410579521649587093
53812653 166 18343016731172212536
54173680 148 18120657095802709842
69090 78 18343016726639770799
7364860 26 18197498424319840598
81228 2 17762320814402097314
8809292 202 18187652426779424571
9709674 26 18411143498174097159

>  <PUBCHEM_SHAPE_MULTIPOLES>  (1) 
304.69
6.71
2.05
0.61
2.96
0.49
0
-0.91
0
-0.43
0
0.01
-0.02
0

>  <PUBCHEM_SHAPE_SELFOVERLAP>  (1) 
683.313

>  <PUBCHEM_SHAPE_VOLUME>  (1) 
163.3

>  <PUBCHEM_COORDINATE_TYPE>  (1) 
2
5
10

$$$$
