1836
     RDKit          3D

 23 25  0  0  0  0  0  0  0  0999 V2000
    3.3321    1.4919    1.7731 O   0  0  0  0  0  0  0  0  0  0  0  0
    2.4321   -0.4515   -2.5155 O   0  0  0  0  0  0  0  0  0  0  0  0
   -2.9699    1.4276    0.4492 O   0  0  0  0  0  0  0  0  0  0  0  0
    4.2249   -2.9168    0.9045 O   0  0  0  0  0  0  0  0  0  0  0  0
    3.7320   -0.7141    1.3192 N   0  0  0  0  0  0  0  0  0  0  0  0
    3.2894   -1.6648   -0.7761 N   0  0  0  0  0  0  0  0  0  0  0  0
    2.5597    0.6636   -0.3687 C   0  0  0  0  0  0  0  0  0  0  0  0
    1.0865    0.8670   -0.1509 C   0  0  0  0  0  0  0  0  0  0  0  0
    3.1342    1.9109   -1.0549 C   0  0  0  0  0  0  0  0  0  0  0  0
    3.2460    0.5397    0.9948 C   0  0  0  0  0  0  0  0  0  0  0  0
    2.7577   -0.5133   -1.3280 C   0  0  0  0  0  0  0  0  0  0  0  0
    0.3537   -0.0999    0.5253 C   0  0  0  0  0  0  0  0  0  0  0  0
    0.4756    2.0191   -0.6287 C   0  0  0  0  0  0  0  0  0  0  0  0
    3.7722   -1.8400    0.5115 C   0  0  0  0  0  0  0  0  0  0  0  0
   -1.0136    0.0887    0.7270 C   0  0  0  0  0  0  0  0  0  0  0  0
   -0.8917    2.2077   -0.4270 C   0  0  0  0  0  0  0  0  0  0  0  0
   -1.6363    1.2425    0.2509 C   0  0  0  0  0  0  0  0  0  0  0  0
   -3.8117    0.3550    0.2070 C   0  0  0  0  0  0  0  0  0  0  0  0
   -3.6338   -0.3939   -0.9420 C   0  0  0  0  0  0  0  0  0  0  0  0
   -4.8084    0.0610    1.1196 C   0  0  0  0  0  0  0  0  0  0  0  0
   -4.4815   -1.4741   -1.1868 C   0  0  0  0  0  0  0  0  0  0  0  0
   -5.6562   -1.0194    0.8748 C   0  0  0  0  0  0  0  0  0  0  0  0
   -5.4928   -1.7869   -0.2784 C   0  0  0  0  0  0  0  0  0  0  0  0
  1 10  2  0
  2 11  2  0
  3 17  1  0
  3 18  1  0
  4 14  2  0
  5 10  1  0
  5 14  1  0
  6 11  1  0
  6 14  1  0
  7  8  1  0
  7  9  1  0
  7 10  1  0
  7 11  1  0
  8 12  2  0
  8 13  1  0
 12 15  1  0
 13 16  2  0
 15 17  2  0
 16 17  1  0
 18 19  2  0
 18 20  1  0
 19 21  1  0
 20 22  2  0
 21 23  2  0
 22 23  1  0
M  END
>  <PUBCHEM_COMPOUND_CID>  (1) 
1836

>  <PUBCHEM_CONFORMER_RMSD>  (1) 
0.6

>  <PUBCHEM_CONFORMER_DIVERSEORDER>  (1) 
1
8
6
11
3
14
15
2
7
9
5
13
12
4
10

>  <PUBCHEM_MMFF94_PARTIAL_CHARGES>  (1) 
33
1 -0.57
10 0.57
11 0.57
12 -0.15
13 -0.15
14 0.69
15 -0.15
16 -0.15
17 0.08
18 0.08
19 -0.15
2 -0.57
20 -0.15
21 -0.15
22 -0.15
23 -0.15
27 0.15
28 0.15
29 0.37
3 -0.17
30 0.37
31 0.15
32 0.15
33 0.15
34 0.15
35 0.15
36 0.15
37 0.15
4 -0.57
5 -0.49
6 -0.49
7 0.27
8 -0.14

>  <PUBCHEM_EFFECTIVE_ROTOR_COUNT>  (1) 
3.6

>  <PUBCHEM_PHARMACOPHORE_FEATURES>  (1) 
9
1 1 acceptor
1 2 acceptor
1 3 acceptor
1 4 acceptor
1 5 donor
1 6 donor
6 18 19 20 21 22 23 rings
6 5 6 7 10 11 14 rings
6 8 12 13 15 16 17 rings

>  <PUBCHEM_HEAVY_ATOM_COUNT>  (1) 
23

>  <PUBCHEM_ATOM_DEF_STEREO_COUNT>  (1) 
0

>  <PUBCHEM_ATOM_UDEF_STEREO_COUNT>  (1) 
0

>  <PUBCHEM_BOND_DEF_STEREO_COUNT>  (1) 
0

>  <PUBCHEM_BOND_UDEF_STEREO_COUNT>  (1) 
0

>  <PUBCHEM_ISOTOPIC_ATOM_COUNT>  (1) 
0

>  <PUBCHEM_COMPONENT_COUNT>  (1) 
1

>  <PUBCHEM_CACTVS_TAUTO_COUNT>  (1) 
5

>  <PUBCHEM_CONFORMER_ID>  (1) 
0000072C00000001

>  <PUBCHEM_MMFF94_ENERGY>  (1) 
84.8667

>  <PUBCHEM_FEATURE_SELFOVERLAP>  (1) 
45.714

>  <PUBCHEM_SHAPE_FINGERPRINT>  (1) 
10498660 4 8574708005550058327
10670039 82 8358264769140358579
11089746 13 9151183025697805233
11405975 8 18200032833308722081
11552529 35 15338548479419482551
11595378 159 14333140649787034395
11796584 16 17976539412698670358
12363563 72 18333736810084109833
12390115 104 11167070606757335746
12422481 6 17774441573263442703
12633257 1 16558456574122512967
12892183 10 15913334585140108693
13167823 11 18412265025856570795
13224815 77 18272371979547855833
13544653 18 18413386553655686561
13583140 156 16199861765998396561
13675066 3 17846505837738664393
13878862 14 11239173130643449923
14178342 30 17842566136635055914
1420 369 18410855460534551643
14251740 57 18413673512815413398
14251751 18 18340763728635965050
14289901 80 16415760834067474737
146900 427 17059766861887108240
14848178 5 18335691741853325579
14848178 96 9151173151562853359
15210252 30 9079105679201092758
15239154 128 9727633912561537659
15342816 4 18410583889388429133
15788980 27 18261107478874340689
16752209 62 17168419350966173448
17349148 13 17967533458704617299
17492 89 18335419032551373347
17857418 61 18343016692797152903
1813 80 18408891767427990181
18186145 218 15936416619461872393
20281475 54 18411140234030503193
20645477 70 17821451282849656312
20775530 9 17245824845408882322
21315759 227 18047745194500277207
21503847 285 9727642721291561270
235170 7 16081088186502468519
23559900 14 18334575707386063664
239999 70 16629974333810944060
25222932 49 18121224439565872911
3004659 81 17675924291879159083
312423 11 18261404307768706621
314194 84 18337112384106822491
341906 21 8069740759264872383
34797466 226 15430611648822882199
44062 13 18042118765919817845
463206 1 18261112971969383395
5104073 3 18202005417487885649
5281201 14 15647051586212570773
57724786 102 10375880696784933839
633830 44 17095813126765131993
7164475 11 18187364294266152309
76465 3 18335699390947252774
7808743 9 10087053264154495158
7970288 3 18335983151443359307
8988823 20 17703779362633989985
960060 61 17458352948186264645

>  <PUBCHEM_SHAPE_MULTIPOLES>  (1) 
439.89
11.7
2.35
1.5
11.94
0.48
-0.35
6.84
1.36
-1.79
-0.02
-0.95
0.16
-0.78

>  <PUBCHEM_SHAPE_SELFOVERLAP>  (1) 
970.204

>  <PUBCHEM_SHAPE_VOLUME>  (1) 
234.6

>  <PUBCHEM_COORDINATE_TYPE>  (1) 
2
5
10

$$$$
