18366
     RDKit          3D

 18 17  0  0  1  0  0  0  0  0999 V2000
   -1.9428   -3.2660   -0.6463 I   0  0  0  0  0  0  0  0  0  0  0  0
    1.1337   -0.2688    1.8136 F   0  0  0  0  0  0  0  0  0  0  0  0
   -0.2048    1.1378    0.8258 F   0  0  0  0  0  0  0  0  0  0  0  0
    1.4988    1.2771   -1.2992 F   0  0  0  0  0  0  0  0  0  0  0  0
    2.3616    1.8412    0.6187 F   0  0  0  0  0  0  0  0  0  0  0  0
    2.7337   -1.1831   -1.1593 F   0  0  0  0  0  0  0  0  0  0  0  0
    4.1004    0.5083   -0.9699 F   0  0  0  0  0  0  0  0  0  0  0  0
    3.5506   -0.6600    0.7875 F   0  0  0  0  0  0  0  0  0  0  0  0
   -2.8536   -0.1077   -0.3630 O   0  0  0  0  0  0  0  0  0  0  0  0
   -4.4071    1.1322    0.8144 O   0  0  0  0  0  0  0  0  0  0  0  0
    0.0515   -0.9906   -0.1523 C   0  0  0  0  0  0  0  0  0  0  0  0
    0.7150    0.1656    0.5943 C   0  0  0  0  0  0  0  0  0  0  0  0
   -1.1653   -1.5854    0.5854 C   0  0  0  0  0  0  0  0  0  0  0  0
    1.9197    0.7786   -0.1027 C   0  0  0  0  0  0  0  0  0  0  0  0
   -2.3266   -0.6227    0.8522 C   0  0  0  0  0  0  0  0  0  0  0  0
    3.0819   -0.1454   -0.3720 C   0  0  0  0  0  0  0  0  0  0  0  0
   -3.8988    0.7654   -0.2364 C   0  0  0  0  0  0  0  0  0  0  0  0
   -4.3480    1.2236   -1.5908 C   0  0  0  0  0  0  0  0  0  0  0  0
  1 13  1  0
  2 12  1  0
  3 12  1  0
  4 14  1  0
  5 14  1  0
  6 16  1  0
  7 16  1  0
  8 16  1  0
  9 15  1  0
  9 17  1  0
 10 17  2  0
 11 12  1  0
 11 13  1  0
 12 14  1  0
 13 15  1  0
 14 16  1  0
 17 18  1  0
M  END
>  <PUBCHEM_COMPOUND_CID>  (1) 
18366

>  <PUBCHEM_CONFORMER_RMSD>  (1) 
0.8

>  <PUBCHEM_CONFORMER_DIVERSEORDER>  (1) 
2
47
93
53
73
58
79
8
81
102
22
78
97
38
35
103
17
33
41
76
36
85
14
77
25
27
46
62
42
18
49
90
94
28
60
75
86
12
57
13
89
11
72
1
96
37
69
65
20
15
48
99
39
32
98
29
44
71
30
80
52
95
84
66
19
59
61
34
64
54
51
31
55
68
43
74
7
50
24
101
88
67
3
100
16
23
26
21
56
4
92
83
91
40
70
9
82
6
10
87
63
45
5

>  <PUBCHEM_MMFF94_PARTIAL_CHARGES>  (1) 
17
1 -0.19
10 -0.57
12 0.68
13 0.19
14 0.68
15 0.28
16 1.02
17 0.66
18 0.06
2 -0.34
3 -0.34
4 -0.34
5 -0.34
6 -0.34
7 -0.34
8 -0.34
9 -0.43

>  <PUBCHEM_EFFECTIVE_ROTOR_COUNT>  (1) 
7

>  <PUBCHEM_PHARMACOPHORE_FEATURES>  (1) 
2
1 1 hydrophobe
1 10 acceptor

>  <PUBCHEM_HEAVY_ATOM_COUNT>  (1) 
18

>  <PUBCHEM_ATOM_DEF_STEREO_COUNT>  (1) 
0

>  <PUBCHEM_ATOM_UDEF_STEREO_COUNT>  (1) 
1

>  <PUBCHEM_BOND_DEF_STEREO_COUNT>  (1) 
0

>  <PUBCHEM_BOND_UDEF_STEREO_COUNT>  (1) 
0

>  <PUBCHEM_ISOTOPIC_ATOM_COUNT>  (1) 
0

>  <PUBCHEM_COMPONENT_COUNT>  (1) 
1

>  <PUBCHEM_CACTVS_TAUTO_COUNT>  (1) 
1

>  <PUBCHEM_CONFORMER_ID>  (1) 
000047BE00000002

>  <PUBCHEM_MMFF94_ENERGY>  (1) 
19.6976

>  <PUBCHEM_FEATURE_SELFOVERLAP>  (1) 
10.148

>  <PUBCHEM_SHAPE_FINGERPRINT>  (1) 
10922523 26 18336273439011809951
12346177 29 18271801375836658367
12500047 106 18412263973310255318
12932764 1 18195258921013198794
13571099 22 17989215815219950990
13705890 14 15339112455332081673
13931106 250 17345179202822737599
14251751 93 18335422391717257587
14943859 89 17313108548546481841
15375358 24 18059853978411512834
15775835 57 17676207970084356749
16945 1 18201733846479158930
17834072 14 13758068580700691747
18186145 218 18411979152875689897
18511873 20 18334294270789680666
18522853 266 18341618182193342310
19868273 293 18409164445889574575
200 152 16774082851606987900
201361 129 16515680001097471297
20233049 118 18260541186893381945
20645476 183 17822012025490762771
20645477 56 18339361993307838713
20645477 70 18272099249119857118
20871999 31 18268153226130460711
21069387 34 16845301500982589582
21524375 3 18334574629776644291
231179 274 17749387019033427077
23402539 116 17846216618376853993
23557571 272 18127405880872232544
23559900 14 18202567294021255098
25 1 18340771438460723379
2748010 2 17915460720962238890
3060560 45 18263073345334867327
58051976 100 18339931540231325959
6430166 295 18113894936072060897
74978 22 18270680977713882459
7832392 63 18260828253885499885
81228 2 17904757027459789347
93112 12 18271245022873427543
9882013 296 12035735318669161437

>  <PUBCHEM_SHAPE_MULTIPOLES>  (1) 
319.71
7.6
2.46
1.3
1.13
2.26
-0.06
-3.14
-1.9
2.26
-0.52
0.16
-0.17
0.21

>  <PUBCHEM_SHAPE_SELFOVERLAP>  (1) 
620.82

>  <PUBCHEM_SHAPE_VOLUME>  (1) 
197.3

>  <PUBCHEM_COORDINATE_TYPE>  (1) 
2
5
10

$$$$
