18362
     RDKit          3D

 23 24  0  0  1  0  0  0  0  0999 V2000
   -2.9062    0.4607   -0.1221 N   0  0  0  0  0  0  0  0  0  0  0  0
    0.8206    0.1174   -0.3742 N   0  0  0  0  0  0  0  0  0  0  0  0
   -1.5107    0.3026    0.3577 C   0  0  0  0  0  0  0  0  0  0  0  0
   -3.8839    0.5296    1.0591 C   0  0  0  0  0  0  0  0  0  0  0  0
   -3.3143   -0.7221   -1.0111 C   0  0  0  0  0  0  0  0  0  0  0  0
    1.6236    1.3206   -0.3377 C   0  0  0  0  0  0  0  0  0  0  0  0
   -0.5649    0.2204   -0.8272 C   0  0  0  0  0  0  0  0  0  0  0  0
   -3.0578    1.7489   -0.9428 C   0  0  0  0  0  0  0  0  0  0  0  0
    2.0914    1.5853    1.0955 C   0  0  0  0  0  0  0  0  0  0  0  0
    2.8098    1.1702   -1.2925 C   0  0  0  0  0  0  0  0  0  0  0  0
    3.0251    2.7913    1.1655 C   0  0  0  0  0  0  0  0  0  0  0  0
    3.7439    2.3755   -1.2195 C   0  0  0  0  0  0  0  0  0  0  0  0
    4.2061    2.6436    0.2102 C   0  0  0  0  0  0  0  0  0  0  0  0
   -3.5019    1.7136    1.9327 C   0  0  0  0  0  0  0  0  0  0  0  0
   -5.2961    0.6510    0.5093 C   0  0  0  0  0  0  0  0  0  0  0  0
   -2.4367   -0.7176   -2.2524 C   0  0  0  0  0  0  0  0  0  0  0  0
   -3.1672   -2.0034   -0.2061 C   0  0  0  0  0  0  0  0  0  0  0  0
    1.3523   -1.1213    0.0002 C   0  0  0  0  0  0  0  0  0  0  0  0
    1.2757   -1.5530    1.3305 C   0  0  0  0  0  0  0  0  0  0  0  0
    1.9681   -1.9449   -0.9509 C   0  0  0  0  0  0  0  0  0  0  0  0
    1.8065   -2.7877    1.7037 C   0  0  0  0  0  0  0  0  0  0  0  0
    2.4987   -3.1797   -0.5774 C   0  0  0  0  0  0  0  0  0  0  0  0
    2.4179   -3.6011    0.7498 C   0  0  0  0  0  0  0  0  0  0  0  0
  1  3  1  0
  1  4  1  0
  1  5  1  0
  1  8  1  0
  2  6  1  0
  2  7  1  0
  2 18  1  0
  3  7  1  0
  4 14  1  0
  4 15  1  0
  5 16  1  0
  5 17  1  0
  6  9  1  0
  6 10  1  0
  9 11  1  0
 10 12  1  0
 11 13  1  0
 12 13  1  0
 18 19  2  0
 18 20  1  0
 19 21  1  0
 20 22  2  0
 21 23  2  0
 22 23  1  0
M  CHG  1   1   1
M  END
>  <PUBCHEM_COMPOUND_CID>  (1) 
18362

>  <PUBCHEM_CONFORMER_RMSD>  (1) 
0.8

>  <PUBCHEM_CONFORMER_DIVERSEORDER>  (1) 
2
24
27
3
22
15
29
28
26
5
25
4
23
21
10
17
30
1
14
19
18
7
11
20
9
12
8
16
13
6

>  <PUBCHEM_MMFF94_PARTIAL_CHARGES>  (1) 
19
1 -1.01
18 0.1
19 -0.15
2 -0.84
20 -0.15
21 -0.15
22 -0.15
23 -0.15
3 0.5
4 0.5
5 0.5
56 0.15
57 0.15
58 0.15
59 0.15
6 0.37
60 0.15
7 0.37
8 0.5

>  <PUBCHEM_EFFECTIVE_ROTOR_COUNT>  (1) 
8.2

>  <PUBCHEM_PHARMACOPHORE_FEATURES>  (1) 
6
1 1 cation
1 2 cation
3 4 14 15 hydrophobe
3 5 16 17 hydrophobe
6 18 19 20 21 22 23 rings
6 6 9 10 11 12 13 rings

>  <PUBCHEM_HEAVY_ATOM_COUNT>  (1) 
23

>  <PUBCHEM_ATOM_DEF_STEREO_COUNT>  (1) 
0

>  <PUBCHEM_ATOM_UDEF_STEREO_COUNT>  (1) 
0

>  <PUBCHEM_BOND_DEF_STEREO_COUNT>  (1) 
0

>  <PUBCHEM_BOND_UDEF_STEREO_COUNT>  (1) 
0

>  <PUBCHEM_ISOTOPIC_ATOM_COUNT>  (1) 
0

>  <PUBCHEM_COMPONENT_COUNT>  (1) 
1

>  <PUBCHEM_CACTVS_TAUTO_COUNT>  (1) 
1

>  <PUBCHEM_CONFORMER_ID>  (1) 
000047BA00000002

>  <PUBCHEM_MMFF94_ENERGY>  (1) 
134.0783

>  <PUBCHEM_FEATURE_SELFOVERLAP>  (1) 
30.446

>  <PUBCHEM_SHAPE_FINGERPRINT>  (1) 
10382601 240 18409172103784582412
10764073 3 14351079130649218324
11578080 2 17678168309080495948
121448 382 18050559939575945958
12160290 23 17468751240367511062
12422481 6 17976784690039001930
12549972 3 17387406836024552905
12553582 1 18050001091206289094
12644460 14 18341623572508810275
12707595 3 18045217137625348427
12788726 201 16459360554549085506
13140716 1 18336262444375547818
133893 2 18189591913656144598
13533116 47 18410300177635648851
13583140 156 18411711997647063481
13681431 1 18192983830034822838
13878862 14 18192700169205427117
14022347 108 17623308077565372303
14178342 30 18190466141517168391
14223421 5 18409726279235674199
14739800 52 17775275058558372952
14787075 74 17406824559173335253
14955137 171 18053677879564304450
15238133 3 16701186266110174739
15842332 3 18060124432576099255
17980427 23 17986081094684539074
1813 80 17981328893739133366
19078846 21 17979927011923059753
20567600 347 18264202694069105074
20600515 1 17549535220044960532
20739085 24 18259984894640546428
21033648 29 12181772495909494919
21120745 212 17403470576805989494
21421861 104 18338522911259332280
21524375 3 18266171928131761300
21796203 349 17903949676139120658
21864079 5 17703801271394302241
2255824 54 18336549317730828742
22849341 161 17839762369083774058
22907989 373 17254852278369839060
23419403 2 13631492793505581204
23557571 272 14476376276089619775
23558518 356 17621873618865865948
23559900 14 17916585328437463727
23566358 27 18336271171316719511
23598291 2 18272369729079977495
25147074 1 18201988933277043023
312423 11 18272927211688113951
34934 24 18272092725333455501
458136 41 18334021617976385356
469060 322 17900833948480931699
474 4 18336272356632903444
5104073 3 18338246968849144297
5895379 119 17057823805676377912
59755656 520 18192710270846603100
6049 1 17677332684844061141
6138700 20 18409731726103655102
633830 44 18200034083038742684
6442390 28 18193566794303598560
7097593 13 18197214750483346147
7364860 26 18412542076953760382
7615 1 17987783147395109613
84936 182 18343306985141178080
9841814 1 18190460450517047258

>  <PUBCHEM_SHAPE_MULTIPOLES>  (1) 
463.37
8.59
4
1.74
6.92
2.18
0
-4.46
0.57
-5.65
0.95
0.43
-0.02
-1.23

>  <PUBCHEM_SHAPE_SELFOVERLAP>  (1) 
937.867

>  <PUBCHEM_SHAPE_VOLUME>  (1) 
267.2

>  <PUBCHEM_COORDINATE_TYPE>  (1) 
2
5
10

$$$$
