1837
     RDKit          3D

 15 16  0  0  0  0  0  0  0  0999 V2000
    1.3281   -2.4153   -0.1257 N   0  0  0  0  0  0  0  0  0  0  0  0
   -3.8615    0.2901   -0.0440 N   0  0  0  0  0  0  0  0  0  0  0  0
   -0.3380   -1.0531    0.4184 C   0  0  0  0  0  0  0  0  0  0  0  0
   -1.6761   -0.5566    0.7981 C   0  0  0  0  0  0  0  0  0  0  0  0
    0.8275   -0.2660    0.2018 C   0  0  0  0  0  0  0  0  0  0  0  0
   -2.5526   -0.2281   -0.4271 C   0  0  0  0  0  0  0  0  0  0  0  0
    1.8582   -1.1447   -0.1381 C   0  0  0  0  0  0  0  0  0  0  0  0
    0.0014   -2.3700    0.2092 C   0  0  0  0  0  0  0  0  0  0  0  0
    1.1053    1.1141    0.2624 C   0  0  0  0  0  0  0  0  0  0  0  0
    2.4009    1.5628   -0.0184 C   0  0  0  0  0  0  0  0  0  0  0  0
    3.1582   -0.7107   -0.4213 C   0  0  0  0  0  0  0  0  0  0  0  0
    3.4101    0.6627   -0.3549 C   0  0  0  0  0  0  0  0  0  0  0  0
   -4.6466    0.6330   -1.2308 C   0  0  0  0  0  0  0  0  0  0  0  0
   -3.7181    1.4586    0.8256 C   0  0  0  0  0  0  0  0  0  0  0  0
    2.7033    3.0233    0.0447 C   0  0  0  0  0  0  0  0  0  0  0  0
  1  7  1  0
  1  8  1  0
  2  6  1  0
  2 13  1  0
  2 14  1  0
  3  4  1  0
  3  5  1  0
  3  8  2  0
  4  6  1  0
  5  7  2  0
  5  9  1  0
  7 11  1  0
  9 10  2  0
 10 12  1  0
 10 15  1  0
 11 12  2  0
M  END
>  <PUBCHEM_COMPOUND_CID>  (1) 
1837

>  <PUBCHEM_CONFORMER_RMSD>  (1) 
0.6

>  <PUBCHEM_CONFORMER_DIVERSEORDER>  (1) 
1
6
8
9
3
4
2
10
5
7

>  <PUBCHEM_MMFF94_PARTIAL_CHARGES>  (1) 
19
1 0.03
10 -0.14
11 -0.15
12 -0.15
13 0.27
14 0.27
15 0.14
2 -0.81
20 0.15
21 0.27
22 0.15
23 0.15
24 0.15
3 -0.18
4 0.18
6 0.27
7 -0.15
8 -0.3
9 -0.15

>  <PUBCHEM_EFFECTIVE_ROTOR_COUNT>  (1) 
3

>  <PUBCHEM_PHARMACOPHORE_FEATURES>  (1) 
5
1 1 cation
1 1 donor
1 2 cation
5 1 3 5 7 8 rings
6 5 7 9 10 11 12 rings

>  <PUBCHEM_HEAVY_ATOM_COUNT>  (1) 
15

>  <PUBCHEM_ATOM_DEF_STEREO_COUNT>  (1) 
0

>  <PUBCHEM_ATOM_UDEF_STEREO_COUNT>  (1) 
0

>  <PUBCHEM_BOND_DEF_STEREO_COUNT>  (1) 
0

>  <PUBCHEM_BOND_UDEF_STEREO_COUNT>  (1) 
0

>  <PUBCHEM_ISOTOPIC_ATOM_COUNT>  (1) 
0

>  <PUBCHEM_COMPONENT_COUNT>  (1) 
1

>  <PUBCHEM_CACTVS_TAUTO_COUNT>  (1) 
1

>  <PUBCHEM_CONFORMER_ID>  (1) 
0000072D00000001

>  <PUBCHEM_MMFF94_ENERGY>  (1) 
27.4702

>  <PUBCHEM_FEATURE_SELFOVERLAP>  (1) 
25.463

>  <PUBCHEM_SHAPE_FINGERPRINT>  (1) 
10608611 8 18336832016625025593
11471102 20 18410009905743021870
11796584 16 14548466756101569404
12654215 9 18335423448146784798
12730499 353 18261396629179343931
13294875 104 18262222387880947106
13922767 16 18409446990449934842
14250199 8 18340202999581354309
14251717 144 18411978027346195631
14415576 193 18410858763105829037
14911166 2 18340217331971597838
15279308 100 18265343978711903676
15442244 35 17909272381905778969
16945 1 18341348750853445306
17134986 127 18337669818921341462
1741750 31 18195246852350327816
18186145 218 18412833485983968385
20606313 2 18410292471715382590
21499 59 18410570734225185583
21524375 3 18334855056116618491
21639500 275 18410004416922484663
22096605 113 18410571799456248187
22289505 5 18191294980074547077
22892500 29 18335415746874745598
231179 274 17894624834003119677
23402655 69 18342454812105796805
23559900 14 18200326541154086420
23598291 2 17843402878301445871
25 1 18408890615701319818
2748010 2 18123768696845600466
3060560 45 18341891861936377294
4072396 5 18263629711441215898
43658 37 18268138928442684497
474 4 18409728478227456625
633830 44 18272664441035371429
7832392 63 17837215878921796297
84936 182 18130785693717216040

>  <PUBCHEM_SHAPE_MULTIPOLES>  (1) 
298.73
7.32
2.62
0.86
7.65
0.36
0.06
4.06
1.69
-2.04
-0.18
0.68
0.1
0.11

>  <PUBCHEM_SHAPE_SELFOVERLAP>  (1) 
629.687

>  <PUBCHEM_SHAPE_VOLUME>  (1) 
172.1

>  <PUBCHEM_COORDINATE_TYPE>  (1) 
2
5
10

$$$$
