18389
     RDKit          3D

 14 14  0  0  0  0  0  0  0  0999 V2000
    0.3938   -2.9527   -0.5661 I   0  0  0  0  0  0  0  0  0  0  0  0
    1.0705    3.1215   -0.5056 I   0  0  0  0  0  0  0  0  0  0  0  0
   -4.3031    0.7984    0.5898 I   0  0  0  0  0  0  0  0  0  0  0  0
    4.0528   -0.3669    0.1069 O   0  0  0  0  0  0  0  0  0  0  0  0
    2.3591   -0.1025    1.5954 O   0  0  0  0  0  0  0  0  0  0  0  0
   -2.6067   -1.9579    0.1242 N   0  0  0  0  0  0  0  0  0  0  0  0
    0.4197    0.1125   -0.4667 C   0  0  0  0  0  0  0  0  0  0  0  0
    1.8741   -0.0583   -0.7908 C   0  0  0  0  0  0  0  0  0  0  0  0
   -0.4080   -1.0013   -0.3239 C   0  0  0  0  0  0  0  0  0  0  0  0
   -0.1038    1.3956   -0.3081 C   0  0  0  0  0  0  0  0  0  0  0  0
   -1.7594   -0.8318   -0.0225 C   0  0  0  0  0  0  0  0  0  0  0  0
   -1.4551    1.5650   -0.0067 C   0  0  0  0  0  0  0  0  0  0  0  0
   -2.2829    0.4514    0.1361 C   0  0  0  0  0  0  0  0  0  0  0  0
    2.7490   -0.1730    0.4379 C   0  0  0  0  0  0  0  0  0  0  0  0
  1  9  1  0
  2 10  1  0
  3 13  1  0
  4 14  1  0
  5 14  2  0
  6 11  1  0
  7  8  1  0
  7  9  2  0
  7 10  1  0
  8 14  1  0
  9 11  1  0
 10 12  2  0
 11 13  2  0
 12 13  1  0
M  END
>  <PUBCHEM_COMPOUND_CID>  (1) 
18389

>  <PUBCHEM_CONFORMER_RMSD>  (1) 
0.6

>  <PUBCHEM_CONFORMER_DIVERSEORDER>  (1) 
1
2

>  <PUBCHEM_MMFF94_PARTIAL_CHARGES>  (1) 
18
1 -0.08
10 0.08
11 0.1
12 -0.15
13 0.08
14 0.66
17 0.15
18 0.4
19 0.4
2 -0.08
20 0.5
3 -0.08
4 -0.65
5 -0.57
6 -0.9
7 -0.14
8 0.2
9 0.08

>  <PUBCHEM_EFFECTIVE_ROTOR_COUNT>  (1) 
2

>  <PUBCHEM_PHARMACOPHORE_FEATURES>  (1) 
9
1 1 hydrophobe
1 2 hydrophobe
1 3 hydrophobe
1 4 acceptor
1 5 acceptor
1 6 cation
1 6 donor
3 4 5 14 anion
6 7 9 10 11 12 13 rings

>  <PUBCHEM_HEAVY_ATOM_COUNT>  (1) 
14

>  <PUBCHEM_ATOM_DEF_STEREO_COUNT>  (1) 
0

>  <PUBCHEM_ATOM_UDEF_STEREO_COUNT>  (1) 
0

>  <PUBCHEM_BOND_DEF_STEREO_COUNT>  (1) 
0

>  <PUBCHEM_BOND_UDEF_STEREO_COUNT>  (1) 
0

>  <PUBCHEM_ISOTOPIC_ATOM_COUNT>  (1) 
0

>  <PUBCHEM_COMPONENT_COUNT>  (1) 
1

>  <PUBCHEM_CACTVS_TAUTO_COUNT>  (1) 
1

>  <PUBCHEM_CONFORMER_ID>  (1) 
000047D500000001

>  <PUBCHEM_MMFF94_ENERGY>  (1) 
51.3993

>  <PUBCHEM_FEATURE_SELFOVERLAP>  (1) 
45.727

>  <PUBCHEM_SHAPE_FINGERPRINT>  (1) 
10130415 120 18259706700702046313
10967382 1 18338804403267913367
11132069 177 18410289198770792617
12251169 10 18409169909056248769
12382932 28 18410295770339988819
13140716 1 18339088202149167241
13172582 1 18410295813189369877
13380535 76 18411140204155681727
14178342 30 18342740710999276451
15375462 189 17894345575350963856
161256 15 17980489961813385519
16945 1 18410864226615530925
193761 8 17978794845616701757
20511035 2 18057321901590204765
20588541 1 18340489950261357813
20600515 1 18271814514252458020
20739085 24 17764341369535713545
20871998 184 18264765476291766780
21501502 16 18194969758435398797
22344851 262 18342737399457885967
2334 1 18123194768945234181
23402539 116 18270389500016984261
23419403 2 16115066501234948589
23463225 33 18334859385438235142
23552423 10 17973166415577149469
23559900 14 18200329766283668380
2748010 2 18193848256569662765
3250762 1 17474105397837515028
465052 167 17967829253540220795
53812653 166 18201440242335365299
589210 1 17906454681485648900
7364860 26 18195249055726780676
81228 2 17829343388388635757
90316 7 18189037725473209896

>  <PUBCHEM_SHAPE_MULTIPOLES>  (1) 
307.2
5.6
3.31
0.96
2.65
0.03
-0.18
0.51
-1.74
-0.83
0.91
-0.41
0.02
-0.2

>  <PUBCHEM_SHAPE_SELFOVERLAP>  (1) 
575.867

>  <PUBCHEM_SHAPE_VOLUME>  (1) 
200

>  <PUBCHEM_COORDINATE_TYPE>  (1) 
2
5
10

$$$$
