18388
     RDKit          3D

 17 17  0  0  0  0  0  0  0  0999 V2000
    0.0391    2.4289   -1.2585 I   0  0  0  0  0  0  0  0  0  0  0  0
   -3.0692   -2.6574    0.0968 I   0  0  0  0  0  0  0  0  0  0  0  0
    2.8816   -2.7627    0.3153 I   0  0  0  0  0  0  0  0  0  0  0  0
   -4.2136    1.8278    0.1830 O   0  0  0  0  0  0  0  0  0  0  0  0
   -2.5776    1.0894    1.5732 O   0  0  0  0  0  0  0  0  0  0  0  0
    2.8319    1.2225    1.5591 O   0  0  0  0  0  0  0  0  0  0  0  0
    2.4147    0.3421   -0.5861 N   0  0  0  0  0  0  0  0  0  0  0  0
   -1.2351   -0.2648   -0.5301 C   0  0  0  0  0  0  0  0  0  0  0  0
    1.1790   -0.3044   -0.4415 C   0  0  0  0  0  0  0  0  0  0  0  0
   -0.0100    0.3860   -0.6767 C   0  0  0  0  0  0  0  0  0  0  0  0
   -2.5196    0.4683   -0.7809 C   0  0  0  0  0  0  0  0  0  0  0  0
   -1.2713   -1.6059   -0.1484 C   0  0  0  0  0  0  0  0  0  0  0  0
    1.1428   -1.6456   -0.0598 C   0  0  0  0  0  0  0  0  0  0  0  0
   -0.0823   -2.2963    0.0867 C   0  0  0  0  0  0  0  0  0  0  0  0
   -3.0728    1.1411    0.4557 C   0  0  0  0  0  0  0  0  0  0  0  0
    3.1369    1.0402    0.3849 C   0  0  0  0  0  0  0  0  0  0  0  0
    4.4254    1.5909   -0.1727 C   0  0  0  0  0  0  0  0  0  0  0  0
  1 10  1  0
  2 12  1  0
  3 13  1  0
  4 15  1  0
  5 15  2  0
  6 16  2  0
  7  9  1  0
  7 16  1  0
  8 10  2  0
  8 11  1  0
  8 12  1  0
  9 10  1  0
  9 13  2  0
 11 15  1  0
 12 14  2  0
 13 14  1  0
 16 17  1  0
M  END
>  <PUBCHEM_COMPOUND_CID>  (1) 
18388

>  <PUBCHEM_CONFORMER_RMSD>  (1) 
0.6

>  <PUBCHEM_CONFORMER_DIVERSEORDER>  (1) 
1
4
3
2

>  <PUBCHEM_MMFF94_PARTIAL_CHARGES>  (1) 
20
1 -0.08
10 0.08
11 0.2
12 0.08
13 0.08
14 -0.15
15 0.66
16 0.57
17 0.06
2 -0.08
20 0.15
21 0.37
25 0.5
3 -0.08
4 -0.65
5 -0.57
6 -0.57
7 -0.55
8 -0.14
9 0.12

>  <PUBCHEM_EFFECTIVE_ROTOR_COUNT>  (1) 
4

>  <PUBCHEM_PHARMACOPHORE_FEATURES>  (1) 
9
1 1 hydrophobe
1 2 hydrophobe
1 3 hydrophobe
1 4 acceptor
1 5 acceptor
1 6 acceptor
1 7 donor
3 4 5 15 anion
6 8 9 10 12 13 14 rings

>  <PUBCHEM_HEAVY_ATOM_COUNT>  (1) 
17

>  <PUBCHEM_ATOM_DEF_STEREO_COUNT>  (1) 
0

>  <PUBCHEM_ATOM_UDEF_STEREO_COUNT>  (1) 
0

>  <PUBCHEM_BOND_DEF_STEREO_COUNT>  (1) 
0

>  <PUBCHEM_BOND_UDEF_STEREO_COUNT>  (1) 
0

>  <PUBCHEM_ISOTOPIC_ATOM_COUNT>  (1) 
0

>  <PUBCHEM_COMPONENT_COUNT>  (1) 
1

>  <PUBCHEM_CACTVS_TAUTO_COUNT>  (1) 
2

>  <PUBCHEM_CONFORMER_ID>  (1) 
000047D400000001

>  <PUBCHEM_MMFF94_ENERGY>  (1) 
70.1147

>  <PUBCHEM_FEATURE_SELFOVERLAP>  (1) 
45.729

>  <PUBCHEM_SHAPE_FINGERPRINT>  (1) 
10382601 240 18261963946750443560
10967382 1 18335981965324756782
11680986 33 18408887325920193775
12382932 28 18334853930808644276
12390115 104 18268445696798520348
12633257 1 18263911164774317626
13140716 1 18335138644175411115
13380535 21 18410013230243134646
14142880 1 18339067306737652837
14178342 30 18336542810696749475
14787075 74 17697593651596251155
16945 1 18260266347593366029
20510252 161 18053664960391653978
20691752 17 17530964674768562694
21501502 16 18411411808902076174
21524375 3 18272929384387398254
2334 1 18335700571905478054
23388829 49 18121493815566696783
23402539 116 18124305270904093863
23557571 272 17773326836008016831
23558518 356 18334019419048750963
23559900 14 18270963441250957294
2748010 2 18407760330617459871
350125 39 18410860962018892866
43471831 8 18261945371191409738
45790113 53 17975410213829676534
5104073 3 18336537301065982346
58807428 26 18261099769308077946
7364860 26 18270114600783130574
81228 2 18189903191453470923
90316 7 17823953775878941292

>  <PUBCHEM_SHAPE_MULTIPOLES>  (1) 
363.07
6.71
3.64
1.11
1.17
1.36
-0.24
-1.37
-1.63
-0.08
0.26
-0.07
-0.53
-0.3

>  <PUBCHEM_SHAPE_SELFOVERLAP>  (1) 
688.667

>  <PUBCHEM_SHAPE_VOLUME>  (1) 
232.3

>  <PUBCHEM_COORDINATE_TYPE>  (1) 
2
5
10

$$$$
