18385
     RDKit          3D

 21 22  0  0  1  0  0  0  0  0999 V2000
    4.5470   -0.0814    0.6177 O   0  0  0  0  0  0  0  0  0  0  0  0
    3.4494    2.2148   -0.1859 O   0  0  0  0  0  0  0  0  0  0  0  0
   -2.1016    1.8438   -0.1855 N   0  0  0  0  0  0  0  0  0  0  0  0
    1.3732    1.7029    0.7286 N   0  0  0  0  0  0  0  0  0  0  0  0
   -3.0750    0.7635   -0.3325 C   0  0  0  0  0  0  0  0  0  0  0  0
   -4.2436    0.9801    0.6350 C   0  0  0  0  0  0  0  0  0  0  0  0
   -2.3951   -0.5876   -0.0846 C   0  0  0  0  0  0  0  0  0  0  0  0
   -5.2455   -0.1711    0.5639 C   0  0  0  0  0  0  0  0  0  0  0  0
   -3.3991   -1.7370   -0.1542 C   0  0  0  0  0  0  0  0  0  0  0  0
   -4.5708   -1.5195    0.7991 C   0  0  0  0  0  0  0  0  0  0  0  0
   -1.0075    1.6845   -1.1311 C   0  0  0  0  0  0  0  0  0  0  0  0
    0.0217    2.8120   -1.0108 C   0  0  0  0  0  0  0  0  0  0  0  0
    0.6905    2.9123    0.3588 C   0  0  0  0  0  0  0  0  0  0  0  0
    2.7069    1.4489    0.4248 C   0  0  0  0  0  0  0  0  0  0  0  0
    3.1687    0.0835    0.9169 C   0  0  0  0  0  0  0  0  0  0  0  0
    2.3907   -1.0362    0.2666 C   0  0  0  0  0  0  0  0  0  0  0  0
    2.1898   -2.2165    0.9637 C   0  0  0  0  0  0  0  0  0  0  0  0
    1.8923   -0.8613   -1.0142 C   0  0  0  0  0  0  0  0  0  0  0  0
    1.4712   -3.2505    0.3635 C   0  0  0  0  0  0  0  0  0  0  0  0
    1.1735   -1.8953   -1.6143 C   0  0  0  0  0  0  0  0  0  0  0  0
    0.9631   -3.0898   -0.9254 C   0  0  0  0  0  0  0  0  0  0  0  0
  1 15  1  0
  2 14  2  0
  3  5  1  0
  3 11  1  0
  4 13  1  0
  4 14  1  0
  5  6  1  0
  5  7  1  0
  6  8  1  0
  7  9  1  0
  8 10  1  0
  9 10  1  0
 11 12  1  0
 12 13  1  0
 14 15  1  0
 15 16  1  0
 16 17  2  0
 16 18  1  0
 17 19  1  0
 18 20  2  0
 19 21  2  0
 20 21  1  0
M  END
>  <PUBCHEM_COMPOUND_CID>  (1) 
18385

>  <PUBCHEM_CONFORMER_RMSD>  (1) 
1

>  <PUBCHEM_CONFORMER_DIVERSEORDER>  (1) 
1
447
575
36
618
591
486
174
28
53
46
48
510
413
279
170
615
230
187
38
8
378
309
485
558
166
66
30
54
597
293
14
521
79
701
416
236
379
179
11
219
111
98
95
155
21
203
515
542
707
724
396
15
89
25
198
10
57
67
240
340
148
534
320
300
173
310
661
188
195
83
9
495
27
50
720
75
393
2
222
525
412
16
245
493
6
41
110
52
611
91
63
229
55
82
427
227
582
4
186
3
42
275
487
84
308
353
405
44
108
137
24
115
45
185
90
183
318
135
551
152
239
443
206
86
94
397
539
399
362
151
253
87
377
715
454
74
5
20
694
554

>  <PUBCHEM_MMFF94_PARTIAL_CHARGES>  (1) 
23
1 -0.68
11 0.27
13 0.3
14 0.57
15 0.48
16 -0.14
17 -0.15
18 -0.15
19 -0.15
2 -0.57
20 -0.15
21 -0.15
3 -0.9
33 0.36
4 -0.73
40 0.37
42 0.15
43 0.15
44 0.4
45 0.15
46 0.15
47 0.15
5 0.27

>  <PUBCHEM_EFFECTIVE_ROTOR_COUNT>  (1) 
9.2

>  <PUBCHEM_PHARMACOPHORE_FEATURES>  (1) 
8
1 1 acceptor
1 1 donor
1 2 acceptor
1 3 cation
1 3 donor
1 4 donor
6 16 17 18 19 20 21 rings
6 5 6 7 8 9 10 rings

>  <PUBCHEM_HEAVY_ATOM_COUNT>  (1) 
21

>  <PUBCHEM_ATOM_DEF_STEREO_COUNT>  (1) 
0

>  <PUBCHEM_ATOM_UDEF_STEREO_COUNT>  (1) 
1

>  <PUBCHEM_BOND_DEF_STEREO_COUNT>  (1) 
0

>  <PUBCHEM_BOND_UDEF_STEREO_COUNT>  (1) 
0

>  <PUBCHEM_ISOTOPIC_ATOM_COUNT>  (1) 
0

>  <PUBCHEM_COMPONENT_COUNT>  (1) 
1

>  <PUBCHEM_CACTVS_TAUTO_COUNT>  (1) 
2

>  <PUBCHEM_CONFORMER_ID>  (1) 
000047D100000001

>  <PUBCHEM_MMFF94_ENERGY>  (1) 
22.0609

>  <PUBCHEM_FEATURE_SELFOVERLAP>  (1) 
40.604

>  <PUBCHEM_SHAPE_FINGERPRINT>  (1) 
10064457 181 17984982853997616225
10616163 171 18410853244046661713
1100329 8 17761490692119697524
11067466 332 18336272266812610716
11578080 2 17241594027490395823
117890 22 18337956692919947385
12506688 2 18339922602187923193
12553582 1 18336272266902235975
12596602 18 16845288384611169753
12633257 1 18336536132217848363
13402501 40 18408322185432887131
13464513 79 18413109476487928172
13533116 47 18272932714000025945
14223421 5 18265891350365385246
14251705 54 18266735783959181178
14251757 17 18043517336236738013
14251757 5 16972821515284892030
14790565 3 18265621076970136660
15635459 17 18409733919993049787
1813 80 17313394430893264349
19591789 44 18411131476860926268
19930381 70 18337670794348825395
21197605 99 17906179808317622107
21315764 371 16485817330080947303
21673915 165 18268427017711001697
23184049 29 17976537213205805910
23559900 14 18265893549420211375
463206 1 17695618942394993391
6287921 2 18130518499781109903
6438718 38 17484233420743251086
6443956 14 18410579508833451825
6823239 73 18129114345837821790
7064713 232 18059570347239965331

>  <PUBCHEM_SHAPE_MULTIPOLES>  (1) 
410.47
8.54
3.97
1.17
8.58
0.2
-0.25
1.05
2.9
-2.01
-0.51
-0.34
0.23
0.53

>  <PUBCHEM_SHAPE_SELFOVERLAP>  (1) 
834.703

>  <PUBCHEM_SHAPE_VOLUME>  (1) 
236.1

>  <PUBCHEM_COORDINATE_TYPE>  (1) 
2
5
10

$$$$
