1838
     RDKit          3D

 22 23  0  0  1  0  0  0  0  0999 V2000
   -0.9662   -0.8853    0.7991 O   0  0  0  0  0  0  0  0  0  0  0  0
   -3.3158    1.1496    0.6930 O   0  0  0  0  0  0  0  0  0  0  0  0
   -1.3044    2.5482   -0.2214 O   0  0  0  0  0  0  0  0  0  0  0  0
   -1.8197   -3.2572   -0.3421 O   0  0  0  0  0  0  0  0  0  0  0  0
    1.3906    2.5385    0.1557 O   0  0  0  0  0  0  0  0  0  0  0  0
    1.0006    0.2774    0.3737 N   0  0  0  0  0  0  0  0  0  0  0  0
    3.1621    1.1592   -0.1633 N   0  0  0  0  0  0  0  0  0  0  0  0
    4.9913   -0.2129   -0.4962 N   0  0  0  0  0  0  0  0  0  0  0  0
   -2.5803    0.4747   -0.3456 C   0  0  0  0  0  0  0  0  0  0  0  0
   -1.1909    1.1433   -0.4533 C   0  0  0  0  0  0  0  0  0  0  0  0
   -2.2547   -0.9624    0.1448 C   0  0  0  0  0  0  0  0  0  0  0  0
   -0.4034    0.4362    0.6811 C   0  0  0  0  0  0  0  0  0  0  0  0
   -3.4694    0.5564   -1.5849 C   0  0  0  0  0  0  0  0  0  0  0  0
   -0.5351    1.0050   -1.8382 C   0  0  0  0  0  0  0  0  0  0  0  0
   -2.1251   -2.0234   -0.9566 C   0  0  0  0  0  0  0  0  0  0  0  0
   -3.2483   -1.4949    1.1896 C   0  0  0  0  0  0  0  0  0  0  0  0
   -0.5145    1.1002    2.0589 C   0  0  0  0  0  0  0  0  0  0  0  0
    1.5175   -1.0010    0.3299 C   0  0  0  0  0  0  0  0  0  0  0  0
    1.8295    1.3876    0.1233 C   0  0  0  0  0  0  0  0  0  0  0  0
    2.7999   -1.2561    0.0555 C   0  0  0  0  0  0  0  0  0  0  0  0
    3.6542   -0.0534   -0.2050 C   0  0  0  0  0  0  0  0  0  0  0  0
    3.3821   -2.6297    0.0020 C   0  0  0  0  0  0  0  0  0  0  0  0
  1 11  1  0
  1 12  1  0
  2  9  1  0
  3 10  1  0
  4 15  1  0
  5 19  2  0
  6 12  1  0
  6 18  1  0
  6 19  1  0
  7 19  1  0
  7 21  2  0
  8 21  1  0
  9 10  1  0
  9 11  1  0
  9 13  1  0
 10 12  1  0
 10 14  1  0
 11 15  1  0
 11 16  1  0
 12 17  1  0
 18 20  2  0
 20 21  1  0
 20 22  1  0
M  END
>  <PUBCHEM_COMPOUND_CID>  (1) 
1838

>  <PUBCHEM_CONFORMER_RMSD>  (1) 
0.6

>  <PUBCHEM_CONFORMER_DIVERSEORDER>  (1) 
8
50
20
30
3
38
49
57
53
52
5
55
54
45
47
28
48
51
10
44
17
59
39
33
12
26
40
43
25
58
11
27
24
29
41
23
32
37
46
21
35
9
18
19
14
1
60
34
4
7
16
15
22
36
56
31
2
6
13
42

>  <PUBCHEM_MMFF94_PARTIAL_CHARGES>  (1) 
24
1 -0.56
10 0.28
11 0.28
12 0.58
15 0.28
18 -0.04
19 0.84
2 -0.68
20 -0.12
21 0.49
22 0.14
3 -0.68
37 0.4
38 0.4
39 0.15
4 -0.68
40 0.4
44 0.4
45 0.4
5 -0.57
6 -0.47
7 -0.66
8 -0.85
9 0.28

>  <PUBCHEM_EFFECTIVE_ROTOR_COUNT>  (1) 
3

>  <PUBCHEM_PHARMACOPHORE_FEATURES>  (1) 
12
1 1 acceptor
1 2 acceptor
1 2 donor
1 3 acceptor
1 3 donor
1 4 acceptor
1 4 donor
1 5 acceptor
1 7 donor
1 8 donor
5 1 9 10 11 12 rings
6 6 7 18 19 20 21 rings

>  <PUBCHEM_HEAVY_ATOM_COUNT>  (1) 
22

>  <PUBCHEM_ATOM_DEF_STEREO_COUNT>  (1) 
0

>  <PUBCHEM_ATOM_UDEF_STEREO_COUNT>  (1) 
4

>  <PUBCHEM_BOND_DEF_STEREO_COUNT>  (1) 
0

>  <PUBCHEM_BOND_UDEF_STEREO_COUNT>  (1) 
0

>  <PUBCHEM_ISOTOPIC_ATOM_COUNT>  (1) 
0

>  <PUBCHEM_COMPONENT_COUNT>  (1) 
1

>  <PUBCHEM_CACTVS_TAUTO_COUNT>  (1) 
3

>  <PUBCHEM_CONFORMER_ID>  (1) 
0000072E00000008

>  <PUBCHEM_MMFF94_ENERGY>  (1) 
97.8948

>  <PUBCHEM_FEATURE_SELFOVERLAP>  (1) 
60.98

>  <PUBCHEM_SHAPE_FINGERPRINT>  (1) 
10616163 171 18412547630367969582
10863032 1 18409446998712925773
10967382 1 18410572842922447402
11578080 2 17631151139146378561
12173636 292 18267580204505078077
12403814 3 18040718030659895925
12506688 2 18271809081049795658
12553582 1 18412824702960815218
12788726 201 17488190291976317336
12969540 114 17459728369030100997
13027679 85 18200877387060992273
13140716 1 18408882974970156064
14787075 74 16765915945619312296
14790565 3 18122911914968257361
15375462 189 18200321042424855162
16752209 62 18125988387188167435
16945 1 18411128143460006305
19930381 70 17907860604618236327
200 152 18059852857377530176
20871999 31 18187072980088578487
21501502 16 18410571816245714176
221490 88 18265619964768123106
22802520 49 18334289894402498985
2334 1 18190737724957369131
23557571 272 17749112205123685614
23559900 14 18412535519034636784
23566358 27 18120386611499324380
2748010 2 18262788709130383649
2871803 45 18193265527896691639
34934 24 18409724037373476554
394222 165 14041476687963434219
69090 78 18335978679948964725
74978 22 18341326760056218401
90525 40 18201439142612929543
9709674 26 18339923701947490438

>  <PUBCHEM_SHAPE_MULTIPOLES>  (1) 
408.46
6.63
2.71
1.32
5.1
1.09
-0.06
1.82
1
-0.19
0.13
-1
-0.28
0.19

>  <PUBCHEM_SHAPE_SELFOVERLAP>  (1) 
866.447

>  <PUBCHEM_SHAPE_VOLUME>  (1) 
226.8

>  <PUBCHEM_COORDINATE_TYPE>  (1) 
2
5
10

$$$$
