18380
     RDKit          3D

 20 20  0  0  0  0  0  0  0  0999 V2000
   -4.8907    0.1742   -0.8201 O   0  0  0  0  0  0  0  0  0  0  0  0
   -8.0546   -1.2329    0.1179 O   0  0  0  0  0  0  0  0  0  0  0  0
   -7.5483    0.7745   -0.8317 O   0  0  0  0  0  0  0  0  0  0  0  0
    3.9585   -0.1075   -0.1120 C   0  0  0  0  0  0  0  0  0  0  0  0
    5.3662    0.0128    0.4760 C   0  0  0  0  0  0  0  0  0  0  0  0
    2.8489    0.1655    0.9084 C   0  0  0  0  0  0  0  0  0  0  0  0
    6.4358   -0.2461   -0.5888 C   0  0  0  0  0  0  0  0  0  0  0  0
    1.4424    0.1178    0.3015 C   0  0  0  0  0  0  0  0  0  0  0  0
    7.8434   -0.0877   -0.0093 C   0  0  0  0  0  0  0  0  0  0  0  0
    0.3384    0.3816    1.3328 C   0  0  0  0  0  0  0  0  0  0  0  0
    8.9524   -0.3659   -1.0262 C   0  0  0  0  0  0  0  0  0  0  0  0
   -1.0553    0.3269    0.7592 C   0  0  0  0  0  0  0  0  0  0  0  0
   10.3521   -0.1407   -0.4751 C   0  0  0  0  0  0  0  0  0  0  0  0
   -1.6461    1.4829    0.2491 C   0  0  0  0  0  0  0  0  0  0  0  0
   -1.7534   -0.8805    0.7386 C   0  0  0  0  0  0  0  0  0  0  0  0
   -2.9350    1.4317   -0.2815 C   0  0  0  0  0  0  0  0  0  0  0  0
   -3.0424   -0.9318    0.2081 C   0  0  0  0  0  0  0  0  0  0  0  0
   -3.6332    0.2242   -0.3019 C   0  0  0  0  0  0  0  0  0  0  0  0
   -5.7812   -0.7961   -0.2711 C   0  0  0  0  0  0  0  0  0  0  0  0
   -7.1978   -0.3028   -0.3741 C   0  0  0  0  0  0  0  0  0  0  0  0
  1 18  1  0
  1 19  1  0
  2 20  1  0
  3 20  2  0
  4  5  1  0
  4  6  1  0
  5  7  1  0
  6  8  1  0
  7  9  1  0
  8 10  1  0
  9 11  1  0
 10 12  1  0
 11 13  1  0
 12 14  2  0
 12 15  1  0
 14 16  1  0
 15 17  2  0
 16 18  2  0
 17 18  1  0
 19 20  1  0
M  END
>  <PUBCHEM_COMPOUND_CID>  (1) 
18380

>  <PUBCHEM_CONFORMER_RMSD>  (1) 
1

>  <PUBCHEM_CONFORMER_DIVERSEORDER>  (1) 
1
144
37
76
133
91
43
17
112
93
49
39
110
42
109
118
67
158
115
83
51
95
9
107
79
123
26
143
108
4
147
70
21
10
152
64
121
104
157
89
74
65
145
25
135
131
90
45
50
130
3
92
111
101
139
40
14
132
12
33
140
154
128
46
75
23
29
56
27
78
52
134
138
141
48
103
34
126
30
2
13
84
20
159
18
124
105
106
38
88
149
6
98
24
129
156
86
16
96
125
5
71
148
72
153
8
142
81
87
32
150
114
94
53
15
44
59
119
41
127
54
22
117
155
31
58
120
66
151
62
116
77
102
35
100
113
85
60
82
136
19
63
61
137
11
97
55
69
160
80
68
146
122
73
36
57
7
47
99
28

>  <PUBCHEM_MMFF94_PARTIAL_CHARGES>  (1) 
17
1 -0.36
10 0.14
12 -0.14
14 -0.15
15 -0.15
16 -0.15
17 -0.15
18 0.08
19 0.34
2 -0.65
20 0.66
3 -0.57
40 0.15
41 0.15
42 0.15
43 0.15
46 0.5

>  <PUBCHEM_EFFECTIVE_ROTOR_COUNT>  (1) 
11

>  <PUBCHEM_PHARMACOPHORE_FEATURES>  (1) 
6
1 1 acceptor
1 13 hydrophobe
1 2 acceptor
1 3 acceptor
3 2 3 20 anion
6 12 14 15 16 17 18 rings

>  <PUBCHEM_HEAVY_ATOM_COUNT>  (1) 
20

>  <PUBCHEM_ATOM_DEF_STEREO_COUNT>  (1) 
0

>  <PUBCHEM_ATOM_UDEF_STEREO_COUNT>  (1) 
0

>  <PUBCHEM_BOND_DEF_STEREO_COUNT>  (1) 
0

>  <PUBCHEM_BOND_UDEF_STEREO_COUNT>  (1) 
0

>  <PUBCHEM_ISOTOPIC_ATOM_COUNT>  (1) 
0

>  <PUBCHEM_COMPONENT_COUNT>  (1) 
1

>  <PUBCHEM_CACTVS_TAUTO_COUNT>  (1) 
1

>  <PUBCHEM_CONFORMER_ID>  (1) 
000047CC00000001

>  <PUBCHEM_MMFF94_ENERGY>  (1) 
29.44

>  <PUBCHEM_FEATURE_SELFOVERLAP>  (1) 
30.509

>  <PUBCHEM_SHAPE_FINGERPRINT>  (1) 
10 15 8214145153427402496
10299344 5 13973964307997337948
106641 1 7781512625022817877
11315181 36 17967540081860945448
12643181 29 17632574980649720887
13533116 47 17096070412242945656
13668630 136 17418376887797642550
13685833 64 16845572020003779272
13885169 127 16917073226402955033
14123256 10 18413670210544257846
14251764 18 17603864490555095296
14251764 46 18411139134128154003
14344974 52 17531251712149440628
14428016 86 15068340099627185408
15183329 4 17967814930119713456
155225 1 14851601072977277247
15690457 1 15339115741340694644
15716309 27 14117796917231839880
18006028 8 16343702140570543617
1818759 1 16774082873714951118
18335252 98 16732989721753839115
18643901 69 18131353011604397661
21150785 3 17603585231417505794
21267235 1 18272932734530649433
22224240 67 11312054348868733804
23035841 295 15626221325555289588
232437 2 16630526241192171526
23559900 14 18267296706635837424
246663 6 17060622200856386406
249057 3 18187085091969972134
335352 9 18334006199813789807
33684 2 17967250897808094562
4325135 7 18272652346755391806
59682541 35 13470401185005113550
636775 72 12107775290773649991
636775 8 18186805825008034547
8209 1 18040435491021795790
9953998 17 9799684896718766988

>  <PUBCHEM_SHAPE_MULTIPOLES>  (1) 
393.98
30.41
1.06
0.97
45.02
0.16
0.08
-7.78
-10.23
-1.34
0
0.11
0.05
0.77

>  <PUBCHEM_SHAPE_SELFOVERLAP>  (1) 
773.504

>  <PUBCHEM_SHAPE_VOLUME>  (1) 
236.6

>  <PUBCHEM_COORDINATE_TYPE>  (1) 
2
5
10

$$$$
