18391
     RDKit          3D

 10 10  0  0  0  0  0  0  0  0999 V2000
    2.6080    0.0183   -0.5242 S   0  0  0  0  0  0  0  0  0  0  0  0
   -3.2701    0.3371    0.2581 O   0  0  0  0  0  0  0  0  0  0  0  0
    0.0929   -1.0749   -0.0301 C   0  0  0  0  0  0  0  0  0  0  0  0
    0.8370    0.0773   -0.2838 C   0  0  0  0  0  0  0  0  0  0  0  0
   -1.2874   -0.9878    0.1516 C   0  0  0  0  0  0  0  0  0  0  0  0
    0.2010    1.3165   -0.3558 C   0  0  0  0  0  0  0  0  0  0  0  0
   -1.9234    0.2516    0.0796 C   0  0  0  0  0  0  0  0  0  0  0  0
    0.7285   -2.4256    0.0563 C   0  0  0  0  0  0  0  0  0  0  0  0
   -1.1793    1.4038   -0.1740 C   0  0  0  0  0  0  0  0  0  0  0  0
    3.1929    1.0837    0.8222 C   0  0  0  0  0  0  0  0  0  0  0  0
  1  4  1  0
  1 10  1  0
  2  7  1  0
  3  4  2  0
  3  5  1  0
  3  8  1  0
  4  6  1  0
  5  7  2  0
  6  9  2  0
  7  9  1  0
M  END
>  <PUBCHEM_COMPOUND_CID>  (1) 
18391

>  <PUBCHEM_CONFORMER_RMSD>  (1) 
0.4

>  <PUBCHEM_CONFORMER_DIVERSEORDER>  (1) 
2
1
3
4
5

>  <PUBCHEM_MMFF94_PARTIAL_CHARGES>  (1) 
14
1 -0.33
10 0.23
11 0.15
12 0.15
16 0.15
2 -0.53
20 0.45
3 -0.14
4 0.1
5 -0.15
6 -0.15
7 0.08
8 0.14
9 -0.15

>  <PUBCHEM_EFFECTIVE_ROTOR_COUNT>  (1) 
1

>  <PUBCHEM_PHARMACOPHORE_FEATURES>  (1) 
3
1 10 hydrophobe
1 2 donor
6 3 4 5 6 7 9 rings

>  <PUBCHEM_HEAVY_ATOM_COUNT>  (1) 
10

>  <PUBCHEM_ATOM_DEF_STEREO_COUNT>  (1) 
0

>  <PUBCHEM_ATOM_UDEF_STEREO_COUNT>  (1) 
0

>  <PUBCHEM_BOND_DEF_STEREO_COUNT>  (1) 
0

>  <PUBCHEM_BOND_UDEF_STEREO_COUNT>  (1) 
0

>  <PUBCHEM_ISOTOPIC_ATOM_COUNT>  (1) 
0

>  <PUBCHEM_COMPONENT_COUNT>  (1) 
1

>  <PUBCHEM_CACTVS_TAUTO_COUNT>  (1) 
6

>  <PUBCHEM_CONFORMER_ID>  (1) 
000047D700000002

>  <PUBCHEM_MMFF94_ENERGY>  (1) 
26.0932

>  <PUBCHEM_FEATURE_SELFOVERLAP>  (1) 
15.223

>  <PUBCHEM_SHAPE_FINGERPRINT>  (1) 
10857977 72 18261678154941210177
14325111 11 18411702092845719660
15310529 11 15195291897512068292
161256 15 18193846937555773454
16945 1 18334581239124404557
193761 8 17832426393053784733
20645464 45 18201998880510866984
20871998 184 17983019143784882326
21040471 1 18408893957370388622
23235685 24 18335421270218648605
23402655 69 18193542399686501645
23552423 10 17899427380428867351
241688 4 17612320653536531193
2748010 2 18265625461782813199
369184 2 18273210924047093996
5084963 1 18342750589212800748
53812653 166 18341894099455822833
54338 74 17904179766263503942
6333449 129 18270394031101726388
7364860 26 18126284138721033694

>  <PUBCHEM_SHAPE_MULTIPOLES>  (1) 
203.78
4.02
1.93
0.75
0.65
1.01
-0.02
-1.41
-0.7
0.26
-0.05
0.33
-0.09
0.28

>  <PUBCHEM_SHAPE_SELFOVERLAP>  (1) 
403.314

>  <PUBCHEM_SHAPE_VOLUME>  (1) 
123.7

>  <PUBCHEM_COORDINATE_TYPE>  (1) 
2
5
10

$$$$
