18393
     RDKit          3D

  8  7  0  0  0  0  0  0  0  0999 V2000
    3.5676    0.3415    0.0076 O   0  0  0  0  0  0  0  0  0  0  0  0
   -1.4287    0.0083    0.0011 C   0  0  0  0  0  0  0  0  0  0  0  0
   -0.0460   -0.6953   -0.0411 C   0  0  0  0  0  0  0  0  0  0  0  0
    1.1734    0.2307   -0.0179 C   0  0  0  0  0  0  0  0  0  0  0  0
   -2.5201   -1.0799    0.0311 C   0  0  0  0  0  0  0  0  0  0  0  0
   -1.5726    0.8771    1.2616 C   0  0  0  0  0  0  0  0  0  0  0  0
   -1.6469    0.8827   -1.2448 C   0  0  0  0  0  0  0  0  0  0  0  0
    2.4733   -0.5652    0.0024 C   0  0  0  0  0  0  0  0  0  0  0  0
  1  8  1  0
  2  3  1  0
  2  5  1  0
  2  6  1  0
  2  7  1  0
  3  4  1  0
  4  8  1  0
M  END
>  <PUBCHEM_COMPOUND_CID>  (1) 
18393

>  <PUBCHEM_CONFORMER_RMSD>  (1) 
0.6

>  <PUBCHEM_CONFORMER_DIVERSEORDER>  (1) 
1
4
3
2

>  <PUBCHEM_MMFF94_PARTIAL_CHARGES>  (1) 
3
1 -0.68
24 0.4
8 0.28

>  <PUBCHEM_EFFECTIVE_ROTOR_COUNT>  (1) 
3

>  <PUBCHEM_PHARMACOPHORE_FEATURES>  (1) 
3
1 1 acceptor
1 1 donor
4 2 5 6 7 hydrophobe

>  <PUBCHEM_HEAVY_ATOM_COUNT>  (1) 
8

>  <PUBCHEM_ATOM_DEF_STEREO_COUNT>  (1) 
0

>  <PUBCHEM_ATOM_UDEF_STEREO_COUNT>  (1) 
0

>  <PUBCHEM_BOND_DEF_STEREO_COUNT>  (1) 
0

>  <PUBCHEM_BOND_UDEF_STEREO_COUNT>  (1) 
0

>  <PUBCHEM_ISOTOPIC_ATOM_COUNT>  (1) 
0

>  <PUBCHEM_COMPONENT_COUNT>  (1) 
1

>  <PUBCHEM_CACTVS_TAUTO_COUNT>  (1) 
1

>  <PUBCHEM_CONFORMER_ID>  (1) 
000047D900000001

>  <PUBCHEM_MMFF94_ENERGY>  (1) 
13.2057

>  <PUBCHEM_FEATURE_SELFOVERLAP>  (1) 
15.223

>  <PUBCHEM_SHAPE_FINGERPRINT>  (1) 
12932764 1 18113623339789260354
13024252 1 15719392828470098255
14325111 11 18408602548334847190
14390081 3 17749102266843688884
20653085 51 17898282801851607877
24536 1 18059288747593132331
29004967 10 17275109439591405738
3248919 1 18059288769379244174
369184 2 18187081732714800331
5084963 1 18334857246576040290
5460574 1 9223234044182987918

>  <PUBCHEM_SHAPE_MULTIPOLES>  (1) 
158.77
4.5
1.08
1.01
4.27
0.06
-0.01
0.19
0
-0.54
0
-0.65
-0.35
0.02

>  <PUBCHEM_SHAPE_SELFOVERLAP>  (1) 
282.899

>  <PUBCHEM_SHAPE_VOLUME>  (1) 
105.1

>  <PUBCHEM_COORDINATE_TYPE>  (1) 
2
5
10

$$$$
