18394
     RDKit          3D

 12 11  0  0  0  0  0  0  0  0999 V2000
    3.6244    0.0327   -0.0094 Si  0  0  0  0  0  4  0  0  0  0  0  0
   -2.9534   -0.5584   -0.0003 O   0  0  0  0  0  0  0  0  0  0  0  0
   -4.2497    1.3440   -0.0058 O   0  0  0  0  0  0  0  0  0  0  0  0
   -5.2026   -0.7486   -0.0204 N   0  0  0  0  0  0  0  0  0  0  0  0
    1.9608   -0.8210    0.0162 C   0  0  0  0  0  0  0  0  0  0  0  0
    0.7445    0.1111    0.0501 C   0  0  0  0  0  0  0  0  0  0  0  0
    3.7210    1.1798   -1.4919 C   0  0  0  0  0  0  0  0  0  0  0  0
    3.8445    1.0320    1.5643 C   0  0  0  0  0  0  0  0  0  0  0  0
    4.9898   -1.2499   -0.1266 C   0  0  0  0  0  0  0  0  0  0  0  0
   -0.5621   -0.6810    0.0201 C   0  0  0  0  0  0  0  0  0  0  0  0
   -1.7761    0.2371    0.0123 C   0  0  0  0  0  0  0  0  0  0  0  0
   -4.1412    0.1223   -0.0085 C   0  0  0  0  0  0  0  0  0  0  0  0
  1  5  1  0
  1  7  1  0
  1  8  1  0
  1  9  1  0
  2 11  1  0
  2 12  1  0
  3 12  2  0
  4 12  1  0
  5  6  1  0
  6 10  1  0
 10 11  1  0
M  END
>  <PUBCHEM_COMPOUND_CID>  (1) 
18394

>  <PUBCHEM_CONFORMER_RMSD>  (1) 
0.6

>  <PUBCHEM_CONFORMER_DIVERSEORDER>  (1) 
1
67
30
25
5
42
63
54
18
15
3
61
2
40
66
19
33
4
64
62
28
41
8
26
21
49
52
20
70
39
14
69
51
50
36
32
35
12
44
55
31
43
10
13
46
65
17
23
68
16
9
59
7
11
24
22
48
6
29
27
38
34
57
58
60
45
37
53
56
47

>  <PUBCHEM_MMFF94_PARTIAL_CHARGES>  (1) 
12
1 0.32
11 0.28
12 0.78
2 -0.43
3 -0.57
30 0.37
31 0.37
4 -0.8
5 -0.08
7 -0.08
8 -0.08
9 -0.08

>  <PUBCHEM_EFFECTIVE_ROTOR_COUNT>  (1) 
6

>  <PUBCHEM_PHARMACOPHORE_FEATURES>  (1) 
2
1 3 acceptor
1 4 donor

>  <PUBCHEM_HEAVY_ATOM_COUNT>  (1) 
12

>  <PUBCHEM_ATOM_DEF_STEREO_COUNT>  (1) 
0

>  <PUBCHEM_ATOM_UDEF_STEREO_COUNT>  (1) 
0

>  <PUBCHEM_BOND_DEF_STEREO_COUNT>  (1) 
0

>  <PUBCHEM_BOND_UDEF_STEREO_COUNT>  (1) 
0

>  <PUBCHEM_ISOTOPIC_ATOM_COUNT>  (1) 
0

>  <PUBCHEM_COMPONENT_COUNT>  (1) 
1

>  <PUBCHEM_CACTVS_TAUTO_COUNT>  (1) 
2

>  <PUBCHEM_CONFORMER_ID>  (1) 
000047DA00000001

>  <PUBCHEM_MMFF94_ENERGY>  (1) 
6.3836

>  <PUBCHEM_FEATURE_SELFOVERLAP>  (1) 
10.148

>  <PUBCHEM_SHAPE_FINGERPRINT>  (1) 
10912923 1 17385723612423351073
11287383 113 17274820293940254467
13081056 2 18201997733184971376
14123238 8 8358252640141587002
17834072 33 18187086195455041255
17834076 25 17385445410058791002
18186145 218 16877940568473008190
20279233 1 12751234826922020070
20369508 70 17775566417082687490
20645477 70 15985114015542023044
20719005 15 18411138030332277319
212847 35 18413390934569723192
23402539 116 18271801298500340709
23557571 272 18188493471364391133
300161 21 11167940234328635631
4047638 21 17489305317637499210
42788 4 18411700976191152422
4990 188 17275108331679637294
522135 26 15646768986255076202
5374978 207 17989202651276817474
633830 44 17749108911168904954
90127 26 17022908934153178412

>  <PUBCHEM_SHAPE_MULTIPOLES>  (1) 
248.45
12.2
1.24
1.03
12.03
0.1
-0.04
-0.04
0.12
-0.73
0.05
-1.52
0.42
0.03

>  <PUBCHEM_SHAPE_SELFOVERLAP>  (1) 
439.105

>  <PUBCHEM_SHAPE_VOLUME>  (1) 
162.3

>  <PUBCHEM_COORDINATE_TYPE>  (1) 
2
5
10

$$$$
