18395
     RDKit          3D

 12 11  0  0  0  0  0  0  0  0999 V2000
    2.8407   -0.5599   -0.0089 O   0  0  0  0  0  0  0  0  0  0  0  0
    4.1639    1.3237    0.0143 O   0  0  0  0  0  0  0  0  0  0  0  0
    5.0877   -0.7817   -0.0123 N   0  0  0  0  0  0  0  0  0  0  0  0
   -3.4703    0.0077   -0.0126 C   0  0  0  0  0  0  0  0  0  0  0  0
   -2.0965   -0.7135    0.0278 C   0  0  0  0  0  0  0  0  0  0  0  0
   -0.8631    0.1988    0.0132 C   0  0  0  0  0  0  0  0  0  0  0  0
   -3.5944    0.8740    1.2564 C   0  0  0  0  0  0  0  0  0  0  0  0
   -3.5818    0.9250   -1.2414 C   0  0  0  0  0  0  0  0  0  0  0  0
   -4.6293   -1.0027   -0.0278 C   0  0  0  0  0  0  0  0  0  0  0  0
    0.4295   -0.6265   -0.0093 C   0  0  0  0  0  0  0  0  0  0  0  0
    1.6751    0.2514    0.0015 C   0  0  0  0  0  0  0  0  0  0  0  0
    4.0385    0.1038   -0.0009 C   0  0  0  0  0  0  0  0  0  0  0  0
  1 11  1  0
  1 12  1  0
  2 12  2  0
  3 12  1  0
  4  5  1  0
  4  7  1  0
  4  8  1  0
  4  9  1  0
  5  6  1  0
  6 10  1  0
 10 11  1  0
M  END
>  <PUBCHEM_COMPOUND_CID>  (1) 
18395

>  <PUBCHEM_CONFORMER_RMSD>  (1) 
0.6

>  <PUBCHEM_CONFORMER_DIVERSEORDER>  (1) 
1
37
76
50
43
77
48
39
54
4
28
22
47
74
29
6
34
32
49
72
51
35
30
17
66
60
52
20
62
16
65
63
3
14
40
31
55
58
68
53
2
67
73
61
64
27
71
45
26
11
38
33
42
57
36
41
21
8
13
19
46
70
7
9
5
59
12
10
75
18
25
15
56
24
69
44
23

>  <PUBCHEM_MMFF94_PARTIAL_CHARGES>  (1) 
7
1 -0.43
11 0.28
12 0.78
2 -0.57
3 -0.8
30 0.37
31 0.37

>  <PUBCHEM_EFFECTIVE_ROTOR_COUNT>  (1) 
6

>  <PUBCHEM_PHARMACOPHORE_FEATURES>  (1) 
4
1 2 acceptor
1 3 donor
4 4 5 6 10 hydrophobe
4 4 7 8 9 hydrophobe

>  <PUBCHEM_HEAVY_ATOM_COUNT>  (1) 
12

>  <PUBCHEM_ATOM_DEF_STEREO_COUNT>  (1) 
0

>  <PUBCHEM_ATOM_UDEF_STEREO_COUNT>  (1) 
0

>  <PUBCHEM_BOND_DEF_STEREO_COUNT>  (1) 
0

>  <PUBCHEM_BOND_UDEF_STEREO_COUNT>  (1) 
0

>  <PUBCHEM_ISOTOPIC_ATOM_COUNT>  (1) 
0

>  <PUBCHEM_COMPONENT_COUNT>  (1) 
1

>  <PUBCHEM_CACTVS_TAUTO_COUNT>  (1) 
2

>  <PUBCHEM_CONFORMER_ID>  (1) 
000047DB00000001

>  <PUBCHEM_MMFF94_ENERGY>  (1) 
18.8996

>  <PUBCHEM_FEATURE_SELFOVERLAP>  (1) 
20.334

>  <PUBCHEM_SHAPE_FINGERPRINT>  (1) 
10014705 185 18260543425045869733
10680689 15 17749112183954771731
13081056 2 18333448759396372676
14123238 8 18408324410136190999
17834072 33 18342455988583905518
17834076 25 17275107231967536174
18186145 218 18410015424928906482
1986462 14 18411420618085228487
20279233 1 12612749095383173123
20645477 70 18272656714732428774
20719005 15 18410856572698927170
20828058 21 17167580483923831566
22485316 2 18113332007424839986
2306618 200 18335421232313373393
23380061 127 17917994975590428755
23402539 116 17275100604875274425
300161 21 11314308377669874386
42788 4 18410573994063243055
90127 26 17603308141713466508

>  <PUBCHEM_SHAPE_MULTIPOLES>  (1) 
230.23
11.37
1.09
0.87
8.63
0.09
0.01
-0.07
-0.04
-0.23
-0.01
-1.02
0.25
0.02

>  <PUBCHEM_SHAPE_SELFOVERLAP>  (1) 
426.611

>  <PUBCHEM_SHAPE_VOLUME>  (1) 
146.1

>  <PUBCHEM_COORDINATE_TYPE>  (1) 
2
5
10

$$$$
