18398
     RDKit          3D

  8  8  0  0  0  0  0  0  0  0999 V2000
    0.1743    0.9386    0.0736 O   0  0  0  0  0  0  0  0  0  0  0  0
    2.4507    0.6727   -0.0159 O   0  0  0  0  0  0  0  0  0  0  0  0
   -0.9723    0.0723   -0.0008 C   0  0  0  0  0  0  0  0  0  0  0  0
   -0.4418   -1.2780    0.4541 C   0  0  0  0  0  0  0  0  0  0  0  0
    0.9940   -1.2615   -0.0196 C   0  0  0  0  0  0  0  0  0  0  0  0
   -1.4762    0.0500   -1.4457 C   0  0  0  0  0  0  0  0  0  0  0  0
   -2.0539    0.6057    0.9332 C   0  0  0  0  0  0  0  0  0  0  0  0
    1.3252    0.2002    0.0212 C   0  0  0  0  0  0  0  0  0  0  0  0
  1  3  1  0
  1  8  1  0
  2  8  2  0
  3  4  1  0
  3  6  1  0
  3  7  1  0
  4  5  1  0
  5  8  1  0
M  END
>  <PUBCHEM_COMPOUND_CID>  (1) 
18398

>  <PUBCHEM_CONFORMER_RMSD>  (1) 
0.4

>  <PUBCHEM_CONFORMER_DIVERSEORDER>  (1) 
1
2

>  <PUBCHEM_MMFF94_PARTIAL_CHARGES>  (1) 
5
1 -0.43
2 -0.57
3 0.28
5 0.06
8 0.66

>  <PUBCHEM_EFFECTIVE_ROTOR_COUNT>  (1) 
0.8

>  <PUBCHEM_PHARMACOPHORE_FEATURES>  (1) 
3
1 2 acceptor
3 3 6 7 hydrophobe
5 1 3 4 5 8 rings

>  <PUBCHEM_HEAVY_ATOM_COUNT>  (1) 
8

>  <PUBCHEM_ATOM_DEF_STEREO_COUNT>  (1) 
0

>  <PUBCHEM_ATOM_UDEF_STEREO_COUNT>  (1) 
0

>  <PUBCHEM_BOND_DEF_STEREO_COUNT>  (1) 
0

>  <PUBCHEM_BOND_UDEF_STEREO_COUNT>  (1) 
0

>  <PUBCHEM_ISOTOPIC_ATOM_COUNT>  (1) 
0

>  <PUBCHEM_COMPONENT_COUNT>  (1) 
1

>  <PUBCHEM_CACTVS_TAUTO_COUNT>  (1) 
2

>  <PUBCHEM_CONFORMER_ID>  (1) 
000047DE00000001

>  <PUBCHEM_MMFF94_ENERGY>  (1) 
11.4076

>  <PUBCHEM_FEATURE_SELFOVERLAP>  (1) 
15.223

>  <PUBCHEM_SHAPE_FINGERPRINT>  (1) 
12423570 1 10759676272630777275
137420 1 13049649820009354039
20096714 4 18342745082811402786
20653085 51 16916526820668871368
21040471 1 18410303514012860738
23235685 24 18409452496371362816
24536 1 18412537704397452298
29004967 10 18041009401077784897
369184 2 16081359799959688000
5084963 1 18041835241731821698
5943 1 11459001814356907151

>  <PUBCHEM_SHAPE_MULTIPOLES>  (1) 
152.9
2.55
1.2
1.02
0.5
0.33
0.28
-0.7
-0.13
0.26
-0.13
-0.66
-0.03
-0.09

>  <PUBCHEM_SHAPE_SELFOVERLAP>  (1) 
305.423

>  <PUBCHEM_SHAPE_VOLUME>  (1) 
93.3

>  <PUBCHEM_COORDINATE_TYPE>  (1) 
2
5
10

$$$$
