18403
     RDKit          3D

 23 26  0  0  1  0  0  0  0  0999 V2000
    6.0491   -2.7515    0.7079 Cl  0  0  0  0  0  0  0  0  0  0  0  0
    3.8668    1.7660   -0.0084 O   0  0  0  0  0  0  0  0  0  0  0  0
   -6.1720   -0.9341    0.5937 O   0  0  0  0  0  0  0  0  0  0  0  0
    2.0230    0.3123   -0.7007 C   0  0  0  0  0  0  0  0  0  0  0  0
    0.9818    1.3882   -0.2795 C   0  0  0  0  0  0  0  0  0  0  0  0
   -0.4077    1.2030   -0.9328 C   0  0  0  0  0  0  0  0  0  0  0  0
    3.1553    0.5734    0.3395 C   0  0  0  0  0  0  0  0  0  0  0  0
    1.0109    1.3375    1.2576 C   0  0  0  0  0  0  0  0  0  0  0  0
    1.4074   -1.1123   -0.5745 C   0  0  0  0  0  0  0  0  0  0  0  0
    2.4085    0.8421    1.6543 C   0  0  0  0  0  0  0  0  0  0  0  0
   -0.9338   -0.2128   -0.7273 C   0  0  0  0  0  0  0  0  0  0  0  0
    0.0339   -1.2570   -1.2404 C   0  0  0  0  0  0  0  0  0  0  0  0
   -1.4020    2.3108   -0.5394 C   0  0  0  0  0  0  0  0  0  0  0  0
    2.5070    0.5402   -2.1470 C   0  0  0  0  0  0  0  0  0  0  0  0
   -2.1300   -0.4719   -0.1479 C   0  0  0  0  0  0  0  0  0  0  0  0
   -2.2890    1.9292    0.6372 C   0  0  0  0  0  0  0  0  0  0  0  0
   -2.9691    0.6109    0.3792 C   0  0  0  0  0  0  0  0  0  0  0  0
    4.1166   -0.5309    0.4619 C   0  0  0  0  0  0  0  0  0  0  0  0
   -2.7173   -1.8510    0.0599 C   0  0  0  0  0  0  0  0  0  0  0  0
   -4.2784    0.4611    0.6399 C   0  0  0  0  0  0  0  0  0  0  0  0
   -4.1877   -1.9059   -0.3381 C   0  0  0  0  0  0  0  0  0  0  0  0
   -4.9749   -0.8138    0.3427 C   0  0  0  0  0  0  0  0  0  0  0  0
    4.9018   -1.4333    0.5619 C   0  0  0  0  0  0  0  0  0  0  0  0
  1 23  1  0
  2  7  1  0
  3 22  2  0
  4  5  1  0
  4  7  1  0
  4  9  1  0
  4 14  1  0
  5  6  1  0
  5  8  1  0
  6 11  1  0
  6 13  1  0
  7 10  1  0
  7 18  1  0
  8 10  1  0
  9 12  1  0
 11 12  1  0
 11 15  2  0
 13 16  1  0
 15 17  1  0
 15 19  1  0
 16 17  1  0
 17 20  2  0
 18 23  3  0
 19 21  1  0
 20 22  1  0
 21 22  1  0
M  END
>  <PUBCHEM_COMPOUND_CID>  (1) 
18403

>  <PUBCHEM_CONFORMER_RMSD>  (1) 
0.6

>  <PUBCHEM_CONFORMER_DIVERSEORDER>  (1) 
1
15
13
16
7
17
10
14
9
8
2
4
5
6
11
3
12
18

>  <PUBCHEM_MMFF94_PARTIAL_CHARGES>  (1) 
18
1 -0.1
11 -0.28
12 0.14
15 -0.14
16 0.14
17 -0.14
18 -0.2
19 0.14
2 -0.68
20 -0.14
21 0.06
22 0.49
23 0.1
3 -0.57
41 0.4
44 0.15
6 0.14
7 0.48

>  <PUBCHEM_EFFECTIVE_ROTOR_COUNT>  (1) 
1.8

>  <PUBCHEM_PHARMACOPHORE_FEATURES>  (1) 
7
1 2 acceptor
1 2 donor
1 3 acceptor
5 4 5 7 8 10 rings
6 15 17 19 20 21 22 rings
6 4 5 6 9 11 12 rings
6 6 11 13 15 16 17 rings

>  <PUBCHEM_HEAVY_ATOM_COUNT>  (1) 
23

>  <PUBCHEM_ATOM_DEF_STEREO_COUNT>  (1) 
1

>  <PUBCHEM_ATOM_UDEF_STEREO_COUNT>  (1) 
3

>  <PUBCHEM_BOND_DEF_STEREO_COUNT>  (1) 
0

>  <PUBCHEM_BOND_UDEF_STEREO_COUNT>  (1) 
0

>  <PUBCHEM_ISOTOPIC_ATOM_COUNT>  (1) 
0

>  <PUBCHEM_COMPONENT_COUNT>  (1) 
1

>  <PUBCHEM_CACTVS_TAUTO_COUNT>  (1) 
5

>  <PUBCHEM_CONFORMER_ID>  (1) 
000047E300000001

>  <PUBCHEM_MMFF94_ENERGY>  (1) 
57.2512

>  <PUBCHEM_FEATURE_SELFOVERLAP>  (1) 
35.746

>  <PUBCHEM_SHAPE_FINGERPRINT>  (1) 
10319926 262 18200867375545018618
10366900 7 17846502586115923769
10759866 29 18338241586864958860
11578080 2 16664009497031533575
12107183 9 18195532484628645089
12236239 1 17894632573824408813
12633257 1 17275101777353847530
12670546 177 10665227046794090258
12839892 36 18201997711879433847
13009979 54 18334584495031699732
13140716 1 18129096912829376047
13224815 77 18272093828970946965
13533116 47 18334294292501933114
13675066 3 17917419896712699586
13862211 1 18412545449067707159
14178342 30 18199759037517252017
14341114 176 18411699889654039122
14420673 8 18124033421650953378
14790565 3 17402330867851835448
15196674 1 18412545426933305713
15209289 33 18260546680573265874
15238133 3 17346326959680583792
15788980 27 17821727252073815327
16728300 4 18123175814986343522
16945 1 18340497694114162789
17349148 13 18339642343277411479
17492 89 18119812671273751491
17804303 29 18343585148344603876
17959699 21 9943804499963071722
17980427 23 13325982535983076906
1813 80 17458343010027697638
19784866 135 18409724037035808162
19784866 240 17822014185453033022
19784866 34 11959726066782103196
200 152 16298378085008922021
20645477 70 16226048932931085326
20871999 31 10809344434072302727
21033648 29 15625948603458190977
21267235 1 18408328765275545506
21304304 249 18409167705949574623
21637258 2 17676762085823079842
21792934 111 18342745071018465875
22182313 1 17345482483379447908
23402539 116 18343015615018584399
23559900 14 18409161134290441337
24859131 72 18413387627123009047
2838139 119 9294988182150782458
3286 77 18343016713891973528
3472631 163 10447922875768278066
350125 39 18412263917754943422
392239 28 17489592285793128947
465052 167 18408891766900352155
474 4 13254502198123792610
5104073 3 18273218603232296801
6786 2 11150315986343209308
70251023 43 17095241402114105116
7970288 3 18187928421383666675

>  <PUBCHEM_SHAPE_MULTIPOLES>  (1) 
463.46
11.2
2.4
1.31
0.38
0.37
0.27
8.02
-3.69
0.77
-0.18
0.83
-0.26
-0.58

>  <PUBCHEM_SHAPE_SELFOVERLAP>  (1) 
992.823

>  <PUBCHEM_SHAPE_VOLUME>  (1) 
255.6

>  <PUBCHEM_COORDINATE_TYPE>  (1) 
2
5
10

$$$$
