18405
     RDKit          3D

 20 20  0  0  0  0  0  0  0  0999 V2000
   -0.1819    2.2652   -0.2096 O   0  0  0  0  0  0  0  0  0  0  0  0
   -0.1679   -2.2604    0.2091 O   0  0  0  0  0  0  0  0  0  0  0  0
    1.7104    3.5709   -0.3279 O   0  0  0  0  0  0  0  0  0  0  0  0
    1.7228   -3.5681    0.3285 O   0  0  0  0  0  0  0  0  0  0  0  0
   -2.4635    2.9880   -0.2791 C   0  0  0  0  0  0  0  0  0  0  0  0
   -2.4531   -3.0001    0.2796 C   0  0  0  0  0  0  0  0  0  0  0  0
   -2.8077    2.2785    1.0274 C   0  0  0  0  0  0  0  0  0  0  0  0
   -2.7999   -2.2921   -1.0270 C   0  0  0  0  0  0  0  0  0  0  0  0
   -1.0042    3.4189   -0.3172 C   0  0  0  0  0  0  0  0  0  0  0  0
   -0.9923   -3.4259    0.3177 C   0  0  0  0  0  0  0  0  0  0  0  0
   -4.2761    1.8882    1.0794 C   0  0  0  0  0  0  0  0  0  0  0  0
   -4.2697   -1.9071   -1.0790 C   0  0  0  0  0  0  0  0  0  0  0  0
    1.9063    1.2046   -0.1106 C   0  0  0  0  0  0  0  0  0  0  0  0
    1.9103   -1.2012    0.1106 C   0  0  0  0  0  0  0  0  0  0  0  0
    1.2109    0.0005    0.0001 C   0  0  0  0  0  0  0  0  0  0  0  0
    1.1624    2.4841   -0.2282 C   0  0  0  0  0  0  0  0  0  0  0  0
    1.1860   -2.4572    0.2261 C   0  0  0  0  0  0  0  0  0  0  0  0
    3.3012    1.2069   -0.1105 C   0  0  0  0  0  0  0  0  0  0  0  0
    3.3052   -1.1988    0.1106 C   0  0  0  0  0  0  0  0  0  0  0  0
    4.0007    0.0052    0.0000 C   0  0  0  0  0  0  0  0  0  0  0  0
  1  9  1  0
  1 16  1  0
  2 10  1  0
  2 17  1  0
  3 16  2  0
  4 17  2  0
  5  7  1  0
  5  9  1  0
  6  8  1  0
  6 10  1  0
  7 11  1  0
  8 12  1  0
 13 15  2  0
 13 16  1  0
 13 18  1  0
 14 15  1  0
 14 17  1  0
 14 19  2  0
 18 20  2  0
 19 20  1  0
M  END
>  <PUBCHEM_COMPOUND_CID>  (1) 
18405

>  <PUBCHEM_CONFORMER_RMSD>  (1) 
1

>  <PUBCHEM_CONFORMER_DIVERSEORDER>  (1) 
1
61
65
12
4
46
35
25
26
29
64
48
67
63
32
17
2
45
69
23
20
53
11
62
37
18
66
27
71
7
36
38
33
47
15
5
68
30
28
50
54
57
31
58
70
16
52
13
59
51
41
14
6
40
21
39
42
55
60
9
10
56
44
43
24
34
49
8
3
22
19

>  <PUBCHEM_MMFF94_PARTIAL_CHARGES>  (1) 
18
1 -0.43
10 0.28
13 0.09
14 0.09
15 -0.15
16 0.63
17 0.63
18 -0.15
19 -0.15
2 -0.43
20 -0.15
3 -0.57
39 0.15
4 -0.57
40 0.15
41 0.15
42 0.15
9 0.28

>  <PUBCHEM_EFFECTIVE_ROTOR_COUNT>  (1) 
10

>  <PUBCHEM_PHARMACOPHORE_FEATURES>  (1) 
5
1 11 hydrophobe
1 12 hydrophobe
1 3 acceptor
1 4 acceptor
6 13 14 15 18 19 20 rings

>  <PUBCHEM_HEAVY_ATOM_COUNT>  (1) 
20

>  <PUBCHEM_ATOM_DEF_STEREO_COUNT>  (1) 
0

>  <PUBCHEM_ATOM_UDEF_STEREO_COUNT>  (1) 
0

>  <PUBCHEM_BOND_DEF_STEREO_COUNT>  (1) 
0

>  <PUBCHEM_BOND_UDEF_STEREO_COUNT>  (1) 
0

>  <PUBCHEM_ISOTOPIC_ATOM_COUNT>  (1) 
0

>  <PUBCHEM_COMPONENT_COUNT>  (1) 
1

>  <PUBCHEM_CACTVS_TAUTO_COUNT>  (1) 
1

>  <PUBCHEM_CONFORMER_ID>  (1) 
000047E500000001

>  <PUBCHEM_MMFF94_ENERGY>  (1) 
35.5209

>  <PUBCHEM_FEATURE_SELFOVERLAP>  (1) 
25.371

>  <PUBCHEM_SHAPE_FINGERPRINT>  (1) 
10616163 171 16896524187282299425
10708813 3 18412832356861250297
116883 192 18340491183270477846
12038231 1 18266176124293619463
12403259 226 15671546875581101570
13122387 1 17978228253937084675
13140716 1 18340205284177356528
1361 2 18050001100719240273
14363568 33 17190121327240041099
14466204 15 16753238641112876824
14866123 147 18193550070028859786
17093844 170 17979905330928571849
19591789 44 17978234854922179486
19930381 70 16825306126618684283
20621476 13 17689988364285275407
20645477 70 17612590025454378325
20765182 20 17834154920549936769
21197605 99 18338255812176218275
238 59 16757160573271656831
3014063 31 18266452282042802175
338550 245 18408612474336824613
6438718 38 18059851753497270967

>  <PUBCHEM_SHAPE_MULTIPOLES>  (1) 
388.11
6.95
6.03
0.87
2.84
0
0
0.01
0
3.4
0
0.82
0
-1.56

>  <PUBCHEM_SHAPE_SELFOVERLAP>  (1) 
779.888

>  <PUBCHEM_SHAPE_VOLUME>  (1) 
228.2

>  <PUBCHEM_COORDINATE_TYPE>  (1) 
2
5
10

$$$$
