1840
     RDKit          2D

 20 20  0  0  1  0  0  0  0  0999 V2000
    0.0000    0.0000    0.0000 O   0  0  0  0  0  0  0  0  0  0  0  0
    0.0000    0.0000    0.0000 O   0  0  0  0  0  0  0  0  0  0  0  0
    0.0000    0.0000    0.0000 O   0  0  0  0  0  0  0  0  0  0  0  0
    0.0000    0.0000    0.0000 O   0  0  0  0  0  0  0  0  0  0  0  0
    0.0000    0.0000    0.0000 O   0  0  0  0  0  0  0  0  0  0  0  0
    0.0000    0.0000    0.0000 O   0  0  0  0  0  0  0  0  0  0  0  0
    0.0000    0.0000    0.0000 O   0  0  0  0  0  0  0  0  0  0  0  0
    0.0000    0.0000    0.0000 N   0  0  0  0  0  0  0  0  0  0  0  0
    0.0000    0.0000    0.0000 N   0  0  0  0  0  0  0  0  0  0  0  0
    0.0000    0.0000    0.0000 N   0  0  0  0  0  0  0  0  0  0  0  0
    0.0000    0.0000    0.0000 N   0  0  0  0  0  0  0  0  0  0  0  0
    0.0000    0.0000    0.0000 C   0  0  0  0  0  0  0  0  0  0  0  0
    0.0000    0.0000    0.0000 C   0  0  0  0  0  0  0  0  0  0  0  0
    0.0000    0.0000    0.0000 C   0  0  0  0  0  0  0  0  0  0  0  0
    0.0000    0.0000    0.0000 C   0  0  0  0  0  0  0  0  0  0  0  0
    0.0000    0.0000    0.0000 C   0  0  0  0  0  0  0  0  0  0  0  0
    0.0000    0.0000    0.0000 C   0  0  0  0  0  0  0  0  0  0  0  0
    0.0000    0.0000    0.0000 C   0  0  0  0  0  0  0  0  0  0  0  0
    0.0000    0.0000    0.0000 C   0  0  0  0  0  0  0  0  0  0  0  0
    0.0000    0.0000    0.0000 C   0  0  0  0  0  0  0  0  0  0  0  0
  1 12  1  0
  2 13  1  0
  3 14  1  0
  4 16  1  0
  5 19  2  0
  6 20  2  0
  7 11  2  0
  8 15  1  0
  8 17  1  0
  9 17  1  0
  9 20  1  0
 10 19  1  0
 10 20  1  0
 11 18  1  0
 12 13  1  0
 12 14  1  0
 13 15  1  0
 14 16  1  0
 17 18  2  0
 18 19  1  0
M  END
>  <PUBCHEM_COMPOUND_CID>  (1) 
1840

>  <PUBCHEM_CONFORMER_RMSD>  (1) 
0.8

>  <PUBCHEM_CONFORMER_DIVERSEORDER>  (1) 
17
319
254
67
353
76
168
11
1
234
290
201
246
307
40
347
252
123
197
299
345
305
115
271
108
177
220
266
231
325
228
260
330
259
214
137
251
340
346
85
308
348
5
249
176
186
144
193
140
156
60
191
152
351
195
4
150
198
357
55
250
31
208
225
324
256
321
142
69
15
196
363
328
25
317
332
323
341
64
122
48
367
236
116
166
12
303
229
232
178
112
68
314
18
233
26
78
80
99
100
359
219
360
120
309
356
274
97
326
174
294
32
267
39
184
161
337
164
221
262
183
72
362
77
163
282
20
199
62
207
352
203
278
91
372
205
204
206
361
16
141
173
155
53
280
151
43
333
19
56
83
169
304
291
106
342
253
370
13
128
223
227
273
192
180
103
200
320
45
132
49
242
371
343
338
125
187
269
75
50
71
23
275
241
51
288
124
105
245
129
73
336
29
276
145
373
182
354
93
52
265
209
369
38
224
154
14
365
293
92
27
102
79
181
2
301
8
117
318
313
226
218
7
41
239
24
286
135
230
37
300
34
215
210
172
349
165
133
42
59
237
61
284
167
10
222
153
149
240
277
3
136
364
82
157
327
139
179
344
296
310
212
94
70
238
235
189
86
162
188
355
268
44
57
63
261
130
292
272
185
306
216
350
143
81
54
190
46
47
33
28
131
113
119
368
316
244
109
331
171
138
335
248
295
255
322
258
6
134
243
217
202
247
84
74
160
289
270
312
90
22
339
213
9
114
281
315
175
104
58
302
98
101
88
35
366
158
283
65
147
211
96
257
194
298
30
110
146
121
21
36
66
118
329
148
126
159
263
287
285
334
170
87
264
107
89
279
297
358
311
127
95
111

>  <PUBCHEM_MMFF94_PARTIAL_CHARGES>  (1) 
27
1 -0.68
10 -0.49
11 -0.13
12 0.28
13 0.28
14 0.28
15 0.37
16 0.28
17 0.21
18 0.31
19 0.62
2 -0.68
20 0.69
28 0.4
29 0.4
3 -0.68
30 0.4
31 0.4
32 0.37
33 0.4
34 0.37
4 -0.68
5 -0.57
6 -0.57
7 -0.16
8 -0.87
9 -0.54

>  <PUBCHEM_EFFECTIVE_ROTOR_COUNT>  (1) 
7

>  <PUBCHEM_PHARMACOPHORE_FEATURES>  (1) 
15
1 1 acceptor
1 1 donor
1 10 donor
1 2 acceptor
1 2 donor
1 3 acceptor
1 3 donor
1 4 acceptor
1 4 donor
1 5 acceptor
1 6 acceptor
1 8 cation
1 8 donor
1 9 donor
6 9 10 17 18 19 20 rings

>  <PUBCHEM_HEAVY_ATOM_COUNT>  (1) 
20

>  <PUBCHEM_ATOM_DEF_STEREO_COUNT>  (1) 
0

>  <PUBCHEM_ATOM_UDEF_STEREO_COUNT>  (1) 
3

>  <PUBCHEM_BOND_DEF_STEREO_COUNT>  (1) 
0

>  <PUBCHEM_BOND_UDEF_STEREO_COUNT>  (1) 
0

>  <PUBCHEM_ISOTOPIC_ATOM_COUNT>  (1) 
0

>  <PUBCHEM_COMPONENT_COUNT>  (1) 
1

>  <PUBCHEM_CACTVS_TAUTO_COUNT>  (1) 
25

$$$$
