18408
     RDKit          3D

 18 19  0  0  0  0  0  0  0  0999 V2000
   -1.5534   -0.2246   -1.3137 S   0  0  0  0  0  0  0  0  0  0  0  0
   -1.0845    1.6151    0.5056 O   0  0  0  0  0  0  0  0  0  0  0  0
    5.7762    0.5621    0.3726 O   0  0  0  0  0  0  0  0  0  0  0  0
    5.3854   -1.5474   -0.0922 O   0  0  0  0  0  0  0  0  0  0  0  0
    4.9848   -0.3755    0.1096 N   0  0  0  0  0  0  0  0  0  0  0  0
    0.8594    0.4354   -0.1008 C   0  0  0  0  0  0  0  0  0  0  0  0
    1.7578    1.4617    0.1901 C   0  0  0  0  0  0  0  0  0  0  0  0
    1.3277   -0.8598   -0.3221 C   0  0  0  0  0  0  0  0  0  0  0  0
    3.5933   -0.1022    0.0386 C   0  0  0  0  0  0  0  0  0  0  0  0
    3.1248    1.1931    0.2597 C   0  0  0  0  0  0  0  0  0  0  0  0
    2.6947   -1.1287   -0.2524 C   0  0  0  0  0  0  0  0  0  0  0  0
   -3.1418   -0.2618   -0.5037 C   0  0  0  0  0  0  0  0  0  0  0  0
   -0.5658    0.7156   -0.1728 C   0  0  0  0  0  0  0  0  0  0  0  0
   -3.2650   -0.8346    0.7616 C   0  0  0  0  0  0  0  0  0  0  0  0
   -4.2592    0.2821   -1.1363 C   0  0  0  0  0  0  0  0  0  0  0  0
   -4.5074   -0.8636    1.3952 C   0  0  0  0  0  0  0  0  0  0  0  0
   -5.5014    0.2531   -0.5025 C   0  0  0  0  0  0  0  0  0  0  0  0
   -5.6255   -0.3198    0.7632 C   0  0  0  0  0  0  0  0  0  0  0  0
  1 12  1  0
  1 13  1  0
  2 13  2  0
  3  5  1  0
  4  5  2  0
  5  9  1  0
  6  7  2  0
  6  8  1  0
  6 13  1  0
  7 10  1  0
  8 11  2  0
  9 10  2  0
  9 11  1  0
 12 14  2  0
 12 15  1  0
 14 16  1  0
 15 17  2  0
 16 18  2  0
 17 18  1  0
M  CHG  2   3  -1   5   1
M  END
>  <PUBCHEM_COMPOUND_CID>  (1) 
18408

>  <PUBCHEM_CONFORMER_RMSD>  (1) 
0.6

>  <PUBCHEM_CONFORMER_DIVERSEORDER>  (1) 
1
19
22
12
18
15
3
4
2
35
9
24
14
25
37
27
28
31
30
23
29
21
36
26
33
34
8
16
10
17
6
13
11
5
7
20
32

>  <PUBCHEM_MMFF94_PARTIAL_CHARGES>  (1) 
27
1 -0.24
10 -0.15
11 -0.15
12 0.1
13 0.62
14 -0.15
15 -0.15
16 -0.15
17 -0.15
18 -0.15
19 0.15
2 -0.57
20 0.15
21 0.15
22 0.15
23 0.15
24 0.15
25 0.15
26 0.15
27 0.15
3 -0.52
4 -0.52
5 0.91
6 0.09
7 -0.15
8 -0.15
9 0.13

>  <PUBCHEM_EFFECTIVE_ROTOR_COUNT>  (1) 
4

>  <PUBCHEM_PHARMACOPHORE_FEATURES>  (1) 
5
1 3 acceptor
1 3 anion
1 4 acceptor
6 12 14 15 16 17 18 rings
6 6 7 8 9 10 11 rings

>  <PUBCHEM_HEAVY_ATOM_COUNT>  (1) 
18

>  <PUBCHEM_ATOM_DEF_STEREO_COUNT>  (1) 
0

>  <PUBCHEM_ATOM_UDEF_STEREO_COUNT>  (1) 
0

>  <PUBCHEM_BOND_DEF_STEREO_COUNT>  (1) 
0

>  <PUBCHEM_BOND_UDEF_STEREO_COUNT>  (1) 
0

>  <PUBCHEM_ISOTOPIC_ATOM_COUNT>  (1) 
0

>  <PUBCHEM_COMPONENT_COUNT>  (1) 
1

>  <PUBCHEM_CACTVS_TAUTO_COUNT>  (1) 
1

>  <PUBCHEM_CONFORMER_ID>  (1) 
000047E800000001

>  <PUBCHEM_MMFF94_ENERGY>  (1) 
55.0279

>  <PUBCHEM_FEATURE_SELFOVERLAP>  (1) 
25.453

>  <PUBCHEM_SHAPE_FINGERPRINT>  (1) 
11089746 13 16774072977756950905
11128504 68 14129063629265185222
11287383 113 17458064893420065132
11796584 16 17530961367364001642
12107183 9 15263159124130759351
12236239 1 17275384313424824759
12596602 18 17274818103781454787
13288520 33 16805604776618604255
13675066 3 18334574685400001645
13760787 5 18272366511775251309
1420 363 18333734606686635806
14251718 22 16443347585256160284
14251731 8 17749106682307432887
14251764 18 18201723955707474937
14252887 29 18059861632148826966
14341114 176 18408326592095654388
14386348 63 18186523202562502843
15048467 5 16056879147987245450
15527383 91 18272933833957855009
15788980 27 18409164428741048807
17844677 252 17676211277367891997
18186145 218 13479415019699327727
200 152 18201716245507961985
20645477 70 18341608192094169799
21033650 10 15359106928323022014
21267235 1 18271248223478878406
2297311 6 17168146728591883941
23035841 295 16370722617042281889
23175994 123 18335422383280108909
23402539 116 14045736019942243493
23536379 177 16153704310718859688
23557571 272 17458901548480098061
23559900 14 18040712597626837533
239999 70 18113338618102143082
26918003 58 18407760348160676065
2916195 48 12103839047039293578
314173 85 18060145327249303829
34797466 226 16732996318807956566
4340502 62 17385434445866926506
4463277 17 18343581845841963268
465052 167 18335140878217521506
5104073 3 17845644983952230610
542803 24 13984661442852884543
602551 16 16950565540396415451
7495541 125 17385725828732074932

>  <PUBCHEM_SHAPE_MULTIPOLES>  (1) 
351.69
13.64
1.3
1.04
1.67
0.09
-0.06
-2.62
1.79
0.89
0.15
-1.26
-0.09
0.89

>  <PUBCHEM_SHAPE_SELFOVERLAP>  (1) 
743.007

>  <PUBCHEM_SHAPE_VOLUME>  (1) 
197.5

>  <PUBCHEM_COORDINATE_TYPE>  (1) 
2
5
10

$$$$
