18400
     RDKit          3D

 10  9  0  0  0  0  0  0  0  0999 V2000
   -1.5345    0.6107    0.0061 O   0  0  0  0  0  0  0  0  0  0  0  0
   -2.8458   -1.2814   -0.0024 O   0  0  0  0  0  0  0  0  0  0  0  0
   -3.7796    0.8198   -0.0073 N   0  0  0  0  0  0  0  0  0  0  0  0
    2.2359    0.0131   -0.0024 C   0  0  0  0  0  0  0  0  0  0  0  0
    0.8575    0.7198    0.0203 C   0  0  0  0  0  0  0  0  0  0  0  0
    3.3325    1.0927    0.0806 C   0  0  0  0  0  0  0  0  0  0  0  0
    2.3923   -0.9353    1.1977 C   0  0  0  0  0  0  0  0  0  0  0  0
    2.4302   -0.7814   -1.3042 C   0  0  0  0  0  0  0  0  0  0  0  0
   -0.3622   -0.1971    0.0127 C   0  0  0  0  0  0  0  0  0  0  0  0
   -2.7263   -0.0608   -0.0012 C   0  0  0  0  0  0  0  0  0  0  0  0
  1  9  1  0
  1 10  1  0
  2 10  2  0
  3 10  1  0
  4  5  1  0
  4  6  1  0
  4  7  1  0
  4  8  1  0
  5  9  1  0
M  END
>  <PUBCHEM_COMPOUND_CID>  (1) 
18400

>  <PUBCHEM_CONFORMER_RMSD>  (1) 
0.6

>  <PUBCHEM_CONFORMER_DIVERSEORDER>  (1) 
1
17
19
14
12
13
8
18
11
9
2
6
3
15
7
16
10
5
4

>  <PUBCHEM_MMFF94_PARTIAL_CHARGES>  (1) 
7
1 -0.43
10 0.78
2 -0.57
24 0.37
25 0.37
3 -0.8
9 0.28

>  <PUBCHEM_EFFECTIVE_ROTOR_COUNT>  (1) 
4

>  <PUBCHEM_PHARMACOPHORE_FEATURES>  (1) 
3
1 2 acceptor
1 3 donor
4 4 6 7 8 hydrophobe

>  <PUBCHEM_HEAVY_ATOM_COUNT>  (1) 
10

>  <PUBCHEM_ATOM_DEF_STEREO_COUNT>  (1) 
0

>  <PUBCHEM_ATOM_UDEF_STEREO_COUNT>  (1) 
0

>  <PUBCHEM_BOND_DEF_STEREO_COUNT>  (1) 
0

>  <PUBCHEM_BOND_UDEF_STEREO_COUNT>  (1) 
0

>  <PUBCHEM_ISOTOPIC_ATOM_COUNT>  (1) 
0

>  <PUBCHEM_COMPONENT_COUNT>  (1) 
1

>  <PUBCHEM_CACTVS_TAUTO_COUNT>  (1) 
2

>  <PUBCHEM_CONFORMER_ID>  (1) 
000047E000000001

>  <PUBCHEM_MMFF94_ENERGY>  (1) 
18.3734

>  <PUBCHEM_FEATURE_SELFOVERLAP>  (1) 
15.223

>  <PUBCHEM_SHAPE_FINGERPRINT>  (1) 
11062470 55 18409166618910807361
12932764 1 18040998418920216485
14144814 61 18334857199584640249
14325111 11 18410292527518133497
15775835 57 18186519907990134578
170605 34 18339643455563365872
20201158 50 18131354093915225854
20279233 1 18131351907940344047
20645477 70 17632301116391579295
3248919 1 17988922253999333057
8030462 33 17677058953492885688

>  <PUBCHEM_SHAPE_MULTIPOLES>  (1) 
189.08
6.45
1.15
0.93
4.28
0.06
-0.05
-0.52
0
-0.2
0.04
-0.83
0.29
0.01

>  <PUBCHEM_SHAPE_SELFOVERLAP>  (1) 
351.14

>  <PUBCHEM_SHAPE_VOLUME>  (1) 
120.1

>  <PUBCHEM_COORDINATE_TYPE>  (1) 
2
5
10

$$$$
