18414
     RDKit          3D

 22 22  0  0  0  0  0  0  0  0999 V2000
   -5.2348    2.6969    0.0349 Cl  0  0  0  0  0  0  0  0  0  0  0  0
   -4.4023   -3.1176   -1.0550 Cl  0  0  0  0  0  0  0  0  0  0  0  0
    2.4713    0.6274   -0.7842 O   0  0  0  0  0  0  0  0  0  0  0  0
    6.6312    0.2309   -0.8679 O   0  0  0  0  0  0  0  0  0  0  0  0
    5.3830   -1.4534    0.0702 O   0  0  0  0  0  0  0  0  0  0  0  0
   -4.0243   -0.1366   -0.2969 N   0  0  0  0  0  0  0  0  0  0  0  0
    1.3497    0.3425    1.2601 N   0  0  0  0  0  0  0  0  0  0  0  0
    4.8776    0.7837    0.4194 N   0  0  0  0  0  0  0  0  0  0  0  0
   -2.6743   -0.0166    0.0941 C   0  0  0  0  0  0  0  0  0  0  0  0
   -4.5081    0.5438   -1.4817 C   0  0  0  0  0  0  0  0  0  0  0  0
   -4.9480   -0.9304    0.4885 C   0  0  0  0  0  0  0  0  0  0  0  0
   -2.3311   -0.0823    1.4446 C   0  0  0  0  0  0  0  0  0  0  0  0
   -1.6829    0.1684   -0.8694 C   0  0  0  0  0  0  0  0  0  0  0  0
   -4.3314    2.0489   -1.3569 C   0  0  0  0  0  0  0  0  0  0  0  0
   -4.4944   -2.3797    0.5638 C   0  0  0  0  0  0  0  0  0  0  0  0
   -0.0047    0.2217    0.8678 C   0  0  0  0  0  0  0  0  0  0  0  0
   -0.9963    0.0367    1.8313 C   0  0  0  0  0  0  0  0  0  0  0  0
   -0.3480    0.2876   -0.4826 C   0  0  0  0  0  0  0  0  0  0  0  0
    2.4579    0.5295    0.4384 C   0  0  0  0  0  0  0  0  0  0  0  0
    3.7244    0.6064    1.2715 C   0  0  0  0  0  0  0  0  0  0  0  0
    5.6074   -0.2607   -0.1079 C   0  0  0  0  0  0  0  0  0  0  0  0
    7.4781   -0.7469   -1.4822 C   0  0  0  0  0  0  0  0  0  0  0  0
  1 14  1  0
  2 15  1  0
  3 19  2  0
  4 21  1  0
  4 22  1  0
  5 21  2  0
  6  9  1  0
  6 10  1  0
  6 11  1  0
  7 16  1  0
  7 19  1  0
  8 20  1  0
  8 21  1  0
  9 12  2  0
  9 13  1  0
 10 14  1  0
 11 15  1  0
 12 17  1  0
 13 18  2  0
 16 17  2  0
 16 18  1  0
 19 20  1  0
M  END
>  <PUBCHEM_COMPOUND_CID>  (1) 
18414

>  <PUBCHEM_CONFORMER_RMSD>  (1) 
1

>  <PUBCHEM_CONFORMER_DIVERSEORDER>  (1) 
1
42
24
7
49
29
14
50
40
28
3
45
41
16
52
27
30
34
18
35
43
8
51
11
19
17
4
36
38
23
25
53
54
32
2
48
37
31
20
13
22
10
6
44
46
21
5
12
15
26
47
9
39
33

>  <PUBCHEM_MMFF94_PARTIAL_CHARGES>  (1) 
28
1 -0.29
10 0.37
11 0.37
12 -0.15
13 -0.15
14 0.29
15 0.29
16 0.12
17 -0.15
18 -0.15
19 0.57
2 -0.29
20 0.36
21 0.78
22 0.28
27 0.15
28 0.15
3 -0.57
33 0.15
34 0.15
35 0.37
38 0.37
4 -0.43
5 -0.57
6 -0.84
7 -0.55
8 -0.73
9 0.1

>  <PUBCHEM_EFFECTIVE_ROTOR_COUNT>  (1) 
11

>  <PUBCHEM_PHARMACOPHORE_FEATURES>  (1) 
6
1 3 acceptor
1 5 acceptor
1 6 cation
1 7 donor
1 8 donor
6 9 12 13 16 17 18 rings

>  <PUBCHEM_HEAVY_ATOM_COUNT>  (1) 
22

>  <PUBCHEM_ATOM_DEF_STEREO_COUNT>  (1) 
0

>  <PUBCHEM_ATOM_UDEF_STEREO_COUNT>  (1) 
0

>  <PUBCHEM_BOND_DEF_STEREO_COUNT>  (1) 
0

>  <PUBCHEM_BOND_UDEF_STEREO_COUNT>  (1) 
0

>  <PUBCHEM_ISOTOPIC_ATOM_COUNT>  (1) 
0

>  <PUBCHEM_COMPONENT_COUNT>  (1) 
1

>  <PUBCHEM_CACTVS_TAUTO_COUNT>  (1) 
4

>  <PUBCHEM_CONFORMER_ID>  (1) 
000047EE00000001

>  <PUBCHEM_MMFF94_ENERGY>  (1) 
63.6855

>  <PUBCHEM_FEATURE_SELFOVERLAP>  (1) 
30.446

>  <PUBCHEM_SHAPE_FINGERPRINT>  (1) 
11545043 162 18343295998382622361
11796584 16 18272084968453713914
13533116 47 16487254375147051282
13668630 136 18273222993527876670
13862211 1 15626499506081289020
15183329 4 18040993999678515104
15348495 7 11095878276968068342
17349148 13 16271928237786492184
17844677 252 18410857702122702608
17980427 23 16877668958730566287
18222031 100 16917343719860426640
18643901 69 18340770451014423663
18927931 339 16630532847073373101
20281389 69 12757144697652780662
21150785 3 14996566243254500291
220451 1 18186518782914379642
2297311 6 18333731347296925721
2303208 19 18201719595782874010
23081809 10 17095515193663283680
23198884 109 17458064858822813416
23402539 116 17458615731465289837
23559900 14 17917138498607771912
25122255 55 17917161579957640734
300161 21 13334733566229604688
328310 630 15213314044670210006
465052 167 17417819457088141190
531348 171 18335977571874159491
542803 24 17603302644287092440
559249 180 16773522066638915240
59755656 520 18337392635097261121

>  <PUBCHEM_SHAPE_MULTIPOLES>  (1) 
423.94
17.36
2.22
1.54
30.66
0.93
-0.09
2.61
6.61
-5.41
0.61
-0.12
-0.07
1.08

>  <PUBCHEM_SHAPE_SELFOVERLAP>  (1) 
836.455

>  <PUBCHEM_SHAPE_VOLUME>  (1) 
253.9

>  <PUBCHEM_COORDINATE_TYPE>  (1) 
2
5
10

$$$$
