1841
     RDKit          3D

 12 11  0  0  1  0  0  0  0  0999 V2000
    1.9410   -0.4990   -1.8314 S   0  0  0  0  0  0  0  0  0  0  0  0
    1.2601    2.0153    0.0346 O   0  0  0  0  0  0  0  0  0  0  0  0
   -1.5336    1.7672    0.0819 O   0  0  0  0  0  0  0  0  0  0  0  0
   -1.7415   -0.7335    1.3762 O   0  0  0  0  0  0  0  0  0  0  0  0
    3.8442   -1.2837    0.3912 O   0  0  0  0  0  0  0  0  0  0  0  0
   -3.9228   -0.7682   -0.0305 O   0  0  0  0  0  0  0  0  0  0  0  0
    0.6442    0.7615    0.3280 C   0  0  0  0  0  0  0  0  0  0  0  0
   -0.7410    0.6629   -0.3554 C   0  0  0  0  0  0  0  0  0  0  0  0
    1.6333   -0.3772   -0.0230 C   0  0  0  0  0  0  0  0  0  0  0  0
   -1.4931   -0.6357   -0.0170 C   0  0  0  0  0  0  0  0  0  0  0  0
    2.9762   -0.1980    0.6979 C   0  0  0  0  0  0  0  0  0  0  0  0
   -2.8671   -0.7115   -0.6524 C   0  0  0  0  0  0  0  0  0  0  0  0
  1  9  1  0
  2  7  1  0
  3  8  1  0
  4 10  1  0
  5 11  1  0
  6 12  2  0
  7  8  1  0
  7  9  1  0
  8 10  1  0
  9 11  1  0
 10 12  1  0
M  END
>  <PUBCHEM_COMPOUND_CID>  (1) 
1841

>  <PUBCHEM_CONFORMER_RMSD>  (1) 
0.6

>  <PUBCHEM_CONFORMER_DIVERSEORDER>  (1) 
1
438
200
255
378
358
220
77
374
32
164
417
89
468
293
229
456
276
205
113
360
204
437
300
197
66
391
440
279
413
262
61
83
466
343
347
382
441
55
251
364
21
409
338
132
464
4
290
408
434
234
248
170
16
435
321
368
405
327
151
13
403
315
33
189
436
348
357
27
302
283
414
449
62
226
286
49
461
91
317
6
39
253
369
404
416
25
209
325
28
453
294
196
426
344
472
188
361
310
280
454
295
75
386
50
239
48
240
223
346
264
420
56
26
141
24
217
457
282
432
122
329
82
184
377
10
445
336
246
304
3
359
124
190
459
67
211
471
228
411
314
396
270
333
241
131
158
2
326
402
123
349
299
415
442
117
8
201
72
452
384
259
214
318
154
267
63
428
458
127
210
401
274
181
460
419
222
444
433
150
390
339
44
352
342
119
447
272
5
37
110
60
313
176
429
14
305
465
332
303
7
424
354
423
225
379
191
34
109
375
137
388
9
230
179
345
398
103
160
263
476
206
467
340
422
126
376
324
177
118
260
167
244
93
114
178
421
194
446
180
18
125
76
431
455
275
213
68
80
46
430
88
383
297
42
215
102
370
334
301
372
249
45
120
54
312
463
36
257
98
328
161
168
159
87
140
439
17
236
41
51
250
252
277
216
363
130
288
40
427
136
243
418
281
412
298
146
474
138
425
323
451
96
79
185
470
172
462
166
12
101
320
29
238
296
52
407
399
284
23
73
261
94
219
475
448
341
153
309
116
65
173
100
81
242
218
59
235
273
221
128
30
11
410
149
99
139
311
35
97
78
237
174
162
387
233
69
208
355
266
350
203
202
155
265
394
70
269
64
147
331
371
393
31
112
224
19
330
373
308
144
199
469
187
256
90
85
366
183
156
135
145
193
306
192
104
227
385
186
107
20
84
171
169
289
15
392
395
43
287
397
278
207
285
473
182
38
232
450
47
115
121
356
406
443
58
307
143
380
163
165
258
133
57
231
148
74
292
71
322
175
86
111
254
129
316
353
268
319
142
92
381
212
271
198
152
22
335
400
95
337
157
134
106
245
365
351
362
195
105
53
247
291
108
389
367

>  <PUBCHEM_MMFF94_PARTIAL_CHARGES>  (1) 
18
1 -0.41
10 0.34
11 0.28
12 0.45
19 0.4
2 -0.68
20 0.4
21 0.06
22 0.18
23 0.4
24 0.4
3 -0.68
4 -0.68
5 -0.68
6 -0.57
7 0.28
8 0.28
9 0.23

>  <PUBCHEM_EFFECTIVE_ROTOR_COUNT>  (1) 
5

>  <PUBCHEM_PHARMACOPHORE_FEATURES>  (1) 
9
1 2 acceptor
1 2 donor
1 3 acceptor
1 3 donor
1 4 acceptor
1 4 donor
1 5 acceptor
1 5 donor
1 6 acceptor

>  <PUBCHEM_HEAVY_ATOM_COUNT>  (1) 
12

>  <PUBCHEM_ATOM_DEF_STEREO_COUNT>  (1) 
0

>  <PUBCHEM_ATOM_UDEF_STEREO_COUNT>  (1) 
4

>  <PUBCHEM_BOND_DEF_STEREO_COUNT>  (1) 
0

>  <PUBCHEM_BOND_UDEF_STEREO_COUNT>  (1) 
0

>  <PUBCHEM_ISOTOPIC_ATOM_COUNT>  (1) 
0

>  <PUBCHEM_COMPONENT_COUNT>  (1) 
1

>  <PUBCHEM_CACTVS_TAUTO_COUNT>  (1) 
11

>  <PUBCHEM_CONFORMER_ID>  (1) 
0000073100000001

>  <PUBCHEM_MMFF94_ENERGY>  (1) 
20.3309

>  <PUBCHEM_FEATURE_SELFOVERLAP>  (1) 
45.7

>  <PUBCHEM_SHAPE_FINGERPRINT>  (1) 
10219947 1 17988638623191743350
14115302 16 17603309271078881683
14128692 85 17531254937400815566
16945 1 18339655498150491007
18186145 218 13551183420720333287
20201158 50 18407755945508357491
20645477 70 18339354292569107783
20671657 53 18334012791665689348
20711978 1 18410291436475458796
20711983 138 18113904892064657619
20711985 327 18272655649226578408
20711985 344 18193298311318498748
20715346 28 17274544213431879420
20871998 22 18130797728204607334
21119208 17 16008745801340476158
21501502 16 18411423916256666961
3248919 1 17703520990159594911
369184 2 15052016740904872975
549884 4 13479128003866866606
8030462 33 18041573493603205252
81228 2 18196105360235760217
81539 233 17972596860439007996

>  <PUBCHEM_SHAPE_MULTIPOLES>  (1) 
221.46
5.59
1.48
1.18
0.8
0.74
0.27
-2.53
-0.73
-0.11
0.15
-0.52
-0.34
0.09

>  <PUBCHEM_SHAPE_SELFOVERLAP>  (1) 
409.551

>  <PUBCHEM_SHAPE_VOLUME>  (1) 
139.8

>  <PUBCHEM_COORDINATE_TYPE>  (1) 
2
5
10

$$$$
