18417
     RDKit          3D

 18 18  0  0  0  0  0  0  0  0999 V2000
    3.9415   -3.6795   -0.5202 Cl  0  0  0  0  0  0  0  0  0  0  0  0
    4.8367    2.9151   -0.7115 Cl  0  0  0  0  0  0  0  0  0  0  0  0
   -3.9411   -1.3363   -0.0567 O   0  0  0  0  0  0  0  0  0  0  0  0
    2.4620   -0.0859    0.5789 N   0  0  0  0  0  0  0  0  0  0  0  0
   -3.0227    0.8293   -0.0424 N   0  0  0  0  0  0  0  0  0  0  0  0
   -6.4544   -0.4392   -0.3628 N   0  0  0  0  0  0  0  0  0  0  0  0
    1.0796    0.1448    0.4226 C   0  0  0  0  0  0  0  0  0  0  0  0
    2.9713   -1.4374    0.7027 C   0  0  0  0  0  0  0  0  0  0  0  0
    3.3906    1.0258    0.6315 C   0  0  0  0  0  0  0  0  0  0  0  0
    0.5975    1.4496    0.3178 C   0  0  0  0  0  0  0  0  0  0  0  0
    0.1941   -0.9320    0.3724 C   0  0  0  0  0  0  0  0  0  0  0  0
    3.3046   -2.0219   -0.6609 C   0  0  0  0  0  0  0  0  0  0  0  0
    3.7040    1.5413   -0.7643 C   0  0  0  0  0  0  0  0  0  0  0  0
   -1.6551    0.6011    0.1126 C   0  0  0  0  0  0  0  0  0  0  0  0
   -0.7698    1.6778    0.1628 C   0  0  0  0  0  0  0  0  0  0  0  0
   -1.1732   -0.7037    0.2174 C   0  0  0  0  0  0  0  0  0  0  0  0
   -4.0602   -0.1166   -0.1143 C   0  0  0  0  0  0  0  0  0  0  0  0
   -5.4055    0.5676   -0.2856 C   0  0  0  0  0  0  0  0  0  0  0  0
  1 12  1  0
  2 13  1  0
  3 17  2  0
  4  7  1  0
  4  8  1  0
  4  9  1  0
  5 14  1  0
  5 17  1  0
  6 18  1  0
  7 10  2  0
  7 11  1  0
  8 12  1  0
  9 13  1  0
 10 15  1  0
 11 16  2  0
 14 15  2  0
 14 16  1  0
 17 18  1  0
M  END
>  <PUBCHEM_COMPOUND_CID>  (1) 
18417

>  <PUBCHEM_CONFORMER_RMSD>  (1) 
0.8

>  <PUBCHEM_CONFORMER_DIVERSEORDER>  (1) 
3
4
25
14
13
26
23
27
16
18
9
24
10
5
7
6
22
17
8
12
20
2
11
19
15
1
21

>  <PUBCHEM_MMFF94_PARTIAL_CHARGES>  (1) 
25
1 -0.29
10 -0.15
11 -0.15
12 0.29
13 0.29
14 0.12
15 -0.15
16 -0.15
17 0.57
18 0.33
2 -0.29
23 0.15
24 0.15
29 0.15
3 -0.57
30 0.15
31 0.37
34 0.36
35 0.36
4 -0.84
5 -0.55
6 -0.99
7 0.1
8 0.37
9 0.37

>  <PUBCHEM_EFFECTIVE_ROTOR_COUNT>  (1) 
8

>  <PUBCHEM_PHARMACOPHORE_FEATURES>  (1) 
6
1 3 acceptor
1 4 cation
1 5 donor
1 6 cation
1 6 donor
6 7 10 11 14 15 16 rings

>  <PUBCHEM_HEAVY_ATOM_COUNT>  (1) 
18

>  <PUBCHEM_ATOM_DEF_STEREO_COUNT>  (1) 
0

>  <PUBCHEM_ATOM_UDEF_STEREO_COUNT>  (1) 
0

>  <PUBCHEM_BOND_DEF_STEREO_COUNT>  (1) 
0

>  <PUBCHEM_BOND_UDEF_STEREO_COUNT>  (1) 
0

>  <PUBCHEM_ISOTOPIC_ATOM_COUNT>  (1) 
0

>  <PUBCHEM_COMPONENT_COUNT>  (1) 
1

>  <PUBCHEM_CACTVS_TAUTO_COUNT>  (1) 
2

>  <PUBCHEM_CONFORMER_ID>  (1) 
000047F100000003

>  <PUBCHEM_MMFF94_ENERGY>  (1) 
55.3964

>  <PUBCHEM_FEATURE_SELFOVERLAP>  (1) 
30.446

>  <PUBCHEM_SHAPE_FINGERPRINT>  (1) 
12032990 46 18341329977139866403
12616999 72 18411418444963697528
12730499 353 18339369668250866322
12916754 54 18340487738337558081
13533116 47 18273493460118194835
13760787 5 18410862036224408033
13955234 65 18343299280112111722
15196674 1 18411134711008223401
15242433 33 18411135861890543157
17844677 252 18260549970628990565
18186145 218 17968091971814474563
19422 9 18272091543652745625
20281475 54 18272090452899805473
20388580 30 18270403768172758326
20554085 129 18129653244998168416
20645477 70 18409726235959213427
21267235 1 18340491062906229619
21618674 68 18334858312097571820
220451 1 17989208183585149511
221490 88 18409737235560505634
23081809 10 17989202634598172709
23402655 69 18411134766563398717
23557571 272 17603580803121945692
23558518 356 18196100936720067488
23559900 14 18338232670328236106
239999 70 18334292050666382130
25147074 1 18059027068215823408
29717793 49 18341886347693799469
3004659 81 18336262358043698026
312423 11 18200040538221224344
3286 77 17488734580280759658
34934 24 18337387265760100938
42630746 31 18335135401806794824
4340502 62 16371000840924305649
465052 167 18131070381297990783
5104073 3 18342175536400119395
5281201 14 18261954037886416916
537710 114 18410572915742096032
59755656 215 18410298008682354524
6025842 7 18411138043781597430
6327066 14 17973169719272748492
633830 44 18187358797155853835
7164475 11 18340487742691047824
7364860 26 18411984638049911376
90127 26 17967819297711388089
9709674 26 18408325462656724138

>  <PUBCHEM_SHAPE_MULTIPOLES>  (1) 
353.36
11.83
3.08
0.82
15.25
1.51
-0.02
0.19
-2.9
-6.79
-0.83
-0.56
-0.02
-0.21

>  <PUBCHEM_SHAPE_SELFOVERLAP>  (1) 
691.904

>  <PUBCHEM_SHAPE_VOLUME>  (1) 
214.5

>  <PUBCHEM_COORDINATE_TYPE>  (1) 
2
5
10

$$$$
