18421
     RDKit          3D

 21 22  0  0  0  0  0  0  0  0999 V2000
   -2.0465    1.7237    0.0654 O   0  0  0  0  0  0  0  0  0  0  0  0
    0.6537    1.4446   -0.3531 N   0  0  0  0  0  0  0  0  0  0  0  0
   -2.4879   -0.5666   -0.2204 N   0  0  0  0  0  0  0  0  0  0  0  0
    2.0954    1.0345   -0.6168 C   0  0  0  0  0  0  0  0  0  0  0  0
   -0.2431    0.2167   -0.4171 C   0  0  0  0  0  0  0  0  0  0  0  0
    0.5504    2.0767    1.0275 C   0  0  0  0  0  0  0  0  0  0  0  0
    0.2121    2.4508   -1.4061 C   0  0  0  0  0  0  0  0  0  0  0  0
    2.5562    0.0231    0.4273 C   0  0  0  0  0  0  0  0  0  0  0  0
   -1.6902    0.5721   -0.1612 C   0  0  0  0  0  0  0  0  0  0  0  0
    3.9993   -0.3895    0.2738 C   0  0  0  0  0  0  0  0  0  0  0  0
    4.3138   -1.4794   -0.5232 C   0  0  0  0  0  0  0  0  0  0  0  0
    4.9859    0.3284    0.9320 C   0  0  0  0  0  0  0  0  0  0  0  0
   -3.8888   -0.6486   -0.0366 C   0  0  0  0  0  0  0  0  0  0  0  0
    5.6479   -1.8610   -0.6655 C   0  0  0  0  0  0  0  0  0  0  0  0
    6.3200   -0.0532    0.7896 C   0  0  0  0  0  0  0  0  0  0  0  0
    6.6509   -1.1478   -0.0091 C   0  0  0  0  0  0  0  0  0  0  0  0
   -4.5137   -1.8809   -0.1335 C   0  0  0  0  0  0  0  0  0  0  0  0
   -4.6052    0.5049    0.2369 C   0  0  0  0  0  0  0  0  0  0  0  0
   -5.8943   -1.9621    0.0479 C   0  0  0  0  0  0  0  0  0  0  0  0
   -5.9858    0.4235    0.4185 C   0  0  0  0  0  0  0  0  0  0  0  0
   -6.6303   -0.8099    0.3239 C   0  0  0  0  0  0  0  0  0  0  0  0
  1  9  2  0
  2  4  1  0
  2  5  1  0
  2  6  1  0
  2  7  1  0
  3  9  1  0
  3 13  1  0
  4  8  1  0
  5  9  1  0
  8 10  1  0
 10 11  2  0
 10 12  1  0
 11 14  1  0
 12 15  2  0
 13 17  2  0
 13 18  1  0
 14 16  2  0
 15 16  1  0
 17 19  1  0
 18 20  2  0
 19 21  2  0
 20 21  1  0
M  CHG  1   2   1
M  END
>  <PUBCHEM_COMPOUND_CID>  (1) 
18421

>  <PUBCHEM_CONFORMER_RMSD>  (1) 
0.8

>  <PUBCHEM_CONFORMER_DIVERSEORDER>  (1) 
1
6
13
5
12
10
8
4
14
3
9
11
17
16
7
2
15

>  <PUBCHEM_MMFF94_PARTIAL_CHARGES>  (1) 
32
1 -0.57
10 -0.14
11 -0.15
12 -0.15
13 0.12
14 -0.15
15 -0.15
16 -0.15
17 -0.15
18 -0.15
19 -0.15
2 -1.01
20 -0.15
21 -0.15
3 -0.55
34 0.37
35 0.15
36 0.15
37 0.15
38 0.15
39 0.15
4 0.5
40 0.15
41 0.15
42 0.15
43 0.15
44 0.15
5 0.56
6 0.5
7 0.5
8 0.14
9 0.57

>  <PUBCHEM_EFFECTIVE_ROTOR_COUNT>  (1) 
7

>  <PUBCHEM_PHARMACOPHORE_FEATURES>  (1) 
5
1 1 acceptor
1 2 cation
1 3 donor
6 10 11 12 14 15 16 rings
6 13 17 18 19 20 21 rings

>  <PUBCHEM_HEAVY_ATOM_COUNT>  (1) 
21

>  <PUBCHEM_ATOM_DEF_STEREO_COUNT>  (1) 
0

>  <PUBCHEM_ATOM_UDEF_STEREO_COUNT>  (1) 
0

>  <PUBCHEM_BOND_DEF_STEREO_COUNT>  (1) 
0

>  <PUBCHEM_BOND_UDEF_STEREO_COUNT>  (1) 
0

>  <PUBCHEM_ISOTOPIC_ATOM_COUNT>  (1) 
0

>  <PUBCHEM_COMPONENT_COUNT>  (1) 
1

>  <PUBCHEM_CACTVS_TAUTO_COUNT>  (1) 
2

>  <PUBCHEM_CONFORMER_ID>  (1) 
000047F500000001

>  <PUBCHEM_MMFF94_ENERGY>  (1) 
77.1781

>  <PUBCHEM_FEATURE_SELFOVERLAP>  (1) 
25.371

>  <PUBCHEM_SHAPE_FINGERPRINT>  (1) 
10 15 15769773580546331114
10670039 82 11891318847006406598
10753850 27 18113615681661975322
11524674 6 16845290549122187263
12107183 9 18339652140261896193
12516196 113 18342738520354673088
12592606 108 18410291446078431663
12596602 18 17703792517781208018
12623949 98 17916877803300427270
12633257 1 15267333033593916648
12760667 363 18413669115364332303
13288520 33 18408603661016116037
13402501 40 18412827979889337566
13533116 47 18341333391844874456
13668630 136 18113619001867328579
13685833 64 18410576197112564139
13862211 1 18113333102968548290
14123256 34 18334864925993786195
14216079 64 18410854343790605999
14251751 18 18410012143552852037
14251752 14 17385718072110705349
14251757 52 13110671797030138522
14251764 18 18272091625784417287
14251764 30 18411697656381990354
14341114 176 17704070703282182136
14420673 8 18410578383842170619
14528608 73 8502658095182041035
14556957 393 15936987223257999998
15183329 4 12324235045136614398
15348495 7 17631726187774557507
15461852 350 16773790408107054797
15537594 2 17894907412728845403
15927050 60 17552915535701700212
17492 89 17974854183833888795
1768 124 17989205962307115879
1813 80 18040438776271156596
18222031 100 18113901559212487196
18335252 114 10737276978621087130
19141452 34 18201996659475062422
193927 3 18333741220930880106
19784866 240 18335708251723266729
20028762 73 18412545431223725974
20157964 124 12035446126052964640
20281389 69 11240003343184004794
20567600 254 11240001139828527281
21267235 1 18335425663954270635
21623969 137 17775287144933830054
21637258 2 18040146323283969280
221357 26 12685089289600674326
22224240 67 16558743525193140926
23016692 55 18335427859014998590
23035841 295 18334012778606844187
23198884 109 13623529039464918727
23522609 53 18045532804805554724
23559900 14 18262516039253478209
2767999 5 11527947850348862890
2838139 119 8502368914986710658
2916195 48 8934993768015666454
3004659 81 18040156231979165262
335352 9 18408321078301931277
3383291 50 18261394511687485291
3472631 163 9079106765990504402
351380 3 18259981574103078562
4325135 7 18334017207794058964
465052 167 18202848751528056910
5104073 3 18057616554449304497
5385378 56 12103576264298423308
543368 44 9151179745039305123
559249 180 18409729561165746655
5718773 13 18198057179013756751
59682541 35 18342166809459064376
59682541 52 14851597791511518634
6138700 20 18334576819714385443
636775 8 18200323105254408462
77188 2 18412263960531699312
8863177 126 17241907569125675939
999808 66 17749683969220826955

>  <PUBCHEM_SHAPE_MULTIPOLES>  (1) 
416.34
18.84
2.18
0.93
0.83
0.36
0.05
-11.92
-2.86
0.35
0.43
-0.61
0.33
0.46

>  <PUBCHEM_SHAPE_SELFOVERLAP>  (1) 
866.929

>  <PUBCHEM_SHAPE_VOLUME>  (1) 
237.1

>  <PUBCHEM_COORDINATE_TYPE>  (1) 
2
5
10

$$$$
