18423
     RDKit          3D

 22 23  0  0  0  0  0  0  0  0999 V2000
    0.1662    1.7210    1.4403 O   0  0  0  0  0  0  0  0  0  0  0  0
   -2.2860    2.3131    0.1854 N   0  0  0  0  0  0  0  0  0  0  0  0
    1.2026    1.5687   -0.6629 N   0  0  0  0  0  0  0  0  0  0  0  0
   -2.5506    0.8149    0.2217 C   0  0  0  0  0  0  0  0  0  0  0  0
   -0.9536    2.5767   -0.5013 C   0  0  0  0  0  0  0  0  0  0  0  0
   -2.5973    0.2408   -1.1910 C   0  0  0  0  0  0  0  0  0  0  0  0
   -2.2399    2.8546    1.6069 C   0  0  0  0  0  0  0  0  0  0  0  0
   -3.3999    3.0066   -0.5858 C   0  0  0  0  0  0  0  0  0  0  0  0
   -2.9130   -1.2580   -1.2827 C   0  0  0  0  0  0  0  0  0  0  0  0
    0.1889    1.9071    0.2282 C   0  0  0  0  0  0  0  0  0  0  0  0
   -1.9483   -2.1326   -0.5221 C   0  0  0  0  0  0  0  0  0  0  0  0
   -0.8158   -2.6137   -1.1618 C   0  0  0  0  0  0  0  0  0  0  0  0
   -2.2090   -2.4410    0.8045 C   0  0  0  0  0  0  0  0  0  0  0  0
    2.4312    0.9303   -0.3696 C   0  0  0  0  0  0  0  0  0  0  0  0
    0.0768   -3.4225   -0.4585 C   0  0  0  0  0  0  0  0  0  0  0  0
   -1.3162   -3.2499    1.5078 C   0  0  0  0  0  0  0  0  0  0  0  0
   -0.1733   -3.7405    0.8763 C   0  0  0  0  0  0  0  0  0  0  0  0
    3.3234    0.6734   -1.3975 C   0  0  0  0  0  0  0  0  0  0  0  0
    2.7157    0.5765    0.9389 C   0  0  0  0  0  0  0  0  0  0  0  0
    4.5346    0.0447   -1.1086 C   0  0  0  0  0  0  0  0  0  0  0  0
    3.9269   -0.0522    1.2277 C   0  0  0  0  0  0  0  0  0  0  0  0
    4.8364   -0.3180    0.2040 C   0  0  0  0  0  0  0  0  0  0  0  0
  1 10  2  0
  2  4  1  0
  2  5  1  0
  2  7  1  0
  2  8  1  0
  3 10  1  0
  3 14  1  0
  4  6  1  0
  5 10  1  0
  6  9  1  0
  9 11  1  0
 11 12  2  0
 11 13  1  0
 12 15  1  0
 13 16  2  0
 14 18  2  0
 14 19  1  0
 15 17  2  0
 16 17  1  0
 18 20  1  0
 19 21  2  0
 20 22  2  0
 21 22  1  0
M  CHG  1   2   1
M  END
>  <PUBCHEM_COMPOUND_CID>  (1) 
18423

>  <PUBCHEM_CONFORMER_RMSD>  (1) 
0.8

>  <PUBCHEM_CONFORMER_DIVERSEORDER>  (1) 
5
10
38
23
25
33
16
19
28
15
18
40
11
35
29
20
14
24
7
31
12
21
8
26
2
27
13
37
30
22
4
36
34
17
9
39
6
1
32
3

>  <PUBCHEM_MMFF94_PARTIAL_CHARGES>  (1) 
32
1 -0.57
10 0.57
11 -0.14
12 -0.15
13 -0.15
14 0.12
15 -0.15
16 -0.15
17 -0.15
18 -0.15
19 -0.15
2 -1.01
20 -0.15
21 -0.15
22 -0.15
3 -0.55
37 0.37
38 0.15
39 0.15
4 0.5
40 0.15
41 0.15
42 0.15
43 0.15
44 0.15
45 0.15
46 0.15
47 0.15
5 0.56
7 0.5
8 0.5
9 0.14

>  <PUBCHEM_EFFECTIVE_ROTOR_COUNT>  (1) 
8

>  <PUBCHEM_PHARMACOPHORE_FEATURES>  (1) 
5
1 1 acceptor
1 2 cation
1 3 donor
6 11 12 13 15 16 17 rings
6 14 18 19 20 21 22 rings

>  <PUBCHEM_HEAVY_ATOM_COUNT>  (1) 
22

>  <PUBCHEM_ATOM_DEF_STEREO_COUNT>  (1) 
0

>  <PUBCHEM_ATOM_UDEF_STEREO_COUNT>  (1) 
0

>  <PUBCHEM_BOND_DEF_STEREO_COUNT>  (1) 
0

>  <PUBCHEM_BOND_UDEF_STEREO_COUNT>  (1) 
0

>  <PUBCHEM_ISOTOPIC_ATOM_COUNT>  (1) 
0

>  <PUBCHEM_COMPONENT_COUNT>  (1) 
1

>  <PUBCHEM_CACTVS_TAUTO_COUNT>  (1) 
2

>  <PUBCHEM_CONFORMER_ID>  (1) 
000047F700000005

>  <PUBCHEM_MMFF94_ENERGY>  (1) 
75.5013

>  <PUBCHEM_FEATURE_SELFOVERLAP>  (1) 
25.371

>  <PUBCHEM_SHAPE_FINGERPRINT>  (1) 
104564 63 18411423942421817322
12363563 72 17985544687285661343
12553582 1 17979361081389123902
12712778 12 18192686012850073938
12788726 201 18340210807335993845
13135754 10 17974890338055872427
133893 2 17545882625269839625
14081887 123 18053365884961192168
14251740 79 18412261722815743158
14251757 5 18191880113586708550
14363568 33 17113276983439012494
15415430 2 18340760563323838143
15420108 30 17916039971450347689
15463212 79 18335134250682310552
16120349 306 18119507883076778586
16752209 62 18410563002941245790
167882 2 17615117790165594253
17138139 8 17984105293969718245
18785283 64 16897940358344232417
20775438 99 16470608051627334303
20832881 197 18126273380455601215
21634736 98 18044659930512473204
21860390 5 9070760312772703235
23559900 14 18060136489066490900
23728640 28 18410293614097490843
3027735 51 18413670197369510819
3298306 158 18121215385848399373
338550 245 18191303776320523614
3411729 13 17837787629733108513
445580 42 18261667186001100242
5282940 2 18048873000876343587
602551 16 18413101754643203608
6287921 2 16907204882052959507
81228 2 18341611572264995488

>  <PUBCHEM_SHAPE_MULTIPOLES>  (1) 
436.92
7.16
4.99
1.52
9.29
2.66
-0.18
-2.04
0.99
-5.13
-1.12
-0.03
0.14
-0.26

>  <PUBCHEM_SHAPE_SELFOVERLAP>  (1) 
905.439

>  <PUBCHEM_SHAPE_VOLUME>  (1) 
249.5

>  <PUBCHEM_COORDINATE_TYPE>  (1) 
2
5
10

$$$$
