18427
     RDKit          3D

 22 23  0  0  0  0  0  0  0  0999 V2000
   -3.6036    1.0573    0.5942 O   0  0  0  0  0  0  0  0  0  0  0  0
   -0.0025   -2.2558   -0.8919 O   0  0  0  0  0  0  0  0  0  0  0  0
   -2.6168   -1.7304    0.0183 N   0  0  0  0  0  0  0  0  0  0  0  0
    0.8687   -1.0128    0.9018 N   0  0  0  0  0  0  0  0  0  0  0  0
   -2.5861   -0.5200   -0.9036 C   0  0  0  0  0  0  0  0  0  0  0  0
   -1.4200   -1.6837    0.9574 C   0  0  0  0  0  0  0  0  0  0  0  0
   -2.5594   -3.0034   -0.8139 C   0  0  0  0  0  0  0  0  0  0  0  0
   -3.9019   -1.7148    0.8335 C   0  0  0  0  0  0  0  0  0  0  0  0
   -2.6416    0.7670   -0.1131 C   0  0  0  0  0  0  0  0  0  0  0  0
   -0.1149   -1.6973    0.1943 C   0  0  0  0  0  0  0  0  0  0  0  0
   -1.4877    1.7080   -0.2027 C   0  0  0  0  0  0  0  0  0  0  0  0
    2.2165   -0.8052    0.5233 C   0  0  0  0  0  0  0  0  0  0  0  0
   -0.7557    1.7456   -1.3679 C   0  0  0  0  0  0  0  0  0  0  0  0
   -1.1988    2.5035    0.8830 C   0  0  0  0  0  0  0  0  0  0  0  0
    0.3233    2.6256   -1.4519 C   0  0  0  0  0  0  0  0  0  0  0  0
   -0.1199    3.3836    0.7989 C   0  0  0  0  0  0  0  0  0  0  0  0
    2.8716    0.3379    0.9507 C   0  0  0  0  0  0  0  0  0  0  0  0
    2.8521   -1.7494   -0.2658 C   0  0  0  0  0  0  0  0  0  0  0  0
    0.6411    3.4446   -0.3686 C   0  0  0  0  0  0  0  0  0  0  0  0
    4.2001    0.5427    0.5782 C   0  0  0  0  0  0  0  0  0  0  0  0
    4.1807   -1.5445   -0.6382 C   0  0  0  0  0  0  0  0  0  0  0  0
    4.8546   -0.3985   -0.2161 C   0  0  0  0  0  0  0  0  0  0  0  0
  1  9  2  0
  2 10  2  0
  3  5  1  0
  3  6  1  0
  3  7  1  0
  3  8  1  0
  4 10  1  0
  4 12  1  0
  5  9  1  0
  6 10  1  0
  9 11  1  0
 11 13  2  0
 11 14  1  0
 12 17  2  0
 12 18  1  0
 13 15  1  0
 14 16  2  0
 15 19  2  0
 16 19  1  0
 17 20  1  0
 18 21  2  0
 20 22  2  0
 21 22  1  0
M  CHG  1   3   1
M  END
>  <PUBCHEM_COMPOUND_CID>  (1) 
18427

>  <PUBCHEM_CONFORMER_RMSD>  (1) 
0.8

>  <PUBCHEM_CONFORMER_DIVERSEORDER>  (1) 
8
38
7
20
44
21
3
14
15
41
51
19
47
33
52
49
34
40
28
50
4
23
16
37
22
43
26
17
27
39
13
6
18
29
46
42
45
32
36
25
9
31
1
12
30
5
10
2
24
48
35
11

>  <PUBCHEM_MMFF94_PARTIAL_CHARGES>  (1) 
33
1 -0.57
10 0.57
11 0.09
12 0.12
13 -0.15
14 -0.15
15 -0.15
16 -0.15
17 -0.15
18 -0.15
19 -0.15
2 -0.57
20 -0.15
21 -0.15
22 -0.15
3 -1.01
33 0.37
34 0.15
35 0.15
36 0.15
37 0.15
38 0.15
39 0.15
4 -0.55
40 0.15
41 0.15
42 0.15
43 0.15
5 0.56
6 0.56
7 0.5
8 0.5
9 0.42

>  <PUBCHEM_EFFECTIVE_ROTOR_COUNT>  (1) 
7

>  <PUBCHEM_PHARMACOPHORE_FEATURES>  (1) 
6
1 1 acceptor
1 2 acceptor
1 3 cation
1 4 donor
6 11 13 14 15 16 19 rings
6 12 17 18 20 21 22 rings

>  <PUBCHEM_HEAVY_ATOM_COUNT>  (1) 
22

>  <PUBCHEM_ATOM_DEF_STEREO_COUNT>  (1) 
0

>  <PUBCHEM_ATOM_UDEF_STEREO_COUNT>  (1) 
0

>  <PUBCHEM_BOND_DEF_STEREO_COUNT>  (1) 
0

>  <PUBCHEM_BOND_UDEF_STEREO_COUNT>  (1) 
0

>  <PUBCHEM_ISOTOPIC_ATOM_COUNT>  (1) 
0

>  <PUBCHEM_COMPONENT_COUNT>  (1) 
1

>  <PUBCHEM_CACTVS_TAUTO_COUNT>  (1) 
4

>  <PUBCHEM_CONFORMER_ID>  (1) 
000047FB00000008

>  <PUBCHEM_MMFF94_ENERGY>  (1) 
82.5478

>  <PUBCHEM_FEATURE_SELFOVERLAP>  (1) 
30.446

>  <PUBCHEM_SHAPE_FINGERPRINT>  (1) 
10006869 2 18047470024772245603
10165383 225 16825336319969509860
10498660 4 18335130952072976622
1100329 8 18409737270320878313
11112241 14 17343191298384005248
11595378 159 18116131347603546330
12054548 360 18411693284094519122
12156800 1 16697290756337278376
12173636 292 17836359354989981756
128993 33 17547007429775112976
13027679 85 18410851058219817253
13140716 1 18337666425813015706
138480 1 15456776279693215688
14081887 123 18339065017894513488
14251751 93 17975129843139777642
14790565 3 18123756357226029689
14955137 171 18339379516959016427
17357779 13 18339345470194163038
17492 54 18044070416259952173
19930381 70 17836358624654955402
20510252 161 18334294240804264826
20905425 154 17761784257043516813
21141583 151 18341045229746287944
21160774 45 18190735345593304244
21421861 104 18050591791412434105
21623110 236 18336832000005046656
23402539 116 18409720786189118146
23419403 2 17757799558190209509
23557571 272 18411992359942583134
238 59 16386746598916360093
3524813 1 18201711873494979786
469060 322 17385733477720578297
5282940 2 17826249659236920580
5312544 6 17114653022210649573
6287921 2 18127408080127700496
70251023 43 17262415329610989551
7364860 26 17906732857748024096
81228 2 18334580127039072562

>  <PUBCHEM_SHAPE_MULTIPOLES>  (1) 
431.05
7.15
4.18
1.18
5.99
2.45
-0.14
-4.1
0.49
-1.76
-0.44
-0.17
0.27
0.14

>  <PUBCHEM_SHAPE_SELFOVERLAP>  (1) 
907.844

>  <PUBCHEM_SHAPE_VOLUME>  (1) 
242.6

>  <PUBCHEM_COORDINATE_TYPE>  (1) 
2
5
10

$$$$
