18429
     RDKit          3D

 24 25  0  0  0  0  0  0  0  0999 V2000
    1.4119   -1.2755    1.0632 O   0  0  0  0  0  0  0  0  0  0  0  0
   -2.9259   -1.1994    1.8027 O   0  0  0  0  0  0  0  0  0  0  0  0
   -0.9660   -1.7490   -0.3721 N   0  0  0  0  0  0  0  0  0  0  0  0
    2.3811   -0.3388   -0.8616 N   0  0  0  0  0  0  0  0  0  0  0  0
    0.3775   -1.6164   -1.0746 C   0  0  0  0  0  0  0  0  0  0  0  0
   -1.4173   -0.3823    0.1224 C   0  0  0  0  0  0  0  0  0  0  0  0
   -1.9961   -2.3011   -1.3470 C   0  0  0  0  0  0  0  0  0  0  0  0
   -0.8283   -2.6965    0.8110 C   0  0  0  0  0  0  0  0  0  0  0  0
    1.4380   -1.0701   -0.1457 C   0  0  0  0  0  0  0  0  0  0  0  0
   -2.7511   -0.4724    0.8276 C   0  0  0  0  0  0  0  0  0  0  0  0
   -3.8847    0.3504    0.3147 C   0  0  0  0  0  0  0  0  0  0  0  0
    3.5221    0.3273   -0.3545 C   0  0  0  0  0  0  0  0  0  0  0  0
    3.4157    1.6498    0.0499 C   0  0  0  0  0  0  0  0  0  0  0  0
    4.7277   -0.3535   -0.2712 C   0  0  0  0  0  0  0  0  0  0  0  0
   -3.6046    1.5511   -0.2975 C   0  0  0  0  0  0  0  0  0  0  0  0
   -5.1678   -0.1225    0.4724 C   0  0  0  0  0  0  0  0  0  0  0  0
    4.5406    2.3066    0.5488 C   0  0  0  0  0  0  0  0  0  0  0  0
    5.8525    0.3035    0.2277 C   0  0  0  0  0  0  0  0  0  0  0  0
    2.1247    2.3980   -0.0337 C   0  0  0  0  0  0  0  0  0  0  0  0
    4.8597   -1.7783   -0.7025 C   0  0  0  0  0  0  0  0  0  0  0  0
    5.7589    1.6336    0.6377 C   0  0  0  0  0  0  0  0  0  0  0  0
   -4.6646    2.3205   -0.7774 C   0  0  0  0  0  0  0  0  0  0  0  0
   -6.2277    0.6469   -0.0077 C   0  0  0  0  0  0  0  0  0  0  0  0
   -5.9760    1.8683   -0.6326 C   0  0  0  0  0  0  0  0  0  0  0  0
  1  9  2  0
  2 10  2  0
  3  5  1  0
  3  6  1  0
  3  7  1  0
  3  8  1  0
  4  9  1  0
  4 12  1  0
  5  9  1  0
  6 10  1  0
 10 11  1  0
 11 15  2  0
 11 16  1  0
 12 13  2  0
 12 14  1  0
 13 17  1  0
 13 19  1  0
 14 18  2  0
 14 20  1  0
 15 22  1  0
 16 23  2  0
 17 21  2  0
 18 21  1  0
 22 24  2  0
 23 24  1  0
M  CHG  1   3   1
M  END
>  <PUBCHEM_COMPOUND_CID>  (1) 
18429

>  <PUBCHEM_CONFORMER_RMSD>  (1) 
0.8

>  <PUBCHEM_CONFORMER_DIVERSEORDER>  (1) 
4
58
49
56
10
30
60
29
14
26
7
62
55
27
54
24
45
48
8
34
53
44
64
35
12
5
51
28
63
47
25
20
18
50
2
41
9
31
33
59
57
52
61
65
40
23
36
42
32
1
17
39
11
22
21
19
16
38
6
37
43
3
15
13
46

>  <PUBCHEM_MMFF94_PARTIAL_CHARGES>  (1) 
33
1 -0.57
10 0.42
11 0.09
12 0.12
13 -0.14
14 -0.14
15 -0.15
16 -0.15
17 -0.15
18 -0.15
19 0.14
2 -0.57
20 0.14
21 -0.15
22 -0.15
23 -0.15
24 -0.15
3 -1.01
35 0.37
36 0.15
37 0.15
38 0.15
39 0.15
4 -0.55
46 0.15
47 0.15
48 0.15
49 0.15
5 0.56
6 0.56
7 0.5
8 0.5
9 0.57

>  <PUBCHEM_EFFECTIVE_ROTOR_COUNT>  (1) 
7

>  <PUBCHEM_PHARMACOPHORE_FEATURES>  (1) 
6
1 1 acceptor
1 2 acceptor
1 3 cation
1 4 donor
6 11 15 16 22 23 24 rings
6 12 13 14 17 18 21 rings

>  <PUBCHEM_HEAVY_ATOM_COUNT>  (1) 
24

>  <PUBCHEM_ATOM_DEF_STEREO_COUNT>  (1) 
0

>  <PUBCHEM_ATOM_UDEF_STEREO_COUNT>  (1) 
0

>  <PUBCHEM_BOND_DEF_STEREO_COUNT>  (1) 
0

>  <PUBCHEM_BOND_UDEF_STEREO_COUNT>  (1) 
0

>  <PUBCHEM_ISOTOPIC_ATOM_COUNT>  (1) 
0

>  <PUBCHEM_COMPONENT_COUNT>  (1) 
1

>  <PUBCHEM_CACTVS_TAUTO_COUNT>  (1) 
4

>  <PUBCHEM_CONFORMER_ID>  (1) 
000047FD00000004

>  <PUBCHEM_MMFF94_ENERGY>  (1) 
105.898

>  <PUBCHEM_FEATURE_SELFOVERLAP>  (1) 
30.446

>  <PUBCHEM_SHAPE_FINGERPRINT>  (1) 
10014705 185 18272652389183097802
10319926 262 17749400277407728587
10763959 59 18335989674923155772
11089746 13 18408880728691905350
11186622 174 18340202999417973446
11578080 2 16915074435129235128
12107183 9 18336535029049823242
12403259 118 18040722518953383477
12596602 18 14635168836158073061
12633257 1 15719398351587076887
12769317 202 18341041922505399297
13103583 49 13984672434127985901
13402501 40 18409446973117851429
13583140 156 18334869332593471459
14251764 38 18411146818083914909
14739800 52 18115014230329940889
15003188 100 18411697690747075101
15183329 4 18131637755315068344
15238133 3 17676214558749026444
15537594 2 12107796224026641832
18335252 114 18270110211352876045
19784866 240 10015581731521000011
20157964 124 18202004304648588038
20511986 3 17703215317785486010
20554085 129 17095241381208935497
20567600 254 18113892737581653037
20715895 44 18343584018931930296
21033648 29 18409724084143746688
21033650 10 14691477004133025522
21279426 13 18337954463658062116
21315764 268 18335416867898750116
21421861 104 17968360275144561754
21475661 188 18334858341988055020
21859007 373 18188763938508974012
23227448 37 18342175622167667391
23559900 14 17975973168748510955
2838139 119 18339918230253919085
2916195 48 18410854373580615715
314194 84 11602829028917313058
335352 9 18413390922032857942
351380 180 18410014329664903181
4325135 7 18202280321623666391
4371632 12 15838997857663191297
465052 167 11818991873078069944
5969126 39 18196087970889468935
59755656 520 18114176453914737107
6328613 192 18262248806641827932
633830 44 18040996297660124258
6371380 46 18262243227416311778
7237137 82 17417805214560337399
9981440 41 18040723537409590827

>  <PUBCHEM_SHAPE_MULTIPOLES>  (1) 
472.21
15.53
2.91
1.08
1.84
0.03
-0.1
9.32
-0.02
-0.18
0.26
0.49
-0.43
1.52

>  <PUBCHEM_SHAPE_SELFOVERLAP>  (1) 
992.291

>  <PUBCHEM_SHAPE_VOLUME>  (1) 
267.9

>  <PUBCHEM_COORDINATE_TYPE>  (1) 
2
5
10

$$$$
