1842
     RDKit          2D

 28 31  0  0  1  0  0  0  0  0999 V2000
    0.0000    0.0000    0.0000 S   0  0  0  0  0  0  0  0  0  0  0  0
    0.0000    0.0000    0.0000 O   0  0  0  0  0  0  0  0  0  0  0  0
    0.0000    0.0000    0.0000 O   0  0  0  0  0  0  0  0  0  0  0  0
    0.0000    0.0000    0.0000 O   0  0  0  0  0  0  0  0  0  0  0  0
    0.0000    0.0000    0.0000 O   0  0  0  0  0  0  0  0  0  0  0  0
    0.0000    0.0000    0.0000 O   0  0  0  0  0  0  0  0  0  0  0  0
    0.0000    0.0000    0.0000 N   0  0  0  0  0  0  0  0  0  0  0  0
    0.0000    0.0000    0.0000 N   0  0  0  0  0  0  0  0  0  0  0  0
    0.0000    0.0000    0.0000 N   0  0  0  0  0  0  0  0  0  0  0  0
    0.0000    0.0000    0.0000 N   0  0  0  0  0  0  0  0  0  0  0  0
    0.0000    0.0000    0.0000 N   0  0  0  0  0  0  0  0  0  0  0  0
    0.0000    0.0000    0.0000 C   0  0  0  0  0  0  0  0  0  0  0  0
    0.0000    0.0000    0.0000 C   0  0  0  0  0  0  0  0  0  0  0  0
    0.0000    0.0000    0.0000 C   0  0  0  0  0  0  0  0  0  0  0  0
    0.0000    0.0000    0.0000 C   0  0  0  0  0  0  0  0  0  0  0  0
    0.0000    0.0000    0.0000 C   0  0  0  0  0  0  0  0  0  0  0  0
    0.0000    0.0000    0.0000 C   0  0  0  0  0  0  0  0  0  0  0  0
    0.0000    0.0000    0.0000 C   0  0  0  0  0  0  0  0  0  0  0  0
    0.0000    0.0000    0.0000 C   0  0  0  0  0  0  0  0  0  0  0  0
    0.0000    0.0000    0.0000 C   0  0  0  0  0  0  0  0  0  0  0  0
    0.0000    0.0000    0.0000 C   0  0  0  0  0  0  0  0  0  0  0  0
    0.0000    0.0000    0.0000 C   0  0  0  0  0  0  0  0  0  0  0  0
    0.0000    0.0000    0.0000 C   0  0  0  0  0  0  0  0  0  0  0  0
    0.0000    0.0000    0.0000 C   0  0  0  0  0  0  0  0  0  0  0  0
    0.0000    0.0000    0.0000 C   0  0  0  0  0  0  0  0  0  0  0  0
    0.0000    0.0000    0.0000 C   0  0  0  0  0  0  0  0  0  0  0  0
    0.0000    0.0000    0.0000 C   0  0  0  0  0  0  0  0  0  0  0  0
    0.0000    0.0000    0.0000 C   0  0  0  0  0  0  0  0  0  0  0  0
  1  4  1  0
  1  5  2  0
  1  6  2  0
  1 21  1  0
  2 13  1  0
  2 14  1  0
  3 12  1  0
  4 16  1  0
  7 14  1  0
  7 17  1  0
  7 18  1  0
  8 18  2  0
  8 19  1  0
  9 17  1  0
  9 22  2  0
 10 20  2  0
 10 22  1  0
 11 20  1  0
 12 13  1  0
 12 15  1  0
 13 16  1  0
 14 15  1  0
 17 19  2  0
 19 20  1  0
 21 23  2  0
 21 24  1  0
 23 25  1  0
 24 26  2  0
 25 27  2  0
 26 27  1  0
 27 28  1  0
M  END
>  <PUBCHEM_COMPOUND_CID>  (1) 
1842

>  <PUBCHEM_CONFORMER_RMSD>  (1) 
0.8

>  <PUBCHEM_CONFORMER_DIVERSEORDER>  (1) 
36
1
146
61
202
81
23
138
62
28
110
155
209
87
173
130
114
2
30
131
37
178
152
165
218
77
176
172
254
107
100
14
182
203
41
185
96
8
108
89
21
119
164
251
169
48
16
20
102
76
66
226
200
46
159
29
6
124
237
83
125
58
142
247
39
204
82
189
65
198
60
31
91
136
93
3
156
161
177
188
206
57
234
116
18
149
69
228
187
171
22
255
32
121
52
197
128
148
43
78
117
163
193
180
242
5
53
113
140
9
63
240
55
17
191
50
86
147
115
25
145
118
98
79
19
80
181
243
192
175
212
134
34
44
162
168
72
88
111
154
144
210
4
54
13
97
211
141
135
7
112
35
26
238
133
205
51
24
56
195
158
241
104
95
235
183
42
150
38
252
207
12
103
233
220
245
99
15
68
215
166
120
67
186
167
27
230
174
10
248
196
199
73
157
208
84
75
151
11
85
213
256
122
126
40
92
74
71
123
184
64
105
49
160
223
190
236
219
33
94
227
231
194
244
45
216
139
179
221
137
47
224
246
249
217
127
132
253
250
90
101
222
229
225
239
232
153
170
129
109
201
214
143
106
59
70

>  <PUBCHEM_MMFF94_PARTIAL_CHARGES>  (1) 
36
1 1.49
10 -0.62
11 -0.9
12 0.28
13 0.28
14 0.54
16 0.28
17 0.11
18 0.04
19 0.23
2 -0.56
20 0.41
21 -0.01
22 0.47
23 -0.15
24 -0.15
25 -0.15
26 -0.15
27 -0.14
28 0.14
3 -0.68
36 0.4
37 0.15
38 0.15
39 0.15
4 -0.46
40 0.15
41 0.4
42 0.4
43 0.15
44 0.15
5 -0.65
6 -0.65
7 0.05
8 -0.57
9 -0.57

>  <PUBCHEM_EFFECTIVE_ROTOR_COUNT>  (1) 
6

>  <PUBCHEM_PHARMACOPHORE_FEATURES>  (1) 
14
1 11 cation
1 11 donor
1 2 acceptor
1 3 acceptor
1 3 donor
1 5 acceptor
1 6 acceptor
3 7 8 18 cation
3 7 9 17 cation
3 9 10 22 cation
5 2 12 13 14 15 rings
5 7 8 17 18 19 rings
6 21 23 24 25 26 27 rings
6 9 10 17 19 20 22 rings

>  <PUBCHEM_HEAVY_ATOM_COUNT>  (1) 
28

>  <PUBCHEM_ATOM_DEF_STEREO_COUNT>  (1) 
0

>  <PUBCHEM_ATOM_UDEF_STEREO_COUNT>  (1) 
3

>  <PUBCHEM_BOND_DEF_STEREO_COUNT>  (1) 
0

>  <PUBCHEM_BOND_UDEF_STEREO_COUNT>  (1) 
0

>  <PUBCHEM_ISOTOPIC_ATOM_COUNT>  (1) 
0

>  <PUBCHEM_COMPONENT_COUNT>  (1) 
1

>  <PUBCHEM_CACTVS_TAUTO_COUNT>  (1) 
3

$$$$
