18432
     RDKit          3D

 22 23  0  0  0  0  0  0  0  0999 V2000
   -4.0729    2.7136    0.4002 Cl  0  0  0  0  0  0  0  0  0  0  0  0
   -5.9650    0.0951    0.2068 Cl  0  0  0  0  0  0  0  0  0  0  0  0
    0.2622    1.4533   -1.5620 O   0  0  0  0  0  0  0  0  0  0  0  0
    0.0121   -2.2631    1.2198 O   0  0  0  0  0  0  0  0  0  0  0  0
   -0.0849   -0.4040   -0.1617 N   0  0  0  0  0  0  0  0  0  0  0  0
    1.6568   -2.0249   -0.4047 N   0  0  0  0  0  0  0  0  0  0  0  0
   -1.5234   -0.2651   -0.0701 C   0  0  0  0  0  0  0  0  0  0  0  0
    0.6665    0.6644   -0.7087 C   0  0  0  0  0  0  0  0  0  0  0  0
    0.5128   -1.6047    0.3005 C   0  0  0  0  0  0  0  0  0  0  0  0
    2.0210    0.9001   -0.1495 C   0  0  0  0  0  0  0  0  0  0  0  0
   -2.0408    0.9915    0.0974 C   0  0  0  0  0  0  0  0  0  0  0  0
   -2.2866   -1.3987   -0.1559 C   0  0  0  0  0  0  0  0  0  0  0  0
   -3.4266    1.1245    0.1859 C   0  0  0  0  0  0  0  0  0  0  0  0
   -3.6722   -1.2657   -0.0674 C   0  0  0  0  0  0  0  0  0  0  0  0
    2.2630    0.5791    1.1707 C   0  0  0  0  0  0  0  0  0  0  0  0
    2.9973    1.4326   -0.9670 C   0  0  0  0  0  0  0  0  0  0  0  0
    2.6942   -2.8468    0.2146 C   0  0  0  0  0  0  0  0  0  0  0  0
    1.8827   -1.6686   -1.7980 C   0  0  0  0  0  0  0  0  0  0  0  0
   -4.2422   -0.0041    0.1034 C   0  0  0  0  0  0  0  0  0  0  0  0
    3.5360    0.8003    1.6963 C   0  0  0  0  0  0  0  0  0  0  0  0
    4.2702    1.6537   -0.4413 C   0  0  0  0  0  0  0  0  0  0  0  0
    4.5396    1.3376    0.8904 C   0  0  0  0  0  0  0  0  0  0  0  0
  1 13  1  0
  2 19  1  0
  3  8  2  0
  4  9  2  0
  5  7  1  0
  5  8  1  0
  5  9  1  0
  6  9  1  0
  6 17  1  0
  6 18  1  0
  7 11  2  0
  7 12  1  0
  8 10  1  0
 10 15  2  0
 10 16  1  0
 11 13  1  0
 12 14  2  0
 13 19  2  0
 14 19  1  0
 15 20  1  0
 16 21  2  0
 20 22  2  0
 21 22  1  0
M  END
>  <PUBCHEM_COMPOUND_CID>  (1) 
18432

>  <PUBCHEM_CONFORMER_RMSD>  (1) 
0.8

>  <PUBCHEM_CONFORMER_DIVERSEORDER>  (1) 
1
11
16
19
14
7
5
10
13
15
20
8
2
6
18
12
9
3
17
4

>  <PUBCHEM_MMFF94_PARTIAL_CHARGES>  (1) 
30
1 -0.18
10 0.09
11 -0.15
12 -0.15
13 0.18
14 -0.15
15 -0.15
16 -0.15
17 0.3
18 0.3
19 0.18
2 -0.18
20 -0.15
21 -0.15
22 -0.15
23 0.15
24 0.15
25 0.15
26 0.15
27 0.15
3 -0.57
34 0.15
35 0.15
36 0.15
4 -0.57
5 -0.24
6 -0.66
7 0.12
8 0.54
9 0.69

>  <PUBCHEM_EFFECTIVE_ROTOR_COUNT>  (1) 
5

>  <PUBCHEM_PHARMACOPHORE_FEATURES>  (1) 
4
1 3 acceptor
1 4 acceptor
6 10 15 16 20 21 22 rings
6 7 11 12 13 14 19 rings

>  <PUBCHEM_HEAVY_ATOM_COUNT>  (1) 
22

>  <PUBCHEM_ATOM_DEF_STEREO_COUNT>  (1) 
0

>  <PUBCHEM_ATOM_UDEF_STEREO_COUNT>  (1) 
0

>  <PUBCHEM_BOND_DEF_STEREO_COUNT>  (1) 
0

>  <PUBCHEM_BOND_UDEF_STEREO_COUNT>  (1) 
0

>  <PUBCHEM_ISOTOPIC_ATOM_COUNT>  (1) 
0

>  <PUBCHEM_COMPONENT_COUNT>  (1) 
1

>  <PUBCHEM_CACTVS_TAUTO_COUNT>  (1) 
1

>  <PUBCHEM_CONFORMER_ID>  (1) 
0000480000000001

>  <PUBCHEM_MMFF94_ENERGY>  (1) 
95.6922

>  <PUBCHEM_FEATURE_SELFOVERLAP>  (1) 
20.297

>  <PUBCHEM_SHAPE_FINGERPRINT>  (1) 
10366900 7 18272083959231059345
10382601 240 17968377844932629248
10465860 228 18337675217595187560
10646746 165 18201719574097300928
1100329 8 17479181860213817544
11578080 2 17605541159450297493
12236239 1 17895470431375245761
12422481 6 18192689195494576290
12507560 40 18341331094211099877
12633257 1 17458329867364332232
12788726 201 17470451098181942998
13140716 1 17906175410106729555
13224815 77 18408610257864291267
13533116 47 18271805684242490635
14178342 30 18334297591094838435
14466204 15 18413100676179807504
14790565 3 18263370355409585684
15196674 1 18338800010022914457
15238133 3 15840717262469639003
15536298 74 18340771455397947519
16945 1 18198051676194688718
17349148 13 18115020939258708743
1813 80 16877945992737057212
20691752 17 17749393615755150974
20739085 24 17821446850723170156
21452121 103 18410288073494778810
22149856 69 18266765579366236955
22182313 1 17968927583645737191
23402539 116 18266170807013305031
23419403 2 17972018268251423526
23557571 272 17986682660926217655
23559900 14 17843684361340914918
34934 24 18272367599003039007
350125 39 18266462009758780836
3545911 37 18412829092601702765
42630746 31 18409729556153458583
4340502 62 18334580165957762475
465052 167 17385722525722830784
474 4 18260268563954603003
495365 180 17846208904557262772
5104073 3 18339088077863868769
5265222 85 18126572456609210892
58051976 378 18411419548643594629
59755656 215 18411703170840196318
633830 44 17916861456027033444
7364860 26 18272371923423591982

>  <PUBCHEM_SHAPE_MULTIPOLES>  (1) 
434.79
9.83
2.71
1.23
7.91
0.89
-0.08
-4.4
1.59
-0.86
0.05
-1.26
-0.02
0.1

>  <PUBCHEM_SHAPE_SELFOVERLAP>  (1) 
916.844

>  <PUBCHEM_SHAPE_VOLUME>  (1) 
246.2

>  <PUBCHEM_COORDINATE_TYPE>  (1) 
2
5
10

$$$$
