18430
     RDKit          3D

  5  5  0  0  1  0  0  0  0  0999 V2000
   -2.4816    0.2332   -0.1645 Br  0  0  0  0  0  0  0  0  0  0  0  0
    1.2304    0.8191    0.2430 O   0  0  0  0  0  0  0  0  0  0  0  0
    0.3312   -0.0550   -0.4260 C   0  0  0  0  0  0  0  0  0  0  0  0
    1.7206   -0.4796   -0.1142 C   0  0  0  0  0  0  0  0  0  0  0  0
   -0.8006   -0.5175    0.4616 C   0  0  0  0  0  0  0  0  0  0  0  0
  1  5  1  0
  2  3  1  0
  2  4  1  0
  3  4  1  0
  3  5  1  0
M  END
>  <PUBCHEM_COMPOUND_CID>  (1) 
18430

>  <PUBCHEM_CONFORMER_RMSD>  (1) 
0.4

>  <PUBCHEM_CONFORMER_DIVERSEORDER>  (1) 
2
6
1
5
4
3

>  <PUBCHEM_MMFF94_PARTIAL_CHARGES>  (1) 
8
1 -0.23
2 -0.3
3 -0.05
4 -0.05
5 0.32
6 0.1
7 0.1
8 0.1

>  <PUBCHEM_EFFECTIVE_ROTOR_COUNT>  (1) 
1.6

>  <PUBCHEM_PHARMACOPHORE_FEATURES>  (1) 
2
1 1 hydrophobe
1 2 acceptor

>  <PUBCHEM_HEAVY_ATOM_COUNT>  (1) 
5

>  <PUBCHEM_ATOM_DEF_STEREO_COUNT>  (1) 
0

>  <PUBCHEM_ATOM_UDEF_STEREO_COUNT>  (1) 
1

>  <PUBCHEM_BOND_DEF_STEREO_COUNT>  (1) 
0

>  <PUBCHEM_BOND_UDEF_STEREO_COUNT>  (1) 
0

>  <PUBCHEM_ISOTOPIC_ATOM_COUNT>  (1) 
0

>  <PUBCHEM_COMPONENT_COUNT>  (1) 
1

>  <PUBCHEM_CACTVS_TAUTO_COUNT>  (1) 
1

>  <PUBCHEM_CONFORMER_ID>  (1) 
000047FE00000002

>  <PUBCHEM_MMFF94_ENERGY>  (1) 
6.2482

>  <PUBCHEM_FEATURE_SELFOVERLAP>  (1) 
10.148

>  <PUBCHEM_SHAPE_FINGERPRINT>  (1) 
139733 1 8646477501634392446
16714656 1 16877949308446664559
20096714 4 18410856594173653241
21040471 1 17821730541691826747
24536 1 17459191948488402919
29004967 10 18201722825234309642
5460574 1 10087641494306142983

>  <PUBCHEM_SHAPE_MULTIPOLES>  (1) 
102.97
3.13
0.83
0.72
1.44
0.02
0.02
0.19
0.16
-0.05
-0.05
0.07
-0.01
0.12

>  <PUBCHEM_SHAPE_SELFOVERLAP>  (1) 
174.304

>  <PUBCHEM_SHAPE_VOLUME>  (1) 
72.5

>  <PUBCHEM_COORDINATE_TYPE>  (1) 
2
5
10

$$$$
