1844
     RDKit          3D

 20 19  0  0  1  0  0  0  0  0999 V2000
    1.3349   -1.9892   -0.6283 O   0  0  0  0  0  0  0  0  0  0  0  0
    2.6236    0.3985   -1.4960 O   0  0  0  0  0  0  0  0  0  0  0  0
    4.0431   -1.1129    1.4927 O   0  0  0  0  0  0  0  0  0  0  0  0
    6.3753   -0.8786   -0.0858 O   0  0  0  0  0  0  0  0  0  0  0  0
    0.0397    2.7202   -1.0463 O   0  0  0  0  0  0  0  0  0  0  0  0
   -3.7963   -2.1234    0.4068 O   0  0  0  0  0  0  0  0  0  0  0  0
   -6.0889   -1.1260    0.0733 O   0  0  0  0  0  0  0  0  0  0  0  0
   -5.1650    0.9183   -0.4095 O   0  0  0  0  0  0  0  0  0  0  0  0
    0.0155    1.1696    0.6889 N   0  0  0  0  0  0  0  0  0  0  0  0
    0.0497   -0.0319   -0.1223 C   0  0  0  0  0  0  0  0  0  0  0  0
    1.3584   -0.8038    0.1777 C   0  0  0  0  0  0  0  0  0  0  0  0
    2.6543   -0.0248   -0.1270 C   0  0  0  0  0  0  0  0  0  0  0  0
   -1.2196   -0.8759    0.1072 C   0  0  0  0  0  0  0  0  0  0  0  0
    3.9616   -0.8100    0.0937 C   0  0  0  0  0  0  0  0  0  0  0  0
   -2.5261   -0.1114   -0.1360 C   0  0  0  0  0  0  0  0  0  0  0  0
    5.2324   -0.0603   -0.3042 C   0  0  0  0  0  0  0  0  0  0  0  0
    0.0137    2.4416    0.1497 C   0  0  0  0  0  0  0  0  0  0  0  0
   -3.7679   -0.9444    0.0875 C   0  0  0  0  0  0  0  0  0  0  0  0
   -0.0510    3.5062    1.2119 C   0  0  0  0  0  0  0  0  0  0  0  0
   -5.0873   -0.2618   -0.1339 C   0  0  0  0  0  0  0  0  0  0  0  0
  1 11  1  0
  2 12  1  0
  3 14  1  0
  4 16  1  0
  5 17  2  0
  6 18  2  0
  7 20  1  0
  8 20  2  0
  9 10  1  0
  9 17  1  0
 10 11  1  0
 10 13  1  0
 11 12  1  0
 12 14  1  0
 13 15  1  0
 14 16  1  0
 15 18  1  0
 17 19  1  0
 18 20  1  0
M  END
>  <PUBCHEM_COMPOUND_CID>  (1) 
1844

>  <PUBCHEM_CONFORMER_RMSD>  (1) 
1.2

>  <PUBCHEM_CONFORMER_DIVERSEORDER>  (1) 
1
121
42
150
102
172
28
239
176
149
92
106
68
116
39
209
187
192
234
114
229
218
147
98
191
103
235
188
62
214
190
58
153
87
124
26
34
59
36
2
8
22
11
213
211
40
202
143
168
136
90
115
117
156
185
208
140
216
71
21
54
195
6
89
186
108
113
155
151
230
207
84
45
37
14
120
142
18
164
5
27
184
99
57
165
122
25
175
134
212
72
125
222
144
107
23
91
180
132
220
83
55
236
47
104
146
19
238
210
78
178
110
221
128
3
112
53
67
63
86
123
44
70
32
223
29
20
227
13
66
167
46
200
152
240
126
31
181
88
160
237
30
206
161
241
182
65
49
111
4
100
51
85
60
177
97
130
217
145
94
81
135
69
198
105
75
219
101
141
109
215
38
9
157
48
179
171
201
228
96
64
33
138
131
61
133
232
56
158
80
203
129
119
170
17
224
76
77
193
93
73
16
163
231
7
79
41
169
196
35
205
199
10
74
233
43
162
82
148
139
118
24
189
12
204
194
95
127
52
159
183
15
166
242
226
173
154
50
197
225
137
174

>  <PUBCHEM_MMFF94_PARTIAL_CHARGES>  (1) 
25
1 -0.68
10 0.3
11 0.28
12 0.28
14 0.28
15 0.06
16 0.28
17 0.57
18 0.51
19 0.06
2 -0.68
20 0.72
27 0.37
3 -0.68
32 0.4
33 0.4
34 0.4
38 0.4
39 0.5
4 -0.68
5 -0.57
6 -0.57
7 -0.65
8 -0.57
9 -0.73

>  <PUBCHEM_EFFECTIVE_ROTOR_COUNT>  (1) 
10

>  <PUBCHEM_PHARMACOPHORE_FEATURES>  (1) 
14
1 1 acceptor
1 1 donor
1 2 acceptor
1 2 donor
1 3 acceptor
1 3 donor
1 4 acceptor
1 4 donor
1 5 acceptor
1 6 acceptor
1 7 acceptor
1 8 acceptor
1 9 donor
3 7 8 20 anion

>  <PUBCHEM_HEAVY_ATOM_COUNT>  (1) 
20

>  <PUBCHEM_ATOM_DEF_STEREO_COUNT>  (1) 
0

>  <PUBCHEM_ATOM_UDEF_STEREO_COUNT>  (1) 
4

>  <PUBCHEM_BOND_DEF_STEREO_COUNT>  (1) 
0

>  <PUBCHEM_BOND_UDEF_STEREO_COUNT>  (1) 
0

>  <PUBCHEM_ISOTOPIC_ATOM_COUNT>  (1) 
0

>  <PUBCHEM_COMPONENT_COUNT>  (1) 
1

>  <PUBCHEM_CACTVS_TAUTO_COUNT>  (1) 
4

>  <PUBCHEM_CONFORMER_ID>  (1) 
0000073400000001

>  <PUBCHEM_MMFF94_ENERGY>  (1) 
37.1479

>  <PUBCHEM_FEATURE_SELFOVERLAP>  (1) 
71.137

>  <PUBCHEM_SHAPE_FINGERPRINT>  (1) 
10922049 32 8934998178841623281
11265709 11 18412267233079773617
11646440 116 18342748428986702171
12236239 1 18113338604995805510
12516196 113 18342737429174497475
12788726 201 18335699378225706520
13533116 47 17749945567146829506
13899415 154 18342186604119624008
14170010 4 18270677688291342081
15342168 16 15409462568537760986
15927050 60 17622724636866066604
1601671 61 18342177748033943269
167882 2 18045790249703754340
17980427 23 17203342112840154953
18006028 8 18342174470810392148
18222031 100 18272646870086702042
187816 3 17967817141300013586
200 152 17967814938171649082
21033648 29 17060043827628244915
21041028 32 18272088310038750417
21250096 35 18410573989594306483
21267235 1 18410864260595577895
2297311 6 18343310232458038222
23402539 116 18413385445132306558
23419403 2 18193811890834303916
23557571 272 18271248205570846636
23558518 356 17977398130878952322
23559900 14 18336261361489829864
23622692 118 17914605301649526839
3004659 81 18113618989034933718
314173 85 18202012013987952232
59755656 215 18339647746209912454
621550 34 17704069569600694022
633830 44 12396586277467382827
68521 5 18411139091194734048
7164475 11 18189897505058585302
7364860 26 18198623431348200401
7495541 125 18115594880276183019
81228 2 18194701266696372745
8863177 126 17898865796998181683

>  <PUBCHEM_SHAPE_MULTIPOLES>  (1) 
359.66
12.17
2.68
0.94
2.01
3.11
-0.02
-6.8
0.23
0.62
-0.53
-0.59
0.28
0

>  <PUBCHEM_SHAPE_SELFOVERLAP>  (1) 
699.969

>  <PUBCHEM_SHAPE_VOLUME>  (1) 
214.9

>  <PUBCHEM_COORDINATE_TYPE>  (1) 
2
5
10

$$$$
