18449
     RDKit          3D

 14 15  0  0  0  0  0  0  0  0999 V2000
    3.0526   -2.3480   -1.0611 Br  0  0  0  0  0  0  0  0  0  0  0  0
    3.0524    2.3481    1.0611 Br  0  0  0  0  0  0  0  0  0  0  0  0
    0.0840   -1.2965    0.4989 N   0  0  0  0  0  0  0  0  0  0  0  0
    0.0840    1.2965   -0.4989 N   0  0  0  0  0  0  0  0  0  0  0  0
   -1.0726   -0.6566    0.2525 C   0  0  0  0  0  0  0  0  0  0  0  0
   -1.0725    0.6565   -0.2526 C   0  0  0  0  0  0  0  0  0  0  0  0
    1.2300   -0.6391    0.2459 C   0  0  0  0  0  0  0  0  0  0  0  0
    1.2300    0.6391   -0.2459 C   0  0  0  0  0  0  0  0  0  0  0  0
   -2.2897   -1.2889    0.4958 C   0  0  0  0  0  0  0  0  0  0  0  0
   -2.2896    1.2889   -0.4958 C   0  0  0  0  0  0  0  0  0  0  0  0
    2.4978   -1.3697    0.5269 C   0  0  0  0  0  0  0  0  0  0  0  0
    2.4976    1.3698   -0.5268 C   0  0  0  0  0  0  0  0  0  0  0  0
   -3.5021   -0.6472    0.2489 C   0  0  0  0  0  0  0  0  0  0  0  0
   -3.5020    0.6472   -0.2489 C   0  0  0  0  0  0  0  0  0  0  0  0
  1 11  1  0
  2 12  1  0
  3  5  2  0
  3  7  1  0
  4  6  2  0
  4  8  1  0
  5  6  1  0
  5  9  1  0
  6 10  1  0
  7  8  2  0
  7 11  1  0
  8 12  1  0
  9 13  2  0
 10 14  2  0
 13 14  1  0
M  END
>  <PUBCHEM_COMPOUND_CID>  (1) 
18449

>  <PUBCHEM_CONFORMER_RMSD>  (1) 
0.6

>  <PUBCHEM_CONFORMER_DIVERSEORDER>  (1) 
2
4
1
3

>  <PUBCHEM_MMFF94_PARTIAL_CHARGES>  (1) 
18
1 -0.23
10 -0.15
11 0.37
12 0.37
13 -0.15
14 -0.15
15 0.15
16 0.15
2 -0.23
21 0.15
22 0.15
3 -0.62
4 -0.62
5 0.31
6 0.31
7 0.17
8 0.17
9 -0.15

>  <PUBCHEM_EFFECTIVE_ROTOR_COUNT>  (1) 
2

>  <PUBCHEM_PHARMACOPHORE_FEATURES>  (1) 
6
1 1 hydrophobe
1 2 hydrophobe
1 3 acceptor
1 4 acceptor
6 3 4 5 6 7 8 rings
6 5 6 9 10 13 14 rings

>  <PUBCHEM_HEAVY_ATOM_COUNT>  (1) 
14

>  <PUBCHEM_ATOM_DEF_STEREO_COUNT>  (1) 
0

>  <PUBCHEM_ATOM_UDEF_STEREO_COUNT>  (1) 
0

>  <PUBCHEM_BOND_DEF_STEREO_COUNT>  (1) 
0

>  <PUBCHEM_BOND_UDEF_STEREO_COUNT>  (1) 
0

>  <PUBCHEM_ISOTOPIC_ATOM_COUNT>  (1) 
0

>  <PUBCHEM_COMPONENT_COUNT>  (1) 
1

>  <PUBCHEM_CACTVS_TAUTO_COUNT>  (1) 
1

>  <PUBCHEM_CONFORMER_ID>  (1) 
0000481100000002

>  <PUBCHEM_MMFF94_ENERGY>  (1) 
37.3463

>  <PUBCHEM_FEATURE_SELFOVERLAP>  (1) 
30.487

>  <PUBCHEM_SHAPE_FINGERPRINT>  (1) 
10465860 71 18120391877503970846
10608611 8 18335696139667793093
11132069 177 18189892196178710313
12032990 46 18335428911234720795
12382932 28 18262232347525068777
12932764 1 17988081200702976477
13140716 1 18334573504041220609
13296908 3 18186242835708395163
13380535 21 18335713774650139849
13380535 76 18190456249970076506
14325111 11 18334012800456103381
14911166 2 18117559522507350439
15219456 202 18409728478032063352
15536298 74 18410012134714932354
161256 15 18334295344826741444
16945 1 18117554016301117931
17804303 29 18263929838822433335
18186145 218 18187081707287907557
20645477 70 18411412904429687559
20671657 53 18128827335054506630
21501502 16 18407760339433584741
21524375 3 18122901207978012456
22802520 49 18336559243294481887
2334 1 18333732450544325509
23552423 10 18040157318321242703
23559900 14 18409729577960760540
2748010 2 18260548926534836007
4663303 62 18343302565698685062
5104073 3 18407479955911441633
53812653 166 18267862959424351408
7364860 26 18343019995573885698
81228 2 17478899281878436730
84936 31 17775275054906651702
9709674 26 18336266824883759707

>  <PUBCHEM_SHAPE_MULTIPOLES>  (1) 
290.04
6.06
2.51
0.95
2.11
0
0
0
0
-3.06
0
-0.43
0
1.21

>  <PUBCHEM_SHAPE_SELFOVERLAP>  (1) 
595.371

>  <PUBCHEM_SHAPE_VOLUME>  (1) 
174.1

>  <PUBCHEM_COORDINATE_TYPE>  (1) 
2
5
10

$$$$
