18440
     RDKit          3D

 27 29  0  0  1  0  0  0  0  0999 V2000
    0.6476   -0.4507   -0.8329 O   0  0  0  0  0  0  0  0  0  0  0  0
   -0.8458   -0.6571    1.3722 O   0  0  0  0  0  0  0  0  0  0  0  0
   -1.0674   -1.7507   -1.6434 O   0  0  0  0  0  0  0  0  0  0  0  0
    4.8237   -0.1489   -0.0171 N   0  0  0  0  0  0  0  0  0  0  0  0
    3.4667   -0.6772   -0.2136 C   0  0  0  0  0  0  0  0  0  0  0  0
    3.6486   -2.1743    0.0454 C   0  0  0  0  0  0  0  0  0  0  0  0
    4.8703   -2.2803    0.9517 C   0  0  0  0  0  0  0  0  0  0  0  0
    5.3338   -0.8487    1.1644 C   0  0  0  0  0  0  0  0  0  0  0  0
    2.9082   -0.4084   -1.6053 C   0  0  0  0  0  0  0  0  0  0  0  0
    4.8600    1.2975    0.1616 C   0  0  0  0  0  0  0  0  0  0  0  0
    1.5317   -1.0249   -1.7856 C   0  0  0  0  0  0  0  0  0  0  0  0
    6.2780    1.7852    0.4058 C   0  0  0  0  0  0  0  0  0  0  0  0
   -1.5031   -0.1786    0.1811 C   0  0  0  0  0  0  0  0  0  0  0  0
   -0.6496   -0.9041   -0.8623 C   0  0  0  0  0  0  0  0  0  0  0  0
   -2.9747   -0.5994    0.1831 C   0  0  0  0  0  0  0  0  0  0  0  0
   -1.3710    1.3437    0.0970 C   0  0  0  0  0  0  0  0  0  0  0  0
   -3.6274   -0.8593   -1.0219 C   0  0  0  0  0  0  0  0  0  0  0  0
   -1.3286    2.1057    1.2646 C   0  0  0  0  0  0  0  0  0  0  0  0
   -3.6632   -0.7235    1.3901 C   0  0  0  0  0  0  0  0  0  0  0  0
   -1.2924    1.9695   -1.1472 C   0  0  0  0  0  0  0  0  0  0  0  0
   -0.9072   -2.0675    1.4458 C   0  0  0  0  0  0  0  0  0  0  0  0
   -4.9685   -1.2430   -1.0202 C   0  0  0  0  0  0  0  0  0  0  0  0
   -1.2079    3.4932    1.1882 C   0  0  0  0  0  0  0  0  0  0  0  0
   -5.0042   -1.1073    1.3916 C   0  0  0  0  0  0  0  0  0  0  0  0
   -1.1716    3.3571   -1.2236 C   0  0  0  0  0  0  0  0  0  0  0  0
   -5.6568   -1.3671    0.1865 C   0  0  0  0  0  0  0  0  0  0  0  0
   -1.1294    4.1189   -0.0559 C   0  0  0  0  0  0  0  0  0  0  0  0
  1 11  1  0
  1 14  1  0
  2 13  1  0
  2 21  1  0
  3 14  2  0
  4  5  1  0
  4  8  1  0
  4 10  1  0
  5  6  1  0
  5  9  1  0
  6  7  1  0
  7  8  1  0
  9 11  1  0
 10 12  1  0
 13 14  1  0
 13 15  1  0
 13 16  1  0
 15 17  2  0
 15 19  1  0
 16 18  2  0
 16 20  1  0
 17 22  1  0
 18 23  1  0
 19 24  2  0
 20 25  2  0
 22 26  2  0
 23 27  2  0
 24 26  1  0
 25 27  1  0
M  END
>  <PUBCHEM_COMPOUND_CID>  (1) 
18440

>  <PUBCHEM_CONFORMER_RMSD>  (1) 
1

>  <PUBCHEM_CONFORMER_DIVERSEORDER>  (1) 
1
76
102
151
93
155
163
107
110
162
165
95
48
17
84
131
153
19
132
158
43
5
38
147
51
97
25
123
172
167
148
82
53
175
141
173
2
104
133
87
101
130
171
88
119
118
8
41
140
62
120
98
127
15
125
129
16
14
139
99
71
30
105
57
39
149
69
143
103
124
136
122
46
9
49
164
156
96
64
80
174
31
126
75
138
36
4
146
11
166
18
73
160
32
22
12
42
106
169
115
20
121
65
168
40
55
83
26
135
28
91
33
154
152
113
117
112
59
66
137
61
85
44
77
45
109
60
47
116
145
144
142
79
56
100
74
150
35
134
54
78
34
92
7
114
111
159
29
27
50
170
52
176
6
86
37
21
67
72
94
58
3
128
90
23
161
13
157
89
70
108
24
68
63
10
81

>  <PUBCHEM_MMFF94_PARTIAL_CHARGES>  (1) 
33
1 -0.43
10 0.27
11 0.28
13 0.63
14 0.66
15 -0.14
16 -0.14
17 -0.15
18 -0.15
19 -0.15
2 -0.56
20 -0.15
21 0.28
22 -0.15
23 -0.15
24 -0.15
25 -0.15
26 -0.15
27 -0.15
3 -0.57
4 -0.81
44 0.15
45 0.15
46 0.15
47 0.15
5 0.27
51 0.15
52 0.15
53 0.15
54 0.15
55 0.15
56 0.15
8 0.27

>  <PUBCHEM_EFFECTIVE_ROTOR_COUNT>  (1) 
10

>  <PUBCHEM_PHARMACOPHORE_FEATURES>  (1) 
6
1 2 acceptor
1 3 acceptor
1 4 cation
5 4 5 6 7 8 rings
6 15 17 19 22 24 26 rings
6 16 18 20 23 25 27 rings

>  <PUBCHEM_HEAVY_ATOM_COUNT>  (1) 
27

>  <PUBCHEM_ATOM_DEF_STEREO_COUNT>  (1) 
0

>  <PUBCHEM_ATOM_UDEF_STEREO_COUNT>  (1) 
1

>  <PUBCHEM_BOND_DEF_STEREO_COUNT>  (1) 
0

>  <PUBCHEM_BOND_UDEF_STEREO_COUNT>  (1) 
0

>  <PUBCHEM_ISOTOPIC_ATOM_COUNT>  (1) 
0

>  <PUBCHEM_COMPONENT_COUNT>  (1) 
1

>  <PUBCHEM_CACTVS_TAUTO_COUNT>  (1) 
1

>  <PUBCHEM_CONFORMER_ID>  (1) 
0000480800000001

>  <PUBCHEM_MMFF94_ENERGY>  (1) 
76.8262

>  <PUBCHEM_FEATURE_SELFOVERLAP>  (1) 
30.447

>  <PUBCHEM_SHAPE_FINGERPRINT>  (1) 
10366900 7 18336275604355744170
10369192 42 16343702171131433172
10670039 82 18339940259769304988
10930396 42 18194936717167283738
11578080 2 17201658644562934401
11595378 159 18411426077088875718
12107698 1 18411700946754323770
12403814 3 18131346393255213487
12422481 6 18128838355961590041
12516196 113 18408605898515099587
12596602 18 17822004307703193464
12788726 201 18335435546758415006
12892183 10 18334853871417775334
13004483 165 18411414012198641575
13533116 47 18259984851791210810
13583140 156 18197207049923489390
14251764 38 18198055872979285852
14840074 17 18130228275871302964
17349148 13 17677064455140757406
17492 89 18267583512205181494
17980427 23 17417822794103643885
1813 80 18342471356535923421
18769570 83 18263087635255738621
20600515 1 18116170989850877557
21304303 282 17755282488971291573
23402539 116 18410294692530128679
23419403 2 18340471362023404389
23559900 14 17604440711778152350
283562 15 18261952938701849763
3004659 81 13984379968625896614
3009799 131 18334288782580976031
3380486 77 17604452759177462767
3886686 26 17471569928208925242
404807 14 16158180263584244346
5104073 3 18336540500832474416
6004065 56 18267301109589212567
633830 44 14117503351811687430
6913067 236 17988634173421353167
7399639 24 17988648445602881286
9981440 41 17554587518512924527

>  <PUBCHEM_SHAPE_MULTIPOLES>  (1) 
533.06
12.21
3.76
1.64
11.25
4.83
-0.15
-5.45
2.83
-0.68
0.39
-0.49
-0.27
-0.06

>  <PUBCHEM_SHAPE_SELFOVERLAP>  (1) 
1128.584

>  <PUBCHEM_SHAPE_VOLUME>  (1) 
298.9

>  <PUBCHEM_COORDINATE_TYPE>  (1) 
2
5
10

$$$$
