18453
     RDKit          3D

  7  7  0  0  0  0  0  0  0  0999 V2000
   -3.0851    0.4848   -0.0001 Br  0  0  0  0  0  0  0  0  0  0  0  0
    3.0848    0.4849   -0.0008 Br  0  0  0  0  0  0  0  0  0  0  0  0
   -0.0001    1.2701    0.0004 S   0  0  0  0  0  0  0  0  0  0  0  0
   -0.7123   -1.1983   -0.0004 C   0  0  0  0  0  0  0  0  0  0  0  0
    0.7126   -1.1983    0.0005 C   0  0  0  0  0  0  0  0  0  0  0  0
   -1.2296    0.0784   -0.0004 C   0  0  0  0  0  0  0  0  0  0  0  0
    1.2298    0.0784    0.0008 C   0  0  0  0  0  0  0  0  0  0  0  0
  1  6  1  0
  2  7  1  0
  3  6  1  0
  3  7  1  0
  4  5  1  0
  4  6  2  0
  5  7  2  0
M  END
>  <PUBCHEM_COMPOUND_CID>  (1) 
18453

>  <PUBCHEM_CONFORMER_RMSD>  (1) 
0.4

>  <PUBCHEM_CONFORMER_DIVERSEORDER>  (1) 
1

>  <PUBCHEM_MMFF94_PARTIAL_CHARGES>  (1) 
9
1 -0.06
2 -0.06
3 -0.08
4 -0.15
5 -0.15
6 0.1
7 0.1
8 0.15
9 0.15

>  <PUBCHEM_EFFECTIVE_ROTOR_COUNT>  (1) 
0

>  <PUBCHEM_PHARMACOPHORE_FEATURES>  (1) 
3
1 1 hydrophobe
1 2 hydrophobe
5 3 4 5 6 7 rings

>  <PUBCHEM_HEAVY_ATOM_COUNT>  (1) 
7

>  <PUBCHEM_ATOM_DEF_STEREO_COUNT>  (1) 
0

>  <PUBCHEM_ATOM_UDEF_STEREO_COUNT>  (1) 
0

>  <PUBCHEM_BOND_DEF_STEREO_COUNT>  (1) 
0

>  <PUBCHEM_BOND_UDEF_STEREO_COUNT>  (1) 
0

>  <PUBCHEM_ISOTOPIC_ATOM_COUNT>  (1) 
0

>  <PUBCHEM_COMPONENT_COUNT>  (1) 
1

>  <PUBCHEM_CACTVS_TAUTO_COUNT>  (1) 
1

>  <PUBCHEM_CONFORMER_ID>  (1) 
0000481500000001

>  <PUBCHEM_MMFF94_ENERGY>  (1) 
1.6337

>  <PUBCHEM_FEATURE_SELFOVERLAP>  (1) 
15.223

>  <PUBCHEM_SHAPE_FINGERPRINT>  (1) 
14325111 11 18410856559655711265
14390081 3 18272087192877293841
16714656 1 18410293631440877076
21040471 1 18410574006658001095
21293036 1 18341891913496758741
23235685 24 18410570686616756197
23402655 69 18268132177503409453
23552423 10 18191026707621620910
29004967 10 18114752546657319289

>  <PUBCHEM_SHAPE_MULTIPOLES>  (1) 
159.79
4.34
1.36
0.67
0
0.14
0
-1.19
0
0
0
0
-0.03
0

>  <PUBCHEM_SHAPE_SELFOVERLAP>  (1) 
283.023

>  <PUBCHEM_SHAPE_VOLUME>  (1) 
106.3

>  <PUBCHEM_COORDINATE_TYPE>  (1) 
2
5
10

$$$$
