18458
     RDKit          3D

  8  7  0  0  0  0  0  0  0  0999 V2000
    1.6856   -1.5399    0.0649 O   0  0  0  0  0  0  0  0  0  0  0  0
    2.5579    0.5471    0.2273 O   0  0  0  0  0  0  0  0  0  0  0  0
   -2.2564   -0.2355   -0.5561 C   0  0  0  0  0  0  0  0  0  0  0  0
   -0.8113   -0.5681   -0.3072 C   0  0  0  0  0  0  0  0  0  0  0  0
    0.2009    0.3028   -0.1322 C   0  0  0  0  0  0  0  0  0  0  0  0
   -3.0295   -0.1139    0.7472 C   0  0  0  0  0  0  0  0  0  0  0  0
    0.0568    1.7980   -0.1072 C   0  0  0  0  0  0  0  0  0  0  0  0
    1.5960   -0.1905    0.0635 C   0  0  0  0  0  0  0  0  0  0  0  0
  1  8  1  0
  2  8  2  0
  3  4  1  0
  3  6  1  0
  4  5  2  0
  5  7  1  0
  5  8  1  0
M  END
>  <PUBCHEM_COMPOUND_CID>  (1) 
18458

>  <PUBCHEM_CONFORMER_RMSD>  (1) 
0.4

>  <PUBCHEM_CONFORMER_DIVERSEORDER>  (1) 
1
3
2

>  <PUBCHEM_MMFF94_PARTIAL_CHARGES>  (1) 
9
1 -0.65
11 0.15
18 0.5
2 -0.57
3 0.14
4 -0.29
5 -0.12
7 0.14
8 0.71

>  <PUBCHEM_EFFECTIVE_ROTOR_COUNT>  (1) 
2

>  <PUBCHEM_PHARMACOPHORE_FEATURES>  (1) 
5
1 1 acceptor
1 2 acceptor
1 6 hydrophobe
1 7 hydrophobe
3 1 2 8 anion

>  <PUBCHEM_HEAVY_ATOM_COUNT>  (1) 
8

>  <PUBCHEM_ATOM_DEF_STEREO_COUNT>  (1) 
0

>  <PUBCHEM_ATOM_UDEF_STEREO_COUNT>  (1) 
0

>  <PUBCHEM_BOND_DEF_STEREO_COUNT>  (1) 
0

>  <PUBCHEM_BOND_UDEF_STEREO_COUNT>  (1) 
1

>  <PUBCHEM_ISOTOPIC_ATOM_COUNT>  (1) 
0

>  <PUBCHEM_COMPONENT_COUNT>  (1) 
1

>  <PUBCHEM_CACTVS_TAUTO_COUNT>  (1) 
1

>  <PUBCHEM_CONFORMER_ID>  (1) 
0000481A00000001

>  <PUBCHEM_MMFF94_ENERGY>  (1) 
8.6544

>  <PUBCHEM_FEATURE_SELFOVERLAP>  (1) 
25.431

>  <PUBCHEM_SHAPE_FINGERPRINT>  (1) 
21040471 1 17689713481962259012
23552333 60 18342175531714891314
23552423 10 18115871793543892702
29004967 10 18260829310479064145
5460574 1 9439410137584603767

>  <PUBCHEM_SHAPE_MULTIPOLES>  (1) 
152.9
3.83
1.35
0.73
1.37
0.34
-0.01
-0.54
-0.71
-0.53
0.03
0.34
-0.01
-0.03

>  <PUBCHEM_SHAPE_SELFOVERLAP>  (1) 
284.741

>  <PUBCHEM_SHAPE_VOLUME>  (1) 
96.1

>  <PUBCHEM_COORDINATE_TYPE>  (1) 
2
5
10

$$$$
