18460
     RDKit          3D

  8  7  0  0  0  0  0  0  0  0999 V2000
    1.5216    0.1609    0.0033 S   0  0  0  0  0  0  0  0  0  0  0  0
    1.6295    0.9036   -1.2408 O   0  0  0  0  0  0  0  0  0  0  0  0
    1.6310    0.8356    1.2853 O   0  0  0  0  0  0  0  0  0  0  0  0
    2.6281   -1.1358   -0.0323 N   0  0  0  0  0  0  0  0  0  0  0  0
   -1.1950    0.1997    0.0059 C   0  0  0  0  0  0  0  0  0  0  0  0
    0.0029   -0.7370   -0.0200 C   0  0  0  0  0  0  0  0  0  0  0  0
   -2.5086   -0.5796    0.0059 C   0  0  0  0  0  0  0  0  0  0  0  0
   -3.7096    0.3526   -0.0073 C   0  0  0  0  0  0  0  0  0  0  0  0
  1  2  2  0
  1  3  2  0
  1  4  1  0
  1  6  1  0
  5  6  1  0
  5  7  1  0
  7  8  1  0
M  END
>  <PUBCHEM_COMPOUND_CID>  (1) 
18460

>  <PUBCHEM_CONFORMER_RMSD>  (1) 
0.6

>  <PUBCHEM_CONFORMER_DIVERSEORDER>  (1) 
1
16
17
7
15
10
12
8
4
13
5
11
14
2
3
6
9

>  <PUBCHEM_MMFF94_PARTIAL_CHARGES>  (1) 
7
1 1.33
18 0.42
19 0.42
2 -0.65
3 -0.65
4 -0.98
6 0.11

>  <PUBCHEM_EFFECTIVE_ROTOR_COUNT>  (1) 
3

>  <PUBCHEM_PHARMACOPHORE_FEATURES>  (1) 
4
1 2 acceptor
1 3 acceptor
1 4 donor
1 8 hydrophobe

>  <PUBCHEM_HEAVY_ATOM_COUNT>  (1) 
8

>  <PUBCHEM_ATOM_DEF_STEREO_COUNT>  (1) 
0

>  <PUBCHEM_ATOM_UDEF_STEREO_COUNT>  (1) 
0

>  <PUBCHEM_BOND_DEF_STEREO_COUNT>  (1) 
0

>  <PUBCHEM_BOND_UDEF_STEREO_COUNT>  (1) 
0

>  <PUBCHEM_ISOTOPIC_ATOM_COUNT>  (1) 
0

>  <PUBCHEM_COMPONENT_COUNT>  (1) 
1

>  <PUBCHEM_CACTVS_TAUTO_COUNT>  (1) 
1

>  <PUBCHEM_CONFORMER_ID>  (1) 
0000481C00000001

>  <PUBCHEM_MMFF94_ENERGY>  (1) 
-5.8215

>  <PUBCHEM_FEATURE_SELFOVERLAP>  (1) 
20.314

>  <PUBCHEM_SHAPE_FINGERPRINT>  (1) 
12932741 1 17632023064741114711
12932764 1 18059861709458205559
14325111 11 18410575110881418511
14390081 3 18130784573263091977
170605 34 17096095829933457140
21040471 1 18339079422676831758
3248919 1 18113893914154830467
5084963 1 18335139765277270147
5460574 1 9223234044309523495

>  <PUBCHEM_SHAPE_MULTIPOLES>  (1) 
151.77
5.07
1.02
0.9
3.84
0.08
0.02
0
-0.01
-0.43
-0.01
-0.5
-0.27
0.01

>  <PUBCHEM_SHAPE_SELFOVERLAP>  (1) 
261.094

>  <PUBCHEM_SHAPE_VOLUME>  (1) 
101.7

>  <PUBCHEM_COORDINATE_TYPE>  (1) 
2
5
10

$$$$
