18466
     RDKit          3D

 17 17  0  0  0  0  0  0  0  0999 V2000
    1.6130   -1.6558   -0.3092 S   0  0  0  0  0  0  0  0  0  0  0  0
    1.7076   -2.3431    0.9643 O   0  0  0  0  0  0  0  0  0  0  0  0
    2.3505   -2.1372   -1.4611 O   0  0  0  0  0  0  0  0  0  0  0  0
   -0.9488   -1.3027    1.4110 O   0  0  0  0  0  0  0  0  0  0  0  0
   -2.3430   -1.1855   -0.4304 N   0  0  0  0  0  0  0  0  0  0  0  0
   -0.0330   -1.4692   -0.7312 N   0  0  0  0  0  0  0  0  0  0  0  0
   -3.9056    0.4529    0.5375 C   0  0  0  0  0  0  0  0  0  0  0  0
   -3.5763   -1.0150    0.2868 C   0  0  0  0  0  0  0  0  0  0  0  0
   -4.0766    1.2468   -0.7596 C   0  0  0  0  0  0  0  0  0  0  0  0
    2.0920    0.0276   -0.0626 C   0  0  0  0  0  0  0  0  0  0  0  0
   -4.4631    2.6908   -0.4797 C   0  0  0  0  0  0  0  0  0  0  0  0
   -1.1135   -1.3172    0.1949 C   0  0  0  0  0  0  0  0  0  0  0  0
    1.9671    0.5885    1.1968 C   0  0  0  0  0  0  0  0  0  0  0  0
    2.5831    0.7545   -1.1335 C   0  0  0  0  0  0  0  0  0  0  0  0
    2.3446    1.9172    1.3913 C   0  0  0  0  0  0  0  0  0  0  0  0
    2.9606    2.0831   -0.9389 C   0  0  0  0  0  0  0  0  0  0  0  0
    2.8414    2.6644    0.3235 C   0  0  0  0  0  0  0  0  0  0  0  0
  1  2  2  0
  1  3  2  0
  1  6  1  0
  1 10  1  0
  4 12  2  0
  5  8  1  0
  5 12  1  0
  6 12  1  0
  7  8  1  0
  7  9  1  0
  9 11  1  0
 10 13  2  0
 10 14  1  0
 13 15  1  0
 14 16  2  0
 15 17  2  0
 16 17  1  0
M  END
>  <PUBCHEM_COMPOUND_CID>  (1) 
18466

>  <PUBCHEM_CONFORMER_RMSD>  (1) 
0.8

>  <PUBCHEM_CONFORMER_DIVERSEORDER>  (1) 
1
24
48
66
67
26
9
51
31
78
64
5
46
56
21
54
23
76
41
34
27
47
43
10
53
49
13
11
33
16
19
8
63
55
32
71
15
14
57
52
30
58
25
75
17
50
29
70
65
22
61
42
7
35
20
74
37
36
62
40
72
6
2
38
45
77
12
28
69
39
18
3
44
68
4
59
73
60

>  <PUBCHEM_MMFF94_PARTIAL_CHARGES>  (1) 
21
1 1.45
10 -0.01
12 0.87
13 -0.15
14 -0.15
15 -0.15
16 -0.15
17 -0.15
2 -0.65
24 0.37
28 0.42
29 0.15
3 -0.65
30 0.15
31 0.15
32 0.15
33 0.15
4 -0.57
5 -0.73
6 -0.79
8 0.3

>  <PUBCHEM_EFFECTIVE_ROTOR_COUNT>  (1) 
7

>  <PUBCHEM_PHARMACOPHORE_FEATURES>  (1) 
7
1 11 hydrophobe
1 2 acceptor
1 3 acceptor
1 4 acceptor
1 5 donor
1 6 donor
6 10 13 14 15 16 17 rings

>  <PUBCHEM_HEAVY_ATOM_COUNT>  (1) 
17

>  <PUBCHEM_ATOM_DEF_STEREO_COUNT>  (1) 
0

>  <PUBCHEM_ATOM_UDEF_STEREO_COUNT>  (1) 
0

>  <PUBCHEM_BOND_DEF_STEREO_COUNT>  (1) 
0

>  <PUBCHEM_BOND_UDEF_STEREO_COUNT>  (1) 
0

>  <PUBCHEM_ISOTOPIC_ATOM_COUNT>  (1) 
0

>  <PUBCHEM_COMPONENT_COUNT>  (1) 
1

>  <PUBCHEM_CACTVS_TAUTO_COUNT>  (1) 
3

>  <PUBCHEM_CONFORMER_ID>  (1) 
0000482200000001

>  <PUBCHEM_MMFF94_ENERGY>  (1) 
6.2798

>  <PUBCHEM_FEATURE_SELFOVERLAP>  (1) 
35.582

>  <PUBCHEM_SHAPE_FINGERPRINT>  (1) 
10498660 4 18340768260085048313
10764073 3 17622968376322951370
11221954 11 18335422387226747521
11615756 256 18410015412350433901
11715629 250 18270960266773785287
13134695 92 17986665974693254214
13464514 151 18408330981831779702
14251732 17 18340474660652830520
14251764 38 18336818702944430533
14508225 48 17697056742668414934
14848178 96 18335415713175052749
15806764 133 18124900996385661023
15848702 68 18191293893146880565
17041 50 18198633133157206247
17868525 174 17827348883096040987
18186145 218 17917999394837528291
20621476 13 18337660928587796685
21524375 3 18125438863524468642
22749437 52 18410567371440515609
23503958 25 18264499536475620265
23557571 272 17824840068282189027
25 1 18128552637483292098
5281201 14 18271814480087554343
54672768 99 18337389314650184773
7808743 9 17904768026417580812

>  <PUBCHEM_SHAPE_MULTIPOLES>  (1) 
326.13
7.98
3.24
1.3
9.86
0.79
-0.1
5.61
0.96
-0.77
0.2
-0.77
0.02
0.98

>  <PUBCHEM_SHAPE_SELFOVERLAP>  (1) 
642.239

>  <PUBCHEM_SHAPE_VOLUME>  (1) 
194.1

>  <PUBCHEM_COORDINATE_TYPE>  (1) 
2
5
10

$$$$
