18463
     RDKit          3D

  8 10  0  0  1  0  0  0  0  0999 V2000
   -1.9965    0.0002    0.0515 O   0  0  0  0  0  0  0  0  0  0  0  0
   -0.9347   -0.7467   -0.5494 C   0  0  0  0  0  0  0  0  0  0  0  0
   -0.9344    0.7466   -0.5496 C   0  0  0  0  0  0  0  0  0  0  0  0
    0.2572   -1.1178    0.3196 C   0  0  0  0  0  0  0  0  0  0  0  0
    0.2572    1.1178    0.3196 C   0  0  0  0  0  0  0  0  0  0  0  0
    0.2880   -0.0001    1.3782 C   0  0  0  0  0  0  0  0  0  0  0  0
    1.5315   -0.7751   -0.4852 C   0  0  0  0  0  0  0  0  0  0  0  0
    1.5317    0.7752   -0.4848 C   0  0  0  0  0  0  0  0  0  0  0  0
  1  2  1  0
  1  3  1  0
  2  3  1  0
  2  4  1  0
  3  5  1  0
  4  6  1  0
  4  7  1  0
  5  6  1  0
  5  8  1  0
  7  8  1  0
M  END
>  <PUBCHEM_COMPOUND_CID>  (1) 
18463

>  <PUBCHEM_CONFORMER_RMSD>  (1) 
0.4

>  <PUBCHEM_CONFORMER_DIVERSEORDER>  (1) 
1
2

>  <PUBCHEM_MMFF94_PARTIAL_CHARGES>  (1) 
7
1 -0.3
10 0.1
2 -0.05
3 -0.05
4 0.09
5 0.09
9 0.1

>  <PUBCHEM_EFFECTIVE_ROTOR_COUNT>  (1) 
0.8

>  <PUBCHEM_PHARMACOPHORE_FEATURES>  (1) 
2
1 1 acceptor
8 1 2 3 4 5 6 7 8 rings

>  <PUBCHEM_HEAVY_ATOM_COUNT>  (1) 
8

>  <PUBCHEM_ATOM_DEF_STEREO_COUNT>  (1) 
0

>  <PUBCHEM_ATOM_UDEF_STEREO_COUNT>  (1) 
4

>  <PUBCHEM_BOND_DEF_STEREO_COUNT>  (1) 
0

>  <PUBCHEM_BOND_UDEF_STEREO_COUNT>  (1) 
0

>  <PUBCHEM_ISOTOPIC_ATOM_COUNT>  (1) 
0

>  <PUBCHEM_COMPONENT_COUNT>  (1) 
1

>  <PUBCHEM_CACTVS_TAUTO_COUNT>  (1) 
1

>  <PUBCHEM_CONFORMER_ID>  (1) 
0000481F00000001

>  <PUBCHEM_MMFF94_ENERGY>  (1) 
34.7662

>  <PUBCHEM_FEATURE_SELFOVERLAP>  (1) 
10.148

>  <PUBCHEM_SHAPE_FINGERPRINT>  (1) 
12423570 1 10719654203850763170
13024252 1 17169575079831966660
137420 1 14105073075831482458
16945 1 18410862057229577094
21040471 1 18337665429322353021
29004967 10 18341902891301272418
369184 2 18409730668903117264
5084963 1 16153429437006708326
5943 1 10140381515025977552

>  <PUBCHEM_SHAPE_MULTIPOLES>  (1) 
158.77
1.83
1.23
1.02
0.22
0
0.27
0
-0.38
-0.16
-0.05
-0.1
0
0

>  <PUBCHEM_SHAPE_SELFOVERLAP>  (1) 
349.67

>  <PUBCHEM_SHAPE_VOLUME>  (1) 
91.1

>  <PUBCHEM_COORDINATE_TYPE>  (1) 
2
5
10

$$$$
