18478
     RDKit          3D

 24 27  0  0  0  0  0  0  0  0999 V2000
   -1.1318   -1.0614   -1.2408 O   0  0  0  0  0  0  0  0  0  0  0  0
    1.1330   -1.0616   -1.2509 O   0  0  0  0  0  0  0  0  0  0  0  0
    0.0090   -0.9302    0.7899 O   0  0  0  0  0  0  0  0  0  0  0  0
   -2.9368    0.2048   -0.2543 C   0  0  0  0  0  0  0  0  0  0  0  0
    2.9333    0.2058   -0.2574 C   0  0  0  0  0  0  0  0  0  0  0  0
   -4.1546    0.2001    0.4668 C   0  0  0  0  0  0  0  0  0  0  0  0
    4.1483    0.2019    0.4684 C   0  0  0  0  0  0  0  0  0  0  0  0
   -2.3082   -1.0162   -0.5482 C   0  0  0  0  0  0  0  0  0  0  0  0
    2.3328   -1.0146   -0.5367 C   0  0  0  0  0  0  0  0  0  0  0  0
   -2.3838    1.4303   -0.6601 C   0  0  0  0  0  0  0  0  0  0  0  0
    2.3816    1.4308   -0.6663 C   0  0  0  0  0  0  0  0  0  0  0  0
   -4.7079   -1.0254    0.8725 C   0  0  0  0  0  0  0  0  0  0  0  0
    4.7000   -1.0231    0.8777 C   0  0  0  0  0  0  0  0  0  0  0  0
   -4.7834    1.4209    0.7608 C   0  0  0  0  0  0  0  0  0  0  0  0
    4.7758    1.4230    0.7639 C   0  0  0  0  0  0  0  0  0  0  0  0
   -2.8719   -2.2244   -0.1370 C   0  0  0  0  0  0  0  0  0  0  0  0
    2.8684   -2.2234   -0.1385 C   0  0  0  0  0  0  0  0  0  0  0  0
   -4.0697   -2.2291    0.5718 C   0  0  0  0  0  0  0  0  0  0  0  0
    4.0631   -2.2272    0.5755 C   0  0  0  0  0  0  0  0  0  0  0  0
   -3.0220    2.6337   -0.3591 C   0  0  0  0  0  0  0  0  0  0  0  0
    3.0188    2.6347   -0.3642 C   0  0  0  0  0  0  0  0  0  0  0  0
   -4.2196    2.6291    0.3500 C   0  0  0  0  0  0  0  0  0  0  0  0
    4.2136    2.6308    0.3494 C   0  0  0  0  0  0  0  0  0  0  0  0
    0.0120   -1.0093   -0.4329 C   0  0  0  0  0  0  0  0  0  0  0  0
  1  8  1  0
  1 24  1  0
  2  9  1  0
  2 24  1  0
  3 24  2  0
  4  6  1  0
  4  8  1  0
  4 10  2  0
  5  7  1  0
  5  9  1  0
  5 11  2  0
  6 12  1  0
  6 14  2  0
  7 13  1  0
  7 15  2  0
  8 16  2  0
  9 17  2  0
 10 20  1  0
 11 21  1  0
 12 18  2  0
 13 19  2  0
 14 22  1  0
 15 23  1  0
 16 18  1  0
 17 19  1  0
 20 22  2  0
 21 23  2  0
M  END
>  <PUBCHEM_COMPOUND_CID>  (1) 
18478

>  <PUBCHEM_CONFORMER_RMSD>  (1) 
0.8

>  <PUBCHEM_CONFORMER_DIVERSEORDER>  (1) 
1
59
66
55
71
35
63
70
62
2
40
5
75
32
64
53
20
68
4
37
33
13
58
3
45
50
56
52
31
44
18
46
15
8
48
41
43
28
34
36
74
6
76
38
14
17
16
26
7
47
9
23
25
69
54
29
65
27
60
11
24
72
77
12
49
21
61
42
30
10
19
39
51
22
73
57
67

>  <PUBCHEM_MMFF94_PARTIAL_CHARGES>  (1) 
34
1 -0.23
10 -0.15
11 -0.15
12 -0.15
13 -0.15
14 -0.15
15 -0.15
16 -0.15
17 -0.15
18 -0.15
19 -0.15
2 -0.23
20 -0.15
21 -0.15
22 -0.15
23 -0.15
24 0.87
25 0.15
26 0.15
27 0.15
28 0.15
29 0.15
3 -0.57
30 0.15
31 0.15
32 0.15
33 0.15
34 0.15
35 0.15
36 0.15
37 0.15
38 0.15
8 0.08
9 0.08

>  <PUBCHEM_EFFECTIVE_ROTOR_COUNT>  (1) 
4

>  <PUBCHEM_PHARMACOPHORE_FEATURES>  (1) 
4
6 4 6 10 14 20 22 rings
6 4 6 8 12 16 18 rings
6 5 7 11 15 21 23 rings
6 5 7 9 13 17 19 rings

>  <PUBCHEM_HEAVY_ATOM_COUNT>  (1) 
24

>  <PUBCHEM_ATOM_DEF_STEREO_COUNT>  (1) 
0

>  <PUBCHEM_ATOM_UDEF_STEREO_COUNT>  (1) 
0

>  <PUBCHEM_BOND_DEF_STEREO_COUNT>  (1) 
0

>  <PUBCHEM_BOND_UDEF_STEREO_COUNT>  (1) 
0

>  <PUBCHEM_ISOTOPIC_ATOM_COUNT>  (1) 
0

>  <PUBCHEM_COMPONENT_COUNT>  (1) 
1

>  <PUBCHEM_CACTVS_TAUTO_COUNT>  (1) 
1

>  <PUBCHEM_CONFORMER_ID>  (1) 
0000482E00000001

>  <PUBCHEM_MMFF94_ENERGY>  (1) 
87.1762

>  <PUBCHEM_FEATURE_SELFOVERLAP>  (1) 
20.352

>  <PUBCHEM_SHAPE_FINGERPRINT>  (1) 
10319926 262 18410288073938267426
10670039 82 18264502843796053068
11370993 144 18335981956872004567
11405975 8 18409166571671604490
11595378 159 17821997714343182449
12107183 9 18120931707384440426
12363563 72 14707200054369099070
12403259 118 18343292661056012978
12403814 3 18271806873816569575
12596602 18 17313657282332590904
12633257 1 18336263440290963244
12670546 56 18335697239290242603
12892183 10 18335982064256723494
12925494 130 18340767019103705561
13140716 1 18409729517271737372
13224815 77 18411418435867224157
13583140 156 18042672932116700479
14251764 38 18408888446737840144
14341114 176 18335706026566067682
14420673 8 18046630001667445458
14790565 3 18119531188145138188
14849402 71 18189335827054391108
14950920 106 18113609118862796242
15196674 1 18411138034622138773
15927050 60 15889697662033794367
1601671 61 18340767053731507670
17492 89 18409729564722846410
17844677 252 18411706473628199562
17868525 174 18193831553520846578
1813 80 16732986422638531558
20715895 44 18055072060698682353
20739085 24 18113615725187122764
21033648 144 18335972095637909405
21033648 29 17702362010589069706
21065198 48 18408884061639280934
21065198 57 18410856520985610134
21065199 12 18409168813612819279
21315764 268 18335980874804119893
21792934 111 18260838081994558793
21859007 373 17533206467630416949
21864079 5 18272931630718617404
23227448 37 18412262826917854277
235170 7 12391222752151201233
23559900 14 18128543665080891854
245318 6 16956202882657761748
3117164 225 18264485092220931626
38570 142 17461460293323806636
392239 28 17970640794882582363
4144715 1 18337682914240236554
4214541 1 18409730625579040915
5081480 168 17129055739775780708
5104073 3 18408604751257353931
6004065 56 17470454396923244011
6823239 73 18129117662079867916
7097593 13 18043807585235717139
7808743 9 17983294026308579240
960060 61 10880002380120834506

>  <PUBCHEM_SHAPE_MULTIPOLES>  (1) 
476.3
12.23
3.34
0.98
0.08
1.15
0.03
2.33
-3.77
0
-0.11
0
-0.1
0

>  <PUBCHEM_SHAPE_SELFOVERLAP>  (1) 
1074.094

>  <PUBCHEM_SHAPE_VOLUME>  (1) 
246.7

>  <PUBCHEM_COORDINATE_TYPE>  (1) 
2
5
10

$$$$
