18479
     RDKit          3D

 13 13  0  0  0  0  0  0  0  0999 V2000
   -2.5168    1.5153    0.4987 O   0  0  0  0  0  0  0  0  0  0  0  0
   -3.3979   -0.5655   -0.3623 C   0  0  0  0  0  0  0  0  0  0  0  0
   -2.2851    0.3960    0.0470 C   0  0  0  0  0  0  0  0  0  0  0  0
   -3.8005   -1.4254    0.8312 C   0  0  0  0  0  0  0  0  0  0  0  0
   -4.6015    0.1966   -0.9123 C   0  0  0  0  0  0  0  0  0  0  0  0
   -0.8879   -0.1095   -0.1122 C   0  0  0  0  0  0  0  0  0  0  0  0
    1.5677    0.2640    0.0850 C   0  0  0  0  0  0  0  0  0  0  0  0
    0.1558    0.6665    0.2118 C   0  0  0  0  0  0  0  0  0  0  0  0
    1.8853   -1.0823    0.0109 C   0  0  0  0  0  0  0  0  0  0  0  0
    2.5500    1.2402    0.0424 C   0  0  0  0  0  0  0  0  0  0  0  0
    3.2219   -1.4631   -0.1090 C   0  0  0  0  0  0  0  0  0  0  0  0
    3.8865    0.8594   -0.0777 C   0  0  0  0  0  0  0  0  0  0  0  0
    4.2225   -0.4922   -0.1536 C   0  0  0  0  0  0  0  0  0  0  0  0
  1  3  2  0
  2  3  1  0
  2  4  1  0
  2  5  1  0
  3  6  1  0
  6  8  2  0
  7  8  1  0
  7  9  2  0
  7 10  1  0
  9 11  1  0
 10 12  2  0
 11 13  2  0
 12 13  1  0
M  END
>  <PUBCHEM_COMPOUND_CID>  (1) 
18479

>  <PUBCHEM_CONFORMER_RMSD>  (1) 
0.6

>  <PUBCHEM_CONFORMER_DIVERSEORDER>  (1) 
1
9
8
5
4
6
10
2
3
7

>  <PUBCHEM_MMFF94_PARTIAL_CHARGES>  (1) 
18
1 -0.57
10 -0.15
11 -0.15
12 -0.15
13 -0.15
2 0.06
21 0.15
22 0.15
23 0.15
24 0.15
25 0.15
26 0.15
27 0.15
3 0.49
6 -0.14
7 0.03
8 -0.18
9 -0.15

>  <PUBCHEM_EFFECTIVE_ROTOR_COUNT>  (1) 
3

>  <PUBCHEM_PHARMACOPHORE_FEATURES>  (1) 
3
1 1 acceptor
3 2 4 5 hydrophobe
6 7 9 10 11 12 13 rings

>  <PUBCHEM_HEAVY_ATOM_COUNT>  (1) 
13

>  <PUBCHEM_ATOM_DEF_STEREO_COUNT>  (1) 
0

>  <PUBCHEM_ATOM_UDEF_STEREO_COUNT>  (1) 
0

>  <PUBCHEM_BOND_DEF_STEREO_COUNT>  (1) 
0

>  <PUBCHEM_BOND_UDEF_STEREO_COUNT>  (1) 
1

>  <PUBCHEM_ISOTOPIC_ATOM_COUNT>  (1) 
0

>  <PUBCHEM_COMPONENT_COUNT>  (1) 
1

>  <PUBCHEM_CACTVS_TAUTO_COUNT>  (1) 
2

>  <PUBCHEM_CONFORMER_ID>  (1) 
0000482F00000001

>  <PUBCHEM_MMFF94_ENERGY>  (1) 
30.7743

>  <PUBCHEM_FEATURE_SELFOVERLAP>  (1) 
15.223

>  <PUBCHEM_SHAPE_FINGERPRINT>  (1) 
11471102 20 18410571790977096420
11543360 7 17095814307548400342
11615757 297 17489592280896657657
11987891 38 18411984650085669086
12032990 46 18410862061656471570
12932764 1 17275095141597720225
13296908 3 18410012126130292027
14144814 61 18342177747796612024
14251717 144 18411134723587313126
14252887 29 17561089081724783158
14325111 11 18412265021313722512
15242439 84 18260263040769137199
15477762 27 18411702067561102214
17834074 16 18409731772135147666
18186145 218 18040435464566235370
190213 19 18408322193938302004
19422 9 18343025454145048584
200 152 18131063840552681453
20279233 1 17313105245690179642
20645477 56 17603579704454122181
20645477 70 18341326708601507447
21501925 9 18341323423283341450
221490 88 18263933292176716474
22485316 2 18113614582013392139
22646028 1 17917708006828352631
23402539 116 16805316708698334774
23402655 69 18410854356443029164
23557571 272 18187926131907147973
23559900 14 18408037429354324328
26918003 58 18408599266668525387
2871803 45 18334853896412060567
3268164 11 16081356471703120439
4214541 1 18410573946882133701
4921388 177 16732990859862273443
5104073 3 18341895156376344568
581208 293 18408601474714160584
77779 3 18411140225134327649
9709674 26 18413113844190600183

>  <PUBCHEM_SHAPE_MULTIPOLES>  (1) 
261.66
9.54
1.44
0.76
3.16
0.14
-0.01
1.24
-1
-0.27
0.17
0.53
0.04
0.35

>  <PUBCHEM_SHAPE_SELFOVERLAP>  (1) 
532.766

>  <PUBCHEM_SHAPE_VOLUME>  (1) 
152.8

>  <PUBCHEM_COORDINATE_TYPE>  (1) 
2
5
10

$$$$
