18489
     RDKit          3D

 17 17  0  0  0  0  0  0  0  0999 V2000
    5.7941    1.1353   -0.0597 Br  0  0  0  0  0  0  0  0  0  0  0  0
   -3.7717    0.6428   -1.1084 O   0  0  0  0  0  0  0  0  0  0  0  0
   -1.6307   -0.8311   -1.6056 O   0  0  0  0  0  0  0  0  0  0  0  0
   -0.8018   -0.6732    0.5495 N   0  0  0  0  0  0  0  0  0  0  0  0
    0.2841   -1.4411    0.2448 N   0  0  0  0  0  0  0  0  0  0  0  0
   -2.9038    0.4542    0.0071 C   0  0  0  0  0  0  0  0  0  0  0  0
   -2.4425    1.8355    0.5238 C   0  0  0  0  0  0  0  0  0  0  0  0
   -3.7201   -0.2598    1.1079 C   0  0  0  0  0  0  0  0  0  0  0  0
   -1.7204   -0.4154   -0.4500 C   0  0  0  0  0  0  0  0  0  0  0  0
   -1.6908    2.6795   -0.5014 C   0  0  0  0  0  0  0  0  0  0  0  0
   -4.3205   -1.5930    0.6692 C   0  0  0  0  0  0  0  0  0  0  0  0
    1.5506   -0.8495    0.1747 C   0  0  0  0  0  0  0  0  0  0  0  0
    2.6350   -1.5582   -0.3567 C   0  0  0  0  0  0  0  0  0  0  0  0
    1.7476    0.4586    0.6346 C   0  0  0  0  0  0  0  0  0  0  0  0
    3.8970   -0.9681   -0.4271 C   0  0  0  0  0  0  0  0  0  0  0  0
    3.0096    1.0484    0.5640 C   0  0  0  0  0  0  0  0  0  0  0  0
    4.0843    0.3352    0.0333 C   0  0  0  0  0  0  0  0  0  0  0  0
  1 17  1  0
  2  6  1  0
  3  9  2  0
  4  5  1  0
  4  9  1  0
  5 12  1  0
  6  7  1  0
  6  8  1  0
  6  9  1  0
  7 10  1  0
  8 11  1  0
 12 13  2  0
 12 14  1  0
 13 15  1  0
 14 16  2  0
 15 17  2  0
 16 17  1  0
M  END
>  <PUBCHEM_COMPOUND_CID>  (1) 
18489

>  <PUBCHEM_CONFORMER_RMSD>  (1) 
0.8

>  <PUBCHEM_CONFORMER_DIVERSEORDER>  (1) 
1
34
16
42
31
18
21
46
25
22
38
8
44
10
37
14
40
26
43
30
6
35
17
33
2
5
4
32
29
13
15
36
28
23
20
9
12
39
11
45
24
27
7
41
19
3

>  <PUBCHEM_MMFF94_PARTIAL_CHARGES>  (1) 
20
1 -0.11
12 0.1
13 -0.15
14 -0.15
15 -0.15
16 -0.15
17 0.11
2 -0.68
28 0.4
29 0.37
3 -0.57
30 0.4
31 0.15
32 0.15
33 0.15
34 0.15
4 -0.41
5 -0.52
6 0.34
9 0.57

>  <PUBCHEM_EFFECTIVE_ROTOR_COUNT>  (1) 
6

>  <PUBCHEM_PHARMACOPHORE_FEATURES>  (1) 
9
1 1 hydrophobe
1 10 hydrophobe
1 11 hydrophobe
1 2 acceptor
1 2 donor
1 3 acceptor
1 4 donor
1 5 donor
6 12 13 14 15 16 17 rings

>  <PUBCHEM_HEAVY_ATOM_COUNT>  (1) 
17

>  <PUBCHEM_ATOM_DEF_STEREO_COUNT>  (1) 
0

>  <PUBCHEM_ATOM_UDEF_STEREO_COUNT>  (1) 
0

>  <PUBCHEM_BOND_DEF_STEREO_COUNT>  (1) 
0

>  <PUBCHEM_BOND_UDEF_STEREO_COUNT>  (1) 
0

>  <PUBCHEM_ISOTOPIC_ATOM_COUNT>  (1) 
0

>  <PUBCHEM_COMPONENT_COUNT>  (1) 
1

>  <PUBCHEM_CACTVS_TAUTO_COUNT>  (1) 
2

>  <PUBCHEM_CONFORMER_ID>  (1) 
0000483900000001

>  <PUBCHEM_MMFF94_ENERGY>  (1) 
40.8926

>  <PUBCHEM_FEATURE_SELFOVERLAP>  (1) 
47.256

>  <PUBCHEM_SHAPE_FINGERPRINT>  (1) 
10498660 4 18187922833309064660
10608611 8 18339359669487964248
10670039 82 18188506713624648076
10803635 8 11599733852483334112
10922523 26 18200876162858162798
11315181 36 12251900404465230078
11715629 250 18271798013035066272
12403814 3 18202844353418215991
12507557 5 17676487267544641476
12596602 18 17240756316201308816
12916748 109 18408891745863021336
13214271 11 18407757045452138207
14787075 74 18042974366106797499
15196674 1 18411702041517225704
17802600 8 18341886360067258048
18186145 218 16917342654260072770
20279233 1 8790888488286768938
20325693 3 15626508302400872093
20645477 56 18130783490778313522
20645477 70 17846511296774285246
21652331 79 18411982455299378064
22182937 141 18126010356120713689
23402539 116 18261105309536178014
23402655 69 18131069312267260872
23557571 272 18334017228245612667
4028521 119 18336254648640822389
5104073 3 18340206285125581704
5281201 14 18272378525336536606

>  <PUBCHEM_SHAPE_MULTIPOLES>  (1) 
334.09
10.54
2.04
1
7.07
0.88
-0.15
1.16
0.51
-0.82
-0.14
-0.69
-0.03
0.66

>  <PUBCHEM_SHAPE_SELFOVERLAP>  (1) 
662.246

>  <PUBCHEM_SHAPE_VOLUME>  (1) 
203.6

>  <PUBCHEM_COORDINATE_TYPE>  (1) 
2
5
10

$$$$
