18484
     RDKit          3D

 21 23  0  0  1  0  0  0  0  0999 V2000
    4.8104   -3.0765    0.3117 F   0  0  0  0  0  0  0  0  0  0  0  0
    2.2471    2.4533   -1.1733 O   0  0  0  0  0  0  0  0  0  0  0  0
   -3.8648   -0.4982    0.5259 N   0  0  0  0  0  0  0  0  0  0  0  0
   -1.5898    1.0893   -0.1560 N   0  0  0  0  0  0  0  0  0  0  0  0
   -2.9671   -0.8818   -0.5644 C   0  0  0  0  0  0  0  0  0  0  0  0
   -3.9132   -1.6758   -1.4475 C   0  0  0  0  0  0  0  0  0  0  0  0
   -2.3501    0.3639   -1.1898 C   0  0  0  0  0  0  0  0  0  0  0  0
   -4.5521   -1.7236    0.9074 C   0  0  0  0  0  0  0  0  0  0  0  0
   -4.8222   -2.3924   -0.4429 C   0  0  0  0  0  0  0  0  0  0  0  0
   -3.1314    0.1733    1.5884 C   0  0  0  0  0  0  0  0  0  0  0  0
   -2.4392    1.4180    1.0040 C   0  0  0  0  0  0  0  0  0  0  0  0
   -0.9813    2.2961   -0.7118 C   0  0  0  0  0  0  0  0  0  0  0  0
   -0.1291    2.9957    0.3489 C   0  0  0  0  0  0  0  0  0  0  0  0
    1.0034    2.1037    0.8651 C   0  0  0  0  0  0  0  0  0  0  0  0
    2.0145    1.7283   -0.2090 C   0  0  0  0  0  0  0  0  0  0  0  0
    2.7610    0.4453   -0.0699 C   0  0  0  0  0  0  0  0  0  0  0  0
    3.0199   -0.0350    1.1942 C   0  0  0  0  0  0  0  0  0  0  0  0
    3.1639   -0.2118   -1.2110 C   0  0  0  0  0  0  0  0  0  0  0  0
    3.7183   -1.2354    1.3243 C   0  0  0  0  0  0  0  0  0  0  0  0
    3.8623   -1.4123   -1.0810 C   0  0  0  0  0  0  0  0  0  0  0  0
    4.1395   -1.9242    0.1867 C   0  0  0  0  0  0  0  0  0  0  0  0
  1 21  1  0
  2 15  2  0
  3  5  1  0
  3  8  1  0
  3 10  1  0
  4  7  1  0
  4 11  1  0
  4 12  1  0
  5  6  1  0
  5  7  1  0
  6  9  1  0
  8  9  1  0
 10 11  1  0
 12 13  1  0
 13 14  1  0
 14 15  1  0
 15 16  1  0
 16 17  2  0
 16 18  1  0
 17 19  1  0
 18 20  2  0
 19 21  2  0
 20 21  1  0
M  END
>  <PUBCHEM_COMPOUND_CID>  (1) 
18484

>  <PUBCHEM_CONFORMER_RMSD>  (1) 
0.8

>  <PUBCHEM_CONFORMER_DIVERSEORDER>  (1) 
2
92
238
112
66
197
176
145
246
190
113
233
90
3
227
248
43
101
91
182
70
226
221
156
23
173
142
12
74
216
138
165
251
149
192
1
153
17
109
78
58
45
72
85
169
253
133
204
123
206
124
26
116
196
164
130
100
9
155
139
119
172
171
22
247
93
199
73
250
71
96
15
167
191
64
118
203
34
236
110
232
179
103
184
11
222
115
82
47
48
127
168
157
243
161
24
201
217
132
224
141
53
245
213
239
131
61
170
30
252
46
42
212
241
31
35
29
148
55
210
136
33
186
209
76
207
225
59
134
117
188
37
40
240
223
68
125
67
79
195
104
181
211
129
231
39
6
84
230
229
228
218
242
163
10
28
69
75
158
13
137
38
219
14
19
95
44
220
194
215
87
234
121
187
18
200
105
16
88
36
249
147
107
178
177
111
205
120
57
140
106
174
65
237
193
151
54
20
80
126
244
63
160
143
166
7
27
183
25
60
122
208
135
32
185
4
175
150
146
235
98
5
180
83
162
8
198
99
114
49
159
86
89
77
152
154
108
41
21
97
81
214
202
94
52
56
62
128
50
189
144
102
51

>  <PUBCHEM_MMFF94_PARTIAL_CHARGES>  (1) 
22
1 -0.19
10 0.27
11 0.27
12 0.27
14 0.06
15 0.42
16 0.09
17 -0.15
18 -0.15
19 -0.15
2 -0.57
20 -0.15
21 0.19
3 -0.81
4 -0.81
41 0.15
42 0.15
43 0.15
44 0.15
5 0.27
7 0.27
8 0.27

>  <PUBCHEM_EFFECTIVE_ROTOR_COUNT>  (1) 
6.4

>  <PUBCHEM_PHARMACOPHORE_FEATURES>  (1) 
6
1 2 acceptor
1 3 cation
1 4 cation
5 3 5 6 8 9 rings
6 16 17 18 19 20 21 rings
6 3 4 5 7 10 11 rings

>  <PUBCHEM_HEAVY_ATOM_COUNT>  (1) 
21

>  <PUBCHEM_ATOM_DEF_STEREO_COUNT>  (1) 
0

>  <PUBCHEM_ATOM_UDEF_STEREO_COUNT>  (1) 
1

>  <PUBCHEM_BOND_DEF_STEREO_COUNT>  (1) 
0

>  <PUBCHEM_BOND_UDEF_STEREO_COUNT>  (1) 
0

>  <PUBCHEM_ISOTOPIC_ATOM_COUNT>  (1) 
0

>  <PUBCHEM_COMPONENT_COUNT>  (1) 
1

>  <PUBCHEM_CACTVS_TAUTO_COUNT>  (1) 
2

>  <PUBCHEM_CONFORMER_ID>  (1) 
0000483400000002

>  <PUBCHEM_MMFF94_ENERGY>  (1) 
43.421

>  <PUBCHEM_FEATURE_SELFOVERLAP>  (1) 
30.534

>  <PUBCHEM_SHAPE_FINGERPRINT>  (1) 
10042902 136 18272941513823532814
10928967 22 18411427197648877342
10968037 57 18341333305860859531
11640471 11 8574433097267373089
11720765 8 12469453009511127560
12107183 9 18270978851598812537
12174731 88 16961812122915843354
12363563 72 18409165510814376816
12553582 1 18410860957712680966
12596599 1 18130801022534233059
12623949 98 16450411063218862995
12633257 1 17988095412865706041
12824470 246 18343304777285576601
13103583 49 17845666853898834458
13533116 47 18196937888892244819
13828863 39 15049736487122834810
13965767 371 12031786933922701266
1420 369 18341893017287743699
14251731 5 18410292505879779690
14429115 67 18271239529963709823
14468879 13 10375871904896715055
14767858 380 18116736147971676436
14848160 33 18335413625255924623
14848178 5 18340757217592053627
14848178 96 8718836383175171755
14863182 85 18193271030303711596
14866123 147 18195809575161008417
15342168 16 9727643812619300187
15352361 1 18410852157388261298
15475509 35 17408526595248700331
15475509 8 17240469322576283711
15537594 2 18337692865499586881
17780758 139 17774155683023058298
17810953 82 9582978859791968523
1798214 55 9583517637632122018
1813 80 18336269041408508093
20291156 8 18410858741683902336
20645477 70 18115583893296133197
20775530 9 18413106169104868390
21033648 29 14333145039285432121
21095088 737 8285612283529301049
21388113 180 10735616656266374203
21452121 199 18408595972819597104
21475661 188 11742471357016812171
2255824 54 17836931466071910629
235170 7 15502668108319505066
238 59 15213303006503928392
2838139 119 11170499945313203638
312425 83 13262676998161671570
345986 75 17845664767088093161
3472631 163 10881670313580317155
44062 13 18261668165253409805
56633871 153 18198913509028438331
6034566 193 10015285984136220115
6328613 192 9943510918280688118
7064713 232 17203623574968769327
7970288 3 18410012100577740562
88748 71 18408325488458033259
960060 61 17968096477462021781

>  <PUBCHEM_SHAPE_MULTIPOLES>  (1) 
409.07
10.66
3.37
1.45
1.76
0.48
-0.06
-10.69
-0.52
-1.16
0.13
0.19
-0.1
-0.89

>  <PUBCHEM_SHAPE_SELFOVERLAP>  (1) 
859.84

>  <PUBCHEM_SHAPE_VOLUME>  (1) 
232.7

>  <PUBCHEM_COORDINATE_TYPE>  (1) 
2
5
10

$$$$
