18485
     RDKit          3D

 17 19  0  0  0  0  0  0  0  0999 V2000
   -4.2646   -2.2117    0.0008 Cl  0  0  0  0  0  0  0  0  0  0  0  0
   -5.4983    0.7789    0.0012 Cl  0  0  0  0  0  0  0  0  0  0  0  0
    1.1346    1.0785   -0.0002 O   0  0  0  0  0  0  0  0  0  0  0  0
    1.0929   -1.1875   -0.0005 N   0  0  0  0  0  0  0  0  0  0  0  0
    0.4009   -0.0695   -0.0007 C   0  0  0  0  0  0  0  0  0  0  0  0
   -1.0237    0.1187   -0.0010 C   0  0  0  0  0  0  0  0  0  0  0  0
    2.4257    0.6340    0.0001 C   0  0  0  0  0  0  0  0  0  0  0  0
    2.3962   -0.7528   -0.0001 C   0  0  0  0  0  0  0  0  0  0  0  0
   -1.8796   -0.9863   -0.0007 C   0  0  0  0  0  0  0  0  0  0  0  0
   -1.5618    1.4088   -0.0008 C   0  0  0  0  0  0  0  0  0  0  0  0
    3.5840    1.4013    0.0005 C   0  0  0  0  0  0  0  0  0  0  0  0
    3.6092   -1.4564    0.0000 C   0  0  0  0  0  0  0  0  0  0  0  0
    4.7853    0.6842    0.0007 C   0  0  0  0  0  0  0  0  0  0  0  0
    4.8003   -0.7161    0.0005 C   0  0  0  0  0  0  0  0  0  0  0  0
   -3.2623   -0.8028   -0.0001 C   0  0  0  0  0  0  0  0  0  0  0  0
   -2.9443    1.5923   -0.0001 C   0  0  0  0  0  0  0  0  0  0  0  0
   -3.7947    0.4865    0.0002 C   0  0  0  0  0  0  0  0  0  0  0  0
  1 15  1  0
  2 17  1  0
  3  5  1  0
  3  7  1  0
  4  5  2  0
  4  8  1  0
  5  6  1  0
  6  9  2  0
  6 10  1  0
  7  8  2  0
  7 11  1  0
  8 12  1  0
  9 15  1  0
 10 16  2  0
 11 13  2  0
 12 14  2  0
 13 14  1  0
 15 17  2  0
 16 17  1  0
M  END
>  <PUBCHEM_COMPOUND_CID>  (1) 
18485

>  <PUBCHEM_CONFORMER_RMSD>  (1) 
0.6

>  <PUBCHEM_CONFORMER_DIVERSEORDER>  (1) 
1
2

>  <PUBCHEM_MMFF94_PARTIAL_CHARGES>  (1) 
24
1 -0.18
10 -0.15
11 -0.15
12 -0.15
13 -0.15
14 -0.15
15 0.18
16 -0.15
17 0.18
18 0.15
19 0.15
2 -0.18
20 0.15
21 0.15
22 0.15
23 0.15
24 0.15
3 -0.28
4 -0.57
5 0.43
6 0.05
7 0.14
8 0.23
9 -0.15

>  <PUBCHEM_EFFECTIVE_ROTOR_COUNT>  (1) 
1

>  <PUBCHEM_PHARMACOPHORE_FEATURES>  (1) 
3
5 3 4 5 7 8 rings
6 6 9 10 15 16 17 rings
6 7 8 11 12 13 14 rings

>  <PUBCHEM_HEAVY_ATOM_COUNT>  (1) 
17

>  <PUBCHEM_ATOM_DEF_STEREO_COUNT>  (1) 
0

>  <PUBCHEM_ATOM_UDEF_STEREO_COUNT>  (1) 
0

>  <PUBCHEM_BOND_DEF_STEREO_COUNT>  (1) 
0

>  <PUBCHEM_BOND_UDEF_STEREO_COUNT>  (1) 
0

>  <PUBCHEM_ISOTOPIC_ATOM_COUNT>  (1) 
0

>  <PUBCHEM_COMPONENT_COUNT>  (1) 
1

>  <PUBCHEM_CACTVS_TAUTO_COUNT>  (1) 
1

>  <PUBCHEM_CONFORMER_ID>  (1) 
0000483500000001

>  <PUBCHEM_MMFF94_ENERGY>  (1) 
35.5947

>  <PUBCHEM_FEATURE_SELFOVERLAP>  (1) 
15.341

>  <PUBCHEM_SHAPE_FINGERPRINT>  (1) 
10014705 185 18187079542788102613
10608611 8 18410570665284558908
10616163 171 18412263956183562351
11471102 20 18411417293991505380
11806522 49 18335701688807503686
12107183 9 17689715259841005578
12236239 1 17894631444057956489
13167823 11 18410572890072330474
13214271 11 18342455967720927415
13675066 3 18060413612776801562
14341114 176 18410863143861740065
15196674 1 18410574006647445095
15442244 35 18122626059419362066
15536298 74 18413107256132221900
17492 89 18411138017585343978
17834072 33 18410293635493127934
18186145 218 17894624855356597806
18522853 276 18341894073712522600
19050596 39 18410855460138717834
19141452 34 18410294714215662967
200 152 18060696191570572349
20645477 56 18333731282841053685
20645477 70 18270681965831070014
21065198 57 18411138013141676752
21267235 1 18410864234751791178
221490 88 18337114582570902266
22485316 2 18409448085281687707
23402539 116 18335697265080846719
23402655 69 18412544301556857284
23557571 272 18271815661103223399
23559900 14 18412539925064420896
26918003 58 18342736303929885323
2871803 45 18334006229024485995
300161 21 18409722963236065489
3268164 11 16660635246348501231
335352 9 18410856516742890551
34934 24 18335415743260324859
3545911 37 18410294696339656365
42 15 18408604751515770598
4214541 1 18410856542644705601
474 4 17386856182789282300
4990 188 18202010910830191070
5104073 3 18411699902259321371
542803 24 17167584881854337229
58051976 100 18411419501114306271
633830 44 17022908942880028880
67856867 119 18262518225175898444
69090 78 18412542098396922375
7495541 125 17774998037604639746
77779 3 18411139134143958756
9709674 26 18410018740549401994

>  <PUBCHEM_SHAPE_MULTIPOLES>  (1) 
342.74
11.35
1.83
0.61
0.19
0.37
0
0.41
0
1
0
0.04
0
0

>  <PUBCHEM_SHAPE_SELFOVERLAP>  (1) 
748.068

>  <PUBCHEM_SHAPE_VOLUME>  (1) 
189.3

>  <PUBCHEM_COORDINATE_TYPE>  (1) 
2
5
10

$$$$
