18491
     RDKit          3D

 17 17  0  0  0  0  0  0  0  0999 V2000
   -3.6465   -0.4842    1.1276 O   0  0  0  0  0  0  0  0  0  0  0  0
   -1.5438    1.0783    1.5024 O   0  0  0  0  0  0  0  0  0  0  0  0
   -0.6454    0.6728   -0.5916 N   0  0  0  0  0  0  0  0  0  0  0  0
    0.4192    1.4920   -0.3518 N   0  0  0  0  0  0  0  0  0  0  0  0
   -2.7468   -0.4179    0.0234 C   0  0  0  0  0  0  0  0  0  0  0  0
   -2.2494   -1.8434   -0.3056 C   0  0  0  0  0  0  0  0  0  0  0  0
   -3.5383    0.1408   -1.1805 C   0  0  0  0  0  0  0  0  0  0  0  0
   -1.5910    0.5227    0.4046 C   0  0  0  0  0  0  0  0  0  0  0  0
   -1.5181   -2.5415    0.8372 C   0  0  0  0  0  0  0  0  0  0  0  0
   -4.1716    1.5065   -0.9270 C   0  0  0  0  0  0  0  0  0  0  0  0
    1.6913    0.9366   -0.1723 C   0  0  0  0  0  0  0  0  0  0  0  0
    1.9225   -0.4139   -0.4612 C   0  0  0  0  0  0  0  0  0  0  0  0
    3.1903   -0.9670   -0.2811 C   0  0  0  0  0  0  0  0  0  0  0  0
    2.7476    1.7254    0.2997 C   0  0  0  0  0  0  0  0  0  0  0  0
    4.2368   -0.1738    0.1893 C   0  0  0  0  0  0  0  0  0  0  0  0
    4.0156    1.1724    0.4797 C   0  0  0  0  0  0  0  0  0  0  0  0
    3.4278   -2.4058   -0.5929 C   0  0  0  0  0  0  0  0  0  0  0  0
  1  5  1  0
  2  8  2  0
  3  4  1  0
  3  8  1  0
  4 11  1  0
  5  6  1  0
  5  7  1  0
  5  8  1  0
  6  9  1  0
  7 10  1  0
 11 12  2  0
 11 14  1  0
 12 13  1  0
 13 15  2  0
 13 17  1  0
 14 16  2  0
 15 16  1  0
M  END
>  <PUBCHEM_COMPOUND_CID>  (1) 
18491

>  <PUBCHEM_CONFORMER_RMSD>  (1) 
0.8

>  <PUBCHEM_CONFORMER_DIVERSEORDER>  (1) 
1
94
14
45
5
97
98
50
51
112
54
107
93
71
102
90
52
28
109
2
19
24
104
64
6
57
53
16
27
96
88
79
47
81
82
18
31
65
95
46
25
91
60
92
4
39
34
58
67
66
100
85
69
105
106
61
20
29
111
77
30
74
78
9
103
22
15
38
17
48
80
12
99
49
108
8
62
76
13
37
23
63
72
43
21
3
7
70
75
56
84
40
55
10
68
110
26
86
35
41
89
33
59
101
73
83
36
42
11
32
87
44

>  <PUBCHEM_MMFF94_PARTIAL_CHARGES>  (1) 
20
1 -0.68
11 0.1
12 -0.15
13 -0.14
14 -0.15
15 -0.15
16 -0.15
17 0.14
2 -0.57
28 0.4
29 0.37
3 -0.41
30 0.4
31 0.15
32 0.15
33 0.15
34 0.15
4 -0.52
5 0.34
8 0.57

>  <PUBCHEM_EFFECTIVE_ROTOR_COUNT>  (1) 
6

>  <PUBCHEM_PHARMACOPHORE_FEATURES>  (1) 
8
1 1 acceptor
1 1 donor
1 10 hydrophobe
1 2 acceptor
1 3 donor
1 4 donor
1 9 hydrophobe
6 11 12 13 14 15 16 rings

>  <PUBCHEM_HEAVY_ATOM_COUNT>  (1) 
17

>  <PUBCHEM_ATOM_DEF_STEREO_COUNT>  (1) 
0

>  <PUBCHEM_ATOM_UDEF_STEREO_COUNT>  (1) 
0

>  <PUBCHEM_BOND_DEF_STEREO_COUNT>  (1) 
0

>  <PUBCHEM_BOND_UDEF_STEREO_COUNT>  (1) 
0

>  <PUBCHEM_ISOTOPIC_ATOM_COUNT>  (1) 
0

>  <PUBCHEM_COMPONENT_COUNT>  (1) 
1

>  <PUBCHEM_CACTVS_TAUTO_COUNT>  (1) 
2

>  <PUBCHEM_CONFORMER_ID>  (1) 
0000483B00000001

>  <PUBCHEM_MMFF94_ENERGY>  (1) 
42.4266

>  <PUBCHEM_FEATURE_SELFOVERLAP>  (1) 
42.18

>  <PUBCHEM_SHAPE_FINGERPRINT>  (1) 
10366900 7 17774999128758610488
10616163 171 18267870664880451942
10922523 26 18186801404694863485
11370993 70 18410283722714123758
12500047 106 18336538399870844597
12553582 1 18196386835697559470
12592029 89 18041840598131131195
13296908 3 18113620105293797061
13533116 47 18059855034741456391
13544592 145 18263361404185121998
13675066 3 18260271862637289809
14289901 80 15410905054156491948
15375358 24 18410004455561340046
15420108 30 16043100823861039081
17834072 14 18410287008416683980
17834074 16 18410575080763744102
18186145 218 18114456778050656973
19050596 39 18131354141544851680
19107657 46 18410576227488584518
200 152 17846489335883554213
20279233 1 18408319999378844932
20442098 301 18202283628115689158
20528008 55 18343015605690125820
20645477 56 18260261975855072933
20645477 70 18342731884545870038
21521239 73 18269813377973697815
22169311 21 18410851092252033780
22485316 2 18334852823023592956
23559900 14 18341887498660859480
26918003 58 18341607127168912520
33824 294 18411976971211658046
57005193 9 18341322353631016126
69090 78 18410851088294748119
81228 2 17677332680439071236
8809292 202 18334861653518778994
9709674 26 18411138073366612862

>  <PUBCHEM_SHAPE_MULTIPOLES>  (1) 
328.15
8.69
2.34
1.04
1
1.26
-0.13
-0.4
0.74
0.43
-0.07
-0.77
-0.01
1.08

>  <PUBCHEM_SHAPE_SELFOVERLAP>  (1) 
662.725

>  <PUBCHEM_SHAPE_VOLUME>  (1) 
192.4

>  <PUBCHEM_COORDINATE_TYPE>  (1) 
2
5
10

$$$$
