18497
     RDKit          3D

 22 23  0  0  1  0  0  0  0  0999 V2000
    0.6464   -2.5695   -0.2017 S   0  0  0  0  0  0  0  0  0  0  0  0
   -1.2962   -1.0541    1.6895 O   0  0  0  0  0  0  0  0  0  0  0  0
    0.6290   -3.1334    1.1342 O   0  0  0  0  0  0  0  0  0  0  0  0
    0.9631   -3.4009   -1.3469 O   0  0  0  0  0  0  0  0  0  0  0  0
    5.6916    1.7040    0.5531 O   0  0  0  0  0  0  0  0  0  0  0  0
   -2.7569   -0.5158   -0.0193 N   0  0  0  0  0  0  0  0  0  0  0  0
   -0.8262   -1.7504   -0.4899 N   0  0  0  0  0  0  0  0  0  0  0  0
   -3.7132    0.2102    0.7866 C   0  0  0  0  0  0  0  0  0  0  0  0
   -3.3259    1.6882    0.9030 C   0  0  0  0  0  0  0  0  0  0  0  0
   -5.1337    0.0500    0.2343 C   0  0  0  0  0  0  0  0  0  0  0  0
   -3.5389    2.4533   -0.4032 C   0  0  0  0  0  0  0  0  0  0  0  0
   -5.3436    0.8177   -1.0709 C   0  0  0  0  0  0  0  0  0  0  0  0
   -4.9623    2.2878   -0.9270 C   0  0  0  0  0  0  0  0  0  0  0  0
   -1.6170   -1.0929    0.5054 C   0  0  0  0  0  0  0  0  0  0  0  0
    1.7909   -1.2228   -0.2157 C   0  0  0  0  0  0  0  0  0  0  0  0
    3.5841    0.8859   -0.2390 C   0  0  0  0  0  0  0  0  0  0  0  0
    2.3816   -0.8510   -1.4111 C   0  0  0  0  0  0  0  0  0  0  0  0
    2.0757   -0.5647    0.9684 C   0  0  0  0  0  0  0  0  0  0  0  0
    4.5500    2.0224   -0.2512 C   0  0  0  0  0  0  0  0  0  0  0  0
    3.2854    0.2115   -1.4227 C   0  0  0  0  0  0  0  0  0  0  0  0
    2.9793    0.4978    0.9566 C   0  0  0  0  0  0  0  0  0  0  0  0
    3.9367    3.3267    0.2674 C   0  0  0  0  0  0  0  0  0  0  0  0
  1  3  2  0
  1  4  2  0
  1  7  1  0
  1 15  1  0
  2 14  2  0
  5 19  1  0
  6  8  1  0
  6 14  1  0
  7 14  1  0
  8  9  1  0
  8 10  1  0
  9 11  1  0
 10 12  1  0
 11 13  1  0
 12 13  1  0
 15 17  2  0
 15 18  1  0
 16 19  1  0
 16 20  2  0
 16 21  1  0
 17 20  1  0
 18 21  2  0
 19 22  1  0
M  END
>  <PUBCHEM_COMPOUND_CID>  (1) 
18497

>  <PUBCHEM_CONFORMER_RMSD>  (1) 
0.8

>  <PUBCHEM_CONFORMER_DIVERSEORDER>  (1) 
1
106
73
13
92
48
80
10
60
131
93
121
112
120
23
12
6
47
86
127
126
28
49
14
25
119
105
97
128
26
35
78
19
95
36
83
29
16
101
66
17
98
116
18
71
74
108
31
118
50
9
57
62
85
96
77
24
130
44
55
115
40
52
30
46
113
81
22
8
75
59
111
99
63
53
58
21
89
67
102
54
123
69
42
104
94
68
109
79
91
43
88
32
87
33
122
76
41
2
114
61
129
125
45
56
90
100
117
82
27
72
107
7
110
39
11
124
4
65
84
51
103
64
38
20
70
37
15
34
5
3

>  <PUBCHEM_MMFF94_PARTIAL_CHARGES>  (1) 
23
1 1.45
14 0.87
15 -0.01
16 -0.14
17 -0.15
18 -0.15
19 0.42
2 -0.57
20 -0.15
21 -0.15
3 -0.65
34 0.37
35 0.42
36 0.15
37 0.15
39 0.15
4 -0.65
40 0.15
44 0.4
5 -0.68
6 -0.73
7 -0.79
8 0.3

>  <PUBCHEM_EFFECTIVE_ROTOR_COUNT>  (1) 
7.2

>  <PUBCHEM_PHARMACOPHORE_FEATURES>  (1) 
9
1 2 acceptor
1 3 acceptor
1 4 acceptor
1 5 acceptor
1 5 donor
1 6 donor
1 7 donor
6 15 16 17 18 20 21 rings
6 8 9 10 11 12 13 rings

>  <PUBCHEM_HEAVY_ATOM_COUNT>  (1) 
22

>  <PUBCHEM_ATOM_DEF_STEREO_COUNT>  (1) 
0

>  <PUBCHEM_ATOM_UDEF_STEREO_COUNT>  (1) 
1

>  <PUBCHEM_BOND_DEF_STEREO_COUNT>  (1) 
0

>  <PUBCHEM_BOND_UDEF_STEREO_COUNT>  (1) 
0

>  <PUBCHEM_ISOTOPIC_ATOM_COUNT>  (1) 
0

>  <PUBCHEM_COMPONENT_COUNT>  (1) 
1

>  <PUBCHEM_CACTVS_TAUTO_COUNT>  (1) 
3

>  <PUBCHEM_CONFORMER_ID>  (1) 
0000484100000001

>  <PUBCHEM_MMFF94_ENERGY>  (1) 
18.5017

>  <PUBCHEM_FEATURE_SELFOVERLAP>  (1) 
45.734

>  <PUBCHEM_SHAPE_FINGERPRINT>  (1) 
10498660 4 18411705374301097033
11370993 70 18410013259996870660
11796584 16 11887680528759468901
12107183 9 18335969931886664386
12596602 18 16298954284841811456
12633257 1 15502375677049754242
12769317 202 18343579642333940536
12788726 201 16955936774831169802
13103583 49 12252174135109647093
13402501 40 18410009961472926529
13551218 46 9511160973002135357
13590594 115 17546735854613682362
13965767 371 17821720616080402190
14123255 352 18408039623766283217
14123255 52 18410576210108105742
14251764 30 12679169575105687989
14251764 38 18120087287118884613
14420673 8 9799421044246410797
14468879 13 18334584559361004115
14848178 96 18411984632921851569
14957384 54 18336540638039507376
17834072 32 18340490083542831920
193927 3 9439410124625822854
21388113 180 18410012152027378685
21452121 103 18335136475717534214
23227448 37 18341050838841597253
23559900 14 18048312246236961587
238 59 18200040533789230218
2838139 119 18410566323141136116
314194 84 8286192834205947424
341906 21 17531257140639858751
3459 39 18269535274129946656
34797466 226 18202003184447873797
474 4 18334011662310849435
56633871 153 10881398734192893425
5895379 119 17696188106321306713
633830 44 17630914645245756451
6608658 132 16539335268479528508
67856867 119 18189890925264153259
7808743 9 18266460000072905960
7970288 3 9943542807516556060
9981440 41 18186804699093347507

>  <PUBCHEM_SHAPE_MULTIPOLES>  (1) 
423.16
11.95
3.67
1.31
6.19
0.5
-0.07
-11.58
-1.3
-2.14
-0.25
-0.05
0.32
1.16

>  <PUBCHEM_SHAPE_SELFOVERLAP>  (1) 
858.623

>  <PUBCHEM_SHAPE_VOLUME>  (1) 
245.8

>  <PUBCHEM_COORDINATE_TYPE>  (1) 
2
5
10

$$$$
