18508
     RDKit          3D

 10 10  0  0  0  0  0  0  0  0999 V2000
   -0.1258   -0.0001   -0.4071 C   0  0  0  0  0  0  0  0  0  0  0  0
   -1.6006    0.0000   -0.0090 C   0  0  0  0  0  0  0  0  0  0  0  0
    0.5752    1.2637    0.1097 C   0  0  0  0  0  0  0  0  0  0  0  0
    0.5750   -1.2636    0.1097 C   0  0  0  0  0  0  0  0  0  0  0  0
    2.0638    1.2615   -0.2302 C   0  0  0  0  0  0  0  0  0  0  0  0
    2.0638   -1.2616   -0.2300 C   0  0  0  0  0  0  0  0  0  0  0  0
    2.7551    0.0000    0.2775 C   0  0  0  0  0  0  0  0  0  0  0  0
   -2.2908   -1.2536   -0.5723 C   0  0  0  0  0  0  0  0  0  0  0  0
   -1.7249    0.0002    1.5241 C   0  0  0  0  0  0  0  0  0  0  0  0
   -2.2909    1.2535   -0.5724 C   0  0  0  0  0  0  0  0  0  0  0  0
  1  2  1  0
  1  3  1  0
  1  4  1  0
  2  8  1  0
  2  9  1  0
  2 10  1  0
  3  5  1  0
  4  6  1  0
  5  7  1  0
  6  7  1  0
M  END
>  <PUBCHEM_COMPOUND_CID>  (1) 
18508

>  <PUBCHEM_CONFORMER_RMSD>  (1) 
0.4

>  <PUBCHEM_CONFORMER_DIVERSEORDER>  (1) 
1
2
4
3

>  <PUBCHEM_MMFF94_PARTIAL_CHARGES>  (1) 
0

>  <PUBCHEM_EFFECTIVE_ROTOR_COUNT>  (1) 
2.2

>  <PUBCHEM_PHARMACOPHORE_FEATURES>  (1) 
2
4 2 8 9 10 hydrophobe
6 1 3 4 5 6 7 rings

>  <PUBCHEM_HEAVY_ATOM_COUNT>  (1) 
10

>  <PUBCHEM_ATOM_DEF_STEREO_COUNT>  (1) 
0

>  <PUBCHEM_ATOM_UDEF_STEREO_COUNT>  (1) 
0

>  <PUBCHEM_BOND_DEF_STEREO_COUNT>  (1) 
0

>  <PUBCHEM_BOND_UDEF_STEREO_COUNT>  (1) 
0

>  <PUBCHEM_ISOTOPIC_ATOM_COUNT>  (1) 
0

>  <PUBCHEM_COMPONENT_COUNT>  (1) 
1

>  <PUBCHEM_CACTVS_TAUTO_COUNT>  (1) 
1

>  <PUBCHEM_CONFORMER_ID>  (1) 
0000484C00000001

>  <PUBCHEM_MMFF94_ENERGY>  (1) 
22.7496

>  <PUBCHEM_FEATURE_SELFOVERLAP>  (1) 
10.148

>  <PUBCHEM_SHAPE_FINGERPRINT>  (1) 
12524768 44 18125726681740490838
12897270 3 18338226197585381991
12932764 1 18410864256337228636
14128692 85 18130216185411737999
14325111 11 18410289246289908364
15775835 57 18341901838965849508
16945 1 18410858758710517948
18185500 45 18343863303359008962
19973954 147 18407760330622403061
20201158 50 18262232218696921246
20653085 51 18336545993721358861
21040471 1 18338233898662184084
23402655 69 18267848507439682021
23552423 10 18335137592002823430
24536 1 17168153363836308125
2748010 2 18410011018208051966
29004967 10 18261401022392590216
3248919 1 17240482537272780844
369184 2 18412825785128653747
5084963 1 18271805786577640936
528886 8 18339349786567684544
63268167 104 18342740702166339456

>  <PUBCHEM_SHAPE_MULTIPOLES>  (1) 
205.8
3.9
1.57
0.95
0.56
0
-0.31
0
0.13
0.12
0.22
-0.51
0
0

>  <PUBCHEM_SHAPE_SELFOVERLAP>  (1) 
398.551

>  <PUBCHEM_SHAPE_VOLUME>  (1) 
126.5

>  <PUBCHEM_COORDINATE_TYPE>  (1) 
2
5
10

$$$$
