18505
     RDKit          3D

  6  5  0  0  0  0  0  0  0  0999 V2000
    1.9069   -0.7604    0.5994 Cl  0  0  0  0  0  0  0  0  0  0  0  0
    0.4456    1.7328    0.3553 Cl  0  0  0  0  0  0  0  0  0  0  0  0
   -2.3743   -0.0851    0.0575 Cl  0  0  0  0  0  0  0  0  0  0  0  0
    0.4027   -0.0150   -0.0554 C   0  0  0  0  0  0  0  0  0  0  0  0
   -0.7946   -0.6976    0.6181 C   0  0  0  0  0  0  0  0  0  0  0  0
    0.4136   -0.1748   -1.5749 C   0  0  0  0  0  0  0  0  0  0  0  0
  1  4  1  0
  2  4  1  0
  3  5  1  0
  4  5  1  0
  4  6  1  0
M  END
>  <PUBCHEM_COMPOUND_CID>  (1) 
18505

>  <PUBCHEM_CONFORMER_RMSD>  (1) 
0.4

>  <PUBCHEM_CONFORMER_DIVERSEORDER>  (1) 
1
2
3

>  <PUBCHEM_MMFF94_PARTIAL_CHARGES>  (1) 
5
1 -0.29
2 -0.29
3 -0.29
4 0.58
5 0.29

>  <PUBCHEM_EFFECTIVE_ROTOR_COUNT>  (1) 
1

>  <PUBCHEM_PHARMACOPHORE_FEATURES>  (1) 
0

>  <PUBCHEM_HEAVY_ATOM_COUNT>  (1) 
6

>  <PUBCHEM_ATOM_DEF_STEREO_COUNT>  (1) 
0

>  <PUBCHEM_ATOM_UDEF_STEREO_COUNT>  (1) 
0

>  <PUBCHEM_BOND_DEF_STEREO_COUNT>  (1) 
0

>  <PUBCHEM_BOND_UDEF_STEREO_COUNT>  (1) 
0

>  <PUBCHEM_ISOTOPIC_ATOM_COUNT>  (1) 
0

>  <PUBCHEM_COMPONENT_COUNT>  (1) 
1

>  <PUBCHEM_CACTVS_TAUTO_COUNT>  (1) 
1

>  <PUBCHEM_CONFORMER_ID>  (1) 
0000484900000001

>  <PUBCHEM_MMFF94_ENERGY>  (1) 
7.6445

>  <PUBCHEM_FEATURE_SELFOVERLAP>  (1) 
0

>  <PUBCHEM_SHAPE_FINGERPRINT>  (1) 
137420 1 13698714928598826920
20096714 4 17911805978745083313
23552449 11 18340768234098499115
24536 1 17488208021859589067
29004967 10 18411973642084489658
5943 1 17172683197129249228

>  <PUBCHEM_SHAPE_MULTIPOLES>  (1) 
129.09
2.44
1.34
1.18
1.13
0.78
0.55
-0.6
-0.48
-0.35
-0.26
-0.22
-0.13
-0.02

>  <PUBCHEM_SHAPE_SELFOVERLAP>  (1) 
204.953

>  <PUBCHEM_SHAPE_VOLUME>  (1) 
93.5

>  <PUBCHEM_COORDINATE_TYPE>  (1) 
2
5
10

$$$$
