18506
     RDKit          3D

 27 30  0  0  0  0  0  0  0  0999 V2000
   -2.9184    2.2983    0.5123 O   0  0  0  0  0  0  0  0  0  0  0  0
   -2.9100   -2.3247    0.4964 O   0  0  0  0  0  0  0  0  0  0  0  0
    2.4928    2.6755   -0.0394 O   0  0  0  0  0  0  0  0  0  0  0  0
    2.5073   -2.6705   -0.0578 O   0  0  0  0  0  0  0  0  0  0  0  0
   -3.3246   -0.0149    0.5514 N   0  0  0  0  0  0  0  0  0  0  0  0
   -0.0884    2.8242    0.2250 N   0  0  0  0  0  0  0  0  0  0  0  0
   -0.0730   -2.8352    0.2057 N   0  0  0  0  0  0  0  0  0  0  0  0
   -1.1818    0.6838    0.3318 C   0  0  0  0  0  0  0  0  0  0  0  0
   -1.1779   -0.7015    0.3271 C   0  0  0  0  0  0  0  0  0  0  0  0
    1.1817    0.7041    0.0892 C   0  0  0  0  0  0  0  0  0  0  0  0
    1.1856   -0.7073    0.0848 C   0  0  0  0  0  0  0  0  0  0  0  0
   -0.0199    1.4188    0.2145 C   0  0  0  0  0  0  0  0  0  0  0  0
   -0.0120   -1.4294    0.2053 C   0  0  0  0  0  0  0  0  0  0  0  0
   -4.7660   -0.0194    0.7055 C   0  0  0  0  0  0  0  0  0  0  0  0
   -2.5664    1.1338    0.4741 C   0  0  0  0  0  0  0  0  0  0  0  0
   -2.5598   -1.1594    0.4660 C   0  0  0  0  0  0  0  0  0  0  0  0
   -5.4944   -0.0167   -0.6344 C   0  0  0  0  0  0  0  0  0  0  0  0
    2.4501    1.4515   -0.0390 C   0  0  0  0  0  0  0  0  0  0  0  0
    2.4583   -1.4468   -0.0475 C   0  0  0  0  0  0  0  0  0  0  0  0
    3.7170    0.7042   -0.1702 C   0  0  0  0  0  0  0  0  0  0  0  0
    3.7209   -0.6917   -0.1741 C   0  0  0  0  0  0  0  0  0  0  0  0
   -7.0164    0.0063   -0.4761 C   0  0  0  0  0  0  0  0  0  0  0  0
    4.9228    1.4059   -0.2913 C   0  0  0  0  0  0  0  0  0  0  0  0
    4.9308   -1.3858   -0.2988 C   0  0  0  0  0  0  0  0  0  0  0  0
   -7.7140    0.0694   -1.8261 C   0  0  0  0  0  0  0  0  0  0  0  0
    6.1258    0.7104   -0.4153 C   0  0  0  0  0  0  0  0  0  0  0  0
    6.1298   -0.6828   -0.4190 C   0  0  0  0  0  0  0  0  0  0  0  0
  1 15  2  0
  2 16  2  0
  3 18  2  0
  4 19  2  0
  5 14  1  0
  5 15  1  0
  5 16  1  0
  6 12  1  0
  7 13  1  0
  8  9  2  0
  8 12  1  0
  8 15  1  0
  9 13  1  0
  9 16  1  0
 10 11  1  0
 10 12  2  0
 10 18  1  0
 11 13  2  0
 11 19  1  0
 14 17  1  0
 17 22  1  0
 18 20  1  0
 19 21  1  0
 20 21  2  0
 20 23  1  0
 21 24  1  0
 22 25  1  0
 23 26  2  0
 24 27  2  0
 26 27  1  0
M  END
>  <PUBCHEM_COMPOUND_CID>  (1) 
18506

>  <PUBCHEM_CONFORMER_RMSD>  (1) 
0.6

>  <PUBCHEM_CONFORMER_DIVERSEORDER>  (1) 
1
4
3
2

>  <PUBCHEM_MMFF94_PARTIAL_CHARGES>  (1) 
32
1 -0.57
10 0.09
11 0.09
12 0.1
13 0.1
14 0.3
15 0.54
16 0.54
18 0.4
19 0.4
2 -0.57
20 0.09
21 0.09
23 -0.15
24 -0.15
26 -0.15
27 -0.15
3 -0.57
34 0.4
35 0.4
36 0.4
37 0.4
38 0.15
39 0.15
4 -0.57
43 0.15
44 0.15
5 -0.42
6 -0.9
7 -0.9
8 0.09
9 0.09

>  <PUBCHEM_EFFECTIVE_ROTOR_COUNT>  (1) 
3

>  <PUBCHEM_PHARMACOPHORE_FEATURES>  (1) 
13
1 1 acceptor
1 2 acceptor
1 25 hydrophobe
1 3 acceptor
1 4 acceptor
1 6 cation
1 6 donor
1 7 cation
1 7 donor
5 5 8 9 15 16 rings
6 10 11 18 19 20 21 rings
6 20 21 23 24 26 27 rings
6 8 9 10 11 12 13 rings

>  <PUBCHEM_HEAVY_ATOM_COUNT>  (1) 
27

>  <PUBCHEM_ATOM_DEF_STEREO_COUNT>  (1) 
0

>  <PUBCHEM_ATOM_UDEF_STEREO_COUNT>  (1) 
0

>  <PUBCHEM_BOND_DEF_STEREO_COUNT>  (1) 
0

>  <PUBCHEM_BOND_UDEF_STEREO_COUNT>  (1) 
0

>  <PUBCHEM_ISOTOPIC_ATOM_COUNT>  (1) 
0

>  <PUBCHEM_COMPONENT_COUNT>  (1) 
1

>  <PUBCHEM_CACTVS_TAUTO_COUNT>  (1) 
11

>  <PUBCHEM_CONFORMER_ID>  (1) 
0000484A00000001

>  <PUBCHEM_MMFF94_ENERGY>  (1) 
93.3899

>  <PUBCHEM_FEATURE_SELFOVERLAP>  (1) 
66.106

>  <PUBCHEM_SHAPE_FINGERPRINT>  (1) 
10693767 8 18201996590808664879
10906281 52 18267890352662026403
10967382 1 18410863144278348154
11578080 2 16879621584007236078
12011746 2 18410013242816494735
12236239 1 17775287153665877225
12838862 33 18338503232056772112
13140716 1 18266743670088829746
13402501 40 18408325492499526608
13862211 1 18411700950737781898
14294032 229 16414373169843865985
14790565 3 17763476010640244368
14931854 50 18410579452676565364
15131766 46 16445617102379733012
15183329 4 18409161096389960317
15196674 1 18410863161801011162
15475509 35 14189302512881676132
19591789 44 18339085994530630754
200 152 18060139829601189025
20028762 73 18131067112785641695
21236236 1 18341335492331957937
21267235 1 18339093626460662434
21279426 13 18336267928859023431
21521239 73 18201712968827821119
21792934 111 18337941330149133560
21859007 373 17896578683167037244
221357 26 18412261722652550548
23402539 116 18343020029638511038
23559900 14 18339640160949176705
255183 451 17912933786140450990
3004659 81 18260828210925452736
335352 9 18410578388410938190
34797466 226 16272209713121905384
34934 24 18409448098135331002
350125 39 18410299115866447689
3545911 37 18408325501332164795
3633792 109 18410570657406709429
4325135 7 18273213084721501949
484989 97 18265335195947564123
5104073 3 18411143524386487304
59755656 215 18408604742736049062
59755656 520 17385999607365300867
9709674 26 18341062804752625342

>  <PUBCHEM_SHAPE_MULTIPOLES>  (1) 
517.23
15.44
2.53
0.85
14.73
0.02
-0.22
-0.18
-6.38
-1.31
0.29
1.21
-0.01
0.04

>  <PUBCHEM_SHAPE_SELFOVERLAP>  (1) 
1166.107

>  <PUBCHEM_SHAPE_VOLUME>  (1) 
273.1

>  <PUBCHEM_COORDINATE_TYPE>  (1) 
2
5
10

$$$$
