18514
     RDKit          3D

 26 28  0  0  0  0  0  0  0  0999 V2000
   -2.6662   -0.8005    0.1631 O   0  0  0  0  0  0  0  0  0  0  0  0
    2.6670   -0.7983   -0.1643 O   0  0  0  0  0  0  0  0  0  0  0  0
   -2.7511   -3.3506    0.1712 O   0  0  0  0  0  0  0  0  0  0  0  0
    2.7540   -3.3484   -0.1708 O   0  0  0  0  0  0  0  0  0  0  0  0
   -5.4557    2.0597   -0.7925 O   0  0  0  0  0  0  0  0  0  0  0  0
    5.4528    2.0632    0.7964 O   0  0  0  0  0  0  0  0  0  0  0  0
   -2.8033    1.7832    0.1716 N   0  0  0  0  0  0  0  0  0  0  0  0
    2.8021    1.7851   -0.1718 N   0  0  0  0  0  0  0  0  0  0  0  0
   -0.6972    0.4858    0.0414 C   0  0  0  0  0  0  0  0  0  0  0  0
    0.6967    0.4864   -0.0436 C   0  0  0  0  0  0  0  0  0  0  0  0
   -1.3946    1.6991    0.0839 C   0  0  0  0  0  0  0  0  0  0  0  0
    1.3931    1.7002   -0.0863 C   0  0  0  0  0  0  0  0  0  0  0  0
   -0.6961   -2.0603    0.0425 C   0  0  0  0  0  0  0  0  0  0  0  0
    0.6978   -2.0597   -0.0430 C   0  0  0  0  0  0  0  0  0  0  0  0
   -1.4445   -0.7876    0.0876 C   0  0  0  0  0  0  0  0  0  0  0  0
    1.4451   -0.7864   -0.0889 C   0  0  0  0  0  0  0  0  0  0  0  0
   -0.6966    2.9064    0.0410 C   0  0  0  0  0  0  0  0  0  0  0  0
    0.6941    2.9069   -0.0440 C   0  0  0  0  0  0  0  0  0  0  0  0
   -1.3925   -3.2741    0.0860 C   0  0  0  0  0  0  0  0  0  0  0  0
    1.3952   -3.2729   -0.0854 C   0  0  0  0  0  0  0  0  0  0  0  0
   -3.5023    3.0280    0.2155 C   0  0  0  0  0  0  0  0  0  0  0  0
    3.5002    3.0304   -0.2143 C   0  0  0  0  0  0  0  0  0  0  0  0
   -0.6935   -4.4808    0.0435 C   0  0  0  0  0  0  0  0  0  0  0  0
    0.6973   -4.4802   -0.0421 C   0  0  0  0  0  0  0  0  0  0  0  0
   -4.9959    2.7809    0.3436 C   0  0  0  0  0  0  0  0  0  0  0  0
    4.9942    2.7845   -0.3402 C   0  0  0  0  0  0  0  0  0  0  0  0
  1 15  2  0
  2 16  2  0
  3 19  1  0
  4 20  1  0
  5 25  1  0
  6 26  1  0
  7 11  1  0
  7 21  1  0
  8 12  1  0
  8 22  1  0
  9 10  1  0
  9 11  2  0
  9 15  1  0
 10 12  2  0
 10 16  1  0
 11 17  1  0
 12 18  1  0
 13 14  2  0
 13 15  1  0
 13 19  1  0
 14 16  1  0
 14 20  1  0
 17 18  2  0
 19 23  2  0
 20 24  2  0
 21 25  1  0
 22 26  1  0
 23 24  1  0
M  END
>  <PUBCHEM_COMPOUND_CID>  (1) 
18514

>  <PUBCHEM_CONFORMER_RMSD>  (1) 
0.8

>  <PUBCHEM_CONFORMER_DIVERSEORDER>  (1) 
1
5
3
6
2
4

>  <PUBCHEM_MMFF94_PARTIAL_CHARGES>  (1) 
36
1 -0.57
10 0.09
11 0.1
12 0.1
13 0.09
14 0.09
15 0.4
16 0.4
17 -0.15
18 -0.15
19 0.08
2 -0.57
20 0.08
21 0.37
22 0.37
23 -0.15
24 -0.15
25 0.28
26 0.28
27 0.15
28 0.15
29 0.4
3 -0.53
30 0.4
35 0.15
36 0.15
4 -0.53
41 0.45
42 0.45
43 0.4
44 0.4
5 -0.68
6 -0.68
7 -0.87
8 -0.87
9 0.09

>  <PUBCHEM_EFFECTIVE_ROTOR_COUNT>  (1) 
6

>  <PUBCHEM_PHARMACOPHORE_FEATURES>  (1) 
15
1 1 acceptor
1 2 acceptor
1 3 donor
1 4 donor
1 5 acceptor
1 5 donor
1 6 acceptor
1 6 donor
1 7 cation
1 7 donor
1 8 cation
1 8 donor
6 13 14 19 20 23 24 rings
6 9 10 11 12 17 18 rings
6 9 10 13 14 15 16 rings

>  <PUBCHEM_HEAVY_ATOM_COUNT>  (1) 
26

>  <PUBCHEM_ATOM_DEF_STEREO_COUNT>  (1) 
0

>  <PUBCHEM_ATOM_UDEF_STEREO_COUNT>  (1) 
0

>  <PUBCHEM_BOND_DEF_STEREO_COUNT>  (1) 
0

>  <PUBCHEM_BOND_UDEF_STEREO_COUNT>  (1) 
0

>  <PUBCHEM_ISOTOPIC_ATOM_COUNT>  (1) 
0

>  <PUBCHEM_COMPONENT_COUNT>  (1) 
1

>  <PUBCHEM_CACTVS_TAUTO_COUNT>  (1) 
90

>  <PUBCHEM_CONFORMER_ID>  (1) 
0000485200000001

>  <PUBCHEM_MMFF94_ENERGY>  (1) 
99.905

>  <PUBCHEM_FEATURE_SELFOVERLAP>  (1) 
76.172

>  <PUBCHEM_SHAPE_FINGERPRINT>  (1) 
10411042 1 18410860961993376518
10967382 1 17833835967076897835
1100329 8 18338798893067627910
12107183 9 18335126589241279424
12788726 201 18122894593258949659
13140716 1 18338238163169109280
13692114 37 18198040655493411857
138480 1 17762057635970275621
14790565 3 18410860961981963045
14866123 147 18267306615341173184
15042514 8 17906175410038092642
15230672 131 18408329879011648164
15442244 35 16898496213116350730
15664445 248 17624426272263443206
15927050 60 18413110545840001999
16087824 20 17833837445279078651
19591789 44 18338530684764742759
19930381 70 17761213211081997480
20642791 105 18265610077210465601
21267235 1 17114672813635993375
21796203 349 17402932962236621251
23559900 14 17760361094404177681
3091708 16 9119787596210943688
4409770 3 18120365725352776357
5104073 3 16754651990190268963
6443956 14 17616538350387483125
6669772 16 18340769251958626732
9981440 41 18409729569086165233

>  <PUBCHEM_SHAPE_MULTIPOLES>  (1) 
489.89
7.55
7.15
0.65
0.03
6.31
0
-11.05
0.01
-0.03
0
0
-0.12
0.15

>  <PUBCHEM_SHAPE_SELFOVERLAP>  (1) 
1075.932

>  <PUBCHEM_SHAPE_VOLUME>  (1) 
261.6

>  <PUBCHEM_COORDINATE_TYPE>  (1) 
2
5
10

$$$$
