18513
     RDKit          3D

 25 26  0  0  0  0  0  0  0  0999 V2000
    5.9342    0.1495   -1.9424 O   0  0  0  0  0  0  0  0  0  0  0  0
    3.6790   -3.2256    1.2626 O   0  0  0  0  0  0  0  0  0  0  0  0
   -6.8029   -1.8954   -0.7319 O   0  0  0  0  0  0  0  0  0  0  0  0
   -7.3259    0.1937   -0.3064 O   0  0  0  0  0  0  0  0  0  0  0  0
    4.0739   -0.7537   -0.0295 N   0  0  0  0  0  0  0  0  0  0  0  0
   -0.5137    0.7562   -0.3613 N   0  0  0  0  0  0  0  0  0  0  0  0
   -1.0956    0.3969    0.6883 N   0  0  0  0  0  0  0  0  0  0  0  0
   -6.4805   -0.7287   -0.4012 N   0  0  0  0  0  0  0  0  0  0  0  0
    3.1189    0.2792    0.0742 C   0  0  0  0  0  0  0  0  0  0  0  0
    4.2676   -1.4505   -1.2855 C   0  0  0  0  0  0  0  0  0  0  0  0
    4.8639   -1.1410    1.1222 C   0  0  0  0  0  0  0  0  0  0  0  0
    1.7751    0.0160   -0.1917 C   0  0  0  0  0  0  0  0  0  0  0  0
    3.5182    1.5636    0.4435 C   0  0  0  0  0  0  0  0  0  0  0  0
    4.7252   -0.4745   -2.3561 C   0  0  0  0  0  0  0  0  0  0  0  0
    4.0635   -2.0785    2.0100 C   0  0  0  0  0  0  0  0  0  0  0  0
    0.8307    1.0374   -0.0888 C   0  0  0  0  0  0  0  0  0  0  0  0
    1.2300    2.3220    0.2802 C   0  0  0  0  0  0  0  0  0  0  0  0
    2.5738    2.5850    0.5464 C   0  0  0  0  0  0  0  0  0  0  0  0
    0.2377    3.4324    0.3946 C   0  0  0  0  0  0  0  0  0  0  0  0
   -2.4451    0.1148    0.4154 C   0  0  0  0  0  0  0  0  0  0  0  0
   -2.8204   -1.1734    0.0472 C   0  0  0  0  0  0  0  0  0  0  0  0
   -3.3957    1.1258    0.5153 C   0  0  0  0  0  0  0  0  0  0  0  0
   -5.1171   -0.4437   -0.1254 C   0  0  0  0  0  0  0  0  0  0  0  0
   -4.1597   -1.4533   -0.2238 C   0  0  0  0  0  0  0  0  0  0  0  0
   -4.7351    0.8459    0.2443 C   0  0  0  0  0  0  0  0  0  0  0  0
  1 14  1  0
  2 15  1  0
  3  8  1  0
  4  8  2  0
  5  9  1  0
  5 10  1  0
  5 11  1  0
  6  7  2  0
  6 16  1  0
  7 20  1  0
  8 23  1  0
  9 12  2  0
  9 13  1  0
 10 14  1  0
 11 15  1  0
 12 16  1  0
 13 18  2  0
 16 17  2  0
 17 18  1  0
 17 19  1  0
 20 21  2  0
 20 22  1  0
 21 24  1  0
 22 25  2  0
 23 24  2  0
 23 25  1  0
M  CHG  2   3  -1   8   1
M  END
>  <PUBCHEM_COMPOUND_CID>  (1) 
18513

>  <PUBCHEM_CONFORMER_RMSD>  (1) 
0.8

>  <PUBCHEM_CONFORMER_DIVERSEORDER>  (1) 
2
33
28
43
5
20
19
32
18
44
27
38
40
37
8
15
16
22
23
9
29
26
35
39
3
17
10
25
42
13
31
14
21
30
36
34
11
7
4
24
41
1
12
6

>  <PUBCHEM_MMFF94_PARTIAL_CHARGES>  (1) 
34
1 -0.68
10 0.37
11 0.37
12 -0.15
13 -0.15
14 0.28
15 0.28
16 0.18
17 -0.14
18 -0.15
19 0.14
2 -0.68
20 0.18
21 -0.15
22 -0.15
23 0.13
24 -0.15
25 -0.15
3 -0.52
30 0.15
31 0.15
36 0.15
4 -0.52
40 0.4
41 0.4
42 0.15
43 0.15
44 0.15
45 0.15
5 -0.84
6 -0.18
7 -0.18
8 0.91
9 0.1

>  <PUBCHEM_EFFECTIVE_ROTOR_COUNT>  (1) 
8

>  <PUBCHEM_PHARMACOPHORE_FEATURES>  (1) 
10
1 1 acceptor
1 1 donor
1 2 acceptor
1 2 donor
1 3 acceptor
1 3 anion
1 4 acceptor
1 5 cation
6 20 21 22 23 24 25 rings
6 9 12 13 16 17 18 rings

>  <PUBCHEM_HEAVY_ATOM_COUNT>  (1) 
25

>  <PUBCHEM_ATOM_DEF_STEREO_COUNT>  (1) 
0

>  <PUBCHEM_ATOM_UDEF_STEREO_COUNT>  (1) 
0

>  <PUBCHEM_BOND_DEF_STEREO_COUNT>  (1) 
0

>  <PUBCHEM_BOND_UDEF_STEREO_COUNT>  (1) 
0

>  <PUBCHEM_ISOTOPIC_ATOM_COUNT>  (1) 
0

>  <PUBCHEM_COMPONENT_COUNT>  (1) 
1

>  <PUBCHEM_CACTVS_TAUTO_COUNT>  (1) 
1

>  <PUBCHEM_CONFORMER_ID>  (1) 
0000485100000002

>  <PUBCHEM_MMFF94_ENERGY>  (1) 
83.7069

>  <PUBCHEM_FEATURE_SELFOVERLAP>  (1) 
50.828

>  <PUBCHEM_SHAPE_FINGERPRINT>  (1) 
11069576 57 17968658186603249210
11135609 127 16805891809272447444
11796584 16 18272088335565720643
1200032 147 11887376067793491482
12107183 9 18196091032715510649
12516196 113 18202285801232010220
12553582 1 18339651044638546890
12596602 18 14117790328166822663
12788726 201 18265627476645046080
13150687 139 17750255694256683534
13533116 47 18410005568073934073
14251740 57 17703794729868407766
14347332 77 18410284792920518745
15183329 4 18412266112852522757
17134984 74 18335700606434034523
17349148 13 17775573043837404033
17857418 61 18408598154509593547
18222031 100 18201725037406172180
19319366 153 17894629249757839690
19958102 18 18115572868912104967
20028762 73 18060136544110197703
20369508 70 18409162212706787648
20397935 70 17561366196871741070
20645477 70 18342739645551812396
21267235 1 18271817847594855381
21344244 78 17703779336495077832
23522609 53 18118996648435074189
23559900 14 18270962465934405457
239999 70 18272093825082044548
29717793 49 18131071545697890157
3004659 81 18343024406115155597
3411729 13 18128809927974471808
38570 142 12966545635381257226
4073 2 18116994601332622027
463206 1 18260544520031071706
465052 167 17775576329429370444
5104073 3 18272373109535913665
59682541 52 18113606881548675419
7164475 11 17896884245111030172
8863177 126 18044109053664863107
960060 61 17894636946006027734
9709674 26 18195813088080246499

>  <PUBCHEM_SHAPE_MULTIPOLES>  (1) 
471.09
16.22
2.88
1.4
21.99
1.01
0.36
-9.08
3.89
-2.24
-1
-3.12
-0.81
-1.19

>  <PUBCHEM_SHAPE_SELFOVERLAP>  (1) 
991.427

>  <PUBCHEM_SHAPE_VOLUME>  (1) 
266.8

>  <PUBCHEM_COORDINATE_TYPE>  (1) 
2
5
10

$$$$
