18521
     RDKit          3D

 11 11  0  0  0  0  0  0  0  0999 V2000
    2.1345   -0.0021   -0.1197 S   0  0  0  0  0  0  0  0  0  0  0  0
    2.5638   -1.2642   -0.7051 O   0  0  0  0  0  0  0  0  0  0  0  0
    2.5899    1.2547   -0.6982 O   0  0  0  0  0  0  0  0  0  0  0  0
    0.3894   -0.0003   -0.0652 C   0  0  0  0  0  0  0  0  0  0  0  0
   -0.3069    1.2081   -0.0484 C   0  0  0  0  0  0  0  0  0  0  0  0
   -0.3083   -1.2077   -0.0388 C   0  0  0  0  0  0  0  0  0  0  0  0
   -2.3989    0.0018    0.0213 C   0  0  0  0  0  0  0  0  0  0  0  0
   -1.7011    1.2092   -0.0050 C   0  0  0  0  0  0  0  0  0  0  0  0
   -1.7026   -1.2067    0.0044 C   0  0  0  0  0  0  0  0  0  0  0  0
    2.6298    0.0044    1.5885 C   0  0  0  0  0  0  0  0  0  0  0  0
   -3.8896    0.0027    0.0662 C   0  0  0  0  0  0  0  0  0  0  0  0
  1  2  2  0
  1  3  2  0
  1  4  1  0
  1 10  1  0
  4  5  2  0
  4  6  1  0
  5  8  1  0
  6  9  2  0
  7  8  2  0
  7  9  1  0
  7 11  1  0
M  END
>  <PUBCHEM_COMPOUND_CID>  (1) 
18521

>  <PUBCHEM_CONFORMER_RMSD>  (1) 
0.4

>  <PUBCHEM_CONFORMER_DIVERSEORDER>  (1) 
1

>  <PUBCHEM_MMFF94_PARTIAL_CHARGES>  (1) 
15
1 1.2
10 0.11
11 0.14
12 0.15
13 0.15
14 0.15
15 0.15
2 -0.65
3 -0.65
4 -0.01
5 -0.15
6 -0.15
7 -0.14
8 -0.15
9 -0.15

>  <PUBCHEM_EFFECTIVE_ROTOR_COUNT>  (1) 
1

>  <PUBCHEM_PHARMACOPHORE_FEATURES>  (1) 
3
1 2 acceptor
1 3 acceptor
6 4 5 6 7 8 9 rings

>  <PUBCHEM_HEAVY_ATOM_COUNT>  (1) 
11

>  <PUBCHEM_ATOM_DEF_STEREO_COUNT>  (1) 
0

>  <PUBCHEM_ATOM_UDEF_STEREO_COUNT>  (1) 
0

>  <PUBCHEM_BOND_DEF_STEREO_COUNT>  (1) 
0

>  <PUBCHEM_BOND_UDEF_STEREO_COUNT>  (1) 
0

>  <PUBCHEM_ISOTOPIC_ATOM_COUNT>  (1) 
0

>  <PUBCHEM_COMPONENT_COUNT>  (1) 
1

>  <PUBCHEM_CACTVS_TAUTO_COUNT>  (1) 
1

>  <PUBCHEM_CONFORMER_ID>  (1) 
0000485900000001

>  <PUBCHEM_MMFF94_ENERGY>  (1) 
18.3854

>  <PUBCHEM_FEATURE_SELFOVERLAP>  (1) 
15.241

>  <PUBCHEM_SHAPE_FINGERPRINT>  (1) 
10130415 120 18260543433282311457
10857977 72 18412538834121427345
11132069 177 18341606019262359995
12032990 46 18410020935651814387
12524768 44 18336830882795928900
12932764 1 17203609293690540941
14325111 11 18410578374945774269
15310529 11 16660357086917724461
15775835 57 17603304873184994156
16945 1 18411697694920371941
20201158 50 18272373057442469310
20645464 45 17774708840250422002
20645476 183 17386019406615687895
23235685 24 18411698794442607733
23402655 69 18195227942553829429
23552423 10 18334297552276674006
2748010 2 18122344571494400637
3248919 1 18411414024935804671
369184 2 17095235934462338481
5084963 1 18271249304939912944
7364860 26 18341614837062502652

>  <PUBCHEM_SHAPE_MULTIPOLES>  (1) 
218.49
5.2
1.37
0.91
1.33
0
0.28
-0.01
0.38
-0.05
-0.18
-0.79
0
0

>  <PUBCHEM_SHAPE_SELFOVERLAP>  (1) 
436.047

>  <PUBCHEM_SHAPE_VOLUME>  (1) 
130.7

>  <PUBCHEM_COORDINATE_TYPE>  (1) 
2
5
10

$$$$
