18524
     RDKit          3D

 18 20  0  0  0  0  0  0  0  0999 V2000
   -4.9260   -1.7480    0.3962 O   0  0  0  0  0  0  0  0  0  0  0  0
    1.0857    1.2629   -0.1598 N   0  0  0  0  0  0  0  0  0  0  0  0
   -3.1770    0.4611   -0.0063 N   0  0  0  0  0  0  0  0  0  0  0  0
   -0.3222    1.3726    0.1872 C   0  0  0  0  0  0  0  0  0  0  0  0
   -1.1737    1.4524   -1.0812 C   0  0  0  0  0  0  0  0  0  0  0  0
   -2.6697    1.5865   -0.7884 C   0  0  0  0  0  0  0  0  0  0  0  0
    1.3972    0.0410   -0.9352 C   0  0  0  0  0  0  0  0  0  0  0  0
    1.9756    1.2722    1.0230 C   0  0  0  0  0  0  0  0  0  0  0  0
    2.7840   -0.3252   -0.5128 C   0  0  0  0  0  0  0  0  0  0  0  0
    3.1227    0.3957    0.6335 C   0  0  0  0  0  0  0  0  0  0  0  0
   -2.9983   -0.8029   -0.7341 C   0  0  0  0  0  0  0  0  0  0  0  0
   -4.5952    0.6542    0.3266 C   0  0  0  0  0  0  0  0  0  0  0  0
   -3.5462   -1.9605    0.0957 C   0  0  0  0  0  0  0  0  0  0  0  0
   -5.1046   -0.5375    1.1322 C   0  0  0  0  0  0  0  0  0  0  0  0
    3.6584   -1.2399   -1.0704 C   0  0  0  0  0  0  0  0  0  0  0  0
    4.3458    0.2230    1.2550 C   0  0  0  0  0  0  0  0  0  0  0  0
    4.9012   -1.4168   -0.4576 C   0  0  0  0  0  0  0  0  0  0  0  0
    5.2422   -0.6909    0.6963 C   0  0  0  0  0  0  0  0  0  0  0  0
  1 13  1  0
  1 14  1  0
  2  4  1  0
  2  7  1  0
  2  8  1  0
  3  6  1  0
  3 11  1  0
  3 12  1  0
  4  5  1  0
  5  6  1  0
  7  9  1  0
  8 10  1  0
  9 10  2  0
  9 15  1  0
 10 16  1  0
 11 13  1  0
 12 14  1  0
 15 17  2  0
 16 18  2  0
 17 18  1  0
M  END
>  <PUBCHEM_COMPOUND_CID>  (1) 
18524

>  <PUBCHEM_CONFORMER_RMSD>  (1) 
0.8

>  <PUBCHEM_CONFORMER_DIVERSEORDER>  (1) 
1
7
10
15
14
13
5
12
11
9
6
3
4
8
2

>  <PUBCHEM_MMFF94_PARTIAL_CHARGES>  (1) 
21
1 -0.56
10 -0.14
11 0.27
12 0.27
13 0.28
14 0.28
15 -0.15
16 -0.15
17 -0.15
18 -0.15
2 -0.81
3 -0.81
37 0.15
38 0.15
39 0.15
4 0.27
40 0.15
6 0.27
7 0.41
8 0.41
9 -0.14

>  <PUBCHEM_EFFECTIVE_ROTOR_COUNT>  (1) 
5.8

>  <PUBCHEM_PHARMACOPHORE_FEATURES>  (1) 
6
1 1 acceptor
1 2 cation
1 3 cation
5 2 7 8 9 10 rings
6 1 3 11 12 13 14 rings
6 9 10 15 16 17 18 rings

>  <PUBCHEM_HEAVY_ATOM_COUNT>  (1) 
18

>  <PUBCHEM_ATOM_DEF_STEREO_COUNT>  (1) 
0

>  <PUBCHEM_ATOM_UDEF_STEREO_COUNT>  (1) 
0

>  <PUBCHEM_BOND_DEF_STEREO_COUNT>  (1) 
0

>  <PUBCHEM_BOND_UDEF_STEREO_COUNT>  (1) 
0

>  <PUBCHEM_ISOTOPIC_ATOM_COUNT>  (1) 
0

>  <PUBCHEM_COMPONENT_COUNT>  (1) 
1

>  <PUBCHEM_CACTVS_TAUTO_COUNT>  (1) 
1

>  <PUBCHEM_CONFORMER_ID>  (1) 
0000485C00000001

>  <PUBCHEM_MMFF94_ENERGY>  (1) 
40.9374

>  <PUBCHEM_FEATURE_SELFOVERLAP>  (1) 
30.527

>  <PUBCHEM_SHAPE_FINGERPRINT>  (1) 
11046707 91 18113898256282403309
11089746 13 9439402398443932956
11128504 68 16443354177856860524
11370993 144 17775008938305528597
11552529 35 16844431920524106623
11796584 16 17900532385995080650
12236239 1 16732703818317614444
12596602 18 15482665805756522839
12633257 1 17632299020679620927
12670546 177 13623534562508141889
13402501 40 18412830170206568631
13675066 3 18059852852782168469
14123255 352 10519984863557547943
1420 369 18260548948094230867
14251732 14 18188506713265464350
14251751 18 18334857212358778738
14251757 5 15648201722308720259
14251764 30 17169003316969898283
14252887 29 17346318159761683068
14341114 176 17989209239540624888
14386348 63 18342738490073513718
14576447 43 16660362567544044072
146900 427 17631726197029195584
14790565 3 17409354514392647632
15188451 53 17988075716752816031
15209294 21 13254792425863979164
15537594 2 17822013069141240795
16126227 98 17479162520620500288
17349148 13 16732981994812293496
17780758 139 18201719531310937689
1813 80 17822294608415977325
18785283 64 18127118887459457688
19141452 34 18343302587416387711
193927 3 18113908186267663299
200 152 15357696362036161308
20281475 54 18338238266559762205
20374829 77 18186801379162377805
20403669 9 18408323306683361519
20621476 21 18337965523220331222
21054139 6 17313101943636049234
21403212 168 18341339878078720777
21503847 285 12895061951720824338
231179 274 7997963592405850956
23402539 116 16226044440659226428
23402655 69 12179839498374585525
235170 7 13695862606473834499
23559900 14 18409442600661627044
23590187 135 18333728018296344680
239999 70 18412263931088355050
26918003 58 18059852844281859321
2838139 119 8935004737172411699
316301 35 18337668616837621866
351380 3 17603307055123371771
4325135 7 18113621222692377540
5104073 3 17844802591311432010
5352402 22 18060143132547129718
5924683 9 17346025792827460135
602551 16 18333166167923350354
7471813 234 16515405140919094740
7495541 125 18409164416278523144
7970288 3 17822293526285146683
8863177 126 18272654515693433478

>  <PUBCHEM_SHAPE_MULTIPOLES>  (1) 
354.6
12.8
1.83
1.18
2.28
0.27
0.04
5.94
3.2
1.16
-0.15
-0.34
-0.08
1.19

>  <PUBCHEM_SHAPE_SELFOVERLAP>  (1) 
741.196

>  <PUBCHEM_SHAPE_VOLUME>  (1) 
202.9

>  <PUBCHEM_COORDINATE_TYPE>  (1) 
2
5
10

$$$$
