18520
     RDKit          3D

 17 17  0  0  0  0  0  0  0  0999 V2000
    3.3962   -2.2146   -0.1600 Cl  0  0  0  0  0  0  0  0  0  0  0  0
    3.2154    1.0105    0.0047 S   0  0  0  0  0  0  0  0  0  0  0  0
    2.8923    2.2691    0.6576 O   0  0  0  0  0  0  0  0  0  0  0  0
    4.3560    0.2285    0.4542 O   0  0  0  0  0  0  0  0  0  0  0  0
   -1.9859    1.5771    0.8768 O   0  0  0  0  0  0  0  0  0  0  0  0
   -2.9800   -0.2329   -0.1819 N   0  0  0  0  0  0  0  0  0  0  0  0
   -4.2520    0.3323   -0.1155 N   0  0  0  0  0  0  0  0  0  0  0  0
    3.3557    1.2766   -1.6760 N   0  0  0  0  0  0  0  0  0  0  0  0
    1.7930   -0.0122    0.0566 C   0  0  0  0  0  0  0  0  0  0  0  0
   -0.5842   -0.1835    0.2175 C   0  0  0  0  0  0  0  0  0  0  0  0
    0.5474    0.6043    0.1744 C   0  0  0  0  0  0  0  0  0  0  0  0
    1.8791   -1.4026   -0.0154 C   0  0  0  0  0  0  0  0  0  0  0  0
   -0.5263   -1.5597    0.1481 C   0  0  0  0  0  0  0  0  0  0  0  0
   -1.9114    0.4725    0.3445 C   0  0  0  0  0  0  0  0  0  0  0  0
    0.7193   -2.1763    0.0305 C   0  0  0  0  0  0  0  0  0  0  0  0
   -5.1431   -0.5386    0.6482 C   0  0  0  0  0  0  0  0  0  0  0  0
   -4.7715    0.5495   -1.4644 C   0  0  0  0  0  0  0  0  0  0  0  0
  1 12  1  0
  2  3  2  0
  2  4  2  0
  2  8  1  0
  2  9  1  0
  5 14  2  0
  6  7  1  0
  6 14  1  0
  7 16  1  0
  7 17  1  0
  9 11  2  0
  9 12  1  0
 10 11  1  0
 10 13  2  0
 10 14  1  0
 12 15  2  0
 13 15  1  0
M  END
>  <PUBCHEM_COMPOUND_CID>  (1) 
18520

>  <PUBCHEM_CONFORMER_RMSD>  (1) 
0.6

>  <PUBCHEM_CONFORMER_DIVERSEORDER>  (1) 
2
8
9
6
1
12
11
3
5
4
7
10

>  <PUBCHEM_MMFF94_PARTIAL_CHARGES>  (1) 
23
1 -0.18
10 0.09
11 -0.15
12 0.18
13 -0.15
14 0.54
15 -0.15
16 0.27
17 0.27
18 0.15
19 0.15
2 1.45
20 0.15
21 0.37
28 0.42
29 0.42
3 -0.65
4 -0.65
5 -0.57
6 -0.42
7 -0.55
8 -0.98
9 -0.01

>  <PUBCHEM_EFFECTIVE_ROTOR_COUNT>  (1) 
4

>  <PUBCHEM_PHARMACOPHORE_FEATURES>  (1) 
6
1 3 acceptor
1 4 acceptor
1 5 acceptor
1 6 donor
1 8 donor
6 9 10 11 12 13 15 rings

>  <PUBCHEM_HEAVY_ATOM_COUNT>  (1) 
17

>  <PUBCHEM_ATOM_DEF_STEREO_COUNT>  (1) 
0

>  <PUBCHEM_ATOM_UDEF_STEREO_COUNT>  (1) 
0

>  <PUBCHEM_BOND_DEF_STEREO_COUNT>  (1) 
0

>  <PUBCHEM_BOND_UDEF_STEREO_COUNT>  (1) 
0

>  <PUBCHEM_ISOTOPIC_ATOM_COUNT>  (1) 
0

>  <PUBCHEM_COMPONENT_COUNT>  (1) 
1

>  <PUBCHEM_CACTVS_TAUTO_COUNT>  (1) 
2

>  <PUBCHEM_CONFORMER_ID>  (1) 
0000485800000002

>  <PUBCHEM_MMFF94_ENERGY>  (1) 
29.2747

>  <PUBCHEM_FEATURE_SELFOVERLAP>  (1) 
30.465

>  <PUBCHEM_SHAPE_FINGERPRINT>  (1) 
11471102 20 18411415086035599254
13380535 76 18411138056455723514
13583140 156 16878231938648330401
13760787 5 18201716228876576127
14251717 144 18411417280726925222
14251764 38 17677043551783062837
14897335 6 18412261757233691978
15536298 74 18272089357809875258
16945 1 18270411597766042890
17134986 127 18190752014783276020
18186145 218 17967814891064009475
19026448 4 17894630332030789375
200 152 18201712917282633075
20281475 54 17917423225307248023
20645477 70 18340205198341190615
21267235 1 18270409291242445954
21524375 3 18409168818208395586
221490 88 18410299073207055011
22959321 4 18339362959401459411
231179 274 17822004298585815846
23402539 116 18272641389740022572
23402655 69 18342734083869682181
23557571 272 17458061552346894221
23559900 14 18409445843483326546
25610 137 18412829075590606321
2748010 2 18336845176711308226
3060560 45 18343301479130014372
3071541 37 18408328787087790702
312423 11 18200046031484265899
3286 77 18336265618076856662
3545911 37 18408608079846588042
42630746 31 18412824681195815370
474 4 18114466733673968764
4990 188 17489875954923088453
5104073 3 18410015399539002755
5281201 14 18187083910490092677
537710 114 18411985779709612257
57096353 35 18273213088921666509
58051976 378 18272367572610807887
6333272 397 18410293627014054234
633830 44 17988373640852772909
7364860 26 18343021056531424378
81539 233 18187363233435213810
9999458 23 17167861980887237530

>  <PUBCHEM_SHAPE_MULTIPOLES>  (1) 
323.02
9.34
2.1
0.97
9.28
0.45
-0.34
-1.41
-1.24
-2.29
0.07
0.31
-0.34
0.2

>  <PUBCHEM_SHAPE_SELFOVERLAP>  (1) 
646.859

>  <PUBCHEM_SHAPE_VOLUME>  (1) 
193.1

>  <PUBCHEM_COORDINATE_TYPE>  (1) 
2
5
10

$$$$
