1853
     RDKit          3D

 15 17  0  0  0  0  0  0  0  0999 V2000
    1.4633    2.8492    0.0003 O   0  0  0  0  0  0  0  0  0  0  0  0
   -0.6130    1.8832   -0.0005 N   0  0  0  0  0  0  0  0  0  0  0  0
    0.5950   -0.6694    0.0000 C   0  0  0  0  0  0  0  0  0  0  0  0
   -0.8767   -0.5372    0.0000 C   0  0  0  0  0  0  0  0  0  0  0  0
    1.3974    0.4902    0.0005 C   0  0  0  0  0  0  0  0  0  0  0  0
   -1.4426    0.7495   -0.0004 C   0  0  0  0  0  0  0  0  0  0  0  0
    0.7679    1.8366    0.0001 C   0  0  0  0  0  0  0  0  0  0  0  0
    1.2599   -1.9096   -0.0008 C   0  0  0  0  0  0  0  0  0  0  0  0
   -1.7649   -1.6275    0.0008 C   0  0  0  0  0  0  0  0  0  0  0  0
    2.7984    0.4086    0.0006 C   0  0  0  0  0  0  0  0  0  0  0  0
   -2.8300    0.9434   -0.0006 C   0  0  0  0  0  0  0  0  0  0  0  0
    2.6562   -1.9910   -0.0007 C   0  0  0  0  0  0  0  0  0  0  0  0
   -3.1515   -1.4384    0.0007 C   0  0  0  0  0  0  0  0  0  0  0  0
    3.4243   -0.8335    0.0002 C   0  0  0  0  0  0  0  0  0  0  0  0
   -3.6837   -0.1542   -0.0001 C   0  0  0  0  0  0  0  0  0  0  0  0
  1  7  2  0
  2  6  1  0
  2  7  1  0
  3  4  1  0
  3  5  2  0
  3  8  1  0
  4  6  2  0
  4  9  1  0
  5  7  1  0
  5 10  1  0
  6 11  1  0
  8 12  2  0
  9 13  2  0
 10 14  2  0
 11 15  2  0
 12 14  1  0
 13 15  1  0
M  END
>  <PUBCHEM_COMPOUND_CID>  (1) 
1853

>  <PUBCHEM_CONFORMER_RMSD>  (1) 
0.4

>  <PUBCHEM_CONFORMER_DIVERSEORDER>  (1) 
1

>  <PUBCHEM_MMFF94_PARTIAL_CHARGES>  (1) 
22
1 -0.57
10 -0.15
11 -0.15
12 -0.15
13 -0.15
14 -0.15
15 -0.15
16 0.37
17 0.15
18 0.15
19 0.15
2 -0.55
20 0.15
21 0.15
22 0.15
23 0.15
24 0.15
5 0.09
6 0.12
7 0.54
8 -0.15
9 -0.15

>  <PUBCHEM_EFFECTIVE_ROTOR_COUNT>  (1) 
0

>  <PUBCHEM_PHARMACOPHORE_FEATURES>  (1) 
5
1 1 acceptor
1 2 donor
6 2 3 4 5 6 7 rings
6 3 5 8 10 12 14 rings
6 4 6 9 11 13 15 rings

>  <PUBCHEM_HEAVY_ATOM_COUNT>  (1) 
15

>  <PUBCHEM_ATOM_DEF_STEREO_COUNT>  (1) 
0

>  <PUBCHEM_ATOM_UDEF_STEREO_COUNT>  (1) 
0

>  <PUBCHEM_BOND_DEF_STEREO_COUNT>  (1) 
0

>  <PUBCHEM_BOND_UDEF_STEREO_COUNT>  (1) 
0

>  <PUBCHEM_ISOTOPIC_ATOM_COUNT>  (1) 
0

>  <PUBCHEM_COMPONENT_COUNT>  (1) 
1

>  <PUBCHEM_CACTVS_TAUTO_COUNT>  (1) 
2

>  <PUBCHEM_CONFORMER_ID>  (1) 
0000073D00000001

>  <PUBCHEM_MMFF94_ENERGY>  (1) 
46.4403

>  <PUBCHEM_FEATURE_SELFOVERLAP>  (1) 
25.418

>  <PUBCHEM_SHAPE_FINGERPRINT>  (1) 
10608611 8 18408880754714877581
10967382 1 18266741466074365190
11132069 177 18410849932684730018
11471102 20 18410006650347715623
12032990 46 18339366275058228486
12251169 10 18341620304392184379
12382932 28 18340484456929757506
13140716 1 18266740379452875529
13221675 6 18410293609802672671
14144814 61 18411700967564379171
14648413 74 18335984284659895993
15196674 1 18410856542459978855
15375462 189 18187650145935447723
15442244 35 18340208492469849625
15536298 74 18271807972995757848
16945 1 18410855473155572933
17990270 104 18409727395573769298
193761 8 17906453577673986790
19591789 44 16678673060671527227
200 152 18059563711990266303
20201158 50 18409165510941178755
20559304 39 18410858801691839390
20645477 70 18264479758414979295
21267235 1 18410865334295444231
21501502 16 18339083803938904717
221490 88 18263933304845606827
22721475 48 18410015420444093559
2334 1 17906453581773489441
23402539 116 18198610047649766559
23463225 33 18410012109045524326
23552423 10 18337391668291457357
23559900 14 18124307217352434034
2748010 2 18195522597602989878
3071541 12 18267026235444381940
3071541 158 18333449841564698596
335352 9 18266458694218011133
34934 24 18337943494089892298
5104073 3 18411136922320445195
528886 8 18411695478543433866
53812653 166 18342452681738682024
63268167 104 18410016532914502457
7364860 26 18341612689040849440
7832392 63 18340768143978051841
81228 2 18051142384480843498
8809292 202 18260553337466710387
9709674 26 18410859897104458247

>  <PUBCHEM_SHAPE_MULTIPOLES>  (1) 
297.84
5.47
2.5
0.6
1.35
0.89
0
-1.73
0
-0.83
0
0.01
-0.03
0

>  <PUBCHEM_SHAPE_SELFOVERLAP>  (1) 
669.89

>  <PUBCHEM_SHAPE_VOLUME>  (1) 
155.3

>  <PUBCHEM_COORDINATE_TYPE>  (1) 
2
5
10

$$$$
