18538
     RDKit          3D

 14 14  0  0  1  0  0  0  0  0999 V2000
   -1.7783   -1.6328   -1.4440 O   0  0  0  0  0  0  0  0  0  0  0  0
    2.8999    1.6371   -1.0117 O   0  0  0  0  0  0  0  0  0  0  0  0
    3.9259   -0.2241    0.7799 O   0  0  0  0  0  0  0  0  0  0  0  0
   -3.8528   -0.4416    0.0398 N   0  0  0  0  0  0  0  0  0  0  0  0
   -2.4640   -0.2918    0.4947 C   0  0  0  0  0  0  0  0  0  0  0  0
   -1.5107   -0.4332   -0.7189 C   0  0  0  0  0  0  0  0  0  0  0  0
   -2.3107    1.0486    1.2412 C   0  0  0  0  0  0  0  0  0  0  0  0
   -0.0481   -0.3742   -0.3182 C   0  0  0  0  0  0  0  0  0  0  0  0
   -2.5588    2.2626    0.3520 C   0  0  0  0  0  0  0  0  0  0  0  0
    0.7558    0.6129   -0.8557 C   0  0  0  0  0  0  0  0  0  0  0  0
    0.4414   -1.3092    0.5739 C   0  0  0  0  0  0  0  0  0  0  0  0
    2.1000    0.6674   -0.4870 C   0  0  0  0  0  0  0  0  0  0  0  0
    1.7856   -1.2550    0.9423 C   0  0  0  0  0  0  0  0  0  0  0  0
    2.6150   -0.2667    0.4119 C   0  0  0  0  0  0  0  0  0  0  0  0
  1  6  1  0
  2 12  1  0
  3 14  1  0
  4  5  1  0
  5  6  1  0
  5  7  1  0
  6  8  1  0
  7  9  1  0
  8 10  2  0
  8 11  1  0
 10 12  1  0
 11 13  2  0
 12 14  2  0
 13 14  1  0
M  END
>  <PUBCHEM_COMPOUND_CID>  (1) 
18538

>  <PUBCHEM_CONFORMER_RMSD>  (1) 
0.6

>  <PUBCHEM_CONFORMER_DIVERSEORDER>  (1) 
2
26
37
15
16
9
40
35
12
34
18
7
30
38
32
19
28
24
11
29
33
36
13
39
31
21
8
14
17
10
27
3
22
25
20
4
23
6
1
5

>  <PUBCHEM_MMFF94_PARTIAL_CHARGES>  (1) 
20
1 -0.68
10 -0.15
11 -0.15
12 0.08
13 -0.15
14 0.08
19 0.36
2 -0.53
20 0.36
24 0.15
25 0.15
26 0.4
27 0.15
28 0.45
29 0.45
3 -0.53
4 -0.99
5 0.27
6 0.42
8 -0.14

>  <PUBCHEM_EFFECTIVE_ROTOR_COUNT>  (1) 
3

>  <PUBCHEM_PHARMACOPHORE_FEATURES>  (1) 
8
1 1 acceptor
1 1 donor
1 2 donor
1 3 donor
1 4 cation
1 4 donor
1 9 hydrophobe
6 8 10 11 12 13 14 rings

>  <PUBCHEM_HEAVY_ATOM_COUNT>  (1) 
14

>  <PUBCHEM_ATOM_DEF_STEREO_COUNT>  (1) 
0

>  <PUBCHEM_ATOM_UDEF_STEREO_COUNT>  (1) 
2

>  <PUBCHEM_BOND_DEF_STEREO_COUNT>  (1) 
0

>  <PUBCHEM_BOND_UDEF_STEREO_COUNT>  (1) 
0

>  <PUBCHEM_ISOTOPIC_ATOM_COUNT>  (1) 
0

>  <PUBCHEM_COMPONENT_COUNT>  (1) 
1

>  <PUBCHEM_CACTVS_TAUTO_COUNT>  (1) 
10

>  <PUBCHEM_CONFORMER_ID>  (1) 
0000486A00000002

>  <PUBCHEM_MMFF94_ENERGY>  (1) 
27.0365

>  <PUBCHEM_FEATURE_SELFOVERLAP>  (1) 
40.604

>  <PUBCHEM_SHAPE_FINGERPRINT>  (1) 
10219947 1 17458065984183353206
10922523 26 18058738996153391734
11471102 22 17313105228726594738
12138202 97 16128360567455978156
12162725 195 18334581221986830921
12251169 10 18115031801067385697
124424 183 15984814892602968122
12491281 212 18336275625397875656
12696612 119 18041569039716935452
12932764 1 16989128651313508614
13296909 8 18271791402753499672
13538477 17 18341329006535351303
13581323 91 17917706898600403943
13764800 53 17488758761505831473
15209294 21 18341036450980743832
15309172 13 17676493851639711994
15375462 478 18408885127049405733
15775835 57 18341061739273688521
16945 1 18060422451407955767
17844478 74 16370443345552716158
18175812 5 16008752432743471003
200 152 18261100903290193983
20201158 50 16443061677572650035
20279233 1 15357698608314437649
20281407 28 14779554473628196419
20559304 39 18411421713032896048
21061003 4 17023184851710966866
22445834 79 18261388906031619283
22802520 49 15624841343567208745
23402539 116 17560506366194611861
23557571 272 16845568763843653441
2748010 2 17609189296640961534
305870 269 18199469865742778023
63268167 104 18186798123165801852
77492 1 18411416236928533631
81228 2 16987137547926286607

>  <PUBCHEM_SHAPE_MULTIPOLES>  (1) 
265.52
5.71
1.73
1.17
0.33
0.57
-0.08
1.06
0.99
-0.57
-0.1
-0.09
-0.1
-1.18

>  <PUBCHEM_SHAPE_SELFOVERLAP>  (1) 
543.927

>  <PUBCHEM_SHAPE_VOLUME>  (1) 
154.1

>  <PUBCHEM_COORDINATE_TYPE>  (1) 
2
5
10

$$$$
