18533
     RDKit          3D

 20 23  0  0  1  0  0  0  0  0999 V2000
   -1.5212   -1.8594    0.4547 N   0  0  0  0  0  0  0  0  0  0  0  0
    0.2137   -0.3629   -0.3060 C   0  0  0  0  0  0  0  0  0  0  0  0
   -2.3088   -1.0231   -0.5326 C   0  0  0  0  0  0  0  0  0  0  0  0
   -0.1132   -0.8146   -1.7772 C   0  0  0  0  0  0  0  0  0  0  0  0
   -1.6077   -1.2327   -1.8917 C   0  0  0  0  0  0  0  0  0  0  0  0
   -0.2511   -1.5952    0.5321 C   0  0  0  0  0  0  0  0  0  0  0  0
   -0.7712    0.8077   -0.0420 C   0  0  0  0  0  0  0  0  0  0  0  0
   -2.1270    0.4221   -0.1475 C   0  0  0  0  0  0  0  0  0  0  0  0
    1.6542   -0.0245   -0.1461 C   0  0  0  0  0  0  0  0  0  0  0  0
    0.6582   -2.3911    1.4138 C   0  0  0  0  0  0  0  0  0  0  0  0
   -0.4649    2.1404    0.2257 C   0  0  0  0  0  0  0  0  0  0  0  0
   -2.2490   -2.8944    1.2275 C   0  0  0  0  0  0  0  0  0  0  0  0
   -3.1592    1.3325    0.0486 C   0  0  0  0  0  0  0  0  0  0  0  0
    2.1341    0.4331    1.0830 C   0  0  0  0  0  0  0  0  0  0  0  0
    2.5308   -0.1641   -1.2243 C   0  0  0  0  0  0  0  0  0  0  0  0
   -1.5012    3.0578    0.4253 C   0  0  0  0  0  0  0  0  0  0  0  0
   -2.8389    2.6559    0.3431 C   0  0  0  0  0  0  0  0  0  0  0  0
    3.4842    0.7500    1.2331 C   0  0  0  0  0  0  0  0  0  0  0  0
    3.8808    0.1528   -1.0741 C   0  0  0  0  0  0  0  0  0  0  0  0
    4.3574    0.6098    0.1547 C   0  0  0  0  0  0  0  0  0  0  0  0
  1  3  1  0
  1  6  2  0
  1 12  1  0
  2  4  1  0
  2  6  1  0
  2  7  1  0
  2  9  1  0
  3  5  1  0
  3  8  1  0
  4  5  1  0
  6 10  1  0
  7  8  2  0
  7 11  1  0
  8 13  1  0
  9 14  2  0
  9 15  1  0
 11 16  2  0
 13 17  2  0
 14 18  1  0
 15 19  2  0
 16 17  1  0
 18 20  2  0
 19 20  1  0
M  CHG  1   1   1
M  END
>  <PUBCHEM_COMPOUND_CID>  (1) 
18533

>  <PUBCHEM_CONFORMER_RMSD>  (1) 
0.6

>  <PUBCHEM_CONFORMER_DIVERSEORDER>  (1) 
1
2

>  <PUBCHEM_MMFF94_PARTIAL_CHARGES>  (1) 
27
1 -0.09
10 0.06
11 -0.15
12 0.35
13 -0.15
14 -0.15
15 -0.15
16 -0.15
17 -0.15
18 -0.15
19 -0.15
2 0.35
20 -0.15
29 0.15
3 0.49
33 0.15
34 0.15
35 0.15
36 0.15
37 0.15
38 0.15
39 0.15
40 0.15
6 0.28
7 -0.14
8 -0.14
9 -0.14

>  <PUBCHEM_EFFECTIVE_ROTOR_COUNT>  (1) 
1.4

>  <PUBCHEM_PHARMACOPHORE_FEATURES>  (1) 
3
6 7 8 11 13 16 17 rings
6 9 14 15 18 19 20 rings
8 1 2 3 4 5 6 7 8 rings

>  <PUBCHEM_HEAVY_ATOM_COUNT>  (1) 
20

>  <PUBCHEM_ATOM_DEF_STEREO_COUNT>  (1) 
0

>  <PUBCHEM_ATOM_UDEF_STEREO_COUNT>  (1) 
2

>  <PUBCHEM_BOND_DEF_STEREO_COUNT>  (1) 
0

>  <PUBCHEM_BOND_UDEF_STEREO_COUNT>  (1) 
0

>  <PUBCHEM_ISOTOPIC_ATOM_COUNT>  (1) 
0

>  <PUBCHEM_COMPONENT_COUNT>  (1) 
1

>  <PUBCHEM_CACTVS_TAUTO_COUNT>  (1) 
1

>  <PUBCHEM_CONFORMER_ID>  (1) 
0000486500000001

>  <PUBCHEM_MMFF94_ENERGY>  (1) 
90.0469

>  <PUBCHEM_FEATURE_SELFOVERLAP>  (1) 
15.233

>  <PUBCHEM_SHAPE_FINGERPRINT>  (1) 
10863032 1 18339925896385465751
10948715 1 18269558226007609101
1100329 8 18337114570208765993
11315181 36 17968652835447842856
11640471 11 17822018588153363620
12173636 292 18334016124808088004
12403814 3 17702664500392099982
12423570 1 10408941834600420391
12532896 13 18339364037327305349
12788726 201 17972060263919208762
13024252 1 18114738330252441471
13027679 85 18046342200324362995
13140716 1 18266743661151242233
13538477 17 18186803590949339344
13583140 156 16588313795137333493
13764800 53 18335990812962589720
13878862 14 16682040238098318321
14178342 30 18260544533205564794
14787075 74 17105376966803096608
14817 1 8046213722970575119
15309172 13 17458341927421645018
15534591 1 18339922623620217375
16945 1 18410015442082421405
18219364 16 17131841979681519630
19049666 15 18271817778596109214
19868273 325 18200586037617020396
20510252 161 18189340245773508906
20602899 9 16056591041427984607
20645476 183 18187371982251947245
21041028 32 18123195868488263577
21524375 3 18054227618192671837
22802520 49 18200887209656609198
2306618 200 17677033733355194710
2334 1 18051126192401864033
23419403 2 17700975698256245547
23493267 7 18411144601895789512
23557571 272 18271253806355952148
23559900 14 18341899550813579470
25 1 17628925529737256316
2748010 2 18125990809497384041
350125 39 17903359203887033345
404807 14 14898912757810769534
427121 178 18122930645530963073
4340502 62 17895761682472806801
539174 4 17679281006531949506
69090 78 17846772979723790909
7364860 26 17477485305192227973
77492 1 17313384565120795664
81228 2 18412260661858886449
9709674 26 18343588425995507742
9999458 23 17686064890159039135

>  <PUBCHEM_SHAPE_MULTIPOLES>  (1) 
406.61
5.71
3.01
1.46
5.51
0.29
-0.36
2.1
0.1
-3.18
1.25
0.32
-0.77
0.08

>  <PUBCHEM_SHAPE_SELFOVERLAP>  (1) 
906.208

>  <PUBCHEM_SHAPE_VOLUME>  (1) 
213.9

>  <PUBCHEM_COORDINATE_TYPE>  (1) 
2
5
10

$$$$
