18531
     RDKit          3D

  8  7  0  0  0  0  0  0  0  0999 V2000
    1.9147    1.0531   -0.2358 O   0  0  0  0  0  0  0  0  0  0  0  0
   -0.0988   -0.1110   -0.1666 N   0  0  0  0  0  0  0  0  0  0  0  0
   -0.8845    1.0593   -0.5555 C   0  0  0  0  0  0  0  0  0  0  0  0
   -1.3342    1.8481    0.6627 C   0  0  0  0  0  0  0  0  0  0  0  0
    1.2903    0.0065   -0.0393 C   0  0  0  0  0  0  0  0  0  0  0  0
   -0.8064   -1.2719    0.0496 C   0  0  0  0  0  0  0  0  0  0  0  0
    2.0514   -1.2355    0.3648 C   0  0  0  0  0  0  0  0  0  0  0  0
   -2.1326   -1.3486   -0.0798 C   0  0  0  0  0  0  0  0  0  0  0  0
  1  5  2  0
  2  3  1  0
  2  5  1  0
  2  6  1  0
  3  4  1  0
  5  7  1  0
  6  8  2  0
M  END
>  <PUBCHEM_COMPOUND_CID>  (1) 
18531

>  <PUBCHEM_CONFORMER_RMSD>  (1) 
0.6

>  <PUBCHEM_CONFORMER_DIVERSEORDER>  (1) 
1
8
7
4
5
3
6
2

>  <PUBCHEM_MMFF94_PARTIAL_CHARGES>  (1) 
10
1 -0.57
14 0.15
18 0.15
19 0.15
2 -0.47
3 0.3
5 0.57
6 -0.04
7 0.06
8 -0.3

>  <PUBCHEM_EFFECTIVE_ROTOR_COUNT>  (1) 
3

>  <PUBCHEM_PHARMACOPHORE_FEATURES>  (1) 
1
1 1 acceptor

>  <PUBCHEM_HEAVY_ATOM_COUNT>  (1) 
8

>  <PUBCHEM_ATOM_DEF_STEREO_COUNT>  (1) 
0

>  <PUBCHEM_ATOM_UDEF_STEREO_COUNT>  (1) 
0

>  <PUBCHEM_BOND_DEF_STEREO_COUNT>  (1) 
0

>  <PUBCHEM_BOND_UDEF_STEREO_COUNT>  (1) 
0

>  <PUBCHEM_ISOTOPIC_ATOM_COUNT>  (1) 
0

>  <PUBCHEM_COMPONENT_COUNT>  (1) 
1

>  <PUBCHEM_CACTVS_TAUTO_COUNT>  (1) 
1

>  <PUBCHEM_CONFORMER_ID>  (1) 
0000486300000001

>  <PUBCHEM_MMFF94_ENERGY>  (1) 
19.826

>  <PUBCHEM_FEATURE_SELFOVERLAP>  (1) 
5.074

>  <PUBCHEM_SHAPE_FINGERPRINT>  (1) 
18185500 45 18050852409537351319
21040471 1 18052540963065736924
23552333 60 17968647328186615018
23552423 10 18187365441238269118
24536 1 18341316813128199726
29004967 10 17971755729231463427
5084963 1 17983280539509824645

>  <PUBCHEM_SHAPE_MULTIPOLES>  (1) 
153.79
2.77
1.96
0.72
0.88
0.14
0.03
-0.41
0.21
-0.88
0.19
-0.09
0.12
-0.33

>  <PUBCHEM_SHAPE_SELFOVERLAP>  (1) 
283.932

>  <PUBCHEM_SHAPE_VOLUME>  (1) 
98.3

>  <PUBCHEM_COORDINATE_TYPE>  (1) 
2
5
10

$$$$
