18536
     RDKit          3D

 21 22  0  0  1  0  0  0  0  0999 V2000
    1.7462   -0.4526   -1.9557 O   0  0  0  0  0  0  0  0  0  0  0  0
   -3.6393    0.2053    0.1125 N   0  0  0  0  0  0  0  0  0  0  0  0
    1.4286   -1.4807    0.1625 C   0  0  0  0  0  0  0  0  0  0  0  0
    0.9559   -2.7691   -0.5036 C   0  0  0  0  0  0  0  0  0  0  0  0
    2.9183   -1.7436    0.3586 C   0  0  0  0  0  0  0  0  0  0  0  0
    1.7225   -3.8675    0.2266 C   0  0  0  0  0  0  0  0  0  0  0  0
    2.9799   -3.2046    0.7920 C   0  0  0  0  0  0  0  0  0  0  0  0
    1.1434   -0.2393   -0.6647 C   0  0  0  0  0  0  0  0  0  0  0  0
    1.7264    1.0660   -0.1102 C   0  0  0  0  0  0  0  0  0  0  0  0
   -0.3214   -0.0822   -0.8508 C   0  0  0  0  0  0  0  0  0  0  0  0
    1.2641    1.5291    1.0985 C   0  0  0  0  0  0  0  0  0  0  0  0
    2.6877    1.7187   -0.8445 C   0  0  0  0  0  0  0  0  0  0  0  0
   -1.5085    0.0347   -0.9941 C   0  0  0  0  0  0  0  0  0  0  0  0
    1.7946    2.7163    1.6030 C   0  0  0  0  0  0  0  0  0  0  0  0
    3.2181    2.9060   -0.3397 C   0  0  0  0  0  0  0  0  0  0  0  0
   -2.9556    0.1796   -1.1741 C   0  0  0  0  0  0  0  0  0  0  0  0
    2.7716    3.4047    0.8841 C   0  0  0  0  0  0  0  0  0  0  0  0
   -3.3938   -1.0341    0.8525 C   0  0  0  0  0  0  0  0  0  0  0  0
   -5.0777    0.4095   -0.0711 C   0  0  0  0  0  0  0  0  0  0  0  0
   -4.1015   -1.0202    2.1969 C   0  0  0  0  0  0  0  0  0  0  0  0
   -5.3596    1.7241   -0.7787 C   0  0  0  0  0  0  0  0  0  0  0  0
  1  8  1  0
  2 16  1  0
  2 18  1  0
  2 19  1  0
  3  4  1  0
  3  5  1  0
  3  8  1  0
  4  6  1  0
  5  7  1  0
  6  7  1  0
  8  9  1  0
  8 10  1  0
  9 11  2  0
  9 12  1  0
 10 13  3  0
 11 14  1  0
 12 15  2  0
 13 16  1  0
 14 17  2  0
 15 17  1  0
 18 20  1  0
 19 21  1  0
M  END
>  <PUBCHEM_COMPOUND_CID>  (1) 
18536

>  <PUBCHEM_CONFORMER_RMSD>  (1) 
0.8

>  <PUBCHEM_CONFORMER_DIVERSEORDER>  (1) 
1
34
22
10
33
31
16
26
35
5
36
25
30
21
12
28
20
7
13
27
17
15
4
32
29
18
3
14
19
2
9
11
23
8
24
6

>  <PUBCHEM_MMFF94_PARTIAL_CHARGES>  (1) 
20
1 -0.68
10 -0.2
11 -0.15
12 -0.15
13 -0.2
14 -0.15
15 -0.15
16 0.47
17 -0.15
18 0.27
19 0.27
2 -0.81
31 0.4
32 0.15
33 0.15
34 0.15
35 0.15
38 0.15
8 0.62
9 -0.14

>  <PUBCHEM_EFFECTIVE_ROTOR_COUNT>  (1) 
6

>  <PUBCHEM_PHARMACOPHORE_FEATURES>  (1) 
5
1 1 acceptor
1 1 donor
1 2 cation
5 3 4 5 6 7 rings
6 9 11 12 14 15 17 rings

>  <PUBCHEM_HEAVY_ATOM_COUNT>  (1) 
21

>  <PUBCHEM_ATOM_DEF_STEREO_COUNT>  (1) 
0

>  <PUBCHEM_ATOM_UDEF_STEREO_COUNT>  (1) 
1

>  <PUBCHEM_BOND_DEF_STEREO_COUNT>  (1) 
0

>  <PUBCHEM_BOND_UDEF_STEREO_COUNT>  (1) 
0

>  <PUBCHEM_ISOTOPIC_ATOM_COUNT>  (1) 
0

>  <PUBCHEM_COMPONENT_COUNT>  (1) 
1

>  <PUBCHEM_CACTVS_TAUTO_COUNT>  (1) 
1

>  <PUBCHEM_CONFORMER_ID>  (1) 
0000486800000001

>  <PUBCHEM_MMFF94_ENERGY>  (1) 
49.3901

>  <PUBCHEM_FEATURE_SELFOVERLAP>  (1) 
25.371

>  <PUBCHEM_SHAPE_FINGERPRINT>  (1) 
10165383 225 18048900750675737316
1100329 8 18340198679076609914
11405975 8 18337111168863218633
11475781 23 17096624610192812375
12549972 3 18041010492648305665
12730499 353 18339085994646512929
12788726 201 17183612205112666514
13004483 165 17691388729492590386
13134695 92 18267012860794903102
13140716 1 18338223985756624886
13294875 104 18058435664415263280
13533116 47 18409167685017368443
13583140 156 18411704301012758767
13878862 14 18194378045503299981
13955234 65 18409728452446908699
14178342 30 18043250347973590039
14466204 15 17763737698992096713
14713325 29 16468110012790682912
14955137 171 18341050718825716582
15238133 3 18051984614820174997
15295992 7 18264496092444559905
15927050 60 18195805396326803302
17868525 174 18122897630196817373
1813 80 17772759268996589574
18785283 64 18261388988136930272
19078846 21 18056769727910085061
19765921 60 17986388008446218424
19784866 9 18341325673836044816
20369508 70 18339358548686253015
20645477 70 18272373053458511487
20681651 13 18201162152521222027
21120745 212 17621618120394524958
21344244 78 17985809472362260283
21401589 2 17555170624859058576
21524375 3 17913760889092164820
2255824 54 18342171159280058326
23557571 272 17458349675827620233
23559900 14 18040720242895081925
25 1 17772483519079363116
427121 178 18122923180656113322
458136 41 18264497345867868638
469060 322 17684642517693482231
495365 180 18410283710377594735
5104073 3 18408892811468682849
5895379 119 16701192858605912377
633830 44 18128814333903931860
6442390 28 18049451640381973626
6443956 14 18121215372784123415
7364860 26 18410288086590703318
7808743 9 17616255123048895564
81228 2 17188120198839305110
9841814 1 18269840817538796727

>  <PUBCHEM_SHAPE_MULTIPOLES>  (1) 
421.32
8.61
4.39
1.53
15.33
1.31
0.35
-2.86
0.92
-6.57
1.25
0.64
-0.2
1.11

>  <PUBCHEM_SHAPE_SELFOVERLAP>  (1) 
867.339

>  <PUBCHEM_SHAPE_VOLUME>  (1) 
243.7

>  <PUBCHEM_COORDINATE_TYPE>  (1) 
2
5
10

$$$$
