18549
     RDKit          3D

 17 18  0  0  1  0  0  0  0  0999 V2000
   -0.8121    1.4776   -1.0062 O   0  0  0  0  0  0  0  0  0  0  0  0
   -1.9502   -1.1837   -0.5785 N   0  0  0  0  0  0  0  0  0  0  0  0
   -0.6708   -0.7249   -0.0561 C   0  0  0  0  0  0  0  0  0  0  0  0
    0.4794   -1.2088   -0.9652 C   0  0  0  0  0  0  0  0  0  0  0  0
   -0.6790    0.7857    0.1291 C   0  0  0  0  0  0  0  0  0  0  0  0
   -3.0373   -0.8361    0.3287 C   0  0  0  0  0  0  0  0  0  0  0  0
    1.8496   -0.8603   -0.4303 C   0  0  0  0  0  0  0  0  0  0  0  0
   -4.3725   -1.3136   -0.2366 C   0  0  0  0  0  0  0  0  0  0  0  0
   -0.5763    1.5459    1.2279 C   0  0  0  0  0  0  0  0  0  0  0  0
    2.4306    0.3445   -0.7896 C   0  0  0  0  0  0  0  0  0  0  0  0
    2.4964   -1.7524    0.4088 C   0  0  0  0  0  0  0  0  0  0  0  0
   -5.5269   -0.9438    0.6820 C   0  0  0  0  0  0  0  0  0  0  0  0
   -0.6514    2.8750    0.7470 C   0  0  0  0  0  0  0  0  0  0  0  0
   -0.7946    2.7798   -0.6177 C   0  0  0  0  0  0  0  0  0  0  0  0
    3.6948    0.6664   -0.2959 C   0  0  0  0  0  0  0  0  0  0  0  0
    3.7606   -1.4303    0.9025 C   0  0  0  0  0  0  0  0  0  0  0  0
    4.3598   -0.2210    0.5501 C   0  0  0  0  0  0  0  0  0  0  0  0
  1  5  1  0
  1 14  1  0
  2  3  1  0
  2  6  1  0
  3  4  1  0
  3  5  1  0
  4  7  1  0
  5  9  2  0
  6  8  1  0
  7 10  2  0
  7 11  1  0
  8 12  1  0
  9 13  1  0
 10 15  1  0
 11 16  2  0
 13 14  2  0
 15 17  2  0
 16 17  1  0
M  END
>  <PUBCHEM_COMPOUND_CID>  (1) 
18549

>  <PUBCHEM_CONFORMER_RMSD>  (1) 
0.8

>  <PUBCHEM_CONFORMER_DIVERSEORDER>  (1) 
1
3
53
52
34
50
37
25
32
42
43
12
39
33
30
5
49
23
19
17
44
28
22
55
38
54
24
20
11
45
6
13
10
21
36
46
16
48
2
35
15
26
18
7
4
56
14
40
31
47
51
27
9
29
41
8

>  <PUBCHEM_MMFF94_PARTIAL_CHARGES>  (1) 
24
1 -0.28
10 -0.15
11 -0.15
13 -0.15
14 -0.01
15 -0.15
16 -0.15
17 -0.15
2 -0.9
21 0.36
26 0.15
27 0.15
28 0.15
3 0.45
32 0.15
33 0.15
34 0.15
35 0.15
36 0.15
4 0.14
5 -0.04
6 0.27
7 -0.14
9 -0.15

>  <PUBCHEM_EFFECTIVE_ROTOR_COUNT>  (1) 
6

>  <PUBCHEM_PHARMACOPHORE_FEATURES>  (1) 
6
1 1 acceptor
1 12 hydrophobe
1 2 cation
1 2 donor
5 1 5 9 13 14 rings
6 7 10 11 15 16 17 rings

>  <PUBCHEM_HEAVY_ATOM_COUNT>  (1) 
17

>  <PUBCHEM_ATOM_DEF_STEREO_COUNT>  (1) 
0

>  <PUBCHEM_ATOM_UDEF_STEREO_COUNT>  (1) 
1

>  <PUBCHEM_BOND_DEF_STEREO_COUNT>  (1) 
0

>  <PUBCHEM_BOND_UDEF_STEREO_COUNT>  (1) 
0

>  <PUBCHEM_ISOTOPIC_ATOM_COUNT>  (1) 
0

>  <PUBCHEM_COMPONENT_COUNT>  (1) 
1

>  <PUBCHEM_CACTVS_TAUTO_COUNT>  (1) 
1

>  <PUBCHEM_CONFORMER_ID>  (1) 
0000487500000001

>  <PUBCHEM_MMFF94_ENERGY>  (1) 
21.3764

>  <PUBCHEM_FEATURE_SELFOVERLAP>  (1) 
30.446

>  <PUBCHEM_SHAPE_FINGERPRINT>  (1) 
10162869 55 18059863896762819075
10688039 33 18113900464159467725
11132069 177 18129951078650110489
13132413 78 18272941535435655285
13134695 92 18339076111937476893
13140716 1 18124587841677453538
13764800 53 17702382849580154176
13899415 154 18199201744019558537
14170010 4 18270114747212503459
14178342 30 18048586028858511082
14787075 74 18188489206404122738
15342168 16 15194421187967777930
15375462 189 18338514243767402095
1601671 61 18131359622023373943
17492 89 18264202505043552298
18186145 218 11242251904661173991
18222031 100 18130789001147832855
18785283 64 17755871058267398341
200 152 18186235126062874074
20097449 115 18411979195841050609
20510252 161 18342172224648140890
20671657 1 17981891053834705965
21250096 35 18409448115715957835
21296965 67 18410573998384584165
23402539 116 18343012307160998191
23419403 2 18193250053240274725
23557571 272 18271815583545872870
23558518 356 18047199556995094795
23559900 14 18123742055005519638
26918003 58 17822007631438687946
31174 14 17988070188612701272
312423 11 18262809454197190582
3250762 1 17554343418579280199
350125 39 18056770840533734702
5104073 3 18197484135797142954
5374978 207 18410007745601533290
537710 114 18337678619093040212
6049 1 17701266828314480790
68521 5 18410577254001592565
69474 34 18130781304339383801
7097593 13 17756985602180639906
7164475 11 18263363603266458094
7495541 125 18043540619328302539
81228 2 18194988265301563379

>  <PUBCHEM_SHAPE_MULTIPOLES>  (1) 
339
8.32
2.63
1.04
4.89
2.23
-0.05
-5.28
-1.84
0.84
-0.16
-0.12
0.15
-0.35

>  <PUBCHEM_SHAPE_SELFOVERLAP>  (1) 
706.727

>  <PUBCHEM_SHAPE_VOLUME>  (1) 
194

>  <PUBCHEM_COORDINATE_TYPE>  (1) 
2
5
10

$$$$
