18544
     RDKit          3D

 19 20  0  0  0  0  0  0  0  0999 V2000
    5.8908    0.2164    0.7544 O   0  0  0  0  0  0  0  0  0  0  0  0
   -5.1659    1.6790    0.0748 O   0  0  0  0  0  0  0  0  0  0  0  0
    1.1319   -0.2591    1.3198 N   0  0  0  0  0  0  0  0  0  0  0  0
   -0.7955   -0.3049   -0.1680 N   0  0  0  0  0  0  0  0  0  0  0  0
    2.2548   -0.0844    0.4844 C   0  0  0  0  0  0  0  0  0  0  0  0
    3.5330   -0.0188    1.0390 C   0  0  0  0  0  0  0  0  0  0  0  0
    4.6438    0.1527    0.2130 C   0  0  0  0  0  0  0  0  0  0  0  0
    2.0873    0.0215   -0.8963 C   0  0  0  0  0  0  0  0  0  0  0  0
   -2.1877   -0.4338   -0.1539 C   0  0  0  0  0  0  0  0  0  0  0  0
    4.4763    0.2587   -1.1677 C   0  0  0  0  0  0  0  0  0  0  0  0
    3.1982    0.1931   -1.7224 C   0  0  0  0  0  0  0  0  0  0  0  0
   -2.9920    0.7006   -0.0440 C   0  0  0  0  0  0  0  0  0  0  0  0
   -4.3808    0.5724   -0.0312 C   0  0  0  0  0  0  0  0  0  0  0  0
   -2.7725   -1.6965   -0.2509 C   0  0  0  0  0  0  0  0  0  0  0  0
   -4.9655   -0.6903   -0.1281 C   0  0  0  0  0  0  0  0  0  0  0  0
   -4.1614   -1.8247   -0.2380 C   0  0  0  0  0  0  0  0  0  0  0  0
   -0.1989   -0.3501    0.9821 C   0  0  0  0  0  0  0  0  0  0  0  0
    6.9821    0.3928   -0.1477 C   0  0  0  0  0  0  0  0  0  0  0  0
   -6.5781    1.4754    0.0807 C   0  0  0  0  0  0  0  0  0  0  0  0
  1  7  1  0
  1 18  1  0
  2 13  1  0
  2 19  1  0
  3  5  1  0
  3 17  1  0
  4  9  1  0
  4 17  2  0
  5  6  2  0
  5  8  1  0
  6  7  1  0
  7 10  2  0
  8 11  2  0
  9 12  2  0
  9 14  1  0
 10 11  1  0
 12 13  1  0
 13 15  2  0
 14 16  2  0
 15 16  1  0
M  END
>  <PUBCHEM_COMPOUND_CID>  (1) 
18544

>  <PUBCHEM_CONFORMER_RMSD>  (1) 
0.6

>  <PUBCHEM_CONFORMER_DIVERSEORDER>  (1) 
1
148
114
134
16
107
120
69
127
100
116
93
138
104
141
92
142
90
109
72
88
110
80
32
94
78
119
113
103
99
139
7
66
118
89
11
115
149
18
135
95
126
98
87
124
84
122
146
106
121
123
5
86
41
102
133
75
145
24
17
58
40
137
112
65
21
91
60
73
143
15
67
85
12
144
28
74
111
117
29
136
10
59
9
131
57
130
53
56
54
97
77
50
46
51
76
101
147
38
45
140
52
70
129
37
49
62
108
71
132
61
55
125
43
44
22
81
83
82
23
105
31
79
30
128
42
6
26
39
64
8
35
63
68
25
27
96
48
36
47
20
19
33
14
34
3
4
13
2

>  <PUBCHEM_MMFF94_PARTIAL_CHARGES>  (1) 
29
1 -0.36
10 -0.15
11 -0.15
12 -0.15
13 0.08
14 -0.15
15 -0.15
16 -0.15
17 0.44
18 0.28
19 0.28
2 -0.36
20 0.15
21 0.15
22 0.4
23 0.15
24 0.15
25 0.15
26 0.15
27 0.15
28 0.15
29 0.06
3 -0.55
4 -0.63
5 0.1
6 -0.15
7 0.08
8 -0.15
9 0.18

>  <PUBCHEM_EFFECTIVE_ROTOR_COUNT>  (1) 
5

>  <PUBCHEM_PHARMACOPHORE_FEATURES>  (1) 
6
1 1 acceptor
1 2 acceptor
1 3 donor
3 3 4 17 cation
6 5 6 7 8 10 11 rings
6 9 12 13 14 15 16 rings

>  <PUBCHEM_HEAVY_ATOM_COUNT>  (1) 
19

>  <PUBCHEM_ATOM_DEF_STEREO_COUNT>  (1) 
0

>  <PUBCHEM_ATOM_UDEF_STEREO_COUNT>  (1) 
0

>  <PUBCHEM_BOND_DEF_STEREO_COUNT>  (1) 
0

>  <PUBCHEM_BOND_UDEF_STEREO_COUNT>  (1) 
0

>  <PUBCHEM_ISOTOPIC_ATOM_COUNT>  (1) 
0

>  <PUBCHEM_COMPONENT_COUNT>  (1) 
1

>  <PUBCHEM_CACTVS_TAUTO_COUNT>  (1) 
1

>  <PUBCHEM_CONFORMER_ID>  (1) 
0000487000000001

>  <PUBCHEM_MMFF94_ENERGY>  (1) 
76.7566

>  <PUBCHEM_FEATURE_SELFOVERLAP>  (1) 
30.446

>  <PUBCHEM_SHAPE_FINGERPRINT>  (1) 
10354089 29 16443067184121578360
10447042 23 15769779027002705924
106641 1 8646477510878435382
10730089 173 18408604738768415049
10912923 1 17676482878114250275
11287383 113 18059856216131574674
11315181 36 18113899407507633911
11719270 70 17131833128250295662
11796584 16 18272934916991714374
12091667 2 18411699915276325107
12236239 1 18040433295824093698
12390115 104 17986681364368632785
12516196 113 12895352183740296922
12616971 3 17240205447346916447
13533116 47 17894902998440942450
14251752 14 18342739577022148882
14341114 176 13334742336130855958
14386348 63 17275108353027983518
14573314 32 17561369456868138413
15183329 4 17775288218337751547
15242439 84 17632574950805904227
16079462 125 17632566154512649560
16988056 13 15452823540066884093
17834072 8 17489586753664202625
17844677 252 18270965755636624857
19489759 90 18342457058320977423
20281389 69 18334292033592007729
20645477 56 18413106144046941641
20645477 70 15769782303677813068
20681677 155 18408321094812004291
21033648 144 16661208203544398462
21033650 10 18191329103711078212
21150785 3 15410888561867255685
220451 1 17821725040202873650
2215653 11 16988843861043979965
22224240 67 15574436518610732689
23402539 116 18335698364645098606
23536379 177 18409448085819751522
23557571 272 17917713470264695440
23559900 14 17632291293722063426
26918003 58 16702024209750364826
2871803 45 16415488125488098510
300161 21 18411133619643489967
3004659 81 18341052904985156230
3545911 37 18343582928189208363
5104073 3 16081939290265112024
542803 24 17894630361494108770
59755656 520 16805323301172668843

>  <PUBCHEM_SHAPE_MULTIPOLES>  (1) 
369.31
16.97
1.29
1.12
3.91
0.15
0.14
-4.95
0.53
-2.87
0.07
1.39
0
-0.38

>  <PUBCHEM_SHAPE_SELFOVERLAP>  (1) 
781.238

>  <PUBCHEM_SHAPE_VOLUME>  (1) 
205.3

>  <PUBCHEM_COORDINATE_TYPE>  (1) 
2
5
10

$$$$
