18547
     RDKit          3D

 16 17  0  0  1  0  0  0  0  0999 V2000
    3.1420    1.7495    0.2851 O   0  0  0  0  0  0  0  0  0  0  0  0
    4.3640   -0.3256    0.1922 O   0  0  0  0  0  0  0  0  0  0  0  0
   -4.1969    0.5193   -1.5167 O   0  0  0  0  0  0  0  0  0  0  0  0
   -3.5689    1.7974    0.2539 O   0  0  0  0  0  0  0  0  0  0  0  0
   -1.9145   -0.6492    0.6092 N   0  0  0  0  0  0  0  0  0  0  0  0
   -1.1687   -0.4738   -0.6379 C   0  0  0  0  0  0  0  0  0  0  0  0
    0.3076   -0.4710   -0.4209 C   0  0  0  0  0  0  0  0  0  0  0  0
   -3.3466   -0.6363    0.3577 C   0  0  0  0  0  0  0  0  0  0  0  0
    2.3341    0.6848    0.0283 C   0  0  0  0  0  0  0  0  0  0  0  0
    0.9689    0.7328   -0.1657 C   0  0  0  0  0  0  0  0  0  0  0  0
    3.0319   -0.5000   -0.0248 C   0  0  0  0  0  0  0  0  0  0  0  0
    1.0206   -1.6816   -0.4751 C   0  0  0  0  0  0  0  0  0  0  0  0
    2.4030   -1.7023   -0.2749 C   0  0  0  0  0  0  0  0  0  0  0  0
   -4.1000   -0.8434    1.6646 C   0  0  0  0  0  0  0  0  0  0  0  0
    4.4265    1.1018    0.3883 C   0  0  0  0  0  0  0  0  0  0  0  0
   -3.7030    0.6976   -0.2632 C   0  0  0  0  0  0  0  0  0  0  0  0
  1  9  1  0
  1 15  1  0
  2 11  1  0
  2 15  1  0
  3 16  1  0
  4 16  2  0
  5  6  1  0
  5  8  1  0
  6  7  1  0
  7 10  1  0
  7 12  2  0
  8 14  1  0
  8 16  1  0
  9 10  2  0
  9 11  1  0
 11 13  2  0
 12 13  1  0
M  END
>  <PUBCHEM_COMPOUND_CID>  (1) 
18547

>  <PUBCHEM_CONFORMER_RMSD>  (1) 
0.6

>  <PUBCHEM_CONFORMER_DIVERSEORDER>  (1) 
1
6
21
15
24
26
11
5
14
28
19
25
3
22
12
8
18
20
23
9
2
13
30
29
7
17
4
10
27
16

>  <PUBCHEM_MMFF94_PARTIAL_CHARGES>  (1) 
20
1 -0.36
10 -0.15
11 0.08
12 -0.15
13 -0.15
15 0.56
16 0.66
2 -0.36
20 0.36
21 0.15
22 0.15
23 0.15
29 0.5
3 -0.65
4 -0.57
5 -0.9
6 0.41
7 -0.14
8 0.33
9 0.08

>  <PUBCHEM_EFFECTIVE_ROTOR_COUNT>  (1) 
4.6

>  <PUBCHEM_PHARMACOPHORE_FEATURES>  (1) 
9
1 1 acceptor
1 2 acceptor
1 3 acceptor
1 4 acceptor
1 5 cation
1 5 donor
3 3 4 16 anion
5 1 2 9 11 15 rings
6 7 9 10 11 12 13 rings

>  <PUBCHEM_HEAVY_ATOM_COUNT>  (1) 
16

>  <PUBCHEM_ATOM_DEF_STEREO_COUNT>  (1) 
0

>  <PUBCHEM_ATOM_UDEF_STEREO_COUNT>  (1) 
1

>  <PUBCHEM_BOND_DEF_STEREO_COUNT>  (1) 
0

>  <PUBCHEM_BOND_UDEF_STEREO_COUNT>  (1) 
0

>  <PUBCHEM_ISOTOPIC_ATOM_COUNT>  (1) 
0

>  <PUBCHEM_COMPONENT_COUNT>  (1) 
1

>  <PUBCHEM_CACTVS_TAUTO_COUNT>  (1) 
1

>  <PUBCHEM_CONFORMER_ID>  (1) 
0000487300000001

>  <PUBCHEM_MMFF94_ENERGY>  (1) 
31.6023

>  <PUBCHEM_FEATURE_SELFOVERLAP>  (1) 
45.884

>  <PUBCHEM_SHAPE_FINGERPRINT>  (1) 
10608611 8 18409729534710186205
10980938 120 18202001027693919126
11471102 20 18341889680461859462
11543360 7 14333125325269381520
11615757 297 17632858629037566633
12236239 1 17203890756125312575
12251169 10 18187368791143915875
12507557 5 18333730251542591241
12507560 40 18408611340138137899
13296908 3 18260556601852624291
13675066 3 18260831518176780170
13922767 16 18342172267713695856
14178342 30 17168152221792102923
14415576 193 18412266138189848988
15219456 202 18408043996143106927
15375358 24 18333446534466085163
15442244 35 17982454789128832458
15653759 3 18040725761811979955
18186145 218 17989216961823140718
19422 9 11819287641505442269
200 152 18202556298767905471
20279233 1 18113620075614225863
20645477 56 18187086114351679525
20645477 70 18270394988611038606
20871999 31 12679464154137680025
21065199 12 18334301954797403299
22854114 59 18410857684921240626
22959321 60 18334859436956633322
231179 274 18413107268964382918
23402539 116 16225759727203269414
23402655 69 18131347488250217493
23557571 272 17749109985226961085
23559900 14 17749673970093933854
293599 30 18270403927360900300
3268164 11 14476960056555474537
5104073 3 18336549326278078979
602551 16 16660651790399144490
633830 44 17346336880944078839

>  <PUBCHEM_SHAPE_MULTIPOLES>  (1) 
300.81
9.5
1.63
1
2.63
0.07
-0.08
2.36
-1.48
-0.57
-0.01
1.25
-0.1
0.91

>  <PUBCHEM_SHAPE_SELFOVERLAP>  (1) 
638.126

>  <PUBCHEM_SHAPE_VOLUME>  (1) 
169

>  <PUBCHEM_COORDINATE_TYPE>  (1) 
2
5
10

$$$$
