18559
     RDKit          3D

 29 32  0  0  1  0  0  0  0  0999 V2000
   -3.5315    0.2663    1.3988 O   0  0  0  0  0  0  0  0  0  0  0  0
   -0.8065    1.5537   -0.6201 O   0  0  0  0  0  0  0  0  0  0  0  0
    4.1294    3.1071    1.1725 O   0  0  0  0  0  0  0  0  0  0  0  0
   -1.7479    0.9331   -2.6330 O   0  0  0  0  0  0  0  0  0  0  0  0
    1.4031    3.0384    0.3571 N   0  0  0  0  0  0  0  0  0  0  0  0
   -3.9502    0.2047    0.0250 C   0  0  0  0  0  0  0  0  0  0  0  0
   -3.1995   -0.8999   -0.6929 C   0  0  0  0  0  0  0  0  0  0  0  0
   -5.4547   -0.0022    0.0500 C   0  0  0  0  0  0  0  0  0  0  0  0
   -1.6867   -0.6334   -0.7722 C   0  0  0  0  0  0  0  0  0  0  0  0
   -5.8443    0.7743    1.2828 C   0  0  0  0  0  0  0  0  0  0  0  0
   -4.6916    0.4756    2.2179 C   0  0  0  0  0  0  0  0  0  0  0  0
   -0.9778   -1.7685   -1.5335 C   0  0  0  0  0  0  0  0  0  0  0  0
   -1.4265    0.6906   -1.4767 C   0  0  0  0  0  0  0  0  0  0  0  0
    0.4996   -1.8503   -1.2299 C   0  0  0  0  0  0  0  0  0  0  0  0
    0.1644    3.6799   -0.0786 C   0  0  0  0  0  0  0  0  0  0  0  0
    1.0015   -2.6360   -0.1795 C   0  0  0  0  0  0  0  0  0  0  0  0
   -0.5205    2.8504   -1.1530 C   0  0  0  0  0  0  0  0  0  0  0  0
    2.4866    3.2896   -0.6033 C   0  0  0  0  0  0  0  0  0  0  0  0
    1.7942    3.5116    1.6923 C   0  0  0  0  0  0  0  0  0  0  0  0
    1.3611   -1.1089   -2.0391 C   0  0  0  0  0  0  0  0  0  0  0  0
    3.7708    2.6207   -0.1214 C   0  0  0  0  0  0  0  0  0  0  0  0
    3.0952    2.8386    2.1201 C   0  0  0  0  0  0  0  0  0  0  0  0
    2.3971   -2.6702    0.0532 C   0  0  0  0  0  0  0  0  0  0  0  0
    0.1492   -3.3885    0.6449 C   0  0  0  0  0  0  0  0  0  0  0  0
    2.7335   -1.1429   -1.8103 C   0  0  0  0  0  0  0  0  0  0  0  0
    3.2496   -1.9180   -0.7713 C   0  0  0  0  0  0  0  0  0  0  0  0
    2.8992   -3.4558    1.1034 C   0  0  0  0  0  0  0  0  0  0  0  0
    0.6653   -4.1633    1.6840 C   0  0  0  0  0  0  0  0  0  0  0  0
    2.0378   -4.1969    1.9129 C   0  0  0  0  0  0  0  0  0  0  0  0
  1  6  1  0
  1 11  1  0
  2 13  1  0
  2 17  1  0
  3 21  1  0
  3 22  1  0
  4 13  2  0
  5 15  1  0
  5 18  1  0
  5 19  1  0
  6  7  1  0
  6  8  1  0
  7  9  1  0
  8 10  1  0
  9 12  1  0
  9 13  1  0
 10 11  1  0
 12 14  1  0
 14 16  1  0
 14 20  2  0
 15 17  1  0
 16 23  2  0
 16 24  1  0
 18 21  1  0
 19 22  1  0
 20 25  1  0
 23 26  1  0
 23 27  1  0
 24 28  2  0
 25 26  2  0
 27 29  2  0
 28 29  1  0
M  END
>  <PUBCHEM_COMPOUND_CID>  (1) 
18559

>  <PUBCHEM_CONFORMER_RMSD>  (1) 
1.2

>  <PUBCHEM_CONFORMER_DIVERSEORDER>  (1) 
1
60
163
70
141
128
136
171
50
79
117
62
130
39
138
83
135
63
151
36
190
121
157
48
16
76
54
43
37
124
82
100
42
168
110
150
47
140
147
28
86
113
179
107
108
68
115
174
22
154
156
172
137
32
112
145
35
53
15
146
166
118
120
127
167
40
73
88
95
18
106
78
14
169
129
162
56
94
89
6
17
133
71
23
159
85
186
8
84
91
67
142
144
64
13
38
139
20
164
180
96
34
134
75
52
29
93
177
189
149
45
160
97
123
51
161
178
152
65
155
187
170
72
114
158
101
81
30
184
173
103
59
41
49
116
148
46
109
181
66
57
102
80
69
143
12
3
24
92
126
25
176
90
98
192
125
5
10
191
44
58
21
188
111
122
26
131
7
55
33
183
193
119
99
182
104
132
4
105
185
2
27
74
61
87
165
175
11
153
19
9
77
31

>  <PUBCHEM_MMFF94_PARTIAL_CHARGES>  (1) 
31
1 -0.56
11 0.28
12 0.14
13 0.66
14 -0.14
15 0.27
17 0.28
18 0.27
19 0.27
2 -0.43
20 -0.15
21 0.28
22 0.28
24 -0.15
25 -0.15
26 -0.15
27 -0.15
28 -0.15
29 -0.15
3 -0.56
4 -0.57
5 -0.81
50 0.15
55 0.15
56 0.15
57 0.15
58 0.15
59 0.15
6 0.28
60 0.15
9 0.06

>  <PUBCHEM_EFFECTIVE_ROTOR_COUNT>  (1) 
11.2

>  <PUBCHEM_PHARMACOPHORE_FEATURES>  (1) 
8
1 1 acceptor
1 3 acceptor
1 4 acceptor
1 5 cation
5 1 6 8 10 11 rings
6 14 16 20 23 25 26 rings
6 16 23 24 27 28 29 rings
6 3 5 18 19 21 22 rings

>  <PUBCHEM_HEAVY_ATOM_COUNT>  (1) 
29

>  <PUBCHEM_ATOM_DEF_STEREO_COUNT>  (1) 
0

>  <PUBCHEM_ATOM_UDEF_STEREO_COUNT>  (1) 
2

>  <PUBCHEM_BOND_DEF_STEREO_COUNT>  (1) 
0

>  <PUBCHEM_BOND_UDEF_STEREO_COUNT>  (1) 
0

>  <PUBCHEM_ISOTOPIC_ATOM_COUNT>  (1) 
0

>  <PUBCHEM_COMPONENT_COUNT>  (1) 
1

>  <PUBCHEM_CACTVS_TAUTO_COUNT>  (1) 
1

>  <PUBCHEM_CONFORMER_ID>  (1) 
0000487F00000001

>  <PUBCHEM_MMFF94_ENERGY>  (1) 
66.4874

>  <PUBCHEM_FEATURE_SELFOVERLAP>  (1) 
40.624

>  <PUBCHEM_SHAPE_FINGERPRINT>  (1) 
10439779 11 17478632118013325689
11421498 54 17977117768674012866
12156800 1 16301508519467621096
12160290 23 16973078792383584948
12788726 201 17903656085180655063
13135754 10 17326058850313156044
133893 2 18055037000732276557
15420108 30 18060137682687292741
15475509 84 17758119198341380627
16112460 7 18056183907805011280
16120349 306 18053924410718510160
22223350 30 18044110148876339170
23558518 356 17980203307370048535
23559900 14 17168995469817020695
244849 19 17895740817711490125
3411729 13 18272376403485814845
3493558 16 15622885265284213996
392239 28 18336254687585775570
4058900 60 18191609598955704229
4616759 239 16745054409337802098
7288768 16 18125434465213953760
79837 15 17905890632178777643

>  <PUBCHEM_SHAPE_MULTIPOLES>  (1) 
568.35
8.44
6.52
2.29
13.14
1.57
-0.15
1.27
-3.96
-9.17
-3.5
-0.05
-0.15
0.35

>  <PUBCHEM_SHAPE_SELFOVERLAP>  (1) 
1202.614

>  <PUBCHEM_SHAPE_VOLUME>  (1) 
318.5

>  <PUBCHEM_COORDINATE_TYPE>  (1) 
2
5
10

$$$$
