18555
     RDKit          3D

 11 11  0  0  0  0  0  0  0  0999 V2000
   -0.0403   -2.3439   -0.0013 Cl  0  0  0  0  0  0  0  0  0  0  0  0
   -3.0681   -1.2887    0.0013 Cl  0  0  0  0  0  0  0  0  0  0  0  0
    2.8964    0.7614    0.0004 O   0  0  0  0  0  0  0  0  0  0  0  0
    2.2717   -1.3476    0.0008 O   0  0  0  0  0  0  0  0  0  0  0  0
    2.0101   -0.1230    0.0001 N   0  0  0  0  0  0  0  0  0  0  0  0
    0.6445    0.2813   -0.0002 C   0  0  0  0  0  0  0  0  0  0  0  0
   -0.4000   -0.6432   -0.0003 C   0  0  0  0  0  0  0  0  0  0  0  0
    0.3662    1.6481   -0.0001 C   0  0  0  0  0  0  0  0  0  0  0  0
   -1.7228   -0.2009   -0.0002 C   0  0  0  0  0  0  0  0  0  0  0  0
   -0.9566    2.0904   -0.0002 C   0  0  0  0  0  0  0  0  0  0  0  0
   -2.0012    1.1660   -0.0003 C   0  0  0  0  0  0  0  0  0  0  0  0
  1  7  1  0
  2  9  1  0
  3  5  1  0
  4  5  2  0
  5  6  1  0
  6  7  2  0
  6  8  1  0
  7  9  1  0
  8 10  2  0
  9 11  2  0
 10 11  1  0
M  CHG  2   3  -1   5   1
M  END
>  <PUBCHEM_COMPOUND_CID>  (1) 
18555

>  <PUBCHEM_CONFORMER_RMSD>  (1) 
0.4

>  <PUBCHEM_CONFORMER_DIVERSEORDER>  (1) 
1

>  <PUBCHEM_MMFF94_PARTIAL_CHARGES>  (1) 
14
1 -0.18
10 -0.15
11 -0.15
12 0.15
13 0.15
14 0.15
2 -0.18
3 -0.52
4 -0.52
5 0.91
6 0.13
7 0.18
8 -0.15
9 0.18

>  <PUBCHEM_EFFECTIVE_ROTOR_COUNT>  (1) 
1

>  <PUBCHEM_PHARMACOPHORE_FEATURES>  (1) 
4
1 3 acceptor
1 3 anion
1 4 acceptor
6 6 7 8 9 10 11 rings

>  <PUBCHEM_HEAVY_ATOM_COUNT>  (1) 
11

>  <PUBCHEM_ATOM_DEF_STEREO_COUNT>  (1) 
0

>  <PUBCHEM_ATOM_UDEF_STEREO_COUNT>  (1) 
0

>  <PUBCHEM_BOND_DEF_STEREO_COUNT>  (1) 
0

>  <PUBCHEM_BOND_UDEF_STEREO_COUNT>  (1) 
0

>  <PUBCHEM_ISOTOPIC_ATOM_COUNT>  (1) 
0

>  <PUBCHEM_COMPONENT_COUNT>  (1) 
1

>  <PUBCHEM_CACTVS_TAUTO_COUNT>  (1) 
1

>  <PUBCHEM_CONFORMER_ID>  (1) 
0000487B00000001

>  <PUBCHEM_MMFF94_ENERGY>  (1) 
39.7472

>  <PUBCHEM_FEATURE_SELFOVERLAP>  (1) 
20.377

>  <PUBCHEM_SHAPE_FINGERPRINT>  (1) 
12897270 3 18338515231504014925
13380535 76 18050841114084261407
14325111 11 18410573963697791616
16945 1 18266741470379888485
193761 8 18050286960166015331
20871998 184 18272932717313675111
21040471 1 17978509728471001989
2334 1 18410855455838469253
23552423 10 18261679147152495494
23559900 14 17695069899751606366
241688 4 18410572885940718449
2748010 2 18410854330572881597
5084963 1 18202283606281942171
528886 8 18411412904228993361
66348 1 18410291376387906811

>  <PUBCHEM_SHAPE_MULTIPOLES>  (1) 
213.39
3.6
2.38
0.6
0.34
0.17
0
0.75
0
-0.37
0
-0.08
0
0

>  <PUBCHEM_SHAPE_SELFOVERLAP>  (1) 
432.314

>  <PUBCHEM_SHAPE_VOLUME>  (1) 
126.2

>  <PUBCHEM_COORDINATE_TYPE>  (1) 
2
5
10

$$$$
