18554
     RDKit          3D

  7  7  0  0  0  0  0  0  0  0999 V2000
   -0.2253    0.9941   -0.2441 O   0  0  0  0  0  0  0  0  0  0  0  0
    1.6810   -0.4544   -0.4486 C   0  0  0  0  0  0  0  0  0  0  0  0
    0.2451   -0.2795   -0.1912 C   0  0  0  0  0  0  0  0  0  0  0  0
    2.5682    0.3436    0.5171 C   0  0  0  0  0  0  0  0  0  0  0  0
   -0.7712   -1.1581    0.1044 C   0  0  0  0  0  0  0  0  0  0  0  0
   -1.9413   -0.3737    0.2420 C   0  0  0  0  0  0  0  0  0  0  0  0
   -1.5566    0.9281    0.0205 C   0  0  0  0  0  0  0  0  0  0  0  0
  1  3  1  0
  1  7  1  0
  2  3  1  0
  2  4  1  0
  3  5  2  0
  5  6  1  0
  6  7  2  0
M  END
>  <PUBCHEM_COMPOUND_CID>  (1) 
18554

>  <PUBCHEM_CONFORMER_RMSD>  (1) 
0.4

>  <PUBCHEM_CONFORMER_DIVERSEORDER>  (1) 
1
2
4
3

>  <PUBCHEM_MMFF94_PARTIAL_CHARGES>  (1) 
9
1 -0.28
13 0.15
14 0.15
15 0.15
2 0.18
3 -0.04
5 -0.15
6 -0.15
7 -0.01

>  <PUBCHEM_EFFECTIVE_ROTOR_COUNT>  (1) 
1

>  <PUBCHEM_PHARMACOPHORE_FEATURES>  (1) 
3
1 1 acceptor
1 4 hydrophobe
5 1 3 5 6 7 rings

>  <PUBCHEM_HEAVY_ATOM_COUNT>  (1) 
7

>  <PUBCHEM_ATOM_DEF_STEREO_COUNT>  (1) 
0

>  <PUBCHEM_ATOM_UDEF_STEREO_COUNT>  (1) 
0

>  <PUBCHEM_BOND_DEF_STEREO_COUNT>  (1) 
0

>  <PUBCHEM_BOND_UDEF_STEREO_COUNT>  (1) 
0

>  <PUBCHEM_ISOTOPIC_ATOM_COUNT>  (1) 
0

>  <PUBCHEM_COMPONENT_COUNT>  (1) 
1

>  <PUBCHEM_CACTVS_TAUTO_COUNT>  (1) 
1

>  <PUBCHEM_CONFORMER_ID>  (1) 
0000487A00000001

>  <PUBCHEM_MMFF94_ENERGY>  (1) 
-0.4225

>  <PUBCHEM_FEATURE_SELFOVERLAP>  (1) 
15.223

>  <PUBCHEM_SHAPE_FINGERPRINT>  (1) 
10857977 72 18337669835911326210
14390081 3 17988921167467721784
16714656 1 18409173207358835063
20096714 4 18267869380326118422
21040471 1 18191594055484046077
23552423 10 18114471067385985502
29004967 10 18410302440155102650
369184 2 18187354441789808514
5460574 1 8935003663488324086

>  <PUBCHEM_SHAPE_MULTIPOLES>  (1) 
138.19
3.03
1.12
0.69
1.45
0
0.02
0.26
0.44
-0.31
-0.01
0.13
-0.01
0.17

>  <PUBCHEM_SHAPE_SELFOVERLAP>  (1) 
278.027

>  <PUBCHEM_SHAPE_VOLUME>  (1) 
83.5

>  <PUBCHEM_COORDINATE_TYPE>  (1) 
2
5
10

$$$$
