18553
     RDKit          3D

 13 14  0  0  0  0  0  0  0  0999 V2000
   -4.2921    0.3718    0.0370 O   0  0  0  0  0  0  0  0  0  0  0  0
   -2.4300    1.6862    0.0043 O   0  0  0  0  0  0  0  0  0  0  0  0
   -0.0895   -0.3648   -0.0268 C   0  0  0  0  0  0  0  0  0  0  0  0
    1.2963   -1.0157   -0.0448 C   0  0  0  0  0  0  0  0  0  0  0  0
   -1.0518   -0.9136    1.0472 C   0  0  0  0  0  0  0  0  0  0  0  0
   -1.0769   -0.9097   -1.0799 C   0  0  0  0  0  0  0  0  0  0  0  0
   -2.1747   -0.7854   -0.0030 C   0  0  0  0  0  0  0  0  0  0  0  0
    2.0976   -0.6086   -1.2900 C   0  0  0  0  0  0  0  0  0  0  0  0
    2.0846   -0.7061    1.2365 C   0  0  0  0  0  0  0  0  0  0  0  0
    2.6055    0.8312   -1.2312 C   0  0  0  0  0  0  0  0  0  0  0  0
    2.5922    0.7336    1.2944 C   0  0  0  0  0  0  0  0  0  0  0  0
    3.3921    1.0992    0.0480 C   0  0  0  0  0  0  0  0  0  0  0  0
   -2.9534    0.5819    0.0084 C   0  0  0  0  0  0  0  0  0  0  0  0
  1 13  1  0
  2 13  2  0
  3  4  1  0
  3  5  1  0
  3  6  1  0
  4  8  1  0
  4  9  1  0
  5  7  1  0
  6  7  1  0
  7 13  1  0
  8 10  1  0
  9 11  1  0
 10 12  1  0
 11 12  1  0
M  END
>  <PUBCHEM_COMPOUND_CID>  (1) 
18553

>  <PUBCHEM_CONFORMER_RMSD>  (1) 
0.6

>  <PUBCHEM_CONFORMER_DIVERSEORDER>  (1) 
2
8
15
3
6
4
9
1
12
10
13
14
7
11
5

>  <PUBCHEM_MMFF94_PARTIAL_CHARGES>  (1) 
5
1 -0.65
13 0.67
2 -0.57
31 0.5
7 0.05

>  <PUBCHEM_EFFECTIVE_ROTOR_COUNT>  (1) 
4

>  <PUBCHEM_PHARMACOPHORE_FEATURES>  (1) 
5
1 1 acceptor
1 2 acceptor
3 1 2 13 anion
4 3 5 6 7 rings
6 4 8 9 10 11 12 rings

>  <PUBCHEM_HEAVY_ATOM_COUNT>  (1) 
13

>  <PUBCHEM_ATOM_DEF_STEREO_COUNT>  (1) 
0

>  <PUBCHEM_ATOM_UDEF_STEREO_COUNT>  (1) 
0

>  <PUBCHEM_BOND_DEF_STEREO_COUNT>  (1) 
0

>  <PUBCHEM_BOND_UDEF_STEREO_COUNT>  (1) 
0

>  <PUBCHEM_ISOTOPIC_ATOM_COUNT>  (1) 
0

>  <PUBCHEM_COMPONENT_COUNT>  (1) 
1

>  <PUBCHEM_CACTVS_TAUTO_COUNT>  (1) 
1

>  <PUBCHEM_CONFORMER_ID>  (1) 
0000487900000002

>  <PUBCHEM_MMFF94_ENERGY>  (1) 
16.8242

>  <PUBCHEM_FEATURE_SELFOVERLAP>  (1) 
25.428

>  <PUBCHEM_SHAPE_FINGERPRINT>  (1) 
10149128 111 18186805794019674900
11031198 65 18273217495130869998
11471102 22 14707200037616282752
11769659 78 9151168744847098041
12251169 10 16443062824328800794
12382932 28 16081377391929298802
12696612 119 15574432141664452870
12897270 3 15984825990582066266
12932764 1 17989210368906163383
13764800 53 18188223081819421619
14144814 61 17312821580385688391
14250199 8 14979958124596150890
14350558 41 9151177553835604016
15775835 57 18342736338300270544
16945 1 18338797939236839031
177051 138 7781515906177365429
18186145 218 18262522481408782791
20559304 39 17749389222098422796
20645477 70 11024102157611536473
20653085 51 17988089876710935875
20767249 442 18412542119597497749
21501925 9 12973602257114209319
230 275 18334011679311195196
23402655 69 15051744066126209209
23557571 272 17987517176997292095
2748010 2 15049171372289916538
305870 269 18409161104579124154
3248919 1 17967809478846443547
369184 2 15936682757036385935
522135 26 14405187257424718895
7364860 26 18338797793493105914

>  <PUBCHEM_SHAPE_MULTIPOLES>  (1) 
255.8
6.1
1.34
1.3
3.04
0.25
0.01
2.47
-0.13
0.11
-0.01
-0.95
-0.14
-0.04

>  <PUBCHEM_SHAPE_SELFOVERLAP>  (1) 
517.043

>  <PUBCHEM_SHAPE_VOLUME>  (1) 
147.6

>  <PUBCHEM_COORDINATE_TYPE>  (1) 
2
5
10

$$$$
