18566
     RDKit          3D

  8  8  0  0  1  0  0  0  0  0999 V2000
    2.6243    1.2931   -0.2211 N   0  0  0  0  0  0  0  0  0  0  0  0
   -2.6239    1.2936    0.2214 N   0  0  0  0  0  0  0  0  0  0  0  0
    0.5987   -0.2095    0.4862 C   0  0  0  0  0  0  0  0  0  0  0  0
   -0.5986   -0.2098   -0.4870 C   0  0  0  0  0  0  0  0  0  0  0  0
    0.7501   -1.7141    0.1789 C   0  0  0  0  0  0  0  0  0  0  0  0
   -0.7508   -1.7137   -0.1785 C   0  0  0  0  0  0  0  0  0  0  0  0
    1.7245    0.6300    0.0900 C   0  0  0  0  0  0  0  0  0  0  0  0
   -1.7243    0.6303   -0.0900 C   0  0  0  0  0  0  0  0  0  0  0  0
  1  7  3  0
  2  8  3  0
  3  4  1  0
  3  5  1  0
  3  7  1  0
  4  6  1  0
  4  8  1  0
  5  6  1  0
M  END
>  <PUBCHEM_COMPOUND_CID>  (1) 
18566

>  <PUBCHEM_CONFORMER_RMSD>  (1) 
0.4

>  <PUBCHEM_CONFORMER_DIVERSEORDER>  (1) 
1
2

>  <PUBCHEM_MMFF94_PARTIAL_CHARGES>  (1) 
6
1 -0.56
2 -0.56
3 0.18
4 0.18
7 0.38
8 0.38

>  <PUBCHEM_EFFECTIVE_ROTOR_COUNT>  (1) 
0.8

>  <PUBCHEM_PHARMACOPHORE_FEATURES>  (1) 
3
1 1 acceptor
1 2 acceptor
4 3 4 5 6 rings

>  <PUBCHEM_HEAVY_ATOM_COUNT>  (1) 
8

>  <PUBCHEM_ATOM_DEF_STEREO_COUNT>  (1) 
0

>  <PUBCHEM_ATOM_UDEF_STEREO_COUNT>  (1) 
2

>  <PUBCHEM_BOND_DEF_STEREO_COUNT>  (1) 
0

>  <PUBCHEM_BOND_UDEF_STEREO_COUNT>  (1) 
0

>  <PUBCHEM_ISOTOPIC_ATOM_COUNT>  (1) 
0

>  <PUBCHEM_COMPONENT_COUNT>  (1) 
1

>  <PUBCHEM_CACTVS_TAUTO_COUNT>  (1) 
1

>  <PUBCHEM_CONFORMER_ID>  (1) 
0000488600000001

>  <PUBCHEM_MMFF94_ENERGY>  (1) 
12.1324

>  <PUBCHEM_FEATURE_SELFOVERLAP>  (1) 
15.223

>  <PUBCHEM_SHAPE_FINGERPRINT>  (1) 
100427 49 16826439722536721828
20096714 4 18411132507004159274
20653085 51 18337405940642180016
21040471 1 18341041977975801874
23552449 1 17619063275734652894
29004967 10 17688870830890543667

>  <PUBCHEM_SHAPE_MULTIPOLES>  (1) 
154.67
3.02
1.82
0.68
0
0.62
0
-2.18
0
0
0
0
0.03
-0.24

>  <PUBCHEM_SHAPE_SELFOVERLAP>  (1) 
306.843

>  <PUBCHEM_SHAPE_VOLUME>  (1) 
89.7

>  <PUBCHEM_COORDINATE_TYPE>  (1) 
2
5
10

$$$$
