18568
     RDKit          3D

 31 34  0  0  1  0  0  0  0  0999 V2000
    1.6160    0.3207   -0.4518 O   0  0  0  0  0  0  0  0  0  0  0  0
   -0.7949   -0.4310    0.4302 O   0  0  0  0  0  0  0  0  0  0  0  0
    0.3479    0.8106   -2.3067 O   0  0  0  0  0  0  0  0  0  0  0  0
    5.1355   -0.6238   -1.1597 N   0  0  0  0  0  0  0  0  0  0  0  0
    3.9306   -0.2683   -0.3974 C   0  0  0  0  0  0  0  0  0  0  0  0
    3.6548   -1.5404    0.4069 C   0  0  0  0  0  0  0  0  0  0  0  0
    5.0045   -2.2385    0.5312 C   0  0  0  0  0  0  0  0  0  0  0  0
    5.9855   -1.3437   -0.2081 C   0  0  0  0  0  0  0  0  0  0  0  0
    2.7470    0.1111   -1.2785 C   0  0  0  0  0  0  0  0  0  0  0  0
    5.8239    0.5311   -1.7235 C   0  0  0  0  0  0  0  0  0  0  0  0
   -0.6788    0.9101   -0.0873 C   0  0  0  0  0  0  0  0  0  0  0  0
    0.4505    0.6736   -1.0934 C   0  0  0  0  0  0  0  0  0  0  0  0
   -1.9996    1.3474   -0.7254 C   0  0  0  0  0  0  0  0  0  0  0  0
   -0.2753    1.8633    1.0399 C   0  0  0  0  0  0  0  0  0  0  0  0
   -1.1147   -1.3408   -0.6033 C   0  0  0  0  0  0  0  0  0  0  0  0
   -1.9933    2.2264   -1.8086 C   0  0  0  0  0  0  0  0  0  0  0  0
   -0.6994    1.6180    2.3460 C   0  0  0  0  0  0  0  0  0  0  0  0
   -3.2093    0.8667   -0.2242 C   0  0  0  0  0  0  0  0  0  0  0  0
    0.5169    2.9772    0.7615 C   0  0  0  0  0  0  0  0  0  0  0  0
   -1.6984   -2.5838    0.0014 C   0  0  0  0  0  0  0  0  0  0  0  0
   -3.1969    2.6250   -2.3903 C   0  0  0  0  0  0  0  0  0  0  0  0
   -0.3316    2.4867    3.3735 C   0  0  0  0  0  0  0  0  0  0  0  0
   -4.4128    1.2652   -0.8062 C   0  0  0  0  0  0  0  0  0  0  0  0
    0.8848    3.8457    1.7891 C   0  0  0  0  0  0  0  0  0  0  0  0
   -4.4065    2.1443   -1.8891 C   0  0  0  0  0  0  0  0  0  0  0  0
    0.4606    3.6004    3.0952 C   0  0  0  0  0  0  0  0  0  0  0  0
   -2.6320   -3.3347   -0.7129 C   0  0  0  0  0  0  0  0  0  0  0  0
   -1.3072   -2.9887    1.2777 C   0  0  0  0  0  0  0  0  0  0  0  0
   -3.1746   -4.4903   -0.1509 C   0  0  0  0  0  0  0  0  0  0  0  0
   -1.8498   -4.1444    1.8395 C   0  0  0  0  0  0  0  0  0  0  0  0
   -2.7835   -4.8951    1.1252 C   0  0  0  0  0  0  0  0  0  0  0  0
  1  9  1  0
  1 12  1  0
  2 11  1  0
  2 15  1  0
  3 12  2  0
  4  5  1  0
  4  8  1  0
  4 10  1  0
  5  6  1  0
  5  9  1  0
  6  7  1  0
  7  8  1  0
 11 12  1  0
 11 13  1  0
 11 14  1  0
 13 16  2  0
 13 18  1  0
 14 17  2  0
 14 19  1  0
 15 20  1  0
 16 21  1  0
 17 22  1  0
 18 23  2  0
 19 24  2  0
 20 27  2  0
 20 28  1  0
 21 25  2  0
 22 26  2  0
 23 25  1  0
 24 26  1  0
 27 29  1  0
 28 30  2  0
 29 31  2  0
 30 31  1  0
M  END
>  <PUBCHEM_COMPOUND_CID>  (1) 
18568

>  <PUBCHEM_CONFORMER_RMSD>  (1) 
1

>  <PUBCHEM_CONFORMER_DIVERSEORDER>  (1) 
1
5
79
126
17
121
9
3
111
99
123
18
73
88
56
90
103
95
44
23
13
16
75
72
28
25
81
127
109
98
61
24
54
58
29
76
94
51
77
31
68
36
71
104
115
105
52
67
114
26
102
43
10
6
19
27
106
55
124
84
20
12
46
30
4
21
108
70
125
22
66
92
96
57
85
32
74
116
15
64
40
100
45
50
62
37
86
120
11
53
33
48
39
41
113
14
91
34
60
8
118
93
59
82
2
78
87
117
69
119
7
89
49
107
47
83
63
35
80
38
110
112
101
65
97
42
122

>  <PUBCHEM_MMFF94_PARTIAL_CHARGES>  (1) 
44
1 -0.43
10 0.27
11 0.63
12 0.66
13 -0.14
14 -0.14
15 0.42
16 -0.15
17 -0.15
18 -0.15
19 -0.15
2 -0.56
20 -0.14
21 -0.15
22 -0.15
23 -0.15
24 -0.15
25 -0.15
26 -0.15
27 -0.15
28 -0.15
29 -0.15
3 -0.57
30 -0.15
31 -0.15
4 -0.81
46 0.15
47 0.15
48 0.15
49 0.15
5 0.27
50 0.15
51 0.15
52 0.15
53 0.15
54 0.15
55 0.15
56 0.15
57 0.15
58 0.15
59 0.15
60 0.15
8 0.27
9 0.28

>  <PUBCHEM_EFFECTIVE_ROTOR_COUNT>  (1) 
10

>  <PUBCHEM_PHARMACOPHORE_FEATURES>  (1) 
7
1 2 acceptor
1 3 acceptor
1 4 cation
5 4 5 6 7 8 rings
6 13 16 18 21 23 25 rings
6 14 17 19 22 24 26 rings
6 20 27 28 29 30 31 rings

>  <PUBCHEM_HEAVY_ATOM_COUNT>  (1) 
31

>  <PUBCHEM_ATOM_DEF_STEREO_COUNT>  (1) 
0

>  <PUBCHEM_ATOM_UDEF_STEREO_COUNT>  (1) 
1

>  <PUBCHEM_BOND_DEF_STEREO_COUNT>  (1) 
0

>  <PUBCHEM_BOND_UDEF_STEREO_COUNT>  (1) 
0

>  <PUBCHEM_ISOTOPIC_ATOM_COUNT>  (1) 
0

>  <PUBCHEM_COMPONENT_COUNT>  (1) 
1

>  <PUBCHEM_CACTVS_TAUTO_COUNT>  (1) 
1

>  <PUBCHEM_CONFORMER_ID>  (1) 
0000488800000001

>  <PUBCHEM_MMFF94_ENERGY>  (1) 
95.6772

>  <PUBCHEM_FEATURE_SELFOVERLAP>  (1) 
35.523

>  <PUBCHEM_SHAPE_FINGERPRINT>  (1) 
10032420 55 18194371473801676575
10366900 7 17774718650615154318
10985338 8 14111668384988647803
11135609 149 17693068057753790351
11297750 10 18195522821215673643
11421498 54 17910665463587083825
11578080 2 18195815295672876857
12058002 1 17985573081309804484
12156800 1 18118375505942847083
12160290 23 18047790097824129174
12293681 160 18056748837152487553
12293681 25 17834087004042213167
12788726 201 17986949644582771880
13149001 5 18200013136477769993
13631057 29 18192161593222474462
14028597 1 17840585899536269801
140371 6 18200883868393807132
14866123 147 18261107465800431251
15775530 1 18124859399305645729
18603816 31 16153709774735399970
18681886 176 17894342268643423549
19315092 285 16982940814938125059
20600515 1 18271257040282229604
20602899 9 18191586354602520020
21639891 77 18340770432910894722
21703447 108 18048032167013261308
23419403 2 17915175947846355037
283562 15 17911513199330378376
3380486 77 18192158100870912868
3552219 110 17762097554045021908
3633792 109 17903629692880512516
38695281 34 17898845756316294007
4616759 239 18269819949558958626
5171179 24 18056749060374657915
57527306 92 17059782096932731217
57527585 103 18128000570687030668

>  <PUBCHEM_SHAPE_MULTIPOLES>  (1) 
615.38
9.22
6.33
2.74
15.55
5.78
-1.55
4.6
5.83
-6.84
-4.13
-0.67
-3.13
2.66

>  <PUBCHEM_SHAPE_SELFOVERLAP>  (1) 
1329.045

>  <PUBCHEM_SHAPE_VOLUME>  (1) 
337.2

>  <PUBCHEM_COORDINATE_TYPE>  (1) 
2
5
10

$$$$
