18574
     RDKit          3D

 24 25  0  0  1  0  0  0  0  0999 V2000
   -0.7913   -1.2054    0.2016 O   0  0  0  0  0  0  0  0  0  0  0  0
   -0.4822    0.7385    1.3953 O   0  0  0  0  0  0  0  0  0  0  0  0
   -4.2769   -0.0181   -0.2120 N   0  0  0  0  0  0  0  0  0  0  0  0
   -2.8359   -0.0979   -0.4091 C   0  0  0  0  0  0  0  0  0  0  0  0
   -2.2002   -1.2086    0.4305 C   0  0  0  0  0  0  0  0  0  0  0  0
   -4.5960    0.1553    1.2067 C   0  0  0  0  0  0  0  0  0  0  0  0
   -4.8460    1.0797   -0.9968 C   0  0  0  0  0  0  0  0  0  0  0  0
    1.1087    0.1036   -0.3487 C   0  0  0  0  0  0  0  0  0  0  0  0
   -2.7210   -2.5965    0.0792 C   0  0  0  0  0  0  0  0  0  0  0  0
   -0.1392   -0.0423    0.5165 C   0  0  0  0  0  0  0  0  0  0  0  0
    2.0140   -1.1206   -0.2983 C   0  0  0  0  0  0  0  0  0  0  0  0
    1.8804    1.3935   -0.1040 C   0  0  0  0  0  0  0  0  0  0  0  0
   -6.0981    0.1721    1.4334 C   0  0  0  0  0  0  0  0  0  0  0  0
   -4.5277    0.9213   -2.4738 C   0  0  0  0  0  0  0  0  0  0  0  0
    2.7788   -1.4287   -1.4041 C   0  0  0  0  0  0  0  0  0  0  0  0
    1.5626    2.5110   -0.8479 C   0  0  0  0  0  0  0  0  0  0  0  0
    2.0406   -1.8820    0.8514 C   0  0  0  0  0  0  0  0  0  0  0  0
    2.8728    1.4047    0.8541 C   0  0  0  0  0  0  0  0  0  0  0  0
    3.6079   -2.5495   -1.3579 C   0  0  0  0  0  0  0  0  0  0  0  0
    2.2692    3.6925   -0.6238 C   0  0  0  0  0  0  0  0  0  0  0  0
    2.8698   -3.0027    0.8974 C   0  0  0  0  0  0  0  0  0  0  0  0
    3.5791    2.5863    1.0783 C   0  0  0  0  0  0  0  0  0  0  0  0
    3.6534   -3.3364   -0.2073 C   0  0  0  0  0  0  0  0  0  0  0  0
    3.2774    3.7303    0.3393 C   0  0  0  0  0  0  0  0  0  0  0  0
  1  5  1  0
  1 10  1  0
  2 10  2  0
  3  4  1  0
  3  6  1  0
  3  7  1  0
  4  5  1  0
  5  9  1  0
  6 13  1  0
  7 14  1  0
  8 10  1  0
  8 11  1  0
  8 12  1  0
 11 15  2  0
 11 17  1  0
 12 16  2  0
 12 18  1  0
 15 19  1  0
 16 20  1  0
 17 21  2  0
 18 22  2  0
 19 23  2  0
 20 24  2  0
 21 23  1  0
 22 24  1  0
M  END
>  <PUBCHEM_COMPOUND_CID>  (1) 
18574

>  <PUBCHEM_CONFORMER_RMSD>  (1) 
1

>  <PUBCHEM_CONFORMER_DIVERSEORDER>  (1) 
1
79
32
30
27
39
53
42
14
57
65
15
70
48
28
58
49
68
52
2
81
74
56
6
46
62
26
50
41
10
78
80
4
13
72
71
69
40
5
63
12
45
43
73
76
9
31
61
67
55
77
33
18
7
35
36
34
44
29
60
3
24
20
11
25
37
17
51
64
54
8
19
47
66
22
16
23
21
59
75
38

>  <PUBCHEM_MMFF94_PARTIAL_CHARGES>  (1) 
31
1 -0.43
10 0.66
11 -0.14
12 -0.14
15 -0.15
16 -0.15
17 -0.15
18 -0.15
19 -0.15
2 -0.57
20 -0.15
21 -0.15
22 -0.15
23 -0.15
24 -0.15
3 -0.81
4 0.27
42 0.15
43 0.15
44 0.15
45 0.15
46 0.15
47 0.15
48 0.15
49 0.15
5 0.28
50 0.15
51 0.15
6 0.27
7 0.27
8 0.35

>  <PUBCHEM_EFFECTIVE_ROTOR_COUNT>  (1) 
9

>  <PUBCHEM_PHARMACOPHORE_FEATURES>  (1) 
4
1 2 acceptor
1 3 cation
6 11 15 17 19 21 23 rings
6 12 16 18 20 22 24 rings

>  <PUBCHEM_HEAVY_ATOM_COUNT>  (1) 
24

>  <PUBCHEM_ATOM_DEF_STEREO_COUNT>  (1) 
0

>  <PUBCHEM_ATOM_UDEF_STEREO_COUNT>  (1) 
1

>  <PUBCHEM_BOND_DEF_STEREO_COUNT>  (1) 
0

>  <PUBCHEM_BOND_UDEF_STEREO_COUNT>  (1) 
0

>  <PUBCHEM_ISOTOPIC_ATOM_COUNT>  (1) 
0

>  <PUBCHEM_COMPONENT_COUNT>  (1) 
1

>  <PUBCHEM_CACTVS_TAUTO_COUNT>  (1) 
1

>  <PUBCHEM_CONFORMER_ID>  (1) 
0000488E00000001

>  <PUBCHEM_MMFF94_ENERGY>  (1) 
63.4875

>  <PUBCHEM_FEATURE_SELFOVERLAP>  (1) 
20.297

>  <PUBCHEM_SHAPE_FINGERPRINT>  (1) 
10764073 3 17389624637172411768
11578080 2 17749940056481800934
12403259 415 18114464475191012725
12553582 1 18267027145967146034
12616971 3 17845936239344407691
12788726 201 17829614955329611930
12930653 34 18049447233740629947
13004483 165 18048583834109415978
13134695 92 18337669698699252326
13140716 1 18411705400213735195
13583140 156 18113334181343268035
13590594 115 18122922944438583496
14347329 18 15938931061263697205
15081414 286 18410295779061759552
15163728 17 17900840536544441708
15238133 3 15358243876446891973
15806764 133 18113903711128259309
17349148 13 17846218791957489643
17818456 19 17416695631038898137
17844677 252 18410577241612523809
17980427 23 17702665436831977744
1813 80 18057050103301484198
18186145 218 18408887317709826907
18785283 64 18410581686355198275
19784866 34 18127413577496416241
20197701 30 18055626476873443528
20369508 70 18336828585136586198
20645477 56 18187926226992059047
20645477 70 18343868818165887751
21033648 29 17822006489662832301
2132832 1 17987238837225642297
21709351 56 18267578181870582068
22182313 1 17967806142258183245
23559900 14 18343019986794540914
268830 7 18201726141629460097
314173 41 18339091380056266142
474 4 18265335186455205352
5081480 168 18339372867922692901
5281201 14 18334296448886667653
5385378 56 18340493356276412656
57724786 102 18342463629911214353
5895379 119 16485032162403304385
59755656 215 18410854369829493684
633830 44 18056485177800367268
6443956 14 18410013230680886956
7364860 26 18343024406505422226
7399639 24 17902523906089732627
7471813 234 17845648149305957448
7495541 125 18187658963909695843
9841814 1 18335699391221754730
9981440 41 18050283975084461816

>  <PUBCHEM_SHAPE_MULTIPOLES>  (1) 
477.19
10.6
4.47
1.53
17.19
1.3
0.5
0.61
-0.1
-8.09
0.15
1.25
0.18
1.48

>  <PUBCHEM_SHAPE_SELFOVERLAP>  (1) 
992.493

>  <PUBCHEM_SHAPE_VOLUME>  (1) 
271.9

>  <PUBCHEM_COORDINATE_TYPE>  (1) 
2
5
10

$$$$
