1857
     RDKit          2D

 20 22  0  0  1  0  0  0  0  0999 V2000
    0.0000    0.0000    0.0000 Cl  0  0  0  0  0  0  0  0  0  0  0  0
    0.0000    0.0000    0.0000 S   0  0  0  0  0  0  0  0  0  0  0  0
    0.0000    0.0000    0.0000 O   0  0  0  0  0  0  0  0  0  0  0  0
    0.0000    0.0000    0.0000 N   0  0  0  0  0  0  0  0  0  0  0  0
    0.0000    0.0000    0.0000 N   0  0  0  0  0  0  0  0  0  0  0  0
    0.0000    0.0000    0.0000 N   0  0  0  0  0  0  0  0  0  0  0  0
    0.0000    0.0000    0.0000 N   0  0  0  0  0  0  0  0  0  0  0  0
    0.0000    0.0000    0.0000 C   0  0  0  0  0  0  0  0  0  0  0  0
    0.0000    0.0000    0.0000 C   0  0  0  0  0  0  0  0  0  0  0  0
    0.0000    0.0000    0.0000 C   0  0  0  0  0  0  0  0  0  0  0  0
    0.0000    0.0000    0.0000 C   0  0  0  0  0  0  0  0  0  0  0  0
    0.0000    0.0000    0.0000 C   0  0  0  0  0  0  0  0  0  0  0  0
    0.0000    0.0000    0.0000 C   0  0  0  0  0  0  0  0  0  0  0  0
    0.0000    0.0000    0.0000 C   0  0  0  0  0  0  0  0  0  0  0  0
    0.0000    0.0000    0.0000 C   0  0  0  0  0  0  0  0  0  0  0  0
    0.0000    0.0000    0.0000 C   0  0  0  0  0  0  0  0  0  0  0  0
    0.0000    0.0000    0.0000 C   0  0  0  0  0  0  0  0  0  0  0  0
    0.0000    0.0000    0.0000 C   0  0  0  0  0  0  0  0  0  0  0  0
    0.0000    0.0000    0.0000 C   0  0  0  0  0  0  0  0  0  0  0  0
    0.0000    0.0000    0.0000 C   0  0  0  0  0  0  0  0  0  0  0  0
  1 20  1  0
  2  8  1  0
  2 17  1  0
  3 12  1  0
  3 16  1  0
  4  9  1  0
  4 14  2  0
  5 17  2  0
  5 18  1  0
  6 17  1  0
  6 20  2  0
  7 18  1  0
  8  9  1  0
  8 13  1  0
  9 11  2  0
 10 11  1  0
 10 12  2  0
 10 15  1  0
 12 14  1  0
 15 16  2  0
 18 19  2  0
 19 20  1  0
M  END
>  <PUBCHEM_COMPOUND_CID>  (1) 
1857

>  <PUBCHEM_CONFORMER_RMSD>  (1) 
0.6

>  <PUBCHEM_CONFORMER_DIVERSEORDER>  (1) 
22
32
52
14
86
75
23
43
96
87
11
95
56
91
13
44
66
84
81
37
77
40
88
89
17
10
65
51
85
25
33
20
98
36
92
80
35
61
90
94
38
15
45
99
83
3
69
60
67
9
21
79
41
24
93
63
55
73
53
74
1
78
62
6
82
28
97
58
50
26
64
34
2
72
76
27
71
47
7
5
70
68
57
12
30
31
19
59
8
29
48
39
46
18
4
16
42
49
54

>  <PUBCHEM_MMFF94_PARTIAL_CHARGES>  (1) 
25
1 -0.18
11 -0.15
12 0.14
14 0.16
15 -0.15
16 -0.01
17 0.72
18 0.41
19 -0.15
2 -0.33
20 0.49
22 0.15
26 0.15
27 0.15
28 0.15
29 0.15
3 -0.28
30 0.4
31 0.4
4 -0.62
5 -0.62
6 -0.62
7 -0.9
8 0.37
9 0.17

>  <PUBCHEM_EFFECTIVE_ROTOR_COUNT>  (1) 
3

>  <PUBCHEM_PHARMACOPHORE_FEATURES>  (1) 
10
1 13 hydrophobe
1 3 acceptor
1 4 acceptor
1 6 acceptor
1 7 cation
1 7 donor
3 5 6 17 cation
5 3 10 12 15 16 rings
6 4 9 10 11 12 14 rings
6 5 6 17 18 19 20 rings

>  <PUBCHEM_HEAVY_ATOM_COUNT>  (1) 
20

>  <PUBCHEM_ATOM_DEF_STEREO_COUNT>  (1) 
0

>  <PUBCHEM_ATOM_UDEF_STEREO_COUNT>  (1) 
1

>  <PUBCHEM_BOND_DEF_STEREO_COUNT>  (1) 
0

>  <PUBCHEM_BOND_UDEF_STEREO_COUNT>  (1) 
0

>  <PUBCHEM_ISOTOPIC_ATOM_COUNT>  (1) 
0

>  <PUBCHEM_COMPONENT_COUNT>  (1) 
1

>  <PUBCHEM_CACTVS_TAUTO_COUNT>  (1) 
3

$$$$
