18570
     RDKit          3D

 16 16  0  0  0  0  0  0  0  0999 V2000
    0.6678    0.8868    1.2388 O   0  0  0  0  0  0  0  0  0  0  0  0
    3.0384    0.0507    0.1012 N   0  0  0  0  0  0  0  0  0  0  0  0
   -0.4905   -0.5501   -0.2123 N   0  0  0  0  0  0  0  0  0  0  0  0
    1.8701   -0.8268    0.0390 C   0  0  0  0  0  0  0  0  0  0  0  0
    2.8728    1.1872   -0.8043 C   0  0  0  0  0  0  0  0  0  0  0  0
    4.2539   -0.6926   -0.2283 C   0  0  0  0  0  0  0  0  0  0  0  0
    0.6308   -0.0478    0.4448 C   0  0  0  0  0  0  0  0  0  0  0  0
    4.0784    2.1103   -0.7528 C   0  0  0  0  0  0  0  0  0  0  0  0
    4.4748   -1.8415    0.7410 C   0  0  0  0  0  0  0  0  0  0  0  0
   -1.8278   -0.0995   -0.1055 C   0  0  0  0  0  0  0  0  0  0  0  0
   -2.8786   -0.9861   -0.2797 C   0  0  0  0  0  0  0  0  0  0  0  0
   -2.0543    1.2390    0.1749 C   0  0  0  0  0  0  0  0  0  0  0  0
   -4.1897   -0.5226   -0.1704 C   0  0  0  0  0  0  0  0  0  0  0  0
   -2.6478   -2.4313   -0.5822 C   0  0  0  0  0  0  0  0  0  0  0  0
   -3.3654    1.7025    0.2842 C   0  0  0  0  0  0  0  0  0  0  0  0
   -4.4330    0.8218    0.1114 C   0  0  0  0  0  0  0  0  0  0  0  0
  1  7  2  0
  2  4  1  0
  2  5  1  0
  2  6  1  0
  3  7  1  0
  3 10  1  0
  4  7  1  0
  5  8  1  0
  6  9  1  0
 10 11  2  0
 10 12  1  0
 11 13  1  0
 11 14  1  0
 12 15  2  0
 13 16  2  0
 15 16  1  0
M  END
>  <PUBCHEM_COMPOUND_CID>  (1) 
18570

>  <PUBCHEM_CONFORMER_RMSD>  (1) 
0.8

>  <PUBCHEM_CONFORMER_DIVERSEORDER>  (1) 
1
10
5
4
9
7
11
3
8
2
6

>  <PUBCHEM_MMFF94_PARTIAL_CHARGES>  (1) 
19
1 -0.57
10 0.12
11 -0.14
12 -0.15
13 -0.15
14 0.14
15 -0.15
16 -0.15
2 -0.81
29 0.37
3 -0.55
30 0.15
31 0.15
35 0.15
36 0.15
4 0.33
5 0.27
6 0.27
7 0.57

>  <PUBCHEM_EFFECTIVE_ROTOR_COUNT>  (1) 
6

>  <PUBCHEM_PHARMACOPHORE_FEATURES>  (1) 
4
1 1 acceptor
1 2 cation
1 3 donor
6 10 11 12 13 15 16 rings

>  <PUBCHEM_HEAVY_ATOM_COUNT>  (1) 
16

>  <PUBCHEM_ATOM_DEF_STEREO_COUNT>  (1) 
0

>  <PUBCHEM_ATOM_UDEF_STEREO_COUNT>  (1) 
0

>  <PUBCHEM_BOND_DEF_STEREO_COUNT>  (1) 
0

>  <PUBCHEM_BOND_UDEF_STEREO_COUNT>  (1) 
0

>  <PUBCHEM_ISOTOPIC_ATOM_COUNT>  (1) 
0

>  <PUBCHEM_COMPONENT_COUNT>  (1) 
1

>  <PUBCHEM_CACTVS_TAUTO_COUNT>  (1) 
2

>  <PUBCHEM_CONFORMER_ID>  (1) 
0000488A00000001

>  <PUBCHEM_MMFF94_ENERGY>  (1) 
42.5255

>  <PUBCHEM_FEATURE_SELFOVERLAP>  (1) 
20.297

>  <PUBCHEM_SHAPE_FINGERPRINT>  (1) 
10062212 137 18341606005918937878
10465860 250 17846490396798238906
10616163 171 18341613741202894287
11405975 8 18408323280828843762
12107183 9 17904762181013901576
12173636 292 18341889680388220957
12707595 3 16845575352587346536
13167823 11 18408040706319717866
13675066 3 17917703583339371062
13760787 19 18411422834235722678
14115302 16 18271808995134514928
14252887 29 14620795990178935646
15196674 1 18410013247333307021
15239154 128 18408045117050703349
15375358 24 16271921593197622534
15442244 35 18336264553098929924
15536298 74 18408888451407230380
15669948 3 18343014532328376423
17492 89 18409169947780227646
17804303 29 18201998846087682289
18186145 218 17022620883924026010
19026448 5 18408603677710688662
19050596 39 18409448089661051034
19422 9 18409448102545965958
20279233 1 16200148785577270206
20281475 54 18412257371903297183
20645477 70 18408606950803186102
21267235 1 18410301289235950363
21618674 54 18337390555921411918
2255824 54 18113900459991055242
23402539 116 18129933499802785181
23402655 69 18408608075973627132
23532345 12 18341049619207872712
23559900 14 17987807302449814934
2838139 119 17606103006425916045
3082319 5 18409451414071187772
4214541 1 18411136913635310743
474 4 17531815786878274908
5104073 3 18410857672157639449
53777708 50 18337393841576674566
559249 180 18265608776025194570
573450 72 18340196414848006419
58051976 100 18408324371571526566
633830 44 17167864166498070472
67856867 119 18337666520956534104
77779 3 18408887342936051902
81228 2 16414375363548728512
9709674 26 18342463620752009287
9971528 1 18334009459514619160
9981440 41 17468762239716160928

>  <PUBCHEM_SHAPE_MULTIPOLES>  (1) 
313.44
10.17
2.14
0.84
3.46
0.2
-0.05
-0.04
0.49
0.47
0.25
0.34
-0.06
-1.42

>  <PUBCHEM_SHAPE_SELFOVERLAP>  (1) 
630.387

>  <PUBCHEM_SHAPE_VOLUME>  (1) 
185.9

>  <PUBCHEM_COORDINATE_TYPE>  (1) 
2
5
10

$$$$
