18578
     RDKit          3D

 27 28  0  0  1  0  0  0  0  0999 V2000
    3.7176   -0.5325    2.0093 O   0  0  0  0  0  0  0  0  0  0  0  0
   -2.2310    0.5225   -1.8327 O   0  0  0  0  0  0  0  0  0  0  0  0
   -3.9728   -1.4349   -1.5418 O   0  0  0  0  0  0  0  0  0  0  0  0
    2.9801    1.6595   -1.4350 N   0  0  0  0  0  0  0  0  0  0  0  0
    1.3255    1.5971    0.5122 C   0  0  0  0  0  0  0  0  0  0  0  0
    2.6792    1.0614   -0.1225 C   0  0  0  0  0  0  0  0  0  0  0  0
    0.1164    1.0538   -0.3193 C   0  0  0  0  0  0  0  0  0  0  0  0
    1.2790    3.1394    0.5592 C   0  0  0  0  0  0  0  0  0  0  0  0
    1.2119    1.0815    1.9693 C   0  0  0  0  0  0  0  0  0  0  0  0
    2.7973   -0.4581   -0.2023 C   0  0  0  0  0  0  0  0  0  0  0  0
   -1.2862    1.3711    0.2197 C   0  0  0  0  0  0  0  0  0  0  0  0
    4.3363    1.3113   -1.8440 C   0  0  0  0  0  0  0  0  0  0  0  0
    2.8102    3.1070   -1.3760 C   0  0  0  0  0  0  0  0  0  0  0  0
    3.3091   -1.1574    0.8695 C   0  0  0  0  0  0  0  0  0  0  0  0
    2.3816   -1.0814   -1.3601 C   0  0  0  0  0  0  0  0  0  0  0  0
   -2.3789    0.7364   -0.6316 C   0  0  0  0  0  0  0  0  0  0  0  0
    3.4101   -2.5458    0.7800 C   0  0  0  0  0  0  0  0  0  0  0  0
    2.4829   -2.4697   -1.4495 C   0  0  0  0  0  0  0  0  0  0  0  0
   -3.6664    0.3574    0.0220 C   0  0  0  0  0  0  0  0  0  0  0  0
    2.9971   -3.2019   -0.3796 C   0  0  0  0  0  0  0  0  0  0  0  0
   -4.3904   -0.7056   -0.4688 C   0  0  0  0  0  0  0  0  0  0  0  0
   -4.0806    1.1015    1.1046 C   0  0  0  0  0  0  0  0  0  0  0  0
    4.2303   -1.3584    3.0528 C   0  0  0  0  0  0  0  0  0  0  0  0
   -5.5914   -1.0431    0.1554 C   0  0  0  0  0  0  0  0  0  0  0  0
   -5.2817    0.7640    1.7286 C   0  0  0  0  0  0  0  0  0  0  0  0
   -6.0371   -0.3081    1.2541 C   0  0  0  0  0  0  0  0  0  0  0  0
   -3.1481   -2.5669   -1.2738 C   0  0  0  0  0  0  0  0  0  0  0  0
  1 14  1  0
  1 23  1  0
  2 16  2  0
  3 21  1  0
  3 27  1  0
  4  6  1  0
  4 12  1  0
  4 13  1  0
  5  6  1  0
  5  7  1  0
  5  8  1  0
  5  9  1  0
  6 10  1  0
  7 11  1  0
 10 14  2  0
 10 15  1  0
 11 16  1  0
 14 17  1  0
 15 18  2  0
 16 19  1  0
 17 20  2  0
 18 20  1  0
 19 21  2  0
 19 22  1  0
 21 24  1  0
 22 25  2  0
 24 26  2  0
 25 26  1  0
M  END
>  <PUBCHEM_COMPOUND_CID>  (1) 
18578

>  <PUBCHEM_CONFORMER_RMSD>  (1) 
1

>  <PUBCHEM_CONFORMER_DIVERSEORDER>  (1) 
1
62
132
85
30
91
17
53
23
87
134
114
92
10
101
43
117
94
137
35
84
141
40
49
115
99
44
77
97
88
113
129
45
105
4
59
24
120
86
33
121
32
83
48
36
135
123
14
122
124
31
110
116
103
61
42
38
55
102
98
95
131
76
52
73
67
47
29
22
65
139
108
71
21
136
58
68
140
78
8
109
79
18
107
106
26
69
70
64
57
130
93
13
60
20
80
28
128
82
54
39
118
112
96
56
119
66
125
90
72
34
2
133
37
100
75
12
127
50
5
16
74
51
63
27
9
138
7
81
104
126
111
19
89
3
41
25
6
15
11
46

>  <PUBCHEM_MMFF94_PARTIAL_CHARGES>  (1) 
31
1 -0.36
10 -0.14
11 0.06
12 0.27
13 0.27
14 0.08
15 -0.15
16 0.42
17 -0.15
18 -0.15
19 0.09
2 -0.57
20 -0.15
21 0.08
22 -0.15
23 0.28
24 -0.15
25 -0.15
26 -0.15
27 0.28
3 -0.36
4 -0.81
45 0.15
46 0.15
47 0.15
48 0.15
49 0.15
53 0.15
54 0.15
55 0.15
6 0.41

>  <PUBCHEM_EFFECTIVE_ROTOR_COUNT>  (1) 
9

>  <PUBCHEM_PHARMACOPHORE_FEATURES>  (1) 
7
1 1 acceptor
1 2 acceptor
1 3 acceptor
1 4 cation
3 5 8 9 hydrophobe
6 10 14 15 17 18 20 rings
6 19 21 22 24 25 26 rings

>  <PUBCHEM_HEAVY_ATOM_COUNT>  (1) 
27

>  <PUBCHEM_ATOM_DEF_STEREO_COUNT>  (1) 
0

>  <PUBCHEM_ATOM_UDEF_STEREO_COUNT>  (1) 
1

>  <PUBCHEM_BOND_DEF_STEREO_COUNT>  (1) 
0

>  <PUBCHEM_BOND_UDEF_STEREO_COUNT>  (1) 
0

>  <PUBCHEM_ISOTOPIC_ATOM_COUNT>  (1) 
0

>  <PUBCHEM_COMPONENT_COUNT>  (1) 
1

>  <PUBCHEM_CACTVS_TAUTO_COUNT>  (1) 
2

>  <PUBCHEM_CONFORMER_ID>  (1) 
0000489200000001

>  <PUBCHEM_MMFF94_ENERGY>  (1) 
143.2015

>  <PUBCHEM_FEATURE_SELFOVERLAP>  (1) 
35.531

>  <PUBCHEM_SHAPE_FINGERPRINT>  (1) 
10730089 43 13829840310004685122
10928967 22 17967251971181349259
11135609 12 18268713810057951294
11421498 54 18270697414950096992
12107183 9 17982750571269808881
12553582 1 18201435874285313581
12633257 1 18411976975227278087
12788726 201 17631474296817412065
13533116 47 18341055194450066715
14863182 85 18272368655691945126
14910302 57 15502094168172482011
15250474 111 18200589315284034215
15537594 2 18340779212198503143
17818456 19 17843980143365489337
17857418 61 18201712969028021039
1813 80 18041005033655428709
19078846 21 17775569727838087745
1979834 28 17632017455535295687
20645477 70 18041287611984871648
20764821 26 18261675977657295635
20775530 9 18054504708250892894
21033648 29 14261075307806906729
21033650 10 12757419493549177669
21315764 119 15358525334270255907
21421861 104 18411146809356213244
23559900 14 16988021430773467557
3004659 81 18335987493032062501
34797466 226 15285647633522609373
44317340 157 10519711056115604881
460360 51 18337384938373513173
6669772 16 17095807723980812016
6823239 73 16558761134537838396
7097593 13 18131348639881831261
8509985 295 17418098672537910681

>  <PUBCHEM_SHAPE_MULTIPOLES>  (1) 
533.06
12.25
3.35
2.2
16.57
0.38
0.98
3.73
2.89
-3.65
-0.88
-1.93
0.31
-2.4

>  <PUBCHEM_SHAPE_SELFOVERLAP>  (1) 
1116.151

>  <PUBCHEM_SHAPE_VOLUME>  (1) 
301.7

>  <PUBCHEM_COORDINATE_TYPE>  (1) 
2
5
10

$$$$
