18581
     RDKit          3D

 25 26  0  0  1  0  0  0  0  0999 V2000
   -2.0672    1.0155    2.5764 O   0  0  0  0  0  0  0  0  0  0  0  0
    3.3787    1.2895   -1.2244 N   0  0  0  0  0  0  0  0  0  0  0  0
    1.8740    1.7039    0.7837 C   0  0  0  0  0  0  0  0  0  0  0  0
    2.2011    0.8043   -0.4836 C   0  0  0  0  0  0  0  0  0  0  0  0
    0.5402    1.2097    1.4355 C   0  0  0  0  0  0  0  0  0  0  0  0
    1.7563    3.1988    0.4171 C   0  0  0  0  0  0  0  0  0  0  0  0
    3.0241    1.5642    1.8129 C   0  0  0  0  0  0  0  0  0  0  0  0
    2.3341   -0.6905   -0.2060 C   0  0  0  0  0  0  0  0  0  0  0  0
   -0.7352    1.3658    0.5943 C   0  0  0  0  0  0  0  0  0  0  0  0
    3.2495    2.7182   -1.4886 C   0  0  0  0  0  0  0  0  0  0  0  0
    3.5303    0.5423   -2.4678 C   0  0  0  0  0  0  0  0  0  0  0  0
    1.2035   -1.4769   -0.2521 C   0  0  0  0  0  0  0  0  0  0  0  0
    3.5805   -1.2026    0.0823 C   0  0  0  0  0  0  0  0  0  0  0  0
   -1.9761    0.9151    1.3550 C   0  0  0  0  0  0  0  0  0  0  0  0
    1.3256   -2.8430    0.0026 C   0  0  0  0  0  0  0  0  0  0  0  0
    3.7025   -2.5685    0.3368 C   0  0  0  0  0  0  0  0  0  0  0  0
    2.5751   -3.3887    0.2969 C   0  0  0  0  0  0  0  0  0  0  0  0
   -3.1185    0.3402    0.5849 C   0  0  0  0  0  0  0  0  0  0  0  0
    0.1199   -3.7202   -0.0390 C   0  0  0  0  0  0  0  0  0  0  0  0
   -3.3270    0.7703   -0.7055 C   0  0  0  0  0  0  0  0  0  0  0  0
   -3.9186   -0.5981    1.1958 C   0  0  0  0  0  0  0  0  0  0  0  0
   -4.3944    0.2324   -1.4246 C   0  0  0  0  0  0  0  0  0  0  0  0
   -4.9858   -1.1360    0.4768 C   0  0  0  0  0  0  0  0  0  0  0  0
   -5.2237   -0.7209   -0.8335 C   0  0  0  0  0  0  0  0  0  0  0  0
   -4.6488    0.6752   -2.8259 C   0  0  0  0  0  0  0  0  0  0  0  0
  1 14  2  0
  2  4  1  0
  2 10  1  0
  2 11  1  0
  3  4  1  0
  3  5  1  0
  3  6  1  0
  3  7  1  0
  4  8  1  0
  5  9  1  0
  8 12  2  0
  8 13  1  0
  9 14  1  0
 12 15  1  0
 13 16  2  0
 14 18  1  0
 15 17  2  0
 15 19  1  0
 16 17  1  0
 18 20  2  0
 18 21  1  0
 20 22  1  0
 21 23  2  0
 22 24  2  0
 22 25  1  0
 23 24  1  0
M  END
>  <PUBCHEM_COMPOUND_CID>  (1) 
18581

>  <PUBCHEM_CONFORMER_RMSD>  (1) 
0.8

>  <PUBCHEM_CONFORMER_DIVERSEORDER>  (1) 
10
64
178
253
69
150
48
208
21
249
58
155
233
164
134
7
139
171
92
45
175
47
262
73
209
152
63
214
72
228
205
181
172
9
210
176
109
117
50
187
35
206
137
183
180
54
251
6
240
211
261
11
51
255
153
158
215
89
8
182
191
99
57
194
17
142
248
148
65
212
220
224
13
151
132
136
56
82
111
246
143
53
186
123
80
79
259
174
71
238
126
140
19
77
173
223
44
217
250
159
195
106
34
101
37
252
256
98
244
154
179
149
260
213
227
239
18
121
95
226
124
119
188
74
135
16
12
81
122
131
207
113
15
241
192
258
161
20
147
36
225
254
264
125
185
46
129
218
55
128
40
169
29
25
177
133
197
38
141
5
120
168
30
91
14
189
234
229
127
102
184
196
4
222
27
193
162
62
112
49
230
167
93
66
198
28
3
235
138
231
90
23
190
104
200
114
221
41
166
243
60
33
165
86
257
1
144
24
130
115
163
170
263
42
97
52
242
83
43
146
232
199
236
59
105
76
237
32
94
22
39
26
156
61
75
103
247
2
160
31
70
110
216
157
78
201
107
108
245
202
68
100
145
203
84
96
219
204
85
67
87
88
116
118

>  <PUBCHEM_MMFF94_PARTIAL_CHARGES>  (1) 
29
1 -0.57
10 0.27
11 0.27
12 -0.15
13 -0.15
14 0.42
15 -0.14
16 -0.15
17 -0.15
18 0.09
19 0.14
2 -0.81
20 -0.15
21 -0.15
22 -0.14
23 -0.15
24 -0.15
25 0.14
4 0.41
43 0.15
44 0.15
45 0.15
46 0.15
50 0.15
51 0.15
52 0.15
53 0.15
8 -0.14
9 0.06

>  <PUBCHEM_EFFECTIVE_ROTOR_COUNT>  (1) 
7

>  <PUBCHEM_PHARMACOPHORE_FEATURES>  (1) 
5
1 1 acceptor
1 2 cation
3 3 6 7 hydrophobe
6 18 20 21 22 23 24 rings
6 8 12 13 15 16 17 rings

>  <PUBCHEM_HEAVY_ATOM_COUNT>  (1) 
25

>  <PUBCHEM_ATOM_DEF_STEREO_COUNT>  (1) 
0

>  <PUBCHEM_ATOM_UDEF_STEREO_COUNT>  (1) 
1

>  <PUBCHEM_BOND_DEF_STEREO_COUNT>  (1) 
0

>  <PUBCHEM_BOND_UDEF_STEREO_COUNT>  (1) 
0

>  <PUBCHEM_ISOTOPIC_ATOM_COUNT>  (1) 
0

>  <PUBCHEM_COMPONENT_COUNT>  (1) 
1

>  <PUBCHEM_CACTVS_TAUTO_COUNT>  (1) 
2

>  <PUBCHEM_CONFORMER_ID>  (1) 
000048950000000A

>  <PUBCHEM_MMFF94_ENERGY>  (1) 
115.0369

>  <PUBCHEM_FEATURE_SELFOVERLAP>  (1) 
25.371

>  <PUBCHEM_SHAPE_FINGERPRINT>  (1) 
108634 29 17841431745683819022
11069576 57 18271797969732485854
11582403 64 17388531889801914904
12553582 1 18052556386309290418
13004483 165 17181657269269782978
13224815 77 17632577158593245561
13911987 19 18046364185835541212
14508693 111 15838981309502144957
14787075 74 18060419084997627808
15537594 2 18059300975977038399
15849732 13 18041549343857142568
17138139 8 17843110657005610655
20645477 70 18260270737086839649
20775530 9 17834401124780874074
21033650 10 16515684378091457189
21860390 5 16081380707965929022
22393880 68 18129954394138600725
235170 7 18040434442960208909
23557571 272 16226914279095478257
23559900 14 18115297878744647591
23598288 3 17488753259716353561
238 59 18335146405254531482
3052486 1 18051129495531947018
3060560 45 18262246650140990068
312425 83 17675923183962213535
404807 78 17465112921984775763
4098825 35 18041285366191937365
4409770 3 16973059568479174248
44802255 64 16521925408497055100
46194498 28 17749117690097531869
463206 1 18272360988916865267
484989 97 18121520178324191042
59682541 52 18266434570209688325
6669772 16 18127405864484154176
7471813 234 18128807560750665194

>  <PUBCHEM_SHAPE_MULTIPOLES>  (1) 
503.64
10.05
3.78
2.09
12.36
2.5
-0.67
0.71
-3.87
-4.85
0.23
0.98
-1.32
-0.21

>  <PUBCHEM_SHAPE_SELFOVERLAP>  (1) 
1053.044

>  <PUBCHEM_SHAPE_VOLUME>  (1) 
287.1

>  <PUBCHEM_COORDINATE_TYPE>  (1) 
2
5
10

$$$$
