18584
     RDKit          3D

 23 24  0  0  1  0  0  0  0  0999 V2000
    3.8968    2.3718    0.8226 F   0  0  0  0  0  0  0  0  0  0  0  0
    2.0521    2.5119    1.9545 F   0  0  0  0  0  0  0  0  0  0  0  0
    3.0879    0.6060    1.8006 F   0  0  0  0  0  0  0  0  0  0  0  0
   -1.1110   -1.6685   -0.5473 O   0  0  0  0  0  0  0  0  0  0  0  0
    0.4815   -3.7044    0.6630 N   0  0  0  0  0  0  0  0  0  0  0  0
   -1.2865   -0.3559   -1.0624 C   0  0  0  0  0  0  0  0  0  0  0  0
    0.0326    0.3827   -1.1821 C   0  0  0  0  0  0  0  0  0  0  0  0
   -2.3092    0.3950   -0.2354 C   0  0  0  0  0  0  0  0  0  0  0  0
   -0.1550   -2.4015   -1.3029 C   0  0  0  0  0  0  0  0  0  0  0  0
   -0.0042   -3.7937   -0.7136 C   0  0  0  0  0  0  0  0  0  0  0  0
    0.7381    0.6900   -0.0335 C   0  0  0  0  0  0  0  0  0  0  0  0
    0.4973    0.7296   -2.4373 C   0  0  0  0  0  0  0  0  0  0  0  0
    1.9519    1.3686   -0.1441 C   0  0  0  0  0  0  0  0  0  0  0  0
   -3.0842    1.3675   -0.8418 C   0  0  0  0  0  0  0  0  0  0  0  0
   -2.4457    0.0910    1.1075 C   0  0  0  0  0  0  0  0  0  0  0  0
    1.7109    1.4081   -2.5477 C   0  0  0  0  0  0  0  0  0  0  0  0
    2.4382    1.7275   -1.4013 C   0  0  0  0  0  0  0  0  0  0  0  0
   -4.0264    2.0591   -0.0805 C   0  0  0  0  0  0  0  0  0  0  0  0
   -3.3880    0.7825    1.8688 C   0  0  0  0  0  0  0  0  0  0  0  0
    1.7650   -3.0049    0.7076 C   0  0  0  0  0  0  0  0  0  0  0  0
    0.6057   -5.0386    1.2488 C   0  0  0  0  0  0  0  0  0  0  0  0
    2.7304    1.7098    1.0816 C   0  0  0  0  0  0  0  0  0  0  0  0
   -4.1783    1.7664    1.2747 C   0  0  0  0  0  0  0  0  0  0  0  0
  1 22  1  0
  2 22  1  0
  3 22  1  0
  4  6  1  0
  4  9  1  0
  5 10  1  0
  5 20  1  0
  5 21  1  0
  6  7  1  0
  6  8  1  0
  7 11  2  0
  7 12  1  0
  8 14  2  0
  8 15  1  0
  9 10  1  0
 11 13  1  0
 12 16  2  0
 13 17  2  0
 13 22  1  0
 14 18  1  0
 15 19  2  0
 16 17  1  0
 18 23  2  0
 19 23  1  0
M  END
>  <PUBCHEM_COMPOUND_CID>  (1) 
18584

>  <PUBCHEM_CONFORMER_RMSD>  (1) 
0.8

>  <PUBCHEM_CONFORMER_DIVERSEORDER>  (1) 
8
48
32
24
47
55
50
54
14
59
49
36
15
28
10
26
58
35
39
57
29
52
40
31
41
53
38
33
42
34
12
56
6
45
51
17
23
11
13
27
16
3
22
44
19
5
25
18
46
21
20
2
4
43
9
37
1
7
30

>  <PUBCHEM_MMFF94_PARTIAL_CHARGES>  (1) 
32
1 -0.34
10 0.27
11 -0.15
12 -0.15
13 -0.14
14 -0.15
15 -0.15
16 -0.15
17 -0.15
18 -0.15
19 -0.15
2 -0.34
20 0.27
21 0.27
22 1.16
23 -0.15
29 0.15
3 -0.34
30 0.15
31 0.15
32 0.15
33 0.15
34 0.15
35 0.15
36 0.15
4 -0.56
43 0.15
5 -0.81
6 0.57
7 -0.14
8 -0.14
9 0.28

>  <PUBCHEM_EFFECTIVE_ROTOR_COUNT>  (1) 
7

>  <PUBCHEM_PHARMACOPHORE_FEATURES>  (1) 
4
1 4 acceptor
1 5 cation
6 7 11 12 13 16 17 rings
6 8 14 15 18 19 23 rings

>  <PUBCHEM_HEAVY_ATOM_COUNT>  (1) 
23

>  <PUBCHEM_ATOM_DEF_STEREO_COUNT>  (1) 
0

>  <PUBCHEM_ATOM_UDEF_STEREO_COUNT>  (1) 
1

>  <PUBCHEM_BOND_DEF_STEREO_COUNT>  (1) 
0

>  <PUBCHEM_BOND_UDEF_STEREO_COUNT>  (1) 
0

>  <PUBCHEM_ISOTOPIC_ATOM_COUNT>  (1) 
0

>  <PUBCHEM_COMPONENT_COUNT>  (1) 
1

>  <PUBCHEM_CACTVS_TAUTO_COUNT>  (1) 
1

>  <PUBCHEM_CONFORMER_ID>  (1) 
0000489800000008

>  <PUBCHEM_MMFF94_ENERGY>  (1) 
60.0689

>  <PUBCHEM_FEATURE_SELFOVERLAP>  (1) 
20.297

>  <PUBCHEM_SHAPE_FINGERPRINT>  (1) 
10064457 181 18336832004299280088
10165383 225 17693148171851861413
10764073 3 14395611288388515279
11244481 83 17751096716480531259
11582403 64 17058336324260972112
12160290 23 17980771750644481975
12363563 72 8790326535135681669
12549972 3 17701561699510218380
12788726 201 17688316006872854239
12839892 36 18188782763798862683
13009979 54 17249760418726125978
13134695 92 17764025766595673661
13140716 1 18411141316119506271
13294875 104 18200606773745564365
133893 2 18263068930177331975
13681431 1 17834413219445313039
14022347 108 17401230243890385535
14955137 171 17769677320634588239
20600515 1 17326633405310681935
21120745 212 17255703304195751949
21524375 3 18272944829501206165
22956985 138 18114755828108260339
23419403 2 17541359259901968309
23558518 356 18268431411252030158
23559900 14 17824564988780280925
3380486 145 17473790975977266543
3380486 77 17828755480822921543
35225 105 17979942692732801778
474 4 17275393118240384545
495365 180 18194412100224675101
539174 4 17769052849326616490
5845 1 16478270518222146671
59554788 281 18266734869194762951
81228 2 17766573717194471951
9981440 41 16629390531902005496

>  <PUBCHEM_SHAPE_MULTIPOLES>  (1) 
440.66
5.9
4.99
2.2
8.15
4.73
-0.2
-1.13
2.88
-7.51
1.43
-0.72
-1.21
0.19

>  <PUBCHEM_SHAPE_SELFOVERLAP>  (1) 
930.055

>  <PUBCHEM_SHAPE_VOLUME>  (1) 
250.2

>  <PUBCHEM_COORDINATE_TYPE>  (1) 
2
5
10

$$$$
