18588
     RDKit          3D

  5  5  0  0  1  0  0  0  0  0999 V2000
   -2.3680    0.2830   -0.1708 Cl  0  0  0  0  0  0  0  0  0  0  0  0
    1.3805    1.0159    0.1604 S   0  0  0  0  0  0  0  0  0  0  0  0
    0.2639   -0.1621   -0.4136 C   0  0  0  0  0  0  0  0  0  0  0  0
    1.6153   -0.6794   -0.0553 C   0  0  0  0  0  0  0  0  0  0  0  0
   -0.8917   -0.4574    0.4792 C   0  0  0  0  0  0  0  0  0  0  0  0
  1  5  1  0
  2  3  1  0
  2  4  1  0
  3  4  1  0
  3  5  1  0
M  END
>  <PUBCHEM_COMPOUND_CID>  (1) 
18588

>  <PUBCHEM_CONFORMER_RMSD>  (1) 
0.4

>  <PUBCHEM_CONFORMER_DIVERSEORDER>  (1) 
2
6
1
5
4
3

>  <PUBCHEM_MMFF94_PARTIAL_CHARGES>  (1) 
8
1 -0.29
2 -0.28
3 -0.05
4 -0.06
5 0.38
6 0.1
7 0.1
8 0.1

>  <PUBCHEM_EFFECTIVE_ROTOR_COUNT>  (1) 
1.6

>  <PUBCHEM_PHARMACOPHORE_FEATURES>  (1) 
0

>  <PUBCHEM_HEAVY_ATOM_COUNT>  (1) 
5

>  <PUBCHEM_ATOM_DEF_STEREO_COUNT>  (1) 
0

>  <PUBCHEM_ATOM_UDEF_STEREO_COUNT>  (1) 
1

>  <PUBCHEM_BOND_DEF_STEREO_COUNT>  (1) 
0

>  <PUBCHEM_BOND_UDEF_STEREO_COUNT>  (1) 
0

>  <PUBCHEM_ISOTOPIC_ATOM_COUNT>  (1) 
0

>  <PUBCHEM_COMPONENT_COUNT>  (1) 
1

>  <PUBCHEM_CACTVS_TAUTO_COUNT>  (1) 
1

>  <PUBCHEM_CONFORMER_ID>  (1) 
0000489C00000002

>  <PUBCHEM_MMFF94_ENERGY>  (1) 
7.4614

>  <PUBCHEM_FEATURE_SELFOVERLAP>  (1) 
0

>  <PUBCHEM_SHAPE_FINGERPRINT>  (1) 
139733 1 9150876266195823438
14390081 3 18271242832435143721
20096714 4 18271247247650727560
21040471 1 18337674246969280982
24536 1 17386291020389256191
29004967 10 18411703153723727882
5460574 1 9871750191416564351
5943 1 16960463103688434798

>  <PUBCHEM_SHAPE_MULTIPOLES>  (1) 
108.62
2.89
1.02
0.73
1.51
0.15
-0.01
0.33
0.08
-0.38
-0.04
0.03
-0.01
0.12

>  <PUBCHEM_SHAPE_SELFOVERLAP>  (1) 
182.725

>  <PUBCHEM_SHAPE_VOLUME>  (1) 
75.2

>  <PUBCHEM_COORDINATE_TYPE>  (1) 
2
5
10

$$$$
