18587
     RDKit          3D

 10 10  0  0  0  0  0  0  0  0999 V2000
    3.5389   -0.0004   -0.0002 Br  0  0  0  0  0  0  0  0  0  0  0  0
   -1.2762    2.7196   -0.0011 Cl  0  0  0  0  0  0  0  0  0  0  0  0
   -1.2786   -2.7186   -0.0003 Cl  0  0  0  0  0  0  0  0  0  0  0  0
   -2.5068    0.0011    0.0010 O   0  0  0  0  0  0  0  0  0  0  0  0
   -1.1411    0.0005   -0.0002 C   0  0  0  0  0  0  0  0  0  0  0  0
   -0.4431    1.2081    0.0004 C   0  0  0  0  0  0  0  0  0  0  0  0
   -0.4443   -1.2079   -0.0006 C   0  0  0  0  0  0  0  0  0  0  0  0
    0.9517    1.2073    0.0007 C   0  0  0  0  0  0  0  0  0  0  0  0
    0.9507   -1.2087   -0.0002 C   0  0  0  0  0  0  0  0  0  0  0  0
    1.6487   -0.0010    0.0004 C   0  0  0  0  0  0  0  0  0  0  0  0
  1 10  1  0
  2  6  1  0
  3  7  1  0
  4  5  1  0
  5  6  2  0
  5  7  1  0
  6  8  1  0
  7  9  2  0
  8 10  2  0
  9 10  1  0
M  END
>  <PUBCHEM_COMPOUND_CID>  (1) 
18587

>  <PUBCHEM_CONFORMER_RMSD>  (1) 
0.4

>  <PUBCHEM_CONFORMER_DIVERSEORDER>  (1) 
1

>  <PUBCHEM_MMFF94_PARTIAL_CHARGES>  (1) 
13
1 -0.11
10 0.11
11 0.15
12 0.15
13 0.45
2 -0.18
3 -0.18
4 -0.53
5 0.08
6 0.18
7 0.18
8 -0.15
9 -0.15

>  <PUBCHEM_EFFECTIVE_ROTOR_COUNT>  (1) 
0

>  <PUBCHEM_PHARMACOPHORE_FEATURES>  (1) 
3
1 1 hydrophobe
1 4 donor
6 5 6 7 8 9 10 rings

>  <PUBCHEM_HEAVY_ATOM_COUNT>  (1) 
10

>  <PUBCHEM_ATOM_DEF_STEREO_COUNT>  (1) 
0

>  <PUBCHEM_ATOM_UDEF_STEREO_COUNT>  (1) 
0

>  <PUBCHEM_BOND_DEF_STEREO_COUNT>  (1) 
0

>  <PUBCHEM_BOND_UDEF_STEREO_COUNT>  (1) 
0

>  <PUBCHEM_ISOTOPIC_ATOM_COUNT>  (1) 
0

>  <PUBCHEM_COMPONENT_COUNT>  (1) 
1

>  <PUBCHEM_CACTVS_TAUTO_COUNT>  (1) 
2

>  <PUBCHEM_CONFORMER_ID>  (1) 
0000489B00000001

>  <PUBCHEM_MMFF94_ENERGY>  (1) 
19.125

>  <PUBCHEM_FEATURE_SELFOVERLAP>  (1) 
15.223

>  <PUBCHEM_SHAPE_FINGERPRINT>  (1) 
12423570 1 18338537282056003776
12716758 59 18341337674085160222
13380535 76 17976253539205982529
16945 1 18410856564182670214
20871998 184 18201161060950565550
21040471 1 18266740177858528452
2334 1 17978228592938840192
23402539 116 18342444950586500823
23402655 69 18123732177166509845
23552423 10 17972036105007555238
2748010 2 18052252083655013852
5084963 1 18131069281838447600

>  <PUBCHEM_SHAPE_MULTIPOLES>  (1) 
209.61
3.59
2.79
0.63
3.37
0
0
0
0
-2.14
0
0.06
0
0

>  <PUBCHEM_SHAPE_SELFOVERLAP>  (1) 
406.005

>  <PUBCHEM_SHAPE_VOLUME>  (1) 
133.1

>  <PUBCHEM_COORDINATE_TYPE>  (1) 
2
5
10

$$$$
