18590
     RDKit          3D

 18 18  0  0  1  0  0  0  0  0999 V2000
   -3.7120   -3.7160   -0.2770 Cl  0  0  0  0  0  0  0  0  0  0  0  0
   -4.6727    2.8765    1.5057 Cl  0  0  0  0  0  0  0  0  0  0  0  0
   -2.1821   -0.0239    0.2335 N   0  0  0  0  0  0  0  0  0  0  0  0
    0.9126    0.8529   -1.6610 N   0  0  0  0  0  0  0  0  0  0  0  0
   -1.2962    0.7795   -0.6019 C   0  0  0  0  0  0  0  0  0  0  0  0
    0.0310    0.0557   -0.8088 C   0  0  0  0  0  0  0  0  0  0  0  0
   -2.4504   -1.3177   -0.3962 C   0  0  0  0  0  0  0  0  0  0  0  0
   -3.4358    0.6878    0.4869 C   0  0  0  0  0  0  0  0  0  0  0  0
    2.2174    0.2060   -1.7935 C   0  0  0  0  0  0  0  0  0  0  0  0
    0.3062    1.0549   -2.9763 C   0  0  0  0  0  0  0  0  0  0  0  0
    2.8712   -0.0176   -0.4558 C   0  0  0  0  0  0  0  0  0  0  0  0
   -3.3958   -2.1329    0.4725 C   0  0  0  0  0  0  0  0  0  0  0  0
   -3.1514    2.0133    1.1764 C   0  0  0  0  0  0  0  0  0  0  0  0
    3.6967    0.9644    0.0739 C   0  0  0  0  0  0  0  0  0  0  0  0
    2.6388   -1.2022    0.2291 C   0  0  0  0  0  0  0  0  0  0  0  0
    4.3022    0.7575    1.3134 C   0  0  0  0  0  0  0  0  0  0  0  0
    3.2444   -1.4089    1.4685 C   0  0  0  0  0  0  0  0  0  0  0  0
    4.0760   -0.4290    2.0106 C   0  0  0  0  0  0  0  0  0  0  0  0
  1 12  1  0
  2 13  1  0
  3  5  1  0
  3  7  1  0
  3  8  1  0
  4  6  1  0
  4  9  1  0
  4 10  1  0
  5  6  1  0
  7 12  1  0
  8 13  1  0
  9 11  1  0
 11 14  2  0
 11 15  1  0
 14 16  1  0
 15 17  2  0
 16 18  2  0
 17 18  1  0
M  END
>  <PUBCHEM_COMPOUND_CID>  (1) 
18590

>  <PUBCHEM_CONFORMER_RMSD>  (1) 
0.8

>  <PUBCHEM_CONFORMER_DIVERSEORDER>  (1) 
2
18
158
138
11
19
33
116
10
117
22
136
3
134
88
78
150
154
8
17
164
31
123
21
24
36
129
46
48
94
140
1
109
157
159
14
133
74
156
104
65
111
7
68
145
112
16
72
42
83
37
108
26
96
15
12
69
137
27
84
6
67
107
127
121
85
73
103
162
39
161
30
89
43
76
23
4
55
93
163
25
130
79
119
149
106
118
41
101
135
52
114
98
110
122
155
153
32
105
66
77
91
54
120
125
124
57
144
152
13
56
86
5
148
142
141
80
47
20
92
113
63
131
29
40
81
143
126
60
64
49
62
35
59
139
132
147
61
82
95
70
102
115
38
128
58
97
99
75
146
160
9
50
151
87
90
100
28
71
53
45
44
34
51

>  <PUBCHEM_MMFF94_PARTIAL_CHARGES>  (1) 
23
1 -0.29
10 0.27
11 -0.14
12 0.29
13 0.29
14 -0.15
15 -0.15
16 -0.15
17 -0.15
18 -0.15
2 -0.29
3 -0.81
36 0.15
37 0.15
38 0.15
39 0.15
4 -0.81
40 0.15
5 0.27
6 0.27
7 0.27
8 0.27
9 0.41

>  <PUBCHEM_EFFECTIVE_ROTOR_COUNT>  (1) 
9

>  <PUBCHEM_PHARMACOPHORE_FEATURES>  (1) 
3
1 3 cation
1 4 cation
6 11 14 15 16 17 18 rings

>  <PUBCHEM_HEAVY_ATOM_COUNT>  (1) 
18

>  <PUBCHEM_ATOM_DEF_STEREO_COUNT>  (1) 
0

>  <PUBCHEM_ATOM_UDEF_STEREO_COUNT>  (1) 
0

>  <PUBCHEM_BOND_DEF_STEREO_COUNT>  (1) 
0

>  <PUBCHEM_BOND_UDEF_STEREO_COUNT>  (1) 
0

>  <PUBCHEM_ISOTOPIC_ATOM_COUNT>  (1) 
0

>  <PUBCHEM_COMPONENT_COUNT>  (1) 
1

>  <PUBCHEM_CACTVS_TAUTO_COUNT>  (1) 
1

>  <PUBCHEM_CONFORMER_ID>  (1) 
0000489E00000002

>  <PUBCHEM_MMFF94_ENERGY>  (1) 
45.9017

>  <PUBCHEM_FEATURE_SELFOVERLAP>  (1) 
15.223

>  <PUBCHEM_SHAPE_FINGERPRINT>  (1) 
10498660 4 15554150502770482272
11118852 30 18264203789349575846
11545043 162 17917727793996127086
11552529 35 18341036506325194954
11725454 13 17201912631633321461
12403259 327 18129376003903811936
12549972 3 17415590664713108511
12553582 1 16950289481510562686
12596599 1 18187078438522954922
12633257 1 18336818698316855136
12788726 201 18121522381884792699
12824470 246 18115869779526127151
12892183 10 18272079548231022466
13083527 12 17096910555681572260
13583140 156 17418085525284425018
14178342 30 18410860953586954151
14252887 29 16588313765410003676
14289901 80 17917987312968132134
14341114 328 18409163333899428640
14468879 13 16845009009857785081
14848160 33 15719392845591964816
14957384 54 16701152254354003768
15537594 2 17458352888220590554
15842332 3 17969242177294745149
15885798 251 16081660958645364269
19433438 48 18040709260099476306
20626108 58 17532916419212855427
20645477 70 15792292721134051622
212916 134 18198912405432794513
21304303 282 18198604568368574237
21756936 100 17773014558153632960
231179 274 16200425863013852344
23503953 91 18335700503306943984
23503958 25 17275107262343719512
23532345 11 18342182158875926039
23557571 272 17845951679245726981
23559900 14 17986971673185183964
23598288 3 18118432694191508459
23598291 2 17969807321665160175
25 1 13470413318203120748
341906 21 18131074792413883425
3797600 57 17986676089557663464
474 4 13470419871722198015
495365 180 17130431168723864205
7064713 232 18409444756713864067
7615 1 18114757043593703541
81228 2 16155096206709428516

>  <PUBCHEM_SHAPE_MULTIPOLES>  (1) 
364.21
9.85
3.01
2.19
0.32
1.73
-1.24
-0.96
6.17
6.7
1.04
-1.67
-0.84
-1.85

>  <PUBCHEM_SHAPE_SELFOVERLAP>  (1) 
701.945

>  <PUBCHEM_SHAPE_VOLUME>  (1) 
223.1

>  <PUBCHEM_COORDINATE_TYPE>  (1) 
2
5
10

$$$$
