18594
     RDKit          3D

 13 13  0  0  0  0  0  0  0  0999 V2000
   -1.5530    2.2109   -0.1357 O   0  0  0  0  0  0  0  0  0  0  0  0
    2.4144   -0.0788   -0.6345 C   0  0  0  0  0  0  0  0  0  0  0  0
    1.0264   -0.1530    0.0047 C   0  0  0  0  0  0  0  0  0  0  0  0
    3.5176   -0.1409    0.4231 C   0  0  0  0  0  0  0  0  0  0  0  0
   -0.0767   -0.0567   -1.0514 C   0  0  0  0  0  0  0  0  0  0  0  0
    4.9037   -0.0331   -0.2121 C   0  0  0  0  0  0  0  0  0  0  0  0
   -1.4481   -0.1646   -0.4357 C   0  0  0  0  0  0  0  0  0  0  0  0
    6.0016   -0.0605    0.8392 C   0  0  0  0  0  0  0  0  0  0  0  0
   -2.1140    0.9757   -0.0094 C   0  0  0  0  0  0  0  0  0  0  0  0
   -2.0247   -1.4203   -0.3054 C   0  0  0  0  0  0  0  0  0  0  0  0
   -3.3823    0.8581    0.5591 C   0  0  0  0  0  0  0  0  0  0  0  0
   -3.2930   -1.5381    0.2629 C   0  0  0  0  0  0  0  0  0  0  0  0
   -3.9719   -0.3987    0.6952 C   0  0  0  0  0  0  0  0  0  0  0  0
  1  9  1  0
  2  3  1  0
  2  4  1  0
  3  5  1  0
  4  6  1  0
  5  7  1  0
  6  8  1  0
  7  9  2  0
  7 10  1  0
  9 11  1  0
 10 12  2  0
 11 13  2  0
 12 13  1  0
M  END
>  <PUBCHEM_COMPOUND_CID>  (1) 
18594

>  <PUBCHEM_CONFORMER_RMSD>  (1) 
0.6

>  <PUBCHEM_CONFORMER_DIVERSEORDER>  (1) 
2
31
23
60
7
30
46
26
37
61
43
36
50
59
63
27
29
48
5
1
16
11
55
52
8
22
12
62
38
10
33
15
34
44
65
49
47
40
39
25
42
9
35
17
64
6
32
13
51
20
3
54
41
24
53
57
56
21
28
18
45
4
19
58
14

>  <PUBCHEM_MMFF94_PARTIAL_CHARGES>  (1) 
13
1 -0.53
10 -0.15
11 -0.15
12 -0.15
13 -0.15
27 0.15
28 0.15
29 0.15
30 0.15
31 0.45
5 0.14
7 -0.14
9 0.08

>  <PUBCHEM_EFFECTIVE_ROTOR_COUNT>  (1) 
5

>  <PUBCHEM_PHARMACOPHORE_FEATURES>  (1) 
4
1 1 donor
1 8 hydrophobe
5 2 3 4 5 6 hydrophobe
6 7 9 10 11 12 13 rings

>  <PUBCHEM_HEAVY_ATOM_COUNT>  (1) 
13

>  <PUBCHEM_ATOM_DEF_STEREO_COUNT>  (1) 
0

>  <PUBCHEM_ATOM_UDEF_STEREO_COUNT>  (1) 
0

>  <PUBCHEM_BOND_DEF_STEREO_COUNT>  (1) 
0

>  <PUBCHEM_BOND_UDEF_STEREO_COUNT>  (1) 
0

>  <PUBCHEM_ISOTOPIC_ATOM_COUNT>  (1) 
0

>  <PUBCHEM_COMPONENT_COUNT>  (1) 
1

>  <PUBCHEM_CACTVS_TAUTO_COUNT>  (1) 
3

>  <PUBCHEM_CONFORMER_ID>  (1) 
000048A200000002

>  <PUBCHEM_MMFF94_ENERGY>  (1) 
17.5948

>  <PUBCHEM_FEATURE_SELFOVERLAP>  (1) 
20.297

>  <PUBCHEM_SHAPE_FINGERPRINT>  (1) 
10014705 185 11455888061872913914
10680689 15 17847057796638465622
10726558 24 8790619091185479145
11132069 177 18271254858580533677
12251169 10 18410858767263535940
13167823 11 18260263019753594090
13214271 11 18202282502812918381
13675066 3 18060699490353408134
13897977 58 18411426132739054932
14123238 8 18272932734999861710
15219456 202 17774171105934146063
17834072 33 18040439923507244812
19050596 39 18334298690695961732
200 152 15574712504070358902
20432913 95 16370722604837829642
20645464 45 17703798015660878951
20645477 56 17561078120952341524
20645477 70 13984929707312066056
20828058 44 18409167714533565270
21119208 17 10592042453537865954
21637258 2 16371299943037240011
21650355 55 18410295856497615499
2297311 6 18270977790351149132
23380061 127 18334292059139856124
23402539 116 18409161134316743903
23402655 69 11455900152443047018
23403322 49 12973602235739593248
26918003 58 17603588547227236475
42 15 18335421262182569406
57265010 4 18413674612368836763
573450 72 18259977150740113186

>  <PUBCHEM_SHAPE_MULTIPOLES>  (1) 
261.66
10.82
1.38
0.89
17.2
0.32
-0.03
-0.94
3.49
-1.75
0
0.18
-0.03
-0.02

>  <PUBCHEM_SHAPE_SELFOVERLAP>  (1) 
519.312

>  <PUBCHEM_SHAPE_VOLUME>  (1) 
156.1

>  <PUBCHEM_COORDINATE_TYPE>  (1) 
2
5
10

$$$$
