18593
     RDKit          3D

 19 21  0  0  0  0  0  0  0  0999 V2000
    1.8751   -3.3347    0.0004 Cl  0  0  0  0  0  0  0  0  0  0  0  0
   -0.3720    2.6498   -0.0014 O   0  0  0  0  0  0  0  0  0  0  0  0
   -0.8025   -2.6737   -0.0013 O   0  0  0  0  0  0  0  0  0  0  0  0
    2.2214    2.5897    0.0006 N   0  0  0  0  0  0  0  0  0  0  0  0
    0.7882    0.5813   -0.0003 C   0  0  0  0  0  0  0  0  0  0  0  0
    0.6806   -0.8110   -0.0004 C   0  0  0  0  0  0  0  0  0  0  0  0
   -1.7504    0.7774   -0.0003 C   0  0  0  0  0  0  0  0  0  0  0  0
   -1.8579   -0.6148    0.0001 C   0  0  0  0  0  0  0  0  0  0  0  0
    2.0518    1.1841    0.0003 C   0  0  0  0  0  0  0  0  0  0  0  0
   -0.4234    1.4263   -0.0009 C   0  0  0  0  0  0  0  0  0  0  0  0
   -0.6463   -1.4600   -0.0005 C   0  0  0  0  0  0  0  0  0  0  0  0
    3.2013    0.3935    0.0005 C   0  0  0  0  0  0  0  0  0  0  0  0
    1.8367   -1.6005   -0.0002 C   0  0  0  0  0  0  0  0  0  0  0  0
    3.0940   -0.9958    0.0002 C   0  0  0  0  0  0  0  0  0  0  0  0
   -2.9065    1.5671   -0.0002 C   0  0  0  0  0  0  0  0  0  0  0  0
   -3.1217   -1.2176    0.0007 C   0  0  0  0  0  0  0  0  0  0  0  0
    4.5667    1.0034    0.0008 C   0  0  0  0  0  0  0  0  0  0  0  0
   -4.1639    0.9624    0.0007 C   0  0  0  0  0  0  0  0  0  0  0  0
   -4.2712   -0.4269    0.0013 C   0  0  0  0  0  0  0  0  0  0  0  0
  1 13  1  0
  2 10  2  0
  3 11  2  0
  4  9  1  0
  5  6  1  0
  5  9  2  0
  5 10  1  0
  6 11  1  0
  6 13  2  0
  7  8  2  0
  7 10  1  0
  7 15  1  0
  8 11  1  0
  8 16  1  0
  9 12  1  0
 12 14  2  0
 12 17  1  0
 13 14  1  0
 15 18  2  0
 16 19  2  0
 18 19  1  0
M  END
>  <PUBCHEM_COMPOUND_CID>  (1) 
18593

>  <PUBCHEM_CONFORMER_RMSD>  (1) 
0.4

>  <PUBCHEM_CONFORMER_DIVERSEORDER>  (1) 
1

>  <PUBCHEM_MMFF94_PARTIAL_CHARGES>  (1) 
26
1 -0.18
10 0.4
11 0.4
12 -0.14
13 0.18
14 -0.15
15 -0.15
16 -0.15
17 0.14
18 -0.15
19 -0.15
2 -0.57
20 0.15
21 0.15
22 0.15
26 0.15
27 0.15
28 0.4
29 0.4
3 -0.57
4 -0.9
5 0.09
6 0.09
7 0.09
8 0.09
9 0.1

>  <PUBCHEM_EFFECTIVE_ROTOR_COUNT>  (1) 
0

>  <PUBCHEM_PHARMACOPHORE_FEATURES>  (1) 
7
1 2 acceptor
1 3 acceptor
1 4 cation
1 4 donor
6 5 6 7 8 10 11 rings
6 5 6 9 12 13 14 rings
6 7 8 15 16 18 19 rings

>  <PUBCHEM_HEAVY_ATOM_COUNT>  (1) 
19

>  <PUBCHEM_ATOM_DEF_STEREO_COUNT>  (1) 
0

>  <PUBCHEM_ATOM_UDEF_STEREO_COUNT>  (1) 
0

>  <PUBCHEM_BOND_DEF_STEREO_COUNT>  (1) 
0

>  <PUBCHEM_BOND_UDEF_STEREO_COUNT>  (1) 
0

>  <PUBCHEM_ISOTOPIC_ATOM_COUNT>  (1) 
0

>  <PUBCHEM_COMPONENT_COUNT>  (1) 
1

>  <PUBCHEM_CACTVS_TAUTO_COUNT>  (1) 
3

>  <PUBCHEM_CONFORMER_ID>  (1) 
000048A100000001

>  <PUBCHEM_MMFF94_ENERGY>  (1) 
75.4739

>  <PUBCHEM_FEATURE_SELFOVERLAP>  (1) 
35.562

>  <PUBCHEM_SHAPE_FINGERPRINT>  (1) 
10411042 1 17689998929757987723
10608611 8 18408882906519886141
10616163 171 18338800133965315703
10967382 1 18410855425805431142
10980938 120 18409449171987619378
11132069 177 18411976970615500729
11471102 20 18410570673747503334
11578080 2 16952803952860401414
11680986 33 18336555923327161610
12011746 2 18410857663525597276
13140716 1 18266734869363301544
13221675 6 18410575097558549822
13380535 76 18409448111157194450
138480 1 18050567339963449986
13897977 150 18410571769228005253
14223421 5 18265050241118266199
14790565 3 18337681926693495156
15196674 1 18410575067488503975
15230672 131 13579319421282420171
15442244 35 18123470471048055595
15536298 74 18342739576790085662
16945 1 18410855456081224774
17492 89 18339642244346477159
18186145 218 18342182115852257021
193761 8 17978510823640020805
19591789 44 18339081617421009230
200 152 18131344233355980101
20510252 161 18272090474232522657
20645477 70 18338792304645948375
20739085 24 18048626749206086985
20905425 154 18269277850510774022
21267235 1 18410865390203579791
21421861 104 17970626285960700042
21501502 16 18268149751506770627
221490 88 18337117747909603971
2334 1 17185596261212813003
23366157 5 17969509208375988810
23402539 116 18343293803522322396
23463225 33 18409730629884473205
23559900 14 18196365927744053986
238 59 17829564510679452797
2748010 2 18410013208768038311
335352 9 17834114148071714013
33824 294 18409448068086130778
34934 24 18411412904213272919
350125 39 18121224439385939849
4409770 3 16168055918501384910
5104073 3 18410293579632186651
69090 78 18412822516721955439
7364860 26 18340487751417872526
9709674 26 18410579491421448103

>  <PUBCHEM_SHAPE_MULTIPOLES>  (1) 
376.16
7.08
3.04
0.6
1.67
1.06
0
-1.33
0
-1.43
0
0
0.02
0

>  <PUBCHEM_SHAPE_SELFOVERLAP>  (1) 
840.493

>  <PUBCHEM_SHAPE_VOLUME>  (1) 
200.5

>  <PUBCHEM_COORDINATE_TYPE>  (1) 
2
5
10

$$$$
