18606
     RDKit          3D

 11 11  0  0  0  0  0  0  0  0999 V2000
    1.4363   -0.7554    0.0289 O   0  0  0  0  0  0  0  0  0  0  0  0
   -3.8048    1.1272    0.0011 N   0  0  0  0  0  0  0  0  0  0  0  0
   -1.1528   -2.4647   -0.0219 N   0  0  0  0  0  0  0  0  0  0  0  0
    1.0490    0.5467    0.0036 C   0  0  0  0  0  0  0  0  0  0  0  0
    2.1457    1.3765   -0.0238 C   0  0  0  0  0  0  0  0  0  0  0  0
    3.2797    0.5298   -0.0148 C   0  0  0  0  0  0  0  0  0  0  0  0
   -0.3128    0.9269    0.0048 C   0  0  0  0  0  0  0  0  0  0  0  0
    2.7952   -0.7571    0.0173 C   0  0  0  0  0  0  0  0  0  0  0  0
   -1.4253    0.1088    0.0085 C   0  0  0  0  0  0  0  0  0  0  0  0
   -2.7373    0.6718    0.0042 C   0  0  0  0  0  0  0  0  0  0  0  0
   -1.2727   -1.3104   -0.0078 C   0  0  0  0  0  0  0  0  0  0  0  0
  1  4  1  0
  1  8  1  0
  2 10  3  0
  3 11  3  0
  4  5  2  0
  4  7  1  0
  5  6  1  0
  6  8  2  0
  7  9  2  3
  9 10  1  0
  9 11  1  0
M  END
>  <PUBCHEM_COMPOUND_CID>  (1) 
18606

>  <PUBCHEM_CONFORMER_RMSD>  (1) 
0.4

>  <PUBCHEM_CONFORMER_DIVERSEORDER>  (1) 
1
5
2
4
3

>  <PUBCHEM_MMFF94_PARTIAL_CHARGES>  (1) 
15
1 -0.28
10 0.49
11 0.49
12 0.15
13 0.15
14 0.15
15 0.15
2 -0.56
3 -0.56
4 0.09
5 -0.15
6 -0.15
7 -0.11
8 -0.01
9 0.13

>  <PUBCHEM_EFFECTIVE_ROTOR_COUNT>  (1) 
1

>  <PUBCHEM_PHARMACOPHORE_FEATURES>  (1) 
4
1 1 acceptor
1 2 acceptor
1 3 acceptor
5 1 4 5 6 8 rings

>  <PUBCHEM_HEAVY_ATOM_COUNT>  (1) 
11

>  <PUBCHEM_ATOM_DEF_STEREO_COUNT>  (1) 
0

>  <PUBCHEM_ATOM_UDEF_STEREO_COUNT>  (1) 
0

>  <PUBCHEM_BOND_DEF_STEREO_COUNT>  (1) 
0

>  <PUBCHEM_BOND_UDEF_STEREO_COUNT>  (1) 
0

>  <PUBCHEM_ISOTOPIC_ATOM_COUNT>  (1) 
0

>  <PUBCHEM_COMPONENT_COUNT>  (1) 
1

>  <PUBCHEM_CACTVS_TAUTO_COUNT>  (1) 
1

>  <PUBCHEM_CONFORMER_ID>  (1) 
000048AE00000001

>  <PUBCHEM_MMFF94_ENERGY>  (1) 
12.3471

>  <PUBCHEM_FEATURE_SELFOVERLAP>  (1) 
20.298

>  <PUBCHEM_SHAPE_FINGERPRINT>  (1) 
11062470 55 17489303070684164929
13380535 21 18337684108272208436
13380535 76 18342174457725342110
14144814 61 18411138017468572065
14325111 11 18410575072195109793
15775835 57 18260831483716659104
16945 1 18410573976888752556
18186145 218 18342459184319388877
20201158 50 18272934890772900510
20645476 183 17896341214614671094
20871998 184 18128262374882493031
21501502 16 18264485268472729172
23235685 24 18341607092555901485
23402539 116 18272077271624380365
23402655 69 18271236141271813685
23552423 10 18116432729289339038
23559900 14 18343303674507220116
2748010 2 18268432515200503910
366044 4 18410009914754917099
528862 383 18043805390602095291
6333449 129 18339076094303770839
69090 78 18411412921530168743

>  <PUBCHEM_SHAPE_MULTIPOLES>  (1) 
210.54
5.37
1.77
0.59
0.76
1
0
-1.58
0
0.65
-0.01
-0.03
-0.02
-0.02

>  <PUBCHEM_SHAPE_SELFOVERLAP>  (1) 
440.691

>  <PUBCHEM_SHAPE_VOLUME>  (1) 
116

>  <PUBCHEM_COORDINATE_TYPE>  (1) 
2
5
10

$$$$
