18602
     RDKit          3D

 12 12  0  0  0  0  0  0  0  0999 V2000
   -0.5648    1.1939   -0.3120 N   0  0  0  0  0  0  0  0  0  0  0  0
   -0.5873   -1.2054   -0.3013 N   0  0  0  0  0  0  0  0  0  0  0  0
   -2.5526    0.0157    0.3343 N   0  0  0  0  0  0  0  0  0  0  0  0
   -2.5010    2.3603    0.3124 N   0  0  0  0  0  0  0  0  0  0  0  0
   -2.5450   -2.3293    0.3335 N   0  0  0  0  0  0  0  0  0  0  0  0
    2.3934   -0.0304    0.2222 C   0  0  0  0  0  0  0  0  0  0  0  0
    1.4150   -0.0275   -0.9544 C   0  0  0  0  0  0  0  0  0  0  0  0
    3.8428   -0.0098   -0.2627 C   0  0  0  0  0  0  0  0  0  0  0  0
   -0.0181   -0.0118   -0.4875 C   0  0  0  0  0  0  0  0  0  0  0  0
    4.8198    0.0283    0.9016 C   0  0  0  0  0  0  0  0  0  0  0  0
   -1.8405    1.1301    0.1019 C   0  0  0  0  0  0  0  0  0  0  0  0
   -1.8616   -1.1140    0.1120 C   0  0  0  0  0  0  0  0  0  0  0  0
  1  9  2  0
  1 11  1  0
  2  9  1  0
  2 12  2  0
  3 11  2  0
  3 12  1  0
  4 11  1  0
  5 12  1  0
  6  7  1  0
  6  8  1  0
  7  9  1  0
  8 10  1  0
M  END
>  <PUBCHEM_COMPOUND_CID>  (1) 
18602

>  <PUBCHEM_CONFORMER_RMSD>  (1) 
0.6

>  <PUBCHEM_CONFORMER_DIVERSEORDER>  (1) 
1
5
6
3
4
2

>  <PUBCHEM_MMFF94_PARTIAL_CHARGES>  (1) 
13
1 -0.62
11 0.72
12 0.72
2 -0.62
22 0.4
23 0.4
24 0.4
25 0.4
3 -0.62
4 -0.9
5 -0.9
7 0.14
9 0.48

>  <PUBCHEM_EFFECTIVE_ROTOR_COUNT>  (1) 
3

>  <PUBCHEM_PHARMACOPHORE_FEATURES>  (1) 
6
1 10 hydrophobe
1 4 donor
1 5 donor
4 1 3 4 11 cation
4 2 3 5 12 cation
6 1 2 3 9 11 12 rings

>  <PUBCHEM_HEAVY_ATOM_COUNT>  (1) 
12

>  <PUBCHEM_ATOM_DEF_STEREO_COUNT>  (1) 
0

>  <PUBCHEM_ATOM_UDEF_STEREO_COUNT>  (1) 
0

>  <PUBCHEM_BOND_DEF_STEREO_COUNT>  (1) 
0

>  <PUBCHEM_BOND_UDEF_STEREO_COUNT>  (1) 
0

>  <PUBCHEM_ISOTOPIC_ATOM_COUNT>  (1) 
0

>  <PUBCHEM_COMPONENT_COUNT>  (1) 
1

>  <PUBCHEM_CACTVS_TAUTO_COUNT>  (1) 
10

>  <PUBCHEM_CONFORMER_ID>  (1) 
000048AA00000001

>  <PUBCHEM_MMFF94_ENERGY>  (1) 
23.8354

>  <PUBCHEM_FEATURE_SELFOVERLAP>  (1) 
30.489

>  <PUBCHEM_SHAPE_FINGERPRINT>  (1) 
11357001 24 18334301984914811483
12251169 10 18335706026787841108
12932764 1 17418091040359712222
13024252 1 14129058097610935117
13296909 8 18410571794871221644
15219456 202 17988650640600012678
16945 1 18338535083254274799
18186145 218 15554450721654080020
19422 9 18114184151117935126
20645464 45 18060142015892465028
20715346 28 17846789490031465150
20871998 184 18272657882441060047
21040471 1 18193576471012713653
21650355 55 18337951297981996835
22445834 79 17967810514234034674
23402539 116 18341040874812707453
23500284 214 17987523623532428009
23559900 14 18198915721463844134
2748010 2 17904506025180558997
3086196 2 18337951289492464330
6333449 129 18342175548805089421
75552 356 18409450288700033460

>  <PUBCHEM_SHAPE_MULTIPOLES>  (1) 
222.05
6.81
1.79
0.81
9.13
0.04
-0.04
0.01
1.98
-2.66
0.24
0.44
0
0.03

>  <PUBCHEM_SHAPE_SELFOVERLAP>  (1) 
442.902

>  <PUBCHEM_SHAPE_VOLUME>  (1) 
123.5

>  <PUBCHEM_COORDINATE_TYPE>  (1) 
2
5
10

$$$$
