18601
     RDKit          3D

 13 12  0  0  0  0  0  0  0  0999 V2000
   -1.4930    1.3713   -0.0042 S   0  0  0  0  0  0  0  0  0  0  0  0
    1.4930    1.3716    0.0054 S   0  0  0  0  0  0  0  0  0  0  0  0
   -6.4602   -0.0202   -0.0140 O   0  0  0  0  0  0  0  0  0  0  0  0
    6.4602   -0.0203    0.0100 O   0  0  0  0  0  0  0  0  0  0  0  0
   -4.9178   -1.6865    0.0249 O   0  0  0  0  0  0  0  0  0  0  0  0
    4.9177   -1.6865   -0.0235 O   0  0  0  0  0  0  0  0  0  0  0  0
   -2.7321    0.0543   -0.0079 C   0  0  0  0  0  0  0  0  0  0  0  0
    2.7322    0.0544    0.0095 C   0  0  0  0  0  0  0  0  0  0  0  0
   -4.1517    0.6045   -0.0141 C   0  0  0  0  0  0  0  0  0  0  0  0
    4.1517    0.6045    0.0124 C   0  0  0  0  0  0  0  0  0  0  0  0
    0.0000    0.3381    0.0027 C   0  0  0  0  0  0  0  0  0  0  0  0
   -5.1896   -0.4925    0.0080 C   0  0  0  0  0  0  0  0  0  0  0  0
    5.1896   -0.4926   -0.0092 C   0  0  0  0  0  0  0  0  0  0  0  0
  1  7  1  0
  1 11  1  0
  2  8  1  0
  2 11  1  0
  3 12  1  0
  4 13  1  0
  5 12  2  0
  6 13  2  0
  7  9  1  0
  8 10  1  0
  9 12  1  0
 10 13  1  0
M  END
>  <PUBCHEM_COMPOUND_CID>  (1) 
18601

>  <PUBCHEM_CONFORMER_RMSD>  (1) 
0.8

>  <PUBCHEM_CONFORMER_DIVERSEORDER>  (1) 
1
74
29
19
128
5
35
85
34
80
15
76
126
7
63
73
27
25
107
30
97
127
2
31
37
6
67
121
103
12
109
21
68
45
33
104
14
50
9
102
62
123
65
83
28
56
51
20
3
77
99
11
92
113
32
48
36
72
87
96
106
22
86
100
23
125
18
49
91
95
115
59
78
17
13
71
61
53
88
38
112
10
129
58
75
90
47
8
122
43
41
57
66
118
42
101
116
79
82
117
16
24
120
89
60
114
52
46
70
55
111
4
26
124
93
119
44
84
94
40
64
69
39
110
54
105
98
108
81

>  <PUBCHEM_MMFF94_PARTIAL_CHARGES>  (1) 
15
1 -0.46
10 0.06
11 0.46
12 0.66
13 0.66
2 -0.46
24 0.5
25 0.5
3 -0.65
4 -0.65
5 -0.57
6 -0.57
7 0.23
8 0.23
9 0.06

>  <PUBCHEM_EFFECTIVE_ROTOR_COUNT>  (1) 
8

>  <PUBCHEM_PHARMACOPHORE_FEATURES>  (1) 
6
1 3 acceptor
1 4 acceptor
1 5 acceptor
1 6 acceptor
3 3 5 12 anion
3 4 6 13 anion

>  <PUBCHEM_HEAVY_ATOM_COUNT>  (1) 
13

>  <PUBCHEM_ATOM_DEF_STEREO_COUNT>  (1) 
0

>  <PUBCHEM_ATOM_UDEF_STEREO_COUNT>  (1) 
0

>  <PUBCHEM_BOND_DEF_STEREO_COUNT>  (1) 
0

>  <PUBCHEM_BOND_UDEF_STEREO_COUNT>  (1) 
0

>  <PUBCHEM_ISOTOPIC_ATOM_COUNT>  (1) 
0

>  <PUBCHEM_COMPONENT_COUNT>  (1) 
1

>  <PUBCHEM_CACTVS_TAUTO_COUNT>  (1) 
1

>  <PUBCHEM_CONFORMER_ID>  (1) 
000048A900000001

>  <PUBCHEM_MMFF94_ENERGY>  (1) 
14.493

>  <PUBCHEM_FEATURE_SELFOVERLAP>  (1) 
30.565

>  <PUBCHEM_SHAPE_FINGERPRINT>  (1) 
100836 57 9583516529583365592
10354089 29 12823294602724180216
117890 112 9295289439097303614
12714333 28 12612753518946455444
13690532 89 18409730659843983080
13964095 4 17894906305376102773
1420 363 18343585144012589876
14251718 22 18186519904175273548
14251731 8 18333728018502151005
14251732 16 18342455980558707200
14251752 14 17749380430669841149
14350574 20 18260829310458315916
15501527 16 9151172060772957541
15501527 24 17748830717668352392
17834072 33 18335422391511236948
17834072 8 16153429458402481945
17834076 25 8214142953813381188
187816 3 15936128564822175889
20621476 21 17459766989471440019
20645477 56 10087640399000143105
20645477 70 18408605838606772142
20767249 213 9511460026688676869
21130983 4 8862943892302838871
212847 35 8502368924140816414
22896161 15 18410856594711918284
23035841 295 18260829302453528187
23402539 116 18408882932453337325
23402655 69 11963384150499788321
23559900 14 18336260266816943057
23590187 198 18410013247686494465
2916195 48 10592045752246809623
293599 30 8935001468739229141
351380 3 18410570686616749702
42788 4 18410573985151691493
465052 167 18202285793090157126
49783359 22 18202561800309794631
57483677 66 18409445881989858130

>  <PUBCHEM_SHAPE_MULTIPOLES>  (1) 
251.76
17.18
1.39
0.6
0
0.19
0
6.64
-0.01
0
0
0
-0.05
0.04

>  <PUBCHEM_SHAPE_SELFOVERLAP>  (1) 
445.348

>  <PUBCHEM_SHAPE_VOLUME>  (1) 
163.8

>  <PUBCHEM_COORDINATE_TYPE>  (1) 
2
5
10

$$$$
