18608
     RDKit          3D

 15 15  0  0  1  0  0  0  0  0999 V2000
   -3.7072    0.2737    0.3128 O   0  0  0  0  0  0  0  0  0  0  0  0
   -2.3973   -1.4415   -0.4729 O   0  0  0  0  0  0  0  0  0  0  0  0
   -0.2124   -0.1669    0.6893 N   0  0  0  0  0  0  0  0  0  0  0  0
   -1.5061    0.3218    0.7443 N   0  0  0  0  0  0  0  0  0  0  0  0
    0.6678    0.8037    0.0534 C   0  0  0  0  0  0  0  0  0  0  0  0
    2.1051    0.3230    0.0382 C   0  0  0  0  0  0  0  0  0  0  0  0
    0.1598    1.1169   -1.3559 C   0  0  0  0  0  0  0  0  0  0  0  0
    2.3609   -1.0305   -0.0844 C   0  0  0  0  0  0  0  0  0  0  0  0
    3.1262    1.2494    0.1470 C   0  0  0  0  0  0  0  0  0  0  0  0
    3.6836   -1.4732   -0.0986 C   0  0  0  0  0  0  0  0  0  0  0  0
    4.4489    0.8067    0.1327 C   0  0  0  0  0  0  0  0  0  0  0  0
    4.7275   -0.5547    0.0098 C   0  0  0  0  0  0  0  0  0  0  0  0
   -2.5219   -0.3835    0.1365 C   0  0  0  0  0  0  0  0  0  0  0  0
   -4.8583   -0.3483   -0.2693 C   0  0  0  0  0  0  0  0  0  0  0  0
   -6.0767    0.5033    0.0171 C   0  0  0  0  0  0  0  0  0  0  0  0
  1 13  1  0
  1 14  1  0
  2 13  2  0
  3  4  1  0
  3  5  1  0
  4 13  1  0
  5  6  1  0
  5  7  1  0
  6  8  2  0
  6  9  1  0
  8 10  1  0
  9 11  2  0
 10 12  2  0
 11 12  1  0
 14 15  1  0
M  END
>  <PUBCHEM_COMPOUND_CID>  (1) 
18608

>  <PUBCHEM_CONFORMER_RMSD>  (1) 
0.6

>  <PUBCHEM_CONFORMER_DIVERSEORDER>  (1) 
2
63
3
58
20
28
61
45
57
5
25
8
53
26
64
60
51
16
4
24
27
52
11
33
59
42
22
32
49
30
54
29
1
7
6
15
35
39
18
12
56
21
65
34
62
40
9
50
19
41
36
48
44
17
10
13
14
23
47
55
37
46
38
31
43

>  <PUBCHEM_MMFF94_PARTIAL_CHARGES>  (1) 
20
1 -0.43
10 -0.15
11 -0.15
12 -0.15
13 0.78
14 0.28
2 -0.57
20 0.36
21 0.15
22 0.15
23 0.15
24 0.15
25 0.37
26 0.15
3 -0.64
4 -0.42
5 0.41
6 -0.14
8 -0.15
9 -0.15

>  <PUBCHEM_EFFECTIVE_ROTOR_COUNT>  (1) 
6

>  <PUBCHEM_PHARMACOPHORE_FEATURES>  (1) 
4
1 2 acceptor
1 3 donor
1 4 donor
6 6 8 9 10 11 12 rings

>  <PUBCHEM_HEAVY_ATOM_COUNT>  (1) 
15

>  <PUBCHEM_ATOM_DEF_STEREO_COUNT>  (1) 
0

>  <PUBCHEM_ATOM_UDEF_STEREO_COUNT>  (1) 
1

>  <PUBCHEM_BOND_DEF_STEREO_COUNT>  (1) 
0

>  <PUBCHEM_BOND_UDEF_STEREO_COUNT>  (1) 
0

>  <PUBCHEM_ISOTOPIC_ATOM_COUNT>  (1) 
0

>  <PUBCHEM_COMPONENT_COUNT>  (1) 
1

>  <PUBCHEM_CACTVS_TAUTO_COUNT>  (1) 
2

>  <PUBCHEM_CONFORMER_ID>  (1) 
000048B000000002

>  <PUBCHEM_MMFF94_ENERGY>  (1) 
25.9972

>  <PUBCHEM_FEATURE_SELFOVERLAP>  (1) 
21.791

>  <PUBCHEM_SHAPE_FINGERPRINT>  (1) 
11471102 20 18410293618882990344
117890 112 17704075071126960577
12107183 9 17552087194811798931
12236239 1 18060418023386383287
12815109 37 18059855064879905155
13167823 11 18273493498583126287
13533116 47 17704073949829474078
13675066 3 18186805811531821025
13760787 19 18131069389376192926
14123238 8 18411419518605132157
14251717 144 18411702084619879394
15048467 5 18341331175541477336
15242433 33 18342458161784726591
17834072 33 18202279238468929215
17834072 8 18260263032548396381
17834076 25 17775004591814423329
18186145 218 16081366405476873596
19141452 34 18408321116360745623
200 152 18202561769780851792
20279233 1 17895201008192520170
20645477 70 18412263896159274846
22485316 2 18413106182021256206
23402539 116 18113330942557709191
23402655 69 18412546530829409142
23536379 177 18341613703233133305
23557571 272 17676483909186054436
23559900 14 18201152260541360240
26918003 58 18412262848033936242
2871803 45 18187083910696008970
29717793 49 17632583729803602756
300161 21 18201712981190236368
33824 294 18408322168807243586
4047638 21 14201402703012420020
42 15 18411140238314537735
4214541 1 18341613694321698585
42788 4 18411981360610023937
522135 26 18410293605802896650
5374978 207 17703785916627139168
581208 293 18408885166141915904
69090 78 18413106173457877275
9971528 1 18186239545447175924

>  <PUBCHEM_SHAPE_MULTIPOLES>  (1) 
286.99
11.94
1.3
0.81
12.77
0.15
-0.14
0.5
0.26
-0.96
-0.17
0.07
-0.13
0.01

>  <PUBCHEM_SHAPE_SELFOVERLAP>  (1) 
577.705

>  <PUBCHEM_SHAPE_VOLUME>  (1) 
168.5

>  <PUBCHEM_COORDINATE_TYPE>  (1) 
2
5
10

$$$$
