18609
     RDKit          3D

 21 20  0  0  0  0  0  0  0  0999 V2000
    0.2102   -1.5531    3.3028 S   0  0  0  0  0  0  0  0  0  0  0  0
   -0.1646    3.7478    0.7950 S   0  0  0  0  0  0  0  0  0  0  0  0
    0.2874   -0.7772    1.5216 P   0  0  0  0  0  0  0  0  0  0  0  0
   -0.2673    1.8786    0.2692 P   0  0  0  0  0  0  0  0  0  0  0  0
    0.0163    0.8207    1.4652 O   0  0  0  0  0  0  0  0  0  0  0  0
    1.7085   -0.8950    0.7429 O   0  0  0  0  0  0  0  0  0  0  0  0
   -0.7550   -1.3486    0.4139 O   0  0  0  0  0  0  0  0  0  0  0  0
   -1.7031    1.3627   -0.2897 O   0  0  0  0  0  0  0  0  0  0  0  0
    0.7500    1.3745   -0.8933 O   0  0  0  0  0  0  0  0  0  0  0  0
    2.9015   -0.4848    1.3884 C   0  0  0  0  0  0  0  0  0  0  0  0
   -0.6105   -2.6728   -0.0709 C   0  0  0  0  0  0  0  0  0  0  0  0
   -2.8810    1.6123    0.4578 C   0  0  0  0  0  0  0  0  0  0  0  0
    0.5854    1.8395   -2.2224 C   0  0  0  0  0  0  0  0  0  0  0  0
    3.9666   -0.2248    0.3342 C   0  0  0  0  0  0  0  0  0  0  0  0
   -1.7080   -2.9467   -1.0879 C   0  0  0  0  0  0  0  0  0  0  0  0
   -3.9625    0.6409    0.0104 C   0  0  0  0  0  0  0  0  0  0  0  0
    1.6619    1.2166   -3.0980 C   0  0  0  0  0  0  0  0  0  0  0  0
    5.2830    0.2060    0.9555 C   0  0  0  0  0  0  0  0  0  0  0  0
   -1.6253   -4.3577   -1.6418 C   0  0  0  0  0  0  0  0  0  0  0  0
   -5.2639    0.8598    0.7607 C   0  0  0  0  0  0  0  0  0  0  0  0
    1.5705   -0.2987   -3.1136 C   0  0  0  0  0  0  0  0  0  0  0  0
  1  3  2  0
  2  4  2  0
  3  5  1  0
  3  6  1  0
  3  7  1  0
  4  5  1  0
  4  8  1  0
  4  9  1  0
  6 10  1  0
  7 11  1  0
  8 12  1  0
  9 13  1  0
 10 14  1  0
 11 15  1  0
 12 16  1  0
 13 17  1  0
 14 18  1  0
 15 19  1  0
 16 20  1  0
 17 21  1  0
M  END
>  <PUBCHEM_COMPOUND_CID>  (1) 
18609

>  <PUBCHEM_CONFORMER_RMSD>  (1) 
1

>  <PUBCHEM_CONFORMER_DIVERSEORDER>  (1) 
1
52
46
65
21
34
40
48
3
51
50
14
7
45
59
35
4
60
10
61
64
2
25
23
37
56
33
27
58
28
29
24
31
62
53
32
63
16
43
18
47
44
38
22
54
26
6
5
9
17
36
15
41
30
13
57
42
39
11
12
19
49
55
8
20

>  <PUBCHEM_MMFF94_PARTIAL_CHARGES>  (1) 
13
1 -0.68
10 0.28
11 0.28
12 0.28
13 0.28
2 -0.68
3 1.49
4 1.49
5 -0.54
6 -0.55
7 -0.55
8 -0.55
9 -0.55

>  <PUBCHEM_EFFECTIVE_ROTOR_COUNT>  (1) 
14

>  <PUBCHEM_PHARMACOPHORE_FEATURES>  (1) 
4
1 18 hydrophobe
1 19 hydrophobe
1 20 hydrophobe
1 21 hydrophobe

>  <PUBCHEM_HEAVY_ATOM_COUNT>  (1) 
21

>  <PUBCHEM_ATOM_DEF_STEREO_COUNT>  (1) 
0

>  <PUBCHEM_ATOM_UDEF_STEREO_COUNT>  (1) 
0

>  <PUBCHEM_BOND_DEF_STEREO_COUNT>  (1) 
0

>  <PUBCHEM_BOND_UDEF_STEREO_COUNT>  (1) 
0

>  <PUBCHEM_ISOTOPIC_ATOM_COUNT>  (1) 
0

>  <PUBCHEM_COMPONENT_COUNT>  (1) 
1

>  <PUBCHEM_CACTVS_TAUTO_COUNT>  (1) 
1

>  <PUBCHEM_CONFORMER_ID>  (1) 
000048B100000001

>  <PUBCHEM_MMFF94_ENERGY>  (1) 
-2.7979

>  <PUBCHEM_FEATURE_SELFOVERLAP>  (1) 
20.3

>  <PUBCHEM_SHAPE_FINGERPRINT>  (1) 
14787075 74 18259702293854786560
14863182 85 18268720415844090631
20600515 1 18059862765999672225
229495 10 17172329162959391290
23419403 2 16893363564231694120
9925002 15 18262512718563075228

>  <PUBCHEM_SHAPE_MULTIPOLES>  (1) 
418.22
6.54
4.22
3.12
0.08
2.38
1.32
-1.32
-2.03
-3.05
1.39
1.92
0.77
-1.72

>  <PUBCHEM_SHAPE_SELFOVERLAP>  (1) 
723.534

>  <PUBCHEM_SHAPE_VOLUME>  (1) 
279.3

>  <PUBCHEM_COORDINATE_TYPE>  (1) 
2
5
10

$$$$
