1861
     RDKit          3D

 12 13  0  0  0  0  0  0  0  0999 V2000
   -2.0939   -0.3411    0.0124 N   0  0  0  0  0  0  0  0  0  0  0  0
    2.5659   -0.5427   -0.0832 N   0  0  0  0  0  0  0  0  0  0  0  0
   -0.8093    1.6680    0.1296 N   0  0  0  0  0  0  0  0  0  0  0  0
    1.6250    1.6708    0.0878 N   0  0  0  0  0  0  0  0  0  0  0  0
    0.3391   -0.4029   -0.0350 C   0  0  0  0  0  0  0  0  0  0  0  0
   -0.8517    0.3187    0.0360 C   0  0  0  0  0  0  0  0  0  0  0  0
    1.5167    0.3340   -0.0038 C   0  0  0  0  0  0  0  0  0  0  0  0
    0.7085   -1.7686   -0.1365 C   0  0  0  0  0  0  0  0  0  0  0  0
    2.0857   -1.8248   -0.1645 C   0  0  0  0  0  0  0  0  0  0  0  0
   -2.4330   -1.3118    1.0365 C   0  0  0  0  0  0  0  0  0  0  0  0
   -3.0630   -0.0519   -1.0286 C   0  0  0  0  0  0  0  0  0  0  0  0
    0.4099    2.2523    0.1494 C   0  0  0  0  0  0  0  0  0  0  0  0
  1  6  1  0
  1 10  1  0
  1 11  1  0
  2  7  1  0
  2  9  1  0
  3  6  1  0
  3 12  2  0
  4  7  2  0
  4 12  1  0
  5  6  2  0
  5  7  1  0
  5  8  1  0
  8  9  2  0
M  END
>  <PUBCHEM_COMPOUND_CID>  (1) 
1861

>  <PUBCHEM_CONFORMER_RMSD>  (1) 
0.4

>  <PUBCHEM_CONFORMER_DIVERSEORDER>  (1) 
2
1

>  <PUBCHEM_MMFF94_PARTIAL_CHARGES>  (1) 
15
1 -0.84
10 0.37
11 0.37
12 0.47
13 0.15
14 0.27
15 0.15
2 0.03
22 0.15
3 -0.62
4 -0.57
6 0.41
7 0.11
8 -0.15
9 -0.3

>  <PUBCHEM_EFFECTIVE_ROTOR_COUNT>  (1) 
1

>  <PUBCHEM_PHARMACOPHORE_FEATURES>  (1) 
6
1 2 cation
1 2 donor
3 1 3 6 cation
3 3 4 12 cation
5 2 5 7 8 9 rings
6 3 4 5 6 7 12 rings

>  <PUBCHEM_HEAVY_ATOM_COUNT>  (1) 
12

>  <PUBCHEM_ATOM_DEF_STEREO_COUNT>  (1) 
0

>  <PUBCHEM_ATOM_UDEF_STEREO_COUNT>  (1) 
0

>  <PUBCHEM_BOND_DEF_STEREO_COUNT>  (1) 
0

>  <PUBCHEM_BOND_UDEF_STEREO_COUNT>  (1) 
0

>  <PUBCHEM_ISOTOPIC_ATOM_COUNT>  (1) 
0

>  <PUBCHEM_COMPONENT_COUNT>  (1) 
1

>  <PUBCHEM_CACTVS_TAUTO_COUNT>  (1) 
3

>  <PUBCHEM_CONFORMER_ID>  (1) 
0000074500000002

>  <PUBCHEM_MMFF94_ENERGY>  (1) 
39.4317

>  <PUBCHEM_FEATURE_SELFOVERLAP>  (1) 
30.677

>  <PUBCHEM_SHAPE_FINGERPRINT>  (1) 
1 1 18050567636067883989
11206711 2 18265339412829404468
12897270 3 18409449171876713263
16945 1 18412547643014942234
17990270 104 18336263543538970379
193761 8 18267586801822887760
20201158 50 18335414656195989415
20645477 70 18341885338519423143
20871998 184 17697033639305690422
21040471 1 17691124155327941528
23552423 10 18118132363865393222
23559900 14 16687104597730845702
241688 4 18194965132444241984
2748010 2 18050572042857083022
29004967 10 18410578396109342027
5493415 88 18407760347886746322
63268167 104 18271525424129361281
81228 2 17979075977017244712

>  <PUBCHEM_SHAPE_MULTIPOLES>  (1) 
227.03
3.69
2.23
0.79
1.72
0.64
0
-1.29
0.4
-0.84
-0.2
0.52
-0.15
0.39

>  <PUBCHEM_SHAPE_SELFOVERLAP>  (1) 
488.916

>  <PUBCHEM_SHAPE_VOLUME>  (1) 
123.9

>  <PUBCHEM_COORDINATE_TYPE>  (1) 
2
5
10

$$$$
