1862
     RDKit          3D

 13 13  0  0  1  0  0  0  0  0999 V2000
    0.9824   -2.1526    0.6916 F   0  0  0  0  0  0  0  0  0  0  0  0
    2.1361    1.7622    1.1024 O   0  0  0  0  0  0  0  0  0  0  0  0
   -2.5518    1.8917   -0.4571 O   0  0  0  0  0  0  0  0  0  0  0  0
   -3.4483   -0.7301   -0.2356 O   0  0  0  0  0  0  0  0  0  0  0  0
    2.7344   -0.8542   -1.4801 N   0  0  0  0  0  0  0  0  0  0  0  0
    2.0173    0.4685    0.4958 C   0  0  0  0  0  0  0  0  0  0  0  0
    0.5729    0.1527    0.3005 C   0  0  0  0  0  0  0  0  0  0  0  0
    2.8029    0.4529   -0.8307 C   0  0  0  0  0  0  0  0  0  0  0  0
   -0.3290    1.1760    0.0086 C   0  0  0  0  0  0  0  0  0  0  0  0
    0.1230   -1.1630    0.4109 C   0  0  0  0  0  0  0  0  0  0  0  0
   -1.6806    0.8835   -0.1730 C   0  0  0  0  0  0  0  0  0  0  0  0
   -1.2286   -1.4554    0.2294 C   0  0  0  0  0  0  0  0  0  0  0  0
   -2.1306   -0.4322   -0.0626 C   0  0  0  0  0  0  0  0  0  0  0  0
  1 10  1  0
  2  6  1  0
  3 11  1  0
  4 13  1  0
  5  8  1  0
  6  7  1  0
  6  8  1  0
  7  9  2  0
  7 10  1  0
  9 11  1  0
 10 12  2  0
 11 13  2  0
 12 13  1  0
M  END
>  <PUBCHEM_COMPOUND_CID>  (1) 
1862

>  <PUBCHEM_CONFORMER_RMSD>  (1) 
0.6

>  <PUBCHEM_CONFORMER_DIVERSEORDER>  (1) 
3
6
5
2
10
7
8
4
1
9

>  <PUBCHEM_MMFF94_PARTIAL_CHARGES>  (1) 
20
1 -0.19
10 0.19
11 0.08
12 -0.15
13 0.08
17 0.15
18 0.15
19 0.4
2 -0.68
20 0.36
21 0.36
22 0.45
23 0.45
3 -0.53
4 -0.53
5 -0.99
6 0.42
7 -0.14
8 0.27
9 -0.15

>  <PUBCHEM_EFFECTIVE_ROTOR_COUNT>  (1) 
2

>  <PUBCHEM_PHARMACOPHORE_FEATURES>  (1) 
7
1 2 acceptor
1 2 donor
1 3 donor
1 4 donor
1 5 cation
1 5 donor
6 7 9 10 11 12 13 rings

>  <PUBCHEM_HEAVY_ATOM_COUNT>  (1) 
13

>  <PUBCHEM_ATOM_DEF_STEREO_COUNT>  (1) 
0

>  <PUBCHEM_ATOM_UDEF_STEREO_COUNT>  (1) 
1

>  <PUBCHEM_BOND_DEF_STEREO_COUNT>  (1) 
0

>  <PUBCHEM_BOND_UDEF_STEREO_COUNT>  (1) 
0

>  <PUBCHEM_ISOTOPIC_ATOM_COUNT>  (1) 
0

>  <PUBCHEM_COMPONENT_COUNT>  (1) 
1

>  <PUBCHEM_CACTVS_TAUTO_COUNT>  (1) 
8

>  <PUBCHEM_CONFORMER_ID>  (1) 
0000074600000003

>  <PUBCHEM_MMFF94_ENERGY>  (1) 
25.3407

>  <PUBCHEM_FEATURE_SELFOVERLAP>  (1) 
35.527

>  <PUBCHEM_SHAPE_FINGERPRINT>  (1) 
10353120 184 18261677085710566343
11206711 2 18335415773061384685
12423570 1 9956005612850053920
12524768 44 18051977218511769376
12716758 59 18411422803870069702
12897270 3 18408320008010938431
12932764 1 18412263917654703641
13380535 21 18263652757982284449
14614273 12 18041825268970890941
15219456 202 18131068268532361096
15310529 11 15698007374290731987
15775835 57 18262524680089315788
161256 15 18341895216242141667
16945 1 18261671571020011539
20201158 50 18130797797356574598
20645476 183 17168708668764202010
20871998 184 17478326899659959474
21040471 1 18334569127189996808
21501502 16 18262795138838818131
22802520 49 18341626952669378942
23402539 116 18194104429751451948
23552423 10 17970342625009347339
23559900 14 18341899529481421166
2748010 2 18410284800935427397
5084963 1 18341342166104045528
5255222 1 18191864530981284117
53812653 166 18411415072913405177
57177213 63 17968099689796995347
7364860 26 18268137665622228794
8030462 33 18261386733047056255

>  <PUBCHEM_SHAPE_MULTIPOLES>  (1) 
237.67
4.39
1.87
0.95
0.34
0.08
-0.12
-0.49
-1.14
0.25
0.25
-0.73
0.01
0.54

>  <PUBCHEM_SHAPE_SELFOVERLAP>  (1) 
496.663

>  <PUBCHEM_SHAPE_VOLUME>  (1) 
135.8

>  <PUBCHEM_COORDINATE_TYPE>  (1) 
2
5
10

$$$$
