18626
     RDKit          3D

 26 29  0  0  0  0  0  0  0  0999 V2000
    1.6599    1.5092    0.0844 S   0  0  0  0  0  0  0  0  0  0  0  0
   -1.6599    1.5092   -0.0844 S   0  0  0  0  0  0  0  0  0  0  0  0
    6.7761    0.5389    0.3453 O   0  0  0  0  0  0  0  0  0  0  0  0
   -6.7761    0.5389   -0.3452 O   0  0  0  0  0  0  0  0  0  0  0  0
    1.0228   -2.2958    0.0529 O   0  0  0  0  0  0  0  0  0  0  0  0
   -1.0228   -2.2957   -0.0529 O   0  0  0  0  0  0  0  0  0  0  0  0
    0.6662    0.0904    0.0340 C   0  0  0  0  0  0  0  0  0  0  0  0
   -0.6662    0.0904   -0.0341 C   0  0  0  0  0  0  0  0  0  0  0  0
    2.8978   -0.8409    0.1474 C   0  0  0  0  0  0  0  0  0  0  0  0
   -2.8978   -0.8409   -0.1474 C   0  0  0  0  0  0  0  0  0  0  0  0
    3.1375    0.5318    0.1593 C   0  0  0  0  0  0  0  0  0  0  0  0
   -3.1376    0.5318   -0.1593 C   0  0  0  0  0  0  0  0  0  0  0  0
    1.4670   -1.1627    0.0750 C   0  0  0  0  0  0  0  0  0  0  0  0
   -1.4670   -1.1627   -0.0749 C   0  0  0  0  0  0  0  0  0  0  0  0
    4.4387    1.0097    0.2256 C   0  0  0  0  0  0  0  0  0  0  0  0
   -4.4386    1.0097   -0.2256 C   0  0  0  0  0  0  0  0  0  0  0  0
    3.9287   -1.7675    0.2006 C   0  0  0  0  0  0  0  0  0  0  0  0
   -3.9287   -1.7674   -0.2006 C   0  0  0  0  0  0  0  0  0  0  0  0
    5.4910    0.0908    0.2798 C   0  0  0  0  0  0  0  0  0  0  0  0
   -5.4910    0.0909   -0.2798 C   0  0  0  0  0  0  0  0  0  0  0  0
    5.2374   -1.2886    0.2675 C   0  0  0  0  0  0  0  0  0  0  0  0
   -5.2374   -1.2886   -0.2676 C   0  0  0  0  0  0  0  0  0  0  0  0
    7.0581    1.7908   -0.2769 C   0  0  0  0  0  0  0  0  0  0  0  0
   -7.0581    1.7908    0.2769 C   0  0  0  0  0  0  0  0  0  0  0  0
    8.4964    1.7938   -0.7492 C   0  0  0  0  0  0  0  0  0  0  0  0
   -8.4964    1.7938    0.7492 C   0  0  0  0  0  0  0  0  0  0  0  0
  1  7  1  0
  1 11  1  0
  2  8  1  0
  2 12  1  0
  3 19  1  0
  3 23  1  0
  4 20  1  0
  4 24  1  0
  5 13  2  0
  6 14  2  0
  7  8  2  0
  7 13  1  0
  8 14  1  0
  9 11  2  0
  9 13  1  0
  9 17  1  0
 10 12  2  0
 10 14  1  0
 10 18  1  0
 11 15  1  0
 12 16  1  0
 15 19  2  0
 16 20  2  0
 17 21  2  0
 18 22  2  0
 19 21  1  0
 20 22  1  0
 23 25  1  0
 24 26  1  0
M  END
>  <PUBCHEM_COMPOUND_CID>  (1) 
18626

>  <PUBCHEM_CONFORMER_RMSD>  (1) 
0.8

>  <PUBCHEM_CONFORMER_DIVERSEORDER>  (1) 
1
4
2
5
3

>  <PUBCHEM_MMFF94_PARTIAL_CHARGES>  (1) 
30
1 -0.2
10 0.09
11 0.1
12 0.1
13 0.47
14 0.47
15 -0.15
16 -0.15
17 -0.15
18 -0.15
19 0.08
2 -0.2
20 0.08
21 -0.15
22 -0.15
23 0.28
24 0.28
27 0.15
28 0.15
29 0.15
3 -0.36
30 0.15
31 0.15
32 0.15
4 -0.36
5 -0.57
6 -0.57
7 0.12
8 0.12
9 0.09

>  <PUBCHEM_EFFECTIVE_ROTOR_COUNT>  (1) 
4.4

>  <PUBCHEM_PHARMACOPHORE_FEATURES>  (1) 
8
1 3 acceptor
1 4 acceptor
1 5 acceptor
1 6 acceptor
5 1 7 9 11 13 rings
5 2 8 10 12 14 rings
6 10 12 16 18 20 22 rings
6 9 11 15 17 19 21 rings

>  <PUBCHEM_HEAVY_ATOM_COUNT>  (1) 
26

>  <PUBCHEM_ATOM_DEF_STEREO_COUNT>  (1) 
0

>  <PUBCHEM_ATOM_UDEF_STEREO_COUNT>  (1) 
0

>  <PUBCHEM_BOND_DEF_STEREO_COUNT>  (1) 
0

>  <PUBCHEM_BOND_UDEF_STEREO_COUNT>  (1) 
1

>  <PUBCHEM_ISOTOPIC_ATOM_COUNT>  (1) 
0

>  <PUBCHEM_COMPONENT_COUNT>  (1) 
1

>  <PUBCHEM_CACTVS_TAUTO_COUNT>  (1) 
1

>  <PUBCHEM_CONFORMER_ID>  (1) 
000048C200000001

>  <PUBCHEM_MMFF94_ENERGY>  (1) 
89.1761

>  <PUBCHEM_FEATURE_SELFOVERLAP>  (1) 
40.873

>  <PUBCHEM_SHAPE_FINGERPRINT>  (1) 
10 15 18040718064935446337
10595046 47 18410289207535099314
106641 1 16660366999713046449
10906281 52 18338529585253381314
11181472 205 16629978615819206137
11315181 36 17989491844447051929
12107183 9 17690276006518655403
12236239 1 18410852161598852035
12838862 33 18338779178688029153
13383665 225 18264790804400220932
13533116 47 18060134293921529586
14251764 18 18413386536718195973
14394314 77 18410013251766008997
14849402 71 18411140259732287625
14933364 13 18410855460128174785
15183329 4 18130790044487015857
15196674 1 18410853261105302502
15461852 350 17274818082744202173
1577012 14 18411414016372497263
16087824 20 18339924823361852569
16989713 51 17345180302941014407
18681886 176 18269267018840740752
195137 175 18202007620479612593
21033648 29 18129928074689274626
21130935 74 18411696586577087363
21267235 1 18338801233756453335
21298829 104 18410857663467983965
21792934 111 18270104735501312184
22224240 67 15502374538720079513
23402539 116 18343293791086027807
23559900 14 18341885342096783577
23576562 1 16916205819498928161
3004659 81 18335138662209556146
335352 9 18413385454413162253
34797466 226 18131636669089197940
350125 39 18410571790428911860
3545911 37 18411416215358589100
4073 2 18187087273186365034
4325135 7 18335420188683514228
4340502 62 16660364753292261475
4463277 17 18410572889934855623
5104073 3 18408880754656953579
5758199 1 18333450949882213848
58260988 393 15647325308947658788
59682541 35 17894920637660883569
6328613 192 18411702097014235913

>  <PUBCHEM_SHAPE_MULTIPOLES>  (1) 
519.29
22.2
2.29
0.69
0
0.37
0
-14.17
0
0
0
0
-0.1
-1.24

>  <PUBCHEM_SHAPE_SELFOVERLAP>  (1) 
1124.909

>  <PUBCHEM_SHAPE_VOLUME>  (1) 
287.9

>  <PUBCHEM_COORDINATE_TYPE>  (1) 
2
5
10

$$$$
