18635
     RDKit          3D

  6  5  0  0  0  0  0  0  0  0999 V2000
   -1.9539   -0.7000   -0.0012 S   0  0  0  0  0  0  0  0  0  0  0  0
    2.3510    0.9571   -0.0053 O   0  0  0  0  0  0  0  0  0  0  0  0
   -0.3368    0.1233    0.0242 C   0  0  0  0  0  0  0  0  0  0  0  0
    0.7876   -0.9017   -0.0087 C   0  0  0  0  0  0  0  0  0  0  0  0
    2.1519   -0.2529   -0.0004 C   0  0  0  0  0  0  0  0  0  0  0  0
   -2.9998    0.7741   -0.0087 C   0  0  0  0  0  0  0  0  0  0  0  0
  1  3  1  0
  1  6  1  0
  2  5  2  0
  3  4  1  0
  4  5  1  0
M  END
>  <PUBCHEM_COMPOUND_CID>  (1) 
18635

>  <PUBCHEM_CONFORMER_RMSD>  (1) 
0.4

>  <PUBCHEM_CONFORMER_DIVERSEORDER>  (1) 
1
22
15
11
3
20
12
4
19
9
18
10
21
5
7
6
2
16
13
17
14
8

>  <PUBCHEM_MMFF94_PARTIAL_CHARGES>  (1) 
7
1 -0.46
11 0.06
2 -0.57
3 0.23
4 0.06
5 0.45
6 0.23

>  <PUBCHEM_EFFECTIVE_ROTOR_COUNT>  (1) 
3

>  <PUBCHEM_PHARMACOPHORE_FEATURES>  (1) 
2
1 2 acceptor
1 6 hydrophobe

>  <PUBCHEM_HEAVY_ATOM_COUNT>  (1) 
6

>  <PUBCHEM_ATOM_DEF_STEREO_COUNT>  (1) 
0

>  <PUBCHEM_ATOM_UDEF_STEREO_COUNT>  (1) 
0

>  <PUBCHEM_BOND_DEF_STEREO_COUNT>  (1) 
0

>  <PUBCHEM_BOND_UDEF_STEREO_COUNT>  (1) 
0

>  <PUBCHEM_ISOTOPIC_ATOM_COUNT>  (1) 
0

>  <PUBCHEM_COMPONENT_COUNT>  (1) 
1

>  <PUBCHEM_CACTVS_TAUTO_COUNT>  (1) 
2

>  <PUBCHEM_CONFORMER_ID>  (1) 
000048CB00000001

>  <PUBCHEM_MMFF94_ENERGY>  (1) 
5.5373

>  <PUBCHEM_FEATURE_SELFOVERLAP>  (1) 
10.148

>  <PUBCHEM_SHAPE_FINGERPRINT>  (1) 
14325111 11 18410574006652797795
14390081 3 18413105069761876657
20096714 4 18411418457727182482
21040471 1 18338797930820925762
29004967 10 8214147347765320230
5460574 1 9223231845117508355

>  <PUBCHEM_SHAPE_MULTIPOLES>  (1) 
121.46
4.46
1.07
0.62
0.98
0
0
1.19
0.02
0.04
0
0.06
-0.03
0

>  <PUBCHEM_SHAPE_SELFOVERLAP>  (1) 
198.481

>  <PUBCHEM_SHAPE_VOLUME>  (1) 
84.6

>  <PUBCHEM_COORDINATE_TYPE>  (1) 
2
5
10

$$$$
