1863
     RDKit          3D

 22 26  0  0  0  0  0  0  0  0999 V2000
    0.0625   -3.3565    0.3569 O   0  0  0  0  0  0  0  0  0  0  0  0
    2.1645   -1.4190   -0.0812 N   0  0  0  0  0  0  0  0  0  0  0  0
   -2.1052    2.0023    0.0582 N   0  0  0  0  0  0  0  0  0  0  0  0
   -1.3333   -0.0876   -0.0266 C   0  0  0  0  0  0  0  0  0  0  0  0
    1.3926    0.6708    0.0039 C   0  0  0  0  0  0  0  0  0  0  0  0
    1.0142   -0.6686   -0.0505 C   0  0  0  0  0  0  0  0  0  0  0  0
   -0.9549    1.2518    0.0278 C   0  0  0  0  0  0  0  0  0  0  0  0
   -0.3232   -1.0608   -0.0663 C   0  0  0  0  0  0  0  0  0  0  0  0
   -2.7633   -0.1271   -0.0282 C   0  0  0  0  0  0  0  0  0  0  0  0
    2.8226    0.7103    0.0051 C   0  0  0  0  0  0  0  0  0  0  0  0
    0.3825    1.6440    0.0437 C   0  0  0  0  0  0  0  0  0  0  0  0
   -3.2158    1.1919    0.0253 C   0  0  0  0  0  0  0  0  0  0  0  0
    3.2751   -0.6086   -0.0487 C   0  0  0  0  0  0  0  0  0  0  0  0
   -3.7166   -1.1661   -0.0704 C   0  0  0  0  0  0  0  0  0  0  0  0
    3.7759    1.7493    0.0471 C   0  0  0  0  0  0  0  0  0  0  0  0
   -4.5749    1.5258    0.0389 C   0  0  0  0  0  0  0  0  0  0  0  0
    4.6342   -0.9426   -0.0626 C   0  0  0  0  0  0  0  0  0  0  0  0
   -0.6556   -2.4759   -0.1243 C   0  0  0  0  0  0  0  0  0  0  0  0
   -5.0793   -0.8476   -0.0575 C   0  0  0  0  0  0  0  0  0  0  0  0
    5.1386    1.4310    0.0335 C   0  0  0  0  0  0  0  0  0  0  0  0
   -5.4998    0.4790   -0.0036 C   0  0  0  0  0  0  0  0  0  0  0  0
    5.5591    0.1042   -0.0205 C   0  0  0  0  0  0  0  0  0  0  0  0
  1 18  2  0
  2  6  1  0
  2 13  1  0
  3  7  1  0
  3 12  1  0
  4  7  1  0
  4  8  2  0
  4  9  1  0
  5  6  2  0
  5 10  1  0
  5 11  1  0
  6  8  1  0
  7 11  2  0
  8 18  1  0
  9 12  2  0
  9 14  1  0
 10 13  2  0
 10 15  1  0
 12 16  1  0
 13 17  1  0
 14 19  2  0
 15 20  2  0
 16 21  2  0
 17 22  2  0
 19 21  1  0
 20 22  1  0
M  END
>  <PUBCHEM_COMPOUND_CID>  (1) 
1863

>  <PUBCHEM_CONFORMER_RMSD>  (1) 
0.6

>  <PUBCHEM_CONFORMER_DIVERSEORDER>  (1) 
1

>  <PUBCHEM_MMFF94_PARTIAL_CHARGES>  (1) 
30
1 -0.57
11 -0.15
12 -0.15
13 -0.15
14 -0.15
15 -0.15
16 -0.15
17 -0.15
18 0.42
19 -0.15
2 0.03
20 -0.15
21 -0.15
22 -0.15
23 0.15
24 0.27
25 0.27
26 0.15
27 0.15
28 0.15
29 0.15
3 0.03
30 0.06
31 0.15
32 0.15
33 0.15
34 0.15
6 -0.15
7 -0.15
8 0.09

>  <PUBCHEM_EFFECTIVE_ROTOR_COUNT>  (1) 
1

>  <PUBCHEM_PHARMACOPHORE_FEATURES>  (1) 
10
1 1 acceptor
1 2 cation
1 2 donor
1 3 cation
1 3 donor
5 2 5 6 10 13 rings
5 3 4 7 9 12 rings
6 10 13 15 17 20 22 rings
6 4 5 6 7 8 11 rings
6 9 12 14 16 19 21 rings

>  <PUBCHEM_HEAVY_ATOM_COUNT>  (1) 
22

>  <PUBCHEM_ATOM_DEF_STEREO_COUNT>  (1) 
0

>  <PUBCHEM_ATOM_UDEF_STEREO_COUNT>  (1) 
0

>  <PUBCHEM_BOND_DEF_STEREO_COUNT>  (1) 
0

>  <PUBCHEM_BOND_UDEF_STEREO_COUNT>  (1) 
0

>  <PUBCHEM_ISOTOPIC_ATOM_COUNT>  (1) 
0

>  <PUBCHEM_COMPONENT_COUNT>  (1) 
1

>  <PUBCHEM_CACTVS_TAUTO_COUNT>  (1) 
8

>  <PUBCHEM_CONFORMER_ID>  (1) 
0000074700000001

>  <PUBCHEM_MMFF94_ENERGY>  (1) 
51.7633

>  <PUBCHEM_FEATURE_SELFOVERLAP>  (1) 
51.105

>  <PUBCHEM_SHAPE_FINGERPRINT>  (1) 
10 15 18336538430890853032
10906281 52 18270420367709544028
10967382 1 18410856525311790671
1100329 8 18266459991187507273
11578080 2 13684648665981339257
12107183 9 17618504285498622496
12236239 1 17967250901454286800
12403259 415 18410283709861312140
12592029 89 18336264535697820458
12788726 201 17703523137765108600
12838862 33 18339060650092231709
13140716 1 17978794841216200536
13583140 156 16805598213455135912
138480 1 17689997834409302562
13862211 1 18411132545738291551
14787075 74 18272086123599040705
14790565 3 18411142437106230369
15042514 8 18192435388391815443
15131766 46 16155691287750866180
15196674 1 18411418410086877365
18681886 176 18410006675848831904
19591789 44 18410854352042462682
200 152 18131631184094298105
20028762 73 18201715197752967271
20510252 161 18271810103051831552
21033648 29 18337375102376659408
21236236 1 18340487876209424331
21267235 1 18411427206206351326
21279426 13 18340207367045915614
21421861 104 17827077308082355531
23402539 116 18342451564741119607
23559900 14 18343584019601732814
3004659 81 18335704915066252390
335352 9 18410856560605258014
34797466 226 17060345166517735364
350125 39 18410293597044605196
3545911 37 18410576179911654308
4073 2 18113905995507490034
4214541 1 18411419484092945633
474 4 17459194143813147724
474229 33 18411138047770680847
495365 180 17274812606618487216
5104073 3 18410856551076327128
542803 24 17530686510931763684
5486654 2 18412267258859899509
59755656 215 18339366266705820582
59755656 520 17312818303674327938
6138700 20 18338519612977870406
69090 78 18410854378102468762
9709674 26 18342183275868330806

>  <PUBCHEM_SHAPE_MULTIPOLES>  (1) 
436.92
11.62
2.39
0.61
1.09
1.21
0
-2.73
0.11
-0.19
-0.13
0
0.01
-0.01

>  <PUBCHEM_SHAPE_SELFOVERLAP>  (1) 
1023.147

>  <PUBCHEM_SHAPE_VOLUME>  (1) 
223

>  <PUBCHEM_COORDINATE_TYPE>  (1) 
2
5
10

$$$$
