18639
     RDKit          3D

 10  9  0  0  0  0  0  0  0  0999 V2000
    1.4246   -1.6311   -0.0016 O   0  0  0  0  0  0  0  0  0  0  0  0
    3.6867   -0.4057    0.0045 O   0  0  0  0  0  0  0  0  0  0  0  0
   -4.7714    0.3132    0.0015 O   0  0  0  0  0  0  0  0  0  0  0  0
    2.6350    1.6219   -0.0022 O   0  0  0  0  0  0  0  0  0  0  0  0
    0.0710    0.3449   -0.0001 C   0  0  0  0  0  0  0  0  0  0  0  0
   -1.0961   -0.3132   -0.0014 C   0  0  0  0  0  0  0  0  0  0  0  0
    1.3467   -0.4124   -0.0024 C   0  0  0  0  0  0  0  0  0  0  0  0
   -2.3736    0.3636    0.0011 C   0  0  0  0  0  0  0  0  0  0  0  0
    2.6189    0.4077    0.0009 C   0  0  0  0  0  0  0  0  0  0  0  0
   -3.5418   -0.2888   -0.0002 C   0  0  0  0  0  0  0  0  0  0  0  0
  1  7  2  0
  2  9  1  0
  3 10  1  0
  4  9  2  0
  5  6  2  0
  5  7  1  0
  6  8  1  0
  7  9  1  0
  8 10  2  0
M  END
>  <PUBCHEM_COMPOUND_CID>  (1) 
18639

>  <PUBCHEM_CONFORMER_RMSD>  (1) 
0.6

>  <PUBCHEM_CONFORMER_DIVERSEORDER>  (1) 
1
3
4
2

>  <PUBCHEM_MMFF94_PARTIAL_CHARGES>  (1) 
16
1 -0.57
10 -0.07
11 0.15
12 0.15
13 0.15
14 0.15
15 0.5
16 0.45
2 -0.65
3 -0.53
4 -0.57
5 -0.14
6 -0.15
7 0.56
8 -0.15
9 0.72

>  <PUBCHEM_EFFECTIVE_ROTOR_COUNT>  (1) 
3

>  <PUBCHEM_PHARMACOPHORE_FEATURES>  (1) 
5
1 1 acceptor
1 2 acceptor
1 3 donor
1 4 acceptor
3 2 4 9 anion

>  <PUBCHEM_HEAVY_ATOM_COUNT>  (1) 
10

>  <PUBCHEM_ATOM_DEF_STEREO_COUNT>  (1) 
0

>  <PUBCHEM_ATOM_UDEF_STEREO_COUNT>  (1) 
0

>  <PUBCHEM_BOND_DEF_STEREO_COUNT>  (1) 
0

>  <PUBCHEM_BOND_UDEF_STEREO_COUNT>  (1) 
2

>  <PUBCHEM_ISOTOPIC_ATOM_COUNT>  (1) 
0

>  <PUBCHEM_COMPONENT_COUNT>  (1) 
1

>  <PUBCHEM_CACTVS_TAUTO_COUNT>  (1) 
4

>  <PUBCHEM_CONFORMER_ID>  (1) 
000048CF00000001

>  <PUBCHEM_MMFF94_ENERGY>  (1) 
12.8985

>  <PUBCHEM_FEATURE_SELFOVERLAP>  (1) 
25.44

>  <PUBCHEM_SHAPE_FINGERPRINT>  (1) 
10219947 1 18260269667655832972
11062470 55 18040435495000251981
12932764 1 17385991893038975619
14325111 11 18410856606921379075
170605 34 18408040727614926962
190213 19 17489872643730013391
20201158 50 18334297552276563715
20279233 1 17894356570762679571
20606313 2 18410292544761767452
20645477 70 18338793395647087583
20719005 15 18410575098075566443
23402655 69 18342173345724379949

>  <PUBCHEM_SHAPE_MULTIPOLES>  (1) 
182.32
7.39
1.11
0.58
5.51
0.02
0
-0.81
0.01
-0.88
0
0.03
0
0

>  <PUBCHEM_SHAPE_SELFOVERLAP>  (1) 
354.269

>  <PUBCHEM_SHAPE_VOLUME>  (1) 
108.5

>  <PUBCHEM_COORDINATE_TYPE>  (1) 
2
5
10

$$$$
