18647
     RDKit          3D

 11 10  0  0  1  0  0  0  0  0999 V2000
   -0.5228   -2.0734    0.9674 O   0  0  0  0  0  0  0  0  0  0  0  0
   -0.6038   -1.7104   -1.2701 O   0  0  0  0  0  0  0  0  0  0  0  0
   -0.4370    0.2037    0.2350 C   0  0  0  0  0  0  0  0  0  0  0  0
    0.8406    0.8551   -0.3287 C   0  0  0  0  0  0  0  0  0  0  0  0
   -1.7185    0.9332   -0.2111 C   0  0  0  0  0  0  0  0  0  0  0  0
    2.1167    0.2239    0.2448 C   0  0  0  0  0  0  0  0  0  0  0  0
   -3.0057    0.4388    0.4570 C   0  0  0  0  0  0  0  0  0  0  0  0
    3.3988    0.8960   -0.2529 C   0  0  0  0  0  0  0  0  0  0  0  0
   -0.5253   -1.2722   -0.1299 C   0  0  0  0  0  0  0  0  0  0  0  0
   -4.2115    1.2432   -0.0062 C   0  0  0  0  0  0  0  0  0  0  0  0
    4.6684    0.2622    0.2947 C   0  0  0  0  0  0  0  0  0  0  0  0
  1  9  1  0
  2  9  2  0
  3  4  1  0
  3  5  1  0
  3  9  1  0
  4  6  1  0
  5  7  1  0
  6  8  1  0
  7 10  1  0
  8 11  1  0
M  END
>  <PUBCHEM_COMPOUND_CID>  (1) 
18647

>  <PUBCHEM_CONFORMER_RMSD>  (1) 
0.6

>  <PUBCHEM_CONFORMER_DIVERSEORDER>  (1) 
1
127
163
158
98
34
160
133
149
60
128
106
95
132
57
85
121
75
118
145
114
154
124
159
30
81
112
68
155
108
82
134
123
36
165
101
18
140
32
119
138
59
84
122
146
71
125
139
130
27
136
69
14
111
120
77
8
96
78
164
113
162
55
150
103
31
22
169
61
117
65
166
16
3
168
142
6
62
161
73
141
42
90
72
126
105
143
20
79
131
97
135
110
109
157
49
63
66
156
45
115
151
100
70
7
99
94
13
41
44
51
89
35
107
12
26
153
102
152
48
76
92
21
116
147
64
104
93
80
88
54
39
144
167
53
58
38
33
86
52
23
5
56
129
46
91
25
87
47
148
83
137
40
11
4
67
24
74
2
28
29
10
17
50
15
37
19
43
9

>  <PUBCHEM_MMFF94_PARTIAL_CHARGES>  (1) 
5
1 -0.65
2 -0.57
29 0.5
3 0.06
9 0.66

>  <PUBCHEM_EFFECTIVE_ROTOR_COUNT>  (1) 
6

>  <PUBCHEM_PHARMACOPHORE_FEATURES>  (1) 
7
1 1 acceptor
1 10 hydrophobe
1 11 hydrophobe
1 2 acceptor
3 1 2 9 anion
3 3 5 7 hydrophobe
3 4 6 8 hydrophobe

>  <PUBCHEM_HEAVY_ATOM_COUNT>  (1) 
11

>  <PUBCHEM_ATOM_DEF_STEREO_COUNT>  (1) 
0

>  <PUBCHEM_ATOM_UDEF_STEREO_COUNT>  (1) 
1

>  <PUBCHEM_BOND_DEF_STEREO_COUNT>  (1) 
0

>  <PUBCHEM_BOND_UDEF_STEREO_COUNT>  (1) 
0

>  <PUBCHEM_ISOTOPIC_ATOM_COUNT>  (1) 
0

>  <PUBCHEM_COMPONENT_COUNT>  (1) 
1

>  <PUBCHEM_CACTVS_TAUTO_COUNT>  (1) 
1

>  <PUBCHEM_CONFORMER_ID>  (1) 
000048D700000001

>  <PUBCHEM_MMFF94_ENERGY>  (1) 
3.776

>  <PUBCHEM_FEATURE_SELFOVERLAP>  (1) 
35.604

>  <PUBCHEM_SHAPE_FINGERPRINT>  (1) 
10219947 1 18187087213388787421
10922049 32 18411423890676215107
11062470 55 15985104111184251848
12119455 92 18409444761172276989
122479 349 18411140276790174720
12346645 44 18271529672184748809
12932764 1 15864616393297673328
13380535 76 18413110554456336134
14325111 11 18410576171501054745
14577589 140 18271248317472091798
14993402 34 18334290985245330773
15775835 57 18411980243496663721
18511873 20 18410855481988425480
187816 3 17490151902229637313
200 152 12247681565227492996
20279233 1 17274831276852021708
20645477 56 18341046402341191136
20711985 327 11602831180985974649
21524375 3 18412545388252297709
23235685 24 18413386523021242092
23380061 50 17774714368401002184
23402539 116 18060411408957873732
3250762 1 17341793879397608889
366044 4 18272088288167586423
528862 383 17895747388056768010
69090 78 18202278108786996460
81539 233 18261673654079189127

>  <PUBCHEM_SHAPE_MULTIPOLES>  (1) 
214.64
7.23
1.65
0.84
3.48
1
0.07
-3.74
-0.71
-0.74
0.05
-0.08
0.28
-0.09

>  <PUBCHEM_SHAPE_SELFOVERLAP>  (1) 
390.661

>  <PUBCHEM_SHAPE_VOLUME>  (1) 
137.6

>  <PUBCHEM_COORDINATE_TYPE>  (1) 
2
5
10

$$$$
