18646
     RDKit          3D

 18 20  0  0  0  0  0  0  0  0999 V2000
    4.3567    0.9032    0.0000 O   0  0  0  0  0  0  0  0  0  0  0  0
   -0.3902    2.6045   -0.0007 O   0  0  0  0  0  0  0  0  0  0  0  0
   -0.8403   -2.7210   -0.0004 O   0  0  0  0  0  0  0  0  0  0  0  0
    0.7123    0.5303    0.0001 C   0  0  0  0  0  0  0  0  0  0  0  0
    0.5947   -0.8612    0.0002 C   0  0  0  0  0  0  0  0  0  0  0  0
   -1.8247    0.7447    0.0003 C   0  0  0  0  0  0  0  0  0  0  0  0
   -1.9423   -0.6468    0.0003 C   0  0  0  0  0  0  0  0  0  0  0  0
   -0.4931    1.3841    0.0004 C   0  0  0  0  0  0  0  0  0  0  0  0
   -0.7369   -1.5006    0.0000 C   0  0  0  0  0  0  0  0  0  0  0  0
    1.9804    1.1239   -0.0003 C   0  0  0  0  0  0  0  0  0  0  0  0
    1.7451   -1.6592    0.0000 C   0  0  0  0  0  0  0  0  0  0  0  0
   -2.9751    1.5426    0.0001 C   0  0  0  0  0  0  0  0  0  0  0  0
   -3.2103   -1.2404   -0.0001 C   0  0  0  0  0  0  0  0  0  0  0  0
    3.1241    0.3251   -0.0004 C   0  0  0  0  0  0  0  0  0  0  0  0
    3.0067   -1.0635   -0.0003 C   0  0  0  0  0  0  0  0  0  0  0  0
   -4.2367    0.9470    0.0001 C   0  0  0  0  0  0  0  0  0  0  0  0
   -4.3541   -0.4415    0.0000 C   0  0  0  0  0  0  0  0  0  0  0  0
    5.4838    0.0287    0.0006 C   0  0  0  0  0  0  0  0  0  0  0  0
  1 14  1  0
  1 18  1  0
  2  8  2  0
  3  9  2  0
  4  5  2  0
  4  8  1  0
  4 10  1  0
  5  9  1  0
  5 11  1  0
  6  7  2  0
  6  8  1  0
  6 12  1  0
  7  9  1  0
  7 13  1  0
 10 14  2  0
 11 15  2  0
 12 16  2  0
 13 17  2  0
 14 15  1  0
 16 17  1  0
M  END
>  <PUBCHEM_COMPOUND_CID>  (1) 
18646

>  <PUBCHEM_CONFORMER_RMSD>  (1) 
0.6

>  <PUBCHEM_CONFORMER_DIVERSEORDER>  (1) 
1

>  <PUBCHEM_MMFF94_PARTIAL_CHARGES>  (1) 
25
1 -0.36
10 -0.15
11 -0.15
12 -0.15
13 -0.15
14 0.08
15 -0.15
16 -0.15
17 -0.15
18 0.28
19 0.15
2 -0.57
20 0.15
21 0.15
22 0.15
23 0.15
24 0.15
25 0.15
3 -0.57
4 0.09
5 0.09
6 0.09
7 0.09
8 0.4
9 0.4

>  <PUBCHEM_EFFECTIVE_ROTOR_COUNT>  (1) 
1

>  <PUBCHEM_PHARMACOPHORE_FEATURES>  (1) 
6
1 1 acceptor
1 2 acceptor
1 3 acceptor
6 4 5 10 11 14 15 rings
6 4 5 6 7 8 9 rings
6 6 7 12 13 16 17 rings

>  <PUBCHEM_HEAVY_ATOM_COUNT>  (1) 
18

>  <PUBCHEM_ATOM_DEF_STEREO_COUNT>  (1) 
0

>  <PUBCHEM_ATOM_UDEF_STEREO_COUNT>  (1) 
0

>  <PUBCHEM_BOND_DEF_STEREO_COUNT>  (1) 
0

>  <PUBCHEM_BOND_UDEF_STEREO_COUNT>  (1) 
0

>  <PUBCHEM_ISOTOPIC_ATOM_COUNT>  (1) 
0

>  <PUBCHEM_COMPONENT_COUNT>  (1) 
1

>  <PUBCHEM_CACTVS_TAUTO_COUNT>  (1) 
1

>  <PUBCHEM_CONFORMER_ID>  (1) 
000048D600000001

>  <PUBCHEM_MMFF94_ENERGY>  (1) 
62.208

>  <PUBCHEM_FEATURE_SELFOVERLAP>  (1) 
30.49

>  <PUBCHEM_SHAPE_FINGERPRINT>  (1) 
10411042 1 17617941773812096162
10493431 412 18269847436827289529
10608611 8 18411415103036152825
10616163 171 18339363066644019807
10967382 1 18410855434516769479
11132069 177 18412542102412210921
11471102 20 18410852140129037119
12011746 2 18411979169628141973
12236239 1 17821446872472046476
12390115 104 18129116544840367937
12403814 3 17530961388828002597
13140716 1 17978517760386802587
13214271 11 18412824694386438767
13221675 6 18410856568235037918
13380535 76 18411983559285477142
13862211 1 18410851083715074030
14115302 16 18260839236559974652
14790565 3 18410583889425975496
15042514 8 18265337394443396379
15196674 1 18410856520995698375
15442244 35 18121779426544061882
15536298 74 18342459197103947014
16945 1 18194401319360584391
17804303 29 18341051916519802640
18186145 218 18339928099745678933
193761 8 17834396000942229765
200 152 17917990576926765105
20510252 161 18272090448399356865
21029758 11 18343297098131893089
21029758 27 18187653552039711405
21267235 1 18410019861451080459
2334 1 18410855464824101187
23402539 116 18343013410866898806
23402655 69 18343014450639426429
23463225 33 18408322168179002229
23557571 272 18201446908209186758
23559900 14 18343021052463193582
2748010 2 18410857633787886535
335352 9 18410856568245698268
34934 24 18337666430424272823
350125 39 18338240466031442881
3545911 37 18410857650566770534
43471831 8 18263079933493348627
474 4 17096657689492920524
4990 188 17988370295305007524
5104073 3 18410293566794790002
537710 114 18410016541436105493
53812653 166 18342173375430350929
54173680 148 18120657100197897427
57005193 9 18408879646497166710
58051976 378 18412262796483948100
69090 78 18413105069519322486
7364860 26 18269274552430103742
8809292 202 18261957473791753266
9709674 26 18412550915849152398

>  <PUBCHEM_SHAPE_MULTIPOLES>  (1) 
352.82
8.46
2.18
0.6
4.81
0.22
0
-0.99
0
-0.68
0
-0.02
0
0

>  <PUBCHEM_SHAPE_SELFOVERLAP>  (1) 
793.366

>  <PUBCHEM_SHAPE_VOLUME>  (1) 
185.3

>  <PUBCHEM_COORDINATE_TYPE>  (1) 
2
5
10

$$$$
