18641
     RDKit          3D

 35 42  0  0  0  0  0  0  0  0999 V2000
    5.6478    2.4903   -0.0026 O   0  0  0  0  0  0  0  0  0  0  0  0
   -2.9765   -2.1974   -0.0042 O   0  0  0  0  0  0  0  0  0  0  0  0
   -5.6794    2.4039    0.0082 O   0  0  0  0  0  0  0  0  0  0  0  0
   -0.7139   -0.9514   -0.0013 N   0  0  0  0  0  0  0  0  0  0  0  0
    1.3828    0.2139   -0.0023 C   0  0  0  0  0  0  0  0  0  0  0  0
    2.8113    0.1503   -0.0021 C   0  0  0  0  0  0  0  0  0  0  0  0
    0.6892    1.4437   -0.0027 C   0  0  0  0  0  0  0  0  0  0  0  0
    3.4915   -1.0942   -0.0005 C   0  0  0  0  0  0  0  0  0  0  0  0
    3.5494    1.3486   -0.0030 C   0  0  0  0  0  0  0  0  0  0  0  0
   -0.7459    1.4396   -0.0015 C   0  0  0  0  0  0  0  0  0  0  0  0
    0.6257   -0.9594   -0.0014 C   0  0  0  0  0  0  0  0  0  0  0  0
   -1.4164    0.1966   -0.0011 C   0  0  0  0  0  0  0  0  0  0  0  0
    4.9299   -1.1253    0.0009 C   0  0  0  0  0  0  0  0  0  0  0  0
   -2.8304    0.1743    0.0001 C   0  0  0  0  0  0  0  0  0  0  0  0
    1.4794    2.6144   -0.0040 C   0  0  0  0  0  0  0  0  0  0  0  0
    5.6435    0.0978    0.0000 C   0  0  0  0  0  0  0  0  0  0  0  0
    4.9472    1.3101   -0.0022 C   0  0  0  0  0  0  0  0  0  0  0  0
    2.8745    2.5696   -0.0042 C   0  0  0  0  0  0  0  0  0  0  0  0
    2.6838   -2.2475    0.0004 C   0  0  0  0  0  0  0  0  0  0  0  0
    1.2888   -2.1731   -0.0002 C   0  0  0  0  0  0  0  0  0  0  0  0
   -3.5725    1.3605    0.0025 C   0  0  0  0  0  0  0  0  0  0  0  0
   -1.5262    2.6190   -0.0001 C   0  0  0  0  0  0  0  0  0  0  0  0
   -2.9166    2.5846    0.0021 C   0  0  0  0  0  0  0  0  0  0  0  0
   -3.5685   -1.1245   -0.0016 C   0  0  0  0  0  0  0  0  0  0  0  0
   -5.0501    1.3526    0.0056 C   0  0  0  0  0  0  0  0  0  0  0  0
   -5.0462   -1.1306   -0.0011 C   0  0  0  0  0  0  0  0  0  0  0  0
    5.7040   -2.3139    0.0043 C   0  0  0  0  0  0  0  0  0  0  0  0
   -5.7616    0.0643    0.0031 C   0  0  0  0  0  0  0  0  0  0  0  0
    7.0495    0.1058    0.0017 C   0  0  0  0  0  0  0  0  0  0  0  0
    7.1012   -2.2928    0.0063 C   0  0  0  0  0  0  0  0  0  0  0  0
    7.7746   -1.0816    0.0050 C   0  0  0  0  0  0  0  0  0  0  0  0
   -5.7348   -2.3512   -0.0051 C   0  0  0  0  0  0  0  0  0  0  0  0
   -7.1622    0.0447    0.0041 C   0  0  0  0  0  0  0  0  0  0  0  0
   -7.1301   -2.3690   -0.0041 C   0  0  0  0  0  0  0  0  0  0  0  0
   -7.8428   -1.1725    0.0009 C   0  0  0  0  0  0  0  0  0  0  0  0
  1 17  1  0
  2 24  2  0
  3 25  2  0
  4 11  2  0
  4 12  1  0
  5  6  2  0
  5  7  1  0
  5 11  1  0
  6  8  1  0
  6  9  1  0
  7 10  1  0
  7 15  2  0
  8 13  2  0
  8 19  1  0
  9 17  1  0
  9 18  2  0
 10 12  2  0
 10 22  1  0
 11 20  1  0
 12 14  1  0
 13 16  1  0
 13 27  1  0
 14 21  2  0
 14 24  1  0
 15 18  1  0
 16 17  2  0
 16 29  1  0
 19 20  2  0
 21 23  1  0
 21 25  1  0
 22 23  2  0
 24 26  1  0
 25 28  1  0
 26 28  2  0
 26 32  1  0
 27 30  2  0
 28 33  1  0
 29 31  2  0
 30 31  1  0
 32 34  2  0
 33 35  2  0
 34 35  1  0
M  END
>  <PUBCHEM_COMPOUND_CID>  (1) 
18641

>  <PUBCHEM_CONFORMER_RMSD>  (1) 
0.6

>  <PUBCHEM_CONFORMER_DIVERSEORDER>  (1) 
1

>  <PUBCHEM_MMFF94_PARTIAL_CHARGES>  (1) 
42
1 -0.53
11 0.31
12 0.31
14 0.09
15 -0.15
17 0.08
18 -0.15
19 -0.15
2 -0.57
20 -0.15
21 0.09
22 -0.15
23 -0.15
24 0.4
25 0.4
26 0.09
27 -0.15
28 0.09
29 -0.15
3 -0.57
30 -0.15
31 -0.15
32 -0.15
33 -0.15
34 -0.15
35 -0.15
36 0.15
37 0.15
38 0.15
39 0.15
4 -0.62
40 0.15
41 0.15
42 0.15
43 0.15
44 0.15
45 0.15
46 0.15
47 0.45
48 0.15
49 0.15
50 0.15

>  <PUBCHEM_EFFECTIVE_ROTOR_COUNT>  (1) 
0

>  <PUBCHEM_PHARMACOPHORE_FEATURES>  (1) 
12
1 1 donor
1 2 acceptor
1 3 acceptor
1 4 acceptor
6 10 12 14 21 22 23 rings
6 13 16 27 29 30 31 rings
6 14 21 24 25 26 28 rings
6 26 28 32 33 34 35 rings
6 4 5 7 10 11 12 rings
6 5 6 7 9 15 18 rings
6 5 6 8 11 19 20 rings
6 6 8 9 13 16 17 rings

>  <PUBCHEM_HEAVY_ATOM_COUNT>  (1) 
35

>  <PUBCHEM_ATOM_DEF_STEREO_COUNT>  (1) 
0

>  <PUBCHEM_ATOM_UDEF_STEREO_COUNT>  (1) 
0

>  <PUBCHEM_BOND_DEF_STEREO_COUNT>  (1) 
0

>  <PUBCHEM_BOND_UDEF_STEREO_COUNT>  (1) 
0

>  <PUBCHEM_ISOTOPIC_ATOM_COUNT>  (1) 
0

>  <PUBCHEM_COMPONENT_COUNT>  (1) 
1

>  <PUBCHEM_CACTVS_TAUTO_COUNT>  (1) 
7

>  <PUBCHEM_CONFORMER_ID>  (1) 
000048D100000001

>  <PUBCHEM_MMFF94_ENERGY>  (1) 
138.9467

>  <PUBCHEM_FEATURE_SELFOVERLAP>  (1) 
61.138

>  <PUBCHEM_SHAPE_FINGERPRINT>  (1) 
10050765 1 18122062005185020590
10622 236 17341513504576715591
11135926 11 18335696101535333591
11456790 92 18060150851594982553
11524674 6 16702300165831296695
11578080 2 16807556280639850165
117089 54 17972607860167258315
11719270 70 18273213084611433654
11963148 33 18336820893019535834
11991303 11 14273748372943712784
12107698 1 18410573985220321755
12166972 35 18040437702381782428
13383668 362 18269540802306640744
13782708 43 17967530151369042922
13811026 1 18410005541945420768
14068700 675 18411983554769223664
14394314 77 18337957766825977529
15082195 135 17969233406845640868
15131766 46 15480107336840768784
15183329 4 18335420162132813275
15196674 1 18410575084705556260
15320467 1 18410856555736225763
15361156 5 18041293092310842037
16067689 302 18339648953121901127
18608769 82 18411979165317272203
18681886 176 18413383246309257890
19611394 137 18115600395178027467
20028762 73 18343021081932450518
20721686 56 18335704983474798411
21057603 40 16916797232358695350
21130935 74 18343302548434530682
21197605 99 18341614837083770710
21267235 1 18411140233639762287
21792934 111 18342728620191467880
22149856 69 18272660029834849217
22311459 1 18410575089291037670
23522609 53 18122096218900561333
23559900 14 18411130359700509225
23569917 315 18341901740968494910
23569943 247 17897439485134361210
3004659 81 18187080667557597281
335352 9 18410573976587897220
3383291 50 18334293192943469787
350125 39 18411418410192573780
4073 2 18041564757555745306
4093350 32 16845292770385045848
439807 62 18410576201824132825
4461854 278 18059302049408639991
45377200 153 16629690711302964383
484989 97 18336271231419920458
5104073 3 18272367559684039904
54583773 228 18261119621216450468
6081469 158 18040710368907608975
6201320 221 16735204064947460930
9831232 110 18270688541784924214
9896288 288 17701547203352620513

>  <PUBCHEM_SHAPE_MULTIPOLES>  (1) 
697.69
21.51
3.3
0.61
3.85
0.61
0
-10.26
-0.03
0.05
0
-0.01
0
-0.02

>  <PUBCHEM_SHAPE_SELFOVERLAP>  (1) 
1665.895

>  <PUBCHEM_SHAPE_VOLUME>  (1) 
343.5

>  <PUBCHEM_COORDINATE_TYPE>  (1) 
2
5
10

$$$$
