18650
     RDKit          3D

 22 25  0  0  1  0  0  0  0  0999 V2000
   -4.6977   -0.8404   -0.3096 O   0  0  0  0  0  0  0  0  0  0  0  0
    5.0992   -0.7886    1.7599 O   0  0  0  0  0  0  0  0  0  0  0  0
   -1.7918   -0.7795   -0.5020 C   0  0  0  0  0  0  0  0  0  0  0  0
   -0.3511   -0.4915   -0.9841 C   0  0  0  0  0  0  0  0  0  0  0  0
   -2.6262    0.4845   -0.1758 C   0  0  0  0  0  0  0  0  0  0  0  0
    0.4137    0.4857   -0.0620 C   0  0  0  0  0  0  0  0  0  0  0  0
    1.8916    0.7723   -0.5371 C   0  0  0  0  0  0  0  0  0  0  0  0
   -3.8318   -0.1401    0.5946 C   0  0  0  0  0  0  0  0  0  0  0  0
   -1.8093    1.4617    0.7071 C   0  0  0  0  0  0  0  0  0  0  0  0
   -0.4169    1.7671    0.1542 C   0  0  0  0  0  0  0  0  0  0  0  0
    2.6449   -0.5592   -0.8823 C   0  0  0  0  0  0  0  0  0  0  0  0
   -1.9076   -1.6480    0.7657 C   0  0  0  0  0  0  0  0  0  0  0  0
    0.4348   -1.7945   -1.1755 C   0  0  0  0  0  0  0  0  0  0  0  0
   -3.1866   -1.2083    1.4889 C   0  0  0  0  0  0  0  0  0  0  0  0
    1.8193   -1.5252   -1.7409 C   0  0  0  0  0  0  0  0  0  0  0  0
    2.6421    1.5298    0.6114 C   0  0  0  0  0  0  0  0  0  0  0  0
   -3.0672    1.1995   -1.4680 C   0  0  0  0  0  0  0  0  0  0  0  0
    1.9189    1.6690   -1.8000 C   0  0  0  0  0  0  0  0  0  0  0  0
    3.1861   -1.2383    0.3839 C   0  0  0  0  0  0  0  0  0  0  0  0
   -4.6912    0.8343    1.3961 C   0  0  0  0  0  0  0  0  0  0  0  0
    4.1113    1.1454    0.7423 C   0  0  0  0  0  0  0  0  0  0  0  0
    4.2157   -0.3360    1.0332 C   0  0  0  0  0  0  0  0  0  0  0  0
  1  8  1  0
  2 22  2  0
  3  4  1  0
  3  5  1  0
  3 12  1  0
  4  6  1  0
  4 13  1  0
  5  8  1  0
  5  9  1  0
  5 17  1  0
  6  7  1  0
  6 10  1  0
  7 11  1  0
  7 16  1  0
  7 18  1  0
  8 14  1  0
  8 20  1  0
  9 10  1  0
 11 15  1  0
 11 19  1  0
 12 14  1  0
 13 15  1  0
 16 21  1  0
 19 22  1  0
 21 22  1  0
M  END
>  <PUBCHEM_COMPOUND_CID>  (1) 
18650

>  <PUBCHEM_CONFORMER_RMSD>  (1) 
0.6

>  <PUBCHEM_CONFORMER_DIVERSEORDER>  (1) 
2
8
22
35
18
27
34
36
46
15
29
21
4
17
16
42
31
30
47
24
7
14
40
33
37
44
28
32
23
6
5
3
26
45
43
41
39
13
9
38
12
10
25
19
20
1
11

>  <PUBCHEM_MMFF94_PARTIAL_CHARGES>  (1) 
7
1 -0.68
19 0.06
2 -0.57
21 0.06
22 0.45
54 0.4
8 0.28

>  <PUBCHEM_EFFECTIVE_ROTOR_COUNT>  (1) 
2

>  <PUBCHEM_PHARMACOPHORE_FEATURES>  (1) 
7
1 1 acceptor
1 1 donor
1 2 acceptor
5 3 5 8 12 14 rings
6 3 4 5 6 9 10 rings
6 4 6 7 11 13 15 rings
6 7 11 16 19 21 22 rings

>  <PUBCHEM_HEAVY_ATOM_COUNT>  (1) 
22

>  <PUBCHEM_ATOM_DEF_STEREO_COUNT>  (1) 
2

>  <PUBCHEM_ATOM_UDEF_STEREO_COUNT>  (1) 
5

>  <PUBCHEM_BOND_DEF_STEREO_COUNT>  (1) 
0

>  <PUBCHEM_BOND_UDEF_STEREO_COUNT>  (1) 
0

>  <PUBCHEM_ISOTOPIC_ATOM_COUNT>  (1) 
0

>  <PUBCHEM_COMPONENT_COUNT>  (1) 
1

>  <PUBCHEM_CACTVS_TAUTO_COUNT>  (1) 
3

>  <PUBCHEM_CONFORMER_ID>  (1) 
000048DA00000002

>  <PUBCHEM_MMFF94_ENERGY>  (1) 
80.8014

>  <PUBCHEM_FEATURE_SELFOVERLAP>  (1) 
35.735

>  <PUBCHEM_SHAPE_FINGERPRINT>  (1) 
10366900 7 18272373108971430072
10498660 4 12319732561784094050
10759866 29 17896895441747788708
1100329 8 14519468756205893939
11132069 177 18271814510115181047
11578080 2 16629389234800660305
11640471 11 16128381466888269967
12077114 3 18334568019151738141
12173636 292 13686306755486054597
12251169 10 18341888602393445434
12403814 3 18335136527367898909
12507560 40 18261662744994437708
12553582 1 18270418164602564589
12633257 1 18260840305822247427
12644460 14 17895772797468510308
12839892 36 18201994473505871031
12892183 10 18334847325734440752
13140716 1 18057879336810561426
13224815 77 18202288004354801101
13583140 156 18041262331934026364
13675066 3 18187640319060739104
14178342 30 18121506756281962928
14223421 5 18200880552209426116
14289901 80 17458633370695819916
14341114 176 18113621196558362368
14787075 74 16271075085561812491
15209289 33 16370723720975542856
15209294 21 16845573110429671808
15375358 24 18343304747452459113
15536298 74 17632025156099992327
15788980 27 17167861967643431569
15848702 151 14418132889881278755
16945 1 18060144223352687588
17349148 13 18412541024454593045
1813 80 14923940120527816774
18186145 218 18335713702084134519
18981168 100 13613412346725088672
19784866 240 16805604729078695130
19862831 5 8646776590292992056
200 152 17989199365964433103
20715895 44 18192708939365056501
20775530 9 16227711257564421506
20871999 31 8358252657258341249
21033648 29 18058712642476832232
21069387 34 15575004965409921498
21452121 103 17775007825682282130
21637258 2 16660630823012338138
21756936 100 17058351829947700280
22182313 1 18127414449316449908
22854114 59 17704076191722891507
23184049 59 18272368685165515100
23227448 37 14045444700594438299
23402539 116 18334564742682574005
23557571 272 16127531647384301814
23559900 14 18263946387395047190
2748010 2 17984993600216631852
296302 2 15195282027708825093
312423 11 15791745087034060213
3286 77 16588023536894006228
3472631 163 14620521090807822459
394222 165 17900843835274451532
4072396 5 18342737408005479601
4340502 62 16845576439509627407
474 4 15554439743279906458
4990 188 12685094786778452530
5104073 3 18335149734302735313
58807428 26 18201431472250023862
633830 44 17346605191941252196
7097593 13 18114457963588341594
9709674 26 18343311348685577791

>  <PUBCHEM_SHAPE_MULTIPOLES>  (1) 
441.01
8.9
1.93
1.64
0.27
0.01
0.16
-0.02
-4.3
-0.27
0.23
-0.48
-0.11
0.17

>  <PUBCHEM_SHAPE_SELFOVERLAP>  (1) 
938.643

>  <PUBCHEM_SHAPE_VOLUME>  (1) 
243.8

>  <PUBCHEM_COORDINATE_TYPE>  (1) 
2
5
10

$$$$
