18662
     RDKit          3D

 15 15  0  0  0  0  0  0  0  0999 V2000
   -0.0709   -1.5303   -0.6609 O   0  0  0  0  0  0  0  0  0  0  0  0
    0.1821    1.2247   -0.9262 O   0  0  0  0  0  0  0  0  0  0  0  0
    0.9136    1.3467    1.2775 O   0  0  0  0  0  0  0  0  0  0  0  0
    2.2558    2.0879   -0.4636 N   0  0  0  0  0  0  0  0  0  0  0  0
   -1.1094   -0.7066   -0.3471 C   0  0  0  0  0  0  0  0  0  0  0  0
   -0.9823    0.6760   -0.4805 C   0  0  0  0  0  0  0  0  0  0  0  0
   -2.0526    1.5094   -0.1555 C   0  0  0  0  0  0  0  0  0  0  0  0
   -2.3069   -1.2559    0.1109 C   0  0  0  0  0  0  0  0  0  0  0  0
   -3.2501    0.9601    0.3027 C   0  0  0  0  0  0  0  0  0  0  0  0
   -3.3772   -0.4225    0.4358 C   0  0  0  0  0  0  0  0  0  0  0  0
    0.4363   -2.3603    0.3821 C   0  0  0  0  0  0  0  0  0  0  0  0
    1.1132    1.5398    0.0818 C   0  0  0  0  0  0  0  0  0  0  0  0
    3.3912    2.5124    0.3218 C   0  0  0  0  0  0  0  0  0  0  0  0
    1.8490   -2.6652    0.1535 C   0  0  0  0  0  0  0  0  0  0  0  0
    3.0082   -2.9164   -0.0323 C   0  0  0  0  0  0  0  0  0  0  0  0
  1  5  1  0
  1 11  1  0
  2  6  1  0
  2 12  1  0
  3 12  2  0
  4 12  1  0
  4 13  1  0
  5  6  2  0
  5  8  1  0
  6  7  1  0
  7  9  2  0
  8 10  2  0
  9 10  1  0
 11 14  1  0
 14 15  3  0
M  END
>  <PUBCHEM_COMPOUND_CID>  (1) 
18662

>  <PUBCHEM_CONFORMER_RMSD>  (1) 
0.6

>  <PUBCHEM_CONFORMER_DIVERSEORDER>  (1) 
1
27
255
170
103
33
189
148
206
200
248
171
22
77
83
213
56
122
147
238
74
242
121
131
175
204
119
144
181
211
58
88
54
3
23
126
93
59
260
110
234
130
40
182
244
129
112
2
233
172
94
249
240
195
251
176
36
65
123
137
8
258
70
191
228
239
218
230
82
169
128
259
192
163
235
145
16
243
109
14
153
68
156
124
199
55
187
178
12
136
78
253
62
227
6
125
223
42
84
217
29
37
34
146
133
154
120
237
160
89
114
31
212
107
139
167
141
102
134
81
180
69
79
80
179
225
86
127
104
117
216
232
115
71
196
116
261
63
118
7
159
97
39
161
44
108
46
75
142
11
203
140
231
99
220
208
113
64
41
57
205
214
96
51
149
241
85
183
158
226
138
257
52
194
166
100
197
193
30
256
254
18
174
152
202
47
215
21
111
87
151
252
198
53
201
173
245
60
221
177
132
98
32
155
236
207
162
43
157
184
168
10
164
15
72
67
24
17
224
188
222
13
48
247
66
185
9
246
76
210
90
26
61
229
95
45
143
150
25
28
219
165
209
5
190
91
35
4
19
250
49
73
101
105
135
92
186
38
50
106
20

>  <PUBCHEM_MMFF94_PARTIAL_CHARGES>  (1) 
21
1 -0.36
10 -0.15
11 0.48
12 0.78
13 0.3
14 -0.2
15 -0.18
16 0.15
17 0.15
18 0.15
19 0.15
2 -0.23
22 0.37
26 0.18
3 -0.57
4 -0.73
5 0.08
6 0.08
7 -0.15
8 -0.15
9 -0.15

>  <PUBCHEM_EFFECTIVE_ROTOR_COUNT>  (1) 
5

>  <PUBCHEM_PHARMACOPHORE_FEATURES>  (1) 
5
1 1 acceptor
1 15 hydrophobe
1 3 acceptor
1 4 donor
6 5 6 7 8 9 10 rings

>  <PUBCHEM_HEAVY_ATOM_COUNT>  (1) 
15

>  <PUBCHEM_ATOM_DEF_STEREO_COUNT>  (1) 
0

>  <PUBCHEM_ATOM_UDEF_STEREO_COUNT>  (1) 
0

>  <PUBCHEM_BOND_DEF_STEREO_COUNT>  (1) 
0

>  <PUBCHEM_BOND_UDEF_STEREO_COUNT>  (1) 
0

>  <PUBCHEM_ISOTOPIC_ATOM_COUNT>  (1) 
0

>  <PUBCHEM_COMPONENT_COUNT>  (1) 
1

>  <PUBCHEM_CACTVS_TAUTO_COUNT>  (1) 
2

>  <PUBCHEM_CONFORMER_ID>  (1) 
000048E600000001

>  <PUBCHEM_MMFF94_ENERGY>  (1) 
41.7694

>  <PUBCHEM_FEATURE_SELFOVERLAP>  (1) 
25.372

>  <PUBCHEM_SHAPE_FINGERPRINT>  (1) 
108231 29 18046918082145225131
11680986 33 18334862706028236155
12173636 292 18050283970579218492
12592029 89 18337399326212936728
13027679 85 18050003285923488613
13132413 78 17693379936660797209
13140716 1 18266192660360834123
14022349 108 18411429392524059747
15006816 218 18411134758168402602
15309172 13 18192997247228013913
16945 1 18265897952072861005
20028762 73 16830957594642344831
20510252 161 17838625809247502785
20871998 184 17829897885919563659
21339142 51 17830733149484220655
21501502 16 18342176644522740779
23419403 2 17970050159026340285
23557571 272 17694509148183020038
23728640 28 17833825354681798994
2748010 2 18333447617188065317
305870 269 18411421756082795709
43471831 8 18265051521008269627
58734987 50 18410575084795240143
69474 34 18122061992452638561
7364860 26 18411982438071808707
81228 2 17119177529489903243
90316 7 17543622037609948370

>  <PUBCHEM_SHAPE_MULTIPOLES>  (1) 
286.1
5.17
3.68
0.82
0.27
0.42
0.06
-0.09
0.65
-4.69
0.19
-0.03
-0.15
0.19

>  <PUBCHEM_SHAPE_SELFOVERLAP>  (1) 
585.048

>  <PUBCHEM_SHAPE_VOLUME>  (1) 
163

>  <PUBCHEM_COORDINATE_TYPE>  (1) 
2
5
10

$$$$
