18668
     RDKit          3D

 11 11  0  0  0  0  0  0  0  0999 V2000
    1.3186   -1.5438   -0.5090 O   0  0  0  0  0  0  0  0  0  0  0  0
    3.2311    0.4048    0.1568 N   0  0  0  0  0  0  0  0  0  0  0  0
    4.2935    0.2082    0.1000 N   0  0  0  0  0  0  0  0  0  0  0  0
   -0.5420   -0.0925   -0.0382 C   0  0  0  0  0  0  0  0  0  0  0  0
   -1.0867    1.1753   -0.2426 C   0  0  0  0  0  0  0  0  0  0  0  0
   -1.3790   -1.1773    0.2237 C   0  0  0  0  0  0  0  0  0  0  0  0
    0.8988   -0.2833   -0.0980 C   0  0  0  0  0  0  0  0  0  0  0  0
   -2.4683    1.3585   -0.1850 C   0  0  0  0  0  0  0  0  0  0  0  0
   -2.7607   -0.9940    0.2812 C   0  0  0  0  0  0  0  0  0  0  0  0
   -3.3052    0.2739    0.0769 C   0  0  0  0  0  0  0  0  0  0  0  0
    1.7998    0.6703    0.2341 C   0  0  0  0  0  0  0  0  0  0  0  0
  1  7  1  0
  2  3  3  0
  2 11  1  0
  4  5  2  0
  4  6  1  0
  4  7  1  0
  5  8  1  0
  6  9  2  0
  7 11  2  0
  8 10  2  0
  9 10  1  0
M  CHG  1   2   1
M  END
>  <PUBCHEM_COMPOUND_CID>  (1) 
18668

>  <PUBCHEM_CONFORMER_RMSD>  (1) 
0.4

>  <PUBCHEM_CONFORMER_DIVERSEORDER>  (1) 
1

>  <PUBCHEM_MMFF94_PARTIAL_CHARGES>  (1) 
18
1 -0.53
10 -0.15
11 -0.02
12 0.15
13 0.15
14 0.15
15 0.15
16 0.15
17 0.15
18 0.45
2 1.36
3 -0.49
4 0.03
5 -0.15
6 -0.15
7 0.05
8 -0.15
9 -0.15

>  <PUBCHEM_EFFECTIVE_ROTOR_COUNT>  (1) 
1

>  <PUBCHEM_PHARMACOPHORE_FEATURES>  (1) 
2
1 1 donor
6 4 5 6 8 9 10 rings

>  <PUBCHEM_HEAVY_ATOM_COUNT>  (1) 
11

>  <PUBCHEM_ATOM_DEF_STEREO_COUNT>  (1) 
0

>  <PUBCHEM_ATOM_UDEF_STEREO_COUNT>  (1) 
0

>  <PUBCHEM_BOND_DEF_STEREO_COUNT>  (1) 
0

>  <PUBCHEM_BOND_UDEF_STEREO_COUNT>  (1) 
1

>  <PUBCHEM_ISOTOPIC_ATOM_COUNT>  (1) 
0

>  <PUBCHEM_COMPONENT_COUNT>  (1) 
1

>  <PUBCHEM_CACTVS_TAUTO_COUNT>  (1) 
2

>  <PUBCHEM_CONFORMER_ID>  (1) 
000048EC00000001

>  <PUBCHEM_MMFF94_ENERGY>  (1) 
27.1295

>  <PUBCHEM_FEATURE_SELFOVERLAP>  (1) 
10.148

>  <PUBCHEM_SHAPE_FINGERPRINT>  (1) 
10608611 8 18411979135395341640
10857977 72 18336541720149557361
11062470 55 13407069305974643020
12932764 1 17275090722107917138
13024252 1 14851602181226454049
13380535 76 18410854347768971183
14325111 11 18410573989836847544
15219456 202 18342462486811506014
16945 1 18337400417335044141
20201158 50 18413670205779662155
20645464 45 18343025480030909903
20871998 184 18341899653286678719
23235685 24 18411693275109114353
23402539 116 18337100255103549215
23402655 69 18198891536455780821
23552423 10 18187090516234397327
2748010 2 18265059033317299863
369184 2 16805317799604210041
6333449 129 18411697695015317509
7364860 26 18195808470811444914
75552 356 18187928412655724011

>  <PUBCHEM_SHAPE_MULTIPOLES>  (1) 
210.54
5.94
1.38
0.64
4.95
0.1
0
-0.71
-0.44
-0.64
0.09
-0.05
0.02
0.29

>  <PUBCHEM_SHAPE_SELFOVERLAP>  (1) 
436.978

>  <PUBCHEM_SHAPE_VOLUME>  (1) 
119.4

>  <PUBCHEM_COORDINATE_TYPE>  (1) 
2
5
10

$$$$
