18660
     RDKit          3D

  8  7  0  0  0  0  0  0  0  0999 V2000
    0.6671    1.9631   -0.8362 Cl  0  0  0  0  0  0  0  0  0  0  0  0
   -0.6133    1.1154    1.6120 Cl  0  0  0  0  0  0  0  0  0  0  0  0
   -2.1903   -1.2666   -0.1223 Cl  0  0  0  0  0  0  0  0  0  0  0  0
    1.3795   -0.9799   -1.0821 O   0  0  0  0  0  0  0  0  0  0  0  0
    1.3038   -1.0062    1.1770 O   0  0  0  0  0  0  0  0  0  0  0  0
   -0.1232    0.5710   -0.0249 C   0  0  0  0  0  0  0  0  0  0  0  0
   -1.3425    0.1332   -0.8396 C   0  0  0  0  0  0  0  0  0  0  0  0
    0.9189   -0.5299    0.1160 C   0  0  0  0  0  0  0  0  0  0  0  0
  1  6  1  0
  2  6  1  0
  3  7  1  0
  4  8  1  0
  5  8  2  0
  6  7  1  0
  6  8  1  0
M  END
>  <PUBCHEM_COMPOUND_CID>  (1) 
18660

>  <PUBCHEM_CONFORMER_RMSD>  (1) 
0.4

>  <PUBCHEM_CONFORMER_DIVERSEORDER>  (1) 
1
5
2
4
6
3
7
9
8

>  <PUBCHEM_MMFF94_PARTIAL_CHARGES>  (1) 
9
1 -0.29
11 0.5
2 -0.29
3 -0.29
4 -0.65
5 -0.57
6 0.64
7 0.29
8 0.66

>  <PUBCHEM_EFFECTIVE_ROTOR_COUNT>  (1) 
2

>  <PUBCHEM_PHARMACOPHORE_FEATURES>  (1) 
3
1 4 acceptor
1 5 acceptor
3 4 5 8 anion

>  <PUBCHEM_HEAVY_ATOM_COUNT>  (1) 
8

>  <PUBCHEM_ATOM_DEF_STEREO_COUNT>  (1) 
0

>  <PUBCHEM_ATOM_UDEF_STEREO_COUNT>  (1) 
0

>  <PUBCHEM_BOND_DEF_STEREO_COUNT>  (1) 
0

>  <PUBCHEM_BOND_UDEF_STEREO_COUNT>  (1) 
0

>  <PUBCHEM_ISOTOPIC_ATOM_COUNT>  (1) 
0

>  <PUBCHEM_COMPONENT_COUNT>  (1) 
1

>  <PUBCHEM_CACTVS_TAUTO_COUNT>  (1) 
1

>  <PUBCHEM_CONFORMER_ID>  (1) 
000048E400000001

>  <PUBCHEM_MMFF94_ENERGY>  (1) 
12.6536

>  <PUBCHEM_FEATURE_SELFOVERLAP>  (1) 
15.284

>  <PUBCHEM_SHAPE_FINGERPRINT>  (1) 
12423570 1 14969064197679526833
137420 1 12805301751670197908
18185500 45 18042395842343679739
20653091 64 18337386166607286275
21040471 1 16895659979717010516
23552333 60 18338244880861827105
24536 1 16912252834419734074
29004967 10 18115009875169577755
5084963 1 17544455914100063197
5943 1 8068350855970922257
68250623 7 17335684846638014437

>  <PUBCHEM_SHAPE_MULTIPOLES>  (1) 
158.51
2.14
1.74
1.41
1.64
0.15
0.44
0.05
-0.54
-0.77
0.11
-0.22
-0.27
-0.23

>  <PUBCHEM_SHAPE_SELFOVERLAP>  (1) 
274.058

>  <PUBCHEM_SHAPE_VOLUME>  (1) 
106.5

>  <PUBCHEM_COORDINATE_TYPE>  (1) 
2
5
10

$$$$
