18677
     RDKit          3D

 21 22  0  0  0  0  0  0  0  0999 V2000
   -3.7594    1.0252   -0.0143 O   0  0  0  0  0  0  0  0  0  0  0  0
   -3.4958   -1.2095    0.4287 O   0  0  0  0  0  0  0  0  0  0  0  0
    4.8098   -0.6366    0.3438 O   0  0  0  0  0  0  0  0  0  0  0  0
   -1.0884    1.4506   -0.0902 N   0  0  0  0  0  0  0  0  0  0  0  0
    0.3340   -2.8948   -0.2017 N   0  0  0  0  0  0  0  0  0  0  0  0
   -0.5192   -0.6537    0.3279 C   0  0  0  0  0  0  0  0  0  0  0  0
    0.6731    0.1089    0.1813 C   0  0  0  0  0  0  0  0  0  0  0  0
    0.2881    1.4255   -0.0805 C   0  0  0  0  0  0  0  0  0  0  0  0
   -0.5956   -2.1025    0.6142 C   0  0  0  0  0  0  0  0  0  0  0  0
   -1.5854    0.1988    0.1556 C   0  0  0  0  0  0  0  0  0  0  0  0
    2.0474   -0.1955    0.2462 C   0  0  0  0  0  0  0  0  0  0  0  0
    1.2122    2.4570   -0.2812 C   0  0  0  0  0  0  0  0  0  0  0  0
    2.9832    0.8261    0.0476 C   0  0  0  0  0  0  0  0  0  0  0  0
    2.5698    2.1313   -0.2120 C   0  0  0  0  0  0  0  0  0  0  0  0
   -2.9838   -0.0946    0.2093 C   0  0  0  0  0  0  0  0  0  0  0  0
    0.0393   -2.7150   -1.6206 C   0  0  0  0  0  0  0  0  0  0  0  0
    0.2538   -4.3052    0.1676 C   0  0  0  0  0  0  0  0  0  0  0  0
    4.4039    0.5197    0.1132 C   0  0  0  0  0  0  0  0  0  0  0  0
    5.4376    1.6196   -0.1006 C   0  0  0  0  0  0  0  0  0  0  0  0
   -5.1810    0.8548    0.0159 C   0  0  0  0  0  0  0  0  0  0  0  0
   -5.8434    2.1899   -0.2501 C   0  0  0  0  0  0  0  0  0  0  0  0
  1 15  1  0
  1 20  1  0
  2 15  2  0
  3 18  2  0
  4  8  1  0
  4 10  1  0
  5  9  1  0
  5 16  1  0
  5 17  1  0
  6  7  1  0
  6  9  1  0
  6 10  2  0
  7  8  2  0
  7 11  1  0
  8 12  1  0
 10 15  1  0
 11 13  2  0
 12 14  2  0
 13 14  1  0
 13 18  1  0
 18 19  1  0
 20 21  1  0
M  END
>  <PUBCHEM_COMPOUND_CID>  (1) 
18677

>  <PUBCHEM_CONFORMER_RMSD>  (1) 
0.8

>  <PUBCHEM_CONFORMER_DIVERSEORDER>  (1) 
2
14
5
26
33
18
36
23
27
35
16
12
20
21
25
30
10
29
7
1
19
24
31
32
13
17
4
28
9
22
6
8
11
3
15
34

>  <PUBCHEM_MMFF94_PARTIAL_CHARGES>  (1) 
23
1 -0.43
10 -0.24
11 -0.15
12 -0.15
13 0.09
14 -0.15
15 0.81
16 0.27
17 0.27
18 0.42
19 0.06
2 -0.57
20 0.28
24 0.27
25 0.15
26 0.15
27 0.15
3 -0.57
4 0.03
5 -0.81
6 -0.18
8 -0.15
9 0.45

>  <PUBCHEM_EFFECTIVE_ROTOR_COUNT>  (1) 
6

>  <PUBCHEM_PHARMACOPHORE_FEATURES>  (1) 
7
1 2 acceptor
1 3 acceptor
1 4 cation
1 4 donor
1 5 cation
5 4 6 7 8 10 rings
6 7 8 11 12 13 14 rings

>  <PUBCHEM_HEAVY_ATOM_COUNT>  (1) 
21

>  <PUBCHEM_ATOM_DEF_STEREO_COUNT>  (1) 
0

>  <PUBCHEM_ATOM_UDEF_STEREO_COUNT>  (1) 
0

>  <PUBCHEM_BOND_DEF_STEREO_COUNT>  (1) 
0

>  <PUBCHEM_BOND_UDEF_STEREO_COUNT>  (1) 
0

>  <PUBCHEM_ISOTOPIC_ATOM_COUNT>  (1) 
0

>  <PUBCHEM_COMPONENT_COUNT>  (1) 
1

>  <PUBCHEM_CACTVS_TAUTO_COUNT>  (1) 
11

>  <PUBCHEM_CONFORMER_ID>  (1) 
000048F500000002

>  <PUBCHEM_MMFF94_ENERGY>  (1) 
46.3118

>  <PUBCHEM_FEATURE_SELFOVERLAP>  (1) 
35.612

>  <PUBCHEM_SHAPE_FINGERPRINT>  (1) 
10693767 8 17987233326809306807
10906281 52 18262537895978381945
10967382 1 18337673009860476746
12011746 2 18342184349710017924
12500047 106 18269835492264581376
12592029 89 18337111172377704811
12715332 25 18271528718353686850
13140716 1 18339366361411261913
14466204 15 18411134693370224177
14790565 3 18409453591572881076
15099037 51 18408885152724445924
15196674 1 18335984254669094768
15664445 248 17552930520689856023
15927050 60 18411138056567220766
1601671 61 18334293145566576597
19141452 34 18337387253529482568
19591789 44 18337391663775385803
19784866 9 18341049627697756121
20028762 73 18057044820882685007
20197701 30 18272083920196571259
20554085 129 17987214708056824697
20645477 70 18200312092408965807
21033648 29 18271234036210545800
21054139 6 18200297919111997215
21307412 95 18057913315162374662
21478907 32 17618503619811067043
22182313 1 18196680520765581031
23402539 116 18271519879289970852
23419403 2 17535454929510707966
23559900 14 18270963566058248776
23566358 2 18048874092283431293
293599 30 18408604768448181160
298252 57 18409730694103423754
3060560 45 18412262809305241142
3084891 72 18413673517131168080
335352 9 18408322177080400852
34934 24 18335135449515801752
350125 39 18265900344554410715
38695281 34 18343300336737623167
4072396 5 18336253536127942912
5104073 3 18261673782717738392
532947 4 18341057306667160839
5385378 56 18339648815677289993
59755656 215 18265053535622257861
6138700 20 18339083666764254118
69090 78 18339077198247496546
7164475 11 17691120861019460462
7364860 26 18268148652427847779
7495541 125 10087341349312688757
7832392 63 18193273216399529432
81228 2 17619329344621760803
81539 233 18410293567132568303
8272917 22 18340488842587128381
9953998 17 18197754757850010528

>  <PUBCHEM_SHAPE_MULTIPOLES>  (1) 
404.6
9.75
3.78
0.79
3.9
4.46
-0.2
-8.36
0.18
0.24
-0.54
0.01
0.4
0.11

>  <PUBCHEM_SHAPE_SELFOVERLAP>  (1) 
856.092

>  <PUBCHEM_SHAPE_VOLUME>  (1) 
230.3

>  <PUBCHEM_COORDINATE_TYPE>  (1) 
2
5
10

$$$$
