18678
     RDKit          3D

 22 23  0  0  0  0  0  0  0  0999 V2000
   -0.2887    2.3177   -0.8768 O   0  0  0  0  0  0  0  0  0  0  0  0
    2.2795    2.3600    0.3421 C   0  0  0  0  0  0  0  0  0  0  0  0
    2.2180   -2.6278    0.1841 C   0  0  0  0  0  0  0  0  0  0  0  0
    1.5773    1.0937   -0.0236 C   0  0  0  0  0  0  0  0  0  0  0  0
    1.5348   -1.2808   -0.1042 C   0  0  0  0  0  0  0  0  0  0  0  0
    2.1965   -0.1284    0.2389 C   0  0  0  0  0  0  0  0  0  0  0  0
    0.3169    1.1228   -0.6207 C   0  0  0  0  0  0  0  0  0  0  0  0
   -0.3240   -0.0701   -0.9552 C   0  0  0  0  0  0  0  0  0  0  0  0
    0.2951   -1.2921   -0.6924 C   0  0  0  0  0  0  0  0  0  0  0  0
    3.6662    2.0678    0.9929 C   0  0  0  0  0  0  0  0  0  0  0  0
    1.4452    3.1929    1.3630 C   0  0  0  0  0  0  0  0  0  0  0  0
    2.5727    3.3307   -0.8485 C   0  0  0  0  0  0  0  0  0  0  0  0
    2.4163   -3.4027   -1.1366 C   0  0  0  0  0  0  0  0  0  0  0  0
    1.3362   -3.4645    1.1362 C   0  0  0  0  0  0  0  0  0  0  0  0
    3.6073   -2.4947    0.8480 C   0  0  0  0  0  0  0  0  0  0  0  0
   -1.6732   -0.0592   -1.5949 C   0  0  0  0  0  0  0  0  0  0  0  0
   -2.8206   -0.0864   -0.6062 C   0  0  0  0  0  0  0  0  0  0  0  0
   -3.3351    1.1093   -0.1375 C   0  0  0  0  0  0  0  0  0  0  0  0
   -3.3278   -1.3062   -0.1952 C   0  0  0  0  0  0  0  0  0  0  0  0
   -4.3917    1.0844    0.7727 C   0  0  0  0  0  0  0  0  0  0  0  0
   -4.3845   -1.3309    0.7150 C   0  0  0  0  0  0  0  0  0  0  0  0
   -4.9165   -0.1355    1.1988 C   0  0  0  0  0  0  0  0  0  0  0  0
  1  7  1  0
  2  4  1  0
  2 10  1  0
  2 11  1  0
  2 12  1  0
  3  5  1  0
  3 13  1  0
  3 14  1  0
  3 15  1  0
  4  6  2  0
  4  7  1  0
  5  6  1  0
  5  9  2  0
  7  8  2  0
  8  9  1  0
  8 16  1  0
 16 17  1  0
 17 18  2  0
 17 19  1  0
 18 20  1  0
 19 21  2  0
 20 22  2  0
 21 22  1  0
M  END
>  <PUBCHEM_COMPOUND_CID>  (1) 
18678

>  <PUBCHEM_CONFORMER_RMSD>  (1) 
0.6

>  <PUBCHEM_CONFORMER_DIVERSEORDER>  (1) 
1
24
20
6
27
25
8
22
26
23
17
19
10
21
2
13
12
11
18
7
3
4
5
9
16
14
15

>  <PUBCHEM_MMFF94_PARTIAL_CHARGES>  (1) 
24
1 -0.53
16 0.29
17 -0.14
18 -0.15
19 -0.15
2 0.14
20 -0.15
21 -0.15
22 -0.15
23 0.15
24 0.15
3 0.14
4 -0.14
45 0.45
46 0.15
47 0.15
48 0.15
49 0.15
5 -0.14
50 0.15
6 -0.15
7 0.08
8 -0.14
9 -0.15

>  <PUBCHEM_EFFECTIVE_ROTOR_COUNT>  (1) 
4

>  <PUBCHEM_PHARMACOPHORE_FEATURES>  (1) 
5
1 1 donor
4 2 10 11 12 hydrophobe
4 3 13 14 15 hydrophobe
6 17 18 19 20 21 22 rings
6 4 5 6 7 8 9 rings

>  <PUBCHEM_HEAVY_ATOM_COUNT>  (1) 
22

>  <PUBCHEM_ATOM_DEF_STEREO_COUNT>  (1) 
0

>  <PUBCHEM_ATOM_UDEF_STEREO_COUNT>  (1) 
0

>  <PUBCHEM_BOND_DEF_STEREO_COUNT>  (1) 
0

>  <PUBCHEM_BOND_UDEF_STEREO_COUNT>  (1) 
0

>  <PUBCHEM_ISOTOPIC_ATOM_COUNT>  (1) 
0

>  <PUBCHEM_COMPONENT_COUNT>  (1) 
1

>  <PUBCHEM_CACTVS_TAUTO_COUNT>  (1) 
3

>  <PUBCHEM_CONFORMER_ID>  (1) 
000048F600000001

>  <PUBCHEM_MMFF94_ENERGY>  (1) 
87.167

>  <PUBCHEM_FEATURE_SELFOVERLAP>  (1) 
25.371

>  <PUBCHEM_SHAPE_FINGERPRINT>  (1) 
10064457 181 18050288368730886552
10366900 7 18196093472362058993
10382601 240 18412826906136411876
11036077 3 18267021833614431080
114674 6 18186804669002462259
11578080 2 17604421873671960005
12035758 1 18336535110732998506
12160290 23 16973345978394088782
12422481 6 18123719068730409896
12506688 2 18190460450295474807
12553582 1 18122618358074216679
12633257 1 18055086371845899057
12714826 92 17607249753528688223
12788726 201 17040056651312155623
12892183 10 18338808896420909433
13140716 1 18266449000719410410
133893 2 18123718011477624574
13533116 47 18411702102300882595
13583140 156 18411697695390033037
13878862 14 18338785716636082597
14022347 108 17765445244285980879
14022349 108 18411971477600177446
14178342 30 18192151718702192431
14223421 5 18335416863993789565
14787075 74 18187370866257126906
14790565 3 18265336299369414108
14844126 61 17253967780857622747
14955137 171 18201160958135204894
15309172 13 18119800571907312373
15420108 30 18058714910082472502
15475509 84 18126855897837320921
15527383 91 18336550408836793911
15842332 3 17774426287580026247
15927050 60 18124315163173625270
1813 80 17843695361026473502
18785283 64 18334012835000282624
19591789 44 18193272116771513028
19784866 9 18343301504515183464
20028762 73 17693942203630458199
201361 129 18270964656003787829
20600515 1 17758968021260197117
20739085 24 18188208809680747700
21041028 32 18198338451451153904
21065199 12 18408328796104850433
21120745 212 17623311385454470654
21344244 78 18059002892113615177
21421861 104 18339933623031774681
21524375 3 18055912349194993436
21731228 192 18122616429865314064
21756936 100 17766561626819920108
2255824 54 18410858776043530574
23558518 356 17336175439177602173
23559900 14 18187364299145986797
23845131 108 18049998097951076915
2748010 2 17908393898217247276
283562 15 15307035693814468221
3091708 16 9504788198568195006
31174 14 18409166580424907007
314173 41 18193281797211605807
3421961 26 18335985276887103067
352729 6 17399508421613331654
392239 28 17694788819473484811
4409770 3 17179965129327589077
458136 41 18263931101648489004
474 4 18267020742281372181
5104073 3 18339940255500204883
58807428 26 18195227035624301896
6049 1 17968371248068643149
633830 44 18057609973600097013
6442390 28 17978518855270984412
7097593 13 18341612590562381327
7364860 26 18413387639897251622
7615 1 17631432571399749551
79837 15 17905882926965718482
81228 2 17189795871781992460

>  <PUBCHEM_SHAPE_MULTIPOLES>  (1) 
446.88
7.91
4.45
1.3
10
0.53
-0.02
0.37
2.91
-6.2
0.61
0.07
-0.02
0.17

>  <PUBCHEM_SHAPE_SELFOVERLAP>  (1) 
946.204

>  <PUBCHEM_SHAPE_VOLUME>  (1) 
253.7

>  <PUBCHEM_COORDINATE_TYPE>  (1) 
2
5
10

$$$$
