1868
     RDKit          3D

 15 17  0  0  0  0  0  0  0  0999 V2000
    3.8465    0.7268    0.0205 O   0  0  0  0  0  0  0  0  0  0  0  0
   -1.0287   -1.7958   -0.0282 N   0  0  0  0  0  0  0  0  0  0  0  0
   -3.9461    0.5110    0.3551 N   0  0  0  0  0  0  0  0  0  0  0  0
   -1.1282    0.4284    0.0012 C   0  0  0  0  0  0  0  0  0  0  0  0
   -1.8767   -0.7280   -0.0111 C   0  0  0  0  0  0  0  0  0  0  0  0
   -1.7865    1.7640    0.0333 C   0  0  0  0  0  0  0  0  0  0  0  0
    0.2416    0.0522   -0.0003 C   0  0  0  0  0  0  0  0  0  0  0  0
   -3.3612   -0.7909   -0.0344 C   0  0  0  0  0  0  0  0  0  0  0  0
   -3.2823    1.6360   -0.3367 C   0  0  0  0  0  0  0  0  0  0  0  0
    0.2765   -1.3477   -0.0201 C   0  0  0  0  0  0  0  0  0  0  0  0
    1.4600    0.7601    0.0146 C   0  0  0  0  0  0  0  0  0  0  0  0
    1.4752   -2.0703   -0.0285 C   0  0  0  0  0  0  0  0  0  0  0  0
    2.6648    0.0481    0.0068 C   0  0  0  0  0  0  0  0  0  0  0  0
    2.6699   -1.3449   -0.0149 C   0  0  0  0  0  0  0  0  0  0  0  0
    3.7752    2.1509    0.0426 C   0  0  0  0  0  0  0  0  0  0  0  0
  1 13  1  0
  1 15  1  0
  2  5  1  0
  2 10  1  0
  3  8  1  0
  3  9  1  0
  4  5  2  0
  4  6  1  0
  4  7  1  0
  5  8  1  0
  6  9  1  0
  7 10  2  0
  7 11  1  0
 10 12  1  0
 11 13  2  0
 12 14  2  0
 13 14  1  0
M  END
>  <PUBCHEM_COMPOUND_CID>  (1) 
1868

>  <PUBCHEM_CONFORMER_RMSD>  (1) 
0.6

>  <PUBCHEM_CONFORMER_DIVERSEORDER>  (1) 
1
2

>  <PUBCHEM_MMFF94_PARTIAL_CHARGES>  (1) 
19
1 -0.36
10 -0.15
11 -0.15
12 -0.15
13 0.08
14 -0.15
15 0.28
2 0.03
22 0.27
23 0.36
24 0.15
25 0.15
26 0.15
3 -0.9
4 -0.18
5 -0.33
6 0.18
8 0.45
9 0.27

>  <PUBCHEM_EFFECTIVE_ROTOR_COUNT>  (1) 
1.8

>  <PUBCHEM_PHARMACOPHORE_FEATURES>  (1) 
8
1 1 acceptor
1 2 cation
1 2 donor
1 3 cation
1 3 donor
5 2 4 5 7 10 rings
6 3 4 5 6 8 9 rings
6 7 10 11 12 13 14 rings

>  <PUBCHEM_HEAVY_ATOM_COUNT>  (1) 
15

>  <PUBCHEM_ATOM_DEF_STEREO_COUNT>  (1) 
0

>  <PUBCHEM_ATOM_UDEF_STEREO_COUNT>  (1) 
0

>  <PUBCHEM_BOND_DEF_STEREO_COUNT>  (1) 
0

>  <PUBCHEM_BOND_UDEF_STEREO_COUNT>  (1) 
0

>  <PUBCHEM_ISOTOPIC_ATOM_COUNT>  (1) 
0

>  <PUBCHEM_COMPONENT_COUNT>  (1) 
1

>  <PUBCHEM_CACTVS_TAUTO_COUNT>  (1) 
1

>  <PUBCHEM_CONFORMER_ID>  (1) 
0000074C00000001

>  <PUBCHEM_MMFF94_ENERGY>  (1) 
36.6573

>  <PUBCHEM_FEATURE_SELFOVERLAP>  (1) 
40.772

>  <PUBCHEM_SHAPE_FINGERPRINT>  (1) 
10608611 8 18336826386012844101
10967382 1 18410856568266835812
10980938 120 18411136913841162570
11132069 177 18408880741645411313
11471102 20 18339638949572804415
11543360 7 15482382157494510296
12346645 44 18410009965956888498
13140716 1 18264492771790995723
13380535 21 18412269423497016795
13380535 76 18409728478074534242
13897977 150 18410852131570932861
14144814 61 18409730625526196003
14325111 11 18410292475952230133
14415576 193 18409732859167815268
14897335 6 18411415111704994358
15196674 1 18410855451559326215
15219456 202 18337111172562060879
15442244 35 18050848823376653370
15536298 74 18342176631353177766
15775835 57 18343023302160704920
16945 1 18410571824820116855
18186145 218 18272095933125139644
193761 8 14159458051914608079
19591789 44 15163777029606713315
20510252 161 18341898506403459553
20645477 70 18271241608406413951
21267235 1 18338807727404178479
21501502 16 18411694357546413451
21524375 3 18411417349741729666
22854114 111 18408887304418489768
2334 1 18410855425784267191
23402539 116 18340758338298612062
23402655 69 18270952450318552293
23463225 33 18335981961124773674
23559900 14 18271240509395841682
2748010 2 18337676304216580351
474 4 17531533216922267572
4990 188 17988655085959554022
5104073 3 18408605829626370395
53812653 166 18343298188900397784
57096353 35 18341608256708239143
58051976 378 18341890770940674884
6333272 397 18408886260789156512
7364860 26 18269838631938630070
9709674 26 18411705374085163566

>  <PUBCHEM_SHAPE_MULTIPOLES>  (1) 
292.86
6.65
2.23
0.61
0.07
0.12
-0.01
2.96
0.1
0.8
-0.05
-0.05
0.02
0.1

>  <PUBCHEM_SHAPE_SELFOVERLAP>  (1) 
643.292

>  <PUBCHEM_SHAPE_VOLUME>  (1) 
158.6

>  <PUBCHEM_COORDINATE_TYPE>  (1) 
2
5
10

$$$$
