18685
     RDKit          3D

 15 15  0  0  0  0  0  0  0  0999 V2000
    3.1835   -1.0442   -1.0384 O   0  0  0  0  0  0  0  0  0  0  0  0
    5.0255    0.9318   -0.9532 O   0  0  0  0  0  0  0  0  0  0  0  0
    4.1103    0.7445    0.0910 N   0  0  0  0  0  0  0  0  0  0  0  0
   -3.2958    0.1605   -0.2995 C   0  0  0  0  0  0  0  0  0  0  0  0
   -1.8128    0.0070    0.0768 C   0  0  0  0  0  0  0  0  0  0  0  0
   -3.4278    1.0972   -1.5199 C   0  0  0  0  0  0  0  0  0  0  0  0
   -4.0741    0.7634    0.8899 C   0  0  0  0  0  0  0  0  0  0  0  0
   -3.9878   -1.1711   -0.6694 C   0  0  0  0  0  0  0  0  0  0  0  0
   -1.1083    1.1329    0.4227 C   0  0  0  0  0  0  0  0  0  0  0  0
   -1.2610   -1.2493    0.0498 C   0  0  0  0  0  0  0  0  0  0  0  0
    0.8332   -0.2674    0.7481 C   0  0  0  0  0  0  0  0  0  0  0  0
    0.2369    0.9934    0.7639 C   0  0  0  0  0  0  0  0  0  0  0  0
    0.0842   -1.3888    0.3911 C   0  0  0  0  0  0  0  0  0  0  0  0
    2.2712   -0.4166    1.1140 C   0  0  0  0  0  0  0  0  0  0  0  0
    3.2226   -0.2933   -0.0670 C   0  0  0  0  0  0  0  0  0  0  0  0
  1 15  2  0
  2  3  1  0
  3 15  1  0
  4  5  1  0
  4  6  1  0
  4  7  1  0
  4  8  1  0
  5  9  2  0
  5 10  1  0
  9 12  1  0
 10 13  2  0
 11 12  2  0
 11 13  1  0
 11 14  1  0
 14 15  1  0
M  END
>  <PUBCHEM_COMPOUND_CID>  (1) 
18685

>  <PUBCHEM_CONFORMER_RMSD>  (1) 
0.6

>  <PUBCHEM_CONFORMER_DIVERSEORDER>  (1) 
2
5
8
4
1
6
7
3

>  <PUBCHEM_MMFF94_PARTIAL_CHARGES>  (1) 
18
1 -0.57
10 -0.15
11 -0.14
12 -0.15
13 -0.15
14 0.2
15 0.57
2 -0.44
25 0.15
26 0.15
27 0.15
28 0.15
3 -0.39
31 0.37
32 0.4
4 0.14
5 -0.14
9 -0.15

>  <PUBCHEM_EFFECTIVE_ROTOR_COUNT>  (1) 
4

>  <PUBCHEM_PHARMACOPHORE_FEATURES>  (1) 
4
1 1 acceptor
1 3 donor
4 4 6 7 8 hydrophobe
6 5 9 10 11 12 13 rings

>  <PUBCHEM_HEAVY_ATOM_COUNT>  (1) 
15

>  <PUBCHEM_ATOM_DEF_STEREO_COUNT>  (1) 
0

>  <PUBCHEM_ATOM_UDEF_STEREO_COUNT>  (1) 
0

>  <PUBCHEM_BOND_DEF_STEREO_COUNT>  (1) 
0

>  <PUBCHEM_BOND_UDEF_STEREO_COUNT>  (1) 
0

>  <PUBCHEM_ISOTOPIC_ATOM_COUNT>  (1) 
0

>  <PUBCHEM_COMPONENT_COUNT>  (1) 
1

>  <PUBCHEM_CACTVS_TAUTO_COUNT>  (1) 
3

>  <PUBCHEM_CONFORMER_ID>  (1) 
000048FD00000002

>  <PUBCHEM_MMFF94_ENERGY>  (1) 
45.97

>  <PUBCHEM_FEATURE_SELFOVERLAP>  (1) 
20.297

>  <PUBCHEM_SHAPE_FINGERPRINT>  (1) 
10498660 4 18334286544127924957
11543360 7 17967527986847911427
11769659 78 14835824193298806605
12032990 46 18131347531632517435
12119455 92 14056992841050768402
12251169 10 11386369261958660786
12507557 5 14851607704053198471
12670546 177 18339355374388689463
12932764 1 18260816082465043889
13214271 11 13839980032385822267
13760787 5 18261669281765636563
14289901 80 15864076442429924849
14911166 2 18342733031317786441
14943859 89 16950280723824170544
14993402 34 18410287025728350345
15209294 21 12613303223331434663
15775835 57 17748825224494682654
16945 1 18269821056889821803
18186145 218 18411133615105754232
19026448 4 15936688164542519907
19026448 5 16732972086248752131
200 152 16845576413750126138
20281475 54 18060133215457249507
20645476 183 18040713701217297890
20645477 70 18202007582104592206
20871999 31 18341893051542078199
21293036 1 18410571794739281290
22094290 60 16917348130163994569
22485316 2 15626216905780695322
22854114 59 13479133492834810640
23402539 116 18202279174260807912
23402655 69 18343581806823176240
23557571 272 18270132343171613598
23559900 14 18272369785473799434
26918003 58 11887955445162973476
2748010 2 18125141978141420019
42 15 10015869782044940652
474 4 17023190495714894388
4990 188 18060419105644412166
58051976 100 15769765858685964149
633830 44 18341055099180116295
7364860 26 17771897491966065048

>  <PUBCHEM_SHAPE_MULTIPOLES>  (1) 
291.97
8.7
1.38
1.14
4.96
0.14
0.16
-1.65
2.72
-0.35
0.11
-0.15
-0.17
-0.2

>  <PUBCHEM_SHAPE_SELFOVERLAP>  (1) 
598.26

>  <PUBCHEM_SHAPE_VOLUME>  (1) 
170.3

>  <PUBCHEM_COORDINATE_TYPE>  (1) 
2
5
10

$$$$
