18688
     RDKit          3D

  9  8  0  0  1  0  0  0  0  0999 V2000
   -1.2664    1.6421   -0.0973 Cl  0  0  0  0  0  0  0  0  0  0  0  0
    1.8681   -0.3286    1.7516 Cl  0  0  0  0  0  0  0  0  0  0  0  0
    1.6867    1.6396   -0.3865 Cl  0  0  0  0  0  0  0  0  0  0  0  0
    2.8669   -0.9617   -0.8841 Cl  0  0  0  0  0  0  0  0  0  0  0  0
   -3.5003   -0.2681    0.2154 O   0  0  0  0  0  0  0  0  0  0  0  0
   -1.0857   -0.1183    0.2015 C   0  0  0  0  0  0  0  0  0  0  0  0
    0.1984   -0.6792   -0.4471 C   0  0  0  0  0  0  0  0  0  0  0  0
   -2.3240   -0.8230   -0.3615 C   0  0  0  0  0  0  0  0  0  0  0  0
    1.5563   -0.1028    0.0079 C   0  0  0  0  0  0  0  0  0  0  0  0
  1  6  1  0
  2  9  1  0
  3  9  1  0
  4  9  1  0
  5  8  1  0
  6  7  1  0
  6  8  1  0
  7  9  1  0
M  END
>  <PUBCHEM_COMPOUND_CID>  (1) 
18688

>  <PUBCHEM_CONFORMER_RMSD>  (1) 
0.6

>  <PUBCHEM_CONFORMER_DIVERSEORDER>  (1) 
1
13
10
11
2
5
4
9
12
6
3
14
8
7

>  <PUBCHEM_MMFF94_PARTIAL_CHARGES>  (1) 
9
1 -0.29
15 0.4
2 -0.29
3 -0.29
4 -0.29
5 -0.68
6 0.29
8 0.28
9 0.87

>  <PUBCHEM_EFFECTIVE_ROTOR_COUNT>  (1) 
3

>  <PUBCHEM_PHARMACOPHORE_FEATURES>  (1) 
2
1 5 acceptor
1 5 donor

>  <PUBCHEM_HEAVY_ATOM_COUNT>  (1) 
9

>  <PUBCHEM_ATOM_DEF_STEREO_COUNT>  (1) 
0

>  <PUBCHEM_ATOM_UDEF_STEREO_COUNT>  (1) 
1

>  <PUBCHEM_BOND_DEF_STEREO_COUNT>  (1) 
0

>  <PUBCHEM_BOND_UDEF_STEREO_COUNT>  (1) 
0

>  <PUBCHEM_ISOTOPIC_ATOM_COUNT>  (1) 
0

>  <PUBCHEM_COMPONENT_COUNT>  (1) 
1

>  <PUBCHEM_CACTVS_TAUTO_COUNT>  (1) 
1

>  <PUBCHEM_CONFORMER_ID>  (1) 
0000490000000001

>  <PUBCHEM_MMFF94_ENERGY>  (1) 
16.3322

>  <PUBCHEM_FEATURE_SELFOVERLAP>  (1) 
10.148

>  <PUBCHEM_SHAPE_FINGERPRINT>  (1) 
10857977 72 18271516589640174275
12897270 3 18409453604367332855
12932741 1 17773864325089092208
12932764 1 17603578656007360895
170605 34 18116716420511684316
19973954 147 18411983537610187173
20653091 64 18040147405774191496
20711985 344 18189335667280530909
21040471 1 17834107554938523444
23552333 60 18260827137236467328
23552423 10 18408042922327313071
23552449 11 18041828605933483440
3248919 1 18271516602488315255
5084963 1 18131073709918159050
8030462 33 17385724668721451145

>  <PUBCHEM_SHAPE_MULTIPOLES>  (1) 
186.83
4.5
1.53
1.15
2.19
0.83
-0.52
-1.14
0.24
-0.14
0.27
-0.92
-0.2
0.01

>  <PUBCHEM_SHAPE_SELFOVERLAP>  (1) 
310.151

>  <PUBCHEM_SHAPE_VOLUME>  (1) 
128.4

>  <PUBCHEM_COORDINATE_TYPE>  (1) 
2
5
10

$$$$
