18684
     RDKit          3D

  5  4  0  0  0  0  0  0  0  0999 V2000
    0.0050   -0.0001   -0.0205 N   0  0  0  0  0  0  0  0  0  0  0  0
   -0.0588    0.0003    1.4004 N   0  0  0  0  0  0  0  0  0  0  0  0
   -0.7081   -1.2472   -0.4845 C   0  0  0  0  0  0  0  0  0  0  0  0
   -0.7019    1.2506   -0.4848 C   0  0  0  0  0  0  0  0  0  0  0  0
    1.4638   -0.0037   -0.4105 C   0  0  0  0  0  0  0  0  0  0  0  0
  1  2  1  0
  1  3  1  0
  1  4  1  0
  1  5  1  0
M  CHG  1   1   1
M  END
>  <PUBCHEM_COMPOUND_CID>  (1) 
18684

>  <PUBCHEM_CONFORMER_RMSD>  (1) 
0.4

>  <PUBCHEM_CONFORMER_DIVERSEORDER>  (1) 
1

>  <PUBCHEM_MMFF94_PARTIAL_CHARGES>  (1) 
7
1 -0.75
15 0.36
16 0.36
2 -0.48
3 0.5
4 0.5
5 0.5

>  <PUBCHEM_EFFECTIVE_ROTOR_COUNT>  (1) 
0

>  <PUBCHEM_PHARMACOPHORE_FEATURES>  (1) 
1
1 2 donor

>  <PUBCHEM_HEAVY_ATOM_COUNT>  (1) 
5

>  <PUBCHEM_ATOM_DEF_STEREO_COUNT>  (1) 
0

>  <PUBCHEM_ATOM_UDEF_STEREO_COUNT>  (1) 
0

>  <PUBCHEM_BOND_DEF_STEREO_COUNT>  (1) 
0

>  <PUBCHEM_BOND_UDEF_STEREO_COUNT>  (1) 
0

>  <PUBCHEM_ISOTOPIC_ATOM_COUNT>  (1) 
0

>  <PUBCHEM_COMPONENT_COUNT>  (1) 
1

>  <PUBCHEM_CACTVS_TAUTO_COUNT>  (1) 
1

>  <PUBCHEM_CONFORMER_ID>  (1) 
000048FC00000001

>  <PUBCHEM_MMFF94_ENERGY>  (1) 
13.9531

>  <PUBCHEM_FEATURE_SELFOVERLAP>  (1) 
5.074

>  <PUBCHEM_SHAPE_FINGERPRINT>  (1) 
139733 1 10748077361228832805
20096714 4 11604468418108445142
21015797 1 17549025398383277508
5943 1 15470574115470966797

>  <PUBCHEM_SHAPE_MULTIPOLES>  (1) 
92.94
1.28
1.27
1.05
0.52
0
-0.42
0
0.29
-0.49
0.3
-0.02
0
0

>  <PUBCHEM_SHAPE_SELFOVERLAP>  (1) 
154.991

>  <PUBCHEM_SHAPE_VOLUME>  (1) 
66.5

>  <PUBCHEM_COORDINATE_TYPE>  (1) 
2
5
10

$$$$
