18694
     RDKit          3D

 10  9  0  0  0  0  0  0  0  0999 V2000
   -2.7235   -1.0795    0.6024 O   0  0  0  0  0  0  0  0  0  0  0  0
    1.2797    0.0447   -0.2138 N   0  0  0  0  0  0  0  0  0  0  0  0
   -0.0353   -0.4760    0.1392 C   0  0  0  0  0  0  0  0  0  0  0  0
    2.3317   -0.8830    0.2061 C   0  0  0  0  0  0  0  0  0  0  0  0
    1.4930    1.3608    0.3910 C   0  0  0  0  0  0  0  0  0  0  0  0
   -1.1255    0.4952   -0.3012 C   0  0  0  0  0  0  0  0  0  0  0  0
    2.1303   -2.2569   -0.4103 C   0  0  0  0  0  0  0  0  0  0  0  0
    2.8332    1.9446   -0.0229 C   0  0  0  0  0  0  0  0  0  0  0  0
   -2.5196   -0.0147    0.0213 C   0  0  0  0  0  0  0  0  0  0  0  0
   -3.6639    0.8647   -0.4116 C   0  0  0  0  0  0  0  0  0  0  0  0
  1  9  2  0
  2  3  1  0
  2  4  1  0
  2  5  1  0
  3  6  1  0
  4  7  1  0
  5  8  1  0
  6  9  1  0
  9 10  1  0
M  END
>  <PUBCHEM_COMPOUND_CID>  (1) 
18694

>  <PUBCHEM_CONFORMER_RMSD>  (1) 
0.6

>  <PUBCHEM_CONFORMER_DIVERSEORDER>  (1) 
1
37
43
21
52
35
28
29
11
42
36
18
39
44
40
16
34
33
38
17
13
55
20
9
7
12
24
8
30
46
19
54
22
10
14
23
51
15
6
31
26
45
41
27
25
32
3
4
2
47
49
48
5
53
50

>  <PUBCHEM_MMFF94_PARTIAL_CHARGES>  (1) 
8
1 -0.57
10 0.06
2 -0.81
3 0.27
4 0.27
5 0.27
6 0.06
9 0.45

>  <PUBCHEM_EFFECTIVE_ROTOR_COUNT>  (1) 
5

>  <PUBCHEM_PHARMACOPHORE_FEATURES>  (1) 
2
1 1 acceptor
1 2 cation

>  <PUBCHEM_HEAVY_ATOM_COUNT>  (1) 
10

>  <PUBCHEM_ATOM_DEF_STEREO_COUNT>  (1) 
0

>  <PUBCHEM_ATOM_UDEF_STEREO_COUNT>  (1) 
0

>  <PUBCHEM_BOND_DEF_STEREO_COUNT>  (1) 
0

>  <PUBCHEM_BOND_UDEF_STEREO_COUNT>  (1) 
0

>  <PUBCHEM_ISOTOPIC_ATOM_COUNT>  (1) 
0

>  <PUBCHEM_COMPONENT_COUNT>  (1) 
1

>  <PUBCHEM_CACTVS_TAUTO_COUNT>  (1) 
3

>  <PUBCHEM_CONFORMER_ID>  (1) 
0000490600000001

>  <PUBCHEM_MMFF94_ENERGY>  (1) 
9.8931

>  <PUBCHEM_FEATURE_SELFOVERLAP>  (1) 
10.148

>  <PUBCHEM_SHAPE_FINGERPRINT>  (1) 
10608611 8 18334852814423362293
12932741 1 18186519886842300183
12932764 1 17560796684361349993
13380535 76 18264484156134312866
14325111 11 18409165541132361969
14390081 3 18409164446026711621
14648413 74 18408886213380817097
15219456 202 18335422386962782633
170605 34 18260826059347304080
19973954 147 18410012109156521457
20201158 50 18338233760838479019
20645477 70 18412821370266634447
20653091 64 18340209592224057768
20711985 344 17190961349717944582
20715346 28 18113905970148941019
20871998 22 17983858878800754478
23552423 10 18410292497432451779
3248919 1 18412535509948634985
7364860 26 18342175553342571796
81228 2 17405712480608362194
81539 233 18335136540152632340

>  <PUBCHEM_SHAPE_MULTIPOLES>  (1) 
194.94
5.65
2.03
0.7
4.05
0.21
0
-0.72
-0.24
-2.22
-0.1
0.07
0.03
0.47

>  <PUBCHEM_SHAPE_SELFOVERLAP>  (1) 
354.202

>  <PUBCHEM_SHAPE_VOLUME>  (1) 
126.6

>  <PUBCHEM_COORDINATE_TYPE>  (1) 
2
5
10

$$$$
