18695
     RDKit          3D

 20 21  0  0  0  0  0  0  0  0999 V2000
   -1.1349    2.2348   -0.8239 O   0  0  0  0  0  0  0  0  0  0  0  0
    1.1506    2.2326    0.8250 O   0  0  0  0  0  0  0  0  0  0  0  0
   -1.3899    0.1875    0.3504 N   0  0  0  0  0  0  0  0  0  0  0  0
    1.3847    0.1898   -0.3514 N   0  0  0  0  0  0  0  0  0  0  0  0
   -2.7440   -0.1248    0.2272 C   0  0  0  0  0  0  0  0  0  0  0  0
    2.7567   -0.1285   -0.2263 C   0  0  0  0  0  0  0  0  0  0  0  0
   -5.4518   -0.7494   -0.0187 C   0  0  0  0  0  0  0  0  0  0  0  0
    5.4453   -0.7523    0.0186 C   0  0  0  0  0  0  0  0  0  0  0  0
   -3.2490   -1.2831    0.8180 C   0  0  0  0  0  0  0  0  0  0  0  0
    3.2421   -1.2832   -0.8185 C   0  0  0  0  0  0  0  0  0  0  0  0
   -3.5929    0.7212   -0.4865 C   0  0  0  0  0  0  0  0  0  0  0  0
    3.5881    0.7207    0.4860 C   0  0  0  0  0  0  0  0  0  0  0  0
   -4.6030   -1.5954    0.6950 C   0  0  0  0  0  0  0  0  0  0  0  0
    4.5956   -1.5971   -0.6952 C   0  0  0  0  0  0  0  0  0  0  0  0
   -4.9468    0.4088   -0.6095 C   0  0  0  0  0  0  0  0  0  0  0  0
    4.9416    0.4066    0.6093 C   0  0  0  0  0  0  0  0  0  0  0  0
   -0.7235    1.2913   -0.1696 C   0  0  0  0  0  0  0  0  0  0  0  0
    0.7380    1.2901    0.1700 C   0  0  0  0  0  0  0  0  0  0  0  0
   -6.8993   -1.0825   -0.1501 C   0  0  0  0  0  0  0  0  0  0  0  0
    6.8924   -1.0871    0.1504 C   0  0  0  0  0  0  0  0  0  0  0  0
  1 17  2  0
  2 18  2  0
  3  5  1  0
  3 17  1  0
  4  6  1  0
  4 18  1  0
  5  9  2  0
  5 11  1  0
  6 10  2  0
  6 12  1  0
  7 13  2  0
  7 15  1  0
  7 19  1  0
  8 14  2  0
  8 16  1  0
  8 20  1  0
  9 13  1  0
 10 14  1  0
 11 15  2  0
 12 16  2  0
 17 18  1  0
M  END
>  <PUBCHEM_COMPOUND_CID>  (1) 
18695

>  <PUBCHEM_CONFORMER_RMSD>  (1) 
0.8

>  <PUBCHEM_CONFORMER_DIVERSEORDER>  (1) 
1
3
2

>  <PUBCHEM_MMFF94_PARTIAL_CHARGES>  (1) 
30
1 -0.57
10 -0.15
11 -0.15
12 -0.15
13 -0.15
14 -0.15
15 -0.15
16 -0.15
17 0.63
18 0.63
19 0.14
2 -0.57
20 0.14
21 0.15
22 0.15
23 0.15
24 0.15
25 0.15
26 0.15
27 0.15
28 0.15
29 0.37
3 -0.55
30 0.37
4 -0.55
5 0.12
6 0.12
7 -0.14
8 -0.14
9 -0.15

>  <PUBCHEM_EFFECTIVE_ROTOR_COUNT>  (1) 
5

>  <PUBCHEM_PHARMACOPHORE_FEATURES>  (1) 
6
1 1 acceptor
1 2 acceptor
1 3 donor
1 4 donor
6 5 7 9 11 13 15 rings
6 6 8 10 12 14 16 rings

>  <PUBCHEM_HEAVY_ATOM_COUNT>  (1) 
20

>  <PUBCHEM_ATOM_DEF_STEREO_COUNT>  (1) 
0

>  <PUBCHEM_ATOM_UDEF_STEREO_COUNT>  (1) 
0

>  <PUBCHEM_BOND_DEF_STEREO_COUNT>  (1) 
0

>  <PUBCHEM_BOND_UDEF_STEREO_COUNT>  (1) 
0

>  <PUBCHEM_ISOTOPIC_ATOM_COUNT>  (1) 
0

>  <PUBCHEM_COMPONENT_COUNT>  (1) 
1

>  <PUBCHEM_CACTVS_TAUTO_COUNT>  (1) 
3

>  <PUBCHEM_CONFORMER_ID>  (1) 
0000490700000001

>  <PUBCHEM_MMFF94_ENERGY>  (1) 
55.4005

>  <PUBCHEM_FEATURE_SELFOVERLAP>  (1) 
30.452

>  <PUBCHEM_SHAPE_FINGERPRINT>  (1) 
10 15 18341320177058212440
10354089 29 13830132793473230826
106641 1 15985097543925977170
10835480 77 18410003347233827420
11315181 36 18413673513152634009
11796584 16 18040152933043823315
12236239 1 15841548591448106421
12516196 113 18202282506717612368
12596602 18 15626216948562030902
12760667 363 18341614798022499809
13288520 33 18334858316560980237
13402501 40 18410857663447001774
13533116 47 17989205996645254785
13544653 18 18272938214808672593
13685833 64 18410295835096775139
13740256 8 18409732880252189969
13862211 1 18410573985151847402
13964095 4 17603581907550577903
14123256 34 18409738364973218042
1420 363 18342740710846055198
14251752 14 17240754060989562791
14341114 328 14979959176647074407
14386348 63 18410575084663241319
14528608 73 11314309472976179857
14848160 23 18410572885787704818
15183329 4 15791447119346054631
15352361 1 18410577283691609219
17492 89 17976260459142543235
17844677 252 18411987957121219017
18222031 100 17603305943196444436
19141452 34 18200875175295681911
19489759 90 17894348861090550791
19784866 240 18409737265741048177
200 152 18060698372971048497
20281389 69 11239998941195999666
20374829 77 18260266352157228281
20403669 9 18410578378977172895
20645477 70 18410572924373845197
21267235 1 18410860957686365639
21623969 137 18060138726269607742
2215653 11 18409441501819425223
22224240 67 16845285051658824430
23198884 109 14996283613358549255
23402539 116 17822008692295168260
23402655 69 12107504844897576720
23557571 272 18262797363753697284
23559900 14 18189614011595445257
239999 70 18408885148983256250
26918003 58 18343584035947937872
2871803 45 18333732394936825034
293599 30 9007054660772931500
3004659 81 17822009826366994300
314173 85 18340778073736867737
314194 84 18060414720503863326
3421961 26 18342738571752362648
4325135 7 18260270785186178252
465052 167 18272374199766490310
5104073 3 17987232223756403410
5283173 99 18188203200210781645
559249 180 18334856087552003335
59682541 35 18272922844270571346
59755656 215 18113615673025243619
6138700 20 18334575733383026203
636775 8 18199761263444773478
9709674 26 17972039412475388235

>  <PUBCHEM_SHAPE_MULTIPOLES>  (1) 
389.89
17.15
1.85
0.86
0.12
0.48
0
-9.37
0
-0.01
0
0
-0.02
1.2

>  <PUBCHEM_SHAPE_SELFOVERLAP>  (1) 
831.326

>  <PUBCHEM_SHAPE_VOLUME>  (1) 
212.9

>  <PUBCHEM_COORDINATE_TYPE>  (1) 
2
5
10

$$$$
