18691
     RDKit          3D

 14 14  0  0  0  0  0  0  0  0999 V2000
   -2.2743    0.4897   -0.3589 O   0  0  0  0  0  0  0  0  0  0  0  0
   -0.8945   -1.2548   -0.8246 O   0  0  0  0  0  0  0  0  0  0  0  0
   -0.0106    0.7424    0.0576 N   0  0  0  0  0  0  0  0  0  0  0  0
   -3.4008   -0.3775   -0.1798 C   0  0  0  0  0  0  0  0  0  0  0  0
    1.3620    0.2823    0.0482 C   0  0  0  0  0  0  0  0  0  0  0  0
   -3.2374   -1.1484    1.1211 C   0  0  0  0  0  0  0  0  0  0  0  0
   -4.6770    0.4502   -0.1918 C   0  0  0  0  0  0  0  0  0  0  0  0
   -1.0398   -0.1111   -0.3996 C   0  0  0  0  0  0  0  0  0  0  0  0
   -0.3239    2.0947    0.5426 C   0  0  0  0  0  0  0  0  0  0  0  0
    1.5941   -1.0577    0.2099 C   0  0  0  0  0  0  0  0  0  0  0  0
    2.3531    1.2119   -0.1226 C   0  0  0  0  0  0  0  0  0  0  0  0
    2.9165   -1.5013    0.2005 C   0  0  0  0  0  0  0  0  0  0  0  0
    3.6755    0.7681   -0.1320 C   0  0  0  0  0  0  0  0  0  0  0  0
    3.9571   -0.5885    0.0295 C   0  0  0  0  0  0  0  0  0  0  0  0
  1  4  1  0
  1  8  1  0
  2  8  2  0
  3  5  1  0
  3  8  1  0
  3  9  1  0
  4  6  1  0
  4  7  1  0
  5 10  2  0
  5 11  1  0
 10 12  1  0
 11 13  2  0
 12 14  2  0
 13 14  1  0
M  END
>  <PUBCHEM_COMPOUND_CID>  (1) 
18691

>  <PUBCHEM_CONFORMER_RMSD>  (1) 
0.6

>  <PUBCHEM_CONFORMER_DIVERSEORDER>  (1) 
1
33
19
34
24
2
6
14
21
29
26
12
30
15
32
5
16
17
4
27
28
8
9
31
3
23
25
35
11
18
7
36
10
20
22
13

>  <PUBCHEM_MMFF94_PARTIAL_CHARGES>  (1) 
17
1 -0.43
10 -0.15
11 -0.15
12 -0.15
13 -0.15
14 -0.15
2 -0.57
25 0.15
26 0.15
27 0.15
28 0.15
29 0.15
3 -0.48
4 0.28
5 0.12
8 0.78
9 0.3

>  <PUBCHEM_EFFECTIVE_ROTOR_COUNT>  (1) 
4

>  <PUBCHEM_PHARMACOPHORE_FEATURES>  (1) 
3
1 2 acceptor
3 4 6 7 hydrophobe
6 5 10 11 12 13 14 rings

>  <PUBCHEM_HEAVY_ATOM_COUNT>  (1) 
14

>  <PUBCHEM_ATOM_DEF_STEREO_COUNT>  (1) 
0

>  <PUBCHEM_ATOM_UDEF_STEREO_COUNT>  (1) 
0

>  <PUBCHEM_BOND_DEF_STEREO_COUNT>  (1) 
0

>  <PUBCHEM_BOND_UDEF_STEREO_COUNT>  (1) 
0

>  <PUBCHEM_ISOTOPIC_ATOM_COUNT>  (1) 
0

>  <PUBCHEM_COMPONENT_COUNT>  (1) 
1

>  <PUBCHEM_CACTVS_TAUTO_COUNT>  (1) 
1

>  <PUBCHEM_CONFORMER_ID>  (1) 
0000490300000001

>  <PUBCHEM_MMFF94_ENERGY>  (1) 
49.784

>  <PUBCHEM_FEATURE_SELFOVERLAP>  (1) 
15.223

>  <PUBCHEM_SHAPE_FINGERPRINT>  (1) 
10130415 120 18413105052428994313
10219947 1 18202848755342976071
10618630 7 18411699868126357484
11471102 20 18410289220477750684
11543360 7 16443357502103681190
12032990 46 18410016537156780470
124424 183 18410009936366929557
13221675 6 18342176674181459966
13296908 3 18335138704351867251
14115302 16 17967824855071898078
14144814 61 18272934916310446240
14252887 29 18060147535041705766
14993402 34 17989204867316418125
15309172 13 18060425728742666511
15375358 24 18334011696491291819
15375462 189 18341048605126306842
16945 1 18272079501075955420
17834072 33 18341046415209937639
17834074 16 18186804711814659939
17844478 74 18113335314575908397
18186145 218 17603298254397732847
19422 9 18410579478441003057
200 152 18341610404012480123
20201158 50 18260831492269995483
20279233 1 18113058242246767571
20281407 28 18334016111691051465
20645477 70 18411695452795002143
21267235 1 18412270506187543038
22485316 2 18335417984753328907
23402539 116 17989197144743771476
23402655 69 18410571781944128276
23463225 33 18413388717807312446
23557571 272 16950275183232008612
23559900 14 18186800262518555226
25610 137 18408890650330129024
265663 24 11815896743097381829
26918003 58 18260263044948079522
2748010 2 17768810866895777102
3312278 4 18335423460773146043
5104073 3 18408885156818785155
522135 26 18409445873420918694
537710 114 18412547625882857716
77779 3 18260831505444703191
8809292 202 18113904878895276595

>  <PUBCHEM_SHAPE_MULTIPOLES>  (1) 
271.39
7.95
1.63
0.78
3.69
0.29
-0.08
-0.97
-0.07
-0.47
-0.24
0.36
-0.1
0.13

>  <PUBCHEM_SHAPE_SELFOVERLAP>  (1) 
552.499

>  <PUBCHEM_SHAPE_VOLUME>  (1) 
158.3

>  <PUBCHEM_COORDINATE_TYPE>  (1) 
2
5
10

$$$$
