18692
     RDKit          3D

  9  8  0  0  0  0  0  0  0  0999 V2000
    2.2204    1.8900   -0.0478 Br  0  0  0  0  0  0  0  0  0  0  0  0
   -2.0786    2.0486    0.0420 Br  0  0  0  0  0  0  0  0  0  0  0  0
    1.6672   -1.8453    0.0751 O   0  0  0  0  0  0  0  0  0  0  0  0
   -1.7910   -1.7530   -0.0798 O   0  0  0  0  0  0  0  0  0  0  0  0
   -0.0021   -0.0438    0.0012 C   0  0  0  0  0  0  0  0  0  0  0  0
    0.8863   -0.9704    0.8818 C   0  0  0  0  0  0  0  0  0  0  0  0
   -0.9516   -0.9189   -0.8711 C   0  0  0  0  0  0  0  0  0  0  0  0
    0.9103    0.7653   -0.9520 C   0  0  0  0  0  0  0  0  0  0  0  0
   -0.8610    0.8276    0.9506 C   0  0  0  0  0  0  0  0  0  0  0  0
  1  8  1  0
  2  9  1  0
  3  6  1  0
  4  7  1  0
  5  6  1  0
  5  7  1  0
  5  8  1  0
  5  9  1  0
M  END
>  <PUBCHEM_COMPOUND_CID>  (1) 
18692

>  <PUBCHEM_CONFORMER_RMSD>  (1) 
0.6

>  <PUBCHEM_CONFORMER_DIVERSEORDER>  (1) 
1
10
24
37
3
11
39
18
22
2
26
4
30
35
27
16
7
31
8
38
17
33
6
40
25
5
15
20
34
36
13
29
28
19
14
32
23
12
9
21

>  <PUBCHEM_MMFF94_PARTIAL_CHARGES>  (1) 
10
1 -0.23
18 0.4
19 0.4
2 -0.23
3 -0.68
4 -0.68
6 0.28
7 0.28
8 0.23
9 0.23

>  <PUBCHEM_EFFECTIVE_ROTOR_COUNT>  (1) 
4

>  <PUBCHEM_PHARMACOPHORE_FEATURES>  (1) 
6
1 1 hydrophobe
1 2 hydrophobe
1 3 acceptor
1 3 donor
1 4 acceptor
1 4 donor

>  <PUBCHEM_HEAVY_ATOM_COUNT>  (1) 
9

>  <PUBCHEM_ATOM_DEF_STEREO_COUNT>  (1) 
0

>  <PUBCHEM_ATOM_UDEF_STEREO_COUNT>  (1) 
0

>  <PUBCHEM_BOND_DEF_STEREO_COUNT>  (1) 
0

>  <PUBCHEM_BOND_UDEF_STEREO_COUNT>  (1) 
0

>  <PUBCHEM_ISOTOPIC_ATOM_COUNT>  (1) 
0

>  <PUBCHEM_COMPONENT_COUNT>  (1) 
1

>  <PUBCHEM_CACTVS_TAUTO_COUNT>  (1) 
1

>  <PUBCHEM_CONFORMER_ID>  (1) 
0000490400000001

>  <PUBCHEM_MMFF94_ENERGY>  (1) 
25.1486

>  <PUBCHEM_FEATURE_SELFOVERLAP>  (1) 
30.446

>  <PUBCHEM_SHAPE_FINGERPRINT>  (1) 
10219947 1 17617943534758412169
12423570 1 12820433587158080120
137420 1 15451222792743005426
14993402 34 17979073782193835532
15219459 52 18195525887537389109
21040471 1 18270400469147193121
22082395 3 17617377719966930216
29004967 10 16910620428845652830
5084963 1 17904808557802147220
68250623 7 18410300198171624486

>  <PUBCHEM_SHAPE_MULTIPOLES>  (1) 
185.36
2.79
2.54
1
0.05
0.09
0
1.3
-0.01
-0.05
0
0
0
-0.4

>  <PUBCHEM_SHAPE_SELFOVERLAP>  (1) 
315.367

>  <PUBCHEM_SHAPE_VOLUME>  (1) 
128.9

>  <PUBCHEM_COORDINATE_TYPE>  (1) 
2
5
10

$$$$
