187
     RDKit          3D

 10  9  0  0  0  0  0  0  0  0999 V2000
    1.4880   -0.6322    0.0086 O   0  0  0  0  0  0  0  0  0  0  0  0
    2.7234    1.3199   -0.0030 O   0  0  0  0  0  0  0  0  0  0  0  0
   -2.1928   -0.0171   -0.0025 N   0  0  0  0  0  0  0  0  0  0  0  0
   -0.9044   -0.8267    0.0274 C   0  0  0  0  0  0  0  0  0  0  0  0
   -2.2148    0.8556   -1.2492 C   0  0  0  0  0  0  0  0  0  0  0  0
   -3.3853   -0.9624   -0.0238 C   0  0  0  0  0  0  0  0  0  0  0  0
   -2.2666    0.8650    1.2355 C   0  0  0  0  0  0  0  0  0  0  0  0
    0.2808    0.1183    0.0172 C   0  0  0  0  0  0  0  0  0  0  0  0
    2.6437    0.0989   -0.0012 C   0  0  0  0  0  0  0  0  0  0  0  0
    3.8280   -0.8193   -0.0089 C   0  0  0  0  0  0  0  0  0  0  0  0
  1  8  1  0
  1  9  1  0
  2  9  2  0
  3  4  1  0
  3  5  1  0
  3  6  1  0
  3  7  1  0
  4  8  1  0
  9 10  1  0
M  CHG  1   3   1
M  END
>  <PUBCHEM_COMPOUND_CID>  (1) 
187

>  <PUBCHEM_CONFORMER_RMSD>  (1) 
0.6

>  <PUBCHEM_CONFORMER_DIVERSEORDER>  (1) 
1
11
9
5
4
10
8
7
6
3
2

>  <PUBCHEM_MMFF94_PARTIAL_CHARGES>  (1) 
10
1 -0.43
10 0.06
2 -0.57
3 -1.01
4 0.5
5 0.5
6 0.5
7 0.5
8 0.28
9 0.66

>  <PUBCHEM_EFFECTIVE_ROTOR_COUNT>  (1) 
4

>  <PUBCHEM_PHARMACOPHORE_FEATURES>  (1) 
2
1 2 acceptor
1 3 cation

>  <PUBCHEM_HEAVY_ATOM_COUNT>  (1) 
10

>  <PUBCHEM_ATOM_DEF_STEREO_COUNT>  (1) 
0

>  <PUBCHEM_ATOM_UDEF_STEREO_COUNT>  (1) 
0

>  <PUBCHEM_BOND_DEF_STEREO_COUNT>  (1) 
0

>  <PUBCHEM_BOND_UDEF_STEREO_COUNT>  (1) 
0

>  <PUBCHEM_ISOTOPIC_ATOM_COUNT>  (1) 
0

>  <PUBCHEM_COMPONENT_COUNT>  (1) 
1

>  <PUBCHEM_CACTVS_TAUTO_COUNT>  (1) 
1

>  <PUBCHEM_CONFORMER_ID>  (1) 
000000BB00000001

>  <PUBCHEM_MMFF94_ENERGY>  (1) 
26.7784

>  <PUBCHEM_FEATURE_SELFOVERLAP>  (1) 
10.148

>  <PUBCHEM_SHAPE_FINGERPRINT>  (1) 
12162725 195 18202005429956172344
12932764 1 18040152898826178066
14144814 61 18341894061186154498
14325111 11 18411138047638662602
14390081 3 17967807241168203093
15310529 11 17060345097781979727
18186145 218 18411703166835346586
190213 19 18131349700379823314
21028194 46 18334858324644649030
23402539 116 17703781510043434285
3248919 1 18060699472630265398
5084963 1 18334857242370717793
57812782 119 18259697917346057542

>  <PUBCHEM_SHAPE_MULTIPOLES>  (1) 
189.08
6.52
1.17
0.92
3.59
0.09
-0.01
-0.75
-0.02
-0.08
0
-0.76
0.28
-0.01

>  <PUBCHEM_SHAPE_SELFOVERLAP>  (1) 
343.947

>  <PUBCHEM_SHAPE_VOLUME>  (1) 
123.6

>  <PUBCHEM_COORDINATE_TYPE>  (1) 
2
5
10

$$$$
