18705
     RDKit          3D

 13 14  0  0  0  0  0  0  0  0999 V2000
    0.8679    2.2268    0.0014 O   0  0  0  0  0  0  0  0  0  0  0  0
    1.2049   -1.4137   -0.0020 N   0  0  0  0  0  0  0  0  0  0  0  0
   -0.7659   -0.1344   -0.0004 C   0  0  0  0  0  0  0  0  0  0  0  0
    0.6807   -0.1683   -0.0007 C   0  0  0  0  0  0  0  0  0  0  0  0
    1.4356    0.9929    0.0012 C   0  0  0  0  0  0  0  0  0  0  0  0
   -1.4634   -0.1160   -1.2081 C   0  0  0  0  0  0  0  0  0  0  0  0
   -1.4627   -0.1204    1.2077 C   0  0  0  0  0  0  0  0  0  0  0  0
   -2.8580   -0.0834   -1.2078 C   0  0  0  0  0  0  0  0  0  0  0  0
   -2.8573   -0.0880    1.2082 C   0  0  0  0  0  0  0  0  0  0  0  0
    2.8203    0.8674    0.0015 C   0  0  0  0  0  0  0  0  0  0  0  0
   -3.5548   -0.0695    0.0004 C   0  0  0  0  0  0  0  0  0  0  0  0
    3.3983   -0.3973    0.0000 C   0  0  0  0  0  0  0  0  0  0  0  0
    2.5544   -1.4962   -0.0015 C   0  0  0  0  0  0  0  0  0  0  0  0
  1  5  1  0
  2  4  2  0
  2 13  1  0
  3  4  1  0
  3  6  2  0
  3  7  1  0
  4  5  1  0
  5 10  2  0
  6  8  1  0
  7  9  2  0
  8 11  2  0
  9 11  1  0
 10 12  1  0
 12 13  2  0
M  END
>  <PUBCHEM_COMPOUND_CID>  (1) 
18705

>  <PUBCHEM_CONFORMER_RMSD>  (1) 
0.4

>  <PUBCHEM_CONFORMER_DIVERSEORDER>  (1) 
1
2
3

>  <PUBCHEM_MMFF94_PARTIAL_CHARGES>  (1) 
21
1 -0.53
10 -0.15
11 -0.15
12 -0.15
13 0.16
14 0.15
15 0.15
16 0.15
17 0.15
18 0.15
19 0.15
2 -0.62
20 0.15
21 0.15
22 0.45
4 0.31
5 0.08
6 -0.15
7 -0.15
8 -0.15
9 -0.15

>  <PUBCHEM_EFFECTIVE_ROTOR_COUNT>  (1) 
1

>  <PUBCHEM_PHARMACOPHORE_FEATURES>  (1) 
4
1 1 donor
1 2 acceptor
6 2 4 5 10 12 13 rings
6 3 6 7 8 9 11 rings

>  <PUBCHEM_HEAVY_ATOM_COUNT>  (1) 
13

>  <PUBCHEM_ATOM_DEF_STEREO_COUNT>  (1) 
0

>  <PUBCHEM_ATOM_UDEF_STEREO_COUNT>  (1) 
0

>  <PUBCHEM_BOND_DEF_STEREO_COUNT>  (1) 
0

>  <PUBCHEM_BOND_UDEF_STEREO_COUNT>  (1) 
0

>  <PUBCHEM_ISOTOPIC_ATOM_COUNT>  (1) 
0

>  <PUBCHEM_COMPONENT_COUNT>  (1) 
1

>  <PUBCHEM_CACTVS_TAUTO_COUNT>  (1) 
3

>  <PUBCHEM_CONFORMER_ID>  (1) 
0000491100000001

>  <PUBCHEM_MMFF94_ENERGY>  (1) 
40.3166

>  <PUBCHEM_FEATURE_SELFOVERLAP>  (1) 
20.297

>  <PUBCHEM_SHAPE_FINGERPRINT>  (1) 
10219947 1 18412826880482574702
10465860 250 17531231839098424432
11031198 65 18261679258890139324
11471102 20 18408882940663229820
11578080 2 17343182339192800585
12236239 1 17703791422474583723
124424 183 17676193667953972576
12932764 1 17775283863240952169
13538477 17 17418087763057007223
13581323 91 15213016063717195491
14144814 61 18131351903534554819
14993402 34 18060137643573559838
15219456 202 17894631478132864764
15775835 57 17632583763867929081
16945 1 18410856581336237092
17844478 74 17894354367038196733
18175812 5 17748829643652286863
19049666 15 17677603168725030861
19422 9 17775568641052937663
200 152 18271800246623886055
20201158 50 18113336388328398754
20279233 1 17749106694701893347
20645464 45 17530679931294800897
20645477 70 18336818689415963471
21639500 275 18267577082058533524
23559900 14 16877937192971812954
2748010 2 18194956345241815164
474 4 17700398450272890880
528886 8 18412822512506109578
63268167 104 18342454867650221144
77492 1 17703791422527331239

>  <PUBCHEM_SHAPE_MULTIPOLES>  (1) 
256.68
5.73
1.35
1.07
0.57
0.36
0
-0.59
0
-1.18
0
1
-0.05
0

>  <PUBCHEM_SHAPE_SELFOVERLAP>  (1) 
560.338

>  <PUBCHEM_SHAPE_VOLUME>  (1) 
138.4

>  <PUBCHEM_COORDINATE_TYPE>  (1) 
2
5
10

$$$$
