1870
     RDKit          3D

 16 17  0  0  0  0  0  0  0  0999 V2000
    0.0369    0.2242    0.0849 N   0  0  0  0  0  0  0  0  0  0  0  0
   -2.5886    1.8285    0.0234 N   0  0  0  0  0  0  0  0  0  0  0  0
   -1.4378   -1.6644    0.0027 N   0  0  0  0  0  0  0  0  0  0  0  0
   -4.6131    0.8995   -0.0610 N   0  0  0  0  0  0  0  0  0  0  0  0
   -3.8633   -1.4129   -0.0750 N   0  0  0  0  0  0  0  0  0  0  0  0
    3.7880   -0.4661    0.0868 C   0  0  0  0  0  0  0  0  0  0  0  0
    2.4786    0.3306    0.1057 C   0  0  0  0  0  0  0  0  0  0  0  0
    5.0001    0.4662    0.0138 C   0  0  0  0  0  0  0  0  0  0  0  0
    1.2436   -0.5665    0.1123 C   0  0  0  0  0  0  0  0  0  0  0  0
    6.3359   -0.2781   -0.0388 C   0  0  0  0  0  0  0  0  0  0  0  0
   -1.2378   -0.3180    0.0325 C   0  0  0  0  0  0  0  0  0  0  0  0
    7.5388    0.6414   -0.1824 C   0  0  0  0  0  0  0  0  0  0  0  0
   -2.3771    0.4793    0.0075 C   0  0  0  0  0  0  0  0  0  0  0  0
   -3.6487   -0.0756   -0.0451 C   0  0  0  0  0  0  0  0  0  0  0  0
   -3.9428    2.0312   -0.0189 C   0  0  0  0  0  0  0  0  0  0  0  0
   -2.7125   -2.1193   -0.0482 C   0  0  0  0  0  0  0  0  0  0  0  0
  1  9  1  0
  1 11  1  0
  2 13  1  0
  2 15  1  0
  3 11  1  0
  3 16  2  0
  4 14  1  0
  4 15  2  0
  5 14  2  0
  5 16  1  0
  6  7  1  0
  6  8  1  0
  7  9  1  0
  8 10  1  0
 10 12  1  0
 11 13  2  0
 13 14  1  0
M  END
>  <PUBCHEM_COMPOUND_CID>  (1) 
1870

>  <PUBCHEM_CONFORMER_RMSD>  (1) 
0.8

>  <PUBCHEM_CONFORMER_DIVERSEORDER>  (1) 
1
30
27
38
22
52
49
19
57
29
13
35
56
51
4
36
25
10
33
18
9
55
39
14
21
45
20
41
50
53
5
31
32
34
43
44
6
3
42
7
17
12
37
26
8
46
40
48
11
24
23
2
47
54
15
16
28

>  <PUBCHEM_MMFF94_PARTIAL_CHARGES>  (1) 
15
1 -0.87
11 0.41
13 -0.15
14 0.48
15 0.04
16 0.47
2 0.03
27 0.4
3 -0.62
31 0.27
32 0.15
33 0.15
4 -0.57
5 -0.57
9 0.37

>  <PUBCHEM_EFFECTIVE_ROTOR_COUNT>  (1) 
6

>  <PUBCHEM_PHARMACOPHORE_FEATURES>  (1) 
9
1 1 donor
1 12 hydrophobe
1 2 donor
3 1 3 11 cation
3 2 4 15 cation
3 3 5 16 cation
4 6 7 8 10 hydrophobe
5 2 4 13 14 15 rings
6 3 5 11 13 14 16 rings

>  <PUBCHEM_HEAVY_ATOM_COUNT>  (1) 
16

>  <PUBCHEM_ATOM_DEF_STEREO_COUNT>  (1) 
0

>  <PUBCHEM_ATOM_UDEF_STEREO_COUNT>  (1) 
0

>  <PUBCHEM_BOND_DEF_STEREO_COUNT>  (1) 
0

>  <PUBCHEM_BOND_UDEF_STEREO_COUNT>  (1) 
0

>  <PUBCHEM_ISOTOPIC_ATOM_COUNT>  (1) 
0

>  <PUBCHEM_COMPONENT_COUNT>  (1) 
1

>  <PUBCHEM_CACTVS_TAUTO_COUNT>  (1) 
8

>  <PUBCHEM_CONFORMER_ID>  (1) 
0000074E00000001

>  <PUBCHEM_MMFF94_ENERGY>  (1) 
18.9688

>  <PUBCHEM_FEATURE_SELFOVERLAP>  (1) 
45.911

>  <PUBCHEM_SHAPE_FINGERPRINT>  (1) 
10411042 1 18050287265795184143
10680689 15 18410859888313518170
10912923 1 17822004324956974106
11315181 36 18041279958521799174
12091667 2 18408044031051400106
12107183 9 17686330976568609170
12236239 1 18040433292014410106
13167823 11 18334572443554031114
13288520 33 18341612655071436239
14251731 8 18343019991315965224
14508225 48 18196074755163355461
15042514 8 18194403518796115155
15242439 84 17989203746672858272
15501527 16 18412547582764236856
15778101 99 18340772554656549649
16079462 125 17917980690809004912
17834072 33 18335703879831609932
17844677 252 18340774840249070600
19489759 90 18412544318937075994
20281389 69 18187644679006672788
20621476 66 18340775840391167520
20645477 56 18411419488371724969
20645477 70 16916793916675291758
21267235 1 18336550520653812155
21426921 1 18411981394901437343
220451 1 17821446855614177794
2297311 6 18343588464122510544
23081809 10 17894348896135980818
23402539 116 18409163320866268324
23536379 177 18408040702731223194
23559900 14 18272644671469745720
300161 21 18260260837799145298
3004659 81 18336830785167423334
3545911 37 18413671296843832136
4073 2 18113624521549202778
4214541 1 18411136944074751608
42788 4 18410575098455251144
441001 317 18413107255958337160
542803 24 17603868910355881068
559249 180 18409444765799767978
573450 72 18334283263084017410
6327066 14 18043804278591207621
67856867 119 18189902088116400748

>  <PUBCHEM_SHAPE_MULTIPOLES>  (1) 
304.37
15.53
1.75
0.6
31.69
0.09
0
-3.56
0.82
-2.96
0.03
0.09
0
-0.09

>  <PUBCHEM_SHAPE_SELFOVERLAP>  (1) 
625.512

>  <PUBCHEM_SHAPE_VOLUME>  (1) 
171.7

>  <PUBCHEM_COORDINATE_TYPE>  (1) 
2
5
10

$$$$
