18703
     RDKit          3D

 13 13  0  0  1  0  0  0  0  0999 V2000
    4.6830    0.6391   -0.4813 Cl  0  0  0  0  0  0  0  0  0  0  0  0
   -0.9316   -0.6655    0.6366 O   0  0  0  0  0  0  0  0  0  0  0  0
   -3.7802    0.9007   -0.9099 O   0  0  0  0  0  0  0  0  0  0  0  0
   -2.9038    1.0776    1.1763 O   0  0  0  0  0  0  0  0  0  0  0  0
   -1.8708   -0.4420   -0.4139 C   0  0  0  0  0  0  0  0  0  0  0  0
    0.3700   -0.3631    0.3787 C   0  0  0  0  0  0  0  0  0  0  0  0
   -2.5333   -1.7687   -0.7413 C   0  0  0  0  0  0  0  0  0  0  0  0
    0.7282    0.9410    0.0364 C   0  0  0  0  0  0  0  0  0  0  0  0
    1.3457   -1.3571    0.4547 C   0  0  0  0  0  0  0  0  0  0  0  0
   -2.8859    0.5771    0.0592 C   0  0  0  0  0  0  0  0  0  0  0  0
    2.0618    1.2509   -0.2301 C   0  0  0  0  0  0  0  0  0  0  0  0
    2.6794   -1.0470    0.1885 C   0  0  0  0  0  0  0  0  0  0  0  0
    3.0374    0.2569   -0.1540 C   0  0  0  0  0  0  0  0  0  0  0  0
  1 13  1  0
  2  5  1  0
  2  6  1  0
  3 10  1  0
  4 10  2  0
  5  7  1  0
  5 10  1  0
  6  8  2  0
  6  9  1  0
  8 11  1  0
  9 12  2  0
 11 13  2  0
 12 13  1  0
M  END
>  <PUBCHEM_COMPOUND_CID>  (1) 
18703

>  <PUBCHEM_CONFORMER_RMSD>  (1) 
0.6

>  <PUBCHEM_CONFORMER_DIVERSEORDER>  (1) 
1
20
12
19
4
18
5
14
16
7
9
8
2
3
11
10
15
17
6
13

>  <PUBCHEM_MMFF94_PARTIAL_CHARGES>  (1) 
17
1 -0.18
10 0.66
11 -0.15
12 -0.15
13 0.18
18 0.15
19 0.15
2 -0.36
20 0.15
21 0.15
22 0.5
3 -0.65
4 -0.57
5 0.34
6 0.08
8 -0.15
9 -0.15

>  <PUBCHEM_EFFECTIVE_ROTOR_COUNT>  (1) 
3

>  <PUBCHEM_PHARMACOPHORE_FEATURES>  (1) 
5
1 2 acceptor
1 3 acceptor
1 4 acceptor
3 3 4 10 anion
6 6 8 9 11 12 13 rings

>  <PUBCHEM_HEAVY_ATOM_COUNT>  (1) 
13

>  <PUBCHEM_ATOM_DEF_STEREO_COUNT>  (1) 
0

>  <PUBCHEM_ATOM_UDEF_STEREO_COUNT>  (1) 
1

>  <PUBCHEM_BOND_DEF_STEREO_COUNT>  (1) 
0

>  <PUBCHEM_BOND_UDEF_STEREO_COUNT>  (1) 
0

>  <PUBCHEM_ISOTOPIC_ATOM_COUNT>  (1) 
0

>  <PUBCHEM_COMPONENT_COUNT>  (1) 
1

>  <PUBCHEM_CACTVS_TAUTO_COUNT>  (1) 
1

>  <PUBCHEM_CONFORMER_ID>  (1) 
0000490F00000001

>  <PUBCHEM_MMFF94_ENERGY>  (1) 
32.7409

>  <PUBCHEM_FEATURE_SELFOVERLAP>  (1) 
25.437

>  <PUBCHEM_SHAPE_FINGERPRINT>  (1) 
11401426 45 18412259554421624448
11471102 20 18261388914948328492
11543360 7 16558746871199536868
12491281 212 18341057349626850713
12932764 1 18409446998644256489
13214271 11 17458067071010539205
13764800 53 14635416136137739863
14144814 61 18341612585950851081
14325111 11 18409166653460248394
14897335 6 18410006632872479667
14993402 34 17988922266952819892
15775835 57 18334575737302849541
16945 1 18339921511218367482
17844478 74 17313111812959133589
18186145 218 18412830209208992020
19026448 4 16917351463454092538
20645477 70 18189327987815916358
231179 274 17821723918915527556
23402539 116 18411978083866501428
23402655 69 18409159983492290477
23559900 14 18131634500568407066
25 1 18187082841043287474
2748010 2 16609136659696828986
3248919 1 17989202620864087767
528886 8 18408038520260115354
63268167 104 18335981986884073633
74978 22 18272647969693164961
8030462 33 17917985066715956427
93112 12 18272086127677723820

>  <PUBCHEM_SHAPE_MULTIPOLES>  (1) 
251.8
7.27
1.53
0.87
1.62
0.31
-0.02
-1.72
1.44
-0.43
0.05
-0.42
-0.03
-0.57

>  <PUBCHEM_SHAPE_SELFOVERLAP>  (1) 
509.676

>  <PUBCHEM_SHAPE_VOLUME>  (1) 
148.4

>  <PUBCHEM_COORDINATE_TYPE>  (1) 
2
5
10

$$$$
