18707
     RDKit          3D

 26 28  0  0  0  0  0  0  0  0999 V2000
   -0.4716    0.6507    0.4327 O   0  0  0  0  0  0  0  0  0  0  0  0
   -5.9166    1.1328   -0.2757 O   0  0  0  0  0  0  0  0  0  0  0  0
    3.9026    2.2294    0.0750 N   0  0  0  0  0  0  0  0  0  0  0  0
    1.5213   -0.6255    0.4099 N   0  0  0  0  0  0  0  0  0  0  0  0
   -0.3921   -1.6162   -0.1356 N   0  0  0  0  0  0  0  0  0  0  0  0
    3.0056    1.1743   -0.3794 C   0  0  0  0  0  0  0  0  0  0  0  0
    2.4374    0.4158    0.8166 C   0  0  0  0  0  0  0  0  0  0  0  0
    1.8504   -1.9263    0.1265 C   0  0  0  0  0  0  0  0  0  0  0  0
    4.9838    1.6723    0.8900 C   0  0  0  0  0  0  0  0  0  0  0  0
    4.4539    2.9643   -1.0651 C   0  0  0  0  0  0  0  0  0  0  0  0
    0.1717   -0.4896    0.2390 C   0  0  0  0  0  0  0  0  0  0  0  0
    0.6392   -2.5239   -0.2111 C   0  0  0  0  0  0  0  0  0  0  0  0
    3.0664   -2.6105    0.1362 C   0  0  0  0  0  0  0  0  0  0  0  0
    5.8888    2.7690    1.4253 C   0  0  0  0  0  0  0  0  0  0  0  0
    3.3486    3.5520   -1.9259 C   0  0  0  0  0  0  0  0  0  0  0  0
    0.6213   -3.8843   -0.5625 C   0  0  0  0  0  0  0  0  0  0  0  0
    3.0301   -3.9636   -0.2164 C   0  0  0  0  0  0  0  0  0  0  0  0
    1.8303   -4.5910   -0.5597 C   0  0  0  0  0  0  0  0  0  0  0  0
   -1.8409    0.7721    0.2545 C   0  0  0  0  0  0  0  0  0  0  0  0
   -2.6816    0.5345    1.3257 C   0  0  0  0  0  0  0  0  0  0  0  0
   -2.3281    1.1272   -0.9896 C   0  0  0  0  0  0  0  0  0  0  0  0
   -4.0596    0.6565    1.1465 C   0  0  0  0  0  0  0  0  0  0  0  0
   -3.7060    1.2493   -1.1688 C   0  0  0  0  0  0  0  0  0  0  0  0
   -4.5718    1.0140   -0.1008 C   0  0  0  0  0  0  0  0  0  0  0  0
   -6.7518    0.3060    0.5330 C   0  0  0  0  0  0  0  0  0  0  0  0
   -8.0311    0.0105   -0.2204 C   0  0  0  0  0  0  0  0  0  0  0  0
  1 11  1  0
  1 19  1  0
  2 24  1  0
  2 25  1  0
  3  6  1  0
  3  9  1  0
  3 10  1  0
  4  7  1  0
  4  8  1  0
  4 11  1  0
  5 11  2  0
  5 12  1  0
  6  7  1  0
  8 12  2  0
  8 13  1  0
  9 14  1  0
 10 15  1  0
 12 16  1  0
 13 17  2  0
 16 18  2  0
 17 18  1  0
 19 20  2  0
 19 21  1  0
 20 22  1  0
 21 23  2  0
 22 24  2  0
 23 24  1  0
 25 26  1  0
M  END
>  <PUBCHEM_COMPOUND_CID>  (1) 
18707

>  <PUBCHEM_CONFORMER_RMSD>  (1) 
1

>  <PUBCHEM_CONFORMER_DIVERSEORDER>  (1) 
1
41
38
12
45
20
39
31
28
36
23
22
48
16
37
32
11
6
40
10
26
9
17
46
34
19
24
2
49
13
14
43
3
18
15
7
30
35
44
5
8
21
4
27
42
29
25
33
47

>  <PUBCHEM_MMFF94_PARTIAL_CHARGES>  (1) 
31
1 -0.15
10 0.27
11 0.25
12 0.23
13 -0.15
16 -0.15
17 -0.15
18 -0.15
19 0.08
2 -0.36
20 -0.15
21 -0.15
22 -0.15
23 -0.15
24 0.08
25 0.28
3 -0.81
35 0.15
4 0.05
42 0.15
43 0.15
44 0.15
45 0.15
46 0.15
47 0.15
48 0.15
5 -0.57
6 0.27
7 0.26
8 -0.15
9 0.27

>  <PUBCHEM_EFFECTIVE_ROTOR_COUNT>  (1) 
9

>  <PUBCHEM_PHARMACOPHORE_FEATURES>  (1) 
6
1 2 acceptor
1 3 cation
3 4 5 11 cation
5 4 5 8 11 12 rings
6 19 20 21 22 23 24 rings
6 8 12 13 16 17 18 rings

>  <PUBCHEM_HEAVY_ATOM_COUNT>  (1) 
26

>  <PUBCHEM_ATOM_DEF_STEREO_COUNT>  (1) 
0

>  <PUBCHEM_ATOM_UDEF_STEREO_COUNT>  (1) 
0

>  <PUBCHEM_BOND_DEF_STEREO_COUNT>  (1) 
0

>  <PUBCHEM_BOND_UDEF_STEREO_COUNT>  (1) 
0

>  <PUBCHEM_ISOTOPIC_ATOM_COUNT>  (1) 
0

>  <PUBCHEM_COMPONENT_COUNT>  (1) 
1

>  <PUBCHEM_CACTVS_TAUTO_COUNT>  (1) 
1

>  <PUBCHEM_CONFORMER_ID>  (1) 
0000491300000001

>  <PUBCHEM_MMFF94_ENERGY>  (1) 
61.7169

>  <PUBCHEM_FEATURE_SELFOVERLAP>  (1) 
30.553

>  <PUBCHEM_SHAPE_FINGERPRINT>  (1) 
10165383 225 18340485659747901992
10411042 1 17835802989601538650
10835480 77 18335413531774751917
11014199 57 17907018374453094692
11045515 52 17544765530050851654
11719270 70 18411133653765812864
12730499 353 18411705382827526867
12788726 201 17472141047901572126
13533116 47 18201154361392096243
13583140 156 16589404519456882448
13911987 19 18266193892152239277
13955234 65 18339925905017819658
14294032 229 18051140477457646978
14790565 3 18050010196731414303
17844677 252 18267590092311032009
17913733 40 18341342170493907163
17980427 23 17387133267997732039
1813 80 17626674795318203566
18785283 64 18335983069485078262
19319366 153 18273490182541046751
19427546 62 18408605885234545835
1979834 28 18260553328766168468
20554085 129 17845638353150122856
20645477 70 18336544894172795035
21049683 271 18264776446498324390
22149856 69 18339939155993897241
23559900 14 18041854895681815147
23845131 108 18338794632001648059
239999 70 18261672558968413731
249999 5 18412260602077491138
46194498 28 18261954025286176287
513202 73 11171281642019482376
5385378 56 18411981343440925464
57634706 280 17702651314847796280
6025842 7 18412263904627643231
6669772 16 18343589551509080646
7399639 24 18260820458905155149

>  <PUBCHEM_SHAPE_MULTIPOLES>  (1) 
508.39
14.67
5.25
1.22
25.82
5.75
-0.12
-12.14
1.58
-10.57
-1.83
-0.66
-1.05
0.19

>  <PUBCHEM_SHAPE_SELFOVERLAP>  (1) 
1075.558

>  <PUBCHEM_SHAPE_VOLUME>  (1) 
288.3

>  <PUBCHEM_COORDINATE_TYPE>  (1) 
2
5
10

$$$$
