18704
     RDKit          3D

 14 14  0  0  1  0  0  0  0  0999 V2000
   -2.4991    2.5238    0.2968 Cl  0  0  0  0  0  0  0  0  0  0  0  0
   -4.5530    0.0231    0.3435 Cl  0  0  0  0  0  0  0  0  0  0  0  0
    1.1896   -0.8341   -0.5763 O   0  0  0  0  0  0  0  0  0  0  0  0
    3.8673    1.1268    0.8185 O   0  0  0  0  0  0  0  0  0  0  0  0
    3.0151    1.0070   -1.2818 O   0  0  0  0  0  0  0  0  0  0  0  0
    2.0881   -0.4210    0.4522 C   0  0  0  0  0  0  0  0  0  0  0  0
   -0.1373   -0.6201   -0.3623 C   0  0  0  0  0  0  0  0  0  0  0  0
    2.8558   -1.6436    0.9239 C   0  0  0  0  0  0  0  0  0  0  0  0
   -0.6122    0.6762   -0.1631 C   0  0  0  0  0  0  0  0  0  0  0  0
   -1.0225   -1.6979   -0.3423 C   0  0  0  0  0  0  0  0  0  0  0  0
    3.0206    0.6270   -0.1181 C   0  0  0  0  0  0  0  0  0  0  0  0
   -1.9723    0.8949    0.0560 C   0  0  0  0  0  0  0  0  0  0  0  0
   -2.3827   -1.4792   -0.1230 C   0  0  0  0  0  0  0  0  0  0  0  0
   -2.8575   -0.1829    0.0760 C   0  0  0  0  0  0  0  0  0  0  0  0
  1 12  1  0
  2 14  1  0
  3  6  1  0
  3  7  1  0
  4 11  1  0
  5 11  2  0
  6  8  1  0
  6 11  1  0
  7  9  2  0
  7 10  1  0
  9 12  1  0
 10 13  2  0
 12 14  2  0
 13 14  1  0
M  END
>  <PUBCHEM_COMPOUND_CID>  (1) 
18704

>  <PUBCHEM_CONFORMER_RMSD>  (1) 
0.6

>  <PUBCHEM_CONFORMER_DIVERSEORDER>  (1) 
1
8
40
26
10
39
18
34
36
32
31
16
5
24
4
35
41
17
25
22
33
30
6
21
42
12
3
13
14
28
7
27
9
20
29
11
15
23
2
37
19
38

>  <PUBCHEM_MMFF94_PARTIAL_CHARGES>  (1) 
17
1 -0.18
10 -0.15
11 0.66
12 0.18
13 -0.15
14 0.18
19 0.15
2 -0.18
20 0.15
21 0.15
22 0.5
3 -0.36
4 -0.65
5 -0.57
6 0.34
7 0.08
9 -0.15

>  <PUBCHEM_EFFECTIVE_ROTOR_COUNT>  (1) 
3

>  <PUBCHEM_PHARMACOPHORE_FEATURES>  (1) 
5
1 3 acceptor
1 4 acceptor
1 5 acceptor
3 4 5 11 anion
6 7 9 10 12 13 14 rings

>  <PUBCHEM_HEAVY_ATOM_COUNT>  (1) 
14

>  <PUBCHEM_ATOM_DEF_STEREO_COUNT>  (1) 
0

>  <PUBCHEM_ATOM_UDEF_STEREO_COUNT>  (1) 
1

>  <PUBCHEM_BOND_DEF_STEREO_COUNT>  (1) 
0

>  <PUBCHEM_BOND_UDEF_STEREO_COUNT>  (1) 
0

>  <PUBCHEM_ISOTOPIC_ATOM_COUNT>  (1) 
0

>  <PUBCHEM_COMPONENT_COUNT>  (1) 
1

>  <PUBCHEM_CACTVS_TAUTO_COUNT>  (1) 
1

>  <PUBCHEM_CONFORMER_ID>  (1) 
0000491000000001

>  <PUBCHEM_MMFF94_ENERGY>  (1) 
35.0949

>  <PUBCHEM_FEATURE_SELFOVERLAP>  (1) 
25.437

>  <PUBCHEM_SHAPE_FINGERPRINT>  (1) 
10608611 8 18271524208595750080
11132069 177 18271809063817094277
12162725 195 18337389344508473875
12251169 10 18335415738522440858
12932764 1 17703501164342682214
14144814 61 18411136922225251920
14325111 11 18339360768909849673
15442244 35 18264765455075419122
15669948 3 18343016735314367935
15775835 57 18413388760909979242
16945 1 18343861126132414863
17846911 113 18342737425217055777
18186145 218 18263366893158594341
19050596 39 18334289907276929434
20510252 161 18272935986179575729
20528008 55 18412541024723579143
20559304 39 18408039598423442072
21501502 16 18338233769380577018
21524375 3 18125153832377900101
21652331 79 18412262856602966561
22445834 79 17969494918560846538
2255824 54 17894633622023594386
23048698 100 17749108880871720027
23402539 116 18342447150237464839
23463225 33 18335417924444464622
23557571 272 17773040971337190446
23559900 14 18271813388881096174
2748010 2 17980211786004353063
474 4 17604439629546880340
5374978 207 18409445873695147563
537710 114 18410298033977735709
7097593 13 18045207246442318866
7364860 26 18342175519215520214

>  <PUBCHEM_SHAPE_MULTIPOLES>  (1) 
274.25
7.2
2.03
0.86
0.73
0.52
-0.03
1.41
1.21
-0.59
0.13
0.54
0.02
-0.55

>  <PUBCHEM_SHAPE_SELFOVERLAP>  (1) 
548.998

>  <PUBCHEM_SHAPE_VOLUME>  (1) 
164.1

>  <PUBCHEM_COORDINATE_TYPE>  (1) 
2
5
10

$$$$
