18717
     RDKit          3D

 21 23  0  0  1  0  0  0  0  0999 V2000
   -2.2321   -0.7112    1.0643 N   0  0  0  0  0  0  0  0  0  0  0  0
    4.9783    1.2933    0.2221 N   0  0  0  0  0  0  0  0  0  0  0  0
    0.1334    0.4860   -0.6121 C   0  0  0  0  0  0  0  0  0  0  0  0
    1.1713    1.1962    0.2729 C   0  0  0  0  0  0  0  0  0  0  0  0
    0.3139   -1.0217   -0.5722 C   0  0  0  0  0  0  0  0  0  0  0  0
   -1.2757    1.0579   -0.4051 C   0  0  0  0  0  0  0  0  0  0  0  0
   -0.1582   -1.8047    0.4912 C   0  0  0  0  0  0  0  0  0  0  0  0
   -2.3333    0.4820    0.3491 C   0  0  0  0  0  0  0  0  0  0  0  0
   -0.9571   -1.1726    1.5905 C   0  0  0  0  0  0  0  0  0  0  0  0
    2.5881    0.8546   -0.1733 C   0  0  0  0  0  0  0  0  0  0  0  0
    1.0289   -1.6532   -1.6074 C   0  0  0  0  0  0  0  0  0  0  0  0
   -1.5000    2.2931   -1.0731 C   0  0  0  0  0  0  0  0  0  0  0  0
    3.6396    1.5889    0.6519 C   0  0  0  0  0  0  0  0  0  0  0  0
    0.0736   -3.1897    0.4989 C   0  0  0  0  0  0  0  0  0  0  0  0
   -3.5674    1.1861    0.3561 C   0  0  0  0  0  0  0  0  0  0  0  0
   -3.4233   -1.4647    1.4458 C   0  0  0  0  0  0  0  0  0  0  0  0
    1.2567   -3.0293   -1.5914 C   0  0  0  0  0  0  0  0  0  0  0  0
   -2.7229    2.9524   -1.0316 C   0  0  0  0  0  0  0  0  0  0  0  0
    0.7788   -3.7982   -0.5370 C   0  0  0  0  0  0  0  0  0  0  0  0
   -3.7628    2.3938   -0.3163 C   0  0  0  0  0  0  0  0  0  0  0  0
    5.9703    2.0610    0.9767 C   0  0  0  0  0  0  0  0  0  0  0  0
  1  8  1  0
  1  9  1  0
  1 16  1  0
  2 13  1  0
  2 21  1  0
  3  4  1  0
  3  5  1  0
  3  6  1  0
  4 10  1  0
  5  7  2  0
  5 11  1  0
  6  8  2  0
  6 12  1  0
  7  9  1  0
  7 14  1  0
  8 15  1  0
 10 13  1  0
 11 17  2  0
 12 18  2  0
 14 19  2  0
 15 20  2  0
 17 19  1  0
 18 20  1  0
M  END
>  <PUBCHEM_COMPOUND_CID>  (1) 
18717

>  <PUBCHEM_CONFORMER_RMSD>  (1) 
0.8

>  <PUBCHEM_CONFORMER_DIVERSEORDER>  (1) 
1
3
11
14
6
5
10
12
16
8
13
7
2
4
9
15

>  <PUBCHEM_MMFF94_PARTIAL_CHARGES>  (1) 
28
1 -0.84
11 -0.15
12 -0.15
13 0.27
14 -0.15
15 -0.15
16 0.37
17 -0.15
18 -0.15
19 -0.15
2 -0.9
20 -0.15
21 0.27
29 0.15
3 0.29
30 0.15
33 0.15
34 0.15
38 0.15
39 0.15
40 0.15
41 0.15
42 0.36
5 -0.14
6 -0.14
7 -0.14
8 0.1
9 0.51

>  <PUBCHEM_EFFECTIVE_ROTOR_COUNT>  (1) 
4.6

>  <PUBCHEM_PHARMACOPHORE_FEATURES>  (1) 
6
1 1 cation
1 2 cation
1 2 donor
6 5 7 11 14 17 19 rings
6 6 8 12 15 18 20 rings
7 1 3 5 6 7 8 9 rings

>  <PUBCHEM_HEAVY_ATOM_COUNT>  (1) 
21

>  <PUBCHEM_ATOM_DEF_STEREO_COUNT>  (1) 
0

>  <PUBCHEM_ATOM_UDEF_STEREO_COUNT>  (1) 
1

>  <PUBCHEM_BOND_DEF_STEREO_COUNT>  (1) 
0

>  <PUBCHEM_BOND_UDEF_STEREO_COUNT>  (1) 
0

>  <PUBCHEM_ISOTOPIC_ATOM_COUNT>  (1) 
0

>  <PUBCHEM_COMPONENT_COUNT>  (1) 
1

>  <PUBCHEM_CACTVS_TAUTO_COUNT>  (1) 
1

>  <PUBCHEM_CONFORMER_ID>  (1) 
0000491D00000001

>  <PUBCHEM_MMFF94_ENERGY>  (1) 
73.8476

>  <PUBCHEM_FEATURE_SELFOVERLAP>  (1) 
30.461

>  <PUBCHEM_SHAPE_FINGERPRINT>  (1) 
10764073 3 17318148547177753946
10906281 52 18042990820559219865
1100329 8 16755223736353003048
11578080 2 18200046036291073193
12788726 201 17979608428814429582
13004483 165 17477191095843583206
13140716 1 18264211318046580346
13681431 1 17554605089466764502
15042514 8 18048600618456246546
15230672 131 18408325463859400078
16945 1 18118131504597588403
17980427 23 17749393714692581773
17980427 26 17684626759241844917
18915476 22 18058457516770885383
20775438 99 18264188242285058383
21033648 29 18201423827377367568
21524375 3 18341324574034084716
22182313 1 18042422239961617937
23402539 116 18193836166247475155
23419403 2 17984452696272312006
23559900 14 18044393633522672270
23598288 3 18044375169943783980
23728640 28 18266448992271965658
2748010 2 18117585997012953259
3298306 158 18340772542541631878
3380486 77 16372431374667105595
5265222 85 18265345074683087844
532947 4 18198906920843921102
59554788 281 16878232995748160673
7364860 26 18051409569969530453
81228 2 17550363568664570650
9862522 239 18339354262308696434
9981440 41 18410849936805981705

>  <PUBCHEM_SHAPE_MULTIPOLES>  (1) 
422.21
7.39
4.39
1.4
9.1
2.82
0.06
-8.94
-2.62
0.81
1.01
-0.17
0.59
2.59

>  <PUBCHEM_SHAPE_SELFOVERLAP>  (1) 
895.203

>  <PUBCHEM_SHAPE_VOLUME>  (1) 
232.7

>  <PUBCHEM_COORDINATE_TYPE>  (1) 
2
5
10

$$$$
