18711
     RDKit          3D

 21 21  0  0  0  0  0  0  0  0999 V2000
    6.6345   -2.3806    0.2612 Cl  0  0  0  0  0  0  0  0  0  0  0  0
   -3.6661   -1.0378    0.4395 P   0  0  0  0  0  0  0  0  0  0  0  0
    0.9943    1.0614    0.1252 O   0  0  0  0  0  0  0  0  0  0  0  0
   -3.5829    0.5585    0.5819 O   0  0  0  0  0  0  0  0  0  0  0  0
   -3.8053   -1.2704   -1.1580 O   0  0  0  0  0  0  0  0  0  0  0  0
   -5.1549   -1.3602    0.9913 O   0  0  0  0  0  0  0  0  0  0  0  0
   -2.5595   -1.8060    1.1040 O   0  0  0  0  0  0  0  0  0  0  0  0
   -0.1315    3.0194   -0.3524 O   0  0  0  0  0  0  0  0  0  0  0  0
    3.3261    0.6409   -0.1739 C   0  0  0  0  0  0  0  0  0  0  0  0
    2.2228    1.6475   -0.3186 C   0  0  0  0  0  0  0  0  0  0  0  0
    3.6170   -0.2181   -1.2278 C   0  0  0  0  0  0  0  0  0  0  0  0
    4.0471    0.5756    1.0131 C   0  0  0  0  0  0  0  0  0  0  0  0
   -2.5118    1.2897    0.1089 C   0  0  0  0  0  0  0  0  0  0  0  0
    4.6421   -1.1543   -1.0930 C   0  0  0  0  0  0  0  0  0  0  0  0
    5.0722   -0.3607    1.1479 C   0  0  0  0  0  0  0  0  0  0  0  0
    5.3698   -1.2256    0.0948 C   0  0  0  0  0  0  0  0  0  0  0  0
   -1.2593    1.0900    0.5475 C   0  0  0  0  0  0  0  0  0  0  0  0
   -0.0997    1.8677    0.0497 C   0  0  0  0  0  0  0  0  0  0  0  0
   -2.8449    2.3205   -0.9260 C   0  0  0  0  0  0  0  0  0  0  0  0
   -4.0582   -2.5829   -1.6286 C   0  0  0  0  0  0  0  0  0  0  0  0
   -6.2519   -0.6745    0.4133 C   0  0  0  0  0  0  0  0  0  0  0  0
  1 16  1  0
  2  4  1  0
  2  5  1  0
  2  6  1  0
  2  7  2  0
  3 10  1  0
  3 18  1  0
  4 13  1  0
  5 20  1  0
  6 21  1  0
  8 18  2  0
  9 10  1  0
  9 11  2  0
  9 12  1  0
 11 14  1  0
 12 15  2  0
 13 17  2  0
 13 19  1  0
 14 16  2  0
 15 16  1  0
 17 18  1  0
M  END
>  <PUBCHEM_COMPOUND_CID>  (1) 
18711

>  <PUBCHEM_CONFORMER_RMSD>  (1) 
1

>  <PUBCHEM_CONFORMER_DIVERSEORDER>  (1) 
14
132
30
198
104
342
478
15
390
459
524
208
330
394
168
522
113
18
153
280
109
137
84
293
130
8
44
146
476
117
425
98
530
106
17
110
207
118
94
133
105
19
99
516
12
541
397
277
154
251
34
67
514
56
298
473
278
433
173
31
201
13
267
371
379
2
143
464
89
127
259
60
204
26
484
39
515
49
138
301
382
27
139
306
38
229
340
419
302
37
65
182
55
275
187
414
3
134
203
32
218
64
29
355
1
527
59
45
393
72
351
4
116
219
202
52
166
11
311
35
281
69
332
102
82
435
451
231
323
152
430
210
417
78
42
100
540
343
236
40
258
50
474
188
48
177

>  <PUBCHEM_MMFF94_PARTIAL_CHARGES>  (1) 
26
1 -0.18
10 0.42
11 -0.15
12 -0.15
13 -0.06
14 -0.15
15 -0.15
16 0.18
17 -0.14
18 0.71
19 0.14
2 1.51
20 0.28
21 0.28
24 0.15
25 0.15
26 0.15
27 0.15
28 0.15
3 -0.43
4 -0.35
5 -0.55
6 -0.55
7 -0.7
8 -0.57
9 -0.14

>  <PUBCHEM_EFFECTIVE_ROTOR_COUNT>  (1) 
8

>  <PUBCHEM_PHARMACOPHORE_FEATURES>  (1) 
3
1 7 acceptor
1 8 acceptor
6 9 11 12 14 15 16 rings

>  <PUBCHEM_HEAVY_ATOM_COUNT>  (1) 
21

>  <PUBCHEM_ATOM_DEF_STEREO_COUNT>  (1) 
0

>  <PUBCHEM_ATOM_UDEF_STEREO_COUNT>  (1) 
0

>  <PUBCHEM_BOND_DEF_STEREO_COUNT>  (1) 
0

>  <PUBCHEM_BOND_UDEF_STEREO_COUNT>  (1) 
1

>  <PUBCHEM_ISOTOPIC_ATOM_COUNT>  (1) 
0

>  <PUBCHEM_COMPONENT_COUNT>  (1) 
1

>  <PUBCHEM_CACTVS_TAUTO_COUNT>  (1) 
1

>  <PUBCHEM_CONFORMER_ID>  (1) 
000049170000000E

>  <PUBCHEM_MMFF94_ENERGY>  (1) 
45.9346

>  <PUBCHEM_FEATURE_SELFOVERLAP>  (1) 
15.223

>  <PUBCHEM_SHAPE_FINGERPRINT>  (1) 
10 15 12175617391072658583
11796584 16 18120372060941045848
11809386 21 18041276560870547360
12760667 363 18410011044357670251
13551218 46 18342745130594431423
1420 369 18411984671665844784
14216079 64 18409732876775134195
14251751 18 18339642248788137290
14251752 14 17676480632442433901
14251764 30 18115034133625414027
14341114 328 14692563326069183376
14347329 18 8502651507092755678
14848178 5 18269826661389860215
14848178 96 8790616891898375692
15188451 53 18202279191029116650
15352361 1 18409171017141753008
15880784 105 17918272073795271474
17780758 139 17917713461326309041
17857418 61 18341612637400878718
19141452 34 18130792295730243743
193927 3 18335148608509593664
20281389 69 11240001140002672258
20403669 9 18410862065819673990
21401589 2 10592043591741318293
21403212 168 18270131094058979993
23402655 69 11746939781035711608
23559900 14 18335978748368605672
25122255 55 18271246019717485590
270888 7 9871747975208294962
3004659 81 17822013112154125784
312425 54 17704353290091349051
316301 35 18412539908449067202
3472631 163 9583226246003206282
351380 3 18334579040032635810
44062 13 18261952955681479669
463206 1 18339644554685103867
5104073 3 18202282468654108320
559249 180 18337673014751750849
5924683 9 17989484147759993335
59682541 52 14201659984037692635
7970288 3 18335140873680149802

>  <PUBCHEM_SHAPE_MULTIPOLES>  (1) 
402.67
15.94
2.9
1.23
5.56
0.21
-0.2
-12.67
1.71
-1.39
-0.7
-0.23
-0.48
-0.08

>  <PUBCHEM_SHAPE_SELFOVERLAP>  (1) 
793.018

>  <PUBCHEM_SHAPE_VOLUME>  (1) 
242.4

>  <PUBCHEM_COORDINATE_TYPE>  (1) 
2
5
10

$$$$
