18719
     RDKit          3D

 18 18  0  0  1  0  0  0  0  0999 V2000
   -3.4231   -0.7050   -0.1911 O   0  0  0  0  0  0  0  0  0  0  0  0
   -1.7985    2.2251   -1.4076 O   0  0  0  0  0  0  0  0  0  0  0  0
   -1.6183    1.0877    0.6162 N   0  0  0  0  0  0  0  0  0  0  0  0
   -1.8111   -2.1460   -1.0380 N   0  0  0  0  0  0  0  0  0  0  0  0
   -2.7453   -3.0177   -1.5587 N   0  0  0  0  0  0  0  0  0  0  0  0
   -0.1779   -0.8832    1.1243 C   0  0  0  0  0  0  0  0  0  0  0  0
   -1.0799   -0.1468    0.1042 C   0  0  0  0  0  0  0  0  0  0  0  0
    1.0133   -0.0160    1.5963 C   0  0  0  0  0  0  0  0  0  0  0  0
   -0.9627   -1.3661    2.3538 C   0  0  0  0  0  0  0  0  0  0  0  0
    2.1631    0.0348    0.6195 C   0  0  0  0  0  0  0  0  0  0  0  0
   -2.2461   -1.0136   -0.3689 C   0  0  0  0  0  0  0  0  0  0  0  0
    3.1738   -0.9093    0.7102 C   0  0  0  0  0  0  0  0  0  0  0  0
    2.1873    1.0243   -0.3508 C   0  0  0  0  0  0  0  0  0  0  0  0
   -1.9329    2.1728   -0.1878 C   0  0  0  0  0  0  0  0  0  0  0  0
    4.2362   -0.8625   -0.1924 C   0  0  0  0  0  0  0  0  0  0  0  0
    3.2498    1.0708   -1.2535 C   0  0  0  0  0  0  0  0  0  0  0  0
    4.2742    0.1274   -1.1743 C   0  0  0  0  0  0  0  0  0  0  0  0
   -2.5018    3.3233    0.5985 C   0  0  0  0  0  0  0  0  0  0  0  0
  1 11  2  0
  2 14  2  0
  3  7  1  0
  3 14  1  0
  4  5  1  0
  4 11  1  0
  6  7  1  0
  6  8  1  0
  6  9  1  0
  7 11  1  0
  8 10  1  0
 10 12  2  0
 10 13  1  0
 12 15  1  0
 13 16  2  0
 14 18  1  0
 15 17  2  0
 16 17  1  0
M  END
>  <PUBCHEM_COMPOUND_CID>  (1) 
18719

>  <PUBCHEM_CONFORMER_RMSD>  (1) 
0.8

>  <PUBCHEM_CONFORMER_DIVERSEORDER>  (1) 
2
137
59
109
77
82
86
35
125
116
123
53
52
128
134
12
74
32
114
54
103
132
127
97
126
115
91
111
122
136
110
75
76
41
90
9
73
121
24
40
67
102
113
7
13
89
81
47
43
5
14
27
45
108
29
63
69
129
46
106
44
36
119
112
87
10
92
42
101
118
124
94
22
39
72
95
3
55
1
66
49
80
98
28
131
133
38
34
16
79
107
78
56
8
62
50
68
57
135
104
130
17
4
85
23
84
96
93
105
26
100
11
64
70
15
21
120
88
31
51
37
117
83
48
99
20
6
18
61
58
33
65
71
19
30
60
25

>  <PUBCHEM_MMFF94_PARTIAL_CHARGES>  (1) 
25
1 -0.57
10 -0.14
11 0.57
12 -0.15
13 -0.15
14 0.57
15 -0.15
16 -0.15
17 -0.15
18 0.06
2 -0.57
26 0.37
27 0.15
28 0.15
29 0.37
3 -0.73
30 0.15
31 0.15
32 0.15
36 0.36
37 0.36
4 -0.42
5 -0.73
7 0.36
8 0.14

>  <PUBCHEM_EFFECTIVE_ROTOR_COUNT>  (1) 
7

>  <PUBCHEM_PHARMACOPHORE_FEATURES>  (1) 
7
1 1 acceptor
1 2 acceptor
1 3 donor
1 4 donor
1 5 donor
1 9 hydrophobe
6 10 12 13 15 16 17 rings

>  <PUBCHEM_HEAVY_ATOM_COUNT>  (1) 
18

>  <PUBCHEM_ATOM_DEF_STEREO_COUNT>  (1) 
0

>  <PUBCHEM_ATOM_UDEF_STEREO_COUNT>  (1) 
2

>  <PUBCHEM_BOND_DEF_STEREO_COUNT>  (1) 
0

>  <PUBCHEM_BOND_UDEF_STEREO_COUNT>  (1) 
0

>  <PUBCHEM_ISOTOPIC_ATOM_COUNT>  (1) 
0

>  <PUBCHEM_COMPONENT_COUNT>  (1) 
1

>  <PUBCHEM_CACTVS_TAUTO_COUNT>  (1) 
4

>  <PUBCHEM_CONFORMER_ID>  (1) 
0000491F00000002

>  <PUBCHEM_MMFF94_ENERGY>  (1) 
41.1318

>  <PUBCHEM_FEATURE_SELFOVERLAP>  (1) 
37.033

>  <PUBCHEM_SHAPE_FINGERPRINT>  (1) 
10062212 137 18190169105958691586
11578080 2 17774717675040777408
12173636 292 18127684938009728189
12202030 40 16844148229312407631
13544592 271 17395854727247221232
14250199 8 17968947503841491532
14251751 93 18116152173261783796
15534591 1 18115316565788767057
15775835 57 17969792886322795164
16752209 62 18267564871972672877
18186145 218 17096071601859611090
18785283 64 17476375906839835153
192875 21 17750213937734778992
20388580 30 17623560257129332719
20449540 30 16807312412296542758
21524375 3 18118123567630264641
22620623 9 17917135161771526133
23382010 3 16663714024898790427
23402539 116 18187078507521558018
23419403 2 16676899385213065773
23557571 272 18126823092417554193
23559900 14 17916860198456008946
23598291 2 17899684674734466154
298252 57 18195808457773088585
3082319 5 18334017198613202310
458136 41 17697323915498845065
57210444 14 17843687651464743957
6438718 38 18336840701165228404
7615 1 17967800631703989360
7832392 63 18188213087742156052
81228 2 18262511610694030801

>  <PUBCHEM_SHAPE_MULTIPOLES>  (1) 
343.75
6.88
2.89
1.68
5.98
0.96
0.35
0.21
-2.42
-4.03
-0.74
-0.38
-0.79
-1.35

>  <PUBCHEM_SHAPE_SELFOVERLAP>  (1) 
695.696

>  <PUBCHEM_SHAPE_VOLUME>  (1) 
200.1

>  <PUBCHEM_COORDINATE_TYPE>  (1) 
2
5
10

$$$$
