18718
     RDKit          3D

 11 11  0  0  0  0  0  0  0  0999 V2000
   -0.3852   -0.8196    0.1709 N   0  0  0  0  0  0  0  0  0  0  0  0
   -5.2331    0.0538    0.1948 N   0  0  0  0  0  0  0  0  0  0  0  0
    0.9227   -0.3584   -0.2905 C   0  0  0  0  0  0  0  0  0  0  0  0
    1.2084    1.0402    0.2673 C   0  0  0  0  0  0  0  0  0  0  0  0
    2.0064   -1.3551    0.1351 C   0  0  0  0  0  0  0  0  0  0  0  0
    2.6014    1.5246   -0.1314 C   0  0  0  0  0  0  0  0  0  0  0  0
    3.3982   -0.8679   -0.2640 C   0  0  0  0  0  0  0  0  0  0  0  0
    3.6826    0.5293    0.2799 C   0  0  0  0  0  0  0  0  0  0  0  0
   -1.4355    0.0873   -0.2662 C   0  0  0  0  0  0  0  0  0  0  0  0
   -2.8208   -0.3812    0.1841 C   0  0  0  0  0  0  0  0  0  0  0  0
   -3.9449    0.5469   -0.2799 C   0  0  0  0  0  0  0  0  0  0  0  0
  1  3  1  0
  1  9  1  0
  2 11  1  0
  3  4  1  0
  3  5  1  0
  4  6  1  0
  5  7  1  0
  6  8  1  0
  7  8  1  0
  9 10  1  0
 10 11  1  0
M  END
>  <PUBCHEM_COMPOUND_CID>  (1) 
18718

>  <PUBCHEM_CONFORMER_RMSD>  (1) 
0.6

>  <PUBCHEM_CONFORMER_DIVERSEORDER>  (1) 
1
15
51
55
36
47
9
12
19
57
3
65
23
61
6
56
50
46
41
60
11
64
45
17
16
31
38
40
20
26
59
39
32
33
42
49
18
21
58
4
62
14
43
52
34
8
30
13
29
63
44
53
48
25
28
35
2
27
37
22
10
5
54
7
24

>  <PUBCHEM_MMFF94_PARTIAL_CHARGES>  (1) 
8
1 -0.9
11 0.27
2 -0.99
23 0.36
3 0.27
30 0.36
31 0.36
9 0.27

>  <PUBCHEM_EFFECTIVE_ROTOR_COUNT>  (1) 
5.2

>  <PUBCHEM_PHARMACOPHORE_FEATURES>  (1) 
5
1 1 cation
1 1 donor
1 2 cation
1 2 donor
6 3 4 5 6 7 8 rings

>  <PUBCHEM_HEAVY_ATOM_COUNT>  (1) 
11

>  <PUBCHEM_ATOM_DEF_STEREO_COUNT>  (1) 
0

>  <PUBCHEM_ATOM_UDEF_STEREO_COUNT>  (1) 
0

>  <PUBCHEM_BOND_DEF_STEREO_COUNT>  (1) 
0

>  <PUBCHEM_BOND_UDEF_STEREO_COUNT>  (1) 
0

>  <PUBCHEM_ISOTOPIC_ATOM_COUNT>  (1) 
0

>  <PUBCHEM_COMPONENT_COUNT>  (1) 
1

>  <PUBCHEM_CACTVS_TAUTO_COUNT>  (1) 
1

>  <PUBCHEM_CONFORMER_ID>  (1) 
0000491E00000001

>  <PUBCHEM_MMFF94_ENERGY>  (1) 
-4.3248

>  <PUBCHEM_FEATURE_SELFOVERLAP>  (1) 
25.371

>  <PUBCHEM_SHAPE_FINGERPRINT>  (1) 
10219947 1 18060139821290926702
11062470 55 17847059982375937803
11471102 20 18411698785836842388
12346645 6 18273496762831974958
12932764 1 17458330949284893327
13922767 16 18411415116005288432
14251717 144 18413670197095035446
14325111 11 18410574023938116583
17834072 33 18272083937951375679
18186145 218 18407755928433782047
20279233 1 17967820448461741771
20606313 2 18412544318858117092
20645477 70 18341895151702114166
20871998 22 18055072060972884894
21119208 17 17847062185704645333
23402539 116 16559026073975024133
23402655 69 18343299258331475637
4047638 21 18408605872470605874
449060 50 18333733554562099229
449060 62 18412547630225193796
522135 26 18411982446767335870

>  <PUBCHEM_SHAPE_MULTIPOLES>  (1) 
216.41
8.64
1.3
0.66
10.41
0.11
0.01
0.8
-0.2
-1.19
-0.01
-0.04
0.01
0.15

>  <PUBCHEM_SHAPE_SELFOVERLAP>  (1) 
407.191

>  <PUBCHEM_SHAPE_VOLUME>  (1) 
132.4

>  <PUBCHEM_COORDINATE_TYPE>  (1) 
2
5
10

$$$$
