18724
     RDKit          3D

 12 13  0  0  0  0  0  0  0  0999 V2000
   -0.7103    0.0018    0.1943 N   0  0  0  0  0  0  0  0  0  0  0  0
    0.6797    0.0028   -0.2611 C   0  0  0  0  0  0  0  0  0  0  0  0
    1.4045    1.2651    0.2135 C   0  0  0  0  0  0  0  0  0  0  0  0
    1.3995   -1.2632    0.2100 C   0  0  0  0  0  0  0  0  0  0  0  0
   -1.4006   -1.2119   -0.2643 C   0  0  0  0  0  0  0  0  0  0  0  0
   -1.4031    1.2132   -0.2667 C   0  0  0  0  0  0  0  0  0  0  0  0
    2.8725    1.2612   -0.2049 C   0  0  0  0  0  0  0  0  0  0  0  0
    2.8680   -1.2635   -0.2068 C   0  0  0  0  0  0  0  0  0  0  0  0
    3.5875   -0.0028    0.2640 C   0  0  0  0  0  0  0  0  0  0  0  0
   -2.8422   -1.2527    0.2450 C   0  0  0  0  0  0  0  0  0  0  0  0
   -2.8448    1.2517    0.2423 C   0  0  0  0  0  0  0  0  0  0  0  0
   -3.6107   -0.0017   -0.1654 C   0  0  0  0  0  0  0  0  0  0  0  0
  1  2  1  0
  1  5  1  0
  1  6  1  0
  2  3  1  0
  2  4  1  0
  3  7  1  0
  4  8  1  0
  5 10  1  0
  6 11  1  0
  7  9  1  0
  8  9  1  0
 10 12  1  0
 11 12  1  0
M  END
>  <PUBCHEM_COMPOUND_CID>  (1) 
18724

>  <PUBCHEM_CONFORMER_RMSD>  (1) 
0.6

>  <PUBCHEM_CONFORMER_DIVERSEORDER>  (1) 
1
6
5
7
3
4
2

>  <PUBCHEM_MMFF94_PARTIAL_CHARGES>  (1) 
4
1 -0.81
2 0.27
5 0.27
6 0.27

>  <PUBCHEM_EFFECTIVE_ROTOR_COUNT>  (1) 
3.4

>  <PUBCHEM_PHARMACOPHORE_FEATURES>  (1) 
3
1 1 cation
6 1 5 6 10 11 12 rings
6 2 3 4 7 8 9 rings

>  <PUBCHEM_HEAVY_ATOM_COUNT>  (1) 
12

>  <PUBCHEM_ATOM_DEF_STEREO_COUNT>  (1) 
0

>  <PUBCHEM_ATOM_UDEF_STEREO_COUNT>  (1) 
0

>  <PUBCHEM_BOND_DEF_STEREO_COUNT>  (1) 
0

>  <PUBCHEM_BOND_UDEF_STEREO_COUNT>  (1) 
0

>  <PUBCHEM_ISOTOPIC_ATOM_COUNT>  (1) 
0

>  <PUBCHEM_COMPONENT_COUNT>  (1) 
1

>  <PUBCHEM_CACTVS_TAUTO_COUNT>  (1) 
1

>  <PUBCHEM_CONFORMER_ID>  (1) 
0000492400000001

>  <PUBCHEM_MMFF94_ENERGY>  (1) 
6.2457

>  <PUBCHEM_FEATURE_SELFOVERLAP>  (1) 
15.223

>  <PUBCHEM_SHAPE_FINGERPRINT>  (1) 
10608611 8 18410570686622297293
10980938 120 18411138017816517186
11132069 177 18410287021301598816
11471102 20 18410569582889126676
12032990 46 18410862052934772086
12162725 195 18411136935110179689
12251169 10 18411136930815179921
12932764 1 18411427214769814703
13296908 3 18411422803875623790
13380535 21 18410866459544701118
13380535 76 18410854364927747831
14144814 61 18411419496718865137
14325111 11 18410856563934932268
15219456 202 18411700984575196309
15442244 35 18195528086745293450
15536298 74 18343021086490356126
15775835 57 18411987974321699956
16945 1 18410575084673628462
17834074 16 18410577283691849579
17844478 74 18113624469223312309
18186145 218 18187082827973762806
18522853 276 18342172267487109072
19973954 147 18410857659156938956
200 152 18131057252109720927
20201158 50 18411699872184188266
20528008 55 18410849971555602973
20645477 70 18412259502312798759
20871998 184 18201442527585384927
21501502 16 18410575093253039509
21501925 9 18409719665054597258
23402539 116 18201147802929517005
23402655 69 18341324509783791781
23463225 33 18408885126938661988
23552423 10 18333450962524502911
23559900 14 18269832022105222258
2748010 2 18410573980867040044
3248919 1 18410564093841774959
5104073 3 18410575084663086400
53812653 166 18343295994351451120
57096353 35 18338797952010679413
57812782 119 18410290315451772457
6333449 129 18410853265779662261
69090 78 18341607114521380975
7364860 26 18343865511399395606
8809292 202 18260834812311480786
93112 12 18410575080373418991
9709674 26 18411423924857209647

>  <PUBCHEM_SHAPE_MULTIPOLES>  (1) 
241.97
6.33
1.67
0.66
0.2
0
0
0
-0.15
-0.04
0
0
0
0

>  <PUBCHEM_SHAPE_SELFOVERLAP>  (1) 
480.286

>  <PUBCHEM_SHAPE_VOLUME>  (1) 
142.8

>  <PUBCHEM_COORDINATE_TYPE>  (1) 
2
5
10

$$$$
