18727
     RDKit          3D

 28 29  0  0  1  0  0  0  0  0999 V2000
    0.9693   -0.9511   -0.6791 O   0  0  0  0  0  0  0  0  0  0  0  0
   -1.6793   -0.9761    0.6817 O   0  0  0  0  0  0  0  0  0  0  0  0
    0.0844   -0.8404    2.1511 O   0  0  0  0  0  0  0  0  0  0  0  0
   -4.5179   -0.7605    0.7313 N   0  0  0  0  0  0  0  0  0  0  0  0
    1.8642   -1.5697    0.2468 C   0  0  0  0  0  0  0  0  0  0  0  0
    0.2847    0.1389   -0.0829 C   0  0  0  0  0  0  0  0  0  0  0  0
    2.5114   -2.7785   -0.4408 C   0  0  0  0  0  0  0  0  0  0  0  0
    2.8836   -0.5173    0.6989 C   0  0  0  0  0  0  0  0  0  0  0  0
   -0.7042    0.7362   -1.0865 C   0  0  0  0  0  0  0  0  0  0  0  0
    1.2845    1.1956    0.3931 C   0  0  0  0  0  0  0  0  0  0  0  0
    3.3574   -2.3719   -1.6523 C   0  0  0  0  0  0  0  0  0  0  0  0
   -0.4103   -0.6168    1.0527 C   0  0  0  0  0  0  0  0  0  0  0  0
    3.8632   -1.0201    1.7467 C   0  0  0  0  0  0  0  0  0  0  0  0
   -1.4993    1.7843   -0.6835 C   0  0  0  0  0  0  0  0  0  0  0  0
    2.0903    1.8068   -0.5397 C   0  0  0  0  0  0  0  0  0  0  0  0
   -0.7600    0.2027   -2.3536 C   0  0  0  0  0  0  0  0  0  0  0  0
    1.3386    1.4938    1.7350 C   0  0  0  0  0  0  0  0  0  0  0  0
    4.0117   -3.5806   -2.3034 C   0  0  0  0  0  0  0  0  0  0  0  0
   -2.4469   -1.6589    1.6778 C   0  0  0  0  0  0  0  0  0  0  0  0
   -2.4006    2.3290   -1.5982 C   0  0  0  0  0  0  0  0  0  0  0  0
    3.0013    2.7700   -0.1061 C   0  0  0  0  0  0  0  0  0  0  0  0
   -1.6612    0.7475   -3.2683 C   0  0  0  0  0  0  0  0  0  0  0  0
    2.2496    2.4570    2.1685 C   0  0  0  0  0  0  0  0  0  0  0  0
   -3.8172   -1.9807    1.1031 C   0  0  0  0  0  0  0  0  0  0  0  0
   -2.4814    1.8106   -2.8905 C   0  0  0  0  0  0  0  0  0  0  0  0
    3.0810    3.0951    1.2478 C   0  0  0  0  0  0  0  0  0  0  0  0
   -5.8314   -1.0701    0.1614 C   0  0  0  0  0  0  0  0  0  0  0  0
   -4.6653    0.1255    1.8886 C   0  0  0  0  0  0  0  0  0  0  0  0
  1  5  1  0
  1  6  1  0
  2 12  1  0
  2 19  1  0
  3 12  2  0
  4 24  1  0
  4 27  1  0
  4 28  1  0
  5  7  1  0
  5  8  1  0
  6  9  1  0
  6 10  1  0
  6 12  1  0
  7 11  1  0
  8 13  1  0
  9 14  2  0
  9 16  1  0
 10 15  2  0
 10 17  1  0
 11 18  1  0
 14 20  1  0
 15 21  1  0
 16 22  2  0
 17 23  2  0
 19 24  1  0
 20 25  2  0
 21 26  2  0
 22 25  1  0
 23 26  1  0
M  END
>  <PUBCHEM_COMPOUND_CID>  (1) 
18727

>  <PUBCHEM_CONFORMER_RMSD>  (1) 
1

>  <PUBCHEM_CONFORMER_DIVERSEORDER>  (1) 
2
12
47
40
28
14
19
37
6
36
39
41
35
25
34
46
5
44
45
7
16
27
33
38
15
8
30
21
18
24
9
20
11
43
4
22
31
32
42
26
1
23
13
10
29
3
17

>  <PUBCHEM_MMFF94_PARTIAL_CHARGES>  (1) 
33
1 -0.56
10 -0.14
12 0.66
14 -0.15
15 -0.15
16 -0.15
17 -0.15
19 0.28
2 -0.43
20 -0.15
21 -0.15
22 -0.15
23 -0.15
24 0.27
25 -0.15
26 -0.15
27 0.27
28 0.27
3 -0.57
39 0.15
4 -0.81
40 0.15
41 0.15
42 0.15
48 0.15
49 0.15
5 0.28
50 0.15
51 0.15
54 0.15
55 0.15
6 0.63
9 -0.14

>  <PUBCHEM_EFFECTIVE_ROTOR_COUNT>  (1) 
12

>  <PUBCHEM_PHARMACOPHORE_FEATURES>  (1) 
7
1 1 acceptor
1 13 hydrophobe
1 18 hydrophobe
1 3 acceptor
1 4 cation
6 10 15 17 21 23 26 rings
6 9 14 16 20 22 25 rings

>  <PUBCHEM_HEAVY_ATOM_COUNT>  (1) 
28

>  <PUBCHEM_ATOM_DEF_STEREO_COUNT>  (1) 
0

>  <PUBCHEM_ATOM_UDEF_STEREO_COUNT>  (1) 
1

>  <PUBCHEM_BOND_DEF_STEREO_COUNT>  (1) 
0

>  <PUBCHEM_BOND_UDEF_STEREO_COUNT>  (1) 
0

>  <PUBCHEM_ISOTOPIC_ATOM_COUNT>  (1) 
0

>  <PUBCHEM_COMPONENT_COUNT>  (1) 
1

>  <PUBCHEM_CACTVS_TAUTO_COUNT>  (1) 
1

>  <PUBCHEM_CONFORMER_ID>  (1) 
0000492700000002

>  <PUBCHEM_MMFF94_ENERGY>  (1) 
159.72

>  <PUBCHEM_FEATURE_SELFOVERLAP>  (1) 
35.521

>  <PUBCHEM_SHAPE_FINGERPRINT>  (1) 
10165383 225 18122634013694247096
11578080 2 18261407614988632796
11595378 159 16515669070437767121
12160290 23 16878490243030885645
12293681 25 18123455095361035150
12293681 4 18048016498572132392
12788726 201 17023482840758192599
13149001 5 18118389666623561942
13583140 156 16917061222275629619
13757389 114 17184207565253339612
14790565 3 17247814265507093253
14955137 171 18060140942799416408
15219462 58 18057066759400721817
15420108 30 17179690767217738077
15664445 248 17097227235856621924
15775530 1 18261663801107701108
1601671 61 17679870580898240169
16752209 62 16805594838138218923
16945 1 17827636950942587308
17357779 13 18040150708910055823
17980427 23 16700074633731365755
17980427 26 17559680731493621040
18915476 22 18271799155385577932
20691752 17 17313386781033939723
22182313 1 18187352234013302588
229495 10 18131347535864226645
23419403 2 18409727335502113108
23559900 14 18335153015409692311
266924 78 17916852621162865102
3052486 1 16660633030219209573
350125 39 17967524692776989024
469060 322 17689966331250980501
484985 159 17474695861368135790
59755656 215 18260265300117386568
59755656 520 17627224903709819224
81228 2 17312821576507653841
9981440 41 17548081978889948048

>  <PUBCHEM_SHAPE_MULTIPOLES>  (1) 
553.64
8.2
3.71
2.96
8.05
0.27
-1.7
4.1
1.94
-4.49
-0.77
1.04
-0.32
4.07

>  <PUBCHEM_SHAPE_SELFOVERLAP>  (1) 
1161.225

>  <PUBCHEM_SHAPE_VOLUME>  (1) 
312

>  <PUBCHEM_COORDINATE_TYPE>  (1) 
2
5
10

$$$$
