18735
     RDKit          3D

 17 17  0  0  1  0  0  0  0  0999 V2000
   -3.0674   -1.3171   -1.5601 Br  0  0  0  0  0  0  0  0  0  0  0  0
    0.2083   -1.0512    1.9713 O   0  0  0  0  0  0  0  0  0  0  0  0
   -1.1045    0.7346   -2.0931 O   0  0  0  0  0  0  0  0  0  0  0  0
    3.2779   -0.4214   -1.4584 O   0  0  0  0  0  0  0  0  0  0  0  0
    1.8360   -0.5993    0.3696 N   0  0  0  0  0  0  0  0  0  0  0  0
    1.0986    0.2118   -1.7254 N   0  0  0  0  0  0  0  0  0  0  0  0
   -0.3707    0.4866    0.2029 C   0  0  0  0  0  0  0  0  0  0  0  0
   -0.0341    1.9070    0.6920 C   0  0  0  0  0  0  0  0  0  0  0  0
   -1.8338    0.1703    0.5511 C   0  0  0  0  0  0  0  0  0  0  0  0
    0.5572   -0.4796    0.9369 C   0  0  0  0  0  0  0  0  0  0  0  0
   -0.1958    0.4714   -1.3069 C   0  0  0  0  0  0  0  0  0  0  0  0
   -0.9458    2.9258    0.0193 C   0  0  0  0  0  0  0  0  0  0  0  0
   -0.1555    1.9848    2.2087 C   0  0  0  0  0  0  0  0  0  0  0  0
    2.1600   -0.2657   -0.9598 C   0  0  0  0  0  0  0  0  0  0  0  0
   -2.2332   -1.2058    0.1126 C   0  0  0  0  0  0  0  0  0  0  0  0
    2.8675   -1.2613    1.1594 C   0  0  0  0  0  0  0  0  0  0  0  0
   -2.0646   -2.2910    0.8801 C   0  0  0  0  0  0  0  0  0  0  0  0
  1 15  1  0
  2 10  2  0
  3 11  2  0
  4 14  2  0
  5 10  1  0
  5 14  1  0
  5 16  1  0
  6 11  1  0
  6 14  1  0
  7  8  1  0
  7  9  1  0
  7 10  1  0
  7 11  1  0
  8 12  1  0
  8 13  1  0
  9 15  1  0
 15 17  2  0
M  END
>  <PUBCHEM_COMPOUND_CID>  (1) 
18735

>  <PUBCHEM_CONFORMER_RMSD>  (1) 
0.6

>  <PUBCHEM_CONFORMER_DIVERSEORDER>  (1) 
1
24
10
4
25
16
9
18
23
7
11
17
15
14
19
12
8
22
5
13
20
21
2
3
6

>  <PUBCHEM_MMFF94_PARTIAL_CHARGES>  (1) 
17
1 -0.11
10 0.57
11 0.57
14 0.69
15 -0.03
16 0.3
17 -0.3
2 -0.57
27 0.37
3 -0.57
31 0.15
32 0.15
4 -0.57
5 -0.42
6 -0.49
7 0.12
9 0.14

>  <PUBCHEM_EFFECTIVE_ROTOR_COUNT>  (1) 
3.6

>  <PUBCHEM_PHARMACOPHORE_FEATURES>  (1) 
7
1 1 hydrophobe
1 2 acceptor
1 3 acceptor
1 4 acceptor
1 6 donor
3 8 12 13 hydrophobe
6 5 6 7 10 11 14 rings

>  <PUBCHEM_HEAVY_ATOM_COUNT>  (1) 
17

>  <PUBCHEM_ATOM_DEF_STEREO_COUNT>  (1) 
0

>  <PUBCHEM_ATOM_UDEF_STEREO_COUNT>  (1) 
1

>  <PUBCHEM_BOND_DEF_STEREO_COUNT>  (1) 
0

>  <PUBCHEM_BOND_UDEF_STEREO_COUNT>  (1) 
0

>  <PUBCHEM_ISOTOPIC_ATOM_COUNT>  (1) 
0

>  <PUBCHEM_COMPONENT_COUNT>  (1) 
1

>  <PUBCHEM_CACTVS_TAUTO_COUNT>  (1) 
3

>  <PUBCHEM_CONFORMER_ID>  (1) 
0000492F00000001

>  <PUBCHEM_MMFF94_ENERGY>  (1) 
56.7256

>  <PUBCHEM_FEATURE_SELFOVERLAP>  (1) 
35.522

>  <PUBCHEM_SHAPE_FINGERPRINT>  (1) 
10702982 57 17760935038919449533
11578080 2 18115569543884750709
12138202 97 17842008679844904453
12326174 3 17840297045325351929
12423570 1 13942618566454256969
13024252 1 13479719575450517756
13299463 15 17241618401493454023
141345 1 8214151780124220357
14617773 55 18188497860936816738
14817 1 11390889585798551657
15881359 60 16517377556846219232
15906896 17 18123474882274822197
16945 1 18261115179191520307
19765921 60 14562798980648636119
20711985 344 18200041642006577305
23419403 2 17759475145376286844
23557571 272 18131062710949915616
25 1 14057267637379850375
353137 74 15719656693928012599
576247 118 18273216438616297079
5845 1 13876010547228070449
81228 2 18200319805616432441

>  <PUBCHEM_SHAPE_MULTIPOLES>  (1) 
328.22
3.81
2.43
2.08
0.07
2.18
0.11
-3.25
0.57
0.42
-0.48
-0.19
-0.3
0.29

>  <PUBCHEM_SHAPE_SELFOVERLAP>  (1) 
666.731

>  <PUBCHEM_SHAPE_VOLUME>  (1) 
194.7

>  <PUBCHEM_COORDINATE_TYPE>  (1) 
2
5
10

$$$$
