18748
     RDKit          3D

 11 11  0  0  0  0  0  0  0  0999 V2000
   -0.7927    2.5082   -0.0001 Cl  0  0  0  0  0  0  0  0  0  0  0  0
    2.2771   -2.0194    0.0005 Cl  0  0  0  0  0  0  0  0  0  0  0  0
   -3.0161    0.5457    0.0007 O   0  0  0  0  0  0  0  0  0  0  0  0
    2.7788    1.6385    0.0006 N   0  0  0  0  0  0  0  0  0  0  0  0
    0.6383    0.1789   -0.0007 C   0  0  0  0  0  0  0  0  0  0  0  0
   -1.7705   -0.0087   -0.0001 C   0  0  0  0  0  0  0  0  0  0  0  0
   -0.6203    0.7805   -0.0005 C   0  0  0  0  0  0  0  0  0  0  0  0
    0.7464   -1.2118   -0.0005 C   0  0  0  0  0  0  0  0  0  0  0  0
   -1.6623   -1.3994    0.0002 C   0  0  0  0  0  0  0  0  0  0  0  0
   -0.4039   -2.0008    0.0000 C   0  0  0  0  0  0  0  0  0  0  0  0
    1.8254    0.9884    0.0000 C   0  0  0  0  0  0  0  0  0  0  0  0
  1  7  1  0
  2  8  1  0
  3  6  1  0
  4 11  3  0
  5  7  2  0
  5  8  1  0
  5 11  1  0
  6  7  1  0
  6  9  2  0
  8 10  2  0
  9 10  1  0
M  END
>  <PUBCHEM_COMPOUND_CID>  (1) 
18748

>  <PUBCHEM_CONFORMER_RMSD>  (1) 
0.4

>  <PUBCHEM_CONFORMER_DIVERSEORDER>  (1) 
1

>  <PUBCHEM_MMFF94_PARTIAL_CHARGES>  (1) 
14
1 -0.18
10 -0.15
11 0.48
12 0.15
13 0.15
14 0.45
2 -0.18
3 -0.53
4 -0.56
5 0.07
6 0.08
7 0.18
8 0.18
9 -0.15

>  <PUBCHEM_EFFECTIVE_ROTOR_COUNT>  (1) 
0

>  <PUBCHEM_PHARMACOPHORE_FEATURES>  (1) 
3
1 3 donor
1 4 acceptor
6 5 6 7 8 9 10 rings

>  <PUBCHEM_HEAVY_ATOM_COUNT>  (1) 
11

>  <PUBCHEM_ATOM_DEF_STEREO_COUNT>  (1) 
0

>  <PUBCHEM_ATOM_UDEF_STEREO_COUNT>  (1) 
0

>  <PUBCHEM_BOND_DEF_STEREO_COUNT>  (1) 
0

>  <PUBCHEM_BOND_UDEF_STEREO_COUNT>  (1) 
0

>  <PUBCHEM_ISOTOPIC_ATOM_COUNT>  (1) 
0

>  <PUBCHEM_COMPONENT_COUNT>  (1) 
1

>  <PUBCHEM_CACTVS_TAUTO_COUNT>  (1) 
3

>  <PUBCHEM_CONFORMER_ID>  (1) 
0000493C00000001

>  <PUBCHEM_MMFF94_ENERGY>  (1) 
22.6196

>  <PUBCHEM_FEATURE_SELFOVERLAP>  (1) 
15.223

>  <PUBCHEM_SHAPE_FINGERPRINT>  (1) 
11206711 2 18048880684683145173
12423570 1 16525280726088071598
12524768 44 18410577283749813447
13380535 76 18337946895709388906
161256 15 18338242561273610076
16945 1 18194683670326253955
193761 8 18338797788849498244
21040471 1 18338516455575020871
21501502 16 18411978087291420158
2334 1 18338797926378460291
23552423 10 18334858341930169174
23559900 14 17623010089500153526
2748010 2 18410579512959334823
5084963 1 17986665970197703339
528886 8 18339356491075054185
53812653 166 18198905992629610897
66348 1 18338240366487279972

>  <PUBCHEM_SHAPE_MULTIPOLES>  (1) 
219.26
3.39
2.71
0.61
0.15
0.64
0
0.15
0
0.63
0
0.01
-0.01
0

>  <PUBCHEM_SHAPE_SELFOVERLAP>  (1) 
445.451

>  <PUBCHEM_SHAPE_VOLUME>  (1) 
128.9

>  <PUBCHEM_COORDINATE_TYPE>  (1) 
2
5
10

$$$$
