18757
     RDKit          3D

 21 24  0  0  0  0  0  0  0  0999 V2000
   -1.0542    0.0019    1.0277 N   0  0  0  0  0  0  0  0  0  0  0  0
    2.8708   -0.0027   -0.4431 N   0  0  0  0  0  0  0  0  0  0  0  0
    0.2768    0.0004    0.5289 C   0  0  0  0  0  0  0  0  0  0  0  0
    0.9274    1.2143    0.2856 C   0  0  0  0  0  0  0  0  0  0  0  0
    0.9245   -1.2150    0.2858 C   0  0  0  0  0  0  0  0  0  0  0  0
    2.2423    1.1652   -0.2072 C   0  0  0  0  0  0  0  0  0  0  0  0
    2.2396   -1.1691   -0.2069 C   0  0  0  0  0  0  0  0  0  0  0  0
    0.3006    2.4504    0.5211 C   0  0  0  0  0  0  0  0  0  0  0  0
    0.2949   -2.4496    0.5215 C   0  0  0  0  0  0  0  0  0  0  0  0
    2.8954    2.3704   -0.4514 C   0  0  0  0  0  0  0  0  0  0  0  0
    2.8899   -2.3758   -0.4510 C   0  0  0  0  0  0  0  0  0  0  0  0
   -2.3008    0.0024    0.3884 C   0  0  0  0  0  0  0  0  0  0  0  0
    0.9754    3.6410    0.2687 C   0  0  0  0  0  0  0  0  0  0  0  0
    0.9669   -3.6420    0.2692 C   0  0  0  0  0  0  0  0  0  0  0  0
    2.2755    3.6006   -0.2185 C   0  0  0  0  0  0  0  0  0  0  0  0
    2.2671   -3.6045   -0.2181 C   0  0  0  0  0  0  0  0  0  0  0  0
   -3.4812    0.0028    1.1404 C   0  0  0  0  0  0  0  0  0  0  0  0
   -2.3782    0.0021   -1.0092 C   0  0  0  0  0  0  0  0  0  0  0  0
   -4.7223    0.0027    0.5036 C   0  0  0  0  0  0  0  0  0  0  0  0
   -3.6193    0.0020   -1.6459 C   0  0  0  0  0  0  0  0  0  0  0  0
   -4.7913    0.0023   -0.8894 C   0  0  0  0  0  0  0  0  0  0  0  0
  1  3  1  0
  1 12  1  0
  2  6  2  0
  2  7  1  0
  3  4  2  0
  3  5  1  0
  4  6  1  0
  4  8  1  0
  5  7  2  0
  5  9  1  0
  6 10  1  0
  7 11  1  0
  8 13  2  0
  9 14  2  0
 10 15  2  0
 11 16  2  0
 12 17  2  0
 12 18  1  0
 13 15  1  0
 14 16  1  0
 17 19  1  0
 18 20  2  0
 19 21  2  0
 20 21  1  0
M  END
>  <PUBCHEM_COMPOUND_CID>  (1) 
18757

>  <PUBCHEM_CONFORMER_RMSD>  (1) 
0.6

>  <PUBCHEM_CONFORMER_DIVERSEORDER>  (1) 
1
2
3
4

>  <PUBCHEM_MMFF94_PARTIAL_CHARGES>  (1) 
33
1 -0.6
10 -0.15
11 -0.15
12 0.1
13 -0.15
14 -0.15
15 -0.15
16 -0.15
17 -0.15
18 -0.15
19 -0.15
2 -0.62
20 -0.15
21 -0.15
22 0.4
23 0.15
24 0.15
25 0.15
26 0.15
27 0.15
28 0.15
29 0.15
3 0.1
30 0.15
31 0.15
32 0.15
33 0.15
34 0.15
35 0.15
6 0.31
7 0.31
8 -0.15
9 -0.15

>  <PUBCHEM_EFFECTIVE_ROTOR_COUNT>  (1) 
2

>  <PUBCHEM_PHARMACOPHORE_FEATURES>  (1) 
7
1 1 cation
1 1 donor
1 2 acceptor
6 12 17 18 19 20 21 rings
6 2 3 4 5 6 7 rings
6 4 6 8 10 13 15 rings
6 5 7 9 11 14 16 rings

>  <PUBCHEM_HEAVY_ATOM_COUNT>  (1) 
21

>  <PUBCHEM_ATOM_DEF_STEREO_COUNT>  (1) 
0

>  <PUBCHEM_ATOM_UDEF_STEREO_COUNT>  (1) 
0

>  <PUBCHEM_BOND_DEF_STEREO_COUNT>  (1) 
0

>  <PUBCHEM_BOND_UDEF_STEREO_COUNT>  (1) 
0

>  <PUBCHEM_ISOTOPIC_ATOM_COUNT>  (1) 
0

>  <PUBCHEM_COMPONENT_COUNT>  (1) 
1

>  <PUBCHEM_CACTVS_TAUTO_COUNT>  (1) 
2

>  <PUBCHEM_CONFORMER_ID>  (1) 
0000494500000001

>  <PUBCHEM_MMFF94_ENERGY>  (1) 
89.2281

>  <PUBCHEM_FEATURE_SELFOVERLAP>  (1) 
35.583

>  <PUBCHEM_SHAPE_FINGERPRINT>  (1) 
10165383 225 17972904693128737469
10411042 1 18050010995385055914
10693767 8 18130794434387146374
10764073 3 16750364057882232585
10967382 1 18410865351881040770
1100329 8 18338799030802039122
11101153 10 18048604725389649206
116883 192 17691964860763349007
12553582 1 18195254303860383267
12643181 29 18123192575067155460
12730499 353 18263368143632354907
12788726 201 17254833070965043019
13004483 165 17762604102076773707
13009979 54 17631461072602544939
13134695 92 18337105653286590174
13140716 1 18266741470996982960
13533116 47 18341891914435794375
13681431 1 18337379431681828329
138480 1 18338520724899048762
13911987 19 18189640296916759590
14790565 3 18266480818075535720
15131766 46 15080243300556412630
15502722 9 18410291436786383359
16087824 20 17329434939495820889
16945 1 18410865360465583618
17539 30 17474382479015325982
17818456 19 17343512107298583297
1813 80 17914624855886402751
19591789 44 17978240683103272458
19930381 70 18337393841861595705
20645477 70 18335135397664905771
21041028 32 18122069697639843603
21452121 199 18119515549419347714
21524375 3 17900537088361628304
21639500 275 18410007775597453005
221357 26 18191014609305332101
2255824 54 18413669123400619215
22907989 373 16895395585751649884
23419403 2 17317564805392777342
23598291 2 18059867116785140465
238 59 18191279732877193343
25 1 18337955721825075076
2748010 2 17978249454027559088
3060560 45 18338229465876204660
3091708 16 9000105755701326696
350125 39 17832998517173187058
352729 6 18052267481360982424
3886686 26 17478577541715936496
474 4 18340766060845255169
59025328 239 17479970321830664575
6287921 2 18115315612875577397
633830 44 18129118864465430029
6443956 14 18265054634848802045
7164475 11 17761777260906392414
7364860 26 18410293609707467305
7471813 234 18270670953149372263
81228 2 17544742439831882696
8272917 22 18412550911965160901
84936 182 18129662031609796793

>  <PUBCHEM_SHAPE_MULTIPOLES>  (1) 
422.21
6.92
4.58
1.04
10.15
0.01
-0.15
-0.02
-1.54
-6.4
0.14
0.98
0
0

>  <PUBCHEM_SHAPE_SELFOVERLAP>  (1) 
955.545

>  <PUBCHEM_SHAPE_VOLUME>  (1) 
219.1

>  <PUBCHEM_COORDINATE_TYPE>  (1) 
2
5
10

$$$$
