18758
     RDKit          3D

 22 25  0  0  1  0  0  0  0  0999 V2000
   -5.5209   -0.5480   -0.3665 O   0  0  0  0  0  0  0  0  0  0  0  0
    6.4162   -0.5701    0.0884 O   0  0  0  0  0  0  0  0  0  0  0  0
   -4.4427   -0.5283    0.5272 N   0  0  0  0  0  0  0  0  0  0  0  0
   -1.3700    1.0814   -0.4639 C   0  0  0  0  0  0  0  0  0  0  0  0
   -2.0658    0.1717    0.5836 C   0  0  0  0  0  0  0  0  0  0  0  0
    0.1720    1.0283   -0.5113 C   0  0  0  0  0  0  0  0  0  0  0  0
    0.7441   -0.3994   -0.3524 C   0  0  0  0  0  0  0  0  0  0  0  0
   -1.4062   -1.2093    0.7124 C   0  0  0  0  0  0  0  0  0  0  0  0
   -1.9963    0.6463   -1.8035 C   0  0  0  0  0  0  0  0  0  0  0  0
    0.1109   -1.1403    0.8381 C   0  0  0  0  0  0  0  0  0  0  0  0
   -3.4262   -0.0062   -0.0739 C   0  0  0  0  0  0  0  0  0  0  0  0
    0.8082    1.9698    0.5247 C   0  0  0  0  0  0  0  0  0  0  0  0
   -3.4754    0.4742   -1.4945 C   0  0  0  0  0  0  0  0  0  0  0  0
   -2.2221    0.8575    1.9426 C   0  0  0  0  0  0  0  0  0  0  0  0
    2.2605   -0.4100   -0.2347 C   0  0  0  0  0  0  0  0  0  0  0  0
    2.3133    2.0795    0.2944 C   0  0  0  0  0  0  0  0  0  0  0  0
    2.9872    0.7462    0.1033 C   0  0  0  0  0  0  0  0  0  0  0  0
    2.9561   -1.6115   -0.4572 C   0  0  0  0  0  0  0  0  0  0  0  0
    4.3864    0.6793    0.2028 C   0  0  0  0  0  0  0  0  0  0  0  0
    4.3450   -1.6669   -0.3456 C   0  0  0  0  0  0  0  0  0  0  0  0
    5.0602   -0.5213   -0.0148 C   0  0  0  0  0  0  0  0  0  0  0  0
   -6.6345   -1.1230    0.3007 C   0  0  0  0  0  0  0  0  0  0  0  0
  1  3  1  0
  1 22  1  0
  2 21  1  0
  3 11  2  0
  4  5  1  0
  4  6  1  0
  4  9  1  0
  5  8  1  0
  5 11  1  0
  5 14  1  0
  6  7  1  0
  6 12  1  0
  7 10  1  0
  7 15  1  0
  8 10  1  0
  9 13  1  0
 11 13  1  0
 12 16  1  0
 15 17  2  0
 15 18  1  0
 16 17  1  0
 17 19  1  0
 18 20  2  0
 19 21  2  0
 20 21  1  0
M  END
>  <PUBCHEM_COMPOUND_CID>  (1) 
18758

>  <PUBCHEM_CONFORMER_RMSD>  (1) 
0.6

>  <PUBCHEM_CONFORMER_DIVERSEORDER>  (1) 
3
26
5
16
33
21
24
25
13
27
15
20
30
31
11
19
14
10
9
32
6
17
23
7
18
4
22
29
8
1
2
28
12

>  <PUBCHEM_MMFF94_PARTIAL_CHARGES>  (1) 
19
1 -0.22
11 0.33
13 0.06
15 -0.14
16 0.14
17 -0.14
18 -0.15
19 -0.15
2 -0.53
20 -0.15
21 0.08
22 0.28
3 -0.51
41 0.15
42 0.15
43 0.15
44 0.45
5 0.06
7 0.14

>  <PUBCHEM_EFFECTIVE_ROTOR_COUNT>  (1) 
2.2

>  <PUBCHEM_PHARMACOPHORE_FEATURES>  (1) 
6
1 2 donor
1 3 acceptor
5 4 5 9 11 13 rings
6 15 17 18 19 20 21 rings
6 4 5 6 7 8 10 rings
6 6 7 12 15 16 17 rings

>  <PUBCHEM_HEAVY_ATOM_COUNT>  (1) 
22

>  <PUBCHEM_ATOM_DEF_STEREO_COUNT>  (1) 
0

>  <PUBCHEM_ATOM_UDEF_STEREO_COUNT>  (1) 
4

>  <PUBCHEM_BOND_DEF_STEREO_COUNT>  (1) 
0

>  <PUBCHEM_BOND_UDEF_STEREO_COUNT>  (1) 
1

>  <PUBCHEM_ISOTOPIC_ATOM_COUNT>  (1) 
0

>  <PUBCHEM_COMPONENT_COUNT>  (1) 
1

>  <PUBCHEM_CACTVS_TAUTO_COUNT>  (1) 
9

>  <PUBCHEM_CONFORMER_ID>  (1) 
0000494600000003

>  <PUBCHEM_MMFF94_ENERGY>  (1) 
63.3094

>  <PUBCHEM_FEATURE_SELFOVERLAP>  (1) 
30.646

>  <PUBCHEM_SHAPE_FINGERPRINT>  (1) 
10 15 18041553746356805040
10366900 7 17240484701741268977
11089746 13 13045944611715779486
11578080 2 16986014980671375154
12011746 2 17531243967832808483
12166972 35 18335423486596223436
12236239 1 17346599685782271649
12403259 415 18114452427059148573
12403814 3 16558751200605582321
12788726 201 16988578930207622993
13288520 33 18335139791553495711
13402501 40 18333170578559650074
13533116 47 18202565120003263352
13685833 64 18409450292931723250
13862211 1 18409448060081765186
14350574 20 18407759244174791399
14386348 63 18333169462247454382
15196674 1 18339362955443900712
15848702 151 18201725011367421207
16752209 62 15936400144299549861
16945 1 18410581682192086828
17349148 13 18343861108978822066
1813 80 18130521746982049156
19141452 34 18339081596563591735
19489759 90 16443063880822222887
19784866 170 11240000057364925871
200 152 18131347496850564909
20028762 73 18059854008429779751
20645477 70 18409166606563761358
21033648 29 18114449124150332388
21267235 1 18343588417547932822
221357 26 18408036304009758197
23402539 116 17917709085055132321
23493267 7 16153709786638937312
23557571 272 17458622293943528453
23559900 14 18115026432216100468
26918003 58 18273216421868983571
3286 77 18411421721897306221
34797466 226 16877953741227382822
4340502 62 14764634105471970780
46194498 28 17967533514587055020
465052 167 18272093815679993246
5104073 3 18129374892113989626
542803 24 13182733745626404874
59755656 215 17749387061915035339
69090 78 18410291427869797390
7495541 125 18334580182504355878

>  <PUBCHEM_SHAPE_MULTIPOLES>  (1) 
436.03
12.13
1.71
1.2
2.78
0.27
0.04
-5.07
0.12
-1.03
-0.15
1.16
0.25
0.6

>  <PUBCHEM_SHAPE_SELFOVERLAP>  (1) 
944.947

>  <PUBCHEM_SHAPE_VOLUME>  (1) 
238.8

>  <PUBCHEM_COORDINATE_TYPE>  (1) 
2
5
10

$$$$
