18762
     RDKit          3D

 22 26  0  0  0  0  0  0  0  0999 V2000
    3.3852    2.7859   -0.0013 O   0  0  0  0  0  0  0  0  0  0  0  0
   -1.0930    1.0954    0.0006 C   0  0  0  0  0  0  0  0  0  0  0  0
   -1.9666    0.0411    0.0003 C   0  0  0  0  0  0  0  0  0  0  0  0
   -1.8482    2.4008    0.0009 C   0  0  0  0  0  0  0  0  0  0  0  0
   -3.2665    0.4775    0.0001 C   0  0  0  0  0  0  0  0  0  0  0  0
   -3.3390    1.9732    0.0010 C   0  0  0  0  0  0  0  0  0  0  0  0
    0.2861    0.8565    0.0005 C   0  0  0  0  0  0  0  0  0  0  0  0
   -1.5864   -1.2945   -0.0001 C   0  0  0  0  0  0  0  0  0  0  0  0
    0.7689   -0.4904    0.0006 C   0  0  0  0  0  0  0  0  0  0  0  0
   -4.2947   -0.4495   -0.0006 C   0  0  0  0  0  0  0  0  0  0  0  0
   -0.1997   -1.5439    0.0002 C   0  0  0  0  0  0  0  0  0  0  0  0
    2.1906   -0.7190    0.0006 C   0  0  0  0  0  0  0  0  0  0  0  0
   -2.6290   -2.2413   -0.0010 C   0  0  0  0  0  0  0  0  0  0  0  0
    1.1936    1.9218    0.0001 C   0  0  0  0  0  0  0  0  0  0  0  0
   -3.9705   -1.8146   -0.0011 C   0  0  0  0  0  0  0  0  0  0  0  0
    3.0749    0.3921   -0.0003 C   0  0  0  0  0  0  0  0  0  0  0  0
    2.5649    1.6920   -0.0006 C   0  0  0  0  0  0  0  0  0  0  0  0
   -5.7213   -0.0213   -0.0005 C   0  0  0  0  0  0  0  0  0  0  0  0
    2.7906   -2.0039    0.0014 C   0  0  0  0  0  0  0  0  0  0  0  0
    4.4672    0.2006   -0.0010 C   0  0  0  0  0  0  0  0  0  0  0  0
    4.1771   -2.1807    0.0008 C   0  0  0  0  0  0  0  0  0  0  0  0
    5.0158   -1.0777   -0.0006 C   0  0  0  0  0  0  0  0  0  0  0  0
  1 17  1  0
  2  3  2  0
  2  4  1  0
  2  7  1  0
  3  5  1  0
  3  8  1  0
  4  6  1  0
  5  6  1  0
  5 10  2  0
  7  9  2  0
  7 14  1  0
  8 11  2  0
  8 13  1  0
  9 11  1  0
  9 12  1  0
 10 15  1  0
 10 18  1  0
 12 16  2  0
 12 19  1  0
 13 15  2  0
 14 17  2  0
 16 17  1  0
 16 20  1  0
 19 21  2  0
 20 22  2  0
 21 22  1  0
M  END
>  <PUBCHEM_COMPOUND_CID>  (1) 
18762

>  <PUBCHEM_CONFORMER_RMSD>  (1) 
0.6

>  <PUBCHEM_CONFORMER_DIVERSEORDER>  (1) 
1

>  <PUBCHEM_MMFF94_PARTIAL_CHARGES>  (1) 
25
1 -0.53
10 -0.14
11 -0.15
13 -0.15
14 -0.15
15 -0.15
17 0.08
18 0.14
19 -0.15
2 -0.14
20 -0.15
21 -0.15
22 -0.15
27 0.15
28 0.15
29 0.15
30 0.15
34 0.15
35 0.15
36 0.15
37 0.15
38 0.45
4 0.14
5 -0.14
6 0.14

>  <PUBCHEM_EFFECTIVE_ROTOR_COUNT>  (1) 
0.4

>  <PUBCHEM_PHARMACOPHORE_FEATURES>  (1) 
6
1 1 donor
5 2 3 4 5 6 rings
6 12 16 19 20 21 22 rings
6 2 3 7 8 9 11 rings
6 3 5 8 10 13 15 rings
6 7 9 12 14 16 17 rings

>  <PUBCHEM_HEAVY_ATOM_COUNT>  (1) 
22

>  <PUBCHEM_ATOM_DEF_STEREO_COUNT>  (1) 
0

>  <PUBCHEM_ATOM_UDEF_STEREO_COUNT>  (1) 
0

>  <PUBCHEM_BOND_DEF_STEREO_COUNT>  (1) 
0

>  <PUBCHEM_BOND_UDEF_STEREO_COUNT>  (1) 
0

>  <PUBCHEM_ISOTOPIC_ATOM_COUNT>  (1) 
0

>  <PUBCHEM_COMPONENT_COUNT>  (1) 
1

>  <PUBCHEM_CACTVS_TAUTO_COUNT>  (1) 
3

>  <PUBCHEM_CONFORMER_ID>  (1) 
0000494A00000001

>  <PUBCHEM_MMFF94_ENERGY>  (1) 
85.2181

>  <PUBCHEM_FEATURE_SELFOVERLAP>  (1) 
30.698

>  <PUBCHEM_SHAPE_FINGERPRINT>  (1) 
10616163 171 18412829113612711966
10693767 8 18056738031748462367
10967382 1 18410574023816738789
1100329 8 18197220243678290689
11578080 2 17386827466220918028
12107183 9 17834678192877883634
12236239 1 17749109967593586311
12403259 226 18410286999753448380
12403260 363 18412822460940121613
12633257 1 18271818882228449201
12788726 201 17560255677385814953
13140716 1 18410865377703722139
13533116 47 18343300400824450753
138480 1 14807975324599142148
14223421 5 18410008879156147732
14341114 176 18411423899065637690
14790565 3 18339930308182412449
14866123 147 17047117723997615570
15042514 8 17905603307831669154
15196674 1 18410856568229724163
15256400 18 18411981329970259392
15442244 35 18410856521243572802
15536298 74 18341049704817159128
16945 1 18338797810340132993
17349148 13 18059852835665342951
17492 89 18410293639852249650
17804303 29 18411703153528510061
1813 80 17312822671460492836
18186145 218 17676478479994048227
19141452 34 18343302587332231975
19591789 44 18410011022476898643
200 152 18131910464411175295
20028762 73 18201712964354246559
21033648 29 17604134978984519997
21267235 1 18410582772723467827
21279426 13 18265330604194300245
21792934 111 18412256234586186361
21859007 373 17752177562122929989
221490 88 18336552706617936674
23366157 5 18113899403339384052
23402539 116 18343294865065137735
23559900 14 18411695530241374928
3004659 81 18260827111434689998
335352 9 18338797815025464853
34934 24 18268425909604158095
350125 39 18410577249727925505
3545911 37 18410575097563811566
4214541 1 18410856516705973349
4409770 3 17320972041540473524
474 4 17531535403012986060
5104073 3 18411702109909454265
559249 180 18190737535989669442
7364860 26 18340768234520628592
9709674 26 18336831986639752562

>  <PUBCHEM_SHAPE_MULTIPOLES>  (1) 
446.88
10.2
2.79
0.61
0.58
0.59
0
-2.45
0
-0.61
0
0.01
-0.01
0

>  <PUBCHEM_SHAPE_SELFOVERLAP>  (1) 
1040.716

>  <PUBCHEM_SHAPE_VOLUME>  (1) 
232

>  <PUBCHEM_COORDINATE_TYPE>  (1) 
2
5
10

$$$$
