18763
     RDKit          3D

 17 17  0  0  1  0  0  0  0  0999 V2000
   -4.5343   -1.0448   -0.2828 S   0  0  0  0  0  0  0  0  0  0  0  0
   -2.7662    0.0948   -0.3337 P   0  0  0  0  0  0  0  0  0  0  0  0
   -1.4986   -0.9053   -0.1910 O   0  0  0  0  0  0  0  0  0  0  0  0
   -2.6770    1.0220    0.9990 O   0  0  0  0  0  0  0  0  0  0  0  0
   -2.7243    0.9061   -1.6034 O   0  0  0  0  0  0  0  0  0  0  0  0
    4.1012    1.8884   -0.1045 O   0  0  0  0  0  0  0  0  0  0  0  0
    4.7392   -0.2074    0.0911 O   0  0  0  0  0  0  0  0  0  0  0  0
    3.8464    0.6642   -0.0245 N   0  0  0  0  0  0  0  0  0  0  0  0
    2.1487   -1.1039    0.0192 C   0  0  0  0  0  0  0  0  0  0  0  0
   -0.1839   -0.5258   -0.1506 C   0  0  0  0  0  0  0  0  0  0  0  0
    2.4874    0.2465   -0.0655 C   0  0  0  0  0  0  0  0  0  0  0  0
    0.8094   -1.4911   -0.0234 C   0  0  0  0  0  0  0  0  0  0  0  0
    0.1472    0.8225   -0.2358 C   0  0  0  0  0  0  0  0  0  0  0  0
    1.4866    1.2097   -0.1931 C   0  0  0  0  0  0  0  0  0  0  0  0
    3.1968   -2.1610    0.1570 C   0  0  0  0  0  0  0  0  0  0  0  0
   -5.8761    0.1593   -0.3423 C   0  0  0  0  0  0  0  0  0  0  0  0
   -2.7026    0.4256    2.2842 C   0  0  0  0  0  0  0  0  0  0  0  0
  1  2  1  0
  1 16  1  0
  2  3  1  0
  2  4  1  0
  2  5  2  0
  3 10  1  0
  4 17  1  0
  6  8  1  0
  7  8  2  0
  8 11  1  0
  9 11  2  0
  9 12  1  0
  9 15  1  0
 10 12  2  0
 10 13  1  0
 11 14  1  0
 13 14  2  0
M  CHG  2   6  -1   8   1
M  END
>  <PUBCHEM_COMPOUND_CID>  (1) 
18763

>  <PUBCHEM_CONFORMER_RMSD>  (1) 
0.6

>  <PUBCHEM_CONFORMER_DIVERSEORDER>  (1) 
2
89
76
80
11
99
62
19
15
98
96
37
31
14
42
70
10
75
67
74
66
21
63
72
23
45
59
5
83
44
60
92
40
85
48
36
94
1
79
18
71
97
38
86
81
33
90
9
68
65
13
47
41
91
30
17
7
95
88
35
58
43
12
82
93
49
6
22
61
16
3
73
39
69
32
34
77
55
64
78
84
56
52
28
54
46
53
50
51
57
24
26
87
29
20
8
25
4
27

>  <PUBCHEM_MMFF94_PARTIAL_CHARGES>  (1) 
20
1 -0.48
10 0.08
11 0.13
12 -0.15
13 -0.15
14 -0.15
15 0.14
16 0.23
17 0.28
18 0.15
19 0.15
2 1.49
20 0.15
3 -0.35
4 -0.55
5 -0.7
6 -0.52
7 -0.52
8 0.91
9 -0.14

>  <PUBCHEM_EFFECTIVE_ROTOR_COUNT>  (1) 
5

>  <PUBCHEM_PHARMACOPHORE_FEATURES>  (1) 
5
1 5 acceptor
1 6 acceptor
1 6 anion
1 7 acceptor
6 9 10 11 12 13 14 rings

>  <PUBCHEM_HEAVY_ATOM_COUNT>  (1) 
17

>  <PUBCHEM_ATOM_DEF_STEREO_COUNT>  (1) 
0

>  <PUBCHEM_ATOM_UDEF_STEREO_COUNT>  (1) 
1

>  <PUBCHEM_BOND_DEF_STEREO_COUNT>  (1) 
0

>  <PUBCHEM_BOND_UDEF_STEREO_COUNT>  (1) 
0

>  <PUBCHEM_ISOTOPIC_ATOM_COUNT>  (1) 
0

>  <PUBCHEM_COMPONENT_COUNT>  (1) 
1

>  <PUBCHEM_CACTVS_TAUTO_COUNT>  (1) 
1

>  <PUBCHEM_CONFORMER_ID>  (1) 
0000494B00000002

>  <PUBCHEM_MMFF94_ENERGY>  (1) 
45.3562

>  <PUBCHEM_FEATURE_SELFOVERLAP>  (1) 
25.452

>  <PUBCHEM_SHAPE_FINGERPRINT>  (1) 
10980938 120 18410857651099695870
11471102 20 18408884049155078374
11615757 297 18343303673394117617
12236239 1 17989488519936486773
12916754 54 18339079289907489479
13533116 47 18131067096080434571
14144814 61 18343303639039731906
15048467 5 18341892979556087245
15196674 1 18337388245223745021
15375358 24 17313103072769050145
16945 1 18409170991751698844
17834072 33 18342455958656355951
18186145 218 18341056233404904006
18522853 276 18202282511355302017
19422 9 18059860515030191694
200 152 18272366486712134079
20279233 1 17240769471094922107
20645477 70 18263076639422237550
21267235 1 18411986836540735390
22854114 59 18334577953558767047
23048698 100 18341614797948835187
23402539 116 17275098453624089277
23402655 69 18413383233672100359
23532345 1 18259988197190360844
23557571 272 16877937200812395534
23559900 14 16081378427512607634
2748010 2 18118677721970244068
3545911 37 18409448102577692527
474 4 18268430316341350432
5104073 3 18336262354038608937
77492 1 17846779572556391370

>  <PUBCHEM_SHAPE_MULTIPOLES>  (1) 
323.22
10.15
1.67
1.12
5.13
0.33
0.58
-0.28
-0.59
-1.54
-0.01
1.39
-0.31
-0.41

>  <PUBCHEM_SHAPE_SELFOVERLAP>  (1) 
632.259

>  <PUBCHEM_SHAPE_VOLUME>  (1) 
197.5

>  <PUBCHEM_COORDINATE_TYPE>  (1) 
2
5
10

$$$$
