18772
     RDKit          3D

 15 15  0  0  0  0  0  0  0  0999 V2000
   -2.9015   -0.6622   -1.4312 O   0  0  0  0  0  0  0  0  0  0  0  0
   -4.7003   -1.6931    0.3026 O   0  0  0  0  0  0  0  0  0  0  0  0
   -3.9811   -0.5296    0.6061 N   0  0  0  0  0  0  0  0  0  0  0  0
    3.8672   -0.8507   -0.0349 C   0  0  0  0  0  0  0  0  0  0  0  0
    3.3716    0.5618    0.3319 C   0  0  0  0  0  0  0  0  0  0  0  0
    1.8722    0.7196    0.2621 C   0  0  0  0  0  0  0  0  0  0  0  0
    3.2213   -1.9302    0.8373 C   0  0  0  0  0  0  0  0  0  0  0  0
    3.5737   -1.1361   -1.5098 C   0  0  0  0  0  0  0  0  0  0  0  0
    1.1083    0.4580    1.3886 C   0  0  0  0  0  0  0  0  0  0  0  0
    1.2860    1.1225   -0.9274 C   0  0  0  0  0  0  0  0  0  0  0  0
   -0.8815    1.0083    0.1335 C   0  0  0  0  0  0  0  0  0  0  0  0
   -0.2775    0.6034    1.3239 C   0  0  0  0  0  0  0  0  0  0  0  0
   -0.0998    1.2678   -0.9921 C   0  0  0  0  0  0  0  0  0  0  0  0
   -2.3631    1.1633    0.0643 C   0  0  0  0  0  0  0  0  0  0  0  0
   -3.0955   -0.1029   -0.3548 C   0  0  0  0  0  0  0  0  0  0  0  0
  1 15  2  0
  2  3  1  0
  3 15  1  0
  4  5  1  0
  4  7  1  0
  4  8  1  0
  5  6  1  0
  6  9  2  0
  6 10  1  0
  9 12  1  0
 10 13  2  0
 11 12  2  0
 11 13  1  0
 11 14  1  0
 14 15  1  0
M  END
>  <PUBCHEM_COMPOUND_CID>  (1) 
18772

>  <PUBCHEM_CONFORMER_RMSD>  (1) 
0.6

>  <PUBCHEM_CONFORMER_DIVERSEORDER>  (1) 
3
2
11
12
1
4
10
7
9
5
8
6

>  <PUBCHEM_MMFF94_PARTIAL_CHARGES>  (1) 
18
1 -0.57
10 -0.15
11 -0.14
12 -0.15
13 -0.15
14 0.2
15 0.57
2 -0.44
25 0.15
26 0.15
27 0.15
28 0.15
3 -0.39
31 0.37
32 0.4
5 0.14
6 -0.14
9 -0.15

>  <PUBCHEM_EFFECTIVE_ROTOR_COUNT>  (1) 
5

>  <PUBCHEM_PHARMACOPHORE_FEATURES>  (1) 
4
1 1 acceptor
1 3 donor
3 4 7 8 hydrophobe
6 6 9 10 11 12 13 rings

>  <PUBCHEM_HEAVY_ATOM_COUNT>  (1) 
15

>  <PUBCHEM_ATOM_DEF_STEREO_COUNT>  (1) 
0

>  <PUBCHEM_ATOM_UDEF_STEREO_COUNT>  (1) 
0

>  <PUBCHEM_BOND_DEF_STEREO_COUNT>  (1) 
0

>  <PUBCHEM_BOND_UDEF_STEREO_COUNT>  (1) 
0

>  <PUBCHEM_ISOTOPIC_ATOM_COUNT>  (1) 
0

>  <PUBCHEM_COMPONENT_COUNT>  (1) 
1

>  <PUBCHEM_CACTVS_TAUTO_COUNT>  (1) 
3

>  <PUBCHEM_CONFORMER_ID>  (1) 
0000495400000003

>  <PUBCHEM_MMFF94_ENERGY>  (1) 
32.7772

>  <PUBCHEM_FEATURE_SELFOVERLAP>  (1) 
20.297

>  <PUBCHEM_SHAPE_FINGERPRINT>  (1) 
10498660 4 12612755735176071135
11206711 2 16298661677325473164
11543360 7 17603874402991428820
11769659 78 18342166731332169656
11796584 16 18343865502793955207
12251169 10 16056599884897716393
124424 183 17203322269969947025
12633257 1 16271648983508294467
12644460 14 16701729566588353392
12670546 177 16515696571086788134
12824470 246 18341333296959520091
13296908 3 18333724719624649125
13705890 14 18113334211091060032
14123260 362 7853566954637791455
14251710 61 18343309136619210294
14252887 29 17703789198319860370
14289901 80 18131059467933544408
14350558 41 18272093798737305780
14576447 43 18186803586659770394
15209294 21 11743836945614493880
15239191 94 18343015575551657558
15342816 4 18333734589733698014
15375462 189 17917706924364848594
15477762 27 18187365454233862744
16945 1 16443067158167580552
18186145 218 14779843598390235748
19026448 4 18343294843073784560
193927 3 18340780289987608199
19422 9 18335707152174891129
20112054 13 12895351101186764657
20281475 54 18187929426326125576
20388580 30 18114184180797727597
20645477 70 18059278916376107989
20671657 53 18113335314581520892
20871999 31 17095531694479241739
22485316 2 18342731905851978912
23114952 82 14419519288028689394
231179 274 8935004758699813822
23382010 3 15430044278767812472
23402539 116 17386001703414186308
23402655 69 15647595806093208637
2748010 2 16372721636841182272
2838139 119 11602829037940427134
4028521 119 11025794306064693015
449060 23 18040434365118157885
4990 188 17312819381378237537
58051976 100 18338517426454284589
633830 44 15864926300414616488
76465 3 18042115467406137378
94968 8 18408044000839013794

>  <PUBCHEM_SHAPE_MULTIPOLES>  (1) 
291.97
8.01
1.64
1.35
3.94
0.53
-0.12
5.16
-0.58
-0.02
-0.01
-0.44
0.07
0.08

>  <PUBCHEM_SHAPE_SELFOVERLAP>  (1) 
591.67

>  <PUBCHEM_SHAPE_VOLUME>  (1) 
171.3

>  <PUBCHEM_COORDINATE_TYPE>  (1) 
2
5
10

$$$$
