18777
     RDKit          3D

 45 50  0  0  0  0  0  0  0  0999 V2000
    7.2162    2.2741    0.1613 S   0  0  0  0  0  0  0  0  0  0  0  0
  -10.2409   -1.2532   -0.0389 S   0  0  0  0  0  0  0  0  0  0  0  0
    7.8099    1.9461   -1.3220 O   0  0  0  0  0  0  0  0  0  0  0  0
    7.6107    3.6298    0.4961 O   0  0  0  0  0  0  0  0  0  0  0  0
    7.5269    1.1613    1.0379 O   0  0  0  0  0  0  0  0  0  0  0  0
  -10.3194   -1.3652   -1.6682 O   0  0  0  0  0  0  0  0  0  0  0  0
   -9.5957   -2.4676    0.4392 O   0  0  0  0  0  0  0  0  0  0  0  0
  -11.5559   -0.8702    0.4512 O   0  0  0  0  0  0  0  0  0  0  0  0
    6.5997   -0.4291   -0.2916 N   0  0  0  0  0  0  0  0  0  0  0  0
    1.0748    0.2953   -0.8543 N   0  0  0  0  0  0  0  0  0  0  0  0
    0.5151    0.1635    0.2577 N   0  0  0  0  0  0  0  0  0  0  0  0
   -5.0102    0.8184   -0.3167 N   0  0  0  0  0  0  0  0  0  0  0  0
   -5.5670    0.7210    0.8001 N   0  0  0  0  0  0  0  0  0  0  0  0
    4.6654    1.1454   -0.3015 C   0  0  0  0  0  0  0  0  0  0  0  0
    3.2673    1.3109   -0.4459 C   0  0  0  0  0  0  0  0  0  0  0  0
    5.2205   -0.1395   -0.4169 C   0  0  0  0  0  0  0  0  0  0  0  0
    5.4673    2.2697   -0.0459 C   0  0  0  0  0  0  0  0  0  0  0  0
    2.4675    0.1864   -0.7013 C   0  0  0  0  0  0  0  0  0  0  0  0
    2.7123    2.5957   -0.3305 C   0  0  0  0  0  0  0  0  0  0  0  0
    4.4088   -1.2453   -0.6712 C   0  0  0  0  0  0  0  0  0  0  0  0
    4.8988    3.5389    0.0656 C   0  0  0  0  0  0  0  0  0  0  0  0
    3.0339   -1.0827   -0.8131 C   0  0  0  0  0  0  0  0  0  0  0  0
    3.5240    3.7016   -0.0764 C   0  0  0  0  0  0  0  0  0  0  0  0
   -1.6777   -0.8518   -0.1509 C   0  0  0  0  0  0  0  0  0  0  0  0
    7.2943   -1.5651    0.1577 C   0  0  0  0  0  0  0  0  0  0  0  0
   -3.0757   -0.6861   -0.2958 C   0  0  0  0  0  0  0  0  0  0  0  0
   -0.8758    0.2724    0.1054 C   0  0  0  0  0  0  0  0  0  0  0  0
   -3.6307    0.5988   -0.1800 C   0  0  0  0  0  0  0  0  0  0  0  0
   -1.4442    1.5416    0.2174 C   0  0  0  0  0  0  0  0  0  0  0  0
   -1.1227   -2.1366   -0.2668 C   0  0  0  0  0  0  0  0  0  0  0  0
   -3.8775   -1.8103   -0.5522 C   0  0  0  0  0  0  0  0  0  0  0  0
   -2.8189    1.7045    0.0749 C   0  0  0  0  0  0  0  0  0  0  0  0
    8.5556   -1.8683   -0.3621 C   0  0  0  0  0  0  0  0  0  0  0  0
    6.7283   -2.3974    1.1272 C   0  0  0  0  0  0  0  0  0  0  0  0
   -1.9344   -3.2423   -0.5217 C   0  0  0  0  0  0  0  0  0  0  0  0
   -3.3092   -3.0794   -0.6641 C   0  0  0  0  0  0  0  0  0  0  0  0
    9.2457   -2.9951    0.0844 C   0  0  0  0  0  0  0  0  0  0  0  0
    7.4185   -3.5243    1.5737 C   0  0  0  0  0  0  0  0  0  0  0  0
    8.6773   -3.8232    1.0523 C   0  0  0  0  0  0  0  0  0  0  0  0
   -6.9484    0.9412    0.6638 C   0  0  0  0  0  0  0  0  0  0  0  0
   -9.1689    0.0877    0.2776 C   0  0  0  0  0  0  0  0  0  0  0  0
   -7.7979   -0.1314    0.4110 C   0  0  0  0  0  0  0  0  0  0  0  0
   -7.4564    2.2310    0.7846 C   0  0  0  0  0  0  0  0  0  0  0  0
   -9.6837    1.3787    0.3977 C   0  0  0  0  0  0  0  0  0  0  0  0
   -8.8274    2.4502    0.6512 C   0  0  0  0  0  0  0  0  0  0  0  0
  1  3  1  0
  1  4  2  0
  1  5  2  0
  1 17  1  0
  2  6  1  0
  2  7  2  0
  2  8  2  0
  2 41  1  0
  9 16  1  0
  9 25  1  0
 10 11  2  0
 10 18  1  0
 11 27  1  0
 12 13  2  0
 12 28  1  0
 13 40  1  0
 14 15  1  0
 14 16  1  0
 14 17  2  0
 15 18  1  0
 15 19  2  0
 16 20  2  0
 17 21  1  0
 18 22  2  0
 19 23  1  0
 20 22  1  0
 21 23  2  0
 24 26  2  0
 24 27  1  0
 24 30  1  0
 25 33  2  0
 25 34  1  0
 26 28  1  0
 26 31  1  0
 27 29  2  0
 28 32  2  0
 29 32  1  0
 30 35  2  0
 31 36  2  0
 33 37  1  0
 34 38  2  0
 35 36  1  0
 37 39  2  0
 38 39  1  0
 40 42  1  0
 40 43  2  0
 41 42  2  0
 41 44  1  0
 43 45  1  0
 44 45  2  0
M  END
>  <PUBCHEM_COMPOUND_CID>  (1) 
18777

>  <PUBCHEM_CONFORMER_RMSD>  (1) 
1

>  <PUBCHEM_CONFORMER_DIVERSEORDER>  (1) 
1
37
4
44
36
13
30
38
22
40
29
33
2
17
39
27
43
41
9
28
34
5
42
45
24
23
25
10
26
20
16
21
31
46
8
18
35
6
11
32
14
7
12
19
15
3

>  <PUBCHEM_MMFF94_PARTIAL_CHARGES>  (1) 
64
1 1.49
10 -0.18
11 -0.18
12 -0.18
13 -0.18
16 0.1
17 -0.01
18 0.18
19 -0.15
2 1.49
20 -0.15
21 -0.15
22 -0.15
23 -0.15
25 0.1
27 0.18
28 0.18
29 -0.15
3 -0.68
30 -0.15
31 -0.15
32 -0.15
33 -0.15
34 -0.15
35 -0.15
36 -0.15
37 -0.15
38 -0.15
39 -0.15
4 -0.65
40 0.18
41 -0.01
42 -0.15
43 -0.15
44 -0.15
45 -0.15
46 0.15
47 0.15
48 0.15
49 0.15
5 -0.65
50 0.4
51 0.15
52 0.15
53 0.15
54 0.15
55 0.15
56 0.15
57 0.15
58 0.15
59 0.15
6 -0.68
60 0.5
61 0.15
62 0.15
63 0.15
64 0.15
65 0.15
66 0.15
67 0.15
68 0.5
7 -0.65
8 -0.65
9 -0.6

>  <PUBCHEM_EFFECTIVE_ROTOR_COUNT>  (1) 
8

>  <PUBCHEM_PHARMACOPHORE_FEATURES>  (1) 
16
1 3 acceptor
1 4 acceptor
1 5 acceptor
1 6 acceptor
1 7 acceptor
1 8 acceptor
1 9 cation
1 9 donor
4 1 3 4 5 anion
4 2 6 7 8 anion
6 14 15 16 18 20 22 rings
6 14 15 17 19 21 23 rings
6 24 26 27 28 29 32 rings
6 24 26 30 31 35 36 rings
6 25 33 34 37 38 39 rings
6 40 41 42 43 44 45 rings

>  <PUBCHEM_HEAVY_ATOM_COUNT>  (1) 
45

>  <PUBCHEM_ATOM_DEF_STEREO_COUNT>  (1) 
0

>  <PUBCHEM_ATOM_UDEF_STEREO_COUNT>  (1) 
0

>  <PUBCHEM_BOND_DEF_STEREO_COUNT>  (1) 
0

>  <PUBCHEM_BOND_UDEF_STEREO_COUNT>  (1) 
0

>  <PUBCHEM_ISOTOPIC_ATOM_COUNT>  (1) 
0

>  <PUBCHEM_COMPONENT_COUNT>  (1) 
1

>  <PUBCHEM_CACTVS_TAUTO_COUNT>  (1) 
3

>  <PUBCHEM_CONFORMER_ID>  (1) 
0000495900000001

>  <PUBCHEM_MMFF94_ENERGY>  (1) 
163.7345

>  <PUBCHEM_FEATURE_SELFOVERLAP>  (1) 
81.366

>  <PUBCHEM_SHAPE_FINGERPRINT>  (1) 
10580692 12 18411420626411763184
11456790 92 18060702758312078073
12013929 2 18114463358599995745
12089408 11 18342459231959603025
12107183 9 18340206302564055810
13811026 1 18343308063526161335
14400156 96 18187369869951322044
15064986 266 18337397161528982895
15065858 18 18187362134894179509
15347591 1 18266463285406415194
15554971 5 18202286897065927249
15840311 113 18334297578447359252
16758388 162 18411976958036671120
19301679 30 18051412869512599358
19302320 297 18412827967478773846
19841028 212 18409449172478184848
21781055 127 17489315130994381363
249057 3 18412265008687283686
2851757 15 18342179973164729839
335507 130 17989204846464184735
3525247 94 18411134754116710599
4073 2 18116998982821664930
4149490 64 18410857672094757563
45377200 153 15213886872806066537
5028188 123 13479429274843775187
6523845 18 17095522877043622155
99344 41 18341897381575721479
9962374 69 18411133628070206231

>  <PUBCHEM_SHAPE_MULTIPOLES>  (1) 
873.66
39.92
4.56
0.98
59.88
0.07
0.03
11.66
6.9
-9.53
0.67
-0.42
0.35
-3.38

>  <PUBCHEM_SHAPE_SELFOVERLAP>  (1) 
1934.773

>  <PUBCHEM_SHAPE_VOLUME>  (1) 
466.3

>  <PUBCHEM_COORDINATE_TYPE>  (1) 
2
5
10

$$$$
