18775
     RDKit          3D

 10  9  0  0  0  0  0  0  0  0999 V2000
   -1.0345   -0.3246    2.1324 S   0  0  0  0  0  0  0  0  0  0  0  0
   -0.7060    0.0090    0.2421 P   0  0  0  0  0  0  0  0  0  0  0  0
    0.7553    0.6111   -0.1373 O   0  0  0  0  0  0  0  0  0  0  0  0
   -0.7897   -1.2744   -0.7539 O   0  0  0  0  0  0  0  0  0  0  0  0
   -1.6954    1.0639   -0.5019 O   0  0  0  0  0  0  0  0  0  0  0  0
    2.0682   -1.1964    0.3894 O   0  0  0  0  0  0  0  0  0  0  0  0
    1.9357   -0.0513   -0.0178 C   0  0  0  0  0  0  0  0  0  0  0  0
   -1.9417   -2.1002   -0.7411 C   0  0  0  0  0  0  0  0  0  0  0  0
   -1.6547    2.4360   -0.1481 C   0  0  0  0  0  0  0  0  0  0  0  0
    3.0627    0.8270   -0.4638 C   0  0  0  0  0  0  0  0  0  0  0  0
  1  2  2  0
  2  3  1  0
  2  4  1  0
  2  5  1  0
  3  7  1  0
  4  8  1  0
  5  9  1  0
  6  7  2  0
  7 10  1  0
M  END
>  <PUBCHEM_COMPOUND_CID>  (1) 
18775

>  <PUBCHEM_CONFORMER_RMSD>  (1) 
0.6

>  <PUBCHEM_CONFORMER_DIVERSEORDER>  (1) 
1
2
38
35
20
23
11
6
16
36
8
9
5
21
17
40
28
19
27
25
3
4
15
18
31
10
34
7
13
12
30
22
32
29
37
14
24
26
39
33

>  <PUBCHEM_MMFF94_PARTIAL_CHARGES>  (1) 
10
1 -0.68
10 0.06
2 1.49
3 -0.42
4 -0.55
5 -0.55
6 -0.57
7 0.66
8 0.28
9 0.28

>  <PUBCHEM_EFFECTIVE_ROTOR_COUNT>  (1) 
4

>  <PUBCHEM_PHARMACOPHORE_FEATURES>  (1) 
1
1 6 acceptor

>  <PUBCHEM_HEAVY_ATOM_COUNT>  (1) 
10

>  <PUBCHEM_ATOM_DEF_STEREO_COUNT>  (1) 
0

>  <PUBCHEM_ATOM_UDEF_STEREO_COUNT>  (1) 
0

>  <PUBCHEM_BOND_DEF_STEREO_COUNT>  (1) 
0

>  <PUBCHEM_BOND_UDEF_STEREO_COUNT>  (1) 
0

>  <PUBCHEM_ISOTOPIC_ATOM_COUNT>  (1) 
0

>  <PUBCHEM_COMPONENT_COUNT>  (1) 
1

>  <PUBCHEM_CACTVS_TAUTO_COUNT>  (1) 
1

>  <PUBCHEM_CONFORMER_ID>  (1) 
0000495700000001

>  <PUBCHEM_MMFF94_ENERGY>  (1) 
6.7924

>  <PUBCHEM_FEATURE_SELFOVERLAP>  (1) 
5.074

>  <PUBCHEM_SHAPE_FINGERPRINT>  (1) 
12897270 3 18266168629354239566
12932764 1 18341065081237954656
20082192 1 18059305287744206870
20653085 51 18195252113400344160
21040471 1 18197771111824774364
21524375 3 17972033639385753629
23211744 41 17608661504931278501
24536 1 17385728027702348800
3248919 1 17385724733794833052
59915604 170 17609198397027607468
68250623 7 17971471797881619331
76951 1 16812313034356136155

>  <PUBCHEM_SHAPE_MULTIPOLES>  (1) 
190.02
3.58
2.15
1.34
3.21
0.72
0.96
0.01
-0.57
-1.68
-0.67
-0.81
-0.35
-0.35

>  <PUBCHEM_SHAPE_SELFOVERLAP>  (1) 
326.66

>  <PUBCHEM_SHAPE_VOLUME>  (1) 
128.5

>  <PUBCHEM_COORDINATE_TYPE>  (1) 
2
5
10

$$$$
