18784
     RDKit          3D

 17 20  0  0  0  0  0  0  0  0999 V2000
   -0.5625    0.3547    0.0000 C   0  0  0  0  0  0  0  0  0  0  0  0
    0.8193    0.0407    0.0000 C   0  0  0  0  0  0  0  0  0  0  0  0
   -1.5232   -0.6834    0.0001 C   0  0  0  0  0  0  0  0  0  0  0  0
    1.2373   -1.3104    0.0001 C   0  0  0  0  0  0  0  0  0  0  0  0
   -0.9805    1.7059    0.0000 C   0  0  0  0  0  0  0  0  0  0  0  0
    1.7800    1.0788    0.0000 C   0  0  0  0  0  0  0  0  0  0  0  0
   -1.0904   -2.0163    0.0001 C   0  0  0  0  0  0  0  0  0  0  0  0
    0.2712   -2.3256    0.0001 C   0  0  0  0  0  0  0  0  0  0  0  0
   -0.0144    2.7210   -0.0001 C   0  0  0  0  0  0  0  0  0  0  0  0
    1.3472    2.4117   -0.0001 C   0  0  0  0  0  0  0  0  0  0  0  0
   -2.8871   -0.3565    0.0001 C   0  0  0  0  0  0  0  0  0  0  0  0
    2.6085   -1.6047    0.0001 C   0  0  0  0  0  0  0  0  0  0  0  0
   -2.3518    2.0002    0.0000 C   0  0  0  0  0  0  0  0  0  0  0  0
    3.1438    0.7519   -0.0001 C   0  0  0  0  0  0  0  0  0  0  0  0
   -3.2970    0.9758    0.0001 C   0  0  0  0  0  0  0  0  0  0  0  0
   -2.0540   -3.1635   -0.0004 C   0  0  0  0  0  0  0  0  0  0  0  0
    3.5537   -0.5804    0.0000 C   0  0  0  0  0  0  0  0  0  0  0  0
  1  2  2  0
  1  3  1  0
  1  5  1  0
  2  4  1  0
  2  6  1  0
  3  7  2  0
  3 11  1  0
  4  8  2  0
  4 12  1  0
  5  9  1  0
  5 13  2  0
  6 10  1  0
  6 14  2  0
  7  8  1  0
  7 16  1  0
  9 10  2  0
 11 15  2  0
 12 17  2  0
 13 15  1  0
 14 17  1  0
M  END
>  <PUBCHEM_COMPOUND_CID>  (1) 
18784

>  <PUBCHEM_CONFORMER_RMSD>  (1) 
0.4

>  <PUBCHEM_CONFORMER_DIVERSEORDER>  (1) 
1

>  <PUBCHEM_MMFF94_PARTIAL_CHARGES>  (1) 
20
10 -0.15
11 -0.15
12 -0.15
13 -0.15
14 -0.15
15 -0.15
16 0.14
17 -0.15
18 0.15
19 0.15
20 0.15
21 0.15
22 0.15
23 0.15
24 0.15
25 0.15
29 0.15
7 -0.14
8 -0.15
9 -0.15

>  <PUBCHEM_EFFECTIVE_ROTOR_COUNT>  (1) 
0

>  <PUBCHEM_PHARMACOPHORE_FEATURES>  (1) 
4
6 1 2 3 4 7 8 rings
6 1 2 5 6 9 10 rings
6 1 3 5 11 13 15 rings
6 2 4 6 12 14 17 rings

>  <PUBCHEM_HEAVY_ATOM_COUNT>  (1) 
17

>  <PUBCHEM_ATOM_DEF_STEREO_COUNT>  (1) 
0

>  <PUBCHEM_ATOM_UDEF_STEREO_COUNT>  (1) 
0

>  <PUBCHEM_BOND_DEF_STEREO_COUNT>  (1) 
0

>  <PUBCHEM_BOND_UDEF_STEREO_COUNT>  (1) 
0

>  <PUBCHEM_ISOTOPIC_ATOM_COUNT>  (1) 
0

>  <PUBCHEM_COMPONENT_COUNT>  (1) 
1

>  <PUBCHEM_CACTVS_TAUTO_COUNT>  (1) 
1

>  <PUBCHEM_CONFORMER_ID>  (1) 
0000496000000001

>  <PUBCHEM_MMFF94_ENERGY>  (1) 
60.336

>  <PUBCHEM_FEATURE_SELFOVERLAP>  (1) 
20.429

>  <PUBCHEM_SHAPE_FINGERPRINT>  (1) 
10411042 1 18122344854894547074
10693767 8 17841410567674986399
10967382 1 18338797810260959751
11132069 177 18340198588359706600
11680986 33 18267861872792019305
12382932 28 18412260662064212194
13140716 1 18267021841518304033
13380535 76 18340202990416510703
14178342 30 18267008630520940808
14790565 3 18195547899446169936
15042514 8 18337108977866070954
15196674 1 18338516331005171012
15309172 13 18267593394544589097
16945 1 18410575123317830052
193761 8 18194402422877055109
19591789 44 18266464200308393219
20028762 73 18202002153672365415
20510252 161 18127689336024506760
20588541 1 18340771450992034948
20739085 24 17904795209265662449
20905425 154 17981052125850848356
21267235 1 18338807718782380998
21501502 16 18193559088842151668
23184049 29 18266739271478134166
2334 1 17906452477966900870
23402539 116 18270385093111480734
23419403 2 16182331264068420569
23463225 33 18263925449571539656
23559900 14 18343023264698119460
238 59 16108338774516394103
2748010 2 18194121806899046045
335352 9 18266459810751213574
34934 24 18409440401943774448
350125 39 18194126449806269713
43471831 8 17903919946243153915
528886 8 18339073783474313152
54173680 148 18410013268766055882
589210 1 18122344837402629561
7364860 26 17764873884981324088
7832392 63 18411980286451721802
8809292 202 18407763642210954338
9709674 26 18343022190139118206

>  <PUBCHEM_SHAPE_MULTIPOLES>  (1) 
349.85
4.75
3.42
0.62
0.98
0.56
0
0.12
0
-1.09
0
0
0
0

>  <PUBCHEM_SHAPE_SELFOVERLAP>  (1) 
814.664

>  <PUBCHEM_SHAPE_VOLUME>  (1) 
162.8

>  <PUBCHEM_COORDINATE_TYPE>  (1) 
2
5
10

$$$$
