18780
     RDKit          3D

 19 22  0  0  0  0  0  0  0  0999 V2000
    0.3264   -0.3927    0.0001 C   0  0  0  0  0  0  0  0  0  0  0  0
    1.7482   -0.1346    0.0001 C   0  0  0  0  0  0  0  0  0  0  0  0
   -0.6080    0.6840    0.0001 C   0  0  0  0  0  0  0  0  0  0  0  0
   -2.0298    0.4260    0.0002 C   0  0  0  0  0  0  0  0  0  0  0  0
    2.2087    1.2037   -0.0003 C   0  0  0  0  0  0  0  0  0  0  0  0
    2.7507   -1.1406    0.0004 C   0  0  0  0  0  0  0  0  0  0  0  0
   -2.4904   -0.9124   -0.0003 C   0  0  0  0  0  0  0  0  0  0  0  0
   -0.0807    1.9913    0.0001 C   0  0  0  0  0  0  0  0  0  0  0  0
   -0.2010   -1.7001    0.0000 C   0  0  0  0  0  0  0  0  0  0  0  0
    1.2888    2.2469   -0.0003 C   0  0  0  0  0  0  0  0  0  0  0  0
   -1.5704   -1.9557   -0.0004 C   0  0  0  0  0  0  0  0  0  0  0  0
    3.5838    1.4972   -0.0003 C   0  0  0  0  0  0  0  0  0  0  0  0
   -3.0324    1.4320    0.0006 C   0  0  0  0  0  0  0  0  0  0  0  0
    4.1162   -0.8397    0.0002 C   0  0  0  0  0  0  0  0  0  0  0  0
   -3.8656   -1.2058   -0.0005 C   0  0  0  0  0  0  0  0  0  0  0  0
    4.5332    0.4813   -0.0002 C   0  0  0  0  0  0  0  0  0  0  0  0
    2.5351   -2.6221    0.0004 C   0  0  0  0  0  0  0  0  0  0  0  0
   -4.3979    1.1311    0.0004 C   0  0  0  0  0  0  0  0  0  0  0  0
   -4.8149   -0.1898   -0.0002 C   0  0  0  0  0  0  0  0  0  0  0  0
  1  2  1  0
  1  3  2  0
  1  9  1  0
  2  5  1  0
  2  6  2  0
  3  4  1  0
  3  8  1  0
  4  7  2  0
  4 13  1  0
  5 10  1  0
  5 12  2  0
  6 14  1  0
  6 17  1  0
  7 11  1  0
  7 15  1  0
  8 10  2  0
  9 11  2  0
 12 16  1  0
 13 18  2  0
 14 16  2  0
 15 19  2  0
 18 19  1  0
M  END
>  <PUBCHEM_COMPOUND_CID>  (1) 
18780

>  <PUBCHEM_CONFORMER_RMSD>  (1) 
0.4

>  <PUBCHEM_CONFORMER_DIVERSEORDER>  (1) 
1

>  <PUBCHEM_MMFF94_PARTIAL_CHARGES>  (1) 
24
10 -0.15
11 -0.15
12 -0.15
13 -0.15
14 -0.15
15 -0.15
16 -0.15
17 0.14
18 -0.15
19 -0.15
20 0.15
21 0.15
22 0.15
23 0.15
24 0.15
25 0.15
26 0.15
27 0.15
28 0.15
32 0.15
33 0.15
6 -0.14
8 -0.15
9 -0.15

>  <PUBCHEM_EFFECTIVE_ROTOR_COUNT>  (1) 
0

>  <PUBCHEM_PHARMACOPHORE_FEATURES>  (1) 
4
6 1 2 3 5 8 10 rings
6 1 3 4 7 9 11 rings
6 2 5 6 12 14 16 rings
6 4 7 13 15 18 19 rings

>  <PUBCHEM_HEAVY_ATOM_COUNT>  (1) 
19

>  <PUBCHEM_ATOM_DEF_STEREO_COUNT>  (1) 
0

>  <PUBCHEM_ATOM_UDEF_STEREO_COUNT>  (1) 
0

>  <PUBCHEM_BOND_DEF_STEREO_COUNT>  (1) 
0

>  <PUBCHEM_BOND_UDEF_STEREO_COUNT>  (1) 
0

>  <PUBCHEM_ISOTOPIC_ATOM_COUNT>  (1) 
0

>  <PUBCHEM_COMPONENT_COUNT>  (1) 
1

>  <PUBCHEM_CACTVS_TAUTO_COUNT>  (1) 
1

>  <PUBCHEM_CONFORMER_ID>  (1) 
0000495C00000001

>  <PUBCHEM_MMFF94_ENERGY>  (1) 
84.7566

>  <PUBCHEM_FEATURE_SELFOVERLAP>  (1) 
20.367

>  <PUBCHEM_SHAPE_FINGERPRINT>  (1) 
10062212 137 18272926137856411103
10411042 1 17834114143677506886
10608611 8 18410853299802050305
10616163 171 18339644567401070775
10906281 52 18263098711717704800
10967382 1 18410573972498748774
11132069 177 18411132537132344432
11471102 20 18410571803534924684
11578080 2 16842748628594155931
116883 192 18126853690154863414
12011746 2 18411702079870997940
12107183 9 17692818090561080609
12236239 1 17846780707013274409
13132413 78 18412545409605802133
13140716 1 18122905601270451560
13583140 156 14116945799898693903
138480 1 17978229353201721538
13862211 1 18410568474877592202
14178342 30 17981023513026889130
14790565 3 18048323533374352036
14866123 147 17118330897004817898
15196674 1 18410575088958046209
15442244 35 18339643326128609273
15536298 74 18413952784394162794
1601671 61 18410857659510340908
16945 1 18194401323307320612
17492 89 18412263960668752031
17804303 29 18411421743219161765
1813 80 17167864157844807012
18186145 218 17967245395153245583
19591789 44 18265332811422530443
200 152 18060416937033905445
20645477 70 18342458114608827278
21029758 11 18342735221909681337
21267235 1 18410865355996887182
21279426 13 18266459793560801413
21421861 104 17896874362090504834
21452121 103 18200302338622886152
221490 88 18263933300676837395
2334 1 18410855464433717570
23402539 116 18271799129351952165
23463225 33 18410012117535076230
23559900 14 18341328890972193198
2748010 2 18410292484415499374
3004659 81 18260833662188426294
335352 9 18338797805981797660
34934 24 18411694405091610658
350125 39 18410858768129023881
3545911 37 18410857672194652745
4214541 1 18410856551414085697
474 4 17459475627121193724
495365 180 17560786767234443152
5104073 3 18410573998052197739
69090 78 18413105078362419223
7364860 26 18341612650633836240
77779 3 18410294717962016929
7832392 63 18340764939774290878
8809292 202 18261114135562167739
9709674 26 18410862083026423671
9981440 41 17254836893333728896

>  <PUBCHEM_SHAPE_MULTIPOLES>  (1) 
391.01
8.72
2.46
0.62
2.42
0.31
0
-0.14
0
-0.82
0
0
0
0

>  <PUBCHEM_SHAPE_SELFOVERLAP>  (1) 
895.712

>  <PUBCHEM_SHAPE_VOLUME>  (1) 
186.5

>  <PUBCHEM_COORDINATE_TYPE>  (1) 
2
5
10

$$$$
