18785
     RDKit          3D

 14 14  0  0  1  0  0  0  0  0999 V2000
    0.7762    1.9082   -0.2527 O   0  0  0  0  0  0  0  0  0  0  0  0
   -2.8451   -0.0834   -0.5704 N   0  0  0  0  0  0  0  0  0  0  0  0
    2.0208   -0.0533   -0.1741 N   0  0  0  0  0  0  0  0  0  0  0  0
   -0.4357   -0.1015   -0.0039 C   0  0  0  0  0  0  0  0  0  0  0  0
   -0.7667   -0.2771    1.4770 C   0  0  0  0  0  0  0  0  0  0  0  0
   -1.5670    0.6219   -0.7428 C   0  0  0  0  0  0  0  0  0  0  0  0
   -2.1333   -0.9329    1.6412 C   0  0  0  0  0  0  0  0  0  0  0  0
   -3.2077   -0.1857    0.8499 C   0  0  0  0  0  0  0  0  0  0  0  0
    0.8336    0.6795   -0.1546 C   0  0  0  0  0  0  0  0  0  0  0  0
   -3.9057    0.5870   -1.3223 C   0  0  0  0  0  0  0  0  0  0  0  0
    3.3256    0.5802   -0.3149 C   0  0  0  0  0  0  0  0  0  0  0  0
    2.0425   -1.5089   -0.0547 C   0  0  0  0  0  0  0  0  0  0  0  0
    3.9057    0.9313    1.0167 C   0  0  0  0  0  0  0  0  0  0  0  0
    1.9569   -2.1653   -1.3945 C   0  0  0  0  0  0  0  0  0  0  0  0
  1  9  2  0
  2  6  1  0
  2  8  1  0
  2 10  1  0
  3  9  1  0
  3 11  1  0
  3 12  1  0
  4  5  1  0
  4  6  1  0
  4  9  1  0
  5  7  1  0
  7  8  1  0
 11 13  1  0
 12 14  1  0
M  END
>  <PUBCHEM_COMPOUND_CID>  (1) 
18785

>  <PUBCHEM_CONFORMER_RMSD>  (1) 
0.6

>  <PUBCHEM_CONFORMER_DIVERSEORDER>  (1) 
1
32
41
23
52
38
30
25
18
34
51
53
12
26
37
40
39
10
31
17
28
48
16
13
15
46
50
45
42
7
22
43
11
44
54
33
14
6
19
36
20
9
35
3
47
2
21
4
49
5
24
29
27
8

>  <PUBCHEM_MMFF94_PARTIAL_CHARGES>  (1) 
10
1 -0.57
10 0.27
11 0.3
12 0.3
2 -0.81
3 -0.66
4 0.06
6 0.27
8 0.27
9 0.57

>  <PUBCHEM_EFFECTIVE_ROTOR_COUNT>  (1) 
5.2

>  <PUBCHEM_PHARMACOPHORE_FEATURES>  (1) 
3
1 1 acceptor
1 2 cation
6 2 4 5 6 7 8 rings

>  <PUBCHEM_HEAVY_ATOM_COUNT>  (1) 
14

>  <PUBCHEM_ATOM_DEF_STEREO_COUNT>  (1) 
0

>  <PUBCHEM_ATOM_UDEF_STEREO_COUNT>  (1) 
1

>  <PUBCHEM_BOND_DEF_STEREO_COUNT>  (1) 
0

>  <PUBCHEM_BOND_UDEF_STEREO_COUNT>  (1) 
0

>  <PUBCHEM_ISOTOPIC_ATOM_COUNT>  (1) 
0

>  <PUBCHEM_COMPONENT_COUNT>  (1) 
1

>  <PUBCHEM_CACTVS_TAUTO_COUNT>  (1) 
1

>  <PUBCHEM_CONFORMER_ID>  (1) 
0000496100000001

>  <PUBCHEM_MMFF94_ENERGY>  (1) 
20.7683

>  <PUBCHEM_FEATURE_SELFOVERLAP>  (1) 
15.223

>  <PUBCHEM_SHAPE_FINGERPRINT>  (1) 
10219947 1 18341894121394850212
107287 299 18340782493674881870
12119455 92 18341884230317120512
12138202 97 17822290214622286815
124424 183 17749380494730269160
12932764 1 17346610633464018368
13296908 3 18261968365818266203
13380536 127 15625947495256511890
13581323 91 15936408965697937832
14251717 144 18131063823214751774
14787075 74 16195615683856492510
15207287 21 18260536853397734106
15219456 202 18187651292617725859
15375358 24 18260823795725303269
15775835 57 16845304821092269707
15852999 172 18408039628325144218
16945 1 18341622545874658176
18186145 218 17896323515154235621
18522853 266 16515686649707001466
19049666 15 18114745915106488361
19422 9 15913336775367714534
200 152 17989483000486825461
20201158 50 18260830397063565930
20279233 1 18113901554627317467
204376 136 18129658746470939656
20645464 45 17894911849740771897
20645477 70 18270675359875898447
23236772 104 16702306783979967810
23402539 116 17531791528601942981
23419403 2 14722784618697564276
23526113 38 18335129852508731265
23557571 272 17677065606244292015
23559900 14 17676769773988690658
2748010 2 18263092032537157358
3248919 1 18260839188856573493
474 4 16987421213541910304
581208 293 18202281403375130454
77492 1 17060345093265498639
81228 2 18117284648816869396
88987 49 16805616874987933382

>  <PUBCHEM_SHAPE_MULTIPOLES>  (1) 
272.28
6.49
1.58
1.45
0.34
0.58
0.31
-0.97
-0.4
-1.47
-0.43
0.93
0.26
1.08

>  <PUBCHEM_SHAPE_SELFOVERLAP>  (1) 
528.739

>  <PUBCHEM_SHAPE_VOLUME>  (1) 
165.4

>  <PUBCHEM_COORDINATE_TYPE>  (1) 
2
5
10

$$$$
