18793
     RDKit          3D

 13 13  0  0  1  0  0  0  0  0999 V2000
    0.5915    1.8096    0.7254 O   0  0  0  0  0  0  0  0  0  0  0  0
   -3.0662   -0.1116    0.9801 N   0  0  0  0  0  0  0  0  0  0  0  0
    1.7382   -0.1076    0.0830 N   0  0  0  0  0  0  0  0  0  0  0  0
   -0.7227   -0.0691    0.1672 C   0  0  0  0  0  0  0  0  0  0  0  0
   -1.2073    0.0994   -1.2730 C   0  0  0  0  0  0  0  0  0  0  0  0
   -1.7434    0.4923    1.1609 C   0  0  0  0  0  0  0  0  0  0  0  0
   -2.6181   -0.4600   -1.4329 C   0  0  0  0  0  0  0  0  0  0  0  0
   -3.5632    0.1149   -0.3792 C   0  0  0  0  0  0  0  0  0  0  0  0
    0.5869    0.6335    0.3520 C   0  0  0  0  0  0  0  0  0  0  0  0
    3.0762    0.4529    0.2219 C   0  0  0  0  0  0  0  0  0  0  0  0
    1.6862   -1.4993   -0.3575 C   0  0  0  0  0  0  0  0  0  0  0  0
    3.5361    1.0831   -1.0527 C   0  0  0  0  0  0  0  0  0  0  0  0
    1.7057   -2.4381    0.8049 C   0  0  0  0  0  0  0  0  0  0  0  0
  1  9  2  0
  2  6  1  0
  2  8  1  0
  3  9  1  0
  3 10  1  0
  3 11  1  0
  4  5  1  0
  4  6  1  0
  4  9  1  0
  5  7  1  0
  7  8  1  0
 10 12  1  0
 11 13  1  0
M  END
>  <PUBCHEM_COMPOUND_CID>  (1) 
18793

>  <PUBCHEM_CONFORMER_RMSD>  (1) 
0.6

>  <PUBCHEM_CONFORMER_DIVERSEORDER>  (1) 
1
25
29
41
39
33
23
28
7
18
10
38
17
22
20
5
35
21
31
26
14
27
6
40
36
3
30
24
43
42
19
8
16
2
4
37
34
13
44
12
9
15
11
32

>  <PUBCHEM_MMFF94_PARTIAL_CHARGES>  (1) 
10
1 -0.57
10 0.3
11 0.3
2 -0.9
23 0.36
3 -0.66
4 0.06
6 0.27
8 0.27
9 0.57

>  <PUBCHEM_EFFECTIVE_ROTOR_COUNT>  (1) 
5.2

>  <PUBCHEM_PHARMACOPHORE_FEATURES>  (1) 
4
1 1 acceptor
1 2 cation
1 2 donor
6 2 4 5 6 7 8 rings

>  <PUBCHEM_HEAVY_ATOM_COUNT>  (1) 
13

>  <PUBCHEM_ATOM_DEF_STEREO_COUNT>  (1) 
0

>  <PUBCHEM_ATOM_UDEF_STEREO_COUNT>  (1) 
1

>  <PUBCHEM_BOND_DEF_STEREO_COUNT>  (1) 
0

>  <PUBCHEM_BOND_UDEF_STEREO_COUNT>  (1) 
0

>  <PUBCHEM_ISOTOPIC_ATOM_COUNT>  (1) 
0

>  <PUBCHEM_COMPONENT_COUNT>  (1) 
1

>  <PUBCHEM_CACTVS_TAUTO_COUNT>  (1) 
1

>  <PUBCHEM_CONFORMER_ID>  (1) 
0000496900000001

>  <PUBCHEM_MMFF94_ENERGY>  (1) 
14.2103

>  <PUBCHEM_FEATURE_SELFOVERLAP>  (1) 
20.297

>  <PUBCHEM_SHAPE_FINGERPRINT>  (1) 
107287 299 18186240636547924478
11031198 65 18334012804444946860
12932764 1 17988920059308143633
14144814 61 17704069582037176791
14993402 34 17632861923319908053
15219456 202 17603865576622710175
15310529 11 18336823104831695501
15375462 189 18273213092900155155
15775835 57 18412541028760168447
16945 1 18340480148966744241
18186145 218 18338523057483418372
18342897 55 18336547230592682524
19422 9 17846225431660100070
19786989 88 17822016436184486980
20201158 50 18113335284500717730
20279233 1 17531246141075860195
20645464 45 16877659067652640685
20645477 70 18337665305116922543
20671657 53 17753323176261781826
21499 59 18262522614684683324
21501502 16 18265613169686866025
22112679 90 17774714264783658106
22802520 49 17388247953570904231
228727 97 18202291298863891856
23236772 104 17846216695569935003
23402539 116 16298657386600117271
23532345 88 18190172399992651678
23552423 10 18265336092872444730
23557571 272 16588036713864044287
23559900 14 15792003472962873936
23598294 1 17131285545093253753
2748010 2 16037757171500608712
3248919 1 18040710338231147953
449060 23 17060057090017678284
528862 383 18410856529649228814
53748568 43 18131074826551568990
77492 1 17917990559852488459
8030462 33 18272368659248115721
81228 2 16894812256653038898

>  <PUBCHEM_SHAPE_MULTIPOLES>  (1) 
251.7
5.69
1.64
1.28
0.64
0.95
-0.19
-0.72
-1
-1.67
0.29
0.62
-0.09
-0.46

>  <PUBCHEM_SHAPE_SELFOVERLAP>  (1) 
488.365

>  <PUBCHEM_SHAPE_VOLUME>  (1) 
152

>  <PUBCHEM_COORDINATE_TYPE>  (1) 
2
5
10

$$$$
