18798
     RDKit          3D

 17 18  0  0  1  0  0  0  0  0999 V2000
   -2.1541    2.6450    0.4100 O   0  0  0  0  0  0  0  0  0  0  0  0
    0.4310    0.4896   -1.1854 N   0  0  0  0  0  0  0  0  0  0  0  0
    2.0394    1.3154    0.3659 N   0  0  0  0  0  0  0  0  0  0  0  0
   -1.3211    1.4869    0.2648 C   0  0  0  0  0  0  0  0  0  0  0  0
   -0.4566    1.6359   -1.0030 C   0  0  0  0  0  0  0  0  0  0  0  0
   -2.1821    0.2698    0.2216 C   0  0  0  0  0  0  0  0  0  0  0  0
    1.6273    0.3518   -0.5195 C   0  0  0  0  0  0  0  0  0  0  0  0
   -3.4641    0.3415   -0.3235 C   0  0  0  0  0  0  0  0  0  0  0  0
   -1.7053   -0.9402    0.7259 C   0  0  0  0  0  0  0  0  0  0  0  0
    2.4095   -0.7891   -0.7651 C   0  0  0  0  0  0  0  0  0  0  0  0
    3.6205   -0.9423   -0.0992 C   0  0  0  0  0  0  0  0  0  0  0  0
   -4.2694   -0.7967   -0.3641 C   0  0  0  0  0  0  0  0  0  0  0  0
   -2.5107   -2.0784    0.6851 C   0  0  0  0  0  0  0  0  0  0  0  0
   -3.7928   -2.0065    0.1401 C   0  0  0  0  0  0  0  0  0  0  0  0
    4.0419    0.0318    0.7990 C   0  0  0  0  0  0  0  0  0  0  0  0
    3.2223    1.1318    0.9944 C   0  0  0  0  0  0  0  0  0  0  0  0
    4.4641   -2.1463   -0.3468 C   0  0  0  0  0  0  0  0  0  0  0  0
  1  4  1  0
  2  5  1  0
  2  7  1  0
  3  7  2  0
  3 16  1  0
  4  5  1  0
  4  6  1  0
  6  8  2  0
  6  9  1  0
  7 10  1  0
  8 12  1  0
  9 13  2  0
 10 11  2  0
 11 15  1  0
 11 17  1  0
 12 14  2  0
 13 14  1  0
 15 16  2  0
M  END
>  <PUBCHEM_COMPOUND_CID>  (1) 
18798

>  <PUBCHEM_CONFORMER_RMSD>  (1) 
0.6

>  <PUBCHEM_CONFORMER_DIVERSEORDER>  (1) 
3
42
2
20
15
23
19
56
29
54
13
28
34
44
53
55
1
43
46
16
51
38
35
36
31
47
22
9
21
24
26
52
27
37
10
40
39
50
7
41
4
5
49
57
14
60
8
17
25
30
48
32
33
59
12
58
11
6
18
45

>  <PUBCHEM_MMFF94_PARTIAL_CHARGES>  (1) 
27
1 -0.68
10 -0.15
11 -0.14
12 -0.15
13 -0.15
14 -0.15
15 -0.15
16 0.16
17 0.14
2 -0.87
21 0.4
22 0.15
23 0.15
24 0.15
25 0.4
26 0.15
27 0.15
28 0.15
29 0.15
3 -0.62
30 0.15
4 0.42
5 0.37
6 -0.14
7 0.41
8 -0.15
9 -0.15

>  <PUBCHEM_EFFECTIVE_ROTOR_COUNT>  (1) 
4

>  <PUBCHEM_PHARMACOPHORE_FEATURES>  (1) 
6
1 1 acceptor
1 1 donor
1 2 donor
3 2 3 7 cation
6 3 7 10 11 15 16 rings
6 6 8 9 12 13 14 rings

>  <PUBCHEM_HEAVY_ATOM_COUNT>  (1) 
17

>  <PUBCHEM_ATOM_DEF_STEREO_COUNT>  (1) 
0

>  <PUBCHEM_ATOM_UDEF_STEREO_COUNT>  (1) 
1

>  <PUBCHEM_BOND_DEF_STEREO_COUNT>  (1) 
0

>  <PUBCHEM_BOND_UDEF_STEREO_COUNT>  (1) 
0

>  <PUBCHEM_ISOTOPIC_ATOM_COUNT>  (1) 
0

>  <PUBCHEM_COMPONENT_COUNT>  (1) 
1

>  <PUBCHEM_CACTVS_TAUTO_COUNT>  (1) 
2

>  <PUBCHEM_CONFORMER_ID>  (1) 
0000496E00000003

>  <PUBCHEM_MMFF94_ENERGY>  (1) 
52.1624

>  <PUBCHEM_FEATURE_SELFOVERLAP>  (1) 
30.446

>  <PUBCHEM_SHAPE_FINGERPRINT>  (1) 
10366900 7 18272652397957480096
10618630 7 18336548308386692183
11046707 91 18187647977108682254
12006461 19 18409732837714045166
12346177 29 18260823765950786709
12363563 72 18335430109440769675
12500047 106 18119809106007407324
12633257 1 18058463018592219954
13296908 3 18337111262703685047
13693222 15 17988926686263209684
14251764 30 16772133349563191662
14341114 328 15410620332316757583
15352361 1 18410011052457397090
15653759 3 18342176631342667216
16752209 62 17241033319531176709
17804303 29 18339369569408641662
17834072 14 18337666516175841317
18186145 218 10665212748794921988
19107657 162 18409447011729800282
193927 3 17895204354172763715
200 152 17847053381301243999
20281475 54 18334863775353546380
20361792 2 16660366978206535828
20671657 53 17240755241794521477
20681677 274 18342452651694964472
21065199 12 18272927211550703960
22646028 28 18186803607775806642
23402539 116 18341606002372706413
23402655 69 11386362634618622054
23403322 49 18408887334615558415
23503958 8 18410577241011091786
23559900 14 18411132541649052576
24859131 72 18342176643884820951
2637199 183 9510643119297395463
26918003 58 18411973680754902433
2871803 45 18260543416181829730
31174 14 17917142918155687776
3286 77 18342454825085475132
474 4 13038891266467587690
5104073 3 18201153257258350106
81228 2 18335713719248627513
8809292 202 18196375823316867024
9709674 26 18411699902238175946
9882013 296 17632578305006583140

>  <PUBCHEM_SHAPE_MULTIPOLES>  (1) 
334.02
8.94
2.38
0.99
2.69
0
-0.04
-4.66
0.59
-0.76
0.17
0.32
0.11
0.76

>  <PUBCHEM_SHAPE_SELFOVERLAP>  (1) 
704.033

>  <PUBCHEM_SHAPE_VOLUME>  (1) 
186.6

>  <PUBCHEM_COORDINATE_TYPE>  (1) 
2
5
10

$$$$
