18809
     RDKit          3D

 11 11  0  0  0  0  0  0  0  0999 V2000
    3.8349    0.0050    0.7281 N   0  0  0  0  0  0  0  0  0  0  0  0
    5.1485   -0.0017    0.1704 N   0  0  0  0  0  0  0  0  0  0  0  0
    0.4220    0.0107   -0.9603 C   0  0  0  0  0  0  0  0  0  0  0  0
    1.4465    0.0133    0.1772 C   0  0  0  0  0  0  0  0  0  0  0  0
   -0.9917    0.0044   -0.4375 C   0  0  0  0  0  0  0  0  0  0  0  0
    2.8735   -0.0186   -0.3679 C   0  0  0  0  0  0  0  0  0  0  0  0
   -1.6260   -1.2064   -0.2022 C   0  0  0  0  0  0  0  0  0  0  0  0
   -1.6360    1.2096   -0.1995 C   0  0  0  0  0  0  0  0  0  0  0  0
   -2.9342   -1.2124    0.2818 C   0  0  0  0  0  0  0  0  0  0  0  0
   -2.9441    1.2036    0.2847 C   0  0  0  0  0  0  0  0  0  0  0  0
   -3.5932   -0.0075    0.5252 C   0  0  0  0  0  0  0  0  0  0  0  0
  1  2  1  0
  1  6  1  0
  3  4  1  0
  3  5  1  0
  4  6  1  0
  5  7  2  0
  5  8  1  0
  7  9  1  0
  8 10  2  0
  9 11  2  0
 10 11  1  0
M  END
>  <PUBCHEM_COMPOUND_CID>  (1) 
18809

>  <PUBCHEM_CONFORMER_RMSD>  (1) 
0.6

>  <PUBCHEM_CONFORMER_DIVERSEORDER>  (1) 
1
12
10
11
9
13
4
5
3
8
6
2
7

>  <PUBCHEM_MMFF94_PARTIAL_CHARGES>  (1) 
18
1 -0.63
10 -0.15
11 -0.15
18 0.15
19 0.15
2 -0.72
20 0.36
21 0.15
22 0.15
23 0.15
24 0.36
25 0.36
3 0.14
5 -0.14
6 0.27
7 -0.15
8 -0.15
9 -0.15

>  <PUBCHEM_EFFECTIVE_ROTOR_COUNT>  (1) 
4

>  <PUBCHEM_PHARMACOPHORE_FEATURES>  (1) 
3
1 1 donor
1 2 donor
6 5 7 8 9 10 11 rings

>  <PUBCHEM_HEAVY_ATOM_COUNT>  (1) 
11

>  <PUBCHEM_ATOM_DEF_STEREO_COUNT>  (1) 
0

>  <PUBCHEM_ATOM_UDEF_STEREO_COUNT>  (1) 
0

>  <PUBCHEM_BOND_DEF_STEREO_COUNT>  (1) 
0

>  <PUBCHEM_BOND_UDEF_STEREO_COUNT>  (1) 
0

>  <PUBCHEM_ISOTOPIC_ATOM_COUNT>  (1) 
0

>  <PUBCHEM_COMPONENT_COUNT>  (1) 
1

>  <PUBCHEM_CACTVS_TAUTO_COUNT>  (1) 
1

>  <PUBCHEM_CONFORMER_ID>  (1) 
0000497900000001

>  <PUBCHEM_MMFF94_ENERGY>  (1) 
16.4586

>  <PUBCHEM_FEATURE_SELFOVERLAP>  (1) 
16.548

>  <PUBCHEM_SHAPE_FINGERPRINT>  (1) 
12251169 10 18409731772134835932
124424 183 18060134332111660864
13024252 1 14706926233735947541
13214271 11 17989487420393399029
13897977 58 18410017671318511500
15219456 202 17917158195069315190
200 152 15357694206004516627
20279233 1 17775008981181407382
20645464 45 17917998273808859575
20711985 327 17167867473712371430
20828058 44 18407759231564208986
20871998 184 18201165455002906735
21119208 17 10447928364857534952
22485316 2 16298381362168844904
23402539 116 18272363192540699287
23403322 49 12468630617183293216
42 15 18408603635162046154
449060 50 18272934925348819228

>  <PUBCHEM_SHAPE_MULTIPOLES>  (1) 
216.41
8
1.16
0.81
10.61
0
0.06
0.01
-2.04
-1.22
-0.01
0.08
0
0

>  <PUBCHEM_SHAPE_SELFOVERLAP>  (1) 
430.685

>  <PUBCHEM_SHAPE_VOLUME>  (1) 
127.7

>  <PUBCHEM_COORDINATE_TYPE>  (1) 
2
5
10

$$$$
