18801
     RDKit          3D

  6  5  0  0  0  0  0  0  0  0999 V2000
    2.4164   -0.5769   -0.6650 Cl  0  0  0  0  0  0  0  0  0  0  0  0
   -2.5775   -0.4731   -0.3014 Cl  0  0  0  0  0  0  0  0  0  0  0  0
    0.0011    0.2086    0.2556 C   0  0  0  0  0  0  0  0  0  0  0  0
    1.4142   -0.0465    0.7044 C   0  0  0  0  0  0  0  0  0  0  0  0
   -0.2837    1.6042   -0.2336 C   0  0  0  0  0  0  0  0  0  0  0  0
   -0.9705   -0.7164    0.2400 C   0  0  0  0  0  0  0  0  0  0  0  0
  1  4  1  0
  2  6  1  0
  3  4  1  0
  3  5  1  0
  3  6  2  0
M  END
>  <PUBCHEM_COMPOUND_CID>  (1) 
18801

>  <PUBCHEM_CONFORMER_RMSD>  (1) 
0.4

>  <PUBCHEM_CONFORMER_DIVERSEORDER>  (1) 
1
3
2

>  <PUBCHEM_MMFF94_PARTIAL_CHARGES>  (1) 
7
1 -0.29
12 0.15
2 -0.14
3 -0.28
4 0.43
5 0.14
6 -0.01

>  <PUBCHEM_EFFECTIVE_ROTOR_COUNT>  (1) 
1

>  <PUBCHEM_PHARMACOPHORE_FEATURES>  (1) 
1
1 5 hydrophobe

>  <PUBCHEM_HEAVY_ATOM_COUNT>  (1) 
6

>  <PUBCHEM_ATOM_DEF_STEREO_COUNT>  (1) 
0

>  <PUBCHEM_ATOM_UDEF_STEREO_COUNT>  (1) 
0

>  <PUBCHEM_BOND_DEF_STEREO_COUNT>  (1) 
0

>  <PUBCHEM_BOND_UDEF_STEREO_COUNT>  (1) 
1

>  <PUBCHEM_ISOTOPIC_ATOM_COUNT>  (1) 
0

>  <PUBCHEM_COMPONENT_COUNT>  (1) 
1

>  <PUBCHEM_CACTVS_TAUTO_COUNT>  (1) 
1

>  <PUBCHEM_CONFORMER_ID>  (1) 
0000497100000001

>  <PUBCHEM_MMFF94_ENERGY>  (1) 
5.7429

>  <PUBCHEM_FEATURE_SELFOVERLAP>  (1) 
5.074

>  <PUBCHEM_SHAPE_FINGERPRINT>  (1) 
139733 1 9079122167194471578
14390081 3 11602808104164006431
16714656 1 18409452449005279791
20096714 4 17973154325555109577
21040471 1 17688296898521136568
23552423 10 17825104809649407562
23552449 11 18200017577162373690
29004967 10 18341328993397105403
5460574 1 9223239563073571067
5943 1 14315110458492588848

>  <PUBCHEM_SHAPE_MULTIPOLES>  (1) 
127.22
3.32
1.23
0.83
0.19
0.56
0
-1.23
0.73
0.16
0.14
-0.24
-0.04
0.14

>  <PUBCHEM_SHAPE_SELFOVERLAP>  (1) 
211.764

>  <PUBCHEM_SHAPE_VOLUME>  (1) 
86.5

>  <PUBCHEM_COORDINATE_TYPE>  (1) 
2
5
10

$$$$
