18802
     RDKit          3D

 11 11  0  0  1  0  0  0  0  0999 V2000
    1.9904    0.8103   -0.1280 O   0  0  0  0  0  0  0  0  0  0  0  0
   -2.0482    0.4264   -1.2792 O   0  0  0  0  0  0  0  0  0  0  0  0
    0.2011    2.2149    0.0953 O   0  0  0  0  0  0  0  0  0  0  0  0
    0.0536   -0.0669    0.5722 N   0  0  0  0  0  0  0  0  0  0  0  0
    0.9165   -1.2010    0.4282 C   0  0  0  0  0  0  0  0  0  0  0  0
    2.2735   -0.5525    0.2468 C   0  0  0  0  0  0  0  0  0  0  0  0
   -1.3432   -0.2078    0.9223 C   0  0  0  0  0  0  0  0  0  0  0  0
   -2.1853   -0.5914   -0.2895 C   0  0  0  0  0  0  0  0  0  0  0  0
    0.6834    1.0940    0.1826 C   0  0  0  0  0  0  0  0  0  0  0  0
    3.1147   -1.2090   -0.8318 C   0  0  0  0  0  0  0  0  0  0  0  0
   -3.6567   -0.7171    0.0810 C   0  0  0  0  0  0  0  0  0  0  0  0
  1  6  1  0
  1  9  1  0
  2  8  1  0
  3  9  2  0
  4  5  1  0
  4  7  1  0
  4  9  1  0
  5  6  1  0
  6 10  1  0
  7  8  1  0
  8 11  1  0
M  END
>  <PUBCHEM_COMPOUND_CID>  (1) 
18802

>  <PUBCHEM_CONFORMER_RMSD>  (1) 
0.6

>  <PUBCHEM_CONFORMER_DIVERSEORDER>  (1) 
2
24
21
25
23
22
16
10
14
26
7
17
15
27
5
18
19
20
1
6
12
8
4
13
9
3
11

>  <PUBCHEM_MMFF94_PARTIAL_CHARGES>  (1) 
10
1 -0.43
2 -0.68
24 0.4
3 -0.57
4 -0.66
5 0.3
6 0.28
7 0.3
8 0.28
9 0.78

>  <PUBCHEM_EFFECTIVE_ROTOR_COUNT>  (1) 
2.8

>  <PUBCHEM_PHARMACOPHORE_FEATURES>  (1) 
4
1 2 acceptor
1 2 donor
1 3 acceptor
5 1 4 5 6 9 rings

>  <PUBCHEM_HEAVY_ATOM_COUNT>  (1) 
11

>  <PUBCHEM_ATOM_DEF_STEREO_COUNT>  (1) 
0

>  <PUBCHEM_ATOM_UDEF_STEREO_COUNT>  (1) 
2

>  <PUBCHEM_BOND_DEF_STEREO_COUNT>  (1) 
0

>  <PUBCHEM_BOND_UDEF_STEREO_COUNT>  (1) 
0

>  <PUBCHEM_ISOTOPIC_ATOM_COUNT>  (1) 
0

>  <PUBCHEM_COMPONENT_COUNT>  (1) 
1

>  <PUBCHEM_CACTVS_TAUTO_COUNT>  (1) 
1

>  <PUBCHEM_CONFORMER_ID>  (1) 
0000497200000002

>  <PUBCHEM_MMFF94_ENERGY>  (1) 
15.5224

>  <PUBCHEM_FEATURE_SELFOVERLAP>  (1) 
20.297

>  <PUBCHEM_SHAPE_FINGERPRINT>  (1) 
11206711 2 18189628141905525812
12897270 3 17967527982632123839
12932764 1 17822282505377543267
14128692 85 18202283627688284682
15477762 27 18270116941197272479
16945 1 17385446526702724362
17844478 74 17676777526108929577
20201158 50 18260828198135632859
20653085 51 15068918382086488614
21028194 46 11169922666615114138
21293036 1 18260837011682681374
29004967 10 18411414024983290650
5084963 1 17531242881158557803

>  <PUBCHEM_SHAPE_MULTIPOLES>  (1) 
203.79
4.82
1.52
0.92
1.75
0.72
0.11
-2.13
1
-0.57
0.04
0.17
-0.07
0.26

>  <PUBCHEM_SHAPE_SELFOVERLAP>  (1) 
401.604

>  <PUBCHEM_SHAPE_VOLUME>  (1) 
124.4

>  <PUBCHEM_COORDINATE_TYPE>  (1) 
2
5
10

$$$$
