18817
     RDKit          3D

 21 22  0  0  1  0  0  0  0  0999 V2000
    3.9756    1.4717    0.1809 P   0  0  0  0  0  0  0  0  0  0  0  0
    0.3841   -0.7529    0.9716 O   0  0  0  0  0  0  0  0  0  0  0  0
    0.6794   -3.7915    0.2690 O   0  0  0  0  0  0  0  0  0  0  0  0
   -0.3134   -1.1089   -1.9246 O   0  0  0  0  0  0  0  0  0  0  0  0
    2.9285    0.3450    0.6861 O   0  0  0  0  0  0  0  0  0  0  0  0
   -3.6426   -1.5126    0.7513 O   0  0  0  0  0  0  0  0  0  0  0  0
    3.2235    2.1589   -1.0750 O   0  0  0  0  0  0  0  0  0  0  0  0
    5.1408    0.5946   -0.5178 O   0  0  0  0  0  0  0  0  0  0  0  0
    4.4475    2.4204    1.2437 O   0  0  0  0  0  0  0  0  0  0  0  0
   -4.3336    2.9215   -0.3008 O   0  0  0  0  0  0  0  0  0  0  0  0
   -1.7771   -0.1952    0.2562 N   0  0  0  0  0  0  0  0  0  0  0  0
   -3.9847    0.6956    0.2264 N   0  0  0  0  0  0  0  0  0  0  0  0
    0.8678   -2.5912   -0.4771 C   0  0  0  0  0  0  0  0  0  0  0  0
   -0.4831   -2.0084   -0.8353 C   0  0  0  0  0  0  0  0  0  0  0  0
    1.4764   -1.5378    0.4503 C   0  0  0  0  0  0  0  0  0  0  0  0
   -0.8451   -1.2668    0.4421 C   0  0  0  0  0  0  0  0  0  0  0  0
    2.4348   -0.5903   -0.2572 C   0  0  0  0  0  0  0  0  0  0  0  0
   -3.1644   -0.4212    0.4345 C   0  0  0  0  0  0  0  0  0  0  0  0
   -1.3224    1.0714   -0.1003 C   0  0  0  0  0  0  0  0  0  0  0  0
   -2.1165    2.1261   -0.2952 C   0  0  0  0  0  0  0  0  0  0  0  0
   -3.5757    1.9716   -0.1290 C   0  0  0  0  0  0  0  0  0  0  0  0
  1  5  1  0
  1  7  1  0
  1  8  1  0
  1  9  2  0
  2 15  1  0
  2 16  1  0
  3 13  1  0
  4 14  1  0
  5 17  1  0
  6 18  2  0
 10 21  2  0
 11 16  1  0
 11 18  1  0
 11 19  1  0
 12 18  1  0
 12 21  1  0
 13 14  1  0
 13 15  1  0
 14 16  1  0
 15 17  1  0
 19 20  2  0
 20 21  1  0
M  END
>  <PUBCHEM_COMPOUND_CID>  (1) 
18817

>  <PUBCHEM_CONFORMER_RMSD>  (1) 
0.8

>  <PUBCHEM_CONFORMER_DIVERSEORDER>  (1) 
1
26
16
19
27
28
25
21
24
7
22
8
23
18
17
13
15
11
5
6
20
12
10
3
14
2
9
4

>  <PUBCHEM_MMFF94_PARTIAL_CHARGES>  (1) 
28
1 1.51
10 -0.57
11 -0.47
12 -0.49
13 0.28
14 0.28
15 0.28
16 0.58
17 0.28
18 0.69
19 -0.04
2 -0.56
20 -0.14
21 0.62
28 0.4
29 0.4
3 -0.68
30 0.15
31 0.37
32 0.15
33 0.5
34 0.5
4 -0.68
5 -0.55
6 -0.57
7 -0.77
8 -0.77
9 -0.7

>  <PUBCHEM_EFFECTIVE_ROTOR_COUNT>  (1) 
5

>  <PUBCHEM_PHARMACOPHORE_FEATURES>  (1) 
14
1 10 acceptor
1 12 donor
1 2 acceptor
1 3 acceptor
1 3 donor
1 4 acceptor
1 4 donor
1 6 acceptor
1 7 acceptor
1 8 acceptor
1 9 acceptor
4 1 7 8 9 anion
5 2 13 14 15 16 rings
6 11 12 18 19 20 21 rings

>  <PUBCHEM_HEAVY_ATOM_COUNT>  (1) 
21

>  <PUBCHEM_ATOM_DEF_STEREO_COUNT>  (1) 
4

>  <PUBCHEM_ATOM_UDEF_STEREO_COUNT>  (1) 
0

>  <PUBCHEM_BOND_DEF_STEREO_COUNT>  (1) 
0

>  <PUBCHEM_BOND_UDEF_STEREO_COUNT>  (1) 
0

>  <PUBCHEM_ISOTOPIC_ATOM_COUNT>  (1) 
0

>  <PUBCHEM_COMPONENT_COUNT>  (1) 
1

>  <PUBCHEM_CACTVS_TAUTO_COUNT>  (1) 
3

>  <PUBCHEM_CONFORMER_ID>  (1) 
0000498100000001

>  <PUBCHEM_MMFF94_ENERGY>  (1) 
18.6031

>  <PUBCHEM_FEATURE_SELFOVERLAP>  (1) 
71.09

>  <PUBCHEM_SHAPE_FINGERPRINT>  (1) 
10498660 4 18412263913096492441
10608611 8 18192994816466123091
10906281 52 18262254317131983923
12173636 292 18267298914597011542
12363563 72 8646490760335845376
12403259 118 18336531755582753386
12633257 1 17751631061809109130
13134695 92 17617933634627037398
14026960 21 18409169900260377907
14123255 52 18413102883739548056
14178342 30 16660944192120926451
15534591 1 18341046427878749950
17134986 127 18342173324281152902
1798214 55 18411697682099306328
20645477 56 18057044821008317536
21524375 3 18343025518775734514
21864079 5 18339349864404811616
23227448 37 18054507173603818172
23419403 2 16399387731640751666
23557571 272 18189918473268597211
23559900 14 18051124792400917635
474 4 18266175033082016385
5104073 3 18116721712280581025
7064713 232 18334855026289718124
7364860 26 18122907529753341898
7808743 9 18121500421801625144
9981440 41 18335137600587704843

>  <PUBCHEM_SHAPE_MULTIPOLES>  (1) 
373.23
8.4
3.59
1.02
3.21
0.8
0.22
-8.15
-0.75
0.15
0.16
0.36
0.09
0.67

>  <PUBCHEM_SHAPE_SELFOVERLAP>  (1) 
766.716

>  <PUBCHEM_SHAPE_VOLUME>  (1) 
216

>  <PUBCHEM_COORDINATE_TYPE>  (1) 
2
5
10

$$$$
