1881
     RDKit          3D

 20 22  0  0  0  0  0  0  0  0999 V2000
    2.1294   -0.2705    0.0000 N   0  0  0  0  0  0  0  0  0  0  0  0
   -3.1005    1.4422    0.0004 N   0  0  0  0  0  0  0  0  0  0  0  0
   -3.7820   -0.8729    0.0001 N   0  0  0  0  0  0  0  0  0  0  0  0
   -2.2212   -2.6006   -0.0003 N   0  0  0  0  0  0  0  0  0  0  0  0
   -5.3704    0.8488    0.0009 N   0  0  0  0  0  0  0  0  0  0  0  0
    3.4053    0.4119    0.0004 C   0  0  0  0  0  0  0  0  0  0  0  0
    0.8958    0.3395   -0.0005 C   0  0  0  0  0  0  0  0  0  0  0  0
    4.2334    0.1127    1.2697 C   0  0  0  0  0  0  0  0  0  0  0  0
    4.2339    0.1133   -1.2686 C   0  0  0  0  0  0  0  0  0  0  0  0
   -0.0684   -0.6694   -0.0007 C   0  0  0  0  0  0  0  0  0  0  0  0
    1.9825   -1.6308   -0.0004 C   0  0  0  0  0  0  0  0  0  0  0  0
    0.6354   -1.9097   -0.0006 C   0  0  0  0  0  0  0  0  0  0  0  0
   -1.4391   -0.2836   -0.0004 C   0  0  0  0  0  0  0  0  0  0  0  0
    0.5613    1.6950   -0.0004 C   0  0  0  0  0  0  0  0  0  0  0  0
    3.5033    0.4658    2.5597 C   0  0  0  0  0  0  0  0  0  0  0  0
    3.5042    0.4670   -2.5587 C   0  0  0  0  0  0  0  0  0  0  0  0
   -1.8079    1.0739   -0.0003 C   0  0  0  0  0  0  0  0  0  0  0  0
   -0.7992    2.0311   -0.0003 C   0  0  0  0  0  0  0  0  0  0  0  0
   -2.4802   -1.2138   -0.0003 C   0  0  0  0  0  0  0  0  0  0  0  0
   -4.0156    0.4503    0.0003 C   0  0  0  0  0  0  0  0  0  0  0  0
  1  6  1  0
  1  7  1  0
  1 11  1  0
  2 17  1  0
  2 20  2  0
  3 19  2  0
  3 20  1  0
  4 19  1  0
  5 20  1  0
  6  8  1  0
  6  9  1  0
  7 10  2  0
  7 14  1  0
  8 15  1  0
  9 16  1  0
 10 12  1  0
 10 13  1  0
 11 12  2  0
 13 17  2  0
 13 19  1  0
 14 18  2  0
 17 18  1  0
M  END
>  <PUBCHEM_COMPOUND_CID>  (1) 
1881

>  <PUBCHEM_CONFORMER_RMSD>  (1) 
0.6

>  <PUBCHEM_CONFORMER_DIVERSEORDER>  (1) 
1
4
5
2
3

>  <PUBCHEM_MMFF94_PARTIAL_CHARGES>  (1) 
22
1 0.05
11 -0.3
12 -0.15
14 -0.15
17 0.31
18 -0.15
19 0.41
2 -0.62
20 0.72
26 0.15
27 0.15
28 0.15
3 -0.62
35 0.15
36 0.4
37 0.4
38 0.4
39 0.4
4 -0.9
5 -0.9
6 0.26
7 -0.15

>  <PUBCHEM_EFFECTIVE_ROTOR_COUNT>  (1) 
3

>  <PUBCHEM_PHARMACOPHORE_FEATURES>  (1) 
9
1 1 cation
1 15 hydrophobe
1 16 hydrophobe
1 4 donor
1 5 donor
4 2 3 5 20 cation
5 1 7 10 11 12 rings
6 2 3 13 17 19 20 rings
6 7 10 13 14 17 18 rings

>  <PUBCHEM_HEAVY_ATOM_COUNT>  (1) 
20

>  <PUBCHEM_ATOM_DEF_STEREO_COUNT>  (1) 
0

>  <PUBCHEM_ATOM_UDEF_STEREO_COUNT>  (1) 
0

>  <PUBCHEM_BOND_DEF_STEREO_COUNT>  (1) 
0

>  <PUBCHEM_BOND_UDEF_STEREO_COUNT>  (1) 
0

>  <PUBCHEM_ISOTOPIC_ATOM_COUNT>  (1) 
0

>  <PUBCHEM_COMPONENT_COUNT>  (1) 
1

>  <PUBCHEM_CACTVS_TAUTO_COUNT>  (1) 
9

>  <PUBCHEM_CONFORMER_ID>  (1) 
0000075900000001

>  <PUBCHEM_MMFF94_ENERGY>  (1) 
56.4943

>  <PUBCHEM_FEATURE_SELFOVERLAP>  (1) 
45.789

>  <PUBCHEM_SHAPE_FINGERPRINT>  (1) 
10062212 137 18187359977929053315
10498660 4 18410301319543366828
10967382 1 18410573946855610503
11132069 177 18412258445560413473
12173636 292 18267862779410018109
12236239 1 17749108907300880804
12403814 3 17458343027065181069
12553582 1 18409732876352985045
13140716 1 18266452286148177313
13544592 145 17775012266963374558
13583140 156 15936988412642121320
13760787 19 17240490242475804050
14081887 123 18272636948669953345
14790565 3 18194980543220182873
15196674 1 18410855503088397255
15375358 24 18271801320080710883
15536298 74 18271524191315725551
15848702 151 16343712014589658284
1601671 61 18408610248820981452
16945 1 18410573985183164613
17349148 13 18260818289740721062
17804303 29 18341053007810741433
1813 80 16879619381490976890
18186145 218 17846506932570164266
20510252 161 18128815249037849393
20715895 44 17389926878115877157
21267235 1 18337964410802306291
2334 1 17978511163211501513
23366157 5 17753041997173792149
23402539 116 18341320162970835519
23493267 7 17822308910926098050
23557571 272 17987801941781905446
23559900 14 18343306968356733324
2748010 2 18049159969353219525
2838139 119 16009849651797410255
296302 2 16515693259524298767
34797466 226 16702295776543342377
34934 24 18411691080723704491
350125 39 18050289167663050546
394222 165 17241897682279940016
4072396 5 18262220145580704307
474 4 16299246768315158732
4990 188 17703517605725229636
5104073 3 18336546135492171305
537710 114 18335426746275778733
57005193 9 18336817633227983019
59755656 215 18340207372016752662
7364860 26 18056755430233384778
77492 1 17676203598187425026
8272917 22 16226048877692518408
90316 7 17969201396364459024
9981440 41 17033343554107026268

>  <PUBCHEM_SHAPE_MULTIPOLES>  (1) 
386.69
8.71
1.94
1.46
2.92
0.57
0
-1.28
0
1.21
0
-3.09
-0.33
0

>  <PUBCHEM_SHAPE_SELFOVERLAP>  (1) 
843.01

>  <PUBCHEM_SHAPE_VOLUME>  (1) 
206.2

>  <PUBCHEM_COORDINATE_TYPE>  (1) 
2
5
10

$$$$
