18825
     RDKit          3D

 10 10  0  0  1  0  0  0  0  0999 V2000
    3.7733   -0.2034    0.1277 Cl  0  0  0  0  0  0  0  0  0  0  0  0
   -2.7363    0.6509    1.0591 O   0  0  0  0  0  0  0  0  0  0  0  0
   -2.1995    0.2809   -0.2162 C   0  0  0  0  0  0  0  0  0  0  0  0
   -0.7153    0.1608   -0.1298 C   0  0  0  0  0  0  0  0  0  0  0  0
   -2.8734   -1.0173   -0.6707 C   0  0  0  0  0  0  0  0  0  0  0  0
    0.0890    1.2779   -0.3548 C   0  0  0  0  0  0  0  0  0  0  0  0
   -0.1318   -1.0690    0.1750 C   0  0  0  0  0  0  0  0  0  0  0  0
    1.4770    1.1653   -0.2751 C   0  0  0  0  0  0  0  0  0  0  0  0
    1.2563   -1.1816    0.2548 C   0  0  0  0  0  0  0  0  0  0  0  0
    2.0607   -0.0644    0.0298 C   0  0  0  0  0  0  0  0  0  0  0  0
  1 10  1  0
  2  3  1  0
  3  4  1  0
  3  5  1  0
  4  6  2  0
  4  7  1  0
  6  8  1  0
  7  9  2  0
  8 10  2  0
  9 10  1  0
M  END
>  <PUBCHEM_COMPOUND_CID>  (1) 
18825

>  <PUBCHEM_CONFORMER_RMSD>  (1) 
0.4

>  <PUBCHEM_CONFORMER_DIVERSEORDER>  (1) 
2
1

>  <PUBCHEM_MMFF94_PARTIAL_CHARGES>  (1) 
14
1 -0.18
10 0.18
15 0.15
16 0.15
17 0.15
18 0.15
19 0.4
2 -0.68
3 0.42
4 -0.14
6 -0.15
7 -0.15
8 -0.15
9 -0.15

>  <PUBCHEM_EFFECTIVE_ROTOR_COUNT>  (1) 
1

>  <PUBCHEM_PHARMACOPHORE_FEATURES>  (1) 
3
1 2 acceptor
1 2 donor
6 4 6 7 8 9 10 rings

>  <PUBCHEM_HEAVY_ATOM_COUNT>  (1) 
10

>  <PUBCHEM_ATOM_DEF_STEREO_COUNT>  (1) 
0

>  <PUBCHEM_ATOM_UDEF_STEREO_COUNT>  (1) 
1

>  <PUBCHEM_BOND_DEF_STEREO_COUNT>  (1) 
0

>  <PUBCHEM_BOND_UDEF_STEREO_COUNT>  (1) 
0

>  <PUBCHEM_ISOTOPIC_ATOM_COUNT>  (1) 
0

>  <PUBCHEM_COMPONENT_COUNT>  (1) 
1

>  <PUBCHEM_CACTVS_TAUTO_COUNT>  (1) 
1

>  <PUBCHEM_CONFORMER_ID>  (1) 
0000498900000002

>  <PUBCHEM_MMFF94_ENERGY>  (1) 
23.9012

>  <PUBCHEM_FEATURE_SELFOVERLAP>  (1) 
15.223

>  <PUBCHEM_SHAPE_FINGERPRINT>  (1) 
10219947 1 18260266347941408244
11062470 55 11891330941686623742
12032990 46 18335424564796337042
12932764 1 18334290946469045820
14128692 85 18342170124240282647
14325111 11 18410854382328857820
14993402 34 18409162233960149526
16945 1 18187083953392207910
19026448 4 16487538044255899086
193761 8 17543061286874597190
21040471 1 18191308380124336884
23235685 24 18335417967689335312
23402655 69 18119505684444173045
23552423 10 18334012808739966039
2748010 2 17973450089756145222
29004967 10 17894918399154565025
5084963 1 18338509837114839813
528886 8 18409161099851302443

>  <PUBCHEM_SHAPE_MULTIPOLES>  (1) 
201.8
4.94
1.33
0.77
0.99
0.03
0.06
-0.6
0.12
0
-0.06
-0.35
0.03
-0.39

>  <PUBCHEM_SHAPE_SELFOVERLAP>  (1) 
404.969

>  <PUBCHEM_SHAPE_VOLUME>  (1) 
120.8

>  <PUBCHEM_COORDINATE_TYPE>  (1) 
2
5
10

$$$$
