18824
     RDKit          3D

 20 22  0  0  0  0  0  0  0  0999 V2000
    0.1472    2.2092    0.0053 O   0  0  0  0  0  0  0  0  0  0  0  0
   -2.1087    2.5437   -0.0397 O   0  0  0  0  0  0  0  0  0  0  0  0
    5.7161   -0.7201    0.0105 O   0  0  0  0  0  0  0  0  0  0  0  0
    4.3810   -2.4625   -0.0138 O   0  0  0  0  0  0  0  0  0  0  0  0
   -3.2829   -0.4981    1.1979 N   0  0  0  0  0  0  0  0  0  0  0  0
    4.5662   -1.2216   -0.0009 N   0  0  0  0  0  0  0  0  0  0  0  0
    1.0379   -0.0488   -0.0102 C   0  0  0  0  0  0  0  0  0  0  0  0
    1.2422    1.3256    0.0051 C   0  0  0  0  0  0  0  0  0  0  0  0
   -1.3738    0.2807   -0.0254 C   0  0  0  0  0  0  0  0  0  0  0  0
   -0.3246   -0.5557   -0.0199 C   0  0  0  0  0  0  0  0  0  0  0  0
    2.1488   -0.8960   -0.0115 C   0  0  0  0  0  0  0  0  0  0  0  0
    2.5217    1.8774    0.0183 C   0  0  0  0  0  0  0  0  0  0  0  0
    3.4388   -0.3577    0.0014 C   0  0  0  0  0  0  0  0  0  0  0  0
   -2.7371   -0.2820   -0.0195 C   0  0  0  0  0  0  0  0  0  0  0  0
   -1.1689    1.7553   -0.0182 C   0  0  0  0  0  0  0  0  0  0  0  0
    3.6245    1.0263    0.0161 C   0  0  0  0  0  0  0  0  0  0  0  0
   -3.3771   -0.5552   -1.2172 C   0  0  0  0  0  0  0  0  0  0  0  0
   -4.6615   -1.0849   -1.1619 C   0  0  0  0  0  0  0  0  0  0  0  0
   -4.5325   -1.0139    1.2119 C   0  0  0  0  0  0  0  0  0  0  0  0
   -5.2574   -1.3217    0.0718 C   0  0  0  0  0  0  0  0  0  0  0  0
  1  8  1  0
  1 15  1  0
  2 15  2  0
  3  6  1  0
  4  6  2  0
  5 14  2  0
  5 19  1  0
  6 13  1  0
  7  8  2  0
  7 10  1  0
  7 11  1  0
  8 12  1  0
  9 10  2  0
  9 14  1  0
  9 15  1  0
 11 13  2  0
 12 16  2  0
 13 16  1  0
 14 17  1  0
 17 18  2  0
 18 20  1  0
 19 20  2  0
M  CHG  2   3  -1   6   1
M  END
>  <PUBCHEM_COMPOUND_CID>  (1) 
18824

>  <PUBCHEM_CONFORMER_RMSD>  (1) 
0.6

>  <PUBCHEM_CONFORMER_DIVERSEORDER>  (1) 
1
3
2
4

>  <PUBCHEM_MMFF94_PARTIAL_CHARGES>  (1) 
28
1 -0.23
10 -0.18
11 -0.15
12 -0.15
13 0.13
14 0.34
15 0.71
16 -0.15
17 -0.15
18 -0.15
19 0.16
2 -0.57
20 -0.15
21 0.15
22 0.15
23 0.15
24 0.15
25 0.15
26 0.15
27 0.15
28 0.15
3 -0.52
4 -0.52
5 -0.62
6 0.91
7 0.03
8 0.08
9 -0.01

>  <PUBCHEM_EFFECTIVE_ROTOR_COUNT>  (1) 
2

>  <PUBCHEM_PHARMACOPHORE_FEATURES>  (1) 
8
1 2 acceptor
1 3 acceptor
1 3 anion
1 4 acceptor
1 5 acceptor
6 1 7 8 9 10 15 rings
6 5 14 17 18 19 20 rings
6 7 8 11 12 13 16 rings

>  <PUBCHEM_HEAVY_ATOM_COUNT>  (1) 
20

>  <PUBCHEM_ATOM_DEF_STEREO_COUNT>  (1) 
0

>  <PUBCHEM_ATOM_UDEF_STEREO_COUNT>  (1) 
0

>  <PUBCHEM_BOND_DEF_STEREO_COUNT>  (1) 
0

>  <PUBCHEM_BOND_UDEF_STEREO_COUNT>  (1) 
0

>  <PUBCHEM_ISOTOPIC_ATOM_COUNT>  (1) 
0

>  <PUBCHEM_COMPONENT_COUNT>  (1) 
1

>  <PUBCHEM_CACTVS_TAUTO_COUNT>  (1) 
1

>  <PUBCHEM_CONFORMER_ID>  (1) 
0000498800000001

>  <PUBCHEM_MMFF94_ENERGY>  (1) 
70.8414

>  <PUBCHEM_FEATURE_SELFOVERLAP>  (1) 
40.707

>  <PUBCHEM_SHAPE_FINGERPRINT>  (1) 
11543360 7 15502661528403025727
11796584 16 17458619051549162131
11806522 49 18408602548477077166
12032990 46 18407761443018815648
12236239 1 17846220012097161495
12596602 18 16774077392957327954
12633257 1 16486975132836033067
13140716 1 17764868395887136704
13288520 33 18412265012586579503
13544653 18 18408324410431661661
13583140 156 14979954718761028675
13760787 5 18411420656602810133
13862211 1 18410851066693681262
13955234 65 18268991071677208152
14739800 52 16127521764854627240
15188451 53 16271633594883125215
15196674 1 18410855455854735260
17357779 13 18261379079642370485
17492 89 18267866082308972910
1813 80 18270977794245378389
18186145 218 17385719218809035089
18222031 100 18342446062946288723
193927 3 18335991895516102022
19784866 140 18187361021817070595
200 152 18413385445269014613
20028762 73 18130783499026422774
20281475 54 18272087257544253429
20645477 70 18334289907182087574
21267235 1 18411707578020175102
221490 88 18408603660647240684
22182313 1 18263901354710706924
23175994 123 18113900507235598117
23402539 116 18411979148390708103
23559900 14 17967810591200469945
25147074 1 18339942453527161448
26918003 58 18186800313878639267
2871803 45 18187078459896921376
312423 11 18337122201969843100
314194 84 18341332279052679691
34797466 226 16443353129932527671
465052 167 18342463680865460823
5104073 3 18269549456285667752
5281201 14 17822007639986106557
542803 24 12685084891479952415
573450 72 17131837594678354227
602551 16 15194999526408972327
76465 3 18411413973844791370
7970288 3 18411697699153120639
83771 10 18342738533165806217
9709674 26 18335422382583386848

>  <PUBCHEM_SHAPE_MULTIPOLES>  (1) 
378.15
11.19
2.16
0.88
0.64
0.8
0
-7.1
0.06
1.28
-0.01
-1.19
-0.19
0.02

>  <PUBCHEM_SHAPE_SELFOVERLAP>  (1) 
840.579

>  <PUBCHEM_SHAPE_VOLUME>  (1) 
200.4

>  <PUBCHEM_COORDINATE_TYPE>  (1) 
2
5
10

$$$$
