18822
     RDKit          3D

 20 22  0  0  0  0  0  0  0  0999 V2000
    0.1713    2.2143    0.0077 O   0  0  0  0  0  0  0  0  0  0  0  0
   -2.0833    2.5579   -0.0326 O   0  0  0  0  0  0  0  0  0  0  0  0
    5.7282   -0.7378    0.0063 O   0  0  0  0  0  0  0  0  0  0  0  0
    4.3858   -2.4748   -0.0103 O   0  0  0  0  0  0  0  0  0  0  0  0
    4.5761   -1.2346   -0.0010 N   0  0  0  0  0  0  0  0  0  0  0  0
   -5.3121   -1.3177    0.0169 N   0  0  0  0  0  0  0  0  0  0  0  0
    1.0527   -0.0475   -0.0044 C   0  0  0  0  0  0  0  0  0  0  0  0
   -1.3577    0.2919   -0.0145 C   0  0  0  0  0  0  0  0  0  0  0  0
    1.2627    1.3261    0.0069 C   0  0  0  0  0  0  0  0  0  0  0  0
   -0.3119   -0.5487   -0.0094 C   0  0  0  0  0  0  0  0  0  0  0  0
    2.1601   -0.8991   -0.0064 C   0  0  0  0  0  0  0  0  0  0  0  0
   -2.7233   -0.2652   -0.0038 C   0  0  0  0  0  0  0  0  0  0  0  0
    2.5444    1.8727    0.0155 C   0  0  0  0  0  0  0  0  0  0  0  0
    3.4523   -0.3661    0.0019 C   0  0  0  0  0  0  0  0  0  0  0  0
   -1.1468    1.7656   -0.0115 C   0  0  0  0  0  0  0  0  0  0  0  0
    3.6437    1.0172    0.0128 C   0  0  0  0  0  0  0  0  0  0  0  0
   -3.3644   -0.5160    1.2039 C   0  0  0  0  0  0  0  0  0  0  0  0
   -3.3741   -0.5395   -1.2011 C   0  0  0  0  0  0  0  0  0  0  0  0
   -4.6473   -1.0380    1.1603 C   0  0  0  0  0  0  0  0  0  0  0  0
   -4.6564   -1.0604   -1.1371 C   0  0  0  0  0  0  0  0  0  0  0  0
  1  9  1  0
  1 15  1  0
  2 15  2  0
  3  5  1  0
  4  5  2  0
  5 14  1  0
  6 19  2  0
  6 20  1  0
  7  9  2  0
  7 10  1  0
  7 11  1  0
  8 10  2  0
  8 12  1  0
  8 15  1  0
  9 13  1  0
 11 14  2  0
 12 17  2  0
 12 18  1  0
 13 16  2  0
 14 16  1  0
 17 19  1  0
 18 20  2  0
M  CHG  2   3  -1   5   1
M  END
>  <PUBCHEM_COMPOUND_CID>  (1) 
18822

>  <PUBCHEM_CONFORMER_RMSD>  (1) 
0.6

>  <PUBCHEM_CONFORMER_DIVERSEORDER>  (1) 
1
2

>  <PUBCHEM_MMFF94_PARTIAL_CHARGES>  (1) 
28
1 -0.23
10 -0.18
11 -0.15
12 0.03
13 -0.15
14 0.13
15 0.71
16 -0.15
17 -0.15
18 -0.15
19 0.16
2 -0.57
20 0.16
21 0.15
22 0.15
23 0.15
24 0.15
25 0.15
26 0.15
27 0.15
28 0.15
3 -0.52
4 -0.52
5 0.91
6 -0.62
7 0.03
8 -0.01
9 0.08

>  <PUBCHEM_EFFECTIVE_ROTOR_COUNT>  (1) 
2

>  <PUBCHEM_PHARMACOPHORE_FEATURES>  (1) 
8
1 2 acceptor
1 3 acceptor
1 3 anion
1 4 acceptor
1 6 acceptor
6 1 7 8 9 10 15 rings
6 6 12 17 18 19 20 rings
6 7 9 11 13 14 16 rings

>  <PUBCHEM_HEAVY_ATOM_COUNT>  (1) 
20

>  <PUBCHEM_ATOM_DEF_STEREO_COUNT>  (1) 
0

>  <PUBCHEM_ATOM_UDEF_STEREO_COUNT>  (1) 
0

>  <PUBCHEM_BOND_DEF_STEREO_COUNT>  (1) 
0

>  <PUBCHEM_BOND_UDEF_STEREO_COUNT>  (1) 
0

>  <PUBCHEM_ISOTOPIC_ATOM_COUNT>  (1) 
0

>  <PUBCHEM_COMPONENT_COUNT>  (1) 
1

>  <PUBCHEM_CACTVS_TAUTO_COUNT>  (1) 
1

>  <PUBCHEM_CONFORMER_ID>  (1) 
0000498600000001

>  <PUBCHEM_MMFF94_ENERGY>  (1) 
71.5059

>  <PUBCHEM_FEATURE_SELFOVERLAP>  (1) 
40.706

>  <PUBCHEM_SHAPE_FINGERPRINT>  (1) 
11543360 7 15502381157211791614
11796584 16 17458337576577700259
11806522 49 18408603643704287134
12032990 46 18407761443045195912
12236239 1 17846220012091880259
12596602 18 16774077388667609426
12633257 1 16558753446678299267
13140716 1 17764868391607993664
13288520 33 18411983537599299831
13544653 18 18408324410410575621
13583140 156 14979954718739916675
13760787 5 18411420656597535373
13862211 1 18410852166210577290
13955234 65 18268991071693032416
14739800 52 16127241389400113360
15188451 53 16271633594872569199
15196674 1 18410855455865291236
17357779 13 18261380174843213173
17492 89 18267584603074237678
1813 80 18270696319258137717
18186145 218 17385719214482432297
18222031 100 18342446062930451491
193927 3 18335991895526651546
19784866 140 18187361017495723067
200 152 18413385440958229541
20028762 73 18130783499005323766
20281475 54 18272087257517899141
20645477 70 18334289902902938022
21267235 1 18411707573725207790
221490 88 18408604760179967460
22182313 1 18263902449937916908
23175994 123 18113620127465004917
23402539 116 18411979144064079295
23559900 14 17967811686422411680
25147074 1 18339942453537710968
26918003 58 18186800309567841235
2871803 45 18187078459902202640
312423 11 18337122201996229844
314194 84 18341332279057954466
34797466 226 16443354229433599431
465052 167 18342464780377082079
5104073 3 18269550551512877736
5281201 14 17822008739513571573
542803 24 12612746921934730559
573450 72 17131837590372830947
602551 16 15267057120431063007
76465 3 18411695448832045034
7970288 3 18411416228492476263
83771 10 18342458153379395297
9709674 26 18335422382599230592

>  <PUBCHEM_SHAPE_MULTIPOLES>  (1) 
378.15
11.1
2.16
0.89
0.96
0.81
0.01
-7
0.05
1.26
-0.01
-1.21
-0.19
0.01

>  <PUBCHEM_SHAPE_SELFOVERLAP>  (1) 
841.267

>  <PUBCHEM_SHAPE_VOLUME>  (1) 
199.9

>  <PUBCHEM_COORDINATE_TYPE>  (1) 
2
5
10

$$$$
