18836
     RDKit          3D

 22 23  0  0  1  0  0  0  0  0999 V2000
   -3.9944   -1.4509    0.0315 N   0  0  0  0  0  0  0  0  0  0  0  0
   -1.5529    3.1325    0.9949 N   0  0  0  0  0  0  0  0  0  0  0  0
   -0.3362    1.1420   -0.2674 C   0  0  0  0  0  0  0  0  0  0  0  0
    0.0723    1.6511   -1.7149 C   0  0  0  0  0  0  0  0  0  0  0  0
   -1.3806   -0.0256   -0.3862 C   0  0  0  0  0  0  0  0  0  0  0  0
    0.9290    0.6334    0.4633 C   0  0  0  0  0  0  0  0  0  0  0  0
   -1.8480   -0.6268    0.9559 C   0  0  0  0  0  0  0  0  0  0  0  0
    1.0771    2.8163   -1.7152 C   0  0  0  0  0  0  0  0  0  0  0  0
   -1.1370    2.0517   -2.5812 C   0  0  0  0  0  0  0  0  0  0  0  0
    1.6722   -0.3985   -0.0699 C   0  0  0  0  0  0  0  0  0  0  0  0
   -2.7948   -1.8170    0.7746 C   0  0  0  0  0  0  0  0  0  0  0  0
   -1.0149    2.2597    0.4501 C   0  0  0  0  0  0  0  0  0  0  0  0
    1.2301    1.2755    1.6393 C   0  0  0  0  0  0  0  0  0  0  0  0
    2.8184   -0.8174    0.6469 C   0  0  0  0  0  0  0  0  0  0  0  0
    2.3574    0.8638    2.3439 C   0  0  0  0  0  0  0  0  0  0  0  0
    1.3435   -1.0400   -1.2752 C   0  0  0  0  0  0  0  0  0  0  0  0
    3.1474   -0.1759    1.8521 C   0  0  0  0  0  0  0  0  0  0  0  0
    3.6021   -1.8655    0.1371 C   0  0  0  0  0  0  0  0  0  0  0  0
    2.1334   -2.0797   -1.7666 C   0  0  0  0  0  0  0  0  0  0  0  0
   -4.7441   -0.4128    0.7415 C   0  0  0  0  0  0  0  0  0  0  0  0
   -4.8407   -2.6243   -0.1926 C   0  0  0  0  0  0  0  0  0  0  0  0
    3.2605   -2.4917   -1.0618 C   0  0  0  0  0  0  0  0  0  0  0  0
  1 11  1  0
  1 20  1  0
  1 21  1  0
  2 12  3  0
  3  4  1  0
  3  5  1  0
  3  6  1  0
  3 12  1  0
  4  8  1  0
  4  9  1  0
  5  7  1  0
  6 10  2  0
  6 13  1  0
  7 11  1  0
 10 14  1  0
 10 16  1  0
 13 15  2  0
 14 17  2  0
 14 18  1  0
 15 17  1  0
 16 19  2  0
 18 22  2  0
 19 22  1  0
M  END
>  <PUBCHEM_COMPOUND_CID>  (1) 
18836

>  <PUBCHEM_CONFORMER_RMSD>  (1) 
0.8

>  <PUBCHEM_CONFORMER_DIVERSEORDER>  (1) 
2
7
22
28
31
27
29
35
24
6
33
23
19
3
34
5
8
4
10
26
12
14
30
21
18
13
17
15
25
16
36
1
32
20
11
9

>  <PUBCHEM_MMFF94_PARTIAL_CHARGES>  (1) 
22
1 -0.81
11 0.27
12 0.36
13 -0.15
15 -0.15
16 -0.15
17 -0.15
18 -0.15
19 -0.15
2 -0.56
20 0.27
21 0.27
22 -0.15
3 0.34
36 0.15
37 0.15
38 0.15
39 0.15
40 0.15
41 0.15
48 0.15
6 -0.14

>  <PUBCHEM_EFFECTIVE_ROTOR_COUNT>  (1) 
6

>  <PUBCHEM_PHARMACOPHORE_FEATURES>  (1) 
6
1 1 cation
1 2 acceptor
3 4 8 9 hydrophobe
4 3 4 5 7 hydrophobe
6 10 14 16 18 19 22 rings
6 6 10 13 14 15 17 rings

>  <PUBCHEM_HEAVY_ATOM_COUNT>  (1) 
22

>  <PUBCHEM_ATOM_DEF_STEREO_COUNT>  (1) 
0

>  <PUBCHEM_ATOM_UDEF_STEREO_COUNT>  (1) 
1

>  <PUBCHEM_BOND_DEF_STEREO_COUNT>  (1) 
0

>  <PUBCHEM_BOND_UDEF_STEREO_COUNT>  (1) 
0

>  <PUBCHEM_ISOTOPIC_ATOM_COUNT>  (1) 
0

>  <PUBCHEM_COMPONENT_COUNT>  (1) 
1

>  <PUBCHEM_CACTVS_TAUTO_COUNT>  (1) 
1

>  <PUBCHEM_CONFORMER_ID>  (1) 
0000499400000002

>  <PUBCHEM_MMFF94_ENERGY>  (1) 
85.5975

>  <PUBCHEM_FEATURE_SELFOVERLAP>  (1) 
30.493

>  <PUBCHEM_SHAPE_FINGERPRINT>  (1) 
107951 10 14678550827714903758
11578080 2 18340773641468287972
11582403 64 16032862429571402536
116883 192 18411426077036088881
12202030 40 18268429044946238330
12293681 25 18122597510339735958
12293681 4 17341253662790397160
12617007 42 18187370964703374751
12633257 1 17273718467536181403
12892183 10 17418091057370841715
13083527 12 17896303891428048236
13583140 156 17203033180205624697
13681431 1 18042979850653537653
14004458 79 17459450191934437861
14790565 3 17768242771271608712
14863182 85 18054514869842477143
15163728 17 15433157129382644693
16752209 62 17676763172286223315
16945 1 17915998283875507472
17357779 13 18338787945064206559
17492 54 17753076026795037558
1813 80 18113060432732634579
20600515 1 18041833025697450537
21452121 199 18410301340696124925
21756936 100 16124694993885483192
22112679 90 17678194714513044036
229495 10 17131816664812208457
23419403 2 18271511014461407252
23557571 272 18187642466971641964
23559900 14 18342178825691238245
2748010 2 17701234977047737264
3052486 1 17822286813213643981
31174 14 17917423242065215362
3380486 145 17983262045528153183
3380486 77 17749375001509484571
394222 165 17465384509498182785
404807 78 16242925638019078711
484985 159 17121724024512364190
6442390 28 17399229755356042893
6443956 14 18412826919390708875
81228 2 18189343385410277211
9841814 1 17676764387587712921
9981440 41 16836501035984550136
9999458 23 17701822309251117944

>  <PUBCHEM_SHAPE_MULTIPOLES>  (1) 
442.79
6.89
3.39
2.19
7.35
0.96
0.32
-7.13
-1.63
0.9
1.31
-1.32
1.07
1.04

>  <PUBCHEM_SHAPE_SELFOVERLAP>  (1) 
927.68

>  <PUBCHEM_SHAPE_VOLUME>  (1) 
249.8

>  <PUBCHEM_COORDINATE_TYPE>  (1) 
2
5
10

$$$$
