18835
     RDKit          3D

  9  8  0  0  0  0  0  0  0  0999 V2000
    1.7074   -1.7426   -0.2858 O   0  0  0  0  0  0  0  0  0  0  0  0
    0.3546   -0.1365   -0.1037 N   0  0  0  0  0  0  0  0  0  0  0  0
    0.7368   -1.3131    0.3493 N   0  0  0  0  0  0  0  0  0  0  0  0
   -1.0947    0.0832   -0.0578 C   0  0  0  0  0  0  0  0  0  0  0  0
   -1.4099    1.4109   -0.7550 C   0  0  0  0  0  0  0  0  0  0  0  0
   -1.7868   -1.0719   -0.7891 C   0  0  0  0  0  0  0  0  0  0  0  0
   -1.5557    0.1331    1.4037 C   0  0  0  0  0  0  0  0  0  0  0  0
    1.0400    0.9629    0.5844 C   0  0  0  0  0  0  0  0  0  0  0  0
    2.0083    1.6740   -0.3458 C   0  0  0  0  0  0  0  0  0  0  0  0
  1  3  2  0
  2  3  1  0
  2  4  1  0
  2  8  1  0
  4  5  1  0
  4  6  1  0
  4  7  1  0
  8  9  1  0
M  END
>  <PUBCHEM_COMPOUND_CID>  (1) 
18835

>  <PUBCHEM_CONFORMER_RMSD>  (1) 
0.6

>  <PUBCHEM_CONFORMER_DIVERSEORDER>  (1) 
1
3
4
2

>  <PUBCHEM_MMFF94_PARTIAL_CHARGES>  (1) 
5
1 -0.16
2 -0.36
3 -0.01
4 0.27
8 0.27

>  <PUBCHEM_EFFECTIVE_ROTOR_COUNT>  (1) 
3

>  <PUBCHEM_PHARMACOPHORE_FEATURES>  (1) 
1
4 4 5 6 7 hydrophobe

>  <PUBCHEM_HEAVY_ATOM_COUNT>  (1) 
9

>  <PUBCHEM_ATOM_DEF_STEREO_COUNT>  (1) 
0

>  <PUBCHEM_ATOM_UDEF_STEREO_COUNT>  (1) 
0

>  <PUBCHEM_BOND_DEF_STEREO_COUNT>  (1) 
0

>  <PUBCHEM_BOND_UDEF_STEREO_COUNT>  (1) 
0

>  <PUBCHEM_ISOTOPIC_ATOM_COUNT>  (1) 
0

>  <PUBCHEM_COMPONENT_COUNT>  (1) 
1

>  <PUBCHEM_CACTVS_TAUTO_COUNT>  (1) 
1

>  <PUBCHEM_CONFORMER_ID>  (1) 
0000499300000001

>  <PUBCHEM_MMFF94_ENERGY>  (1) 
24.1071

>  <PUBCHEM_FEATURE_SELFOVERLAP>  (1) 
5.074

>  <PUBCHEM_SHAPE_FINGERPRINT>  (1) 
12423570 1 13635438029966945915
12897270 3 18194104433877705253
137420 1 15084897992605354443
16714656 1 17903355158143846148
18185500 45 18197775492644196774
21040471 1 18050275166122549544
23552333 60 18200582696449072483
23552423 10 18410000031602860271
24536 1 17312827069374991749
29004967 10 18120384154894069186
5084963 1 18127688438349818292

>  <PUBCHEM_SHAPE_MULTIPOLES>  (1) 
169.38
2.61
1.81
1.05
0.59
0.48
-0.26
-0.45
0.27
0.64
0.35
-0.48
-0.16
-0.08

>  <PUBCHEM_SHAPE_SELFOVERLAP>  (1) 
314.237

>  <PUBCHEM_SHAPE_VOLUME>  (1) 
109.4

>  <PUBCHEM_COORDINATE_TYPE>  (1) 
2
5
10

$$$$
