1883
     RDKit          3D

 14 15  0  0  1  0  0  0  0  0999 V2000
    1.2364    2.2354   -0.3711 S   0  0  0  0  0  0  0  0  0  0  0  0
    1.2623   -2.3997   -0.0113 O   0  0  0  0  0  0  0  0  0  0  0  0
   -1.7405   -1.5307   -1.3586 O   0  0  0  0  0  0  0  0  0  0  0  0
   -2.3080   -1.7438    0.8465 O   0  0  0  0  0  0  0  0  0  0  0  0
    0.4534   -0.2085    0.3097 N   0  0  0  0  0  0  0  0  0  0  0  0
    3.2121    0.0573   -0.8299 N   0  0  0  0  0  0  0  0  0  0  0  0
    1.3827    0.8193    0.7423 C   0  0  0  0  0  0  0  0  0  0  0  0
    2.5032   -0.1938    0.4207 C   0  0  0  0  0  0  0  0  0  0  0  0
    1.3484   -1.2160    0.2188 C   0  0  0  0  0  0  0  0  0  0  0  0
   -0.8736    0.0062    0.1179 C   0  0  0  0  0  0  0  0  0  0  0  0
   -1.3824    1.2583    0.0320 C   0  0  0  0  0  0  0  0  0  0  0  0
   -0.5192    2.5181    0.0391 C   0  0  0  0  0  0  0  0  0  0  0  0
   -2.8519    1.5793   -0.0990 C   0  0  0  0  0  0  0  0  0  0  0  0
   -1.7229   -1.1814   -0.0571 C   0  0  0  0  0  0  0  0  0  0  0  0
  1  7  1  0
  1 12  1  0
  2  9  2  0
  3 14  1  0
  4 14  2  0
  5  7  1  0
  5  9  1  0
  5 10  1  0
  6  8  1  0
  7  8  1  0
  8  9  1  0
 10 11  2  0
 10 14  1  0
 11 12  1  0
 11 13  1  0
M  END
>  <PUBCHEM_COMPOUND_CID>  (1) 
1883

>  <PUBCHEM_CONFORMER_RMSD>  (1) 
0.6

>  <PUBCHEM_CONFORMER_DIVERSEORDER>  (1) 
1
4
2
3

>  <PUBCHEM_MMFF94_PARTIAL_CHARGES>  (1) 
17
1 -0.45
10 0.12
11 -0.28
12 0.37
13 0.14
14 0.71
19 0.36
2 -0.57
20 0.36
24 0.5
3 -0.65
4 -0.57
5 -0.39
6 -0.93
7 0.44
8 0.26
9 0.58

>  <PUBCHEM_EFFECTIVE_ROTOR_COUNT>  (1) 
1.6

>  <PUBCHEM_PHARMACOPHORE_FEATURES>  (1) 
8
1 2 acceptor
1 3 acceptor
1 4 acceptor
1 6 cation
1 6 donor
3 3 4 14 anion
4 5 7 8 9 rings
6 1 5 7 10 11 12 rings

>  <PUBCHEM_HEAVY_ATOM_COUNT>  (1) 
14

>  <PUBCHEM_ATOM_DEF_STEREO_COUNT>  (1) 
0

>  <PUBCHEM_ATOM_UDEF_STEREO_COUNT>  (1) 
2

>  <PUBCHEM_BOND_DEF_STEREO_COUNT>  (1) 
0

>  <PUBCHEM_BOND_UDEF_STEREO_COUNT>  (1) 
0

>  <PUBCHEM_ISOTOPIC_ATOM_COUNT>  (1) 
0

>  <PUBCHEM_COMPONENT_COUNT>  (1) 
1

>  <PUBCHEM_CACTVS_TAUTO_COUNT>  (1) 
1

>  <PUBCHEM_CONFORMER_ID>  (1) 
0000075B00000001

>  <PUBCHEM_MMFF94_ENERGY>  (1) 
47.3025

>  <PUBCHEM_FEATURE_SELFOVERLAP>  (1) 
40.909

>  <PUBCHEM_SHAPE_FINGERPRINT>  (1) 
1 1 17113527117691516476
10353120 184 18264777725580627982
10967382 1 18265895752733386657
11206711 2 18409166649043955660
12423570 1 12111948052710399009
12524768 44 18268706108706491489
13140716 1 18410570721124610400
13380535 21 18338810995810701538
13380535 76 18267012860784139138
14251711 518 18411973663501394583
14614273 12 18188758475241858484
15219459 52 18047756992241948572
16945 1 18338796702254752328
193761 8 18337390555832169857
20588541 1 18267583515988004288
20645476 183 17751942227794464406
20871998 184 18343585122801471605
21501502 16 18337667512328990962
22802520 49 18127708049339173758
2334 1 18194117640818172880
23419403 2 16540372949193374401
23552423 10 18336261352947452161
23559900 14 18272091540565741958
241688 4 18410571824894048216
2748010 2 18266451182172913232
5084963 1 18059016227712839850
5255222 1 18268419153489077104
528886 8 18409165485303153000
53812654 25 18196352750314677160
66348 1 18339919303552585640
81228 2 18338223882540305521

>  <PUBCHEM_SHAPE_MULTIPOLES>  (1) 
264.39
3.78
2.74
0.85
0.35
0.31
-0.11
-0.2
-0.3
-0.61
-0.16
-0.02
-0.15
-0.09

>  <PUBCHEM_SHAPE_SELFOVERLAP>  (1) 
546.788

>  <PUBCHEM_SHAPE_VOLUME>  (1) 
153.4

>  <PUBCHEM_COORDINATE_TYPE>  (1) 
2
5
10

$$$$
