18837
     RDKit          3D

 19 20  0  0  1  0  0  0  0  0999 V2000
    4.0294    0.8735    0.0161 N   0  0  0  0  0  0  0  0  0  0  0  0
    0.3638   -3.9840    0.2706 N   0  0  0  0  0  0  0  0  0  0  0  0
    1.8085   -0.9371   -0.6072 C   0  0  0  0  0  0  0  0  0  0  0  0
    0.3489   -1.4602   -0.5274 C   0  0  0  0  0  0  0  0  0  0  0  0
    1.8915    0.5046   -1.1256 C   0  0  0  0  0  0  0  0  0  0  0  0
   -0.5536   -0.6289    0.3310 C   0  0  0  0  0  0  0  0  0  0  0  0
    3.3453    0.9539   -1.2691 C   0  0  0  0  0  0  0  0  0  0  0  0
   -1.6930    0.0093   -0.1856 C   0  0  0  0  0  0  0  0  0  0  0  0
   -2.5052    0.7820    0.6784 C   0  0  0  0  0  0  0  0  0  0  0  0
   -0.2198   -0.5073    1.6802 C   0  0  0  0  0  0  0  0  0  0  0  0
   -2.0442   -0.1023   -1.5407 C   0  0  0  0  0  0  0  0  0  0  0  0
   -2.1538    0.8936    2.0335 C   0  0  0  0  0  0  0  0  0  0  0  0
    0.3628   -2.8789   -0.0839 C   0  0  0  0  0  0  0  0  0  0  0  0
   -1.0183    0.2526    2.5298 C   0  0  0  0  0  0  0  0  0  0  0  0
   -3.6444    1.4203    0.1618 C   0  0  0  0  0  0  0  0  0  0  0  0
    3.3946    1.7588    0.9941 C   0  0  0  0  0  0  0  0  0  0  0  0
    5.4457    1.2130   -0.1317 C   0  0  0  0  0  0  0  0  0  0  0  0
   -3.1797    0.5386   -2.0368 C   0  0  0  0  0  0  0  0  0  0  0  0
   -3.9784    1.2985   -1.1874 C   0  0  0  0  0  0  0  0  0  0  0  0
  1  7  1  0
  1 16  1  0
  1 17  1  0
  2 13  3  0
  3  4  1  0
  3  5  1  0
  4  6  1  0
  4 13  1  0
  5  7  1  0
  6  8  2  0
  6 10  1  0
  8  9  1  0
  8 11  1  0
  9 12  2  0
  9 15  1  0
 10 14  2  0
 11 18  2  0
 12 14  1  0
 15 19  2  0
 18 19  1  0
M  END
>  <PUBCHEM_COMPOUND_CID>  (1) 
18837

>  <PUBCHEM_CONFORMER_RMSD>  (1) 
0.6

>  <PUBCHEM_CONFORMER_DIVERSEORDER>  (1) 
5
25
35
9
30
52
31
2
56
51
61
11
63
60
22
7
50
29
33
24
57
6
4
38
53
48
41
16
62
64
54
1
34
21
23
18
28
19
59
3
49
26
39
36
58
40
42
14
10
17
44
20
47
15
46
32
45
13
8
43
12
27
55
37

>  <PUBCHEM_MMFF94_PARTIAL_CHARGES>  (1) 
22
1 -0.81
10 -0.15
11 -0.15
12 -0.15
13 0.36
14 -0.15
15 -0.15
16 0.27
17 0.27
18 -0.15
19 -0.15
2 -0.56
27 0.15
28 0.15
29 0.15
30 0.15
31 0.15
38 0.15
39 0.15
4 0.34
6 -0.14
7 0.27

>  <PUBCHEM_EFFECTIVE_ROTOR_COUNT>  (1) 
5

>  <PUBCHEM_PHARMACOPHORE_FEATURES>  (1) 
4
1 1 cation
1 2 acceptor
6 6 8 9 10 12 14 rings
6 8 9 11 15 18 19 rings

>  <PUBCHEM_HEAVY_ATOM_COUNT>  (1) 
19

>  <PUBCHEM_ATOM_DEF_STEREO_COUNT>  (1) 
0

>  <PUBCHEM_ATOM_UDEF_STEREO_COUNT>  (1) 
1

>  <PUBCHEM_BOND_DEF_STEREO_COUNT>  (1) 
0

>  <PUBCHEM_BOND_UDEF_STEREO_COUNT>  (1) 
0

>  <PUBCHEM_ISOTOPIC_ATOM_COUNT>  (1) 
0

>  <PUBCHEM_COMPONENT_COUNT>  (1) 
1

>  <PUBCHEM_CACTVS_TAUTO_COUNT>  (1) 
1

>  <PUBCHEM_CONFORMER_ID>  (1) 
0000499500000005

>  <PUBCHEM_MMFF94_ENERGY>  (1) 
52.609

>  <PUBCHEM_FEATURE_SELFOVERLAP>  (1) 
20.324

>  <PUBCHEM_SHAPE_FINGERPRINT>  (1) 
11582403 64 17025121160496712831
11640471 11 17844819087457901897
11725454 13 17676754410257397429
121448 382 18272365425143328391
12251169 10 14418135123248649564
12633257 1 15647050482406371676
12788726 201 17611178648072567186
12892183 10 14562537296807826844
13004483 165 16737789278349572914
13583140 156 17749955582546242416
14420673 8 15141227773373270720
14957384 54 17968938720871046732
1813 80 17336753309905874247
18186145 218 18341626892639869118
18219364 16 18335998535377377048
192875 21 17775563118378966888
19765921 60 18202282481048119755
19784866 34 18342459209972959705
20300324 65 16128662950734717512
20871999 31 15626506064707482885
21524375 3 17894628183929846271
22907989 373 17839192053519935572
23382010 3 17988912409807696531
23419403 2 17536345568594522859
23557571 272 17097240280283884603
23559900 14 16299241086015792858
394222 165 18269829822649677475
4072396 5 14201696212968068113
4340502 62 18268734782641701531
474 4 18341329985782567994
57724786 102 18188226337890662748
59755656 520 18200049420430097502
81228 2 17833012793856235422
84936 182 18198904716998008544
90316 7 14057010416468264247
9981440 41 18333729091795855240

>  <PUBCHEM_SHAPE_MULTIPOLES>  (1) 
381.05
7.65
2.54
2.04
7.36
3.45
-0.67
-6.65
2.33
1.02
-0.29
-1.52
-0.55
0.13

>  <PUBCHEM_SHAPE_SELFOVERLAP>  (1) 
799.745

>  <PUBCHEM_SHAPE_VOLUME>  (1) 
213.5

>  <PUBCHEM_COORDINATE_TYPE>  (1) 
2
5
10

$$$$
