18834
     RDKit          3D

 38 41  0  0  0  0  0  0  0  0999 V2000
   -3.1639   -0.6832    1.9001 O   0  0  0  0  0  0  0  0  0  0  0  0
   -5.3830   -2.3025    1.8249 O   0  0  0  0  0  0  0  0  0  0  0  0
   -6.6700   -2.7766   -0.5800 O   0  0  0  0  0  0  0  0  0  0  0  0
    7.4894   -1.7751    0.1344 O   0  0  0  0  0  0  0  0  0  0  0  0
   -1.1325    4.4493    1.2625 O   0  0  0  0  0  0  0  0  0  0  0  0
    6.1085   -1.0595   -2.1430 O   0  0  0  0  0  0  0  0  0  0  0  0
    3.5520   -0.6369    2.5242 O   0  0  0  0  0  0  0  0  0  0  0  0
   -1.3383    4.9438   -0.9764 O   0  0  0  0  0  0  0  0  0  0  0  0
    0.0972    2.1908   -0.4322 N   0  0  0  0  0  0  0  0  0  0  0  0
    2.2042    0.0564    0.3401 N   0  0  0  0  0  0  0  0  0  0  0  0
   -0.6960   -1.3955   -0.8378 N   0  0  0  0  0  0  0  0  0  0  0  0
    6.1277   -1.5475    2.5943 N   0  0  0  0  0  0  0  0  0  0  0  0
   -2.1493    0.5278   -0.4553 C   0  0  0  0  0  0  0  0  0  0  0  0
   -2.2963    1.8968   -0.2612 C   0  0  0  0  0  0  0  0  0  0  0  0
   -0.8805   -0.0107   -0.6378 C   0  0  0  0  0  0  0  0  0  0  0  0
    0.2040    0.8546   -0.6185 C   0  0  0  0  0  0  0  0  0  0  0  0
   -3.3206   -0.3324   -0.4667 C   0  0  0  0  0  0  0  0  0  0  0  0
    1.5612    0.3974   -0.7988 C   0  0  0  0  0  0  0  0  0  0  0  0
   -1.1519    2.6779   -0.2581 C   0  0  0  0  0  0  0  0  0  0  0  0
   -3.7917   -0.9110    0.7096 C   0  0  0  0  0  0  0  0  0  0  0  0
    4.1341   -0.4829   -1.0082 C   0  0  0  0  0  0  0  0  0  0  0  0
    3.4791   -0.3766    0.2052 C   0  0  0  0  0  0  0  0  0  0  0  0
   -3.6403    2.5183   -0.0613 C   0  0  0  0  0  0  0  0  0  0  0  0
   -3.9691   -0.5718   -1.6760 C   0  0  0  0  0  0  0  0  0  0  0  0
    2.1290    0.3270   -2.0606 C   0  0  0  0  0  0  0  0  0  0  0  0
    3.4415   -0.1224   -2.1631 C   0  0  0  0  0  0  0  0  0  0  0  0
   -4.9177   -1.7337    0.6762 C   0  0  0  0  0  0  0  0  0  0  0  0
   -5.0949   -1.3944   -1.7093 C   0  0  0  0  0  0  0  0  0  0  0  0
   -5.5694   -1.9752   -0.5333 C   0  0  0  0  0  0  0  0  0  0  0  0
    5.5204   -0.9626   -1.0728 C   0  0  0  0  0  0  0  0  0  0  0  0
    4.1518   -0.7401    1.4595 C   0  0  0  0  0  0  0  0  0  0  0  0
    5.5610   -1.2270    1.3926 C   0  0  0  0  0  0  0  0  0  0  0  0
    6.1829   -1.3244    0.2067 C   0  0  0  0  0  0  0  0  0  0  0  0
   -1.2182    4.1189   -0.0620 C   0  0  0  0  0  0  0  0  0  0  0  0
   -6.3477   -1.5619    2.5686 C   0  0  0  0  0  0  0  0  0  0  0  0
   -6.4496   -4.1682   -0.8013 C   0  0  0  0  0  0  0  0  0  0  0  0
    8.4243   -0.7301    0.2299 C   0  0  0  0  0  0  0  0  0  0  0  0
   -1.1875    5.8431    1.5850 C   0  0  0  0  0  0  0  0  0  0  0  0
  1 20  1  0
  2 27  1  0
  2 35  1  0
  3 29  1  0
  3 36  1  0
  4 33  1  0
  4 37  1  0
  5 34  1  0
  5 38  1  0
  6 30  2  0
  7 31  2  0
  8 34  2  0
  9 16  2  0
  9 19  1  0
 10 18  2  0
 10 22  1  0
 11 15  1  0
 12 32  1  0
 13 14  1  0
 13 15  2  0
 13 17  1  0
 14 19  2  0
 14 23  1  0
 15 16  1  0
 16 18  1  0
 17 20  2  0
 17 24  1  0
 18 25  1  0
 19 34  1  0
 20 27  1  0
 21 22  2  0
 21 26  1  0
 21 30  1  0
 22 31  1  0
 24 28  2  0
 25 26  2  0
 27 29  2  0
 28 29  1  0
 30 33  1  0
 31 32  1  0
 32 33  2  0
M  END
>  <PUBCHEM_COMPOUND_CID>  (1) 
18834

>  <PUBCHEM_CONFORMER_RMSD>  (1) 
1

>  <PUBCHEM_CONFORMER_DIVERSEORDER>  (1) 
4
6
8
3
10
9
11
5
2
1
7

>  <PUBCHEM_MMFF94_PARTIAL_CHARGES>  (1) 
45
1 -0.53
10 -0.62
11 -0.9
12 -0.9
14 -0.14
15 0.1
16 0.31
18 0.31
19 0.4
2 -0.36
20 0.08
21 0.09
22 0.4
23 0.14
24 -0.15
25 -0.15
26 -0.15
27 0.08
28 -0.15
29 0.08
3 -0.36
30 0.47
31 0.47
32 0.11
33 0.09
34 0.63
35 0.28
36 0.28
37 0.28
38 0.28
4 -0.36
42 0.15
43 0.15
44 0.15
45 0.15
46 0.4
47 0.4
48 0.45
49 0.4
5 -0.43
50 0.4
6 -0.57
7 -0.57
8 -0.57
9 -0.62

>  <PUBCHEM_EFFECTIVE_ROTOR_COUNT>  (1) 
7

>  <PUBCHEM_PHARMACOPHORE_FEATURES>  (1) 
17
1 1 donor
1 10 acceptor
1 11 cation
1 11 donor
1 12 cation
1 12 donor
1 2 acceptor
1 3 acceptor
1 4 acceptor
1 6 acceptor
1 7 acceptor
1 8 acceptor
1 9 acceptor
6 10 18 21 22 25 26 rings
6 17 20 24 27 28 29 rings
6 21 22 30 31 32 33 rings
6 9 13 14 15 16 19 rings

>  <PUBCHEM_HEAVY_ATOM_COUNT>  (1) 
38

>  <PUBCHEM_ATOM_DEF_STEREO_COUNT>  (1) 
0

>  <PUBCHEM_ATOM_UDEF_STEREO_COUNT>  (1) 
0

>  <PUBCHEM_BOND_DEF_STEREO_COUNT>  (1) 
0

>  <PUBCHEM_BOND_UDEF_STEREO_COUNT>  (1) 
0

>  <PUBCHEM_ISOTOPIC_ATOM_COUNT>  (1) 
0

>  <PUBCHEM_COMPONENT_COUNT>  (1) 
1

>  <PUBCHEM_CACTVS_TAUTO_COUNT>  (1) 
113

>  <PUBCHEM_CONFORMER_ID>  (1) 
0000499200000004

>  <PUBCHEM_MMFF94_ENERGY>  (1) 
169.769

>  <PUBCHEM_FEATURE_SELFOVERLAP>  (1) 
86.323

>  <PUBCHEM_SHAPE_FINGERPRINT>  (1) 
10 15 14620803703714054199
10074138 170 18196378022546481577
10411042 1 18339921619194099285
10622 236 17531514396090870282
11062273 23 18267592299834999961
11136131 41 17188679283280209063
11297750 10 18263070163392537277
11377469 6 18113059328883848716
11399510 152 18055604302131615538
11456790 92 18335433387634830619
12106331 60 18339350890802139118
12166972 35 17894909667586182407
12218070 45 16916493895534393199
12342043 65 17273997773749554166
12760667 363 18260548939842101251
12788726 201 18261398836117261946
13140716 1 18413395323963749677
13540713 4 17629211411845798718
13692115 27 18411135883745422053
13782708 43 17917709080976969566
14068700 675 18260543433271866236
14849402 71 15697425754853454082
15131766 46 15265335263874197928
15183329 4 15647043867740167007
15419008 47 17846774101105900728
16067689 68 17610594460064953066
16114785 44 17628645150816379449
17686467 74 18334853931906299388
1813 80 18201172052146305685
19841028 212 18124595547319021511
21033648 29 17129558178562760976
21304303 282 17830715588001758085
21796203 349 18121246374216541659
23559900 14 16878785058154937935
2747138 104 18411976971385712122
3004659 81 17531239582418355494
32027 91 18120089744325637019
3418910 222 18410860971801421724
3504750 166 17464238450005888850
3633792 109 17168136845418728230
376196 1 16835997210250731829
42767 28 15502652736895342611
439807 62 17023190452649527803
4408954 87 17198571173659760857
469060 322 18270696306705265833
5372103 7 13829026586608867115
58083652 198 18340488975789325117
6058803 2 17970361330061699604
6673363 416 18412832404855802044
6697151 62 18196913661123854525
6698420 124 17411066032678946968
9555976 147 18123458381500932762
9658208 31 17625557687051335524
9849439 229 17333370095890800352
9896288 288 18197494026515831706

>  <PUBCHEM_SHAPE_MULTIPOLES>  (1) 
715.14
18.96
5.09
2.16
18.58
9.83
0.82
-23.53
3.7
-8.53
1.34
0.58
-0.72
-0.77

>  <PUBCHEM_SHAPE_SELFOVERLAP>  (1) 
1583.743

>  <PUBCHEM_SHAPE_VOLUME>  (1) 
381.6

>  <PUBCHEM_COORDINATE_TYPE>  (1) 
2
5
10

$$$$
