18831
     RDKit          3D

  9  9  0  0  0  0  0  0  0  0999 V2000
    2.9705   -0.0014    0.0012 Cl  0  0  0  0  0  0  0  0  0  0  0  0
   -1.4185    0.0008    0.0004 N   0  0  0  0  0  0  0  0  0  0  0  0
    0.6603    1.1993   -0.0006 N   0  0  0  0  0  0  0  0  0  0  0  0
    0.6589   -1.2002   -0.0006 N   0  0  0  0  0  0  0  0  0  0  0  0
   -1.3873   -2.3445    0.0003 N   0  0  0  0  0  0  0  0  0  0  0  0
   -1.3845    2.3461    0.0004 N   0  0  0  0  0  0  0  0  0  0  0  0
   -0.6816   -1.1218    0.0000 C   0  0  0  0  0  0  0  0  0  0  0  0
   -0.6803    1.1225    0.0000 C   0  0  0  0  0  0  0  0  0  0  0  0
    1.2625   -0.0008   -0.0010 C   0  0  0  0  0  0  0  0  0  0  0  0
  1  9  1  0
  2  7  2  0
  2  8  1  0
  3  8  2  0
  3  9  1  0
  4  7  1  0
  4  9  2  0
  5  7  1  0
  6  8  1  0
M  END
>  <PUBCHEM_COMPOUND_CID>  (1) 
18831

>  <PUBCHEM_CONFORMER_RMSD>  (1) 
0.4

>  <PUBCHEM_CONFORMER_DIVERSEORDER>  (1) 
1

>  <PUBCHEM_MMFF94_PARTIAL_CHARGES>  (1) 
13
1 -0.18
10 0.4
11 0.4
12 0.4
13 0.4
2 -0.62
3 -0.62
4 -0.62
5 -0.9
6 -0.9
7 0.72
8 0.72
9 0.8

>  <PUBCHEM_EFFECTIVE_ROTOR_COUNT>  (1) 
0

>  <PUBCHEM_PHARMACOPHORE_FEATURES>  (1) 
5
1 5 donor
1 6 donor
4 2 3 6 8 cation
4 2 4 5 7 cation
6 2 3 4 7 8 9 rings

>  <PUBCHEM_HEAVY_ATOM_COUNT>  (1) 
9

>  <PUBCHEM_ATOM_DEF_STEREO_COUNT>  (1) 
0

>  <PUBCHEM_ATOM_UDEF_STEREO_COUNT>  (1) 
0

>  <PUBCHEM_BOND_DEF_STEREO_COUNT>  (1) 
0

>  <PUBCHEM_BOND_UDEF_STEREO_COUNT>  (1) 
0

>  <PUBCHEM_ISOTOPIC_ATOM_COUNT>  (1) 
0

>  <PUBCHEM_COMPONENT_COUNT>  (1) 
1

>  <PUBCHEM_CACTVS_TAUTO_COUNT>  (1) 
5

>  <PUBCHEM_CONFORMER_ID>  (1) 
0000498F00000001

>  <PUBCHEM_MMFF94_ENERGY>  (1) 
24.0936

>  <PUBCHEM_FEATURE_SELFOVERLAP>  (1) 
25.415

>  <PUBCHEM_SHAPE_FINGERPRINT>  (1) 
18185500 45 17906737255863269382
21040471 1 18266458694233886916
23552423 10 18115870870473914750
23552449 1 18339358681682285902
2748010 2 18123465252599292549
29004967 10 17615969245466156914

>  <PUBCHEM_SHAPE_MULTIPOLES>  (1) 
162.18
2.74
2.23
0.57
2.42
0
0
0
0
-1.65
0
0.05
0
0

>  <PUBCHEM_SHAPE_SELFOVERLAP>  (1) 
325.504

>  <PUBCHEM_SHAPE_VOLUME>  (1) 
93.4

>  <PUBCHEM_COORDINATE_TYPE>  (1) 
2
5
10

$$$$
