1884
     RDKit          3D

 15 16  0  0  0  0  0  0  0  0999 V2000
    4.3424   -1.8289    0.0000 Cl  0  0  0  0  0  0  0  0  0  0  0  0
   -0.3336    3.0063    0.0015 O   0  0  0  0  0  0  0  0  0  0  0  0
   -3.0275   -2.1652    0.0008 O   0  0  0  0  0  0  0  0  0  0  0  0
   -4.2056   -0.2050   -0.0016 O   0  0  0  0  0  0  0  0  0  0  0  0
   -0.7333   -1.0229    0.0011 N   0  0  0  0  0  0  0  0  0  0  0  0
    0.5646   -0.4972    0.0002 C   0  0  0  0  0  0  0  0  0  0  0  0
    0.7546    0.8974   -0.0003 C   0  0  0  0  0  0  0  0  0  0  0  0
   -1.8286   -0.2015    0.0003 C   0  0  0  0  0  0  0  0  0  0  0  0
   -0.4388    1.7865    0.0001 C   0  0  0  0  0  0  0  0  0  0  0  0
    1.6845   -1.3344    0.0004 C   0  0  0  0  0  0  0  0  0  0  0  0
    2.0405    1.4439   -0.0008 C   0  0  0  0  0  0  0  0  0  0  0  0
   -1.7798    1.1374   -0.0004 C   0  0  0  0  0  0  0  0  0  0  0  0
    2.9700   -0.7893   -0.0002 C   0  0  0  0  0  0  0  0  0  0  0  0
    3.1468    0.5949   -0.0008 C   0  0  0  0  0  0  0  0  0  0  0  0
   -3.1561   -0.8220   -0.0004 C   0  0  0  0  0  0  0  0  0  0  0  0
  1 13  1  0
  2  9  2  0
  3 15  1  0
  4 15  2  0
  5  6  1  0
  5  8  1  0
  6  7  2  0
  6 10  1  0
  7  9  1  0
  7 11  1  0
  8 12  2  0
  8 15  1  0
  9 12  1  0
 10 13  2  0
 11 14  2  0
 13 14  1  0
M  END
>  <PUBCHEM_COMPOUND_CID>  (1) 
1884

>  <PUBCHEM_CONFORMER_RMSD>  (1) 
0.4

>  <PUBCHEM_CONFORMER_DIVERSEORDER>  (1) 
1
2

>  <PUBCHEM_MMFF94_PARTIAL_CHARGES>  (1) 
21
1 -0.18
10 -0.15
11 -0.15
12 -0.14
13 0.18
14 -0.15
15 0.71
16 0.4
17 0.15
18 0.15
19 0.15
2 -0.57
20 0.15
21 0.5
3 -0.65
4 -0.57
5 -0.6
6 0.1
7 0.09
8 0.11
9 0.47

>  <PUBCHEM_EFFECTIVE_ROTOR_COUNT>  (1) 
1

>  <PUBCHEM_PHARMACOPHORE_FEATURES>  (1) 
8
1 2 acceptor
1 3 acceptor
1 4 acceptor
1 5 cation
1 5 donor
3 3 4 15 anion
6 5 6 7 8 9 12 rings
6 6 7 10 11 13 14 rings

>  <PUBCHEM_HEAVY_ATOM_COUNT>  (1) 
15

>  <PUBCHEM_ATOM_DEF_STEREO_COUNT>  (1) 
0

>  <PUBCHEM_ATOM_UDEF_STEREO_COUNT>  (1) 
0

>  <PUBCHEM_BOND_DEF_STEREO_COUNT>  (1) 
0

>  <PUBCHEM_BOND_UDEF_STEREO_COUNT>  (1) 
0

>  <PUBCHEM_ISOTOPIC_ATOM_COUNT>  (1) 
0

>  <PUBCHEM_COMPONENT_COUNT>  (1) 
1

>  <PUBCHEM_CACTVS_TAUTO_COUNT>  (1) 
3

>  <PUBCHEM_CONFORMER_ID>  (1) 
0000075C00000001

>  <PUBCHEM_MMFF94_ENERGY>  (1) 
42.7025

>  <PUBCHEM_FEATURE_SELFOVERLAP>  (1) 
40.673

>  <PUBCHEM_SHAPE_FINGERPRINT>  (1) 
10618630 7 18409730659938701348
10967382 1 18194402418655875878
11132069 177 18411975883988670987
11471102 20 18410006667443117309
11543360 7 15575007198935690850
11769659 78 18409164394402474194
12032990 46 18409733971179326819
13140716 1 18412267211599240353
14115302 16 17822021912146885774
14576447 43 18055345001232335271
15196674 1 18410573980888177829
15442244 35 18412548716946832825
15536298 74 18342738537682150736
16945 1 18194402186833312320
17804303 29 18270120098309140014
18186145 218 17603578651527822623
193761 8 17834394519025681255
200 152 18131340900150076615
20201158 50 18335701671601306243
20281475 54 18410579525923052567
20510252 161 18271521988456380616
20645477 70 18411133658266891679
20871998 184 18130220437492424364
20871998 22 18411419539742546952
21267235 1 18410583872298477091
21501502 16 18338525144737232184
21501925 9 18410565181033042426
221490 88 18118972635409533019
2334 1 18410856606884449325
23402539 116 18271233941921322055
23463225 33 18411139155634645572
23557571 272 18058456404870065518
23559900 14 18339916014372391592
2748010 2 18411409622610442980
2871803 45 18334289842731204414
3091708 16 9065996206146739336
3286 77 17346308306473839802
335352 9 18266741272953948021
5104073 3 18411700984575210275
54173680 148 18122907525853558792
7364860 26 18053100910921797713
81228 2 18265065630007453241
8809292 202 18261116274371731931

>  <PUBCHEM_SHAPE_MULTIPOLES>  (1) 
287.97
6.53
2.4
0.59
0.44
0.91
0
-4.03
0
-0.15
0
0.07
0
0

>  <PUBCHEM_SHAPE_SELFOVERLAP>  (1) 
622.172

>  <PUBCHEM_SHAPE_VOLUME>  (1) 
158.4

>  <PUBCHEM_COORDINATE_TYPE>  (1) 
2
5
10

$$$$
