18848
     RDKit          3D

  7  6  0  0  1  0  0  0  0  0999 V2000
   -0.7270   -0.5256    0.2913 C   0  0  0  0  0  0  0  0  0  0  0  0
    0.7513   -0.7297   -0.0934 C   0  0  0  0  0  0  0  0  0  0  0  0
    1.6316    0.4801    0.2360 C   0  0  0  0  0  0  0  0  0  0  0  0
   -1.5247   -1.7974   -0.0095 C   0  0  0  0  0  0  0  0  0  0  0  0
   -1.3446    0.6371   -0.4453 C   0  0  0  0  0  0  0  0  0  0  0  0
    3.0844    0.2261   -0.1367 C   0  0  0  0  0  0  0  0  0  0  0  0
   -1.8710    1.7094    0.1575 C   0  0  0  0  0  0  0  0  0  0  0  0
  1  2  1  0
  1  4  1  0
  1  5  1  0
  2  3  1  0
  3  6  1  0
  5  7  2  0
M  END
>  <PUBCHEM_COMPOUND_CID>  (1) 
18848

>  <PUBCHEM_CONFORMER_RMSD>  (1) 
0.4

>  <PUBCHEM_CONFORMER_DIVERSEORDER>  (1) 
6
19
16
13
27
5
23
24
9
8
21
15
10
26
18
17
20
3
22
14
12
7
25
1
2
11
4

>  <PUBCHEM_MMFF94_PARTIAL_CHARGES>  (1) 
6
1 0.14
16 0.15
20 0.15
21 0.15
5 -0.29
7 -0.3

>  <PUBCHEM_EFFECTIVE_ROTOR_COUNT>  (1) 
3

>  <PUBCHEM_PHARMACOPHORE_FEATURES>  (1) 
4
1 4 hydrophobe
1 6 hydrophobe
1 7 hydrophobe
4 1 2 3 5 hydrophobe

>  <PUBCHEM_HEAVY_ATOM_COUNT>  (1) 
7

>  <PUBCHEM_ATOM_DEF_STEREO_COUNT>  (1) 
0

>  <PUBCHEM_ATOM_UDEF_STEREO_COUNT>  (1) 
1

>  <PUBCHEM_BOND_DEF_STEREO_COUNT>  (1) 
0

>  <PUBCHEM_BOND_UDEF_STEREO_COUNT>  (1) 
0

>  <PUBCHEM_ISOTOPIC_ATOM_COUNT>  (1) 
0

>  <PUBCHEM_COMPONENT_COUNT>  (1) 
1

>  <PUBCHEM_CACTVS_TAUTO_COUNT>  (1) 
1

>  <PUBCHEM_CONFORMER_ID>  (1) 
000049A000000006

>  <PUBCHEM_MMFF94_ENERGY>  (1) 
1.6696

>  <PUBCHEM_FEATURE_SELFOVERLAP>  (1) 
20.345

>  <PUBCHEM_SHAPE_FINGERPRINT>  (1) 
100427 49 17763466514276849425
14390081 3 18342733001353515016
16714656 1 18339363075339085551
19973954 147 18339923835138988144
20096714 4 18193835942544906049
21040471 1 18338514114796752072
23235685 24 18339920407333066777
23552423 10 18259704510527272642
23552449 1 18339921631403767552

>  <PUBCHEM_SHAPE_MULTIPOLES>  (1) 
144.06
3.6
1.71
0.67
3.03
0.14
0.01
-0.81
0.12
-1.46
-0.05
-0.03
-0.02
0.01

>  <PUBCHEM_SHAPE_SELFOVERLAP>  (1) 
252.462

>  <PUBCHEM_SHAPE_VOLUME>  (1) 
96.2

>  <PUBCHEM_COORDINATE_TYPE>  (1) 
2
5
10

$$$$
