18851
     RDKit          3D

  7  6  0  0  1  0  0  0  0  0999 V2000
    0.2921    0.5636   -0.4304 C   0  0  0  0  0  0  0  0  0  0  0  0
    1.5764    0.1377    0.3099 C   0  0  0  0  0  0  0  0  0  0  0  0
   -0.9336   -0.2568   -0.0521 C   0  0  0  0  0  0  0  0  0  0  0  0
    0.0373    2.0611   -0.2223 C   0  0  0  0  0  0  0  0  0  0  0  0
    2.0152   -1.2856   -0.0097 C   0  0  0  0  0  0  0  0  0  0  0  0
   -1.3999   -0.2361    1.3778 C   0  0  0  0  0  0  0  0  0  0  0  0
   -1.5876   -0.9839   -0.9732 C   0  0  0  0  0  0  0  0  0  0  0  0
  1  2  1  0
  1  3  1  0
  1  4  1  0
  2  5  1  0
  3  6  1  0
  3  7  2  0
M  END
>  <PUBCHEM_COMPOUND_CID>  (1) 
18851

>  <PUBCHEM_CONFORMER_RMSD>  (1) 
0.4

>  <PUBCHEM_CONFORMER_DIVERSEORDER>  (1) 
1
6
7
8
5
3
2
9
4

>  <PUBCHEM_MMFF94_PARTIAL_CHARGES>  (1) 
6
1 0.14
20 0.15
21 0.15
3 -0.28
6 0.14
7 -0.3

>  <PUBCHEM_EFFECTIVE_ROTOR_COUNT>  (1) 
2

>  <PUBCHEM_PHARMACOPHORE_FEATURES>  (1) 
2
1 4 hydrophobe
1 5 hydrophobe

>  <PUBCHEM_HEAVY_ATOM_COUNT>  (1) 
7

>  <PUBCHEM_ATOM_DEF_STEREO_COUNT>  (1) 
0

>  <PUBCHEM_ATOM_UDEF_STEREO_COUNT>  (1) 
1

>  <PUBCHEM_BOND_DEF_STEREO_COUNT>  (1) 
0

>  <PUBCHEM_BOND_UDEF_STEREO_COUNT>  (1) 
0

>  <PUBCHEM_ISOTOPIC_ATOM_COUNT>  (1) 
0

>  <PUBCHEM_COMPONENT_COUNT>  (1) 
1

>  <PUBCHEM_CACTVS_TAUTO_COUNT>  (1) 
1

>  <PUBCHEM_CONFORMER_ID>  (1) 
000049A300000001

>  <PUBCHEM_MMFF94_ENERGY>  (1) 
5.0378

>  <PUBCHEM_FEATURE_SELFOVERLAP>  (1) 
10.149

>  <PUBCHEM_SHAPE_FINGERPRINT>  (1) 
137420 1 13815463491181402828
18185500 45 18128531754983137814
20711978 78 17972619936881109771
21040471 1 17401194582903078772
23552333 60 17769938205511220447
24536 1 17676487284613396292
29004967 10 18260552268008797368
5943 1 11316797749183283769
68250623 7 17109590879376046843

>  <PUBCHEM_SHAPE_MULTIPOLES>  (1) 
144.06
2.33
1.66
1.07
0.65
0.83
0.23
-1.14
0.13
0.28
-0.28
-0.57
-0.17
-0.15

>  <PUBCHEM_SHAPE_SELFOVERLAP>  (1) 
256.163

>  <PUBCHEM_SHAPE_VOLUME>  (1) 
96.1

>  <PUBCHEM_COORDINATE_TYPE>  (1) 
2
5
10

$$$$
