18855
     RDKit          3D

 10  9  0  0  0  0  0  0  0  0999 V2000
   -0.0072    1.1032   -0.2882 N   0  0  0  0  0  0  0  0  0  0  0  0
   -0.7694    0.0077    0.2991 C   0  0  0  0  0  0  0  0  0  0  0  0
    1.3857    1.0607    0.1607 C   0  0  0  0  0  0  0  0  0  0  0  0
   -2.1959    0.0006   -0.2479 C   0  0  0  0  0  0  0  0  0  0  0  0
    2.0273   -0.2708   -0.2254 C   0  0  0  0  0  0  0  0  0  0  0  0
   -3.0073   -1.1546    0.3395 C   0  0  0  0  0  0  0  0  0  0  0  0
    3.4904   -0.3277    0.2158 C   0  0  0  0  0  0  0  0  0  0  0  0
   -0.6112    2.3924    0.0528 C   0  0  0  0  0  0  0  0  0  0  0  0
   -4.4387   -1.1476   -0.1730 C   0  0  0  0  0  0  0  0  0  0  0  0
    4.1263   -1.6639   -0.1334 C   0  0  0  0  0  0  0  0  0  0  0  0
  1  2  1  0
  1  3  1  0
  1  8  1  0
  2  4  1  0
  3  5  1  0
  4  6  1  0
  5  7  1  0
  6  9  1  0
  7 10  1  0
M  END
>  <PUBCHEM_COMPOUND_CID>  (1) 
18855

>  <PUBCHEM_CONFORMER_RMSD>  (1) 
0.6

>  <PUBCHEM_CONFORMER_DIVERSEORDER>  (1) 
1
74
16
59
35
89
75
50
51
81
88
32
41
63
68
80
43
38
18
47
21
87
70
36
27
65
22
62
15
55
86
17
26
48
30
77
46
71
12
54
34
76
29
83
8
78
57
49
40
45
56
5
25
64
39
53
37
11
72
44
58
4
3
69
73
33
20
6
82
19
42
7
60
85
79
23
13
2
9
24
66
67
31
52
61
28
84
10
14

>  <PUBCHEM_MMFF94_PARTIAL_CHARGES>  (1) 
4
1 -0.81
2 0.27
3 0.27
8 0.27

>  <PUBCHEM_EFFECTIVE_ROTOR_COUNT>  (1) 
6

>  <PUBCHEM_PHARMACOPHORE_FEATURES>  (1) 
3
1 1 cation
1 10 hydrophobe
1 9 hydrophobe

>  <PUBCHEM_HEAVY_ATOM_COUNT>  (1) 
10

>  <PUBCHEM_ATOM_DEF_STEREO_COUNT>  (1) 
0

>  <PUBCHEM_ATOM_UDEF_STEREO_COUNT>  (1) 
0

>  <PUBCHEM_BOND_DEF_STEREO_COUNT>  (1) 
0

>  <PUBCHEM_BOND_UDEF_STEREO_COUNT>  (1) 
0

>  <PUBCHEM_ISOTOPIC_ATOM_COUNT>  (1) 
0

>  <PUBCHEM_COMPONENT_COUNT>  (1) 
1

>  <PUBCHEM_CACTVS_TAUTO_COUNT>  (1) 
1

>  <PUBCHEM_CONFORMER_ID>  (1) 
000049A700000001

>  <PUBCHEM_MMFF94_ENERGY>  (1) 
5.6915

>  <PUBCHEM_FEATURE_SELFOVERLAP>  (1) 
15.223

>  <PUBCHEM_SHAPE_FINGERPRINT>  (1) 
12032990 46 18409167727160004331
12346645 44 9223242840328777199
14251710 61 18270123405492552078
14252887 29 18339078301848389706
15477762 27 18193837265616346847
177051 138 18411138022153864390
20201158 50 18333452057820746059
20281407 28 18412829070921060080
20281475 54 18411987927414598368
20645477 70 18263076768371294743
20671657 53 18409171029895013453
20711978 1 18408325492858554060
20711985 344 17896027767854013773
20711985 365 18409731733675620909
20871998 184 18130504124398475916
20871998 22 18411979186934825904
21119208 17 15791728611518634079
22485316 2 18411979191150561375
3086196 2 18340763733120576448

>  <PUBCHEM_SHAPE_MULTIPOLES>  (1) 
200.81
7.76
1.98
0.66
0.22
0.92
-0.01
-6.33
0.17
-0.02
0
0.03
-0.02
0.13

>  <PUBCHEM_SHAPE_SELFOVERLAP>  (1) 
354.316

>  <PUBCHEM_SHAPE_VOLUME>  (1) 
133.6

>  <PUBCHEM_COORDINATE_TYPE>  (1) 
2
5
10

$$$$
