18856
     RDKit          3D

 13 15  0  0  0  0  0  0  0  0999 V2000
    3.1448    0.9805    0.0014 O   0  0  0  0  0  0  0  0  0  0  0  0
    1.9793   -1.0462   -0.0005 N   0  0  0  0  0  0  0  0  0  0  0  0
    0.6289   -0.5276    0.0006 C   0  0  0  0  0  0  0  0  0  0  0  0
   -1.8271   -1.1417   -0.0020 C   0  0  0  0  0  0  0  0  0  0  0  0
   -1.0440    0.8943    1.2609 C   0  0  0  0  0  0  0  0  0  0  0  0
   -1.0401    0.8964   -1.2604 C   0  0  0  0  0  0  0  0  0  0  0  0
   -0.3894   -1.6894   -0.0003 C   0  0  0  0  0  0  0  0  0  0  0  0
    0.3905    0.3384    1.2574 C   0  0  0  0  0  0  0  0  0  0  0  0
    0.3945    0.3409   -1.2543 C   0  0  0  0  0  0  0  0  0  0  0  0
   -2.0402   -0.2773    1.2521 C   0  0  0  0  0  0  0  0  0  0  0  0
   -2.0364   -0.2755   -1.2557 C   0  0  0  0  0  0  0  0  0  0  0  0
   -1.2572    1.7501    0.0006 C   0  0  0  0  0  0  0  0  0  0  0  0
    3.0964   -0.2428    0.0000 C   0  0  0  0  0  0  0  0  0  0  0  0
  1 13  2  0
  2  3  1  0
  2 13  1  0
  3  7  1  0
  3  8  1  0
  3  9  1  0
  4  7  1  0
  4 10  1  0
  4 11  1  0
  5  8  1  0
  5 10  1  0
  5 12  1  0
  6  9  1  0
  6 11  1  0
  6 12  1  0
M  END
>  <PUBCHEM_COMPOUND_CID>  (1) 
18856

>  <PUBCHEM_CONFORMER_RMSD>  (1) 
0.6

>  <PUBCHEM_CONFORMER_DIVERSEORDER>  (1) 
1

>  <PUBCHEM_MMFF94_PARTIAL_CHARGES>  (1) 
6
1 -0.57
13 0.57
2 -0.73
29 0.37
3 0.3
30 0.06

>  <PUBCHEM_EFFECTIVE_ROTOR_COUNT>  (1) 
3.2

>  <PUBCHEM_PHARMACOPHORE_FEATURES>  (1) 
6
1 1 acceptor
1 2 donor
6 3 4 5 7 8 10 rings
6 3 4 6 7 9 11 rings
6 3 5 6 8 9 12 rings
6 4 5 6 10 11 12 rings

>  <PUBCHEM_HEAVY_ATOM_COUNT>  (1) 
13

>  <PUBCHEM_ATOM_DEF_STEREO_COUNT>  (1) 
0

>  <PUBCHEM_ATOM_UDEF_STEREO_COUNT>  (1) 
0

>  <PUBCHEM_BOND_DEF_STEREO_COUNT>  (1) 
0

>  <PUBCHEM_BOND_UDEF_STEREO_COUNT>  (1) 
0

>  <PUBCHEM_ISOTOPIC_ATOM_COUNT>  (1) 
0

>  <PUBCHEM_COMPONENT_COUNT>  (1) 
1

>  <PUBCHEM_CACTVS_TAUTO_COUNT>  (1) 
2

>  <PUBCHEM_CONFORMER_ID>  (1) 
000049A800000001

>  <PUBCHEM_MMFF94_ENERGY>  (1) 
29.8352

>  <PUBCHEM_FEATURE_SELFOVERLAP>  (1) 
42.979

>  <PUBCHEM_SHAPE_FINGERPRINT>  (1) 
10702982 57 17769371621846492721
12423570 1 15464192851084804785
12491281 212 18042963181722009748
13024252 1 13984665840909938479
14817 1 12998481126070374325
16945 1 18410856598357889702
19837323 101 18116427046905383157
20653085 51 18116708500301625892
369184 2 18412265012728978218
5084963 1 18059562573290981154
528886 8 18187350026695368615

>  <PUBCHEM_SHAPE_MULTIPOLES>  (1) 
256.68
3.47
1.49
1.36
3.31
0
0
0.04
0
-0.35
0
-0.64
0.24
0

>  <PUBCHEM_SHAPE_SELFOVERLAP>  (1) 
555.109

>  <PUBCHEM_SHAPE_VOLUME>  (1) 
134.3

>  <PUBCHEM_COORDINATE_TYPE>  (1) 
2
5
10

$$$$
