18854
     RDKit          3D

  8  7  0  0  1  0  0  0  0  0999 V2000
   -0.0982   -1.8972   -1.1302 Cl  0  0  0  0  0  0  0  0  0  0  0  0
    0.0937   -0.6965    2.0738 Cl  0  0  0  0  0  0  0  0  0  0  0  0
    2.4900    1.4708   -0.1073 Cl  0  0  0  0  0  0  0  0  0  0  0  0
   -2.5153    1.1510   -0.8734 Cl  0  0  0  0  0  0  0  0  0  0  0  0
    0.4034   -0.2439   -0.6360 C   0  0  0  0  0  0  0  0  0  0  0  0
   -0.3845    0.2340    0.6086 C   0  0  0  0  0  0  0  0  0  0  0  0
    1.9219   -0.1916   -0.4229 C   0  0  0  0  0  0  0  0  0  0  0  0
   -1.9111    0.1735    0.4875 C   0  0  0  0  0  0  0  0  0  0  0  0
  1  5  1  0
  2  6  1  0
  3  7  1  0
  4  8  1  0
  5  6  1  0
  5  7  1  0
  6  8  1  0
M  END
>  <PUBCHEM_COMPOUND_CID>  (1) 
18854

>  <PUBCHEM_CONFORMER_RMSD>  (1) 
0.6

>  <PUBCHEM_CONFORMER_DIVERSEORDER>  (1) 
1
18
42
11
48
21
14
34
30
43
8
15
3
36
31
38
20
47
46
17
4
9
39
16
41
13
23
29
45
12
26
32
37
27
24
40
28
19
33
7
6
5
10
25
35
22
2
44

>  <PUBCHEM_MMFF94_PARTIAL_CHARGES>  (1) 
8
1 -0.29
2 -0.29
3 -0.29
4 -0.29
5 0.29
6 0.29
7 0.29
8 0.29

>  <PUBCHEM_EFFECTIVE_ROTOR_COUNT>  (1) 
3

>  <PUBCHEM_PHARMACOPHORE_FEATURES>  (1) 
0

>  <PUBCHEM_HEAVY_ATOM_COUNT>  (1) 
8

>  <PUBCHEM_ATOM_DEF_STEREO_COUNT>  (1) 
0

>  <PUBCHEM_ATOM_UDEF_STEREO_COUNT>  (1) 
2

>  <PUBCHEM_BOND_DEF_STEREO_COUNT>  (1) 
0

>  <PUBCHEM_BOND_UDEF_STEREO_COUNT>  (1) 
0

>  <PUBCHEM_ISOTOPIC_ATOM_COUNT>  (1) 
0

>  <PUBCHEM_COMPONENT_COUNT>  (1) 
1

>  <PUBCHEM_CACTVS_TAUTO_COUNT>  (1) 
1

>  <PUBCHEM_CONFORMER_ID>  (1) 
000049A600000001

>  <PUBCHEM_MMFF94_ENERGY>  (1) 
10.1639

>  <PUBCHEM_FEATURE_SELFOVERLAP>  (1) 
0

>  <PUBCHEM_SHAPE_FINGERPRINT>  (1) 
137420 1 11073303756702781259
14390081 3 17967811613751196877
18185500 45 16627445246365475279
20653085 51 18338524130908640276
21040471 1 17988930002273257446
23211744 25 16917060070923167707
23211744 41 18114755875140954977
23552333 60 17057540123291964475
23552423 10 17058105302243579471
5084963 1 17968679158147105917
5943 1 13001031670476076042

>  <PUBCHEM_SHAPE_MULTIPOLES>  (1) 
172.12
3.19
1.65
1.61
0.04
0.12
0.61
-2.22
-0.5
-0.14
-0.43
0.13
0.83
0.24

>  <PUBCHEM_SHAPE_SELFOVERLAP>  (1) 
277.574

>  <PUBCHEM_SHAPE_VOLUME>  (1) 
121.2

>  <PUBCHEM_COORDINATE_TYPE>  (1) 
2
5
10

$$$$
