18853
     RDKit          3D

  8  7  0  0  0  0  0  0  0  0999 V2000
   -1.6843   -0.0797    0.3030 C   0  0  0  0  0  0  0  0  0  0  0  0
   -0.6536   -0.3399   -0.8117 C   0  0  0  0  0  0  0  0  0  0  0  0
   -1.9191    1.4251    0.4549 C   0  0  0  0  0  0  0  0  0  0  0  0
   -3.0157   -0.7855    0.0334 C   0  0  0  0  0  0  0  0  0  0  0  0
    0.6318    0.4154   -0.6117 C   0  0  0  0  0  0  0  0  0  0  0  0
    1.7654   -0.0152   -0.0259 C   0  0  0  0  0  0  0  0  0  0  0  0
    3.0187    0.7965    0.1410 C   0  0  0  0  0  0  0  0  0  0  0  0
    1.8568   -1.4166    0.5170 C   0  0  0  0  0  0  0  0  0  0  0  0
  1  2  1  0
  1  3  1  0
  1  4  1  0
  2  5  1  0
  5  6  2  3
  6  7  1  0
  6  8  1  0
M  END
>  <PUBCHEM_COMPOUND_CID>  (1) 
18853

>  <PUBCHEM_CONFORMER_RMSD>  (1) 
0.4

>  <PUBCHEM_CONFORMER_DIVERSEORDER>  (1) 
1
4
3
2

>  <PUBCHEM_MMFF94_PARTIAL_CHARGES>  (1) 
6
18 0.15
2 0.14
5 -0.29
6 -0.28
7 0.14
8 0.14

>  <PUBCHEM_EFFECTIVE_ROTOR_COUNT>  (1) 
2

>  <PUBCHEM_PHARMACOPHORE_FEATURES>  (1) 
2
3 1 3 4 hydrophobe
3 6 7 8 hydrophobe

>  <PUBCHEM_HEAVY_ATOM_COUNT>  (1) 
8

>  <PUBCHEM_ATOM_DEF_STEREO_COUNT>  (1) 
0

>  <PUBCHEM_ATOM_UDEF_STEREO_COUNT>  (1) 
0

>  <PUBCHEM_BOND_DEF_STEREO_COUNT>  (1) 
0

>  <PUBCHEM_BOND_UDEF_STEREO_COUNT>  (1) 
0

>  <PUBCHEM_ISOTOPIC_ATOM_COUNT>  (1) 
0

>  <PUBCHEM_COMPONENT_COUNT>  (1) 
1

>  <PUBCHEM_CACTVS_TAUTO_COUNT>  (1) 
1

>  <PUBCHEM_CONFORMER_ID>  (1) 
000049A500000001

>  <PUBCHEM_MMFF94_ENERGY>  (1) 
7.0915

>  <PUBCHEM_FEATURE_SELFOVERLAP>  (1) 
10.149

>  <PUBCHEM_SHAPE_FINGERPRINT>  (1) 
10857977 72 17274821393763027699
11062470 55 16008741446253804439
12932764 1 18262810561755128677
14325111 11 18413390921078036396
14390081 3 18202562886614955432
15310529 11 18343862212405602419
20651381 22 18412263964588120510
23552423 10 18187933828414461367
29004967 10 17240204322176247852
3248919 1 18339633456367674478
369184 2 18410572864523728521
5460574 1 8862949367911355085

>  <PUBCHEM_SHAPE_MULTIPOLES>  (1) 
164.64
4.63
1.31
0.82
0.01
0.01
-0.06
0.03
0.65
-0.01
0.23
-0.02
-0.02
-0.31

>  <PUBCHEM_SHAPE_SELFOVERLAP>  (1) 
294.864

>  <PUBCHEM_SHAPE_VOLUME>  (1) 
108.8

>  <PUBCHEM_COORDINATE_TYPE>  (1) 
2
5
10

$$$$
