18865
     RDKit          3D

 16 18  0  0  0  0  0  0  0  0999 V2000
   -0.1695    1.3431    0.0001 N   0  0  0  0  0  0  0  0  0  0  0  0
    5.0017   -0.7468   -0.0007 N   0  0  0  0  0  0  0  0  0  0  0  0
   -4.9489    0.8577   -0.0005 N   0  0  0  0  0  0  0  0  0  0  0  0
    1.2890   -0.5704    0.0000 C   0  0  0  0  0  0  0  0  0  0  0  0
   -1.1222   -0.8662    0.0000 C   0  0  0  0  0  0  0  0  0  0  0  0
   -1.2460    0.5334    0.0000 C   0  0  0  0  0  0  0  0  0  0  0  0
    1.0708    0.8177    0.0000 C   0  0  0  0  0  0  0  0  0  0  0  0
    0.1678   -1.4064    0.0001 C   0  0  0  0  0  0  0  0  0  0  0  0
    2.5969   -1.0859    0.0001 C   0  0  0  0  0  0  0  0  0  0  0  0
   -2.2666   -1.6827    0.0001 C   0  0  0  0  0  0  0  0  0  0  0  0
   -2.5278    1.0771    0.0000 C   0  0  0  0  0  0  0  0  0  0  0  0
    2.1831    1.6552    0.0001 C   0  0  0  0  0  0  0  0  0  0  0  0
    3.6919   -0.2269    0.0002 C   0  0  0  0  0  0  0  0  0  0  0  0
   -3.6673    0.2688    0.0001 C   0  0  0  0  0  0  0  0  0  0  0  0
   -3.5368   -1.1141    0.0001 C   0  0  0  0  0  0  0  0  0  0  0  0
    3.4841    1.1464    0.0002 C   0  0  0  0  0  0  0  0  0  0  0  0
  1  6  2  0
  1  7  1  0
  2 13  1  0
  3 14  1  0
  4  7  2  0
  4  8  1  0
  4  9  1  0
  5  6  1  0
  5  8  2  0
  5 10  1  0
  6 11  1  0
  7 12  1  0
  9 13  2  0
 10 15  2  0
 11 14  2  0
 12 16  2  0
 13 16  1  0
 14 15  1  0
M  END
>  <PUBCHEM_COMPOUND_CID>  (1) 
18865

>  <PUBCHEM_CONFORMER_RMSD>  (1) 
0.4

>  <PUBCHEM_CONFORMER_DIVERSEORDER>  (1) 
1

>  <PUBCHEM_MMFF94_PARTIAL_CHARGES>  (1) 
25
1 -0.62
10 -0.15
11 -0.15
12 -0.15
13 0.1
14 0.1
15 -0.15
16 -0.15
17 0.15
18 0.15
19 0.15
2 -0.9
20 0.15
21 0.15
22 0.15
23 0.15
24 0.4
25 0.4
26 0.4
27 0.4
3 -0.9
6 0.31
7 0.31
8 -0.15
9 -0.15

>  <PUBCHEM_EFFECTIVE_ROTOR_COUNT>  (1) 
0

>  <PUBCHEM_PHARMACOPHORE_FEATURES>  (1) 
8
1 1 acceptor
1 2 cation
1 2 donor
1 3 cation
1 3 donor
6 1 4 5 6 7 8 rings
6 4 7 9 12 13 16 rings
6 5 6 10 11 14 15 rings

>  <PUBCHEM_HEAVY_ATOM_COUNT>  (1) 
16

>  <PUBCHEM_ATOM_DEF_STEREO_COUNT>  (1) 
0

>  <PUBCHEM_ATOM_UDEF_STEREO_COUNT>  (1) 
0

>  <PUBCHEM_BOND_DEF_STEREO_COUNT>  (1) 
0

>  <PUBCHEM_BOND_UDEF_STEREO_COUNT>  (1) 
0

>  <PUBCHEM_ISOTOPIC_ATOM_COUNT>  (1) 
0

>  <PUBCHEM_COMPONENT_COUNT>  (1) 
1

>  <PUBCHEM_CACTVS_TAUTO_COUNT>  (1) 
3

>  <PUBCHEM_CONFORMER_ID>  (1) 
000049B100000001

>  <PUBCHEM_MMFF94_ENERGY>  (1) 
69.9931

>  <PUBCHEM_FEATURE_SELFOVERLAP>  (1) 
40.656

>  <PUBCHEM_SHAPE_FINGERPRINT>  (1) 
10062212 137 18340760520237391871
10411042 1 15456214133926975940
10608611 8 18411133679593872417
10967382 1 18410575063209451878
11132069 177 18411976983479193192
11401426 45 18342452642751556282
11471102 20 18411416219885736540
12032990 46 18410015467725735042
12251169 10 18410292497289845098
13140716 1 18410575131907726033
13221675 6 18410011035198198754
13288520 33 18412829054115912694
13380535 76 18412265025614250415
13675066 3 18340485668057657538
14115302 16 18041290923594574014
14144814 61 18410574002336608218
14325111 11 18410856602626600161
15196674 1 18410574028106398854
15219456 202 18411701027524875755
15442244 35 18267022752304708018
15536298 74 18342175604935076280
16945 1 18338797805965992455
17802600 8 18410569587152627212
17804303 29 18411704304621930364
18186145 218 17822283613083284702
18522853 276 18343018887308975128
200 152 17917988391094399119
20645477 70 18342739602428228878
21267235 1 18410583893709977563
21501502 16 18338517567934581918
221490 88 18263933309419765754
23402539 116 18201430376631845863
23402655 69 18413670218495960548
23463225 33 18408885152692654508
23559900 14 18343017822505355768
2748010 2 18338797926219782623
335352 9 18410855421478737822
3545911 37 18411139125823101495
4214541 1 18410855464781890177
474 4 17096935882903652924
4990 188 18131639975623113644
5104073 3 18410574028106399824
633830 44 17603584170470847880
69090 78 18342735226199205023
7364860 26 18268148665065323558
77779 3 18409731797909849382
8809292 202 18261115209230236155
9709674 26 18411987995897270062
9981440 41 17398952068925505584

>  <PUBCHEM_SHAPE_MULTIPOLES>  (1) 
314.33
8.33
1.71
0.6
0.11
0.01
0
-0.22
0
-0.06
0
0
0.01
0

>  <PUBCHEM_SHAPE_SELFOVERLAP>  (1) 
711.884

>  <PUBCHEM_SHAPE_VOLUME>  (1) 
164.1

>  <PUBCHEM_COORDINATE_TYPE>  (1) 
2
5
10

$$$$
