18864
     RDKit          3D

 16 18  0  0  0  0  0  0  0  0999 V2000
    0.0588    1.7561   -0.1199 N   0  0  0  0  0  0  0  0  0  0  0  0
   -0.0319   -2.4100    0.3309 N   0  0  0  0  0  0  0  0  0  0  0  0
   -0.3778   -3.2323   -0.7084 N   0  0  0  0  0  0  0  0  0  0  0  0
   -1.2005   -0.2817    0.1075 C   0  0  0  0  0  0  0  0  0  0  0  0
    1.2281   -0.3352    0.1003 C   0  0  0  0  0  0  0  0  0  0  0  0
   -0.0011   -0.9976    0.1784 C   0  0  0  0  0  0  0  0  0  0  0  0
   -1.1226    1.1132   -0.0439 C   0  0  0  0  0  0  0  0  0  0  0  0
    1.2110    1.0618   -0.0506 C   0  0  0  0  0  0  0  0  0  0  0  0
   -2.4500   -0.9213    0.1834 C   0  0  0  0  0  0  0  0  0  0  0  0
    2.4485   -1.0294    0.1691 C   0  0  0  0  0  0  0  0  0  0  0  0
   -2.3133    1.8314   -0.1153 C   0  0  0  0  0  0  0  0  0  0  0  0
    2.4317    1.7269   -0.1286 C   0  0  0  0  0  0  0  0  0  0  0  0
   -3.6255   -0.1802    0.1094 C   0  0  0  0  0  0  0  0  0  0  0  0
    3.6551   -0.3408    0.0886 C   0  0  0  0  0  0  0  0  0  0  0  0
   -3.5568    1.1990   -0.0402 C   0  0  0  0  0  0  0  0  0  0  0  0
    3.6463    1.0401   -0.0606 C   0  0  0  0  0  0  0  0  0  0  0  0
  1  7  2  0
  1  8  1  0
  2  3  1  0
  2  6  1  0
  4  6  2  0
  4  7  1  0
  4  9  1  0
  5  6  1  0
  5  8  2  0
  5 10  1  0
  7 11  1  0
  8 12  1  0
  9 13  2  0
 10 14  2  0
 11 15  2  0
 12 16  2  0
 13 15  1  0
 14 16  1  0
M  END
>  <PUBCHEM_COMPOUND_CID>  (1) 
18864

>  <PUBCHEM_CONFORMER_RMSD>  (1) 
0.6

>  <PUBCHEM_CONFORMER_DIVERSEORDER>  (1) 
1

>  <PUBCHEM_MMFF94_PARTIAL_CHARGES>  (1) 
25
1 -0.62
10 -0.15
11 -0.15
12 -0.15
13 -0.15
14 -0.15
15 -0.15
16 -0.15
17 0.15
18 0.15
19 0.15
2 -0.51
20 0.15
21 0.4
22 0.15
23 0.15
24 0.15
25 0.15
26 0.36
27 0.36
3 -0.71
6 0.1
7 0.31
8 0.31
9 -0.15

>  <PUBCHEM_EFFECTIVE_ROTOR_COUNT>  (1) 
1

>  <PUBCHEM_PHARMACOPHORE_FEATURES>  (1) 
6
1 1 acceptor
1 2 donor
1 3 donor
6 1 4 5 6 7 8 rings
6 4 7 9 11 13 15 rings
6 5 8 10 12 14 16 rings

>  <PUBCHEM_HEAVY_ATOM_COUNT>  (1) 
16

>  <PUBCHEM_ATOM_DEF_STEREO_COUNT>  (1) 
0

>  <PUBCHEM_ATOM_UDEF_STEREO_COUNT>  (1) 
0

>  <PUBCHEM_BOND_DEF_STEREO_COUNT>  (1) 
0

>  <PUBCHEM_BOND_UDEF_STEREO_COUNT>  (1) 
0

>  <PUBCHEM_ISOTOPIC_ATOM_COUNT>  (1) 
0

>  <PUBCHEM_COMPONENT_COUNT>  (1) 
1

>  <PUBCHEM_CACTVS_TAUTO_COUNT>  (1) 
2

>  <PUBCHEM_CONFORMER_ID>  (1) 
000049B000000001

>  <PUBCHEM_MMFF94_ENERGY>  (1) 
68.9645

>  <PUBCHEM_FEATURE_SELFOVERLAP>  (1) 
32.062

>  <PUBCHEM_SHAPE_FINGERPRINT>  (1) 
10411042 1 15887718545989361264
10608611 8 18408882931989392748
10967382 1 18410011009470424104
11132069 177 18409725145016284920
11471102 20 18337104562649856797
13140716 1 18337673009866024696
13380535 76 18335701598792506131
13897977 150 18336543807334955413
14144814 61 18408603664746873408
14325111 11 18409167709811563928
14614273 12 18188204287238037893
15042514 8 18265053711420836091
15196674 1 18409167705490041008
15309172 13 18411708681372855841
15442244 35 18193274087961132712
15536298 74 18413388722503329640
15775835 57 18408608058392883048
16945 1 18194680599345373152
18186145 218 18271251538375907704
193761 8 17762056944559538841
19591789 44 18410576188470213179
200 152 18201145612427845045
20510252 161 18272373074427471833
20645476 183 17532393017645207206
20645477 70 18264764368648893533
21267235 1 18408895026616869658
21501502 16 18121777489845750364
21524375 3 18335419058273619891
2334 1 18409730676913095481
23402539 116 18342728646024334692
23402655 69 18267852914329315605
23419403 2 16106354108545915548
23463225 33 18334011649214892536
23559900 14 18271811268101122988
2748010 2 18408888420951906645
335352 9 17977101262597067221
43471831 8 18335700490358939827
5104073 3 18408886230524049728
528886 8 18410006619998146969
53812653 166 18412541007343549000
54173680 148 18120657099912969875
69090 78 18412259575142164866
7364860 26 18124596371034123375
81228 2 17832975423171180699
8809292 202 18186809084154443619
9709674 26 18339929311190551190

>  <PUBCHEM_SHAPE_MULTIPOLES>  (1) 
314.33
5.94
2.5
0.64
0.34
1.48
0.01
-1.8
-0.12
-0.22
0.35
-0.01
0.08
-0.05

>  <PUBCHEM_SHAPE_SELFOVERLAP>  (1) 
709.625

>  <PUBCHEM_SHAPE_VOLUME>  (1) 
164.4

>  <PUBCHEM_COORDINATE_TYPE>  (1) 
2
5
10

$$$$
