18868
     RDKit          3D

 13 13  0  0  0  0  0  0  0  0999 V2000
    0.2526    2.0861    0.2242 O   0  0  0  0  0  0  0  0  0  0  0  0
    1.1423   -0.0506    0.2972 N   0  0  0  0  0  0  0  0  0  0  0  0
    2.4080    0.4153    0.3939 N   0  0  0  0  0  0  0  0  0  0  0  0
   -1.2545    0.2922    0.0890 C   0  0  0  0  0  0  0  0  0  0  0  0
   -2.2324    1.0336   -0.5406 C   0  0  0  0  0  0  0  0  0  0  0  0
   -1.4993   -0.9634    0.6046 C   0  0  0  0  0  0  0  0  0  0  0  0
    0.1103    0.8660    0.2157 C   0  0  0  0  0  0  0  0  0  0  0  0
    3.3580   -0.3136   -0.1082 C   0  0  0  0  0  0  0  0  0  0  0  0
   -3.5135    0.4951   -0.6598 C   0  0  0  0  0  0  0  0  0  0  0  0
   -2.7806   -1.5020    0.4852 C   0  0  0  0  0  0  0  0  0  0  0  0
   -3.7876   -0.7727   -0.1471 C   0  0  0  0  0  0  0  0  0  0  0  0
    4.8272    0.0342   -0.0989 C   0  0  0  0  0  0  0  0  0  0  0  0
    2.9695   -1.6202   -0.7552 C   0  0  0  0  0  0  0  0  0  0  0  0
  1  7  2  0
  2  3  1  0
  2  7  1  0
  3  8  2  3
  4  5  2  0
  4  6  1  0
  4  7  1  0
  5  9  1  0
  6 10  2  0
  8 12  1  0
  8 13  1  0
  9 11  2  0
 10 11  1  0
M  END
>  <PUBCHEM_COMPOUND_CID>  (1) 
18868

>  <PUBCHEM_CONFORMER_RMSD>  (1) 
0.6

>  <PUBCHEM_CONFORMER_DIVERSEORDER>  (1) 
2
1

>  <PUBCHEM_MMFF94_PARTIAL_CHARGES>  (1) 
19
1 -0.57
10 -0.15
11 -0.15
12 0.06
13 0.06
14 0.15
15 0.15
16 0.15
17 0.15
18 0.15
19 0.37
2 -0.37
3 -0.51
4 0.09
5 -0.15
6 -0.15
7 0.54
8 0.33
9 -0.15

>  <PUBCHEM_EFFECTIVE_ROTOR_COUNT>  (1) 
3

>  <PUBCHEM_PHARMACOPHORE_FEATURES>  (1) 
4
1 1 acceptor
1 2 donor
1 3 acceptor
6 4 5 6 9 10 11 rings

>  <PUBCHEM_HEAVY_ATOM_COUNT>  (1) 
13

>  <PUBCHEM_ATOM_DEF_STEREO_COUNT>  (1) 
0

>  <PUBCHEM_ATOM_UDEF_STEREO_COUNT>  (1) 
0

>  <PUBCHEM_BOND_DEF_STEREO_COUNT>  (1) 
0

>  <PUBCHEM_BOND_UDEF_STEREO_COUNT>  (1) 
0

>  <PUBCHEM_ISOTOPIC_ATOM_COUNT>  (1) 
0

>  <PUBCHEM_COMPONENT_COUNT>  (1) 
1

>  <PUBCHEM_CACTVS_TAUTO_COUNT>  (1) 
2

>  <PUBCHEM_CONFORMER_ID>  (1) 
000049B400000002

>  <PUBCHEM_MMFF94_ENERGY>  (1) 
44.0233

>  <PUBCHEM_FEATURE_SELFOVERLAP>  (1) 
20.303

>  <PUBCHEM_SHAPE_FINGERPRINT>  (1) 
10465860 250 18409442587997875072
10465860 71 18114192925229660628
12032990 46 18412266142199921011
12251169 10 12391512000944565283
13296908 3 18412825785118188682
14252887 29 17203335502995878926
14911166 2 18261663827484120805
15375358 24 18411978066159215218
17870717 6 18336839601769736542
18186145 218 17458059382681618612
19107657 46 18342177765024389318
200 152 17704067391287409642
20201158 50 18411419505456784970
20279233 1 18412546500817625922
20281407 28 18201720647917895282
20645476 183 16805321115203282267
20645477 56 18187363186486154805
20645477 70 17988360352234619662
20871999 31 18187361021769571821
21079973 296 18335982055956757330
21119208 17 16660361480679954198
21524375 3 8574711299579133488
22213442 358 18410856611295506676
22485316 2 18342736312683551462
23402539 116 18114175333560580550
23403322 49 18411702045664681790
23557571 272 18334296423127634476
23559900 14 18337104567424690034
2748010 2 17971745821258687769
3312278 4 18408324363012831226
42 15 12103852250317153988
7364860 26 18194683902096576684
81228 2 18267028258426953656
9709674 26 18411705344331498982

>  <PUBCHEM_SHAPE_MULTIPOLES>  (1) 
251.7
8.12
1.57
0.78
5.98
0.05
-0.05
-1.86
-1.18
-0.33
0
-0.1
-0.08
0.71

>  <PUBCHEM_SHAPE_SELFOVERLAP>  (1) 
515.562

>  <PUBCHEM_SHAPE_VOLUME>  (1) 
145.8

>  <PUBCHEM_COORDINATE_TYPE>  (1) 
2
5
10

$$$$
