18867
     RDKit          3D

 17 19  0  0  0  0  0  0  0  0999 V2000
    4.2512   -0.7958   -0.0001 O   0  0  0  0  0  0  0  0  0  0  0  0
   -0.7331    1.5953   -0.0003 N   0  0  0  0  0  0  0  0  0  0  0  0
   -0.4874   -2.5891    0.0001 N   0  0  0  0  0  0  0  0  0  0  0  0
    0.6014   -0.4068   -0.0001 C   0  0  0  0  0  0  0  0  0  0  0  0
   -1.8236   -0.5496    0.0000 C   0  0  0  0  0  0  0  0  0  0  0  0
   -0.5703   -1.1703   -0.0002 C   0  0  0  0  0  0  0  0  0  0  0  0
    0.4715    0.9924    0.0000 C   0  0  0  0  0  0  0  0  0  0  0  0
   -1.8587    0.8551   -0.0001 C   0  0  0  0  0  0  0  0  0  0  0  0
    1.8739   -1.0041    0.0000 C   0  0  0  0  0  0  0  0  0  0  0  0
    1.6344    1.7580    0.0003 C   0  0  0  0  0  0  0  0  0  0  0  0
   -3.0174   -1.2920    0.0001 C   0  0  0  0  0  0  0  0  0  0  0  0
    3.0209   -0.2161    0.0003 C   0  0  0  0  0  0  0  0  0  0  0  0
   -3.1035    1.4789   -0.0001 C   0  0  0  0  0  0  0  0  0  0  0  0
    2.9006    1.1677    0.0004 C   0  0  0  0  0  0  0  0  0  0  0  0
   -4.2490   -0.6440    0.0002 C   0  0  0  0  0  0  0  0  0  0  0  0
   -4.2918    0.7442    0.0000 C   0  0  0  0  0  0  0  0  0  0  0  0
    5.3811    0.0763   -0.0002 C   0  0  0  0  0  0  0  0  0  0  0  0
  1 12  1  0
  1 17  1  0
  2  7  2  0
  2  8  1  0
  3  6  1  0
  4  6  2  0
  4  7  1  0
  4  9  1  0
  5  6  1  0
  5  8  2  0
  5 11  1  0
  7 10  1  0
  8 13  1  0
  9 12  2  0
 10 14  2  0
 11 15  2  0
 12 14  1  0
 13 16  2  0
 15 16  1  0
M  END
>  <PUBCHEM_COMPOUND_CID>  (1) 
18867

>  <PUBCHEM_CONFORMER_RMSD>  (1) 
0.6

>  <PUBCHEM_CONFORMER_DIVERSEORDER>  (1) 
1

>  <PUBCHEM_MMFF94_PARTIAL_CHARGES>  (1) 
24
1 -0.36
10 -0.15
11 -0.15
12 0.08
13 -0.15
14 -0.15
15 -0.15
16 -0.15
17 0.28
18 0.15
19 0.15
2 -0.62
20 0.15
21 0.15
22 0.15
23 0.15
24 0.15
25 0.4
26 0.4
3 -0.9
6 0.1
7 0.31
8 0.31
9 -0.15

>  <PUBCHEM_EFFECTIVE_ROTOR_COUNT>  (1) 
1

>  <PUBCHEM_PHARMACOPHORE_FEATURES>  (1) 
7
1 1 acceptor
1 2 acceptor
1 3 cation
1 3 donor
6 2 4 5 6 7 8 rings
6 4 7 9 10 12 14 rings
6 5 8 11 13 15 16 rings

>  <PUBCHEM_HEAVY_ATOM_COUNT>  (1) 
17

>  <PUBCHEM_ATOM_DEF_STEREO_COUNT>  (1) 
0

>  <PUBCHEM_ATOM_UDEF_STEREO_COUNT>  (1) 
0

>  <PUBCHEM_BOND_DEF_STEREO_COUNT>  (1) 
0

>  <PUBCHEM_BOND_UDEF_STEREO_COUNT>  (1) 
0

>  <PUBCHEM_ISOTOPIC_ATOM_COUNT>  (1) 
0

>  <PUBCHEM_COMPONENT_COUNT>  (1) 
1

>  <PUBCHEM_CACTVS_TAUTO_COUNT>  (1) 
2

>  <PUBCHEM_CONFORMER_ID>  (1) 
000049B300000001

>  <PUBCHEM_MMFF94_ENERGY>  (1) 
78.9677

>  <PUBCHEM_FEATURE_SELFOVERLAP>  (1) 
35.581

>  <PUBCHEM_SHAPE_FINGERPRINT>  (1) 
10062212 137 18412255138747137079
10608611 8 18411415150397039033
10967382 1 18410573955266177543
11132069 177 18412821382665901601
11401426 45 18413103961438644732
11471102 20 18410570703807136060
12032990 46 18409733992886070521
12236239 1 17821729425474959962
12403259 415 18410566293092539953
12715332 25 18131069372091146959
13140716 1 18267029542695638371
13221675 6 18409729560231992122
13288520 33 18412829071047667140
13380535 76 18412546504748739383
13675066 3 18273210928294452258
13690532 89 18409448076960661536
13862211 1 18410568487757271298
14115302 16 18114473339618526422
15042514 8 18265899249306770715
15099037 51 18411138034859262414
15196674 1 18410575123317914500
15309172 13 18411708681568236019
15442244 35 18410574024017257324
15536298 74 18342455984537046336
16945 1 18050286165544350533
17802600 8 18410852174546992509
17804303 29 18412266155121915020
18186145 218 18334287678157254205
18522853 276 18342175566058896088
200 152 17989483026610057133
20510252 161 18201157663399371440
21029758 11 18344143700330908360
21267235 1 18410019852898069147
21501502 16 18267584800093353676
221490 88 18263650738904491840
23175994 123 17275390906278810688
2334 1 18338799021858650509
23402539 116 18343576347930104494
23402655 69 18341325596552948901
23463225 33 18407758118735097621
23559900 14 18272086124242813968
2748010 2 18410011061389995789
3004659 81 18261398794180685702
335352 9 18410855438727237237
34934 24 18337666400412210303
350125 39 18410296917239058273
4214541 1 18410856551118803521
43471831 8 18263078829628848234
474 4 16951698093640519148
5104073 3 18411138077619090568
54173680 148 18120657087302491507
69090 78 18342735243025698215
7364860 26 18197216936653536807
8809292 202 18261396692923410491
9709674 26 18341337763963423678
9981440 41 17180531893660940168

>  <PUBCHEM_SHAPE_MULTIPOLES>  (1) 
334.02
8.55
1.92
0.6
4.24
0.28
0
-0.14
0
-0.51
0
-0.02
-0.01
0

>  <PUBCHEM_SHAPE_SELFOVERLAP>  (1) 
751.872

>  <PUBCHEM_SHAPE_VOLUME>  (1) 
176.7

>  <PUBCHEM_COORDINATE_TYPE>  (1) 
2
5
10

$$$$
