18869
     RDKit          3D

 13 13  0  0  0  0  0  0  0  0999 V2000
    0.4462   -1.6675    0.9013 O   0  0  0  0  0  0  0  0  0  0  0  0
    2.4371    0.2552    0.7380 N   0  0  0  0  0  0  0  0  0  0  0  0
    1.1019    0.5114    0.4471 N   0  0  0  0  0  0  0  0  0  0  0  0
    3.2707    0.5312   -0.4120 C   0  0  0  0  0  0  0  0  0  0  0  0
    2.8816   -0.4033   -1.5499 C   0  0  0  0  0  0  0  0  0  0  0  0
    4.7357    0.3615   -0.0308 C   0  0  0  0  0  0  0  0  0  0  0  0
   -1.2187   -0.1672    0.2112 C   0  0  0  0  0  0  0  0  0  0  0  0
    0.1831   -0.5172    0.5592 C   0  0  0  0  0  0  0  0  0  0  0  0
   -2.0581   -1.1604   -0.2482 C   0  0  0  0  0  0  0  0  0  0  0  0
   -1.6349    1.1393    0.3595 C   0  0  0  0  0  0  0  0  0  0  0  0
   -3.3738   -0.8322   -0.5746 C   0  0  0  0  0  0  0  0  0  0  0  0
   -2.9507    1.4675    0.0331 C   0  0  0  0  0  0  0  0  0  0  0  0
   -3.8202    0.4817   -0.4339 C   0  0  0  0  0  0  0  0  0  0  0  0
  1  8  2  0
  2  3  1  0
  2  4  1  0
  3  8  1  0
  4  5  1  0
  4  6  1  0
  7  8  1  0
  7  9  2  0
  7 10  1  0
  9 11  1  0
 10 12  2  0
 11 13  2  0
 12 13  1  0
M  END
>  <PUBCHEM_COMPOUND_CID>  (1) 
18869

>  <PUBCHEM_CONFORMER_RMSD>  (1) 
0.6

>  <PUBCHEM_CONFORMER_DIVERSEORDER>  (1) 
1
11
12
6
5
9
10
8
2
3
4
7

>  <PUBCHEM_MMFF94_PARTIAL_CHARGES>  (1) 
18
1 -0.57
10 -0.15
11 -0.15
12 -0.15
13 -0.15
15 0.36
2 -0.64
22 0.37
23 0.15
24 0.15
25 0.15
26 0.15
27 0.15
3 -0.42
4 0.27
7 0.09
8 0.54
9 -0.15

>  <PUBCHEM_EFFECTIVE_ROTOR_COUNT>  (1) 
4

>  <PUBCHEM_PHARMACOPHORE_FEATURES>  (1) 
5
1 1 acceptor
1 2 donor
1 3 donor
3 4 5 6 hydrophobe
6 7 9 10 11 12 13 rings

>  <PUBCHEM_HEAVY_ATOM_COUNT>  (1) 
13

>  <PUBCHEM_ATOM_DEF_STEREO_COUNT>  (1) 
0

>  <PUBCHEM_ATOM_UDEF_STEREO_COUNT>  (1) 
0

>  <PUBCHEM_BOND_DEF_STEREO_COUNT>  (1) 
0

>  <PUBCHEM_BOND_UDEF_STEREO_COUNT>  (1) 
0

>  <PUBCHEM_ISOTOPIC_ATOM_COUNT>  (1) 
0

>  <PUBCHEM_COMPONENT_COUNT>  (1) 
1

>  <PUBCHEM_CACTVS_TAUTO_COUNT>  (1) 
2

>  <PUBCHEM_CONFORMER_ID>  (1) 
000049B500000001

>  <PUBCHEM_MMFF94_ENERGY>  (1) 
22.8626

>  <PUBCHEM_FEATURE_SELFOVERLAP>  (1) 
26.841

>  <PUBCHEM_SHAPE_FINGERPRINT>  (1) 
114248 4 17703789240905569004
12251169 10 8358257042525198434
13705890 14 17275106124308975134
14943859 89 18408042909521486968
14993402 34 17822007639896305412
15775835 57 18187644682668319036
18186145 218 18341620299844139296
19107657 47 15791725308873205036
1986462 14 18344146998965615645
200 152 15769779048292899720
20201158 50 17632301181079715334
20279233 1 17704075101107062574
20281407 28 14548735088541429607
20300324 65 18342455975783419005
20361792 2 13398626134667929939
20645476 183 17967530211562174339
20645477 56 18272373053258453737
20645477 70 17060347271172588662
20671657 53 16128666240827151496
20871999 31 18130776893972395415
21501925 9 9150877374429176737
22169311 14 12035447250769984572
22485316 2 15195565697424354157
22959321 60 12252191804868729958
23402539 116 18410848872260422092
23557571 272 18131637806622606253
23559900 14 18343863330051953064
2748010 2 17906157809425702563
449060 50 12396299257666300354
57096353 35 18335971039329005775
57812782 119 17918275363523799132

>  <PUBCHEM_SHAPE_MULTIPOLES>  (1) 
251.7
7.96
1.32
0.98
5.21
0.05
0.18
-1.32
1.94
-0.89
-0.1
0.52
0.19
0.04

>  <PUBCHEM_SHAPE_SELFOVERLAP>  (1) 
511.382

>  <PUBCHEM_SHAPE_VOLUME>  (1) 
147.3

>  <PUBCHEM_COORDINATE_TYPE>  (1) 
2
5
10

$$$$
