18873
     RDKit          3D

 27 29  0  0  1  0  0  0  0  0999 V2000
   -0.9930   -0.2273    0.0116 O   0  0  0  0  0  0  0  0  0  0  0  0
    1.1459   -0.5501   -1.5620 O   0  0  0  0  0  0  0  0  0  0  0  0
    0.2599   -1.6314    1.3336 O   0  0  0  0  0  0  0  0  0  0  0  0
   -4.6685   -0.5501    0.4197 N   0  0  0  0  0  0  0  0  0  0  0  0
   -3.3729   -0.0232   -0.0308 C   0  0  0  0  0  0  0  0  0  0  0  0
   -3.4295   -0.2414   -1.5442 C   0  0  0  0  0  0  0  0  0  0  0  0
   -4.9139   -0.2664   -1.8918 C   0  0  0  0  0  0  0  0  0  0  0  0
   -5.6362   -0.0688   -0.5694 C   0  0  0  0  0  0  0  0  0  0  0  0
   -2.1797   -0.7317    0.5981 C   0  0  0  0  0  0  0  0  0  0  0  0
   -5.0270   -0.1267    1.7678 C   0  0  0  0  0  0  0  0  0  0  0  0
   -6.3927   -0.6603    2.1660 C   0  0  0  0  0  0  0  0  0  0  0  0
    1.3907   -0.1070   -0.2116 C   0  0  0  0  0  0  0  0  0  0  0  0
    0.1883   -0.7650    0.4700 C   0  0  0  0  0  0  0  0  0  0  0  0
    2.7449   -0.6257    0.2784 C   0  0  0  0  0  0  0  0  0  0  0  0
    1.3386    1.4214   -0.1543 C   0  0  0  0  0  0  0  0  0  0  0  0
    2.9319   -0.9190    1.6293 C   0  0  0  0  0  0  0  0  0  0  0  0
    1.7447    2.1749   -1.2558 C   0  0  0  0  0  0  0  0  0  0  0  0
    3.7917   -0.8056   -0.6257 C   0  0  0  0  0  0  0  0  0  0  0  0
    0.8844    2.0611    0.9992 C   0  0  0  0  0  0  0  0  0  0  0  0
    1.1355   -1.9620   -1.6318 C   0  0  0  0  0  0  0  0  0  0  0  0
    4.1658   -1.3918    2.0761 C   0  0  0  0  0  0  0  0  0  0  0  0
    1.6971    3.5679   -1.2037 C   0  0  0  0  0  0  0  0  0  0  0  0
    5.0256   -1.2786   -0.1789 C   0  0  0  0  0  0  0  0  0  0  0  0
    0.8367    3.4542    1.0510 C   0  0  0  0  0  0  0  0  0  0  0  0
    0.8760   -2.3831   -3.0625 C   0  0  0  0  0  0  0  0  0  0  0  0
    5.2125   -1.5717    1.1720 C   0  0  0  0  0  0  0  0  0  0  0  0
    1.2430    4.2076   -0.0504 C   0  0  0  0  0  0  0  0  0  0  0  0
  1  9  1  0
  1 13  1  0
  2 12  1  0
  2 20  1  0
  3 13  2  0
  4  5  1  0
  4  8  1  0
  4 10  1  0
  5  6  1  0
  5  9  1  0
  6  7  1  0
  7  8  1  0
 10 11  1  0
 12 13  1  0
 12 14  1  0
 12 15  1  0
 14 16  2  0
 14 18  1  0
 15 17  2  0
 15 19  1  0
 16 21  1  0
 17 22  1  0
 18 23  2  0
 19 24  2  0
 20 25  1  0
 21 26  2  0
 22 27  2  0
 23 26  1  0
 24 27  1  0
M  END
>  <PUBCHEM_COMPOUND_CID>  (1) 
18873

>  <PUBCHEM_CONFORMER_RMSD>  (1) 
1

>  <PUBCHEM_CONFORMER_DIVERSEORDER>  (1) 
1
53
44
68
25
75
110
86
84
72
90
80
32
27
39
13
36
78
30
109
50
114
64
117
77
22
98
11
49
95
47
105
6
97
107
60
42
37
63
34
23
67
12
100
62
81
106
92
7
52
102
87
79
31
88
38
4
76
51
112
96
118
94
24
71
20
69
54
111
9
26
104
65
70
56
18
2
83
55
17
33
115
73
85
101
5
103
35
41
21
10
99
46
66
19
82
40
45
15
61
29
57
113
43
116
16
58
93
108
14
28
91
48
3
8
59
74
89

>  <PUBCHEM_MMFF94_PARTIAL_CHARGES>  (1) 
33
1 -0.43
10 0.27
12 0.63
13 0.66
14 -0.14
15 -0.14
16 -0.15
17 -0.15
18 -0.15
19 -0.15
2 -0.56
20 0.28
21 -0.15
22 -0.15
23 -0.15
24 -0.15
26 -0.15
27 -0.15
3 -0.57
4 -0.81
42 0.15
43 0.15
44 0.15
45 0.15
48 0.15
49 0.15
5 0.27
50 0.15
51 0.15
55 0.15
56 0.15
8 0.27
9 0.28

>  <PUBCHEM_EFFECTIVE_ROTOR_COUNT>  (1) 
10

>  <PUBCHEM_PHARMACOPHORE_FEATURES>  (1) 
6
1 2 acceptor
1 3 acceptor
1 4 cation
5 4 5 6 7 8 rings
6 14 16 18 21 23 26 rings
6 15 17 19 22 24 27 rings

>  <PUBCHEM_HEAVY_ATOM_COUNT>  (1) 
27

>  <PUBCHEM_ATOM_DEF_STEREO_COUNT>  (1) 
0

>  <PUBCHEM_ATOM_UDEF_STEREO_COUNT>  (1) 
1

>  <PUBCHEM_BOND_DEF_STEREO_COUNT>  (1) 
0

>  <PUBCHEM_BOND_UDEF_STEREO_COUNT>  (1) 
0

>  <PUBCHEM_ISOTOPIC_ATOM_COUNT>  (1) 
0

>  <PUBCHEM_COMPONENT_COUNT>  (1) 
1

>  <PUBCHEM_CACTVS_TAUTO_COUNT>  (1) 
1

>  <PUBCHEM_CONFORMER_ID>  (1) 
000049B900000001

>  <PUBCHEM_MMFF94_ENERGY>  (1) 
75.5603

>  <PUBCHEM_FEATURE_SELFOVERLAP>  (1) 
30.447

>  <PUBCHEM_SHAPE_FINGERPRINT>  (1) 
10162869 55 18059853975092387679
10930396 42 18049967157676571010
11545043 162 17167859773321312409
11578080 2 17316508354564078024
12166972 35 18343011216613377265
12403259 415 17458624549555368461
12422481 6 17773028657718706670
12516196 113 18334568028195567810
12616971 3 18272375304496121387
12633257 1 18412828006033311207
12788726 201 18188768324176679834
13134695 92 18337942467756466484
13583140 156 17968086539272156619
13590594 115 18410293579870316345
13782708 43 17821737165122657371
14347329 18 15576651935640188693
14863182 85 17560812012883612182
14950920 106 18263100928263533529
14955137 171 18335990795793815994
17349148 13 18202004326234038459
17980427 23 17846490478196908281
1813 80 18342461400411432028
18222031 100 18341886373184177534
192875 21 18272649065068198113
20600515 1 18262248724477792502
21033648 144 18268142244447594245
21033648 29 17168130278793371581
21054139 6 8357959036515155025
22393880 68 12829489277174101463
23419403 2 18123717986204244456
23559900 14 16225763026381763339
3178227 256 18260278447128331291
3380486 77 18260552178178721618
345986 75 17606657168422068786
34934 24 18339078324093443524
513202 73 18054224324480724950
5252454 2 17976268155412603949
5895379 119 17416711088573877633
6086070 43 18188754086497406005
6823239 73 16732978756502157757
7471813 234 18271799133842676177
7495541 125 17967536791652174659
8863177 126 17749682899520697747
9841814 1 18335143102519743424
9971528 1 18201711860340948224

>  <PUBCHEM_SHAPE_MULTIPOLES>  (1) 
533.06
11.54
3.49
2.3
16.21
5.43
0.53
-6.24
-4.74
-4.02
0.82
0.81
-1.29
-0.54

>  <PUBCHEM_SHAPE_SELFOVERLAP>  (1) 
1127.484

>  <PUBCHEM_SHAPE_VOLUME>  (1) 
299.3

>  <PUBCHEM_COORDINATE_TYPE>  (1) 
2
5
10

$$$$
