18876
     RDKit          3D

 26 27  0  0  1  0  0  0  0  0999 V2000
   -0.8546   -1.3520   -0.2394 O   0  0  0  0  0  0  0  0  0  0  0  0
    1.1165   -0.4924   -1.8231 O   0  0  0  0  0  0  0  0  0  0  0  0
    0.9411   -2.3432    0.8004 O   0  0  0  0  0  0  0  0  0  0  0  0
   -3.6139   -0.8608    0.2570 N   0  0  0  0  0  0  0  0  0  0  0  0
    1.2569   -0.2396   -0.4103 C   0  0  0  0  0  0  0  0  0  0  0  0
   -3.1149   -2.1342   -0.2609 C   0  0  0  0  0  0  0  0  0  0  0  0
   -4.7216   -0.3738   -0.5642 C   0  0  0  0  0  0  0  0  0  0  0  0
   -4.0352   -1.0054    1.6499 C   0  0  0  0  0  0  0  0  0  0  0  0
   -1.6993   -2.3951    0.2287 C   0  0  0  0  0  0  0  0  0  0  0  0
    2.7360   -0.2428   -0.0163 C   0  0  0  0  0  0  0  0  0  0  0  0
    0.6016    1.0980   -0.0594 C   0  0  0  0  0  0  0  0  0  0  0  0
   -4.1925    0.2391   -1.8583 C   0  0  0  0  0  0  0  0  0  0  0  0
    0.4690   -1.4403    0.1197 C   0  0  0  0  0  0  0  0  0  0  0  0
   -4.4996    0.3225    2.2238 C   0  0  0  0  0  0  0  0  0  0  0  0
    3.1183   -0.6732    1.2544 C   0  0  0  0  0  0  0  0  0  0  0  0
    0.5946    2.1367   -0.9906 C   0  0  0  0  0  0  0  0  0  0  0  0
    3.7016    0.1843   -0.9278 C   0  0  0  0  0  0  0  0  0  0  0  0
    0.0109    1.2788    1.1913 C   0  0  0  0  0  0  0  0  0  0  0  0
   -3.2464    1.3962   -1.5767 C   0  0  0  0  0  0  0  0  0  0  0  0
    4.4661   -0.6764    1.6135 C   0  0  0  0  0  0  0  0  0  0  0  0
   -0.0029    3.3560   -0.6711 C   0  0  0  0  0  0  0  0  0  0  0  0
    5.0495    0.1809   -0.5686 C   0  0  0  0  0  0  0  0  0  0  0  0
   -0.5866    2.4980    1.5107 C   0  0  0  0  0  0  0  0  0  0  0  0
    1.6672   -1.7489   -2.1642 C   0  0  0  0  0  0  0  0  0  0  0  0
    5.4317   -0.2494    0.7020 C   0  0  0  0  0  0  0  0  0  0  0  0
   -0.5935    3.5367    0.5795 C   0  0  0  0  0  0  0  0  0  0  0  0
  1  9  1  0
  1 13  1  0
  2  5  1  0
  2 24  1  0
  3 13  2  0
  4  6  1  0
  4  7  1  0
  4  8  1  0
  5 10  1  0
  5 11  1  0
  5 13  1  0
  6  9  1  0
  7 12  1  0
  8 14  1  0
 10 15  2  0
 10 17  1  0
 11 16  2  0
 11 18  1  0
 12 19  1  0
 15 20  1  0
 16 21  1  0
 17 22  2  0
 18 23  2  0
 20 25  2  0
 21 26  2  0
 22 25  1  0
 23 26  1  0
M  END
>  <PUBCHEM_COMPOUND_CID>  (1) 
18876

>  <PUBCHEM_CONFORMER_RMSD>  (1) 
1.2

>  <PUBCHEM_CONFORMER_DIVERSEORDER>  (1) 
1
60
27
15
59
63
24
46
18
54
55
61
34
41
52
35
36
10
12
32
50
29
21
16
37
43
48
5
62
44
56
65
38
13
20
17
31
42
30
3
9
23
28
33
51
2
7
57
25
8
47
64
53
22
19
11
4
39
49
14
40
26
45
58
6

>  <PUBCHEM_MMFF94_PARTIAL_CHARGES>  (1) 
33
1 -0.43
10 -0.14
11 -0.14
13 0.66
15 -0.15
16 -0.15
17 -0.15
18 -0.15
2 -0.56
20 -0.15
21 -0.15
22 -0.15
23 -0.15
24 0.28
25 -0.15
26 -0.15
3 -0.57
4 -0.81
40 0.15
41 0.15
42 0.15
43 0.15
47 0.15
48 0.15
49 0.15
5 0.63
50 0.15
54 0.15
55 0.15
6 0.27
7 0.27
8 0.27
9 0.28

>  <PUBCHEM_EFFECTIVE_ROTOR_COUNT>  (1) 
11

>  <PUBCHEM_PHARMACOPHORE_FEATURES>  (1) 
6
1 19 hydrophobe
1 2 acceptor
1 3 acceptor
1 4 cation
6 10 15 17 20 22 25 rings
6 11 16 18 21 23 26 rings

>  <PUBCHEM_HEAVY_ATOM_COUNT>  (1) 
26

>  <PUBCHEM_ATOM_DEF_STEREO_COUNT>  (1) 
0

>  <PUBCHEM_ATOM_UDEF_STEREO_COUNT>  (1) 
0

>  <PUBCHEM_BOND_DEF_STEREO_COUNT>  (1) 
0

>  <PUBCHEM_BOND_UDEF_STEREO_COUNT>  (1) 
0

>  <PUBCHEM_ISOTOPIC_ATOM_COUNT>  (1) 
0

>  <PUBCHEM_COMPONENT_COUNT>  (1) 
1

>  <PUBCHEM_CACTVS_TAUTO_COUNT>  (1) 
1

>  <PUBCHEM_CONFORMER_ID>  (1) 
000049BC00000001

>  <PUBCHEM_MMFF94_ENERGY>  (1) 
75.3554

>  <PUBCHEM_FEATURE_SELFOVERLAP>  (1) 
30.446

>  <PUBCHEM_SHAPE_FINGERPRINT>  (1) 
10162869 55 18342749533885366171
104564 63 18270681957077403409
10675989 125 16965745063054898245
11646440 116 18272939340759842235
12166972 35 18270954782438230147
12403259 226 18046902955671198623
12422481 6 18059025972940835066
12467345 10 17168136815300975278
12553582 1 18341061760837968249
12633257 1 18339935912845253511
12788726 201 18408326571164299392
13132413 78 18335131024955681846
13140716 1 18269560605298029240
14081887 123 18059577919035349369
14955137 171 18267604548422052979
15238133 3 18042709276578040275
1601671 61 18272378598140126678
17349148 13 18201444700321410472
17357779 13 18131346405939642156
17876694 64 17967825924677140580
17980427 23 17703515496796352905
20600515 1 18200890563772840280
21330990 113 17560806524200016450
23402539 116 18201722842424689370
23419403 2 18057583551172177904
23558518 356 17764299553185188028
23559900 14 18341902905035786462
3052486 1 18264226728537119612
5895379 119 17558862626154545681
6009941 240 16805875213149634115
7226269 152 18408601470271617330
81228 2 18197521569987860402

>  <PUBCHEM_SHAPE_MULTIPOLES>  (1) 
512.48
9.57
3.14
1.93
1.35
2.37
-0.01
-2.97
1.55
-1.35
0.07
-0.98
0.01
0.12

>  <PUBCHEM_SHAPE_SELFOVERLAP>  (1) 
1065.394

>  <PUBCHEM_SHAPE_VOLUME>  (1) 
291.9

>  <PUBCHEM_COORDINATE_TYPE>  (1) 
2
5
10

$$$$
