18887
     RDKit          3D

 20 22  0  0  0  0  0  0  0  0999 V2000
   -5.2842   -1.6318    0.5595 O   0  0  0  0  0  0  0  0  0  0  0  0
   -3.6349   -2.7595   -0.3499 O   0  0  0  0  0  0  0  0  0  0  0  0
    2.4100    0.0768   -0.7359 N   0  0  0  0  0  0  0  0  0  0  0  0
    4.7022   -0.9319    0.7087 N   0  0  0  0  0  0  0  0  0  0  0  0
   -0.7722    2.7225    0.0812 N   0  0  0  0  0  0  0  0  0  0  0  0
   -4.1137   -1.6965    0.1130 N   0  0  0  0  0  0  0  0  0  0  0  0
    2.3413   -0.2010    0.7039 C   0  0  0  0  0  0  0  0  0  0  0  0
    3.3902   -0.8049   -1.3814 C   0  0  0  0  0  0  0  0  0  0  0  0
    3.7207   -0.0518    1.3548 C   0  0  0  0  0  0  0  0  0  0  0  0
    4.7698   -0.6546   -0.7313 C   0  0  0  0  0  0  0  0  0  0  0  0
    1.0943   -0.0676   -1.3557 C   0  0  0  0  0  0  0  0  0  0  0  0
    0.1125    0.8889   -0.7377 C   0  0  0  0  0  0  0  0  0  0  0  0
   -1.2007    0.5742   -0.3415 C   0  0  0  0  0  0  0  0  0  0  0  0
    6.0179   -0.7854    1.3280 C   0  0  0  0  0  0  0  0  0  0  0  0
   -1.7442    1.7521    0.1757 C   0  0  0  0  0  0  0  0  0  0  0  0
    0.3638    2.2002   -0.4764 C   0  0  0  0  0  0  0  0  0  0  0  0
   -1.9972   -0.5878   -0.3634 C   0  0  0  0  0  0  0  0  0  0  0  0
   -3.0497    1.8261    0.6742 C   0  0  0  0  0  0  0  0  0  0  0  0
   -3.3048   -0.5287    0.1319 C   0  0  0  0  0  0  0  0  0  0  0  0
   -3.8211    0.6607    0.6423 C   0  0  0  0  0  0  0  0  0  0  0  0
  1  6  1  0
  2  6  2  0
  3  7  1  0
  3  8  1  0
  3 11  1  0
  4  9  1  0
  4 10  1  0
  4 14  1  0
  5 15  1  0
  5 16  1  0
  6 19  1  0
  7  9  1  0
  8 10  1  0
 11 12  1  0
 12 13  1  0
 12 16  2  0
 13 15  2  0
 13 17  1  0
 15 18  1  0
 17 19  2  0
 18 20  2  0
 19 20  1  0
M  CHG  2   1  -1   6   1
M  END
>  <PUBCHEM_COMPOUND_CID>  (1) 
18887

>  <PUBCHEM_CONFORMER_RMSD>  (1) 
0.6

>  <PUBCHEM_CONFORMER_DIVERSEORDER>  (1) 
2
4
1
3
11
10
8
12
7
13
9
5
15
6
14

>  <PUBCHEM_MMFF94_PARTIAL_CHARGES>  (1) 
24
1 -0.52
10 0.27
11 0.45
12 -0.18
14 0.27
15 -0.15
16 -0.3
17 -0.15
18 -0.15
19 0.13
2 -0.52
20 -0.15
3 -0.81
34 0.15
35 0.27
36 0.15
37 0.15
38 0.15
4 -0.81
5 0.03
6 0.91
7 0.27
8 0.27
9 0.27

>  <PUBCHEM_EFFECTIVE_ROTOR_COUNT>  (1) 
4.2

>  <PUBCHEM_PHARMACOPHORE_FEATURES>  (1) 
10
1 1 acceptor
1 1 anion
1 2 acceptor
1 3 cation
1 4 cation
1 5 cation
1 5 donor
5 5 12 13 15 16 rings
6 13 15 17 18 19 20 rings
6 3 4 7 8 9 10 rings

>  <PUBCHEM_HEAVY_ATOM_COUNT>  (1) 
20

>  <PUBCHEM_ATOM_DEF_STEREO_COUNT>  (1) 
0

>  <PUBCHEM_ATOM_UDEF_STEREO_COUNT>  (1) 
0

>  <PUBCHEM_BOND_DEF_STEREO_COUNT>  (1) 
0

>  <PUBCHEM_BOND_UDEF_STEREO_COUNT>  (1) 
0

>  <PUBCHEM_ISOTOPIC_ATOM_COUNT>  (1) 
0

>  <PUBCHEM_COMPONENT_COUNT>  (1) 
1

>  <PUBCHEM_CACTVS_TAUTO_COUNT>  (1) 
1

>  <PUBCHEM_CONFORMER_ID>  (1) 
000049C700000002

>  <PUBCHEM_MMFF94_ENERGY>  (1) 
46.1858

>  <PUBCHEM_FEATURE_SELFOVERLAP>  (1) 
50.921

>  <PUBCHEM_SHAPE_FINGERPRINT>  (1) 
10 15 17774706629233873426
10319926 262 18128251182751561890
11045977 3 17846215523117917624
11046707 91 18333449837359180917
11132069 177 18341900627795686597
11370993 144 16916236459256969479
12236239 1 17676492717905300748
12523318 42 18341325617573832034
12553582 1 18335991930028827743
12616971 3 17313114007850848292
12839892 36 18339072692906710250
12892183 10 17060066903870061246
13140716 1 18342179977185981633
13583140 156 18196629836531123916
13675066 3 17632578223644869356
14081887 123 18271244911109260970
14178342 30 18270974435913151309
14251752 14 17385435506518146111
14420673 8 17764872395119250902
15099037 37 18343584023158079125
15188451 53 18409439297763042194
15415430 10 18335419084048522881
17349148 13 17240768346267151786
1813 80 17967823738216708884
18186145 218 12252188463009874260
18222031 100 18343301508883620623
18785283 64 17702370935831784880
193927 3 18261686946892427763
19784866 240 17530683212428574163
200 152 16443349732819117964
20600515 1 18199761262141987069
21033648 29 16845001317059467091
21065199 12 17917712349325177382
21650355 55 18412544288872818097
21728266 224 18260260815902289754
21756936 100 13038895664571913110
22393880 68 12252188472127544008
22646028 28 18186805776829126210
22854114 59 17060335202245888484
2297311 6 18272382932015316796
23366157 5 18044386160312037509
23402539 116 18261106353318635038
23557571 272 18130804320958190797
23559900 14 18056213366710530470
25147074 1 18263385696879539229
3009799 131 18341597206395878421
339767 52 18334569136028143479
351380 3 18040154028318518931
5104073 3 18269287901298957417
559249 180 18186516575823428619
56616090 89 18410854386618758209
573450 72 18260269603336941932
59682541 52 13768466709335695043
602551 16 18412546505260455242
633830 44 12679469676986094572
76465 3 18186800300693141301
7970288 3 18335137639332834355
90127 26 16271652170247466448

>  <PUBCHEM_SHAPE_MULTIPOLES>  (1) 
379.93
11.33
2.25
1.21
7.76
0.22
-0.01
-6.85
3.93
-3.27
-0.02
1.46
-0.1
-0.26

>  <PUBCHEM_SHAPE_SELFOVERLAP>  (1) 
818.092

>  <PUBCHEM_SHAPE_VOLUME>  (1) 
211.8

>  <PUBCHEM_COORDINATE_TYPE>  (1) 
2
5
10

$$$$
