18886
     RDKit          3D

 19 21  0  0  0  0  0  0  0  0999 V2000
    4.8938   -1.0915    1.0598 O   0  0  0  0  0  0  0  0  0  0  0  0
   -5.0416   -1.4837    0.4629 O   0  0  0  0  0  0  0  0  0  0  0  0
   -3.3885   -2.7071   -0.3049 O   0  0  0  0  0  0  0  0  0  0  0  0
    2.7589   -0.0817   -0.5288 N   0  0  0  0  0  0  0  0  0  0  0  0
   -0.3694    2.6992   -0.0059 N   0  0  0  0  0  0  0  0  0  0  0  0
   -3.8536   -1.6075    0.0795 N   0  0  0  0  0  0  0  0  0  0  0  0
    1.4709   -0.2175   -1.2058 C   0  0  0  0  0  0  0  0  0  0  0  0
    2.6110   -0.2828    0.9192 C   0  0  0  0  0  0  0  0  0  0  0  0
    3.7369   -1.0346   -1.0722 C   0  0  0  0  0  0  0  0  0  0  0  0
    0.4927    0.7994   -0.6866 C   0  0  0  0  0  0  0  0  0  0  0  0
    3.9692   -0.1480    1.6018 C   0  0  0  0  0  0  0  0  0  0  0  0
    5.0685   -0.8831   -0.3422 C   0  0  0  0  0  0  0  0  0  0  0  0
   -0.8479    0.5461   -0.3415 C   0  0  0  0  0  0  0  0  0  0  0  0
   -1.3765    1.7653    0.0881 C   0  0  0  0  0  0  0  0  0  0  0  0
    0.7744    2.1141   -0.4791 C   0  0  0  0  0  0  0  0  0  0  0  0
   -1.6807   -0.5904   -0.3450 C   0  0  0  0  0  0  0  0  0  0  0  0
   -2.7014    1.9052    0.5162 C   0  0  0  0  0  0  0  0  0  0  0  0
   -3.0081   -0.4656    0.0805 C   0  0  0  0  0  0  0  0  0  0  0  0
   -3.5087    0.7640    0.5040 C   0  0  0  0  0  0  0  0  0  0  0  0
  1 11  1  0
  1 12  1  0
  2  6  1  0
  3  6  2  0
  4  7  1  0
  4  8  1  0
  4  9  1  0
  5 14  1  0
  5 15  1  0
  6 18  1  0
  7 10  1  0
  8 11  1  0
  9 12  1  0
 10 13  1  0
 10 15  2  0
 13 14  2  0
 13 16  1  0
 14 17  1  0
 16 18  2  0
 17 19  2  0
 18 19  1  0
M  CHG  2   2  -1   6   1
M  END
>  <PUBCHEM_COMPOUND_CID>  (1) 
18886

>  <PUBCHEM_CONFORMER_RMSD>  (1) 
0.6

>  <PUBCHEM_CONFORMER_DIVERSEORDER>  (1) 
2
4
3
1
9
10
8
11
7
12
5
6

>  <PUBCHEM_MMFF94_PARTIAL_CHARGES>  (1) 
23
1 -0.56
10 -0.18
11 0.28
12 0.28
14 -0.15
15 -0.3
16 -0.15
17 -0.15
18 0.13
19 -0.15
2 -0.52
3 -0.52
30 0.15
31 0.27
32 0.15
33 0.15
34 0.15
4 -0.81
5 0.03
6 0.91
7 0.45
8 0.27
9 0.27

>  <PUBCHEM_EFFECTIVE_ROTOR_COUNT>  (1) 
4.2

>  <PUBCHEM_PHARMACOPHORE_FEATURES>  (1) 
10
1 1 acceptor
1 2 acceptor
1 2 anion
1 3 acceptor
1 4 cation
1 5 cation
1 5 donor
5 5 10 13 14 15 rings
6 1 4 8 9 11 12 rings
6 13 14 16 17 18 19 rings

>  <PUBCHEM_HEAVY_ATOM_COUNT>  (1) 
19

>  <PUBCHEM_ATOM_DEF_STEREO_COUNT>  (1) 
0

>  <PUBCHEM_ATOM_UDEF_STEREO_COUNT>  (1) 
0

>  <PUBCHEM_BOND_DEF_STEREO_COUNT>  (1) 
0

>  <PUBCHEM_BOND_UDEF_STEREO_COUNT>  (1) 
0

>  <PUBCHEM_ISOTOPIC_ATOM_COUNT>  (1) 
0

>  <PUBCHEM_COMPONENT_COUNT>  (1) 
1

>  <PUBCHEM_CACTVS_TAUTO_COUNT>  (1) 
1

>  <PUBCHEM_CONFORMER_ID>  (1) 
000049C600000002

>  <PUBCHEM_MMFF94_ENERGY>  (1) 
42.6292

>  <PUBCHEM_FEATURE_SELFOVERLAP>  (1) 
50.919

>  <PUBCHEM_SHAPE_FINGERPRINT>  (1) 
10062212 137 18113622261641621433
10319926 262 18127397966102490234
10366900 7 17774430565161697976
11045977 3 17917988343718111176
11046707 91 18333731303645691205
11132069 177 18341052904362261236
11265709 11 18408888459901965861
11370993 144 16988010375031657898
11552529 35 17560793351082061327
12236239 1 17676776379199674228
12363563 72 18336553797312808847
12553582 1 18335425677097895187
12824470 246 17967246503128116555
13140716 1 18341899597404787001
13675066 3 17775566416565521590
14081887 123 18270676459445184410
14178342 30 18199762361979811313
14251764 38 12245472582091008339
14420673 8 17764589816346533502
14787075 74 18187646968319154688
15099037 37 18343301444300874877
15342168 16 11023842660372720435
15375462 189 17967537843803130688
17804303 29 18343304755757823521
1813 80 17895202090492565548
18186145 218 12035451614430448716
18222031 100 18342453780928556599
193927 3 18261968421879720435
200 152 16443349728534654676
20281475 54 18261673680001876174
20600515 1 18200043823813995396
21033648 29 16988269885545500522
21065199 12 17988358183418104786
21452121 71 18260835941861343137
21501925 9 18342175613366872365
21650355 55 18412260601850786977
22646028 28 18259987076124788290
22854114 59 17132109118031022404
2297311 6 18272101448522427140
23366157 5 18044102477653532389
23402539 116 18334573508515639614
23557571 272 18130235869125276388
23559900 14 18127137368708201710
25147074 1 18263384588614453053
2748010 2 17545341687176706853
2838139 119 14403779762409059913
3009799 131 18340749495747076309
335352 9 18410860954425445061
351380 3 18040719168605060378
5104073 3 18341337759504829201
559249 180 18187360979162692539
5902787 121 18409451405265222260
602551 16 18412262818444184994
633830 44 12967131622958991964
76465 3 18336826502383039023
7970288 3 18336264630045377435
90316 7 18262801735719336868

>  <PUBCHEM_SHAPE_MULTIPOLES>  (1) 
358.46
9.77
2.32
1.09
4.62
0.31
0.17
-6.3
2.32
-2.65
-0.1
1.24
-0.08
-0.12

>  <PUBCHEM_SHAPE_SELFOVERLAP>  (1) 
777.922

>  <PUBCHEM_SHAPE_VOLUME>  (1) 
197.2

>  <PUBCHEM_COORDINATE_TYPE>  (1) 
2
5
10

$$$$
