18899
     RDKit          3D

 15 16  0  0  0  0  0  0  0  0999 V2000
    1.4672   -0.8219   -0.1832 O   0  0  0  0  0  0  0  0  0  0  0  0
    0.4000    1.1774   -0.4893 O   0  0  0  0  0  0  0  0  0  0  0  0
   -0.7694   -0.7903    0.0009 N   0  0  0  0  0  0  0  0  0  0  0  0
    2.7091   -0.1884   -0.4153 C   0  0  0  0  0  0  0  0  0  0  0  0
    3.8601   -1.1668   -0.2494 C   0  0  0  0  0  0  0  0  0  0  0  0
    3.0129    0.8639    0.6391 C   0  0  0  0  0  0  0  0  0  0  0  0
    5.0714   -0.2731   -0.0154 C   0  0  0  0  0  0  0  0  0  0  0  0
    4.5262    1.0309    0.5729 C   0  0  0  0  0  0  0  0  0  0  0  0
    0.3517   -0.0222   -0.2468 C   0  0  0  0  0  0  0  0  0  0  0  0
   -2.1199   -0.3742    0.0333 C   0  0  0  0  0  0  0  0  0  0  0  0
   -3.1110   -1.3047    0.3021 C   0  0  0  0  0  0  0  0  0  0  0  0
   -2.4267    0.9561   -0.2049 C   0  0  0  0  0  0  0  0  0  0  0  0
   -4.4437   -0.8943    0.3336 C   0  0  0  0  0  0  0  0  0  0  0  0
   -3.7596    1.3664   -0.1734 C   0  0  0  0  0  0  0  0  0  0  0  0
   -4.7681    0.4413    0.0959 C   0  0  0  0  0  0  0  0  0  0  0  0
  1  4  1  0
  1  9  1  0
  2  9  2  0
  3  9  1  0
  3 10  1  0
  4  5  1  0
  4  6  1  0
  5  7  1  0
  6  8  1  0
  7  8  1  0
 10 11  2  0
 10 12  1  0
 11 13  1  0
 12 14  2  0
 13 15  2  0
 14 15  1  0
M  END
>  <PUBCHEM_COMPOUND_CID>  (1) 
18899

>  <PUBCHEM_CONFORMER_RMSD>  (1) 
0.6

>  <PUBCHEM_CONFORMER_DIVERSEORDER>  (1) 
1
18
12
16
10
17
21
2
13
19
15
24
20
11
14
5
3
23
4
7
22
8
9
6

>  <PUBCHEM_MMFF94_PARTIAL_CHARGES>  (1) 
17
1 -0.43
10 0.12
11 -0.15
12 -0.15
13 -0.15
14 -0.15
15 -0.15
2 -0.57
25 0.37
26 0.15
27 0.15
28 0.15
29 0.15
3 -0.55
30 0.15
4 0.28
9 0.78

>  <PUBCHEM_EFFECTIVE_ROTOR_COUNT>  (1) 
5

>  <PUBCHEM_PHARMACOPHORE_FEATURES>  (1) 
4
1 2 acceptor
1 3 donor
5 4 5 6 7 8 rings
6 10 11 12 13 14 15 rings

>  <PUBCHEM_HEAVY_ATOM_COUNT>  (1) 
15

>  <PUBCHEM_ATOM_DEF_STEREO_COUNT>  (1) 
0

>  <PUBCHEM_ATOM_UDEF_STEREO_COUNT>  (1) 
0

>  <PUBCHEM_BOND_DEF_STEREO_COUNT>  (1) 
0

>  <PUBCHEM_BOND_UDEF_STEREO_COUNT>  (1) 
0

>  <PUBCHEM_ISOTOPIC_ATOM_COUNT>  (1) 
0

>  <PUBCHEM_COMPONENT_COUNT>  (1) 
1

>  <PUBCHEM_CACTVS_TAUTO_COUNT>  (1) 
2

>  <PUBCHEM_CONFORMER_ID>  (1) 
000049D300000001

>  <PUBCHEM_MMFF94_ENERGY>  (1) 
37.127

>  <PUBCHEM_FEATURE_SELFOVERLAP>  (1) 
20.297

>  <PUBCHEM_SHAPE_FINGERPRINT>  (1) 
10014705 185 18334572426363378549
10680689 15 18411422825688037875
10912923 1 16805325508938592048
11132069 177 18259985963807341125
11401426 45 18334574646618585007
12107183 9 17687741636553537240
12236239 1 16732984223546696950
13081056 2 18342457045293644184
13167823 11 18335417958894185786
13214271 11 18412823590859275735
13675066 3 18410294730720363790
14123238 8 18410575101848229375
14341114 176 18413113870113027480
15196674 1 18410856559645083808
15242439 84 18413108338031411942
15375358 24 18413673499946082567
17834072 33 17917706937349879966
18186145 218 16081090411073540084
18522853 276 18410294713851906317
19433438 28 18410292523065021337
200 152 17775563144037831711
20279233 1 18272377464063090863
204376 136 17060621113554726687
20645477 56 18336549318279136653
20645477 70 17774726359775866350
21267235 1 18334586754205427291
22485316 2 18408602556618937106
22854114 59 18272089409064412346
23402539 116 18412257346676533399
23402655 69 17917711305764162484
23557571 272 18335144146117857141
23559900 14 18412825751122512106
26918003 58 18272651246769075210
351380 180 18342173375472555305
3545911 37 18411703170729413223
42 15 18335139786841848870
4214541 1 18410293592701833809
42788 4 18412826888898409962
449060 50 18201719582871546308
5104073 3 18410575067520205386
5374978 207 18411695474770485304
542803 24 17240486909464988286
573450 72 17968085409162416979
69090 78 18273492394555089095
77779 3 18411700984728235586

>  <PUBCHEM_SHAPE_MULTIPOLES>  (1) 
291.97
11.62
1.36
0.7
2.67
0.07
0.03
0.28
1.13
-0.38
0.03
0.15
0.04
0.67

>  <PUBCHEM_SHAPE_SELFOVERLAP>  (1) 
611.453

>  <PUBCHEM_SHAPE_VOLUME>  (1) 
165.4

>  <PUBCHEM_COORDINATE_TYPE>  (1) 
2
5
10

$$$$
