18894
     RDKit          3D

 24 27  0  0  0  0  0  0  0  0999 V2000
   -0.6060   -1.6533   -0.4996 N   0  0  0  0  0  0  0  0  0  0  0  0
    2.2220   -1.1378   -0.8087 N   0  0  0  0  0  0  0  0  0  0  0  0
   -4.0654   -0.4371    2.1960 N   0  0  0  0  0  0  0  0  0  0  0  0
   -3.3531    2.4105   -2.4928 N   0  0  0  0  0  0  0  0  0  0  0  0
    0.1443   -0.8923    0.5068 C   0  0  0  0  0  0  0  0  0  0  0  0
    0.2743   -2.6133   -1.1768 C   0  0  0  0  0  0  0  0  0  0  0  0
    1.3420   -0.1787   -0.1296 C   0  0  0  0  0  0  0  0  0  0  0  0
    1.4713   -1.8995   -1.8144 C   0  0  0  0  0  0  0  0  0  0  0  0
   -1.7467   -2.3348    0.1089 C   0  0  0  0  0  0  0  0  0  0  0  0
    3.3615   -0.4552   -1.4185 C   0  0  0  0  0  0  0  0  0  0  0  0
   -2.7030   -1.3645    0.7500 C   0  0  0  0  0  0  0  0  0  0  0  0
   -3.1564   -0.1632    0.1771 C   0  0  0  0  0  0  0  0  0  0  0  0
    4.1902    0.2759   -0.3959 C   0  0  0  0  0  0  0  0  0  0  0  0
   -3.2609   -1.5236    1.9793 C   0  0  0  0  0  0  0  0  0  0  0  0
   -4.0208    0.4104    1.1120 C   0  0  0  0  0  0  0  0  0  0  0  0
   -2.9300    0.5102   -1.0397 C   0  0  0  0  0  0  0  0  0  0  0  0
   -4.6731    1.6284    0.8898 C   0  0  0  0  0  0  0  0  0  0  0  0
    3.8898    1.5959   -0.0902 C   0  0  0  0  0  0  0  0  0  0  0  0
    5.2429   -0.3803    0.2265 C   0  0  0  0  0  0  0  0  0  0  0  0
   -3.5755    1.7295   -1.2757 C   0  0  0  0  0  0  0  0  0  0  0  0
   -4.4333    2.2782   -0.3244 C   0  0  0  0  0  0  0  0  0  0  0  0
    4.6575    2.2734    0.8571 C   0  0  0  0  0  0  0  0  0  0  0  0
    6.0106    0.2972    1.1738 C   0  0  0  0  0  0  0  0  0  0  0  0
    5.7179    1.6241    1.4891 C   0  0  0  0  0  0  0  0  0  0  0  0
  1  5  1  0
  1  6  1  0
  1  9  1  0
  2  7  1  0
  2  8  1  0
  2 10  1  0
  3 14  1  0
  3 15  1  0
  4 20  1  0
  5  7  1  0
  6  8  1  0
  9 11  1  0
 10 13  1  0
 11 12  1  0
 11 14  2  0
 12 15  2  0
 12 16  1  0
 13 18  2  0
 13 19  1  0
 15 17  1  0
 16 20  2  0
 17 21  2  0
 18 22  1  0
 19 23  2  0
 20 21  1  0
 22 24  2  0
 23 24  1  0
M  END
>  <PUBCHEM_COMPOUND_CID>  (1) 
18894

>  <PUBCHEM_CONFORMER_RMSD>  (1) 
0.8

>  <PUBCHEM_CONFORMER_DIVERSEORDER>  (1) 
4
53
8
60
33
49
19
26
41
54
2
47
17
34
48
42
44
18
43
20
39
23
27
25
45
28
7
12
46
38
37
16
22
57
11
40
21
6
9
5
59
24
3
36
15
29
51
10
13
56
35
58
14
1
55
50
52
30
31
32

>  <PUBCHEM_MMFF94_PARTIAL_CHARGES>  (1) 
35
1 -0.81
10 0.41
11 -0.18
13 -0.14
14 -0.3
15 -0.15
16 -0.15
17 -0.15
18 -0.15
19 -0.15
2 -0.81
20 0.1
21 -0.15
22 -0.15
23 -0.15
24 -0.15
3 0.03
37 0.15
38 0.27
39 0.15
4 -0.9
40 0.15
41 0.15
42 0.15
43 0.15
44 0.15
45 0.15
46 0.15
47 0.4
48 0.4
5 0.27
6 0.27
7 0.27
8 0.27
9 0.45

>  <PUBCHEM_EFFECTIVE_ROTOR_COUNT>  (1) 
5.2

>  <PUBCHEM_PHARMACOPHORE_FEATURES>  (1) 
10
1 1 cation
1 2 cation
1 3 cation
1 3 donor
1 4 cation
1 4 donor
5 3 11 12 14 15 rings
6 1 2 5 6 7 8 rings
6 12 15 16 17 20 21 rings
6 13 18 19 22 23 24 rings

>  <PUBCHEM_HEAVY_ATOM_COUNT>  (1) 
24

>  <PUBCHEM_ATOM_DEF_STEREO_COUNT>  (1) 
0

>  <PUBCHEM_ATOM_UDEF_STEREO_COUNT>  (1) 
0

>  <PUBCHEM_BOND_DEF_STEREO_COUNT>  (1) 
0

>  <PUBCHEM_BOND_UDEF_STEREO_COUNT>  (1) 
0

>  <PUBCHEM_ISOTOPIC_ATOM_COUNT>  (1) 
0

>  <PUBCHEM_COMPONENT_COUNT>  (1) 
1

>  <PUBCHEM_CACTVS_TAUTO_COUNT>  (1) 
1

>  <PUBCHEM_CONFORMER_ID>  (1) 
000049CE00000004

>  <PUBCHEM_MMFF94_ENERGY>  (1) 
68.1859

>  <PUBCHEM_FEATURE_SELFOVERLAP>  (1) 
50.843

>  <PUBCHEM_SHAPE_FINGERPRINT>  (1) 
10319926 262 17895200973917483042
105312 117 18131630118926526078
10675989 125 16962641158635359949
10763959 59 18343308059484343260
10928967 22 12901540256846213336
11112241 14 18131345302492139405
11552529 35 15431751893466631648
11595378 159 17023191556081089308
12403259 118 18260832639194847660
12403259 415 18342188769078384542
12422481 6 18334572443569595628
12596602 18 15936416692613433956
12633257 1 17168153338087772637
12892183 10 17821729472477403530
12969540 114 17632577162840831078
13034934 17 18411705395517184893
13103583 49 15719391707357040332
13402501 40 18410570669695889141
13544653 18 11169907295175367374
13583140 156 18187075170273966506
13914758 101 15140669303218327175
13941219 33 10809615966410739629
14251758 9 17894625916741267998
144659 39 18334849502918908520
14848178 96 17775569749644792266
14932701 244 16772090669729047423
14950920 106 16805604836537299328
14951699 99 18189619509528390540
15484559 13 15611913066889422568
15537594 2 12973612153262191858
16993427 108 17170686755150927083
1768 210 16987984141693427792
1813 80 13479138952044926526
19246450 95 18119781683490211338
193927 3 10665227059984953526
20645477 56 18410866459603139303
20715895 44 18202004292016906944
21033648 29 18409737252903365956
21223535 225 17058109717934599160
21302155 148 18265057014889133324
21315764 268 18337669823216568568
21591340 35 16745626133392385476
22849339 104 12535624960481469133
22950370 63 11891328734379486134
23559900 14 18117013091156931446
2838139 119 17846776287307369016
3117164 225 17750220423193762930
312425 83 14691472550078015264
314194 84 12468643854478156162
329604 57 9223232962194081888
34797466 226 11599714087065125634
4371632 12 16269649040044000296
46194498 28 11023239049679064402
484985 159 11241961573862351341
5104073 3 18336274444256041851
574716 61 16271924904533297509
633830 44 17060076816923963430
6431902 208 11169903983987684448
7918774 8 11819274413127633208
79837 15 17822296854737303178
9862522 239 18410853299796723999
9981440 41 18041275479208922739

>  <PUBCHEM_SHAPE_MULTIPOLES>  (1) 
473.98
13.67
2.8
1.9
12.56
0.01
0.15
-9.23
-4.67
-1.01
0.73
-1.5
-0.16
2.89

>  <PUBCHEM_SHAPE_SELFOVERLAP>  (1) 
1032.791

>  <PUBCHEM_SHAPE_VOLUME>  (1) 
257

>  <PUBCHEM_COORDINATE_TYPE>  (1) 
2
5
10

$$$$
