18892
     RDKit          3D

 16 18  0  0  0  0  0  0  0  0999 V2000
   -2.2445    0.4417    0.2140 N   0  0  0  0  0  0  0  0  0  0  0  0
    1.0670   -2.3583   -0.0714 N   0  0  0  0  0  0  0  0  0  0  0  0
    3.3981    2.6585   -0.0875 N   0  0  0  0  0  0  0  0  0  0  0  0
   -3.4157    1.1657    0.7073 C   0  0  0  0  0  0  0  0  0  0  0  0
   -2.7864   -0.6647   -0.5744 C   0  0  0  0  0  0  0  0  0  0  0  0
   -4.3333    1.1954   -0.5059 C   0  0  0  0  0  0  0  0  0  0  0  0
   -3.9221   -0.0095   -1.3465 C   0  0  0  0  0  0  0  0  0  0  0  0
   -1.3793   -0.0152    1.2915 C   0  0  0  0  0  0  0  0  0  0  0  0
   -0.2103   -0.7426    0.7096 C   0  0  0  0  0  0  0  0  0  0  0  0
    1.0229   -0.1651    0.3341 C   0  0  0  0  0  0  0  0  0  0  0  0
    1.8145   -1.2055   -0.1570 C   0  0  0  0  0  0  0  0  0  0  0  0
   -0.1664   -2.0836    0.4554 C   0  0  0  0  0  0  0  0  0  0  0  0
    1.5555    1.1391    0.3585 C   0  0  0  0  0  0  0  0  0  0  0  0
    3.1175   -1.0059   -0.6268 C   0  0  0  0  0  0  0  0  0  0  0  0
    2.8575    1.3538   -0.1083 C   0  0  0  0  0  0  0  0  0  0  0  0
    3.6248    0.2962   -0.5927 C   0  0  0  0  0  0  0  0  0  0  0  0
  1  4  1  0
  1  5  1  0
  1  8  1  0
  2 11  1  0
  2 12  1  0
  3 15  1  0
  4  6  1  0
  5  7  1  0
  6  7  1  0
  8  9  1  0
  9 10  1  0
  9 12  2  0
 10 11  2  0
 10 13  1  0
 11 14  1  0
 13 15  2  0
 14 16  2  0
 15 16  1  0
M  END
>  <PUBCHEM_COMPOUND_CID>  (1) 
18892

>  <PUBCHEM_CONFORMER_RMSD>  (1) 
0.6

>  <PUBCHEM_CONFORMER_DIVERSEORDER>  (1) 
2
6
4
7
3
8
5
1

>  <PUBCHEM_MMFF94_PARTIAL_CHARGES>  (1) 
20
1 -0.81
11 -0.15
12 -0.3
13 -0.15
14 -0.15
15 0.1
16 -0.15
2 0.03
27 0.15
28 0.27
29 0.15
3 -0.9
30 0.15
31 0.15
32 0.4
33 0.4
4 0.27
5 0.27
8 0.45
9 -0.18

>  <PUBCHEM_EFFECTIVE_ROTOR_COUNT>  (1) 
3

>  <PUBCHEM_PHARMACOPHORE_FEATURES>  (1) 
8
1 1 cation
1 2 cation
1 2 donor
1 3 cation
1 3 donor
5 1 4 5 6 7 rings
5 2 9 10 11 12 rings
6 10 11 13 14 15 16 rings

>  <PUBCHEM_HEAVY_ATOM_COUNT>  (1) 
16

>  <PUBCHEM_ATOM_DEF_STEREO_COUNT>  (1) 
0

>  <PUBCHEM_ATOM_UDEF_STEREO_COUNT>  (1) 
0

>  <PUBCHEM_BOND_DEF_STEREO_COUNT>  (1) 
0

>  <PUBCHEM_BOND_UDEF_STEREO_COUNT>  (1) 
0

>  <PUBCHEM_ISOTOPIC_ATOM_COUNT>  (1) 
0

>  <PUBCHEM_COMPONENT_COUNT>  (1) 
1

>  <PUBCHEM_CACTVS_TAUTO_COUNT>  (1) 
1

>  <PUBCHEM_CONFORMER_ID>  (1) 
000049CC00000002

>  <PUBCHEM_MMFF94_ENERGY>  (1) 
38.2069

>  <PUBCHEM_FEATURE_SELFOVERLAP>  (1) 
40.689

>  <PUBCHEM_SHAPE_FINGERPRINT>  (1) 
10498660 4 18187635908556750381
10608611 8 18336271244346727856
10618630 7 10447940463775165472
11471102 20 18337956692761607366
11543360 7 17489585692538268133
11715629 250 18261384512739076397
11796584 16 14692018985808142660
12654215 9 18334582304666553994
12730499 353 18187934937270333075
12892183 10 11314314944638012143
13134695 92 18043521708154632018
13294875 104 18260536819449550386
13583140 156 17240758548914077944
13705890 14 15913330178292673070
14250199 8 18340489971820785141
14252887 29 10159694690260649852
14415576 193 18409449167708424477
14911166 2 18339655455765314182
15279308 100 18335995263028671702
15775835 57 18412266112351324031
16752209 62 16558178290870810865
16945 1 18339941328677824586
18186145 218 18411142424078351501
192875 21 18340764836958696888
19862831 5 17917992759065583073
200 152 17775567524419241874
20281407 28 11743844659486514433
20281475 54 10375872991185927785
20645476 183 18131061602985906287
21499 59 18409728490974916047
21524375 3 18334851757644895866
21639500 275 18409444765245457710
22096605 113 18409728460867940579
2255824 54 18339357440368769811
22892500 29 18334294236767416254
231179 274 17749103370418201252
23382010 3 18200587111422089499
23402539 116 18343579629775800244
23402655 69 18271810081603251589
23557571 272 17023480676663835481
23598291 2 17770786715023842179
25 1 18335707108866379194
2748010 2 18195549188225781666
3060560 45 18340202994875093102
3082319 5 18131628963654065925
4028521 119 18187640272248817205
4280585 95 17269490737980263022
43658 37 18339918337195727464
4371632 12 12818502089569774488
474 4 18408323293650695153
633830 44 18341619200226990637
7832392 63 17908991997787912713
81228 2 17170981415191555835
83771 10 10231762192677327152
84936 182 18201716266993699368

>  <PUBCHEM_SHAPE_MULTIPOLES>  (1) 
314.33
7.59
2.14
1.02
4.19
0.06
0.01
3.71
2.47
-1.66
-0.06
0.67
-0.03
-0.04

>  <PUBCHEM_SHAPE_SELFOVERLAP>  (1) 
684.803

>  <PUBCHEM_SHAPE_VOLUME>  (1) 
175.4

>  <PUBCHEM_COORDINATE_TYPE>  (1) 
2
5
10

$$$$
