18896
     RDKit          3D

 22 25  0  0  1  0  0  0  0  0999 V2000
    4.6144   -2.1079   -0.3183 Cl  0  0  0  0  0  0  0  0  0  0  0  0
   -4.7882    1.1801   -0.8506 O   0  0  0  0  0  0  0  0  0  0  0  0
    5.4996    0.5939   -1.0219 O   0  0  0  0  0  0  0  0  0  0  0  0
   -2.8259    0.3652    0.4142 C   0  0  0  0  0  0  0  0  0  0  0  0
   -1.9552   -0.8986    0.2298 C   0  0  0  0  0  0  0  0  0  0  0  0
   -0.4887   -0.7242    0.6730 C   0  0  0  0  0  0  0  0  0  0  0  0
    0.1942    0.5217    0.0660 C   0  0  0  0  0  0  0  0  0  0  0  0
   -4.0862    0.0103   -0.4391 C   0  0  0  0  0  0  0  0  0  0  0  0
   -2.0980    1.6165   -0.1468 C   0  0  0  0  0  0  0  0  0  0  0  0
   -2.1613   -1.2918   -1.2440 C   0  0  0  0  0  0  0  0  0  0  0  0
   -0.6586    1.7726    0.3455 C   0  0  0  0  0  0  0  0  0  0  0  0
   -3.4985   -0.6852   -1.6784 C   0  0  0  0  0  0  0  0  0  0  0  0
    1.6611    0.6798    0.5859 C   0  0  0  0  0  0  0  0  0  0  0  0
    0.3408   -1.9807    0.3831 C   0  0  0  0  0  0  0  0  0  0  0  0
   -3.1620    0.6081    1.8973 C   0  0  0  0  0  0  0  0  0  0  0  0
    1.7463   -1.8458    0.9556 C   0  0  0  0  0  0  0  0  0  0  0  0
    2.4608   -0.6177    0.4280 C   0  0  0  0  0  0  0  0  0  0  0  0
   -5.1061   -0.9128    0.2423 C   0  0  0  0  0  0  0  0  0  0  0  0
    2.3384    1.8776   -0.1095 C   0  0  0  0  0  0  0  0  0  0  0  0
    3.8389    1.8910    0.0941 C   0  0  0  0  0  0  0  0  0  0  0  0
    3.7059   -0.6568   -0.0872 C   0  0  0  0  0  0  0  0  0  0  0  0
    4.4282    0.6047   -0.4189 C   0  0  0  0  0  0  0  0  0  0  0  0
  1 21  1  0
  2  8  1  0
  3 22  2  0
  4  5  1  0
  4  8  1  0
  4  9  1  0
  4 15  1  0
  5  6  1  0
  5 10  1  0
  6  7  1  0
  6 14  1  0
  7 11  1  0
  7 13  1  0
  8 12  1  0
  8 18  1  0
  9 11  1  0
 10 12  1  0
 13 17  1  0
 13 19  1  0
 14 16  1  0
 16 17  1  0
 17 21  2  0
 19 20  1  0
 20 22  1  0
 21 22  1  0
M  END
>  <PUBCHEM_COMPOUND_CID>  (1) 
18896

>  <PUBCHEM_CONFORMER_RMSD>  (1) 
0.6

>  <PUBCHEM_CONFORMER_DIVERSEORDER>  (1) 
1
57
35
38
59
24
45
58
19
22
48
30
31
14
28
47
13
34
32
44
42
37
7
52
53
16
9
56
50
10
26
51
29
12
43
49
23
39
33
25
2
3
6
55
27
5
17
40
15
46
11
4
36
54
21
20
18
41
8

>  <PUBCHEM_MMFF94_PARTIAL_CHARGES>  (1) 
11
1 -0.14
13 0.14
16 0.14
17 -0.28
2 -0.68
20 0.06
21 0.15
22 0.49
3 -0.57
47 0.4
8 0.28

>  <PUBCHEM_EFFECTIVE_ROTOR_COUNT>  (1) 
1.8

>  <PUBCHEM_PHARMACOPHORE_FEATURES>  (1) 
7
1 2 acceptor
1 2 donor
1 3 acceptor
5 4 5 8 10 12 rings
6 13 17 19 20 21 22 rings
6 4 5 6 7 9 11 rings
6 6 7 13 14 16 17 rings

>  <PUBCHEM_HEAVY_ATOM_COUNT>  (1) 
22

>  <PUBCHEM_ATOM_DEF_STEREO_COUNT>  (1) 
1

>  <PUBCHEM_ATOM_UDEF_STEREO_COUNT>  (1) 
5

>  <PUBCHEM_BOND_DEF_STEREO_COUNT>  (1) 
0

>  <PUBCHEM_BOND_UDEF_STEREO_COUNT>  (1) 
0

>  <PUBCHEM_ISOTOPIC_ATOM_COUNT>  (1) 
0

>  <PUBCHEM_COMPONENT_COUNT>  (1) 
1

>  <PUBCHEM_CACTVS_TAUTO_COUNT>  (1) 
8

>  <PUBCHEM_CONFORMER_ID>  (1) 
000049D000000001

>  <PUBCHEM_MMFF94_ENERGY>  (1) 
67.6633

>  <PUBCHEM_FEATURE_SELFOVERLAP>  (1) 
35.725

>  <PUBCHEM_SHAPE_FINGERPRINT>  (1) 
10498660 4 18334007315482160012
11471102 20 18407759231611662322
11796584 16 15841558491505921590
12236239 1 18130790058010084627
12553582 1 18271233997782192489
12670546 177 18272368685271107894
12788726 201 17774729670725977736
128620 24 18410570712391659340
13221675 6 18411698764093143066
13224815 77 18333166158953393304
13583140 156 16153985854425889392
14739800 52 13190633792918319734
14790565 3 18340492166755081225
15196674 1 18409448063801505065
15536298 74 18341890805548131624
15848702 151 17988369161106944454
16752209 62 17489014969216254553
16945 1 18334569122910938467
17349148 13 18335410301067204264
18186145 218 18040709277453366550
19862831 5 18272928349289658785
200 152 18343862216753479633
20612939 158 18408043988043737278
20645477 70 18335137570860530106
21033648 29 17676196992021672764
21267235 1 18412270523019317563
21634736 98 18200025278387044332
221357 26 18411417297796122284
22393880 68 18260823744190879727
231179 274 17385997386618554402
23402539 116 18411979178677187772
23402655 69 18411416189668160012
23493267 7 17312819411374736241
23557571 272 16226051055009043383
23559900 14 18269834375895201648
25 1 18187358848568938882
2748010 2 17617099548331468152
2871803 45 18334853896612403616
296302 2 17095238107879275091
3004659 81 18261675883816218030
312423 11 18341620278231977568
34797466 226 16415197927306436688
3545911 37 18335423508049473626
4028521 119 18334289877096081197
4280585 95 17408251266069672702
474 4 18114463456656249852
5104073 3 18410293592554050841
542803 24 17240199941082889068
633830 44 18186796967735118630
9709674 26 18409450314559728914
9981440 41 17263546103694290352

>  <PUBCHEM_SHAPE_MULTIPOLES>  (1) 
442.88
10.52
2.14
1.18
2.22
0.05
-0.02
0.14
2.53
1.49
-0.04
-0.94
0.12
-0.5

>  <PUBCHEM_SHAPE_SELFOVERLAP>  (1) 
940.977

>  <PUBCHEM_SHAPE_VOLUME>  (1) 
247.1

>  <PUBCHEM_COORDINATE_TYPE>  (1) 
2
5
10

$$$$
