18904
     RDKit          3D

 25 27  0  0  0  0  0  0  0  0999 V2000
   -5.1084   -1.1149    0.0994 N   0  0  0  0  0  0  0  0  0  0  0  0
   -1.3717    2.0536   -0.6162 N   0  0  0  0  0  0  0  0  0  0  0  0
    4.0585   -1.4115   -0.6214 N   0  0  0  0  0  0  0  0  0  0  0  0
   -4.7052    0.1733   -0.6036 C   0  0  0  0  0  0  0  0  0  0  0  0
   -3.2461    0.5035   -0.3209 C   0  0  0  0  0  0  0  0  0  0  0  0
   -6.5650   -1.4279   -0.2114 C   0  0  0  0  0  0  0  0  0  0  0  0
   -4.2286   -2.2562   -0.3896 C   0  0  0  0  0  0  0  0  0  0  0  0
   -4.9349   -0.9486    1.6022 C   0  0  0  0  0  0  0  0  0  0  0  0
   -2.7915    1.8133   -0.9584 C   0  0  0  0  0  0  0  0  0  0  0  0
    3.2874    1.6351    1.2385 C   0  0  0  0  0  0  0  0  0  0  0  0
    2.6583    2.7338    0.3580 C   0  0  0  0  0  0  0  0  0  0  0  0
    3.3470    0.2932    0.5662 C   0  0  0  0  0  0  0  0  0  0  0  0
    1.2279    2.4936    0.0114 C   0  0  0  0  0  0  0  0  0  0  0  0
    2.3466   -0.6965    0.6178 C   0  0  0  0  0  0  0  0  0  0  0  0
   -0.4399    1.5716   -1.4345 C   0  0  0  0  0  0  0  0  0  0  0  0
   -1.1026    2.7389    0.4921 C   0  0  0  0  0  0  0  0  0  0  0  0
    2.8183   -1.7690   -0.1422 C   0  0  0  0  0  0  0  0  0  0  0  0
    4.3861   -0.1536   -0.1915 C   0  0  0  0  0  0  0  0  0  0  0  0
    0.8994    1.7817   -1.1383 C   0  0  0  0  0  0  0  0  0  0  0  0
    0.2194    2.9792    0.8384 C   0  0  0  0  0  0  0  0  0  0  0  0
    1.0820   -0.8034    1.2297 C   0  0  0  0  0  0  0  0  0  0  0  0
    2.0856   -2.9477   -0.3216 C   0  0  0  0  0  0  0  0  0  0  0  0
    4.9056   -2.2340   -1.4583 C   0  0  0  0  0  0  0  0  0  0  0  0
    0.3378   -1.9764    1.0592 C   0  0  0  0  0  0  0  0  0  0  0  0
    0.8338   -3.0309    0.2950 C   0  0  0  0  0  0  0  0  0  0  0  0
  1  4  1  0
  1  6  1  0
  1  7  1  0
  1  8  1  0
  2  9  1  0
  2 15  2  0
  2 16  1  0
  3 17  1  0
  3 18  1  0
  3 23  1  0
  4  5  1  0
  5  9  1  0
 10 11  1  0
 10 12  1  0
 11 13  1  0
 12 14  1  0
 12 18  2  0
 13 19  2  0
 13 20  1  0
 14 17  2  0
 14 21  1  0
 15 19  1  0
 16 20  2  0
 17 22  1  0
 21 24  2  0
 22 25  2  0
 24 25  1  0
M  CHG  2   1   1   2   1
M  END
>  <PUBCHEM_COMPOUND_CID>  (1) 
18904

>  <PUBCHEM_CONFORMER_RMSD>  (1) 
0.8

>  <PUBCHEM_CONFORMER_DIVERSEORDER>  (1) 
1
62
11
43
77
38
36
12
28
61
71
48
46
67
50
13
31
41
47
22
53
72
18
2
74
56
60
42
4
57
20
6
27
23
37
66
63
44
5
73
24
65
64
39
9
49
52
10
76
30
82
17
68
32
35
33
40
59
45
19
29
54
80
69
14
51
34
81
16
26
21
7
79
75
3
58
15
8
70
78
25
55

>  <PUBCHEM_MMFF94_PARTIAL_CHARGES>  (1) 
32
1 -1.01
10 0.18
11 0.14
12 -0.18
13 -0.14
15 0.21
16 0.21
17 -0.15
18 -0.3
19 -0.15
2 -0.21
20 -0.15
21 -0.15
22 -0.15
23 0.26
24 -0.15
25 -0.15
3 0.05
4 0.5
45 0.15
46 0.15
47 0.15
48 0.15
49 0.15
50 0.15
51 0.15
55 0.15
56 0.15
6 0.5
7 0.5
8 0.5
9 0.49

>  <PUBCHEM_EFFECTIVE_ROTOR_COUNT>  (1) 
7

>  <PUBCHEM_PHARMACOPHORE_FEATURES>  (1) 
5
1 1 cation
1 3 cation
5 3 12 14 17 18 rings
6 14 17 21 22 24 25 rings
6 2 13 15 16 19 20 rings

>  <PUBCHEM_HEAVY_ATOM_COUNT>  (1) 
25

>  <PUBCHEM_ATOM_DEF_STEREO_COUNT>  (1) 
0

>  <PUBCHEM_ATOM_UDEF_STEREO_COUNT>  (1) 
0

>  <PUBCHEM_BOND_DEF_STEREO_COUNT>  (1) 
0

>  <PUBCHEM_BOND_UDEF_STEREO_COUNT>  (1) 
0

>  <PUBCHEM_ISOTOPIC_ATOM_COUNT>  (1) 
0

>  <PUBCHEM_COMPONENT_COUNT>  (1) 
1

>  <PUBCHEM_CACTVS_TAUTO_COUNT>  (1) 
1

>  <PUBCHEM_CONFORMER_ID>  (1) 
000049D800000001

>  <PUBCHEM_MMFF94_ENERGY>  (1) 
64.4092

>  <PUBCHEM_FEATURE_SELFOVERLAP>  (1) 
25.464

>  <PUBCHEM_SHAPE_FINGERPRINT>  (1) 
10076449 9 18271539624209464910
108634 29 18187086186754460642
10864689 126 18261109643760183635
10981352 41 17317069132319447491
114674 6 18334851757734605859
11513181 2 17984145030590896702
11621639 254 17681597750999954908
11961588 58 17168439246056308076
12035758 1 18197755839828418952
12422481 6 18048289401026015176
12596602 18 17274822527871641201
12778500 126 17703803483407415897
13402501 40 18260826050994629539
13464513 79 18334010609780026840
13533116 47 18271804696673974921
13911882 115 18409728508081289800
13989917 61 18194123156390254259
14251764 30 18129951065607577110
14787075 74 18261117361224836894
14863182 85 18263363749232438860
17357779 13 18187378613733927529
17492 54 17386591136077959212
17909252 39 18342463603835604498
20028762 73 18343578577097986430
21197605 99 17904481058335882875
21673915 165 18338228388182356425
221357 26 18410575067699942319
23379529 103 17623856721304679006
23559900 14 18337660936945622621
25269216 80 15792022190868004803
3117164 225 18128546972807155129
338550 245 18189612929194693021
3737641 26 18197226853585330103
46194498 28 17749667515016369533
463206 1 18265049331334513067
484989 97 18262532471856517862
508706 21 17821728360518334155
513532 50 17844260720598433356
5309563 4 18412825759554171765
6287921 2 18341897415423945071
6443956 14 18409447011814514581
6823239 73 18338508651645818073

>  <PUBCHEM_SHAPE_MULTIPOLES>  (1) 
499.55
11.13
4.18
1.28
15.23
0.44
-0.03
-7.38
0.98
-1.71
0.03
-0.11
0.05
1.48

>  <PUBCHEM_SHAPE_SELFOVERLAP>  (1) 
1054.246

>  <PUBCHEM_SHAPE_VOLUME>  (1) 
285

>  <PUBCHEM_COORDINATE_TYPE>  (1) 
2
5
10

$$$$
