18907
     RDKit          3D

 12 12  0  0  0  0  0  0  0  0999 V2000
    1.1601    0.0002    0.1698 O   0  0  0  0  0  0  0  0  0  0  0  0
    2.9333   -0.0175   -1.2907 O   0  0  0  0  0  0  0  0  0  0  0  0
    4.6381    0.0138    0.8157 O   0  0  0  0  0  0  0  0  0  0  0  0
    3.2491    0.0121    0.9945 N   0  0  0  0  0  0  0  0  0  0  0  0
   -1.1451   -0.0049   -0.4155 C   0  0  0  0  0  0  0  0  0  0  0  0
    0.2556   -0.0116   -0.9278 C   0  0  0  0  0  0  0  0  0  0  0  0
   -1.8007   -1.2097   -0.1620 C   0  0  0  0  0  0  0  0  0  0  0  0
   -1.7994    1.2062   -0.1895 C   0  0  0  0  0  0  0  0  0  0  0  0
   -3.1106   -1.2037    0.3174 C   0  0  0  0  0  0  0  0  0  0  0  0
   -3.1094    1.2122    0.2900 C   0  0  0  0  0  0  0  0  0  0  0  0
   -3.7649    0.0072    0.5434 C   0  0  0  0  0  0  0  0  0  0  0  0
    2.4939   -0.0043   -0.1452 C   0  0  0  0  0  0  0  0  0  0  0  0
  1  6  1  0
  1 12  1  0
  2 12  2  0
  3  4  1  0
  4 12  1  0
  5  6  1  0
  5  7  2  0
  5  8  1  0
  7  9  1  0
  8 10  2  0
  9 11  2  0
 10 11  1  0
M  END
>  <PUBCHEM_COMPOUND_CID>  (1) 
18907

>  <PUBCHEM_CONFORMER_RMSD>  (1) 
0.6

>  <PUBCHEM_CONFORMER_DIVERSEORDER>  (1) 
1
5
2
6
3
4

>  <PUBCHEM_MMFF94_PARTIAL_CHARGES>  (1) 
19
1 -0.43
10 -0.15
11 -0.15
12 0.78
15 0.15
16 0.15
17 0.15
18 0.15
19 0.15
2 -0.57
20 0.37
21 0.4
3 -0.44
4 -0.39
5 -0.14
6 0.42
7 -0.15
8 -0.15
9 -0.15

>  <PUBCHEM_EFFECTIVE_ROTOR_COUNT>  (1) 
4

>  <PUBCHEM_PHARMACOPHORE_FEATURES>  (1) 
3
1 2 acceptor
1 4 donor
6 5 7 8 9 10 11 rings

>  <PUBCHEM_HEAVY_ATOM_COUNT>  (1) 
12

>  <PUBCHEM_ATOM_DEF_STEREO_COUNT>  (1) 
0

>  <PUBCHEM_ATOM_UDEF_STEREO_COUNT>  (1) 
0

>  <PUBCHEM_BOND_DEF_STEREO_COUNT>  (1) 
0

>  <PUBCHEM_BOND_UDEF_STEREO_COUNT>  (1) 
0

>  <PUBCHEM_ISOTOPIC_ATOM_COUNT>  (1) 
0

>  <PUBCHEM_COMPONENT_COUNT>  (1) 
1

>  <PUBCHEM_CACTVS_TAUTO_COUNT>  (1) 
3

>  <PUBCHEM_CONFORMER_ID>  (1) 
000049DB00000001

>  <PUBCHEM_MMFF94_ENERGY>  (1) 
24.521

>  <PUBCHEM_FEATURE_SELFOVERLAP>  (1) 
15.223

>  <PUBCHEM_SHAPE_FINGERPRINT>  (1) 
11132069 177 18341899584498201365
12251169 10 18408602569398136125
13024252 1 14490190506053380485
14144814 61 18186805781097648397
15219456 202 17774729670746966047
18186145 218 15482677879051613948
190213 19 18040154006743091510
19422 9 17603591836892590666
200 152 16009024003704717843
20279233 1 17846781801639182414
20645464 45 17917712405064793743
20645477 70 15140952967921334658
20715346 28 17704078395072678660
21119208 17 10519985971685432360
21650355 55 18337390543337080009
22485316 2 15502375646847852721
23402539 116 18343011208471712159
23403322 49 12829478225811617088
3248919 1 18407760339233313494
42 15 18335980883478431122
449060 50 17060057085880823248

>  <PUBCHEM_SHAPE_MULTIPOLES>  (1) 
224.37
7.66
1.12
0.95
6.5
0
-0.08
0.02
2.28
-1.26
0.02
0.65
0
0.01

>  <PUBCHEM_SHAPE_SELFOVERLAP>  (1) 
459.061

>  <PUBCHEM_SHAPE_VOLUME>  (1) 
129.2

>  <PUBCHEM_COORDINATE_TYPE>  (1) 
2
5
10

$$$$
