1890
     RDKit          3D

 18 20  0  0  1  0  0  0  0  0999 V2000
   -0.0018   -0.7322   -0.1084 O   0  0  0  0  0  0  0  0  0  0  0  0
    1.3480    3.1383   -0.2748 O   0  0  0  0  0  0  0  0  0  0  0  0
    4.4227   -2.4055    0.2235 O   0  0  0  0  0  0  0  0  0  0  0  0
   -0.8246    0.3522    0.3494 C   0  0  0  0  0  0  0  0  0  0  0  0
   -0.5167    1.6358   -0.4192 C   0  0  0  0  0  0  0  0  0  0  0  0
   -2.2762   -0.0466    0.1870 C   0  0  0  0  0  0  0  0  0  0  0  0
    1.8593    0.8431   -0.0625 C   0  0  0  0  0  0  0  0  0  0  0  0
    0.9368    1.9849   -0.2316 C   0  0  0  0  0  0  0  0  0  0  0  0
    1.3386   -0.4540   -0.0329 C   0  0  0  0  0  0  0  0  0  0  0  0
    3.2379    1.0523    0.0232 C   0  0  0  0  0  0  0  0  0  0  0  0
    2.2028   -1.5467    0.0488 C   0  0  0  0  0  0  0  0  0  0  0  0
   -3.2328    0.4223    1.0871 C   0  0  0  0  0  0  0  0  0  0  0  0
   -2.6561   -0.8829   -0.8624 C   0  0  0  0  0  0  0  0  0  0  0  0
    3.5800   -1.3400    0.1331 C   0  0  0  0  0  0  0  0  0  0  0  0
    4.0957   -0.0435    0.1253 C   0  0  0  0  0  0  0  0  0  0  0  0
   -4.5701    0.0547    0.9378 C   0  0  0  0  0  0  0  0  0  0  0  0
   -3.9933   -1.2504   -1.0118 C   0  0  0  0  0  0  0  0  0  0  0  0
   -4.9502   -0.7817   -0.1117 C   0  0  0  0  0  0  0  0  0  0  0  0
  1  4  1  0
  1  9  1  0
  2  8  2  0
  3 14  1  0
  4  5  1  0
  4  6  1  0
  5  8  1  0
  6 12  2  0
  6 13  1  0
  7  8  1  0
  7  9  2  0
  7 10  1  0
  9 11  1  0
 10 15  2  0
 11 14  2  0
 12 16  1  0
 13 17  2  0
 14 15  1  0
 16 18  2  0
 17 18  1  0
M  END
>  <PUBCHEM_COMPOUND_CID>  (1) 
1890

>  <PUBCHEM_CONFORMER_RMSD>  (1) 
0.6

>  <PUBCHEM_CONFORMER_DIVERSEORDER>  (1) 
1
3
5
2
4

>  <PUBCHEM_MMFF94_PARTIAL_CHARGES>  (1) 
27
1 -0.36
10 -0.15
11 -0.15
12 -0.15
13 -0.15
14 0.08
15 -0.15
16 -0.15
17 -0.15
18 -0.15
2 -0.57
22 0.15
23 0.15
24 0.15
25 0.15
26 0.15
27 0.15
28 0.15
29 0.15
3 -0.53
30 0.45
4 0.42
5 0.06
6 -0.14
7 0.09
8 0.42
9 0.08

>  <PUBCHEM_EFFECTIVE_ROTOR_COUNT>  (1) 
1.6

>  <PUBCHEM_PHARMACOPHORE_FEATURES>  (1) 
6
1 1 acceptor
1 2 acceptor
1 3 donor
6 1 4 5 7 8 9 rings
6 6 12 13 16 17 18 rings
6 7 9 10 11 14 15 rings

>  <PUBCHEM_HEAVY_ATOM_COUNT>  (1) 
18

>  <PUBCHEM_ATOM_DEF_STEREO_COUNT>  (1) 
0

>  <PUBCHEM_ATOM_UDEF_STEREO_COUNT>  (1) 
1

>  <PUBCHEM_BOND_DEF_STEREO_COUNT>  (1) 
0

>  <PUBCHEM_BOND_UDEF_STEREO_COUNT>  (1) 
0

>  <PUBCHEM_ISOTOPIC_ATOM_COUNT>  (1) 
0

>  <PUBCHEM_COMPONENT_COUNT>  (1) 
1

>  <PUBCHEM_CACTVS_TAUTO_COUNT>  (1) 
9

>  <PUBCHEM_CONFORMER_ID>  (1) 
0000076200000001

>  <PUBCHEM_MMFF94_ENERGY>  (1) 
51.2179

>  <PUBCHEM_FEATURE_SELFOVERLAP>  (1) 
30.476

>  <PUBCHEM_SHAPE_FINGERPRINT>  (1) 
10062212 137 18060137674176550303
10616163 171 18057887042346628327
11471102 20 18335420209356477684
11578080 2 17916277542544384993
11806522 49 18410854394981547146
12032990 46 18335703793504820584
12107183 9 17768824065087522523
12236239 1 18130790079590513411
12251169 10 18272092703599675493
12553582 1 18336259038102913842
12670546 56 17918270978589166729
13134695 92 18335701662906097708
13140716 1 18049158071136268176
13167823 11 18273215313535559391
13533116 47 18268711783096962795
13544653 18 18260832570459436094
13760787 5 18333455347712460102
13862211 1 18408318870319780994
14251717 144 18409445924965826926
14576447 43 18270112555824660494
14790565 3 17976264865526197268
15042514 8 17905326230552861680
15196674 1 18410292475904893768
15375462 189 18412827988320328177
15442244 35 18412830166106390321
15536298 74 18272651285313030392
15848700 24 18407758127736482380
15848702 151 18412827971414934407
16945 1 18335986479456957204
17357779 13 17967800657326399213
17492 89 18268147741827008375
1813 80 18338530646252410534
18186145 218 17385720318447055665
18222031 100 18341041956538148438
19422 9 18272652402500406071
200 152 18271801346246108175
20281475 54 18411980269113350335
20645477 70 18187641470222601273
21267235 1 18411990143412326102
21641784 216 17822872887545866332
221490 88 18118408568785661787
2255824 54 18267026231180952908
22646028 1 18201999941209572491
22646028 28 18343863333708779167
23175994 123 17603872200058366853
23184049 59 18342459239837322678
23402539 116 18339074891676297018
23559900 14 18339074998870891291
2748010 2 18265319626231913940
2871803 45 18113897126553069090
474 4 18122341547437199041
5104073 3 18201442497499352971
5281201 14 17530963592183064445
573450 72 17704072893726143371
602551 16 15482100699871554567
7064713 232 17632577106816585987
7364860 26 18268428104311776080
76465 3 18190452780064230618
77492 1 18060144292657765333
7970288 3 18336260128951384314
83771 10 18410573959455552376
84936 182 17769939300538568497
9709674 26 18262803003013997819
9971528 1 18411415124721959992
9981440 41 17331951132968614113

>  <PUBCHEM_SHAPE_MULTIPOLES>  (1) 
352.82
9.42
2.21
0.86
4.35
0.86
-0.02
-4.47
-0.82
-2.28
0.28
0.79
-0.03
-0.81

>  <PUBCHEM_SHAPE_SELFOVERLAP>  (1) 
780.221

>  <PUBCHEM_SHAPE_VOLUME>  (1) 
188.2

>  <PUBCHEM_COORDINATE_TYPE>  (1) 
2
5
10

$$$$
