18913
     RDKit          3D

 11 12  0  0  1  0  0  0  0  0999 V2000
   -0.0037   -1.7899   -0.0008 N   0  0  0  0  0  0  0  0  0  0  0  0
    1.5005    0.7003    0.0003 N   0  0  0  0  0  0  0  0  0  0  0  0
    0.0330   -0.9407    1.1975 C   0  0  0  0  0  0  0  0  0  0  0  0
    0.0326   -0.9396   -1.1984 C   0  0  0  0  0  0  0  0  0  0  0  0
   -1.5304    0.7241    0.0005 C   0  0  0  0  0  0  0  0  0  0  0  0
   -1.2583   -0.1045    1.2660 C   0  0  0  0  0  0  0  0  0  0  0  0
   -1.2590   -0.1040   -1.2657 C   0  0  0  0  0  0  0  0  0  0  0  0
    1.3313   -0.1083    1.2128 C   0  0  0  0  0  0  0  0  0  0  0  0
    1.3305   -0.1065   -1.2133 C   0  0  0  0  0  0  0  0  0  0  0  0
   -2.9584    1.2698    0.0006 C   0  0  0  0  0  0  0  0  0  0  0  0
    2.7819    1.3992    0.0004 C   0  0  0  0  0  0  0  0  0  0  0  0
  1  3  1  0
  1  4  1  0
  2  8  1  0
  2  9  1  0
  2 11  1  0
  3  6  1  0
  3  8  1  0
  4  7  1  0
  4  9  1  0
  5  6  1  0
  5  7  1  0
  5 10  1  0
M  END
>  <PUBCHEM_COMPOUND_CID>  (1) 
18913

>  <PUBCHEM_CONFORMER_RMSD>  (1) 
0.4

>  <PUBCHEM_CONFORMER_DIVERSEORDER>  (1) 
1
3
2

>  <PUBCHEM_MMFF94_PARTIAL_CHARGES>  (1) 
8
1 -0.9
11 0.27
19 0.36
2 -0.81
3 0.27
4 0.27
8 0.27
9 0.27

>  <PUBCHEM_EFFECTIVE_ROTOR_COUNT>  (1) 
1.4

>  <PUBCHEM_PHARMACOPHORE_FEATURES>  (1) 
5
1 1 cation
1 1 donor
1 2 cation
6 1 2 3 4 8 9 rings
6 1 3 4 5 6 7 rings

>  <PUBCHEM_HEAVY_ATOM_COUNT>  (1) 
11

>  <PUBCHEM_ATOM_DEF_STEREO_COUNT>  (1) 
0

>  <PUBCHEM_ATOM_UDEF_STEREO_COUNT>  (1) 
2

>  <PUBCHEM_BOND_DEF_STEREO_COUNT>  (1) 
0

>  <PUBCHEM_BOND_UDEF_STEREO_COUNT>  (1) 
0

>  <PUBCHEM_ISOTOPIC_ATOM_COUNT>  (1) 
0

>  <PUBCHEM_COMPONENT_COUNT>  (1) 
1

>  <PUBCHEM_CACTVS_TAUTO_COUNT>  (1) 
1

>  <PUBCHEM_CONFORMER_ID>  (1) 
000049E100000001

>  <PUBCHEM_MMFF94_ENERGY>  (1) 
17.1912

>  <PUBCHEM_FEATURE_SELFOVERLAP>  (1) 
26.934

>  <PUBCHEM_SHAPE_FINGERPRINT>  (1) 
12423570 1 14901757309748585171
12897270 3 15841547496173566533
13024252 1 17170661461586450000
137420 1 10964188304171756890
13839132 238 18187664486752023397
14128692 85 15337721426888296527
14817 1 11054278730713370402
15557651 10 18409721867940563093
15775835 57 18410848867359124397
16945 1 18194682557787013671
18185500 45 15335768664288697999
19837323 101 18199748214072662732
20653085 51 18201725106146975380
21922407 69 18190716714114487543
23211744 25 15841555154137022803
369184 2 17971465454140933360
430814 3 18410001139604169713
5084963 1 18060419096964631479

>  <PUBCHEM_SHAPE_MULTIPOLES>  (1) 
216.41
3.19
1.46
1.43
0.3
0
-0.09
0
2.23
-0.02
-0.33
-0.12
0
0

>  <PUBCHEM_SHAPE_SELFOVERLAP>  (1) 
435.218

>  <PUBCHEM_SHAPE_VOLUME>  (1) 
122.8

>  <PUBCHEM_COORDINATE_TYPE>  (1) 
2
5
10

$$$$
