18911
     RDKit          3D

 10 11  0  0  1  0  0  0  0  0999 V2000
    0.6866    1.0480    0.0017 N   0  0  0  0  0  0  0  0  0  0  0  0
   -2.0049    0.0330    0.0003 N   0  0  0  0  0  0  0  0  0  0  0  0
    0.1785    0.3655    1.2021 C   0  0  0  0  0  0  0  0  0  0  0  0
    0.1780    0.3696   -1.2009 C   0  0  0  0  0  0  0  0  0  0  0  0
    0.6162   -1.1129    1.2680 C   0  0  0  0  0  0  0  0  0  0  0  0
    0.6152   -1.1086   -1.2718 C   0  0  0  0  0  0  0  0  0  0  0  0
    0.3130   -1.9058   -0.0033 C   0  0  0  0  0  0  0  0  0  0  0  0
   -1.3572    0.5348    1.2127 C   0  0  0  0  0  0  0  0  0  0  0  0
   -1.3574    0.5393   -1.2104 C   0  0  0  0  0  0  0  0  0  0  0  0
    2.1320    1.2371    0.0016 C   0  0  0  0  0  0  0  0  0  0  0  0
  1  3  1  0
  1  4  1  0
  1 10  1  0
  2  8  1  0
  2  9  1  0
  3  5  1  0
  3  8  1  0
  4  6  1  0
  4  9  1  0
  5  7  1  0
  6  7  1  0
M  END
>  <PUBCHEM_COMPOUND_CID>  (1) 
18911

>  <PUBCHEM_CONFORMER_RMSD>  (1) 
0.4

>  <PUBCHEM_CONFORMER_DIVERSEORDER>  (1) 
1
2

>  <PUBCHEM_MMFF94_PARTIAL_CHARGES>  (1) 
8
1 -0.81
10 0.27
2 -0.9
23 0.36
3 0.27
4 0.27
8 0.27
9 0.27

>  <PUBCHEM_EFFECTIVE_ROTOR_COUNT>  (1) 
1.4

>  <PUBCHEM_PHARMACOPHORE_FEATURES>  (1) 
5
1 1 cation
1 2 cation
1 2 donor
6 1 2 3 4 8 9 rings
6 1 3 4 5 6 7 rings

>  <PUBCHEM_HEAVY_ATOM_COUNT>  (1) 
10

>  <PUBCHEM_ATOM_DEF_STEREO_COUNT>  (1) 
0

>  <PUBCHEM_ATOM_UDEF_STEREO_COUNT>  (1) 
2

>  <PUBCHEM_BOND_DEF_STEREO_COUNT>  (1) 
0

>  <PUBCHEM_BOND_UDEF_STEREO_COUNT>  (1) 
0

>  <PUBCHEM_ISOTOPIC_ATOM_COUNT>  (1) 
0

>  <PUBCHEM_COMPONENT_COUNT>  (1) 
1

>  <PUBCHEM_CACTVS_TAUTO_COUNT>  (1) 
1

>  <PUBCHEM_CONFORMER_ID>  (1) 
000049DF00000001

>  <PUBCHEM_MMFF94_ENERGY>  (1) 
19.2657

>  <PUBCHEM_FEATURE_SELFOVERLAP>  (1) 
26.97

>  <PUBCHEM_SHAPE_FINGERPRINT>  (1) 
10702982 57 18046039791434289598
12423570 1 14825216989724318856
13024252 1 15504317483425495060
137420 1 9505014392799273230
16945 1 17906452486562181670
20653085 51 16341768142562099200
21922407 69 18272367529977568099
29004967 10 17616210764398932155
5084963 1 18264203784700433596
68250623 7 17316161862277364963

>  <PUBCHEM_SHAPE_MULTIPOLES>  (1) 
195.83
1.92
1.58
1.55
0.27
0.54
0
-0.7
0
-0.68
0
0.17
0.09
0

>  <PUBCHEM_SHAPE_SELFOVERLAP>  (1) 
395.833

>  <PUBCHEM_SHAPE_VOLUME>  (1) 
112.1

>  <PUBCHEM_COORDINATE_TYPE>  (1) 
2
5
10

$$$$
