18917
     RDKit          3D

 14 14  0  0  0  0  0  0  0  0999 V2000
    4.5362    0.3170    0.0057 F   0  0  0  0  0  0  0  0  0  0  0  0
    2.5391   -1.4081   -0.0019 O   0  0  0  0  0  0  0  0  0  0  0  0
   -2.6405    2.3363    0.0012 O   0  0  0  0  0  0  0  0  0  0  0  0
   -0.4460    2.3910    0.0002 O   0  0  0  0  0  0  0  0  0  0  0  0
    0.9408    0.3235   -0.0012 N   0  0  0  0  0  0  0  0  0  0  0  0
   -1.5281    1.7591    0.0001 N   0  0  0  0  0  0  0  0  0  0  0  0
   -0.2815   -0.3556   -0.0003 C   0  0  0  0  0  0  0  0  0  0  0  0
   -1.4928    0.3363   -0.0008 C   0  0  0  0  0  0  0  0  0  0  0  0
   -0.2752   -1.7506    0.0007 C   0  0  0  0  0  0  0  0  0  0  0  0
   -2.6975   -0.3669   -0.0003 C   0  0  0  0  0  0  0  0  0  0  0  0
   -1.4800   -2.4535    0.0012 C   0  0  0  0  0  0  0  0  0  0  0  0
   -2.6912   -1.7617    0.0007 C   0  0  0  0  0  0  0  0  0  0  0  0
    2.2299   -0.2212   -0.0021 C   0  0  0  0  0  0  0  0  0  0  0  0
    3.2868    0.8544   -0.0031 C   0  0  0  0  0  0  0  0  0  0  0  0
  1 14  1  0
  2 13  2  0
  3  6  1  0
  4  6  2  0
  5  7  1  0
  5 13  1  0
  6  8  1  0
  7  8  2  0
  7  9  1  0
  8 10  1  0
  9 11  2  0
 10 12  2  0
 11 12  1  0
 13 14  1  0
M  CHG  2   3  -1   6   1
M  END
>  <PUBCHEM_COMPOUND_CID>  (1) 
18917

>  <PUBCHEM_CONFORMER_RMSD>  (1) 
0.6

>  <PUBCHEM_CONFORMER_DIVERSEORDER>  (1) 
1
3
4
2

>  <PUBCHEM_MMFF94_PARTIAL_CHARGES>  (1) 
19
1 -0.34
10 -0.15
11 -0.15
12 -0.15
13 0.57
14 0.4
15 0.15
16 0.37
17 0.15
18 0.15
19 0.15
2 -0.57
3 -0.52
4 -0.52
5 -0.55
6 0.91
7 0.12
8 0.13
9 -0.15

>  <PUBCHEM_EFFECTIVE_ROTOR_COUNT>  (1) 
4

>  <PUBCHEM_PHARMACOPHORE_FEATURES>  (1) 
6
1 2 acceptor
1 3 acceptor
1 3 anion
1 4 acceptor
1 5 donor
6 7 8 9 10 11 12 rings

>  <PUBCHEM_HEAVY_ATOM_COUNT>  (1) 
14

>  <PUBCHEM_ATOM_DEF_STEREO_COUNT>  (1) 
0

>  <PUBCHEM_ATOM_UDEF_STEREO_COUNT>  (1) 
0

>  <PUBCHEM_BOND_DEF_STEREO_COUNT>  (1) 
0

>  <PUBCHEM_BOND_UDEF_STEREO_COUNT>  (1) 
0

>  <PUBCHEM_ISOTOPIC_ATOM_COUNT>  (1) 
0

>  <PUBCHEM_COMPONENT_COUNT>  (1) 
1

>  <PUBCHEM_CACTVS_TAUTO_COUNT>  (1) 
2

>  <PUBCHEM_CONFORMER_ID>  (1) 
000049E500000001

>  <PUBCHEM_MMFF94_ENERGY>  (1) 
45.4591

>  <PUBCHEM_FEATURE_SELFOVERLAP>  (1) 
30.528

>  <PUBCHEM_SHAPE_FINGERPRINT>  (1) 
10608611 8 18342173384495039048
10967382 1 18194683670204590375
13024252 1 17676485090207192651
13380535 76 18123183498929885431
14325111 11 18338798918599866470
14614273 12 18114734941617937309
15442244 35 18264202509680936578
15669948 3 18411130359795123194
16945 1 18338516447127686471
193761 8 18050567340174329639
20510252 161 18343023267985602737
20711985 365 18410291372262004398
20871998 184 18272655683428321431
21029758 11 18196646513789043999
21501502 16 18338513041398072778
21524375 3 18053936256427904117
22802520 49 18057621883733896998
2306618 200 18201728353020698570
2334 1 18410856521022033163
23402539 116 18271517697810652983
23526114 1 16753531587566790111
23552423 10 17329431061102435439
23557571 272 18272664458399779100
23559900 14 18199749155609653334
23598294 1 18408315579773062762
2748010 2 18266469693798145455
3312278 4 18261391216750638530
6333449 129 18411697677476934052
7364860 26 17476078402844864947
81228 2 18336552697890715689

>  <PUBCHEM_SHAPE_MULTIPOLES>  (1) 
253.27
5.49
2.59
0.57
6.21
0.83
0
-0.16
0
-2.02
0
-0.04
-0.04
0

>  <PUBCHEM_SHAPE_SELFOVERLAP>  (1) 
529.455

>  <PUBCHEM_SHAPE_VOLUME>  (1) 
142.5

>  <PUBCHEM_COORDINATE_TYPE>  (1) 
2
5
10

$$$$
