18915
     RDKit          3D

 14 13  0  0  0  0  0  0  0  0999 V2000
   -4.6229   -0.3993    0.0199 O   0  0  0  0  0  0  0  0  0  0  0  0
   -3.4841    1.6065    0.0078 O   0  0  0  0  0  0  0  0  0  0  0  0
    6.7917    1.1614    0.0116 O   0  0  0  0  0  0  0  0  0  0  0  0
    1.5893    0.1085   -0.0650 C   0  0  0  0  0  0  0  0  0  0  0  0
    0.2581   -0.6499   -0.0398 C   0  0  0  0  0  0  0  0  0  0  0  0
    2.8532   -0.7565   -0.0155 C   0  0  0  0  0  0  0  0  0  0  0  0
   -0.9662    0.2712   -0.0294 C   0  0  0  0  0  0  0  0  0  0  0  0
    4.1494    0.0601    0.0128 C   0  0  0  0  0  0  0  0  0  0  0  0
   -2.2814   -0.5088   -0.0010 C   0  0  0  0  0  0  0  0  0  0  0  0
    5.3923   -0.8261    0.0507 C   0  0  0  0  0  0  0  0  0  0  0  0
   -3.5032    0.3834    0.0178 C   0  0  0  0  0  0  0  0  0  0  0  0
    6.6946   -0.0609    0.0075 C   0  0  0  0  0  0  0  0  0  0  0  0
   -5.8680    0.3062    0.0093 C   0  0  0  0  0  0  0  0  0  0  0  0
   -7.0027   -0.6957    0.0132 C   0  0  0  0  0  0  0  0  0  0  0  0
  1 11  1  0
  1 13  1  0
  2 11  2  0
  3 12  2  0
  4  5  1  0
  4  6  1  0
  5  7  1  0
  6  8  1  0
  7  9  1  0
  8 10  1  0
  9 11  1  0
 10 12  1  0
 13 14  1  0
M  END
>  <PUBCHEM_COMPOUND_CID>  (1) 
18915

>  <PUBCHEM_CONFORMER_RMSD>  (1) 
1

>  <PUBCHEM_CONFORMER_DIVERSEORDER>  (1) 
1
77
7
98
66
253
94
221
355
188
30
363
19
217
272
366
262
348
86
29
266
113
270
252
51
277
197
2
312
410
71
87
33
34
3
38
97
378
482
213
151
12
156
168
110
78
4
36
49
18
190
5
280
227
238
62
305
16
489
10
454
180
69
73
171
13
121
59
43
273
176
128
269
326
183
159
445
446
435
375
25
317
172
146
22
194
174
11
304
400

>  <PUBCHEM_MMFF94_PARTIAL_CHARGES>  (1) 
9
1 -0.43
10 0.06
11 0.66
12 0.45
13 0.28
2 -0.57
29 0.06
3 -0.57
9 0.06

>  <PUBCHEM_EFFECTIVE_ROTOR_COUNT>  (1) 
10

>  <PUBCHEM_PHARMACOPHORE_FEATURES>  (1) 
2
1 2 acceptor
1 3 acceptor

>  <PUBCHEM_HEAVY_ATOM_COUNT>  (1) 
14

>  <PUBCHEM_ATOM_DEF_STEREO_COUNT>  (1) 
0

>  <PUBCHEM_ATOM_UDEF_STEREO_COUNT>  (1) 
0

>  <PUBCHEM_BOND_DEF_STEREO_COUNT>  (1) 
0

>  <PUBCHEM_BOND_UDEF_STEREO_COUNT>  (1) 
0

>  <PUBCHEM_ISOTOPIC_ATOM_COUNT>  (1) 
0

>  <PUBCHEM_COMPONENT_COUNT>  (1) 
1

>  <PUBCHEM_CACTVS_TAUTO_COUNT>  (1) 
2

>  <PUBCHEM_CONFORMER_ID>  (1) 
000049E300000001

>  <PUBCHEM_MMFF94_ENERGY>  (1) 
4.0077

>  <PUBCHEM_FEATURE_SELFOVERLAP>  (1) 
10.149

>  <PUBCHEM_SHAPE_FINGERPRINT>  (1) 
10968037 39 18409448090251797327
11315181 36 15864079771324952029
12091667 2 16702019773676479755
13533116 47 17168417165692658890
13964095 4 10375876272899761427
14123238 8 18335138674287096102
14123256 10 18334294271079726987
1420 363 18343304760163463143
14251718 22 18412262826437702258
14251732 16 18410293622576564394
14251764 18 18410856568229737160
14251764 46 11674876697349077838
15716309 27 18343863311933340351
17834072 33 18202279217394954318
17834076 25 14979956969038996550
20281389 69 18335136484413132744
20645477 70 17845940602741738742
20767249 213 18412263943377086518
21130983 4 18342741823348066904
21315763 28 18409729539448057232
220451 1 15841548561583718062
22224240 67 17167860885406826850
22896161 15 18410855486135550295
23035841 295 10735877265995703788
23402539 116 18410006637979811079
23521765 1 18341894095129174286
28498 318 8574441923989181696
33684 2 18261109668964874267
3545911 37 17988924470292297510
42788 4 18410855447944847398
4463277 17 18411418401708173192
57583515 80 12468356851851934391
8209 1 18409448085497900606

>  <PUBCHEM_SHAPE_MULTIPOLES>  (1) 
270.51
20.43
1.03
0.6
4.21
0.2
0
0.51
0.29
-0.01
0
0.01
-0.02
-0.01

>  <PUBCHEM_SHAPE_SELFOVERLAP>  (1) 
495.596

>  <PUBCHEM_SHAPE_VOLUME>  (1) 
171

>  <PUBCHEM_COORDINATE_TYPE>  (1) 
2
5
10

$$$$
