18934
     RDKit          3D

 15 16  0  0  1  0  0  0  0  0999 V2000
    5.3209    0.7193   -0.8032 Cl  0  0  0  0  0  0  0  0  0  0  0  0
    0.8831    1.0479    0.2399 O   0  0  0  0  0  0  0  0  0  0  0  0
   -0.3339   -2.8023   -0.2644 O   0  0  0  0  0  0  0  0  0  0  0  0
    1.3127   -1.2991    0.3212 N   0  0  0  0  0  0  0  0  0  0  0  0
   -4.5748    0.0854   -0.3045 N   0  0  0  0  0  0  0  0  0  0  0  0
    1.6183    0.0003    0.8886 C   0  0  0  0  0  0  0  0  0  0  0  0
    3.0993    0.3168    0.7537 C   0  0  0  0  0  0  0  0  0  0  0  0
   -0.9397   -0.5404    0.0286 C   0  0  0  0  0  0  0  0  0  0  0  0
   -0.4526    0.7658    0.1245 C   0  0  0  0  0  0  0  0  0  0  0  0
    0.0180   -1.6634    0.0184 C   0  0  0  0  0  0  0  0  0  0  0  0
    3.5804    0.3697   -0.6921 C   0  0  0  0  0  0  0  0  0  0  0  0
   -2.3097   -0.7721   -0.1141 C   0  0  0  0  0  0  0  0  0  0  0  0
   -1.3319    1.8456    0.0521 C   0  0  0  0  0  0  0  0  0  0  0  0
   -3.1889    0.3105   -0.1639 C   0  0  0  0  0  0  0  0  0  0  0  0
   -2.7012    1.6160   -0.0849 C   0  0  0  0  0  0  0  0  0  0  0  0
  1 11  1  0
  2  6  1  0
  2  9  1  0
  3 10  2  0
  4  6  1  0
  4 10  1  0
  5 14  1  0
  6  7  1  0
  7 11  1  0
  8  9  2  0
  8 10  1  0
  8 12  1  0
  9 13  1  0
 12 14  2  0
 13 15  2  0
 14 15  1  0
M  END
>  <PUBCHEM_COMPOUND_CID>  (1) 
18934

>  <PUBCHEM_CONFORMER_RMSD>  (1) 
0.6

>  <PUBCHEM_CONFORMER_DIVERSEORDER>  (1) 
3
17
15
5
2
18
6
14
10
11
16
7
4
8
1
12
9
13

>  <PUBCHEM_MMFF94_PARTIAL_CHARGES>  (1) 
20
1 -0.29
10 0.54
11 0.29
12 -0.15
13 -0.15
14 0.1
15 -0.15
19 0.37
2 -0.36
22 0.15
23 0.15
24 0.15
25 0.4
26 0.4
3 -0.57
4 -0.73
5 -0.9
6 0.58
8 0.09
9 0.08

>  <PUBCHEM_EFFECTIVE_ROTOR_COUNT>  (1) 
2.6

>  <PUBCHEM_PHARMACOPHORE_FEATURES>  (1) 
7
1 2 acceptor
1 3 acceptor
1 4 donor
1 5 cation
1 5 donor
6 2 4 6 8 9 10 rings
6 8 9 12 13 14 15 rings

>  <PUBCHEM_HEAVY_ATOM_COUNT>  (1) 
15

>  <PUBCHEM_ATOM_DEF_STEREO_COUNT>  (1) 
0

>  <PUBCHEM_ATOM_UDEF_STEREO_COUNT>  (1) 
1

>  <PUBCHEM_BOND_DEF_STEREO_COUNT>  (1) 
0

>  <PUBCHEM_BOND_UDEF_STEREO_COUNT>  (1) 
0

>  <PUBCHEM_ISOTOPIC_ATOM_COUNT>  (1) 
0

>  <PUBCHEM_COMPONENT_COUNT>  (1) 
1

>  <PUBCHEM_CACTVS_TAUTO_COUNT>  (1) 
2

>  <PUBCHEM_CONFORMER_ID>  (1) 
000049F600000003

>  <PUBCHEM_MMFF94_ENERGY>  (1) 
48.6056

>  <PUBCHEM_FEATURE_SELFOVERLAP>  (1) 
35.553

>  <PUBCHEM_SHAPE_FINGERPRINT>  (1) 
10967382 1 18411974750381100811
12119455 92 13984657088114840072
12236239 1 17749106703782340748
13380535 21 18126288536920330809
13380535 76 18408880711812826947
14911166 2 18342739641346431428
14993402 34 18334574659250532724
15309172 13 18411703179561973755
15669948 3 18337102475538363546
15775835 57 18186240623926877196
16945 1 18339909494026538835
1813 80 17098317720449708834
18186145 218 17846211159526090648
193761 8 17690552413787228137
200 152 15339126723667080684
20510252 161 18201717336282352409
20645476 183 18040436633066689954
20645477 56 18339642343298809088
20871999 31 18267304420729208862
21501502 16 18123464986696409673
21524375 3 18334854987671357506
21637258 2 15267050454842428981
2334 1 17762328519704963795
23366157 5 17827360981729419474
23402539 116 18341889723253270636
23402655 69 18269540668941088565
23463225 33 18191013517761029586
23557571 272 17983290723499522696
23559900 14 17979905025991226962
2748010 2 18051124801137967077
296302 2 16732701636363477649
3071541 37 18337106748571977967
366044 4 18410293618408379586
43471831 8 18337665313443048019
458136 41 18197230164983717811
474 4 17024319720106064692
4990 188 17775287144759457684
528886 8 18339912775550403627
53812653 8 18408601448585719224
57177213 63 18264488390750306211
7364860 26 17983290426493079927
81228 2 17838035362708029387
81539 233 18187638047118147403

>  <PUBCHEM_SHAPE_MULTIPOLES>  (1) 
288.86
7.67
1.93
0.8
6.05
0.91
-0.03
-2.71
2.1
-0.77
0.11
0.55
-0.05
-0.25

>  <PUBCHEM_SHAPE_SELFOVERLAP>  (1) 
605.129

>  <PUBCHEM_SHAPE_VOLUME>  (1) 
163.7

>  <PUBCHEM_COORDINATE_TYPE>  (1) 
2
5
10

$$$$
