18958
     RDKit          3D

 17 18  0  0  0  0  0  0  0  0999 V2000
    0.5079    2.3083    0.5908 O   0  0  0  0  0  0  0  0  0  0  0  0
    0.5335   -2.3247    0.5698 O   0  0  0  0  0  0  0  0  0  0  0  0
   -4.4336   -0.0062   -1.7666 O   0  0  0  0  0  0  0  0  0  0  0  0
    0.1176   -0.0102    0.7288 N   0  0  0  0  0  0  0  0  0  0  0  0
   -6.0339    0.0321   -0.1174 N   0  0  0  0  0  0  0  0  0  0  0  0
   -1.2482   -0.0188    1.2137 C   0  0  0  0  0  0  0  0  0  0  0  0
   -2.2694   -0.0308    0.0783 C   0  0  0  0  0  0  0  0  0  0  0  0
    2.1496    0.6962    0.0205 C   0  0  0  0  0  0  0  0  0  0  0  0
    2.1561   -0.6908    0.0146 C   0  0  0  0  0  0  0  0  0  0  0  0
    0.8337    1.1413    0.4775 C   0  0  0  0  0  0  0  0  0  0  0  0
    0.8444   -1.1526    0.4678 C   0  0  0  0  0  0  0  0  0  0  0  0
   -3.7228   -0.0099    0.5543 C   0  0  0  0  0  0  0  0  0  0  0  0
    3.2518    1.4332   -0.3611 C   0  0  0  0  0  0  0  0  0  0  0  0
    3.2653   -1.4140   -0.3733 C   0  0  0  0  0  0  0  0  0  0  0  0
    4.3877    0.7216   -0.7575 C   0  0  0  0  0  0  0  0  0  0  0  0
    4.3943   -0.6883   -0.7637 C   0  0  0  0  0  0  0  0  0  0  0  0
   -4.7341    0.0137   -0.5767 C   0  0  0  0  0  0  0  0  0  0  0  0
  1 10  2  0
  2 11  2  0
  3 17  2  0
  4  6  1  0
  4 10  1  0
  4 11  1  0
  5 17  1  0
  6  7  1  0
  7 12  1  0
  8  9  2  0
  8 10  1  0
  8 13  1  0
  9 11  1  0
  9 14  1  0
 12 17  1  0
 13 15  2  0
 14 16  2  0
 15 16  1  0
M  END
>  <PUBCHEM_COMPOUND_CID>  (1) 
18958

>  <PUBCHEM_CONFORMER_RMSD>  (1) 
0.6

>  <PUBCHEM_CONFORMER_DIVERSEORDER>  (1) 
1
6
20
16
25
17
19
5
31
18
21
15
13
26
24
2
14
23
12
9
28
29
22
30
32
27
11
33
10
8
4
7
3

>  <PUBCHEM_MMFF94_PARTIAL_CHARGES>  (1) 
22
1 -0.57
10 0.54
11 0.54
12 0.06
13 -0.15
14 -0.15
15 -0.15
16 -0.15
17 0.57
2 -0.57
24 0.15
25 0.15
26 0.15
27 0.15
28 0.37
29 0.37
3 -0.57
4 -0.42
5 -0.8
6 0.3
8 0.09
9 0.09

>  <PUBCHEM_EFFECTIVE_ROTOR_COUNT>  (1) 
4.2

>  <PUBCHEM_PHARMACOPHORE_FEATURES>  (1) 
6
1 1 acceptor
1 2 acceptor
1 3 acceptor
1 5 donor
5 4 8 9 10 11 rings
6 8 9 13 14 15 16 rings

>  <PUBCHEM_HEAVY_ATOM_COUNT>  (1) 
17

>  <PUBCHEM_ATOM_DEF_STEREO_COUNT>  (1) 
0

>  <PUBCHEM_ATOM_UDEF_STEREO_COUNT>  (1) 
0

>  <PUBCHEM_BOND_DEF_STEREO_COUNT>  (1) 
0

>  <PUBCHEM_BOND_UDEF_STEREO_COUNT>  (1) 
0

>  <PUBCHEM_ISOTOPIC_ATOM_COUNT>  (1) 
0

>  <PUBCHEM_COMPONENT_COUNT>  (1) 
1

>  <PUBCHEM_CACTVS_TAUTO_COUNT>  (1) 
2

>  <PUBCHEM_CONFORMER_ID>  (1) 
00004A0E00000001

>  <PUBCHEM_MMFF94_ENERGY>  (1) 
32.8623

>  <PUBCHEM_FEATURE_SELFOVERLAP>  (1) 
30.539

>  <PUBCHEM_SHAPE_FINGERPRINT>  (1) 
10498660 4 16588852479005249949
10693767 8 18200877258202457294
11471102 20 18409453587551395376
11796584 16 15410898457276539093
12236239 1 17703796903243172353
12251169 10 10015577303203788249
12596602 18 11818998487180246725
12730499 353 17967820431661817379
12916748 109 16081090364066412989
14576447 43 18131911567811718591
14911166 2 18410299120446004658
14993402 34 18130793368844417630
15048467 5 13334745656504644166
15848700 24 18343585127349912752
16945 1 18266484078202619994
18186145 218 18113625577013417698
200 152 18131073714181465073
20261772 1 8718825370884078912
20645477 70 18409453552817662842
21637258 2 15769497521887410340
221357 26 18409724050538447173
221490 88 18196376046497177411
22289505 5 18262508200811640669
231179 274 17458061573056787344
23402539 116 18131075896103979120
23402655 69 18410576192864920143
23559900 14 18340495564606663384
25 1 18333450941260897139
2748010 2 17980784932384071768
2871803 45 18409732828733791860
29717793 49 17704076161948381373
3060560 45 18409444795315783046
3286 77 16917068807372074722
351380 3 17418093222181967167
4028521 119 17675920985033955133
4047638 21 17385725798398089904
4072396 5 18261663832032172538
602551 16 15123503722514470997
7164475 11 18128263281305163072

>  <PUBCHEM_SHAPE_MULTIPOLES>  (1) 
322.28
10.5
1.63
1.04
13.12
0.01
-0.18
-0.1
-4.46
-1.54
0.25
0.67
0
0.01

>  <PUBCHEM_SHAPE_SELFOVERLAP>  (1) 
691.447

>  <PUBCHEM_SHAPE_VOLUME>  (1) 
180.1

>  <PUBCHEM_COORDINATE_TYPE>  (1) 
2
5
10

$$$$
