18967
     RDKit          3D

 29 32  0  0  0  0  0  0  0  0999 V2000
    7.5102   -1.0195    0.5905 O   0  0  0  0  0  0  0  0  0  0  0  0
    1.9236    1.9574   -0.4017 O   0  0  0  0  0  0  0  0  0  0  0  0
   -1.6380    0.0731   -0.2091 O   0  0  0  0  0  0  0  0  0  0  0  0
    0.7509    0.2416   -1.3914 O   0  0  0  0  0  0  0  0  0  0  0  0
   -4.9938    2.1082    0.8706 O   0  0  0  0  0  0  0  0  0  0  0  0
    4.8024   -0.3067    0.0788 N   0  0  0  0  0  0  0  0  0  0  0  0
    5.8992    0.6520   -0.1143 C   0  0  0  0  0  0  0  0  0  0  0  0
    5.1576   -1.2737    1.1269 C   0  0  0  0  0  0  0  0  0  0  0  0
    3.5599    0.3868    0.4121 C   0  0  0  0  0  0  0  0  0  0  0  0
    7.1868   -0.0954   -0.4491 C   0  0  0  0  0  0  0  0  0  0  0  0
    6.4631   -1.9752    0.7637 C   0  0  0  0  0  0  0  0  0  0  0  0
    3.1598    1.3116   -0.7249 C   0  0  0  0  0  0  0  0  0  0  0  0
   -1.6145    1.4387   -0.1161 C   0  0  0  0  0  0  0  0  0  0  0  0
   -0.4080    2.0771   -0.4051 C   0  0  0  0  0  0  0  0  0  0  0  0
   -2.7296    2.1867    0.2475 C   0  0  0  0  0  0  0  0  0  0  0  0
   -3.9758    0.0004    0.4382 C   0  0  0  0  0  0  0  0  0  0  0  0
   -2.8212   -0.5891    0.0678 C   0  0  0  0  0  0  0  0  0  0  0  0
    0.7771    1.3215   -0.7894 C   0  0  0  0  0  0  0  0  0  0  0  0
   -3.9884    1.4879    0.5481 C   0  0  0  0  0  0  0  0  0  0  0  0
   -0.3225    3.4673   -0.3285 C   0  0  0  0  0  0  0  0  0  0  0  0
   -2.6482    3.5798    0.3250 C   0  0  0  0  0  0  0  0  0  0  0  0
   -2.6855   -2.0444   -0.0817 C   0  0  0  0  0  0  0  0  0  0  0  0
   -1.4409    4.2172    0.0361 C   0  0  0  0  0  0  0  0  0  0  0  0
   -5.2688   -0.6880    0.7679 C   0  0  0  0  0  0  0  0  0  0  0  0
   -2.9477   -2.6471   -1.3125 C   0  0  0  0  0  0  0  0  0  0  0  0
   -2.2944   -2.8249    1.0068 C   0  0  0  0  0  0  0  0  0  0  0  0
   -2.8192   -4.0287   -1.4546 C   0  0  0  0  0  0  0  0  0  0  0  0
   -2.1658   -4.2065    0.8645 C   0  0  0  0  0  0  0  0  0  0  0  0
   -2.4282   -4.8084   -0.3662 C   0  0  0  0  0  0  0  0  0  0  0  0
  1 10  1  0
  1 11  1  0
  2 12  1  0
  2 18  1  0
  3 13  1  0
  3 17  1  0
  4 18  2  0
  5 19  2  0
  6  7  1  0
  6  8  1  0
  6  9  1  0
  7 10  1  0
  8 11  1  0
  9 12  1  0
 13 14  2  0
 13 15  1  0
 14 18  1  0
 14 20  1  0
 15 19  1  0
 15 21  2  0
 16 17  2  0
 16 19  1  0
 16 24  1  0
 17 22  1  0
 20 23  2  0
 21 23  1  0
 22 25  2  0
 22 26  1  0
 25 27  1  0
 26 28  2  0
 27 29  2  0
 28 29  1  0
M  END
>  <PUBCHEM_COMPOUND_CID>  (1) 
18967

>  <PUBCHEM_CONFORMER_RMSD>  (1) 
0.8

>  <PUBCHEM_CONFORMER_DIVERSEORDER>  (1) 
5
42
8
93
31
87
4
36
43
98
92
55
81
26
66
46
83
48
20
30
2
47
52
33
56
68
39
40
44
77
51
9
85
25
88
17
71
1
27
73
96
7
102
74
29
35
6
3
100
80
89
99
95
67
38
61
12
54
15
101
82
53
64
14
28
13
84
21
90
32
104
109
78
69
65
97
70
24
76
62
59
18
19
58
105
60
22
11
10
37
79
91
34
75
86
63
57
106
50
16
108
107
45
103
94
41
23
49
72

>  <PUBCHEM_MMFF94_PARTIAL_CHARGES>  (1) 
37
1 -0.56
10 0.28
11 0.28
12 0.28
13 0.08
14 0.09
15 0.09
16 -0.12
17 0.05
18 0.63
19 0.47
2 -0.43
20 -0.15
21 -0.15
22 0.03
23 -0.15
24 0.14
25 -0.15
26 -0.15
27 -0.15
28 -0.15
29 -0.15
3 -0.16
4 -0.57
42 0.15
43 0.15
44 0.15
48 0.15
49 0.15
5 -0.57
50 0.15
51 0.15
52 0.15
6 -0.81
7 0.27
8 0.27
9 0.27

>  <PUBCHEM_EFFECTIVE_ROTOR_COUNT>  (1) 
7.2

>  <PUBCHEM_PHARMACOPHORE_FEATURES>  (1) 
9
1 1 acceptor
1 3 acceptor
1 4 acceptor
1 5 acceptor
1 6 cation
6 1 6 7 8 10 11 rings
6 13 14 15 20 21 23 rings
6 22 25 26 27 28 29 rings
6 3 13 15 16 17 19 rings

>  <PUBCHEM_HEAVY_ATOM_COUNT>  (1) 
29

>  <PUBCHEM_ATOM_DEF_STEREO_COUNT>  (1) 
0

>  <PUBCHEM_ATOM_UDEF_STEREO_COUNT>  (1) 
0

>  <PUBCHEM_BOND_DEF_STEREO_COUNT>  (1) 
0

>  <PUBCHEM_BOND_UDEF_STEREO_COUNT>  (1) 
0

>  <PUBCHEM_ISOTOPIC_ATOM_COUNT>  (1) 
0

>  <PUBCHEM_COMPONENT_COUNT>  (1) 
1

>  <PUBCHEM_CACTVS_TAUTO_COUNT>  (1) 
1

>  <PUBCHEM_CONFORMER_ID>  (1) 
00004A1700000005

>  <PUBCHEM_MMFF94_ENERGY>  (1) 
81.0046

>  <PUBCHEM_FEATURE_SELFOVERLAP>  (1) 
45.709

>  <PUBCHEM_SHAPE_FINGERPRINT>  (1) 
10290309 65 17978792307481122244
10462674 125 15833903868238413166
10483366 6 18339623600419992343
10622 236 18124025986434589750
1100329 8 18267028452438284411
11049842 53 17760682194564298988
11524674 6 17489866012263676846
12174731 88 18188759549411476858
12969540 37 17616248525909959685
12988421 55 17982739567057772321
13140716 1 17838071656041153289
14705955 166 17417535704777061945
14844126 61 18409169913229682779
14856354 85 18412268354662083998
14866123 147 18411420648445846939
15042514 8 18410579521844531981
15250474 111 18261946376530066890
15320294 125 18115025208382465014
15348495 7 18131343134039700408
15439362 3 17110434200400539613
15728490 83 18190467257919424987
15927050 60 17836928893934886357
16110190 28 18410296908727751208
16719943 64 18337955580354495753
16728300 4 18040714711135687923
17492 89 17906453582016602255
21703447 108 17550946331539771801
229767 44 18411141290302151939
23516275 137 17829912953124346786
23559900 14 18338228362376448056
3383291 50 18411422821710023683
3610482 184 18041860462534456910
3882209 13 17841693407998064655
397830 11 18059560435347055240
4017518 198 18196647406530617783
4409770 3 18335132052054817821
4616759 239 18131339805524364816
463206 1 18189899888454783082
484985 159 18337660984158166679
5364581 5 18128802222776749800
559249 180 18334575720302646489
563151 74 15553905324625706743
613672 6 17905866412774351634
6431902 208 18190176966044495314
70251023 43 17688588686268356035
9896288 288 18268156353320385177

>  <PUBCHEM_SHAPE_MULTIPOLES>  (1) 
562.48
14.69
6.06
1.07
36.46
2.92
0.13
6.44
-3.33
-8.4
0.4
-0.23
0.65
-2

>  <PUBCHEM_SHAPE_SELFOVERLAP>  (1) 
1222.601

>  <PUBCHEM_SHAPE_VOLUME>  (1) 
306

>  <PUBCHEM_COORDINATE_TYPE>  (1) 
2
5
10

$$$$
