18965
     RDKit          3D

  8  8  0  0  1  0  0  0  0  0999 V2000
   -0.7126   -1.0345   -0.4814 O   0  0  0  0  0  0  0  0  0  0  0  0
    1.6564   -1.2190    0.4711 O   0  0  0  0  0  0  0  0  0  0  0  0
   -0.7112    1.2358    0.2249 C   0  0  0  0  0  0  0  0  0  0  0  0
    0.0381    0.1825   -0.5690 C   0  0  0  0  0  0  0  0  0  0  0  0
   -2.1303    0.7277    0.1752 C   0  0  0  0  0  0  0  0  0  0  0  0
   -1.9274   -0.7688    0.2318 C   0  0  0  0  0  0  0  0  0  0  0  0
    1.3865   -0.1173   -0.0046 C   0  0  0  0  0  0  0  0  0  0  0  0
    2.4005    0.9936   -0.0480 C   0  0  0  0  0  0  0  0  0  0  0  0
  1  4  1  0
  1  6  1  0
  2  7  2  0
  3  4  1  0
  3  5  1  0
  4  7  1  0
  5  6  1  0
  7  8  1  0
M  END
>  <PUBCHEM_COMPOUND_CID>  (1) 
18965

>  <PUBCHEM_CONFORMER_RMSD>  (1) 
0.4

>  <PUBCHEM_CONFORMER_DIVERSEORDER>  (1) 
1
6
4
2
5
3
7
8

>  <PUBCHEM_MMFF94_PARTIAL_CHARGES>  (1) 
6
1 -0.56
2 -0.57
4 0.34
6 0.28
7 0.45
8 0.06

>  <PUBCHEM_EFFECTIVE_ROTOR_COUNT>  (1) 
2

>  <PUBCHEM_PHARMACOPHORE_FEATURES>  (1) 
3
1 1 acceptor
1 2 acceptor
5 1 3 4 5 6 rings

>  <PUBCHEM_HEAVY_ATOM_COUNT>  (1) 
8

>  <PUBCHEM_ATOM_DEF_STEREO_COUNT>  (1) 
0

>  <PUBCHEM_ATOM_UDEF_STEREO_COUNT>  (1) 
1

>  <PUBCHEM_BOND_DEF_STEREO_COUNT>  (1) 
0

>  <PUBCHEM_BOND_UDEF_STEREO_COUNT>  (1) 
0

>  <PUBCHEM_ISOTOPIC_ATOM_COUNT>  (1) 
0

>  <PUBCHEM_COMPONENT_COUNT>  (1) 
1

>  <PUBCHEM_CACTVS_TAUTO_COUNT>  (1) 
3

>  <PUBCHEM_CONFORMER_ID>  (1) 
00004A1500000001

>  <PUBCHEM_MMFF94_ENERGY>  (1) 
9.2822

>  <PUBCHEM_FEATURE_SELFOVERLAP>  (1) 
15.237

>  <PUBCHEM_SHAPE_FINGERPRINT>  (1) 
10857977 72 18267298922806871729
14390081 3 18201437012477994544
16714656 1 18202008775535248860
18185500 45 18337670935391240286
20096714 4 18341614789295538468
21040471 1 18271247110190675109
23552423 10 18333735701818971798
24536 1 18269540681097678012
29004967 10 16805326603907410652
369184 2 16443054028156839136
5084963 1 17702663220486304523

>  <PUBCHEM_SHAPE_MULTIPOLES>  (1) 
152.9
3.12
1.33
0.7
0.56
0.01
0.02
-0.32
-0.3
0.02
-0.09
0
0.02
-0.15

>  <PUBCHEM_SHAPE_SELFOVERLAP>  (1) 
301.276

>  <PUBCHEM_SHAPE_VOLUME>  (1) 
92.7

>  <PUBCHEM_COORDINATE_TYPE>  (1) 
2
5
10

$$$$
