18963
     RDKit          3D

 12 12  0  0  0  0  0  0  0  0999 V2000
    2.4478   -1.8123    0.0004 O   0  0  0  0  0  0  0  0  0  0  0  0
    3.0443    0.3048   -0.0007 O   0  0  0  0  0  0  0  0  0  0  0  0
    2.1680   -0.5909    0.0001 N   0  0  0  0  0  0  0  0  0  0  0  0
   -3.2588    0.8859   -0.0002 N   0  0  0  0  0  0  0  0  0  0  0  0
    0.4330    1.1409    0.0000 C   0  0  0  0  0  0  0  0  0  0  0  0
   -1.5324   -0.8389    0.0001 C   0  0  0  0  0  0  0  0  0  0  0  0
    0.7989   -0.2050    0.0000 C   0  0  0  0  0  0  0  0  0  0  0  0
   -1.8983    0.5072    0.0001 C   0  0  0  0  0  0  0  0  0  0  0  0
   -0.1837   -1.1949    0.0001 C   0  0  0  0  0  0  0  0  0  0  0  0
   -0.9157    1.4971    0.0002 C   0  0  0  0  0  0  0  0  0  0  0  0
    1.4613    2.2258    0.0002 C   0  0  0  0  0  0  0  0  0  0  0  0
   -2.5643   -1.9195   -0.0002 C   0  0  0  0  0  0  0  0  0  0  0  0
  1  3  1  0
  2  3  2  0
  3  7  1  0
  4  8  1  0
  5  7  2  0
  5 10  1  0
  5 11  1  0
  6  8  1  0
  6  9  2  0
  6 12  1  0
  7  9  1  0
  8 10  2  0
M  CHG  2   1  -1   3   1
M  END
>  <PUBCHEM_COMPOUND_CID>  (1) 
18963

>  <PUBCHEM_CONFORMER_RMSD>  (1) 
0.4

>  <PUBCHEM_CONFORMER_DIVERSEORDER>  (1) 
1

>  <PUBCHEM_MMFF94_PARTIAL_CHARGES>  (1) 
16
1 -0.52
10 -0.15
11 0.14
12 0.14
13 0.15
14 0.15
2 -0.52
21 0.4
22 0.4
3 0.91
4 -0.9
5 -0.14
6 -0.14
7 0.13
8 0.1
9 -0.15

>  <PUBCHEM_EFFECTIVE_ROTOR_COUNT>  (1) 
1

>  <PUBCHEM_PHARMACOPHORE_FEATURES>  (1) 
6
1 1 acceptor
1 1 anion
1 2 acceptor
1 4 cation
1 4 donor
6 5 6 7 8 9 10 rings

>  <PUBCHEM_HEAVY_ATOM_COUNT>  (1) 
12

>  <PUBCHEM_ATOM_DEF_STEREO_COUNT>  (1) 
0

>  <PUBCHEM_ATOM_UDEF_STEREO_COUNT>  (1) 
0

>  <PUBCHEM_BOND_DEF_STEREO_COUNT>  (1) 
0

>  <PUBCHEM_BOND_UDEF_STEREO_COUNT>  (1) 
0

>  <PUBCHEM_ISOTOPIC_ATOM_COUNT>  (1) 
0

>  <PUBCHEM_COMPONENT_COUNT>  (1) 
1

>  <PUBCHEM_CACTVS_TAUTO_COUNT>  (1) 
1

>  <PUBCHEM_CONFORMER_ID>  (1) 
00004A1300000001

>  <PUBCHEM_MMFF94_ENERGY>  (1) 
53.2171

>  <PUBCHEM_FEATURE_SELFOVERLAP>  (1) 
30.526

>  <PUBCHEM_SHAPE_FINGERPRINT>  (1) 
12524768 44 18270966713235016070
13380535 21 18337122275079167593
14128692 85 18339648939735332628
14648413 74 18409448128305350289
16945 1 18410575050414298725
17990270 104 18410574028296432906
193761 8 18338797947953218245
19973954 147 18338797926436151289
20201158 50 18410852170246633550
20871998 184 18202003243949941071
21501502 16 18337674242727236605
2334 1 18266460004220030693
23463225 33 18265051340809521274
23552423 10 18262800794973052373
23559900 14 18125718981940587718
241688 4 18335699472646642153
2748010 2 18338515364859121109
369184 2 18337952294414493835
5084963 1 18201159978460330419
528886 8 18411412899707146761
53812653 166 18342452668832850056
68250623 7 18339084907645266519
7364860 26 18270683198344115912

>  <PUBCHEM_SHAPE_MULTIPOLES>  (1) 
225.25
4.14
2.2
0.59
0.18
0.08
0
-0.71
0
-0.21
0
0.04
0.01
0

>  <PUBCHEM_SHAPE_SELFOVERLAP>  (1) 
473.083

>  <PUBCHEM_SHAPE_VOLUME>  (1) 
128.4

>  <PUBCHEM_COORDINATE_TYPE>  (1) 
2
5
10

$$$$
