18988
     RDKit          3D

  9  8  0  0  0  0  0  0  0  0999 V2000
   -0.8932    1.8557   -0.1658 O   0  0  0  0  0  0  0  0  0  0  0  0
    2.6002   -1.0567   -0.3520 O   0  0  0  0  0  0  0  0  0  0  0  0
   -1.4175   -0.3706    0.0984 N   0  0  0  0  0  0  0  0  0  0  0  0
    0.8636    0.3857    0.0256 N   0  0  0  0  0  0  0  0  0  0  0  0
    1.3749   -0.9335   -0.4531 N   0  0  0  0  0  0  0  0  0  0  0  0
   -0.5040    0.6890   -0.0190 C   0  0  0  0  0  0  0  0  0  0  0  0
   -2.7307   -0.3459   -0.5432 C   0  0  0  0  0  0  0  0  0  0  0  0
   -1.1231   -1.5720    0.8681 C   0  0  0  0  0  0  0  0  0  0  0  0
    1.8299    1.3483    0.5409 C   0  0  0  0  0  0  0  0  0  0  0  0
  1  6  2  0
  2  5  2  0
  3  6  1  0
  3  7  1  0
  3  8  1  0
  4  5  1  0
  4  6  1  0
  4  9  1  0
M  END
>  <PUBCHEM_COMPOUND_CID>  (1) 
18988

>  <PUBCHEM_CONFORMER_RMSD>  (1) 
0.6

>  <PUBCHEM_CONFORMER_DIVERSEORDER>  (1) 
3
2
1
4
5
7
6

>  <PUBCHEM_MMFF94_PARTIAL_CHARGES>  (1) 
9
1 -0.57
2 -0.16
3 -0.66
4 -0.18
5 -0.02
6 0.69
7 0.3
8 0.3
9 0.3

>  <PUBCHEM_EFFECTIVE_ROTOR_COUNT>  (1) 
3

>  <PUBCHEM_PHARMACOPHORE_FEATURES>  (1) 
1
1 1 acceptor

>  <PUBCHEM_HEAVY_ATOM_COUNT>  (1) 
9

>  <PUBCHEM_ATOM_DEF_STEREO_COUNT>  (1) 
0

>  <PUBCHEM_ATOM_UDEF_STEREO_COUNT>  (1) 
0

>  <PUBCHEM_BOND_DEF_STEREO_COUNT>  (1) 
0

>  <PUBCHEM_BOND_UDEF_STEREO_COUNT>  (1) 
0

>  <PUBCHEM_ISOTOPIC_ATOM_COUNT>  (1) 
0

>  <PUBCHEM_COMPONENT_COUNT>  (1) 
1

>  <PUBCHEM_CACTVS_TAUTO_COUNT>  (1) 
1

>  <PUBCHEM_CONFORMER_ID>  (1) 
00004A2C00000003

>  <PUBCHEM_MMFF94_ENERGY>  (1) 
29.0672

>  <PUBCHEM_FEATURE_SELFOVERLAP>  (1) 
5.074

>  <PUBCHEM_SHAPE_FINGERPRINT>  (1) 
20201158 50 18411978065974761286
20711978 78 17846776312750209916
21040471 1 18113328726386096539
23552423 10 18261112971546649164
29004967 10 18266744777631352625

>  <PUBCHEM_SHAPE_MULTIPOLES>  (1) 
158.53
3.33
1.71
0.77
0.05
0.17
-0.08
-0.62
0.41
-0.32
-0.14
0.08
-0.15
0.57

>  <PUBCHEM_SHAPE_SELFOVERLAP>  (1) 
289.733

>  <PUBCHEM_SHAPE_VOLUME>  (1) 
101.2

>  <PUBCHEM_COORDINATE_TYPE>  (1) 
2
5
10

$$$$
