18981
     RDKit          3D

 25 27  0  0  0  0  0  0  0  0999 V2000
   -1.7111   -3.0364    1.0274 O   0  0  0  0  0  0  0  0  0  0  0  0
    2.4070    2.6895    1.8508 O   0  0  0  0  0  0  0  0  0  0  0  0
    0.4118    1.7796    1.7496 O   0  0  0  0  0  0  0  0  0  0  0  0
    5.8937   -1.2466   -1.4350 O   0  0  0  0  0  0  0  0  0  0  0  0
    6.1552    0.6281   -0.3229 O   0  0  0  0  0  0  0  0  0  0  0  0
   -0.6610   -0.9073   -0.3882 N   0  0  0  0  0  0  0  0  0  0  0  0
   -0.0326   -0.3354    0.5302 N   0  0  0  0  0  0  0  0  0  0  0  0
    1.6325    1.7827    1.4650 N   0  0  0  0  0  0  0  0  0  0  0  0
    5.4328   -0.3095   -0.7394 N   0  0  0  0  0  0  0  0  0  0  0  0
   -2.8812    0.1126   -0.4813 C   0  0  0  0  0  0  0  0  0  0  0  0
   -4.2562    0.0512   -0.1519 C   0  0  0  0  0  0  0  0  0  0  0  0
   -2.0319   -0.9316   -0.0804 C   0  0  0  0  0  0  0  0  0  0  0  0
   -4.7414   -1.0525    0.5684 C   0  0  0  0  0  0  0  0  0  0  0  0
   -2.3962    1.2161   -1.2019 C   0  0  0  0  0  0  0  0  0  0  0  0
   -2.5309   -2.0205    0.6353 C   0  0  0  0  0  0  0  0  0  0  0  0
   -5.1057    1.0951   -0.5530 C   0  0  0  0  0  0  0  0  0  0  0  0
   -3.8832   -2.0809    0.9588 C   0  0  0  0  0  0  0  0  0  0  0  0
   -3.2545    2.2445   -1.5921 C   0  0  0  0  0  0  0  0  0  0  0  0
    1.3385   -0.3112    0.2228 C   0  0  0  0  0  0  0  0  0  0  0  0
   -4.6067    2.1842   -1.2681 C   0  0  0  0  0  0  0  0  0  0  0  0
    2.1568    0.7207    0.6764 C   0  0  0  0  0  0  0  0  0  0  0  0
    4.0505   -0.3098   -0.4138 C   0  0  0  0  0  0  0  0  0  0  0  0
    3.5148    0.7215    0.3576 C   0  0  0  0  0  0  0  0  0  0  0  0
    1.8705   -1.3425   -0.5477 C   0  0  0  0  0  0  0  0  0  0  0  0
    3.2283   -1.3417   -0.8665 C   0  0  0  0  0  0  0  0  0  0  0  0
  1 15  1  0
  2  8  1  0
  3  8  2  0
  4  9  1  0
  5  9  2  0
  6  7  2  0
  6 12  1  0
  7 19  1  0
  8 21  1  0
  9 22  1  0
 10 11  1  0
 10 12  2  0
 10 14  1  0
 11 13  2  0
 11 16  1  0
 12 15  1  0
 13 17  1  0
 14 18  2  0
 15 17  2  0
 16 20  2  0
 18 20  1  0
 19 21  2  0
 19 24  1  0
 21 23  1  0
 22 23  2  0
 22 25  1  0
 24 25  2  0
M  CHG  4   2  -1   4  -1   8   1   9   1
M  END
>  <PUBCHEM_COMPOUND_CID>  (1) 
18981

>  <PUBCHEM_CONFORMER_RMSD>  (1) 
0.8

>  <PUBCHEM_CONFORMER_DIVERSEORDER>  (1) 
1
2
5
3
4

>  <PUBCHEM_MMFF94_PARTIAL_CHARGES>  (1) 
33
1 -0.53
12 0.18
13 -0.15
14 -0.15
15 0.08
16 -0.15
17 -0.15
18 -0.15
19 0.18
2 -0.52
20 -0.15
21 0.13
22 0.13
23 -0.15
24 -0.15
25 -0.15
26 0.15
27 0.15
28 0.15
29 0.15
3 -0.52
30 0.15
31 0.15
32 0.15
33 0.15
34 0.15
35 0.45
4 -0.52
5 -0.52
6 -0.18
7 -0.18
8 0.91
9 0.91

>  <PUBCHEM_EFFECTIVE_ROTOR_COUNT>  (1) 
4

>  <PUBCHEM_PHARMACOPHORE_FEATURES>  (1) 
10
1 1 donor
1 2 acceptor
1 2 anion
1 3 acceptor
1 4 acceptor
1 4 anion
1 5 acceptor
6 10 11 12 13 15 17 rings
6 10 11 14 16 18 20 rings
6 19 21 22 23 24 25 rings

>  <PUBCHEM_HEAVY_ATOM_COUNT>  (1) 
25

>  <PUBCHEM_ATOM_DEF_STEREO_COUNT>  (1) 
0

>  <PUBCHEM_ATOM_UDEF_STEREO_COUNT>  (1) 
0

>  <PUBCHEM_BOND_DEF_STEREO_COUNT>  (1) 
0

>  <PUBCHEM_BOND_UDEF_STEREO_COUNT>  (1) 
0

>  <PUBCHEM_ISOTOPIC_ATOM_COUNT>  (1) 
0

>  <PUBCHEM_COMPONENT_COUNT>  (1) 
1

>  <PUBCHEM_CACTVS_TAUTO_COUNT>  (1) 
3

>  <PUBCHEM_CONFORMER_ID>  (1) 
00004A2500000001

>  <PUBCHEM_MMFF94_ENERGY>  (1) 
87.6424

>  <PUBCHEM_FEATURE_SELFOVERLAP>  (1) 
50.936

>  <PUBCHEM_SHAPE_FINGERPRINT>  (1) 
10165383 225 18261960618472802261
10319926 262 18189034508695147464
10366900 7 18336536188347925911
10369192 42 17764020664291687552
10498660 4 17968365750648043949
10670039 82 17894346674762299847
11497681 19 17414425405937144247
11595378 159 16732972103413037349
11796584 16 18260830367880516762
12107183 9 17245248722674037162
12236239 1 16081087073699503623
12390115 104 18263649459790623941
12403259 415 18412541045818757121
12623949 98 17554911123141197719
12788726 201 17986106310337047672
13134695 92 17060334158695793928
13402501 40 18411983563627618487
13583140 156 18343301483240956511
13631057 29 14346660343841549065
13782708 43 18341896350267274635
13911987 19 17917159372544202934
13944108 23 17186429150167841413
14251757 17 18341328912003697625
14840074 17 16487260967547545068
15081414 286 17917148411820046112
15238133 3 18191851358543226720
15961568 22 17752762712577785404
17349148 13 15123508133493453999
17357779 13 17846780672390045552
17844677 252 18186810213873247628
18608769 82 18261399983522759915
200 152 16773798077984786634
20645477 56 18260830376089954511
20645477 70 17632578279516308924
21033648 29 18342164592211739592
21033650 10 17751102235882596358
21279426 13 18338520725263636974
21792961 116 18341059528014312694
221357 26 18130498644189472269
22182313 1 18271232941426271680
2297311 6 18186811304847909031
23175994 123 18060426802157104920
23536364 44 18057049004042985996
23557571 272 18334300876486156007
23559900 14 18407757058078668269
3004659 81 18189056413583023654
3298306 158 18412261696972911470
4098825 35 17968100794537319382
46194498 28 18263933292298074932
508706 21 18336256938095722335
5265222 85 18116168825583694478
5283173 99 18335143046985738252
6049 1 18340203093785648889
6287921 2 17904198475073084325
6823239 73 18335134327875755248
7399639 24 17622714740738891731
7471813 234 15985100816891400776
7808743 9 17895189953078894037

>  <PUBCHEM_SHAPE_MULTIPOLES>  (1) 
465.22
12.49
2.64
1.41
9.63
0.1
-0.35
-1.19
3.87
-2.62
-0.52
0.64
-0.74
3.03

>  <PUBCHEM_SHAPE_SELFOVERLAP>  (1) 
1035.382

>  <PUBCHEM_SHAPE_VOLUME>  (1) 
248.2

>  <PUBCHEM_COORDINATE_TYPE>  (1) 
2
5
10

$$$$
