18985
     RDKit          3D

 12 13  0  0  0  0  0  0  0  0999 V2000
   -1.3504   -1.1489    0.2581 N   0  0  0  0  0  0  0  0  0  0  0  0
    2.7988    1.1861    0.3737 N   0  0  0  0  0  0  0  0  0  0  0  0
   -2.9420    1.0652   -0.6058 C   0  0  0  0  0  0  0  0  0  0  0  0
   -3.5121    0.0857    0.3992 C   0  0  0  0  0  0  0  0  0  0  0  0
   -1.4639    1.2580   -0.3245 C   0  0  0  0  0  0  0  0  0  0  0  0
   -2.8068   -1.2487    0.2428 C   0  0  0  0  0  0  0  0  0  0  0  0
   -0.7429   -0.0467   -0.0190 C   0  0  0  0  0  0  0  0  0  0  0  0
    0.7550   -0.0334   -0.0093 C   0  0  0  0  0  0  0  0  0  0  0  0
    1.4758   -1.1661   -0.3547 C   0  0  0  0  0  0  0  0  0  0  0  0
    1.4496    1.1072    0.3440 C   0  0  0  0  0  0  0  0  0  0  0  0
    2.8655   -1.1240   -0.3363 C   0  0  0  0  0  0  0  0  0  0  0  0
    3.4734    0.0655    0.0317 C   0  0  0  0  0  0  0  0  0  0  0  0
  1  6  1  0
  1  7  2  0
  2 10  2  0
  2 12  1  0
  3  4  1  0
  3  5  1  0
  4  6  1  0
  5  7  1  0
  7  8  1  0
  8  9  2  0
  8 10  1  0
  9 11  1  0
 11 12  2  0
M  END
>  <PUBCHEM_COMPOUND_CID>  (1) 
18985

>  <PUBCHEM_CONFORMER_RMSD>  (1) 
0.4

>  <PUBCHEM_CONFORMER_DIVERSEORDER>  (1) 
1
4
5
8
6
9
2
3
10
7

>  <PUBCHEM_MMFF94_PARTIAL_CHARGES>  (1) 
14
1 -0.7
10 0.16
11 -0.15
12 0.16
2 -0.62
21 0.15
22 0.15
23 0.15
24 0.15
5 0.06
6 0.25
7 0.3
8 0.09
9 -0.15

>  <PUBCHEM_EFFECTIVE_ROTOR_COUNT>  (1) 
1.8

>  <PUBCHEM_PHARMACOPHORE_FEATURES>  (1) 
4
1 1 acceptor
1 2 acceptor
6 1 3 4 5 6 7 rings
6 2 8 9 10 11 12 rings

>  <PUBCHEM_HEAVY_ATOM_COUNT>  (1) 
12

>  <PUBCHEM_ATOM_DEF_STEREO_COUNT>  (1) 
0

>  <PUBCHEM_ATOM_UDEF_STEREO_COUNT>  (1) 
0

>  <PUBCHEM_BOND_DEF_STEREO_COUNT>  (1) 
0

>  <PUBCHEM_BOND_UDEF_STEREO_COUNT>  (1) 
0

>  <PUBCHEM_ISOTOPIC_ATOM_COUNT>  (1) 
0

>  <PUBCHEM_COMPONENT_COUNT>  (1) 
1

>  <PUBCHEM_CACTVS_TAUTO_COUNT>  (1) 
1

>  <PUBCHEM_CONFORMER_ID>  (1) 
00004A2900000001

>  <PUBCHEM_MMFF94_ENERGY>  (1) 
30.7732

>  <PUBCHEM_FEATURE_SELFOVERLAP>  (1) 
20.297

>  <PUBCHEM_SHAPE_FINGERPRINT>  (1) 
10219947 1 17417812816351348246
10608611 8 18410569587121219037
11471102 20 18343580724586272300
12032990 46 18410299098654676503
124424 183 18335413522313924362
12932764 1 17967530138552504803
13296908 3 18410577283718190863
14144814 61 18411982429492417323
14325111 11 18410573985193759597
15219456 202 18412262835017015820
15775835 57 17989205996734613348
16945 1 18339923697293430510
17844478 74 18334303062909514929
18175812 5 18411418418703173029
18186145 218 18341616966701422285
19973954 147 18410857654888462372
200 152 17774993601293767511
20201158 50 18341895160286390454
20279233 1 18410290302672424135
20528008 55 18411133645576655181
20645464 45 18412266121104866711
20645477 70 18201153239604155663
20871998 184 18269843163123995647
21501502 16 18411136973759597639
23402539 116 18261661636449393687
23402655 69 18272362028119609621
23552423 10 18186804703055686223
23559900 14 18338231541110546186
2748010 2 18410855473018351606
3248919 1 17131838646444162407
57812782 119 18410289203071047581
6333449 129 18408882936679433879
69090 78 18342171172645059887
8809292 202 18334864917377484434

>  <PUBCHEM_SHAPE_MULTIPOLES>  (1) 
236.99
6.16
1.49
0.71
0.18
0.03
-0.02
0.02
0.13
0.08
-0.02
0.09
-0.03
0.59

>  <PUBCHEM_SHAPE_SELFOVERLAP>  (1) 
497.645

>  <PUBCHEM_SHAPE_VOLUME>  (1) 
129

>  <PUBCHEM_COORDINATE_TYPE>  (1) 
2
5
10

$$$$
