18987
     RDKit          3D

 38 43  0  0  0  0  0  0  0  0999 V2000
    2.1161    2.9834   -1.2848 O   0  0  0  0  0  0  0  0  0  0  0  0
   -0.1315    0.5522    2.0756 O   0  0  0  0  0  0  0  0  0  0  0  0
   -2.1161    2.9835    1.2847 O   0  0  0  0  0  0  0  0  0  0  0  0
    0.1315    0.5522   -2.0757 O   0  0  0  0  0  0  0  0  0  0  0  0
    2.6277    1.0144   -0.0471 N   0  0  0  0  0  0  0  0  0  0  0  0
    1.9028    0.2285    0.8817 N   0  0  0  0  0  0  0  0  0  0  0  0
   -2.6276    1.0144    0.0470 N   0  0  0  0  0  0  0  0  0  0  0  0
   -1.9028    0.2285   -0.8816 N   0  0  0  0  0  0  0  0  0  0  0  0
    0.6349    2.1269    0.4159 C   0  0  0  0  0  0  0  0  0  0  0  0
   -0.6349    2.1268   -0.4159 C   0  0  0  0  0  0  0  0  0  0  0  0
    1.8623    2.1136   -0.4646 C   0  0  0  0  0  0  0  0  0  0  0  0
    0.7313    0.8912    1.2790 C   0  0  0  0  0  0  0  0  0  0  0  0
   -1.8623    2.1135    0.4645 C   0  0  0  0  0  0  0  0  0  0  0  0
   -0.7312    0.8911   -1.2790 C   0  0  0  0  0  0  0  0  0  0  0  0
    4.0446    0.9585   -0.2143 C   0  0  0  0  0  0  0  0  0  0  0  0
    2.0776   -1.1786    1.0521 C   0  0  0  0  0  0  0  0  0  0  0  0
   -4.0446    0.9586    0.2143 C   0  0  0  0  0  0  0  0  0  0  0  0
   -2.0776   -1.1786   -1.0519 C   0  0  0  0  0  0  0  0  0  0  0  0
    4.6503    1.6197   -1.2851 C   0  0  0  0  0  0  0  0  0  0  0  0
    1.4509   -1.8398    2.1109 C   0  0  0  0  0  0  0  0  0  0  0  0
   -4.6503    1.6197    1.2851 C   0  0  0  0  0  0  0  0  0  0  0  0
   -1.4510   -1.8399   -2.1109 C   0  0  0  0  0  0  0  0  0  0  0  0
    4.8299    0.2434    0.6924 C   0  0  0  0  0  0  0  0  0  0  0  0
    2.8753   -1.8996    0.1602 C   0  0  0  0  0  0  0  0  0  0  0  0
   -4.8300    0.2433   -0.6925 C   0  0  0  0  0  0  0  0  0  0  0  0
   -2.8753   -1.8996   -0.1602 C   0  0  0  0  0  0  0  0  0  0  0  0
    6.0345    1.5656   -1.4485 C   0  0  0  0  0  0  0  0  0  0  0  0
    1.6212   -3.2142    2.2774 C   0  0  0  0  0  0  0  0  0  0  0  0
   -6.0345    1.5657    1.4485 C   0  0  0  0  0  0  0  0  0  0  0  0
   -1.6212   -3.2143   -2.2773 C   0  0  0  0  0  0  0  0  0  0  0  0
    6.2142    0.1895    0.5290 C   0  0  0  0  0  0  0  0  0  0  0  0
    3.0453   -3.2741    0.3267 C   0  0  0  0  0  0  0  0  0  0  0  0
   -6.2142    0.1895   -0.5291 C   0  0  0  0  0  0  0  0  0  0  0  0
   -3.0453   -3.2740   -0.3267 C   0  0  0  0  0  0  0  0  0  0  0  0
    6.8164    0.8507   -0.5414 C   0  0  0  0  0  0  0  0  0  0  0  0
    2.4182   -3.9313    1.3853 C   0  0  0  0  0  0  0  0  0  0  0  0
   -6.8164    0.8507    0.5414 C   0  0  0  0  0  0  0  0  0  0  0  0
   -2.4183   -3.9313   -1.3852 C   0  0  0  0  0  0  0  0  0  0  0  0
  1 11  2  0
  2 12  2  0
  3 13  2  0
  4 14  2  0
  5  6  1  0
  5 11  1  0
  5 15  1  0
  6 12  1  0
  6 16  1  0
  7  8  1  0
  7 13  1  0
  7 17  1  0
  8 14  1  0
  8 18  1  0
  9 10  1  0
  9 11  1  0
  9 12  1  0
 10 13  1  0
 10 14  1  0
 15 19  2  0
 15 23  1  0
 16 20  2  0
 16 24  1  0
 17 21  2  0
 17 25  1  0
 18 22  2  0
 18 26  1  0
 19 27  1  0
 20 28  1  0
 21 29  1  0
 22 30  1  0
 23 31  2  0
 24 32  2  0
 25 33  2  0
 26 34  2  0
 27 35  2  0
 28 36  2  0
 29 37  2  0
 30 38  2  0
 31 35  1  0
 32 36  1  0
 33 37  1  0
 34 38  1  0
M  END
>  <PUBCHEM_COMPOUND_CID>  (1) 
18987

>  <PUBCHEM_CONFORMER_RMSD>  (1) 
1

>  <PUBCHEM_CONFORMER_DIVERSEORDER>  (1) 
1
9
6
2
7
4
8
5
3

>  <PUBCHEM_MMFF94_PARTIAL_CHARGES>  (1) 
58
1 -0.57
10 0.12
11 0.57
12 0.57
13 0.57
14 0.57
15 0.12
16 0.12
17 0.12
18 0.12
19 -0.15
2 -0.57
20 -0.15
21 -0.15
22 -0.15
23 -0.15
24 -0.15
25 -0.15
26 -0.15
27 -0.15
28 -0.15
29 -0.15
3 -0.57
30 -0.15
31 -0.15
32 -0.15
33 -0.15
34 -0.15
35 -0.15
36 -0.15
37 -0.15
38 -0.15
4 -0.57
41 0.15
42 0.15
43 0.15
44 0.15
45 0.15
46 0.15
47 0.15
48 0.15
49 0.15
5 -0.18
50 0.15
51 0.15
52 0.15
53 0.15
54 0.15
55 0.15
56 0.15
57 0.15
58 0.15
59 0.15
6 -0.18
60 0.15
7 -0.18
8 -0.18
9 0.12

>  <PUBCHEM_EFFECTIVE_ROTOR_COUNT>  (1) 
6.2

>  <PUBCHEM_PHARMACOPHORE_FEATURES>  (1) 
12
1 1 acceptor
1 10 anion
1 2 acceptor
1 3 acceptor
1 4 acceptor
1 9 anion
5 5 6 9 11 12 rings
5 7 8 10 13 14 rings
6 15 19 23 27 31 35 rings
6 16 20 24 28 32 36 rings
6 17 21 25 29 33 37 rings
6 18 22 26 30 34 38 rings

>  <PUBCHEM_HEAVY_ATOM_COUNT>  (1) 
38

>  <PUBCHEM_ATOM_DEF_STEREO_COUNT>  (1) 
0

>  <PUBCHEM_ATOM_UDEF_STEREO_COUNT>  (1) 
0

>  <PUBCHEM_BOND_DEF_STEREO_COUNT>  (1) 
0

>  <PUBCHEM_BOND_UDEF_STEREO_COUNT>  (1) 
0

>  <PUBCHEM_ISOTOPIC_ATOM_COUNT>  (1) 
0

>  <PUBCHEM_COMPONENT_COUNT>  (1) 
1

>  <PUBCHEM_CACTVS_TAUTO_COUNT>  (1) 
3

>  <PUBCHEM_CONFORMER_ID>  (1) 
00004A2B00000001

>  <PUBCHEM_MMFF94_ENERGY>  (1) 
161.6512

>  <PUBCHEM_FEATURE_SELFOVERLAP>  (1) 
61.914

>  <PUBCHEM_SHAPE_FINGERPRINT>  (1) 
10190108 129 17972328571207140195
10369192 42 16660650695366996492
11135609 187 18115027536740562388
11135926 11 18262224565471544270
11421498 54 18340489950615565944
12788726 201 17917713444494774961
14840074 17 18261112971731545149
15297060 5 17775289365374133363
19311894 1 18198623426552307254
19319366 153 18261109643158602338
21033648 29 15051718781701268617
23559900 14 15985096427461450897
3383291 50 17987797540084324063
463206 1 18409444808664668242
563151 248 18339935882273956986
563151 40 18335994154758882398

>  <PUBCHEM_SHAPE_MULTIPOLES>  (1) 
738.62
13.46
4.43
1.96
0
4.5
0
-6.35
0
0
0
0
1.02
-3.88

>  <PUBCHEM_SHAPE_SELFOVERLAP>  (1) 
1656.297

>  <PUBCHEM_SHAPE_VOLUME>  (1) 
385

>  <PUBCHEM_COORDINATE_TYPE>  (1) 
2
5
10

$$$$
