1898
     RDKit          3D

 23 22  0  0  1  0  0  0  0  0999 V2000
   -5.2055    1.1611    0.7641 O   0  0  0  0  0  0  0  0  0  0  0  0
    0.8309   -0.1514   -2.7132 O   0  0  0  0  0  0  0  0  0  0  0  0
    1.6250   -1.9876   -1.6295 O   0  0  0  0  0  0  0  0  0  0  0  0
    3.9396    0.1564    0.3943 C   0  0  0  0  0  0  0  0  0  0  0  0
    5.0493   -0.3509    1.3210 C   0  0  0  0  0  0  0  0  0  0  0  0
    3.8670    1.6857    0.3275 C   0  0  0  0  0  0  0  0  0  0  0  0
    5.0730   -1.8783    1.3785 C   0  0  0  0  0  0  0  0  0  0  0  0
   -2.6051   -3.1228   -0.9210 C   0  0  0  0  0  0  0  0  0  0  0  0
   -1.1340   -2.8959   -1.2935 C   0  0  0  0  0  0  0  0  0  0  0  0
    2.7950    2.1788   -0.6008 C   0  0  0  0  0  0  0  0  0  0  0  0
    6.1497   -2.3808    2.3274 C   0  0  0  0  0  0  0  0  0  0  0  0
   -4.4012   -0.9025    1.7559 C   0  0  0  0  0  0  0  0  0  0  0  0
   -4.2789    0.6295    1.7078 C   0  0  0  0  0  0  0  0  0  0  0  0
   -3.0044   -2.4599    0.3659 C   0  0  0  0  0  0  0  0  0  0  0  0
   -0.7468   -1.4343   -1.5294 C   0  0  0  0  0  0  0  0  0  0  0  0
   -4.0082   -1.5761    0.4682 C   0  0  0  0  0  0  0  0  0  0  0  0
    1.7747    2.9576   -0.2107 C   0  0  0  0  0  0  0  0  0  0  0  0
    0.7104    3.4681   -1.1380 C   0  0  0  0  0  0  0  0  0  0  0  0
   -2.8692    1.0895    1.4293 C   0  0  0  0  0  0  0  0  0  0  0  0
   -0.6893    2.9942   -0.8418 C   0  0  0  0  0  0  0  0  0  0  0  0
   -2.4712    1.8439    0.3927 C   0  0  0  0  0  0  0  0  0  0  0  0
    0.6931   -1.2641   -1.9476 C   0  0  0  0  0  0  0  0  0  0  0  0
   -1.0939    2.2398    0.1929 C   0  0  0  0  0  0  0  0  0  0  0  0
  1 13  1  0
  2 22  1  0
  3 22  2  0
  4  5  1  0
  4  6  1  0
  5  7  1  0
  6 10  1  0
  7 11  1  0
  8  9  1  0
  8 14  1  0
  9 15  1  0
 10 17  2  0
 12 13  1  0
 12 16  1  0
 13 19  1  0
 14 16  2  0
 15 22  1  0
 17 18  1  0
 18 20  1  0
 19 21  2  0
 20 23  2  0
 21 23  1  0
M  END
>  <PUBCHEM_COMPOUND_CID>  (1) 
1898

>  <PUBCHEM_CONFORMER_RMSD>  (1) 
1.6

>  <PUBCHEM_CONFORMER_DIVERSEORDER>  (1) 
1
18
5
15
52
70
51
54
45
17
35
21
24
10
48
3
68
60
38
47
25
56
27
32
53
30
41
39
12
13
42
37
23
63
8
22
44
43
4
6
55
36
31
16
67
20
29
59
57
40
62
66
19
9
34
61
46
26
33
7
49
65
11
69
50
64
28
58
2
14

>  <PUBCHEM_MMFF94_PARTIAL_CHARGES>  (1) 
28
1 -0.68
10 -0.29
12 0.14
13 0.42
14 -0.29
15 0.06
16 -0.29
17 -0.29
18 0.28
19 -0.29
2 -0.65
20 -0.29
21 -0.15
22 0.66
23 -0.15
3 -0.57
36 0.15
43 0.15
46 0.15
47 0.15
50 0.15
51 0.15
52 0.15
53 0.15
54 0.4
55 0.5
6 0.14
8 0.14

>  <PUBCHEM_EFFECTIVE_ROTOR_COUNT>  (1) 
14

>  <PUBCHEM_PHARMACOPHORE_FEATURES>  (1) 
8
1 1 acceptor
1 1 donor
1 11 hydrophobe
1 2 acceptor
1 3 acceptor
3 2 3 22 anion
4 8 9 14 15 hydrophobe
5 4 5 6 7 10 hydrophobe

>  <PUBCHEM_HEAVY_ATOM_COUNT>  (1) 
23

>  <PUBCHEM_ATOM_DEF_STEREO_COUNT>  (1) 
0

>  <PUBCHEM_ATOM_UDEF_STEREO_COUNT>  (1) 
1

>  <PUBCHEM_BOND_DEF_STEREO_COUNT>  (1) 
0

>  <PUBCHEM_BOND_UDEF_STEREO_COUNT>  (1) 
4

>  <PUBCHEM_ISOTOPIC_ATOM_COUNT>  (1) 
0

>  <PUBCHEM_COMPONENT_COUNT>  (1) 
1

>  <PUBCHEM_CACTVS_TAUTO_COUNT>  (1) 
1

>  <PUBCHEM_CONFORMER_ID>  (1) 
0000076A00000001

>  <PUBCHEM_MMFF94_ENERGY>  (1) 
6.4548

>  <PUBCHEM_FEATURE_SELFOVERLAP>  (1) 
40.654

>  <PUBCHEM_SHAPE_FINGERPRINT>  (1) 
11756154 5 17690837862242658106
12174731 88 18261945254973988474
12422481 6 18202002101594031210
12633257 1 18412267224737342982
14950920 106 18261950872733650274
15403338 16 18113609119084387667
16110190 28 18341610443400785776
16120349 306 17983303912790460737
21315764 21 17401450112198581261
21795232 338 18200859731379282330
3052486 1 18125182638391492660
7064713 232 17988937677316843481

>  <PUBCHEM_SHAPE_MULTIPOLES>  (1) 
455.72
11.47
4.74
2.25
9.18
1.04
-0.4
-6.42
10.59
0.64
-1.22
0.54
-1.28
-2.99

>  <PUBCHEM_SHAPE_SELFOVERLAP>  (1) 
860.507

>  <PUBCHEM_SHAPE_VOLUME>  (1) 
279.7

>  <PUBCHEM_COORDINATE_TYPE>  (1) 
2
5
10

$$$$
