18983
     RDKit          3D

 10 10  0  0  0  0  0  0  0  0999 V2000
   -0.4775   -2.3115   -0.1583 O   0  0  0  0  0  0  0  0  0  0  0  0
   -0.4343    2.3090   -0.1588 O   0  0  0  0  0  0  0  0  0  0  0  0
   -0.1143   -0.0040   -0.2706 N   0  0  0  0  0  0  0  0  0  0  0  0
   -2.2453   -0.7444    0.3100 C   0  0  0  0  0  0  0  0  0  0  0  0
   -2.2329    0.7751    0.3070 C   0  0  0  0  0  0  0  0  0  0  0  0
    1.2870   -0.0073   -0.6452 C   0  0  0  0  0  0  0  0  0  0  0  0
   -0.8493   -1.1497   -0.0665 C   0  0  0  0  0  0  0  0  0  0  0  0
   -0.8293    1.1550   -0.0665 C   0  0  0  0  0  0  0  0  0  0  0  0
    2.2115   -0.0203    0.5663 C   0  0  0  0  0  0  0  0  0  0  0  0
    3.6844   -0.0018    0.1825 C   0  0  0  0  0  0  0  0  0  0  0  0
  1  7  2  0
  2  8  2  0
  3  6  1  0
  3  7  1  0
  3  8  1  0
  4  5  1  0
  4  7  1  0
  5  8  1  0
  6  9  1  0
  9 10  1  0
M  END
>  <PUBCHEM_COMPOUND_CID>  (1) 
18983

>  <PUBCHEM_CONFORMER_RMSD>  (1) 
0.6

>  <PUBCHEM_CONFORMER_DIVERSEORDER>  (1) 
1
2
3

>  <PUBCHEM_MMFF94_PARTIAL_CHARGES>  (1) 
8
1 -0.57
2 -0.57
3 -0.42
4 0.06
5 0.06
6 0.3
7 0.57
8 0.57

>  <PUBCHEM_EFFECTIVE_ROTOR_COUNT>  (1) 
2.6

>  <PUBCHEM_PHARMACOPHORE_FEATURES>  (1) 
4
1 1 acceptor
1 10 hydrophobe
1 2 acceptor
5 3 4 5 7 8 rings

>  <PUBCHEM_HEAVY_ATOM_COUNT>  (1) 
10

>  <PUBCHEM_ATOM_DEF_STEREO_COUNT>  (1) 
0

>  <PUBCHEM_ATOM_UDEF_STEREO_COUNT>  (1) 
0

>  <PUBCHEM_BOND_DEF_STEREO_COUNT>  (1) 
0

>  <PUBCHEM_BOND_UDEF_STEREO_COUNT>  (1) 
0

>  <PUBCHEM_ISOTOPIC_ATOM_COUNT>  (1) 
0

>  <PUBCHEM_COMPONENT_COUNT>  (1) 
1

>  <PUBCHEM_CACTVS_TAUTO_COUNT>  (1) 
3

>  <PUBCHEM_CONFORMER_ID>  (1) 
00004A2700000001

>  <PUBCHEM_MMFF94_ENERGY>  (1) 
3.0337

>  <PUBCHEM_FEATURE_SELFOVERLAP>  (1) 
20.297

>  <PUBCHEM_SHAPE_FINGERPRINT>  (1) 
10857977 72 18412259570836693793
13024252 1 15502372313995461465
15076042 46 18191014621657236970
18185500 45 18190461760339361526
193761 8 17762339519300851015
20645464 45 18060421300673315870
20653085 51 14189577446501887962
20871998 184 18272092759202635734
21040471 1 18266189322438008821
23552423 10 17470172917133464037
2748010 2 18194701267160492383
369184 2 18412257337617100090
5084963 1 18130789997379427800
54338 74 18265881622269682347
75552 356 18410574024122654944

>  <PUBCHEM_SHAPE_MULTIPOLES>  (1) 
189.08
4.06
1.83
0.7
3.97
0
0.01
-0.01
0.73
-0.93
-0.13
0.11
0
0

>  <PUBCHEM_SHAPE_SELFOVERLAP>  (1) 
376.094

>  <PUBCHEM_SHAPE_VOLUME>  (1) 
114.5

>  <PUBCHEM_COORDINATE_TYPE>  (1) 
2
5
10

$$$$
