18986
     RDKit          3D

 15 16  0  0  0  0  0  0  0  0999 V2000
    3.0968    1.7425   -0.0465 O   0  0  0  0  0  0  0  0  0  0  0  0
   -3.9423    1.7917    0.1087 O   0  0  0  0  0  0  0  0  0  0  0  0
   -2.7069    0.7063   -1.4564 O   0  0  0  0  0  0  0  0  0  0  0  0
   -0.2355   -2.6110   -0.0071 N   0  0  0  0  0  0  0  0  0  0  0  0
    0.1585   -0.4308    0.2547 C   0  0  0  0  0  0  0  0  0  0  0  0
   -1.2161   -0.6897    0.5162 C   0  0  0  0  0  0  0  0  0  0  0  0
    0.7509   -1.6528   -0.0715 C   0  0  0  0  0  0  0  0  0  0  0  0
   -1.4276   -2.0386    0.3475 C   0  0  0  0  0  0  0  0  0  0  0  0
   -2.2402    0.3033    0.8993 C   0  0  0  0  0  0  0  0  0  0  0  0
    0.9581    0.7294    0.2639 C   0  0  0  0  0  0  0  0  0  0  0  0
    2.1083   -1.7728   -0.3901 C   0  0  0  0  0  0  0  0  0  0  0  0
    2.3174    0.6244   -0.0528 C   0  0  0  0  0  0  0  0  0  0  0  0
    2.8816   -0.6085   -0.3744 C   0  0  0  0  0  0  0  0  0  0  0  0
   -2.9637    0.9333   -0.2821 C   0  0  0  0  0  0  0  0  0  0  0  0
    2.4606    2.9733    0.2906 C   0  0  0  0  0  0  0  0  0  0  0  0
  1 12  1  0
  1 15  1  0
  2 14  1  0
  3 14  2  0
  4  7  1  0
  4  8  1  0
  5  6  1  0
  5  7  2  0
  5 10  1  0
  6  8  2  0
  6  9  1  0
  7 11  1  0
  9 14  1  0
 10 12  2  0
 11 13  2  0
 12 13  1  0
M  END
>  <PUBCHEM_COMPOUND_CID>  (1) 
18986

>  <PUBCHEM_CONFORMER_RMSD>  (1) 
0.6

>  <PUBCHEM_CONFORMER_DIVERSEORDER>  (1) 
1
6
7
12
9
8
11
5
10
2
3
4

>  <PUBCHEM_MMFF94_PARTIAL_CHARGES>  (1) 
20
1 -0.36
10 -0.15
11 -0.15
12 0.08
13 -0.15
14 0.66
15 0.28
16 0.15
17 0.27
2 -0.65
20 0.15
21 0.15
22 0.15
26 0.5
3 -0.57
4 0.03
6 -0.18
7 -0.15
8 -0.3
9 0.24

>  <PUBCHEM_EFFECTIVE_ROTOR_COUNT>  (1) 
3

>  <PUBCHEM_PHARMACOPHORE_FEATURES>  (1) 
8
1 1 acceptor
1 2 acceptor
1 3 acceptor
1 4 cation
1 4 donor
3 2 3 14 anion
5 4 5 6 7 8 rings
6 5 7 10 11 12 13 rings

>  <PUBCHEM_HEAVY_ATOM_COUNT>  (1) 
15

>  <PUBCHEM_ATOM_DEF_STEREO_COUNT>  (1) 
0

>  <PUBCHEM_ATOM_UDEF_STEREO_COUNT>  (1) 
0

>  <PUBCHEM_BOND_DEF_STEREO_COUNT>  (1) 
0

>  <PUBCHEM_BOND_UDEF_STEREO_COUNT>  (1) 
0

>  <PUBCHEM_ISOTOPIC_ATOM_COUNT>  (1) 
0

>  <PUBCHEM_COMPONENT_COUNT>  (1) 
1

>  <PUBCHEM_CACTVS_TAUTO_COUNT>  (1) 
1

>  <PUBCHEM_CONFORMER_ID>  (1) 
00004A2A00000001

>  <PUBCHEM_MMFF94_ENERGY>  (1) 
33.0078

>  <PUBCHEM_FEATURE_SELFOVERLAP>  (1) 
40.745

>  <PUBCHEM_SHAPE_FINGERPRINT>  (1) 
1 1 18336264518486237375
10608611 8 18410015476199547224
10967382 1 18267027163262364786
11471102 20 18194120716251607429
12654215 9 18118405046848844158
12730499 353 18116435835215598573
13294875 104 17969765402784519810
13380536 305 18338801095937522866
13380536 55 18268138949880656286
13897977 150 18410856572551234129
14614273 12 18050852409500278642
14648413 74 18410580604070782778
14911166 2 18268441139674572326
15279308 100 18409739460469102766
16945 1 18268720424022769994
18186145 218 18272098153681130545
18219364 16 18336845125013049321
20233049 118 18116441345199515334
20606313 2 18195246620105394102
21029758 11 18125445211707613342
21041028 32 17256247043002648219
21501502 16 18337949094827628950
21524375 3 18333445448002961147
21639500 275 18338226064451873781
21947302 44 18412823573115040210
2334 1 18268154343117083826
23402539 116 17912358737147598494
23559900 14 18199767942081235364
238 59 17756951603129679093
25 1 18264491685064237639
2748010 2 18268162005370505190
3060560 45 18197492922624905927
350125 39 18266190589342818730
3524813 1 18042120968615808357
474 4 18340768144062785873
74978 22 18411703183857207098
8050 44 18339077210779301824
81228 2 17825116058464155059
84936 182 18130499760569850297

>  <PUBCHEM_SHAPE_MULTIPOLES>  (1) 
286.1
5.35
2.87
0.83
1.91
0.39
0.11
3.73
0.6
-1.06
-0.1
0.42
0.08
0.58

>  <PUBCHEM_SHAPE_SELFOVERLAP>  (1) 
618.751

>  <PUBCHEM_SHAPE_VOLUME>  (1) 
158.7

>  <PUBCHEM_COORDINATE_TYPE>  (1) 
2
5
10

$$$$
