18995
     RDKit          3D

 21 21  0  0  1  0  0  0  0  0999 V2000
    1.4874    1.9411    0.2036 O   0  0  0  0  0  0  0  0  0  0  0  0
    1.8568   -1.0938   -0.4982 O   0  0  0  0  0  0  0  0  0  0  0  0
    3.8336    1.7301   -1.6507 O   0  0  0  0  0  0  0  0  0  0  0  0
   -0.5182   -1.7697    2.7678 O   0  0  0  0  0  0  0  0  0  0  0  0
    1.6003   -2.1509    2.0377 O   0  0  0  0  0  0  0  0  0  0  0  0
   -1.3958    1.8939    0.5287 C   0  0  0  0  0  0  0  0  0  0  0  0
   -0.4979    3.0581    0.9446 C   0  0  0  0  0  0  0  0  0  0  0  0
   -2.8005    2.3302    0.1032 C   0  0  0  0  0  0  0  0  0  0  0  0
    0.8963    2.5792    1.3272 C   0  0  0  0  0  0  0  0  0  0  0  0
   -3.7068    1.1627   -0.2894 C   0  0  0  0  0  0  0  0  0  0  0  0
    3.3732    0.7522   -0.7154 C   0  0  0  0  0  0  0  0  0  0  0  0
    2.7956    1.4704    0.4989 C   0  0  0  0  0  0  0  0  0  0  0  0
    2.3212   -0.1031   -1.4091 C   0  0  0  0  0  0  0  0  0  0  0  0
   -5.0637    1.6525   -0.7724 C   0  0  0  0  0  0  0  0  0  0  0  0
    0.5579   -1.5028   -0.6428 C   0  0  0  0  0  0  0  0  0  0  0  0
   -0.1826   -1.9375    0.4566 C   0  0  0  0  0  0  0  0  0  0  0  0
   -0.0242   -1.4796   -1.9103 C   0  0  0  0  0  0  0  0  0  0  0  0
   -1.5048   -2.3487    0.2885 C   0  0  0  0  0  0  0  0  0  0  0  0
   -1.3465   -1.8906   -2.0784 C   0  0  0  0  0  0  0  0  0  0  0  0
   -2.0867   -2.3252   -0.9790 C   0  0  0  0  0  0  0  0  0  0  0  0
    0.4053   -1.9686    1.7887 C   0  0  0  0  0  0  0  0  0  0  0  0
  1  9  1  0
  1 12  1  0
  2 13  1  0
  2 15  1  0
  3 11  1  0
  4 21  1  0
  5 21  2  0
  6  7  1  0
  6  8  1  0
  7  9  1  0
  8 10  1  0
 10 14  1  0
 11 12  1  0
 11 13  1  0
 15 16  2  0
 15 17  1  0
 16 18  1  0
 16 21  1  0
 17 19  2  0
 18 20  2  0
 19 20  1  0
M  END
>  <PUBCHEM_COMPOUND_CID>  (1) 
18995

>  <PUBCHEM_CONFORMER_RMSD>  (1) 
1

>  <PUBCHEM_CONFORMER_DIVERSEORDER>  (1) 
1
40
95
8
117
52
88
140
97
5
50
75
118
116
123
48
101
76
130
67
79
110
121
54
68
127
14
108
122
44
73
126
124
46
105
13
96
36
53
25
19
133
78
82
16
139
131
89
57
111
26
113
31
33
81
138
145
41
87
62
100
86
80
115
38
37
125
94
114
55
2
85
92
98
61
23
6
59
107
72
104
71
141
20
142
30
109
22
83
17
119
102
90
35
134
9
93
64
77
39
112
3
15
10
99
128
32
132
21
143
47
43
18
91
135
49
70
106
120
129
27
137
136
11
56
144
34
84
103
51
29
146
69
4
66
63
60
74
58
65
28
24
12
45
42
7

>  <PUBCHEM_MMFF94_PARTIAL_CHARGES>  (1) 
22
1 -0.56
11 0.28
12 0.28
13 0.28
15 0.08
16 0.09
17 -0.15
18 -0.15
19 -0.15
2 -0.36
20 -0.15
21 0.63
3 -0.68
4 -0.65
40 0.4
41 0.15
42 0.15
43 0.15
44 0.15
45 0.5
5 -0.57
9 0.28

>  <PUBCHEM_EFFECTIVE_ROTOR_COUNT>  (1) 
11

>  <PUBCHEM_PHARMACOPHORE_FEATURES>  (1) 
10
1 1 acceptor
1 14 hydrophobe
1 2 acceptor
1 3 acceptor
1 3 donor
1 4 acceptor
1 5 acceptor
3 4 5 21 anion
4 6 7 8 10 hydrophobe
6 15 16 17 18 19 20 rings

>  <PUBCHEM_HEAVY_ATOM_COUNT>  (1) 
21

>  <PUBCHEM_ATOM_DEF_STEREO_COUNT>  (1) 
0

>  <PUBCHEM_ATOM_UDEF_STEREO_COUNT>  (1) 
1

>  <PUBCHEM_BOND_DEF_STEREO_COUNT>  (1) 
0

>  <PUBCHEM_BOND_UDEF_STEREO_COUNT>  (1) 
0

>  <PUBCHEM_ISOTOPIC_ATOM_COUNT>  (1) 
0

>  <PUBCHEM_COMPONENT_COUNT>  (1) 
1

>  <PUBCHEM_CACTVS_TAUTO_COUNT>  (1) 
1

>  <PUBCHEM_CONFORMER_ID>  (1) 
00004A3300000001

>  <PUBCHEM_MMFF94_ENERGY>  (1) 
48.4032

>  <PUBCHEM_FEATURE_SELFOVERLAP>  (1) 
50.81

>  <PUBCHEM_SHAPE_FINGERPRINT>  (1) 
104564 63 18052829323128653196
12400796 359 17404556910661250571
14251757 17 17916868048743680573
15848702 105 18411702067228753967
17492 54 18342182141785968125
23419403 2 17259125753238312030
23558518 356 17906153394004688885
238 59 18121517768541362257
2803657 2 17836037331062810949
3052486 1 18264754618493331096
35225 105 17607564411216810643
3797600 57 18265895757402738165

>  <PUBCHEM_SHAPE_MULTIPOLES>  (1) 
402.82
5.71
4.16
2.1
3.97
0.81
-0.78
4.57
2.76
1.07
-0.81
-0.82
-1.43
-0.71

>  <PUBCHEM_SHAPE_SELFOVERLAP>  (1) 
804.469

>  <PUBCHEM_SHAPE_VOLUME>  (1) 
237.9

>  <PUBCHEM_COORDINATE_TYPE>  (1) 
2
5
10

$$$$
