18990
     RDKit          3D

 22 23  0  0  0  0  0  0  0  0999 V2000
   -3.0107   -2.1005   -0.9743 O   0  0  0  0  0  0  0  0  0  0  0  0
   -3.0075    2.1029    0.9748 O   0  0  0  0  0  0  0  0  0  0  0  0
    1.0466   -3.4959    0.3677 O   0  0  0  0  0  0  0  0  0  0  0  0
    1.0516    3.4932   -0.3703 O   0  0  0  0  0  0  0  0  0  0  0  0
    2.9724   -2.4479    0.2574 O   0  0  0  0  0  0  0  0  0  0  0  0
    2.9758    2.4426   -0.2581 O   0  0  0  0  0  0  0  0  0  0  0  0
    3.1507   -0.0025    0.0015 N   0  0  0  0  0  0  0  0  0  0  0  0
   -2.4880    0.0010   -0.0001 N   0  0  0  0  0  0  0  0  0  0  0  0
    1.7193   -2.4445    0.2572 N   0  0  0  0  0  0  0  0  0  0  0  0
    1.7227    2.4409   -0.2586 N   0  0  0  0  0  0  0  0  0  0  0  0
    1.7343   -0.0017   -0.0001 C   0  0  0  0  0  0  0  0  0  0  0  0
   -1.0556    0.0001   -0.0005 C   0  0  0  0  0  0  0  0  0  0  0  0
    1.0359   -1.2026    0.1267 C   0  0  0  0  0  0  0  0  0  0  0  0
    1.0375    1.2001   -0.1270 C   0  0  0  0  0  0  0  0  0  0  0  0
   -0.3590   -1.2016    0.1264 C   0  0  0  0  0  0  0  0  0  0  0  0
   -0.3574    1.2008   -0.1274 C   0  0  0  0  0  0  0  0  0  0  0  0
   -3.2846   -1.0293   -0.4581 C   0  0  0  0  0  0  0  0  0  0  0  0
   -3.2829    1.0322    0.4584 C   0  0  0  0  0  0  0  0  0  0  0  0
    3.8799   -0.1348   -1.2405 C   0  0  0  0  0  0  0  0  0  0  0  0
    3.8772    0.1431    1.2437 C   0  0  0  0  0  0  0  0  0  0  0  0
   -4.6794   -0.6073   -0.2643 C   0  0  0  0  0  0  0  0  0  0  0  0
   -4.6784    0.6120    0.2654 C   0  0  0  0  0  0  0  0  0  0  0  0
  1 17  2  0
  2 18  2  0
  3  9  1  0
  4 10  1  0
  5  9  2  0
  6 10  2  0
  7 11  1  0
  7 19  1  0
  7 20  1  0
  8 12  1  0
  8 17  1  0
  8 18  1  0
  9 13  1  0
 10 14  1  0
 11 13  2  0
 11 14  1  0
 12 15  2  0
 12 16  1  0
 13 15  1  0
 14 16  2  0
 17 21  1  0
 18 22  1  0
 21 22  2  0
M  CHG  4   3  -1   4  -1   9   1  10   1
M  END
>  <PUBCHEM_COMPOUND_CID>  (1) 
18990

>  <PUBCHEM_CONFORMER_RMSD>  (1) 
0.6

>  <PUBCHEM_CONFORMER_DIVERSEORDER>  (1) 
1
2
3

>  <PUBCHEM_MMFF94_PARTIAL_CHARGES>  (1) 
26
1 -0.57
10 0.91
11 0.1
12 0.12
13 0.13
14 0.13
15 -0.15
16 -0.15
17 0.62
18 0.62
19 0.37
2 -0.57
20 0.37
21 -0.14
22 -0.14
23 0.15
24 0.15
3 -0.52
31 0.15
32 0.15
4 -0.52
5 -0.52
6 -0.52
7 -0.84
8 -0.24
9 0.91

>  <PUBCHEM_EFFECTIVE_ROTOR_COUNT>  (1) 
4.2

>  <PUBCHEM_PHARMACOPHORE_FEATURES>  (1) 
11
1 1 acceptor
1 2 acceptor
1 3 acceptor
1 3 anion
1 4 acceptor
1 4 anion
1 5 acceptor
1 6 acceptor
1 7 cation
5 8 17 18 21 22 rings
6 11 12 13 14 15 16 rings

>  <PUBCHEM_HEAVY_ATOM_COUNT>  (1) 
22

>  <PUBCHEM_ATOM_DEF_STEREO_COUNT>  (1) 
0

>  <PUBCHEM_ATOM_UDEF_STEREO_COUNT>  (1) 
0

>  <PUBCHEM_BOND_DEF_STEREO_COUNT>  (1) 
0

>  <PUBCHEM_BOND_UDEF_STEREO_COUNT>  (1) 
0

>  <PUBCHEM_ISOTOPIC_ATOM_COUNT>  (1) 
0

>  <PUBCHEM_COMPONENT_COUNT>  (1) 
1

>  <PUBCHEM_CACTVS_TAUTO_COUNT>  (1) 
1

>  <PUBCHEM_CONFORMER_ID>  (1) 
00004A2E00000001

>  <PUBCHEM_MMFF94_ENERGY>  (1) 
107.8345

>  <PUBCHEM_FEATURE_SELFOVERLAP>  (1) 
55.988

>  <PUBCHEM_SHAPE_FINGERPRINT>  (1) 
10366900 7 17968104131120097241
10411042 1 18120934997424918810
10616163 171 18342739658801114111
10967382 1 18409730651148287114
10980938 120 18336548209481300514
12553582 1 18337107869510664287
13140716 1 18264766747485821168
138480 1 18337390427119781250
14178342 30 18341036441715523914
14787075 74 17702087278473396544
14790565 3 18336276720895007588
14844126 61 16531152058004362099
15042514 8 16390425543401250954
15442244 35 18268149751818026481
15536298 74 18272652346080132226
1601671 61 18408605833874065476
16945 1 18408885139617803012
17492 89 18340488992563545279
18186145 218 18336824294342587749
19591789 44 18409733967200695390
20645477 70 18260821631520682943
21267235 1 18412554201599133103
21421861 104 17753891610703356586
21634736 98 18341895250665170863
221490 88 18335991964193588795
2255824 54 18335142050242433532
22854114 111 18409451422861764253
2334 1 17976823416888670888
23402539 116 18342453738722662518
23558518 356 17755863374417977050
23559900 14 18201434753156099475
2748010 2 17904473005134611004
3060560 45 18410012160875308534
34934 24 18338791213433818703
352729 6 17760370293864695398
4409770 3 17036689950907648181
474 4 18263644124802873673
5104073 3 18339081605179517577
633830 44 18341053020320850645
6992083 37 17981898445241496009
7097593 13 18341051805272405763
7364860 26 18410573989462242693
7832392 63 18340489945998103953
8272917 22 18410579461604194183
84936 182 18128536161620025561
9709674 26 18409452501025513475
9981440 41 17473817806669899385

>  <PUBCHEM_SHAPE_MULTIPOLES>  (1) 
397.61
8.11
3.16
0.86
5.12
0.01
0
-0.01
0
-1.83
0
-0.34
0
-0.97

>  <PUBCHEM_SHAPE_SELFOVERLAP>  (1) 
866.761

>  <PUBCHEM_SHAPE_VOLUME>  (1) 
214

>  <PUBCHEM_COORDINATE_TYPE>  (1) 
2
5
10

$$$$
