18991
     RDKit          3D

 26 28  0  0  1  0  0  0  0  0999 V2000
    0.8634   -2.1516    0.2715 O   0  0  0  0  0  0  0  0  0  0  0  0
    3.5968   -2.0127    0.1945 O   0  0  0  0  0  0  0  0  0  0  0  0
    4.8522    0.3665   -0.4441 O   0  0  0  0  0  0  0  0  0  0  0  0
   -5.0502   -1.1970   -1.1206 O   0  0  0  0  0  0  0  0  0  0  0  0
   -4.5011   -0.8800    1.5545 O   0  0  0  0  0  0  0  0  0  0  0  0
    0.1219    1.7889    2.3703 N   0  0  0  0  0  0  0  0  0  0  0  0
   -0.8460    2.1639    1.3279 C   0  0  0  0  0  0  0  0  0  0  0  0
   -0.2236    3.1711    0.3276 C   0  0  0  0  0  0  0  0  0  0  0  0
    0.5264    2.6295   -0.8964 C   0  0  0  0  0  0  0  0  0  0  0  0
    1.3401    1.3929   -0.6262 C   0  0  0  0  0  0  0  0  0  0  0  0
   -1.5500    0.9489    0.7032 C   0  0  0  0  0  0  0  0  0  0  0  0
    0.6942    0.1787   -0.3134 C   0  0  0  0  0  0  0  0  0  0  0  0
   -0.7946    0.1277   -0.2552 C   0  0  0  0  0  0  0  0  0  0  0  0
    1.4629   -0.9609   -0.0292 C   0  0  0  0  0  0  0  0  0  0  0  0
    2.7397    1.4402   -0.6639 C   0  0  0  0  0  0  0  0  0  0  0  0
   -2.7965    0.6763    1.1329 C   0  0  0  0  0  0  0  0  0  0  0  0
   -1.3464   -0.6451   -1.2109 C   0  0  0  0  0  0  0  0  0  0  0  0
    2.8555   -0.8990   -0.0712 C   0  0  0  0  0  0  0  0  0  0  0  0
    3.4924    0.2983   -0.3897 C   0  0  0  0  0  0  0  0  0  0  0  0
   -3.7143   -0.4155    0.7317 C   0  0  0  0  0  0  0  0  0  0  0  0
   -2.7362   -0.8649   -1.5156 C   0  0  0  0  0  0  0  0  0  0  0  0
   -3.7878   -0.8244   -0.6895 C   0  0  0  0  0  0  0  0  0  0  0  0
    0.5838   -2.4039    1.6455 C   0  0  0  0  0  0  0  0  0  0  0  0
    4.5057   -1.9382    1.2900 C   0  0  0  0  0  0  0  0  0  0  0  0
    5.4646    0.0893   -1.7017 C   0  0  0  0  0  0  0  0  0  0  0  0
   -5.7528   -0.0793   -1.6220 C   0  0  0  0  0  0  0  0  0  0  0  0
  1 14  1  0
  1 23  1  0
  2 18  1  0
  2 24  1  0
  3 19  1  0
  3 25  1  0
  4 22  1  0
  4 26  1  0
  5 20  2  0
  6  7  1  0
  7  8  1  0
  7 11  1  0
  8  9  1  0
  9 10  1  0
 10 12  2  0
 10 15  1  0
 11 13  1  0
 11 16  2  0
 12 13  1  0
 12 14  1  0
 13 17  2  0
 14 18  2  0
 15 19  2  0
 16 20  1  0
 17 21  1  0
 18 19  1  0
 20 22  1  0
 21 22  2  0
M  END
>  <PUBCHEM_COMPOUND_CID>  (1) 
18991

>  <PUBCHEM_CONFORMER_RMSD>  (1) 
0.8

>  <PUBCHEM_CONFORMER_DIVERSEORDER>  (1) 
1
11
13
7
4
5
8
3
9
12
6
10
2

>  <PUBCHEM_MMFF94_PARTIAL_CHARGES>  (1) 
31
1 -0.36
10 -0.14
11 -0.14
12 0.03
13 -0.03
14 0.08
15 -0.15
16 -0.14
17 -0.15
18 0.08
19 0.08
2 -0.36
20 0.54
21 -0.15
22 0.09
23 0.28
24 0.28
25 0.28
26 0.28
3 -0.36
32 0.15
33 0.15
34 0.36
35 0.36
36 0.15
37 0.15
4 -0.36
5 -0.57
6 -0.99
7 0.41
9 0.14

>  <PUBCHEM_EFFECTIVE_ROTOR_COUNT>  (1) 
4.6

>  <PUBCHEM_PHARMACOPHORE_FEATURES>  (1) 
10
1 1 acceptor
1 2 acceptor
1 3 acceptor
1 4 acceptor
1 5 acceptor
1 6 cation
1 6 donor
6 10 12 14 15 18 19 rings
7 11 13 16 17 20 21 22 rings
7 7 8 9 10 11 12 13 rings

>  <PUBCHEM_HEAVY_ATOM_COUNT>  (1) 
26

>  <PUBCHEM_ATOM_DEF_STEREO_COUNT>  (1) 
1

>  <PUBCHEM_ATOM_UDEF_STEREO_COUNT>  (1) 
0

>  <PUBCHEM_BOND_DEF_STEREO_COUNT>  (1) 
0

>  <PUBCHEM_BOND_UDEF_STEREO_COUNT>  (1) 
0

>  <PUBCHEM_ISOTOPIC_ATOM_COUNT>  (1) 
0

>  <PUBCHEM_COMPONENT_COUNT>  (1) 
1

>  <PUBCHEM_CACTVS_TAUTO_COUNT>  (1) 
1

>  <PUBCHEM_CONFORMER_ID>  (1) 
00004A2F00000001

>  <PUBCHEM_MMFF94_ENERGY>  (1) 
130.8312

>  <PUBCHEM_FEATURE_SELFOVERLAP>  (1) 
50.778

>  <PUBCHEM_SHAPE_FINGERPRINT>  (1) 
11135609 187 18260547879037953092
11578080 2 18127945599390761273
12236239 1 18201723967716612229
12553582 1 18343303673373129078
12788726 201 18343025462877375562
13004483 165 18341036437415528420
13140716 1 17973722472904522096
13544653 18 18408040697560608021
13583140 156 15502955120368877316
13911987 19 17750251316956553870
13965767 371 17266984989555775329
14294032 229 17130724786612903465
14347332 77 18058176020963183278
14787075 74 18130510850618441992
14955137 171 17773618155075955171
15375462 189 18272378602287440041
16945 1 18336829817654796940
17349148 13 18335144180952179874
17492 54 18260552246818920870
1813 80 18342465841360442644
18222031 100 17561074830643350679
192875 21 18261105232516800474
200 152 18410289207824976959
20600515 1 16415208930733145369
20691752 17 18340760554512741280
21267235 1 18201732781037008983
22112679 90 17917993892974002477
23402539 116 18131358500662422044
23557571 272 16845302621974133356
23559900 14 18267017439367028161
25147074 1 18190467065420394876
2748010 2 16100784477420444268
312423 11 18189907413938793638
34934 24 18266751181733909953
404807 14 14495765987774162544
7164475 11 18269553836920148478
9981440 41 16618404400253061873

>  <PUBCHEM_SHAPE_MULTIPOLES>  (1) 
500.74
9.82
2.68
1.72
1.67
1
-0.35
-4.31
3.76
-1.18
-0.93
0.72
0.03
-1.35

>  <PUBCHEM_SHAPE_SELFOVERLAP>  (1) 
1075.832

>  <PUBCHEM_SHAPE_VOLUME>  (1) 
273.6

>  <PUBCHEM_COORDINATE_TYPE>  (1) 
2
5
10

$$$$
