18998
     RDKit          3D

 11 11  0  0  0  0  0  0  0  0999 V2000
   -2.7067    1.3309    0.0003 Cl  0  0  0  0  0  0  0  0  0  0  0  0
    2.7065    1.3310   -0.0001 Cl  0  0  0  0  0  0  0  0  0  0  0  0
    2.6671   -1.8738    0.0004 Cl  0  0  0  0  0  0  0  0  0  0  0  0
   -2.6670   -1.8740   -0.0001 Cl  0  0  0  0  0  0  0  0  0  0  0  0
   -0.0001    2.5657    0.0000 N   0  0  0  0  0  0  0  0  0  0  0  0
    0.0000    1.1484    0.0000 C   0  0  0  0  0  0  0  0  0  0  0  0
   -1.2080    0.4508    0.0000 C   0  0  0  0  0  0  0  0  0  0  0  0
    1.2080    0.4508   -0.0001 C   0  0  0  0  0  0  0  0  0  0  0  0
    1.2080   -0.9441   -0.0002 C   0  0  0  0  0  0  0  0  0  0  0  0
   -1.2079   -0.9441   -0.0001 C   0  0  0  0  0  0  0  0  0  0  0  0
    0.0001   -1.6416   -0.0001 C   0  0  0  0  0  0  0  0  0  0  0  0
  1  7  1  0
  2  8  1  0
  3  9  1  0
  4 10  1  0
  5  6  1  0
  6  7  2  0
  6  8  1  0
  7 10  1  0
  8  9  2  0
  9 11  1  0
 10 11  2  0
M  END
>  <PUBCHEM_COMPOUND_CID>  (1) 
18998

>  <PUBCHEM_CONFORMER_RMSD>  (1) 
0.4

>  <PUBCHEM_CONFORMER_DIVERSEORDER>  (1) 
1

>  <PUBCHEM_MMFF94_PARTIAL_CHARGES>  (1) 
14
1 -0.18
10 0.18
11 -0.15
12 0.15
13 0.4
14 0.4
2 -0.18
3 -0.18
4 -0.18
5 -0.9
6 0.1
7 0.18
8 0.18
9 0.18

>  <PUBCHEM_EFFECTIVE_ROTOR_COUNT>  (1) 
0

>  <PUBCHEM_PHARMACOPHORE_FEATURES>  (1) 
3
1 5 cation
1 5 donor
6 6 7 8 9 10 11 rings

>  <PUBCHEM_HEAVY_ATOM_COUNT>  (1) 
11

>  <PUBCHEM_ATOM_DEF_STEREO_COUNT>  (1) 
0

>  <PUBCHEM_ATOM_UDEF_STEREO_COUNT>  (1) 
0

>  <PUBCHEM_BOND_DEF_STEREO_COUNT>  (1) 
0

>  <PUBCHEM_BOND_UDEF_STEREO_COUNT>  (1) 
0

>  <PUBCHEM_ISOTOPIC_ATOM_COUNT>  (1) 
0

>  <PUBCHEM_COMPONENT_COUNT>  (1) 
1

>  <PUBCHEM_CACTVS_TAUTO_COUNT>  (1) 
1

>  <PUBCHEM_CONFORMER_ID>  (1) 
00004A3600000001

>  <PUBCHEM_MMFF94_ENERGY>  (1) 
35.6395

>  <PUBCHEM_FEATURE_SELFOVERLAP>  (1) 
15.223

>  <PUBCHEM_SHAPE_FINGERPRINT>  (1) 
11206711 2 18265334100023489525
12423570 1 9187253041233325924
13140716 1 18410573942202038482
13380535 21 18410584984562806628
16945 1 18410855460128330692
193761 8 18410575088958085190
20588541 1 18047193226223856378
20871998 184 18129377116190059014
21040471 1 18410856559639990945
21501502 16 18410855464428598727
2334 1 18410574015216456066
23402655 69 18341034303861066815
23526114 1 18411419526921072094
23552423 10 18333453140336906470
23559900 14 18198345057849769006
241688 4 18410011000838408762
2748010 2 18411419513893634974
53812653 166 18271242832303242640
68250623 7 18410859858174991202

>  <PUBCHEM_SHAPE_MULTIPOLES>  (1) 
228.87
3.98
2.66
0.62
0
0.26
0
-0.64
0
0
0
0
-0.02
0

>  <PUBCHEM_SHAPE_SELFOVERLAP>  (1) 
443.697

>  <PUBCHEM_SHAPE_VOLUME>  (1) 
139.8

>  <PUBCHEM_COORDINATE_TYPE>  (1) 
2
5
10

$$$$
