1899
     RDKit          3D

 22 21  0  0  0  0  0  0  0  0999 V2000
   -3.7140   -3.3515    2.1050 O   0  0  0  0  0  0  0  0  0  0  0  0
   -3.4484   -2.8988   -0.1119 O   0  0  0  0  0  0  0  0  0  0  0  0
   -1.6246    2.9184    0.9696 C   0  0  0  0  0  0  0  0  0  0  0  0
   -1.8900    2.7094   -0.5242 C   0  0  0  0  0  0  0  0  0  0  0  0
   -0.2213    3.4552    1.2698 C   0  0  0  0  0  0  0  0  0  0  0  0
   -3.3279    2.2449   -0.7725 C   0  0  0  0  0  0  0  0  0  0  0  0
    0.8982    2.4984    0.8560 C   0  0  0  0  0  0  0  0  0  0  0  0
   -3.6543    2.0506   -2.2548 C   0  0  0  0  0  0  0  0  0  0  0  0
   -0.2480   -2.3765    0.3963 C   0  0  0  0  0  0  0  0  0  0  0  0
    0.8904   -2.0208   -0.5628 C   0  0  0  0  0  0  0  0  0  0  0  0
   -1.2161   -1.2019    0.5631 C   0  0  0  0  0  0  0  0  0  0  0  0
    1.8865   -3.1787   -0.7003 C   0  0  0  0  0  0  0  0  0  0  0  0
    2.2785    3.0845    1.1626 C   0  0  0  0  0  0  0  0  0  0  0  0
   -2.3472   -1.5116    1.5378 C   0  0  0  0  0  0  0  0  0  0  0  0
   -5.1008    1.6601   -2.5151 C   0  0  0  0  0  0  0  0  0  0  0  0
    3.0609   -2.8519   -1.6270 C   0  0  0  0  0  0  0  0  0  0  0  0
    3.3387    2.1665    0.7254 C   0  0  0  0  0  0  0  0  0  0  0  0
   -3.2150   -2.6452    1.0611 C   0  0  0  0  0  0  0  0  0  0  0  0
    3.8683   -1.7358   -1.1170 C   0  0  0  0  0  0  0  0  0  0  0  0
    5.1395    0.3917   -0.1292 C   0  0  0  0  0  0  0  0  0  0  0  0
    4.1723    1.3872    0.3508 C   0  0  0  0  0  0  0  0  0  0  0  0
    4.4744   -0.7943   -0.6826 C   0  0  0  0  0  0  0  0  0  0  0  0
  1 18  1  0
  2 18  2  0
  3  4  1  0
  3  5  1  0
  4  6  1  0
  5  7  1  0
  6  8  1  0
  7 13  1  0
  8 15  1  0
  9 10  1  0
  9 11  1  0
 10 12  1  0
 11 14  1  0
 12 16  1  0
 13 17  1  0
 14 18  1  0
 16 19  1  0
 17 21  3  0
 19 22  3  0
 20 21  1  0
 20 22  1  0
M  END
>  <PUBCHEM_COMPOUND_CID>  (1) 
1899

>  <PUBCHEM_CONFORMER_RMSD>  (1) 
1.2

>  <PUBCHEM_CONFORMER_DIVERSEORDER>  (1) 
1
246
56
240
51
290
243
137
228
68
11
288
71
253
42
263
40
97
91
132
54
158
218
181
191
183
26
119
59
292
182
90
31
55
234
9
198
113
269
208
70
233
163
196
145
215
48
60
225
21
95
167
210
156
289
6
264
168
74
203
78
213
15
44
76
127
118
194
209
201
87
270
65
173
154
188
268
105
88
117
136
89
296
129
238
62
157
5
189
103
63
134
150
122
57
114
104
256
141
33
184
41
180
100
205
109
169
241
124
112
107
273
155
106
283
257
224
46
19
220
147
138
231
75
282
80
99
151
108
172
211
81
35
45
161
214
204
18
260
185
293
178
67
16
139
153
200
72
165
152
50
162
2
295
222
227
61
131
271
142
244
286
159
58
255
250
27
38
221
242
12
34
13
82
249
98
22
280
133
186
66
130
245
47
252
193
171
126
7
285
223
4
83
28
25
266
192
176
84
199
102
86
160
94
206
93
170
239
226
202
128
36
140
135
110
232
229
24
190
195
175
77
148
116
149
111
29
73
166
284
115
235
10
259
53
85
291
254
43
143
17
230
187
23
64
69
237
144
276
279
49
217
278
32
265
281
277
272
146
39
197
219
79
179
3
294
121
20
262
37
267
275
8
125
14
212
261
92
30
207
52
177
258
251
236
247
123
274
120
101
287
248
164
216
174
96

>  <PUBCHEM_MMFF94_PARTIAL_CHARGES>  (1) 
12
1 -0.65
13 0.2
14 0.06
16 0.2
17 -0.2
18 0.66
19 -0.2
2 -0.57
20 0.4
21 -0.2
22 -0.2
54 0.5

>  <PUBCHEM_EFFECTIVE_ROTOR_COUNT>  (1) 
12

>  <PUBCHEM_PHARMACOPHORE_FEATURES>  (1) 
4
1 1 acceptor
1 15 hydrophobe
1 2 acceptor
3 1 2 18 anion

>  <PUBCHEM_HEAVY_ATOM_COUNT>  (1) 
22

>  <PUBCHEM_ATOM_DEF_STEREO_COUNT>  (1) 
0

>  <PUBCHEM_ATOM_UDEF_STEREO_COUNT>  (1) 
0

>  <PUBCHEM_BOND_DEF_STEREO_COUNT>  (1) 
0

>  <PUBCHEM_BOND_UDEF_STEREO_COUNT>  (1) 
0

>  <PUBCHEM_ISOTOPIC_ATOM_COUNT>  (1) 
0

>  <PUBCHEM_COMPONENT_COUNT>  (1) 
1

>  <PUBCHEM_CACTVS_TAUTO_COUNT>  (1) 
1

>  <PUBCHEM_CONFORMER_ID>  (1) 
0000076B00000001

>  <PUBCHEM_MMFF94_ENERGY>  (1) 
-0.8002

>  <PUBCHEM_FEATURE_SELFOVERLAP>  (1) 
20.354

>  <PUBCHEM_SHAPE_FINGERPRINT>  (1) 
108634 29 18197222456087016774
12838863 1 18052794993829576358
13075007 39 17540275540874572106
13383661 66 17190626475935024671
14251757 17 18410012087528535480
14931854 50 18198056968132760684
15003188 8 17481135031404761448
17909252 39 17487594369474334173
19930381 70 18127137591688155458
4283 87 17623569744738313532
437795 51 18264768767176108757
66674814 147 18120367662599700916

>  <PUBCHEM_SHAPE_MULTIPOLES>  (1) 
441.01
10.06
6.12
2
1.77
0.91
0.62
-0.44
5.11
-2.15
-2.11
-2.78
0.13
5.12

>  <PUBCHEM_SHAPE_SELFOVERLAP>  (1) 
822.778

>  <PUBCHEM_SHAPE_VOLUME>  (1) 
269.4

>  <PUBCHEM_COORDINATE_TYPE>  (1) 
2
5
10

$$$$
