19000
     RDKit          3D

 23 26  0  0  1  0  0  0  0  0999 V2000
   -4.8994   -0.4876   -1.3518 O   0  0  0  0  0  0  0  0  0  0  0  0
    5.6444   -0.0728   -0.3411 O   0  0  0  0  0  0  0  0  0  0  0  0
   -0.5555   -0.6663   -0.4170 C   0  0  0  0  0  0  0  0  0  0  0  0
   -0.0600    0.2411    0.7351 C   0  0  0  0  0  0  0  0  0  0  0  0
   -2.0949   -0.7906   -0.4814 C   0  0  0  0  0  0  0  0  0  0  0  0
   -2.8507    0.5603   -0.4506 C   0  0  0  0  0  0  0  0  0  0  0  0
    1.5167    0.3532    0.8095 C   0  0  0  0  0  0  0  0  0  0  0  0
    2.1567   -1.0762    0.7683 C   0  0  0  0  0  0  0  0  0  0  0  0
   -4.3099    0.0816   -0.1752 C   0  0  0  0  0  0  0  0  0  0  0  0
   -0.7778    1.6052    0.6658 C   0  0  0  0  0  0  0  0  0  0  0  0
   -2.3002    1.4606    0.6826 C   0  0  0  0  0  0  0  0  0  0  0  0
    0.1017   -2.0482   -0.3486 C   0  0  0  0  0  0  0  0  0  0  0  0
   -2.7444   -1.6137    0.6479 C   0  0  0  0  0  0  0  0  0  0  0  0
    1.6166   -1.9370   -0.3874 C   0  0  0  0  0  0  0  0  0  0  0  0
   -4.1456   -1.0303    0.8713 C   0  0  0  0  0  0  0  0  0  0  0  0
    2.0967    1.2196   -0.3436 C   0  0  0  0  0  0  0  0  0  0  0  0
    3.6958   -1.0367    0.7011 C   0  0  0  0  0  0  0  0  0  0  0  0
   -2.7322    1.2908   -1.8019 C   0  0  0  0  0  0  0  0  0  0  0  0
    1.8832    1.0220    2.1644 C   0  0  0  0  0  0  0  0  0  0  0  0
    3.6251    1.2399   -0.3919 C   0  0  0  0  0  0  0  0  0  0  0  0
    4.2249   -0.1606   -0.4316 C   0  0  0  0  0  0  0  0  0  0  0  0
   -5.2776    1.1658    0.2922 C   0  0  0  0  0  0  0  0  0  0  0  0
    6.1863    0.6798   -1.4163 C   0  0  0  0  0  0  0  0  0  0  0  0
  1  9  1  0
  2 21  1  0
  2 23  1  0
  3  4  1  0
  3  5  1  0
  3 12  1  0
  4  7  1  0
  4 10  1  0
  5  6  1  0
  5 13  1  0
  6  9  1  0
  6 11  1  0
  6 18  1  0
  7  8  1  0
  7 16  1  0
  7 19  1  0
  8 14  1  0
  8 17  1  0
  9 15  1  0
  9 22  1  0
 10 11  1  0
 12 14  1  0
 13 15  1  0
 16 20  1  0
 17 21  1  0
 20 21  1  0
M  END
>  <PUBCHEM_COMPOUND_CID>  (1) 
19000

>  <PUBCHEM_CONFORMER_RMSD>  (1) 
0.6

>  <PUBCHEM_CONFORMER_DIVERSEORDER>  (1) 
1
56
50
72
64
15
54
73
30
61
78
63
59
39
29
75
17
22
4
48
16
67
46
11
43
42
25
71
36
65
6
2
69
8
70
13
57
58
26
24
68
34
47
41
38
5
62
76
33
14
60
32
44
45
20
66
3
28
31
49
51
77
21
40
35
9
55
12
27
74
23
10
52
19
53
18
37
7

>  <PUBCHEM_MMFF94_PARTIAL_CHARGES>  (1) 
6
1 -0.68
2 -0.56
21 0.28
23 0.28
56 0.4
9 0.28

>  <PUBCHEM_EFFECTIVE_ROTOR_COUNT>  (1) 
3.2

>  <PUBCHEM_PHARMACOPHORE_FEATURES>  (1) 
7
1 1 acceptor
1 1 donor
1 2 acceptor
5 5 6 9 13 15 rings
6 3 4 5 6 10 11 rings
6 3 4 7 8 12 14 rings
6 7 8 16 17 20 21 rings

>  <PUBCHEM_HEAVY_ATOM_COUNT>  (1) 
23

>  <PUBCHEM_ATOM_DEF_STEREO_COUNT>  (1) 
3

>  <PUBCHEM_ATOM_UDEF_STEREO_COUNT>  (1) 
5

>  <PUBCHEM_BOND_DEF_STEREO_COUNT>  (1) 
0

>  <PUBCHEM_BOND_UDEF_STEREO_COUNT>  (1) 
0

>  <PUBCHEM_ISOTOPIC_ATOM_COUNT>  (1) 
0

>  <PUBCHEM_COMPONENT_COUNT>  (1) 
1

>  <PUBCHEM_CACTVS_TAUTO_COUNT>  (1) 
1

>  <PUBCHEM_CONFORMER_ID>  (1) 
00004A3800000001

>  <PUBCHEM_MMFF94_ENERGY>  (1) 
87.9838

>  <PUBCHEM_FEATURE_SELFOVERLAP>  (1) 
35.752

>  <PUBCHEM_SHAPE_FINGERPRINT>  (1) 
10 15 9150885028862979550
10366900 7 18342168973458209171
106641 1 12685105812233970516
10759866 29 18187080629288468410
10906281 52 18270131110731874691
11578080 2 17825103701726895133
12011746 2 18272368672491622751
12236239 1 18187367631998338766
12403259 415 18341603824175843441
12403814 3 18040150704609514981
12553582 1 17917981763638121065
12788726 201 17987802878348644281
128620 24 17603868896700936849
13140716 1 18057587936175460266
13224815 77 18271795835344131593
13288520 33 16702306745325352868
13583140 156 17167868573060566105
13631057 29 16951418808780586171
13760787 19 18186518812789597370
14251751 18 13470396816263861572
14289901 80 17023178310275269665
14341114 176 17822015280701270470
14790565 3 18272097101472763352
15183329 4 18340782451368878534
15196674 1 18412544348701231755
15788980 27 17131834265809629076
1601671 61 18413108342658682074
16752209 62 17988921137165398600
16945 1 17846486032958569579
17349148 13 18342164536377125738
18186145 218 17988629826734776408
18681886 176 18340766035518485192
19784866 140 17846506894147528102
19862831 5 17704353272942699240
200 152 18272930522880668795
21267235 1 18059576931963049663
21637258 2 14045743673716201756
221357 26 17847059969522905464
22224240 67 13912608298765247448
22393880 68 17988633125602073111
23402539 116 17917992776066351220
23493267 7 18187079576794335467
23557571 272 17821729399367838861
23559900 14 18341609373400255496
23569943 247 16342318856338740446
25147074 1 17986400979601010626
2748010 2 17913754283332197730
296302 2 15863787300788663651
3004659 81 18339929213134453118
350125 39 18412266116419860225
3545911 37 18260269650444185277
4340502 62 15791734096661045288
474 4 16733273442877080332
4990 188 17346600789393577677
5104073 3 18335137604987836019
542803 24 18408040697586988137
59755656 215 18342464716216212878
633830 44 17775273993411523513
9709674 26 18340770338854494327
9971528 1 15841546388651980714

>  <PUBCHEM_SHAPE_MULTIPOLES>  (1) 
461.59
11.21
1.85
1.37
4.97
0.38
-0.1
-1.71
3.22
-0.28
-0.03
0.18
-0.38
-0.06

>  <PUBCHEM_SHAPE_SELFOVERLAP>  (1) 
972.731

>  <PUBCHEM_SHAPE_VOLUME>  (1) 
258.4

>  <PUBCHEM_COORDINATE_TYPE>  (1) 
2
5
10

$$$$
