19002
     RDKit          3D

 18 18  0  0  0  0  0  0  0  0999 V2000
   -0.9478   -0.9011   -0.9323 O   0  0  0  0  0  0  0  0  0  0  0  0
    4.7228    1.3331    0.4014 O   0  0  0  0  0  0  0  0  0  0  0  0
    5.2960   -0.8963    0.4146 O   0  0  0  0  0  0  0  0  0  0  0  0
   -4.2044    0.2853    0.3218 N   0  0  0  0  0  0  0  0  0  0  0  0
   -3.2133   -0.6515   -0.2064 C   0  0  0  0  0  0  0  0  0  0  0  0
   -4.4064    1.3947   -0.6092 C   0  0  0  0  0  0  0  0  0  0  0  0
   -5.4694   -0.4014    0.5808 C   0  0  0  0  0  0  0  0  0  0  0  0
   -1.8830    0.0479   -0.4366 C   0  0  0  0  0  0  0  0  0  0  0  0
   -5.3881    2.4099   -0.0490 C   0  0  0  0  0  0  0  0  0  0  0  0
   -5.2783   -1.5581    1.5472 C   0  0  0  0  0  0  0  0  0  0  0  0
    0.3719   -0.6813   -0.6354 C   0  0  0  0  0  0  0  0  0  0  0  0
    1.2365   -1.7618   -0.5033 C   0  0  0  0  0  0  0  0  0  0  0  0
    0.8326    0.6200   -0.4712 C   0  0  0  0  0  0  0  0  0  0  0  0
    3.0499   -0.2354   -0.0360 C   0  0  0  0  0  0  0  0  0  0  0  0
    2.5800   -1.5381   -0.2024 C   0  0  0  0  0  0  0  0  0  0  0  0
    2.1762    0.8437   -0.1704 C   0  0  0  0  0  0  0  0  0  0  0  0
    4.4507   -0.0020    0.2774 C   0  0  0  0  0  0  0  0  0  0  0  0
    6.0742    1.6922    0.7090 C   0  0  0  0  0  0  0  0  0  0  0  0
  1  8  1  0
  1 11  1  0
  2 17  1  0
  2 18  1  0
  3 17  2  0
  4  5  1  0
  4  6  1  0
  4  7  1  0
  5  8  1  0
  6  9  1  0
  7 10  1  0
 11 12  2  0
 11 13  1  0
 12 15  1  0
 13 16  2  0
 14 15  2  0
 14 16  1  0
 14 17  1  0
M  END
>  <PUBCHEM_COMPOUND_CID>  (1) 
19002

>  <PUBCHEM_CONFORMER_RMSD>  (1) 
0.8

>  <PUBCHEM_CONFORMER_DIVERSEORDER>  (1) 
1
72
10
47
57
29
9
67
49
3
46
40
53
6
16
26
32
56
11
30
36
63
60
15
65
51
45
54
7
21
25
17
19
68
28
50
70
43
69
48
55
66
13
42
18
64
44
71
5
39
62
27
23
58
37
4
61
20
59
12
52
41
34
38
35
2
14
8
31
22
33
24

>  <PUBCHEM_MMFF94_PARTIAL_CHARGES>  (1) 
20
1 -0.36
11 0.08
12 -0.15
13 -0.15
14 0.09
15 -0.15
16 -0.15
17 0.63
18 0.28
2 -0.43
3 -0.57
33 0.15
34 0.15
35 0.15
36 0.15
4 -0.81
5 0.27
6 0.27
7 0.27
8 0.28

>  <PUBCHEM_EFFECTIVE_ROTOR_COUNT>  (1) 
8

>  <PUBCHEM_PHARMACOPHORE_FEATURES>  (1) 
4
1 1 acceptor
1 3 acceptor
1 4 cation
6 11 12 13 14 15 16 rings

>  <PUBCHEM_HEAVY_ATOM_COUNT>  (1) 
18

>  <PUBCHEM_ATOM_DEF_STEREO_COUNT>  (1) 
0

>  <PUBCHEM_ATOM_UDEF_STEREO_COUNT>  (1) 
0

>  <PUBCHEM_BOND_DEF_STEREO_COUNT>  (1) 
0

>  <PUBCHEM_BOND_UDEF_STEREO_COUNT>  (1) 
0

>  <PUBCHEM_ISOTOPIC_ATOM_COUNT>  (1) 
0

>  <PUBCHEM_COMPONENT_COUNT>  (1) 
1

>  <PUBCHEM_CACTVS_TAUTO_COUNT>  (1) 
1

>  <PUBCHEM_CONFORMER_ID>  (1) 
00004A3A00000001

>  <PUBCHEM_MMFF94_ENERGY>  (1) 
49.1705

>  <PUBCHEM_FEATURE_SELFOVERLAP>  (1) 
20.297

>  <PUBCHEM_SHAPE_FINGERPRINT>  (1) 
10 15 18335416919812501344
10354089 29 18408886269758704276
11089746 13 16916771977597065288
12403259 118 18259987097816117397
12507557 5 18412547609214736929
12507560 40 18411422782907157255
12596602 18 18187362134002727536
12670543 26 10735889369319051866
13073987 5 18259984851616676435
13403585 85 18407478869211082745
13675066 3 18410295796220517007
13690532 89 7853577924374350366
14341114 176 18409453591471939802
14350574 20 9367052381378276541
15048467 5 18060134388669091184
15081414 286 17988934370355698464
15183329 4 10375605780027754483
15188451 53 17168711950794436811
15475509 35 16878770610222597602
18222031 100 14634867557081801302
18785283 64 17824268313477032164
19784866 9 18341609304838637898
20281389 69 18201716271309485920
20871999 31 11815891237566343733
21033648 29 18201425974675723433
21065199 12 18335708213300760615
212847 35 17917705812743584296
21637258 2 14129326425792895016
23402539 116 13334729129164728799
23402655 69 17917423207504796109
23559900 14 18043827389467063063
26918003 58 18259706696876402083
2916195 48 18412259553741246577
293599 30 18131068281712441268
312425 54 17458341909946332017
4214541 1 18260832575361116805
5104073 3 18262521390550458611
542803 24 15985107413992730603
59682541 35 18341055237289217315
90127 26 18270689662549341615

>  <PUBCHEM_SHAPE_MULTIPOLES>  (1) 
347.84
15.37
1.97
0.94
1.83
0.54
-0.16
5.35
-5.44
0.96
-0.13
0.61
-0.2
1.59

>  <PUBCHEM_SHAPE_SELFOVERLAP>  (1) 
698.764

>  <PUBCHEM_SHAPE_VOLUME>  (1) 
207.6

>  <PUBCHEM_COORDINATE_TYPE>  (1) 
2
5
10

$$$$
