19012
     RDKit          3D

 22 24  0  0  0  0  0  0  0  0999 V2000
   -2.7565   -1.7786   -0.0071 O   0  0  0  0  0  0  0  0  0  0  0  0
    2.7554   -1.7798   -0.0068 O   0  0  0  0  0  0  0  0  0  0  0  0
   -5.3473    3.1422    0.0119 N   0  0  0  0  0  0  0  0  0  0  0  0
    5.3397    3.1443    0.0113 N   0  0  0  0  0  0  0  0  0  0  0  0
   -1.3716   -1.7778   -0.0063 C   0  0  0  0  0  0  0  0  0  0  0  0
    1.3944   -1.7795   -0.0065 C   0  0  0  0  0  0  0  0  0  0  0  0
   -3.3898   -0.5740   -0.0029 C   0  0  0  0  0  0  0  0  0  0  0  0
    3.3994   -0.5538   -0.0014 C   0  0  0  0  0  0  0  0  0  0  0  0
   -0.6976   -0.9203   -0.8567 C   0  0  0  0  0  0  0  0  0  0  0  0
    0.6973   -0.9212   -0.8569 C   0  0  0  0  0  0  0  0  0  0  0  0
   -0.6983   -2.6362    0.8440 C   0  0  0  0  0  0  0  0  0  0  0  0
    0.6966   -2.6371    0.8439 C   0  0  0  0  0  0  0  0  0  0  0  0
   -2.9590    0.4379    0.8552 C   0  0  0  0  0  0  0  0  0  0  0  0
    2.9568    0.4361    0.8572 C   0  0  0  0  0  0  0  0  0  0  0  0
   -4.4708   -0.3516   -0.8560 C   0  0  0  0  0  0  0  0  0  0  0  0
    4.4678   -0.3507   -0.8561 C   0  0  0  0  0  0  0  0  0  0  0  0
   -4.6902    1.8942    0.0075 C   0  0  0  0  0  0  0  0  0  0  0  0
    4.6838    1.8957    0.0068 C   0  0  0  0  0  0  0  0  0  0  0  0
   -3.6093    1.6719    0.8605 C   0  0  0  0  0  0  0  0  0  0  0  0
    3.6046    1.6714    0.8612 C   0  0  0  0  0  0  0  0  0  0  0  0
   -5.1210    0.8825   -0.8508 C   0  0  0  0  0  0  0  0  0  0  0  0
    5.1155    0.8846   -0.8520 C   0  0  0  0  0  0  0  0  0  0  0  0
  1  5  1  0
  1  7  1  0
  2  6  1  0
  2  8  1  0
  3 17  1  0
  4 18  1  0
  5  9  2  0
  5 11  1  0
  6 10  2  0
  6 12  1  0
  7 13  2  0
  7 15  1  0
  8 14  2  0
  8 16  1  0
  9 10  1  0
 11 12  2  0
 13 19  1  0
 14 20  1  0
 15 21  2  0
 16 22  2  0
 17 19  2  0
 17 21  1  0
 18 20  2  0
 18 22  1  0
M  END
>  <PUBCHEM_COMPOUND_CID>  (1) 
19012

>  <PUBCHEM_CONFORMER_RMSD>  (1) 
0.6

>  <PUBCHEM_CONFORMER_DIVERSEORDER>  (1) 
1
12
2
4
10
21
14
3
16
7
8
13
6
9
18
5
19
20
11
15
17

>  <PUBCHEM_MMFF94_PARTIAL_CHARGES>  (1) 
38
1 -0.17
10 -0.15
11 -0.15
12 -0.15
13 -0.15
14 -0.15
15 -0.15
16 -0.15
17 0.1
18 0.1
19 -0.15
2 -0.17
20 -0.15
21 -0.15
22 -0.15
23 0.15
24 0.15
25 0.15
26 0.15
27 0.15
28 0.15
29 0.15
3 -0.9
30 0.15
31 0.15
32 0.15
33 0.15
34 0.15
35 0.4
36 0.4
37 0.4
38 0.4
4 -0.9
5 0.08
6 0.08
7 0.08
8 0.08
9 -0.15

>  <PUBCHEM_EFFECTIVE_ROTOR_COUNT>  (1) 
4

>  <PUBCHEM_PHARMACOPHORE_FEATURES>  (1) 
9
1 1 acceptor
1 2 acceptor
1 3 cation
1 3 donor
1 4 cation
1 4 donor
6 5 6 9 10 11 12 rings
6 7 13 15 17 19 21 rings
6 8 14 16 18 20 22 rings

>  <PUBCHEM_HEAVY_ATOM_COUNT>  (1) 
22

>  <PUBCHEM_ATOM_DEF_STEREO_COUNT>  (1) 
0

>  <PUBCHEM_ATOM_UDEF_STEREO_COUNT>  (1) 
0

>  <PUBCHEM_BOND_DEF_STEREO_COUNT>  (1) 
0

>  <PUBCHEM_BOND_UDEF_STEREO_COUNT>  (1) 
0

>  <PUBCHEM_ISOTOPIC_ATOM_COUNT>  (1) 
0

>  <PUBCHEM_COMPONENT_COUNT>  (1) 
1

>  <PUBCHEM_CACTVS_TAUTO_COUNT>  (1) 
1

>  <PUBCHEM_CONFORMER_ID>  (1) 
00004A4400000001

>  <PUBCHEM_MMFF94_ENERGY>  (1) 
102.8251

>  <PUBCHEM_FEATURE_SELFOVERLAP>  (1) 
45.671

>  <PUBCHEM_SHAPE_FINGERPRINT>  (1) 
10498660 4 18341897402486185552
10670039 82 18410017632758842516
11089746 13 18410288073690263030
11595378 159 16298662776773739180
11796584 16 9943266791542881790
12107183 9 18189035578675273858
12390115 104 18335433390611297574
12596602 18 16732988639021380745
13544653 18 11169911705763934539
13590594 115 17618230498798662762
13878862 14 17899393321728477429
13965767 371 17894622639586100350
1420 369 9223230749742520908
14216079 64 9150878483243525637
14251751 18 8718833080529762260
14251764 38 18339646766413809421
14251764 75 18198634233291670809
14528608 73 18342734109370499677
14739800 52 18268128994378235738
14848178 5 9079114432048126641
14848178 96 18410853243977947120
14931854 50 18202283593387081773
15142526 21 18260829310474069163
15238133 3 18410848855333604882
16994733 274 16951663841855985293
17780758 139 11819261265805582815
17834072 32 18409451388106367561
17959699 21 18341891862025716299
17980427 26 18335966607007932078
18608769 82 18267306615695049499
193927 3 10663813109511504759
21279426 13 18342749498749959190
21734292 116 18411417280685285921
22289505 5 18131355202839519772
22950370 63 9583516538073164315
23379529 103 10303516334591818805
23559900 14 17915172421351664127
245318 6 17823995617192013204
283562 15 18116992398142110531
2838139 119 18413666902849662868
3472631 163 18127971902576901869
34797466 226 17918000477232720847
350125 39 18189050902896831270
474 4 18334294262358027527
5104073 3 18040433282686446131
59124914 9 18335985272866481450
6328613 192 18261402178472256572
633830 44 18411412891186303910
636775 72 18123468556443136240
7064713 232 18186804716172781756
7288768 16 18040714809197236043
76465 3 10015589397921507318
7808743 9 18336824316075757104
7970288 3 9655278333772358165
9981440 41 18336262426874380587

>  <PUBCHEM_SHAPE_MULTIPOLES>  (1) 
431.05
13.15
3.32
1.02
0.07
0.82
0
12.71
1.94
0
-0.67
0
-0.06
0

>  <PUBCHEM_SHAPE_SELFOVERLAP>  (1) 
948.599

>  <PUBCHEM_SHAPE_VOLUME>  (1) 
232.6

>  <PUBCHEM_COORDINATE_TYPE>  (1) 
2
5
10

$$$$
