19015
     RDKit          3D

 10 10  0  0  1  0  0  0  0  0999 V2000
   -0.3654   -2.0232   -0.9407 Cl  0  0  0  0  0  0  0  0  0  0  0  0
    0.3658    2.0235   -0.9408 Cl  0  0  0  0  0  0  0  0  0  0  0  0
   -2.9614    0.4179   -0.4507 N   0  0  0  0  0  0  0  0  0  0  0  0
    2.9615   -0.4181   -0.4503 N   0  0  0  0  0  0  0  0  0  0  0  0
   -0.5720   -0.5176    0.0562 C   0  0  0  0  0  0  0  0  0  0  0  0
    0.5722    0.5173    0.0565 C   0  0  0  0  0  0  0  0  0  0  0  0
   -0.2915   -0.7144    1.5606 C   0  0  0  0  0  0  0  0  0  0  0  0
    0.2906    0.7146    1.5607 C   0  0  0  0  0  0  0  0  0  0  0  0
   -1.9015    0.0030   -0.2259 C   0  0  0  0  0  0  0  0  0  0  0  0
    1.9017   -0.0031   -0.2255 C   0  0  0  0  0  0  0  0  0  0  0  0
  1  5  1  0
  2  6  1  0
  3  9  3  0
  4 10  3  0
  5  6  1  0
  5  7  1  0
  5  9  1  0
  6  8  1  0
  6 10  1  0
  7  8  1  0
M  END
>  <PUBCHEM_COMPOUND_CID>  (1) 
19015

>  <PUBCHEM_CONFORMER_RMSD>  (1) 
0.4

>  <PUBCHEM_CONFORMER_DIVERSEORDER>  (1) 
1
3
6
5
4
2

>  <PUBCHEM_MMFF94_PARTIAL_CHARGES>  (1) 
8
1 -0.29
10 0.38
2 -0.29
3 -0.56
4 -0.56
5 0.47
6 0.47
9 0.38

>  <PUBCHEM_EFFECTIVE_ROTOR_COUNT>  (1) 
0.8

>  <PUBCHEM_PHARMACOPHORE_FEATURES>  (1) 
3
1 3 acceptor
1 4 acceptor
4 5 6 7 8 rings

>  <PUBCHEM_HEAVY_ATOM_COUNT>  (1) 
10

>  <PUBCHEM_ATOM_DEF_STEREO_COUNT>  (1) 
0

>  <PUBCHEM_ATOM_UDEF_STEREO_COUNT>  (1) 
2

>  <PUBCHEM_BOND_DEF_STEREO_COUNT>  (1) 
0

>  <PUBCHEM_BOND_UDEF_STEREO_COUNT>  (1) 
0

>  <PUBCHEM_ISOTOPIC_ATOM_COUNT>  (1) 
0

>  <PUBCHEM_COMPONENT_COUNT>  (1) 
1

>  <PUBCHEM_CACTVS_TAUTO_COUNT>  (1) 
1

>  <PUBCHEM_CONFORMER_ID>  (1) 
00004A4700000001

>  <PUBCHEM_MMFF94_ENERGY>  (1) 
19.0118

>  <PUBCHEM_FEATURE_SELFOVERLAP>  (1) 
15.223

>  <PUBCHEM_SHAPE_FINGERPRINT>  (1) 
12423570 1 15457697241183135951
13024252 1 16371021701791107330
13380536 243 18341037567139302255
137420 1 13217606324084284176
16945 1 18410855434358358090
20653085 51 18188502361846576917
21040471 1 18128237068998078963
29004967 10 18188784945267449104
369184 2 16630252394341089922
5084963 1 18336828705637789539
528886 8 18411132502872754911
68250623 7 17753914996747580595

>  <PUBCHEM_SHAPE_MULTIPOLES>  (1) 
199.57
2.85
1.71
1.35
0
0
0.57
0
-0.79
0
-0.72
0
0
0.01

>  <PUBCHEM_SHAPE_SELFOVERLAP>  (1) 
388.743

>  <PUBCHEM_SHAPE_VOLUME>  (1) 
121

>  <PUBCHEM_COORDINATE_TYPE>  (1) 
2
5
10

$$$$
