19013
     RDKit          3D

 12 11  0  0  0  0  0  0  0  0999 V2000
    1.9553   -0.1727   -0.1867 O   0  0  0  0  0  0  0  0  0  0  0  0
    4.0294    0.6729    0.3789 O   0  0  0  0  0  0  0  0  0  0  0  0
   -3.3055    0.7400    0.6743 C   0  0  0  0  0  0  0  0  0  0  0  0
   -2.4481    1.4849   -0.3569 C   0  0  0  0  0  0  0  0  0  0  0  0
   -2.8551   -0.6942    0.9807 C   0  0  0  0  0  0  0  0  0  0  0  0
   -1.0010    1.5675    0.0342 C   0  0  0  0  0  0  0  0  0  0  0  0
   -0.0003    1.0602   -0.7005 C   0  0  0  0  0  0  0  0  0  0  0  0
   -2.9124   -1.5971   -0.2161 C   0  0  0  0  0  0  0  0  0  0  0  0
    1.4392    1.1449   -0.3127 C   0  0  0  0  0  0  0  0  0  0  0  0
   -1.8516   -2.2347   -0.7237 C   0  0  0  0  0  0  0  0  0  0  0  0
    3.2735   -0.2656    0.1667 C   0  0  0  0  0  0  0  0  0  0  0  0
    3.6766   -1.7059    0.2618 C   0  0  0  0  0  0  0  0  0  0  0  0
  1  9  1  0
  1 11  1  0
  2 11  2  0
  3  4  1  0
  3  5  1  0
  4  6  1  0
  5  8  1  0
  6  7  2  0
  7  9  1  0
  8 10  2  0
 11 12  1  0
M  END
>  <PUBCHEM_COMPOUND_CID>  (1) 
19013

>  <PUBCHEM_CONFORMER_RMSD>  (1) 
0.8

>  <PUBCHEM_CONFORMER_DIVERSEORDER>  (1) 
1
46
8
14
4
106
24
72
97
78
2
86
31
73
42
27
9
5
80
65
37
81
26
53
104
25
39
52
17
18
108
63
77
20
64
59
58
7
66
41
56
100
57
82
74
45
103
85
90
98
67
60
6
29
55
83
87
75
28
69
70
40
11
91
84
19
79
76
12
47
48
89
21
71
109
105
54
3
10
93
51
96
43
94
23
32
102
95
62
88
44
92
33
35
50
107
16
101
13
61
22
49
36
38
68
30
34
15
99

>  <PUBCHEM_MMFF94_PARTIAL_CHARGES>  (1) 
16
1 -0.43
10 -0.3
11 0.66
12 0.06
19 0.15
2 -0.57
20 0.15
21 0.15
24 0.15
25 0.15
4 0.14
5 0.14
6 -0.29
7 -0.29
8 -0.29
9 0.42

>  <PUBCHEM_EFFECTIVE_ROTOR_COUNT>  (1) 
7

>  <PUBCHEM_PHARMACOPHORE_FEATURES>  (1) 
3
1 10 hydrophobe
1 2 acceptor
5 3 4 5 6 8 hydrophobe

>  <PUBCHEM_HEAVY_ATOM_COUNT>  (1) 
12

>  <PUBCHEM_ATOM_DEF_STEREO_COUNT>  (1) 
0

>  <PUBCHEM_ATOM_UDEF_STEREO_COUNT>  (1) 
0

>  <PUBCHEM_BOND_DEF_STEREO_COUNT>  (1) 
0

>  <PUBCHEM_BOND_UDEF_STEREO_COUNT>  (1) 
1

>  <PUBCHEM_ISOTOPIC_ATOM_COUNT>  (1) 
0

>  <PUBCHEM_COMPONENT_COUNT>  (1) 
1

>  <PUBCHEM_CACTVS_TAUTO_COUNT>  (1) 
1

>  <PUBCHEM_CONFORMER_ID>  (1) 
00004A4500000001

>  <PUBCHEM_MMFF94_ENERGY>  (1) 
4.731

>  <PUBCHEM_FEATURE_SELFOVERLAP>  (1) 
15.227

>  <PUBCHEM_SHAPE_FINGERPRINT>  (1) 
12382932 28 18201726136759531495
12500047 106 18340478972288493705
14577589 140 18261394408322536229
15006816 218 18053666880137248367
17834069 15 18413389821561354830
17834074 16 18340207363210228142
20442098 301 18410289199097970170
20621476 51 18200293473183354166
20653085 51 8934461638911299509
20724930 33 18269271438377841007
20828058 44 18411133619960014184
20871998 184 18410860932312278893
22485316 2 18334574620764638512
22926399 37 10375868537895523275
232386 152 18337118950521084925
23402539 116 16877937210167473764
23590187 214 18199465648290582864
23598291 2 17677350336922667277
257057 1 17625250197974261919
58999712 104 18272654511171210071
58999712 31 18338799025773881246
75552 356 18341613728507064781
85463 6 17273122725539233431

>  <PUBCHEM_SHAPE_MULTIPOLES>  (1) 
235.22
7.46
2.26
0.86
5.93
0.86
-0.04
1.99
-1.58
-1.02
0.39
-0.41
0.08
-0.34

>  <PUBCHEM_SHAPE_SELFOVERLAP>  (1) 
436.042

>  <PUBCHEM_SHAPE_VOLUME>  (1) 
147.1

>  <PUBCHEM_COORDINATE_TYPE>  (1) 
2
5
10

$$$$
