1901
     RDKit          3D

 23 23  0  0  1  0  0  0  0  0999 V2000
    3.7336   -2.2929   -1.5612 O   0  0  0  0  0  0  0  0  0  0  0  0
    0.0774    2.7017    3.1410 O   0  0  0  0  0  0  0  0  0  0  0  0
    0.9814    0.6785    2.6422 O   0  0  0  0  0  0  0  0  0  0  0  0
    3.6025   -1.2488   -0.5879 C   0  0  0  0  0  0  0  0  0  0  0  0
    2.4157   -2.0387   -1.0578 C   0  0  0  0  0  0  0  0  0  0  0  0
    3.8654    0.1128   -1.1076 C   0  0  0  0  0  0  0  0  0  0  0  0
    1.8447   -3.1433   -0.2213 C   0  0  0  0  0  0  0  0  0  0  0  0
    3.2963    1.2340   -0.2727 C   0  0  0  0  0  0  0  0  0  0  0  0
    0.7135   -2.7215    0.6722 C   0  0  0  0  0  0  0  0  0  0  0  0
    2.4571    2.1693   -0.7413 C   0  0  0  0  0  0  0  0  0  0  0  0
   -0.5478   -3.1799    0.6542 C   0  0  0  0  0  0  0  0  0  0  0  0
    1.8888    3.2757    0.0978 C   0  0  0  0  0  0  0  0  0  0  0  0
   -1.6761   -2.7563    1.5486 C   0  0  0  0  0  0  0  0  0  0  0  0
    0.3644    3.2068    0.2559 C   0  0  0  0  0  0  0  0  0  0  0  0
   -4.3225    0.6473   -0.6878 C   0  0  0  0  0  0  0  0  0  0  0  0
   -2.8628   -2.2955    0.7554 C   0  0  0  0  0  0  0  0  0  0  0  0
   -4.6197   -0.6239    0.1142 C   0  0  0  0  0  0  0  0  0  0  0  0
   -3.2263    0.4508   -1.7401 C   0  0  0  0  0  0  0  0  0  0  0  0
   -0.1433    1.9157    0.8978 C   0  0  0  0  0  0  0  0  0  0  0  0
   -3.4407   -1.0954    0.9147 C   0  0  0  0  0  0  0  0  0  0  0  0
   -2.9424    1.7506   -2.4936 C   0  0  0  0  0  0  0  0  0  0  0  0
   -1.8340    1.5691   -3.5183 C   0  0  0  0  0  0  0  0  0  0  0  0
    0.3749    1.6839    2.2956 C   0  0  0  0  0  0  0  0  0  0  0  0
  1  4  1  0
  1  5  1  0
  2 23  1  0
  3 23  2  0
  4  5  1  0
  4  6  1  0
  5  7  1  0
  6  8  1  0
  7  9  1  0
  8 10  2  0
  9 11  2  0
 10 12  1  0
 11 13  1  0
 12 14  1  0
 13 16  1  0
 14 19  1  0
 15 17  1  0
 15 18  1  0
 16 20  2  0
 17 20  1  0
 18 21  1  0
 19 23  1  0
 21 22  1  0
M  END
>  <PUBCHEM_COMPOUND_CID>  (1) 
1901

>  <PUBCHEM_CONFORMER_RMSD>  (1) 
1.6

>  <PUBCHEM_CONFORMER_DIVERSEORDER>  (1) 
1
55
88
81
48
29
42
100
56
54
30
62
52
76
28
2
105
31
70
93
83
60
106
89
108
12
25
15
22
49
68
44
53
61
51
38
3
96
27
64
103
97
20
32
26
69
41
35
77
67
40
107
92
63
39
90
99
9
47
78
7
45
43
17
71
104
59
19
4
46
101
86
58
87
65
84
74
95
5
79
72
82
98
50
109
10
102
36
24
94
16
80
73
57
91
23
6
34
18
37
66
13
33
85
75
14
21
8
11

>  <PUBCHEM_MMFF94_PARTIAL_CHARGES>  (1) 
27
1 -0.3
10 -0.29
11 -0.29
12 0.14
13 0.28
16 -0.29
17 0.14
19 0.06
2 -0.65
20 -0.29
23 0.66
24 0.1
25 0.1
3 -0.57
30 0.15
31 0.15
32 0.15
33 0.15
4 -0.05
42 0.15
49 0.15
5 -0.05
55 0.5
6 0.23
7 0.23
8 -0.29
9 -0.29

>  <PUBCHEM_EFFECTIVE_ROTOR_COUNT>  (1) 
14.6

>  <PUBCHEM_PHARMACOPHORE_FEATURES>  (1) 
7
1 1 acceptor
1 2 acceptor
1 22 hydrophobe
1 3 acceptor
3 2 3 23 anion
4 10 12 14 19 hydrophobe
5 15 17 18 20 21 hydrophobe

>  <PUBCHEM_HEAVY_ATOM_COUNT>  (1) 
23

>  <PUBCHEM_ATOM_DEF_STEREO_COUNT>  (1) 
0

>  <PUBCHEM_ATOM_UDEF_STEREO_COUNT>  (1) 
2

>  <PUBCHEM_BOND_DEF_STEREO_COUNT>  (1) 
0

>  <PUBCHEM_BOND_UDEF_STEREO_COUNT>  (1) 
3

>  <PUBCHEM_ISOTOPIC_ATOM_COUNT>  (1) 
0

>  <PUBCHEM_COMPONENT_COUNT>  (1) 
1

>  <PUBCHEM_CACTVS_TAUTO_COUNT>  (1) 
1

>  <PUBCHEM_CONFORMER_ID>  (1) 
0000076D00000001

>  <PUBCHEM_MMFF94_ENERGY>  (1) 
6.1242

>  <PUBCHEM_FEATURE_SELFOVERLAP>  (1) 
35.58

>  <PUBCHEM_SHAPE_FINGERPRINT>  (1) 
12100795 323 17758959616056586829
12156800 1 7835895982135141625
12539773 59 16546073547484141960
13402501 40 18334298716133579791
13422730 73 17977343340266007639
13615921 28 18130240271641029597
13947920 24 18261126183504290614
14251757 17 18333732390314602183
144659 39 17974541870675462752
15322687 12 17536861192551158293
17093844 170 18340488971209560656
17921350 177 17897700253909836164
17977149 70 17968095351943486221
238 59 18123441003425274255
3524813 1 18334583481192713911
463206 1 17762338011836298148

>  <PUBCHEM_SHAPE_MULTIPOLES>  (1) 
455.72
7.59
4.99
2.85
3.2
1.24
0.16
1.03
-3.66
-1.62
0.64
0.91
-2.37
3.17

>  <PUBCHEM_SHAPE_SELFOVERLAP>  (1) 
867.944

>  <PUBCHEM_SHAPE_VOLUME>  (1) 
279.1

>  <PUBCHEM_COORDINATE_TYPE>  (1) 
2
5
10

$$$$
