19014
     RDKit          3D

 14 15  0  0  0  0  0  0  0  0999 V2000
   -0.4304    3.1254    0.0007 Cl  0  0  0  0  0  0  0  0  0  0  0  0
   -0.4291   -3.1254   -0.0007 Cl  0  0  0  0  0  0  0  0  0  0  0  0
   -3.1742    1.5731   -0.0006 Cl  0  0  0  0  0  0  0  0  0  0  0  0
   -3.1736   -1.5742    0.0018 Cl  0  0  0  0  0  0  0  0  0  0  0  0
    1.9147    1.3894   -0.0001 N   0  0  0  0  0  0  0  0  0  0  0  0
    1.9149   -1.3890    0.0003 N   0  0  0  0  0  0  0  0  0  0  0  0
    0.7582    0.7036   -0.0001 C   0  0  0  0  0  0  0  0  0  0  0  0
    0.7583   -0.7033    0.0000 C   0  0  0  0  0  0  0  0  0  0  0  0
   -0.4590    1.3810   -0.0004 C   0  0  0  0  0  0  0  0  0  0  0  0
   -0.4587   -1.3809   -0.0003 C   0  0  0  0  0  0  0  0  0  0  0  0
   -1.6713    0.6934   -0.0004 C   0  0  0  0  0  0  0  0  0  0  0  0
   -1.6712   -0.6935   -0.0005 C   0  0  0  0  0  0  0  0  0  0  0  0
    3.0607    0.6850    0.0002 C   0  0  0  0  0  0  0  0  0  0  0  0
    3.0608   -0.6845    0.0003 C   0  0  0  0  0  0  0  0  0  0  0  0
  1  9  1  0
  2 10  1  0
  3 11  1  0
  4 12  1  0
  5  7  2  0
  5 13  1  0
  6  8  2  0
  6 14  1  0
  7  8  1  0
  7  9  1  0
  8 10  1  0
  9 11  2  0
 10 12  2  0
 11 12  1  0
 13 14  2  0
M  END
>  <PUBCHEM_COMPOUND_CID>  (1) 
19014

>  <PUBCHEM_CONFORMER_RMSD>  (1) 
0.4

>  <PUBCHEM_CONFORMER_DIVERSEORDER>  (1) 
1

>  <PUBCHEM_MMFF94_PARTIAL_CHARGES>  (1) 
16
1 -0.18
10 0.18
11 0.18
12 0.18
13 0.16
14 0.16
15 0.15
16 0.15
2 -0.18
3 -0.18
4 -0.18
5 -0.62
6 -0.62
7 0.31
8 0.31
9 0.18

>  <PUBCHEM_EFFECTIVE_ROTOR_COUNT>  (1) 
0

>  <PUBCHEM_PHARMACOPHORE_FEATURES>  (1) 
4
1 5 acceptor
1 6 acceptor
6 5 6 7 8 13 14 rings
6 7 8 9 10 11 12 rings

>  <PUBCHEM_HEAVY_ATOM_COUNT>  (1) 
14

>  <PUBCHEM_ATOM_DEF_STEREO_COUNT>  (1) 
0

>  <PUBCHEM_ATOM_UDEF_STEREO_COUNT>  (1) 
0

>  <PUBCHEM_BOND_DEF_STEREO_COUNT>  (1) 
0

>  <PUBCHEM_BOND_UDEF_STEREO_COUNT>  (1) 
0

>  <PUBCHEM_ISOTOPIC_ATOM_COUNT>  (1) 
0

>  <PUBCHEM_COMPONENT_COUNT>  (1) 
1

>  <PUBCHEM_CACTVS_TAUTO_COUNT>  (1) 
1

>  <PUBCHEM_CONFORMER_ID>  (1) 
00004A4600000001

>  <PUBCHEM_MMFF94_ENERGY>  (1) 
41.8924

>  <PUBCHEM_FEATURE_SELFOVERLAP>  (1) 
20.339

>  <PUBCHEM_SHAPE_FINGERPRINT>  (1) 
10967382 1 18194402195296470983
11132069 177 18341045229250279280
12032990 46 18338523031159680879
12382932 28 18411979161122772312
12423570 1 11898852825312755969
13140716 1 18410855417373655105
13380535 76 18265892458746561187
13897977 150 18338795607196067973
14325111 11 18410573985162091584
16945 1 18122626046175737897
193761 8 17618221706820603205
20510252 161 18343866636201000536
20588541 1 18267024947085737149
20645476 183 17969243225045277694
20871998 184 18273215300413040655
21501502 16 18409729564532110724
2334 1 18410575119244356871
23402539 116 18271231820033436998
23419403 2 15970105818992821103
23463225 33 18408323276264746848
23552423 10 18261112988948031932
23557571 272 18200327635901170620
23559900 14 18343025493818093460
241688 4 18410572885740212905
2748010 2 18411138039090815687
528886 8 18339074900113017129
7364860 26 17764586521335743559

>  <PUBCHEM_SHAPE_MULTIPOLES>  (1) 
285.63
4.48
3.24
0.62
0.43
0
0
0
0
-1.22
0
-0.04
0
0

>  <PUBCHEM_SHAPE_SELFOVERLAP>  (1) 
590.875

>  <PUBCHEM_SHAPE_VOLUME>  (1) 
164.2

>  <PUBCHEM_COORDINATE_TYPE>  (1) 
2
5
10

$$$$
