19019
     RDKit          3D

 19 18  0  0  0  0  0  0  0  0999 V2000
    5.6641    1.0601   -0.0943 S   0  0  0  0  0  0  0  0  0  0  0  0
   -5.5754    1.2416   -0.0215 S   0  0  0  0  0  0  0  0  0  0  0  0
    4.1329    0.6515    0.2994 O   0  0  0  0  0  0  0  0  0  0  0  0
   -4.4700    0.0408    0.0312 O   0  0  0  0  0  0  0  0  0  0  0  0
    5.6833    1.6279   -1.4271 O   0  0  0  0  0  0  0  0  0  0  0  0
    6.5634   -0.0053    0.2998 O   0  0  0  0  0  0  0  0  0  0  0  0
   -5.5799    1.8342   -1.3435 O   0  0  0  0  0  0  0  0  0  0  0  0
   -5.4717    2.0447    1.1800 O   0  0  0  0  0  0  0  0  0  0  0  0
   -0.0044   -1.9079    0.0342 N   0  0  0  0  0  0  0  0  0  0  0  0
    1.3790   -1.7340   -0.5758 C   0  0  0  0  0  0  0  0  0  0  0  0
   -0.7808   -0.6048   -0.0887 C   0  0  0  0  0  0  0  0  0  0  0  0
    0.1325   -2.2802    1.5035 C   0  0  0  0  0  0  0  0  0  0  0  0
   -0.7483   -3.0129   -0.7019 C   0  0  0  0  0  0  0  0  0  0  0  0
    2.1020   -0.6079    0.1431 C   0  0  0  0  0  0  0  0  0  0  0  0
   -2.2675   -0.8993    0.0149 C   0  0  0  0  0  0  0  0  0  0  0  0
    3.5122   -0.4199   -0.3975 C   0  0  0  0  0  0  0  0  0  0  0  0
   -3.0923    0.3777   -0.0560 C   0  0  0  0  0  0  0  0  0  0  0  0
    5.8316    2.3856    1.0738 C   0  0  0  0  0  0  0  0  0  0  0  0
   -7.0106    0.2083    0.1263 C   0  0  0  0  0  0  0  0  0  0  0  0
  1  3  1  0
  1  5  2  0
  1  6  2  0
  1 18  1  0
  2  4  1  0
  2  7  2  0
  2  8  2  0
  2 19  1  0
  3 16  1  0
  4 17  1  0
  9 10  1  0
  9 11  1  0
  9 12  1  0
  9 13  1  0
 10 14  1  0
 11 15  1  0
 14 16  1  0
 15 17  1  0
M  CHG  1   9   1
M  END
>  <PUBCHEM_COMPOUND_CID>  (1) 
19019

>  <PUBCHEM_CONFORMER_RMSD>  (1) 
1

>  <PUBCHEM_CONFORMER_DIVERSEORDER>  (1) 
1
51
117
4
81
114
85
68
70
84
47
7
138
87
77
142
27
5
119
146
155
45
147
143
21
129
101
137
48
64
152
78
16
115
53
15
86
103
35
41
69
31
46
109
122
131
106
91
43
92
150
62
149
127
126
29
134
32
130
128
105
26
79
140
66
98
148
90
151
17
135
20
49
94
13
74
125
124
99
108
154
121
112
37
14
57
38
132
82
83
102
107
111
144
67
110
56
30
71
52
36
75
153
116
40
89
54
145
19
97
9
88
80
141
120
104
33
12
63
60
59
136
76
73
34
93
11
95
18
133
44
3
61
22
65
139
23
8
24
96
123
118
50
113
100
72
10
6
25
28
39
2
58
42
55

>  <PUBCHEM_MMFF94_PARTIAL_CHARGES>  (1) 
17
1 1.38
10 0.5
11 0.5
12 0.5
13 0.5
16 0.28
17 0.28
18 0.11
19 0.11
2 1.38
3 -0.46
4 -0.46
5 -0.65
6 -0.65
7 -0.65
8 -0.65
9 -1.01

>  <PUBCHEM_EFFECTIVE_ROTOR_COUNT>  (1) 
10

>  <PUBCHEM_PHARMACOPHORE_FEATURES>  (1) 
5
1 5 acceptor
1 6 acceptor
1 7 acceptor
1 8 acceptor
1 9 cation

>  <PUBCHEM_HEAVY_ATOM_COUNT>  (1) 
19

>  <PUBCHEM_ATOM_DEF_STEREO_COUNT>  (1) 
0

>  <PUBCHEM_ATOM_UDEF_STEREO_COUNT>  (1) 
0

>  <PUBCHEM_BOND_DEF_STEREO_COUNT>  (1) 
0

>  <PUBCHEM_BOND_UDEF_STEREO_COUNT>  (1) 
0

>  <PUBCHEM_ISOTOPIC_ATOM_COUNT>  (1) 
0

>  <PUBCHEM_COMPONENT_COUNT>  (1) 
1

>  <PUBCHEM_CACTVS_TAUTO_COUNT>  (1) 
1

>  <PUBCHEM_CONFORMER_ID>  (1) 
00004A4B00000001

>  <PUBCHEM_MMFF94_ENERGY>  (1) 
37.3277

>  <PUBCHEM_FEATURE_SELFOVERLAP>  (1) 
25.406

>  <PUBCHEM_SHAPE_FINGERPRINT>  (1) 
10 15 17530973500767775565
10753850 27 10879994644425727006
12633257 1 15357986680355769970
12760667 363 9007059067546475391
13911852 28 7925916971545075745
13955234 65 18045785589769915419
14123256 34 9079117786533947640
14216079 64 8790889575362166817
14257110 125 18411700976217441759
1768 124 12757151281337110001
20281389 69 18408319995068248192
20374829 77 10231762175376353006
20388580 30 11095874986627903226
20526848 3 18411423907687578029
20567600 254 18259980461959412061
20621476 21 13038321741362536821
20621476 66 18334860567361486684
21637258 2 9439403497422843238
22224240 67 17894631461633711643
23016692 55 10519988175014191560
23559900 14 11527364006112873431
270888 7 18411697716543187304
2748736 6 18411410709232264244
2767999 5 18410291410700334900
2838139 119 18343012298734230012
2916195 48 18410574010947732771
293599 30 18411981368646154974
3004659 81 11600002150452673830
3014063 24 11314311671941842201
3472631 163 18341896328949836636
351380 3 9439404614219978212
465052 167 10737290130100571698
5104073 3 18041849402856481259
543368 44 18272932701046643081
59682541 35 18334585668264283491
59682541 52 16988292980196464134
59755656 520 18333444361234388646
77188 2 17326889578155705795

>  <PUBCHEM_SHAPE_MULTIPOLES>  (1) 
358.51
18.77
2.79
1.07
1.36
0.84
0.07
-17.79
-0.15
-0.25
0.19
-0.22
-0.13
0.26

>  <PUBCHEM_SHAPE_SELFOVERLAP>  (1) 
650.748

>  <PUBCHEM_SHAPE_VOLUME>  (1) 
232.5

>  <PUBCHEM_COORDINATE_TYPE>  (1) 
2
5
10

$$$$
