19027
     RDKit          3D

 18 20  0  0  0  0  0  0  0  0999 V2000
   -3.5626   -2.2471   -0.2587 O   0  0  0  0  0  0  0  0  0  0  0  0
    4.9015   -0.6594   -0.6480 N   0  0  0  0  0  0  0  0  0  0  0  0
   -1.2061    2.6982   -0.0392 N   0  0  0  0  0  0  0  0  0  0  0  0
    2.1480   -0.1900    0.2570 C   0  0  0  0  0  0  0  0  0  0  0  0
    3.0645    0.9474   -0.2114 C   0  0  0  0  0  0  0  0  0  0  0  0
    2.9916   -1.3652    0.7670 C   0  0  0  0  0  0  0  0  0  0  0  0
    1.1770    0.2944    1.3300 C   0  0  0  0  0  0  0  0  0  0  0  0
    4.1103    0.4405   -1.2041 C   0  0  0  0  0  0  0  0  0  0  0  0
    4.0410   -1.7806   -0.2639 C   0  0  0  0  0  0  0  0  0  0  0  0
    0.0246    1.0543    0.7307 C   0  0  0  0  0  0  0  0  0  0  0  0
   -1.1940    0.4943    0.3073 C   0  0  0  0  0  0  0  0  0  0  0  0
    0.0088    2.3968    0.5157 C   0  0  0  0  0  0  0  0  0  0  0  0
   -1.9612    1.5555   -0.1780 C   0  0  0  0  0  0  0  0  0  0  0  0
   -1.7391   -0.8046    0.2802 C   0  0  0  0  0  0  0  0  0  0  0  0
   -3.2515    1.3818   -0.6911 C   0  0  0  0  0  0  0  0  0  0  0  0
   -3.0286   -0.9934   -0.2302 C   0  0  0  0  0  0  0  0  0  0  0  0
   -3.7715    0.0844   -0.7078 C   0  0  0  0  0  0  0  0  0  0  0  0
   -2.7528   -3.3075    0.2442 C   0  0  0  0  0  0  0  0  0  0  0  0
  1 16  1  0
  1 18  1  0
  2  8  1  0
  2  9  1  0
  3 12  1  0
  3 13  1  0
  4  5  1  0
  4  6  1  0
  4  7  1  0
  5  8  1  0
  6  9  1  0
  7 10  1  0
 10 11  1  0
 10 12  2  0
 11 13  2  0
 11 14  1  0
 13 15  1  0
 14 16  2  0
 15 17  2  0
 16 17  1  0
M  END
>  <PUBCHEM_COMPOUND_CID>  (1) 
19027

>  <PUBCHEM_CONFORMER_RMSD>  (1) 
0.6

>  <PUBCHEM_CONFORMER_DIVERSEORDER>  (1) 
1
39
19
38
37
40
20
7
25
14
21
34
4
13
22
33
3
10
26
9
29
27
8
23
24
30
6
18
5
36
17
28
35
2
32
31
15
12
16
11

>  <PUBCHEM_MMFF94_PARTIAL_CHARGES>  (1) 
20
1 -0.36
10 -0.18
12 -0.3
13 -0.15
14 -0.15
15 -0.15
16 0.08
17 -0.15
18 0.28
2 -0.9
3 0.03
30 0.36
31 0.15
32 0.27
33 0.15
34 0.15
35 0.15
7 0.18
8 0.27
9 0.27

>  <PUBCHEM_EFFECTIVE_ROTOR_COUNT>  (1) 
4.2

>  <PUBCHEM_PHARMACOPHORE_FEATURES>  (1) 
8
1 1 acceptor
1 2 cation
1 2 donor
1 3 cation
1 3 donor
5 3 10 11 12 13 rings
6 11 13 14 15 16 17 rings
6 2 4 5 6 8 9 rings

>  <PUBCHEM_HEAVY_ATOM_COUNT>  (1) 
18

>  <PUBCHEM_ATOM_DEF_STEREO_COUNT>  (1) 
0

>  <PUBCHEM_ATOM_UDEF_STEREO_COUNT>  (1) 
0

>  <PUBCHEM_BOND_DEF_STEREO_COUNT>  (1) 
0

>  <PUBCHEM_BOND_UDEF_STEREO_COUNT>  (1) 
0

>  <PUBCHEM_ISOTOPIC_ATOM_COUNT>  (1) 
0

>  <PUBCHEM_COMPONENT_COUNT>  (1) 
1

>  <PUBCHEM_CACTVS_TAUTO_COUNT>  (1) 
1

>  <PUBCHEM_CONFORMER_ID>  (1) 
00004A5300000001

>  <PUBCHEM_MMFF94_ENERGY>  (1) 
32.347

>  <PUBCHEM_FEATURE_SELFOVERLAP>  (1) 
40.687

>  <PUBCHEM_SHAPE_FINGERPRINT>  (1) 
10616163 171 18411983533489507574
10759866 29 18334016073469460270
11127187 94 18409443666082080645
11543360 7 18260270763268138876
12363563 72 17203602658182528312
12553582 1 18337947991232128243
12596602 18 13398617355807778046
12670546 177 18260268551301907468
12707595 3 17489582364239222672
12892183 10 11167939164976926204
14115302 16 18336825290743436124
14790565 3 18123191204276099881
14863182 85 16893986007971470079
15415430 112 18408322194144062779
16752209 62 18194382417278314049
16945 1 18264466478423657345
17804303 29 18343862230102579233
17870717 6 18199479783180675374
18186145 218 16370729210144330144
18785283 64 16106713039232660417
18915474 69 18409168814045173718
19862831 5 17967814920870428088
200 152 18335140865200452004
20281475 54 18342177786425041505
20291156 8 18339924917095947134
20645476 183 18041836186941066475
20871998 22 18196930187546267841
20871999 31 18335136505613409343
21634736 98 18335139812838401988
221490 88 18339082708764403408
22182313 1 18123167242515775249
22950370 63 18337964488296327723
23379529 103 18272382983508094854
23402539 116 18260825999723884654
23402655 69 18041565724466504140
23557571 272 18200859700570712888
23559900 14 18341322328288616872
238 59 14383174321546219910
238078 22 18340495537913713048
27216 239 9511458931413819021
2748010 2 18122321726748359193
3082319 5 18261676982826555904
4921388 177 18341343201175183908
633830 44 16443635605810580708
67856867 119 18260824917677410912
8809292 202 18411976949430860019
9709674 26 18340759429273085040

>  <PUBCHEM_SHAPE_MULTIPOLES>  (1) 
354.6
8.48
2.91
0.98
6.1
1.09
-0.04
3.96
2.94
-2.46
-0.19
0.47
-0.1
0.1

>  <PUBCHEM_SHAPE_SELFOVERLAP>  (1) 
760.471

>  <PUBCHEM_SHAPE_VOLUME>  (1) 
197.2

>  <PUBCHEM_COORDINATE_TYPE>  (1) 
2
5
10

$$$$
