19021
     RDKit          3D

 18 18  0  0  0  0  0  0  0  0999 V2000
   -4.3844    0.8612    0.7727 O   0  0  0  0  0  0  0  0  0  0  0  0
   -3.5894    1.7484   -1.0711 O   0  0  0  0  0  0  0  0  0  0  0  0
    1.3378    2.5788    1.2261 O   0  0  0  0  0  0  0  0  0  0  0  0
    2.1419    0.0602    0.4806 N   0  0  0  0  0  0  0  0  0  0  0  0
   -3.5289    0.9048   -0.1441 N   0  0  0  0  0  0  0  0  0  0  0  0
    2.6308    1.1770   -0.0978 N   0  0  0  0  0  0  0  0  0  0  0  0
    2.7624    3.4547   -0.3482 N   0  0  0  0  0  0  0  0  0  0  0  0
    0.7680   -2.8416   -0.0939 C   0  0  0  0  0  0  0  0  0  0  0  0
    1.9894   -2.3373    0.6759 C   0  0  0  0  0  0  0  0  0  0  0  0
   -0.3700   -1.8505   -0.1076 C   0  0  0  0  0  0  0  0  0  0  0  0
    2.5755   -1.0841    0.0447 C   0  0  0  0  0  0  0  0  0  0  0  0
   -1.3197   -1.8921    0.9010 C   0  0  0  0  0  0  0  0  0  0  0  0
   -0.4445   -0.9157   -1.1282 C   0  0  0  0  0  0  0  0  0  0  0  0
   -2.3711   -0.9756    0.8885 C   0  0  0  0  0  0  0  0  0  0  0  0
   -1.4959    0.0011   -1.1406 C   0  0  0  0  0  0  0  0  0  0  0  0
   -2.4591   -0.0288   -0.1321 C   0  0  0  0  0  0  0  0  0  0  0  0
    3.5856   -1.2696   -1.0634 C   0  0  0  0  0  0  0  0  0  0  0  0
    2.1716    2.4092    0.3376 C   0  0  0  0  0  0  0  0  0  0  0  0
  1  5  1  0
  2  5  2  0
  3 18  2  0
  4  6  1  0
  4 11  2  0
  5 16  1  0
  6 18  1  0
  7 18  1  0
  8  9  1  0
  8 10  1  0
  9 11  1  0
 10 12  2  0
 10 13  1  0
 11 17  1  0
 12 14  1  0
 13 15  2  0
 14 16  2  0
 15 16  1  0
M  CHG  2   1  -1   5   1
M  END
>  <PUBCHEM_COMPOUND_CID>  (1) 
19021

>  <PUBCHEM_CONFORMER_RMSD>  (1) 
0.8

>  <PUBCHEM_CONFORMER_DIVERSEORDER>  (1) 
1
2
11
10
6
3
8
4
5
9
7

>  <PUBCHEM_MMFF94_PARTIAL_CHARGES>  (1) 
25
1 -0.52
10 -0.14
11 0.33
12 -0.15
13 -0.15
14 -0.15
15 -0.15
16 0.13
17 0.06
18 0.69
2 -0.52
23 0.15
24 0.15
25 0.15
26 0.15
3 -0.57
30 0.37
31 0.37
32 0.37
4 -0.51
5 0.91
6 -0.37
7 -0.8
8 0.14
9 0.06

>  <PUBCHEM_EFFECTIVE_ROTOR_COUNT>  (1) 
6

>  <PUBCHEM_PHARMACOPHORE_FEATURES>  (1) 
8
1 1 acceptor
1 1 anion
1 2 acceptor
1 3 acceptor
1 4 acceptor
1 6 donor
1 7 donor
6 10 12 13 14 15 16 rings

>  <PUBCHEM_HEAVY_ATOM_COUNT>  (1) 
18

>  <PUBCHEM_ATOM_DEF_STEREO_COUNT>  (1) 
0

>  <PUBCHEM_ATOM_UDEF_STEREO_COUNT>  (1) 
0

>  <PUBCHEM_BOND_DEF_STEREO_COUNT>  (1) 
0

>  <PUBCHEM_BOND_UDEF_STEREO_COUNT>  (1) 
1

>  <PUBCHEM_ISOTOPIC_ATOM_COUNT>  (1) 
0

>  <PUBCHEM_COMPONENT_COUNT>  (1) 
1

>  <PUBCHEM_CACTVS_TAUTO_COUNT>  (1) 
3

>  <PUBCHEM_CONFORMER_ID>  (1) 
00004A4D00000001

>  <PUBCHEM_MMFF94_ENERGY>  (1) 
48.3579

>  <PUBCHEM_FEATURE_SELFOVERLAP>  (1) 
40.736

>  <PUBCHEM_SHAPE_FINGERPRINT>  (1) 
10366900 7 18113909229981996811
104564 63 17768533785638734042
12617007 42 17988094279194807022
12633257 1 18260546676040746587
128993 33 18193840568314439168
14026960 21 18336550524832702515
14386348 128 18195257834491831432
15238133 3 18117278052020746534
18186145 218 18343016649588887215
18219364 16 18335417980257732649
18785283 64 18335430075091678577
20233049 118 18262241006632772662
21041028 32 17688865346280973806
21524375 3 17909545404824993162
21639500 275 18338499855853612743
23558518 356 18192988455430277342
238 59 18055329582204283871
25 1 18336828585036262014
3524813 1 18188208693510259381
474 4 18412820279249690073
5939293 188 18411695453100489170
7226269 152 17986112031977947072
81228 2 17606400105818460931

>  <PUBCHEM_SHAPE_MULTIPOLES>  (1) 
332.9
6.32
3.59
1.11
3.44
2.05
0.09
2.96
0.3
-3.04
-0.48
0.2
-0.01
0.69

>  <PUBCHEM_SHAPE_SELFOVERLAP>  (1) 
683.356

>  <PUBCHEM_SHAPE_VOLUME>  (1) 
191.6

>  <PUBCHEM_COORDINATE_TYPE>  (1) 
2
5
10

$$$$
