19032
     RDKit          3D

 25 28  0  0  0  0  0  0  0  0999 V2000
   -1.9278   -0.6499    0.4573 N   0  0  0  0  0  0  0  0  0  0  0  0
    4.9617   -1.4360   -0.6155 N   0  0  0  0  0  0  0  0  0  0  0  0
    0.9419   -0.1777    0.8277 C   0  0  0  0  0  0  0  0  0  0  0  0
   -0.1196    0.4573    1.7323 C   0  0  0  0  0  0  0  0  0  0  0  0
    0.3934   -1.4706    0.2148 C   0  0  0  0  0  0  0  0  0  0  0  0
   -1.4486    0.6308    0.9941 C   0  0  0  0  0  0  0  0  0  0  0  0
   -0.9523   -1.2329   -0.4735 C   0  0  0  0  0  0  0  0  0  0  0  0
    2.2332   -0.4400    1.5977 C   0  0  0  0  0  0  0  0  0  0  0  0
   -3.2228   -0.4767   -0.2003 C   0  0  0  0  0  0  0  0  0  0  0  0
    3.4187   -0.5695    0.6932 C   0  0  0  0  0  0  0  0  0  0  0  0
    4.2561    0.4855    0.2719 C   0  0  0  0  0  0  0  0  0  0  0  0
   -4.2812    0.0056    0.7924 C   0  0  0  0  0  0  0  0  0  0  0  0
    3.8623   -1.7367    0.1429 C   0  0  0  0  0  0  0  0  0  0  0  0
    5.2254   -0.0861   -0.5553 C   0  0  0  0  0  0  0  0  0  0  0  0
   -5.6272    0.1667    0.1317 C   0  0  0  0  0  0  0  0  0  0  0  0
    4.2968    1.8745    0.5049 C   0  0  0  0  0  0  0  0  0  0  0  0
    6.2373    0.6652   -1.1636 C   0  0  0  0  0  0  0  0  0  0  0  0
    5.7248   -2.4088   -1.3677 C   0  0  0  0  0  0  0  0  0  0  0  0
    5.3034    2.6385   -0.0969 C   0  0  0  0  0  0  0  0  0  0  0  0
    6.2577    2.0411   -0.9179 C   0  0  0  0  0  0  0  0  0  0  0  0
   -5.9657    1.3858   -0.4358 C   0  0  0  0  0  0  0  0  0  0  0  0
   -6.5045   -0.9068    0.1029 C   0  0  0  0  0  0  0  0  0  0  0  0
   -7.2108    1.5351   -1.0466 C   0  0  0  0  0  0  0  0  0  0  0  0
   -7.7496   -0.7577   -0.5080 C   0  0  0  0  0  0  0  0  0  0  0  0
   -8.1027    0.4633   -1.0827 C   0  0  0  0  0  0  0  0  0  0  0  0
  1  6  1  0
  1  7  1  0
  1  9  1  0
  2 13  1  0
  2 14  1  0
  2 18  1  0
  3  4  1  0
  3  5  1  0
  3  8  1  0
  4  6  1  0
  5  7  1  0
  8 10  1  0
  9 12  1  0
 10 11  1  0
 10 13  2  0
 11 14  2  0
 11 16  1  0
 12 15  1  0
 14 17  1  0
 15 21  2  0
 15 22  1  0
 16 19  2  0
 17 20  2  0
 19 20  1  0
 21 23  1  0
 22 24  2  0
 23 25  2  0
 24 25  1  0
M  END
>  <PUBCHEM_COMPOUND_CID>  (1) 
19032

>  <PUBCHEM_CONFORMER_RMSD>  (1) 
0.8

>  <PUBCHEM_CONFORMER_DIVERSEORDER>  (1) 
2
22
19
64
51
55
42
100
87
80
25
65
50
101
126
4
118
81
94
37
123
15
57
121
112
91
120
40
75
38
8
82
93
27
33
47
70
113
24
68
90
10
59
66
58
71
13
23
89
122
14
103
107
114
34
111
77
63
7
26
5
117
105
48
116
11
125
21
17
54
96
102
109
39
97
108
46
119
127
84
67
106
99
30
110
98
32
79
88
12
74
95
44
6
104
20
29
86
43
124
49
3
16
85
36
62
45
56
83
69
72
61
76
53
9
52
31
1
92
28
73
41
18
78
60
35
115

>  <PUBCHEM_MMFF94_PARTIAL_CHARGES>  (1) 
31
1 -0.81
10 -0.18
12 0.14
13 -0.3
14 -0.15
15 -0.14
16 -0.15
17 -0.15
18 0.26
19 -0.15
2 0.05
20 -0.15
21 -0.15
22 -0.15
23 -0.15
24 -0.15
25 -0.15
41 0.15
42 0.15
43 0.15
47 0.15
48 0.15
49 0.15
50 0.15
51 0.15
52 0.15
53 0.15
6 0.27
7 0.27
8 0.18
9 0.27

>  <PUBCHEM_EFFECTIVE_ROTOR_COUNT>  (1) 
6.2

>  <PUBCHEM_PHARMACOPHORE_FEATURES>  (1) 
6
1 1 cation
1 2 cation
5 2 10 11 13 14 rings
6 1 3 4 5 6 7 rings
6 11 14 16 17 19 20 rings
6 15 21 22 23 24 25 rings

>  <PUBCHEM_HEAVY_ATOM_COUNT>  (1) 
25

>  <PUBCHEM_ATOM_DEF_STEREO_COUNT>  (1) 
0

>  <PUBCHEM_ATOM_UDEF_STEREO_COUNT>  (1) 
0

>  <PUBCHEM_BOND_DEF_STEREO_COUNT>  (1) 
0

>  <PUBCHEM_BOND_UDEF_STEREO_COUNT>  (1) 
0

>  <PUBCHEM_ISOTOPIC_ATOM_COUNT>  (1) 
0

>  <PUBCHEM_COMPONENT_COUNT>  (1) 
1

>  <PUBCHEM_CACTVS_TAUTO_COUNT>  (1) 
1

>  <PUBCHEM_CONFORMER_ID>  (1) 
00004A5800000002

>  <PUBCHEM_MMFF94_ENERGY>  (1) 
46.5889

>  <PUBCHEM_FEATURE_SELFOVERLAP>  (1) 
30.541

>  <PUBCHEM_SHAPE_FINGERPRINT>  (1) 
10 15 11530489917454265259
10066227 112 18408321099307255901
10280341 67 18049441741433078508
10673678 19 18338240474130650252
11135609 127 18129091385845140032
11181472 205 18194398897811659729
11211813 74 18040428872588521677
11386260 185 18412552007446014372
11607047 191 17416098799175162776
11991303 11 17846489379456012711
12166972 35 15410610411263902387
13073987 5 8502377732412553743
13533116 47 18130792244016673202
13668630 136 13614522961260133861
13685833 64 11815902257777354472
13782708 43 13039183715233315393
14251757 52 18113613482802542125
14931854 50 18200609068060304040
14933364 13 18407759236033178093
15183329 4 16702304563877365183
15348495 7 9294992575537660101
15352257 5 11815897864437657389
15475509 35 12247412142440835540
16994733 274 17095516276196060741
18222031 100 15482672390130798338
18335252 114 18409444791247812068
19377110 9 13840258174362273301
20157964 124 18410577288493063150
2026 5 15050633508734482268
20554085 129 16008743628340323609
21150785 3 18343020017048767729
21424621 283 17240761762161388953
21781051 124 16128374938912657255
21781055 127 15502654850678563272
21792934 111 7925642081228340807
221357 26 18412548687283235168
22224240 67 14923941267399889425
23081809 10 17417819417837453907
23424782 7 18188777266166994275
23516275 100 17823133591592235732
23522609 53 17273443684124000913
23569943 247 13325482201625011717
23576562 1 18267577095914055389
24771293 8 16515971474821357526
255183 451 17628649544467872422
27425 322 17968100888757931550
3004659 81 18202283568234222858
3383291 50 13110670680201589333
34797466 226 18408324388750986367
4073 2 17749392594112474843
4340502 62 10015860981261565752
5104073 3 11531024254345883015
5758199 1 16515684429941957025
59682541 52 18343867701901275462
6328613 192 18408603669632638833

>  <PUBCHEM_SHAPE_MULTIPOLES>  (1) 
504.53
24.1
2.12
1.29
31.93
0.41
-0.15
6.02
10.93
-3.8
0.59
-0.52
0
0.87

>  <PUBCHEM_SHAPE_SELFOVERLAP>  (1) 
1085.708

>  <PUBCHEM_SHAPE_VOLUME>  (1) 
277.7

>  <PUBCHEM_COORDINATE_TYPE>  (1) 
2
5
10

$$$$
