19035
     RDKit          3D

 19 22  0  0  0  0  0  0  0  0999 V2000
    0.7452   -0.8990    0.0013 N   0  0  0  0  0  0  0  0  0  0  0  0
   -1.4969   -0.0119    0.0006 C   0  0  0  0  0  0  0  0  0  0  0  0
   -0.0950    0.1616    0.0009 C   0  0  0  0  0  0  0  0  0  0  0  0
    0.4172    1.4718    0.0004 C   0  0  0  0  0  0  0  0  0  0  0  0
   -2.3621    1.1128    0.0000 C   0  0  0  0  0  0  0  0  0  0  0  0
    2.6637    0.5449   -0.0001 C   0  0  0  0  0  0  0  0  0  0  0  0
    1.8054    1.6467    0.0001 C   0  0  0  0  0  0  0  0  0  0  0  0
   -2.0886   -1.2934    0.0006 C   0  0  0  0  0  0  0  0  0  0  0  0
   -0.4419    2.5776    0.0002 C   0  0  0  0  0  0  0  0  0  0  0  0
    2.0814   -0.7300    0.0008 C   0  0  0  0  0  0  0  0  0  0  0  0
   -1.8200    2.3994    0.0000 C   0  0  0  0  0  0  0  0  0  0  0  0
   -3.4752   -1.4594   -0.0002 C   0  0  0  0  0  0  0  0  0  0  0  0
   -3.7551    0.9306   -0.0007 C   0  0  0  0  0  0  0  0  0  0  0  0
   -4.3078   -0.3480   -0.0011 C   0  0  0  0  0  0  0  0  0  0  0  0
    4.0622    0.6911   -0.0010 C   0  0  0  0  0  0  0  0  0  0  0  0
    2.9266   -1.8365    0.0007 C   0  0  0  0  0  0  0  0  0  0  0  0
   -4.0619   -2.8311   -0.0006 C   0  0  0  0  0  0  0  0  0  0  0  0
    4.8862   -0.4302   -0.0014 C   0  0  0  0  0  0  0  0  0  0  0  0
    4.3167   -1.6970   -0.0005 C   0  0  0  0  0  0  0  0  0  0  0  0
  1  3  2  0
  1 10  1  0
  2  3  1  0
  2  5  2  0
  2  8  1  0
  3  4  1  0
  4  7  2  0
  4  9  1  0
  5 11  1  0
  5 13  1  0
  6  7  1  0
  6 10  2  0
  6 15  1  0
  8 12  2  0
  9 11  2  0
 10 16  1  0
 12 14  1  0
 12 17  1  0
 13 14  2  0
 15 18  2  0
 16 19  2  0
 18 19  1  0
M  END
>  <PUBCHEM_COMPOUND_CID>  (1) 
19035

>  <PUBCHEM_CONFORMER_RMSD>  (1) 
0.4

>  <PUBCHEM_CONFORMER_DIVERSEORDER>  (1) 
1

>  <PUBCHEM_MMFF94_PARTIAL_CHARGES>  (1) 
25
1 -0.62
10 0.31
11 -0.15
12 -0.14
13 -0.15
14 -0.15
15 -0.15
16 -0.15
17 0.14
18 -0.15
19 -0.15
20 0.15
21 0.15
22 0.15
23 0.15
24 0.15
25 0.15
26 0.15
27 0.15
3 0.31
31 0.15
32 0.15
7 -0.15
8 -0.15
9 -0.15

>  <PUBCHEM_EFFECTIVE_ROTOR_COUNT>  (1) 
0

>  <PUBCHEM_PHARMACOPHORE_FEATURES>  (1) 
5
1 1 acceptor
6 1 3 4 6 7 10 rings
6 2 3 4 5 9 11 rings
6 2 5 8 12 13 14 rings
6 6 10 15 16 18 19 rings

>  <PUBCHEM_HEAVY_ATOM_COUNT>  (1) 
19

>  <PUBCHEM_ATOM_DEF_STEREO_COUNT>  (1) 
0

>  <PUBCHEM_ATOM_UDEF_STEREO_COUNT>  (1) 
0

>  <PUBCHEM_BOND_DEF_STEREO_COUNT>  (1) 
0

>  <PUBCHEM_BOND_UDEF_STEREO_COUNT>  (1) 
0

>  <PUBCHEM_ISOTOPIC_ATOM_COUNT>  (1) 
0

>  <PUBCHEM_COMPONENT_COUNT>  (1) 
1

>  <PUBCHEM_CACTVS_TAUTO_COUNT>  (1) 
1

>  <PUBCHEM_CONFORMER_ID>  (1) 
00004A5B00000001

>  <PUBCHEM_MMFF94_ENERGY>  (1) 
63.8017

>  <PUBCHEM_FEATURE_SELFOVERLAP>  (1) 
25.458

>  <PUBCHEM_SHAPE_FINGERPRINT>  (1) 
10319926 262 18124572221366721538
10616163 171 18412546474752670054
10618630 7 18409730664112459788
10622 236 16910579764840347751
10906281 52 18200326411798561317
10967382 1 18122344841665922336
11045515 52 18040996245772838381
11578080 2 17488722593449341865
11806522 49 18335983151031051302
12032990 46 18410857689247888913
12403259 226 18411975862899411008
12553582 1 18410283744452990259
13140716 1 18413674621291022241
13288520 33 18412266108214638182
13544653 18 18334862757108855787
138480 1 15095924242943443429
14787075 74 18188773976021156304
14790565 3 17835525916707921641
15196674 1 18410855481618842020
15352361 1 18410855499094415655
15442244 35 18338800013668989880
15536298 74 18341892996055376992
16945 1 18266740177573945185
17492 89 18410293567154362162
17804303 29 18342177752044385753
1813 80 17530686519410896381
19141452 34 18413111645752322305
19591789 44 18411418457405825390
200 152 18131344215965062309
20261772 1 17917427670050066054
20281475 54 18410859888429646849
20291156 8 18410855490393444927
20510252 161 18127973014076834128
21267235 1 18410302419002142843
21421861 104 17898288307957672282
221490 88 18263649635182403211
23402539 116 18409724067037489918
23463225 33 18410857667757390709
23557571 272 18129949966427836100
23559900 14 18412256221195050784
2748010 2 18339632438676943573
2871803 45 18334571334966827534
335352 9 18410856521644792125
34934 24 18336822009715216185
4214541 1 18338517439191252832
46194498 28 17315622170294668831
4921388 177 16154002330104865083
5104073 3 18413669102104917304
67856867 119 18261110812038436188
7364860 26 18124594438246391537
77779 3 18411139125786223694
8809292 202 18334580143971145099
9709674 26 18198346160780553806

>  <PUBCHEM_SHAPE_MULTIPOLES>  (1) 
386.03
9.13
2.73
0.61
2.87
0.01
0
-4.84
0
-1.58
0
0
0
0

>  <PUBCHEM_SHAPE_SELFOVERLAP>  (1) 
886.617

>  <PUBCHEM_SHAPE_VOLUME>  (1) 
199.4

>  <PUBCHEM_COORDINATE_TYPE>  (1) 
2
5
10

$$$$
