19045
     RDKit          3D

 14 15  0  0  1  0  0  0  0  0999 V2000
   -0.6318    1.8027   -0.0596 O   0  0  0  0  0  0  0  0  0  0  0  0
    1.8542   -0.1644    0.5288 N   0  0  0  0  0  0  0  0  0  0  0  0
    4.0255   -0.3625    1.3191 N   0  0  0  0  0  0  0  0  0  0  0  0
    3.7674    0.0436   -0.9088 N   0  0  0  0  0  0  0  0  0  0  0  0
    0.9734    0.0637   -0.6157 C   0  0  0  0  0  0  0  0  0  0  0  0
   -0.3905   -0.4672   -0.3883 C   0  0  0  0  0  0  0  0  0  0  0  0
    0.6357    1.5559   -0.7195 C   0  0  0  0  0  0  0  0  0  0  0  0
   -1.2436    0.5750   -0.0562 C   0  0  0  0  0  0  0  0  0  0  0  0
   -2.5699    0.3615    0.2653 C   0  0  0  0  0  0  0  0  0  0  0  0
   -0.8453   -1.7733   -0.4170 C   0  0  0  0  0  0  0  0  0  0  0  0
   -3.0433   -0.9514    0.2327 C   0  0  0  0  0  0  0  0  0  0  0  0
   -2.1871   -2.0120   -0.1078 C   0  0  0  0  0  0  0  0  0  0  0  0
   -3.4753    1.4842    0.6313 C   0  0  0  0  0  0  0  0  0  0  0  0
    3.1305   -0.1558    0.2959 C   0  0  0  0  0  0  0  0  0  0  0  0
  1  7  1  0
  1  8  1  0
  2  5  1  0
  2 14  2  3
  3 14  1  0
  4 14  1  0
  5  6  1  0
  5  7  1  0
  6  8  2  0
  6 10  1  0
  8  9  1  0
  9 11  2  0
  9 13  1  0
 10 12  2  0
 11 12  1  0
M  END
>  <PUBCHEM_COMPOUND_CID>  (1) 
19045

>  <PUBCHEM_CONFORMER_RMSD>  (1) 
0.6

>  <PUBCHEM_CONFORMER_DIVERSEORDER>  (1) 
1
5
4
2
3

>  <PUBCHEM_MMFF94_PARTIAL_CHARGES>  (1) 
21
1 -0.36
10 -0.15
11 -0.15
12 -0.15
13 0.14
14 0.55
18 0.15
19 0.15
2 -0.7
20 0.15
24 0.4
25 0.4
26 0.4
27 0.4
3 -0.85
4 -0.85
5 0.39
6 -0.14
7 0.28
8 0.08
9 -0.14

>  <PUBCHEM_EFFECTIVE_ROTOR_COUNT>  (1) 
1.6

>  <PUBCHEM_PHARMACOPHORE_FEATURES>  (1) 
6
1 1 acceptor
1 3 donor
1 4 donor
4 2 3 4 14 cation
5 1 5 6 7 8 rings
6 6 8 9 10 11 12 rings

>  <PUBCHEM_HEAVY_ATOM_COUNT>  (1) 
14

>  <PUBCHEM_ATOM_DEF_STEREO_COUNT>  (1) 
0

>  <PUBCHEM_ATOM_UDEF_STEREO_COUNT>  (1) 
1

>  <PUBCHEM_BOND_DEF_STEREO_COUNT>  (1) 
0

>  <PUBCHEM_BOND_UDEF_STEREO_COUNT>  (1) 
0

>  <PUBCHEM_ISOTOPIC_ATOM_COUNT>  (1) 
0

>  <PUBCHEM_COMPONENT_COUNT>  (1) 
1

>  <PUBCHEM_CACTVS_TAUTO_COUNT>  (1) 
2

>  <PUBCHEM_CONFORMER_ID>  (1) 
00004A6500000001

>  <PUBCHEM_MMFF94_ENERGY>  (1) 
44.8376

>  <PUBCHEM_FEATURE_SELFOVERLAP>  (1) 
30.604

>  <PUBCHEM_SHAPE_FINGERPRINT>  (1) 
11132069 177 18411980234911880432
11578080 2 17751333265989050148
12119455 92 16917061110173456212
12251169 10 18411982468189457409
12382932 28 18412829066399375915
12423570 1 10661336914725683543
12932764 1 17822006523505651260
13024252 1 15502371210537000063
13380535 76 18341054021713037303
14144814 61 18407760356518618834
14993402 34 18408322189885967037
15219456 202 17774730770390618558
15375462 189 17967249797494672416
15669948 3 18410857702375618046
16945 1 18409449154812940637
17804303 29 18343024389088085160
18511873 20 18260548926624571649
19422 9 18113621205058703946
20361792 2 17313093181432987294
20510252 161 18131357414193854409
20645464 45 17775007886022781871
20871998 184 18201722889833081159
21501502 16 18266464393624054717
22445834 79 18259981586998510618
232386 152 18338524152135329687
23402539 116 18272922839706435487
23463225 33 18334294249547024174
23552423 10 17757277354881753205
23559900 14 18202010885218662478
257057 1 17552905639843881863
2748010 2 18268146642256637413
43471831 8 18336544919684623075
58807428 26 18338803286766691083
7364860 26 17981893248046542724
75552 356 18413108376796939299
77492 1 17895199925908195278
90316 7 18260538988049604372

>  <PUBCHEM_SHAPE_MULTIPOLES>  (1) 
267.3
6.13
1.81
0.9
4.55
0.12
-0.08
0.13
-1.66
-1.57
0.14
0.59
-0.03
-0.49

>  <PUBCHEM_SHAPE_SELFOVERLAP>  (1) 
573.498

>  <PUBCHEM_SHAPE_VOLUME>  (1) 
148.6

>  <PUBCHEM_COORDINATE_TYPE>  (1) 
2
5
10

$$$$
