19049
     RDKit          3D

 10 10  0  0  0  0  0  0  0  0999 V2000
   -0.2582   -0.4493   -0.0127 N   0  0  0  0  0  0  0  0  0  0  0  0
    3.8795    0.8594    0.5440 N   0  0  0  0  0  0  0  0  0  0  0  0
   -0.5938    0.7229   -0.8334 C   0  0  0  0  0  0  0  0  0  0  0  0
   -1.4300   -1.3145    0.1819 C   0  0  0  0  0  0  0  0  0  0  0  0
   -1.7065    1.5489   -0.1863 C   0  0  0  0  0  0  0  0  0  0  0  0
   -2.5701   -0.5550    0.8623 C   0  0  0  0  0  0  0  0  0  0  0  0
   -2.9438    0.6996    0.0814 C   0  0  0  0  0  0  0  0  0  0  0  0
    0.8386   -1.2023   -0.6208 C   0  0  0  0  0  0  0  0  0  0  0  0
    2.1351   -0.3975   -0.6875 C   0  0  0  0  0  0  0  0  0  0  0  0
    2.6492    0.0878    0.6710 C   0  0  0  0  0  0  0  0  0  0  0  0
  1  3  1  0
  1  4  1  0
  1  8  1  0
  2 10  1  0
  3  5  1  0
  4  6  1  0
  5  7  1  0
  6  7  1  0
  8  9  1  0
  9 10  1  0
M  END
>  <PUBCHEM_COMPOUND_CID>  (1) 
19049

>  <PUBCHEM_CONFORMER_RMSD>  (1) 
0.6

>  <PUBCHEM_CONFORMER_DIVERSEORDER>  (1) 
1
19
18
12
11
10
13
17
20
5
2
14
8
7
3
6
16
9
4
15

>  <PUBCHEM_MMFF94_PARTIAL_CHARGES>  (1) 
8
1 -0.81
10 0.27
2 -0.99
27 0.36
28 0.36
3 0.27
4 0.27
8 0.27

>  <PUBCHEM_EFFECTIVE_ROTOR_COUNT>  (1) 
4.2

>  <PUBCHEM_PHARMACOPHORE_FEATURES>  (1) 
4
1 1 cation
1 2 cation
1 2 donor
6 1 3 4 5 6 7 rings

>  <PUBCHEM_HEAVY_ATOM_COUNT>  (1) 
10

>  <PUBCHEM_ATOM_DEF_STEREO_COUNT>  (1) 
0

>  <PUBCHEM_ATOM_UDEF_STEREO_COUNT>  (1) 
0

>  <PUBCHEM_BOND_DEF_STEREO_COUNT>  (1) 
0

>  <PUBCHEM_BOND_UDEF_STEREO_COUNT>  (1) 
0

>  <PUBCHEM_ISOTOPIC_ATOM_COUNT>  (1) 
0

>  <PUBCHEM_COMPONENT_COUNT>  (1) 
1

>  <PUBCHEM_CACTVS_TAUTO_COUNT>  (1) 
1

>  <PUBCHEM_CONFORMER_ID>  (1) 
00004A6900000001

>  <PUBCHEM_MMFF94_ENERGY>  (1) 
-2.5049

>  <PUBCHEM_FEATURE_SELFOVERLAP>  (1) 
20.297

>  <PUBCHEM_SHAPE_FINGERPRINT>  (1) 
10857977 72 18260840297216377815
12932764 1 18272380732433151774
14325111 11 18340768152351630646
14390081 3 18271807873973983773
15219456 202 18271249330942052758
15310529 11 15482395257323929335
15775835 57 17203886366473641540
17846911 113 18410006611651019721
20645464 45 18343023263553621494
20653085 51 16915671267620783089
20711985 344 7925096740366500782
20871998 184 18341338897966671575
21040471 1 17899429592632209655
23211744 41 18270967834332406103
2748010 2 17972894561685637703
3248919 1 17603594018736217455
369184 2 16081093679506742015
6333449 129 18413385449574680911
75552 356 18113621213390039331

>  <PUBCHEM_SHAPE_MULTIPOLES>  (1) 
195.83
5.25
1.41
0.92
3.41
0.05
-0.01
1.36
1.5
-0.49
-0.07
0.16
-0.02
0.56

>  <PUBCHEM_SHAPE_SELFOVERLAP>  (1) 
368.51

>  <PUBCHEM_SHAPE_VOLUME>  (1) 
121.4

>  <PUBCHEM_COORDINATE_TYPE>  (1) 
2
5
10

$$$$
