19057
     RDKit          3D

 12 12  0  0  0  0  0  0  0  0999 V2000
    2.9297   -1.3649    0.2845 O   0  0  0  0  0  0  0  0  0  0  0  0
    3.5280    0.8287   -0.1994 N   0  0  0  0  0  0  0  0  0  0  0  0
    4.8820    0.5602   -0.1559 N   0  0  0  0  0  0  0  0  0  0  0  0
   -1.2128   -0.2477    0.0611 C   0  0  0  0  0  0  0  0  0  0  0  0
   -1.6137    1.0809    0.2014 C   0  0  0  0  0  0  0  0  0  0  0  0
   -2.1652   -1.2453   -0.1474 C   0  0  0  0  0  0  0  0  0  0  0  0
    0.1984   -0.5930    0.1322 C   0  0  0  0  0  0  0  0  0  0  0  0
   -2.9670    1.4119    0.1333 C   0  0  0  0  0  0  0  0  0  0  0  0
   -3.5185   -0.9143   -0.2158 C   0  0  0  0  0  0  0  0  0  0  0  0
   -3.9195    0.4143   -0.0754 C   0  0  0  0  0  0  0  0  0  0  0  0
    1.2233    0.2693   -0.0529 C   0  0  0  0  0  0  0  0  0  0  0  0
    2.6355   -0.2002    0.0343 C   0  0  0  0  0  0  0  0  0  0  0  0
  1 12  2  0
  2  3  1  0
  2 12  1  0
  4  5  2  0
  4  6  1  0
  4  7  1  0
  5  8  1  0
  6  9  2  0
  7 11  2  0
  8 10  2  0
  9 10  1  0
 11 12  1  0
M  END
>  <PUBCHEM_COMPOUND_CID>  (1) 
19057

>  <PUBCHEM_CONFORMER_RMSD>  (1) 
0.6

>  <PUBCHEM_CONFORMER_DIVERSEORDER>  (1) 
1
2
3

>  <PUBCHEM_MMFF94_PARTIAL_CHARGES>  (1) 
22
1 -0.57
10 -0.15
11 -0.14
12 0.62
13 0.15
14 0.15
15 0.15
16 0.15
17 0.15
18 0.15
19 0.15
2 -0.42
20 0.37
21 0.36
22 0.36
3 -0.73
4 0.03
5 -0.15
6 -0.15
7 -0.18
8 -0.15
9 -0.15

>  <PUBCHEM_EFFECTIVE_ROTOR_COUNT>  (1) 
3

>  <PUBCHEM_PHARMACOPHORE_FEATURES>  (1) 
4
1 1 acceptor
1 2 donor
1 3 donor
6 4 5 6 8 9 10 rings

>  <PUBCHEM_HEAVY_ATOM_COUNT>  (1) 
12

>  <PUBCHEM_ATOM_DEF_STEREO_COUNT>  (1) 
0

>  <PUBCHEM_ATOM_UDEF_STEREO_COUNT>  (1) 
0

>  <PUBCHEM_BOND_DEF_STEREO_COUNT>  (1) 
0

>  <PUBCHEM_BOND_UDEF_STEREO_COUNT>  (1) 
1

>  <PUBCHEM_ISOTOPIC_ATOM_COUNT>  (1) 
0

>  <PUBCHEM_COMPONENT_COUNT>  (1) 
1

>  <PUBCHEM_CACTVS_TAUTO_COUNT>  (1) 
2

>  <PUBCHEM_CONFORMER_ID>  (1) 
00004A7100000001

>  <PUBCHEM_MMFF94_ENERGY>  (1) 
28.9784

>  <PUBCHEM_FEATURE_SELFOVERLAP>  (1) 
21.803

>  <PUBCHEM_SHAPE_FINGERPRINT>  (1) 
10014705 185 18187361017659415725
11062470 55 18334575754377281942
12932764 1 17418082239449534930
13024252 1 15502376721370339921
14144814 61 18408603638871360163
14325111 11 18410575058898562899
15669948 3 18272079526498047959
15775835 57 18408606941674817489
18186145 218 17895193268645764582
190213 19 17530687597553000263
20300324 65 18271525381301001085
20645477 56 18411139104591247873
20645477 70 18342458084792261902
23402539 116 18342167886978994607
23402655 69 18411134706038230876
23559900 14 18272650104793109890
77779 3 18411420596541807110

>  <PUBCHEM_SHAPE_MULTIPOLES>  (1) 
231.12
8.31
1.34
0.62
6.87
0.01
0
-1.09
0.52
-0.59
-0.03
-0.07
0
-0.3

>  <PUBCHEM_SHAPE_SELFOVERLAP>  (1) 
475.595

>  <PUBCHEM_SHAPE_VOLUME>  (1) 
132.6

>  <PUBCHEM_COORDINATE_TYPE>  (1) 
2
5
10

$$$$
