19054
     RDKit          3D

 12 13  0  0  1  0  0  0  0  0999 V2000
    0.4864    1.5326    0.0298 O   0  0  0  0  0  0  0  0  0  0  0  0
    2.3402   -0.0118   -0.3443 N   0  0  0  0  0  0  0  0  0  0  0  0
    1.5534   -1.1609    0.1184 C   0  0  0  0  0  0  0  0  0  0  0  0
    0.0790   -0.8661    0.0497 C   0  0  0  0  0  0  0  0  0  0  0  0
   -0.3701    0.4607    0.0268 C   0  0  0  0  0  0  0  0  0  0  0  0
    1.8547    1.1958    0.3313 C   0  0  0  0  0  0  0  0  0  0  0  0
   -1.7353    0.7445   -0.0332 C   0  0  0  0  0  0  0  0  0  0  0  0
   -0.8581   -1.9059    0.0496 C   0  0  0  0  0  0  0  0  0  0  0  0
    3.7638   -0.2218   -0.0909 C   0  0  0  0  0  0  0  0  0  0  0  0
   -2.6609   -0.2983   -0.0460 C   0  0  0  0  0  0  0  0  0  0  0  0
   -2.2232   -1.6214   -0.0010 C   0  0  0  0  0  0  0  0  0  0  0  0
   -2.2301    2.1526   -0.0902 C   0  0  0  0  0  0  0  0  0  0  0  0
  1  5  1  0
  1  6  1  0
  2  3  1  0
  2  6  1  0
  2  9  1  0
  3  4  1  0
  4  5  2  0
  4  8  1  0
  5  7  1  0
  7 10  2  0
  7 12  1  0
  8 11  2  0
 10 11  1  0
M  END
>  <PUBCHEM_COMPOUND_CID>  (1) 
19054

>  <PUBCHEM_CONFORMER_RMSD>  (1) 
0.4

>  <PUBCHEM_CONFORMER_DIVERSEORDER>  (1) 
1
2
3

>  <PUBCHEM_MMFF94_PARTIAL_CHARGES>  (1) 
15
1 -0.36
10 -0.15
11 -0.15
12 0.14
17 0.15
2 -0.81
21 0.15
22 0.15
3 0.41
4 -0.14
5 0.08
6 0.55
7 -0.14
8 -0.15
9 0.27

>  <PUBCHEM_EFFECTIVE_ROTOR_COUNT>  (1) 
0.8

>  <PUBCHEM_PHARMACOPHORE_FEATURES>  (1) 
4
1 1 acceptor
1 2 cation
6 1 2 3 4 5 6 rings
6 4 5 7 8 10 11 rings

>  <PUBCHEM_HEAVY_ATOM_COUNT>  (1) 
12

>  <PUBCHEM_ATOM_DEF_STEREO_COUNT>  (1) 
0

>  <PUBCHEM_ATOM_UDEF_STEREO_COUNT>  (1) 
0

>  <PUBCHEM_BOND_DEF_STEREO_COUNT>  (1) 
0

>  <PUBCHEM_BOND_UDEF_STEREO_COUNT>  (1) 
0

>  <PUBCHEM_ISOTOPIC_ATOM_COUNT>  (1) 
0

>  <PUBCHEM_COMPONENT_COUNT>  (1) 
1

>  <PUBCHEM_CACTVS_TAUTO_COUNT>  (1) 
1

>  <PUBCHEM_CONFORMER_ID>  (1) 
00004A6E00000001

>  <PUBCHEM_MMFF94_ENERGY>  (1) 
36.179

>  <PUBCHEM_FEATURE_SELFOVERLAP>  (1) 
20.327

>  <PUBCHEM_SHAPE_FINGERPRINT>  (1) 
10608611 8 18341889723258895840
10967382 1 18050567343962401065
11206711 2 18410008849249567695
12032990 46 18192716867679174675
12423570 1 12471961136550645233
12524768 44 17979067507425963987
12716758 59 18411697668923779930
12897270 3 18410571833436301847
13024252 1 15791731910258959923
13380535 76 18267018362995746551
14325111 11 18410293584254291540
15775835 57 18261960630597801904
16945 1 18410290341316645243
17844478 74 18261125113788551283
193761 8 18194402414387665605
19973954 147 18338799030110974976
20201158 50 18343302578277982790
20871998 184 18272655687754976215
21040471 1 18337950082511546193
21501502 16 18339646766524234692
2334 1 17762055836489592507
23402539 116 18343010121433841447
23402655 69 18124861379829246021
23463225 33 18334854970660371210
23552423 10 18116713117370343950
23559900 14 18271244899353526350
241688 4 18194118753414695155
2748010 2 18194969539064889199
369184 2 18272369818899867531
5084963 1 18201440319496973219
528886 8 18338792295586398289
53812653 166 18341610365315777968
6333449 129 18411979139621425389
8809292 202 18261396718635425866

>  <PUBCHEM_SHAPE_MULTIPOLES>  (1) 
236.1
4.54
2.08
0.62
2.96
0.22
0.01
0.17
-0.22
-1.22
0.04
0.02
0
0.1

>  <PUBCHEM_SHAPE_SELFOVERLAP>  (1) 
499.58

>  <PUBCHEM_SHAPE_VOLUME>  (1) 
132.3

>  <PUBCHEM_COORDINATE_TYPE>  (1) 
2
5
10

$$$$
