19068
     RDKit          3D

 13 13  0  0  0  0  0  0  0  0999 V2000
   -1.7061    0.0592    0.0112 N   0  0  0  0  0  0  0  0  0  0  0  0
   -3.9676    0.7181    0.1717 N   0  0  0  0  0  0  0  0  0  0  0  0
   -3.5253   -1.4912   -0.1265 N   0  0  0  0  0  0  0  0  0  0  0  0
   -3.6307    2.0550    0.1056 N   0  0  0  0  0  0  0  0  0  0  0  0
    0.6616   -0.5705   -0.0887 C   0  0  0  0  0  0  0  0  0  0  0  0
   -0.7647   -1.0394   -0.1606 C   0  0  0  0  0  0  0  0  0  0  0  0
    3.2977    0.2960    0.0450 C   0  0  0  0  0  0  0  0  0  0  0  0
    1.3119   -0.1706   -1.2492 C   0  0  0  0  0  0  0  0  0  0  0  0
    1.3129   -0.5425    1.1380 C   0  0  0  0  0  0  0  0  0  0  0  0
    2.6355    0.2643   -1.1821 C   0  0  0  0  0  0  0  0  0  0  0  0
    2.6365   -0.1074    1.2051 C   0  0  0  0  0  0  0  0  0  0  0  0
    4.7126    0.7619    0.1167 C   0  0  0  0  0  0  0  0  0  0  0  0
   -2.9743   -0.2328    0.0139 C   0  0  0  0  0  0  0  0  0  0  0  0
  1  6  1  0
  1 13  2  0
  2  4  1  0
  2 13  1  0
  3 13  1  0
  5  6  1  0
  5  8  2  0
  5  9  1  0
  7 10  2  0
  7 11  1  0
  7 12  1  0
  8 10  1  0
  9 11  2  0
M  END
>  <PUBCHEM_COMPOUND_CID>  (1) 
19068

>  <PUBCHEM_CONFORMER_RMSD>  (1) 
0.6

>  <PUBCHEM_CONFORMER_DIVERSEORDER>  (1) 
1
15
2
6
12
5
4
10
13
14
8
3
11
7
9

>  <PUBCHEM_MMFF94_PARTIAL_CHARGES>  (1) 
22
1 -0.7
10 -0.15
11 -0.15
12 0.14
13 0.55
16 0.15
17 0.15
18 0.15
19 0.15
2 -0.46
23 0.4
24 0.4
25 0.4
26 0.36
27 0.36
3 -0.85
4 -0.71
5 -0.14
6 0.39
7 -0.14
8 -0.15
9 -0.15

>  <PUBCHEM_EFFECTIVE_ROTOR_COUNT>  (1) 
3

>  <PUBCHEM_PHARMACOPHORE_FEATURES>  (1) 
5
1 2 donor
1 3 donor
1 4 donor
4 1 2 3 13 cation
6 5 7 8 9 10 11 rings

>  <PUBCHEM_HEAVY_ATOM_COUNT>  (1) 
13

>  <PUBCHEM_ATOM_DEF_STEREO_COUNT>  (1) 
0

>  <PUBCHEM_ATOM_UDEF_STEREO_COUNT>  (1) 
0

>  <PUBCHEM_BOND_DEF_STEREO_COUNT>  (1) 
0

>  <PUBCHEM_BOND_UDEF_STEREO_COUNT>  (1) 
0

>  <PUBCHEM_ISOTOPIC_ATOM_COUNT>  (1) 
0

>  <PUBCHEM_COMPONENT_COUNT>  (1) 
1

>  <PUBCHEM_CACTVS_TAUTO_COUNT>  (1) 
3

>  <PUBCHEM_CONFORMER_ID>  (1) 
00004A7C00000001

>  <PUBCHEM_MMFF94_ENERGY>  (1) 
37.2043

>  <PUBCHEM_FEATURE_SELFOVERLAP>  (1) 
26.938

>  <PUBCHEM_SHAPE_FINGERPRINT>  (1) 
10219947 1 15936404563720586142
10465860 228 18115590322709188131
11471102 20 15554449604667144898
11471102 22 15430036543594794972
12251169 10 16226050002346319443
12500047 106 18131627911229264878
12932764 1 17418087728581432175
14144814 61 17240481411938653675
14252887 29 15574708072086174328
14911166 2 15267069189911701620
15775835 57 18260830379936600337
18186145 218 17489039192172531350
200 152 16950832713385490983
20233049 118 18342454833533433424
20279233 1 17489588965514454727
20281407 28 11530474510973869406
20645477 56 18272655628152642649
20645477 70 16343432708471199598
20871998 22 16371552688883015138
21119208 17 13470690347218838216
22926399 65 18343865498076890849
231179 274 17703787024876407216
23402539 116 18201714068217914988
23402655 69 14764356998244787459
23557571 272 17989210369333119405
25 1 16415485947444028318
26918003 58 14779266410567506765
2748010 2 14834419159663189262
3268164 11 18201708575213180637

>  <PUBCHEM_SHAPE_MULTIPOLES>  (1) 
247.61
8.32
1.24
1.07
2.72
0.36
0.05
2.79
-0.62
1.46
-0.07
-0.85
-0.06
-0.4

>  <PUBCHEM_SHAPE_SELFOVERLAP>  (1) 
504.008

>  <PUBCHEM_SHAPE_VOLUME>  (1) 
140.6

>  <PUBCHEM_COORDINATE_TYPE>  (1) 
2
5
10

$$$$
