1906
     RDKit          3D

 30 33  0  0  1  0  0  0  0  0999 V2000
   -3.3356    2.9435   -0.1649 P   0  0  0  0  0  0  0  0  0  0  0  0
    0.0723    1.7168   -0.7979 O   0  0  0  0  0  0  0  0  0  0  0  0
   -2.3824    2.0614    0.7946 O   0  0  0  0  0  0  0  0  0  0  0  0
   -2.3696    3.2839   -1.4153 O   0  0  0  0  0  0  0  0  0  0  0  0
   -0.8953    0.4803    2.4250 O   0  0  0  0  0  0  0  0  0  0  0  0
   -3.4943    4.3486    0.6218 O   0  0  0  0  0  0  0  0  0  0  0  0
   -4.6329    2.2822   -0.5277 O   0  0  0  0  0  0  0  0  0  0  0  0
    1.3577   -0.0272    0.1654 N   0  0  0  0  0  0  0  0  0  0  0  0
    0.5378   -2.1515    0.7544 N   0  0  0  0  0  0  0  0  0  0  0  0
    2.8527   -1.6749    0.3071 N   0  0  0  0  0  0  0  0  0  0  0  0
    2.8205    1.8108   -0.4528 N   0  0  0  0  0  0  0  0  0  0  0  0
    5.1404    1.0750   -0.6333 N   0  0  0  0  0  0  0  0  0  0  0  0
    5.8051   -1.1888   -0.2318 N   0  0  0  0  0  0  0  0  0  0  0  0
   -5.0164   -2.4878   -0.0670 N   0  0  0  0  0  0  0  0  0  0  0  0
   -1.0708    2.5289    1.0992 C   0  0  0  0  0  0  0  0  0  0  0  0
   -0.3153    2.9529   -0.1563 C   0  0  0  0  0  0  0  0  0  0  0  0
   -0.2219    1.3502    1.5379 C   0  0  0  0  0  0  0  0  0  0  0  0
    0.0771    0.6754    0.2021 C   0  0  0  0  0  0  0  0  0  0  0  0
   -1.0841    3.8231   -1.1385 C   0  0  0  0  0  0  0  0  0  0  0  0
    1.5893   -1.3474    0.4217 C   0  0  0  0  0  0  0  0  0  0  0  0
    2.5668    0.5323   -0.1354 C   0  0  0  0  0  0  0  0  0  0  0  0
    3.4802   -0.5056   -0.0423 C   0  0  0  0  0  0  0  0  0  0  0  0
    0.6542   -3.5596    1.0474 C   0  0  0  0  0  0  0  0  0  0  0  0
   -0.6213   -4.3011    0.6559 C   0  0  0  0  0  0  0  0  0  0  0  0
    4.8111   -0.1978   -0.3061 C   0  0  0  0  0  0  0  0  0  0  0  0
   -0.9405   -4.1800   -0.8383 C   0  0  0  0  0  0  0  0  0  0  0  0
   -2.2307   -4.9255   -1.1888 C   0  0  0  0  0  0  0  0  0  0  0  0
    4.1395    1.9868   -0.6856 C   0  0  0  0  0  0  0  0  0  0  0  0
   -3.4660   -4.3782   -0.4638 C   0  0  0  0  0  0  0  0  0  0  0  0
   -3.8274   -2.9267   -0.7867 C   0  0  0  0  0  0  0  0  0  0  0  0
  1  3  1  0
  1  4  1  0
  1  6  1  0
  1  7  2  0
  2 16  1  0
  2 18  1  0
  3 15  1  0
  4 19  1  0
  5 17  1  0
  8 18  1  0
  8 20  1  0
  8 21  1  0
  9 20  1  0
  9 23  1  0
 10 20  2  0
 10 22  1  0
 11 21  1  0
 11 28  2  0
 12 25  2  0
 12 28  1  0
 13 25  1  0
 14 30  1  0
 15 16  1  0
 15 17  1  0
 16 19  1  0
 17 18  1  0
 21 22  2  0
 22 25  1  0
 23 24  1  0
 24 26  1  0
 26 27  1  0
 27 29  1  0
 29 30  1  0
M  END
>  <PUBCHEM_COMPOUND_CID>  (1) 
1906

>  <PUBCHEM_CONFORMER_RMSD>  (1) 
1.2

>  <PUBCHEM_CONFORMER_DIVERSEORDER>  (1) 
3
140
254
34
206
104
99
20
53
218
213
30
177
10
199
151
201
42
188
95
4
31
135
1
184
23
85
96
244
101
242
27
240
182
170
69
114
74
238
248
50
172
228
158
255
225
62
81
227
41
221
168
186
106
110
150
75
12
54
144
142
103
59
157
64
48
68
175
202
239
210
6
212
36
102
91
25
178
161
159
249
7
119
195
26
226
141
80
89
14
72
45
147
43
167
232
235
160
100
230
52
236
40
145
193
105
192
60
252
234
247
241
148
32
124
38
233
156
137
70
87
133
15
22
94
92
44
256
149
113
97
163
207
76
222
123
24
5
116
139
28
220
129
146
79
196
257
82
51
63
251
171
49
215
90
208
109
224
98
138
174
29
56
107
190
11
216
127
61
243
73
223
166
18
16
200
205
143
55
65
78
136
197
77
189
246
58
126
118
19
71
245
229
153
9
152
204
219
47
180
88
198
185
176
214
169
128
165
164
33
66
237
39
57
191
250
8
155
130
84
67
231
21
131
93
46
37
217
13
194
179
173
121
132
154
117
183
35
115
125
17
209
111
83
2
108
120
203
187
211
122
86
112
253
134
162
181

>  <PUBCHEM_MMFF94_PARTIAL_CHARGES>  (1) 
34
1 1.51
10 -0.57
11 -0.57
12 -0.62
13 -0.9
14 -0.99
15 0.28
16 0.28
17 0.28
18 0.54
19 0.28
2 -0.56
20 0.27
21 0.11
22 0.23
23 0.37
25 0.41
28 0.47
3 -0.55
30 0.27
37 0.4
38 0.4
4 -0.55
43 0.5
48 0.15
5 -0.68
51 0.4
52 0.4
55 0.36
56 0.36
6 -0.77
7 -0.7
8 0.05
9 -0.85

>  <PUBCHEM_EFFECTIVE_ROTOR_COUNT>  (1) 
9.2

>  <PUBCHEM_PHARMACOPHORE_FEATURES>  (1) 
17
1 13 cation
1 13 donor
1 14 cation
1 14 donor
1 2 acceptor
1 5 acceptor
1 5 donor
1 6 acceptor
1 7 acceptor
1 9 donor
3 11 12 28 cation
4 24 26 27 29 hydrophobe
4 8 9 10 20 cation
5 2 15 16 17 18 rings
5 8 10 20 21 22 rings
6 1 3 4 15 16 19 rings
6 11 12 21 22 25 28 rings

>  <PUBCHEM_HEAVY_ATOM_COUNT>  (1) 
30

>  <PUBCHEM_ATOM_DEF_STEREO_COUNT>  (1) 
0

>  <PUBCHEM_ATOM_UDEF_STEREO_COUNT>  (1) 
4

>  <PUBCHEM_BOND_DEF_STEREO_COUNT>  (1) 
0

>  <PUBCHEM_BOND_UDEF_STEREO_COUNT>  (1) 
0

>  <PUBCHEM_ISOTOPIC_ATOM_COUNT>  (1) 
0

>  <PUBCHEM_COMPONENT_COUNT>  (1) 
1

>  <PUBCHEM_CACTVS_TAUTO_COUNT>  (1) 
6

>  <PUBCHEM_CONFORMER_ID>  (1) 
0000077200000003

>  <PUBCHEM_MMFF94_ENERGY>  (1) 
39.4165

>  <PUBCHEM_FEATURE_SELFOVERLAP>  (1) 
86.686

>  <PUBCHEM_SHAPE_FINGERPRINT>  (1) 
10930396 42 17117449613636712552
12160290 23 18050605994900924138
12623949 98 17543655040766664425
12788726 201 18336822108531658482
13590594 115 18121222244858638059
14251757 5 18411694418198273263
14400156 96 15666792553039450547
14466204 15 16754367843659334705
15210252 30 17756701202135462902
15420108 30 18120081789724088154
16988056 13 17475218580604969191
17138139 8 17842805950771874501
19309040 13 12362328372705861903
21133410 58 16965188706624654133
21307412 95 17769402452188011030
221357 26 17835516403286828343
23559900 14 17399224262176812696
23929065 36 18197762488290034904
38695281 34 18193840327907014362
46194498 28 17324642181278974245
7164475 11 18339082717813579270

>  <PUBCHEM_SHAPE_MULTIPOLES>  (1) 
551.15
8.92
7.77
1.26
3.72
1.67
0.39
-6.22
-3.08
-10.21
-1.02
-0.44
0.3
-1.07

>  <PUBCHEM_SHAPE_SELFOVERLAP>  (1) 
1155.669

>  <PUBCHEM_SHAPE_VOLUME>  (1) 
312.8

>  <PUBCHEM_COORDINATE_TYPE>  (1) 
2
5
10

$$$$
