19061
     RDKit          3D

 27 29  0  0  1  0  0  0  0  0999 V2000
    7.2449    0.3393    0.3540 O   0  0  0  0  0  0  0  0  0  0  0  0
   -4.4929    1.1696   -0.0815 O   0  0  0  0  0  0  0  0  0  0  0  0
   -3.0840    1.6537    1.6841 O   0  0  0  0  0  0  0  0  0  0  0  0
    0.0853    1.4812   -0.5450 N   0  0  0  0  0  0  0  0  0  0  0  0
   -2.4466    0.0113    0.0201 C   0  0  0  0  0  0  0  0  0  0  0  0
   -2.0433    0.5458   -1.3781 C   0  0  0  0  0  0  0  0  0  0  0  0
   -1.1564   -0.1348    0.8670 C   0  0  0  0  0  0  0  0  0  0  0  0
   -1.1246    1.7718   -1.3198 C   0  0  0  0  0  0  0  0  0  0  0  0
   -0.2563    1.1064    0.8299 C   0  0  0  0  0  0  0  0  0  0  0  0
    0.9885    2.6318   -0.5536 C   0  0  0  0  0  0  0  0  0  0  0  0
   -3.2186   -1.3184   -0.0150 C   0  0  0  0  0  0  0  0  0  0  0  0
    2.2877    2.2866    0.1737 C   0  0  0  0  0  0  0  0  0  0  0  0
   -3.3552    1.0428    0.6591 C   0  0  0  0  0  0  0  0  0  0  0  0
    3.0400    1.1101   -0.4562 C   0  0  0  0  0  0  0  0  0  0  0  0
    6.3357   -0.7737    0.3197 C   0  0  0  0  0  0  0  0  0  0  0  0
    4.3281    0.7449    0.2849 C   0  0  0  0  0  0  0  0  0  0  0  0
    5.0742   -0.3850   -0.4264 C   0  0  0  0  0  0  0  0  0  0  0  0
    7.0939   -1.9196   -0.3277 C   0  0  0  0  0  0  0  0  0  0  0  0
    8.4981   -1.6636    0.1589 C   0  0  0  0  0  0  0  0  0  0  0  0
   -3.6572   -1.8956    1.1737 C   0  0  0  0  0  0  0  0  0  0  0  0
   -3.4755   -1.9380   -1.2351 C   0  0  0  0  0  0  0  0  0  0  0  0
    8.5728   -0.1521    0.1178 C   0  0  0  0  0  0  0  0  0  0  0  0
   -4.3575   -3.1015    1.1422 C   0  0  0  0  0  0  0  0  0  0  0  0
   -4.1759   -3.1438   -1.2665 C   0  0  0  0  0  0  0  0  0  0  0  0
   -4.6169   -3.7256   -0.0779 C   0  0  0  0  0  0  0  0  0  0  0  0
   -5.4455    2.1167    0.4118 C   0  0  0  0  0  0  0  0  0  0  0  0
   -6.6430    2.1396   -0.5140 C   0  0  0  0  0  0  0  0  0  0  0  0
  1 15  1  0
  1 22  1  0
  2 13  1  0
  2 26  1  0
  3 13  2  0
  4  8  1  0
  4  9  1  0
  4 10  1  0
  5  6  1  0
  5  7  1  0
  5 11  1  0
  5 13  1  0
  6  8  1  0
  7  9  1  0
 10 12  1  0
 11 20  2  0
 11 21  1  0
 12 14  1  0
 14 16  1  0
 15 17  1  0
 15 18  1  0
 16 17  1  0
 18 19  1  0
 19 22  1  0
 20 23  1  0
 21 24  2  0
 23 25  2  0
 24 25  1  0
 26 27  1  0
M  END
>  <PUBCHEM_COMPOUND_CID>  (1) 
19061

>  <PUBCHEM_CONFORMER_RMSD>  (1) 
1

>  <PUBCHEM_CONFORMER_DIVERSEORDER>  (1) 
1
17
160
77
177
145
120
129
19
110
18
154
114
176
146
153
199
187
202
71
59
14
31
61
126
117
189
158
165
131
200
68
76
185
156
174
30
128
92
100
132
168
34
83
40
57
188
172
150
67
178
78
94
70
127
53
47
95
198
50
101
183
5
102
184
196
98
28
151
12
37
99
179
20
170
186
72
9
192
44
106
136
133
90
15
108
89
43
93
169
190
194
148
122
139
103
147
51
125
161
64
62
164
107
65
118
10
173
115
195
105
171
191
121
109
54
52
97
104
22
80
35
85
180
159
86
142
163
63
134
46
60
137
112
197
124
41
143
56
157
130
3
48
96
123
38
7
81
175
74
73
25
26
167
42
84
11
33
149
13
193
166
45
55
141
58
119
144
201
79
4
16
113
32
36
135
8
21
39
6
87
23
29
182
88
181
82
69
111
27
24
162
116
75
91
2
49
66
152
138
140
155

>  <PUBCHEM_MMFF94_PARTIAL_CHARGES>  (1) 
23
1 -0.56
10 0.27
11 -0.14
13 0.66
15 0.28
2 -0.43
20 -0.15
21 -0.15
22 0.28
23 -0.15
24 -0.15
25 -0.15
26 0.28
3 -0.57
4 -0.81
5 0.2
51 0.15
52 0.15
55 0.15
56 0.15
57 0.15
8 0.27
9 0.27

>  <PUBCHEM_EFFECTIVE_ROTOR_COUNT>  (1) 
12.2

>  <PUBCHEM_PHARMACOPHORE_FEATURES>  (1) 
7
1 1 acceptor
1 3 acceptor
1 4 cation
4 12 14 16 17 hydrophobe
5 1 15 18 19 22 rings
6 11 20 21 23 24 25 rings
6 4 5 6 7 8 9 rings

>  <PUBCHEM_HEAVY_ATOM_COUNT>  (1) 
27

>  <PUBCHEM_ATOM_DEF_STEREO_COUNT>  (1) 
0

>  <PUBCHEM_ATOM_UDEF_STEREO_COUNT>  (1) 
1

>  <PUBCHEM_BOND_DEF_STEREO_COUNT>  (1) 
0

>  <PUBCHEM_BOND_UDEF_STEREO_COUNT>  (1) 
0

>  <PUBCHEM_ISOTOPIC_ATOM_COUNT>  (1) 
0

>  <PUBCHEM_COMPONENT_COUNT>  (1) 
1

>  <PUBCHEM_CACTVS_TAUTO_COUNT>  (1) 
1

>  <PUBCHEM_CONFORMER_ID>  (1) 
00004A7500000001

>  <PUBCHEM_MMFF94_ENERGY>  (1) 
53.8317

>  <PUBCHEM_FEATURE_SELFOVERLAP>  (1) 
35.522

>  <PUBCHEM_SHAPE_FINGERPRINT>  (1) 
10119406 146 18410292519767495351
10369192 42 13479135666278296777
10391435 84 18341603820666496176
11315181 36 17704070685559357848
11387372 6 17604164717580911443
12107183 9 18339651052970720361
12498461 61 18412259532367091563
12643181 29 18409163286295585150
13583140 156 17417528133124257929
13782708 43 18412539934424410962
14420673 8 18409732845961049370
14950920 106 16701739483515183578
15183329 4 16370719336594616042
15347591 1 18337955721867688917
15361156 5 18040727978142212020
15510800 12 18043248153008256898
15537594 2 17821726101043744368
1577012 14 18113909277801260660
17492 89 18194120952474932145
17627616 140 17750223721882277090
17780758 139 18202283593660979256
23522609 53 18119561854106201556
23559900 14 18271517684467211640
249057 3 18408603647994505901
2748736 6 9367352505557089158
44062 13 18410013251707324197
474113 269 17844237639856603167
484985 159 18410003360666940103
5104073 3 17988087802073434024
513202 73 18264497350859655651
559249 180 18411138035112424405
5718773 13 18337388348741225614
58260988 114 18042419061627966147
6431902 208 18409447003604518190
6691757 9 18059864922389383129

>  <PUBCHEM_SHAPE_MULTIPOLES>  (1) 
533.06
21.69
3.81
1.19
53.62
2.37
0.03
9.8
-0.95
-6.57
0.27
-1.37
0.14
-0.18

>  <PUBCHEM_SHAPE_SELFOVERLAP>  (1) 
1096.588

>  <PUBCHEM_SHAPE_VOLUME>  (1) 
306.4

>  <PUBCHEM_COORDINATE_TYPE>  (1) 
2
5
10

$$$$
