19077
     RDKit          3D

 14 14  0  0  0  0  0  0  0  0999 V2000
    5.6111   -0.6455   -0.6868 Cl  0  0  0  0  0  0  0  0  0  0  0  0
    0.0765    0.7384    0.7034 O   0  0  0  0  0  0  0  0  0  0  0  0
   -5.6425   -1.0230   -0.4823 O   0  0  0  0  0  0  0  0  0  0  0  0
   -4.9154    1.1220   -0.3139 O   0  0  0  0  0  0  0  0  0  0  0  0
   -2.2523    0.3452    0.2149 C   0  0  0  0  0  0  0  0  0  0  0  0
   -0.9006   -0.2791    0.5376 C   0  0  0  0  0  0  0  0  0  0  0  0
   -3.3419   -0.7080    0.0066 C   0  0  0  0  0  0  0  0  0  0  0  0
    1.3683    0.4150    0.3775 C   0  0  0  0  0  0  0  0  0  0  0  0
   -4.6873   -0.0791   -0.2748 C   0  0  0  0  0  0  0  0  0  0  0  0
    1.8051   -0.8970    0.5180 C   0  0  0  0  0  0  0  0  0  0  0  0
    2.2279    1.4029   -0.0886 C   0  0  0  0  0  0  0  0  0  0  0  0
    3.1199   -1.2258    0.1878 C   0  0  0  0  0  0  0  0  0  0  0  0
    3.5426    1.0742   -0.4189 C   0  0  0  0  0  0  0  0  0  0  0  0
    3.9886   -0.2401   -0.2806 C   0  0  0  0  0  0  0  0  0  0  0  0
  1 14  1  0
  2  6  1  0
  2  8  1  0
  3  9  1  0
  4  9  2  0
  5  6  1  0
  5  7  1  0
  7  9  1  0
  8 10  2  0
  8 11  1  0
 10 12  1  0
 11 13  2  0
 12 14  2  0
 13 14  1  0
M  END
>  <PUBCHEM_COMPOUND_CID>  (1) 
19077

>  <PUBCHEM_CONFORMER_RMSD>  (1) 
0.6

>  <PUBCHEM_CONFORMER_DIVERSEORDER>  (1) 
1
52
30
58
40
43
62
21
65
8
9
41
68
2
25
7
61
53
5
20
59
42
10
63
50
54
28
64
24
13
57
27
67
37
22
26
46
19
55
48
15
12
36
56
4
66
17
31
39
6
18
23
38
51
14
34
49
60
32
3
35
47
11
33
45
29
16
44

>  <PUBCHEM_MMFF94_PARTIAL_CHARGES>  (1) 
18
1 -0.18
10 -0.15
11 -0.15
12 -0.15
13 -0.15
14 0.18
2 -0.36
21 0.15
22 0.15
23 0.15
24 0.15
25 0.5
3 -0.65
4 -0.57
6 0.28
7 0.06
8 0.08
9 0.66

>  <PUBCHEM_EFFECTIVE_ROTOR_COUNT>  (1) 
5

>  <PUBCHEM_PHARMACOPHORE_FEATURES>  (1) 
5
1 2 acceptor
1 3 acceptor
1 4 acceptor
3 3 4 9 anion
6 8 10 11 12 13 14 rings

>  <PUBCHEM_HEAVY_ATOM_COUNT>  (1) 
14

>  <PUBCHEM_ATOM_DEF_STEREO_COUNT>  (1) 
0

>  <PUBCHEM_ATOM_UDEF_STEREO_COUNT>  (1) 
0

>  <PUBCHEM_BOND_DEF_STEREO_COUNT>  (1) 
0

>  <PUBCHEM_BOND_UDEF_STEREO_COUNT>  (1) 
0

>  <PUBCHEM_ISOTOPIC_ATOM_COUNT>  (1) 
0

>  <PUBCHEM_COMPONENT_COUNT>  (1) 
1

>  <PUBCHEM_CACTVS_TAUTO_COUNT>  (1) 
1

>  <PUBCHEM_CONFORMER_ID>  (1) 
00004A8500000001

>  <PUBCHEM_MMFF94_ENERGY>  (1) 
30.8932

>  <PUBCHEM_FEATURE_SELFOVERLAP>  (1) 
25.431

>  <PUBCHEM_SHAPE_FINGERPRINT>  (1) 
114248 4 18187082866812987299
11471102 20 18335142007619554784
117890 112 10737273642064357871
12251169 10 10087637100327837024
12670543 26 18188215308261119918
12714333 28 17095527305497347446
13167823 11 18342453777155984431
13836976 161 18411141350864412430
14123238 8 17168143446962608303
14251718 22 18411982472531767495
14252887 29 11527958854524521604
14576447 43 18412263917902870250
14911166 2 18261398845144968362
15048467 5 12901554563756666246
15242439 84 18040156227278126459
15477762 27 18412830162222645734
17834072 33 18412825815293651711
17834072 8 18411696561370941365
17834076 25 16805042921328020383
18186145 218 17748818631582798321
200 152 18201720647786013609
20369508 70 17988638618907468864
20645477 56 14634870864074477555
20645477 70 18410293588370281046
21119208 17 18410856568229730666
212847 35 13262392280679531900
21637258 2 16773519850815722502
22854114 59 9943807789649206851
23402539 116 17989489589272931049
23402655 69 18334858311648795396
23559900 14 18271239516804722672
23590187 302 18410293622946017976
2871803 45 18333733498822307386
29717793 49 17917716777252018876
3060560 45 18333734624304549918
4047638 21 13406798826731356106
4072396 5 18041268916867815354
42 15 11383835973914104369
4214541 1 18410855456519120133
42788 4 18410575088963320973
4990 188 18412267233100619175
522135 26 18334292063297699386
542803 24 16443064993345268597
77779 3 18407759248807310161

>  <PUBCHEM_SHAPE_MULTIPOLES>  (1) 
272.38
12.75
1.27
0.77
10.41
0.13
0
-2.05
3.87
-0.44
0.03
-0.17
-0.03
-0.1

>  <PUBCHEM_SHAPE_SELFOVERLAP>  (1) 
544.255

>  <PUBCHEM_SHAPE_VOLUME>  (1) 
161.2

>  <PUBCHEM_COORDINATE_TYPE>  (1) 
2
5
10

$$$$
