19078
     RDKit          3D

 14 16  0  0  0  0  0  0  0  0999 V2000
   -2.4620   -1.1892   -0.1553 N   0  0  0  0  0  0  0  0  0  0  0  0
    2.5667   -0.3543    0.1801 N   0  0  0  0  0  0  0  0  0  0  0  0
   -0.4687   -0.1950   -0.0561 C   0  0  0  0  0  0  0  0  0  0  0  0
   -0.2780   -1.6033   -0.1740 C   0  0  0  0  0  0  0  0  0  0  0  0
    1.0463   -2.2787   -0.1553 C   0  0  0  0  0  0  0  0  0  0  0  0
    0.4162    0.8988    0.0360 C   0  0  0  0  0  0  0  0  0  0  0  0
   -1.8448    0.0328   -0.0172 C   0  0  0  0  0  0  0  0  0  0  0  0
    2.0074   -1.5560    0.7869 C   0  0  0  0  0  0  0  0  0  0  0  0
   -1.5259   -2.1836   -0.2483 C   0  0  0  0  0  0  0  0  0  0  0  0
    1.8858    0.6990   -0.1095 C   0  0  0  0  0  0  0  0  0  0  0  0
   -0.1266    2.1845    0.2012 C   0  0  0  0  0  0  0  0  0  0  0  0
   -2.3947    1.3085    0.1360 C   0  0  0  0  0  0  0  0  0  0  0  0
   -1.5071    2.3799    0.2540 C   0  0  0  0  0  0  0  0  0  0  0  0
    2.6853    1.8566   -0.6784 C   0  0  0  0  0  0  0  0  0  0  0  0
  1  7  1  0
  1  9  1  0
  2  8  1  0
  2 10  2  0
  3  4  1  0
  3  6  1  0
  3  7  2  0
  4  5  1  0
  4  9  2  0
  5  8  1  0
  6 10  1  0
  6 11  2  0
  7 12  1  0
 10 14  1  0
 11 13  1  0
 12 13  2  0
M  END
>  <PUBCHEM_COMPOUND_CID>  (1) 
19078

>  <PUBCHEM_CONFORMER_RMSD>  (1) 
0.4

>  <PUBCHEM_CONFORMER_DIVERSEORDER>  (1) 
1
2

>  <PUBCHEM_MMFF94_PARTIAL_CHARGES>  (1) 
18
1 0.03
10 0.3
11 -0.15
12 -0.15
13 -0.15
14 0.06
19 0.15
2 -0.7
20 0.27
21 0.15
22 0.15
23 0.15
4 -0.18
5 0.18
6 0.09
7 -0.15
8 0.25
9 -0.3

>  <PUBCHEM_EFFECTIVE_ROTOR_COUNT>  (1) 
0.4

>  <PUBCHEM_PHARMACOPHORE_FEATURES>  (1) 
6
1 1 cation
1 1 donor
1 2 acceptor
5 1 3 4 7 9 rings
6 3 6 7 11 12 13 rings
7 2 3 4 5 6 8 10 rings

>  <PUBCHEM_HEAVY_ATOM_COUNT>  (1) 
14

>  <PUBCHEM_ATOM_DEF_STEREO_COUNT>  (1) 
0

>  <PUBCHEM_ATOM_UDEF_STEREO_COUNT>  (1) 
0

>  <PUBCHEM_BOND_DEF_STEREO_COUNT>  (1) 
0

>  <PUBCHEM_BOND_UDEF_STEREO_COUNT>  (1) 
0

>  <PUBCHEM_ISOTOPIC_ATOM_COUNT>  (1) 
0

>  <PUBCHEM_COMPONENT_COUNT>  (1) 
1

>  <PUBCHEM_CACTVS_TAUTO_COUNT>  (1) 
2

>  <PUBCHEM_CONFORMER_ID>  (1) 
00004A8600000001

>  <PUBCHEM_MMFF94_ENERGY>  (1) 
38.4993

>  <PUBCHEM_FEATURE_SELFOVERLAP>  (1) 
30.582

>  <PUBCHEM_SHAPE_FINGERPRINT>  (1) 
10967382 1 17690561888205436673
12382932 28 18268699541880896362
12423570 1 12114619685598224232
12524768 44 16610822662257578049
12696612 119 18120940499182325842
13140716 1 18410854352047705410
13172582 1 17904758877962491562
14614273 12 18187916339334110141
14790565 3 17832447645148596921
15490181 8 18125447414608955325
16945 1 18266460893035472975
17775402 16 18193263324540902509
193761 8 18410857616201757398
19930374 2 17035824661453640634
20511035 2 18127959820079484894
20588541 1 16539049837125111898
21501502 16 18410854339379113351
22802520 49 18057071144646616494
2334 1 18338796831013665024
23419403 2 16536711476719748234
23463225 33 18336544923825810472
23552423 10 18334576836798672324
23559900 14 18201165356866946812
241688 4 16537928335264657243
2748010 2 18339921639993559300
2897 32 18336266854879634268
353137 74 18264490774578728100
53812653 8 18264776634832995068
66348 1 18268425913608955512
7364860 26 18270119007440278796

>  <PUBCHEM_SHAPE_MULTIPOLES>  (1) 
278.15
3.54
3.05
0.71
0.62
0.05
-0.02
-0.59
0.01
-0.12
0.12
0.17
0
-0.62

>  <PUBCHEM_SHAPE_SELFOVERLAP>  (1) 
619.177

>  <PUBCHEM_SHAPE_VOLUME>  (1) 
146.9

>  <PUBCHEM_COORDINATE_TYPE>  (1) 
2
5
10

$$$$
