19076
     RDKit          3D

 16 17  0  0  0  0  0  0  0  0999 V2000
   -5.0351   -1.7024    0.0177 Cl  0  0  0  0  0  0  0  0  0  0  0  0
    4.9724   -1.8351    0.1996 Cl  0  0  0  0  0  0  0  0  0  0  0  0
    0.0183    1.5274   -0.2226 C   0  0  0  0  0  0  0  0  0  0  0  0
   -1.2369    0.7240   -0.1628 C   0  0  0  0  0  0  0  0  0  0  0  0
    1.2845    0.6689   -0.1142 C   0  0  0  0  0  0  0  0  0  0  0  0
    0.0720    2.7265    0.7579 C   0  0  0  0  0  0  0  0  0  0  0  0
   -1.7039    0.0736   -1.3048 C   0  0  0  0  0  0  0  0  0  0  0  0
    2.3546    0.9745   -0.9204 C   0  0  0  0  0  0  0  0  0  0  0  0
   -1.9444    0.6240    1.0353 C   0  0  0  0  0  0  0  0  0  0  0  0
    1.2962   -0.3710    0.7843 C   0  0  0  0  0  0  0  0  0  0  0  0
   -2.8783   -0.6767   -1.2491 C   0  0  0  0  0  0  0  0  0  0  0  0
    3.5058    0.1929   -0.8225 C   0  0  0  0  0  0  0  0  0  0  0  0
   -3.1189   -0.1264    1.0911 C   0  0  0  0  0  0  0  0  0  0  0  0
    2.4474   -1.1526    0.8825 C   0  0  0  0  0  0  0  0  0  0  0  0
   -3.5859   -0.7769   -0.0511 C   0  0  0  0  0  0  0  0  0  0  0  0
    3.5523   -0.8707    0.0790 C   0  0  0  0  0  0  0  0  0  0  0  0
  1 15  1  0
  2 16  1  0
  3  4  1  0
  3  5  1  0
  3  6  1  0
  4  7  2  0
  4  9  1  0
  5  8  2  0
  5 10  1  0
  7 11  1  0
  8 12  1  0
  9 13  2  0
 10 14  2  0
 11 15  2  0
 12 16  2  0
 13 15  1  0
 14 16  1  0
M  END
>  <PUBCHEM_COMPOUND_CID>  (1) 
19076

>  <PUBCHEM_CONFORMER_RMSD>  (1) 
0.6

>  <PUBCHEM_CONFORMER_DIVERSEORDER>  (1) 
1
2

>  <PUBCHEM_MMFF94_PARTIAL_CHARGES>  (1) 
23
1 -0.18
10 -0.15
11 -0.15
12 -0.15
13 -0.15
14 -0.15
15 0.18
16 0.18
2 -0.18
21 0.15
22 0.15
23 0.15
24 0.15
25 0.15
26 0.15
27 0.15
28 0.15
3 0.29
4 -0.14
5 -0.14
7 -0.15
8 -0.15
9 -0.15

>  <PUBCHEM_EFFECTIVE_ROTOR_COUNT>  (1) 
2

>  <PUBCHEM_PHARMACOPHORE_FEATURES>  (1) 
3
1 6 hydrophobe
6 4 7 9 11 13 15 rings
6 5 8 10 12 14 16 rings

>  <PUBCHEM_HEAVY_ATOM_COUNT>  (1) 
16

>  <PUBCHEM_ATOM_DEF_STEREO_COUNT>  (1) 
0

>  <PUBCHEM_ATOM_UDEF_STEREO_COUNT>  (1) 
0

>  <PUBCHEM_BOND_DEF_STEREO_COUNT>  (1) 
0

>  <PUBCHEM_BOND_UDEF_STEREO_COUNT>  (1) 
0

>  <PUBCHEM_ISOTOPIC_ATOM_COUNT>  (1) 
0

>  <PUBCHEM_COMPONENT_COUNT>  (1) 
1

>  <PUBCHEM_CACTVS_TAUTO_COUNT>  (1) 
1

>  <PUBCHEM_CONFORMER_ID>  (1) 
00004A8400000001

>  <PUBCHEM_MMFF94_ENERGY>  (1) 
44.7177

>  <PUBCHEM_FEATURE_SELFOVERLAP>  (1) 
15.223

>  <PUBCHEM_SHAPE_FINGERPRINT>  (1) 
10465860 228 8429779195901720165
10618630 7 18411419479781640998
11046707 91 18341611477896800306
11578080 2 18339343219627142324
11806522 49 18261110743265679050
12251169 10 14979953692063274281
12553582 1 18273209828556153367
12633257 1 15482379928322243530
12892183 10 15769505235179363455
13288520 33 18341614763868717062
13296908 3 18412255138451802972
13581323 91 16630533955180190717
13705890 14 17603303752467561836
14178342 30 17559973042698764171
1420 369 18413108334069306254
14251764 38 10013939013968552251
14576447 43 18114180805312453642
15188451 53 16630233823388247687
15209294 21 10159111923945705854
15375462 189 18341334482391754708
15653759 3 15554450695029753315
16945 1 17895481426528420716
1741750 31 8646473129584616476
1813 80 18201167606306586444
18186145 218 16298393456506840452
18222031 100 17846778537627619957
193927 3 18335711507229680702
19422 9 18411709776368132380
19784866 240 18408887330357449535
200 152 18260265231033704938
20112054 13 11312054357173584770
20281475 54 18408045125824935793
20291156 8 18412825784970443646
20361792 2 18343293782153338125
20388580 30 18333735740552714588
20645477 70 18186517730489363790
20671657 53 18411701023583661161
20871999 31 15936404529487448615
21296965 67 18412542115418821785
21713013 43 17530960302391531351
22112679 90 18130519577496128049
2255824 54 18125161781924885493
22646028 28 18411136930857676798
23402539 116 18335983056837299850
23559900 14 12468646011105334342
23598288 3 18198905816531086332
27216 239 11527648809177457719
2871803 45 17530681021916132107
3286 77 18337389443698845133
4028521 119 12612754609699525623
465052 167 18269844271478804631
474 4 17910390920371461048
5104073 3 17917158311808847171
7364860 26 17629762528748178521
76465 3 18411417319297228383
7970288 3 18413106164773783399
83771 10 18410575084689563105
94968 8 18334857267987670691

>  <PUBCHEM_SHAPE_MULTIPOLES>  (1) 
333.01
8.87
2
1.19
0.04
0.7
-0.09
-7.22
-0.18
0.43
0.37
-0.37
0.07
-0.65

>  <PUBCHEM_SHAPE_SELFOVERLAP>  (1) 
695.336

>  <PUBCHEM_SHAPE_VOLUME>  (1) 
181.5

>  <PUBCHEM_COORDINATE_TYPE>  (1) 
2
5
10

$$$$
