19071
     RDKit          3D

 21 22  0  0  0  0  0  0  0  0999 V2000
   -3.6935   -1.4454    0.0752 S   0  0  0  0  0  0  0  0  0  0  0  0
    4.1668   -1.0547   -0.0787 S   0  0  0  0  0  0  0  0  0  0  0  0
   -1.2609    3.0387    0.0129 O   0  0  0  0  0  0  0  0  0  0  0  0
   -4.3753   -1.2415   -1.3951 O   0  0  0  0  0  0  0  0  0  0  0  0
    4.5783   -1.2480    1.4916 O   0  0  0  0  0  0  0  0  0  0  0  0
   -3.2864   -2.8381    0.1686 O   0  0  0  0  0  0  0  0  0  0  0  0
   -4.5738   -0.8573    1.0703 O   0  0  0  0  0  0  0  0  0  0  0  0
    3.9711   -2.3862   -0.6334 O   0  0  0  0  0  0  0  0  0  0  0  0
    5.1137   -0.1310   -0.6835 O   0  0  0  0  0  0  0  0  0  0  0  0
    1.3505    3.2018   -0.0368 N   0  0  0  0  0  0  0  0  0  0  0  0
   -3.5579    1.5812    0.0625 N   0  0  0  0  0  0  0  0  0  0  0  0
    0.1254    1.0450   -0.0070 C   0  0  0  0  0  0  0  0  0  0  0  0
    0.1881   -0.3689   -0.0035 C   0  0  0  0  0  0  0  0  0  0  0  0
   -2.2423   -0.4649    0.0431 C   0  0  0  0  0  0  0  0  0  0  0  0
   -1.1287    1.6768    0.0149 C   0  0  0  0  0  0  0  0  0  0  0  0
    1.3185    1.7854   -0.0324 C   0  0  0  0  0  0  0  0  0  0  0  0
   -1.0050   -1.1092    0.0218 C   0  0  0  0  0  0  0  0  0  0  0  0
   -2.3040    0.9254    0.0396 C   0  0  0  0  0  0  0  0  0  0  0  0
    1.4422   -1.0007   -0.0254 C   0  0  0  0  0  0  0  0  0  0  0  0
    2.6175   -0.2494   -0.0507 C   0  0  0  0  0  0  0  0  0  0  0  0
    2.5558    1.1410   -0.0542 C   0  0  0  0  0  0  0  0  0  0  0  0
  1  4  1  0
  1  6  2  0
  1  7  2  0
  1 14  1  0
  2  5  1  0
  2  8  2  0
  2  9  2  0
  2 20  1  0
  3 15  1  0
 10 16  1  0
 11 18  1  0
 12 13  2  0
 12 15  1  0
 12 16  1  0
 13 17  1  0
 13 19  1  0
 14 17  2  0
 14 18  1  0
 15 18  2  0
 16 21  2  0
 19 20  2  0
 20 21  1  0
M  END
>  <PUBCHEM_COMPOUND_CID>  (1) 
19071

>  <PUBCHEM_CONFORMER_RMSD>  (1) 
0.6

>  <PUBCHEM_CONFORMER_DIVERSEORDER>  (1) 
1
2

>  <PUBCHEM_MMFF94_PARTIAL_CHARGES>  (1) 
29
1 1.49
10 -0.9
11 -0.9
14 -0.01
15 0.08
16 0.1
17 -0.15
18 0.1
19 -0.15
2 1.49
20 -0.01
21 -0.15
22 0.15
23 0.15
24 0.15
25 0.4
26 0.4
27 0.4
28 0.4
29 0.45
3 -0.53
30 0.5
31 0.5
4 -0.68
5 -0.68
6 -0.65
7 -0.65
8 -0.65
9 -0.65

>  <PUBCHEM_EFFECTIVE_ROTOR_COUNT>  (1) 
2

>  <PUBCHEM_PHARMACOPHORE_FEATURES>  (1) 
15
1 10 cation
1 10 donor
1 11 cation
1 11 donor
1 3 donor
1 4 acceptor
1 5 acceptor
1 6 acceptor
1 7 acceptor
1 8 acceptor
1 9 acceptor
4 1 4 6 7 anion
4 2 5 8 9 anion
6 12 13 14 15 17 18 rings
6 12 13 16 19 20 21 rings

>  <PUBCHEM_HEAVY_ATOM_COUNT>  (1) 
21

>  <PUBCHEM_ATOM_DEF_STEREO_COUNT>  (1) 
0

>  <PUBCHEM_ATOM_UDEF_STEREO_COUNT>  (1) 
0

>  <PUBCHEM_BOND_DEF_STEREO_COUNT>  (1) 
0

>  <PUBCHEM_BOND_UDEF_STEREO_COUNT>  (1) 
0

>  <PUBCHEM_ISOTOPIC_ATOM_COUNT>  (1) 
0

>  <PUBCHEM_COMPONENT_COUNT>  (1) 
1

>  <PUBCHEM_CACTVS_TAUTO_COUNT>  (1) 
33

>  <PUBCHEM_CONFORMER_ID>  (1) 
00004A7F00000001

>  <PUBCHEM_MMFF94_ENERGY>  (1) 
70.4755

>  <PUBCHEM_FEATURE_SELFOVERLAP>  (1) 
76.277

>  <PUBCHEM_SHAPE_FINGERPRINT>  (1) 
10062212 137 18335700516170584187
10319926 262 18052230949113150346
10967382 1 18122627424776090733
11543360 7 15647061498680903254
11578080 2 17416944262590808345
11806522 49 18408042931339162798
12032990 46 18410578391787929330
12236239 1 17822015264370694870
12553582 1 18410294717851753898
13140716 1 18412548712757666137
13583140 156 14189582909832442823
138480 1 15023587364288214316
14790565 3 17763191236770005896
15042514 8 18193841435945175840
15196674 1 18410576188638810348
15352361 1 18411138047607280518
15442244 35 18411704300501166345
15536298 74 18342458196371363760
16945 1 18338798901309597769
17804303 29 18412548690960855056
1813 80 17749117681370492838
18186145 218 17604422011632917947
18222031 100 18272364295846426558
19141452 34 18271529689269366905
200 152 18201994448083531687
20028762 73 18129660936609946815
20281475 54 18268153239537257499
20645477 70 18264480870473911831
21267235 1 18338245937482154843
21501502 16 18410300236900495013
221490 88 18263932213976251875
22182313 1 18264466520714226676
2334 1 18338800134329182593
23366157 5 18042405901452810908
23402539 116 18340762663315023670
23557571 272 18130235843840860414
23559900 14 18339072804258907256
25147074 1 18269290078747350297
2748010 2 18338790212880973397
3091708 16 8992534531312167328
335352 9 18338518539193608349
350125 39 18410019836172023585
5104073 3 18412262839438876920
54173680 148 18267024959981292448
7364860 26 18268993270732105184
8809292 202 18334862696963385611
8863177 126 17679881567847051683
9709674 26 18191024714783046091

>  <PUBCHEM_SHAPE_MULTIPOLES>  (1) 
388.82
9.06
2.94
0.82
2.4
1.32
0.05
-5.93
0.03
-0.53
-0.05
0.01
-0.28
-0.15

>  <PUBCHEM_SHAPE_SELFOVERLAP>  (1) 
826.723

>  <PUBCHEM_SHAPE_VOLUME>  (1) 
218

>  <PUBCHEM_COORDINATE_TYPE>  (1) 
2
5
10

$$$$
