1907
     RDKit          3D

 31 33  0  0  1  0  0  0  0  0999 V2000
   -6.6321   -0.6870   -0.9844 P   0  0  0  0  0  0  0  0  0  0  0  0
   -2.3480   -0.5099   -0.3215 O   0  0  0  0  0  0  0  0  0  0  0  0
    0.0882   -2.6560    1.1510 O   0  0  0  0  0  0  0  0  0  0  0  0
   -2.6179   -2.4800    2.6643 O   0  0  0  0  0  0  0  0  0  0  0  0
   -5.1722   -0.4440   -0.3293 O   0  0  0  0  0  0  0  0  0  0  0  0
   -7.5151   -1.1821    0.2767 O   0  0  0  0  0  0  0  0  0  0  0  0
   -7.1831    0.8082   -1.2602 O   0  0  0  0  0  0  0  0  0  0  0  0
   -6.6499   -1.6063   -2.1705 O   0  0  0  0  0  0  0  0  0  0  0  0
   -0.1246    0.2886   -0.1968 N   0  0  0  0  0  0  0  0  0  0  0  0
    1.7451   -0.7489   -1.1764 N   0  0  0  0  0  0  0  0  0  0  0  0
    1.6442    1.5842   -0.6004 N   0  0  0  0  0  0  0  0  0  0  0  0
   -1.6281    1.9280    0.7789 N   0  0  0  0  0  0  0  0  0  0  0  0
   -0.5910    4.1351    0.8754 N   0  0  0  0  0  0  0  0  0  0  0  0
    1.6321    4.5453    0.0897 N   0  0  0  0  0  0  0  0  0  0  0  0
   10.4239   -1.1218    0.1552 N   0  0  0  0  0  0  0  0  0  0  0  0
   -0.9740   -0.8987   -0.1306 C   0  0  0  0  0  0  0  0  0  0  0  0
   -0.8946   -1.6368    1.1998 C   0  0  0  0  0  0  0  0  0  0  0  0
   -2.2889   -2.2134    1.3144 C   0  0  0  0  0  0  0  0  0  0  0  0
   -3.1330   -1.0908    0.7337 C   0  0  0  0  0  0  0  0  0  0  0  0
   -4.4628   -1.5639    0.1745 C   0  0  0  0  0  0  0  0  0  0  0  0
    1.1481    0.3743   -0.6818 C   0  0  0  0  0  0  0  0  0  0  0  0
   -0.4679    1.5404    0.2283 C   0  0  0  0  0  0  0  0  0  0  0  0
    0.6419    2.3288   -0.0311 C   0  0  0  0  0  0  0  0  0  0  0  0
    3.0832   -0.7864   -1.7152 C   0  0  0  0  0  0  0  0  0  0  0  0
    4.1164   -0.8577   -0.5938 C   0  0  0  0  0  0  0  0  0  0  0  0
    5.5561   -0.8945   -1.1180 C   0  0  0  0  0  0  0  0  0  0  0  0
    0.5526    3.6736    0.3141 C   0  0  0  0  0  0  0  0  0  0  0  0
    6.5606   -0.9776    0.0342 C   0  0  0  0  0  0  0  0  0  0  0  0
   -1.5954    3.2468    1.0700 C   0  0  0  0  0  0  0  0  0  0  0  0
    8.0216   -0.9795   -0.4309 C   0  0  0  0  0  0  0  0  0  0  0  0
    9.0644   -1.1178    0.6806 C   0  0  0  0  0  0  0  0  0  0  0  0
  1  5  1  0
  1  6  1  0
  1  7  1  0
  1  8  2  0
  2 16  1  0
  2 19  1  0
  3 17  1  0
  4 18  1  0
  5 20  1  0
  9 16  1  0
  9 21  1  0
  9 22  1  0
 10 21  1  0
 10 24  1  0
 11 21  2  0
 11 23  1  0
 12 22  1  0
 12 29  2  0
 13 27  2  0
 13 29  1  0
 14 27  1  0
 15 31  1  0
 16 17  1  0
 17 18  1  0
 18 19  1  0
 19 20  1  0
 22 23  2  0
 23 27  1  0
 24 25  1  0
 25 26  1  0
 26 28  1  0
 28 30  1  0
 30 31  1  0
M  END
>  <PUBCHEM_COMPOUND_CID>  (1) 
1907

>  <PUBCHEM_CONFORMER_RMSD>  (1) 
1.2

>  <PUBCHEM_CONFORMER_DIVERSEORDER>  (1) 
10
123
130
74
190
83
156
314
26
234
121
240
55
63
90
28
210
110
226
70
145
302
317
198
300
106
289
142
294
267
141
43
114
176
37
104
308
81
125
161
58
277
172
213
4
27
309
23
197
171
182
134
119
86
105
324
275
135
315
296
295
282
19
284
285
159
258
93
180
325
195
32
246
323
139
29
96
230
89
149
181
243
147
169
268
52
286
62
237
232
24
148
85
64
165
290
187
48
201
150
280
122
224
174
220
228
38
316
128
137
41
1
287
260
225
34
129
8
153
113
131
116
22
185
257
80
272
184
117
109
211
304
231
265
194
216
254
279
204
202
36
78
99
233
221
299
157
82
313
188
251
95
162
136
298
322
175
168
245
75
25
318
301
112
236
307
97
264
247
18
111
270
288
252
217
297
158
291
154
271
21
101
7
14
126
209
215
293
40
17
56
103
191
249
20
281
118
223
229
193
46
53
143
155
205
133
235
44
120
242
241
321
16
292
218
100
108
2
222
239
66
13
79
84
115
306
50
178
170
266
303
98
255
253
276
69
173
9
92
33
94
283
144
88
244
6
163
186
214
261
183
200
248
278
160
39
138
320
51
76
311
57
15
208
73
5
166
250
179
167
146
238
42
207
256
77
189
68
31
319
212
192
47
310
35
124
262
203
273
219
102
59
177
227
312
67
60
196
305
30
127
107
259
132
61
274
152
140
91
11
45
263
164
206
12
49
87
269
199
151
65
3
54
72
71

>  <PUBCHEM_MMFF94_PARTIAL_CHARGES>  (1) 
37
1 1.51
10 -0.85
11 -0.57
12 -0.57
13 -0.62
14 -0.9
15 -0.99
16 0.54
17 0.28
18 0.28
19 0.28
2 -0.56
20 0.28
21 0.27
22 0.11
23 0.23
24 0.37
27 0.41
29 0.47
3 -0.68
31 0.27
38 0.4
39 0.4
4 -0.68
40 0.4
49 0.15
5 -0.55
52 0.4
53 0.4
56 0.5
57 0.5
58 0.36
59 0.36
6 -0.77
7 -0.77
8 -0.7
9 0.05

>  <PUBCHEM_EFFECTIVE_ROTOR_COUNT>  (1) 
12

>  <PUBCHEM_PHARMACOPHORE_FEATURES>  (1) 
20
1 10 donor
1 14 cation
1 14 donor
1 15 cation
1 15 donor
1 2 acceptor
1 3 acceptor
1 3 donor
1 4 acceptor
1 4 donor
1 6 acceptor
1 7 acceptor
1 8 acceptor
3 12 13 29 cation
4 1 6 7 8 anion
4 25 26 28 30 hydrophobe
4 9 10 11 21 cation
5 2 16 17 18 19 rings
5 9 11 21 22 23 rings
6 12 13 22 23 27 29 rings

>  <PUBCHEM_HEAVY_ATOM_COUNT>  (1) 
31

>  <PUBCHEM_ATOM_DEF_STEREO_COUNT>  (1) 
0

>  <PUBCHEM_ATOM_UDEF_STEREO_COUNT>  (1) 
4

>  <PUBCHEM_BOND_DEF_STEREO_COUNT>  (1) 
0

>  <PUBCHEM_BOND_UDEF_STEREO_COUNT>  (1) 
0

>  <PUBCHEM_ISOTOPIC_ATOM_COUNT>  (1) 
0

>  <PUBCHEM_COMPONENT_COUNT>  (1) 
1

>  <PUBCHEM_CACTVS_TAUTO_COUNT>  (1) 
6

>  <PUBCHEM_CONFORMER_ID>  (1) 
000007730000000A

>  <PUBCHEM_MMFF94_ENERGY>  (1) 
21.4008

>  <PUBCHEM_FEATURE_SELFOVERLAP>  (1) 
101.67

>  <PUBCHEM_SHAPE_FINGERPRINT>  (1) 
10165383 225 17530961359639145679
10670039 82 17095515185468956135
10930396 42 18200009825717433490
1100329 8 18266761124467487089
11135609 99 16056304154835159903
11315181 36 17895204307619050630
12202916 173 18413389839264152398
12758862 11 17676203606671930068
12788726 201 18335421205767830826
13540713 4 17899421076049912451
14068700 675 18273495684389248329
14150022 121 17346605123443250840
14279260 333 18410292472237992471
14844126 61 18336274474742656450
15927050 60 17691418416385063822
16992610 120 8790600455797324354
16992727 255 18187928301477867637
18006028 8 18411700989355648982
20642791 13 18270692943582615340
21365058 27 10881399833319002961
21814621 53 16226341433379326508
23536364 44 18337671902571545117
23559900 14 18265053715799861545
24180151 40 18191018998213523082
283562 15 18338239237116758954
3009799 131 18410575089222193351
3633792 109 17603584080799235558
57035037 87 16343426103301991881
5969126 39 18273211971971778292
6004065 56 18270963556439633735
613672 6 18341630216897869558
6376802 137 17703514315796651377
6523845 18 8214142936939915750
6698420 124 11963395133116053126
6703917 75 8358255981958738774

>  <PUBCHEM_SHAPE_MULTIPOLES>  (1) 
565.86
21.23
4.13
1.49
37.63
6.61
0.13
-17.42
-4.87
-1.36
1.76
-1.47
-0.94
0.09

>  <PUBCHEM_SHAPE_SELFOVERLAP>  (1) 
1162.012

>  <PUBCHEM_SHAPE_VOLUME>  (1) 
328.1

>  <PUBCHEM_COORDINATE_TYPE>  (1) 
2
5
10

$$$$
