19085
     RDKit          3D

 14 14  0  0  1  0  0  0  0  0999 V2000
   -2.8415   -1.5223    0.1944 O   0  0  0  0  0  0  0  0  0  0  0  0
   -1.8256    2.4239    0.0136 O   0  0  0  0  0  0  0  0  0  0  0  0
   -3.3800    0.8826    0.2277 O   0  0  0  0  0  0  0  0  0  0  0  0
   -2.1840    1.2245    0.0748 N   0  0  0  0  0  0  0  0  0  0  0  0
    2.5531   -0.0128   -0.4972 C   0  0  0  0  0  0  0  0  0  0  0  0
    3.1046    0.8299    0.6709 C   0  0  0  0  0  0  0  0  0  0  0  0
    1.0993   -0.4121   -0.3112 C   0  0  0  0  0  0  0  0  0  0  0  0
    2.7398    0.7315   -1.8251 C   0  0  0  0  0  0  0  0  0  0  0  0
    0.1412    0.5771   -0.2061 C   0  0  0  0  0  0  0  0  0  0  0  0
    0.7757   -1.7536   -0.2517 C   0  0  0  0  0  0  0  0  0  0  0  0
    3.1142    0.0798    1.9973 C   0  0  0  0  0  0  0  0  0  0  0  0
   -1.1937    0.2103   -0.0347 C   0  0  0  0  0  0  0  0  0  0  0  0
   -0.5592   -2.1205   -0.0807 C   0  0  0  0  0  0  0  0  0  0  0  0
   -1.5438   -1.1385    0.0278 C   0  0  0  0  0  0  0  0  0  0  0  0
  1 14  1  0
  2  4  1  0
  3  4  2  0
  4 12  1  0
  5  6  1  0
  5  7  1  0
  5  8  1  0
  6 11  1  0
  7  9  2  0
  7 10  1  0
  9 12  1  0
 10 13  2  0
 12 14  2  0
 13 14  1  0
M  CHG  2   2  -1   4   1
M  END
>  <PUBCHEM_COMPOUND_CID>  (1) 
19085

>  <PUBCHEM_CONFORMER_RMSD>  (1) 
0.6

>  <PUBCHEM_CONFORMER_DIVERSEORDER>  (1) 
1
5
4
8
3
2
7
6

>  <PUBCHEM_MMFF94_PARTIAL_CHARGES>  (1) 
15
1 -0.53
10 -0.15
12 0.13
13 -0.15
14 0.08
2 -0.52
21 0.15
22 0.15
26 0.15
27 0.45
3 -0.52
4 0.91
5 0.14
7 -0.14
9 -0.15

>  <PUBCHEM_EFFECTIVE_ROTOR_COUNT>  (1) 
3

>  <PUBCHEM_PHARMACOPHORE_FEATURES>  (1) 
7
1 1 donor
1 11 hydrophobe
1 2 acceptor
1 2 anion
1 3 acceptor
1 8 hydrophobe
6 7 9 10 12 13 14 rings

>  <PUBCHEM_HEAVY_ATOM_COUNT>  (1) 
14

>  <PUBCHEM_ATOM_DEF_STEREO_COUNT>  (1) 
0

>  <PUBCHEM_ATOM_UDEF_STEREO_COUNT>  (1) 
1

>  <PUBCHEM_BOND_DEF_STEREO_COUNT>  (1) 
0

>  <PUBCHEM_BOND_UDEF_STEREO_COUNT>  (1) 
0

>  <PUBCHEM_ISOTOPIC_ATOM_COUNT>  (1) 
0

>  <PUBCHEM_COMPONENT_COUNT>  (1) 
1

>  <PUBCHEM_CACTVS_TAUTO_COUNT>  (1) 
4

>  <PUBCHEM_CONFORMER_ID>  (1) 
00004A8D00000001

>  <PUBCHEM_MMFF94_ENERGY>  (1) 
40.3195

>  <PUBCHEM_FEATURE_SELFOVERLAP>  (1) 
35.6

>  <PUBCHEM_SHAPE_FINGERPRINT>  (1) 
11132069 177 18413671322719079025
12251169 10 18187916249508841032
12423570 1 12677813773714267902
12932764 1 17775573065122492686
13380535 21 18269014010844074671
13380535 76 18410571743526981111
13380536 127 18260832656532855234
13538477 17 17897164843566252606
13764800 53 18412554205783090569
15219456 202 17775005713106875198
15775835 57 18335137600893477504
16945 1 18267589180933985566
17357990 137 18040442092202011180
17846911 113 18341322340793509209
18186145 218 17775013353294616640
20510252 161 18270967950169617344
20511035 2 18268147556974206998
20645464 45 17846213392982820290
21040471 1 18410862023033537998
21486144 27 16701749361786716698
21524375 3 18268713814025760543
21947302 44 17346875650637682280
22445834 79 17895455008638101818
22802520 49 17916605145268549782
230 275 18337392613068256996
23402539 116 18128235978018766671
23419403 2 16119318411753006951
23557571 272 17845938562030405294
23559900 14 18272377469012023660
23598291 2 17676209074339273628
23598294 1 18262808491601965314
2748010 2 18339371755552607975
3071541 236 18261384589842850211
53812653 166 18273214183721446160
53812653 8 18189911978834869246
6333449 129 18343018912925681039
7364860 26 17984420737426378670
77492 1 17749105642730129454
81228 2 18127413577522783047
88987 49 18339923813674298604

>  <PUBCHEM_SHAPE_MULTIPOLES>  (1) 
265.52
5.14
1.99
1.23
0.34
0.06
-0.12
-1.48
-0.96
-1.52
0.06
1.75
-0.18
-0.14

>  <PUBCHEM_SHAPE_SELFOVERLAP>  (1) 
548.482

>  <PUBCHEM_SHAPE_VOLUME>  (1) 
153.4

>  <PUBCHEM_COORDINATE_TYPE>  (1) 
2
5
10

$$$$
