19084
     RDKit          3D

 15 15  0  0  0  0  0  0  0  0999 V2000
   -0.5497   -2.9307    0.3517 Br  0  0  0  0  0  0  0  0  0  0  0  0
   -0.9703    2.6993    0.4103 Br  0  0  0  0  0  0  0  0  0  0  0  0
    2.3390    3.0131   -0.1251 Br  0  0  0  0  0  0  0  0  0  0  0  0
    2.7688   -2.7381   -0.1843 Br  0  0  0  0  0  0  0  0  0  0  0  0
    4.2075    0.2638   -0.4226 Br  0  0  0  0  0  0  0  0  0  0  0  0
   -1.7792   -0.1936    0.5456 O   0  0  0  0  0  0  0  0  0  0  0  0
   -0.4333   -0.0908    0.3282 C   0  0  0  0  0  0  0  0  0  0  0  0
    0.3431   -1.2429    0.2046 C   0  0  0  0  0  0  0  0  0  0  0  0
    0.1631    1.1663    0.2297 C   0  0  0  0  0  0  0  0  0  0  0  0
    1.5363    1.2712    0.0077 C   0  0  0  0  0  0  0  0  0  0  0  0
    1.7162   -1.1380   -0.0172 C   0  0  0  0  0  0  0  0  0  0  0  0
    2.3129    0.1191   -0.1158 C   0  0  0  0  0  0  0  0  0  0  0  0
   -2.6150   -0.2440   -0.6062 C   0  0  0  0  0  0  0  0  0  0  0  0
   -4.0308   -0.4122   -0.1645 C   0  0  0  0  0  0  0  0  0  0  0  0
   -5.0084    0.4574   -0.4422 C   0  0  0  0  0  0  0  0  0  0  0  0
  1  8  1  0
  2  9  1  0
  3 10  1  0
  4 11  1  0
  5 12  1  0
  6  7  1  0
  6 13  1  0
  7  8  2  0
  7  9  1  0
  8 11  1  0
  9 10  2  0
 10 12  1  0
 11 12  2  0
 13 14  1  0
 14 15  2  0
M  END
>  <PUBCHEM_COMPOUND_CID>  (1) 
19084

>  <PUBCHEM_CONFORMER_RMSD>  (1) 
0.6

>  <PUBCHEM_CONFORMER_DIVERSEORDER>  (1) 
1
3
2
4

>  <PUBCHEM_MMFF94_PARTIAL_CHARGES>  (1) 
18
1 -0.11
10 0.11
11 0.11
12 0.11
13 0.42
14 -0.29
15 -0.3
18 0.15
19 0.15
2 -0.11
20 0.15
3 -0.11
4 -0.11
5 -0.11
6 -0.36
7 0.08
8 0.11
9 0.11

>  <PUBCHEM_EFFECTIVE_ROTOR_COUNT>  (1) 
3

>  <PUBCHEM_PHARMACOPHORE_FEATURES>  (1) 
8
1 1 hydrophobe
1 15 hydrophobe
1 2 hydrophobe
1 3 hydrophobe
1 4 hydrophobe
1 5 hydrophobe
1 6 acceptor
6 7 8 9 10 11 12 rings

>  <PUBCHEM_HEAVY_ATOM_COUNT>  (1) 
15

>  <PUBCHEM_ATOM_DEF_STEREO_COUNT>  (1) 
0

>  <PUBCHEM_ATOM_UDEF_STEREO_COUNT>  (1) 
0

>  <PUBCHEM_BOND_DEF_STEREO_COUNT>  (1) 
0

>  <PUBCHEM_BOND_UDEF_STEREO_COUNT>  (1) 
0

>  <PUBCHEM_ISOTOPIC_ATOM_COUNT>  (1) 
0

>  <PUBCHEM_COMPONENT_COUNT>  (1) 
1

>  <PUBCHEM_CACTVS_TAUTO_COUNT>  (1) 
1

>  <PUBCHEM_CONFORMER_ID>  (1) 
00004A8C00000001

>  <PUBCHEM_MMFF94_ENERGY>  (1) 
50.2966

>  <PUBCHEM_FEATURE_SELFOVERLAP>  (1) 
40.601

>  <PUBCHEM_SHAPE_FINGERPRINT>  (1) 
10411042 1 18122624946701825906
10756046 5 18193841435739707508
10967382 1 18410857676679446210
11471102 20 18409444761272367335
116883 192 18055073160061895933
13140716 1 18194398021026051120
13380535 76 18410293644500248546
14115302 16 18188219796375142588
14178342 30 17689982445804842394
14251717 144 18410572860134075527
14576447 43 18201144559897263039
14911166 2 18410581707982658556
15442244 35 18197219140018979129
16945 1 18338811082221529480
18186145 218 18336537313502659645
193761 8 17978513031501059432
20588541 1 18409169943500298574
20645477 70 18410569549052095519
21029758 11 18342741814826983416
21501502 16 18195252109453361120
221490 88 18337113487840155507
2334 1 17834964448670035392
23402539 116 18342450465382531038
23402655 69 18411975833076875949
23419403 2 17608890332499210964
23526114 1 18194404386062120838
23557571 272 17914896435949416494
23559900 14 18269558398645324204
23566358 2 18266737983030169884
23598291 2 17985558744834979003
25 1 18336259136902453223
25147074 1 18121512262888576098
2748010 2 18194126205430762776
3060560 45 18412542111034093230
335352 9 18410011061542814476
34934 24 18411414046970200106
4072396 5 18335967719551199746
58051976 378 18412544309993726734
7364860 26 18412823599280547872
84936 182 18130222782645490097

>  <PUBCHEM_SHAPE_MULTIPOLES>  (1) 
332.54
6.99
3.64
0.76
6.31
0.09
0.01
0.22
1.76
-2.22
-0.34
0.06
0.01
-0.02

>  <PUBCHEM_SHAPE_SELFOVERLAP>  (1) 
614.701

>  <PUBCHEM_SHAPE_VOLUME>  (1) 
218.7

>  <PUBCHEM_COORDINATE_TYPE>  (1) 
2
5
10

$$$$
