19082
     RDKit          3D

 20 20  0  0  1  0  0  0  0  0999 V2000
    7.9684    0.5786    0.1015 O   0  0  0  0  0  0  0  0  0  0  0  0
    6.9871   -1.3398   -0.7212 O   0  0  0  0  0  0  0  0  0  0  0  0
   -7.0987   -0.0443    0.4592 C   0  0  0  0  0  0  0  0  0  0  0  0
   -5.8143   -0.7787    0.1044 C   0  0  0  0  0  0  0  0  0  0  0  0
   -7.2657    1.2573   -0.3388 C   0  0  0  0  0  0  0  0  0  0  0  0
   -4.5453    0.0240    0.4033 C   0  0  0  0  0  0  0  0  0  0  0  0
   -3.2577   -0.7335    0.0700 C   0  0  0  0  0  0  0  0  0  0  0  0
   -8.7614    1.3838   -0.6301 C   0  0  0  0  0  0  0  0  0  0  0  0
   -1.9849    0.0310    0.4511 C   0  0  0  0  0  0  0  0  0  0  0  0
   -8.3345   -0.8056    0.0897 C   0  0  0  0  0  0  0  0  0  0  0  0
   -0.6597   -0.6468    0.0894 C   0  0  0  0  0  0  0  0  0  0  0  0
    0.5697    0.2037    0.4144 C   0  0  0  0  0  0  0  0  0  0  0  0
   -9.2419   -0.0222   -0.5010 C   0  0  0  0  0  0  0  0  0  0  0  0
    1.8562   -0.4815   -0.0521 C   0  0  0  0  0  0  0  0  0  0  0  0
    3.0900    0.3518    0.3010 C   0  0  0  0  0  0  0  0  0  0  0  0
    4.3782   -0.3523   -0.1363 C   0  0  0  0  0  0  0  0  0  0  0  0
    5.6315    0.4435    0.2279 C   0  0  0  0  0  0  0  0  0  0  0  0
    6.9147   -0.2411   -0.1881 C   0  0  0  0  0  0  0  0  0  0  0  0
    9.2580    0.0771   -0.2644 C   0  0  0  0  0  0  0  0  0  0  0  0
   10.3103    1.0951    0.1203 C   0  0  0  0  0  0  0  0  0  0  0  0
  1 18  1  0
  1 19  1  0
  2 18  2  0
  3  4  1  0
  3  5  1  0
  3 10  1  0
  4  6  1  0
  5  8  1  0
  6  7  1  0
  7  9  1  0
  8 13  1  0
  9 11  1  0
 10 13  2  0
 11 12  1  0
 12 14  1  0
 14 15  1  0
 15 16  1  0
 16 17  1  0
 17 18  1  0
 19 20  1  0
M  END
>  <PUBCHEM_COMPOUND_CID>  (1) 
19082

>  <PUBCHEM_CONFORMER_RMSD>  (1) 
1.2

>  <PUBCHEM_CONFORMER_DIVERSEORDER>  (1) 
1
69
40
70
13
65
64
5
26
84
22
49
78
55
8
35
63
39
52
29
31
24
25
46
74
72
71
3
33
34
56
9
48
57
91
87
83
30
73
79
67
82
90
27
85
37
75
42
28
45
60
2
7
15
61
81
77
36
68
54
43
53
17
38
23
6
88
12
80
59
32
58
4
86
19
41
20
50
16
21
89
62
11
47
10
76
44
66
14
18
51
92

>  <PUBCHEM_MMFF94_PARTIAL_CHARGES>  (1) 
11
1 -0.43
10 -0.29
13 -0.29
17 0.06
18 0.66
19 0.28
2 -0.57
3 0.14
34 0.15
39 0.15
8 0.14

>  <PUBCHEM_EFFECTIVE_ROTOR_COUNT>  (1) 
13.6

>  <PUBCHEM_PHARMACOPHORE_FEATURES>  (1) 
2
1 2 acceptor
5 3 5 8 10 13 rings

>  <PUBCHEM_HEAVY_ATOM_COUNT>  (1) 
20

>  <PUBCHEM_ATOM_DEF_STEREO_COUNT>  (1) 
0

>  <PUBCHEM_ATOM_UDEF_STEREO_COUNT>  (1) 
1

>  <PUBCHEM_BOND_DEF_STEREO_COUNT>  (1) 
0

>  <PUBCHEM_BOND_UDEF_STEREO_COUNT>  (1) 
0

>  <PUBCHEM_ISOTOPIC_ATOM_COUNT>  (1) 
0

>  <PUBCHEM_COMPONENT_COUNT>  (1) 
1

>  <PUBCHEM_CACTVS_TAUTO_COUNT>  (1) 
1

>  <PUBCHEM_CONFORMER_ID>  (1) 
00004A8A00000001

>  <PUBCHEM_MMFF94_ENERGY>  (1) 
10.5293

>  <PUBCHEM_FEATURE_SELFOVERLAP>  (1) 
10.148

>  <PUBCHEM_SHAPE_FINGERPRINT>  (1) 
11315181 36 18201723951633911179
11638347 137 9727640501489976876
12091667 2 18260830406972429139
12498461 61 8069733106878992573
14202775 3 10231762201943547596
14251764 18 15626225697684505271
14251764 46 18334294271327594866
14251920 1 8862946075217084259
14344974 52 18201152256040443465
14428016 248 16805329894137164188
15061470 23 18040995151041331396
15510794 2 18334580140067016234
155225 1 18113335298039844717
16120349 18 17918272087186802984
21095086 128 12175626170566105748
21150785 3 14980239543943981931
21360443 120 15339121226082900565
21362267 2 17750224962911678100
21362267 313 17968649411979035408
22224240 67 13695588862596291297
232437 2 18272089404759213854
23521765 1 18341895194677712451
23581129 1 18409449193346177386
246663 6 14405187274330320587
249057 3 16917063390785207405
28498 318 18272090483043756142
335352 9 17489868254067734566
33684 2 18334294271443633010
59567204 34 18261671473191436021
67123 10 18411138047501402118
8209 1 18343021094774413643

>  <PUBCHEM_SHAPE_MULTIPOLES>  (1) 
399.85
41.15
1.08
0.72
26.98
0.15
-0.01
8.96
-5.01
-0.76
-0.11
-0.2
0
0.99

>  <PUBCHEM_SHAPE_SELFOVERLAP>  (1) 
761.963

>  <PUBCHEM_SHAPE_VOLUME>  (1) 
247.1

>  <PUBCHEM_COORDINATE_TYPE>  (1) 
2
5
10

$$$$
