19081
     RDKit          3D

 16 18  0  0  0  0  0  0  0  0999 V2000
    0.0177    1.3659   -0.0002 N   0  0  0  0  0  0  0  0  0  0  0  0
   -0.4929   -2.7942    0.0000 N   0  0  0  0  0  0  0  0  0  0  0  0
    0.9703   -0.8435   -0.0001 C   0  0  0  0  0  0  0  0  0  0  0  0
    1.0942    0.5562   -0.0002 C   0  0  0  0  0  0  0  0  0  0  0  0
   -0.3198   -1.3835    0.0001 C   0  0  0  0  0  0  0  0  0  0  0  0
   -1.4409   -0.5474    0.0000 C   0  0  0  0  0  0  0  0  0  0  0  0
   -1.2226    0.8406   -0.0002 C   0  0  0  0  0  0  0  0  0  0  0  0
    2.3760    1.0999   -0.0003 C   0  0  0  0  0  0  0  0  0  0  0  0
    2.1146   -1.6599    0.0001 C   0  0  0  0  0  0  0  0  0  0  0  0
    3.5154    0.2915   -0.0002 C   0  0  0  0  0  0  0  0  0  0  0  0
   -2.7488   -1.0629    0.0003 C   0  0  0  0  0  0  0  0  0  0  0  0
    3.3849   -1.0913    0.0000 C   0  0  0  0  0  0  0  0  0  0  0  0
   -2.3349    1.6782   -0.0002 C   0  0  0  0  0  0  0  0  0  0  0  0
    2.5667    2.5851    0.0008 C   0  0  0  0  0  0  0  0  0  0  0  0
   -3.8438   -0.2040    0.0002 C   0  0  0  0  0  0  0  0  0  0  0  0
   -3.6360    1.1694    0.0000 C   0  0  0  0  0  0  0  0  0  0  0  0
  1  4  2  0
  1  7  1  0
  2  5  1  0
  3  4  1  0
  3  5  2  0
  3  9  1  0
  4  8  1  0
  5  6  1  0
  6  7  2  0
  6 11  1  0
  7 13  1  0
  8 10  2  0
  8 14  1  0
  9 12  2  0
 10 12  1  0
 11 15  2  0
 13 16  2  0
 15 16  1  0
M  END
>  <PUBCHEM_COMPOUND_CID>  (1) 
19081

>  <PUBCHEM_CONFORMER_RMSD>  (1) 
0.4

>  <PUBCHEM_CONFORMER_DIVERSEORDER>  (1) 
1

>  <PUBCHEM_MMFF94_PARTIAL_CHARGES>  (1) 
23
1 -0.62
10 -0.15
11 -0.15
12 -0.15
13 -0.15
14 0.14
15 -0.15
16 -0.15
17 0.15
18 0.15
19 0.15
2 -0.9
20 0.15
21 0.15
25 0.15
26 0.15
27 0.4
28 0.4
4 0.31
5 0.1
7 0.31
8 -0.14
9 -0.15

>  <PUBCHEM_EFFECTIVE_ROTOR_COUNT>  (1) 
0

>  <PUBCHEM_PHARMACOPHORE_FEATURES>  (1) 
6
1 1 acceptor
1 2 cation
1 2 donor
6 1 3 4 5 6 7 rings
6 3 4 8 9 10 12 rings
6 6 7 11 13 15 16 rings

>  <PUBCHEM_HEAVY_ATOM_COUNT>  (1) 
16

>  <PUBCHEM_ATOM_DEF_STEREO_COUNT>  (1) 
0

>  <PUBCHEM_ATOM_UDEF_STEREO_COUNT>  (1) 
0

>  <PUBCHEM_BOND_DEF_STEREO_COUNT>  (1) 
0

>  <PUBCHEM_BOND_UDEF_STEREO_COUNT>  (1) 
0

>  <PUBCHEM_ISOTOPIC_ATOM_COUNT>  (1) 
0

>  <PUBCHEM_COMPONENT_COUNT>  (1) 
1

>  <PUBCHEM_CACTVS_TAUTO_COUNT>  (1) 
2

>  <PUBCHEM_CONFORMER_ID>  (1) 
00004A8900000001

>  <PUBCHEM_MMFF94_ENERGY>  (1) 
68.1459

>  <PUBCHEM_FEATURE_SELFOVERLAP>  (1) 
30.507

>  <PUBCHEM_SHAPE_FINGERPRINT>  (1) 
10411042 1 16897646785061431047
10608611 8 18409445886348343309
10967382 1 18410573993831127972
11132069 177 18412537691486027259
11471102 20 18410288077784341436
12251169 10 18408877464996574400
13140716 1 18410295774587457585
13221675 6 18410292497348036270
13380535 76 18411980277830171214
13897977 150 18410290311362663461
14144814 61 18410573963703027544
14325111 11 18410573985262428801
15196674 1 18410573972266549255
15219456 202 18409729568901080505
15309172 13 18411708677246842995
15442244 35 18267304227254914960
15536298 74 18343019991099661280
15775835 57 18408327665747768612
16945 1 18266740362362683172
17802600 8 18408879620574479605
17804303 29 18337397045569497470
18186145 218 18342743979015552005
193761 8 18122625217189144422
200 152 18131058326009962821
20510252 161 18272371979384696281
20645477 70 18339919325528640823
21267235 1 18411146826488784951
21501502 16 18339920536334761214
22094290 62 18410009944571787744
221490 88 18336837462870657074
22854114 111 18409449193462436312
2334 1 18410575110570188645
23402539 116 18343290462074754334
23402655 69 18341608175156874101
23463225 33 18408603626055003948
23559900 14 18272087185110090538
238 59 15659682449323038349
2748010 2 18409168800880644973
335352 9 18050567339709632221
350125 39 18410016520051147585
474 4 17314517126543507620
5104073 3 18410575080405074849
528886 8 18411132498435414835
53812653 166 18341608205173970936
69090 78 18341326760267390399
7364860 26 18342176687367204520
7832392 63 17981046306181010361
8809292 202 18261117365456780067
9709674 26 18412268362740678886

>  <PUBCHEM_SHAPE_MULTIPOLES>  (1) 
319.31
6.25
2.45
0.61
1.37
0.05
0
-1.14
0
-0.75
0
0
-0.01
0

>  <PUBCHEM_SHAPE_SELFOVERLAP>  (1) 
722.409

>  <PUBCHEM_SHAPE_VOLUME>  (1) 
167.4

>  <PUBCHEM_COORDINATE_TYPE>  (1) 
2
5
10

$$$$
