19091
     RDKit          3D

 14 13  0  0  0  0  0  0  0  0999 V2000
    2.0983   -0.6072   -0.0291 S   0  0  0  0  0  0  0  0  0  0  0  0
   -2.0851    0.6080   -0.0298 S   0  0  0  0  0  0  0  0  0  0  0  0
    2.0908   -1.3139    1.2408 O   0  0  0  0  0  0  0  0  0  0  0  0
    2.1714   -1.3398   -1.2821 O   0  0  0  0  0  0  0  0  0  0  0  0
   -2.1151    1.3606    1.2130 O   0  0  0  0  0  0  0  0  0  0  0  0
   -2.1624    1.2918   -1.3098 O   0  0  0  0  0  0  0  0  0  0  0  0
    0.6392    0.4081   -0.0862 C   0  0  0  0  0  0  0  0  0  0  0  0
   -0.6384   -0.4024   -0.0294 C   0  0  0  0  0  0  0  0  0  0  0  0
    3.4132    0.5693    0.0008 C   0  0  0  0  0  0  0  0  0  0  0  0
   -3.4124   -0.5742    0.0272 C   0  0  0  0  0  0  0  0  0  0  0  0
    4.7684   -0.1165    0.0511 C   0  0  0  0  0  0  0  0  0  0  0  0
   -4.7671    0.1144    0.0339 C   0  0  0  0  0  0  0  0  0  0  0  0
    5.9017    0.8946    0.0969 C   0  0  0  0  0  0  0  0  0  0  0  0
   -5.9026   -0.8929    0.1026 C   0  0  0  0  0  0  0  0  0  0  0  0
  1  3  2  0
  1  4  2  0
  1  7  1  0
  1  9  1  0
  2  5  2  0
  2  6  2  0
  2  8  1  0
  2 10  1  0
  7  8  1  0
  9 11  1  0
 10 12  1  0
 11 13  1  0
 12 14  1  0
M  END
>  <PUBCHEM_COMPOUND_CID>  (1) 
19091

>  <PUBCHEM_CONFORMER_RMSD>  (1) 
0.8

>  <PUBCHEM_CONFORMER_DIVERSEORDER>  (1) 
1
31
35
41
37
29
40
18
19
33
26
42
28
43
10
17
12
22
27
34
30
9
32
25
13
38
2
39
3
8
15
20
5
36
16
23
21
6
7
24
4
11
14

>  <PUBCHEM_MMFF94_PARTIAL_CHARGES>  (1) 
10
1 1.09
10 0.11
2 1.09
3 -0.65
4 -0.65
5 -0.65
6 -0.65
7 0.11
8 0.11
9 0.11

>  <PUBCHEM_EFFECTIVE_ROTOR_COUNT>  (1) 
7

>  <PUBCHEM_PHARMACOPHORE_FEATURES>  (1) 
6
1 13 hydrophobe
1 14 hydrophobe
1 3 acceptor
1 4 acceptor
1 5 acceptor
1 6 acceptor

>  <PUBCHEM_HEAVY_ATOM_COUNT>  (1) 
14

>  <PUBCHEM_ATOM_DEF_STEREO_COUNT>  (1) 
0

>  <PUBCHEM_ATOM_UDEF_STEREO_COUNT>  (1) 
0

>  <PUBCHEM_BOND_DEF_STEREO_COUNT>  (1) 
0

>  <PUBCHEM_BOND_UDEF_STEREO_COUNT>  (1) 
0

>  <PUBCHEM_ISOTOPIC_ATOM_COUNT>  (1) 
0

>  <PUBCHEM_COMPONENT_COUNT>  (1) 
1

>  <PUBCHEM_CACTVS_TAUTO_COUNT>  (1) 
1

>  <PUBCHEM_CONFORMER_ID>  (1) 
00004A9300000001

>  <PUBCHEM_MMFF94_ENERGY>  (1) 
0.2711

>  <PUBCHEM_FEATURE_SELFOVERLAP>  (1) 
30.482

>  <PUBCHEM_SHAPE_FINGERPRINT>  (1) 
124424 183 10881403123168616278
12815109 37 17530963596557126359
12916748 109 17918278653975227952
12932764 1 15697423438958297127
13533116 47 15647318728693965728
14123238 8 18410575088958046214
1420 363 18410017645195136763
14251718 22 18411982472663629731
15531645 54 9007064564598257458
17834072 33 18273214222297082316
17834076 25 17385722512774488667
187816 3 15574712504650756941
19489759 90 15574709197167236685
200 152 18408319991031574785
20279233 1 16732991902911312259
20645477 70 18059863805882677686
20681677 155 13686291387770972428
22485316 2 18187643588031900743
23402539 116 13334732462243934139
23557571 272 18334013860954518068
23559900 14 13190349009972408005
42788 4 18410855468950269936
4325135 7 18410574010926536463
58051976 378 18131073740030487710

>  <PUBCHEM_SHAPE_MULTIPOLES>  (1) 
272.34
12.9
1.24
0.95
0.01
0
0.04
-0.01
-0.58
0
0
0
0
0.1

>  <PUBCHEM_SHAPE_SELFOVERLAP>  (1) 
483.491

>  <PUBCHEM_SHAPE_VOLUME>  (1) 
177.3

>  <PUBCHEM_COORDINATE_TYPE>  (1) 
2
5
10

$$$$
