19096
     RDKit          3D

 30 32  0  0  0  0  0  0  0  0999 V2000
    2.1393   -4.1753   -0.0217 S   0  0  0  0  0  0  0  0  0  0  0  0
    4.5119    3.3378   -0.0475 S   0  0  0  0  0  0  0  0  0  0  0  0
   -0.5704   -2.9725    0.3858 O   0  0  0  0  0  0  0  0  0  0  0  0
    1.5185   -4.6592   -1.4537 O   0  0  0  0  0  0  0  0  0  0  0  0
    4.6191    3.6919   -1.6401 O   0  0  0  0  0  0  0  0  0  0  0  0
    3.5856   -4.2937   -0.1220 O   0  0  0  0  0  0  0  0  0  0  0  0
    1.4092   -4.8486    1.0398 O   0  0  0  0  0  0  0  0  0  0  0  0
    4.0750    4.5506    0.6284 O   0  0  0  0  0  0  0  0  0  0  0  0
    5.7405    2.6684    0.3500 O   0  0  0  0  0  0  0  0  0  0  0  0
   -1.1940   -0.3049    0.5719 N   0  0  0  0  0  0  0  0  0  0  0  0
   -1.7513   -0.1431   -0.5365 N   0  0  0  0  0  0  0  0  0  0  0  0
    1.1639    0.2669    0.2781 C   0  0  0  0  0  0  0  0  0  0  0  0
    2.4988   -0.1605    0.0826 C   0  0  0  0  0  0  0  0  0  0  0  0
    0.1429   -0.6924    0.3775 C   0  0  0  0  0  0  0  0  0  0  0  0
    1.7467   -2.4744    0.0940 C   0  0  0  0  0  0  0  0  0  0  0  0
    2.7733   -1.5349   -0.0075 C   0  0  0  0  0  0  0  0  0  0  0  0
    0.4339   -2.0539    0.2858 C   0  0  0  0  0  0  0  0  0  0  0  0
    3.5194    0.7989   -0.0171 C   0  0  0  0  0  0  0  0  0  0  0  0
    3.2283    2.1602    0.0747 C   0  0  0  0  0  0  0  0  0  0  0  0
    0.8890    1.6412    0.3680 C   0  0  0  0  0  0  0  0  0  0  0  0
    1.9156    2.5806    0.2670 C   0  0  0  0  0  0  0  0  0  0  0  0
   -3.0883    0.2442   -0.3426 C   0  0  0  0  0  0  0  0  0  0  0  0
   -4.0959   -0.7117   -0.2448 C   0  0  0  0  0  0  0  0  0  0  0  0
   -4.7144    2.0020   -0.0566 C   0  0  0  0  0  0  0  0  0  0  0  0
   -5.7267    1.0475    0.0417 C   0  0  0  0  0  0  0  0  0  0  0  0
   -3.3926    1.5997   -0.2489 C   0  0  0  0  0  0  0  0  0  0  0  0
   -5.4176   -0.3093   -0.0526 C   0  0  0  0  0  0  0  0  0  0  0  0
   -3.7894   -2.1704   -0.3426 C   0  0  0  0  0  0  0  0  0  0  0  0
   -5.0216    3.4604    0.0411 C   0  0  0  0  0  0  0  0  0  0  0  0
   -7.1489    1.4546    0.2477 C   0  0  0  0  0  0  0  0  0  0  0  0
  1  4  1  0
  1  6  2  0
  1  7  2  0
  1 15  1  0
  2  5  1  0
  2  8  2  0
  2  9  2  0
  2 19  1  0
  3 17  1  0
 10 11  2  0
 10 14  1  0
 11 22  1  0
 12 13  2  0
 12 14  1  0
 12 20  1  0
 13 16  1  0
 13 18  1  0
 14 17  2  0
 15 16  2  0
 15 17  1  0
 18 19  2  0
 19 21  1  0
 20 21  2  0
 22 23  2  0
 22 26  1  0
 23 27  1  0
 23 28  1  0
 24 25  1  0
 24 26  2  0
 24 29  1  0
 25 27  2  0
 25 30  1  0
M  END
>  <PUBCHEM_COMPOUND_CID>  (1) 
19096

>  <PUBCHEM_CONFORMER_RMSD>  (1) 
0.8

>  <PUBCHEM_CONFORMER_DIVERSEORDER>  (1) 
1
7
2
3
5
6
4

>  <PUBCHEM_MMFF94_PARTIAL_CHARGES>  (1) 
37
1 1.49
10 -0.18
11 -0.18
14 0.18
15 -0.01
16 -0.15
17 0.08
18 -0.15
19 -0.01
2 1.49
20 -0.15
21 -0.15
22 0.18
23 -0.14
24 -0.14
25 -0.14
26 -0.15
27 -0.15
28 0.14
29 0.14
3 -0.53
30 0.14
31 0.15
32 0.15
33 0.15
34 0.15
35 0.15
36 0.15
4 -0.68
46 0.45
47 0.5
48 0.5
5 -0.68
6 -0.65
7 -0.65
8 -0.65
9 -0.65

>  <PUBCHEM_EFFECTIVE_ROTOR_COUNT>  (1) 
4

>  <PUBCHEM_PHARMACOPHORE_FEATURES>  (1) 
12
1 3 donor
1 4 acceptor
1 5 acceptor
1 6 acceptor
1 7 acceptor
1 8 acceptor
1 9 acceptor
4 1 4 6 7 anion
4 2 5 8 9 anion
6 12 13 14 15 16 17 rings
6 12 13 18 19 20 21 rings
6 22 23 24 25 26 27 rings

>  <PUBCHEM_HEAVY_ATOM_COUNT>  (1) 
30

>  <PUBCHEM_ATOM_DEF_STEREO_COUNT>  (1) 
0

>  <PUBCHEM_ATOM_UDEF_STEREO_COUNT>  (1) 
0

>  <PUBCHEM_BOND_DEF_STEREO_COUNT>  (1) 
0

>  <PUBCHEM_BOND_UDEF_STEREO_COUNT>  (1) 
0

>  <PUBCHEM_ISOTOPIC_ATOM_COUNT>  (1) 
0

>  <PUBCHEM_COMPONENT_COUNT>  (1) 
1

>  <PUBCHEM_CACTVS_TAUTO_COUNT>  (1) 
3

>  <PUBCHEM_CONFORMER_ID>  (1) 
00004A9800000001

>  <PUBCHEM_MMFF94_ENERGY>  (1) 
71.5307

>  <PUBCHEM_FEATURE_SELFOVERLAP>  (1) 
61.038

>  <PUBCHEM_SHAPE_FINGERPRINT>  (1) 
10050765 1 18410854335886343587
10411042 1 17834394523574570794
10483366 6 18338812113657538510
10595046 47 18342171168761477677
10675989 125 18412266116420055328
10721379 63 18269568147608760414
11386260 185 17979058406855254749
12107183 9 17766001593597478257
12293681 160 17846224422485672288
12730499 353 18409176519116146169
12788726 201 17274831203796081921
13009979 54 17485648152610552395
13590594 115 17690288109726166760
13757389 114 17831312953279987948
13785724 45 17695635047957740383
138480 1 18194680359138376002
13955234 65 18337110068697677851
14790565 3 18266458887634321088
14849402 71 18336267834395889402
15081414 286 18123746461515026978
15250474 111 18200857536171245039
15320467 1 18410854365466701521
15664445 248 18128546955358124238
15927050 60 18268427005322686742
16087824 20 17186158665695741225
16992752 21 17545888131650853166
16993438 75 17901671784367047819
17844677 252 18196095443968234609
17980427 26 18340192055841154590
18681886 176 18124869067108925899
19319366 153 18343297097920987445
19427546 62 18408886273563334122
20286276 3 18410858720752709611
21033648 144 18041265673423786229
21033648 29 18126277786449060056
21065198 57 18338796694392506011
21133410 127 18113333107159164845
23559900 14 18267860588871364339
23929065 36 17263542801264872256
244849 19 17969245377113972411
245318 6 17388834250914839181
24771293 8 18127667410934138970
24771750 20 18337404780948360838
3411729 13 18335136488106473225
38695281 34 18339921619035739378
4058900 60 18335429001502575392
4073 2 18334298695603170859
4516262 110 18410567410317014693
5104073 3 18259985968592899985
5219985 13 18266458883228746660
550186 72 16321463757790795728
6058803 2 18200305521251375343
6287921 2 18187651292987160557
6443956 14 18122065299456650254
6695519 79 18055651735180616411
6700243 42 16681801124715124068
77188 2 17906451031053961302
9658208 31 18054225707639412368
9709674 26 18409730626265408323
9981440 41 18263925616885334859

>  <PUBCHEM_SHAPE_MULTIPOLES>  (1) 
574.04
13.3
6.7
0.81
17.52
3.79
-0.15
-12.73
-0.5
-10.74
-0.33
-0.43
0.07
-0.34

>  <PUBCHEM_SHAPE_SELFOVERLAP>  (1) 
1232.094

>  <PUBCHEM_SHAPE_VOLUME>  (1) 
320.5

>  <PUBCHEM_COORDINATE_TYPE>  (1) 
2
5
10

$$$$
