19090
     RDKit          3D

 25 28  0  0  1  0  0  0  0  0999 V2000
   -3.5071    0.0277    1.9266 O   0  0  0  0  0  0  0  0  0  0  0  0
   -5.7966    0.0117   -0.3950 O   0  0  0  0  0  0  0  0  0  0  0  0
    6.1640    0.6776    0.8326 O   0  0  0  0  0  0  0  0  0  0  0  0
   -2.3031    0.3025   -0.1935 C   0  0  0  0  0  0  0  0  0  0  0  0
   -1.3808   -0.8995    0.1426 C   0  0  0  0  0  0  0  0  0  0  0  0
    0.0054   -0.7742   -0.5062 C   0  0  0  0  0  0  0  0  0  0  0  0
    0.6812    0.5110    0.0536 C   0  0  0  0  0  0  0  0  0  0  0  0
   -3.5991   -0.1636    0.5178 C   0  0  0  0  0  0  0  0  0  0  0  0
   -1.6375    1.5770    0.3536 C   0  0  0  0  0  0  0  0  0  0  0  0
   -2.2520   -2.1100   -0.1877 C   0  0  0  0  0  0  0  0  0  0  0  0
    2.1696    0.6311   -0.4295 C   0  0  0  0  0  0  0  0  0  0  0  0
   -0.2048    1.7588   -0.1867 C   0  0  0  0  0  0  0  0  0  0  0  0
   -3.6784   -1.6749    0.2074 C   0  0  0  0  0  0  0  0  0  0  0  0
   -2.5632    0.4751   -1.7172 C   0  0  0  0  0  0  0  0  0  0  0  0
    0.8845   -1.9732   -0.2814 C   0  0  0  0  0  0  0  0  0  0  0  0
    2.9383   -0.6340    0.0137 C   0  0  0  0  0  0  0  0  0  0  0  0
    2.8095    1.8875    0.2233 C   0  0  0  0  0  0  0  0  0  0  0  0
    2.2073   -1.9168   -0.0338 C   0  0  0  0  0  0  0  0  0  0  0  0
   -4.8368    0.5824    0.1207 C   0  0  0  0  0  0  0  0  0  0  0  0
    2.2662    0.7596   -1.9686 C   0  0  0  0  0  0  0  0  0  0  0  0
    4.3166    1.9666    0.0398 C   0  0  0  0  0  0  0  0  0  0  0  0
    4.2155   -0.5731    0.4383 C   0  0  0  0  0  0  0  0  0  0  0  0
    4.9849    0.6943    0.4820 C   0  0  0  0  0  0  0  0  0  0  0  0
    2.9649   -3.2071    0.1614 C   0  0  0  0  0  0  0  0  0  0  0  0
   -4.8486    2.0635    0.3862 C   0  0  0  0  0  0  0  0  0  0  0  0
  1  8  1  0
  2 19  2  0
  3 23  2  0
  4  5  1  0
  4  8  1  0
  4  9  1  0
  4 14  1  0
  5  6  1  0
  5 10  1  0
  6  7  1  0
  6 15  1  0
  7 11  1  0
  7 12  1  0
  8 13  1  0
  8 19  1  0
  9 12  1  0
 10 13  1  0
 11 16  1  0
 11 17  1  0
 11 20  1  0
 15 18  2  0
 16 18  1  0
 16 22  2  0
 17 21  1  0
 18 24  1  0
 19 25  1  0
 21 23  1  0
 22 23  1  0
M  END
>  <PUBCHEM_COMPOUND_CID>  (1) 
19090

>  <PUBCHEM_CONFORMER_RMSD>  (1) 
0.6

>  <PUBCHEM_CONFORMER_DIVERSEORDER>  (1) 
1
2

>  <PUBCHEM_MMFF94_PARTIAL_CHARGES>  (1) 
18
1 -0.68
11 0.14
15 -0.29
16 -0.14
18 -0.14
19 0.45
2 -0.57
21 0.06
22 -0.14
23 0.49
24 0.14
25 0.06
3 -0.57
40 0.15
46 0.4
49 0.15
6 0.14
8 0.34

>  <PUBCHEM_EFFECTIVE_ROTOR_COUNT>  (1) 
2.4

>  <PUBCHEM_PHARMACOPHORE_FEATURES>  (1) 
8
1 1 acceptor
1 1 donor
1 2 acceptor
1 3 acceptor
5 4 5 8 10 13 rings
6 11 16 17 21 22 23 rings
6 4 5 6 7 9 12 rings
6 6 7 11 15 16 18 rings

>  <PUBCHEM_HEAVY_ATOM_COUNT>  (1) 
25

>  <PUBCHEM_ATOM_DEF_STEREO_COUNT>  (1) 
6

>  <PUBCHEM_ATOM_UDEF_STEREO_COUNT>  (1) 
0

>  <PUBCHEM_BOND_DEF_STEREO_COUNT>  (1) 
0

>  <PUBCHEM_BOND_UDEF_STEREO_COUNT>  (1) 
0

>  <PUBCHEM_ISOTOPIC_ATOM_COUNT>  (1) 
0

>  <PUBCHEM_COMPONENT_COUNT>  (1) 
1

>  <PUBCHEM_CACTVS_TAUTO_COUNT>  (1) 
4

>  <PUBCHEM_CONFORMER_ID>  (1) 
00004A9200000001

>  <PUBCHEM_MMFF94_ENERGY>  (1) 
81.1071

>  <PUBCHEM_FEATURE_SELFOVERLAP>  (1) 
40.69

>  <PUBCHEM_SHAPE_FINGERPRINT>  (1) 
10 15 18260545667103356856
10366900 7 16559030489064131419
10411042 1 17691124838429020254
10616163 171 18339927116172261927
10906281 52 18041577900640668356
11089746 13 17775279486711709368
11578080 2 17024574596091640742
12107183 9 17765438643152875001
12236239 1 17703788102791892151
12403814 3 17822007631897208261
12422481 6 18187920656150684588
12633257 1 16950564423641439066
12788726 201 17274546412455402017
13073987 5 18340772551120886937
13140716 1 18195808689806973072
13224815 77 18410577300887419654
13533116 47 18271803484886893363
13583140 156 18130786806493020699
13675066 3 18113343007073247507
14178342 30 18264491852499513755
14223421 5 18337106753256978278
14341114 176 18410859832900845410
14790565 3 18120944055906468148
15163728 17 15193903150671805281
15196674 1 18411138060428709906
15375358 24 18408325484183937699
15788980 27 17749388199717072640
1601671 61 18409448094515103108
16945 1 18411135793034104950
17349148 13 17968095356639080904
1813 80 16950288368866087742
19591789 44 18123467452023565570
19784866 9 18411981373394647274
200 152 18273491286896203007
20157964 124 18411697648097848455
20511986 3 18200859713233632787
20715895 44 18193835934467168037
21033648 29 18188469342207070876
21267235 1 18410865351490981799
21421861 104 18042678421533135546
21452121 103 18411136901072357250
21859007 373 17315623011944955829
22182313 1 17895465908679341934
23402539 116 18201994477826620892
23559900 14 18341331072546801086
26918003 58 17822010925593876617
296302 2 18202846547640238463
335352 9 18411418406567539382
34797466 226 15554169280182942265
34934 24 18412822482341306455
350125 39 18409169875129014116
3545911 37 18409449184766798814
3633792 109 18340198584655615493
3680242 22 18336263440644248682
392239 28 18272652398100074256
4340502 62 18409453596120445347
474 4 18411701019298912240
5104073 3 18336273336502236387
59755656 215 18410297982649086038
633830 44 18201721812228845684
7364860 26 18341334397093977550
9709674 26 18409173194627401163

>  <PUBCHEM_SHAPE_MULTIPOLES>  (1) 
496.88
11.27
2.56
1.09
0.68
1.15
-0.27
-3.13
2.41
-1.17
0.12
0.23
-0.21
-0.08

>  <PUBCHEM_SHAPE_SELFOVERLAP>  (1) 
1073.998

>  <PUBCHEM_SHAPE_VOLUME>  (1) 
271.6

>  <PUBCHEM_COORDINATE_TYPE>  (1) 
2
5
10

$$$$
