19098
     RDKit          3D

 28 31  0  0  0  0  0  0  0  0999 V2000
    5.5076    1.1306    0.2325 S   0  0  0  0  0  0  0  0  0  0  0  0
    0.6949    2.5425   -0.4041 O   0  0  0  0  0  0  0  0  0  0  0  0
    6.2354    0.7106   -1.1665 O   0  0  0  0  0  0  0  0  0  0  0  0
    5.5787    2.5771    0.3382 O   0  0  0  0  0  0  0  0  0  0  0  0
    6.0166    0.2752    1.2886 O   0  0  0  0  0  0  0  0  0  0  0  0
   -2.6031    2.0141    0.3474 O   0  0  0  0  0  0  0  0  0  0  0  0
   -0.2729   -0.0432   -0.5318 N   0  0  0  0  0  0  0  0  0  0  0  0
   -0.8452   -0.1105    0.5806 N   0  0  0  0  0  0  0  0  0  0  0  0
    3.3762   -0.6340   -0.0488 C   0  0  0  0  0  0  0  0  0  0  0  0
    1.9976   -0.8977   -0.2309 C   0  0  0  0  0  0  0  0  0  0  0  0
    3.8191    0.6976    0.0090 C   0  0  0  0  0  0  0  0  0  0  0  0
    1.1030    0.1782   -0.3494 C   0  0  0  0  0  0  0  0  0  0  0  0
    2.9156    1.7541   -0.1106 C   0  0  0  0  0  0  0  0  0  0  0  0
    1.5600    1.4948   -0.2893 C   0  0  0  0  0  0  0  0  0  0  0  0
    4.2714   -1.7096    0.0697 C   0  0  0  0  0  0  0  0  0  0  0  0
    1.5551   -2.2293   -0.2889 C   0  0  0  0  0  0  0  0  0  0  0  0
   -4.4761    0.5203    0.1032 C   0  0  0  0  0  0  0  0  0  0  0  0
   -4.9605   -0.8079    0.0395 C   0  0  0  0  0  0  0  0  0  0  0  0
    3.8141   -3.0262    0.0100 C   0  0  0  0  0  0  0  0  0  0  0  0
    2.4585   -3.2856   -0.1691 C   0  0  0  0  0  0  0  0  0  0  0  0
   -3.1009    0.7418    0.2834 C   0  0  0  0  0  0  0  0  0  0  0  0
   -2.2162   -0.3308    0.3993 C   0  0  0  0  0  0  0  0  0  0  0  0
   -4.0556   -1.8754    0.1576 C   0  0  0  0  0  0  0  0  0  0  0  0
   -2.6926   -1.6369    0.3362 C   0  0  0  0  0  0  0  0  0  0  0  0
   -5.3809    1.5878   -0.0152 C   0  0  0  0  0  0  0  0  0  0  0  0
   -6.3355   -1.0296   -0.1408 C   0  0  0  0  0  0  0  0  0  0  0  0
   -6.7439    1.3491   -0.1936 C   0  0  0  0  0  0  0  0  0  0  0  0
   -7.2204    0.0429   -0.2561 C   0  0  0  0  0  0  0  0  0  0  0  0
  1  3  1  0
  1  4  2  0
  1  5  2  0
  1 11  1  0
  2 14  1  0
  6 21  1  0
  7  8  2  0
  7 12  1  0
  8 22  1  0
  9 10  1  0
  9 11  2  0
  9 15  1  0
 10 12  2  0
 10 16  1  0
 11 13  1  0
 12 14  1  0
 13 14  2  0
 15 19  2  0
 16 20  2  0
 17 18  1  0
 17 21  2  0
 17 25  1  0
 18 23  2  0
 18 26  1  0
 19 20  1  0
 21 22  1  0
 22 24  2  0
 23 24  1  0
 25 27  2  0
 26 28  2  0
 27 28  1  0
M  END
>  <PUBCHEM_COMPOUND_CID>  (1) 
19098

>  <PUBCHEM_CONFORMER_RMSD>  (1) 
0.8

>  <PUBCHEM_CONFORMER_DIVERSEORDER>  (1) 
1
4
6
3
2
5

>  <PUBCHEM_MMFF94_PARTIAL_CHARGES>  (1) 
38
1 1.49
11 -0.01
12 0.18
13 -0.15
14 0.08
15 -0.15
16 -0.15
19 -0.15
2 -0.53
20 -0.15
21 0.08
22 0.18
23 -0.15
24 -0.15
25 -0.15
26 -0.15
27 -0.15
28 -0.15
29 0.15
3 -0.68
30 0.15
31 0.15
32 0.15
33 0.15
34 0.15
35 0.15
36 0.15
37 0.15
38 0.15
39 0.15
4 -0.65
40 0.45
41 0.5
42 0.45
5 -0.65
6 -0.53
7 -0.18
8 -0.18

>  <PUBCHEM_EFFECTIVE_ROTOR_COUNT>  (1) 
3

>  <PUBCHEM_PHARMACOPHORE_FEATURES>  (1) 
10
1 2 donor
1 3 acceptor
1 4 acceptor
1 5 acceptor
1 6 donor
4 1 3 4 5 anion
6 17 18 21 22 23 24 rings
6 17 18 25 26 27 28 rings
6 9 10 11 12 13 14 rings
6 9 10 15 16 19 20 rings

>  <PUBCHEM_HEAVY_ATOM_COUNT>  (1) 
28

>  <PUBCHEM_ATOM_DEF_STEREO_COUNT>  (1) 
0

>  <PUBCHEM_ATOM_UDEF_STEREO_COUNT>  (1) 
0

>  <PUBCHEM_BOND_DEF_STEREO_COUNT>  (1) 
0

>  <PUBCHEM_BOND_UDEF_STEREO_COUNT>  (1) 
0

>  <PUBCHEM_ISOTOPIC_ATOM_COUNT>  (1) 
0

>  <PUBCHEM_COMPONENT_COUNT>  (1) 
1

>  <PUBCHEM_CACTVS_TAUTO_COUNT>  (1) 
8

>  <PUBCHEM_CONFORMER_ID>  (1) 
00004A9A00000001

>  <PUBCHEM_MMFF94_ENERGY>  (1) 
85.3583

>  <PUBCHEM_FEATURE_SELFOVERLAP>  (1) 
50.855

>  <PUBCHEM_SHAPE_FINGERPRINT>  (1) 
10050765 1 18194683662053038420
10411042 1 17978792303914915110
10595046 47 18342737412764644521
10835480 77 18410286991812139469
10906281 52 18041295334510168924
11719270 70 18412541012060678194
12107183 9 17765159362804186817
12236239 1 17989487415876807615
12516196 113 18272651251111839961
12616971 3 11891339772313445107
12788726 201 17346606227465746721
12838862 33 18340471353359187512
13073987 5 18411704258142109859
13383665 225 17823434711706270180
13402501 40 18335138695930672709
13533116 47 18271523113511004059
14341114 176 18411706460954066727
14790565 3 18048603908981424556
15183329 4 18409731738445042985
15196674 1 18410576163248704267
1577012 14 18272089362769467857
17844677 252 18340212873700436337
17857418 61 18411980243865935323
1813 80 17023190396292070620
18335252 98 18336551607903212347
18608769 82 18263649627526658803
18681886 176 18340767169110406488
19427546 62 18336266855386127290
20157964 124 18411982446872889291
20511986 3 18272356573553354343
21033648 29 18128805533953714440
21065198 48 18200600202640643769
21130935 74 18342177731155469299
21279426 13 18263077709348830661
21298829 104 18413111637094283801
21315759 40 13623530165179029417
21859007 373 17532357674628464813
22224240 67 18342169012518921360
23559900 14 18411133675815740137
239999 70 18201727224009107302
255183 451 17984992488627990446
3004659 81 18261957349237844378
335352 9 18411423921759033270
3411729 13 18408602574437096890
34797466 226 17775011192936525500
350125 39 18410855468966347621
3545911 37 18410857676774580073
3633792 109 18337666413814154949
404807 14 17262731975848929615
4073 2 18113905999913629859
4093350 32 17489593324579238774
4340502 62 18343578564845489386
5104073 3 18337399253578496099
513532 50 18201731630534614694
59755656 215 18410577292518992308
67856867 119 18337953518897307421
9709674 26 18335428988797612755
9981440 41 17687186804410870545
9995097 60 18408884036075017109

>  <PUBCHEM_SHAPE_MULTIPOLES>  (1) 
540.77
17.73
2.96
0.74
13.26
1.14
0.02
-3.94
0.02
-3.05
-0.07
-0.45
-0.04
0.21

>  <PUBCHEM_SHAPE_SELFOVERLAP>  (1) 
1205.444

>  <PUBCHEM_SHAPE_VOLUME>  (1) 
288.2

>  <PUBCHEM_COORDINATE_TYPE>  (1) 
2
5
10

$$$$
