19099
     RDKit          3D

 18 20  0  0  0  0  0  0  0  0999 V2000
    1.0437   -2.9339   -0.7827 O   0  0  0  0  0  0  0  0  0  0  0  0
    0.0062   -0.8981   -0.2089 N   0  0  0  0  0  0  0  0  0  0  0  0
   -1.2158   -2.8463   -0.7929 N   0  0  0  0  0  0  0  0  0  0  0  0
    0.5197    2.0787   -1.0903 C   0  0  0  0  0  0  0  0  0  0  0  0
   -0.7365    1.4589   -1.6787 C   0  0  0  0  0  0  0  0  0  0  0  0
    1.4527    1.1776   -0.3068 C   0  0  0  0  0  0  0  0  0  0  0  0
   -1.5988    0.9327   -0.5719 C   0  0  0  0  0  0  0  0  0  0  0  0
    1.2310   -0.1738    0.0479 C   0  0  0  0  0  0  0  0  0  0  0  0
   -1.2016   -0.2128    0.1294 C   0  0  0  0  0  0  0  0  0  0  0  0
    2.6801    1.7860    0.0507 C   0  0  0  0  0  0  0  0  0  0  0  0
   -2.7964    1.5758   -0.2285 C   0  0  0  0  0  0  0  0  0  0  0  0
    2.2611   -0.8514    0.7409 C   0  0  0  0  0  0  0  0  0  0  0  0
   -2.0144   -0.7059    1.1640 C   0  0  0  0  0  0  0  0  0  0  0  0
    0.0248   -2.2685   -0.5744 C   0  0  0  0  0  0  0  0  0  0  0  0
    3.6768    1.0919    0.7290 C   0  0  0  0  0  0  0  0  0  0  0  0
   -3.5950    1.0804    0.8017 C   0  0  0  0  0  0  0  0  0  0  0  0
    3.4664   -0.2315    1.0739 C   0  0  0  0  0  0  0  0  0  0  0  0
   -3.2041   -0.0598    1.4978 C   0  0  0  0  0  0  0  0  0  0  0  0
  1 14  2  0
  2  8  1  0
  2  9  1  0
  2 14  1  0
  3 14  1  0
  4  5  1  0
  4  6  1  0
  5  7  1  0
  6  8  2  0
  6 10  1  0
  7  9  2  0
  7 11  1  0
  8 12  1  0
  9 13  1  0
 10 15  2  0
 11 16  2  0
 12 17  2  0
 13 18  2  0
 15 17  1  0
 16 18  1  0
M  END
>  <PUBCHEM_COMPOUND_CID>  (1) 
19099

>  <PUBCHEM_CONFORMER_RMSD>  (1) 
0.6

>  <PUBCHEM_CONFORMER_DIVERSEORDER>  (1) 
2
4
1
3

>  <PUBCHEM_MMFF94_PARTIAL_CHARGES>  (1) 
28
1 -0.57
10 -0.15
11 -0.15
12 -0.15
13 -0.15
14 0.69
15 -0.15
16 -0.15
17 -0.15
18 -0.15
2 -0.29
23 0.15
24 0.15
25 0.15
26 0.15
27 0.15
28 0.15
29 0.15
3 -0.8
30 0.15
31 0.37
32 0.37
4 0.14
5 0.14
6 -0.14
7 -0.14
8 0.12
9 0.12

>  <PUBCHEM_EFFECTIVE_ROTOR_COUNT>  (1) 
1.6

>  <PUBCHEM_PHARMACOPHORE_FEATURES>  (1) 
5
1 1 acceptor
1 3 donor
6 6 8 10 12 15 17 rings
6 7 9 11 13 16 18 rings
7 2 4 5 6 7 8 9 rings

>  <PUBCHEM_HEAVY_ATOM_COUNT>  (1) 
18

>  <PUBCHEM_ATOM_DEF_STEREO_COUNT>  (1) 
0

>  <PUBCHEM_ATOM_UDEF_STEREO_COUNT>  (1) 
0

>  <PUBCHEM_BOND_DEF_STEREO_COUNT>  (1) 
0

>  <PUBCHEM_BOND_UDEF_STEREO_COUNT>  (1) 
0

>  <PUBCHEM_ISOTOPIC_ATOM_COUNT>  (1) 
0

>  <PUBCHEM_COMPONENT_COUNT>  (1) 
1

>  <PUBCHEM_CACTVS_TAUTO_COUNT>  (1) 
2

>  <PUBCHEM_CONFORMER_ID>  (1) 
00004A9B00000002

>  <PUBCHEM_MMFF94_ENERGY>  (1) 
91.9672

>  <PUBCHEM_FEATURE_SELFOVERLAP>  (1) 
25.394

>  <PUBCHEM_SHAPE_FINGERPRINT>  (1) 
10863032 1 15051733079521095388
11132069 177 18333729108991476857
11471102 22 18261678086221857008
11640471 11 17203041855786666721
12035758 1 18270120081277678826
12251169 10 18187088372871656593
12382932 28 18260831470921954369
12400797 245 17677625317908299923
12633257 1 18042123154843657721
12696612 119 18041007270732015757
13140716 1 18336258020448300856
13172582 1 18408040719141010824
14617773 55 17764307640550649196
14817 1 12643354722790901207
15309172 13 18412539903462912312
15502708 68 18341895130247960714
16945 1 18340489958798687869
19049666 15 17757550750856298149
20261772 1 18336833107620571946
20361792 2 12179847220815428939
20511035 2 18042137607514161509
20871998 184 18333444339690473805
21061003 4 17550962394443379463
21731228 192 18412545439628232354
22112679 90 17477220782420143463
23184049 59 18408039598122943704
23388829 49 17758675937666551556
23419403 2 17684360659794126535
23559900 14 17462577100062170150
2748010 2 17974842874472322492
3729539 64 17910709517330422790
427121 178 17414754031032980179
4340502 62 17988651783483254491
4663303 62 18125726686309498359
495365 180 18054774110148081825
568465 68 18412825754927161744
576247 118 17263022263480677799
6992083 37 18263919002704315660
7364860 26 18127137372549598155
81228 2 17978773937953580378
84936 31 17558830589729857663
90316 7 17168423762087743949
90525 40 18337392754744213966

>  <PUBCHEM_SHAPE_MULTIPOLES>  (1) 
354.6
5.43
2.69
1.31
0.65
1.62
0
-1.91
-2.95
0.16
1.26
-0.4
-0.02
0.11

>  <PUBCHEM_SHAPE_SELFOVERLAP>  (1) 
779.522

>  <PUBCHEM_SHAPE_VOLUME>  (1) 
187.3

>  <PUBCHEM_COORDINATE_TYPE>  (1) 
2
5
10

$$$$
