19109
     RDKit          3D

 17 17  0  0  1  0  0  0  0  0999 V2000
   -0.4669    1.7105   -1.6258 Cl  0  0  0  0  0  0  0  0  0  0  0  0
   -1.6850    2.6467    0.8358 Cl  0  0  0  0  0  0  0  0  0  0  0  0
    0.7944   -1.5174    2.0983 Cl  0  0  0  0  0  0  0  0  0  0  0  0
    1.3482    2.5609    0.7368 O   0  0  0  0  0  0  0  0  0  0  0  0
   -2.7333    0.0640   -0.3446 O   0  0  0  0  0  0  0  0  0  0  0  0
   -3.1186   -2.1324    0.2274 O   0  0  0  0  0  0  0  0  0  0  0  0
   -4.7010   -0.8917   -0.8879 N   0  0  0  0  0  0  0  0  0  0  0  0
    0.7270    1.2722    0.7894 C   0  0  0  0  0  0  0  0  0  0  0  0
   -0.6806    1.3266    0.1324 C   0  0  0  0  0  0  0  0  0  0  0  0
    1.6883    0.2450    0.2211 C   0  0  0  0  0  0  0  0  0  0  0  0
   -1.4396   -0.0053    0.2481 C   0  0  0  0  0  0  0  0  0  0  0  0
    1.7688   -1.0256    0.7613 C   0  0  0  0  0  0  0  0  0  0  0  0
    2.4752    0.6296   -0.8506 C   0  0  0  0  0  0  0  0  0  0  0  0
    2.6653   -1.9425    0.2127 C   0  0  0  0  0  0  0  0  0  0  0  0
    3.3717   -0.2875   -1.3993 C   0  0  0  0  0  0  0  0  0  0  0  0
    3.4668   -1.5734   -0.8676 C   0  0  0  0  0  0  0  0  0  0  0  0
   -3.4807   -1.0797   -0.2874 C   0  0  0  0  0  0  0  0  0  0  0  0
  1  9  1  0
  2  9  1  0
  3 12  1  0
  4  8  1  0
  5 11  1  0
  5 17  1  0
  6 17  2  0
  7 17  1  0
  8  9  1  0
  8 10  1  0
  9 11  1  0
 10 12  2  0
 10 13  1  0
 12 14  1  0
 13 15  2  0
 14 16  2  0
 15 16  1  0
M  END
>  <PUBCHEM_COMPOUND_CID>  (1) 
19109

>  <PUBCHEM_CONFORMER_RMSD>  (1) 
0.6

>  <PUBCHEM_CONFORMER_DIVERSEORDER>  (1) 
1
73
13
101
47
17
29
77
36
74
50
23
63
102
44
94
55
58
65
76
42
43
97
84
82
8
93
39
81
68
95
75
52
96
25
89
83
56
31
100
103
91
32
99
88
40
92
64
27
41
18
90
3
4
60
6
22
35
78
5
16
98
33
86
20
10
85
53
7
62
67
21
79
72
12
54
46
45
38
28
61
66
57
14
9
24
48
2
71
87
34
69
59
26
51
30
11
70
49
19
80
37
15

>  <PUBCHEM_MMFF94_PARTIAL_CHARGES>  (1) 
24
1 -0.29
10 -0.14
11 0.28
12 0.18
13 -0.15
14 -0.15
15 -0.15
16 -0.15
17 0.78
2 -0.29
21 0.15
22 0.4
23 0.15
24 0.15
25 0.15
26 0.37
27 0.37
3 -0.18
4 -0.68
5 -0.43
6 -0.57
7 -0.8
8 0.42
9 0.58

>  <PUBCHEM_EFFECTIVE_ROTOR_COUNT>  (1) 
5

>  <PUBCHEM_PHARMACOPHORE_FEATURES>  (1) 
5
1 4 acceptor
1 4 donor
1 6 acceptor
1 7 donor
6 10 12 13 14 15 16 rings

>  <PUBCHEM_HEAVY_ATOM_COUNT>  (1) 
17

>  <PUBCHEM_ATOM_DEF_STEREO_COUNT>  (1) 
0

>  <PUBCHEM_ATOM_UDEF_STEREO_COUNT>  (1) 
1

>  <PUBCHEM_BOND_DEF_STEREO_COUNT>  (1) 
0

>  <PUBCHEM_BOND_UDEF_STEREO_COUNT>  (1) 
0

>  <PUBCHEM_ISOTOPIC_ATOM_COUNT>  (1) 
0

>  <PUBCHEM_COMPONENT_COUNT>  (1) 
1

>  <PUBCHEM_CACTVS_TAUTO_COUNT>  (1) 
2

>  <PUBCHEM_CONFORMER_ID>  (1) 
00004AA500000001

>  <PUBCHEM_MMFF94_ENERGY>  (1) 
43.0714

>  <PUBCHEM_FEATURE_SELFOVERLAP>  (1) 
25.371

>  <PUBCHEM_SHAPE_FINGERPRINT>  (1) 
11578080 2 17970604343311109140
11725454 13 14780114241411823854
12400797 292 18114187440603974150
12553582 1 18412550894505911987
12616999 72 16660638579285606323
13538477 17 18123755244807803296
13571099 52 12252192887079214340
14115302 16 18051979108624693532
14178342 30 18123737674206936864
14252887 29 18129658741785543443
15061688 2 14635161186910489766
15210252 30 16732977626714509693
15279307 12 17902522479922609472
16752209 62 18195796389474123009
16945 1 18339092582804754104
192875 21 17022896810035241802
19766037 51 18411982464100309335
20231682 184 13839983334920377626
20291156 8 18341334474218649119
20645477 70 18198330939838196615
20871999 31 18340209570322037732
21524375 3 9295286127746187741
21634736 98 18335427876189696726
21731516 1 18060409218545151711
23379529 103 18200613452731810334
23382010 3 17604442897879621282
23402539 116 17458922426938316814
23557571 272 18129654189405293290
23598291 2 17753052696116057290
2748010 2 17614303468602626456
2871803 45 18260266347603993279
3060560 45 16950557839282800046
3323516 105 18189058766628717347
449060 23 18411707560259927239
568465 68 16486688044305483254
6786 2 15905985702480292538
7364860 26 18129377270898363904
94968 8 18410574023911963807

>  <PUBCHEM_SHAPE_MULTIPOLES>  (1) 
332.87
6.3
2.7
1.49
3.6
0.73
-0.18
-4.11
2.75
0.99
-0.6
-0.46
0
-0.58

>  <PUBCHEM_SHAPE_SELFOVERLAP>  (1) 
659.365

>  <PUBCHEM_SHAPE_VOLUME>  (1) 
198.1

>  <PUBCHEM_COORDINATE_TYPE>  (1) 
2
5
10

$$$$
