19107
     RDKit          3D

 15 15  0  0  0  0  0  0  0  0999 V2000
   -0.1728    2.0071   -0.7975 Cl  0  0  0  0  0  0  0  0  0  0  0  0
    1.7399   -0.2788   -0.9081 O   0  0  0  0  0  0  0  0  0  0  0  0
    2.2813    0.0953    1.3220 O   0  0  0  0  0  0  0  0  0  0  0  0
    3.8610    0.3889   -0.3515 N   0  0  0  0  0  0  0  0  0  0  0  0
   -2.9176    0.9858    0.1048 C   0  0  0  0  0  0  0  0  0  0  0  0
   -1.8116   -0.0129   -0.0147 C   0  0  0  0  0  0  0  0  0  0  0  0
   -3.4454    1.1049    1.5457 C   0  0  0  0  0  0  0  0  0  0  0  0
   -4.0810    0.6890   -0.8580 C   0  0  0  0  0  0  0  0  0  0  0  0
   -0.5282    0.3562   -0.4179 C   0  0  0  0  0  0  0  0  0  0  0  0
   -2.0909   -1.3451    0.2898 C   0  0  0  0  0  0  0  0  0  0  0  0
    0.4759   -0.6071   -0.5167 C   0  0  0  0  0  0  0  0  0  0  0  0
   -1.0870   -2.3083    0.1910 C   0  0  0  0  0  0  0  0  0  0  0  0
    0.1964   -1.9394   -0.2122 C   0  0  0  0  0  0  0  0  0  0  0  0
    2.6107    0.0743    0.1398 C   0  0  0  0  0  0  0  0  0  0  0  0
    4.9692    0.7902    0.4835 C   0  0  0  0  0  0  0  0  0  0  0  0
  1  9  1  0
  2 11  1  0
  2 14  1  0
  3 14  2  0
  4 14  1  0
  4 15  1  0
  5  6  1  0
  5  7  1  0
  5  8  1  0
  6  9  2  0
  6 10  1  0
  9 11  1  0
 10 12  2  0
 11 13  2  0
 12 13  1  0
M  END
>  <PUBCHEM_COMPOUND_CID>  (1) 
19107

>  <PUBCHEM_CONFORMER_RMSD>  (1) 
0.6

>  <PUBCHEM_CONFORMER_DIVERSEORDER>  (1) 
1
7
13
10
16
14
6
12
11
8
15
23
20
21
19
5
18
4
22
3
9
17
2

>  <PUBCHEM_MMFF94_PARTIAL_CHARGES>  (1) 
17
1 -0.18
10 -0.15
11 0.08
12 -0.15
13 -0.15
14 0.78
15 0.3
2 -0.23
23 0.15
24 0.15
25 0.15
26 0.37
3 -0.57
4 -0.73
5 0.14
6 -0.14
9 0.18

>  <PUBCHEM_EFFECTIVE_ROTOR_COUNT>  (1) 
4

>  <PUBCHEM_PHARMACOPHORE_FEATURES>  (1) 
4
1 3 acceptor
1 4 donor
3 5 7 8 hydrophobe
6 6 9 10 11 12 13 rings

>  <PUBCHEM_HEAVY_ATOM_COUNT>  (1) 
15

>  <PUBCHEM_ATOM_DEF_STEREO_COUNT>  (1) 
0

>  <PUBCHEM_ATOM_UDEF_STEREO_COUNT>  (1) 
0

>  <PUBCHEM_BOND_DEF_STEREO_COUNT>  (1) 
0

>  <PUBCHEM_BOND_UDEF_STEREO_COUNT>  (1) 
0

>  <PUBCHEM_ISOTOPIC_ATOM_COUNT>  (1) 
0

>  <PUBCHEM_COMPONENT_COUNT>  (1) 
1

>  <PUBCHEM_CACTVS_TAUTO_COUNT>  (1) 
2

>  <PUBCHEM_CONFORMER_ID>  (1) 
00004AA300000001

>  <PUBCHEM_MMFF94_ENERGY>  (1) 
39.4563

>  <PUBCHEM_FEATURE_SELFOVERLAP>  (1) 
20.297

>  <PUBCHEM_SHAPE_FINGERPRINT>  (1) 
11132069 177 18335421270445489028
11543360 7 15985095319164443165
11769659 78 13118299095684268577
12251169 10 18260551142658982244
12346645 44 18200316519934665801
12382932 28 18334580122501485803
124424 183 16949999223441841381
12491281 212 17131560435980005649
12500047 106 18412538847149039690
13140716 1 18263656223957900681
13172582 1 18260839193483772309
13214271 11 18340764939953509350
13380535 76 18411418393065686207
13675066 3 17312823762382048960
14897335 6 18410571764780388583
14993402 34 18335132107493103853
15219456 202 18202293493687340206
15309172 13 18334862692673686459
15375462 189 17530681035112199008
15775835 57 18334573534074381994
16945 1 18262531307682601197
17846911 113 18409444769651396316
18186145 218 18200040529615361503
200 152 11455892455566136520
204376 136 18408889520695532463
20510252 161 18270686492494355011
20645477 56 18408038520571501060
21501502 16 18046919443586210245
21524375 3 18271519814765286463
23402539 116 18341603876016040711
23419403 2 15966729261844318653
23493267 7 16952278429230631295
23500284 214 18272941509090533579
23557571 272 17632017567489223551
23559900 14 18341910575968437006
26918003 58 15719388430302631728
2748010 2 18264791890715586383
5104073 3 18336824295133638728
53812653 166 18341898476164549915
58807428 26 18334298634587606850
6333449 129 18342177790904741855
7364860 26 17983579602451822975
83771 10 11025800894275298167
90316 7 18041547109862231764

>  <PUBCHEM_SHAPE_MULTIPOLES>  (1) 
293.84
7.24
1.95
1.06
5.98
0.75
-0.26
-3.33
-1.37
-0.86
0.1
-0.41
-0.3
0.01

>  <PUBCHEM_SHAPE_SELFOVERLAP>  (1) 
592.855

>  <PUBCHEM_SHAPE_VOLUME>  (1) 
173.3

>  <PUBCHEM_COORDINATE_TYPE>  (1) 
2
5
10

$$$$
