19100
     RDKit          3D

 12 12  0  0  1  0  0  0  0  0999 V2000
    0.4121    2.2452    0.2497 O   0  0  0  0  0  0  0  0  0  0  0  0
    2.5851    0.9789    0.3670 O   0  0  0  0  0  0  0  0  0  0  0  0
    0.4761   -0.1688    0.3734 C   0  0  0  0  0  0  0  0  0  0  0  0
   -0.2041    1.0610   -0.2503 C   0  0  0  0  0  0  0  0  0  0  0  0
   -0.2470   -1.4585   -0.0359 C   0  0  0  0  0  0  0  0  0  0  0  0
   -2.4138   -0.1838   -0.3358 C   0  0  0  0  0  0  0  0  0  0  0  0
   -1.6981    1.1056    0.0785 C   0  0  0  0  0  0  0  0  0  0  0  0
   -1.7365   -1.4051    0.2970 C   0  0  0  0  0  0  0  0  0  0  0  0
    1.9557   -0.2445   -0.0128 C   0  0  0  0  0  0  0  0  0  0  0  0
   -3.8917   -0.1278    0.0464 C   0  0  0  0  0  0  0  0  0  0  0  0
    2.1138   -0.4275   -1.5206 C   0  0  0  0  0  0  0  0  0  0  0  0
    2.6483   -1.3748    0.7435 C   0  0  0  0  0  0  0  0  0  0  0  0
  1  4  1  0
  2  9  1  0
  3  4  1  0
  3  5  1  0
  3  9  1  0
  4  7  1  0
  5  8  1  0
  6  7  1  0
  6  8  1  0
  6 10  1  0
  9 11  1  0
  9 12  1  0
M  END
>  <PUBCHEM_COMPOUND_CID>  (1) 
19100

>  <PUBCHEM_CONFORMER_RMSD>  (1) 
0.6

>  <PUBCHEM_CONFORMER_DIVERSEORDER>  (1) 
1
3
2
4

>  <PUBCHEM_MMFF94_PARTIAL_CHARGES>  (1) 
6
1 -0.68
2 -0.68
31 0.4
32 0.4
4 0.28
9 0.28

>  <PUBCHEM_EFFECTIVE_ROTOR_COUNT>  (1) 
2.2

>  <PUBCHEM_PHARMACOPHORE_FEATURES>  (1) 
6
1 1 acceptor
1 1 donor
1 2 acceptor
1 2 donor
3 9 11 12 hydrophobe
6 3 4 5 6 7 8 rings

>  <PUBCHEM_HEAVY_ATOM_COUNT>  (1) 
12

>  <PUBCHEM_ATOM_DEF_STEREO_COUNT>  (1) 
3

>  <PUBCHEM_ATOM_UDEF_STEREO_COUNT>  (1) 
0

>  <PUBCHEM_BOND_DEF_STEREO_COUNT>  (1) 
0

>  <PUBCHEM_BOND_UDEF_STEREO_COUNT>  (1) 
0

>  <PUBCHEM_ISOTOPIC_ATOM_COUNT>  (1) 
0

>  <PUBCHEM_COMPONENT_COUNT>  (1) 
1

>  <PUBCHEM_CACTVS_TAUTO_COUNT>  (1) 
1

>  <PUBCHEM_CONFORMER_ID>  (1) 
00004A9C00000001

>  <PUBCHEM_MMFF94_ENERGY>  (1) 
31.0668

>  <PUBCHEM_FEATURE_SELFOVERLAP>  (1) 
30.481

>  <PUBCHEM_SHAPE_FINGERPRINT>  (1) 
10130415 120 18261387828079165603
10219947 1 18413951680972774043
10353120 184 18410864239421162149
12032990 46 18410016503024103339
12524768 44 18272375286393222478
12932764 1 18334860519462588615
14325111 11 18409164398713194305
15775835 57 18260268563849218343
16945 1 18334018319304241493
18522853 295 18409736131732603435
193761 8 17761773270796845555
20201158 50 18342739623908144927
20645476 183 17749405792019480175
20711985 344 17983317953096449804
21501502 16 18122623026998358199
22802520 49 17914351081738262551
23402539 116 18200577129833781991
23463225 33 18263077734506762867
23552423 10 18045221789206266247
23559900 14 18126001556397264670
2748010 2 18339073792064397085
29004967 10 16486968466914894874
3248919 1 17489869327946838523
369184 2 18408879629238202243
5084963 1 17531810138774389942
528886 8 18411976992253861059
53812653 166 18339637970315142232
53812654 25 18410845547433586258
8030462 33 18187375298119537678

>  <PUBCHEM_SHAPE_MULTIPOLES>  (1) 
235.22
4.75
1.73
0.9
2.15
0.43
0.27
-0.81
-0.02
-0.19
-0.26
-0.55
-0.11
-0.03

>  <PUBCHEM_SHAPE_SELFOVERLAP>  (1) 
463.386

>  <PUBCHEM_SHAPE_VOLUME>  (1) 
140.9

>  <PUBCHEM_COORDINATE_TYPE>  (1) 
2
5
10

$$$$
