19103
     RDKit          3D

 13 14  0  0  0  0  0  0  0  0999 V2000
    2.0248    2.3899    0.1742 O   0  0  0  0  0  0  0  0  0  0  0  0
   -3.1704   -0.7933    0.7305 O   0  0  0  0  0  0  0  0  0  0  0  0
    2.1844   -0.3571    0.1073 N   0  0  0  0  0  0  0  0  0  0  0  0
   -2.6379   -0.5156   -0.3519 N   0  0  0  0  0  0  0  0  0  0  0  0
   -0.2105   -0.4950   -0.1225 C   0  0  0  0  0  0  0  0  0  0  0  0
    0.9834    0.2441    0.0122 C   0  0  0  0  0  0  0  0  0  0  0  0
   -1.4470    0.1656   -0.2192 C   0  0  0  0  0  0  0  0  0  0  0  0
    0.8936    1.6330    0.0455 C   0  0  0  0  0  0  0  0  0  0  0  0
   -0.1207   -1.8931   -0.1556 C   0  0  0  0  0  0  0  0  0  0  0  0
   -1.5076    1.5558   -0.1831 C   0  0  0  0  0  0  0  0  0  0  0  0
   -0.3356    2.2900   -0.0504 C   0  0  0  0  0  0  0  0  0  0  0  0
    1.1155   -2.5155   -0.0578 C   0  0  0  0  0  0  0  0  0  0  0  0
    2.2278   -1.7086    0.0709 C   0  0  0  0  0  0  0  0  0  0  0  0
  1  8  1  0
  2  4  2  0
  3  6  2  0
  3 13  1  0
  4  7  1  0
  5  6  1  0
  5  7  1  0
  5  9  2  0
  6  8  1  0
  7 10  2  0
  8 11  2  0
  9 12  1  0
 10 11  1  0
 12 13  2  0
M  END
>  <PUBCHEM_COMPOUND_CID>  (1) 
19103

>  <PUBCHEM_CONFORMER_RMSD>  (1) 
0.4

>  <PUBCHEM_CONFORMER_DIVERSEORDER>  (1) 
2
1

>  <PUBCHEM_MMFF94_PARTIAL_CHARGES>  (1) 
18
1 -0.53
10 -0.15
11 -0.15
12 -0.15
13 0.16
14 0.15
15 0.15
16 0.15
17 0.15
18 0.15
19 0.45
2 -0.16
3 -0.62
4 -0.14
6 0.31
7 0.3
8 0.08
9 -0.15

>  <PUBCHEM_EFFECTIVE_ROTOR_COUNT>  (1) 
1

>  <PUBCHEM_PHARMACOPHORE_FEATURES>  (1) 
4
1 1 donor
1 3 acceptor
6 3 5 6 9 12 13 rings
6 5 6 7 8 10 11 rings

>  <PUBCHEM_HEAVY_ATOM_COUNT>  (1) 
13

>  <PUBCHEM_ATOM_DEF_STEREO_COUNT>  (1) 
0

>  <PUBCHEM_ATOM_UDEF_STEREO_COUNT>  (1) 
0

>  <PUBCHEM_BOND_DEF_STEREO_COUNT>  (1) 
0

>  <PUBCHEM_BOND_UDEF_STEREO_COUNT>  (1) 
0

>  <PUBCHEM_ISOTOPIC_ATOM_COUNT>  (1) 
0

>  <PUBCHEM_COMPONENT_COUNT>  (1) 
1

>  <PUBCHEM_CACTVS_TAUTO_COUNT>  (1) 
5

>  <PUBCHEM_CONFORMER_ID>  (1) 
00004A9F00000002

>  <PUBCHEM_MMFF94_ENERGY>  (1) 
40.2952

>  <PUBCHEM_FEATURE_SELFOVERLAP>  (1) 
20.329

>  <PUBCHEM_SHAPE_FINGERPRINT>  (1) 
10967382 1 18338796848188298487
12382932 28 17979627936202083666
12423570 1 9405195332735156658
13140716 1 18194679500028996058
13380535 76 17979347891454744054
161256 15 18410578396114714173
16945 1 18411694391842789942
17990270 104 18337387141285345995
193761 8 18338796689296062261
20645477 70 18338226172464898991
20871998 184 17768802070475798159
22802520 49 17410219400003301278
2334 1 17834391598484934246
23552423 10 18045508504016918670
23559900 14 17262716578697297774
241688 4 18050565140659989832
2748010 2 18124586492725237814
528862 383 18263636432368409273
54173680 148 17617662059555237891
66348 1 18410293657010149326
81228 2 17619344303760451834

>  <PUBCHEM_SHAPE_MULTIPOLES>  (1) 
245.83
3.32
2.86
0.64
0.36
1.09
0.01
-1.54
0.15
-0.36
0.2
-0.09
-0.09
0.25

>  <PUBCHEM_SHAPE_SELFOVERLAP>  (1) 
545.214

>  <PUBCHEM_SHAPE_VOLUME>  (1) 
131.1

>  <PUBCHEM_COORDINATE_TYPE>  (1) 
2
5
10

$$$$
