19106
     RDKit          3D

 14 14  0  0  0  0  0  0  0  0999 V2000
    4.0148    0.2535    0.0138 S   0  0  0  0  0  0  0  0  0  0  0  0
   -1.8271   -0.2535   -0.9255 O   0  0  0  0  0  0  0  0  0  0  0  0
   -2.1958    0.5194    1.2362 O   0  0  0  0  0  0  0  0  0  0  0  0
   -3.9746   -0.0147   -0.1542 N   0  0  0  0  0  0  0  0  0  0  0  0
    1.5923   -1.1238    0.0425 C   0  0  0  0  0  0  0  0  0  0  0  0
    2.2570    0.0657   -0.2561 C   0  0  0  0  0  0  0  0  0  0  0  0
    0.2198   -1.2311   -0.1824 C   0  0  0  0  0  0  0  0  0  0  0  0
   -0.4880   -0.1489   -0.7056 C   0  0  0  0  0  0  0  0  0  0  0  0
    1.5490    1.1478   -0.7794 C   0  0  0  0  0  0  0  0  0  0  0  0
    0.1766    1.0405   -1.0041 C   0  0  0  0  0  0  0  0  0  0  0  0
    2.3066   -2.3112    0.6043 C   0  0  0  0  0  0  0  0  0  0  0  0
   -2.6388    0.1246    0.1615 C   0  0  0  0  0  0  0  0  0  0  0  0
    4.0563    1.6354    1.1881 C   0  0  0  0  0  0  0  0  0  0  0  0
   -5.0481    0.2963    0.7608 C   0  0  0  0  0  0  0  0  0  0  0  0
  1  6  1  0
  1 13  1  0
  2  8  1  0
  2 12  1  0
  3 12  2  0
  4 12  1  0
  4 14  1  0
  5  6  2  0
  5  7  1  0
  5 11  1  0
  6  9  1  0
  7  8  2  0
  8 10  1  0
  9 10  2  0
M  END
>  <PUBCHEM_COMPOUND_CID>  (1) 
19106

>  <PUBCHEM_CONFORMER_RMSD>  (1) 
0.6

>  <PUBCHEM_CONFORMER_DIVERSEORDER>  (1) 
3
56
34
13
50
27
40
55
60
32
22
49
54
43
25
18
44
63
14
57
42
29
5
39
62
46
20
61
30
31
45
8
26
36
7
4
48
16
23
41
37
35
2
28
19
33
58
10
59
21
47
12
53
15
38
11
51
9
17
24
1
6
52

>  <PUBCHEM_MMFF94_PARTIAL_CHARGES>  (1) 
18
1 -0.33
10 -0.15
11 0.14
12 0.78
13 0.23
14 0.3
15 0.15
16 0.15
17 0.15
2 -0.23
24 0.37
3 -0.57
4 -0.73
5 -0.14
6 0.1
7 -0.15
8 0.08
9 -0.15

>  <PUBCHEM_EFFECTIVE_ROTOR_COUNT>  (1) 
4

>  <PUBCHEM_PHARMACOPHORE_FEATURES>  (1) 
4
1 13 hydrophobe
1 3 acceptor
1 4 donor
6 5 6 7 8 9 10 rings

>  <PUBCHEM_HEAVY_ATOM_COUNT>  (1) 
14

>  <PUBCHEM_ATOM_DEF_STEREO_COUNT>  (1) 
0

>  <PUBCHEM_ATOM_UDEF_STEREO_COUNT>  (1) 
0

>  <PUBCHEM_BOND_DEF_STEREO_COUNT>  (1) 
0

>  <PUBCHEM_BOND_UDEF_STEREO_COUNT>  (1) 
0

>  <PUBCHEM_ISOTOPIC_ATOM_COUNT>  (1) 
0

>  <PUBCHEM_COMPONENT_COUNT>  (1) 
1

>  <PUBCHEM_CACTVS_TAUTO_COUNT>  (1) 
2

>  <PUBCHEM_CONFORMER_ID>  (1) 
00004AA200000003

>  <PUBCHEM_MMFF94_ENERGY>  (1) 
37.5425

>  <PUBCHEM_FEATURE_SELFOVERLAP>  (1) 
20.297

>  <PUBCHEM_SHAPE_FINGERPRINT>  (1) 
10219947 1 18186522116004154020
10465860 250 16081360864921797077
10980938 120 18408605842326798078
11132069 177 18187079598311349934
11471102 22 18041287598931034556
12251169 10 18261115188055800519
12346645 6 18410577258133159646
13140716 1 18043812206941839148
14252887 29 17967255264835085186
14943859 89 16486974015943998214
15219456 202 17895748496237204767
15375358 24 17603581924303139925
15775835 57 18059857276698489289
16945 1 18186795898784076038
18186145 218 18272645779782233004
19784866 240 13118273738044521720
201361 129 18131073693160179354
20201158 50 17530971267279143811
20279233 1 17167870750851662499
204376 136 18263924496268161012
20645477 70 18189042115177810399
20871998 22 17895475813005905238
21119208 17 8142086450960812625
21637258 2 13623792969643066048
22854114 59 18335700559199469256
23048698 100 18202004300253179499
23402539 116 16343698829077138925
23557571 272 15719389495496628958
23559900 14 16806440302266144866
2748010 2 17898834774200767982
276578 36 18412544327659009270
4047638 21 17703513268019289284
449060 50 18413387648334042893
474 4 18200026390842025216
5104073 3 18263648377353124089
568465 68 18041292061671295296
581208 293 18186524310368601222
58807428 26 18190441914023526506
7364860 26 18272369720696219438
81228 2 16951973834192298445

>  <PUBCHEM_SHAPE_MULTIPOLES>  (1) 
275.24
8.15
1.62
1.08
6.93
0.68
0.13
-2.12
3.13
-1.86
0.28
-0.05
-0.29
0.09

>  <PUBCHEM_SHAPE_SELFOVERLAP>  (1) 
547.232

>  <PUBCHEM_SHAPE_VOLUME>  (1) 
165.6

>  <PUBCHEM_COORDINATE_TYPE>  (1) 
2
5
10

$$$$
