19117
     RDKit          3D

 28 30  0  0  0  0  0  0  0  0999 V2000
   -1.4332   -2.7237    0.2455 S   0  0  0  0  0  0  0  0  0  0  0  0
    5.9474   -0.0446   -0.3479 S   0  0  0  0  0  0  0  0  0  0  0  0
   -0.3938    2.2588    0.5090 O   0  0  0  0  0  0  0  0  0  0  0  0
   -2.2744   -2.6031   -1.1497 O   0  0  0  0  0  0  0  0  0  0  0  0
    6.5346   -0.2393    1.1653 O   0  0  0  0  0  0  0  0  0  0  0  0
   -0.6439   -3.9424    0.1648 O   0  0  0  0  0  0  0  0  0  0  0  0
   -2.3509   -2.5017    1.3501 O   0  0  0  0  0  0  0  0  0  0  0  0
    6.0912   -1.3240   -1.0271 O   0  0  0  0  0  0  0  0  0  0  0  0
    6.5341    1.1628   -0.9082 O   0  0  0  0  0  0  0  0  0  0  0  0
    2.0494    3.1831    0.3163 N   0  0  0  0  0  0  0  0  0  0  0  0
   -2.1518    0.1938    0.5425 N   0  0  0  0  0  0  0  0  0  0  0  0
   -2.6913    0.3587   -0.5750 N   0  0  0  0  0  0  0  0  0  0  0  0
    1.4984    0.7678    0.1927 C   0  0  0  0  0  0  0  0  0  0  0  0
    1.9617   -0.5609    0.0421 C   0  0  0  0  0  0  0  0  0  0  0  0
   -0.3264   -1.3669    0.2280 C   0  0  0  0  0  0  0  0  0  0  0  0
    2.4236    1.8242    0.1726 C   0  0  0  0  0  0  0  0  0  0  0  0
    0.1234    1.0013    0.3584 C   0  0  0  0  0  0  0  0  0  0  0  0
    1.0362   -1.6171    0.0619 C   0  0  0  0  0  0  0  0  0  0  0  0
    3.3365   -0.7941   -0.1240 C   0  0  0  0  0  0  0  0  0  0  0  0
    4.2417    0.2673   -0.1411 C   0  0  0  0  0  0  0  0  0  0  0  0
   -0.7819   -0.0601    0.3757 C   0  0  0  0  0  0  0  0  0  0  0  0
    3.7862    1.5741    0.0070 C   0  0  0  0  0  0  0  0  0  0  0  0
   -4.0634    0.6128   -0.4085 C   0  0  0  0  0  0  0  0  0  0  0  0
   -4.5099    1.9225   -0.2616 C   0  0  0  0  0  0  0  0  0  0  0  0
   -4.9651   -0.4468   -0.3911 C   0  0  0  0  0  0  0  0  0  0  0  0
   -5.8717    2.1750   -0.0955 C   0  0  0  0  0  0  0  0  0  0  0  0
   -6.3269   -0.1941   -0.2251 C   0  0  0  0  0  0  0  0  0  0  0  0
   -6.7800    1.1168   -0.0772 C   0  0  0  0  0  0  0  0  0  0  0  0
  1  4  1  0
  1  6  2  0
  1  7  2  0
  1 15  1  0
  2  5  1  0
  2  8  2  0
  2  9  2  0
  2 20  1  0
  3 17  1  0
 10 16  1  0
 11 12  2  0
 11 21  1  0
 12 23  1  0
 13 14  2  0
 13 16  1  0
 13 17  1  0
 14 18  1  0
 14 19  1  0
 15 18  2  0
 15 21  1  0
 16 22  2  0
 17 21  2  0
 19 20  2  0
 20 22  1  0
 23 24  2  0
 23 25  1  0
 24 26  1  0
 25 27  2  0
 26 28  2  0
 27 28  1  0
M  END
>  <PUBCHEM_COMPOUND_CID>  (1) 
19117

>  <PUBCHEM_CONFORMER_RMSD>  (1) 
0.8

>  <PUBCHEM_CONFORMER_DIVERSEORDER>  (1) 
1
3
2

>  <PUBCHEM_MMFF94_PARTIAL_CHARGES>  (1) 
39
1 1.49
10 -0.9
11 -0.18
12 -0.18
15 -0.01
16 0.1
17 0.08
18 -0.15
19 -0.15
2 1.49
20 -0.01
21 0.18
22 -0.15
23 0.18
24 -0.15
25 -0.15
26 -0.15
27 -0.15
28 -0.15
29 0.15
3 -0.53
30 0.15
31 0.15
32 0.4
33 0.4
34 0.45
35 0.5
36 0.5
37 0.15
38 0.15
39 0.15
4 -0.68
40 0.15
41 0.15
5 -0.68
6 -0.65
7 -0.65
8 -0.65
9 -0.65

>  <PUBCHEM_EFFECTIVE_ROTOR_COUNT>  (1) 
4

>  <PUBCHEM_PHARMACOPHORE_FEATURES>  (1) 
14
1 10 cation
1 10 donor
1 3 donor
1 4 acceptor
1 5 acceptor
1 6 acceptor
1 7 acceptor
1 8 acceptor
1 9 acceptor
4 1 4 6 7 anion
4 2 5 8 9 anion
6 13 14 15 17 18 21 rings
6 13 14 16 19 20 22 rings
6 23 24 25 26 27 28 rings

>  <PUBCHEM_HEAVY_ATOM_COUNT>  (1) 
28

>  <PUBCHEM_ATOM_DEF_STEREO_COUNT>  (1) 
0

>  <PUBCHEM_ATOM_UDEF_STEREO_COUNT>  (1) 
0

>  <PUBCHEM_BOND_DEF_STEREO_COUNT>  (1) 
0

>  <PUBCHEM_BOND_UDEF_STEREO_COUNT>  (1) 
0

>  <PUBCHEM_ISOTOPIC_ATOM_COUNT>  (1) 
0

>  <PUBCHEM_COMPONENT_COUNT>  (1) 
1

>  <PUBCHEM_CACTVS_TAUTO_COUNT>  (1) 
21

>  <PUBCHEM_CONFORMER_ID>  (1) 
00004AAD00000001

>  <PUBCHEM_MMFF94_ENERGY>  (1) 
78.4462

>  <PUBCHEM_FEATURE_SELFOVERLAP>  (1) 
71.197

>  <PUBCHEM_SHAPE_FINGERPRINT>  (1) 
10050765 1 18194118757941965608
10165383 225 18260548901018480429
10411042 1 17473822819445554219
10693767 8 17987513706516628846
10906281 52 18199767898150646184
1100329 8 18411415150386249392
11578080 2 16914797387572703834
12011746 2 18412267211984465836
12236239 1 17704071789787848281
12596602 18 13551475838994314949
12788726 201 18129943364741531152
12838862 33 18339060632295352944
13140716 1 18338230591505776488
13402501 40 18410573972467288853
13540713 4 18055074517619903136
14790565 3 18411140212809088657
15099037 51 18410575085027244716
15131766 46 16155140385212131220
15183329 4 18412266112235695028
15849732 13 17894354379722554573
15927050 60 18409164411625736867
16628084 112 18045217133889732230
18608769 82 18336551616387580475
18681886 176 18342167882531358313
19319366 153 17530959155798846258
19611394 137 17823433754856243545
21033648 29 18411130372574706017
21236236 1 18337954592992637195
21267235 1 18413111667332868117
21279426 13 18412267229079913182
21307412 95 18058190374812672998
23558518 356 17827354702423325145
23559900 14 18271240638271364608
23569943 247 17485946141832423158
23576562 1 18115881869653441908
249057 3 18409167731618606084
3004659 81 18333454232039113740
3178227 256 18336276673612755825
335352 9 18410856564525633388
340366 18 18113623433914797940
34934 24 18408601453208078570
350125 39 18408884019064225765
38695281 34 18131349679253556391
4058900 60 18043253448981903081
4073 2 18113904900253880258
484989 97 18266180711688385691
5104073 3 18338516473467131936
59755656 215 18411421670251924390
59755656 520 18186234044047853943
6138700 20 18340488863439511647
6328613 192 18261117412997020900
6669772 16 18201160953508383527

>  <PUBCHEM_SHAPE_MULTIPOLES>  (1) 
527.9
15.84
3.17
0.84
0.65
1.66
-0.01
-5.93
2.7
-1.39
-0.26
0.3
0.21
0.28

>  <PUBCHEM_SHAPE_SELFOVERLAP>  (1) 
1139.895

>  <PUBCHEM_SHAPE_VOLUME>  (1) 
290.5

>  <PUBCHEM_COORDINATE_TYPE>  (1) 
2
5
10

$$$$
