19113
     RDKit          3D

 13 13  0  0  0  0  0  0  0  0999 V2000
    3.5384   -1.9692    0.0019 Cl  0  0  0  0  0  0  0  0  0  0  0  0
    4.1940    1.2000    0.0006 Cl  0  0  0  0  0  0  0  0  0  0  0  0
   -2.5776    1.3174    0.0013 O   0  0  0  0  0  0  0  0  0  0  0  0
   -1.3987   -0.7187   -0.0006 N   0  0  0  0  0  0  0  0  0  0  0  0
   -3.6919   -0.7051    0.0000 N   0  0  0  0  0  0  0  0  0  0  0  0
   -0.0739   -0.2813   -0.0008 C   0  0  0  0  0  0  0  0  0  0  0  0
    0.9676   -1.2093   -0.0010 C   0  0  0  0  0  0  0  0  0  0  0  0
    0.2090    1.0846   -0.0004 C   0  0  0  0  0  0  0  0  0  0  0  0
    2.2919   -0.7713   -0.0008 C   0  0  0  0  0  0  0  0  0  0  0  0
    1.5333    1.5227   -0.0002 C   0  0  0  0  0  0  0  0  0  0  0  0
    2.5747    0.5947   -0.0004 C   0  0  0  0  0  0  0  0  0  0  0  0
   -2.5395    0.0896   -0.0001 C   0  0  0  0  0  0  0  0  0  0  0  0
   -5.0272   -0.1541    0.0005 C   0  0  0  0  0  0  0  0  0  0  0  0
  1  9  1  0
  2 11  1  0
  3 12  2  0
  4  6  1  0
  4 12  1  0
  5 12  1  0
  5 13  1  0
  6  7  2  0
  6  8  1  0
  7  9  1  0
  8 10  2  0
  9 11  2  0
 10 11  1  0
M  END
>  <PUBCHEM_COMPOUND_CID>  (1) 
19113

>  <PUBCHEM_CONFORMER_RMSD>  (1) 
0.6

>  <PUBCHEM_CONFORMER_DIVERSEORDER>  (1) 
1
7
6
4
8
3
2
5

>  <PUBCHEM_MMFF94_PARTIAL_CHARGES>  (1) 
18
1 -0.18
10 -0.15
11 0.18
12 0.69
13 0.3
14 0.15
15 0.15
16 0.37
17 0.15
18 0.37
2 -0.18
3 -0.57
4 -0.55
5 -0.73
6 0.12
7 -0.15
8 -0.15
9 0.18

>  <PUBCHEM_EFFECTIVE_ROTOR_COUNT>  (1) 
3

>  <PUBCHEM_PHARMACOPHORE_FEATURES>  (1) 
4
1 3 acceptor
1 4 donor
1 5 donor
6 6 7 8 9 10 11 rings

>  <PUBCHEM_HEAVY_ATOM_COUNT>  (1) 
13

>  <PUBCHEM_ATOM_DEF_STEREO_COUNT>  (1) 
0

>  <PUBCHEM_ATOM_UDEF_STEREO_COUNT>  (1) 
0

>  <PUBCHEM_BOND_DEF_STEREO_COUNT>  (1) 
0

>  <PUBCHEM_BOND_UDEF_STEREO_COUNT>  (1) 
0

>  <PUBCHEM_ISOTOPIC_ATOM_COUNT>  (1) 
0

>  <PUBCHEM_COMPONENT_COUNT>  (1) 
1

>  <PUBCHEM_CACTVS_TAUTO_COUNT>  (1) 
3

>  <PUBCHEM_CONFORMER_ID>  (1) 
00004AA900000001

>  <PUBCHEM_MMFF94_ENERGY>  (1) 
29.632

>  <PUBCHEM_FEATURE_SELFOVERLAP>  (1) 
20.35

>  <PUBCHEM_SHAPE_FINGERPRINT>  (1) 
10219947 1 18342178860098345462
10608611 8 18408600344758414925
10980938 120 18411982468569161418
11471102 20 18410290315457021327
12032990 46 18339082575420255878
12346645 6 18342176683003490278
12932764 1 17418082239428370945
13380535 76 18335702797120147170
14144814 61 18411983550600239793
14251717 144 18410572881503429934
14325111 11 18410856546760331329
14576447 43 18057028315074842607
15196674 1 18410855421653128997
15219456 202 18334569110089391956
15442244 35 18268150859729808232
15536298 74 18342458127873186154
15775835 57 18201158853157695845
16945 1 18338516468929427648
18186145 218 17822291240876669591
18522853 276 18341894095414147513
200 152 18201995539231870189
20279233 1 17676211290183747675
20645477 70 18411417284937860487
20871998 22 18127977395402418326
21267235 1 18339932532395015014
21501502 16 18339648815440029728
21501925 9 18410847733835625778
22485316 2 18412823607875770247
22959321 4 18410856516832716858
23402539 116 18262509403333580295
23402655 69 18413384328873137893
23557571 272 17313096441018110621
2748010 2 18265042549417564044
3071541 37 18335145323555710612
449060 50 18261674869243814476
449060 62 18341615945026778512
5104073 3 18410857629434878321
522135 26 18410013229931735838
53812653 166 18271240642444785176
7364860 26 18342738516486915034
77779 3 18410576171738165225

>  <PUBCHEM_SHAPE_MULTIPOLES>  (1) 
255.44
8.32
1.72
0.6
7.45
0.19
0
0.5
0
-1.75
0
-0.08
0
0

>  <PUBCHEM_SHAPE_SELFOVERLAP>  (1) 
508.233

>  <PUBCHEM_SHAPE_VOLUME>  (1) 
153.2

>  <PUBCHEM_COORDINATE_TYPE>  (1) 
2
5
10

$$$$
