19110
     RDKit          3D

 17 17  0  0  1  0  0  0  0  0999 V2000
   -0.8351    1.7526   -1.5474 Cl  0  0  0  0  0  0  0  0  0  0  0  0
   -2.1307    2.5082    0.9366 Cl  0  0  0  0  0  0  0  0  0  0  0  0
    3.0384   -3.0379    0.9492 Cl  0  0  0  0  0  0  0  0  0  0  0  0
    0.8854    2.8262    0.7950 O   0  0  0  0  0  0  0  0  0  0  0  0
   -2.8442   -0.1856   -0.2452 O   0  0  0  0  0  0  0  0  0  0  0  0
   -2.9264   -2.4162    0.3184 O   0  0  0  0  0  0  0  0  0  0  0  0
   -4.6755   -1.3916   -0.7671 N   0  0  0  0  0  0  0  0  0  0  0  0
    0.4413    1.4662    0.8482 C   0  0  0  0  0  0  0  0  0  0  0  0
   -0.9704    1.3362    0.2111 C   0  0  0  0  0  0  0  0  0  0  0  0
    1.5220    0.5782    0.2603 C   0  0  0  0  0  0  0  0  0  0  0  0
   -1.5443   -0.0852    0.3291 C   0  0  0  0  0  0  0  0  0  0  0  0
    1.7461   -0.6669    0.8171 C   0  0  0  0  0  0  0  0  0  0  0  0
    2.2534    1.0370   -0.8189 C   0  0  0  0  0  0  0  0  0  0  0  0
    2.7384   -1.4834    0.2744 C   0  0  0  0  0  0  0  0  0  0  0  0
    3.2458    0.2205   -1.3614 C   0  0  0  0  0  0  0  0  0  0  0  0
    3.4883   -1.0396   -0.8148 C   0  0  0  0  0  0  0  0  0  0  0  0
   -3.4324   -1.4186   -0.1848 C   0  0  0  0  0  0  0  0  0  0  0  0
  1  9  1  0
  2  9  1  0
  3 14  1  0
  4  8  1  0
  5 11  1  0
  5 17  1  0
  6 17  2  0
  7 17  1  0
  8  9  1  0
  8 10  1  0
  9 11  1  0
 10 12  2  0
 10 13  1  0
 12 14  1  0
 13 15  2  0
 14 16  2  0
 15 16  1  0
M  END
>  <PUBCHEM_COMPOUND_CID>  (1) 
19110

>  <PUBCHEM_CONFORMER_RMSD>  (1) 
0.6

>  <PUBCHEM_CONFORMER_DIVERSEORDER>  (1) 
2
94
23
102
144
104
86
22
168
77
150
6
139
20
113
97
156
76
4
132
171
146
128
95
116
175
126
153
172
157
58
173
70
154
96
103
36
170
138
106
29
155
64
59
67
164
25
161
105
75
174
142
176
55
53
145
3
99
124
12
159
143
65
135
148
162
140
42
88
7
182
39
66
100
127
141
149
21
98
163
93
78
51
63
107
158
111
152
69
72
56
74
89
9
8
179
117
166
115
15
180
48
24
90
134
68
121
165
60
101
87
118
28
109
91
92
130
169
16
19
54
18
178
13
80
112
160
108
181
41
177
62
61
5
137
119
85
73
82
14
71
1
10
183
79
110
83
37
125
147
131
11
114
151
40
57
84
136
129
17
26
123
33
30
52
35
81
133
38
47
44
167
31
122
50
32
27
120
45
43
49
46
34

>  <PUBCHEM_MMFF94_PARTIAL_CHARGES>  (1) 
24
1 -0.29
10 -0.14
11 0.28
12 -0.15
13 -0.15
14 0.18
15 -0.15
16 -0.15
17 0.78
2 -0.29
21 0.15
22 0.15
23 0.4
24 0.15
25 0.15
26 0.37
27 0.37
3 -0.18
4 -0.68
5 -0.43
6 -0.57
7 -0.8
8 0.42
9 0.58

>  <PUBCHEM_EFFECTIVE_ROTOR_COUNT>  (1) 
5

>  <PUBCHEM_PHARMACOPHORE_FEATURES>  (1) 
5
1 4 acceptor
1 4 donor
1 6 acceptor
1 7 donor
6 10 12 13 14 15 16 rings

>  <PUBCHEM_HEAVY_ATOM_COUNT>  (1) 
17

>  <PUBCHEM_ATOM_DEF_STEREO_COUNT>  (1) 
0

>  <PUBCHEM_ATOM_UDEF_STEREO_COUNT>  (1) 
1

>  <PUBCHEM_BOND_DEF_STEREO_COUNT>  (1) 
0

>  <PUBCHEM_BOND_UDEF_STEREO_COUNT>  (1) 
0

>  <PUBCHEM_ISOTOPIC_ATOM_COUNT>  (1) 
0

>  <PUBCHEM_COMPONENT_COUNT>  (1) 
1

>  <PUBCHEM_CACTVS_TAUTO_COUNT>  (1) 
2

>  <PUBCHEM_CONFORMER_ID>  (1) 
00004AA600000002

>  <PUBCHEM_MMFF94_ENERGY>  (1) 
38.7407

>  <PUBCHEM_FEATURE_SELFOVERLAP>  (1) 
25.371

>  <PUBCHEM_SHAPE_FINGERPRINT>  (1) 
10616163 171 18341058410473749342
11578080 2 18189317027260279172
12553582 1 18412553119241007555
12824470 246 18410856525327549985
13538477 17 18196661691939899336
14115302 16 18123188991998118520
14178342 30 18267855091402487368
14576447 43 18335424552112018846
14787075 74 18270402836286245816
15099037 8 18264489494778661778
15342816 4 18341617044011145911
15375462 189 18338813246373415497
16752209 62 18339632340261681585
16945 1 17822590351527284680
1798214 55 10881394335782001911
18186145 218 11531299145074457673
18522851 12 18266195962351921010
18522851 268 17822568309491176750
20281475 54 18409166576034779641
20291156 8 18339928211642000119
20645477 70 18057038228133408327
21452121 199 18336252458576506850
21501502 16 18336272227904755516
21634736 98 18335708260281734814
21731516 1 18272373078753541537
23557571 272 18130222658407345202
23598291 2 17970918764854566918
2871803 45 18336549403682604118
314173 41 18267309922661501007
568465 68 16988274275192097366
94968 8 18340771558197646271
960060 61 18262229036574847287

>  <PUBCHEM_SHAPE_MULTIPOLES>  (1) 
332.87
6.85
3.21
1.25
2.25
0.67
-0.23
5.51
-1.38
1.03
0.76
-0.31
-0.41
-1.28

>  <PUBCHEM_SHAPE_SELFOVERLAP>  (1) 
657.756

>  <PUBCHEM_SHAPE_VOLUME>  (1) 
198.8

>  <PUBCHEM_COORDINATE_TYPE>  (1) 
2
5
10

$$$$
