1912
     RDKit          3D

 23 26  0  0  1  0  0  0  0  0999 V2000
    2.5795    3.6336    0.2327 Br  0  0  0  0  0  0  0  0  0  0  0  0
   -2.6626   -1.5621    0.5981 P   0  0  0  0  0  0  0  0  0  0  0  0
   -0.9654    1.1119   -1.4252 O   0  0  0  0  0  0  0  0  0  0  0  0
   -1.8036   -0.2517    1.0527 O   0  0  0  0  0  0  0  0  0  0  0  0
   -1.5723    3.3169    0.8734 O   0  0  0  0  0  0  0  0  0  0  0  0
   -2.5410   -1.3714   -1.0205 O   0  0  0  0  0  0  0  0  0  0  0  0
   -4.1054   -1.3861    1.0204 O   0  0  0  0  0  0  0  0  0  0  0  0
   -1.8890   -2.8007    0.9932 O   0  0  0  0  0  0  0  0  0  0  0  0
    1.0811    1.1710   -0.2176 N   0  0  0  0  0  0  0  0  0  0  0  0
    3.2451    0.8729    0.2355 N   0  0  0  0  0  0  0  0  0  0  0  0
    0.3907   -1.1429   -0.4842 N   0  0  0  0  0  0  0  0  0  0  0  0
    2.2643   -2.6720   -0.1556 N   0  0  0  0  0  0  0  0  0  0  0  0
    4.4719   -1.9067    0.3612 N   0  0  0  0  0  0  0  0  0  0  0  0
   -2.2015    1.0271    0.5701 C   0  0  0  0  0  0  0  0  0  0  0  0
   -2.3221    1.0446   -0.9498 C   0  0  0  0  0  0  0  0  0  0  0  0
   -1.0552    1.9911    0.8054 C   0  0  0  0  0  0  0  0  0  0  0  0
   -0.1957    1.8480   -0.4553 C   0  0  0  0  0  0  0  0  0  0  0  0
   -3.0250   -0.1525   -1.5714 C   0  0  0  0  0  0  0  0  0  0  0  0
    1.2917   -0.1793   -0.2402 C   0  0  0  0  0  0  0  0  0  0  0  0
    2.2851    1.7590    0.0720 C   0  0  0  0  0  0  0  0  0  0  0  0
    2.6382   -0.3428    0.0433 C   0  0  0  0  0  0  0  0  0  0  0  0
    3.1189   -1.6478    0.0817 C   0  0  0  0  0  0  0  0  0  0  0  0
    0.9723   -2.3604   -0.4199 C   0  0  0  0  0  0  0  0  0  0  0  0
  1 20  1  0
  2  4  1  0
  2  6  1  0
  2  7  1  0
  2  8  2  0
  3 15  1  0
  3 17  1  0
  4 14  1  0
  5 16  1  0
  6 18  1  0
  9 17  1  0
  9 19  1  0
  9 20  1  0
 10 20  2  0
 10 21  1  0
 11 19  1  0
 11 23  2  0
 12 22  2  0
 12 23  1  0
 13 22  1  0
 14 15  1  0
 14 16  1  0
 15 18  1  0
 16 17  1  0
 19 21  2  0
 21 22  1  0
M  CHG  1   7  -1
M  END
>  <PUBCHEM_COMPOUND_CID>  (1) 
1912

>  <PUBCHEM_CONFORMER_RMSD>  (1) 
0.6

>  <PUBCHEM_CONFORMER_DIVERSEORDER>  (1) 
1
56
41
49
63
50
65
9
46
7
28
68
35
45
64
59
18
5
6
22
66
60
47
30
13
11
61
48
57
58
3
8
36
51
21
14
23
20
39
43
40
38
62
15
16
53
19
31
29
26
54
17
33
32
2
52
67
42
25
44
37
27
24
34
4
55
12
10

>  <PUBCHEM_MMFF94_PARTIAL_CHARGES>  (1) 
27
1 -0.06
10 -0.57
11 -0.57
12 -0.62
13 -0.9
14 0.28
15 0.28
16 0.28
17 0.54
18 0.28
19 0.11
2 1.44
20 0.24
21 0.23
22 0.41
23 0.47
3 -0.56
30 0.4
31 0.15
32 0.4
33 0.4
4 -0.55
5 -0.68
6 -0.55
7 -0.95
8 -0.95
9 0.05

>  <PUBCHEM_EFFECTIVE_ROTOR_COUNT>  (1) 
2.2

>  <PUBCHEM_PHARMACOPHORE_FEATURES>  (1) 
15
1 1 hydrophobe
1 13 cation
1 13 donor
1 3 acceptor
1 5 acceptor
1 5 donor
1 7 acceptor
1 8 acceptor
3 11 12 23 cation
3 9 10 20 cation
3 9 11 19 cation
5 3 14 15 16 17 rings
5 9 10 19 20 21 rings
6 11 12 19 21 22 23 rings
6 2 4 6 14 15 18 rings

>  <PUBCHEM_HEAVY_ATOM_COUNT>  (1) 
23

>  <PUBCHEM_ATOM_DEF_STEREO_COUNT>  (1) 
0

>  <PUBCHEM_ATOM_UDEF_STEREO_COUNT>  (1) 
4

>  <PUBCHEM_BOND_DEF_STEREO_COUNT>  (1) 
0

>  <PUBCHEM_BOND_UDEF_STEREO_COUNT>  (1) 
0

>  <PUBCHEM_ISOTOPIC_ATOM_COUNT>  (1) 
0

>  <PUBCHEM_COMPONENT_COUNT>  (1) 
1

>  <PUBCHEM_CACTVS_TAUTO_COUNT>  (1) 
3

>  <PUBCHEM_CONFORMER_ID>  (1) 
0000077800000001

>  <PUBCHEM_MMFF94_ENERGY>  (1) 
48.9491

>  <PUBCHEM_FEATURE_SELFOVERLAP>  (1) 
76.969

>  <PUBCHEM_SHAPE_FINGERPRINT>  (1) 
10967382 1 18195246847981175950
11582403 64 16312663030287535213
11680986 33 18337662096881470376
12506688 2 18265057018845658625
12553582 1 18123473782873853828
12633257 1 18268165161902241665
13140716 1 18411140259420122314
13583140 156 16593326589092162316
13911987 19 17832698350394290541
14178342 30 18340200778988499056
14223421 5 18335701710276896530
14787075 74 17339567406916669833
14790565 3 17617393113373020305
16945 1 18411986831955500684
192875 21 18268689663334828390
19591789 44 17978515565901302012
200 152 18129363965200184639
221490 88 18408040715183614758
2334 1 18195244640336408892
23526113 38 18192125249024430389
23559900 14 18410561890819360640
2748010 2 18337388374025291188
350125 39 18265339585166458332
458136 41 18122069964134076948
568465 68 17905614659007843177
8809292 202 18261954046534516334
9709674 26 18335972134271138789

>  <PUBCHEM_SHAPE_MULTIPOLES>  (1) 
423
6.14
3.91
1.1
0.63
1.09
-0.16
-2.09
0.65
2.34
0.7
-1.04
0.08
0.38

>  <PUBCHEM_SHAPE_SELFOVERLAP>  (1) 
905.917

>  <PUBCHEM_SHAPE_VOLUME>  (1) 
239.4

>  <PUBCHEM_COORDINATE_TYPE>  (1) 
2
5
10

$$$$
