19136
     RDKit          3D

 14 14  0  0  1  0  0  0  0  0999 V2000
   -0.5942    0.5259   -1.9948 O   0  0  0  0  0  0  0  0  0  0  0  0
    4.2894    1.2589    0.8704 O   0  0  0  0  0  0  0  0  0  0  0  0
   -2.7402    0.6279   -0.0783 N   0  0  0  0  0  0  0  0  0  0  0  0
   -1.4384    0.0600    0.2359 C   0  0  0  0  0  0  0  0  0  0  0  0
   -0.3382    0.7198   -0.6044 C   0  0  0  0  0  0  0  0  0  0  0  0
   -3.7878   -0.0042    0.7222 C   0  0  0  0  0  0  0  0  0  0  0  0
    1.0230    0.1397   -0.2889 C   0  0  0  0  0  0  0  0  0  0  0  0
   -3.8287   -1.5053    0.4498 C   0  0  0  0  0  0  0  0  0  0  0  0
   -5.1308    0.6467    0.4063 C   0  0  0  0  0  0  0  0  0  0  0  0
    2.0315    0.9814    0.1478 C   0  0  0  0  0  0  0  0  0  0  0  0
    1.2303   -1.2201   -0.4431 C   0  0  0  0  0  0  0  0  0  0  0  0
    3.2863    0.4463    0.4393 C   0  0  0  0  0  0  0  0  0  0  0  0
    2.4849   -1.7550   -0.1517 C   0  0  0  0  0  0  0  0  0  0  0  0
    3.5129   -0.9220    0.2896 C   0  0  0  0  0  0  0  0  0  0  0  0
  1  5  1  0
  2 12  1  0
  3  4  1  0
  3  6  1  0
  4  5  1  0
  5  7  1  0
  6  8  1  0
  6  9  1  0
  7 10  2  0
  7 11  1  0
 10 12  1  0
 11 13  2  0
 12 14  2  0
 13 14  1  0
M  END
>  <PUBCHEM_COMPOUND_CID>  (1) 
19136

>  <PUBCHEM_CONFORMER_RMSD>  (1) 
0.6

>  <PUBCHEM_CONFORMER_DIVERSEORDER>  (1) 
2
21
18
43
52
13
5
53
46
9
47
50
17
51
29
41
34
45
7
16
49
20
23
19
48
15
44
11
54
31
22
42
6
30
40
1
8
25
55
10
24
27
14
12
36
39
32
38
37
26
3
28
35
33
4

>  <PUBCHEM_MMFF94_PARTIAL_CHARGES>  (1) 
19
1 -0.68
10 -0.15
11 -0.15
12 0.08
13 -0.15
14 -0.15
19 0.36
2 -0.53
26 0.15
27 0.15
28 0.4
29 0.15
3 -0.9
30 0.15
31 0.45
4 0.27
5 0.42
6 0.27
7 -0.14

>  <PUBCHEM_EFFECTIVE_ROTOR_COUNT>  (1) 
4

>  <PUBCHEM_PHARMACOPHORE_FEATURES>  (1) 
7
1 1 acceptor
1 1 donor
1 2 donor
1 3 cation
1 3 donor
3 6 8 9 hydrophobe
6 7 10 11 12 13 14 rings

>  <PUBCHEM_HEAVY_ATOM_COUNT>  (1) 
14

>  <PUBCHEM_ATOM_DEF_STEREO_COUNT>  (1) 
0

>  <PUBCHEM_ATOM_UDEF_STEREO_COUNT>  (1) 
1

>  <PUBCHEM_BOND_DEF_STEREO_COUNT>  (1) 
0

>  <PUBCHEM_BOND_UDEF_STEREO_COUNT>  (1) 
0

>  <PUBCHEM_ISOTOPIC_ATOM_COUNT>  (1) 
0

>  <PUBCHEM_COMPONENT_COUNT>  (1) 
1

>  <PUBCHEM_CACTVS_TAUTO_COUNT>  (1) 
3

>  <PUBCHEM_CONFORMER_ID>  (1) 
00004AC000000002

>  <PUBCHEM_MMFF94_ENERGY>  (1) 
23.6869

>  <PUBCHEM_FEATURE_SELFOVERLAP>  (1) 
35.522

>  <PUBCHEM_SHAPE_FINGERPRINT>  (1) 
10498660 4 12894802376619111811
11132069 177 18186519912606933139
11543360 7 10665523949630691385
12251169 10 18410855481602998293
12507560 40 18339641135927747733
12916748 109 11527943461272048911
13549 16 8502379931334965250
13675066 3 18114191821971717545
14115302 16 13912332286564885936
14252887 29 18114188509797538923
14993402 34 12396302526326303944
15219456 202 18262510403718224844
15375358 24 18261111872494106859
15501101 241 18333734619434407372
20279233 1 18334299760322237931
20281407 28 17821732693343776495
20361792 2 16370449964324127223
20645477 70 18200592493243250655
20711985 327 17240204356578262541
21065199 12 18412548691314010371
21119208 17 11169910593562246041
212847 35 13614248052950724106
21501925 9 17968097546703110869
21673915 165 18339359785563507083
22485316 2 18333449833359658283
22854114 59 18413389851615414081
23048698 100 17775007864358015563
23402539 116 17240755203208185855
23532345 42 17821732753436486406
23557571 272 17458907024658215916
23559900 14 18411420583377311018
26918003 58 18411980243665313179
276578 36 15339122312224062694
31174 14 18335413544068303188
33824 294 18408323263475362402
4047638 21 12823291299788834554
42 15 18335988592860084515
449060 50 18412545431001491113
5104073 3 18412547604539916923
5374978 207 18343303635024437273
581208 293 18260552237949469786
69090 78 18411417311171725387
81228 2 16951977145775581341

>  <PUBCHEM_SHAPE_MULTIPOLES>  (1) 
271.39
9.14
1.46
1
7.17
0.51
-0.38
-0.33
3.13
-0.63
0.07
0.04
-0.17
0.53

>  <PUBCHEM_SHAPE_SELFOVERLAP>  (1) 
546.865

>  <PUBCHEM_SHAPE_VOLUME>  (1) 
160.1

>  <PUBCHEM_COORDINATE_TYPE>  (1) 
2
5
10

$$$$
