19134
     RDKit          3D

 31 32  0  0  1  0  0  0  0  0999 V2000
    0.1180    3.6501    0.5799 O   0  0  0  0  0  0  0  0  0  0  0  0
   -1.1993   -3.9025    0.0469 O   0  0  0  0  0  0  0  0  0  0  0  0
   -3.5171    3.9155   -0.0706 N   0  0  0  0  0  0  0  0  0  0  0  0
   -4.6814   -2.6798   -0.2513 N   0  0  0  0  0  0  0  0  0  0  0  0
    4.0823   -0.2538   -0.3555 C   0  0  0  0  0  0  0  0  0  0  0  0
    5.5206    0.3477   -0.2354 C   0  0  0  0  0  0  0  0  0  0  0  0
    3.8682   -1.4792    0.5740 C   0  0  0  0  0  0  0  0  0  0  0  0
    3.0089    0.8030   -0.1022 C   0  0  0  0  0  0  0  0  0  0  0  0
   -2.2449    4.0855    0.6756 C   0  0  0  0  0  0  0  0  0  0  0  0
   -3.5100   -3.5517   -0.5194 C   0  0  0  0  0  0  0  0  0  0  0  0
    5.7356    1.4971   -1.2332 C   0  0  0  0  0  0  0  0  0  0  0  0
    6.6166   -0.7009   -0.4660 C   0  0  0  0  0  0  0  0  0  0  0  0
    2.5090   -2.1291    0.4324 C   0  0  0  0  0  0  0  0  0  0  0  0
   -1.1030    3.5226   -0.1473 C   0  0  0  0  0  0  0  0  0  0  0  0
   -3.4741    4.6785   -1.4015 C   0  0  0  0  0  0  0  0  0  0  0  0
   -4.7026    4.4470    0.7464 C   0  0  0  0  0  0  0  0  0  0  0  0
   -3.7746    2.4341   -0.3777 C   0  0  0  0  0  0  0  0  0  0  0  0
   -4.3525   -1.2143   -0.5669 C   0  0  0  0  0  0  0  0  0  0  0  0
   -5.8797   -3.0969   -1.1145 C   0  0  0  0  0  0  0  0  0  0  0  0
   -5.1004   -2.7687    1.2224 C   0  0  0  0  0  0  0  0  0  0  0  0
    2.1435    1.1243   -1.1237 C   0  0  0  0  0  0  0  0  0  0  0  0
    2.9456    1.3964    1.1390 C   0  0  0  0  0  0  0  0  0  0  0  0
   -2.3392   -3.0912    0.3265 C   0  0  0  0  0  0  0  0  0  0  0  0
    1.0742    2.7082    0.3547 C   0  0  0  0  0  0  0  0  0  0  0  0
    1.4650   -1.6912    1.2282 C   0  0  0  0  0  0  0  0  0  0  0  0
    2.3400   -3.1472   -0.4898 C   0  0  0  0  0  0  0  0  0  0  0  0
    1.1635    2.0896   -0.8924 C   0  0  0  0  0  0  0  0  0  0  0  0
    1.9654    2.3616    1.3704 C   0  0  0  0  0  0  0  0  0  0  0  0
    0.0231   -3.3181    0.1735 C   0  0  0  0  0  0  0  0  0  0  0  0
    0.2122   -2.2906    1.0978 C   0  0  0  0  0  0  0  0  0  0  0  0
    1.0872   -3.7464   -0.6203 C   0  0  0  0  0  0  0  0  0  0  0  0
  1 14  1  0
  1 24  1  0
  2 23  1  0
  2 29  1  0
  3  9  1  0
  3 15  1  0
  3 16  1  0
  3 17  1  0
  4 10  1  0
  4 18  1  0
  4 19  1  0
  4 20  1  0
  5  6  1  0
  5  7  1  0
  5  8  1  0
  6 11  1  0
  6 12  1  0
  7 13  1  0
  8 21  2  0
  8 22  1  0
  9 14  1  0
 10 23  1  0
 13 25  2  0
 13 26  1  0
 21 27  1  0
 22 28  2  0
 24 27  2  0
 24 28  1  0
 25 30  1  0
 26 31  2  0
 29 30  2  0
 29 31  1  0
M  CHG  2   3   1   4   1
M  END
>  <PUBCHEM_COMPOUND_CID>  (1) 
19134

>  <PUBCHEM_CONFORMER_RMSD>  (1) 
1.2

>  <PUBCHEM_CONFORMER_DIVERSEORDER>  (1) 
1
68
9
52
6
26
40
41
59
53
73
91
82
20
81
27
39
62
25
67
66
65
84
57
58
48
14
86
4
71
88
79
13
36
46
50
5
10
77
94
80
87
34
32
56
63
28
85
3
74
89
75
64
21
15
16
43
70
38
47
44
55
22
96
24
54
12
29
8
61
18
51
95
92
35
90
31
2
60
69
93
23
72
33
76
17
83
37
49
7
45
42
97
78
11
30
19

>  <PUBCHEM_MMFF94_PARTIAL_CHARGES>  (1) 
36
1 -0.36
10 0.5
13 -0.14
14 0.28
15 0.5
16 0.5
17 0.5
18 0.5
19 0.5
2 -0.36
20 0.5
21 -0.15
22 -0.15
23 0.28
24 0.08
25 -0.15
26 -0.15
27 -0.15
28 -0.15
29 0.08
3 -1.01
30 -0.15
31 -0.15
4 -1.01
5 0.14
66 0.15
67 0.15
7 0.14
70 0.15
71 0.15
72 0.15
73 0.15
74 0.15
75 0.15
8 -0.14
9 0.5

>  <PUBCHEM_EFFECTIVE_ROTOR_COUNT>  (1) 
12

>  <PUBCHEM_PHARMACOPHORE_FEATURES>  (1) 
7
1 1 acceptor
1 2 acceptor
1 3 cation
1 4 cation
3 6 11 12 hydrophobe
6 13 25 26 29 30 31 rings
6 8 21 22 24 27 28 rings

>  <PUBCHEM_HEAVY_ATOM_COUNT>  (1) 
31

>  <PUBCHEM_ATOM_DEF_STEREO_COUNT>  (1) 
0

>  <PUBCHEM_ATOM_UDEF_STEREO_COUNT>  (1) 
1

>  <PUBCHEM_BOND_DEF_STEREO_COUNT>  (1) 
0

>  <PUBCHEM_BOND_UDEF_STEREO_COUNT>  (1) 
0

>  <PUBCHEM_ISOTOPIC_ATOM_COUNT>  (1) 
0

>  <PUBCHEM_COMPONENT_COUNT>  (1) 
1

>  <PUBCHEM_CACTVS_TAUTO_COUNT>  (1) 
1

>  <PUBCHEM_CONFORMER_ID>  (1) 
00004ABE00000001

>  <PUBCHEM_MMFF94_ENERGY>  (1) 
123.187

>  <PUBCHEM_FEATURE_SELFOVERLAP>  (1) 
35.52

>  <PUBCHEM_SHAPE_FINGERPRINT>  (1) 
10190206 1 17684400582238739284
12788726 201 18262516013098461850
13590594 115 18337397161539253250
1361 2 17690557486476343065
13692114 37 18197201565550822138
14289585 56 18201158857611569094
14466204 15 16898487412913445552
14681490 219 18338797939157698407
15274700 256 18338513175634316064
15320467 1 18411135849100593299
15351339 4 18192972869758487485
15400415 2 17906169551582537796
15483637 11 18338234869330009217
15927050 60 18195811769234928591
16993438 75 18262809471118233777
17138139 8 17985802892404362468
18335252 114 18267860756227974223
18681886 176 18053659454524207778
19319366 153 18053090732355767116
20764821 26 18121213186967133299
20775438 99 17768518405366759366
21133410 62 17897998037805739613
22121540 332 18057587949830333056
325973 47 18193836183601053843
463206 1 18195805167912925329
5309563 4 18267862964325453943
653340 110 18339913891915060944

>  <PUBCHEM_SHAPE_MULTIPOLES>  (1) 
616.26
12.68
8.25
1.21
0.02
3.59
0.05
-1.56
-2.78
-13.11
-0.17
-0.07
0.28
-0.43

>  <PUBCHEM_SHAPE_SELFOVERLAP>  (1) 
1249.163

>  <PUBCHEM_SHAPE_VOLUME>  (1) 
365.8

>  <PUBCHEM_COORDINATE_TYPE>  (1) 
2
5
10

$$$$
