19149
     RDKit          3D

 20 22  0  0  1  0  0  0  0  0999 V2000
   -2.1650    1.5081   -0.8525 O   0  0  0  0  0  0  0  0  0  0  0  0
   -2.1416   -2.9782   -1.5030 O   0  0  0  0  0  0  0  0  0  0  0  0
   -0.2910   -3.5259   -0.3074 O   0  0  0  0  0  0  0  0  0  0  0  0
   -0.9652   -1.1730   -0.4650 C   0  0  0  0  0  0  0  0  0  0  0  0
    0.2579   -0.8109    0.3198 C   0  0  0  0  0  0  0  0  0  0  0  0
   -2.2904   -0.6630    0.1696 C   0  0  0  0  0  0  0  0  0  0  0  0
    1.2889   -0.0293   -0.2265 C   0  0  0  0  0  0  0  0  0  0  0  0
    2.4198    0.2778    0.5673 C   0  0  0  0  0  0  0  0  0  0  0  0
    0.3405   -1.2829    1.6300 C   0  0  0  0  0  0  0  0  0  0  0  0
   -2.3447    0.8417    0.2970 C   0  0  0  0  0  0  0  0  0  0  0  0
   -1.0718   -2.6801   -0.7193 C   0  0  0  0  0  0  0  0  0  0  0  0
    1.2225    0.4543   -1.5433 C   0  0  0  0  0  0  0  0  0  0  0  0
    2.4861   -0.2062    1.8840 C   0  0  0  0  0  0  0  0  0  0  0  0
    1.4525   -0.9813    2.4106 C   0  0  0  0  0  0  0  0  0  0  0  0
    3.4508    1.0595    0.0208 C   0  0  0  0  0  0  0  0  0  0  0  0
   -2.5416    1.6472    1.3588 C   0  0  0  0  0  0  0  0  0  0  0  0
    2.2561    1.2292   -2.0701 C   0  0  0  0  0  0  0  0  0  0  0  0
    3.3681    1.5313   -1.2896 C   0  0  0  0  0  0  0  0  0  0  0  0
   -2.4813    2.9601    0.8339 C   0  0  0  0  0  0  0  0  0  0  0  0
   -2.2505    2.8217   -0.5150 C   0  0  0  0  0  0  0  0  0  0  0  0
  1 10  1  0
  1 20  1  0
  2 11  1  0
  3 11  2  0
  4  5  1  0
  4  6  1  0
  4 11  1  0
  5  7  1  0
  5  9  2  0
  6 10  1  0
  7  8  2  0
  7 12  1  0
  8 13  1  0
  8 15  1  0
  9 14  1  0
 10 16  2  0
 12 17  2  0
 13 14  2  0
 15 18  2  0
 16 19  1  0
 17 18  1  0
 19 20  2  0
M  END
>  <PUBCHEM_COMPOUND_CID>  (1) 
19149

>  <PUBCHEM_CONFORMER_RMSD>  (1) 
0.6

>  <PUBCHEM_CONFORMER_DIVERSEORDER>  (1) 
1
52
45
71
6
49
10
40
23
47
38
64
74
57
37
65
4
55
67
19
25
51
30
28
18
68
7
62
75
27
5
70
39
66
2
76
9
54
58
21
20
69
29
63
14
32
13
22
56
60
46
61
16
3
24
77
26
73
78
41
11
12
15
72
53
43
35
48
59
17
36
8
31
44
34
50
42
33

>  <PUBCHEM_MMFF94_PARTIAL_CHARGES>  (1) 
29
1 -0.28
10 -0.04
11 0.66
12 -0.15
13 -0.15
14 -0.15
15 -0.15
16 -0.15
17 -0.15
18 -0.15
19 -0.15
2 -0.65
20 -0.01
24 0.15
25 0.15
26 0.15
27 0.15
28 0.15
29 0.15
3 -0.57
30 0.15
31 0.15
32 0.15
33 0.15
34 0.5
4 0.2
5 -0.14
6 0.18
9 -0.15

>  <PUBCHEM_EFFECTIVE_ROTOR_COUNT>  (1) 
4

>  <PUBCHEM_PHARMACOPHORE_FEATURES>  (1) 
7
1 1 acceptor
1 2 acceptor
1 3 acceptor
3 2 3 11 anion
5 1 10 16 19 20 rings
6 5 7 8 9 13 14 rings
6 7 8 12 15 17 18 rings

>  <PUBCHEM_HEAVY_ATOM_COUNT>  (1) 
20

>  <PUBCHEM_ATOM_DEF_STEREO_COUNT>  (1) 
0

>  <PUBCHEM_ATOM_UDEF_STEREO_COUNT>  (1) 
1

>  <PUBCHEM_BOND_DEF_STEREO_COUNT>  (1) 
0

>  <PUBCHEM_BOND_UDEF_STEREO_COUNT>  (1) 
0

>  <PUBCHEM_ISOTOPIC_ATOM_COUNT>  (1) 
0

>  <PUBCHEM_COMPONENT_COUNT>  (1) 
1

>  <PUBCHEM_CACTVS_TAUTO_COUNT>  (1) 
1

>  <PUBCHEM_CONFORMER_ID>  (1) 
00004ACD00000001

>  <PUBCHEM_MMFF94_ENERGY>  (1) 
49.9628

>  <PUBCHEM_FEATURE_SELFOVERLAP>  (1) 
35.607

>  <PUBCHEM_SHAPE_FINGERPRINT>  (1) 
10165383 225 17699606638596812273
10764073 3 14081938659820415735
11578080 2 17487640704267631112
11640471 11 18259980461701384448
11725454 13 16197007463882645410
12788726 201 18266452294701331215
128993 33 18194703495858668073
13009979 54 18045189843377390378
13681431 1 17047126524190478079
13965767 371 18045784477077895088
14617773 55 18115571785920319862
14713325 29 17830783937720578206
14787075 74 17174361365638203843
14817 1 10866939009024137122
15534591 1 18042706033756444552
16752209 62 18340192077389798007
16945 1 18269274728111741030
17357990 137 18261674762112199192
18981168 100 18054802693197440025
20600515 1 17410751963232025251
20715895 44 17392176444995182117
21524375 3 18261408727332148264
21756936 100 17389135457535257564
22112679 90 18194396929888495427
23419403 2 15965646818206035138
23557571 272 17842275049674712504
23559900 14 17617673055626142017
298252 57 18193303856384683924
350125 39 18198914604334691535
3797600 57 17970658300779130921
484985 159 13414916232673451385
6442390 28 17916326986486665619
6992083 37 17973413582497440130
7364860 26 17764034562424996965
81228 2 18056765549012563507

>  <PUBCHEM_SHAPE_MULTIPOLES>  (1) 
393.98
4.94
3.45
1.99
0.97
1.46
-0.47
-3.79
-0.02
-2.74
1.07
1.03
0.28
-1.85

>  <PUBCHEM_SHAPE_SELFOVERLAP>  (1) 
870.165

>  <PUBCHEM_SHAPE_VOLUME>  (1) 
212.3

>  <PUBCHEM_COORDINATE_TYPE>  (1) 
2
5
10

$$$$
