19146
     RDKit          3D

  8  7  0  0  0  0  0  0  0  0999 V2000
    0.2262   -0.8804   -1.5878 Cl  0  0  0  0  0  0  0  0  0  0  0  0
    2.1726    1.6306   -0.4961 Cl  0  0  0  0  0  0  0  0  0  0  0  0
    2.6839   -0.9924    0.6963 Cl  0  0  0  0  0  0  0  0  0  0  0  0
   -3.4726    0.7562    0.0873 Cl  0  0  0  0  0  0  0  0  0  0  0  0
    0.1913   -0.1570    0.0029 C   0  0  0  0  0  0  0  0  0  0  0  0
   -0.9944   -0.1049    0.6357 C   0  0  0  0  0  0  0  0  0  0  0  0
    1.5075    0.3370    0.5323 C   0  0  0  0  0  0  0  0  0  0  0  0
   -2.3144   -0.5892    0.1294 C   0  0  0  0  0  0  0  0  0  0  0  0
  1  5  1  0
  2  7  1  0
  3  7  1  0
  4  8  1  0
  5  6  2  0
  5  7  1  0
  6  8  1  0
M  END
>  <PUBCHEM_COMPOUND_CID>  (1) 
19146

>  <PUBCHEM_CONFORMER_RMSD>  (1) 
0.4

>  <PUBCHEM_CONFORMER_DIVERSEORDER>  (1) 
1
12
4
10
5
7
11
8
2
3
13
6
9

>  <PUBCHEM_MMFF94_PARTIAL_CHARGES>  (1) 
8
1 -0.14
10 0.15
2 -0.29
3 -0.29
4 -0.29
6 -0.29
7 0.72
8 0.43

>  <PUBCHEM_EFFECTIVE_ROTOR_COUNT>  (1) 
2

>  <PUBCHEM_PHARMACOPHORE_FEATURES>  (1) 
0

>  <PUBCHEM_HEAVY_ATOM_COUNT>  (1) 
8

>  <PUBCHEM_ATOM_DEF_STEREO_COUNT>  (1) 
0

>  <PUBCHEM_ATOM_UDEF_STEREO_COUNT>  (1) 
0

>  <PUBCHEM_BOND_DEF_STEREO_COUNT>  (1) 
0

>  <PUBCHEM_BOND_UDEF_STEREO_COUNT>  (1) 
1

>  <PUBCHEM_ISOTOPIC_ATOM_COUNT>  (1) 
0

>  <PUBCHEM_COMPONENT_COUNT>  (1) 
1

>  <PUBCHEM_CACTVS_TAUTO_COUNT>  (1) 
1

>  <PUBCHEM_CONFORMER_ID>  (1) 
00004ACA00000001

>  <PUBCHEM_MMFF94_ENERGY>  (1) 
5.4026

>  <PUBCHEM_FEATURE_SELFOVERLAP>  (1) 
0

>  <PUBCHEM_SHAPE_FINGERPRINT>  (1) 
12897270 3 16917074364827646825
12932764 1 18338244867845108355
14325111 11 18334012821914907899
14390081 3 18263084469163240953
15310529 11 18338515369095994635
20711978 78 17968359230808177150
21040471 1 17131836511882333134
29004967 10 18114169822927694410
3248919 1 18115013229576030787
5084963 1 18343580733112812658

>  <PUBCHEM_SHAPE_MULTIPOLES>  (1) 
172.12
4.8
1.35
1.14
3
0.4
0.44
0.91
-0.84
-0.79
0.22
-0.31
-0.29
-0.39

>  <PUBCHEM_SHAPE_SELFOVERLAP>  (1) 
283.862

>  <PUBCHEM_SHAPE_VOLUME>  (1) 
118.1

>  <PUBCHEM_COORDINATE_TYPE>  (1) 
2
5
10

$$$$
