19151
     RDKit          3D

 14 14  0  0  0  0  0  0  0  0999 V2000
    2.7255   -0.3575    0.0424 S   0  0  0  0  0  0  0  0  0  0  0  0
    3.1482   -0.4435   -1.5345 O   0  0  0  0  0  0  0  0  0  0  0  0
    3.5794    0.6486    0.6565 O   0  0  0  0  0  0  0  0  0  0  0  0
    2.6763   -1.7117    0.5712 O   0  0  0  0  0  0  0  0  0  0  0  0
   -2.0794   -2.2918    0.5323 O   0  0  0  0  0  0  0  0  0  0  0  0
   -3.4980   -0.8932   -0.5621 O   0  0  0  0  0  0  0  0  0  0  0  0
   -2.8425    1.7362    0.0562 N   0  0  0  0  0  0  0  0  0  0  0  0
    1.0883    0.2499    0.0456 C   0  0  0  0  0  0  0  0  0  0  0  0
   -1.2937   -0.1516   -0.0010 C   0  0  0  0  0  0  0  0  0  0  0  0
    0.0136   -0.6381   -0.0038 C   0  0  0  0  0  0  0  0  0  0  0  0
   -1.5264    1.2228    0.0513 C   0  0  0  0  0  0  0  0  0  0  0  0
    0.8554    1.6243    0.0978 C   0  0  0  0  0  0  0  0  0  0  0  0
   -0.4518    2.1107    0.1008 C   0  0  0  0  0  0  0  0  0  0  0  0
   -2.3947   -1.1052   -0.0528 C   0  0  0  0  0  0  0  0  0  0  0  0
  1  2  1  0
  1  3  2  0
  1  4  2  0
  1  8  1  0
  5 14  1  0
  6 14  2  0
  7 11  1  0
  8 10  2  0
  8 12  1  0
  9 10  1  0
  9 11  2  0
  9 14  1  0
 11 13  1  0
 12 13  2  0
M  END
>  <PUBCHEM_COMPOUND_CID>  (1) 
19151

>  <PUBCHEM_CONFORMER_RMSD>  (1) 
0.6

>  <PUBCHEM_CONFORMER_DIVERSEORDER>  (1) 
1
2

>  <PUBCHEM_MMFF94_PARTIAL_CHARGES>  (1) 
21
1 1.49
10 -0.15
11 0.1
12 -0.15
13 -0.15
14 0.63
15 0.15
16 0.15
17 0.15
18 0.4
19 0.4
2 -0.68
20 0.5
21 0.5
3 -0.65
4 -0.65
5 -0.65
6 -0.57
7 -0.9
8 -0.01
9 0.09

>  <PUBCHEM_EFFECTIVE_ROTOR_COUNT>  (1) 
2

>  <PUBCHEM_PHARMACOPHORE_FEATURES>  (1) 
10
1 2 acceptor
1 3 acceptor
1 4 acceptor
1 5 acceptor
1 6 acceptor
1 7 cation
1 7 donor
3 5 6 14 anion
4 1 2 3 4 anion
6 8 9 10 11 12 13 rings

>  <PUBCHEM_HEAVY_ATOM_COUNT>  (1) 
14

>  <PUBCHEM_ATOM_DEF_STEREO_COUNT>  (1) 
0

>  <PUBCHEM_ATOM_UDEF_STEREO_COUNT>  (1) 
0

>  <PUBCHEM_BOND_DEF_STEREO_COUNT>  (1) 
0

>  <PUBCHEM_BOND_UDEF_STEREO_COUNT>  (1) 
0

>  <PUBCHEM_ISOTOPIC_ATOM_COUNT>  (1) 
0

>  <PUBCHEM_COMPONENT_COUNT>  (1) 
1

>  <PUBCHEM_CACTVS_TAUTO_COUNT>  (1) 
2

>  <PUBCHEM_CONFORMER_ID>  (1) 
00004ACF00000001

>  <PUBCHEM_MMFF94_ENERGY>  (1) 
41.4756

>  <PUBCHEM_FEATURE_SELFOVERLAP>  (1) 
50.861

>  <PUBCHEM_SHAPE_FINGERPRINT>  (1) 
11206711 2 18407757032398548477
12716758 59 18267306430446582624
12932764 1 18337119960154910328
13296908 3 18130790044819208068
14144814 61 18409446972932631011
14252887 29 18058459853338875098
15219456 202 17918275333749197852
16945 1 18334862748392275241
20201158 50 18336259153882102674
20510252 161 18201438051907514361
20645476 183 17897186652982602294
20645477 70 18053661666611330159
20715346 28 17918274251238019708
20871998 184 18202561769933735365
20871998 22 18270971248699336078
21501502 16 18411134706201598680
22802520 49 17986966145662500462
2334 1 18339923826163931681
23402539 116 18342442756417375255
23463225 33 18409165472133219432
23552423 10 18261679284491397628
23557571 272 18272092695221010332
23559900 14 18341892927842237478
2748010 2 18341325686341151421
3248919 1 17312829268646115186
3312278 4 18409450288847759104
7364860 26 18055634177085511216
8030462 33 18187653483393951158
81228 2 18338805524101708689
8809292 202 18339928091330044818

>  <PUBCHEM_SHAPE_MULTIPOLES>  (1) 
257.64
5.37
2.14
0.8
1.59
0.16
-0.18
-1.5
-0.38
-1.11
0.29
0.47
-0.12
0.08

>  <PUBCHEM_SHAPE_SELFOVERLAP>  (1) 
533.054

>  <PUBCHEM_SHAPE_VOLUME>  (1) 
148

>  <PUBCHEM_COORDINATE_TYPE>  (1) 
2
5
10

$$$$
