19157
     RDKit          3D

 15 14  0  0  0  0  0  0  0  0999 V2000
    1.3690    0.9551   -2.1832 O   0  0  0  0  0  0  0  0  0  0  0  0
   -3.1570   -0.0441   -0.3609 N   0  0  0  0  0  0  0  0  0  0  0  0
    3.0766    0.4151   -0.7994 N   0  0  0  0  0  0  0  0  0  0  0  0
    0.7331   -0.0338   -0.0128 C   0  0  0  0  0  0  0  0  0  0  0  0
    0.9336    0.8015    1.3212 C   0  0  0  0  0  0  0  0  0  0  0  0
    1.1170   -1.5714    0.2249 C   0  0  0  0  0  0  0  0  0  0  0  0
   -0.7216    0.1215   -0.5890 C   0  0  0  0  0  0  0  0  0  0  0  0
    1.7363    0.5048   -1.0956 C   0  0  0  0  0  0  0  0  0  0  0  0
   -1.8862   -0.2421    0.3351 C   0  0  0  0  0  0  0  0  0  0  0  0
    2.3400    0.6491    1.9288 C   0  0  0  0  0  0  0  0  0  0  0  0
    0.6174    2.3037    1.2410 C   0  0  0  0  0  0  0  0  0  0  0  0
    1.1045   -2.4110   -1.0652 C   0  0  0  0  0  0  0  0  0  0  0  0
    0.3320   -2.3230    1.3127 C   0  0  0  0  0  0  0  0  0  0  0  0
   -3.3224    1.3605   -0.7333 C   0  0  0  0  0  0  0  0  0  0  0  0
   -4.2723   -0.4857    0.4757 C   0  0  0  0  0  0  0  0  0  0  0  0
  1  8  2  0
  2  9  1  0
  2 14  1  0
  2 15  1  0
  3  8  1  0
  4  5  1  0
  4  6  1  0
  4  7  1  0
  4  8  1  0
  5 10  1  0
  5 11  1  0
  6 12  1  0
  6 13  1  0
  7  9  1  0
M  END
>  <PUBCHEM_COMPOUND_CID>  (1) 
19157

>  <PUBCHEM_CONFORMER_RMSD>  (1) 
0.6

>  <PUBCHEM_CONFORMER_DIVERSEORDER>  (1) 
2
8
6
13
12
4
14
3
15
11
18
5
17
7
16
9
1
10

>  <PUBCHEM_MMFF94_PARTIAL_CHARGES>  (1) 
10
1 -0.57
14 0.27
15 0.27
2 -0.81
3 -0.8
34 0.37
35 0.37
4 0.06
8 0.57
9 0.27

>  <PUBCHEM_EFFECTIVE_ROTOR_COUNT>  (1) 
6

>  <PUBCHEM_PHARMACOPHORE_FEATURES>  (1) 
6
1 1 acceptor
1 2 cation
1 3 donor
3 5 10 11 hydrophobe
3 6 12 13 hydrophobe
4 4 5 6 7 hydrophobe

>  <PUBCHEM_HEAVY_ATOM_COUNT>  (1) 
15

>  <PUBCHEM_ATOM_DEF_STEREO_COUNT>  (1) 
0

>  <PUBCHEM_ATOM_UDEF_STEREO_COUNT>  (1) 
0

>  <PUBCHEM_BOND_DEF_STEREO_COUNT>  (1) 
0

>  <PUBCHEM_BOND_UDEF_STEREO_COUNT>  (1) 
0

>  <PUBCHEM_ISOTOPIC_ATOM_COUNT>  (1) 
0

>  <PUBCHEM_COMPONENT_COUNT>  (1) 
1

>  <PUBCHEM_CACTVS_TAUTO_COUNT>  (1) 
2

>  <PUBCHEM_CONFORMER_ID>  (1) 
00004AD500000002

>  <PUBCHEM_MMFF94_ENERGY>  (1) 
57.0884

>  <PUBCHEM_FEATURE_SELFOVERLAP>  (1) 
30.811

>  <PUBCHEM_SHAPE_FINGERPRINT>  (1) 
11067466 332 18335421279109114241
12326174 3 17346590868050830708
12423570 1 17031116934773356650
12654215 9 18200018565174085425
12716301 132 18048600609929375466
12725867 57 17559101078137701850
12932764 1 18201996625795305677
13380536 261 17911833221880722052
14817 1 15030166150637047490
15775835 57 18341614845325350743
16945 1 17917986174659165936
18186145 218 17775284967801739177
187816 3 18129963242445996420
19010151 120 16557925433045045774
20233049 118 18408036325368660560
21730867 7 18341886398996159971
21947302 44 17344915328357696176
230 275 18059562620657194417
23419403 2 17327413019088962762
23526113 38 17985853594519093742
2748010 2 17983014749858901387
298252 57 17605576528843550692
3060560 45 17774997990539451623
3248919 1 17967805029935142469
3250762 1 17409935060478017484
430814 3 17097216266588995724
5337951 7 17917156120816193720
58051976 378 18113907099841689855
7364860 26 18059284379711814019
81228 2 17401763524262440923

>  <PUBCHEM_SHAPE_MULTIPOLES>  (1) 
292.86
4.98
2.24
1.74
6.73
0.72
-0.15
-0.71
-0.24
-0.92
0.53
-1.16
-0.27
0.57

>  <PUBCHEM_SHAPE_SELFOVERLAP>  (1) 
550.465

>  <PUBCHEM_SHAPE_VOLUME>  (1) 
183.6

>  <PUBCHEM_COORDINATE_TYPE>  (1) 
2
5
10

$$$$
