19152
     RDKit          3D

 24 25  0  0  0  0  0  0  0  0999 V2000
   -0.5096    1.4380   -0.0079 O   0  0  0  0  0  0  0  0  0  0  0  0
    1.3597    2.2476   -1.0801 O   0  0  0  0  0  0  0  0  0  0  0  0
   -4.6941    0.7889   -0.1362 N   0  0  0  0  0  0  0  0  0  0  0  0
   -3.3059    0.9078   -0.5651 C   0  0  0  0  0  0  0  0  0  0  0  0
   -2.7476    2.2738   -0.1792 C   0  0  0  0  0  0  0  0  0  0  0  0
   -5.3920   -0.2288   -0.9240 C   0  0  0  0  0  0  0  0  0  0  0  0
   -4.7673    0.4652    1.2897 C   0  0  0  0  0  0  0  0  0  0  0  0
    1.5593    0.3677    0.4698 C   0  0  0  0  0  0  0  0  0  0  0  0
   -1.3036    2.4361   -0.6342 C   0  0  0  0  0  0  0  0  0  0  0  0
    3.0728    0.4366    0.3112 C   0  0  0  0  0  0  0  0  0  0  0  0
    1.0244   -1.0376    0.2281 C   0  0  0  0  0  0  0  0  0  0  0  0
    0.8279    1.4502   -0.3179 C   0  0  0  0  0  0  0  0  0  0  0  0
   -4.7751   -1.6017   -0.7171 C   0  0  0  0  0  0  0  0  0  0  0  0
   -6.2089    0.4036    1.7653 C   0  0  0  0  0  0  0  0  0  0  0  0
    3.6995   -0.2701   -0.7153 C   0  0  0  0  0  0  0  0  0  0  0  0
    1.1009   -1.9962    1.2386 C   0  0  0  0  0  0  0  0  0  0  0  0
    3.8324    1.2068    1.1922 C   0  0  0  0  0  0  0  0  0  0  0  0
    0.4574   -1.3660   -1.0034 C   0  0  0  0  0  0  0  0  0  0  0  0
    5.0853   -0.2069   -0.8607 C   0  0  0  0  0  0  0  0  0  0  0  0
    0.6108   -3.2833    1.0175 C   0  0  0  0  0  0  0  0  0  0  0  0
    5.2181    1.2701    1.0466 C   0  0  0  0  0  0  0  0  0  0  0  0
   -0.0328   -2.6531   -1.2243 C   0  0  0  0  0  0  0  0  0  0  0  0
    5.8446    0.5631    0.0201 C   0  0  0  0  0  0  0  0  0  0  0  0
    0.0439   -3.6117   -0.2138 C   0  0  0  0  0  0  0  0  0  0  0  0
  1  9  1  0
  1 12  1  0
  2 12  2  0
  3  4  1  0
  3  6  1  0
  3  7  1  0
  4  5  1  0
  5  9  1  0
  6 13  1  0
  7 14  1  0
  8 10  1  0
  8 11  1  0
  8 12  1  0
 10 15  2  0
 10 17  1  0
 11 16  2  0
 11 18  1  0
 15 19  1  0
 16 20  1  0
 17 21  2  0
 18 22  2  0
 19 23  2  0
 20 24  2  0
 21 23  1  0
 22 24  1  0
M  END
>  <PUBCHEM_COMPOUND_CID>  (1) 
19152

>  <PUBCHEM_CONFORMER_RMSD>  (1) 
1

>  <PUBCHEM_CONFORMER_DIVERSEORDER>  (1) 
1
104
11
86
57
81
56
93
31
91
126
50
62
97
130
27
118
80
34
69
45
37
29
96
132
6
22
124
79
119
90
19
83
77
8
117
133
89
52
131
5
120
95
67
21
112
3
109
30
125
36
98
88
51
106
135
108
123
137
92
39
17
87
121
32
113
76
74
28
61
101
58
60
10
55
53
75
42
9
16
103
111
136
84
49
73
14
33
41
25
115
35
100
102
43
116
134
23
68
64
20
4
78
71
2
38
85
110
99
46
107
65
122
66
40
48
129
7
26
128
63
59
12
15
47
70
18
44
114
72
105
24
82
94
127
13
54

>  <PUBCHEM_MMFF94_PARTIAL_CHARGES>  (1) 
31
1 -0.43
10 -0.14
11 -0.14
12 0.66
15 -0.15
16 -0.15
17 -0.15
18 -0.15
19 -0.15
2 -0.57
20 -0.15
21 -0.15
22 -0.15
23 -0.15
24 -0.15
3 -0.81
4 0.27
42 0.15
43 0.15
44 0.15
45 0.15
46 0.15
47 0.15
48 0.15
49 0.15
50 0.15
51 0.15
6 0.27
7 0.27
8 0.35
9 0.28

>  <PUBCHEM_EFFECTIVE_ROTOR_COUNT>  (1) 
10

>  <PUBCHEM_PHARMACOPHORE_FEATURES>  (1) 
4
1 2 acceptor
1 3 cation
6 10 15 17 19 21 23 rings
6 11 16 18 20 22 24 rings

>  <PUBCHEM_HEAVY_ATOM_COUNT>  (1) 
24

>  <PUBCHEM_ATOM_DEF_STEREO_COUNT>  (1) 
0

>  <PUBCHEM_ATOM_UDEF_STEREO_COUNT>  (1) 
0

>  <PUBCHEM_BOND_DEF_STEREO_COUNT>  (1) 
0

>  <PUBCHEM_BOND_UDEF_STEREO_COUNT>  (1) 
0

>  <PUBCHEM_ISOTOPIC_ATOM_COUNT>  (1) 
0

>  <PUBCHEM_COMPONENT_COUNT>  (1) 
1

>  <PUBCHEM_CACTVS_TAUTO_COUNT>  (1) 
1

>  <PUBCHEM_CONFORMER_ID>  (1) 
00004AD000000001

>  <PUBCHEM_MMFF94_ENERGY>  (1) 
53.6402

>  <PUBCHEM_FEATURE_SELFOVERLAP>  (1) 
20.297

>  <PUBCHEM_SHAPE_FINGERPRINT>  (1) 
10906281 52 17896336748028297217
1100329 8 18264763449030338244
11421498 54 17417537899800255193
11488393 25 17984430633152588478
11578080 2 17098327593761383671
11963148 33 17967533493139190315
12596602 18 17489872644357956313
12838862 33 18267280146022301853
13140716 1 18264776639312786689
13257819 37 18189359930088811286
14765038 42 18200889421802078937
14787075 74 18201711898959269824
14790565 3 18337109076507725084
14840074 17 18410573990011005589
14863182 85 18261687977483950087
15475509 84 17319307792799668499
15537594 2 18410296891822149647
15849732 13 17748829622926465556
173720 79 18114732790261425306
17980427 23 17168153303496374269
19591789 44 18266452123250552246
20028762 73 18342453798245920279
20197701 30 18411693275472903460
20567600 347 18261395494770063506
20642791 13 17980182412765174466
21344244 181 18059590048587846758
21521721 280 18341337759731734200
21673915 165 18342171172460177245
22224240 67 18342455954609373617
22393880 68 18195244421113826596
22956985 138 17535463726068090338
23559900 14 17688855454680536795
3178227 256 18334867124953829489
3737641 26 18197787609078955867
392239 28 18343576360989567033
4258327 124 17969799656046108332
465052 167 17458632211276306544
469060 322 17822837780145266575
474229 33 18408318891203487812
5104073 3 18191866721446436249
58260988 647 17059514928233568718
59755656 215 18343303639002815663
6442390 28 18411976949578520590
6669772 16 18343301427918136614
81228 2 18191572259210788560

>  <PUBCHEM_SHAPE_MULTIPOLES>  (1) 
477.19
12.79
3.37
1.34
7.07
2.72
0.3
-4.74
2.44
0.33
-0.2
0.65
0.17
-0.06

>  <PUBCHEM_SHAPE_SELFOVERLAP>  (1) 
985.429

>  <PUBCHEM_SHAPE_VOLUME>  (1) 
273.1

>  <PUBCHEM_COORDINATE_TYPE>  (1) 
2
5
10

$$$$
