19159
     RDKit          3D

 21 22  0  0  1  0  0  0  0  0999 V2000
    2.8788    2.7106   -0.0804 N   0  0  0  0  0  0  0  0  0  0  0  0
    2.8384   -1.8060    1.9715 N   0  0  0  0  0  0  0  0  0  0  0  0
    1.4570   -0.9090   -0.1078 C   0  0  0  0  0  0  0  0  0  0  0  0
    1.5266   -2.0000   -1.2595 C   0  0  0  0  0  0  0  0  0  0  0  0
    2.1616    0.4143   -0.5778 C   0  0  0  0  0  0  0  0  0  0  0  0
   -0.0264   -0.6177    0.2207 C   0  0  0  0  0  0  0  0  0  0  0  0
    2.1983    1.5410    0.4692 C   0  0  0  0  0  0  0  0  0  0  0  0
    0.8818   -3.3421   -0.8643 C   0  0  0  0  0  0  0  0  0  0  0  0
    2.9469   -2.2790   -1.7816 C   0  0  0  0  0  0  0  0  0  0  0  0
   -0.8265   -0.1484   -0.7855 C   0  0  0  0  0  0  0  0  0  0  0  0
    2.2257   -1.4143    1.0664 C   0  0  0  0  0  0  0  0  0  0  0  0
   -0.4562   -0.8444    1.4963 C   0  0  0  0  0  0  0  0  0  0  0  0
   -2.1757    0.1211   -0.5034 C   0  0  0  0  0  0  0  0  0  0  0  0
   -2.6665   -0.0989    0.8057 C   0  0  0  0  0  0  0  0  0  0  0  0
   -1.7936   -0.5819    1.7941 C   0  0  0  0  0  0  0  0  0  0  0  0
    2.9583    3.7750    0.9203 C   0  0  0  0  0  0  0  0  0  0  0  0
    2.1902    3.1888   -1.2794 C   0  0  0  0  0  0  0  0  0  0  0  0
   -3.0484    0.6041   -1.4918 C   0  0  0  0  0  0  0  0  0  0  0  0
   -4.0157    0.1707    1.0878 C   0  0  0  0  0  0  0  0  0  0  0  0
   -4.3859    0.8664   -1.1939 C   0  0  0  0  0  0  0  0  0  0  0  0
   -4.8687    0.6501    0.0933 C   0  0  0  0  0  0  0  0  0  0  0  0
  1  7  1  0
  1 16  1  0
  1 17  1  0
  2 11  3  0
  3  4  1  0
  3  5  1  0
  3  6  1  0
  3 11  1  0
  4  8  1  0
  4  9  1  0
  5  7  1  0
  6 10  2  0
  6 12  1  0
 10 13  1  0
 12 15  2  0
 13 14  2  0
 13 18  1  0
 14 15  1  0
 14 19  1  0
 18 20  2  0
 19 21  2  0
 20 21  1  0
M  END
>  <PUBCHEM_COMPOUND_CID>  (1) 
19159

>  <PUBCHEM_CONFORMER_RMSD>  (1) 
0.8

>  <PUBCHEM_CONFORMER_DIVERSEORDER>  (1) 
1
29
7
36
27
14
24
32
31
18
12
34
26
22
17
28
33
13
11
8
21
2
23
30
16
35
19
10
25
15
20
5
6
3
9
4

>  <PUBCHEM_MMFF94_PARTIAL_CHARGES>  (1) 
22
1 -0.81
10 -0.15
11 0.36
12 -0.15
15 -0.15
16 0.27
17 0.27
18 -0.15
19 -0.15
2 -0.56
20 -0.15
21 -0.15
3 0.34
33 0.15
34 0.15
35 0.15
42 0.15
43 0.15
44 0.15
45 0.15
6 -0.14
7 0.27

>  <PUBCHEM_EFFECTIVE_ROTOR_COUNT>  (1) 
5

>  <PUBCHEM_PHARMACOPHORE_FEATURES>  (1) 
5
1 1 cation
1 2 acceptor
3 4 8 9 hydrophobe
6 13 14 18 19 20 21 rings
6 6 10 12 13 14 15 rings

>  <PUBCHEM_HEAVY_ATOM_COUNT>  (1) 
21

>  <PUBCHEM_ATOM_DEF_STEREO_COUNT>  (1) 
0

>  <PUBCHEM_ATOM_UDEF_STEREO_COUNT>  (1) 
1

>  <PUBCHEM_BOND_DEF_STEREO_COUNT>  (1) 
0

>  <PUBCHEM_BOND_UDEF_STEREO_COUNT>  (1) 
0

>  <PUBCHEM_ISOTOPIC_ATOM_COUNT>  (1) 
0

>  <PUBCHEM_COMPONENT_COUNT>  (1) 
1

>  <PUBCHEM_CACTVS_TAUTO_COUNT>  (1) 
1

>  <PUBCHEM_CONFORMER_ID>  (1) 
00004AD700000001

>  <PUBCHEM_MMFF94_ENERGY>  (1) 
68.5124

>  <PUBCHEM_FEATURE_SELFOVERLAP>  (1) 
25.399

>  <PUBCHEM_SHAPE_FINGERPRINT>  (1) 
10165383 225 17475001886440668092
108634 29 17325461342657453836
11578080 2 17898323655812779249
11640471 11 18057873830821009724
12633257 1 16806703244416964360
12707595 3 18263369083597644615
12788726 201 17112139538491714862
13134695 92 18044918118002340434
13583140 156 18040711459455359707
13681431 1 18268437845429030428
13899415 180 17980757143213035054
13911987 19 17978269064991451102
14115302 16 17346591946404458231
14142880 1 17688013628279757844
14178342 30 17024038253059685035
15238133 3 17537154744733428653
15295992 7 17822854165688229841
16945 1 18340206263450751943
17980427 23 17984387911270682826
1813 80 17414456999484322198
18186145 218 18115035108587712401
19786989 88 18412543228026101171
21304303 282 17125326432847618148
21524375 3 18049162473398423672
21860390 5 18338513045339716733
2255824 54 18131074783623450055
23419403 2 17181156231765870498
23557571 272 17750818707837756019
23558518 356 17831574654553937982
23559900 14 18343027653342786731
3060560 45 18343304743236906054
3286 77 17749946644571501931
474 4 18343016718065666937
495365 180 18409726279140852037
7364860 26 18342184349330222572
81228 2 17473263172194473536

>  <PUBCHEM_SHAPE_MULTIPOLES>  (1) 
422.21
7.36
3.59
1.8
8.13
2.14
-0.23
3.06
0.5
-6.23
0.71
-0.16
-0.52
0.8

>  <PUBCHEM_SHAPE_SELFOVERLAP>  (1) 
886.481

>  <PUBCHEM_SHAPE_VOLUME>  (1) 
237.9

>  <PUBCHEM_COORDINATE_TYPE>  (1) 
2
5
10

$$$$
