19168
     RDKit          3D

 17 19  0  0  0  0  0  0  0  0999 V2000
    5.0504   -0.2866    0.0015 O   0  0  0  0  0  0  0  0  0  0  0  0
    4.2471    1.7610   -0.0002 O   0  0  0  0  0  0  0  0  0  0  0  0
    4.0873    0.5170    0.0006 N   0  0  0  0  0  0  0  0  0  0  0  0
    0.3608    0.3728   -0.0003 C   0  0  0  0  0  0  0  0  0  0  0  0
    0.1498   -1.0235   -0.0003 C   0  0  0  0  0  0  0  0  0  0  0  0
   -2.0618    0.7390   -0.0001 C   0  0  0  0  0  0  0  0  0  0  0  0
   -2.2729   -0.6573    0.0001 C   0  0  0  0  0  0  0  0  0  0  0  0
   -0.7477    1.2358   -0.0003 C   0  0  0  0  0  0  0  0  0  0  0  0
   -1.1643   -1.5203   -0.0001 C   0  0  0  0  0  0  0  0  0  0  0  0
    1.6751    0.8688   -0.0005 C   0  0  0  0  0  0  0  0  0  0  0  0
    1.2588   -1.8858   -0.0005 C   0  0  0  0  0  0  0  0  0  0  0  0
    2.7655   -0.0013   -0.0005 C   0  0  0  0  0  0  0  0  0  0  0  0
   -3.1709    1.6013   -0.0001 C   0  0  0  0  0  0  0  0  0  0  0  0
   -3.5873   -1.1532    0.0005 C   0  0  0  0  0  0  0  0  0  0  0  0
    2.5576   -1.3769   -0.0005 C   0  0  0  0  0  0  0  0  0  0  0  0
   -4.4697    1.0924    0.0002 C   0  0  0  0  0  0  0  0  0  0  0  0
   -4.6777   -0.2832    0.0006 C   0  0  0  0  0  0  0  0  0  0  0  0
  1  3  1  0
  2  3  2  0
  3 12  1  0
  4  5  1  0
  4  8  2  0
  4 10  1  0
  5  9  2  0
  5 11  1  0
  6  7  2  0
  6  8  1  0
  6 13  1  0
  7  9  1  0
  7 14  1  0
 10 12  2  0
 11 15  2  0
 12 15  1  0
 13 16  2  0
 14 17  2  0
 16 17  1  0
M  CHG  2   1  -1   3   1
M  END
>  <PUBCHEM_COMPOUND_CID>  (1) 
19168

>  <PUBCHEM_CONFORMER_RMSD>  (1) 
0.6

>  <PUBCHEM_CONFORMER_DIVERSEORDER>  (1) 
1

>  <PUBCHEM_MMFF94_PARTIAL_CHARGES>  (1) 
22
1 -0.52
10 -0.15
11 -0.15
12 0.13
13 -0.15
14 -0.15
15 -0.15
16 -0.15
17 -0.15
18 0.15
19 0.15
2 -0.52
20 0.15
21 0.15
22 0.15
23 0.15
24 0.15
25 0.15
26 0.15
3 0.91
8 -0.15
9 -0.15

>  <PUBCHEM_EFFECTIVE_ROTOR_COUNT>  (1) 
1

>  <PUBCHEM_PHARMACOPHORE_FEATURES>  (1) 
6
1 1 acceptor
1 1 anion
1 2 acceptor
6 4 5 10 11 12 15 rings
6 4 5 6 7 8 9 rings
6 6 7 13 14 16 17 rings

>  <PUBCHEM_HEAVY_ATOM_COUNT>  (1) 
17

>  <PUBCHEM_ATOM_DEF_STEREO_COUNT>  (1) 
0

>  <PUBCHEM_ATOM_UDEF_STEREO_COUNT>  (1) 
0

>  <PUBCHEM_BOND_DEF_STEREO_COUNT>  (1) 
0

>  <PUBCHEM_BOND_UDEF_STEREO_COUNT>  (1) 
0

>  <PUBCHEM_ISOTOPIC_ATOM_COUNT>  (1) 
0

>  <PUBCHEM_COMPONENT_COUNT>  (1) 
1

>  <PUBCHEM_CACTVS_TAUTO_COUNT>  (1) 
1

>  <PUBCHEM_CONFORMER_ID>  (1) 
00004AE000000001

>  <PUBCHEM_MMFF94_ENERGY>  (1) 
56.1232

>  <PUBCHEM_FEATURE_SELFOVERLAP>  (1) 
30.577

>  <PUBCHEM_SHAPE_FINGERPRINT>  (1) 
10014705 185 18260544498935549181
10411042 1 17113538680398319490
10608611 8 18337951195198408101
10616163 171 18411983602372566575
10967382 1 18410573967982137959
11132069 177 18409728456435849121
11401426 45 18411416219959505047
11471102 20 18411697660307568991
12403814 3 17821443547998639181
13140716 1 17977955901497525227
13214271 11 18409729577965840367
13380535 76 18409168809291588714
14897335 6 18411136922225414263
15196674 1 18410856542586702823
15219456 202 18341334400935166735
15375358 24 18335422365593642603
15442244 35 18050848823281818283
15536298 74 18341896247023964158
16945 1 18338238279576389647
18186145 218 17968097465220350407
18522853 276 18411700984912884417
200 152 17988639696996799375
20510252 161 18271810081956653817
20645477 70 18200594683349679942
21267235 1 18410583880825043175
23402539 116 18342731931674316135
23402655 69 18270956852506971765
23463225 33 18336265656805207271
23559900 14 18270115687362467934
2748010 2 18338519638620651503
296302 2 18408042901110919783
335352 9 18194401087079046398
34934 24 18409442562518156527
3545911 37 18409732841861176469
4214541 1 18410575054714631713
474 4 17459195243103164476
4990 188 17988933249432076822
5104073 3 18409167684046737043
58051976 378 18341048532080259893
69090 78 18342736329752709415
7364860 26 18268993077342649310
77779 3 18411139112695548031
9709674 26 18411143527959403831

>  <PUBCHEM_SHAPE_MULTIPOLES>  (1) 
333.13
9.12
1.82
0.6
2.38
0.11
0
-2.1
0
0.08
0
-0.07
0.01
0

>  <PUBCHEM_SHAPE_SELFOVERLAP>  (1) 
752.686

>  <PUBCHEM_SHAPE_VOLUME>  (1) 
176.1

>  <PUBCHEM_COORDINATE_TYPE>  (1) 
2
5
10

$$$$
