19166
     RDKit          3D

  7  6  0  0  0  0  0  0  0  0999 V2000
    0.8207    1.5892    0.2119 O   0  0  0  0  0  0  0  0  0  0  0  0
    2.1434   -0.1708   -0.3422 O   0  0  0  0  0  0  0  0  0  0  0  0
   -1.4790    0.1280    0.5783 C   0  0  0  0  0  0  0  0  0  0  0  0
   -0.1774   -0.5270    0.1981 C   0  0  0  0  0  0  0  0  0  0  0  0
   -2.2877    0.5563   -0.6389 C   0  0  0  0  0  0  0  0  0  0  0  0
    1.0556    0.2750   -0.0106 C   0  0  0  0  0  0  0  0  0  0  0  0
   -0.0756   -1.8506    0.0034 C   0  0  0  0  0  0  0  0  0  0  0  0
  1  6  1  0
  2  6  2  0
  3  4  1  0
  3  5  1  0
  4  6  1  0
  4  7  2  0
M  END
>  <PUBCHEM_COMPOUND_CID>  (1) 
19166

>  <PUBCHEM_CONFORMER_RMSD>  (1) 
0.4

>  <PUBCHEM_CONFORMER_DIVERSEORDER>  (1) 
2
6
3
7
8
4
1
9
5

>  <PUBCHEM_MMFF94_PARTIAL_CHARGES>  (1) 
9
1 -0.65
13 0.15
14 0.15
15 0.5
2 -0.57
3 0.14
4 -0.12
6 0.71
7 -0.3

>  <PUBCHEM_EFFECTIVE_ROTOR_COUNT>  (1) 
2

>  <PUBCHEM_PHARMACOPHORE_FEATURES>  (1) 
5
1 1 acceptor
1 2 acceptor
1 5 hydrophobe
1 7 hydrophobe
3 1 2 6 anion

>  <PUBCHEM_HEAVY_ATOM_COUNT>  (1) 
7

>  <PUBCHEM_ATOM_DEF_STEREO_COUNT>  (1) 
0

>  <PUBCHEM_ATOM_UDEF_STEREO_COUNT>  (1) 
0

>  <PUBCHEM_BOND_DEF_STEREO_COUNT>  (1) 
0

>  <PUBCHEM_BOND_UDEF_STEREO_COUNT>  (1) 
0

>  <PUBCHEM_ISOTOPIC_ATOM_COUNT>  (1) 
0

>  <PUBCHEM_COMPONENT_COUNT>  (1) 
1

>  <PUBCHEM_CACTVS_TAUTO_COUNT>  (1) 
1

>  <PUBCHEM_CONFORMER_ID>  (1) 
00004ADE00000002

>  <PUBCHEM_MMFF94_ENERGY>  (1) 
7.5966

>  <PUBCHEM_FEATURE_SELFOVERLAP>  (1) 
25.43

>  <PUBCHEM_SHAPE_FINGERPRINT>  (1) 
16714656 1 18260839206147043708
20096714 4 18409449219205678009
21040471 1 18336825385211331730
24536 1 17630624507214293688
29004967 10 18338244743106466507
5084963 1 17968104161047640241

>  <PUBCHEM_SHAPE_MULTIPOLES>  (1) 
132.32
2.49
1.51
0.73
0.53
0.39
0
-0.63
-0.49
-0.24
0.04
0.2
-0.02
0.13

>  <PUBCHEM_SHAPE_SELFOVERLAP>  (1) 
246.354

>  <PUBCHEM_SHAPE_VOLUME>  (1) 
83.5

>  <PUBCHEM_COORDINATE_TYPE>  (1) 
2
5
10

$$$$
