19171
     RDKit          3D

 22 24  0  0  1  0  0  0  0  0999 V2000
   -2.7302    4.1885    1.4780 Cl  0  0  0  0  0  0  0  0  0  0  0  0
    3.8369    1.9013   -0.5239 N   0  0  0  0  0  0  0  0  0  0  0  0
    0.0223   -0.0799    0.4955 C   0  0  0  0  0  0  0  0  0  0  0  0
    1.2267    0.4592   -0.2920 C   0  0  0  0  0  0  0  0  0  0  0  0
   -1.2590    0.6714    0.1463 C   0  0  0  0  0  0  0  0  0  0  0  0
   -0.0243   -1.5985    0.5015 C   0  0  0  0  0  0  0  0  0  0  0  0
   -2.2318    0.2860   -0.7973 C   0  0  0  0  0  0  0  0  0  0  0  0
   -0.4199   -2.3575   -0.6112 C   0  0  0  0  0  0  0  0  0  0  0  0
   -2.2409   -0.9837   -1.6192 C   0  0  0  0  0  0  0  0  0  0  0  0
   -0.9203   -1.6986   -1.8644 C   0  0  0  0  0  0  0  0  0  0  0  0
    2.5368   -0.0053    0.3345 C   0  0  0  0  0  0  0  0  0  0  0  0
    3.7502    0.4687   -0.4586 C   0  0  0  0  0  0  0  0  0  0  0  0
   -1.4463    1.8986    0.8320 C   0  0  0  0  0  0  0  0  0  0  0  0
    0.4015   -2.2783    1.6606 C   0  0  0  0  0  0  0  0  0  0  0  0
   -3.3625    1.1179   -0.9842 C   0  0  0  0  0  0  0  0  0  0  0  0
   -0.3847   -3.7622   -0.5444 C   0  0  0  0  0  0  0  0  0  0  0  0
   -2.5605    2.7083    0.6198 C   0  0  0  0  0  0  0  0  0  0  0  0
    0.4296   -3.6716    1.7167 C   0  0  0  0  0  0  0  0  0  0  0  0
   -3.5254    2.3140   -0.2898 C   0  0  0  0  0  0  0  0  0  0  0  0
    0.0375   -4.4147    0.6116 C   0  0  0  0  0  0  0  0  0  0  0  0
    3.8112    2.5025    0.8191 C   0  0  0  0  0  0  0  0  0  0  0  0
    5.0530    2.3338   -1.2308 C   0  0  0  0  0  0  0  0  0  0  0  0
  1 17  1  0
  2 12  1  0
  2 21  1  0
  2 22  1  0
  3  4  1  0
  3  5  1  0
  3  6  1  0
  4 11  1  0
  5  7  2  0
  5 13  1  0
  6  8  2  0
  6 14  1  0
  7  9  1  0
  7 15  1  0
  8 10  1  0
  8 16  1  0
  9 10  1  0
 11 12  1  0
 13 17  2  0
 14 18  2  0
 15 19  2  0
 16 20  2  0
 17 19  1  0
 18 20  1  0
M  END
>  <PUBCHEM_COMPOUND_CID>  (1) 
19171

>  <PUBCHEM_CONFORMER_RMSD>  (1) 
0.8

>  <PUBCHEM_CONFORMER_DIVERSEORDER>  (1) 
2
13
9
8
11
12
10
5
7
3
1
4
6

>  <PUBCHEM_MMFF94_PARTIAL_CHARGES>  (1) 
27
1 -0.18
10 0.14
12 0.27
13 -0.15
14 -0.15
15 -0.15
16 -0.15
17 0.18
18 -0.15
19 -0.15
2 -0.81
20 -0.15
21 0.27
22 0.27
3 0.29
34 0.15
35 0.15
36 0.15
37 0.15
38 0.15
39 0.15
40 0.15
5 -0.14
6 -0.14
7 -0.14
8 -0.14
9 0.14

>  <PUBCHEM_EFFECTIVE_ROTOR_COUNT>  (1) 
4.6

>  <PUBCHEM_PHARMACOPHORE_FEATURES>  (1) 
4
1 2 cation
6 5 7 13 15 17 19 rings
6 6 8 14 16 18 20 rings
7 3 5 6 7 8 9 10 rings

>  <PUBCHEM_HEAVY_ATOM_COUNT>  (1) 
22

>  <PUBCHEM_ATOM_DEF_STEREO_COUNT>  (1) 
0

>  <PUBCHEM_ATOM_UDEF_STEREO_COUNT>  (1) 
1

>  <PUBCHEM_BOND_DEF_STEREO_COUNT>  (1) 
0

>  <PUBCHEM_BOND_UDEF_STEREO_COUNT>  (1) 
0

>  <PUBCHEM_ISOTOPIC_ATOM_COUNT>  (1) 
0

>  <PUBCHEM_COMPONENT_COUNT>  (1) 
1

>  <PUBCHEM_CACTVS_TAUTO_COUNT>  (1) 
1

>  <PUBCHEM_CONFORMER_ID>  (1) 
00004AE300000002

>  <PUBCHEM_MMFF94_ENERGY>  (1) 
67.1778

>  <PUBCHEM_FEATURE_SELFOVERLAP>  (1) 
20.312

>  <PUBCHEM_SHAPE_FINGERPRINT>  (1) 
10291535 26 18124873710421792144
10764073 3 17120641224522891018
10937287 8 18410855430280363644
12173636 292 18409445929366309028
12293681 160 18124007256413988365
12644460 14 17691982466145518841
12788726 201 18120366811937661546
13134695 92 17253432301677705517
13149001 5 17545292629753946279
133893 2 17974565793389606237
13583140 156 17610629609686749593
14787075 74 18337387266314222815
14790565 3 18339923826923762325
14955137 171 17977946778881967778
15463212 79 18337098042879179204
15842332 3 17841136767794257133
17980427 23 17192883334655648489
1813 80 16973397097137407558
20101258 96 17693108761221390660
20739085 24 17262153627930590027
21304303 282 17905004309758471916
21524375 3 18339643334945715376
22149856 69 16338628775959367697
2255824 54 18121497951677945546
22907989 373 17977118069305334596
23366157 5 17904206931973862189
23419403 2 17335680349934271831
23557571 272 18050577536515984932
23558518 356 18411416228797664742
25147074 1 17697864888094251325
283562 15 18410856607491039369
394222 165 18124882261337162209
4175511 71 17257371839097601531
474 4 18263643957246375744
484985 159 15624849173714420926
6786 2 17540026819122930638
81228 2 18123185976740822176
9981440 41 18337384959468620009

>  <PUBCHEM_SHAPE_MULTIPOLES>  (1) 
449.64
6.45
5.91
1.59
0.04
2.06
0.01
-10.16
-0.82
-4.24
1.39
0.18
0.56
-2.75

>  <PUBCHEM_SHAPE_SELFOVERLAP>  (1) 
944.721

>  <PUBCHEM_SHAPE_VOLUME>  (1) 
252.5

>  <PUBCHEM_COORDINATE_TYPE>  (1) 
2
5
10

$$$$
