19175
     RDKit          3D

 22 23  0  0  0  0  0  0  0  0999 V2000
   -0.1738    1.5005   -0.9886 S   0  0  0  0  0  0  0  0  0  0  0  0
    0.2992    0.9833   -2.2683 O   0  0  0  0  0  0  0  0  0  0  0  0
   -0.4457    2.9284   -0.8726 O   0  0  0  0  0  0  0  0  0  0  0  0
    3.0505   -0.2444   -1.1286 O   0  0  0  0  0  0  0  0  0  0  0  0
    1.4208    3.1327    1.1366 O   0  0  0  0  0  0  0  0  0  0  0  0
    0.9290    1.0139    0.2579 N   0  0  0  0  0  0  0  0  0  0  0  0
    0.4030   -1.0802    1.2090 N   0  0  0  0  0  0  0  0  0  0  0  0
    2.5142   -2.2898   -0.1858 N   0  0  0  0  0  0  0  0  0  0  0  0
   -5.1686   -1.3722    0.4794 N   0  0  0  0  0  0  0  0  0  0  0  0
   -1.6397    0.6562   -0.5572 C   0  0  0  0  0  0  0  0  0  0  0  0
    1.2110   -0.3961    0.3868 C   0  0  0  0  0  0  0  0  0  0  0  0
   -2.2059   -0.2573   -1.4464 C   0  0  0  0  0  0  0  0  0  0  0  0
   -2.2456    0.8959    0.6761 C   0  0  0  0  0  0  0  0  0  0  0  0
    1.5874    1.9146    1.1783 C   0  0  0  0  0  0  0  0  0  0  0  0
   -3.3777   -0.9311   -1.1023 C   0  0  0  0  0  0  0  0  0  0  0  0
   -3.4175    0.2220    1.0202 C   0  0  0  0  0  0  0  0  0  0  0  0
   -3.9836   -0.6915    0.1310 C   0  0  0  0  0  0  0  0  0  0  0  0
    2.2449   -0.9741   -0.2997 C   0  0  0  0  0  0  0  0  0  0  0  0
    2.5203    1.3229    2.2062 C   0  0  0  0  0  0  0  0  0  0  0  0
    0.6725   -2.3959    1.3230 C   0  0  0  0  0  0  0  0  0  0  0  0
    1.7095   -2.9900    0.6380 C   0  0  0  0  0  0  0  0  0  0  0  0
    4.0956   -0.9476   -1.7930 C   0  0  0  0  0  0  0  0  0  0  0  0
  1  2  2  0
  1  3  2  0
  1  6  1  0
  1 10  1  0
  4 18  1  0
  4 22  1  0
  5 14  2  0
  6 11  1  0
  6 14  1  0
  7 11  2  0
  7 20  1  0
  8 18  2  0
  8 21  1  0
  9 17  1  0
 10 12  2  0
 10 13  1  0
 11 18  1  0
 12 15  1  0
 13 16  2  0
 14 19  1  0
 15 17  2  0
 16 17  1  0
 20 21  2  0
M  END
>  <PUBCHEM_COMPOUND_CID>  (1) 
19175

>  <PUBCHEM_CONFORMER_RMSD>  (1) 
0.8

>  <PUBCHEM_CONFORMER_DIVERSEORDER>  (1) 
1
19
20
16
21
8
18
10
15
24
25
9
17
11
23
6
22
14
5
4
13
2
3
7
12

>  <PUBCHEM_MMFF94_PARTIAL_CHARGES>  (1) 
30
1 1.45
10 -0.01
11 0.51
12 -0.15
13 -0.15
14 0.75
15 -0.15
16 -0.15
17 0.1
18 0.39
19 0.06
2 -0.65
20 0.16
21 0.16
22 0.28
23 0.15
24 0.15
25 0.15
26 0.15
3 -0.65
30 0.15
31 0.15
32 0.4
33 0.4
4 -0.36
5 -0.57
6 -0.57
7 -0.62
8 -0.62
9 -0.9

>  <PUBCHEM_EFFECTIVE_ROTOR_COUNT>  (1) 
5

>  <PUBCHEM_PHARMACOPHORE_FEATURES>  (1) 
8
1 2 acceptor
1 3 acceptor
1 5 acceptor
1 7 acceptor
1 9 cation
1 9 donor
6 10 12 13 15 16 17 rings
6 7 8 11 18 20 21 rings

>  <PUBCHEM_HEAVY_ATOM_COUNT>  (1) 
22

>  <PUBCHEM_ATOM_DEF_STEREO_COUNT>  (1) 
0

>  <PUBCHEM_ATOM_UDEF_STEREO_COUNT>  (1) 
0

>  <PUBCHEM_BOND_DEF_STEREO_COUNT>  (1) 
0

>  <PUBCHEM_BOND_UDEF_STEREO_COUNT>  (1) 
0

>  <PUBCHEM_ISOTOPIC_ATOM_COUNT>  (1) 
0

>  <PUBCHEM_COMPONENT_COUNT>  (1) 
1

>  <PUBCHEM_CACTVS_TAUTO_COUNT>  (1) 
1

>  <PUBCHEM_CONFORMER_ID>  (1) 
00004AE700000001

>  <PUBCHEM_MMFF94_ENERGY>  (1) 
75.5053

>  <PUBCHEM_FEATURE_SELFOVERLAP>  (1) 
40.62

>  <PUBCHEM_SHAPE_FINGERPRINT>  (1) 
11067466 332 18040988544801017474
11578080 2 18265880376730017556
12035758 1 18267011942357347376
12467345 10 16917353662213649776
12553582 1 18271239418015284295
12596599 1 18060410326905605415
12778500 126 17702687509280939683
14178342 30 18194955477742836795
14251745 187 18336554927174063790
14787075 74 18341621438453669116
15209289 33 18413113870039089898
15375462 189 18340493244343219658
15848702 105 16516265044663544782
16945 1 18410000044392550128
17349148 13 17898016737909099962
17492 54 17024335061233081766
20645476 183 17110439697889197196
20645477 70 18128796673435656485
21452121 199 17460018596723191346
21731516 1 18269263569786862087
2255824 54 18343018934273903986
23419403 2 15946749752472387570
23559900 14 17169810203237236923
23598288 3 17908981002623960942
2748010 2 18045227299449119978
3323516 105 18343304781806883806
6669772 16 16372428102039345196
81228 2 17607222300156118221

>  <PUBCHEM_SHAPE_MULTIPOLES>  (1) 
413.2
6.63
3
1.86
5.56
0.4
0.22
-3.27
0.57
-1.93
-0.91
-1.04
0.4
0.78

>  <PUBCHEM_SHAPE_SELFOVERLAP>  (1) 
862.861

>  <PUBCHEM_SHAPE_VOLUME>  (1) 
235

>  <PUBCHEM_COORDINATE_TYPE>  (1) 
2
5
10

$$$$
