19186
     RDKit          3D

 14 15  0  0  0  0  0  0  0  0999 V2000
    4.7489    0.9763    0.0019 O   0  0  0  0  0  0  0  0  0  0  0  0
   -0.0273   -0.0952   -0.0004 C   0  0  0  0  0  0  0  0  0  0  0  0
   -1.4717   -0.0082    0.0002 C   0  0  0  0  0  0  0  0  0  0  0  0
    2.7573   -0.2642   -0.0006 C   0  0  0  0  0  0  0  0  0  0  0  0
    0.6687   -0.1355   -1.2084 C   0  0  0  0  0  0  0  0  0  0  0  0
    0.6688   -0.1393    1.2077 C   0  0  0  0  0  0  0  0  0  0  0  0
    2.0610   -0.2202   -1.2086 C   0  0  0  0  0  0  0  0  0  0  0  0
    2.0611   -0.2239    1.2075 C   0  0  0  0  0  0  0  0  0  0  0  0
   -2.0951    1.2398    0.0014 C   0  0  0  0  0  0  0  0  0  0  0  0
   -2.2408   -1.1719   -0.0012 C   0  0  0  0  0  0  0  0  0  0  0  0
    4.2460   -0.3542   -0.0004 C   0  0  0  0  0  0  0  0  0  0  0  0
   -3.4874    1.3239    0.0016 C   0  0  0  0  0  0  0  0  0  0  0  0
   -3.6332   -1.0876   -0.0011 C   0  0  0  0  0  0  0  0  0  0  0  0
   -4.2564    0.1603    0.0003 C   0  0  0  0  0  0  0  0  0  0  0  0
  1 11  1  0
  2  3  1  0
  2  5  2  0
  2  6  1  0
  3  9  2  0
  3 10  1  0
  4  7  2  0
  4  8  1  0
  4 11  1  0
  5  7  1  0
  6  8  2  0
  9 12  1  0
 10 13  2  0
 12 14  2  0
 13 14  1  0
M  END
>  <PUBCHEM_COMPOUND_CID>  (1) 
19186

>  <PUBCHEM_CONFORMER_RMSD>  (1) 
0.6

>  <PUBCHEM_CONFORMER_DIVERSEORDER>  (1) 
1
2

>  <PUBCHEM_MMFF94_PARTIAL_CHARGES>  (1) 
22
1 -0.68
10 -0.15
11 0.42
12 -0.15
13 -0.15
14 -0.15
15 0.15
16 0.15
17 0.15
18 0.15
19 0.15
20 0.15
23 0.15
24 0.15
25 0.15
26 0.4
4 -0.14
5 -0.15
6 -0.15
7 -0.15
8 -0.15
9 -0.15

>  <PUBCHEM_EFFECTIVE_ROTOR_COUNT>  (1) 
2

>  <PUBCHEM_PHARMACOPHORE_FEATURES>  (1) 
4
1 1 acceptor
1 1 donor
6 2 4 5 6 7 8 rings
6 3 9 10 12 13 14 rings

>  <PUBCHEM_HEAVY_ATOM_COUNT>  (1) 
14

>  <PUBCHEM_ATOM_DEF_STEREO_COUNT>  (1) 
0

>  <PUBCHEM_ATOM_UDEF_STEREO_COUNT>  (1) 
0

>  <PUBCHEM_BOND_DEF_STEREO_COUNT>  (1) 
0

>  <PUBCHEM_BOND_UDEF_STEREO_COUNT>  (1) 
0

>  <PUBCHEM_ISOTOPIC_ATOM_COUNT>  (1) 
0

>  <PUBCHEM_COMPONENT_COUNT>  (1) 
1

>  <PUBCHEM_CACTVS_TAUTO_COUNT>  (1) 
1

>  <PUBCHEM_CONFORMER_ID>  (1) 
00004AF200000001

>  <PUBCHEM_MMFF94_ENERGY>  (1) 
44.0612

>  <PUBCHEM_FEATURE_SELFOVERLAP>  (1) 
20.297

>  <PUBCHEM_SHAPE_FINGERPRINT>  (1) 
11132069 177 16298386881291582098
11401426 45 16660358199140219830
11471102 20 15985103007430060018
12236239 1 17748826306794844731
124424 183 17774999059638278162
12500047 106 18343858909760725479
13581323 91 18409444778373141111
13675066 3 17313389989184585572
13760787 19 18342737416727705342
13760787 5 15841556267071479676
14144814 61 17458343013958583267
14252887 29 16153707579421028930
14911166 2 15697999652435496636
14943859 89 18409450271535995107
14993402 34 17385441024865650139
15219456 202 17703514298468601239
15309172 13 15719397222058151163
15653759 3 18131346414634922539
15775835 57 18040998406146155833
18175812 5 17775560966093884133
19026448 4 18343024376366811166
19026448 5 18334292055019014170
200 152 16443061721007541331
20201158 50 17203611467081331175
20279233 1 17703793608961201215
20645477 56 18340772538130808033
20645477 70 16773240574213395222
23402539 116 18411693288410533663
23402655 69 15936678307845990959
23557571 272 18272094872226298869
23559900 14 18201159828590350646
2748010 2 15624510584320668258
474 4 17314519325519335972
77492 1 17676207957452655907
77779 3 18411138026327311002

>  <PUBCHEM_SHAPE_MULTIPOLES>  (1) 
282.24
8.34
1.11
1.04
2.24
0.11
0
0.88
0
-0.88
0
0.59
-0.07
0

>  <PUBCHEM_SHAPE_SELFOVERLAP>  (1) 
609.458

>  <PUBCHEM_SHAPE_VOLUME>  (1) 
155.7

>  <PUBCHEM_COORDINATE_TYPE>  (1) 
2
5
10

$$$$
