19199
     RDKit          3D

 23 24  0  0  0  0  0  0  0  0999 V2000
   -1.5263   -3.4064    1.8102 Cl  0  0  0  0  0  0  0  0  0  0  0  0
   -3.7915   -3.0557    0.0631 Cl  0  0  0  0  0  0  0  0  0  0  0  0
   -1.2159   -3.6608   -1.0888 Cl  0  0  0  0  0  0  0  0  0  0  0  0
   -2.9776    2.8461   -1.8588 Cl  0  0  0  0  0  0  0  0  0  0  0  0
   -4.9669    1.3157   -0.4421 Cl  0  0  0  0  0  0  0  0  0  0  0  0
   -3.2639    3.1116    1.0416 Cl  0  0  0  0  0  0  0  0  0  0  0  0
    5.8808   -0.3211   -0.3990 O   0  0  0  0  0  0  0  0  0  0  0  0
    4.3552   -1.7899   -0.9769 O   0  0  0  0  0  0  0  0  0  0  0  0
   -0.9510    1.3200   -0.0326 N   0  0  0  0  0  0  0  0  0  0  0  0
   -0.3322   -0.9825    0.2381 N   0  0  0  0  0  0  0  0  0  0  0  0
   -2.6381   -0.3863   -0.0531 N   0  0  0  0  0  0  0  0  0  0  0  0
    4.6816   -0.6753   -0.5021 N   0  0  0  0  0  0  0  0  0  0  0  0
    1.3207    0.7140    0.2548 C   0  0  0  0  0  0  0  0  0  0  0  0
   -0.0692    0.3278    0.1474 C   0  0  0  0  0  0  0  0  0  0  0  0
    2.3217   -0.1588   -0.1722 C   0  0  0  0  0  0  0  0  0  0  0  0
    1.6603    1.9581    0.7865 C   0  0  0  0  0  0  0  0  0  0  0  0
   -2.2190    0.8874   -0.1242 C   0  0  0  0  0  0  0  0  0  0  0  0
   -1.6402   -1.2660    0.1290 C   0  0  0  0  0  0  0  0  0  0  0  0
    3.6621    0.2128   -0.0675 C   0  0  0  0  0  0  0  0  0  0  0  0
    3.0006    2.3295    0.8912 C   0  0  0  0  0  0  0  0  0  0  0  0
    4.0014    1.4570    0.4641 C   0  0  0  0  0  0  0  0  0  0  0  0
   -2.0242   -2.7037    0.2175 C   0  0  0  0  0  0  0  0  0  0  0  0
   -3.2686    1.9266   -0.3264 C   0  0  0  0  0  0  0  0  0  0  0  0
  1 22  1  0
  2 22  1  0
  3 22  1  0
  4 23  1  0
  5 23  1  0
  6 23  1  0
  7 12  1  0
  8 12  2  0
  9 14  2  0
  9 17  1  0
 10 14  1  0
 10 18  2  0
 11 17  2  0
 11 18  1  0
 12 19  1  0
 13 14  1  0
 13 15  2  0
 13 16  1  0
 15 19  1  0
 16 20  2  0
 17 23  1  0
 18 22  1  0
 19 21  2  0
 20 21  1  0
M  CHG  2   7  -1  12   1
M  END
>  <PUBCHEM_COMPOUND_CID>  (1) 
19199

>  <PUBCHEM_CONFORMER_RMSD>  (1) 
0.6

>  <PUBCHEM_CONFORMER_DIVERSEORDER>  (1) 
1
8
2
5
3
6
7
4

>  <PUBCHEM_MMFF94_PARTIAL_CHARGES>  (1) 
26
1 -0.29
10 -0.62
11 -0.62
12 0.91
14 0.62
15 -0.15
16 -0.15
17 0.48
18 0.48
19 0.13
2 -0.29
20 -0.15
21 -0.15
22 1.01
23 1.01
24 0.15
25 0.15
26 0.15
27 0.15
3 -0.29
4 -0.29
5 -0.29
6 -0.29
7 -0.52
8 -0.52
9 -0.62

>  <PUBCHEM_EFFECTIVE_ROTOR_COUNT>  (1) 
4

>  <PUBCHEM_PHARMACOPHORE_FEATURES>  (1) 
8
1 7 acceptor
1 7 anion
1 8 acceptor
3 10 11 18 cation
3 9 10 14 cation
3 9 11 17 cation
6 13 15 16 19 20 21 rings
6 9 10 11 14 17 18 rings

>  <PUBCHEM_HEAVY_ATOM_COUNT>  (1) 
23

>  <PUBCHEM_ATOM_DEF_STEREO_COUNT>  (1) 
0

>  <PUBCHEM_ATOM_UDEF_STEREO_COUNT>  (1) 
0

>  <PUBCHEM_BOND_DEF_STEREO_COUNT>  (1) 
0

>  <PUBCHEM_BOND_UDEF_STEREO_COUNT>  (1) 
0

>  <PUBCHEM_ISOTOPIC_ATOM_COUNT>  (1) 
0

>  <PUBCHEM_COMPONENT_COUNT>  (1) 
1

>  <PUBCHEM_CACTVS_TAUTO_COUNT>  (1) 
1

>  <PUBCHEM_CONFORMER_ID>  (1) 
00004AFF00000001

>  <PUBCHEM_MMFF94_ENERGY>  (1) 
56.9264

>  <PUBCHEM_FEATURE_SELFOVERLAP>  (1) 
43.46

>  <PUBCHEM_SHAPE_FINGERPRINT>  (1) 
10165383 225 18263369083982941997
105312 117 17969210153865742069
107951 10 18113625542765248195
10906281 52 17915759591242378324
1100329 8 16611956263019897840
11405975 8 18411417319761523912
11578080 2 16843584214296671075
12160290 23 18192968587216819683
12403259 415 18335693893658886517
12500047 106 18408882910862209380
12549972 3 17989196084061072800
12553582 1 17544482310885071046
12643181 29 18268153068319457918
12730499 353 18046338627482019405
12788726 201 18191292987125247811
13135754 10 17097241473878865283
13583140 156 17702938283536213584
13690498 29 18268446787804480374
14022347 108 17753315758853067067
14178342 30 18116694370281293512
14508225 48 18192140719422563437
14790565 3 17836375843311402624
15042514 8 18263649614361772419
15099037 51 18341049606096416268
15420108 30 15397409309430477840
18186145 218 18340196384815266944
19591789 44 18192991526378911953
200 152 16916779644050852684
20510252 161 18339637966547669801
20645477 56 18409165519399471937
20645477 70 17632295666690101060
20775438 99 16908291607963860469
21033648 29 18263349326743444797
21065198 57 18341894130048257384
21065201 7 18335411409485453224
21307412 95 17986127210101779446
21524375 3 18335981952925060265
221490 88 18268716181159148760
22943178 12 18270674380950382720
23557571 272 18192424397105917568
23558518 356 18263080066584028514
23559900 14 18343299241937576928
23845131 108 18194131707822550569
3084891 72 18198058067338166256
3091708 16 9199156934526687177
3298306 158 18192989314281013159
350125 39 18410295770672233193
3729539 64 17905051348230196566
3759504 43 18041001700454643651
4015057 19 17917415541231350400
4214541 1 18411136952569825120
5104073 3 18343017835274155416
532947 4 17983019946669661615
559249 180 18335697205347365698
58051976 100 18409164419839864710
59755656 215 18339923723786109543
59755656 520 18339642227382346733
6138700 20 17982454789472328278
621550 34 17696184090727780192
633830 44 18057315102958077869
7164475 11 18191869148071043173
7399639 24 17695616738617600704
81228 2 18117839022073333521
9709674 26 18341046440631484104
9981440 41 16767557396073013080

>  <PUBCHEM_SHAPE_MULTIPOLES>  (1) 
452.89
9.64
4.65
1.19
10.37
2.56
0.01
-1.82
1.63
-5.6
-0.26
-0.53
0.04
1.63

>  <PUBCHEM_SHAPE_SELFOVERLAP>  (1) 
910.507

>  <PUBCHEM_SHAPE_VOLUME>  (1) 
266.1

>  <PUBCHEM_COORDINATE_TYPE>  (1) 
2
5
10

$$$$
