19194
     RDKit          3D

 10 10  0  0  0  0  0  0  0  0999 V2000
   -0.0004    0.6401   -0.5106 N   0  0  0  0  0  0  0  0  0  0  0  0
    1.1993   -1.3304    0.1492 N   0  0  0  0  0  0  0  0  0  0  0  0
   -1.2003   -1.3311    0.1470 N   0  0  0  0  0  0  0  0  0  0  0  0
   -2.4133    0.6484   -0.5128 C   0  0  0  0  0  0  0  0  0  0  0  0
    2.4129    0.6473   -0.5135 C   0  0  0  0  0  0  0  0  0  0  0  0
   -1.1226   -0.0597   -0.2779 C   0  0  0  0  0  0  0  0  0  0  0  0
    1.1216   -0.0590   -0.2759 C   0  0  0  0  0  0  0  0  0  0  0  0
   -2.9217    1.3744    0.7285 C   0  0  0  0  0  0  0  0  0  0  0  0
    2.9249    1.3727    0.7266 C   0  0  0  0  0  0  0  0  0  0  0  0
   -0.0004   -1.9027    0.3393 C   0  0  0  0  0  0  0  0  0  0  0  0
  1  6  2  0
  1  7  1  0
  2  7  2  0
  2 10  1  0
  3  6  1  0
  3 10  2  0
  4  6  1  0
  4  8  1  0
  5  7  1  0
  5  9  1  0
M  END
>  <PUBCHEM_COMPOUND_CID>  (1) 
19194

>  <PUBCHEM_CONFORMER_RMSD>  (1) 
0.4

>  <PUBCHEM_CONFORMER_DIVERSEORDER>  (1) 
1
7
5
8
4
6
2
3
9
10

>  <PUBCHEM_MMFF94_PARTIAL_CHARGES>  (1) 
9
1 -0.62
10 0.47
2 -0.62
21 0.15
3 -0.62
4 0.14
5 0.14
6 0.48
7 0.48

>  <PUBCHEM_EFFECTIVE_ROTOR_COUNT>  (1) 
2

>  <PUBCHEM_PHARMACOPHORE_FEATURES>  (1) 
6
1 8 hydrophobe
1 9 hydrophobe
3 1 2 7 cation
3 1 3 6 cation
3 2 3 10 cation
6 1 2 3 6 7 10 rings

>  <PUBCHEM_HEAVY_ATOM_COUNT>  (1) 
10

>  <PUBCHEM_ATOM_DEF_STEREO_COUNT>  (1) 
0

>  <PUBCHEM_ATOM_UDEF_STEREO_COUNT>  (1) 
0

>  <PUBCHEM_BOND_DEF_STEREO_COUNT>  (1) 
0

>  <PUBCHEM_BOND_UDEF_STEREO_COUNT>  (1) 
0

>  <PUBCHEM_ISOTOPIC_ATOM_COUNT>  (1) 
0

>  <PUBCHEM_COMPONENT_COUNT>  (1) 
1

>  <PUBCHEM_CACTVS_TAUTO_COUNT>  (1) 
4

>  <PUBCHEM_CONFORMER_ID>  (1) 
00004AFA00000001

>  <PUBCHEM_MMFF94_ENERGY>  (1) 
11.8028

>  <PUBCHEM_FEATURE_SELFOVERLAP>  (1) 
33.219

>  <PUBCHEM_SHAPE_FINGERPRINT>  (1) 
10857977 72 16951144884477329905
14325111 11 18410011039508957925
14390081 3 18272930535470489769
15775835 57 18200600198409389169
20645464 45 18342176721568492540
20653085 51 17417544552488512961
21040471 1 18334580161124588526
2748010 2 18334584533322466927

>  <PUBCHEM_SHAPE_MULTIPOLES>  (1) 
190.85
4.2
1.8
0.82
0.01
0.6
-0.04
-2.86
-0.58
0
-0.42
0
-0.17
0

>  <PUBCHEM_SHAPE_SELFOVERLAP>  (1) 
379.867

>  <PUBCHEM_SHAPE_VOLUME>  (1) 
110.7

>  <PUBCHEM_COORDINATE_TYPE>  (1) 
2
5
10

$$$$
