19207
     RDKit          3D

 24 26  0  0  0  0  0  0  0  0999 V2000
   -2.2618   -3.7297   -1.6005 Cl  0  0  0  0  0  0  0  0  0  0  0  0
    0.1489   -4.4434   -0.1912 Cl  0  0  0  0  0  0  0  0  0  0  0  0
   -2.2282   -3.8275    1.3243 Cl  0  0  0  0  0  0  0  0  0  0  0  0
    5.8754    1.4958   -0.0481 O   0  0  0  0  0  0  0  0  0  0  0  0
   -0.3944    0.7425    0.0046 N   0  0  0  0  0  0  0  0  0  0  0  0
    0.3382   -1.5404   -0.0908 N   0  0  0  0  0  0  0  0  0  0  0  0
   -2.0067   -1.0341   -0.0392 N   0  0  0  0  0  0  0  0  0  0  0  0
    1.9169    0.2252   -0.0455 C   0  0  0  0  0  0  0  0  0  0  0  0
    0.5460   -0.2146   -0.0443 C   0  0  0  0  0  0  0  0  0  0  0  0
   -1.6415    0.2538    0.0037 C   0  0  0  0  0  0  0  0  0  0  0  0
   -2.7132    1.2247    0.0561 C   0  0  0  0  0  0  0  0  0  0  0  0
    2.2600    1.4587   -0.6072 C   0  0  0  0  0  0  0  0  0  0  0  0
    2.9147   -0.5780    0.5155 C   0  0  0  0  0  0  0  0  0  0  0  0
   -0.9619   -1.8762   -0.0853 C   0  0  0  0  0  0  0  0  0  0  0  0
    4.5796    1.0798   -0.0472 C   0  0  0  0  0  0  0  0  0  0  0  0
    3.5882    1.8850   -0.6082 C   0  0  0  0  0  0  0  0  0  0  0  0
    4.2428   -0.1518    0.5146 C   0  0  0  0  0  0  0  0  0  0  0  0
   -2.5353    2.4904   -0.5026 C   0  0  0  0  0  0  0  0  0  0  0  0
   -3.9242    0.8950    0.6648 C   0  0  0  0  0  0  0  0  0  0  0  0
   -3.5682    3.4264   -0.4525 C   0  0  0  0  0  0  0  0  0  0  0  0
   -4.9572    1.8310    0.7147 C   0  0  0  0  0  0  0  0  0  0  0  0
   -1.2772   -3.3327   -0.1338 C   0  0  0  0  0  0  0  0  0  0  0  0
   -4.7792    3.0967    0.1561 C   0  0  0  0  0  0  0  0  0  0  0  0
    6.8380    0.6234    0.5420 C   0  0  0  0  0  0  0  0  0  0  0  0
  1 22  1  0
  2 22  1  0
  3 22  1  0
  4 15  1  0
  4 24  1  0
  5  9  2  0
  5 10  1  0
  6  9  1  0
  6 14  2  0
  7 10  2  0
  7 14  1  0
  8  9  1  0
  8 12  2  0
  8 13  1  0
 10 11  1  0
 11 18  2  0
 11 19  1  0
 12 16  1  0
 13 17  2  0
 14 22  1  0
 15 16  2  0
 15 17  1  0
 18 20  1  0
 19 21  2  0
 20 23  2  0
 21 23  1  0
M  END
>  <PUBCHEM_COMPOUND_CID>  (1) 
19207

>  <PUBCHEM_CONFORMER_RMSD>  (1) 
0.8

>  <PUBCHEM_CONFORMER_DIVERSEORDER>  (1) 
1
2
3

>  <PUBCHEM_MMFF94_PARTIAL_CHARGES>  (1) 
31
1 -0.29
10 0.62
12 -0.15
13 -0.15
14 0.48
15 0.08
16 -0.15
17 -0.15
18 -0.15
19 -0.15
2 -0.29
20 -0.15
21 -0.15
22 1.01
23 -0.15
24 0.28
25 0.15
26 0.15
27 0.15
28 0.15
29 0.15
3 -0.29
30 0.15
31 0.15
32 0.15
33 0.15
4 -0.36
5 -0.62
6 -0.62
7 -0.62
9 0.62

>  <PUBCHEM_EFFECTIVE_ROTOR_COUNT>  (1) 
4

>  <PUBCHEM_PHARMACOPHORE_FEATURES>  (1) 
7
1 4 acceptor
3 5 6 9 cation
3 5 7 10 cation
3 6 7 14 cation
6 11 18 19 20 21 23 rings
6 5 6 7 9 10 14 rings
6 8 12 13 15 16 17 rings

>  <PUBCHEM_HEAVY_ATOM_COUNT>  (1) 
24

>  <PUBCHEM_ATOM_DEF_STEREO_COUNT>  (1) 
0

>  <PUBCHEM_ATOM_UDEF_STEREO_COUNT>  (1) 
0

>  <PUBCHEM_BOND_DEF_STEREO_COUNT>  (1) 
0

>  <PUBCHEM_BOND_UDEF_STEREO_COUNT>  (1) 
0

>  <PUBCHEM_ISOTOPIC_ATOM_COUNT>  (1) 
0

>  <PUBCHEM_COMPONENT_COUNT>  (1) 
1

>  <PUBCHEM_CACTVS_TAUTO_COUNT>  (1) 
1

>  <PUBCHEM_CONFORMER_ID>  (1) 
00004B0700000001

>  <PUBCHEM_MMFF94_ENERGY>  (1) 
74.1135

>  <PUBCHEM_FEATURE_SELFOVERLAP>  (1) 
38.304

>  <PUBCHEM_SHAPE_FINGERPRINT>  (1) 
10165383 225 18343306938123722593
10411042 1 17834396005259225011
10493431 412 18409730638305901553
12107183 9 18263352604662393410
12160290 23 18054819374855737743
12173636 292 18410570704002354125
12390115 104 18270695189866582169
12553582 1 17690000454444776706
12788726 201 17901404598778113838
13004483 165 17979913044790100959
13140716 1 17976547427054929715
13583140 156 17775000258730433370
13590594 115 17907299107250029667
138480 1 17401487044321853447
13955234 65 17832997048906230385
14178342 30 18263910207165045314
14508225 48 17910379921101939479
14790565 3 18339366253626109784
14844126 61 18265613371603206930
14856354 85 16226345745863959000
14866123 147 18338796818197796275
15042514 8 18263933313804559731
15131766 46 15576709333414405524
15230672 131 18336552613073584046
15439362 3 18124877859106524758
15927050 60 18340486673149531558
16087824 20 18340203099210075895
17539 30 18127965524028240991
17913733 40 18197797530690884769
18785283 64 18048316635244911139
19301679 30 18192439777711807330
20101258 96 17976831096337734217
204376 136 18339925909618592281
21033648 29 18341883074618393392
21236236 1 18341894134184774135
21421861 104 17677881350427131936
21756936 100 18341606023336028132
22224240 67 18341339920791192265
23558518 356 17972040511691759488
23559900 14 17616249187851640825
23929065 36 17984678242100381202
255183 313 18200049459448910875
3091708 16 9268684543518941595
335352 9 18338235947810048990
3610482 184 17896619430386184340
38695281 34 18267302036753087075
5104073 3 17972049041877092553
532947 4 18052542066999478518
5385378 56 18196380208267752889
58260988 114 16515973686513432346
59755656 520 18410006620161729412
6327066 14 18336541629755446861
633830 44 18056478348876109309
6669772 16 18130230328660176454
7364860 26 17835801894304912415
7399639 24 18117850898038091621
77188 2 17474388453552555791
7808743 9 18410011065711739688
7970288 3 8718528511383110688
79837 15 18335709334065542875
81228 2 18051396659762185851
9981440 41 18336552603765900241

>  <PUBCHEM_SHAPE_MULTIPOLES>  (1) 
478.71
11.34
5.46
0.94
15.31
6.18
0.06
-11.97
-1.98
-7
0.7
-0.44
0.61
-0.45

>  <PUBCHEM_SHAPE_SELFOVERLAP>  (1) 
1014.768

>  <PUBCHEM_SHAPE_VOLUME>  (1) 
267.7

>  <PUBCHEM_COORDINATE_TYPE>  (1) 
2
5
10

$$$$
