19201
     RDKit          3D

 14 14  0  0  0  0  0  0  0  0999 V2000
   -3.3925    0.0482    1.4661 Cl  0  0  0  0  0  0  0  0  0  0  0  0
   -2.2781    2.2622   -0.0046 Cl  0  0  0  0  0  0  0  0  0  0  0  0
   -3.3950    0.0353   -1.4605 Cl  0  0  0  0  0  0  0  0  0  0  0  0
    3.3928    0.0476   -1.4657 Cl  0  0  0  0  0  0  0  0  0  0  0  0
    2.2786    2.2624    0.0041 Cl  0  0  0  0  0  0  0  0  0  0  0  0
    3.3943    0.0353    1.4609 Cl  0  0  0  0  0  0  0  0  0  0  0  0
   -0.0003    0.4506   -0.0001 N   0  0  0  0  0  0  0  0  0  0  0  0
    1.1999   -1.6272    0.0016 N   0  0  0  0  0  0  0  0  0  0  0  0
   -1.1997   -1.6276   -0.0017 N   0  0  0  0  0  0  0  0  0  0  0  0
   -1.1223   -0.2871   -0.0016 C   0  0  0  0  0  0  0  0  0  0  0  0
    1.1219   -0.2867    0.0014 C   0  0  0  0  0  0  0  0  0  0  0  0
   -2.4131    0.4587   -0.0004 C   0  0  0  0  0  0  0  0  0  0  0  0
    2.4131    0.4588    0.0004 C   0  0  0  0  0  0  0  0  0  0  0  0
    0.0003   -2.2305    0.0000 C   0  0  0  0  0  0  0  0  0  0  0  0
  1 12  1  0
  2 12  1  0
  3 12  1  0
  4 13  1  0
  5 13  1  0
  6 13  1  0
  7 10  2  0
  7 11  1  0
  8 11  2  0
  8 14  1  0
  9 10  1  0
  9 14  2  0
 10 12  1  0
 11 13  1  0
M  END
>  <PUBCHEM_COMPOUND_CID>  (1) 
19201

>  <PUBCHEM_CONFORMER_RMSD>  (1) 
0.6

>  <PUBCHEM_CONFORMER_DIVERSEORDER>  (1) 
1
3
2

>  <PUBCHEM_MMFF94_PARTIAL_CHARGES>  (1) 
15
1 -0.29
10 0.48
11 0.48
12 1.01
13 1.01
14 0.47
15 0.15
2 -0.29
3 -0.29
4 -0.29
5 -0.29
6 -0.29
7 -0.62
8 -0.62
9 -0.62

>  <PUBCHEM_EFFECTIVE_ROTOR_COUNT>  (1) 
2

>  <PUBCHEM_PHARMACOPHORE_FEATURES>  (1) 
4
3 7 8 11 cation
3 7 9 10 cation
3 8 9 14 cation
6 7 8 9 10 11 14 rings

>  <PUBCHEM_HEAVY_ATOM_COUNT>  (1) 
14

>  <PUBCHEM_ATOM_DEF_STEREO_COUNT>  (1) 
0

>  <PUBCHEM_ATOM_UDEF_STEREO_COUNT>  (1) 
0

>  <PUBCHEM_BOND_DEF_STEREO_COUNT>  (1) 
0

>  <PUBCHEM_BOND_UDEF_STEREO_COUNT>  (1) 
0

>  <PUBCHEM_ISOTOPIC_ATOM_COUNT>  (1) 
0

>  <PUBCHEM_COMPONENT_COUNT>  (1) 
1

>  <PUBCHEM_CACTVS_TAUTO_COUNT>  (1) 
1

>  <PUBCHEM_CONFORMER_ID>  (1) 
00004B0100000001

>  <PUBCHEM_MMFF94_ENERGY>  (1) 
24.1202

>  <PUBCHEM_FEATURE_SELFOVERLAP>  (1) 
23.07

>  <PUBCHEM_SHAPE_FINGERPRINT>  (1) 
11132069 177 18202281428997221737
11543360 7 15697710497408323297
12251169 10 18261382378087303512
124424 183 17458610182204149584
12932764 1 18411140233639775269
13380535 76 18410562994330634371
13538477 17 18114457976420418002
13583140 156 17240754133708854737
13705890 14 15769772464097505270
14144814 61 18408603656209614880
14289901 80 15647341865429314561
15309172 13 18409737265751506939
16945 1 18410573989446548358
18186145 218 18060706065304766440
20233049 118 18261398828070834828
20645476 183 17604154838765713670
20653085 51 18059307542248700434
21524375 3 18334007276774856255
22802520 49 18128836289918588806
230 275 18341890779688598600
2334 1 17978227493210967076
23402539 116 18198879544015202405
23493267 7 17676782971710755608
23557571 272 17486757851785040622
23559900 14 18270977816938578780
2748010 2 18123471853974562926
305870 269 18265324010966008410
633830 44 18272942625956370037
7364860 26 17984978189789902038
74978 22 18337107977312075516
8030462 33 18339077086520389693
81228 2 17909267232045468235

>  <PUBCHEM_SHAPE_MULTIPOLES>  (1) 
284.39
6.26
2.12
1.29
0
0.29
0
1.66
0
0
0
0
0
-0.01

>  <PUBCHEM_SHAPE_SELFOVERLAP>  (1) 
526.525

>  <PUBCHEM_SHAPE_VOLUME>  (1) 
174.4

>  <PUBCHEM_COORDINATE_TYPE>  (1) 
2
5
10

$$$$
