19200
     RDKit          3D

 20 21  0  0  0  0  0  0  0  0999 V2000
    1.0201    3.7117   -0.7127 Cl  0  0  0  0  0  0  0  0  0  0  0  0
    2.2808    2.8918    1.8006 Cl  0  0  0  0  0  0  0  0  0  0  0  0
    3.5882    2.3982   -0.7233 Cl  0  0  0  0  0  0  0  0  0  0  0  0
    1.0189   -3.7129    0.7108 Cl  0  0  0  0  0  0  0  0  0  0  0  0
    2.2786   -2.8900   -1.8020 Cl  0  0  0  0  0  0  0  0  0  0  0  0
    3.5877   -2.4007    0.7218 Cl  0  0  0  0  0  0  0  0  0  0  0  0
   -0.1073   -1.1989   -0.0428 N   0  0  0  0  0  0  0  0  0  0  0  0
   -0.1070    1.1991    0.0453 N   0  0  0  0  0  0  0  0  0  0  0  0
    1.9708   -0.0002    0.0005 N   0  0  0  0  0  0  0  0  0  0  0  0
   -4.9448    0.0003   -0.0013 N   0  0  0  0  0  0  0  0  0  0  0  0
   -0.7031    0.0001    0.0015 C   0  0  0  0  0  0  0  0  0  0  0  0
   -2.1495    0.0005    0.0009 C   0  0  0  0  0  0  0  0  0  0  0  0
    1.2332   -1.1214   -0.0403 C   0  0  0  0  0  0  0  0  0  0  0  0
    1.2336    1.1212    0.0420 C   0  0  0  0  0  0  0  0  0  0  0  0
    1.9800    2.4108    0.0881 C   0  0  0  0  0  0  0  0  0  0  0  0
    1.9790   -2.4114   -0.0886 C   0  0  0  0  0  0  0  0  0  0  0  0
   -2.8480   -1.0625    0.5628 C   0  0  0  0  0  0  0  0  0  0  0  0
   -2.8472    1.0634   -0.5620 C   0  0  0  0  0  0  0  0  0  0  0  0
   -4.2325   -1.0150    0.5366 C   0  0  0  0  0  0  0  0  0  0  0  0
   -4.2317    1.0158   -0.5379 C   0  0  0  0  0  0  0  0  0  0  0  0
  1 15  1  0
  2 15  1  0
  3 15  1  0
  4 16  1  0
  5 16  1  0
  6 16  1  0
  7 11  2  0
  7 13  1  0
  8 11  1  0
  8 14  2  0
  9 13  2  0
  9 14  1  0
 10 19  2  0
 10 20  1  0
 11 12  1  0
 12 17  2  0
 12 18  1  0
 13 16  1  0
 14 15  1  0
 17 19  1  0
 18 20  2  0
M  END
>  <PUBCHEM_COMPOUND_CID>  (1) 
19200

>  <PUBCHEM_CONFORMER_RMSD>  (1) 
0.6

>  <PUBCHEM_CONFORMER_DIVERSEORDER>  (1) 
1
6
3
4
2
5

>  <PUBCHEM_MMFF94_PARTIAL_CHARGES>  (1) 
23
1 -0.29
10 -0.62
11 0.62
13 0.48
14 0.48
15 1.01
16 1.01
17 -0.15
18 -0.15
19 0.16
2 -0.29
20 0.16
21 0.15
22 0.15
23 0.15
24 0.15
3 -0.29
4 -0.29
5 -0.29
6 -0.29
7 -0.62
8 -0.62
9 -0.62

>  <PUBCHEM_EFFECTIVE_ROTOR_COUNT>  (1) 
3

>  <PUBCHEM_PHARMACOPHORE_FEATURES>  (1) 
6
1 10 acceptor
3 7 8 11 cation
3 7 9 13 cation
3 8 9 14 cation
6 10 12 17 18 19 20 rings
6 7 8 9 11 13 14 rings

>  <PUBCHEM_HEAVY_ATOM_COUNT>  (1) 
20

>  <PUBCHEM_ATOM_DEF_STEREO_COUNT>  (1) 
0

>  <PUBCHEM_ATOM_UDEF_STEREO_COUNT>  (1) 
0

>  <PUBCHEM_BOND_DEF_STEREO_COUNT>  (1) 
0

>  <PUBCHEM_BOND_UDEF_STEREO_COUNT>  (1) 
0

>  <PUBCHEM_ISOTOPIC_ATOM_COUNT>  (1) 
0

>  <PUBCHEM_COMPONENT_COUNT>  (1) 
1

>  <PUBCHEM_CACTVS_TAUTO_COUNT>  (1) 
1

>  <PUBCHEM_CONFORMER_ID>  (1) 
00004B0000000001

>  <PUBCHEM_MMFF94_ENERGY>  (1) 
45.3144

>  <PUBCHEM_FEATURE_SELFOVERLAP>  (1) 
33.23

>  <PUBCHEM_SHAPE_FINGERPRINT>  (1) 
10608611 8 18334290972946010757
10967382 1 18409449197641144684
1100329 8 18409444826145757034
11578080 2 17096350761917177662
116883 192 17979635641294401812
12160290 23 16830081803522435926
12173636 292 17688872363925005677
12553582 1 17977680709715401851
12592029 89 18264211472987253928
12707595 3 18267029362291525287
12730499 353 18336837501910166411
12788726 201 17471578728575419395
12839892 36 17977651332170544763
13140716 1 18268419308160413610
13533116 47 18342460336066573281
13681431 1 18269846328245302042
138480 1 18336546002026105986
14022347 108 17834971766915045231
14252887 29 17915738674150727886
14790565 3 18191313882083977764
14955137 171 18201719531622459382
15442244 35 18267587897239878521
15502722 9 18410295830421863245
15927050 60 18195245753498206262
1813 80 17985273975492128791
18186145 218 17915469512839778857
18785283 64 18334863843656428017
19591789 44 17905052799717476556
20369508 70 18336259025492188527
20600515 1 17760068637079397104
20645477 70 18413387623129001687
20671657 53 18195529194894633819
21524375 3 17982174722964711348
21731228 192 18052808440823320480
221490 88 18334866017200361491
2255824 54 18410857646367197047
23366157 5 18113338613100164030
23419403 2 17898823822039541860
23557571 272 17694214470692781206
23559900 14 18334287657014675017
2748010 2 18334012800487537597
3060560 45 18339364192299894156
3071541 37 18335707182165666380
3091708 16 9433009880351931482
314173 41 18266466395131815495
352729 6 17760650669113526442
3886686 26 16100475535938992482
458136 41 18194139614007684577
495365 180 18340473543755500865
5104073 3 18409733963512260395
59755656 215 18262801912055088991
6138700 20 18410583886079736516
633830 44 17844532312724260629
6443956 14 18337110055918095140
7364860 26 18413671313744061440
7808743 9 17400640918527605064
81228 2 17476930056152169706
81539 233 18335984276048732476
8272917 22 18412270549173911957
84936 182 18273215330583742281
9709674 26 18334297604386136819
9841814 1 18263364702662405346

>  <PUBCHEM_SHAPE_MULTIPOLES>  (1) 
402.89
7.3
4.78
1.15
9.39
0
0
0
0
-6.15
0
-0.86
0
0.78

>  <PUBCHEM_SHAPE_SELFOVERLAP>  (1) 
802.192

>  <PUBCHEM_SHAPE_VOLUME>  (1) 
232.9

>  <PUBCHEM_COORDINATE_TYPE>  (1) 
2
5
10

$$$$
