19213
     RDKit          3D

 13 14  0  0  0  0  0  0  0  0999 V2000
    1.5269   -2.8082   -0.0002 Cl  0  0  0  0  0  0  0  0  0  0  0  0
   -3.4124    1.0166    0.0001 Cl  0  0  0  0  0  0  0  0  0  0  0  0
    2.9519   -0.3750    0.0003 N   0  0  0  0  0  0  0  0  0  0  0  0
    0.4598   -0.2074    0.0000 C   0  0  0  0  0  0  0  0  0  0  0  0
   -0.6732    0.6407    0.0000 C   0  0  0  0  0  0  0  0  0  0  0  0
    1.7438    0.3617    0.0000 C   0  0  0  0  0  0  0  0  0  0  0  0
    0.2756   -1.5996    0.0000 C   0  0  0  0  0  0  0  0  0  0  0  0
   -0.4889    2.0329    0.0000 C   0  0  0  0  0  0  0  0  0  0  0  0
   -1.9572    0.0715    0.0000 C   0  0  0  0  0  0  0  0  0  0  0  0
    1.9083    1.7472   -0.0001 C   0  0  0  0  0  0  0  0  0  0  0  0
    0.7941    2.5811   -0.0001 C   0  0  0  0  0  0  0  0  0  0  0  0
   -1.0072   -2.1478    0.0000 C   0  0  0  0  0  0  0  0  0  0  0  0
   -2.1214   -1.3139    0.0000 C   0  0  0  0  0  0  0  0  0  0  0  0
  1  7  1  0
  2  9  1  0
  3  6  1  0
  4  5  1  0
  4  6  2  0
  4  7  1  0
  5  8  2  0
  5  9  1  0
  6 10  1  0
  7 12  2  0
  8 11  1  0
  9 13  2  0
 10 11  2  0
 12 13  1  0
M  END
>  <PUBCHEM_COMPOUND_CID>  (1) 
19213

>  <PUBCHEM_CONFORMER_RMSD>  (1) 
0.4

>  <PUBCHEM_CONFORMER_DIVERSEORDER>  (1) 
1

>  <PUBCHEM_MMFF94_PARTIAL_CHARGES>  (1) 
18
1 -0.18
10 -0.15
11 -0.15
12 -0.15
13 -0.15
14 0.15
15 0.15
16 0.15
17 0.15
18 0.15
19 0.4
2 -0.18
20 0.4
3 -0.9
6 0.1
7 0.18
8 -0.15
9 0.18

>  <PUBCHEM_EFFECTIVE_ROTOR_COUNT>  (1) 
0

>  <PUBCHEM_PHARMACOPHORE_FEATURES>  (1) 
4
1 3 cation
1 3 donor
6 4 5 6 8 10 11 rings
6 4 5 7 9 12 13 rings

>  <PUBCHEM_HEAVY_ATOM_COUNT>  (1) 
13

>  <PUBCHEM_ATOM_DEF_STEREO_COUNT>  (1) 
0

>  <PUBCHEM_ATOM_UDEF_STEREO_COUNT>  (1) 
0

>  <PUBCHEM_BOND_DEF_STEREO_COUNT>  (1) 
0

>  <PUBCHEM_BOND_UDEF_STEREO_COUNT>  (1) 
0

>  <PUBCHEM_ISOTOPIC_ATOM_COUNT>  (1) 
0

>  <PUBCHEM_COMPONENT_COUNT>  (1) 
1

>  <PUBCHEM_CACTVS_TAUTO_COUNT>  (1) 
1

>  <PUBCHEM_CONFORMER_ID>  (1) 
00004B0D00000001

>  <PUBCHEM_MMFF94_ENERGY>  (1) 
56.0334

>  <PUBCHEM_FEATURE_SELFOVERLAP>  (1) 
20.324

>  <PUBCHEM_SHAPE_FINGERPRINT>  (1) 
10967382 1 18338797805976522469
13140716 1 18338796822460784088
13380535 76 18337383937550940459
16945 1 18410575058946120101
193761 8 18266741479122920807
19973954 147 18050005789952602157
20588541 1 18337112271836292357
21501502 16 18194401327702696637
2334 1 18194402431435386656
23463225 33 18335698321611120482
23552423 10 17902510724607740948
23559900 14 18053962903276356628
241688 4 17762338011445538099
2748010 2 18265897049728880188
2897 32 18049441740360868148
5084963 1 17914622901718071443
528886 8 18411414012119572153
53812653 166 18413386523047388721
66348 1 18339362950663513298

>  <PUBCHEM_SHAPE_MULTIPOLES>  (1) 
266.29
3.67
3.18
0.62
1.48
0.37
0
-0.16
0
-1.08
0
0.02
0
0

>  <PUBCHEM_SHAPE_SELFOVERLAP>  (1) 
567.515

>  <PUBCHEM_SHAPE_VOLUME>  (1) 
148.3

>  <PUBCHEM_COORDINATE_TYPE>  (1) 
2
5
10

$$$$
