1921
     RDKit          3D

 19 20  0  0  1  0  0  0  0  0999 V2000
   -3.4510    0.5515    0.0485 O   0  0  0  0  0  0  0  0  0  0  0  0
    0.1415    3.5830    0.9321 O   0  0  0  0  0  0  0  0  0  0  0  0
    4.0617   -0.9122    0.5096 O   0  0  0  0  0  0  0  0  0  0  0  0
   -1.2772   -0.1253   -0.3766 N   0  0  0  0  0  0  0  0  0  0  0  0
    1.8904    1.3506   -0.0044 N   0  0  0  0  0  0  0  0  0  0  0  0
    1.1063   -0.6183   -0.6866 N   0  0  0  0  0  0  0  0  0  0  0  0
   -1.7842    2.2289    0.4108 C   0  0  0  0  0  0  0  0  0  0  0  0
   -1.6865   -1.4499   -0.8311 C   0  0  0  0  0  0  0  0  0  0  0  0
    0.0710    0.2101   -0.3349 C   0  0  0  0  0  0  0  0  0  0  0  0
    0.5299    1.4295    0.0873 C   0  0  0  0  0  0  0  0  0  0  0  0
   -2.2415    0.8089    0.0178 C   0  0  0  0  0  0  0  0  0  0  0  0
   -0.2910    2.5101    0.5207 C   0  0  0  0  0  0  0  0  0  0  0  0
   -1.6994   -2.4745    0.2985 C   0  0  0  0  0  0  0  0  0  0  0  0
   -2.4004    3.2303   -0.5661 C   0  0  0  0  0  0  0  0  0  0  0  0
    2.1892    0.1002   -0.4774 C   0  0  0  0  0  0  0  0  0  0  0  0
   -2.1018   -3.8715   -0.1794 C   0  0  0  0  0  0  0  0  0  0  0  0
    3.5846   -0.3216   -0.6992 C   0  0  0  0  0  0  0  0  0  0  0  0
   -2.0476   -4.8832    0.9548 C   0  0  0  0  0  0  0  0  0  0  0  0
    5.4059   -1.3464    0.3757 C   0  0  0  0  0  0  0  0  0  0  0  0
  1 11  2  0
  2 12  2  0
  3 17  1  0
  3 19  1  0
  4  8  1  0
  4  9  1  0
  4 11  1  0
  5 10  1  0
  5 15  1  0
  6  9  1  0
  6 15  2  0
  7 11  1  0
  7 12  1  0
  7 14  1  0
  8 13  1  0
  9 10  2  0
 10 12  1  0
 13 16  1  0
 15 17  1  0
 16 18  1  0
M  END
>  <PUBCHEM_COMPOUND_CID>  (1) 
1921

>  <PUBCHEM_CONFORMER_RMSD>  (1) 
0.8

>  <PUBCHEM_CONFORMER_DIVERSEORDER>  (1) 
2
22
8
27
23
25
6
20
5
13
10
3
17
26
15
14
19
18
7
16
4
21
1
24
11
9
12

>  <PUBCHEM_MMFF94_PARTIAL_CHARGES>  (1) 
16
1 -0.57
10 -0.24
11 0.57
12 0.59
15 0.01
17 0.46
19 0.28
2 -0.57
25 0.27
3 -0.56
4 -0.42
5 0.03
6 -0.57
7 0.12
8 0.3
9 0.29

>  <PUBCHEM_EFFECTIVE_ROTOR_COUNT>  (1) 
5.4

>  <PUBCHEM_PHARMACOPHORE_FEATURES>  (1) 
9
1 1 acceptor
1 18 hydrophobe
1 2 acceptor
1 3 acceptor
1 5 donor
1 7 anion
3 5 6 15 cation
5 5 6 9 10 15 rings
6 4 7 9 10 11 12 rings

>  <PUBCHEM_HEAVY_ATOM_COUNT>  (1) 
19

>  <PUBCHEM_ATOM_DEF_STEREO_COUNT>  (1) 
0

>  <PUBCHEM_ATOM_UDEF_STEREO_COUNT>  (1) 
1

>  <PUBCHEM_BOND_DEF_STEREO_COUNT>  (1) 
0

>  <PUBCHEM_BOND_UDEF_STEREO_COUNT>  (1) 
0

>  <PUBCHEM_ISOTOPIC_ATOM_COUNT>  (1) 
0

>  <PUBCHEM_COMPONENT_COUNT>  (1) 
1

>  <PUBCHEM_CACTVS_TAUTO_COUNT>  (1) 
11

>  <PUBCHEM_CONFORMER_ID>  (1) 
0000078100000002

>  <PUBCHEM_MMFF94_ENERGY>  (1) 
26.4047

>  <PUBCHEM_FEATURE_SELFOVERLAP>  (1) 
45.777

>  <PUBCHEM_SHAPE_FINGERPRINT>  (1) 
1100329 8 18411420635291393515
11680986 33 17981604085526284397
12107183 9 17979939399332565395
12293681 25 17689120802403704711
12553582 1 17909835667036175766
13052359 8 18337671914754761518
13140716 1 18342461499200915626
13968360 50 17901937544522509293
14844126 61 18409441505851454362
14866123 147 18410293605925112675
15042514 8 18410018749250008987
15422964 175 17762048144319268355
15475509 84 17769685279604153027
167882 2 17182772174187227557
16945 1 18341623576667075796
20028762 73 18131077056753224535
20510252 161 17985546650334031448
20645477 70 16752392017370726095
20739085 24 17184188890767113273
21650355 55 18412822478183255392
21665056 4 18336825277947964791
23184049 29 18194683889322165366
2334 1 18054229005408962853
23402539 116 18129649803858750573
23526113 38 17689124113981842887
23559900 14 17986393275041416366
23728640 28 18337108952001126970
257057 1 18195807590094696742
2748010 2 17838890791660813381
283562 15 18054506911526885017
3084891 72 18268989795728600703
3091708 16 8985794512164575755
3421961 26 17690285236498858715
43471831 8 17906457619274882251
54173680 148 18411140272452905470
58807428 26 17981618064990835425
81228 2 18058465226290104400
8809292 202 18412826888940523678
9709674 26 18200596891622123190
9981440 41 17904763284688998257

>  <PUBCHEM_SHAPE_MULTIPOLES>  (1) 
358.46
6.37
5.47
0.86
10.16
3.67
-0.01
4.75
-0.39
-6.18
-1.58
-0.01
0.09
0.37

>  <PUBCHEM_SHAPE_SELFOVERLAP>  (1) 
743.195

>  <PUBCHEM_SHAPE_VOLUME>  (1) 
205.9

>  <PUBCHEM_COORDINATE_TYPE>  (1) 
2
5
10

$$$$
