19214
     RDKit          3D

 35 38  0  0  0  0  0  0  0  0999 V2000
  -10.4775   -1.2041    2.5769 Cl  0  0  0  0  0  0  0  0  0  0  0  0
   10.4783   -1.1996   -2.5779 Cl  0  0  0  0  0  0  0  0  0  0  0  0
   -0.0063    2.1931    0.0001 S   0  0  0  0  0  0  0  0  0  0  0  0
   -0.1966    2.9124    1.2481 O   0  0  0  0  0  0  0  0  0  0  0  0
    0.2038    2.9136   -1.2441 O   0  0  0  0  0  0  0  0  0  0  0  0
   -3.7918    0.9544   -0.6310 N   0  0  0  0  0  0  0  0  0  0  0  0
    3.7905    0.9496    0.6317 N   0  0  0  0  0  0  0  0  0  0  0  0
   -6.4782    0.0243   -0.3526 N   0  0  0  0  0  0  0  0  0  0  0  0
    6.4779    0.0224    0.3526 N   0  0  0  0  0  0  0  0  0  0  0  0
   -2.6672    1.8670   -0.4276 C   0  0  0  0  0  0  0  0  0  0  0  0
    2.6651    1.8612    0.4290 C   0  0  0  0  0  0  0  0  0  0  0  0
   -4.2648    0.4257    0.6544 C   0  0  0  0  0  0  0  0  0  0  0  0
   -4.8904    1.6376   -1.3244 C   0  0  0  0  0  0  0  0  0  0  0  0
    4.2641    0.4224   -0.6541 C   0  0  0  0  0  0  0  0  0  0  0  0
    4.8886    1.6333    1.3258 C   0  0  0  0  0  0  0  0  0  0  0  0
   -1.3731    1.0977   -0.2200 C   0  0  0  0  0  0  0  0  0  0  0  0
    1.3717    1.0909    0.2209 C   0  0  0  0  0  0  0  0  0  0  0  0
   -5.4048   -0.5748    0.4505 C   0  0  0  0  0  0  0  0  0  0  0  0
   -6.0524    0.6780   -1.5938 C   0  0  0  0  0  0  0  0  0  0  0  0
    5.4050   -0.5771   -0.4510 C   0  0  0  0  0  0  0  0  0  0  0  0
    6.0514    0.6747    1.5944 C   0  0  0  0  0  0  0  0  0  0  0  0
   -7.7556   -0.5406   -0.2686 C   0  0  0  0  0  0  0  0  0  0  0  0
    7.7559   -0.5411    0.2681 C   0  0  0  0  0  0  0  0  0  0  0  0
   -8.4161   -0.5937    0.9589 C   0  0  0  0  0  0  0  0  0  0  0  0
    8.4164   -0.5925   -0.9594 C   0  0  0  0  0  0  0  0  0  0  0  0
   -8.3683   -1.0514   -1.4129 C   0  0  0  0  0  0  0  0  0  0  0  0
    8.3691   -1.0522    1.4119 C   0  0  0  0  0  0  0  0  0  0  0  0
   -9.6893   -1.1572    1.0419 C   0  0  0  0  0  0  0  0  0  0  0  0
    9.6902   -1.1547   -1.0429 C   0  0  0  0  0  0  0  0  0  0  0  0
   -9.6415   -1.6151   -1.3299 C   0  0  0  0  0  0  0  0  0  0  0  0
    9.6428   -1.6146    1.3284 C   0  0  0  0  0  0  0  0  0  0  0  0
  -10.3020   -1.6679   -0.1024 C   0  0  0  0  0  0  0  0  0  0  0  0
   10.3033   -1.6658    0.1010 C   0  0  0  0  0  0  0  0  0  0  0  0
  -11.6650   -2.2796   -0.0559 C   0  0  0  0  0  0  0  0  0  0  0  0
   11.6670   -2.2762    0.0540 C   0  0  0  0  0  0  0  0  0  0  0  0
  1 28  1  0
  2 29  1  0
  3  4  2  0
  3  5  2  0
  3 16  1  0
  3 17  1  0
  6 10  1  0
  6 12  1  0
  6 13  1  0
  7 11  1  0
  7 14  1  0
  7 15  1  0
  8 18  1  0
  8 19  1  0
  8 22  1  0
  9 20  1  0
  9 21  1  0
  9 23  1  0
 10 16  1  0
 11 17  1  0
 12 18  1  0
 13 19  1  0
 14 20  1  0
 15 21  1  0
 22 24  2  0
 22 26  1  0
 23 25  2  0
 23 27  1  0
 24 28  1  0
 25 29  1  0
 26 30  2  0
 27 31  2  0
 28 32  2  0
 29 33  2  0
 30 32  1  0
 31 33  1  0
 32 34  1  0
 33 35  1  0
M  END
>  <PUBCHEM_COMPOUND_CID>  (1) 
19214

>  <PUBCHEM_CONFORMER_RMSD>  (1) 
1.4

>  <PUBCHEM_CONFORMER_DIVERSEORDER>  (1) 
1
31
15
33
21
10
20
30
24
23
26
11
16
35
8
25
28
18
29
19
3
9
13
12
27
17
34
22
14
5
32
7
2
6
4

>  <PUBCHEM_MMFF94_PARTIAL_CHARGES>  (1) 
41
1 -0.18
10 0.27
11 0.27
12 0.27
13 0.27
14 0.27
15 0.27
16 0.11
17 0.11
18 0.37
19 0.37
2 -0.18
20 0.37
21 0.37
22 0.1
23 0.1
24 -0.15
25 -0.15
26 -0.15
27 -0.15
28 0.18
29 0.18
3 1.09
30 -0.15
31 -0.15
32 -0.14
33 -0.14
34 0.14
35 0.14
4 -0.65
5 -0.65
6 -0.81
60 0.15
61 0.15
62 0.15
63 0.15
64 0.15
65 0.15
7 -0.81
8 -0.84
9 -0.84

>  <PUBCHEM_EFFECTIVE_ROTOR_COUNT>  (1) 
10.4

>  <PUBCHEM_PHARMACOPHORE_FEATURES>  (1) 
10
1 4 acceptor
1 5 acceptor
1 6 cation
1 7 cation
1 8 cation
1 9 cation
6 22 24 26 28 30 32 rings
6 23 25 27 29 31 33 rings
6 6 8 12 13 18 19 rings
6 7 9 14 15 20 21 rings

>  <PUBCHEM_HEAVY_ATOM_COUNT>  (1) 
35

>  <PUBCHEM_ATOM_DEF_STEREO_COUNT>  (1) 
0

>  <PUBCHEM_ATOM_UDEF_STEREO_COUNT>  (1) 
0

>  <PUBCHEM_BOND_DEF_STEREO_COUNT>  (1) 
0

>  <PUBCHEM_BOND_UDEF_STEREO_COUNT>  (1) 
0

>  <PUBCHEM_ISOTOPIC_ATOM_COUNT>  (1) 
0

>  <PUBCHEM_COMPONENT_COUNT>  (1) 
1

>  <PUBCHEM_CACTVS_TAUTO_COUNT>  (1) 
1

>  <PUBCHEM_CONFORMER_ID>  (1) 
00004B0E00000001

>  <PUBCHEM_MMFF94_ENERGY>  (1) 
99.7447

>  <PUBCHEM_FEATURE_SELFOVERLAP>  (1) 
50.77

>  <PUBCHEM_SHAPE_FINGERPRINT>  (1) 
10029044 110 8646772209268179279
10168742 298 17821731645293057343
10429389 143 9871751304040051437
10533779 47 15482398573698091620
10930396 42 14836404740566689587
11408170 108 17989212512400987886
11411753 29 18411691088966596976
11456790 92 15913328026688099267
11463208 3 18410855460134268047
11534866 41 18060140913036177118
11607047 141 11743575267361506364
11607047 191 11600004349830273780
11607047 74 18043535113381365420
12089408 11 16877939408647585796
12498461 61 17988920098664885391
12539745 222 18273215266660821553
12559415 141 18410303505302815059
13165054 146 10809351061645126705
13530399 1 11599424941941820386
13553643 46 11815898959591450011
14040221 304 15647058149630071818
14344974 52 12468647144312276513
14395042 24 12535343511380376410
15065858 18 18410845564524109448
15247644 1 18410573985157849707
15419008 145 16845580808013750745
155225 1 8935002572856885223
15890870 6 17821446858902226682
16728433 110 18343576357802537840
1754911 235 13623530160419786227
17852330 31 16343408609863407638
1818759 1 18410855460128194273
19302320 297 13038897855379982498
20105231 36 18410854360616858822
2026 5 18336822009404493051
20737093 207 17059762422378742759
20771845 65 18343581871581119320
21362267 313 11023832760911057156
21792965 169 17240492402971377101
21895431 317 18271804588599218422
232437 2 18410855460128324195
23576562 1 15213598847935247396
25242607 90 18130775785385730928
2851757 41 18410855464434107351
306946 40 9151173146993507955
3991529 128 11167939186304218742
4339292 15 18333730208524197148
44389302 135 18060421348725740695
4516262 110 8502381030995143793
4760202 170 13767937832096461006
54039377 194 18334294271243478509
5719381 82 18410011030940141715
57828716 42 18413107261608714264
636775 8 17023188249990018851
6673363 416 12973603336206335007
9937071 3 17346881135427067942
9980921 7 9727630601869876441

>  <PUBCHEM_SHAPE_MULTIPOLES>  (1) 
696.21
54.38
2.56
1.77
0.07
0.95
0
-53.49
-0.03
-0.02
0
0
-0.35
1.87

>  <PUBCHEM_SHAPE_SELFOVERLAP>  (1) 
1426.294

>  <PUBCHEM_SHAPE_VOLUME>  (1) 
406.5

>  <PUBCHEM_COORDINATE_TYPE>  (1) 
2
5
10

$$$$
