19217
     RDKit          3D

 10 11  0  0  0  0  0  0  0  0999 V2000
   -2.2722   -1.0785   -0.0005 S   0  0  0  0  0  0  0  0  0  0  0  0
    1.5454    2.1604   -0.0003 O   0  0  0  0  0  0  0  0  0  0  0  0
   -0.2239    0.4993    0.0002 C   0  0  0  0  0  0  0  0  0  0  0  0
   -0.5622   -0.8575    0.0000 C   0  0  0  0  0  0  0  0  0  0  0  0
    1.1486    0.8469    0.0001 C   0  0  0  0  0  0  0  0  0  0  0  0
   -1.3966    1.3269    0.0005 C   0  0  0  0  0  0  0  0  0  0  0  0
    0.4248   -1.8627    0.0001 C   0  0  0  0  0  0  0  0  0  0  0  0
    2.1302   -0.1478   -0.0003 C   0  0  0  0  0  0  0  0  0  0  0  0
    1.7697   -1.4877    0.0003 C   0  0  0  0  0  0  0  0  0  0  0  0
   -2.5639    0.6008    0.0000 C   0  0  0  0  0  0  0  0  0  0  0  0
  1  4  1  0
  1 10  1  0
  2  5  1  0
  3  4  2  0
  3  5  1  0
  3  6  1  0
  4  7  1  0
  5  8  2  0
  6 10  2  0
  7  9  2  0
  8  9  1  0
M  END
>  <PUBCHEM_COMPOUND_CID>  (1) 
19217

>  <PUBCHEM_CONFORMER_RMSD>  (1) 
0.4

>  <PUBCHEM_CONFORMER_DIVERSEORDER>  (1) 
1

>  <PUBCHEM_MMFF94_PARTIAL_CHARGES>  (1) 
15
1 -0.08
10 -0.11
11 0.15
12 0.15
13 0.15
14 0.15
15 0.15
16 0.45
2 -0.53
4 0.04
5 0.08
6 -0.15
7 -0.15
8 -0.15
9 -0.15

>  <PUBCHEM_EFFECTIVE_ROTOR_COUNT>  (1) 
0

>  <PUBCHEM_PHARMACOPHORE_FEATURES>  (1) 
3
1 2 donor
5 1 3 4 6 10 rings
6 3 4 5 7 8 9 rings

>  <PUBCHEM_HEAVY_ATOM_COUNT>  (1) 
10

>  <PUBCHEM_ATOM_DEF_STEREO_COUNT>  (1) 
0

>  <PUBCHEM_ATOM_UDEF_STEREO_COUNT>  (1) 
0

>  <PUBCHEM_BOND_DEF_STEREO_COUNT>  (1) 
0

>  <PUBCHEM_BOND_UDEF_STEREO_COUNT>  (1) 
0

>  <PUBCHEM_ISOTOPIC_ATOM_COUNT>  (1) 
0

>  <PUBCHEM_COMPONENT_COUNT>  (1) 
1

>  <PUBCHEM_CACTVS_TAUTO_COUNT>  (1) 
3

>  <PUBCHEM_CONFORMER_ID>  (1) 
00004B1100000001

>  <PUBCHEM_MMFF94_ENERGY>  (1) 
19.8353

>  <PUBCHEM_FEATURE_SELFOVERLAP>  (1) 
15.283

>  <PUBCHEM_SHAPE_FINGERPRINT>  (1) 
12423570 1 12326447352446340795
12897270 3 18410009974615440463
16945 1 18410575046182569991
18185500 45 18194682557776607107
193761 8 18194683893764747654
19973954 147 18410857655088565153
21040471 1 18194682802737306084
23402655 69 18124015859666538421
23552423 10 18335702762522914967
241688 4 17834678192930624322
2748010 2 18265898132192501095
29004967 10 18265336101240852842
5084963 1 18202002148453426195
528886 8 18339074870021904747
66348 1 18410013268681283039

>  <PUBCHEM_SHAPE_MULTIPOLES>  (1) 
203.78
3.23
2.05
0.62
0.86
0.21
0
-0.03
0
-0.52
0
0.03
-0.03
0

>  <PUBCHEM_SHAPE_SELFOVERLAP>  (1) 
434.194

>  <PUBCHEM_SHAPE_VOLUME>  (1) 
114.9

>  <PUBCHEM_COORDINATE_TYPE>  (1) 
2
5
10

$$$$
