19210
     RDKit          3D

 22 24  0  0  0  0  0  0  0  0999 V2000
   -4.1812    1.7577    1.3179 O   0  0  0  0  0  0  0  0  0  0  0  0
   -5.8925    1.1317   -0.7806 O   0  0  0  0  0  0  0  0  0  0  0  0
   -0.1681   -1.2755    0.4811 N   0  0  0  0  0  0  0  0  0  0  0  0
    2.4954   -0.3556    0.0137 N   0  0  0  0  0  0  0  0  0  0  0  0
    3.9340    1.4049   -0.6242 N   0  0  0  0  0  0  0  0  0  0  0  0
    4.8217   -0.6310    0.3108 N   0  0  0  0  0  0  0  0  0  0  0  0
    0.1340   -0.4338   -0.6829 C   0  0  0  0  0  0  0  0  0  0  0  0
    0.9795   -2.1398    0.7837 C   0  0  0  0  0  0  0  0  0  0  0  0
    1.3524    0.4543   -0.4186 C   0  0  0  0  0  0  0  0  0  0  0  0
    2.2252   -1.3082    1.0979 C   0  0  0  0  0  0  0  0  0  0  0  0
   -1.3650   -2.0794    0.2364 C   0  0  0  0  0  0  0  0  0  0  0  0
   -2.5721   -1.2206   -0.0327 C   0  0  0  0  0  0  0  0  0  0  0  0
    3.7926    0.1560   -0.1040 C   0  0  0  0  0  0  0  0  0  0  0  0
   -2.8195   -0.1186    0.7738 C   0  0  0  0  0  0  0  0  0  0  0  0
   -3.4200   -1.5434   -1.0828 C   0  0  0  0  0  0  0  0  0  0  0  0
   -3.9377    0.6771    0.5249 C   0  0  0  0  0  0  0  0  0  0  0  0
   -4.5384   -0.7477   -1.3314 C   0  0  0  0  0  0  0  0  0  0  0  0
   -4.7973    0.3624   -0.5276 C   0  0  0  0  0  0  0  0  0  0  0  0
    5.1978    1.8670   -0.7226 C   0  0  0  0  0  0  0  0  0  0  0  0
    6.0581   -0.1064    0.1836 C   0  0  0  0  0  0  0  0  0  0  0  0
    6.3092    1.1491   -0.3313 C   0  0  0  0  0  0  0  0  0  0  0  0
   -3.6079    2.9998    0.9147 C   0  0  0  0  0  0  0  0  0  0  0  0
  1 16  1  0
  1 22  1  0
  2 18  1  0
  3  7  1  0
  3  8  1  0
  3 11  1  0
  4  9  1  0
  4 10  1  0
  4 13  1  0
  5 13  2  0
  5 19  1  0
  6 13  1  0
  6 20  2  0
  7  9  1  0
  8 10  1  0
 11 12  1  0
 12 14  2  0
 12 15  1  0
 14 16  1  0
 15 17  2  0
 16 18  2  0
 17 18  1  0
 19 21  2  0
 20 21  1  0
M  END
>  <PUBCHEM_COMPOUND_CID>  (1) 
19210

>  <PUBCHEM_CONFORMER_RMSD>  (1) 
0.8

>  <PUBCHEM_CONFORMER_DIVERSEORDER>  (1) 
1
8
19
15
9
23
22
12
2
20
18
25
17
3
11
7
4
16
24
6
26
5
14
13
21
10

>  <PUBCHEM_MMFF94_PARTIAL_CHARGES>  (1) 
29
1 -0.36
10 0.37
11 0.41
12 -0.14
13 0.72
14 -0.15
15 -0.15
16 0.08
17 -0.15
18 0.08
19 0.16
2 -0.53
20 0.16
21 -0.15
22 0.28
3 -0.81
33 0.15
34 0.15
35 0.15
36 0.15
37 0.15
38 0.15
39 0.45
4 -0.84
5 -0.62
6 -0.62
7 0.27
8 0.27
9 0.37

>  <PUBCHEM_EFFECTIVE_ROTOR_COUNT>  (1) 
5.2

>  <PUBCHEM_PHARMACOPHORE_FEATURES>  (1) 
8
1 1 acceptor
1 2 donor
1 3 cation
1 5 acceptor
4 4 5 6 13 cation
6 12 14 15 16 17 18 rings
6 3 4 7 8 9 10 rings
6 5 6 13 19 20 21 rings

>  <PUBCHEM_HEAVY_ATOM_COUNT>  (1) 
22

>  <PUBCHEM_ATOM_DEF_STEREO_COUNT>  (1) 
0

>  <PUBCHEM_ATOM_UDEF_STEREO_COUNT>  (1) 
0

>  <PUBCHEM_BOND_DEF_STEREO_COUNT>  (1) 
0

>  <PUBCHEM_BOND_UDEF_STEREO_COUNT>  (1) 
0

>  <PUBCHEM_ISOTOPIC_ATOM_COUNT>  (1) 
0

>  <PUBCHEM_COMPONENT_COUNT>  (1) 
1

>  <PUBCHEM_CACTVS_TAUTO_COUNT>  (1) 
3

>  <PUBCHEM_CONFORMER_ID>  (1) 
00004B0A00000001

>  <PUBCHEM_MMFF94_ENERGY>  (1) 
76.2477

>  <PUBCHEM_FEATURE_SELFOVERLAP>  (1) 
40.596

>  <PUBCHEM_SHAPE_FINGERPRINT>  (1) 
10087517 78 18413386549118502776
10595046 47 18342454876493564830
10670039 82 18343300353395278808
10871710 139 18341331098801895121
11045977 3 13118282611225331462
11089746 13 18413386562319324664
12107183 9 17907296550973784082
12236239 1 18409725166575666767
12507557 5 17603310366796344853
12596602 18 17749390381845114481
13103583 49 11241965958375374119
13167372 99 18409446973581490304
13177829 73 18411699881348921616
13288520 33 10375875182062529119
13583140 156 13479677811326019430
13631057 29 18117273869024151323
14739800 52 18199166525736177144
14790565 3 18334581248147148060
15183329 4 18341897372922528782
15188451 53 13190632684626619033
15348495 7 14418139551623741092
18222031 100 12103848938982056938
19489759 90 17847062198647712274
19784866 240 11239995672699260419
20281389 69 17967527991258903980
21033650 10 17915208804409531580
21150785 3 14764346085418820272
22061861 79 15841561760324310140
22950370 63 9007061262169469870
23198884 109 18202846560482923039
23402539 116 18272087219000330678
23402655 69 18410009983622437718
23559900 14 17702936049678076585
2838139 119 18342458149253395576
34797466 226 16845297206453013048
397830 11 13046234943468585508
441001 317 18342459265649129603
474 4 18260265226897318251
5104073 3 17677608834567590904
531348 171 17775007860084608910
543368 44 18412544336090746825
6299153 45 18264766567772597106
6327066 14 18197498412231971849
6328613 192 18188499098647638332
633830 44 18409170982809005550
636775 72 18269555104495755120
7062679 6 18411987957421606996
7808743 9 18201160940934159025
7970288 3 10663817481672732861

>  <PUBCHEM_SHAPE_MULTIPOLES>  (1) 
421.09
15.13
2.36
1.1
11.31
0.86
0
7.66
-2.5
-1.54
0.57
-0.89
0.04
-1.97

>  <PUBCHEM_SHAPE_SELFOVERLAP>  (1) 
894.661

>  <PUBCHEM_SHAPE_VOLUME>  (1) 
233.8

>  <PUBCHEM_COORDINATE_TYPE>  (1) 
2
5
10

$$$$
