19220
     RDKit          3D

 14 15  0  0  0  0  0  0  0  0999 V2000
   -4.4467    1.0777   -0.1631 O   0  0  0  0  0  0  0  0  0  0  0  0
   -0.7919   -0.7211    0.0624 N   0  0  0  0  0  0  0  0  0  0  0  0
   -0.9433    0.7151    0.3429 C   0  0  0  0  0  0  0  0  0  0  0  0
   -2.0148   -1.4507    0.4312 C   0  0  0  0  0  0  0  0  0  0  0  0
   -2.0809    1.3240   -0.4712 C   0  0  0  0  0  0  0  0  0  0  0  0
   -3.2154   -0.9692   -0.3778 C   0  0  0  0  0  0  0  0  0  0  0  0
    0.3595   -1.2614    0.7861 C   0  0  0  0  0  0  0  0  0  0  0  0
   -3.3516    0.5313   -0.2792 C   0  0  0  0  0  0  0  0  0  0  0  0
    1.5960   -0.5432    0.3507 C   0  0  0  0  0  0  0  0  0  0  0  0
    2.3364   -1.0262   -0.7263 C   0  0  0  0  0  0  0  0  0  0  0  0
    2.0040    0.6070    1.0228 C   0  0  0  0  0  0  0  0  0  0  0  0
    3.4902   -0.3561   -1.1329 C   0  0  0  0  0  0  0  0  0  0  0  0
    3.1578    1.2772    0.6161 C   0  0  0  0  0  0  0  0  0  0  0  0
    3.9008    0.7956   -0.4617 C   0  0  0  0  0  0  0  0  0  0  0  0
  1  8  2  0
  2  3  1  0
  2  4  1  0
  2  7  1  0
  3  5  1  0
  4  6  1  0
  5  8  1  0
  6  8  1  0
  7  9  1  0
  9 10  2  0
  9 11  1  0
 10 12  1  0
 11 13  2  0
 12 14  2  0
 13 14  1  0
M  END
>  <PUBCHEM_COMPOUND_CID>  (1) 
19220

>  <PUBCHEM_CONFORMER_RMSD>  (1) 
0.6

>  <PUBCHEM_CONFORMER_DIVERSEORDER>  (1) 
1
5
4
3
2
7
6

>  <PUBCHEM_MMFF94_PARTIAL_CHARGES>  (1) 
19
1 -0.57
10 -0.15
11 -0.15
12 -0.15
13 -0.15
14 -0.15
2 -0.81
25 0.15
26 0.15
27 0.15
28 0.15
29 0.15
3 0.27
4 0.27
5 0.06
6 0.06
7 0.41
8 0.45
9 -0.14

>  <PUBCHEM_EFFECTIVE_ROTOR_COUNT>  (1) 
3

>  <PUBCHEM_PHARMACOPHORE_FEATURES>  (1) 
4
1 1 acceptor
1 2 cation
6 2 3 4 5 6 8 rings
6 9 10 11 12 13 14 rings

>  <PUBCHEM_HEAVY_ATOM_COUNT>  (1) 
14

>  <PUBCHEM_ATOM_DEF_STEREO_COUNT>  (1) 
0

>  <PUBCHEM_ATOM_UDEF_STEREO_COUNT>  (1) 
0

>  <PUBCHEM_BOND_DEF_STEREO_COUNT>  (1) 
0

>  <PUBCHEM_BOND_UDEF_STEREO_COUNT>  (1) 
0

>  <PUBCHEM_ISOTOPIC_ATOM_COUNT>  (1) 
0

>  <PUBCHEM_COMPONENT_COUNT>  (1) 
1

>  <PUBCHEM_CACTVS_TAUTO_COUNT>  (1) 
2

>  <PUBCHEM_CONFORMER_ID>  (1) 
00004B1400000001

>  <PUBCHEM_MMFF94_ENERGY>  (1) 
32.7367

>  <PUBCHEM_FEATURE_SELFOVERLAP>  (1) 
20.297

>  <PUBCHEM_SHAPE_FINGERPRINT>  (1) 
10498660 4 18261105266644735541
10608611 8 18341046406192812992
10618630 7 10735873980224331489
10751810 167 14764635217710121001
11132069 177 18334572464511681861
11543360 7 17203315758741114293
11715629 250 18334569122937318549
12173636 292 18335977580674707701
12251169 10 11025806413582502162
12932764 1 18335981991215957651
13296908 3 18201719582687007951
13581323 91 9367345924949351146
13705890 14 17489872644046615542
13764800 53 17822303391571142083
15219456 202 18273216425752500650
15775835 57 18040714753462712056
177051 138 10015860989919773199
18186145 218 18412542081058791089
19422 9 12751242535950498682
200 152 16917351424303599050
20201158 50 18202568375762312782
20279233 1 18202844370308025802
20281407 28 10231767703289218386
20361792 2 14405182863372534090
20645477 70 17632302246136912966
20767249 442 18040433282770406212
20871999 31 18131062792596888679
22485316 2 11815906643102428914
22802520 49 18270973357786663226
23402539 116 18410284844275269772
23402655 69 18131917052743437772
23557571 272 18340496684633233255
23559900 14 18412826872362274934
276578 36 17240199920014176402
4028521 119 18408599236904584205
474 4 16227185897201424668
4990 188 18130790044465812727
7364860 26 18191860137514882554
74978 22 13829835963603191631
93112 12 18060138738679547767

>  <PUBCHEM_SHAPE_MULTIPOLES>  (1) 
277.26
7.64
1.53
0.97
1.62
0.04
-0.01
-2.06
-1.72
0.42
0.07
-0.61
0.05
0.56

>  <PUBCHEM_SHAPE_SELFOVERLAP>  (1) 
578.437

>  <PUBCHEM_SHAPE_VOLUME>  (1) 
157.5

>  <PUBCHEM_COORDINATE_TYPE>  (1) 
2
5
10

$$$$
