19225
     RDKit          3D

 16 16  0  0  0  0  0  0  0  0999 V2000
    1.9814    1.8702   -2.0158 Cl  0  0  0  0  0  0  0  0  0  0  0  0
    1.5093    3.1337    0.5691 Cl  0  0  0  0  0  0  0  0  0  0  0  0
    2.4729   -2.3013   -0.6589 O   0  0  0  0  0  0  0  0  0  0  0  0
   -1.3607    0.6479    2.1831 O   0  0  0  0  0  0  0  0  0  0  0  0
    2.6963    0.3400    0.5671 O   0  0  0  0  0  0  0  0  0  0  0  0
    0.5175   -0.5209    0.4531 N   0  0  0  0  0  0  0  0  0  0  0  0
    0.9479   -1.7869    1.1212 C   0  0  0  0  0  0  0  0  0  0  0  0
   -0.8086   -0.3250    0.0602 C   0  0  0  0  0  0  0  0  0  0  0  0
    1.3983   -2.8256    0.1104 C   0  0  0  0  0  0  0  0  0  0  0  0
    1.5173    0.4879    0.2295 C   0  0  0  0  0  0  0  0  0  0  0  0
   -1.7300    0.2572    0.9306 C   0  0  0  0  0  0  0  0  0  0  0  0
   -1.2076   -0.7172   -1.2176 C   0  0  0  0  0  0  0  0  0  0  0  0
   -3.0505    0.4471    0.5233 C   0  0  0  0  0  0  0  0  0  0  0  0
   -2.5281   -0.5272   -1.6250 C   0  0  0  0  0  0  0  0  0  0  0  0
    1.0941    1.7652   -0.4758 C   0  0  0  0  0  0  0  0  0  0  0  0
   -3.4495    0.0549   -0.7545 C   0  0  0  0  0  0  0  0  0  0  0  0
  1 15  1  0
  2 15  1  0
  3  9  1  0
  4 11  1  0
  5 10  2  0
  6  7  1  0
  6  8  1  0
  6 10  1  0
  7  9  1  0
  8 11  2  0
  8 12  1  0
 10 15  1  0
 11 13  1  0
 12 14  2  0
 13 16  2  0
 14 16  1  0
M  END
>  <PUBCHEM_COMPOUND_CID>  (1) 
19225

>  <PUBCHEM_CONFORMER_RMSD>  (1) 
0.6

>  <PUBCHEM_CONFORMER_DIVERSEORDER>  (1) 
1
58
102
16
69
52
77
39
79
73
7
66
65
99
63
29
100
46
31
89
30
25
78
72
62
84
34
67
85
92
8
17
43
10
20
40
87
93
76
60
80
97
33
11
9
38
14
50
3
37
70
28
22
71
91
48
90
26
45
53
86
59
42
88
12
68
96
94
49
41
57
82
95
51
24
55
6
35
75
83
56
44
74
19
32
101
98
13
18
5
36
15
4
47
54
81
61
23
2
27
21
64

>  <PUBCHEM_MMFF94_PARTIAL_CHARGES>  (1) 
22
1 -0.29
10 0.57
11 0.08
12 -0.15
13 -0.15
14 -0.15
15 0.64
16 -0.15
2 -0.29
21 0.15
22 0.15
23 0.15
25 0.15
26 0.4
27 0.45
3 -0.68
4 -0.53
5 -0.57
6 -0.48
7 0.3
8 0.12
9 0.28

>  <PUBCHEM_EFFECTIVE_ROTOR_COUNT>  (1) 
5

>  <PUBCHEM_PHARMACOPHORE_FEATURES>  (1) 
5
1 3 acceptor
1 3 donor
1 4 donor
1 5 acceptor
6 8 11 12 13 14 16 rings

>  <PUBCHEM_HEAVY_ATOM_COUNT>  (1) 
16

>  <PUBCHEM_ATOM_DEF_STEREO_COUNT>  (1) 
0

>  <PUBCHEM_ATOM_UDEF_STEREO_COUNT>  (1) 
0

>  <PUBCHEM_BOND_DEF_STEREO_COUNT>  (1) 
0

>  <PUBCHEM_BOND_UDEF_STEREO_COUNT>  (1) 
0

>  <PUBCHEM_ISOTOPIC_ATOM_COUNT>  (1) 
0

>  <PUBCHEM_COMPONENT_COUNT>  (1) 
1

>  <PUBCHEM_CACTVS_TAUTO_COUNT>  (1) 
3

>  <PUBCHEM_CONFORMER_ID>  (1) 
00004B1900000001

>  <PUBCHEM_MMFF94_ENERGY>  (1) 
57.2485

>  <PUBCHEM_FEATURE_SELFOVERLAP>  (1) 
25.374

>  <PUBCHEM_SHAPE_FINGERPRINT>  (1) 
1 1 18262503914064754030
11578080 2 17481948325974199248
12326174 3 18114447981820575826
12423570 1 14097056549364565754
13898156 1 17847064372017104803
14181834 199 18264465395516586806
14817 1 17187572637558455462
15775835 57 18267302221463561493
16945 1 18340473543470423801
19765921 60 17913764196269801617
19786989 88 17895760711198021407
20361792 2 18121771729915421959
20645476 183 18131063862127862111
20711985 344 17398378737703235442
21041028 32 18122076311773688456
21524375 3 17899130791593915872
21947302 44 17603573158401814109
22112679 90 17843982354761462584
22802520 49 15481851076456836309
23419403 2 16235126462771138186
23526113 38 17168709609351289203
23598291 2 18057609772173775515
2748010 2 17901926578974870316
5845 1 11277938225208660056
68419 9 17775017751625970947
6992083 37 17771633338755547435
7364860 26 18341323452894451215
77492 1 18059848446398787459
81228 2 17324635588165973642

>  <PUBCHEM_SHAPE_MULTIPOLES>  (1) 
310.42
4.39
2.87
1.67
2.46
0.86
-0.16
-1.2
-0.96
-3.21
0.06
0.28
-0.47
-0.42

>  <PUBCHEM_SHAPE_SELFOVERLAP>  (1) 
616.759

>  <PUBCHEM_SHAPE_VOLUME>  (1) 
184.9

>  <PUBCHEM_COORDINATE_TYPE>  (1) 
2
5
10

$$$$
