19233
     RDKit          3D

 11 10  0  0  1  0  0  0  0  0999 V2000
    1.0816    1.4322    0.9631 O   0  0  0  0  0  0  0  0  0  0  0  0
   -0.2307   -1.1377    1.3405 O   0  0  0  0  0  0  0  0  0  0  0  0
    2.3552   -1.3416   -1.0742 O   0  0  0  0  0  0  0  0  0  0  0  0
   -1.6786    1.2126   -1.0781 O   0  0  0  0  0  0  0  0  0  0  0  0
   -3.7258   -0.4352   -0.4828 O   0  0  0  0  0  0  0  0  0  0  0  0
    0.9976    0.4266   -0.0494 C   0  0  0  0  0  0  0  0  0  0  0  0
   -0.2980   -0.3965    0.1223 C   0  0  0  0  0  0  0  0  0  0  0  0
    2.3135   -0.3753   -0.0279 C   0  0  0  0  0  0  0  0  0  0  0  0
   -1.5616    0.4800    0.1263 C   0  0  0  0  0  0  0  0  0  0  0  0
    3.5474    0.5063   -0.1598 C   0  0  0  0  0  0  0  0  0  0  0  0
   -2.8005   -0.3714    0.3202 C   0  0  0  0  0  0  0  0  0  0  0  0
  1  6  1  0
  2  7  1  0
  3  8  1  0
  4  9  1  0
  5 11  2  0
  6  7  1  0
  6  8  1  0
  7  9  1  0
  8 10  1  0
  9 11  1  0
M  END
>  <PUBCHEM_COMPOUND_CID>  (1) 
19233

>  <PUBCHEM_CONFORMER_RMSD>  (1) 
0.6

>  <PUBCHEM_CONFORMER_DIVERSEORDER>  (1) 
1
10
4
16
15
9
2
13
3
17
5
11
8
6
7
12
14

>  <PUBCHEM_MMFF94_PARTIAL_CHARGES>  (1) 
15
1 -0.68
11 0.45
19 0.4
2 -0.68
20 0.4
21 0.06
22 0.4
23 0.4
3 -0.68
4 -0.68
5 -0.57
6 0.28
7 0.28
8 0.28
9 0.34

>  <PUBCHEM_EFFECTIVE_ROTOR_COUNT>  (1) 
4

>  <PUBCHEM_PHARMACOPHORE_FEATURES>  (1) 
9
1 1 acceptor
1 1 donor
1 2 acceptor
1 2 donor
1 3 acceptor
1 3 donor
1 4 acceptor
1 4 donor
1 5 acceptor

>  <PUBCHEM_HEAVY_ATOM_COUNT>  (1) 
11

>  <PUBCHEM_ATOM_DEF_STEREO_COUNT>  (1) 
4

>  <PUBCHEM_ATOM_UDEF_STEREO_COUNT>  (1) 
0

>  <PUBCHEM_BOND_DEF_STEREO_COUNT>  (1) 
0

>  <PUBCHEM_BOND_UDEF_STEREO_COUNT>  (1) 
0

>  <PUBCHEM_ISOTOPIC_ATOM_COUNT>  (1) 
0

>  <PUBCHEM_COMPONENT_COUNT>  (1) 
1

>  <PUBCHEM_CACTVS_TAUTO_COUNT>  (1) 
10

>  <PUBCHEM_CONFORMER_ID>  (1) 
00004B2100000001

>  <PUBCHEM_MMFF94_ENERGY>  (1) 
17.7165

>  <PUBCHEM_FEATURE_SELFOVERLAP>  (1) 
45.686

>  <PUBCHEM_SHAPE_FINGERPRINT>  (1) 
11062470 55 16272211894342565626
12897270 3 17894347770163478839
12932764 1 18343008999993475255
14325111 11 18040714736245874048
15310529 11 17489870410162487605
15477762 27 18060700619164993942
16945 1 17604163561506382818
20201158 50 18412268345750336882
20645477 70 18130788893652396359
21293036 1 17894631482617658213
23235685 24 17313098670395949139
23402539 116 17967802890593120774
29004967 10 17989489593541167250
5084963 1 18333733515717521809

>  <PUBCHEM_SHAPE_MULTIPOLES>  (1) 
197.03
5.38
1.19
0.98
0.63
0.06
-0.05
-0.33
1.06
-0.25
0
-0.01
-0.06
0.51

>  <PUBCHEM_SHAPE_SELFOVERLAP>  (1) 
371.115

>  <PUBCHEM_SHAPE_VOLUME>  (1) 
121.8

>  <PUBCHEM_COORDINATE_TYPE>  (1) 
2
5
10

$$$$
