19235
     RDKit          3D

 34 36  0  0  1  0  0  0  0  0999 V2000
    0.8522   -3.3982    0.7003 P   0  0  0  0  0  0  0  0  0  0  0  0
    2.7784   -1.3421    1.5486 P   0  0  0  0  0  0  0  0  0  0  0  0
   -3.0139   -1.6200   -0.0453 O   0  0  0  0  0  0  0  0  0  0  0  0
   -4.0457   -1.8279   -2.8528 O   0  0  0  0  0  0  0  0  0  0  0  0
   -3.6142    0.8507   -2.5741 O   0  0  0  0  0  0  0  0  0  0  0  0
   -0.6734   -3.1545    0.2205 O   0  0  0  0  0  0  0  0  0  0  0  0
    1.9564    0.1945   -1.2923 O   0  0  0  0  0  0  0  0  0  0  0  0
    3.1080    0.0343    0.7736 O   0  0  0  0  0  0  0  0  0  0  0  0
    4.5464    3.3848   -1.7181 O   0  0  0  0  0  0  0  0  0  0  0  0
    5.4484    0.9415   -0.4532 O   0  0  0  0  0  0  0  0  0  0  0  0
    1.6723    3.8423   -1.2333 O   0  0  0  0  0  0  0  0  0  0  0  0
    1.4321   -1.8965    0.8458 O   0  0  0  0  0  0  0  0  0  0  0  0
   -4.8743    2.0317    0.2600 O   0  0  0  0  0  0  0  0  0  0  0  0
    1.5945   -3.9476   -0.6280 O   0  0  0  0  0  0  0  0  0  0  0  0
    1.0221   -4.2543    1.9211 O   0  0  0  0  0  0  0  0  0  0  0  0
    3.9139   -2.3775    1.0424 O   0  0  0  0  0  0  0  0  0  0  0  0
    2.6834   -1.2082    3.0408 O   0  0  0  0  0  0  0  0  0  0  0  0
   -1.7258    3.2418    3.4014 O   0  0  0  0  0  0  0  0  0  0  0  0
   -3.0246    0.6369    0.5636 N   0  0  0  0  0  0  0  0  0  0  0  0
   -3.3049    2.6330    1.8233 N   0  0  0  0  0  0  0  0  0  0  0  0
   -2.7585   -1.4181   -2.3917 C   0  0  0  0  0  0  0  0  0  0  0  0
   -2.8329   -0.0296   -1.7927 C   0  0  0  0  0  0  0  0  0  0  0  0
   -2.4010   -2.2693   -1.1809 C   0  0  0  0  0  0  0  0  0  0  0  0
   -3.4485   -0.3061   -0.4318 C   0  0  0  0  0  0  0  0  0  0  0  0
   -0.9020   -2.3547   -0.9265 C   0  0  0  0  0  0  0  0  0  0  0  0
    3.6781    2.5035   -1.0035 C   0  0  0  0  0  0  0  0  0  0  0  0
    4.2186    1.0810   -1.1558 C   0  0  0  0  0  0  0  0  0  0  0  0
    2.2672    2.5981   -1.5862 C   0  0  0  0  0  0  0  0  0  0  0  0
    3.2234    0.0350   -0.6484 C   0  0  0  0  0  0  0  0  0  0  0  0
    1.3777    1.4770   -1.0624 C   0  0  0  0  0  0  0  0  0  0  0  0
   -3.8130    1.7798    0.8348 C   0  0  0  0  0  0  0  0  0  0  0  0
   -1.8401    0.4257    1.2596 C   0  0  0  0  0  0  0  0  0  0  0  0
   -1.3686    1.2480    2.1992 C   0  0  0  0  0  0  0  0  0  0  0  0
   -2.1316    2.4649    2.5423 C   0  0  0  0  0  0  0  0  0  0  0  0
  1  6  1  0
  1 12  1  0
  1 14  1  0
  1 15  2  0
  2  8  1  0
  2 12  1  0
  2 16  1  0
  2 17  2  0
  3 23  1  0
  3 24  1  0
  4 21  1  0
  5 22  1  0
  6 25  1  0
  7 29  1  0
  7 30  1  0
  8 29  1  0
  9 26  1  0
 10 27  1  0
 11 28  1  0
 13 31  2  0
 18 34  2  0
 19 24  1  0
 19 31  1  0
 19 32  1  0
 20 31  1  0
 20 34  1  0
 21 22  1  0
 21 23  1  0
 22 24  1  0
 23 25  1  0
 26 27  1  0
 26 28  1  0
 27 29  1  0
 28 30  1  0
 32 33  2  0
 33 34  1  0
M  END
>  <PUBCHEM_COMPOUND_CID>  (1) 
19235

>  <PUBCHEM_CONFORMER_RMSD>  (1) 
1.2

>  <PUBCHEM_CONFORMER_DIVERSEORDER>  (1) 
1
16
189
165
113
63
193
43
185
188
287
105
80
269
37
203
128
176
226
153
221
281
220
253
240
36
234
225
90
265
173
95
217
121
166
252
259
276
213
257
55
159
192
146
286
210
53
114
3
33
138
13
143
68
136
279
283
175
100
271
250
216
268
67
205
26
17
148
51
132
244
247
2
228
200
230
211
119
34
208
190
181
45
155
60
238
137
284
154
4
182
224
289
251
77
72
46
111
62
160
218
201
191
177
56
239
42
81
83
107
50
116
52
204
39
233
23
49
288
180
157
178
202
21
168
92
214
120
103
104
280
236
66
227
48
78
102
170
65
174
54
84
266
156
10
147
91
264
179
131
273
41
101
139
209
115
149
158
258
59
106
27
130
263
232
270
29
74
135
141
134
142
187
277
162
172
231
75
196
183
206
124
285
108
241
249
14
127
242
152
38
126
11
235
18
61
73
278
94
12
150
223
123
194
145
245
260
171
243
47
274
262
22
69
229
97
261
186
112
255
248
122
44
282
110
85
64
99
267
133
96
7
167
197
28
169
198
89
86
272
31
195
237
25
275
87
215
212
256
5
246
76
35
129
207
24
109
70
184
164
93
20
254
219
118
82
88
15
161
79
6
98
144
140
163
32
222
8
117
151
57
199
71
58
30
40
9
19
125

>  <PUBCHEM_MMFF94_PARTIAL_CHARGES>  (1) 
44
1 1.51
10 -0.68
11 -0.68
12 -0.54
13 -0.57
14 -0.77
15 -0.7
16 -0.77
17 -0.7
18 -0.57
19 -0.47
2 1.51
20 -0.49
21 0.28
22 0.28
23 0.28
24 0.58
25 0.28
26 0.28
27 0.28
28 0.28
29 0.56
3 -0.56
30 0.28
31 0.69
32 -0.04
33 -0.14
34 0.62
4 -0.68
45 0.4
46 0.4
49 0.15
5 -0.68
50 0.4
51 0.4
52 0.37
53 0.15
54 0.4
55 0.5
56 0.5
6 -0.55
7 -0.56
8 -0.55
9 -0.68

>  <PUBCHEM_EFFECTIVE_ROTOR_COUNT>  (1) 
10.2

>  <PUBCHEM_PHARMACOPHORE_FEATURES>  (1) 
22
1 10 acceptor
1 10 donor
1 11 acceptor
1 11 donor
1 13 acceptor
1 14 acceptor
1 15 acceptor
1 16 acceptor
1 17 acceptor
1 18 acceptor
1 20 donor
1 3 acceptor
1 4 acceptor
1 4 donor
1 5 acceptor
1 5 donor
1 7 acceptor
1 9 acceptor
1 9 donor
5 3 21 22 23 24 rings
6 19 20 31 32 33 34 rings
6 7 26 27 28 29 30 rings

>  <PUBCHEM_HEAVY_ATOM_COUNT>  (1) 
34

>  <PUBCHEM_ATOM_DEF_STEREO_COUNT>  (1) 
8

>  <PUBCHEM_ATOM_UDEF_STEREO_COUNT>  (1) 
0

>  <PUBCHEM_BOND_DEF_STEREO_COUNT>  (1) 
0

>  <PUBCHEM_BOND_UDEF_STEREO_COUNT>  (1) 
0

>  <PUBCHEM_ISOTOPIC_ATOM_COUNT>  (1) 
0

>  <PUBCHEM_COMPONENT_COUNT>  (1) 
1

>  <PUBCHEM_CACTVS_TAUTO_COUNT>  (1) 
3

>  <PUBCHEM_CONFORMER_ID>  (1) 
00004B2300000001

>  <PUBCHEM_MMFF94_ENERGY>  (1) 
46.2299

>  <PUBCHEM_FEATURE_SELFOVERLAP>  (1) 
111.715

>  <PUBCHEM_SHAPE_FINGERPRINT>  (1) 
11007060 377 17970348342333934012
11513181 2 16698066848448513943
11640471 11 18270409291051983345
11763715 3 17773004601834339527
12166972 35 18120341389868247207
12539773 59 18272087261855104207
12788726 201 18128266777160355811
14114206 34 18129940195361725269
14289585 56 17830188908946118692
16067690 210 17632858646065319184
19311894 1 18335993068437897598
19319366 153 18340783575922128019
20511986 3 18412546500581041752
20775438 99 15899504150091817926
21796203 349 17898308112700395720
21860390 5 17755324291323058616
469060 322 16519355896081566891
50150288 127 17625864721494151161
5895379 119 18273215292403497390
6609424 69 16321513690985796561

>  <PUBCHEM_SHAPE_MULTIPOLES>  (1) 
603.53
9
5.17
3.03
2.99
1.67
-0.96
-4.9
2.97
1.63
-1.26
-1.64
-1.01
-5.41

>  <PUBCHEM_SHAPE_SELFOVERLAP>  (1) 
1231.506

>  <PUBCHEM_SHAPE_VOLUME>  (1) 
349.7

>  <PUBCHEM_COORDINATE_TYPE>  (1) 
2
5
10

$$$$
