19236
     RDKit          3D

 20 22  0  0  1  0  0  0  0  0999 V2000
   -3.7914    0.6402    0.5289 P   0  0  0  0  0  0  0  0  0  0  0  0
   -0.2139   -0.5460   -1.5993 O   0  0  0  0  0  0  0  0  0  0  0  0
   -2.6538   -0.4257    1.0038 O   0  0  0  0  0  0  0  0  0  0  0  0
   -3.6460    0.7087   -1.0892 O   0  0  0  0  0  0  0  0  0  0  0  0
   -0.9559   -2.6559    0.6227 O   0  0  0  0  0  0  0  0  0  0  0  0
   -3.2134    2.0677    1.0297 O   0  0  0  0  0  0  0  0  0  0  0  0
   -5.1733    0.3304    1.0263 O   0  0  0  0  0  0  0  0  0  0  0  0
    3.0800   -2.1681    0.2312 O   0  0  0  0  0  0  0  0  0  0  0  0
    1.7034   -0.3845   -0.2682 N   0  0  0  0  0  0  0  0  0  0  0  0
    4.0078   -0.1023    0.3851 N   0  0  0  0  0  0  0  0  0  0  0  0
    4.9520    2.0170    0.5428 N   0  0  0  0  0  0  0  0  0  0  0  0
   -1.3971   -0.2892    0.3808 C   0  0  0  0  0  0  0  0  0  0  0  0
   -1.5507   -0.4297   -1.1181 C   0  0  0  0  0  0  0  0  0  0  0  0
   -0.3682   -1.3592    0.6599 C   0  0  0  0  0  0  0  0  0  0  0  0
    0.5544   -1.1991   -0.5569 C   0  0  0  0  0  0  0  0  0  0  0  0
   -2.3428    0.7355   -1.6749 C   0  0  0  0  0  0  0  0  0  0  0  0
    1.5862    0.9919   -0.3772 C   0  0  0  0  0  0  0  0  0  0  0  0
    2.9434   -0.9481    0.1233 C   0  0  0  0  0  0  0  0  0  0  0  0
    2.5974    1.8220   -0.1285 C   0  0  0  0  0  0  0  0  0  0  0  0
    3.8817    1.1944    0.2777 C   0  0  0  0  0  0  0  0  0  0  0  0
  1  3  1  0
  1  4  1  0
  1  6  1  0
  1  7  2  0
  2 13  1  0
  2 15  1  0
  3 12  1  0
  4 16  1  0
  5 14  1  0
  8 18  2  0
  9 15  1  0
  9 17  1  0
  9 18  1  0
 10 18  1  0
 10 20  2  0
 11 20  1  0
 12 13  1  0
 12 14  1  0
 13 16  1  0
 14 15  1  0
 17 19  2  0
 19 20  1  0
M  END
>  <PUBCHEM_COMPOUND_CID>  (1) 
19236

>  <PUBCHEM_CONFORMER_RMSD>  (1) 
0.6

>  <PUBCHEM_CONFORMER_DIVERSEORDER>  (1) 
1
5
7
3
4
6
2

>  <PUBCHEM_MMFF94_PARTIAL_CHARGES>  (1) 
26
1 1.51
10 -0.66
11 -0.85
12 0.28
13 0.28
14 0.28
15 0.58
16 0.28
17 -0.04
18 0.84
19 -0.14
2 -0.56
20 0.49
27 0.4
28 0.15
29 0.5
3 -0.55
30 0.15
31 0.4
32 0.4
4 -0.55
5 -0.68
6 -0.77
7 -0.7
8 -0.57
9 -0.47

>  <PUBCHEM_EFFECTIVE_ROTOR_COUNT>  (1) 
2.2

>  <PUBCHEM_PHARMACOPHORE_FEATURES>  (1) 
11
1 10 donor
1 11 donor
1 2 acceptor
1 5 acceptor
1 5 donor
1 6 acceptor
1 7 acceptor
1 8 acceptor
5 2 12 13 14 15 rings
6 1 3 4 12 13 16 rings
6 9 10 17 18 19 20 rings

>  <PUBCHEM_HEAVY_ATOM_COUNT>  (1) 
20

>  <PUBCHEM_ATOM_DEF_STEREO_COUNT>  (1) 
4

>  <PUBCHEM_ATOM_UDEF_STEREO_COUNT>  (1) 
0

>  <PUBCHEM_BOND_DEF_STEREO_COUNT>  (1) 
0

>  <PUBCHEM_BOND_UDEF_STEREO_COUNT>  (1) 
0

>  <PUBCHEM_ISOTOPIC_ATOM_COUNT>  (1) 
0

>  <PUBCHEM_COMPONENT_COUNT>  (1) 
1

>  <PUBCHEM_CACTVS_TAUTO_COUNT>  (1) 
3

>  <PUBCHEM_CONFORMER_ID>  (1) 
00004B2400000001

>  <PUBCHEM_MMFF94_ENERGY>  (1) 
43.9281

>  <PUBCHEM_FEATURE_SELFOVERLAP>  (1) 
55.968

>  <PUBCHEM_SHAPE_FINGERPRINT>  (1) 
11046707 91 11458416938411011776
11132069 177 17603588521657866687
11640471 11 17489590047629733890
12236239 1 17704069590305319111
12251169 10 18114467854481019982
12390115 104 18048043158146444644
12403259 415 18113620036922454285
12507560 40 17967248676371051308
12633257 1 17604426426791006088
12788726 201 17628613534818354566
12892183 10 18335147483370489553
13140716 1 18120372318302188000
13583140 156 15864892335649651268
13675066 3 17821728312408601838
14178342 30 18117273860285939074
14341114 328 18202292381628011497
14787075 74 18343303708471300403
15219456 202 18186516592365020454
15309172 13 18260544507040076463
15342168 16 18337116764361937493
15653759 3 17240201014808817405
15775835 57 17918274263832972560
16945 1 18270399373825141870
1813 80 17127349194888036966
18186145 218 18411699850793741558
18219364 16 18041267803595819621
19049666 15 17678725744469728406
19784866 170 18114179774572855316
19784866 240 11746927689969719488
19862831 5 13973970904149252358
20645477 56 18113610218537486340
20871999 31 15123501545420018293
21033648 29 17968364685026753469
21524375 3 18343021094800735455
22079108 93 18412266159933691387
22854114 59 18186240619468158653
23184049 59 18336264557119493318
23559900 14 16516804732689306754
465052 167 12396592836093291601
474 4 18342737394825224075
4921388 177 14764346089254929861
5104073 3 18264197171152158706
602551 16 16081093692434050216
633830 44 18201160931990562407
69090 78 18333446573358473003
81228 2 17606120834107128179
83771 10 8286203850749569207
90316 7 14779540137264895815

>  <PUBCHEM_SHAPE_MULTIPOLES>  (1) 
359.41
8.69
2.1
1.21
0.6
0.38
0.36
-4.48
-2.48
1.23
-0.44
-1.16
-0.12
0.1

>  <PUBCHEM_SHAPE_SELFOVERLAP>  (1) 
759.281

>  <PUBCHEM_SHAPE_VOLUME>  (1) 
202

>  <PUBCHEM_COORDINATE_TYPE>  (1) 
2
5
10

$$$$
