1924
     RDKit          2D

 24 27  0  0  1  0  0  0  0  0999 V2000
    0.0000    0.0000    0.0000 S   0  0  0  0  0  0  0  0  0  0  0  0
    0.0000    0.0000    0.0000 P   0  0  0  0  0  0  0  0  0  0  0  0
    0.0000    0.0000    0.0000 O   0  0  0  0  0  0  0  0  0  0  0  0
    0.0000    0.0000    0.0000 O   0  0  0  0  0  0  0  0  0  0  0  0
    0.0000    0.0000    0.0000 O   0  0  0  0  0  0  0  0  0  0  0  0
    0.0000    0.0000    0.0000 O   0  0  0  0  0  0  0  0  0  0  0  0
    0.0000    0.0000    0.0000 O   0  0  0  0  0  0  0  0  0  0  0  0
    0.0000    0.0000    0.0000 O   0  0  0  0  0  0  0  0  0  0  0  0
    0.0000    0.0000    0.0000 N   0  0  0  0  0  0  0  0  0  0  0  0
    0.0000    0.0000    0.0000 N   0  0  0  0  0  0  0  0  0  0  0  0
    0.0000    0.0000    0.0000 N   0  0  0  0  0  0  0  0  0  0  0  0
    0.0000    0.0000    0.0000 N   0  0  0  0  0  0  0  0  0  0  0  0
    0.0000    0.0000    0.0000 N   0  0  0  0  0  0  0  0  0  0  0  0
    0.0000    0.0000    0.0000 C   0  0  0  0  0  0  0  0  0  0  0  0
    0.0000    0.0000    0.0000 C   0  0  0  0  0  0  0  0  0  0  0  0
    0.0000    0.0000    0.0000 C   0  0  0  0  0  0  0  0  0  0  0  0
    0.0000    0.0000    0.0000 C   0  0  0  0  0  0  0  0  0  0  0  0
    0.0000    0.0000    0.0000 C   0  0  0  0  0  0  0  0  0  0  0  0
    0.0000    0.0000    0.0000 C   0  0  0  0  0  0  0  0  0  0  0  0
    0.0000    0.0000    0.0000 C   0  0  0  0  0  0  0  0  0  0  0  0
    0.0000    0.0000    0.0000 C   0  0  0  0  0  0  0  0  0  0  0  0
    0.0000    0.0000    0.0000 C   0  0  0  0  0  0  0  0  0  0  0  0
    0.0000    0.0000    0.0000 C   0  0  0  0  0  0  0  0  0  0  0  0
    0.0000    0.0000    0.0000 C   0  0  0  0  0  0  0  0  0  0  0  0
  1 22  1  0
  2  4  1  0
  2  5  1  0
  2  7  1  0
  2  8  2  0
  3 15  1  0
  3 17  1  0
  4 14  1  0
  5 18  1  0
  6 16  1  0
  9 17  1  0
  9 19  1  0
  9 20  1  0
 10 19  2  0
 10 21  1  0
 11 20  1  0
 11 24  2  0
 12 23  2  0
 12 24  1  0
 13 23  1  0
 14 15  1  0
 14 16  1  0
 15 18  1  0
 16 17  1  0
 19 22  1  0
 20 21  2  0
 21 23  1  0
M  END
>  <PUBCHEM_COMPOUND_CID>  (1) 
1924

>  <PUBCHEM_CONFORMER_RMSD>  (1) 
0.6

>  <PUBCHEM_CONFORMER_DIVERSEORDER>  (1) 
27
40
115
135
138
87
111
119
139
131
59
129
147
56
67
161
57
106
71
121
99
143
156
116
151
146
88
128
82
152
159
92
104
149
36
68
158
140
125
136
134
31
160
132
91
50
137
108
94
123
120
109
162
49
150
112
117
77
126
133
84
142
21
78
64
154
76
130
44
89
45
127
148
118
39
13
41
113
17
155
86
103
114
85
122
65
62
102
74
107
110
72
81
47
18
7
10
51
33
153
124
79
12
63
24
93
145
105
75
97
5
141
34
4
70
42
73
157
60
46
80
54
98
16
144
95
90
28
30
58
43
66
19
20
52
101
61
48
83
100
8
1
96
32
9
69
35
38
25
26
55
23
15
37
22
29
6
11
2
14
53
3

>  <PUBCHEM_MMFF94_PARTIAL_CHARGES>  (1) 
30
1 -0.41
10 -0.57
11 -0.57
12 -0.62
13 -0.9
14 0.28
15 0.28
16 0.28
17 0.54
18 0.28
19 0.01
2 1.51
20 0.11
21 0.23
22 0.41
23 0.41
24 0.47
3 -0.56
31 0.4
34 0.5
35 0.15
36 0.18
37 0.4
38 0.4
4 -0.55
5 -0.55
6 -0.68
7 -0.77
8 -0.7
9 0.05

>  <PUBCHEM_EFFECTIVE_ROTOR_COUNT>  (1) 
3.2

>  <PUBCHEM_PHARMACOPHORE_FEATURES>  (1) 
14
1 13 cation
1 13 donor
1 3 acceptor
1 6 acceptor
1 6 donor
1 7 acceptor
1 8 acceptor
3 11 12 24 cation
3 9 10 19 cation
3 9 11 20 cation
5 3 14 15 16 17 rings
5 9 10 19 20 21 rings
6 11 12 20 21 23 24 rings
6 2 4 5 14 15 18 rings

>  <PUBCHEM_HEAVY_ATOM_COUNT>  (1) 
24

>  <PUBCHEM_ATOM_DEF_STEREO_COUNT>  (1) 
0

>  <PUBCHEM_ATOM_UDEF_STEREO_COUNT>  (1) 
4

>  <PUBCHEM_BOND_DEF_STEREO_COUNT>  (1) 
0

>  <PUBCHEM_BOND_UDEF_STEREO_COUNT>  (1) 
0

>  <PUBCHEM_ISOTOPIC_ATOM_COUNT>  (1) 
0

>  <PUBCHEM_COMPONENT_COUNT>  (1) 
1

>  <PUBCHEM_CACTVS_TAUTO_COUNT>  (1) 
3

$$$$
