19242
     RDKit          3D

  9  9  0  0  1  0  0  0  0  0999 V2000
   -2.0094    1.6346   -0.3615 O   0  0  0  0  0  0  0  0  0  0  0  0
   -1.6329   -0.5987   -0.0581 N   0  0  0  0  0  0  0  0  0  0  0  0
    1.2315    0.5111   -0.2580 C   0  0  0  0  0  0  0  0  0  0  0  0
    1.5448   -0.9732   -0.0060 C   0  0  0  0  0  0  0  0  0  0  0  0
    0.4197   -1.9369   -0.3841 C   0  0  0  0  0  0  0  0  0  0  0  0
    0.0848    1.0246    0.6234 C   0  0  0  0  0  0  0  0  0  0  0  0
   -0.8580   -1.7295    0.4171 C   0  0  0  0  0  0  0  0  0  0  0  0
    2.4926    1.3426    0.0017 C   0  0  0  0  0  0  0  0  0  0  0  0
   -1.2732    0.7254    0.0255 C   0  0  0  0  0  0  0  0  0  0  0  0
  1  9  2  0
  2  7  1  0
  2  9  1  0
  3  4  1  0
  3  6  1  0
  3  8  1  0
  4  5  1  0
  5  7  1  0
  6  9  1  0
M  END
>  <PUBCHEM_COMPOUND_CID>  (1) 
19242

>  <PUBCHEM_CONFORMER_RMSD>  (1) 
0.4

>  <PUBCHEM_CONFORMER_DIVERSEORDER>  (1) 
1
4
3
2

>  <PUBCHEM_MMFF94_PARTIAL_CHARGES>  (1) 
6
1 -0.57
2 -0.73
22 0.37
6 0.06
7 0.3
9 0.57

>  <PUBCHEM_EFFECTIVE_ROTOR_COUNT>  (1) 
1.2

>  <PUBCHEM_PHARMACOPHORE_FEATURES>  (1) 
3
1 1 acceptor
1 2 donor
7 2 3 4 5 6 7 9 rings

>  <PUBCHEM_HEAVY_ATOM_COUNT>  (1) 
9

>  <PUBCHEM_ATOM_DEF_STEREO_COUNT>  (1) 
0

>  <PUBCHEM_ATOM_UDEF_STEREO_COUNT>  (1) 
1

>  <PUBCHEM_BOND_DEF_STEREO_COUNT>  (1) 
0

>  <PUBCHEM_BOND_UDEF_STEREO_COUNT>  (1) 
0

>  <PUBCHEM_ISOTOPIC_ATOM_COUNT>  (1) 
0

>  <PUBCHEM_COMPONENT_COUNT>  (1) 
1

>  <PUBCHEM_CACTVS_TAUTO_COUNT>  (1) 
2

>  <PUBCHEM_CONFORMER_ID>  (1) 
00004B2A00000001

>  <PUBCHEM_MMFF94_ENERGY>  (1) 
12.6886

>  <PUBCHEM_FEATURE_SELFOVERLAP>  (1) 
15.223

>  <PUBCHEM_SHAPE_FINGERPRINT>  (1) 
16714656 1 17978798131356295306
16945 1 18192433184798629762
18185500 45 17331120494692999707
21040471 1 18410573989652270192
23552423 10 18194961838309729757
241688 4 16827563913162709922
2748010 2 18411142424141687646
66348 1 18051412073787796771

>  <PUBCHEM_SHAPE_MULTIPOLES>  (1) 
174.37
2.67
2.17
0.7
1.1
0.43
-0.03
-0.94
0.1
-0.57
0.12
0
0
0.22

>  <PUBCHEM_SHAPE_SELFOVERLAP>  (1) 
337.228

>  <PUBCHEM_SHAPE_VOLUME>  (1) 
104.9

>  <PUBCHEM_COORDINATE_TYPE>  (1) 
2
5
10

$$$$
