19244
     RDKit          3D

 11 11  0  0  1  0  0  0  0  0999 V2000
   -0.2084    1.5991    0.9707 O   0  0  0  0  0  0  0  0  0  0  0  0
    0.7078   -0.2130   -0.3653 C   0  0  0  0  0  0  0  0  0  0  0  0
   -0.0927    1.1006   -0.3586 C   0  0  0  0  0  0  0  0  0  0  0  0
   -0.0809   -1.3535    0.2938 C   0  0  0  0  0  0  0  0  0  0  0  0
   -2.2869   -0.2606   -0.3958 C   0  0  0  0  0  0  0  0  0  0  0  0
   -1.4839    0.9173   -0.9761 C   0  0  0  0  0  0  0  0  0  0  0  0
   -1.4453   -1.5433   -0.3675 C   0  0  0  0  0  0  0  0  0  0  0  0
    2.0694   -0.0517    0.3135 C   0  0  0  0  0  0  0  0  0  0  0  0
   -2.8845    0.0521    0.9785 C   0  0  0  0  0  0  0  0  0  0  0  0
    2.8639   -1.3497    0.2221 C   0  0  0  0  0  0  0  0  0  0  0  0
    2.8416    1.1028   -0.3152 C   0  0  0  0  0  0  0  0  0  0  0  0
  1  3  1  0
  2  3  1  0
  2  4  1  0
  2  8  1  0
  3  6  1  0
  4  7  1  0
  5  6  1  0
  5  7  1  0
  5  9  1  0
  8 10  1  0
  8 11  1  0
M  END
>  <PUBCHEM_COMPOUND_CID>  (1) 
19244

>  <PUBCHEM_CONFORMER_RMSD>  (1) 
0.6

>  <PUBCHEM_CONFORMER_DIVERSEORDER>  (1) 
3
5
4
2
6
1
7

>  <PUBCHEM_MMFF94_PARTIAL_CHARGES>  (1) 
3
1 -0.68
3 0.28
31 0.4

>  <PUBCHEM_EFFECTIVE_ROTOR_COUNT>  (1) 
2.2

>  <PUBCHEM_PHARMACOPHORE_FEATURES>  (1) 
4
1 1 acceptor
1 1 donor
3 8 10 11 hydrophobe
6 2 3 4 5 6 7 rings

>  <PUBCHEM_HEAVY_ATOM_COUNT>  (1) 
11

>  <PUBCHEM_ATOM_DEF_STEREO_COUNT>  (1) 
3

>  <PUBCHEM_ATOM_UDEF_STEREO_COUNT>  (1) 
0

>  <PUBCHEM_BOND_DEF_STEREO_COUNT>  (1) 
0

>  <PUBCHEM_BOND_UDEF_STEREO_COUNT>  (1) 
0

>  <PUBCHEM_ISOTOPIC_ATOM_COUNT>  (1) 
0

>  <PUBCHEM_COMPONENT_COUNT>  (1) 
1

>  <PUBCHEM_CACTVS_TAUTO_COUNT>  (1) 
1

>  <PUBCHEM_CONFORMER_ID>  (1) 
00004B2C00000003

>  <PUBCHEM_MMFF94_ENERGY>  (1) 
21.9111

>  <PUBCHEM_FEATURE_SELFOVERLAP>  (1) 
20.297

>  <PUBCHEM_SHAPE_FINGERPRINT>  (1) 
10857977 72 17676770950239640761
12423570 1 8887280555559980365
12524768 44 18411702092887989358
12932764 1 18334574650855523614
13024252 1 17676203546289212407
14325111 11 18334572434383425500
15310529 11 17458060469297678036
15775835 57 18410015467609554061
16945 1 18261951967722586636
17844478 74 17967259697462822057
20201158 50 18411129234550569550
20653085 51 17604149212115748596
23552423 10 18259697900451245918
241688 4 15457037968108683715
2748010 2 18261946345710675092
29004967 10 17530686532327329281
3248919 1 17632573846856975358
369184 2 18410849962575362734
5084963 1 17895762785630366974
63268167 104 18411132575939933427

>  <PUBCHEM_SHAPE_MULTIPOLES>  (1) 
220.51
4.24
1.66
0.93
1.19
0.13
-0.08
0.31
-0.4
0.32
0
-0.41
-0.17
-0.13

>  <PUBCHEM_SHAPE_SELFOVERLAP>  (1) 
427.46

>  <PUBCHEM_SHAPE_VOLUME>  (1) 
134

>  <PUBCHEM_COORDINATE_TYPE>  (1) 
2
5
10

$$$$
