19249
     RDKit          3D

 25 27  0  0  0  0  0  0  0  0999 V2000
   -2.7704   -1.3328    1.7211 S   0  0  0  0  0  0  0  0  0  0  0  0
    0.5576    1.4024    0.0749 O   0  0  0  0  0  0  0  0  0  0  0  0
    5.2212    1.7435   -0.3124 O   0  0  0  0  0  0  0  0  0  0  0  0
   -3.6855   -1.6019   -1.7763 O   0  0  0  0  0  0  0  0  0  0  0  0
   -5.6098   -1.4210   -0.5799 O   0  0  0  0  0  0  0  0  0  0  0  0
    0.9931   -1.5570    0.0684 N   0  0  0  0  0  0  0  0  0  0  0  0
    4.2811   -0.3826   -0.2139 N   0  0  0  0  0  0  0  0  0  0  0  0
    2.8911    1.5986   -0.1191 N   0  0  0  0  0  0  0  0  0  0  0  0
    3.0127   -2.4879   -0.0885 N   0  0  0  0  0  0  0  0  0  0  0  0
    1.8838   -0.5255   -0.0145 C   0  0  0  0  0  0  0  0  0  0  0  0
    3.1112   -1.1226   -0.1098 C   0  0  0  0  0  0  0  0  0  0  0  0
   -0.4429   -1.4708    0.1849 C   0  0  0  0  0  0  0  0  0  0  0  0
    1.6678    0.8850   -0.0111 C   0  0  0  0  0  0  0  0  0  0  0  0
    1.7204   -2.7182    0.0196 C   0  0  0  0  0  0  0  0  0  0  0  0
   -0.9566   -1.4204    1.6238 C   0  0  0  0  0  0  0  0  0  0  0  0
    4.2134    1.0332   -0.2218 C   0  0  0  0  0  0  0  0  0  0  0  0
    5.5657   -1.0643   -0.3128 C   0  0  0  0  0  0  0  0  0  0  0  0
    2.8002    3.0549   -0.1269 C   0  0  0  0  0  0  0  0  0  0  0  0
   -3.0972    0.1875    0.8369 C   0  0  0  0  0  0  0  0  0  0  0  0
   -3.8852    0.2159   -0.3140 C   0  0  0  0  0  0  0  0  0  0  0  0
   -2.5389    1.3677    1.3284 C   0  0  0  0  0  0  0  0  0  0  0  0
   -4.1147    1.4237   -0.9729 C   0  0  0  0  0  0  0  0  0  0  0  0
   -2.7683    2.5755    0.6695 C   0  0  0  0  0  0  0  0  0  0  0  0
   -3.5562    2.6036   -0.4812 C   0  0  0  0  0  0  0  0  0  0  0  0
   -4.4935   -0.9866   -0.8723 C   0  0  0  0  0  0  0  0  0  0  0  0
  1 15  1  0
  1 19  1  0
  2 13  2  0
  3 16  2  0
  4 25  1  0
  5 25  2  0
  6 10  1  0
  6 12  1  0
  6 14  1  0
  7 11  1  0
  7 16  1  0
  7 17  1  0
  8 13  1  0
  8 16  1  0
  8 18  1  0
  9 11  1  0
  9 14  2  0
 10 11  2  0
 10 13  1  0
 12 15  1  0
 19 20  2  0
 19 21  1  0
 20 22  1  0
 20 25  1  0
 21 23  2  0
 22 24  2  0
 23 24  1  0
M  END
>  <PUBCHEM_COMPOUND_CID>  (1) 
19249

>  <PUBCHEM_CONFORMER_RMSD>  (1) 
0.8

>  <PUBCHEM_CONFORMER_DIVERSEORDER>  (1) 
1
57
109
77
10
38
119
66
36
98
41
23
113
90
20
99
107
93
94
3
127
78
95
85
49
97
131
68
110
117
59
27
79
34
96
70
83
102
60
45
118
51
76
52
124
126
65
100
112
121
71
19
116
22
46
92
48
74
103
91
108
6
28
2
87
125
39
72
111
86
11
69
8
47
4
88
25
24
55
18
44
105
15
122
21
130
37
73
82
104
17
64
132
12
31
115
43
35
13
106
7
81
40
75
120
128
30
5
101
16
61
14
33
62
67
29
80
53
42
63
58
26
89
54
114
84
9
56
32
123
129
50

>  <PUBCHEM_MMFF94_PARTIAL_CHARGES>  (1) 
31
1 -0.33
10 -0.24
11 0.29
12 0.26
13 0.71
14 0.04
15 0.23
16 0.69
17 0.3
18 0.3
19 0.1
2 -0.57
20 0.09
21 -0.15
22 -0.15
23 -0.15
24 -0.15
25 0.63
28 0.15
3 -0.57
37 0.15
38 0.15
39 0.15
4 -0.65
40 0.15
41 0.5
5 -0.57
6 0.05
7 -0.42
8 -0.42
9 -0.57

>  <PUBCHEM_EFFECTIVE_ROTOR_COUNT>  (1) 
5

>  <PUBCHEM_PHARMACOPHORE_FEATURES>  (1) 
9
1 2 acceptor
1 3 acceptor
1 4 acceptor
1 5 acceptor
3 4 5 25 anion
3 6 9 14 cation
5 6 9 10 11 14 rings
6 19 20 21 22 23 24 rings
6 7 8 10 11 13 16 rings

>  <PUBCHEM_HEAVY_ATOM_COUNT>  (1) 
25

>  <PUBCHEM_ATOM_DEF_STEREO_COUNT>  (1) 
0

>  <PUBCHEM_ATOM_UDEF_STEREO_COUNT>  (1) 
0

>  <PUBCHEM_BOND_DEF_STEREO_COUNT>  (1) 
0

>  <PUBCHEM_BOND_UDEF_STEREO_COUNT>  (1) 
0

>  <PUBCHEM_ISOTOPIC_ATOM_COUNT>  (1) 
0

>  <PUBCHEM_COMPONENT_COUNT>  (1) 
1

>  <PUBCHEM_CACTVS_TAUTO_COUNT>  (1) 
1

>  <PUBCHEM_CONFORMER_ID>  (1) 
00004B3100000001

>  <PUBCHEM_MMFF94_ENERGY>  (1) 
58.855

>  <PUBCHEM_FEATURE_SELFOVERLAP>  (1) 
45.845

>  <PUBCHEM_SHAPE_FINGERPRINT>  (1) 
11370993 70 18335139808153382640
12403260 363 18410291419437754808
12467345 10 18272083903143270639
12596599 1 17987246521059011477
12788726 201 17202768077993120977
13224815 77 18411141333378301961
13402501 40 18259985950659084892
13583140 156 16081089319972921353
13944108 23 15954121724613814277
14251751 93 18059856147201140711
14251764 38 18334579065792279604
14466204 15 18335699425950439944
14790565 3 18046080499995015596
15196674 1 18410293583964238644
1601671 61 18335147441069578406
16994733 274 15792556471956885519
17349148 13 18335134289172882088
17492 89 18341611465403107271
200 152 18273214227050985563
20775438 99 17193722683267246959
21033648 29 16805600339727529327
21095088 737 18411981399064412569
21279426 13 18263374603400655950
21709351 56 18411421678984238318
221357 26 18411979174350331541
22393880 68 18341895143259417844
22749437 52 18260554436988770433
23559900 14 18338508737899332369
25265897 201 17699309680542587973
3380486 145 17828504783777422763
4280585 95 17339012836740304222
463206 1 18127406968047883295
508706 21 17967534549536983717
9709674 26 18408611339895454011
9981440 41 18334009531685467555

>  <PUBCHEM_SHAPE_MULTIPOLES>  (1) 
474.94
11.6
3.25
1.19
3.01
1.09
0.21
0.85
-3.14
0.5
-0.01
-1.65
-0.38
-0.25

>  <PUBCHEM_SHAPE_SELFOVERLAP>  (1) 
1011.321

>  <PUBCHEM_SHAPE_VOLUME>  (1) 
268.2

>  <PUBCHEM_COORDINATE_TYPE>  (1) 
2
5
10

$$$$
