19246
     RDKit          3D

 29 31  0  0  0  0  0  0  0  0999 V2000
    4.9575   -3.9441   -0.1396 Cl  0  0  0  0  0  0  0  0  0  0  0  0
   -6.1048   -1.0451    0.1344 S   0  0  0  0  0  0  0  0  0  0  0  0
    5.8656    1.3856   -0.0246 S   0  0  0  0  0  0  0  0  0  0  0  0
   -0.4712    2.0528   -0.4164 O   0  0  0  0  0  0  0  0  0  0  0  0
   -5.7997   -1.7760    1.5615 O   0  0  0  0  0  0  0  0  0  0  0  0
   -7.4321   -0.4627    0.2234 O   0  0  0  0  0  0  0  0  0  0  0  0
   -5.7590   -1.9644   -0.9342 O   0  0  0  0  0  0  0  0  0  0  0  0
    2.8936    1.5355    0.3411 O   0  0  0  0  0  0  0  0  0  0  0  0
    5.9077    1.9958    1.4907 O   0  0  0  0  0  0  0  0  0  0  0  0
    7.1866    0.8446   -0.3035 O   0  0  0  0  0  0  0  0  0  0  0  0
    5.2694    2.3823   -0.8986 O   0  0  0  0  0  0  0  0  0  0  0  0
    0.5646   -0.5030   -0.6496 N   0  0  0  0  0  0  0  0  0  0  0  0
    1.1248   -0.6141    0.4655 N   0  0  0  0  0  0  0  0  0  0  0  0
   -3.5716    0.0735   -0.1254 C   0  0  0  0  0  0  0  0  0  0  0  0
   -2.7086    1.1937   -0.1830 C   0  0  0  0  0  0  0  0  0  0  0  0
   -4.9501    0.2769    0.0497 C   0  0  0  0  0  0  0  0  0  0  0  0
   -1.3301    0.9900   -0.3583 C   0  0  0  0  0  0  0  0  0  0  0  0
   -3.0308   -1.2171   -0.2449 C   0  0  0  0  0  0  0  0  0  0  0  0
   -3.2495    2.4842   -0.0638 C   0  0  0  0  0  0  0  0  0  0  0  0
   -0.8098   -0.2994   -0.4749 C   0  0  0  0  0  0  0  0  0  0  0  0
   -5.4703    1.5661    0.1667 C   0  0  0  0  0  0  0  0  0  0  0  0
   -1.6587   -1.4009   -0.4185 C   0  0  0  0  0  0  0  0  0  0  0  0
   -4.6216    2.6677    0.1100 C   0  0  0  0  0  0  0  0  0  0  0  0
    4.7430    0.0457    0.0546 C   0  0  0  0  0  0  0  0  0  0  0  0
    2.5041   -0.8187    0.2897 C   0  0  0  0  0  0  0  0  0  0  0  0
    3.3765    0.2645    0.2295 C   0  0  0  0  0  0  0  0  0  0  0  0
    5.2320   -1.2557   -0.0594 C   0  0  0  0  0  0  0  0  0  0  0  0
    2.9880   -2.1193    0.1764 C   0  0  0  0  0  0  0  0  0  0  0  0
    4.3545   -2.3383    0.0014 C   0  0  0  0  0  0  0  0  0  0  0  0
  1 29  1  0
  2  5  1  0
  2  6  2  0
  2  7  2  0
  2 16  1  0
  3  9  1  0
  3 10  2  0
  3 11  2  0
  3 24  1  0
  4 17  1  0
  8 26  1  0
 12 13  2  0
 12 20  1  0
 13 25  1  0
 14 15  1  0
 14 16  2  0
 14 18  1  0
 15 17  1  0
 15 19  2  0
 16 21  1  0
 17 20  2  0
 18 22  2  0
 19 23  1  0
 20 22  1  0
 21 23  2  0
 24 26  2  0
 24 27  1  0
 25 26  1  0
 25 28  2  0
 27 29  2  0
 28 29  1  0
M  END
>  <PUBCHEM_COMPOUND_CID>  (1) 
19246

>  <PUBCHEM_CONFORMER_RMSD>  (1) 
0.8

>  <PUBCHEM_CONFORMER_DIVERSEORDER>  (1) 
1
2
7
6
10
8
4
9
5
3

>  <PUBCHEM_MMFF94_PARTIAL_CHARGES>  (1) 
38
1 -0.18
10 -0.65
11 -0.65
12 -0.18
13 -0.18
16 -0.01
17 0.08
18 -0.15
19 -0.15
2 1.49
20 0.18
21 -0.15
22 -0.15
23 -0.15
24 -0.01
25 0.18
26 0.08
27 -0.15
28 -0.15
29 0.18
3 1.49
30 0.15
31 0.15
32 0.15
33 0.15
34 0.15
35 0.15
36 0.15
37 0.45
38 0.5
39 0.45
4 -0.53
40 0.5
5 -0.68
6 -0.65
7 -0.65
8 -0.53
9 -0.68

>  <PUBCHEM_EFFECTIVE_ROTOR_COUNT>  (1) 
4

>  <PUBCHEM_PHARMACOPHORE_FEATURES>  (1) 
13
1 10 acceptor
1 11 acceptor
1 4 donor
1 5 acceptor
1 6 acceptor
1 7 acceptor
1 8 donor
1 9 acceptor
4 2 5 6 7 anion
4 3 9 10 11 anion
6 14 15 16 19 21 23 rings
6 14 15 17 18 20 22 rings
6 24 25 26 27 28 29 rings

>  <PUBCHEM_HEAVY_ATOM_COUNT>  (1) 
29

>  <PUBCHEM_ATOM_DEF_STEREO_COUNT>  (1) 
0

>  <PUBCHEM_ATOM_UDEF_STEREO_COUNT>  (1) 
0

>  <PUBCHEM_BOND_DEF_STEREO_COUNT>  (1) 
0

>  <PUBCHEM_BOND_UDEF_STEREO_COUNT>  (1) 
0

>  <PUBCHEM_ISOTOPIC_ATOM_COUNT>  (1) 
0

>  <PUBCHEM_COMPONENT_COUNT>  (1) 
1

>  <PUBCHEM_CACTVS_TAUTO_COUNT>  (1) 
8

>  <PUBCHEM_CONFORMER_ID>  (1) 
00004B2E00000001

>  <PUBCHEM_MMFF94_ENERGY>  (1) 
73.4459

>  <PUBCHEM_FEATURE_SELFOVERLAP>  (1) 
66.112

>  <PUBCHEM_SHAPE_FINGERPRINT>  (1) 
10 15 18337102462769630088
10595046 47 18411698776967293910
10835480 77 18334851680668190381
11672396 167 18267294331709515183
12107183 9 17835521518370188762
12236239 1 18261111846349594231
12596602 18 18334013861260128947
12730499 353 18413109472741717098
12788726 201 17202769194061898416
13073987 5 18411700954515732497
13533116 47 18412543197935294194
13782708 43 17896038745985757442
13785724 45 17623012292385814062
14118638 360 18411981351471450090
14251732 16 18409449193478124171
14341114 176 18411140207891064020
14461889 52 18334294301350434994
14904525 67 15841830044944623065
14933364 13 18413672400328680296
15183329 4 18201718431509003210
15196674 1 18411135792654270701
17492 89 18266739078769257614
17844677 252 18339648832319030070
1813 80 17022906718239931684
18335252 98 18408327708956281419
18608769 82 18339359785293819434
18927931 339 18412829058775078543
19377110 9 18187070767805738474
19611394 137 18042699475056476355
21130935 74 18341052934960126827
21236236 1 18411699847363631981
21267235 1 18410579461324736255
22149856 69 18339093635145575665
23081809 10 17989199322629832935
23522609 53 18058474091356181857
23559900 14 18054783988261665246
23569914 2 17615915112095211756
2747138 104 18114478820281873427
3004659 81 18339643326988640658
335352 9 18411976971986969125
3383291 50 17604160324051245355
34797466 226 17775011206354365828
350125 39 18413107282044866225
3545911 37 18411699894260262044
4073 2 18186807984326753082
4098825 35 18410856525834238226
4144715 1 18336555914979501947
4214541 1 18339359656813948429
4325135 7 18409449210568361812
5104073 3 18337951190634208282
5109719 28 18200310069432540296
513532 50 18342470210254370860
550186 72 18408602552810039989
9996256 80 18413387618491038735

>  <PUBCHEM_SHAPE_MULTIPOLES>  (1) 
549.46
19.51
3.28
0.83
0.25
0.81
0.13
0.47
1.73
-2.73
-0.01
0.05
0.01
0.36

>  <PUBCHEM_SHAPE_SELFOVERLAP>  (1) 
1178.19

>  <PUBCHEM_SHAPE_VOLUME>  (1) 
305.4

>  <PUBCHEM_COORDINATE_TYPE>  (1) 
2
5
10

$$$$
