19240
     RDKit          3D

  8  7  0  0  0  0  0  0  0  0999 V2000
    1.5309    0.3477   -0.3284 O   0  0  0  0  0  0  0  0  0  0  0  0
   -2.0772    0.0045    0.3417 N   0  0  0  0  0  0  0  0  0  0  0  0
   -0.8428    0.5972   -0.1720 C   0  0  0  0  0  0  0  0  0  0  0  0
    0.3588   -0.2550    0.2043 C   0  0  0  0  0  0  0  0  0  0  0  0
   -2.2492   -1.3508   -0.1801 C   0  0  0  0  0  0  0  0  0  0  0  0
   -3.2279    0.8366   -0.0079 C   0  0  0  0  0  0  0  0  0  0  0  0
    2.6463   -0.3540   -0.0113 C   0  0  0  0  0  0  0  0  0  0  0  0
    3.8611    0.1738    0.1537 C   0  0  0  0  0  0  0  0  0  0  0  0
  1  4  1  0
  1  7  1  0
  2  3  1  0
  2  5  1  0
  2  6  1  0
  3  4  1  0
  7  8  2  0
M  END
>  <PUBCHEM_COMPOUND_CID>  (1) 
19240

>  <PUBCHEM_CONFORMER_RMSD>  (1) 
0.6

>  <PUBCHEM_CONFORMER_DIVERSEORDER>  (1) 
1
7
13
15
10
17
20
16
3
19
14
18
2
6
5
4
12
9
11
8

>  <PUBCHEM_MMFF94_PARTIAL_CHARGES>  (1) 
11
1 -0.36
19 0.15
2 -0.81
20 0.15
21 0.15
3 0.27
4 0.28
5 0.27
6 0.27
7 -0.07
8 -0.3

>  <PUBCHEM_EFFECTIVE_ROTOR_COUNT>  (1) 
4

>  <PUBCHEM_PHARMACOPHORE_FEATURES>  (1) 
2
1 1 acceptor
1 2 cation

>  <PUBCHEM_HEAVY_ATOM_COUNT>  (1) 
8

>  <PUBCHEM_ATOM_DEF_STEREO_COUNT>  (1) 
0

>  <PUBCHEM_ATOM_UDEF_STEREO_COUNT>  (1) 
0

>  <PUBCHEM_BOND_DEF_STEREO_COUNT>  (1) 
0

>  <PUBCHEM_BOND_UDEF_STEREO_COUNT>  (1) 
0

>  <PUBCHEM_ISOTOPIC_ATOM_COUNT>  (1) 
0

>  <PUBCHEM_COMPONENT_COUNT>  (1) 
1

>  <PUBCHEM_CACTVS_TAUTO_COUNT>  (1) 
1

>  <PUBCHEM_CONFORMER_ID>  (1) 
00004B2800000001

>  <PUBCHEM_MMFF94_ENERGY>  (1) 
18.8544

>  <PUBCHEM_FEATURE_SELFOVERLAP>  (1) 
10.148

>  <PUBCHEM_SHAPE_FINGERPRINT>  (1) 
11062470 55 18343864402933972792
12932764 1 17676196975068357724
14325111 11 18410856568567431722
14390081 3 18273213075583122849
29004967 10 16845580819985710082
3248919 1 17346325894459784044
5460574 1 9511461117515262120

>  <PUBCHEM_SHAPE_MULTIPOLES>  (1) 
153.79
6.37
1.02
0.63
3.38
0.23
0
-0.49
-0.19
-0.81
0.05
-0.01
0
-0.06

>  <PUBCHEM_SHAPE_SELFOVERLAP>  (1) 
273.785

>  <PUBCHEM_SHAPE_VOLUME>  (1) 
101.8

>  <PUBCHEM_COORDINATE_TYPE>  (1) 
2
5
10

$$$$
