19253
     RDKit          3D

 29 30  0  0  0  0  0  0  0  0999 V2000
    1.8056   -2.3819   -0.0078 O   0  0  0  0  0  0  0  0  0  0  0  0
   -2.6960   -1.9823    0.5156 O   0  0  0  0  0  0  0  0  0  0  0  0
    0.0610    1.5413    1.7609 O   0  0  0  0  0  0  0  0  0  0  0  0
    0.9835   -0.3416    0.7581 N   0  0  0  0  0  0  0  0  0  0  0  0
   -1.3782   -0.1331    1.0350 N   0  0  0  0  0  0  0  0  0  0  0  0
    4.2641    1.3927    0.3128 N   0  0  0  0  0  0  0  0  0  0  0  0
   -0.5007   -1.8561   -0.4721 C   0  0  0  0  0  0  0  0  0  0  0  0
    0.8743   -1.5863    0.1211 C   0  0  0  0  0  0  0  0  0  0  0  0
   -0.6650   -3.3629   -0.7356 C   0  0  0  0  0  0  0  0  0  0  0  0
   -0.5913   -1.1076   -1.8148 C   0  0  0  0  0  0  0  0  0  0  0  0
   -1.6356   -1.3639    0.4140 C   0  0  0  0  0  0  0  0  0  0  0  0
    2.3222    0.1298    1.0967 C   0  0  0  0  0  0  0  0  0  0  0  0
   -0.1003    0.4480    1.2076 C   0  0  0  0  0  0  0  0  0  0  0  0
    2.9407    0.9070   -0.0560 C   0  0  0  0  0  0  0  0  0  0  0  0
   -2.5003    0.5575    1.6621 C   0  0  0  0  0  0  0  0  0  0  0  0
   -0.7134   -4.1232    0.5482 C   0  0  0  0  0  0  0  0  0  0  0  0
    0.4522   -1.5955   -2.7635 C   0  0  0  0  0  0  0  0  0  0  0  0
   -3.1958    1.4828    0.7059 C   0  0  0  0  0  0  0  0  0  0  0  0
    5.1324    0.2799    0.7027 C   0  0  0  0  0  0  0  0  0  0  0  0
    4.8656    2.1419   -0.7921 C   0  0  0  0  0  0  0  0  0  0  0  0
   -1.7602   -4.8611    0.9347 C   0  0  0  0  0  0  0  0  0  0  0  0
    1.3903   -0.8090   -3.3029 C   0  0  0  0  0  0  0  0  0  0  0  0
    6.4948    0.7787    1.1536 C   0  0  0  0  0  0  0  0  0  0  0  0
    3.9811    3.3028   -1.2141 C   0  0  0  0  0  0  0  0  0  0  0  0
   -2.7764    2.8037    0.5996 C   0  0  0  0  0  0  0  0  0  0  0  0
   -4.2519    1.0094   -0.0638 C   0  0  0  0  0  0  0  0  0  0  0  0
   -3.4222    3.6635   -0.2888 C   0  0  0  0  0  0  0  0  0  0  0  0
   -4.8977    1.8691   -0.9524 C   0  0  0  0  0  0  0  0  0  0  0  0
   -4.4828    3.1962   -1.0648 C   0  0  0  0  0  0  0  0  0  0  0  0
  1  8  2  0
  2 11  2  0
  3 13  2  0
  4  8  1  0
  4 12  1  0
  4 13  1  0
  5 11  1  0
  5 13  1  0
  5 15  1  0
  6 14  1  0
  6 19  1  0
  6 20  1  0
  7  8  1  0
  7  9  1  0
  7 10  1  0
  7 11  1  0
  9 16  1  0
 10 17  1  0
 12 14  1  0
 15 18  1  0
 16 21  2  0
 17 22  2  0
 18 25  2  0
 18 26  1  0
 19 23  1  0
 20 24  1  0
 25 27  1  0
 26 28  2  0
 27 29  2  0
 28 29  1  0
M  END
>  <PUBCHEM_COMPOUND_CID>  (1) 
19253

>  <PUBCHEM_CONFORMER_RMSD>  (1) 
1

>  <PUBCHEM_CONFORMER_DIVERSEORDER>  (1) 
3
116
91
72
39
79
77
22
107
56
62
5
109
86
112
92
75
115
66
37
89
19
52
90
93
14
25
58
102
74
98
30
103
71
108
99
87
64
85
18
53
49
104
50
117
46
70
31
94
78
97
81
21
83
61
42
106
17
34
45
84
26
100
60
110
9
55
32
80
35
59
15
73
28
54
105
29
43
82
33
20
76
7
95
96
51
8
101
44
40
68
10
48
69
47
57
67
114
4
6
36
63
41
24
27
88
13
111
1
113
23
12
16
118
38
65
2
11

>  <PUBCHEM_MMFF94_PARTIAL_CHARGES>  (1) 
38
1 -0.57
10 0.14
11 0.57
12 0.3
13 0.69
14 0.27
15 0.44
16 -0.29
17 -0.29
18 -0.14
19 0.27
2 -0.57
20 0.27
21 -0.3
22 -0.3
25 -0.15
26 -0.15
27 -0.15
28 -0.15
29 -0.15
3 -0.57
4 -0.42
40 0.15
41 0.15
46 0.15
47 0.15
48 0.15
49 0.15
5 -0.42
56 0.15
57 0.15
58 0.15
59 0.15
6 -0.81
60 0.15
7 0.12
8 0.57
9 0.14

>  <PUBCHEM_EFFECTIVE_ROTOR_COUNT>  (1) 
11.6

>  <PUBCHEM_PHARMACOPHORE_FEATURES>  (1) 
8
1 1 acceptor
1 2 acceptor
1 21 hydrophobe
1 22 hydrophobe
1 3 acceptor
1 6 cation
6 18 25 26 27 28 29 rings
6 4 5 7 8 11 13 rings

>  <PUBCHEM_HEAVY_ATOM_COUNT>  (1) 
29

>  <PUBCHEM_ATOM_DEF_STEREO_COUNT>  (1) 
0

>  <PUBCHEM_ATOM_UDEF_STEREO_COUNT>  (1) 
0

>  <PUBCHEM_BOND_DEF_STEREO_COUNT>  (1) 
0

>  <PUBCHEM_BOND_UDEF_STEREO_COUNT>  (1) 
0

>  <PUBCHEM_ISOTOPIC_ATOM_COUNT>  (1) 
0

>  <PUBCHEM_COMPONENT_COUNT>  (1) 
1

>  <PUBCHEM_CACTVS_TAUTO_COUNT>  (1) 
1

>  <PUBCHEM_CONFORMER_ID>  (1) 
00004B3500000003

>  <PUBCHEM_MMFF94_ENERGY>  (1) 
66.464

>  <PUBCHEM_FEATURE_SELFOVERLAP>  (1) 
40.596

>  <PUBCHEM_SHAPE_FINGERPRINT>  (1) 
105312 117 18341895181940860868
107951 10 18341609317502376910
11763715 3 17394751895704547238
12107183 9 18261098635932278890
12160290 23 17987225823564243699
12293681 160 17846207817835884561
12422481 6 16877943781061164444
12633257 1 14635161152271598292
12788726 201 18194380390085847043
13103583 49 10665520548191303045
13134695 92 17183346119573307575
13383661 66 15408900773703929965
133893 2 17626959581693145795
13583140 156 17603873264635542761
15163728 17 18337687312313050005
17492 54 17773856663405740501
20101258 96 17759536855281572208
20511986 3 18270388508586810720
20602899 9 15267055982243929006
21304303 282 18339067264120750935
22907989 373 18199748227179481077
23227448 37 18335706091143960652
23419403 2 16839718232402893662
23559900 14 17905885873281680531
26353 1 16692144217048039605
2838139 119 18187357701586473637
3298306 158 18201433662466781296
3759504 43 18410851079267080770
4015057 19 16271637988465994160
4409770 3 18337385063001593227
6669772 16 18271807857032030798
9981440 41 18335421219190673185

>  <PUBCHEM_SHAPE_MULTIPOLES>  (1) 
564.26
9.86
5.34
2.06
10.08
3.76
1.75
-12.43
-0.91
-4.12
0.22
0.65
0.47
0.58

>  <PUBCHEM_SHAPE_SELFOVERLAP>  (1) 
1167.682

>  <PUBCHEM_SHAPE_VOLUME>  (1) 
321.3

>  <PUBCHEM_COORDINATE_TYPE>  (1) 
2
5
10

$$$$
