19251
     RDKit          3D

 17 17  0  0  1  0  0  0  0  0999 V2000
   -2.2686   -1.6362   -1.1400 O   0  0  0  0  0  0  0  0  0  0  0  0
    0.4936    0.3077    2.1222 O   0  0  0  0  0  0  0  0  0  0  0  0
   -2.4922    2.8598   -0.2503 O   0  0  0  0  0  0  0  0  0  0  0  0
   -2.3088    0.6262   -0.7627 N   0  0  0  0  0  0  0  0  0  0  0  0
   -0.9286    1.5974    0.8664 N   0  0  0  0  0  0  0  0  0  0  0  0
   -0.4207   -0.6788    0.1045 C   0  0  0  0  0  0  0  0  0  0  0  0
    0.6845   -0.4824   -0.9487 C   0  0  0  0  0  0  0  0  0  0  0  0
   -0.2460   -2.0498    0.7736 C   0  0  0  0  0  0  0  0  0  0  0  0
   -1.7543   -0.6386   -0.6349 C   0  0  0  0  0  0  0  0  0  0  0  0
   -0.2464    0.4226    1.1455 C   0  0  0  0  0  0  0  0  0  0  0  0
    0.5792   -1.5520   -2.0366 C   0  0  0  0  0  0  0  0  0  0  0  0
    2.0419   -0.5473   -0.2906 C   0  0  0  0  0  0  0  0  0  0  0  0
   -1.3752   -2.3279    1.7401 C   0  0  0  0  0  0  0  0  0  0  0  0
    2.9922    0.4061   -0.2398 C   0  0  0  0  0  0  0  0  0  0  0  0
   -1.9366    1.7742   -0.0737 C   0  0  0  0  0  0  0  0  0  0  0  0
    4.2926    0.1431    0.4742 C   0  0  0  0  0  0  0  0  0  0  0  0
    2.8932    1.7759   -0.8492 C   0  0  0  0  0  0  0  0  0  0  0  0
  1  9  2  0
  2 10  2  0
  3 15  2  0
  4  9  1  0
  4 15  1  0
  5 10  1  0
  5 15  1  0
  6  7  1  0
  6  8  1  0
  6  9  1  0
  6 10  1  0
  7 11  1  0
  7 12  1  0
  8 13  1  0
 12 14  2  3
 14 16  1  0
 14 17  1  0
M  END
>  <PUBCHEM_COMPOUND_CID>  (1) 
19251

>  <PUBCHEM_CONFORMER_RMSD>  (1) 
0.6

>  <PUBCHEM_CONFORMER_DIVERSEORDER>  (1) 
4
9
5
7
14
3
13
11
1
12
10
8
2
6

>  <PUBCHEM_MMFF94_PARTIAL_CHARGES>  (1) 
17
1 -0.57
10 0.57
12 -0.29
14 -0.28
15 0.69
16 0.14
17 0.14
2 -0.57
24 0.15
28 0.37
29 0.37
3 -0.57
4 -0.49
5 -0.49
6 0.12
7 0.14
9 0.57

>  <PUBCHEM_EFFECTIVE_ROTOR_COUNT>  (1) 
3.6

>  <PUBCHEM_PHARMACOPHORE_FEATURES>  (1) 
9
1 1 acceptor
1 11 hydrophobe
1 13 hydrophobe
1 2 acceptor
1 3 acceptor
1 4 donor
1 5 donor
3 14 16 17 hydrophobe
6 4 5 6 9 10 15 rings

>  <PUBCHEM_HEAVY_ATOM_COUNT>  (1) 
17

>  <PUBCHEM_ATOM_DEF_STEREO_COUNT>  (1) 
0

>  <PUBCHEM_ATOM_UDEF_STEREO_COUNT>  (1) 
1

>  <PUBCHEM_BOND_DEF_STEREO_COUNT>  (1) 
0

>  <PUBCHEM_BOND_UDEF_STEREO_COUNT>  (1) 
0

>  <PUBCHEM_ISOTOPIC_ATOM_COUNT>  (1) 
0

>  <PUBCHEM_COMPONENT_COUNT>  (1) 
1

>  <PUBCHEM_CACTVS_TAUTO_COUNT>  (1) 
5

>  <PUBCHEM_CONFORMER_ID>  (1) 
00004B3300000004

>  <PUBCHEM_MMFF94_ENERGY>  (1) 
46.8843

>  <PUBCHEM_FEATURE_SELFOVERLAP>  (1) 
45.712

>  <PUBCHEM_SHAPE_FINGERPRINT>  (1) 
12138202 97 18129937875767661933
12423570 1 13749548546374386702
12491281 212 18040158405137775276
13024252 1 11963660144950555726
13299463 15 17275382109921914118
13571099 52 18266179426865143860
14614273 12 17918283055667860166
14713566 1 17604701308539178019
14817 1 15406167340135600707
15852999 172 18200035023794289930
16945 1 18271508862735571887
19765921 60 18196933271143018841
19837323 101 18260838085234542835
20645476 183 18188475909163807784
20653085 51 18267034872591576172
21296965 12 18201445769963452798
21524375 3 18265895761323496717
22344851 341 18196094330938871067
2306618 200 17775012314323994202
23402539 116 18335974354874914335
23419403 2 17910962670770089107
2748010 2 17988102005809395310
305870 269 17897725353608685856
353137 74 18341044117117662453
430814 3 18191294975526163733
4340502 62 17677340399148786441
5706482 22 18187642466507295146
5845 1 17343257243421909439
74978 22 18113625603516405340
81228 2 17902271993341018675

>  <PUBCHEM_SHAPE_MULTIPOLES>  (1) 
322.28
4.59
2.51
1.65
4.97
0.73
0.09
1.55
-0.24
-1.97
0.21
-0.22
-0.74
0.14

>  <PUBCHEM_SHAPE_SELFOVERLAP>  (1) 
660.789

>  <PUBCHEM_SHAPE_VOLUME>  (1) 
184.6

>  <PUBCHEM_COORDINATE_TYPE>  (1) 
2
5
10

$$$$
