19277
     RDKit          3D

 14 15  0  0  0  0  0  0  0  0999 V2000
    1.8980    1.6182    0.1861 O   0  0  0  0  0  0  0  0  0  0  0  0
   -1.6198   -2.0155   -0.4702 O   0  0  0  0  0  0  0  0  0  0  0  0
    2.8852   -0.4581   -0.1508 N   0  0  0  0  0  0  0  0  0  0  0  0
    0.5996   -0.3096   -0.1550 N   0  0  0  0  0  0  0  0  0  0  0  0
    4.1456   -0.0235   -0.6776 C   0  0  0  0  0  0  0  0  0  0  0  0
    4.0076   -0.4147    0.7399 C   0  0  0  0  0  0  0  0  0  0  0  0
    1.7905    0.4112   -0.0181 C   0  0  0  0  0  0  0  0  0  0  0  0
   -0.7252    0.1785   -0.0899 C   0  0  0  0  0  0  0  0  0  0  0  0
   -1.8099   -0.6840   -0.2485 C   0  0  0  0  0  0  0  0  0  0  0  0
   -0.9424    1.5376    0.1368 C   0  0  0  0  0  0  0  0  0  0  0  0
   -3.1115   -0.1874   -0.1807 C   0  0  0  0  0  0  0  0  0  0  0  0
   -2.2440    2.0343    0.2047 C   0  0  0  0  0  0  0  0  0  0  0  0
   -3.3286    1.1716    0.0459 C   0  0  0  0  0  0  0  0  0  0  0  0
   -1.5451   -2.8586    0.6772 C   0  0  0  0  0  0  0  0  0  0  0  0
  1  7  2  0
  2  9  1  0
  2 14  1  0
  3  5  1  0
  3  6  1  0
  3  7  1  0
  4  7  1  0
  4  8  1  0
  5  6  1  0
  8  9  2  0
  8 10  1  0
  9 11  1  0
 10 12  2  0
 11 13  2  0
 12 13  1  0
M  END
>  <PUBCHEM_COMPOUND_CID>  (1) 
19277

>  <PUBCHEM_CONFORMER_RMSD>  (1) 
0.6

>  <PUBCHEM_CONFORMER_DIVERSEORDER>  (1) 
1
15
14
29
25
19
22
10
20
32
27
13
8
16
4
26
18
5
21
17
28
24
23
12
31
2
9
30
6
7
11
3

>  <PUBCHEM_MMFF94_PARTIAL_CHARGES>  (1) 
23
1 -0.57
10 -0.15
11 -0.15
12 -0.15
13 -0.15
14 0.28
15 0.1
16 0.1
17 0.1
18 0.1
19 0.37
2 -0.36
20 0.15
21 0.15
22 0.15
23 0.15
3 -0.36
4 -0.55
5 -0.05
6 -0.05
7 0.69
8 0.12
9 0.08

>  <PUBCHEM_EFFECTIVE_ROTOR_COUNT>  (1) 
4.6

>  <PUBCHEM_PHARMACOPHORE_FEATURES>  (1) 
4
1 1 acceptor
1 2 acceptor
1 4 donor
6 8 9 10 11 12 13 rings

>  <PUBCHEM_HEAVY_ATOM_COUNT>  (1) 
14

>  <PUBCHEM_ATOM_DEF_STEREO_COUNT>  (1) 
0

>  <PUBCHEM_ATOM_UDEF_STEREO_COUNT>  (1) 
0

>  <PUBCHEM_BOND_DEF_STEREO_COUNT>  (1) 
0

>  <PUBCHEM_BOND_UDEF_STEREO_COUNT>  (1) 
0

>  <PUBCHEM_ISOTOPIC_ATOM_COUNT>  (1) 
0

>  <PUBCHEM_COMPONENT_COUNT>  (1) 
1

>  <PUBCHEM_CACTVS_TAUTO_COUNT>  (1) 
2

>  <PUBCHEM_CONFORMER_ID>  (1) 
00004B4D00000001

>  <PUBCHEM_MMFF94_ENERGY>  (1) 
58.7323

>  <PUBCHEM_FEATURE_SELFOVERLAP>  (1) 
20.297

>  <PUBCHEM_SHAPE_FINGERPRINT>  (1) 
10608611 8 18272082825170120288
10616163 171 18410578409490674694
12500047 106 18411694357746620180
12716758 59 18411693322638429065
12932764 1 17458612432962243452
13024252 1 14273456968493073453
13380535 76 18342175518687765847
14115302 16 18334019414336448460
14144814 61 18410290268476196656
14965852 173 18410292549114315268
15279307 12 18114177502065897954
15375358 24 17988639679874939622
15669948 3 18410571807867029646
15775835 57 18188774937629847328
16945 1 18411982455425835685
17804303 29 18341898493370994172
20279233 1 17704353256290415782
20510252 161 18201439117048997137
20645476 183 18041006132755404719
20645477 70 16701744844092856982
20871998 184 18200880676948302143
21501502 16 18340206422237856908
21524375 3 18269272374886491741
23402539 116 18271515447389844461
23559900 14 18272087172346429992
2748010 2 18125152994452972101
305870 269 18047472227604989361
366044 4 18338234869519958777
43471831 8 18263362482591645915
54173680 148 18265898132382723395
5706482 22 18339357466433537539
6333449 129 18341892974475045477
69090 78 18272645736447223767
74978 22 18335982051424672876
75552 356 18410856572545810093
81228 2 18194108836535603689
8809292 202 18411139168582987386
93112 12 18410575115060386892
9709674 26 18343867714565131726

>  <PUBCHEM_SHAPE_MULTIPOLES>  (1) 
266.41
6.8
2.28
0.73
6.82
1.27
-0.03
-0.54
0.09
-2.12
-0.4
0.21
0.11
-0.09

>  <PUBCHEM_SHAPE_SELFOVERLAP>  (1) 
554.761

>  <PUBCHEM_SHAPE_VOLUME>  (1) 
152.2

>  <PUBCHEM_COORDINATE_TYPE>  (1) 
2
5
10

$$$$
