19278
     RDKit          3D

 14 15  0  0  0  0  0  0  0  0999 V2000
   -2.0709   -1.4615   -0.0233 O   0  0  0  0  0  0  0  0  0  0  0  0
    4.2735    0.0136    0.0190 O   0  0  0  0  0  0  0  0  0  0  0  0
   -3.5036    0.3678   -0.0515 N   0  0  0  0  0  0  0  0  0  0  0  0
   -1.2431    0.7370   -0.0345 N   0  0  0  0  0  0  0  0  0  0  0  0
   -4.6429   -0.2500   -0.6640 C   0  0  0  0  0  0  0  0  0  0  0  0
   -4.5731   -0.0643    0.7996 C   0  0  0  0  0  0  0  0  0  0  0  0
   -2.2400   -0.2443   -0.0347 C   0  0  0  0  0  0  0  0  0  0  0  0
    0.1583    0.5537   -0.0206 C   0  0  0  0  0  0  0  0  0  0  0  0
    1.0073    1.6605   -0.0231 C   0  0  0  0  0  0  0  0  0  0  0  0
    0.6924   -0.7347   -0.0050 C   0  0  0  0  0  0  0  0  0  0  0  0
    2.3902    1.4788   -0.0100 C   0  0  0  0  0  0  0  0  0  0  0  0
    2.0753   -0.9165    0.0081 C   0  0  0  0  0  0  0  0  0  0  0  0
    2.9242    0.1903    0.0056 C   0  0  0  0  0  0  0  0  0  0  0  0
    4.7525   -1.3303    0.0345 C   0  0  0  0  0  0  0  0  0  0  0  0
  1  7  2  0
  2 13  1  0
  2 14  1  0
  3  5  1  0
  3  6  1  0
  3  7  1  0
  4  7  1  0
  4  8  1  0
  5  6  1  0
  8  9  2  0
  8 10  1  0
  9 11  1  0
 10 12  2  0
 11 13  2  0
 12 13  1  0
M  END
>  <PUBCHEM_COMPOUND_CID>  (1) 
19278

>  <PUBCHEM_CONFORMER_RMSD>  (1) 
0.6

>  <PUBCHEM_CONFORMER_DIVERSEORDER>  (1) 
1
9
12
13
16
17
10
15
5
11
6
14
8
3
4
7
2

>  <PUBCHEM_MMFF94_PARTIAL_CHARGES>  (1) 
23
1 -0.57
10 -0.15
11 -0.15
12 -0.15
13 0.08
14 0.28
15 0.1
16 0.1
17 0.1
18 0.1
19 0.37
2 -0.36
20 0.15
21 0.15
22 0.15
23 0.15
3 -0.36
4 -0.55
5 -0.05
6 -0.05
7 0.69
8 0.12
9 -0.15

>  <PUBCHEM_EFFECTIVE_ROTOR_COUNT>  (1) 
4.6

>  <PUBCHEM_PHARMACOPHORE_FEATURES>  (1) 
4
1 1 acceptor
1 2 acceptor
1 4 donor
6 8 9 10 11 12 13 rings

>  <PUBCHEM_HEAVY_ATOM_COUNT>  (1) 
14

>  <PUBCHEM_ATOM_DEF_STEREO_COUNT>  (1) 
0

>  <PUBCHEM_ATOM_UDEF_STEREO_COUNT>  (1) 
0

>  <PUBCHEM_BOND_DEF_STEREO_COUNT>  (1) 
0

>  <PUBCHEM_BOND_UDEF_STEREO_COUNT>  (1) 
0

>  <PUBCHEM_ISOTOPIC_ATOM_COUNT>  (1) 
0

>  <PUBCHEM_COMPONENT_COUNT>  (1) 
1

>  <PUBCHEM_CACTVS_TAUTO_COUNT>  (1) 
2

>  <PUBCHEM_CONFORMER_ID>  (1) 
00004B4E00000001

>  <PUBCHEM_MMFF94_ENERGY>  (1) 
56.2096

>  <PUBCHEM_FEATURE_SELFOVERLAP>  (1) 
20.297

>  <PUBCHEM_SHAPE_FINGERPRINT>  (1) 
10130415 120 18343865528131092985
11401426 45 18411414029578899146
11471102 20 18410008862108270860
12032990 46 18410576141810537774
12251169 10 18413672417719487615
124424 183 18334013899898970987
12555020 224 18410564098728164559
12932764 1 17095786815568162033
13690532 89 18411136918172988082
13862211 1 18410286978689945082
14115302 16 17677062307841439878
14144814 61 18412829084006590977
14252887 29 18131357371455346582
15196674 1 18338516451322413999
15242439 84 17894627054933656941
17834072 33 18129940195350675615
18186145 218 17749381607142486523
18522853 276 18343582936631716368
200 152 18130784564520117925
20201158 50 18409731755007870123
20645477 70 18410012143584714822
20871998 22 18128543665396857246
21267235 1 18411145722634574203
221490 88 18190749836643987026
23402539 116 17917987261813646253
23402655 69 18412539895316206549
23559900 14 18410855508185250488
42 15 18410859862833702057
4463277 17 18411140221477754820
5104073 3 18341332300754097587
69090 78 18341327872943598887
8809292 202 18187650240314003747

>  <PUBCHEM_SHAPE_MULTIPOLES>  (1) 
266.41
9.61
1.41
0.67
3.74
0.19
-0.02
-2.48
-0.19
-1.06
0.01
0.37
-0.01
-0.07

>  <PUBCHEM_SHAPE_SELFOVERLAP>  (1) 
554.946

>  <PUBCHEM_SHAPE_VOLUME>  (1) 
152.5

>  <PUBCHEM_COORDINATE_TYPE>  (1) 
2
5
10

$$$$
