19274
     RDKit          3D

 21 24  0  0  1  0  0  0  0  0999 V2000
   -5.1513    1.4336   -1.0494 O   0  0  0  0  0  0  0  0  0  0  0  0
    5.8635    0.4595   -0.3006 O   0  0  0  0  0  0  0  0  0  0  0  0
   -2.1266    0.4384   -0.1689 C   0  0  0  0  0  0  0  0  0  0  0  0
   -2.7483   -0.9446    0.0869 C   0  0  0  0  0  0  0  0  0  0  0  0
   -0.6896    0.5505    0.3501 C   0  0  0  0  0  0  0  0  0  0  0  0
    0.1943   -0.5389   -0.3252 C   0  0  0  0  0  0  0  0  0  0  0  0
    1.6824   -0.4883    0.2071 C   0  0  0  0  0  0  0  0  0  0  0  0
   -1.9292   -1.9775   -0.6949 C   0  0  0  0  0  0  0  0  0  0  0  0
   -0.4498   -1.9522   -0.2740 C   0  0  0  0  0  0  0  0  0  0  0  0
   -3.1772    1.4124    0.3587 C   0  0  0  0  0  0  0  0  0  0  0  0
   -4.1671   -0.7055   -0.4505 C   0  0  0  0  0  0  0  0  0  0  0  0
   -4.5107    0.7285    0.0038 C   0  0  0  0  0  0  0  0  0  0  0  0
   -0.1169    1.9471    0.0672 C   0  0  0  0  0  0  0  0  0  0  0  0
    2.1884    0.9594    0.2761 C   0  0  0  0  0  0  0  0  0  0  0  0
    2.5803   -1.2965   -0.7769 C   0  0  0  0  0  0  0  0  0  0  0  0
   -2.8389   -1.3513    1.5767 C   0  0  0  0  0  0  0  0  0  0  0  0
    1.3706    2.0234    0.1974 C   0  0  0  0  0  0  0  0  0  0  0  0
    1.7951   -1.1012    1.6239 C   0  0  0  0  0  0  0  0  0  0  0  0
    3.6775    1.1637    0.4335 C   0  0  0  0  0  0  0  0  0  0  0  0
    4.0809   -1.1167   -0.5525 C   0  0  0  0  0  0  0  0  0  0  0  0
    4.4727    0.3561   -0.5886 C   0  0  0  0  0  0  0  0  0  0  0  0
  1 12  1  0
  2 21  1  0
  3  4  1  0
  3  5  1  0
  3 10  1  0
  4  8  1  0
  4 11  1  0
  4 16  1  0
  5  6  1  0
  5 13  1  0
  6  7  1  0
  6  9  1  0
  7 14  1  0
  7 15  1  0
  7 18  1  0
  8  9  1  0
 10 12  1  0
 11 12  1  0
 13 17  1  0
 14 17  2  0
 14 19  1  0
 15 20  1  0
 19 21  1  0
 20 21  1  0
M  END
>  <PUBCHEM_COMPOUND_CID>  (1) 
19274

>  <PUBCHEM_CONFORMER_RMSD>  (1) 
0.6

>  <PUBCHEM_CONFORMER_DIVERSEORDER>  (1) 
1

>  <PUBCHEM_MMFF94_PARTIAL_CHARGES>  (1) 
12
1 -0.68
12 0.28
13 0.14
14 -0.28
17 -0.29
19 0.14
2 -0.68
21 0.28
41 0.15
50 0.4
51 0.4
7 0.14

>  <PUBCHEM_EFFECTIVE_ROTOR_COUNT>  (1) 
2

>  <PUBCHEM_PHARMACOPHORE_FEATURES>  (1) 
8
1 1 acceptor
1 1 donor
1 2 acceptor
1 2 donor
5 3 4 10 11 12 rings
6 3 4 5 6 8 9 rings
6 5 6 7 13 14 17 rings
6 7 14 15 19 20 21 rings

>  <PUBCHEM_HEAVY_ATOM_COUNT>  (1) 
21

>  <PUBCHEM_ATOM_DEF_STEREO_COUNT>  (1) 
7

>  <PUBCHEM_ATOM_UDEF_STEREO_COUNT>  (1) 
0

>  <PUBCHEM_BOND_DEF_STEREO_COUNT>  (1) 
0

>  <PUBCHEM_BOND_UDEF_STEREO_COUNT>  (1) 
0

>  <PUBCHEM_ISOTOPIC_ATOM_COUNT>  (1) 
0

>  <PUBCHEM_COMPONENT_COUNT>  (1) 
1

>  <PUBCHEM_CACTVS_TAUTO_COUNT>  (1) 
1

>  <PUBCHEM_CONFORMER_ID>  (1) 
00004B4A00000001

>  <PUBCHEM_MMFF94_ENERGY>  (1) 
66.4515

>  <PUBCHEM_FEATURE_SELFOVERLAP>  (1) 
40.693

>  <PUBCHEM_SHAPE_FINGERPRINT>  (1) 
10366900 7 17749383814892904931
10498660 4 18411416194089532965
10759866 29 17896033252537371648
10967382 1 18341332201742859150
11132069 177 18343014540786149864
11471102 20 18343019982504439084
12011746 2 18412823569036591405
12236239 1 17967531277183126790
12403259 415 18272082821175638585
12788726 201 18270114591845303145
12969540 114 18336812118468785727
13221675 6 18409730681371417770
13224815 77 18113619001534629378
13583140 156 17676210169724992601
13675066 3 18338238279191261512
13760787 19 17821726139197374322
14790565 3 18197508328599276073
15099037 51 18413106147935714229
15196674 1 18413108372343671038
15309172 13 18202010944747239643
15375358 24 18343019986482934254
15536298 74 18201437008304138616
1601671 61 18409448072576335380
16752209 62 18271802359431453625
16945 1 18124601039515549713
17349148 13 17418375800743583727
18186145 218 18335412453114883669
19784866 9 17821723914784116754
19862831 5 18412546509016988520
200 152 17418374688262670797
20645477 70 18130509639147358398
21029758 11 18202563968788601481
21033648 29 18272080621883377577
21267235 1 18341341079435232127
21279426 13 18195810669723495965
21285901 2 18199752444615631924
21421861 104 17678163907144893930
21521239 73 17987780965931441015
21637258 2 15410624623616405732
221490 88 18266184026632511162
23175994 123 16630254674973849752
23402539 116 18413385454191388734
23402655 69 18343302556924205780
23493267 7 18187083970482608211
23559900 14 18060131089744077856
2748010 2 18411981381757871197
2871803 45 18410013196131101724
296302 2 16153425060313675362
3004659 81 18335424518147854470
335352 9 18413108351159206132
34934 24 18408600353432349242
350125 39 18340493386768126395
3545911 37 18412827997221537889
4028521 119 18409164394502636165
4214541 1 18341895207715549621
4340502 62 16805330959062154801
474 4 17677338341521841692
4921388 177 16515976963889853419
495365 180 17203313538327353450
5104073 3 18411981372993903194
542803 24 15502377820217355652
59755656 215 18342465795028548910
59755656 520 17167863080420263642
633830 44 17968374666967988332
69090 78 18201718465890035623
7364860 26 18129379478738498384
7832392 63 18342171223836228366
9709674 26 18339078327876863731

>  <PUBCHEM_SHAPE_MULTIPOLES>  (1) 
420.43
9.69
2.1
1.03
2.16
0.09
0.32
1.67
-1.85
-0.49
-0.05
-0.19
-0.31
0.48

>  <PUBCHEM_SHAPE_SELFOVERLAP>  (1) 
896.695

>  <PUBCHEM_SHAPE_VOLUME>  (1) 
233.2

>  <PUBCHEM_COORDINATE_TYPE>  (1) 
2
5
10

$$$$
