19276
     RDKit          3D

 30 34  0  0  0  0  0  0  0  0999 V2000
   -3.8518   -3.7832    1.5820 Cl  0  0  0  0  0  0  0  0  0  0  0  0
    3.8523   -3.7826   -1.5830 Cl  0  0  0  0  0  0  0  0  0  0  0  0
   -0.5173    0.2411   -1.5263 N   0  0  0  0  0  0  0  0  0  0  0  0
    0.5168    0.2421    1.5264 N   0  0  0  0  0  0  0  0  0  0  0  0
   -1.5038   -0.7347    0.4985 C   0  0  0  0  0  0  0  0  0  0  0  0
    1.5036   -0.7344   -0.4981 C   0  0  0  0  0  0  0  0  0  0  0  0
   -1.4555    0.2397   -0.6226 C   0  0  0  0  0  0  0  0  0  0  0  0
    1.4551    0.2403    0.6227 C   0  0  0  0  0  0  0  0  0  0  0  0
    0.5138   -0.7164   -1.4952 C   0  0  0  0  0  0  0  0  0  0  0  0
   -0.5141   -0.7158    1.4957 C   0  0  0  0  0  0  0  0  0  0  0  0
   -2.5400    1.2644   -0.7193 C   0  0  0  0  0  0  0  0  0  0  0  0
    2.5397    1.2647    0.7192 C   0  0  0  0  0  0  0  0  0  0  0  0
   -2.5341   -1.6807    0.5157 C   0  0  0  0  0  0  0  0  0  0  0  0
    2.5349   -1.6794   -0.5157 C   0  0  0  0  0  0  0  0  0  0  0  0
    0.5964   -1.6552   -2.5297 C   0  0  0  0  0  0  0  0  0  0  0  0
   -0.5964   -1.6544    2.5304 C   0  0  0  0  0  0  0  0  0  0  0  0
   -2.5902   -2.6132    1.5486 C   0  0  0  0  0  0  0  0  0  0  0  0
    2.5912   -2.6123   -1.5483 C   0  0  0  0  0  0  0  0  0  0  0  0
    1.6254   -2.5996   -2.5540 C   0  0  0  0  0  0  0  0  0  0  0  0
   -1.6248   -2.5994    2.5547 C   0  0  0  0  0  0  0  0  0  0  0  0
   -3.1628    1.7214    0.4378 C   0  0  0  0  0  0  0  0  0  0  0  0
    3.1627    1.7212   -0.4380 C   0  0  0  0  0  0  0  0  0  0  0  0
   -2.9184    1.7537   -1.9656 C   0  0  0  0  0  0  0  0  0  0  0  0
    2.9178    1.7544    1.9654 C   0  0  0  0  0  0  0  0  0  0  0  0
   -4.1745    2.6775    0.3478 C   0  0  0  0  0  0  0  0  0  0  0  0
    4.1745    2.6771   -0.3482 C   0  0  0  0  0  0  0  0  0  0  0  0
   -3.9300    2.7098   -2.0556 C   0  0  0  0  0  0  0  0  0  0  0  0
    3.9295    2.7104    2.0551 C   0  0  0  0  0  0  0  0  0  0  0  0
   -4.5580    3.1717   -0.8988 C   0  0  0  0  0  0  0  0  0  0  0  0
    4.5579    3.1717    0.8983 C   0  0  0  0  0  0  0  0  0  0  0  0
  1 17  1  0
  2 18  1  0
  3  7  2  0
  3  9  1  0
  4  8  2  0
  4 10  1  0
  5  7  1  0
  5 10  2  0
  5 13  1  0
  6  8  1  0
  6  9  2  0
  6 14  1  0
  7 11  1  0
  8 12  1  0
  9 15  1  0
 10 16  1  0
 11 21  2  0
 11 23  1  0
 12 22  2  0
 12 24  1  0
 13 17  2  0
 14 18  2  0
 15 19  2  0
 16 20  2  0
 17 20  1  0
 18 19  1  0
 21 25  1  0
 22 26  1  0
 23 27  2  0
 24 28  2  0
 25 29  2  0
 26 30  2  0
 27 29  1  0
 28 30  1  0
M  END
>  <PUBCHEM_COMPOUND_CID>  (1) 
19276

>  <PUBCHEM_CONFORMER_RMSD>  (1) 
0.6

>  <PUBCHEM_CONFORMER_DIVERSEORDER>  (1) 
1
4
6
5
2
3

>  <PUBCHEM_MMFF94_PARTIAL_CHARGES>  (1) 
46
1 -0.18
10 0.18
11 0.09
12 0.09
13 -0.15
14 -0.15
15 -0.15
16 -0.15
17 0.18
18 0.18
19 -0.15
2 -0.18
20 -0.15
21 -0.15
22 -0.15
23 -0.15
24 -0.15
25 -0.15
26 -0.15
27 -0.15
28 -0.15
29 -0.15
3 -0.63
30 -0.15
31 0.15
32 0.15
33 0.15
34 0.15
35 0.15
36 0.15
37 0.15
38 0.15
39 0.15
4 -0.63
40 0.15
41 0.15
42 0.15
43 0.15
44 0.15
45 0.15
46 0.15
5 0.09
6 0.09
7 0.28
8 0.28
9 0.18

>  <PUBCHEM_EFFECTIVE_ROTOR_COUNT>  (1) 
2

>  <PUBCHEM_PHARMACOPHORE_FEATURES>  (1) 
6
1 3 acceptor
1 4 acceptor
6 11 21 23 25 27 29 rings
6 12 22 24 26 28 30 rings
6 5 10 13 16 17 20 rings
6 6 9 14 15 18 19 rings

>  <PUBCHEM_HEAVY_ATOM_COUNT>  (1) 
30

>  <PUBCHEM_ATOM_DEF_STEREO_COUNT>  (1) 
0

>  <PUBCHEM_ATOM_UDEF_STEREO_COUNT>  (1) 
0

>  <PUBCHEM_BOND_DEF_STEREO_COUNT>  (1) 
0

>  <PUBCHEM_BOND_UDEF_STEREO_COUNT>  (1) 
0

>  <PUBCHEM_ISOTOPIC_ATOM_COUNT>  (1) 
0

>  <PUBCHEM_COMPONENT_COUNT>  (1) 
1

>  <PUBCHEM_CACTVS_TAUTO_COUNT>  (1) 
1

>  <PUBCHEM_CONFORMER_ID>  (1) 
00004B4C00000001

>  <PUBCHEM_MMFF94_ENERGY>  (1) 
118.932

>  <PUBCHEM_FEATURE_SELFOVERLAP>  (1) 
30.449

>  <PUBCHEM_SHAPE_FINGERPRINT>  (1) 
10006869 2 17394736515268664821
10165383 225 17554635128811002024
11443803 9 17694732584891892209
11578080 2 18122376598643793317
11582403 64 17834347424530146921
12058002 1 17969209200166965143
12160290 23 17313394443767447555
12633257 1 17387103474058019640
12788726 201 17606120834191004745
12930653 34 18115016523879315626
13149001 5 18194417596975581834
133893 2 17632305536250497446
13590594 115 17553767257275119360
14028597 1 15288771448387632917
14068700 675 16881869273410306339
14468879 13 18342165713235263309
14747281 78 18127992835425063572
15439362 3 18199177404699036948
15513586 35 17102815061941437620
15775530 1 18410866459539744646
17980427 26 17973133193867698735
19309040 13 18060145323313825229
21033648 29 17969498212959401653
229495 10 18059580242829232607
23419403 2 18197805269594340283
23557571 272 18042980954539527155
238 59 17846776295575699932
244849 19 18411986831823774955
27425 322 18265600010640470325
3380486 77 17758115891575480290
376196 1 18196345126743166545
4015057 19 18127416657124890126
469060 322 17694210475687465438
497634 4 16735210846990574328
5080951 261 16841900918562511916
550186 7 18190456254328496768
552612 73 18267329627464936001
57527585 21 18120930861355303605
633830 44 18124022448046273261
6523845 18 17897175611402548589
7399639 24 18197224860625273538
81228 2 17897185678689852707
9658208 31 18114756914976565449
9981440 41 18057861697454067888

>  <PUBCHEM_SHAPE_MULTIPOLES>  (1) 
611.16
8.41
5.2
2.81
0
1.07
0
-6.58
0
0
0
0
1.44
6.37

>  <PUBCHEM_SHAPE_SELFOVERLAP>  (1) 
1356.946

>  <PUBCHEM_SHAPE_VOLUME>  (1) 
323.4

>  <PUBCHEM_COORDINATE_TYPE>  (1) 
2
5
10

$$$$
