19282
     RDKit          3D

 16 18  0  0  0  0  0  0  0  0999 V2000
    2.6689    1.1802    0.6814 O   0  0  0  0  0  0  0  0  0  0  0  0
    3.4513   -0.7796   -0.1439 N   0  0  0  0  0  0  0  0  0  0  0  0
    1.1529   -0.2858   -0.3239 N   0  0  0  0  0  0  0  0  0  0  0  0
   -1.3003   -0.2564   -0.0871 C   0  0  0  0  0  0  0  0  0  0  0  0
   -0.0721    0.4150   -0.2028 C   0  0  0  0  0  0  0  0  0  0  0  0
   -2.4924    0.4973    0.0305 C   0  0  0  0  0  0  0  0  0  0  0  0
    2.4165    0.1173    0.1089 C   0  0  0  0  0  0  0  0  0  0  0  0
   -0.0200    1.8092   -0.2028 C   0  0  0  0  0  0  0  0  0  0  0  0
    4.5846   -0.9535    0.5962 C   0  0  0  0  0  0  0  0  0  0  0  0
    4.6897   -0.4842   -0.6352 C   0  0  0  0  0  0  0  0  0  0  0  0
   -1.3716   -1.6590   -0.0855 C   0  0  0  0  0  0  0  0  0  0  0  0
   -2.4212    1.8999    0.0292 C   0  0  0  0  0  0  0  0  0  0  0  0
   -3.7206   -0.1738    0.1462 C   0  0  0  0  0  0  0  0  0  0  0  0
   -1.1923    2.5503   -0.0868 C   0  0  0  0  0  0  0  0  0  0  0  0
   -2.6006   -2.3091    0.0301 C   0  0  0  0  0  0  0  0  0  0  0  0
   -3.7729   -1.5679    0.1457 C   0  0  0  0  0  0  0  0  0  0  0  0
  1  7  2  0
  2  7  1  0
  2  9  1  0
  2 10  1  0
  3  5  1  0
  3  7  1  0
  4  5  1  0
  4  6  2  0
  4 11  1  0
  5  8  2  0
  6 12  1  0
  6 13  1  0
  8 14  1  0
  9 10  2  0
 11 15  2  0
 12 14  2  0
 13 16  2  0
 15 16  1  0
M  END
>  <PUBCHEM_COMPOUND_CID>  (1) 
19282

>  <PUBCHEM_CONFORMER_RMSD>  (1) 
0.6

>  <PUBCHEM_CONFORMER_DIVERSEORDER>  (1) 
1
8
10
15
4
9
5
14
16
13
12
3
7
17
2
11
6

>  <PUBCHEM_MMFF94_PARTIAL_CHARGES>  (1) 
24
1 -0.57
10 -0.04
11 -0.15
12 -0.15
13 -0.15
14 -0.15
15 -0.15
16 -0.15
17 0.37
18 0.15
19 0.15
2 -0.28
20 0.15
21 0.15
22 0.15
23 0.15
24 0.15
25 0.15
26 0.15
3 -0.55
5 0.12
7 0.69
8 -0.15
9 -0.04

>  <PUBCHEM_EFFECTIVE_ROTOR_COUNT>  (1) 
3.2

>  <PUBCHEM_PHARMACOPHORE_FEATURES>  (1) 
4
1 1 acceptor
1 3 donor
6 4 5 6 8 12 14 rings
6 4 6 11 13 15 16 rings

>  <PUBCHEM_HEAVY_ATOM_COUNT>  (1) 
16

>  <PUBCHEM_ATOM_DEF_STEREO_COUNT>  (1) 
0

>  <PUBCHEM_ATOM_UDEF_STEREO_COUNT>  (1) 
0

>  <PUBCHEM_BOND_DEF_STEREO_COUNT>  (1) 
0

>  <PUBCHEM_BOND_UDEF_STEREO_COUNT>  (1) 
0

>  <PUBCHEM_ISOTOPIC_ATOM_COUNT>  (1) 
0

>  <PUBCHEM_COMPONENT_COUNT>  (1) 
1

>  <PUBCHEM_CACTVS_TAUTO_COUNT>  (1) 
2

>  <PUBCHEM_CONFORMER_ID>  (1) 
00004B5200000001

>  <PUBCHEM_MMFF94_ENERGY>  (1) 
112.745

>  <PUBCHEM_FEATURE_SELFOVERLAP>  (1) 
20.324

>  <PUBCHEM_SHAPE_FINGERPRINT>  (1) 
10319926 262 18196911324788441338
10493431 412 18054519010877039001
10616163 171 18410295779078032102
11046707 91 18408323285023557930
12032990 46 18337955687665491499
12500047 106 18264481780796040468
13140716 1 18339653355489162369
13288520 33 18411984637617472750
13296908 3 18337950194312545218
13862211 1 18410853283329329223
14420673 8 17761207718590122266
14965852 173 18410573972588458536
15042514 8 18336553733357596593
15196674 1 18410856598299782985
15653759 3 18342172254823590840
16752209 62 18261937571276981889
16945 1 18339091457834467845
17804303 29 18342179972447343881
17834074 16 18341614776664019662
1813 80 17604142735268292364
19141452 34 18130508625914949279
200 152 15357696375242601956
20510252 161 18271807852457196473
20871998 184 18272933808330287951
20871998 22 18266458904782301521
21029758 27 18187656829226222365
21267235 1 18337118937921370075
21339142 51 18408316675433094445
21650355 55 18411135822914467409
2297311 6 18342472425866826694
2306618 200 18201726106868866769
23366157 5 17898007082063008756
23402539 116 18343294860712050743
23463225 33 18338238270580117439
23557571 272 18201450125419201516
23559900 14 18411974789194399784
2748010 2 18194675089408728189
335352 9 18410293606177514853
4214541 1 18338235969021011052
43471831 8 18189614951702939259
474 4 17024326308686013372
5104073 3 18413108385292000760
559249 180 18043522807819253834
573450 72 18188480273357132242
7364860 26 17908143522788061905
8809292 202 18408887355805318027
9709674 26 18270965631214773398

>  <PUBCHEM_SHAPE_MULTIPOLES>  (1) 
313.44
8.19
2.38
0.69
9.31
0.58
0.01
-3.71
0.36
-2.12
0.02
0.26
-0.01
0.08

>  <PUBCHEM_SHAPE_SELFOVERLAP>  (1) 
689.954

>  <PUBCHEM_SHAPE_VOLUME>  (1) 
169.7

>  <PUBCHEM_COORDINATE_TYPE>  (1) 
2
5
10

$$$$
