19297
     RDKit          3D

 14 14  0  0  0  0  0  0  0  0999 V2000
    0.5211   -0.0236    0.6155 N   0  0  0  0  0  0  0  0  0  0  0  0
   -0.4787   -0.0502    1.3678 N   0  0  0  0  0  0  0  0  0  0  0  0
    2.9329    2.2326   -1.0166 N   0  0  0  0  0  0  0  0  0  0  0  0
    3.1578   -2.1449   -1.0517 N   0  0  0  0  0  0  0  0  0  0  0  0
    1.7737   -0.0407    1.3701 C   0  0  0  0  0  0  0  0  0  0  0  0
    2.9816    0.0289    0.4278 C   0  0  0  0  0  0  0  0  0  0  0  0
   -1.6511   -0.0312    0.6057 C   0  0  0  0  0  0  0  0  0  0  0  0
   -2.2311   -1.2294    0.1889 C   0  0  0  0  0  0  0  0  0  0  0  0
   -2.2401    1.1856    0.2617 C   0  0  0  0  0  0  0  0  0  0  0  0
   -3.4000   -1.2110   -0.5719 C   0  0  0  0  0  0  0  0  0  0  0  0
   -3.4092    1.2039   -0.4991 C   0  0  0  0  0  0  0  0  0  0  0  0
   -3.9891    0.0056   -0.9159 C   0  0  0  0  0  0  0  0  0  0  0  0
    2.9533    1.2615   -0.3814 C   0  0  0  0  0  0  0  0  0  0  0  0
    3.0789   -1.1872   -0.4009 C   0  0  0  0  0  0  0  0  0  0  0  0
  1  2  2  0
  1  5  1  0
  2  7  1  0
  3 13  3  0
  4 14  3  0
  5  6  1  0
  6 13  1  0
  6 14  1  0
  7  8  2  0
  7  9  1  0
  8 10  1  0
  9 11  2  0
 10 12  2  0
 11 12  1  0
M  END
>  <PUBCHEM_COMPOUND_CID>  (1) 
19297

>  <PUBCHEM_CONFORMER_RMSD>  (1) 
0.6

>  <PUBCHEM_CONFORMER_DIVERSEORDER>  (1) 
1
8
10
13
6
3
4
2
5
11
9
12
7

>  <PUBCHEM_MMFF94_PARTIAL_CHARGES>  (1) 
19
1 -0.25
10 -0.15
11 -0.15
12 -0.15
13 0.36
14 0.36
18 0.15
19 0.15
2 -0.18
20 0.15
21 0.15
22 0.15
3 -0.56
4 -0.56
5 0.25
6 0.4
7 0.18
8 -0.15
9 -0.15

>  <PUBCHEM_EFFECTIVE_ROTOR_COUNT>  (1) 
3

>  <PUBCHEM_PHARMACOPHORE_FEATURES>  (1) 
3
1 3 acceptor
1 4 acceptor
6 7 8 9 10 11 12 rings

>  <PUBCHEM_HEAVY_ATOM_COUNT>  (1) 
14

>  <PUBCHEM_ATOM_DEF_STEREO_COUNT>  (1) 
0

>  <PUBCHEM_ATOM_UDEF_STEREO_COUNT>  (1) 
0

>  <PUBCHEM_BOND_DEF_STEREO_COUNT>  (1) 
0

>  <PUBCHEM_BOND_UDEF_STEREO_COUNT>  (1) 
0

>  <PUBCHEM_ISOTOPIC_ATOM_COUNT>  (1) 
0

>  <PUBCHEM_COMPONENT_COUNT>  (1) 
1

>  <PUBCHEM_CACTVS_TAUTO_COUNT>  (1) 
1

>  <PUBCHEM_CONFORMER_ID>  (1) 
00004B6100000001

>  <PUBCHEM_MMFF94_ENERGY>  (1) 
23.0821

>  <PUBCHEM_FEATURE_SELFOVERLAP>  (1) 
15.223

>  <PUBCHEM_SHAPE_FINGERPRINT>  (1) 
11543360 7 18337951298224641839
11715629 250 17676195884057084885
12162725 195 18260263070633643008
12616999 72 18271806873520929942
12707595 3 16343702157544638706
12932764 1 17240480286562107883
14250199 8 18260555536489881324
14252887 29 14548738439001120514
14350558 41 17917711275525499994
15239191 94 15913611691697346551
17041 50 18261960626756431020
18186145 218 17749107781412891825
18522851 268 18412260627535701308
20279233 1 17703778245509794674
20281475 54 17917430968927697427
20361792 2 15626220234401618137
20645477 70 17775281634242888798
20653085 51 18260270715928559793
23532345 88 18342177752403030294
23557571 272 17605569957079552490
23559900 14 18272362040977910162
3082319 5 18412545426695876912
5262128 65 18337403664198730548
5281201 14 18408326570567979623
58051976 378 18337950224483084162
6049 1 17532400679750598144
633830 44 18187365398562694849
93112 12 18409168787916667158

>  <PUBCHEM_SHAPE_MULTIPOLES>  (1) 
268.19
7.99
1.83
1.17
0.75
0.07
-0.15
-0.15
2.75
-1.21
0.76
-0.36
-0.02
0

>  <PUBCHEM_SHAPE_SELFOVERLAP>  (1) 
548.696

>  <PUBCHEM_SHAPE_VOLUME>  (1) 
150.7

>  <PUBCHEM_COORDINATE_TYPE>  (1) 
2
5
10

$$$$
