19293
     RDKit          3D

 25 25  0  0  0  0  0  0  0  0999 V2000
   -1.3309    1.1871    2.0455 Cl  0  0  0  0  0  0  0  0  0  0  0  0
   -3.1955    2.5014    0.1823 Cl  0  0  0  0  0  0  0  0  0  0  0  0
   -6.1214   -1.7064   -0.2265 Cl  0  0  0  0  0  0  0  0  0  0  0  0
   -4.5981   -4.0582    0.5766 Cl  0  0  0  0  0  0  0  0  0  0  0  0
    4.7424   -1.8061    0.3604 S   0  0  0  0  0  0  0  0  0  0  0  0
   -3.1159   -0.5286    0.3047 O   0  0  0  0  0  0  0  0  0  0  0  0
   -0.3153    3.8536    1.3843 O   0  0  0  0  0  0  0  0  0  0  0  0
    5.0597   -2.7287   -0.7204 O   0  0  0  0  0  0  0  0  0  0  0  0
    5.7844   -0.9479    0.9073 O   0  0  0  0  0  0  0  0  0  0  0  0
   -2.9244   -2.3071   -1.1480 O   0  0  0  0  0  0  0  0  0  0  0  0
   -0.5780    2.2398   -0.2942 N   0  0  0  0  0  0  0  0  0  0  0  0
    0.1231    1.6273   -1.4280 C   0  0  0  0  0  0  0  0  0  0  0  0
    1.2733    0.7718   -0.9815 C   0  0  0  0  0  0  0  0  0  0  0  0
   -1.7163    1.4822    0.3109 C   0  0  0  0  0  0  0  0  0  0  0  0
    3.4039   -0.8116   -0.1570 C   0  0  0  0  0  0  0  0  0  0  0  0
    2.1437    1.2442   -0.0064 C   0  0  0  0  0  0  0  0  0  0  0  0
    1.4566   -0.4838   -1.5489 C   0  0  0  0  0  0  0  0  0  0  0  0
   -2.0234    0.1195   -0.3426 C   0  0  0  0  0  0  0  0  0  0  0  0
   -0.1917    3.5003    0.2078 C   0  0  0  0  0  0  0  0  0  0  0  0
    3.2129    0.4497    0.4073 C   0  0  0  0  0  0  0  0  0  0  0  0
    2.5258   -1.2783   -1.1350 C   0  0  0  0  0  0  0  0  0  0  0  0
    0.4142    4.4743   -0.7732 C   0  0  0  0  0  0  0  0  0  0  0  0
    4.0892   -2.7555    1.7152 C   0  0  0  0  0  0  0  0  0  0  0  0
   -3.4690   -1.7511   -0.2032 C   0  0  0  0  0  0  0  0  0  0  0  0
   -4.6493   -2.2878    0.5624 C   0  0  0  0  0  0  0  0  0  0  0  0
  1 14  1  0
  2 14  1  0
  3 25  1  0
  4 25  1  0
  5  8  2  0
  5  9  2  0
  5 15  1  0
  5 23  1  0
  6 18  1  0
  6 24  1  0
  7 19  2  0
 10 24  2  0
 11 12  1  0
 11 14  1  0
 11 19  1  0
 12 13  1  0
 13 16  2  0
 13 17  1  0
 14 18  1  0
 15 20  2  0
 15 21  1  0
 16 20  1  0
 17 21  2  0
 19 22  1  0
 24 25  1  0
M  END
>  <PUBCHEM_COMPOUND_CID>  (1) 
19293

>  <PUBCHEM_CONFORMER_RMSD>  (1) 
1

>  <PUBCHEM_CONFORMER_DIVERSEORDER>  (1) 
1
219
121
95
147
144
62
36
181
67
178
64
55
40
16
41
61
122
234
211
109
129
73
57
59
131
35
25
140
80
54
78
232
44
56
151
74
102
237
52
104
244
248
239
235
31
210
9
252
142
204
139
8
37
120
143
134
22
203
171
195
48
215
186
123
200
159
14
3
183
26
222
207
91
174
6
75
97
214
34
93
163
180
157
128
70
145
172
154
187
24
50
87
53
4
162
185
153
23
116
27
158
227
105
242
133
43
17
175
92
152
182
33
189
238
136
206
32
85
196
127
28
98
117
209
112
197
223
225
86
224
138
12
96
218
79
15
82
130
39
83
46
106
245
89
137
229
231
99
132
111
199
63
66
150
103
71
243
241
141
58
20
5
42
88
236
193
38
29
240
21
115
76
126
68
110
249
177
233
2
124
250
13
148
107
119
7
45
135
161
205
212
164
228
118
194
221
100
216
19
192
165
201
94
213
60
18
146
65
220
226
69
169
191
84
90
51
188
30
160
47
167
11
170
114
251
190
125
230
184
72
208
179
149
217
176
49
101
10
168
81
202
173
166
247
246
155
156
77
108
113
198

>  <PUBCHEM_MMFF94_PARTIAL_CHARGES>  (1) 
29
1 -0.29
10 -0.57
11 -0.66
12 0.44
13 -0.14
14 0.88
15 -0.01
16 -0.15
17 -0.15
18 0.28
19 0.57
2 -0.29
20 -0.15
21 -0.15
22 0.06
23 0.11
24 0.66
25 0.64
28 0.15
29 0.15
3 -0.29
32 0.15
33 0.15
4 -0.29
5 1.2
6 -0.43
7 -0.57
8 -0.65
9 -0.65

>  <PUBCHEM_EFFECTIVE_ROTOR_COUNT>  (1) 
9

>  <PUBCHEM_PHARMACOPHORE_FEATURES>  (1) 
5
1 10 acceptor
1 7 acceptor
1 8 acceptor
1 9 acceptor
6 13 15 16 17 20 21 rings

>  <PUBCHEM_HEAVY_ATOM_COUNT>  (1) 
25

>  <PUBCHEM_ATOM_DEF_STEREO_COUNT>  (1) 
0

>  <PUBCHEM_ATOM_UDEF_STEREO_COUNT>  (1) 
0

>  <PUBCHEM_BOND_DEF_STEREO_COUNT>  (1) 
0

>  <PUBCHEM_BOND_UDEF_STEREO_COUNT>  (1) 
0

>  <PUBCHEM_ISOTOPIC_ATOM_COUNT>  (1) 
0

>  <PUBCHEM_COMPONENT_COUNT>  (1) 
1

>  <PUBCHEM_CACTVS_TAUTO_COUNT>  (1) 
1

>  <PUBCHEM_CONFORMER_ID>  (1) 
00004B5D00000001

>  <PUBCHEM_MMFF94_ENERGY>  (1) 
60.3374

>  <PUBCHEM_FEATURE_SELFOVERLAP>  (1) 
25.391

>  <PUBCHEM_SHAPE_FINGERPRINT>  (1) 
11265709 11 18411703200962957045
11552529 35 18192991509578649722
12523318 42 18122325897155991482
12553582 1 18128547144235945351
12633257 1 17986680264097148432
12788726 201 18338252516934306551
13004483 165 18341607118557671063
13140716 1 18341898454531841156
13631057 29 18335420124311862522
13955234 65 17764877183896256409
14100547 121 17686047302168222690
14178342 30 18127423262615708222
14844126 61 18337387128405829715
14863182 85 17398114241101686565
14866123 147 18337958888165168131
15042514 8 18339646620674558453
1979834 28 17488482904252067519
20567600 70 18262798613314828178
20600515 1 18200041629117349237
20681677 274 18339354176657718656
20775530 9 18410288129345522042
20832881 197 18261677064731816515
21388113 180 11167126578835253403
21421861 104 18125742311722618993
3421961 26 18195247952099039921
463206 1 18187931711275841987
484985 159 17827345593025063326
5104073 3 18272082765266892824
5265222 85 16681234339049997654
613672 6 18342174462347799271
7970288 3 18336265733946853075
9841814 1 18198078064779496351

>  <PUBCHEM_SHAPE_MULTIPOLES>  (1) 
491.49
11.22
5.45
1.42
1.81
2.87
-0.28
-16.29
-1.61
2.17
-0.81
-0.58
0.04
-0.81

>  <PUBCHEM_SHAPE_SELFOVERLAP>  (1) 
953.285

>  <PUBCHEM_SHAPE_VOLUME>  (1) 
299.7

>  <PUBCHEM_COORDINATE_TYPE>  (1) 
2
5
10

$$$$
