19298
     RDKit          3D

 15 15  0  0  0  0  0  0  0  0999 V2000
   -0.1436   -0.3343   -1.4091 N   0  0  0  0  0  0  0  0  0  0  0  0
    0.8247   -0.1517   -0.6378 N   0  0  0  0  0  0  0  0  0  0  0  0
    3.3887   -1.8949    1.3517 N   0  0  0  0  0  0  0  0  0  0  0  0
    3.1706    2.4445    0.7724 N   0  0  0  0  0  0  0  0  0  0  0  0
   -3.2387    0.7694    0.2794 C   0  0  0  0  0  0  0  0  0  0  0  0
   -1.3360   -0.3704   -0.6788 C   0  0  0  0  0  0  0  0  0  0  0  0
   -2.0494    0.8060   -0.4488 C   0  0  0  0  0  0  0  0  0  0  0  0
   -3.7144   -0.4436    0.7775 C   0  0  0  0  0  0  0  0  0  0  0  0
   -1.8119   -1.5834   -0.1805 C   0  0  0  0  0  0  0  0  0  0  0  0
    2.0965   -0.1079   -1.3584 C   0  0  0  0  0  0  0  0  0  0  0  0
   -3.0011   -1.6200    0.5475 C   0  0  0  0  0  0  0  0  0  0  0  0
   -4.0022    2.0268    0.5252 C   0  0  0  0  0  0  0  0  0  0  0  0
    3.2693    0.0806   -0.3885 C   0  0  0  0  0  0  0  0  0  0  0  0
    3.3349   -1.0242    0.5861 C   0  0  0  0  0  0  0  0  0  0  0  0
    3.2128    1.4030    0.2619 C   0  0  0  0  0  0  0  0  0  0  0  0
  1  2  2  0
  1  6  1  0
  2 10  1  0
  3 14  3  0
  4 15  3  0
  5  7  2  0
  5  8  1  0
  5 12  1  0
  6  7  1  0
  6  9  2  0
  8 11  2  0
  9 11  1  0
 10 13  1  0
 13 14  1  0
 13 15  1  0
M  END
>  <PUBCHEM_COMPOUND_CID>  (1) 
19298

>  <PUBCHEM_CONFORMER_RMSD>  (1) 
0.6

>  <PUBCHEM_CONFORMER_DIVERSEORDER>  (1) 
2
24
14
33
7
34
29
15
6
20
18
19
17
30
5
11
1
22
27
32
16
4
8
26
21
25
31
3
10
28
13
9
23
12

>  <PUBCHEM_MMFF94_PARTIAL_CHARGES>  (1) 
19
1 -0.18
10 0.25
11 -0.15
12 0.14
13 0.4
14 0.36
15 0.36
16 0.15
17 0.15
2 -0.25
20 0.15
21 0.15
3 -0.56
4 -0.56
5 -0.14
6 0.18
7 -0.15
8 -0.15
9 -0.15

>  <PUBCHEM_EFFECTIVE_ROTOR_COUNT>  (1) 
3

>  <PUBCHEM_PHARMACOPHORE_FEATURES>  (1) 
3
1 3 acceptor
1 4 acceptor
6 5 6 7 8 9 11 rings

>  <PUBCHEM_HEAVY_ATOM_COUNT>  (1) 
15

>  <PUBCHEM_ATOM_DEF_STEREO_COUNT>  (1) 
0

>  <PUBCHEM_ATOM_UDEF_STEREO_COUNT>  (1) 
0

>  <PUBCHEM_BOND_DEF_STEREO_COUNT>  (1) 
0

>  <PUBCHEM_BOND_UDEF_STEREO_COUNT>  (1) 
0

>  <PUBCHEM_ISOTOPIC_ATOM_COUNT>  (1) 
0

>  <PUBCHEM_COMPONENT_COUNT>  (1) 
1

>  <PUBCHEM_CACTVS_TAUTO_COUNT>  (1) 
1

>  <PUBCHEM_CONFORMER_ID>  (1) 
00004B6200000002

>  <PUBCHEM_MMFF94_ENERGY>  (1) 
25.6549

>  <PUBCHEM_FEATURE_SELFOVERLAP>  (1) 
15.223

>  <PUBCHEM_SHAPE_FINGERPRINT>  (1) 
10366900 7 18119811558470227880
10608611 8 18273221897604321341
10799339 124 18041000613548238867
11543360 7 10087631602743330643
122479 349 18202006495366745485
12633257 1 18338232644209941496
12670546 56 18408038520307659403
12892183 10 18261680367028741715
12932764 1 18334856130111455574
13296908 3 16660635237590001574
13533116 47 18261107465900301011
13583140 156 18334847338144569445
13675066 3 17458068140468036309
13897977 13 18128823117227881725
14178342 30 17968939841514372818
14252887 29 16008753507017882852
14289901 80 18188778373608932969
15239191 94 14707211015104331081
17041 49 18339917122236603152
18915474 69 9007053560918555376
20645477 70 15213304182977093407
21065199 12 18409450314374852850
21864079 5 17917710244628172268
22169311 14 18408885109674390286
23402539 116 18411980274510929543
23559900 14 17987529116974863382
5374978 207 18411422842899432179
7097593 13 18259985972260060654
90316 7 17967538947931895301

>  <PUBCHEM_SHAPE_MULTIPOLES>  (1) 
288.77
8.56
2.1
1.16
0.94
0.62
-0.12
1.65
2.81
0.17
0.8
0.57
-0.2
-0.23

>  <PUBCHEM_SHAPE_SELFOVERLAP>  (1) 
590.775

>  <PUBCHEM_SHAPE_VOLUME>  (1) 
163.6

>  <PUBCHEM_COORDINATE_TYPE>  (1) 
2
5
10

$$$$
