19296
     RDKit          3D

 12 12  0  0  1  0  0  0  0  0999 V2000
   -1.0503   -1.8564   -0.0314 S   0  0  0  0  0  0  0  0  0  0  0  0
   -3.8899   -1.1284    0.1874 S   0  0  0  0  0  0  0  0  0  0  0  0
    3.7581   -0.3719   -0.7564 O   0  0  0  0  0  0  0  0  0  0  0  0
    3.0564   -0.2193    1.3992 O   0  0  0  0  0  0  0  0  0  0  0  0
    0.5271    0.3469    0.0277 N   0  0  0  0  0  0  0  0  0  0  0  0
   -1.8756    0.7514    0.0329 N   0  0  0  0  0  0  0  0  0  0  0  0
   -0.5619    1.1849   -0.4687 C   0  0  0  0  0  0  0  0  0  0  0  0
    0.4156   -0.9730   -0.5798 C   0  0  0  0  0  0  0  0  0  0  0  0
    1.8199    0.9469   -0.3099 C   0  0  0  0  0  0  0  0  0  0  0  0
   -2.2911   -0.5942    0.0447 C   0  0  0  0  0  0  0  0  0  0  0  0
   -2.8226    1.8537    0.2389 C   0  0  0  0  0  0  0  0  0  0  0  0
    2.9142    0.0593    0.2153 C   0  0  0  0  0  0  0  0  0  0  0  0
  1  8  1  0
  1 10  1  0
  2 10  2  0
  3 12  1  0
  4 12  2  0
  5  7  1  0
  5  8  1  0
  5  9  1  0
  6  7  1  0
  6 10  1  0
  6 11  1  0
  9 12  1  0
M  END
>  <PUBCHEM_COMPOUND_CID>  (1) 
19296

>  <PUBCHEM_CONFORMER_RMSD>  (1) 
0.6

>  <PUBCHEM_CONFORMER_DIVERSEORDER>  (1) 
3
18
16
14
20
13
21
17
5
1
8
7
12
19
11
2
9
6
15
4
10

>  <PUBCHEM_MMFF94_PARTIAL_CHARGES>  (1) 
13
1 -0.37
10 0.58
11 0.3
12 0.66
2 -0.38
22 0.5
3 -0.65
4 -0.57
5 -0.81
6 -0.66
7 0.57
8 0.5
9 0.33

>  <PUBCHEM_EFFECTIVE_ROTOR_COUNT>  (1) 
3

>  <PUBCHEM_PHARMACOPHORE_FEATURES>  (1) 
6
1 2 acceptor
1 3 acceptor
1 4 acceptor
1 5 cation
3 3 4 12 anion
6 1 5 6 7 8 10 rings

>  <PUBCHEM_HEAVY_ATOM_COUNT>  (1) 
12

>  <PUBCHEM_ATOM_DEF_STEREO_COUNT>  (1) 
0

>  <PUBCHEM_ATOM_UDEF_STEREO_COUNT>  (1) 
0

>  <PUBCHEM_BOND_DEF_STEREO_COUNT>  (1) 
0

>  <PUBCHEM_BOND_UDEF_STEREO_COUNT>  (1) 
0

>  <PUBCHEM_ISOTOPIC_ATOM_COUNT>  (1) 
0

>  <PUBCHEM_COMPONENT_COUNT>  (1) 
1

>  <PUBCHEM_CACTVS_TAUTO_COUNT>  (1) 
1

>  <PUBCHEM_CONFORMER_ID>  (1) 
00004B6000000003

>  <PUBCHEM_MMFF94_ENERGY>  (1) 
34.6991

>  <PUBCHEM_FEATURE_SELFOVERLAP>  (1) 
30.504

>  <PUBCHEM_SHAPE_FINGERPRINT>  (1) 
11132069 177 18201997772224798667
12032990 46 18338524130940282135
12251169 10 18338229470371560392
12932764 1 17603583011062079052
13380535 21 18196945374476656351
13380535 76 18339077069630631773
14144814 61 18334010592626427576
14325111 11 18411983550626795380
14993402 34 18040437715123914942
15219456 202 17987807306106348655
15775835 57 18187651249683890216
16945 1 18341610460005531439
17834069 15 18339644438593879510
18186145 218 15339116849215572268
19422 9 17967814925197018098
20510252 161 18272936033118286905
20715346 28 17917988386852231216
20871998 184 18343303690890615071
21028194 46 18060140937713268262
21293036 1 8646497301676389059
21501502 16 18265614286431142987
23380061 330 18413389860690690759
23402539 116 18342166804705485607
23463225 33 18333731316530625583
23552423 10 17753894118721520884
23598291 2 17822588147955926380
23598294 1 18334854996076630537
2748010 2 18268441126842255599
369184 2 16343982533036108110
43471831 8 18334572400150937419
53655031 270 18335417980801331027
57812782 119 18130783481829663227
6333449 129 18341895160718868229
7364860 26 18196377146214734860
75552 356 18409168826676763927

>  <PUBCHEM_SHAPE_MULTIPOLES>  (1) 
232.95
6.25
1.77
0.83
1.55
0.19
0.13
-0.71
0.75
-1.49
-0.04
0.49
-0.07
-0.06

>  <PUBCHEM_SHAPE_SELFOVERLAP>  (1) 
435.783

>  <PUBCHEM_SHAPE_VOLUME>  (1) 
147.4

>  <PUBCHEM_COORDINATE_TYPE>  (1) 
2
5
10

$$$$
