19291
     RDKit          3D

 18 20  0  0  1  0  0  0  0  0999 V2000
    1.4203    1.3026   -0.1338 O   0  0  0  0  0  0  0  0  0  0  0  0
    1.5005   -1.4870    0.5839 O   0  0  0  0  0  0  0  0  0  0  0  0
   -2.1932    0.5432    0.0469 N   0  0  0  0  0  0  0  0  0  0  0  0
   -2.3640   -0.0632   -1.2777 C   0  0  0  0  0  0  0  0  0  0  0  0
   -3.3389    1.3336    0.4998 C   0  0  0  0  0  0  0  0  0  0  0  0
   -0.9578    1.3281    0.0786 C   0  0  0  0  0  0  0  0  0  0  0  0
   -3.7219   -0.6998   -1.5893 C   0  0  0  0  0  0  0  0  0  0  0  0
   -4.3099    0.4637    1.3031 C   0  0  0  0  0  0  0  0  0  0  0  0
   -4.3579   -1.4498   -0.4235 C   0  0  0  0  0  0  0  0  0  0  0  0
   -5.1488   -0.5203    0.4937 C   0  0  0  0  0  0  0  0  0  0  0  0
    0.2635    0.4555   -0.1709 C   0  0  0  0  0  0  0  0  0  0  0  0
    0.3911   -0.6346    0.8850 C   0  0  0  0  0  0  0  0  0  0  0  0
    2.5850    0.5835   -0.0776 C   0  0  0  0  0  0  0  0  0  0  0  0
    2.6227   -0.7713    0.2593 C   0  0  0  0  0  0  0  0  0  0  0  0
    3.7677    1.2653   -0.3650 C   0  0  0  0  0  0  0  0  0  0  0  0
    3.8381   -1.4560    0.2663 C   0  0  0  0  0  0  0  0  0  0  0  0
    4.9845    0.5832   -0.3443 C   0  0  0  0  0  0  0  0  0  0  0  0
    5.0190   -0.7767   -0.0346 C   0  0  0  0  0  0  0  0  0  0  0  0
  1 11  1  0
  1 13  1  0
  2 12  1  0
  2 14  1  0
  3  4  1  0
  3  5  1  0
  3  6  1  0
  4  7  1  0
  5  8  1  0
  6 11  1  0
  7  9  1  0
  8 10  1  0
  9 10  1  0
 11 12  1  0
 13 14  2  0
 13 15  1  0
 14 16  1  0
 15 17  2  0
 16 18  2  0
 17 18  1  0
M  END
>  <PUBCHEM_COMPOUND_CID>  (1) 
19291

>  <PUBCHEM_CONFORMER_RMSD>  (1) 
0.6

>  <PUBCHEM_CONFORMER_DIVERSEORDER>  (1) 
1
42
20
41
6
39
22
44
28
8
31
18
43
23
2
27
14
9
36
38
13
40
11
34
5
16
15
21
25
32
7
29
10
12
24
19
37
17
30
26
3
4
33
35

>  <PUBCHEM_MMFF94_PARTIAL_CHARGES>  (1) 
18
1 -0.36
11 0.28
12 0.28
13 0.08
14 0.08
15 -0.15
16 -0.15
17 -0.15
18 -0.15
2 -0.36
3 -0.81
36 0.15
37 0.15
38 0.15
39 0.15
4 0.27
5 0.27
6 0.27

>  <PUBCHEM_EFFECTIVE_ROTOR_COUNT>  (1) 
4.2

>  <PUBCHEM_PHARMACOPHORE_FEATURES>  (1) 
6
1 1 acceptor
1 2 acceptor
1 3 cation
6 1 2 11 12 13 14 rings
6 13 14 15 16 17 18 rings
7 3 4 5 7 8 9 10 rings

>  <PUBCHEM_HEAVY_ATOM_COUNT>  (1) 
18

>  <PUBCHEM_ATOM_DEF_STEREO_COUNT>  (1) 
0

>  <PUBCHEM_ATOM_UDEF_STEREO_COUNT>  (1) 
1

>  <PUBCHEM_BOND_DEF_STEREO_COUNT>  (1) 
0

>  <PUBCHEM_BOND_UDEF_STEREO_COUNT>  (1) 
0

>  <PUBCHEM_ISOTOPIC_ATOM_COUNT>  (1) 
0

>  <PUBCHEM_COMPONENT_COUNT>  (1) 
1

>  <PUBCHEM_CACTVS_TAUTO_COUNT>  (1) 
1

>  <PUBCHEM_CONFORMER_ID>  (1) 
00004B5B00000001

>  <PUBCHEM_MMFF94_ENERGY>  (1) 
47.7338

>  <PUBCHEM_FEATURE_SELFOVERLAP>  (1) 
30.488

>  <PUBCHEM_SHAPE_FINGERPRINT>  (1) 
11045515 52 18113614595215409893
11046707 91 17988918990235644773
11796584 16 15984831398278033294
11806522 49 18335138691688530884
12107183 9 17621326736263202257
12236239 1 18272655644752393065
12633257 1 15553890026495620655
128620 24 17676487250369747991
13167823 11 18343302561008169918
13675066 3 13326851153778268574
13760787 5 18408884040164379604
13862211 1 18187641363550272978
14004511 7 9511462234175130105
14251764 18 18343869918748017489
14251764 38 13912614878265145735
14386348 63 17095245826146483323
14573314 32 14273450353947882874
14576447 43 18411129264646995710
15196674 1 18335984190218023128
15375462 189 18343016675115942161
15788980 27 18334293149824237445
17349148 13 18114180822196547176
17834072 33 18413672421893272016
17844677 252 18260270737140093981
1813 80 18335152967964872125
18186145 218 17749388148404019656
19422 9 18343581836998548341
200 152 18409166614821438609
20281475 54 18271518732428019214
20645477 70 18114182995714048322
21267235 1 18410582777023618946
21709351 56 18114180800510961132
22646028 1 18413669110452303325
22646028 28 18341889692961775855
22950370 63 18272936024396190749
23402539 116 18408602539407393436
23402655 69 18335980865792263613
23557571 272 15123241979013482160
23596394 208 16588014676339623090
2871803 45 18040709255804313871
3268164 11 14996278128754033671
351380 180 13262397773589464062
351380 3 18343019999399640639
4214541 1 18412264995697211369
4325135 7 18334580156797907830
4990 188 18202008703085144980
5104073 3 18412823560414865968
5281201 14 17458345217361196196
542803 24 17632861931772517128
602551 16 16558459889652682294
633830 44 17895196558490421624
7495541 125 17561079241590711440
77779 3 18413109437495696809

>  <PUBCHEM_SHAPE_MULTIPOLES>  (1) 
353.71
11.95
1.52
1.07
0.01
0.05
-0.16
2
0.01
-0.19
0.05
1.16
0.12
-1.03

>  <PUBCHEM_SHAPE_SELFOVERLAP>  (1) 
742.471

>  <PUBCHEM_SHAPE_VOLUME>  (1) 
198.3

>  <PUBCHEM_COORDINATE_TYPE>  (1) 
2
5
10

$$$$
