193
     RDKit          3D

 26 28  0  0  1  0  0  0  0  0999 V2000
    2.8450    0.3124   -0.1791 S   0  0  0  0  0  0  0  0  0  0  0  0
   -0.2123    0.6224   -0.3079 O   0  0  0  0  0  0  0  0  0  0  0  0
   -0.0864    3.8230    1.3074 O   0  0  0  0  0  0  0  0  0  0  0  0
   -2.7202    3.1536   -0.1959 O   0  0  0  0  0  0  0  0  0  0  0  0
    6.4926   -2.9259   -0.5136 O   0  0  0  0  0  0  0  0  0  0  0  0
    8.1921   -1.6800    0.3218 O   0  0  0  0  0  0  0  0  0  0  0  0
   -2.4368   -0.0647    0.1119 N   0  0  0  0  0  0  0  0  0  0  0  0
   -3.0768   -1.8061    1.3498 N   0  0  0  0  0  0  0  0  0  0  0  0
   -4.3952    0.1798   -1.3047 N   0  0  0  0  0  0  0  0  0  0  0  0
   -6.0908   -1.4923   -0.7709 N   0  0  0  0  0  0  0  0  0  0  0  0
   -5.7846   -3.1294    0.9475 N   0  0  0  0  0  0  0  0  0  0  0  0
    6.6216    0.3988    0.9049 N   0  0  0  0  0  0  0  0  0  0  0  0
   -0.3519    2.9118    0.2581 C   0  0  0  0  0  0  0  0  0  0  0  0
   -1.7377    2.3192    0.3921 C   0  0  0  0  0  0  0  0  0  0  0  0
    0.5214    1.6711    0.3470 C   0  0  0  0  0  0  0  0  0  0  0  0
   -1.5949    1.0195   -0.3895 C   0  0  0  0  0  0  0  0  0  0  0  0
    1.8743    1.8371   -0.3217 C   0  0  0  0  0  0  0  0  0  0  0  0
   -3.6852   -0.4046   -0.3279 C   0  0  0  0  0  0  0  0  0  0  0  0
   -2.1156   -0.9362    1.1196 C   0  0  0  0  0  0  0  0  0  0  0  0
   -4.0640   -1.4854    0.4523 C   0  0  0  0  0  0  0  0  0  0  0  0
    4.3299    0.8612   -1.0517 C   0  0  0  0  0  0  0  0  0  0  0  0
    5.4145   -0.2172   -1.1330 C   0  0  0  0  0  0  0  0  0  0  0  0
   -5.3187   -2.0323    0.2026 C   0  0  0  0  0  0  0  0  0  0  0  0
    5.9580   -0.7120    0.2151 C   0  0  0  0  0  0  0  0  0  0  0  0
   -5.5885   -0.4353   -1.4540 C   0  0  0  0  0  0  0  0  0  0  0  0
    7.0102   -1.7889    0.0197 C   0  0  0  0  0  0  0  0  0  0  0  0
  1 17  1  0
  1 21  1  0
  2 15  1  0
  2 16  1  0
  3 13  1  0
  4 14  1  0
  5 26  1  0
  6 26  2  0
  7 16  1  0
  7 18  1  0
  7 19  1  0
  8 19  2  0
  8 20  1  0
  9 18  1  0
  9 25  2  0
 10 23  2  0
 10 25  1  0
 11 23  1  0
 12 24  1  0
 13 14  1  0
 13 15  1  0
 14 16  1  0
 15 17  1  0
 18 20  2  0
 20 23  1  0
 21 22  1  0
 22 24  1  0
 24 26  1  0
M  END
>  <PUBCHEM_COMPOUND_CID>  (1) 
193

>  <PUBCHEM_CONFORMER_RMSD>  (1) 
1.2

>  <PUBCHEM_CONFORMER_DIVERSEORDER>  (1) 
2
283
139
197
35
114
276
21
174
130
221
34
111
199
231
149
87
336
10
30
296
60
190
47
224
69
211
95
8
315
92
82
80
51
88
277
198
225
259
317
205
18
13
4
72
311
337
39
288
125
91
119
45
96
253
178
316
100
86
238
143
272
102
202
280
38
255
313
53
179
248
271
5
37
32
223
302
188
1
189
16
42
328
240
281
27
314
334
310
264
228
68
193
146
294
107
121
204
268
106
166
176
300
321
71
117
307
138
152
145
83
161
46
213
50
11
320
158
222
303
333
279
81
73
14
44
243
3
312
284
171
293
298
129
43
56
278
23
36
263
257
324
301
41
207
203
29
306
266
234
250
246
147
140
77
79
330
31
210
177
273
217
229
85
244
282
137
49
247
61
57
12
232
103
329
331
167
9
135
245
17
230
170
48
70
195
319
104
175
116
185
200
160
15
65
242
163
214
327
154
22
186
251
126
184
26
212
182
94
216
113
183
168
208
241
305
287
128
159
332
289
99
153
105
297
76
127
97
233
169
124
215
235
236
40
142
24
308
52
275
260
270
237
194
335
249
256
201
226
67
209
132
156
136
98
322
93
55
181
120
325
131
227
262
165
66
118
254
286
19
290
258
274
141
172
28
309
90
78
269
59
123
115
101
252
239
89
122
112
304
109
74
206
20
162
58
148
75
62
323
164
295
220
292
134
144
25
133
180
192
285
108
196
299
291
187
110
64
151
318
150
63
7
191
6
54
267
218
84
33
219
261
326
173
265
155
157

>  <PUBCHEM_MMFF94_PARTIAL_CHARGES>  (1) 
34
1 -0.46
10 -0.62
11 -0.9
12 -0.99
13 0.28
14 0.28
15 0.28
16 0.54
17 0.23
18 0.11
19 0.04
2 -0.56
20 0.23
21 0.23
23 0.41
24 0.33
25 0.47
26 0.66
3 -0.68
33 0.4
34 0.4
35 0.15
4 -0.68
41 0.15
42 0.4
43 0.4
44 0.36
45 0.36
46 0.5
5 -0.65
6 -0.57
7 0.05
8 -0.57
9 -0.57

>  <PUBCHEM_EFFECTIVE_ROTOR_COUNT>  (1) 
8

>  <PUBCHEM_PHARMACOPHORE_FEATURES>  (1) 
19
1 11 cation
1 11 donor
1 12 cation
1 12 donor
1 2 acceptor
1 3 acceptor
1 3 donor
1 4 acceptor
1 4 donor
1 5 acceptor
1 6 acceptor
3 5 6 26 anion
3 7 8 19 cation
3 7 9 18 cation
3 9 10 25 cation
4 1 17 21 22 hydrophobe
5 2 13 14 15 16 rings
5 7 8 18 19 20 rings
6 9 10 18 20 23 25 rings

>  <PUBCHEM_HEAVY_ATOM_COUNT>  (1) 
26

>  <PUBCHEM_ATOM_DEF_STEREO_COUNT>  (1) 
0

>  <PUBCHEM_ATOM_UDEF_STEREO_COUNT>  (1) 
5

>  <PUBCHEM_BOND_DEF_STEREO_COUNT>  (1) 
0

>  <PUBCHEM_BOND_UDEF_STEREO_COUNT>  (1) 
0

>  <PUBCHEM_ISOTOPIC_ATOM_COUNT>  (1) 
0

>  <PUBCHEM_COMPONENT_COUNT>  (1) 
1

>  <PUBCHEM_CACTVS_TAUTO_COUNT>  (1) 
3

>  <PUBCHEM_CONFORMER_ID>  (1) 
000000C100000002

>  <PUBCHEM_MMFF94_ENERGY>  (1) 
52.6681

>  <PUBCHEM_FEATURE_SELFOVERLAP>  (1) 
97.088

>  <PUBCHEM_SHAPE_FINGERPRINT>  (1) 
10 15 11383833779112028382
10165383 225 17896028859894169789
10369192 42 8142086476762265291
10917259 69 18270396072261816189
11809386 21 18337110068676649828
12166972 35 17822578299637789916
12760667 363 18411139125538199913
13583140 156 14404914539976307481
13631057 29 18410292472353484944
13782708 43 18115590507867860107
13885169 86 9583512140449010278
14211702 104 18341337682891671886
14866123 147 18339932524279977473
14931854 50 17895183407517157499
15183329 4 16515681139728132030
15188451 53 18335133173399191650
15510800 12 18343032073165088118
15519825 34 15194990704562256759
18393751 57 10735890477937787101
20281389 69 10447930568645223822
20691028 202 8358254835202847638
21703447 108 18337662105756911160
23198884 109 15864066598523001383
23559900 14 18116709810757748789
23569943 247 18338239366631332563
25025965 108 17986371335869629158
255183 313 18053122635283840513
3004659 81 17822288003125319746
32027 91 18198338649188415547
329604 57 18409736179415087356
3383291 50 18334294296649948466
5104073 3 18131073723468317048
559249 180 18336827485487750148
5718773 13 18339359794274787127
6138700 20 18407476669834626595
7970288 3 18411420652334820526

>  <PUBCHEM_SHAPE_MULTIPOLES>  (1) 
479.68
19.56
3.62
1.13
29.43
1.61
-0.07
-20.55
-2.02
-1.23
1.1
-0.65
-0.04
0.72

>  <PUBCHEM_SHAPE_SELFOVERLAP>  (1) 
1001.617

>  <PUBCHEM_SHAPE_VOLUME>  (1) 
274.6

>  <PUBCHEM_COORDINATE_TYPE>  (1) 
2
5
10

$$$$
