19307
     RDKit          3D

 19 21  0  0  0  0  0  0  0  0999 V2000
    2.3237   -2.3392    0.6462 O   0  0  0  0  0  0  0  0  0  0  0  0
   -2.0857   -2.7638   -0.5265 O   0  0  0  0  0  0  0  0  0  0  0  0
    0.5972   -0.7525    0.3956 N   0  0  0  0  0  0  0  0  0  0  0  0
   -0.7545   -0.8532    0.0119 N   0  0  0  0  0  0  0  0  0  0  0  0
    0.1429   -2.9210    0.0830 N   0  0  0  0  0  0  0  0  0  0  0  0
    1.3600    0.4359    0.0985 C   0  0  0  0  0  0  0  0  0  0  0  0
    2.4591    0.6493    1.1426 C   0  0  0  0  0  0  0  0  0  0  0  0
    1.9416    0.3605   -1.3153 C   0  0  0  0  0  0  0  0  0  0  0  0
    3.3134    1.8718    0.8173 C   0  0  0  0  0  0  0  0  0  0  0  0
    2.7980    1.5825   -1.6372 C   0  0  0  0  0  0  0  0  0  0  0  0
    3.8905    1.7955   -0.5932 C   0  0  0  0  0  0  0  0  0  0  0  0
    1.1562   -2.0426    0.4287 C   0  0  0  0  0  0  0  0  0  0  0  0
   -1.0307   -2.2314   -0.2069 C   0  0  0  0  0  0  0  0  0  0  0  0
   -1.7259    0.1809    0.0608 C   0  0  0  0  0  0  0  0  0  0  0  0
   -2.9064    0.0752   -0.6823 C   0  0  0  0  0  0  0  0  0  0  0  0
   -1.5111    1.3138    0.8527 C   0  0  0  0  0  0  0  0  0  0  0  0
   -3.8612    1.0910   -0.6342 C   0  0  0  0  0  0  0  0  0  0  0  0
   -2.4660    2.3295    0.9010 C   0  0  0  0  0  0  0  0  0  0  0  0
   -3.6411    2.2180    0.1574 C   0  0  0  0  0  0  0  0  0  0  0  0
  1 12  2  0
  2 13  2  0
  3  4  1  0
  3  6  1  0
  3 12  1  0
  4 13  1  0
  4 14  1  0
  5 12  1  0
  5 13  1  0
  6  7  1  0
  6  8  1  0
  7  9  1  0
  8 10  1  0
  9 11  1  0
 10 11  1  0
 14 15  2  0
 14 16  1  0
 15 17  1  0
 16 18  2  0
 17 19  2  0
 18 19  1  0
M  END
>  <PUBCHEM_COMPOUND_CID>  (1) 
19307

>  <PUBCHEM_CONFORMER_RMSD>  (1) 
0.6

>  <PUBCHEM_CONFORMER_DIVERSEORDER>  (1) 
1
16
4
13
3
6
9
11
10
2
12
5
8
7
15
14

>  <PUBCHEM_MMFF94_PARTIAL_CHARGES>  (1) 
20
1 -0.57
12 0.69
13 0.69
14 0.12
15 -0.15
16 -0.15
17 -0.15
18 -0.15
19 -0.15
2 -0.57
3 -0.36
31 0.37
32 0.15
33 0.15
34 0.15
35 0.15
36 0.15
4 -0.18
5 -0.49
6 0.3

>  <PUBCHEM_EFFECTIVE_ROTOR_COUNT>  (1) 
3.2

>  <PUBCHEM_PHARMACOPHORE_FEATURES>  (1) 
6
1 1 acceptor
1 2 acceptor
1 5 donor
5 3 4 5 12 13 rings
6 14 15 16 17 18 19 rings
6 6 7 8 9 10 11 rings

>  <PUBCHEM_HEAVY_ATOM_COUNT>  (1) 
19

>  <PUBCHEM_ATOM_DEF_STEREO_COUNT>  (1) 
0

>  <PUBCHEM_ATOM_UDEF_STEREO_COUNT>  (1) 
0

>  <PUBCHEM_BOND_DEF_STEREO_COUNT>  (1) 
0

>  <PUBCHEM_BOND_UDEF_STEREO_COUNT>  (1) 
0

>  <PUBCHEM_ISOTOPIC_ATOM_COUNT>  (1) 
0

>  <PUBCHEM_COMPONENT_COUNT>  (1) 
1

>  <PUBCHEM_CACTVS_TAUTO_COUNT>  (1) 
3

>  <PUBCHEM_CONFORMER_ID>  (1) 
00004B6B00000001

>  <PUBCHEM_MMFF94_ENERGY>  (1) 
56.2394

>  <PUBCHEM_FEATURE_SELFOVERLAP>  (1) 
30.446

>  <PUBCHEM_SHAPE_FINGERPRINT>  (1) 
10498660 4 18413107268933377397
11582403 64 16483836048898237504
11640471 11 17968657241198299228
11725454 13 16843288394493234152
12173636 292 18339357586260040429
12202030 40 14116930510290108189
12633257 1 13623528012731073100
12788726 201 17830746713127909550
13134695 92 17536592902607067910
13140716 1 18336546010706114555
13464514 151 18272100353121247516
13583140 156 17095792214684990411
13764800 53 18336837492940521161
13965767 371 18114444700703431852
14181834 199 18192994824871584294
14739800 52 17689985062063223360
14955137 171 17622471349184771842
15342168 16 18260832570860980261
16752209 62 18120087544573841998
16945 1 18340204214766721371
17134986 127 18335992982032097436
17357990 137 17750239260946696724
1741750 31 18411983584859848705
18186145 218 18270402681150458605
18981168 100 18116176448321806906
20510252 161 18051979413377207832
20671657 1 18337111155345346382
21524375 3 18335140873236511769
21731516 1 10231757777303533125
2255824 54 18120939408244996883
23402539 116 17982445203020407838
23419403 2 16605554030123517586
23557571 272 17983582093838562668
23558518 356 18261388992147762890
23559900 14 18200882868167716852
2748010 2 18337404772189509963
305870 269 18408606937664862168
350125 39 18409177596879117923
469060 322 18046361983101835307
474 4 18261955124776912625
5262128 65 16774087258154464776
526903 126 18271523212342951985
7364860 26 18125438618331121914
81228 2 17908441481627260570
84936 182 18271240504462811664
9981440 41 18338222881902324082

>  <PUBCHEM_SHAPE_MULTIPOLES>  (1) 
364.33
6.45
3.35
1.16
0.46
2.16
-0.2
-5.25
-0.83
0.43
0.29
-0.68
-0.47
-0.91

>  <PUBCHEM_SHAPE_SELFOVERLAP>  (1) 
777.12

>  <PUBCHEM_SHAPE_VOLUME>  (1) 
199.8

>  <PUBCHEM_COORDINATE_TYPE>  (1) 
2
5
10

$$$$
