19304
     RDKit          3D

 16 16  0  0  0  0  0  0  0  0999 V2000
    0.0408    0.6165    0.7897 N   0  0  0  0  0  0  0  0  0  0  0  0
   -0.9678    0.2054    1.4004 N   0  0  0  0  0  0  0  0  0  0  0  0
    3.2854   -2.2588    0.5077 N   0  0  0  0  0  0  0  0  0  0  0  0
    4.7609    1.1494   -1.7666 N   0  0  0  0  0  0  0  0  0  0  0  0
    2.4446    1.0914    0.8572 C   0  0  0  0  0  0  0  0  0  0  0  0
    1.2161    0.6645    1.6612 C   0  0  0  0  0  0  0  0  0  0  0  0
    2.7634    0.1807   -0.3462 C   0  0  0  0  0  0  0  0  0  0  0  0
   -2.3525   -0.9634   -0.2191 C   0  0  0  0  0  0  0  0  0  0  0  0
   -2.0689    0.1770    0.5283 C   0  0  0  0  0  0  0  0  0  0  0  0
   -3.4505   -0.9739   -1.0793 C   0  0  0  0  0  0  0  0  0  0  0  0
   -2.8760    1.3069    0.4206 C   0  0  0  0  0  0  0  0  0  0  0  0
   -1.4998   -2.1856   -0.1170 C   0  0  0  0  0  0  0  0  0  0  0  0
   -4.2613    0.1558   -1.1895 C   0  0  0  0  0  0  0  0  0  0  0  0
   -3.9740    1.2962   -0.4395 C   0  0  0  0  0  0  0  0  0  0  0  0
    3.0574   -1.1847    0.1321 C   0  0  0  0  0  0  0  0  0  0  0  0
    3.8822    0.7225   -1.1399 C   0  0  0  0  0  0  0  0  0  0  0  0
  1  2  2  0
  1  6  1  0
  2  9  1  0
  3 15  3  0
  4 16  3  0
  5  6  1  0
  5  7  1  0
  7 15  1  0
  7 16  1  0
  8  9  2  0
  8 10  1  0
  8 12  1  0
  9 11  1  0
 10 13  2  0
 11 14  2  0
 13 14  1  0
M  END
>  <PUBCHEM_COMPOUND_CID>  (1) 
19304

>  <PUBCHEM_CONFORMER_RMSD>  (1) 
0.6

>  <PUBCHEM_CONFORMER_DIVERSEORDER>  (1) 
1
59
28
63
10
66
67
41
21
42
24
25
64
18
33
14
62
58
4
65
69
27
43
57
34
29
22
60
36
20
44
52
32
11
5
8
38
39
61
26
48
68
16
35
56
12
9
31
15
46
45
7
23
30
49
2
40
19
51
47
37
54
53
3
50
17
55
13
6
70

>  <PUBCHEM_MMFF94_PARTIAL_CHARGES>  (1) 
19
1 -0.25
10 -0.15
11 -0.15
12 0.14
13 -0.15
14 -0.15
15 0.36
16 0.36
2 -0.18
22 0.15
23 0.15
27 0.15
28 0.15
3 -0.56
4 -0.56
6 0.25
7 0.4
8 -0.14
9 0.18

>  <PUBCHEM_EFFECTIVE_ROTOR_COUNT>  (1) 
4

>  <PUBCHEM_PHARMACOPHORE_FEATURES>  (1) 
3
1 3 acceptor
1 4 acceptor
6 8 9 10 11 13 14 rings

>  <PUBCHEM_HEAVY_ATOM_COUNT>  (1) 
16

>  <PUBCHEM_ATOM_DEF_STEREO_COUNT>  (1) 
0

>  <PUBCHEM_ATOM_UDEF_STEREO_COUNT>  (1) 
0

>  <PUBCHEM_BOND_DEF_STEREO_COUNT>  (1) 
0

>  <PUBCHEM_BOND_UDEF_STEREO_COUNT>  (1) 
0

>  <PUBCHEM_ISOTOPIC_ATOM_COUNT>  (1) 
0

>  <PUBCHEM_COMPONENT_COUNT>  (1) 
1

>  <PUBCHEM_CACTVS_TAUTO_COUNT>  (1) 
1

>  <PUBCHEM_CONFORMER_ID>  (1) 
00004B6800000001

>  <PUBCHEM_MMFF94_ENERGY>  (1) 
26.826

>  <PUBCHEM_FEATURE_SELFOVERLAP>  (1) 
15.223

>  <PUBCHEM_SHAPE_FINGERPRINT>  (1) 
10062212 137 17916852522785130111
11137873 295 16845299366705381953
12363563 72 16415485956107841736
12553582 1 17775015573940350162
12707595 3 17060620018649139736
13675066 3 12396290483201381232
13693222 15 10952045662953094659
14252887 29 15554440812874352090
17870717 6 17632589248704865461
18186145 218 17917709115125236953
200 152 15052015675832254245
20325693 3 18412270557906401341
20523700 14 18411420639459929030
20645476 183 18336549416509717615
20645477 70 17060049410526566344
20671657 53 17489583454828613320
20871999 31 18341899618673492221
21864079 5 16515954879089188221
22646028 28 15410899569330436644
23403322 49 16702029668379355421
23559900 14 17917413350665868712
27216 239 13767924654598478901
2838139 119 17024603411417847356
3082319 5 18408604764316308976
633830 44 17531525374084865233
90316 7 10375601442422502819
93112 12 18342172301730906793
9709674 26 17702090572623361891

>  <PUBCHEM_SHAPE_MULTIPOLES>  (1) 
309.35
9.35
1.85
1.44
2.84
0.98
0.18
-1.02
4.87
0.12
-0.18
0.98
-0.39
-0.85

>  <PUBCHEM_SHAPE_SELFOVERLAP>  (1) 
630.041

>  <PUBCHEM_SHAPE_VOLUME>  (1) 
175

>  <PUBCHEM_COORDINATE_TYPE>  (1) 
2
5
10

$$$$
