19306
     RDKit          3D

 16 16  0  0  0  0  0  0  0  0999 V2000
   -0.3411   -0.9096   -0.4565 N   0  0  0  0  0  0  0  0  0  0  0  0
    0.6122   -1.5770   -0.0038 N   0  0  0  0  0  0  0  0  0  0  0  0
   -3.6106   -0.2939    2.3374 N   0  0  0  0  0  0  0  0  0  0  0  0
   -4.8504    1.9620   -1.1753 N   0  0  0  0  0  0  0  0  0  0  0  0
   -2.7339   -0.8190   -0.9806 C   0  0  0  0  0  0  0  0  0  0  0  0
   -1.5758   -1.6947   -0.5009 C   0  0  0  0  0  0  0  0  0  0  0  0
   -2.9811    0.4350   -0.1172 C   0  0  0  0  0  0  0  0  0  0  0  0
    4.0752    0.7777    0.0664 C   0  0  0  0  0  0  0  0  0  0  0  0
    1.7734   -0.7865    0.0195 C   0  0  0  0  0  0  0  0  0  0  0  0
    3.2251    0.7545    1.1719 C   0  0  0  0  0  0  0  0  0  0  0  0
    3.7717    0.0170   -1.0628 C   0  0  0  0  0  0  0  0  0  0  0  0
    2.0717   -0.0295    1.1486 C   0  0  0  0  0  0  0  0  0  0  0  0
    2.6182   -0.7669   -1.0864 C   0  0  0  0  0  0  0  0  0  0  0  0
    5.3089    1.6153    0.0921 C   0  0  0  0  0  0  0  0  0  0  0  0
   -3.3352    0.0269    1.2565 C   0  0  0  0  0  0  0  0  0  0  0  0
   -4.0283    1.2885   -0.7090 C   0  0  0  0  0  0  0  0  0  0  0  0
  1  2  2  0
  1  6  1  0
  2  9  1  0
  3 15  3  0
  4 16  3  0
  5  6  1  0
  5  7  1  0
  7 15  1  0
  7 16  1  0
  8 10  2  0
  8 11  1  0
  8 14  1  0
  9 12  2  0
  9 13  1  0
 10 12  1  0
 11 13  2  0
M  END
>  <PUBCHEM_COMPOUND_CID>  (1) 
19306

>  <PUBCHEM_CONFORMER_RMSD>  (1) 
0.6

>  <PUBCHEM_CONFORMER_DIVERSEORDER>  (1) 
2
8
31
28
9
13
29
25
3
30
6
22
4
23
24
11
19
10
16
18
14
12
20
27
15
21
17
1
26
7
5

>  <PUBCHEM_MMFF94_PARTIAL_CHARGES>  (1) 
19
1 -0.25
10 -0.15
11 -0.15
12 -0.15
13 -0.15
14 0.14
15 0.36
16 0.36
2 -0.18
22 0.15
23 0.15
24 0.15
25 0.15
3 -0.56
4 -0.56
6 0.25
7 0.4
8 -0.14
9 0.18

>  <PUBCHEM_EFFECTIVE_ROTOR_COUNT>  (1) 
4

>  <PUBCHEM_PHARMACOPHORE_FEATURES>  (1) 
3
1 3 acceptor
1 4 acceptor
6 8 9 10 11 12 13 rings

>  <PUBCHEM_HEAVY_ATOM_COUNT>  (1) 
16

>  <PUBCHEM_ATOM_DEF_STEREO_COUNT>  (1) 
0

>  <PUBCHEM_ATOM_UDEF_STEREO_COUNT>  (1) 
0

>  <PUBCHEM_BOND_DEF_STEREO_COUNT>  (1) 
0

>  <PUBCHEM_BOND_UDEF_STEREO_COUNT>  (1) 
0

>  <PUBCHEM_ISOTOPIC_ATOM_COUNT>  (1) 
0

>  <PUBCHEM_COMPONENT_COUNT>  (1) 
1

>  <PUBCHEM_CACTVS_TAUTO_COUNT>  (1) 
1

>  <PUBCHEM_CONFORMER_ID>  (1) 
00004B6A00000002

>  <PUBCHEM_MMFF94_ENERGY>  (1) 
26.251

>  <PUBCHEM_FEATURE_SELFOVERLAP>  (1) 
15.223

>  <PUBCHEM_SHAPE_FINGERPRINT>  (1) 
10014705 185 18341889710241722589
10498660 4 18272081695451088605
11543360 7 14620505748635968626
11552529 35 16733553843674208515
12363563 72 9151168779159454647
12916754 54 11671771698361699315
14123255 352 18411695508803390212
14123260 362 18060422430112519145
1420 369 8646481938346425341
14252887 29 14635134717327744056
14341114 328 16081096973641345180
17834072 32 18410007732606043461
18186145 218 18059864960521796750
19050596 39 15357701893906318798
20112054 13 18186800270844550879
20645477 56 18129946796436302263
20645477 70 17060071341215292318
20671657 53 10663815290975563463
21503847 285 17603591815992767724
21713013 43 12391504283294581113
21864079 5 18187368778390961356
22646028 28 9655573032588700821
231179 274 18412260631978341882
23402655 69 17132121264388381052
23503953 91 15791732983900557325
23503958 25 18334023778186907085
23557571 272 17488742436013600263
23559900 14 17242462620302351823
25 1 17775576342346180030
26918003 58 12757415164264451654
27216 239 18186802483148314485
4028521 119 18130782348211556741
57265010 4 16660647358362094801
59027123 10 15051736399541027081
5924683 9 15574997316679855059
633830 44 17417268540710280911
90127 26 18259990357485005722
9882013 296 15430324671354742474

>  <PUBCHEM_SHAPE_MULTIPOLES>  (1) 
309.35
11.09
1.66
1.49
0.39
0.12
-0.5
-6.49
2.04
-0.23
0.36
-1.61
-0.4
0.81

>  <PUBCHEM_SHAPE_SELFOVERLAP>  (1) 
629.062

>  <PUBCHEM_SHAPE_VOLUME>  (1) 
175.2

>  <PUBCHEM_COORDINATE_TYPE>  (1) 
2
5
10

$$$$
