19303
     RDKit          3D

 15 15  0  0  0  0  0  0  0  0999 V2000
    0.0747    0.3136   -0.8619 N   0  0  0  0  0  0  0  0  0  0  0  0
    1.0728   -0.2343   -1.3746 N   0  0  0  0  0  0  0  0  0  0  0  0
   -3.2432   -2.3685   -0.0419 N   0  0  0  0  0  0  0  0  0  0  0  0
   -4.6320    1.4548    1.5134 N   0  0  0  0  0  0  0  0  0  0  0  0
   -2.3160    0.8264   -1.0349 C   0  0  0  0  0  0  0  0  0  0  0  0
   -1.0983    0.2196   -1.7327 C   0  0  0  0  0  0  0  0  0  0  0  0
   -2.6591    0.1770    0.3215 C   0  0  0  0  0  0  0  0  0  0  0  0
    2.1721   -0.1192   -0.5074 C   0  0  0  0  0  0  0  0  0  0  0  0
    2.4083   -1.1077    0.4434 C   0  0  0  0  0  0  0  0  0  0  0  0
    3.0169    0.9825   -0.6045 C   0  0  0  0  0  0  0  0  0  0  0  0
    3.4991   -0.9933    1.3051 C   0  0  0  0  0  0  0  0  0  0  0  0
    4.1079    1.0966    0.2573 C   0  0  0  0  0  0  0  0  0  0  0  0
    4.3489    0.1086    1.2120 C   0  0  0  0  0  0  0  0  0  0  0  0
   -2.9879   -1.2478    0.1178 C   0  0  0  0  0  0  0  0  0  0  0  0
   -3.7642    0.8916    0.9873 C   0  0  0  0  0  0  0  0  0  0  0  0
  1  2  2  0
  1  6  1  0
  2  8  1  0
  3 14  3  0
  4 15  3  0
  5  6  1  0
  5  7  1  0
  7 14  1  0
  7 15  1  0
  8  9  2  0
  8 10  1  0
  9 11  1  0
 10 12  2  0
 11 13  2  0
 12 13  1  0
M  END
>  <PUBCHEM_COMPOUND_CID>  (1) 
19303

>  <PUBCHEM_CONFORMER_RMSD>  (1) 
0.6

>  <PUBCHEM_CONFORMER_DIVERSEORDER>  (1) 
2
25
4
31
27
11
28
30
9
22
13
19
26
3
16
18
12
32
29
15
21
6
17
10
14
8
20
24
1
23
5
7

>  <PUBCHEM_MMFF94_PARTIAL_CHARGES>  (1) 
19
1 -0.25
10 -0.15
11 -0.15
12 -0.15
13 -0.15
14 0.36
15 0.36
2 -0.18
21 0.15
22 0.15
23 0.15
24 0.15
25 0.15
3 -0.56
4 -0.56
6 0.25
7 0.4
8 0.18
9 -0.15

>  <PUBCHEM_EFFECTIVE_ROTOR_COUNT>  (1) 
4

>  <PUBCHEM_PHARMACOPHORE_FEATURES>  (1) 
3
1 3 acceptor
1 4 acceptor
6 8 9 10 11 12 13 rings

>  <PUBCHEM_HEAVY_ATOM_COUNT>  (1) 
15

>  <PUBCHEM_ATOM_DEF_STEREO_COUNT>  (1) 
0

>  <PUBCHEM_ATOM_UDEF_STEREO_COUNT>  (1) 
0

>  <PUBCHEM_BOND_DEF_STEREO_COUNT>  (1) 
0

>  <PUBCHEM_BOND_UDEF_STEREO_COUNT>  (1) 
0

>  <PUBCHEM_ISOTOPIC_ATOM_COUNT>  (1) 
0

>  <PUBCHEM_COMPONENT_COUNT>  (1) 
1

>  <PUBCHEM_CACTVS_TAUTO_COUNT>  (1) 
1

>  <PUBCHEM_CONFORMER_ID>  (1) 
00004B6700000002

>  <PUBCHEM_MMFF94_ENERGY>  (1) 
23.6658

>  <PUBCHEM_FEATURE_SELFOVERLAP>  (1) 
15.223

>  <PUBCHEM_SHAPE_FINGERPRINT>  (1) 
10498660 4 15195278716325995985
11543360 7 8646479730706490914
11552529 35 18270391823209708406
12346177 29 16154250737764334463
12363563 72 15140966144669897957
12553582 1 17168155541173984230
12633257 1 18408886230592568785
13675066 3 17240204305133639213
14123260 362 14189575264647860825
1420 369 15719400524803859113
14251710 61 15647057031898915976
14252887 29 17095243601358880520
14289901 80 17967524688455621916
14341114 328 18409732889158973744
14445660 50 18409732867462220701
15375462 189 17894355492182595116
17834072 32 16343699932809868313
19050596 39 18334012813145761432
19107657 162 15864069853770620888
193927 3 15357987728322502617
19433438 48 18186515527324141155
20671657 53 13623531263994234396
20767249 442 16415195641877387280
21503847 285 18059861675304578880
21713013 43 12612759020899593731
21864079 5 17202757228293684208
22646028 28 14779269700132660304
22926399 37 13973964269078829929
231179 274 15841549665464074650
23503953 91 18409165497903179377
23503958 25 16845296072117313344
23559900 14 17987819409313477102
23590187 214 18041837440897502262
25 1 13686307906510637412
27216 239 17346596387621856817
4028521 119 14620791587526351001
90127 26 17346601897853907488
9882013 296 18334852878789648118

>  <PUBCHEM_SHAPE_MULTIPOLES>  (1) 
288.77
9.81
1.58
1.49
0.47
0.51
0.35
1.34
4.92
0.08
-0.39
1.49
-0.11
-0.84

>  <PUBCHEM_SHAPE_SELFOVERLAP>  (1) 
586.992

>  <PUBCHEM_SHAPE_VOLUME>  (1) 
162.7

>  <PUBCHEM_COORDINATE_TYPE>  (1) 
2
5
10

$$$$
