19318
     RDKit          3D

 12 12  0  0  0  0  0  0  0  0999 V2000
    3.4439    1.3246   -0.0037 O   0  0  0  0  0  0  0  0  0  0  0  0
    3.6944   -0.8563   -0.0050 O   0  0  0  0  0  0  0  0  0  0  0  0
   -2.6183   -0.4761    0.0080 N   0  0  0  0  0  0  0  0  0  0  0  0
    2.9651    0.1647   -0.0033 N   0  0  0  0  0  0  0  0  0  0  0  0
   -1.2172   -0.3153    0.0054 C   0  0  0  0  0  0  0  0  0  0  0  0
   -3.5269    0.6283    0.0105 C   0  0  0  0  0  0  0  0  0  0  0  0
   -0.6621    0.9643    0.0051 C   0  0  0  0  0  0  0  0  0  0  0  0
   -0.3866   -1.4359    0.0028 C   0  0  0  0  0  0  0  0  0  0  0  0
    1.5544    0.0028   -0.0003 C   0  0  0  0  0  0  0  0  0  0  0  0
    0.7236    1.1233    0.0022 C   0  0  0  0  0  0  0  0  0  0  0  0
    0.9993   -1.2770    0.0000 C   0  0  0  0  0  0  0  0  0  0  0  0
   -4.9695    0.1526   -0.0219 C   0  0  0  0  0  0  0  0  0  0  0  0
  1  4  1  0
  2  4  2  0
  3  5  1  0
  3  6  1  0
  4  9  1  0
  5  7  2  0
  5  8  1  0
  6 12  1  0
  7 10  1  0
  8 11  2  0
  9 10  2  0
  9 11  1  0
M  CHG  2   1  -1   4   1
M  END
>  <PUBCHEM_COMPOUND_CID>  (1) 
19318

>  <PUBCHEM_CONFORMER_RMSD>  (1) 
0.6

>  <PUBCHEM_CONFORMER_DIVERSEORDER>  (1) 
1
2
3

>  <PUBCHEM_MMFF94_PARTIAL_CHARGES>  (1) 
16
1 -0.52
10 -0.15
11 -0.15
15 0.4
16 0.15
17 0.15
18 0.15
19 0.15
2 -0.52
3 -0.87
4 0.91
5 0.1
6 0.37
7 -0.15
8 -0.15
9 0.13

>  <PUBCHEM_EFFECTIVE_ROTOR_COUNT>  (1) 
3

>  <PUBCHEM_PHARMACOPHORE_FEATURES>  (1) 
6
1 1 acceptor
1 1 anion
1 2 acceptor
1 3 cation
1 3 donor
6 5 7 8 9 10 11 rings

>  <PUBCHEM_HEAVY_ATOM_COUNT>  (1) 
12

>  <PUBCHEM_ATOM_DEF_STEREO_COUNT>  (1) 
0

>  <PUBCHEM_ATOM_UDEF_STEREO_COUNT>  (1) 
0

>  <PUBCHEM_BOND_DEF_STEREO_COUNT>  (1) 
0

>  <PUBCHEM_BOND_UDEF_STEREO_COUNT>  (1) 
0

>  <PUBCHEM_ISOTOPIC_ATOM_COUNT>  (1) 
0

>  <PUBCHEM_COMPONENT_COUNT>  (1) 
1

>  <PUBCHEM_CACTVS_TAUTO_COUNT>  (1) 
1

>  <PUBCHEM_CONFORMER_ID>  (1) 
00004B7600000001

>  <PUBCHEM_MMFF94_ENERGY>  (1) 
38.8543

>  <PUBCHEM_FEATURE_SELFOVERLAP>  (1) 
30.527

>  <PUBCHEM_SHAPE_FINGERPRINT>  (1) 
10219947 1 18335423465057667573
11062470 55 18272933825657843233
11401426 45 18343576347977557443
11471102 20 18410571781954651645
12032990 46 18410018714641993443
13380535 76 18410576180265328995
13690532 89 18410573959429269571
14325111 11 18410856585409599841
14911166 2 18412270531925484150
14993402 34 18341898501786634661
16945 1 18339654381516983794
193761 8 17690280404575468422
20645477 70 18342177726200969662
23235685 24 18410568500488763649
23402539 116 18131342003603172431
23402655 69 18341602673994741053
2748010 2 18123191469993430942
366044 4 18410855473034507043
449060 62 18412265038567327800
4990 188 17989495099531043983
528886 8 18411695500113092467
53655031 270 18341613672619800993
53812653 166 18341326772967565729

>  <PUBCHEM_SHAPE_MULTIPOLES>  (1) 
225.25
7.24
1.35
0.59
4.79
0.1
0
-1.04
-0.04
-0.6
0
0.07
0
0

>  <PUBCHEM_SHAPE_SELFOVERLAP>  (1) 
461.08

>  <PUBCHEM_SHAPE_VOLUME>  (1) 
131.6

>  <PUBCHEM_COORDINATE_TYPE>  (1) 
2
5
10

$$$$
