19316
     RDKit          3D

 12 11  0  0  1  0  0  0  0  0999 V2000
   -2.2450    1.5409    1.0468 O   0  0  0  0  0  0  0  0  0  0  0  0
   -1.4111   -1.1609    0.3179 C   0  0  0  0  0  0  0  0  0  0  0  0
   -0.1999   -0.5392   -0.4119 C   0  0  0  0  0  0  0  0  0  0  0  0
   -2.7226   -0.5064   -0.1547 C   0  0  0  0  0  0  0  0  0  0  0  0
    1.1474   -1.0685    0.0896 C   0  0  0  0  0  0  0  0  0  0  0  0
   -1.4900   -2.6738    0.0871 C   0  0  0  0  0  0  0  0  0  0  0  0
    2.2906   -0.3836   -0.6064 C   0  0  0  0  0  0  0  0  0  0  0  0
   -2.7805    0.9952    0.0834 C   0  0  0  0  0  0  0  0  0  0  0  0
    3.2644    0.3608   -0.0492 C   0  0  0  0  0  0  0  0  0  0  0  0
   -3.5778    1.7943   -0.9149 C   0  0  0  0  0  0  0  0  0  0  0  0
    4.3590    0.9471   -0.9001 C   0  0  0  0  0  0  0  0  0  0  0  0
    3.3657    0.6941    1.4124 C   0  0  0  0  0  0  0  0  0  0  0  0
  1  8  2  0
  2  3  1  0
  2  4  1  0
  2  6  1  0
  3  5  1  0
  4  8  1  0
  5  7  1  0
  7  9  2  3
  8 10  1  0
  9 11  1  0
  9 12  1  0
M  END
>  <PUBCHEM_COMPOUND_CID>  (1) 
19316

>  <PUBCHEM_CONFORMER_RMSD>  (1) 
0.6

>  <PUBCHEM_CONFORMER_DIVERSEORDER>  (1) 
1
186
14
72
183
68
97
188
130
129
153
95
182
190
169
3
160
6
171
52
189
174
156
126
162
116
2
181
114
30
179
69
152
150
17
177
170
187
40
24
103
46
161
110
10
29
64
178
155
175
7
59
115
82
73
148
5
149
159
12
180
25
158
172
142
53
71
191
141
184
47
102
4
75
70
108
100
157
56
13
136
154
185
131
124
163
37
60
140
143
8
15
173
81
128
18
9
166
151
117
49
20
101
57
165
66
62
21
168
61
55
93
45
109
167
51
23
39
125
176
84
127
138
91
63
38
41
80
147
87
94
90
135
58
50
121
11
112
36
42
28
85
44
54
83
111
106
34
145
65
118
164
19
74
16
98
31
122
86
99
48
119
26
89
76
78
144
33
77
92
27
104
32
79
67
137
113
43
123
146
120
132
22
134
139
96
35
133
107
105
88

>  <PUBCHEM_MMFF94_PARTIAL_CHARGES>  (1) 
10
1 -0.57
10 0.06
11 0.14
12 0.14
23 0.15
4 0.06
5 0.14
7 -0.29
8 0.45
9 -0.28

>  <PUBCHEM_EFFECTIVE_ROTOR_COUNT>  (1) 
5

>  <PUBCHEM_PHARMACOPHORE_FEATURES>  (1) 
4
1 1 acceptor
1 6 hydrophobe
3 9 11 12 hydrophobe
5 2 3 4 5 7 hydrophobe

>  <PUBCHEM_HEAVY_ATOM_COUNT>  (1) 
12

>  <PUBCHEM_ATOM_DEF_STEREO_COUNT>  (1) 
0

>  <PUBCHEM_ATOM_UDEF_STEREO_COUNT>  (1) 
1

>  <PUBCHEM_BOND_DEF_STEREO_COUNT>  (1) 
0

>  <PUBCHEM_BOND_UDEF_STEREO_COUNT>  (1) 
0

>  <PUBCHEM_ISOTOPIC_ATOM_COUNT>  (1) 
0

>  <PUBCHEM_COMPONENT_COUNT>  (1) 
1

>  <PUBCHEM_CACTVS_TAUTO_COUNT>  (1) 
3

>  <PUBCHEM_CONFORMER_ID>  (1) 
00004B7400000001

>  <PUBCHEM_MMFF94_ENERGY>  (1) 
11.7286

>  <PUBCHEM_FEATURE_SELFOVERLAP>  (1) 
20.337

>  <PUBCHEM_SHAPE_FINGERPRINT>  (1) 
11543360 7 16056584469933147573
122479 349 18187649076514658955
12500047 106 18411698798896116470
12932764 1 17703513302353017870
13764800 53 18411707598930489963
14123255 352 18129367341609345528
14123260 362 18261402169122634076
14252887 29 12757146866685196100
14897335 6 18409442553358730655
15775835 57 18187082819352212081
1741750 31 18412544288635181579
17834072 32 18334297552161058557
18186145 218 18270125586823774263
20510252 161 18338524169368388067
20645477 56 18340495537834643675
20645477 70 16916801677733910646
20767249 271 18411979161286191896
20767249 442 18409724036983300672
20767249 462 18408602539528732428
21499 59 18337386016462649215
21524375 3 18269269071708702343
22485316 2 10303825254651799598
23402539 116 18340199808500132319
23500284 214 18340778069578849361
23557571 272 18129675221490941575
305870 269 18188206490139659107
328317 168 18335129857294419717
4028521 119 18272084976758721021
6049 1 17844536702343731114
6333449 129 18342460352392023331

>  <PUBCHEM_SHAPE_MULTIPOLES>  (1) 
241.09
7.72
2.12
1.04
4.84
0.76
-0.2
-4.45
0.74
-2.26
0.05
0.56
-0.36
0.19

>  <PUBCHEM_SHAPE_SELFOVERLAP>  (1) 
444.981

>  <PUBCHEM_SHAPE_VOLUME>  (1) 
153.1

>  <PUBCHEM_COORDINATE_TYPE>  (1) 
2
5
10

$$$$
