19312
     RDKit          3D

  9  8  0  0  1  0  0  0  0  0999 V2000
   -0.1600   -2.2657   -0.2310 Cl  0  0  0  0  0  0  0  0  0  0  0  0
   -2.4168   -0.0598   -1.2902 Cl  0  0  0  0  0  0  0  0  0  0  0  0
   -0.8465    2.0758   -0.1305 Cl  0  0  0  0  0  0  0  0  0  0  0  0
   -1.8957   -0.0283    1.5785 Cl  0  0  0  0  0  0  0  0  0  0  0  0
    2.8562    0.4723   -0.7141 O   0  0  0  0  0  0  0  0  0  0  0  0
    1.1398   -0.2320    0.7087 N   0  0  0  0  0  0  0  0  0  0  0  0
    0.1065   -0.4949   -0.2823 C   0  0  0  0  0  0  0  0  0  0  0  0
   -1.1854    0.3107   -0.0340 C   0  0  0  0  0  0  0  0  0  0  0  0
    2.4018    0.2220    0.3948 C   0  0  0  0  0  0  0  0  0  0  0  0
  1  7  1  0
  2  8  1  0
  3  8  1  0
  4  8  1  0
  5  9  2  0
  6  7  1  0
  6  9  1  0
  7  8  1  0
M  END
>  <PUBCHEM_COMPOUND_CID>  (1) 
19312

>  <PUBCHEM_CONFORMER_RMSD>  (1) 
0.6

>  <PUBCHEM_CONFORMER_DIVERSEORDER>  (1) 
1
3
6
8
5
4
7
2

>  <PUBCHEM_MMFF94_PARTIAL_CHARGES>  (1) 
11
1 -0.29
11 0.37
12 0.06
2 -0.29
3 -0.29
4 -0.29
5 -0.57
6 -0.73
7 0.59
8 0.87
9 0.57

>  <PUBCHEM_EFFECTIVE_ROTOR_COUNT>  (1) 
3

>  <PUBCHEM_PHARMACOPHORE_FEATURES>  (1) 
2
1 5 acceptor
1 6 donor

>  <PUBCHEM_HEAVY_ATOM_COUNT>  (1) 
9

>  <PUBCHEM_ATOM_DEF_STEREO_COUNT>  (1) 
0

>  <PUBCHEM_ATOM_UDEF_STEREO_COUNT>  (1) 
1

>  <PUBCHEM_BOND_DEF_STEREO_COUNT>  (1) 
0

>  <PUBCHEM_BOND_UDEF_STEREO_COUNT>  (1) 
0

>  <PUBCHEM_ISOTOPIC_ATOM_COUNT>  (1) 
0

>  <PUBCHEM_COMPONENT_COUNT>  (1) 
1

>  <PUBCHEM_CACTVS_TAUTO_COUNT>  (1) 
2

>  <PUBCHEM_CONFORMER_ID>  (1) 
00004B7000000001

>  <PUBCHEM_MMFF94_ENERGY>  (1) 
8.1854

>  <PUBCHEM_FEATURE_SELFOVERLAP>  (1) 
10.148

>  <PUBCHEM_SHAPE_FINGERPRINT>  (1) 
12423570 1 11896144865512432523
12897270 3 18270099254516491165
12932741 1 17240769419539626538
14128692 85 17699828907565171317
16714656 1 18412266163753813788
21040471 1 18340195319926523978
21293036 1 18338505456279801237
23552423 10 17979059501691554311
24536 1 17751655242585689927
369184 2 15791727503311342848
5084963 1 17988631974355476818

>  <PUBCHEM_SHAPE_MULTIPOLES>  (1) 
181.84
3.43
1.85
1.25
1.96
0.35
-0.27
-0.68
0.47
-0.3
0.22
-0.79
0.02
-0.09

>  <PUBCHEM_SHAPE_SELFOVERLAP>  (1) 
305.201

>  <PUBCHEM_SHAPE_VOLUME>  (1) 
123.5

>  <PUBCHEM_COORDINATE_TYPE>  (1) 
2
5
10

$$$$
