19314
     RDKit          3D

 12 13  0  0  1  0  0  0  0  0999 V2000
   -0.9266   -0.8093   -0.2005 O   0  0  0  0  0  0  0  0  0  0  0  0
    0.0524    1.8831    0.1085 O   0  0  0  0  0  0  0  0  0  0  0  0
   -3.5857   -1.2539    0.3856 O   0  0  0  0  0  0  0  0  0  0  0  0
   -1.7576    0.2765    0.2325 C   0  0  0  0  0  0  0  0  0  0  0  0
   -1.2591    1.5798   -0.3775 C   0  0  0  0  0  0  0  0  0  0  0  0
   -3.1832   -0.0291   -0.2029 C   0  0  0  0  0  0  0  0  0  0  0  0
    0.4066   -0.5110   -0.0993 C   0  0  0  0  0  0  0  0  0  0  0  0
    0.8805    0.7928    0.0616 C   0  0  0  0  0  0  0  0  0  0  0  0
    1.3040   -1.5766   -0.1741 C   0  0  0  0  0  0  0  0  0  0  0  0
    2.2495    1.0275    0.1923 C   0  0  0  0  0  0  0  0  0  0  0  0
    2.6738   -1.3396   -0.0573 C   0  0  0  0  0  0  0  0  0  0  0  0
    3.1454   -0.0401    0.1311 C   0  0  0  0  0  0  0  0  0  0  0  0
  1  4  1  0
  1  7  1  0
  2  5  1  0
  2  8  1  0
  3  6  1  0
  4  5  1  0
  4  6  1  0
  7  8  2  0
  7  9  1  0
  8 10  1  0
  9 11  2  0
 10 12  2  0
 11 12  1  0
M  END
>  <PUBCHEM_COMPOUND_CID>  (1) 
19314

>  <PUBCHEM_CONFORMER_RMSD>  (1) 
0.4

>  <PUBCHEM_CONFORMER_DIVERSEORDER>  (1) 
1
4
7
3
2
5
8
6

>  <PUBCHEM_MMFF94_PARTIAL_CHARGES>  (1) 
17
1 -0.36
10 -0.15
11 -0.15
12 -0.15
18 0.15
19 0.15
2 -0.36
20 0.15
21 0.15
22 0.4
3 -0.68
4 0.28
5 0.28
6 0.28
7 0.08
8 0.08
9 -0.15

>  <PUBCHEM_EFFECTIVE_ROTOR_COUNT>  (1) 
1.8

>  <PUBCHEM_PHARMACOPHORE_FEATURES>  (1) 
6
1 1 acceptor
1 2 acceptor
1 3 acceptor
1 3 donor
6 1 2 4 5 7 8 rings
6 7 8 9 10 11 12 rings

>  <PUBCHEM_HEAVY_ATOM_COUNT>  (1) 
12

>  <PUBCHEM_ATOM_DEF_STEREO_COUNT>  (1) 
0

>  <PUBCHEM_ATOM_UDEF_STEREO_COUNT>  (1) 
1

>  <PUBCHEM_BOND_DEF_STEREO_COUNT>  (1) 
0

>  <PUBCHEM_BOND_UDEF_STEREO_COUNT>  (1) 
0

>  <PUBCHEM_ISOTOPIC_ATOM_COUNT>  (1) 
0

>  <PUBCHEM_COMPONENT_COUNT>  (1) 
1

>  <PUBCHEM_CACTVS_TAUTO_COUNT>  (1) 
1

>  <PUBCHEM_CONFORMER_ID>  (1) 
00004B7200000001

>  <PUBCHEM_MMFF94_ENERGY>  (1) 
36.2481

>  <PUBCHEM_FEATURE_SELFOVERLAP>  (1) 
30.493

>  <PUBCHEM_SHAPE_FINGERPRINT>  (1) 
10219947 1 18342459265728348231
10857977 72 18410846651155564641
11471102 20 18411694383479611301
11769659 78 18188485774846345154
12032990 46 18411423899113350806
12897270 3 18410008793288430940
12932764 1 17346587573847883376
14251717 144 18340762749578470335
14325111 11 18411418401523478921
15501101 241 18410857693638055081
161256 15 18412543202208811684
16945 1 18412820309103529548
17844478 74 18333454226942403413
19973954 147 18267584602762390644
20201158 50 18407758123204300699
20645477 70 18341607093089002671
20871998 22 18270972236473391903
21501502 16 18266181638694225296
21501925 9 18410564089599691810
23402655 69 18196635325684432421
23463225 33 18410293605491660276
23552423 10 18189058603298153372
23559900 14 17262155827803977358
2748010 2 18268422447723478076
5084963 1 18343581807060358376
528886 8 18341044207322369338
581208 293 18341606066143061760
8809292 202 18260554398318338243

>  <PUBCHEM_SHAPE_MULTIPOLES>  (1) 
229.35
5.01
1.75
0.64
1.98
0.19
0.01
-1.51
-0.3
-0.09
0.03
0.03
0
0.28

>  <PUBCHEM_SHAPE_SELFOVERLAP>  (1) 
489.136

>  <PUBCHEM_SHAPE_VOLUME>  (1) 
127

>  <PUBCHEM_COORDINATE_TYPE>  (1) 
2
5
10

$$$$
