19326
     RDKit          3D

 25 28  0  0  1  0  0  0  0  0999 V2000
    0.8870    1.1096    0.7972 O   0  0  0  0  0  0  0  0  0  0  0  0
   -0.3647    1.2930   -1.1828 O   0  0  0  0  0  0  0  0  0  0  0  0
    3.6727    0.9123    1.1475 N   0  0  0  0  0  0  0  0  0  0  0  0
    3.0420    0.4755   -0.1046 C   0  0  0  0  0  0  0  0  0  0  0  0
    1.7682    1.2648   -0.3187 C   0  0  0  0  0  0  0  0  0  0  0  0
   -0.4275    1.3127    0.2530 C   0  0  0  0  0  0  0  0  0  0  0  0
    3.9981    0.6643   -1.2903 C   0  0  0  0  0  0  0  0  0  0  0  0
    0.9350    0.7805   -1.4803 C   0  0  0  0  0  0  0  0  0  0  0  0
   -1.3311    0.1841    0.7331 C   0  0  0  0  0  0  0  0  0  0  0  0
    5.3204   -0.0606   -1.0548 C   0  0  0  0  0  0  0  0  0  0  0  0
    5.9186    0.3403    0.2892 C   0  0  0  0  0  0  0  0  0  0  0  0
    4.9049    0.1715    1.4184 C   0  0  0  0  0  0  0  0  0  0  0  0
   -0.9534    2.6711    0.6988 C   0  0  0  0  0  0  0  0  0  0  0  0
   -0.8655   -1.2119    0.3225 C   0  0  0  0  0  0  0  0  0  0  0  0
   -2.7996    0.4065    0.3777 C   0  0  0  0  0  0  0  0  0  0  0  0
   -1.3092   -1.7317   -0.8732 C   0  0  0  0  0  0  0  0  0  0  0  0
   -3.7675   -0.1133    1.2086 C   0  0  0  0  0  0  0  0  0  0  0  0
   -0.0184   -1.9001    1.1623 C   0  0  0  0  0  0  0  0  0  0  0  0
   -3.1045    1.1193   -0.7608 C   0  0  0  0  0  0  0  0  0  0  0  0
   -0.8839   -3.0061   -1.2483 C   0  0  0  0  0  0  0  0  0  0  0  0
   -5.1088    0.0898    0.8842 C   0  0  0  0  0  0  0  0  0  0  0  0
    0.4070   -3.1744    0.7870 C   0  0  0  0  0  0  0  0  0  0  0  0
   -4.4460    1.3225   -1.0850 C   0  0  0  0  0  0  0  0  0  0  0  0
   -0.0259   -3.7274   -0.4183 C   0  0  0  0  0  0  0  0  0  0  0  0
   -5.4481    0.8077   -0.2624 C   0  0  0  0  0  0  0  0  0  0  0  0
  1  5  1  0
  1  6  1  0
  2  6  1  0
  2  8  1  0
  3  4  1  0
  3 12  1  0
  4  5  1  0
  4  7  1  0
  5  8  1  0
  6  9  1  0
  6 13  1  0
  7 10  1  0
  9 14  1  0
  9 15  1  0
 10 11  1  0
 11 12  1  0
 14 16  2  0
 14 18  1  0
 15 17  2  0
 15 19  1  0
 16 20  1  0
 17 21  1  0
 18 22  2  0
 19 23  2  0
 20 24  2  0
 21 25  2  0
 22 24  1  0
 23 25  1  0
M  END
>  <PUBCHEM_COMPOUND_CID>  (1) 
19326

>  <PUBCHEM_CONFORMER_RMSD>  (1) 
0.8

>  <PUBCHEM_CONFORMER_DIVERSEORDER>  (1) 
1
44
14
24
30
2
39
49
15
32
8
43
31
48
41
54
38
50
28
36
6
25
47
42
51
17
4
22
27
23
52
55
10
16
29
53
12
7
11
46
45
9
21
26
35
3
34
18
20
40
19
33
37
5
13

>  <PUBCHEM_MMFF94_PARTIAL_CHARGES>  (1) 
32
1 -0.56
12 0.27
14 -0.14
15 -0.14
16 -0.15
17 -0.15
18 -0.15
19 -0.15
2 -0.56
20 -0.15
21 -0.15
22 -0.15
23 -0.15
24 -0.15
25 -0.15
3 -0.9
35 0.36
4 0.27
43 0.15
44 0.15
45 0.15
46 0.15
47 0.15
48 0.15
49 0.15
5 0.28
50 0.15
51 0.15
52 0.15
6 0.56
8 0.28
9 0.29

>  <PUBCHEM_EFFECTIVE_ROTOR_COUNT>  (1) 
6.2

>  <PUBCHEM_PHARMACOPHORE_FEATURES>  (1) 
8
1 1 acceptor
1 2 acceptor
1 3 cation
1 3 donor
5 1 2 5 6 8 rings
6 14 16 18 20 22 24 rings
6 15 17 19 21 23 25 rings
6 3 4 7 10 11 12 rings

>  <PUBCHEM_HEAVY_ATOM_COUNT>  (1) 
25

>  <PUBCHEM_ATOM_DEF_STEREO_COUNT>  (1) 
0

>  <PUBCHEM_ATOM_UDEF_STEREO_COUNT>  (1) 
3

>  <PUBCHEM_BOND_DEF_STEREO_COUNT>  (1) 
0

>  <PUBCHEM_BOND_UDEF_STEREO_COUNT>  (1) 
0

>  <PUBCHEM_ISOTOPIC_ATOM_COUNT>  (1) 
0

>  <PUBCHEM_COMPONENT_COUNT>  (1) 
1

>  <PUBCHEM_CACTVS_TAUTO_COUNT>  (1) 
1

>  <PUBCHEM_CONFORMER_ID>  (1) 
00004B7E00000001

>  <PUBCHEM_MMFF94_ENERGY>  (1) 
73.1823

>  <PUBCHEM_FEATURE_SELFOVERLAP>  (1) 
40.637

>  <PUBCHEM_SHAPE_FINGERPRINT>  (1) 
10366900 7 17489319585682640148
107951 10 17821739346549416002
10906281 52 17773617051164404176
10930396 42 18054192610563472952
1100329 8 18340767164498980016
11488393 25 18122915226308811035
11578080 2 17699010905042236384
11963148 33 18041561459870838115
12011746 2 18342747295284056260
12156800 1 16125797636191438246
12236239 1 17385725798746645688
12422481 6 17969768688402696570
12592029 89 18114466686397634835
12633257 1 18271515481892066264
12715332 25 18340209686476013037
12788726 201 17834117824189815847
12969540 114 18340758286954170293
13052359 8 18338797930805458879
13140716 1 18268430329094091296
13257819 101 16950829320382056671
133893 2 17828506685756272699
13533116 47 17846503570038221502
14251751 93 18336262431427459159
14466204 15 18338516335617500785
14790565 3 18412553097656011913
14866123 147 18338514265274536779
15099037 51 18408889550523128132
15849732 13 17967535692172163148
16752209 62 18263919007115658794
19591789 44 18267022937373521019
20028762 73 18058454386420910495
20197701 30 18410571777665101891
20600515 1 18129962155202806304
21033648 29 18270101479157427376
21344244 246 18343018848649696831
21781051 124 18189640347965808347
22956985 138 17753607940830442554
23402539 116 17989205949717242069
23419403 2 17536294952420881007
23559900 14 17610893496530102307
23728640 28 18337957908327542818
249057 3 18334866043692845692
266924 87 18194966240604313597
283562 15 18200599090160400417
3178227 256 18339094786692657089
3298306 158 18335136458036524647
3383291 50 18270683040021923310
3411729 13 18190178980167275209
3759504 43 18113341941758198115
38695281 34 18342455903207052447
4015057 19 17417805205833252712
404807 14 14399889664326007572
4093350 32 17702393853750719847
465052 167 17386303094017014497
5265222 85 18262811777922028908
5385378 56 18339370639151125051
58260988 521 18116457958207324403
59755656 215 18334014965515038503
6138700 20 18337116648909562262
7226269 152 18344145903807393256
81228 2 17474100377506133707
9862522 239 18188475926649612621

>  <PUBCHEM_SHAPE_MULTIPOLES>  (1) 
497.77
10.57
3.07
1.41
6
3.62
0.09
-4.74
-0.48
-0.81
0.27
0.36
0.05
0.13

>  <PUBCHEM_SHAPE_SELFOVERLAP>  (1) 
1077.443

>  <PUBCHEM_SHAPE_VOLUME>  (1) 
271.3

>  <PUBCHEM_COORDINATE_TYPE>  (1) 
2
5
10

$$$$
