19337
     RDKit          3D

 15 17  0  0  1  0  0  0  0  0999 V2000
    3.5869    0.5393   -0.3015 N   0  0  0  0  0  0  0  0  0  0  0  0
   -1.3593   -1.9952   -0.0804 N   0  0  0  0  0  0  0  0  0  0  0  0
    1.3003    0.5281    0.2230 C   0  0  0  0  0  0  0  0  0  0  0  0
    2.1207    0.2374    1.4908 C   0  0  0  0  0  0  0  0  0  0  0  0
    2.2850    0.3192   -0.9352 C   0  0  0  0  0  0  0  0  0  0  0  0
    3.5033   -0.1527    0.9845 C   0  0  0  0  0  0  0  0  0  0  0  0
    0.0349   -0.2783    0.0960 C   0  0  0  0  0  0  0  0  0  0  0  0
   -1.2908    0.2323    0.0262 C   0  0  0  0  0  0  0  0  0  0  0  0
    4.6910    0.0587   -1.1190 C   0  0  0  0  0  0  0  0  0  0  0  0
   -0.0390   -1.6499    0.0283 C   0  0  0  0  0  0  0  0  0  0  0  0
   -2.1467   -0.8658   -0.0843 C   0  0  0  0  0  0  0  0  0  0  0  0
   -1.8474    1.5266    0.0465 C   0  0  0  0  0  0  0  0  0  0  0  0
   -3.5367   -0.7336   -0.1762 C   0  0  0  0  0  0  0  0  0  0  0  0
   -3.2362    1.6740   -0.0444 C   0  0  0  0  0  0  0  0  0  0  0  0
   -4.0660    0.5599   -0.1543 C   0  0  0  0  0  0  0  0  0  0  0  0
  1  5  1  0
  1  6  1  0
  1  9  1  0
  2 10  1  0
  2 11  1  0
  3  4  1  0
  3  5  1  0
  3  7  1  0
  4  6  1  0
  7  8  1  0
  7 10  2  0
  8 11  2  0
  8 12  1  0
 11 13  1  0
 12 14  2  0
 13 15  2  0
 14 15  1  0
M  END
>  <PUBCHEM_COMPOUND_CID>  (1) 
19337

>  <PUBCHEM_CONFORMER_RMSD>  (1) 
0.6

>  <PUBCHEM_CONFORMER_DIVERSEORDER>  (1) 
3
2
1
4
6
5
9
8
7

>  <PUBCHEM_MMFF94_PARTIAL_CHARGES>  (1) 
19
1 -0.81
10 -0.3
11 -0.15
12 -0.15
13 -0.15
14 -0.15
15 -0.15
2 0.03
23 0.15
27 0.27
28 0.15
29 0.15
3 0.18
30 0.15
31 0.15
5 0.27
6 0.27
7 -0.18
9 0.27

>  <PUBCHEM_EFFECTIVE_ROTOR_COUNT>  (1) 
2

>  <PUBCHEM_PHARMACOPHORE_FEATURES>  (1) 
6
1 1 cation
1 2 cation
1 2 donor
5 1 3 4 5 6 rings
5 2 7 8 10 11 rings
6 8 11 12 13 14 15 rings

>  <PUBCHEM_HEAVY_ATOM_COUNT>  (1) 
15

>  <PUBCHEM_ATOM_DEF_STEREO_COUNT>  (1) 
0

>  <PUBCHEM_ATOM_UDEF_STEREO_COUNT>  (1) 
1

>  <PUBCHEM_BOND_DEF_STEREO_COUNT>  (1) 
0

>  <PUBCHEM_BOND_UDEF_STEREO_COUNT>  (1) 
0

>  <PUBCHEM_ISOTOPIC_ATOM_COUNT>  (1) 
0

>  <PUBCHEM_COMPONENT_COUNT>  (1) 
1

>  <PUBCHEM_CACTVS_TAUTO_COUNT>  (1) 
1

>  <PUBCHEM_CONFORMER_ID>  (1) 
00004B8900000003

>  <PUBCHEM_MMFF94_ENERGY>  (1) 
27.5907

>  <PUBCHEM_FEATURE_SELFOVERLAP>  (1) 
30.538

>  <PUBCHEM_SHAPE_FINGERPRINT>  (1) 
10498660 4 18336824204233118677
10608611 8 18201431532104993280
10751810 167 18261116291867592282
11132069 177 18413101762832283017
12186901 62 18411705378442797861
12236239 1 17749106695134312448
124424 183 17632298965092809758
13134695 92 15985100817250181160
13380535 76 18410852131919293763
13538477 17 18041273378342004850
13581323 91 18408879654918231315
13760787 19 17458624536227621595
14144814 61 18260824903906006464
14943859 89 18410294709229651096
14993402 34 18186519916606475549
15342168 16 15430900846013440238
15669948 3 18337103574511992470
15775835 57 18113337496451098932
16945 1 18411694422345339403
17804303 29 18341894125225574537
18186145 218 17632574942010247977
19422 9 17821723931858484322
200 152 14851604418883257995
20233049 118 18411416207238503880
20279233 1 17561362902932570106
20325693 3 18411150137844896669
20510252 161 18272369793378139969
20645476 183 17968099758511392211
20645477 56 18341890839955557200
20645477 70 16486980592098000500
21069387 34 14764351543858055860
21524375 3 18337947901021769611
23048698 100 17095237012446447312
23175994 123 17131843070434661344
23366157 5 17826233995227655435
23402539 116 18343293769173341493
23463225 33 18188481376699542426
23493267 7 18186806885073269827
23557571 272 18131079263833223087
23559900 14 18202283607178682320
2748010 2 18267026046945518255
43471831 8 18335695010260485403
449060 50 14562819858400265532
474 4 16951980676660795964
4990 188 17775005665382174278
633830 44 17917422120920638097
69090 78 17489297620613162335
7364860 26 18055910987870156647
74978 22 18335699511269582120
77492 1 17749101205897018000
81228 2 17696737136529126255
8272917 22 16733818675689407587

>  <PUBCHEM_SHAPE_MULTIPOLES>  (1) 
298.73
7.91
1.52
0.99
3.42
0.29
-0.13
-1.6
1.34
-1.37
0.03
1.11
-0.07
-0.11

>  <PUBCHEM_SHAPE_SELFOVERLAP>  (1) 
650.644

>  <PUBCHEM_SHAPE_VOLUME>  (1) 
167.6

>  <PUBCHEM_COORDINATE_TYPE>  (1) 
2
5
10

$$$$
