19334
     RDKit          3D

 25 26  0  0  1  0  0  0  0  0999 V2000
    1.5401    0.1233   -0.1949 O   0  0  0  0  0  0  0  0  0  0  0  0
    0.0906    1.6172    0.7880 O   0  0  0  0  0  0  0  0  0  0  0  0
   -5.9643    2.0502   -0.0802 O   0  0  0  0  0  0  0  0  0  0  0  0
    5.0959    0.8480    0.4511 N   0  0  0  0  0  0  0  0  0  0  0  0
   -0.7805   -0.1980   -0.5983 C   0  0  0  0  0  0  0  0  0  0  0  0
    3.9289    0.1409   -0.0756 C   0  0  0  0  0  0  0  0  0  0  0  0
    2.6442    0.8323    0.3519 C   0  0  0  0  0  0  0  0  0  0  0  0
    5.3751    2.0399   -0.3490 C   0  0  0  0  0  0  0  0  0  0  0  0
    6.2609   -0.0356    0.4758 C   0  0  0  0  0  0  0  0  0  0  0  0
   -2.1728    0.4046   -0.4600 C   0  0  0  0  0  0  0  0  0  0  0  0
   -0.7605   -1.6764   -0.2334 C   0  0  0  0  0  0  0  0  0  0  0  0
    0.2971    0.6247    0.1011 C   0  0  0  0  0  0  0  0  0  0  0  0
    6.5474    2.8209    0.2202 C   0  0  0  0  0  0  0  0  0  0  0  0
    6.6383   -0.4858   -0.9252 C   0  0  0  0  0  0  0  0  0  0  0  0
   -2.8261    0.9173   -1.5807 C   0  0  0  0  0  0  0  0  0  0  0  0
   -2.7935    0.4451    0.7886 C   0  0  0  0  0  0  0  0  0  0  0  0
   -1.1856   -2.6292   -1.1594 C   0  0  0  0  0  0  0  0  0  0  0  0
   -0.3168   -2.0781    1.0266 C   0  0  0  0  0  0  0  0  0  0  0  0
   -4.1002    1.4704   -1.4531 C   0  0  0  0  0  0  0  0  0  0  0  0
   -4.0677    0.9982    0.9163 C   0  0  0  0  0  0  0  0  0  0  0  0
   -4.7209    1.5109   -0.2046 C   0  0  0  0  0  0  0  0  0  0  0  0
   -1.1672   -3.9834   -0.8254 C   0  0  0  0  0  0  0  0  0  0  0  0
   -0.2983   -3.4323    1.3605 C   0  0  0  0  0  0  0  0  0  0  0  0
   -0.7236   -4.3849    0.4345 C   0  0  0  0  0  0  0  0  0  0  0  0
   -6.5404    2.0596    1.2251 C   0  0  0  0  0  0  0  0  0  0  0  0
  1  7  1  0
  1 12  1  0
  2 12  2  0
  3 21  1  0
  3 25  1  0
  4  6  1  0
  4  8  1  0
  4  9  1  0
  5 10  1  0
  5 11  1  0
  5 12  1  0
  6  7  1  0
  8 13  1  0
  9 14  1  0
 10 15  2  0
 10 16  1  0
 11 17  2  0
 11 18  1  0
 15 19  1  0
 16 20  2  0
 17 22  1  0
 18 23  2  0
 19 21  2  0
 20 21  1  0
 22 24  2  0
 23 24  1  0
M  END
>  <PUBCHEM_COMPOUND_CID>  (1) 
19334

>  <PUBCHEM_CONFORMER_RMSD>  (1) 
1

>  <PUBCHEM_CONFORMER_DIVERSEORDER>  (1) 
1
25
118
71
6
81
144
50
63
47
86
111
73
146
43
99
135
129
16
42
28
104
136
82
76
83
97
52
141
91
41
101
21
149
148
114
125
116
75
92
79
87
33
17
126
48
12
78
132
9
95
39
151
88
121
22
46
69
31
143
37
34
154
53
57
120
4
134
85
65
90
133
131
38
150
89
18
156
7
119
66
108
14
93
77
123
29
15
61
19
94
110
157
145
10
127
2
58
72
130
105
84
62
49
3
153
23
35
147
44
67
64
55
155
128
107
142
122
5
70
140
59
24
124
8
139
68
36
109
60
54
74
100
103
113
56
117
27
115
13
98
96
112
26
152
20
80
11
51
30
137
102
138
45
32
106
40

>  <PUBCHEM_MMFF94_PARTIAL_CHARGES>  (1) 
32
1 -0.43
10 -0.14
11 -0.14
12 0.66
15 -0.15
16 -0.15
17 -0.15
18 -0.15
19 -0.15
2 -0.57
20 -0.15
21 0.08
22 -0.15
23 -0.15
24 -0.15
25 0.28
3 -0.36
4 -0.81
41 0.15
42 0.15
43 0.15
44 0.15
45 0.15
46 0.15
47 0.15
48 0.15
49 0.15
5 0.35
6 0.27
7 0.28
8 0.27
9 0.27

>  <PUBCHEM_EFFECTIVE_ROTOR_COUNT>  (1) 
10

>  <PUBCHEM_PHARMACOPHORE_FEATURES>  (1) 
5
1 2 acceptor
1 3 acceptor
1 4 cation
6 10 15 16 19 20 21 rings
6 11 17 18 22 23 24 rings

>  <PUBCHEM_HEAVY_ATOM_COUNT>  (1) 
25

>  <PUBCHEM_ATOM_DEF_STEREO_COUNT>  (1) 
0

>  <PUBCHEM_ATOM_UDEF_STEREO_COUNT>  (1) 
1

>  <PUBCHEM_BOND_DEF_STEREO_COUNT>  (1) 
0

>  <PUBCHEM_BOND_UDEF_STEREO_COUNT>  (1) 
0

>  <PUBCHEM_ISOTOPIC_ATOM_COUNT>  (1) 
0

>  <PUBCHEM_COMPONENT_COUNT>  (1) 
1

>  <PUBCHEM_CACTVS_TAUTO_COUNT>  (1) 
1

>  <PUBCHEM_CONFORMER_ID>  (1) 
00004B8600000001

>  <PUBCHEM_MMFF94_ENERGY>  (1) 
67.4387

>  <PUBCHEM_FEATURE_SELFOVERLAP>  (1) 
25.371

>  <PUBCHEM_SHAPE_FINGERPRINT>  (1) 
10369192 42 18187931638445676477
107951 10 18260269650956765154
10906281 52 17988938781329471772
11007060 377 18341047544469793089
11036077 3 18410858728772581271
11405975 8 18410289259939519536
11823591 26 18339069420098809145
12516196 113 9655566413970627765
12549972 3 17701808007030888162
12597179 24 18272374152759779358
12643181 29 18412547596873349094
12788726 201 18122045766077672611
12954195 1 18200864188827530215
12977781 61 17488765452479862622
13135754 10 17387147557196320234
14790565 3 18267584615647669432
14866123 147 18337669836038888195
15463212 79 18114729530011924170
15664445 248 17409657549519582879
15927050 60 18411980251992581791
16992727 255 11671242782151768699
17913733 40 18338530638226926483
1813 80 10665516162702009763
18222031 100 9078823070167672013
20286276 3 18121502620777018076
20681677 155 18336823186847517928
21033648 29 18336245891324500500
21120745 212 17469060198665713517
21236236 1 18339921640004498678
21424621 283 18272935994427060817
22224240 67 18334860507189694457
23558518 356 18122054579507962077
23559900 14 12390638959475671081
249057 3 18408042897612576660
3411729 13 18192151495479723427
3729539 64 18121791526010747726
3759504 43 18334293184247415683
4015057 19 17703218633284253448
404807 14 14902595138210111334
4058900 60 18265618680404200729
4073 2 18337670945220878160
4258327 124 18042695090000953092
4408954 64 15868900175834594403
5104073 3 18264197184353824952
5385378 56 18265339400202939307
559249 180 18410005551305969330
58260988 521 18114762468300935195
59755656 520 18412822482472941719
6669772 16 18340771425318093206
70251023 43 17480848058411501846
77188 2 17112976821181715243
81228 2 17831846225146185971

>  <PUBCHEM_SHAPE_MULTIPOLES>  (1) 
491.9
15.16
4.39
1.25
18.19
6.14
0.12
-17.17
-0.79
-2
-0.43
-1.08
0.18
-0.17

>  <PUBCHEM_SHAPE_SELFOVERLAP>  (1) 
1018.971

>  <PUBCHEM_SHAPE_VOLUME>  (1) 
281.3

>  <PUBCHEM_COORDINATE_TYPE>  (1) 
2
5
10

$$$$
