19330
     RDKit          3D

 30 33  0  0  1  0  0  0  0  0999 V2000
    1.4920   -0.3798    0.4148 O   0  0  0  0  0  0  0  0  0  0  0  0
    2.2011   -0.0233   -1.7801 O   0  0  0  0  0  0  0  0  0  0  0  0
   -0.8614   -1.6177    1.3735 N   0  0  0  0  0  0  0  0  0  0  0  0
   -6.1143    0.6777   -0.5385 N   0  0  0  0  0  0  0  0  0  0  0  0
   -0.8333   -0.9858    0.0494 C   0  0  0  0  0  0  0  0  0  0  0  0
   -3.2249   -1.7847   -0.3735 C   0  0  0  0  0  0  0  0  0  0  0  0
   -1.7904   -1.7025   -0.9158 C   0  0  0  0  0  0  0  0  0  0  0  0
    0.5963   -1.0268   -0.4899 C   0  0  0  0  0  0  0  0  0  0  0  0
   -3.2070   -2.3311    1.0600 C   0  0  0  0  0  0  0  0  0  0  0  0
   -2.2036   -1.6031    1.9534 C   0  0  0  0  0  0  0  0  0  0  0  0
   -3.9425   -0.4351   -0.4572 C   0  0  0  0  0  0  0  0  0  0  0  0
    0.7933   -0.2518   -1.7631 C   0  0  0  0  0  0  0  0  0  0  0  0
    2.5999    0.0857   -0.3925 C   0  0  0  0  0  0  0  0  0  0  0  0
   -5.4543   -0.6186   -0.4398 C   0  0  0  0  0  0  0  0  0  0  0  0
    3.8235   -0.7937   -0.1409 C   0  0  0  0  0  0  0  0  0  0  0  0
    2.8966    1.5466   -0.0571 C   0  0  0  0  0  0  0  0  0  0  0  0
   -6.1326    1.3475    0.7631 C   0  0  0  0  0  0  0  0  0  0  0  0
   -7.4775    0.5247   -1.0497 C   0  0  0  0  0  0  0  0  0  0  0  0
    4.0148   -1.3814    1.1097 C   0  0  0  0  0  0  0  0  0  0  0  0
    3.3994    2.3995   -1.0397 C   0  0  0  0  0  0  0  0  0  0  0  0
    4.7494   -1.0095   -1.1618 C   0  0  0  0  0  0  0  0  0  0  0  0
    2.6644    2.0275    1.2316 C   0  0  0  0  0  0  0  0  0  0  0  0
   -6.7584    2.7280    0.6614 C   0  0  0  0  0  0  0  0  0  0  0  0
   -8.3293   -0.3032   -0.1026 C   0  0  0  0  0  0  0  0  0  0  0  0
    5.1318   -2.1845    1.3395 C   0  0  0  0  0  0  0  0  0  0  0  0
    3.6702    3.7332   -0.7336 C   0  0  0  0  0  0  0  0  0  0  0  0
    5.8663   -1.8128   -0.9318 C   0  0  0  0  0  0  0  0  0  0  0  0
    2.9350    3.3612    1.5375 C   0  0  0  0  0  0  0  0  0  0  0  0
    6.0575   -2.4002    0.3188 C   0  0  0  0  0  0  0  0  0  0  0  0
    3.4380    4.2140    0.5548 C   0  0  0  0  0  0  0  0  0  0  0  0
  1  8  1  0
  1 13  1  0
  2 12  1  0
  2 13  1  0
  3  5  1  0
  3 10  1  0
  4 14  1  0
  4 17  1  0
  4 18  1  0
  5  7  1  0
  5  8  1  0
  6  7  1  0
  6  9  1  0
  6 11  1  0
  8 12  1  0
  9 10  1  0
 11 14  1  0
 13 15  1  0
 13 16  1  0
 15 19  2  0
 15 21  1  0
 16 20  2  0
 16 22  1  0
 17 23  1  0
 18 24  1  0
 19 25  1  0
 20 26  1  0
 21 27  2  0
 22 28  2  0
 25 29  2  0
 26 30  2  0
 27 29  1  0
 28 30  1  0
M  END
>  <PUBCHEM_COMPOUND_CID>  (1) 
19330

>  <PUBCHEM_CONFORMER_RMSD>  (1) 
1.2

>  <PUBCHEM_CONFORMER_DIVERSEORDER>  (1) 
1
44
9
37
41
17
53
54
82
67
43
47
19
42
50
12
61
78
64
80
27
59
91
39
15
45
46
26
31
73
49
74
13
62
63
22
40
57
30
79
66
34
10
20
33
28
90
16
11
7
69
38
56
88
29
52
86
8
35
55
36
5
24
23
70
48
75
83
4
3
84
60
14
72
51
58
71
89
81
32
18
21
2
25
65
77
6
76
68
85
87

>  <PUBCHEM_MMFF94_PARTIAL_CHARGES>  (1) 
35
1 -0.56
10 0.27
12 0.28
13 0.85
14 0.27
15 -0.14
16 -0.14
17 0.27
18 0.27
19 -0.15
2 -0.56
20 -0.15
21 -0.15
22 -0.15
25 -0.15
26 -0.15
27 -0.15
28 -0.15
29 -0.15
3 -0.9
30 -0.15
4 -0.81
40 0.36
5 0.27
51 0.15
52 0.15
53 0.15
54 0.15
61 0.15
62 0.15
63 0.15
64 0.15
65 0.15
66 0.15
8 0.28

>  <PUBCHEM_EFFECTIVE_ROTOR_COUNT>  (1) 
10.2

>  <PUBCHEM_PHARMACOPHORE_FEATURES>  (1) 
9
1 1 acceptor
1 2 acceptor
1 3 cation
1 3 donor
1 4 cation
5 1 2 8 12 13 rings
6 15 19 21 25 27 29 rings
6 16 20 22 26 28 30 rings
6 3 5 6 7 9 10 rings

>  <PUBCHEM_HEAVY_ATOM_COUNT>  (1) 
30

>  <PUBCHEM_ATOM_DEF_STEREO_COUNT>  (1) 
0

>  <PUBCHEM_ATOM_UDEF_STEREO_COUNT>  (1) 
3

>  <PUBCHEM_BOND_DEF_STEREO_COUNT>  (1) 
0

>  <PUBCHEM_BOND_UDEF_STEREO_COUNT>  (1) 
0

>  <PUBCHEM_ISOTOPIC_ATOM_COUNT>  (1) 
0

>  <PUBCHEM_COMPONENT_COUNT>  (1) 
1

>  <PUBCHEM_CACTVS_TAUTO_COUNT>  (1) 
1

>  <PUBCHEM_CONFORMER_ID>  (1) 
00004B8200000001

>  <PUBCHEM_MMFF94_ENERGY>  (1) 
63.2497

>  <PUBCHEM_FEATURE_SELFOVERLAP>  (1) 
45.715

>  <PUBCHEM_SHAPE_FINGERPRINT>  (1) 
10554248 39 17775298178915725511
11089746 13 18412261723206328103
11405975 8 18336264630076343787
11421498 54 11386359336374324934
11456790 92 18114743715972483251
11475781 23 14117249313049069715
11578080 2 18115874181814611332
12107183 9 18411411787311227591
12107698 1 18342172233291043957
12166972 35 17775566416518185506
12549972 3 17968387856675587002
13583140 156 18053390086949060402
13878862 14 18339624733431944005
13914758 101 17988079976806667379
14400156 266 18059029315380835932
15183329 4 18336265652626713223
15799311 1 12468636196435183091
17868525 174 18411134728040497136
1813 80 18130235887392283806
19302320 297 18268442243956402081
20832881 197 18333448721174567162
21033648 29 18042686285116873274
21223535 225 18198337352398949749
21304303 172 18129105511912955096
21315764 268 18408034114004017197
22122407 14 18341341062729987025
22149856 69 8430321264077823879
23191077 185 18340193181740010847
23559900 14 17968376848669248854
249057 25 17775290461043792667
249057 3 18342454837538438734
2838139 119 18412263909771689677
4066623 53 18272645732221829081
4144715 1 18189343527350283755
4325135 7 11383821684421351626
5104073 3 17968093183201247323
57724786 102 18336262448153725948
6086070 43 18411710901792138354
6371009 1 18129946672304257297
6371380 46 18186519890852950938
9658208 31 17531530987480936979

>  <PUBCHEM_SHAPE_MULTIPOLES>  (1) 
595.69
19.15
4.11
1.54
35.84
4.94
-0.16
1.22
1.02
-5.7
-1.19
-0.65
-0.14
-0.12

>  <PUBCHEM_SHAPE_SELFOVERLAP>  (1) 
1255.219

>  <PUBCHEM_SHAPE_VOLUME>  (1) 
334.4

>  <PUBCHEM_COORDINATE_TYPE>  (1) 
2
5
10

$$$$
