1933
     RDKit          3D

 22 25  0  0  0  0  0  0  0  0999 V2000
   -3.3391    0.1269   -0.2966 N   0  0  0  0  0  0  0  0  0  0  0  0
    0.7333   -0.2197    0.6486 N   0  0  0  0  0  0  0  0  0  0  0  0
   -0.3463    2.3890    0.3024 C   0  0  0  0  0  0  0  0  0  0  0  0
   -1.2067    1.1618    0.1782 C   0  0  0  0  0  0  0  0  0  0  0  0
   -1.1548    3.6766    0.4578 C   0  0  0  0  0  0  0  0  0  0  0  0
   -2.2974    3.7156   -0.5503 C   0  0  0  0  0  0  0  0  0  0  0  0
   -3.2572    2.5532   -0.3070 C   0  0  0  0  0  0  0  0  0  0  0  0
   -2.5584    1.2282   -0.1510 C   0  0  0  0  0  0  0  0  0  0  0  0
   -0.6455   -0.1063    0.3297 C   0  0  0  0  0  0  0  0  0  0  0  0
   -1.4291   -1.2566    0.1774 C   0  0  0  0  0  0  0  0  0  0  0  0
   -2.7901   -1.0914   -0.1392 C   0  0  0  0  0  0  0  0  0  0  0  0
    1.6641    0.8340    0.4155 C   0  0  0  0  0  0  0  0  0  0  0  0
   -0.8871   -2.5443    0.3314 C   0  0  0  0  0  0  0  0  0  0  0  0
   -3.5719   -2.2335   -0.2898 C   0  0  0  0  0  0  0  0  0  0  0  0
   -1.6903   -3.6701    0.1747 C   0  0  0  0  0  0  0  0  0  0  0  0
    3.0390    0.3081    0.0994 C   0  0  0  0  0  0  0  0  0  0  0  0
   -3.0351   -3.5139   -0.1359 C   0  0  0  0  0  0  0  0  0  0  0  0
    3.9393    0.0855    1.1318 C   0  0  0  0  0  0  0  0  0  0  0  0
    3.3864    0.0536   -1.2199 C   0  0  0  0  0  0  0  0  0  0  0  0
    5.2131   -0.4018    0.8389 C   0  0  0  0  0  0  0  0  0  0  0  0
    4.6602   -0.4337   -1.5127 C   0  0  0  0  0  0  0  0  0  0  0  0
    5.5736   -0.6613   -0.4833 C   0  0  0  0  0  0  0  0  0  0  0  0
  1  8  2  0
  1 11  1  0
  2  9  1  0
  2 12  1  0
  3  4  1  0
  3  5  1  0
  4  8  1  0
  4  9  2  0
  5  6  1  0
  6  7  1  0
  7  8  1  0
  9 10  1  0
 10 11  2  0
 10 13  1  0
 11 14  1  0
 12 16  1  0
 13 15  2  0
 14 17  2  0
 15 17  1  0
 16 18  2  0
 16 19  1  0
 18 20  1  0
 19 21  2  0
 20 22  2  0
 21 22  1  0
M  END
>  <PUBCHEM_COMPOUND_CID>  (1) 
1933

>  <PUBCHEM_CONFORMER_RMSD>  (1) 
0.6

>  <PUBCHEM_CONFORMER_DIVERSEORDER>  (1) 
1
2
4
3

>  <PUBCHEM_MMFF94_PARTIAL_CHARGES>  (1) 
29
1 -0.62
11 0.31
12 0.51
13 -0.15
14 -0.15
15 -0.15
16 -0.14
17 -0.15
18 -0.15
19 -0.15
2 -0.87
20 -0.15
21 -0.15
22 -0.15
3 0.14
31 0.4
34 0.15
35 0.15
36 0.15
37 0.15
38 0.15
39 0.15
4 -0.14
40 0.15
41 0.15
42 0.15
7 0.14
8 0.17
9 0.1

>  <PUBCHEM_EFFECTIVE_ROTOR_COUNT>  (1) 
3.8

>  <PUBCHEM_PHARMACOPHORE_FEATURES>  (1) 
7
1 1 acceptor
1 2 cation
1 2 donor
6 1 4 8 9 10 11 rings
6 10 11 13 14 15 17 rings
6 16 18 19 20 21 22 rings
6 3 4 5 6 7 8 rings

>  <PUBCHEM_HEAVY_ATOM_COUNT>  (1) 
22

>  <PUBCHEM_ATOM_DEF_STEREO_COUNT>  (1) 
0

>  <PUBCHEM_ATOM_UDEF_STEREO_COUNT>  (1) 
0

>  <PUBCHEM_BOND_DEF_STEREO_COUNT>  (1) 
0

>  <PUBCHEM_BOND_UDEF_STEREO_COUNT>  (1) 
0

>  <PUBCHEM_ISOTOPIC_ATOM_COUNT>  (1) 
0

>  <PUBCHEM_COMPONENT_COUNT>  (1) 
1

>  <PUBCHEM_CACTVS_TAUTO_COUNT>  (1) 
4

>  <PUBCHEM_CONFORMER_ID>  (1) 
0000078D00000001

>  <PUBCHEM_MMFF94_ENERGY>  (1) 
96.1432

>  <PUBCHEM_FEATURE_SELFOVERLAP>  (1) 
35.576

>  <PUBCHEM_SHAPE_FINGERPRINT>  (1) 
10319926 262 18197472122984145114
10411042 1 18121778589268454483
10616163 171 18410856564452325694
107951 10 18197783193752427413
1100329 8 18410574020208080633
11796584 16 18197221352782088254
12107183 9 17901375698660565274
12173636 292 18194114118965953005
12236239 1 17603867771788893864
12363563 72 18268436921921832766
12553582 1 18264771128505976571
12788726 201 18261967348280243162
13140716 1 18340769363712100857
138480 1 16393520664506374913
14251757 5 18409741668166695468
14508225 48 18196359528305729591
14790565 3 18052824637309134633
14866123 147 18412548708815951267
14955137 171 18118135890550852627
15042514 8 18409171034611961051
15230672 131 17975983064638341758
15463212 79 18114179692625513960
15927050 60 18054224333412745293
15961568 22 18120648300353681552
16752209 62 18335693932059624634
167882 2 17471004783874920293
17539 30 18340760520505982293
17818456 19 18047175368403734106
1813 80 18124608727686792899
18785283 64 17112138439365306713
19591789 44 18123755249376680945
21033650 10 18190204342297363302
21065201 7 18341890771599953930
22849339 104 18340222794853461606
23536364 44 18194656320691828447
23557571 272 18343015631987723392
23559900 14 18200594684298615278
23598288 3 18115609113180558465
2748010 2 17978490251490445505
3091708 16 9418421547358463785
3178227 256 18336277803859015657
335352 9 18339077194496134311
508706 21 18341905047739385254
559249 180 18189612744791109226
59755656 215 18411979127027005479
602551 16 18411135806309279848
7364860 26 17258214597801955801
9709674 26 18272373044953193470
9981440 41 18048034069494343841

>  <PUBCHEM_SHAPE_MULTIPOLES>  (1) 
442.79
9.39
4.52
0.97
15.52
0.54
-0.14
-2.64
-1.46
-7.52
-0.01
1.11
0.03
0.34

>  <PUBCHEM_SHAPE_SELFOVERLAP>  (1) 
980.236

>  <PUBCHEM_SHAPE_VOLUME>  (1) 
234.7

>  <PUBCHEM_COORDINATE_TYPE>  (1) 
2
5
10

$$$$
