19332
     RDKit          3D

 14 16  0  0  0  0  0  0  0  0999 V2000
    1.7492    0.8934    0.3892 N   0  0  0  0  0  0  0  0  0  0  0  0
    0.3680    0.4572    0.1962 C   0  0  0  0  0  0  0  0  0  0  0  0
   -1.4326    0.0026   -1.5243 C   0  0  0  0  0  0  0  0  0  0  0  0
   -1.2916   -1.4213    0.5509 C   0  0  0  0  0  0  0  0  0  0  0  0
   -2.0533    0.9764    0.7169 C   0  0  0  0  0  0  0  0  0  0  0  0
    0.0235    0.4504   -1.3097 C   0  0  0  0  0  0  0  0  0  0  0  0
    0.1639   -0.9677    0.7570 C   0  0  0  0  0  0  0  0  0  0  0  0
   -0.5950    1.4209    0.9229 C   0  0  0  0  0  0  0  0  0  0  0  0
   -1.6154   -1.4135   -0.9526 C   0  0  0  0  0  0  0  0  0  0  0  0
   -2.3730    0.9715   -0.7877 C   0  0  0  0  0  0  0  0  0  0  0  0
   -2.2327   -0.4449    1.2770 C   0  0  0  0  0  0  0  0  0  0  0  0
    2.6723    0.0064   -0.3021 C   0  0  0  0  0  0  0  0  0  0  0  0
    2.5099   -1.4223    0.2003 C   0  0  0  0  0  0  0  0  0  0  0  0
    4.1068    0.4910   -0.1338 C   0  0  0  0  0  0  0  0  0  0  0  0
  1  2  1  0
  1 12  1  0
  2  6  1  0
  2  7  1  0
  2  8  1  0
  3  6  1  0
  3  9  1  0
  3 10  1  0
  4  7  1  0
  4  9  1  0
  4 11  1  0
  5  8  1  0
  5 10  1  0
  5 11  1  0
 12 13  1  0
 12 14  1  0
M  END
>  <PUBCHEM_COMPOUND_CID>  (1) 
19332

>  <PUBCHEM_CONFORMER_RMSD>  (1) 
0.6

>  <PUBCHEM_CONFORMER_DIVERSEORDER>  (1) 
1

>  <PUBCHEM_MMFF94_PARTIAL_CHARGES>  (1) 
4
1 -0.9
12 0.27
2 0.27
30 0.36

>  <PUBCHEM_EFFECTIVE_ROTOR_COUNT>  (1) 
3.2

>  <PUBCHEM_PHARMACOPHORE_FEATURES>  (1) 
7
1 1 cation
1 1 donor
3 12 13 14 hydrophobe
6 2 3 4 6 7 9 rings
6 2 3 5 6 8 10 rings
6 2 4 5 7 8 11 rings
6 3 4 5 9 10 11 rings

>  <PUBCHEM_HEAVY_ATOM_COUNT>  (1) 
14

>  <PUBCHEM_ATOM_DEF_STEREO_COUNT>  (1) 
0

>  <PUBCHEM_ATOM_UDEF_STEREO_COUNT>  (1) 
0

>  <PUBCHEM_BOND_DEF_STEREO_COUNT>  (1) 
0

>  <PUBCHEM_BOND_UDEF_STEREO_COUNT>  (1) 
0

>  <PUBCHEM_ISOTOPIC_ATOM_COUNT>  (1) 
0

>  <PUBCHEM_COMPONENT_COUNT>  (1) 
1

>  <PUBCHEM_CACTVS_TAUTO_COUNT>  (1) 
1

>  <PUBCHEM_CONFORMER_ID>  (1) 
00004B8400000001

>  <PUBCHEM_MMFF94_ENERGY>  (1) 
60.8363

>  <PUBCHEM_FEATURE_SELFOVERLAP>  (1) 
48.053

>  <PUBCHEM_SHAPE_FINGERPRINT>  (1) 
10702982 57 18128530466782852317
10948715 1 18118682111168688829
12138202 97 18202281368677808293
12423570 1 11651298358050179257
12491281 212 17774726350695009113
12932764 1 17561082505971454546
13024252 1 12179840611019022017
13214271 11 17385728010469836204
14817 1 8855348118096393207
14993402 34 17561358457335704037
15076042 46 18057616356126570808
15775835 57 18040713632650282050
16945 1 17846495889929554329
17844478 74 17676780824121534587
200 152 18270672172999433110
20525323 117 13984662546738587822
21524375 3 17411628990916062153
22802520 49 17096642094081364386
23402539 116 17489868220288485313
23559900 14 18412822474711130080
2748010 2 18041283171009987786
369184 2 18272089396142535232
5084963 1 17895202116167403811
528886 8 17603858992501070989

>  <PUBCHEM_SHAPE_MULTIPOLES>  (1) 
283.13
4.56
1.51
1.32
5.09
0.29
0.24
-0.35
0.06
-0.29
-0.16
-0.8
-0.03
-0.05

>  <PUBCHEM_SHAPE_SELFOVERLAP>  (1) 
603.72

>  <PUBCHEM_SHAPE_VOLUME>  (1) 
152.6

>  <PUBCHEM_COORDINATE_TYPE>  (1) 
2
5
10

$$$$
