19338
     RDKit          3D

 16 18  0  0  1  0  0  0  0  0999 V2000
   -3.3018    0.3239    0.2490 N   0  0  0  0  0  0  0  0  0  0  0  0
    1.7254   -1.8863   -0.6427 N   0  0  0  0  0  0  0  0  0  0  0  0
   -0.9790    0.2915    0.5720 C   0  0  0  0  0  0  0  0  0  0  0  0
   -1.6731   -0.3913    1.7626 C   0  0  0  0  0  0  0  0  0  0  0  0
   -2.0557    0.3616   -0.5191 C   0  0  0  0  0  0  0  0  0  0  0  0
   -3.0834   -0.6964    1.2741 C   0  0  0  0  0  0  0  0  0  0  0  0
    0.2962   -0.3722    0.1235 C   0  0  0  0  0  0  0  0  0  0  0  0
   -4.4594    0.0341   -0.5843 C   0  0  0  0  0  0  0  0  0  0  0  0
    1.5923    0.2132    0.0997 C   0  0  0  0  0  0  0  0  0  0  0  0
    0.4095   -1.6626   -0.3382 C   0  0  0  0  0  0  0  0  0  0  0  0
    2.4709   -0.7579   -0.3851 C   0  0  0  0  0  0  0  0  0  0  0  0
   -4.6893    1.1225   -1.6124 C   0  0  0  0  0  0  0  0  0  0  0  0
    2.1047    1.4797    0.4449 C   0  0  0  0  0  0  0  0  0  0  0  0
    3.8417   -0.5251   -0.5426 C   0  0  0  0  0  0  0  0  0  0  0  0
    3.4738    1.7269    0.2926 C   0  0  0  0  0  0  0  0  0  0  0  0
    4.3272    0.7384   -0.1938 C   0  0  0  0  0  0  0  0  0  0  0  0
  1  5  1  0
  1  6  1  0
  1  8  1  0
  2 10  1  0
  2 11  1  0
  3  4  1  0
  3  5  1  0
  3  7  1  0
  4  6  1  0
  7  9  1  0
  7 10  2  0
  8 12  1  0
  9 11  2  0
  9 13  1  0
 11 14  1  0
 13 15  2  0
 14 16  2  0
 15 16  1  0
M  END
>  <PUBCHEM_COMPOUND_CID>  (1) 
19338

>  <PUBCHEM_CONFORMER_RMSD>  (1) 
0.6

>  <PUBCHEM_CONFORMER_DIVERSEORDER>  (1) 
1
3
12
16
24
28
5
4
18
8
7
19
27
11
22
30
15
2
26
20
13
6
23
29
21
25
14
9
31
10
17

>  <PUBCHEM_MMFF94_PARTIAL_CHARGES>  (1) 
19
1 -0.81
10 -0.3
11 -0.15
13 -0.15
14 -0.15
15 -0.15
16 -0.15
2 0.03
26 0.15
27 0.27
3 0.18
31 0.15
32 0.15
33 0.15
34 0.15
5 0.27
6 0.27
7 -0.18
8 0.27

>  <PUBCHEM_EFFECTIVE_ROTOR_COUNT>  (1) 
3

>  <PUBCHEM_PHARMACOPHORE_FEATURES>  (1) 
6
1 1 cation
1 2 cation
1 2 donor
5 1 3 4 5 6 rings
5 2 7 9 10 11 rings
6 9 11 13 14 15 16 rings

>  <PUBCHEM_HEAVY_ATOM_COUNT>  (1) 
16

>  <PUBCHEM_ATOM_DEF_STEREO_COUNT>  (1) 
0

>  <PUBCHEM_ATOM_UDEF_STEREO_COUNT>  (1) 
1

>  <PUBCHEM_BOND_DEF_STEREO_COUNT>  (1) 
0

>  <PUBCHEM_BOND_UDEF_STEREO_COUNT>  (1) 
0

>  <PUBCHEM_ISOTOPIC_ATOM_COUNT>  (1) 
0

>  <PUBCHEM_COMPONENT_COUNT>  (1) 
1

>  <PUBCHEM_CACTVS_TAUTO_COUNT>  (1) 
1

>  <PUBCHEM_CONFORMER_ID>  (1) 
00004B8A00000001

>  <PUBCHEM_MMFF94_ENERGY>  (1) 
24.4882

>  <PUBCHEM_FEATURE_SELFOVERLAP>  (1) 
30.538

>  <PUBCHEM_SHAPE_FINGERPRINT>  (1) 
10608611 8 18335423456367701121
10646746 165 17603302639659672877
11046707 91 14692564425712517573
11471102 20 18343303665247333612
11543360 7 18272639161226827101
11615757 297 17917999377298917553
12119455 92 18335696161152867230
12236239 1 17060626585701510585
12251169 10 11314313836673586425
12403259 415 18334866055485574608
124424 183 18113902641507160298
12500047 106 17530685424273422083
12670546 56 13984660390723190103
12730499 353 18334297531382008323
13583140 156 18040715913146236442
13675066 3 11241965988566518375
13760787 5 17917720092755534290
13862211 1 18201163127558043142
14251717 144 18202002118610175166
14897335 6 18131070484872447450
15219456 202 18334583450995658283
15375358 24 18186238424697730901
16752209 62 15697710416542520645
16945 1 18272665523651895018
18175812 5 18187369856295616974
18186145 218 18059307534048973968
18915474 69 16702294672362045493
19422 9 16702313316598877071
19862831 5 17275100639445970493
200 152 17775284950162979657
20279233 1 18187372029717977835
204376 136 18270687596585455120
20645477 56 17894634738788508913
20645477 70 18342740671880444686
21065201 7 17312827082238957419
212916 134 16878214325256481033
21639500 275 18202564011917408168
22096605 113 18342737424879413235
22892500 29 18408317779028439588
231179 274 18334293180179048324
23402539 116 17530958099094043735
23402655 69 18273494559170912645
23557571 272 17822020821757546179
23559900 14 17530686468398893530
2748010 2 18056212503564722770
29717793 49 16917069927852364141
3060560 45 18272931613971290918
351380 180 18260259750687233096
4028521 119 18113893828392823293
4072396 5 18337656543683857986
42 15 8718829807917527045
474 4 17058635477782003256
495365 180 18187631475622921675
57096353 35 17346600785272878345
603831 33 17346877823817228715
633830 44 17702410444607835248
77492 1 16988572272718007491
81539 233 18335141998998160030
8272917 22 17987809488382199583
83771 10 10015867586894620321

>  <PUBCHEM_SHAPE_MULTIPOLES>  (1) 
319.31
8.91
1.53
1.22
3.8
0.06
0.19
-3.05
-2.37
-0.88
-0.19
1.23
0.03
1.36

>  <PUBCHEM_SHAPE_SELFOVERLAP>  (1) 
689.482

>  <PUBCHEM_SHAPE_VOLUME>  (1) 
180.4

>  <PUBCHEM_COORDINATE_TYPE>  (1) 
2
5
10

$$$$
