1934
     RDKit          3D

 22 22  0  0  1  0  0  0  0  0999 V2000
   -7.1437    0.5362    1.1951 O   0  0  0  0  0  0  0  0  0  0  0  0
    5.3564    2.4401    0.9245 O   0  0  0  0  0  0  0  0  0  0  0  0
    5.8083    1.6135   -1.1441 O   0  0  0  0  0  0  0  0  0  0  0  0
    5.4469   -1.0248    0.3227 C   0  0  0  0  0  0  0  0  0  0  0  0
    6.2196    0.2200    0.7882 C   0  0  0  0  0  0  0  0  0  0  0  0
   -3.3465   -0.0297   -0.3450 C   0  0  0  0  0  0  0  0  0  0  0  0
    6.0683   -2.2938    0.9209 C   0  0  0  0  0  0  0  0  0  0  0  0
    3.9727   -0.8283    0.6163 C   0  0  0  0  0  0  0  0  0  0  0  0
   -4.1269   -1.1328   -0.0294 C   0  0  0  0  0  0  0  0  0  0  0  0
   -3.8201    1.2604   -0.1520 C   0  0  0  0  0  0  0  0  0  0  0  0
   -1.9932   -0.2313   -0.8938 C   0  0  0  0  0  0  0  0  0  0  0  0
   -5.4075   -0.9420    0.4898 C   0  0  0  0  0  0  0  0  0  0  0  0
   -5.1006    1.4513    0.3674 C   0  0  0  0  0  0  0  0  0  0  0  0
    2.9656   -0.7697   -0.2710 C   0  0  0  0  0  0  0  0  0  0  0  0
    0.4854   -0.5056   -0.6584 C   0  0  0  0  0  0  0  0  0  0  0  0
   -5.8943    0.3501    0.6884 C   0  0  0  0  0  0  0  0  0  0  0  0
   -0.8746   -0.3126   -0.1519 C   0  0  0  0  0  0  0  0  0  0  0  0
   -3.6418   -2.5334   -0.2273 C   0  0  0  0  0  0  0  0  0  0  0  0
   -3.0004    2.4666   -0.4831 C   0  0  0  0  0  0  0  0  0  0  0  0
    1.5827   -0.5814    0.1259 C   0  0  0  0  0  0  0  0  0  0  0  0
    5.7822    1.4749    0.0718 C   0  0  0  0  0  0  0  0  0  0  0  0
    0.6614   -0.6275   -2.1549 C   0  0  0  0  0  0  0  0  0  0  0  0
  1 16  1  0
  2 21  1  0
  3 21  2  0
  4  5  1  0
  4  7  1  0
  4  8  1  0
  5 21  1  0
  6  9  2  0
  6 10  1  0
  6 11  1  0
  8 14  2  0
  9 12  1  0
  9 18  1  0
 10 13  2  0
 10 19  1  0
 11 17  2  0
 12 16  2  0
 13 16  1  0
 14 20  1  0
 15 17  1  0
 15 20  2  0
 15 22  1  0
M  END
>  <PUBCHEM_COMPOUND_CID>  (1) 
1934

>  <PUBCHEM_CONFORMER_RMSD>  (1) 
0.8

>  <PUBCHEM_CONFORMER_DIVERSEORDER>  (1) 
1
38
16
39
5
15
18
14
19
37
13
8
24
21
3
10
4
33
28
20
11
32
17
23
2
12
27
9
26
7
34
22
31
36
25
29
30
6
35

>  <PUBCHEM_MMFF94_PARTIAL_CHARGES>  (1) 
30
1 -0.53
10 -0.14
11 -0.18
12 -0.15
13 -0.15
14 -0.15
15 -0.14
16 0.08
17 -0.15
18 0.14
19 0.14
2 -0.65
20 -0.15
21 0.66
22 0.14
29 0.15
3 -0.57
30 0.15
31 0.15
32 0.15
33 0.15
34 0.15
4 0.14
41 0.15
45 0.45
46 0.5
5 0.06
6 0.03
8 -0.29
9 -0.14

>  <PUBCHEM_EFFECTIVE_ROTOR_COUNT>  (1) 
6

>  <PUBCHEM_PHARMACOPHORE_FEATURES>  (1) 
7
1 1 donor
1 2 acceptor
1 22 hydrophobe
1 3 acceptor
1 7 hydrophobe
3 2 3 21 anion
6 6 9 10 12 13 16 rings

>  <PUBCHEM_HEAVY_ATOM_COUNT>  (1) 
22

>  <PUBCHEM_ATOM_DEF_STEREO_COUNT>  (1) 
0

>  <PUBCHEM_ATOM_UDEF_STEREO_COUNT>  (1) 
1

>  <PUBCHEM_BOND_DEF_STEREO_COUNT>  (1) 
0

>  <PUBCHEM_BOND_UDEF_STEREO_COUNT>  (1) 
3

>  <PUBCHEM_ISOTOPIC_ATOM_COUNT>  (1) 
0

>  <PUBCHEM_COMPONENT_COUNT>  (1) 
1

>  <PUBCHEM_CACTVS_TAUTO_COUNT>  (1) 
10

>  <PUBCHEM_CONFORMER_ID>  (1) 
0000078E00000001

>  <PUBCHEM_MMFF94_ENERGY>  (1) 
53.6435

>  <PUBCHEM_FEATURE_SELFOVERLAP>  (1) 
35.578

>  <PUBCHEM_SHAPE_FINGERPRINT>  (1) 
10 15 18410860958171720971
11315181 36 18113900459869567023
12107183 9 17614272274091638602
12236239 1 17748831795647160551
125118 31 18336266747532416741
12516196 113 16008750203723880054
12596602 18 18113616772383390560
12616971 3 18201707445626478998
13167372 99 18343019952645597912
13403585 85 18409728448310235609
13533116 47 18260265218914019146
13668630 136 14851892425909458619
13785724 45 17838617761228642726
14251764 18 18343021116803176995
14341114 176 18335421257412906900
14849402 71 18115313405384479484
14933364 13 18412265034604682896
15183329 4 10087645905306160276
15348495 7 18411134753668097090
15716309 27 18113900442209857859
16110190 28 18411702093067363245
17844677 252 18409450250483132142
17980427 23 18411982502986864623
1813 80 16516539788994369734
18222031 100 14996285799681746998
19377110 9 17894916247481412444
20281389 69 18341611499187196025
21150785 3 11458434526719086802
21641784 216 16558765494119769704
220451 1 18260268555771415502
22061861 79 10375875182099322744
23081809 10 18201710773809505822
23559900 14 18336256955481248385
29717793 49 10159700192356446306
312425 54 18113335301928695482
34797466 226 18060146444299205108
3663271 9 18408603677700425306
394071 54 16298676087763515724
4073 2 18113903818581862074
5104073 3 18335696148621569234
5364581 5 18266738163408493545
59755656 215 10735884958192817264

>  <PUBCHEM_SHAPE_MULTIPOLES>  (1) 
435.14
19.87
2.29
1.16
10.6
0.46
-0.4
2.99
7.25
1.02
0.15
0.28
-0.03
-0.65

>  <PUBCHEM_SHAPE_SELFOVERLAP>  (1) 
887.673

>  <PUBCHEM_SHAPE_VOLUME>  (1) 
254.2

>  <PUBCHEM_COORDINATE_TYPE>  (1) 
2
5
10

$$$$
