19341
     RDKit          3D

 17 18  0  0  0  0  0  0  0  0999 V2000
   -3.9696    2.5324   -0.0008 Cl  0  0  0  0  0  0  0  0  0  0  0  0
    3.6806   -1.2050   -0.0005 F   0  0  0  0  0  0  0  0  0  0  0  0
    3.8306    0.6676   -1.0844 F   0  0  0  0  0  0  0  0  0  0  0  0
    3.8100    0.6719    1.0900 F   0  0  0  0  0  0  0  0  0  0  0  0
   -2.9429   -2.6368   -0.0002 O   0  0  0  0  0  0  0  0  0  0  0  0
   -0.7597   -2.8660    0.0002 O   0  0  0  0  0  0  0  0  0  0  0  0
    1.1351    1.4279   -0.0007 N   0  0  0  0  0  0  0  0  0  0  0  0
    0.8806   -0.7800    0.0003 N   0  0  0  0  0  0  0  0  0  0  0  0
   -1.7874   -2.1430    0.0002 N   0  0  0  0  0  0  0  0  0  0  0  0
   -0.2196    1.2156   -0.0007 C   0  0  0  0  0  0  0  0  0  0  0  0
   -0.3528   -0.1701   -0.0001 C   0  0  0  0  0  0  0  0  0  0  0  0
    1.7490    0.2064   -0.0004 C   0  0  0  0  0  0  0  0  0  0  0  0
   -1.6396   -0.7345    0.0003 C   0  0  0  0  0  0  0  0  0  0  0  0
   -1.3069    2.0901   -0.0011 C   0  0  0  0  0  0  0  0  0  0  0  0
   -2.7460    0.1242   -0.0001 C   0  0  0  0  0  0  0  0  0  0  0  0
   -2.5802    1.5113   -0.0010 C   0  0  0  0  0  0  0  0  0  0  0  0
    3.2188    0.0879   -0.0010 C   0  0  0  0  0  0  0  0  0  0  0  0
  1 16  1  0
  2 17  1  0
  3 17  1  0
  4 17  1  0
  5  9  1  0
  6  9  2  0
  7 10  1  0
  7 12  1  0
  8 11  1  0
  8 12  2  0
  9 13  1  0
 10 11  2  0
 10 14  1  0
 11 13  1  0
 12 17  1  0
 13 15  2  0
 14 16  2  0
 15 16  1  0
M  CHG  2   5  -1   9   1
M  END
>  <PUBCHEM_COMPOUND_CID>  (1) 
19341

>  <PUBCHEM_CONFORMER_RMSD>  (1) 
0.6

>  <PUBCHEM_CONFORMER_DIVERSEORDER>  (1) 
1

>  <PUBCHEM_MMFF94_PARTIAL_CHARGES>  (1) 
20
1 -0.18
10 -0.15
11 0.23
12 0.01
13 0.13
14 -0.15
15 -0.15
16 0.18
17 1.2
18 0.27
19 0.15
2 -0.34
20 0.15
3 -0.34
4 -0.34
5 -0.52
6 -0.52
7 0.03
8 -0.57
9 0.91

>  <PUBCHEM_EFFECTIVE_ROTOR_COUNT>  (1) 
2

>  <PUBCHEM_PHARMACOPHORE_FEATURES>  (1) 
7
1 5 acceptor
1 5 anion
1 6 acceptor
1 7 donor
3 7 8 12 cation
5 7 8 10 11 12 rings
6 10 11 13 14 15 16 rings

>  <PUBCHEM_HEAVY_ATOM_COUNT>  (1) 
17

>  <PUBCHEM_ATOM_DEF_STEREO_COUNT>  (1) 
0

>  <PUBCHEM_ATOM_UDEF_STEREO_COUNT>  (1) 
0

>  <PUBCHEM_BOND_DEF_STEREO_COUNT>  (1) 
0

>  <PUBCHEM_BOND_UDEF_STEREO_COUNT>  (1) 
0

>  <PUBCHEM_ISOTOPIC_ATOM_COUNT>  (1) 
0

>  <PUBCHEM_COMPONENT_COUNT>  (1) 
1

>  <PUBCHEM_CACTVS_TAUTO_COUNT>  (1) 
2

>  <PUBCHEM_CONFORMER_ID>  (1) 
00004B8D00000001

>  <PUBCHEM_MMFF94_ENERGY>  (1) 
29.9691

>  <PUBCHEM_FEATURE_SELFOVERLAP>  (1) 
35.709

>  <PUBCHEM_SHAPE_FINGERPRINT>  (1) 
10319926 262 18198036211019705176
10608611 8 18343015618812800928
10616163 171 18411141350806597742
10967382 1 18194401078525820261
11132069 177 18409443661676609856
11322862 65 18410577240932081127
12173636 292 18338511920237847389
12500047 106 18412540994616740008
12553582 1 17978515556747332766
13140716 1 18339361997413207385
13380535 76 18270116795194498463
13544592 145 18128544764860914838
14178342 30 18336530703679684722
15042514 8 18408045100324196587
15309172 13 18266750082148403169
15669948 3 18408323310909360830
16752209 62 18410282640714739499
16945 1 18410855473071352293
193761 8 18122344842114834913
19591789 44 18122347878561384395
20510252 161 18271526489217941073
20645476 183 18114764666791193852
20645477 56 18410291389368163544
20711985 365 18337672043793489501
20871998 184 18201441427741200903
20871999 31 18410018770713737708
21501502 16 18263647427675058804
21524375 3 18127406748756566261
2334 1 17978226389467714505
23402539 116 18270950246457192317
23463225 33 18190177884792352642
23557571 272 18271817877491159412
23559900 14 18271525308935468492
257057 1 17837201950437690287
2748010 2 18121512254092939205
3071541 12 17403176998252618933
3071541 37 18048318838868959253
3091708 16 9056728405898853745
366044 4 18337671889359607977
43471831 8 18263924333027956827
5104073 3 18410854343758601080
54173680 148 18337954592591359771
69090 78 18338793412462621829
7364860 26 17692530018393458743
77492 1 17676204693267013408
81228 2 18263074590848950833
81539 233 17973443205208666301
84936 182 17624686861147139345
8809292 202 18412829075152834186
9709674 26 18272652316342798990

>  <PUBCHEM_SHAPE_MULTIPOLES>  (1) 
303.22
6.49
2.8
0.67
3.88
1.95
0
-2.54
0.01
-2.91
0
0.33
-0.14
0

>  <PUBCHEM_SHAPE_SELFOVERLAP>  (1) 
658.506

>  <PUBCHEM_SHAPE_VOLUME>  (1) 
169.5

>  <PUBCHEM_COORDINATE_TYPE>  (1) 
2
5
10

$$$$
