19349
     RDKit          3D

 12 12  0  0  1  0  0  0  0  0999 V2000
   -2.3179    2.3611    0.0555 Cl  0  0  0  0  0  0  0  0  0  0  0  0
   -3.9560   -0.4124   -0.2481 Cl  0  0  0  0  0  0  0  0  0  0  0  0
    2.4072    0.0857    1.5212 O   0  0  0  0  0  0  0  0  0  0  0  0
    4.1751    0.3581   -0.7376 N   0  0  0  0  0  0  0  0  0  0  0  0
    2.0330   -0.4338    0.2382 C   0  0  0  0  0  0  0  0  0  0  0  0
    0.5466   -0.4119    0.1184 C   0  0  0  0  0  0  0  0  0  0  0  0
    2.7201    0.3925   -0.8670 C   0  0  0  0  0  0  0  0  0  0  0  0
   -0.1373    0.8037    0.1382 C   0  0  0  0  0  0  0  0  0  0  0  0
   -0.1598   -1.6075   -0.0135 C   0  0  0  0  0  0  0  0  0  0  0  0
   -1.5274    0.8237    0.0260 C   0  0  0  0  0  0  0  0  0  0  0  0
   -1.5500   -1.5875   -0.1255 C   0  0  0  0  0  0  0  0  0  0  0  0
   -2.2338   -0.3718   -0.1059 C   0  0  0  0  0  0  0  0  0  0  0  0
  1 10  1  0
  2 12  1  0
  3  5  1  0
  4  7  1  0
  5  6  1  0
  5  7  1  0
  6  8  2  0
  6  9  1  0
  8 10  1  0
  9 11  2  0
 10 12  2  0
 11 12  1  0
M  END
>  <PUBCHEM_COMPOUND_CID>  (1) 
19349

>  <PUBCHEM_CONFORMER_RMSD>  (1) 
0.6

>  <PUBCHEM_CONFORMER_DIVERSEORDER>  (1) 
1
9
4
6
8
3
7
2
5

>  <PUBCHEM_MMFF94_PARTIAL_CHARGES>  (1) 
18
1 -0.18
10 0.18
11 -0.15
12 0.18
16 0.15
17 0.15
18 0.15
19 0.4
2 -0.18
20 0.36
21 0.36
3 -0.68
4 -0.99
5 0.42
6 -0.14
7 0.27
8 -0.15
9 -0.15

>  <PUBCHEM_EFFECTIVE_ROTOR_COUNT>  (1) 
2

>  <PUBCHEM_PHARMACOPHORE_FEATURES>  (1) 
5
1 3 acceptor
1 3 donor
1 4 cation
1 4 donor
6 6 8 9 10 11 12 rings

>  <PUBCHEM_HEAVY_ATOM_COUNT>  (1) 
12

>  <PUBCHEM_ATOM_DEF_STEREO_COUNT>  (1) 
0

>  <PUBCHEM_ATOM_UDEF_STEREO_COUNT>  (1) 
1

>  <PUBCHEM_BOND_DEF_STEREO_COUNT>  (1) 
0

>  <PUBCHEM_BOND_UDEF_STEREO_COUNT>  (1) 
0

>  <PUBCHEM_ISOTOPIC_ATOM_COUNT>  (1) 
0

>  <PUBCHEM_COMPONENT_COUNT>  (1) 
1

>  <PUBCHEM_CACTVS_TAUTO_COUNT>  (1) 
1

>  <PUBCHEM_CONFORMER_ID>  (1) 
00004B9500000001

>  <PUBCHEM_MMFF94_ENERGY>  (1) 
23.1989

>  <PUBCHEM_FEATURE_SELFOVERLAP>  (1) 
25.374

>  <PUBCHEM_SHAPE_FINGERPRINT>  (1) 
11206711 2 18341040853121865829
12032990 46 18268995456891479903
12119455 92 13984933073674992402
12932764 1 17703781509690194574
13024252 1 17894916264861825903
13380535 21 18055642720160006569
13538477 17 18113893918138736978
14325111 11 18338237055051650988
14911166 2 18412541050614800015
14993402 34 18259985993692660335
15310529 11 16733252513074178639
15775835 57 18114468868272987820
16945 1 18412255160232380179
18186145 218 17489864921278601745
193761 8 17979634529356814255
20510252 161 18343586226529296425
20645464 45 17702929431365679314
20645476 183 17822291339745703207
21040471 1 18268143171648586611
21501502 16 18195244417161782619
23048698 100 17167856457015748642
23402539 116 18413102883428286199
23402655 69 18125702523720725605
23552423 10 18190740821529010907
23559900 14 18271527589605222812
23598291 2 17750511767888911072
2748010 2 18124314909306110231
5084963 1 18131355206327384859
53812653 8 18408042901042354511
57177213 63 18335140834734936227
77492 1 17822005411214395634
8030462 33 18409158909470884794

>  <PUBCHEM_SHAPE_MULTIPOLES>  (1) 
239.84
5.88
1.76
0.87
2.36
0.53
0.14
0.81
-1.04
-1.48
-0.01
0.62
0.06
-0.26

>  <PUBCHEM_SHAPE_SELFOVERLAP>  (1) 
474.659

>  <PUBCHEM_SHAPE_VOLUME>  (1) 
145.3

>  <PUBCHEM_COORDINATE_TYPE>  (1) 
2
5
10

$$$$
