19345
     RDKit          3D

 14 15  0  0  0  0  0  0  0  0999 V2000
    3.5332   -1.0553    0.0003 F   0  0  0  0  0  0  0  0  0  0  0  0
    3.3079    0.8143   -1.0863 F   0  0  0  0  0  0  0  0  0  0  0  0
    3.2816    0.8143    1.0938 F   0  0  0  0  0  0  0  0  0  0  0  0
    0.5371    1.0223   -0.0017 N   0  0  0  0  0  0  0  0  0  0  0  0
    0.7286   -1.1920   -0.0001 N   0  0  0  0  0  0  0  0  0  0  0  0
   -4.4042    0.9540   -0.0002 N   0  0  0  0  0  0  0  0  0  0  0  0
   -0.7480    0.5438   -0.0013 C   0  0  0  0  0  0  0  0  0  0  0  0
   -0.6018   -0.8405   -0.0002 C   0  0  0  0  0  0  0  0  0  0  0  0
    1.3826   -0.0521   -0.0010 C   0  0  0  0  0  0  0  0  0  0  0  0
   -1.9879    1.1836   -0.0017 C   0  0  0  0  0  0  0  0  0  0  0  0
   -1.7499   -1.6503    0.0005 C   0  0  0  0  0  0  0  0  0  0  0  0
   -3.1201    0.3622   -0.0012 C   0  0  0  0  0  0  0  0  0  0  0  0
   -3.0055   -1.0298    0.0001 C   0  0  0  0  0  0  0  0  0  0  0  0
    2.8465    0.1254   -0.0009 C   0  0  0  0  0  0  0  0  0  0  0  0
  1 14  1  0
  2 14  1  0
  3 14  1  0
  4  7  1  0
  4  9  1  0
  5  8  1  0
  5  9  2  0
  6 12  1  0
  7  8  2  0
  7 10  1  0
  8 11  1  0
  9 14  1  0
 10 12  2  0
 11 13  2  0
 12 13  1  0
M  END
>  <PUBCHEM_COMPOUND_CID>  (1) 
19345

>  <PUBCHEM_CONFORMER_RMSD>  (1) 
0.4

>  <PUBCHEM_CONFORMER_DIVERSEORDER>  (1) 
1

>  <PUBCHEM_MMFF94_PARTIAL_CHARGES>  (1) 
20
1 -0.34
10 -0.15
11 -0.15
12 0.1
13 -0.15
14 1.2
15 0.27
16 0.15
17 0.15
18 0.15
19 0.4
2 -0.34
20 0.4
3 -0.34
4 0.03
5 -0.57
6 -0.9
7 -0.15
8 0.23
9 0.01

>  <PUBCHEM_EFFECTIVE_ROTOR_COUNT>  (1) 
1

>  <PUBCHEM_PHARMACOPHORE_FEATURES>  (1) 
6
1 4 donor
1 6 cation
1 6 donor
3 4 5 9 cation
5 4 5 7 8 9 rings
6 7 8 10 11 12 13 rings

>  <PUBCHEM_HEAVY_ATOM_COUNT>  (1) 
14

>  <PUBCHEM_ATOM_DEF_STEREO_COUNT>  (1) 
0

>  <PUBCHEM_ATOM_UDEF_STEREO_COUNT>  (1) 
0

>  <PUBCHEM_BOND_DEF_STEREO_COUNT>  (1) 
0

>  <PUBCHEM_BOND_UDEF_STEREO_COUNT>  (1) 
0

>  <PUBCHEM_ISOTOPIC_ATOM_COUNT>  (1) 
0

>  <PUBCHEM_COMPONENT_COUNT>  (1) 
1

>  <PUBCHEM_CACTVS_TAUTO_COUNT>  (1) 
2

>  <PUBCHEM_CONFORMER_ID>  (1) 
00004B9100000001

>  <PUBCHEM_MMFF94_ENERGY>  (1) 
27.7592

>  <PUBCHEM_FEATURE_SELFOVERLAP>  (1) 
30.553

>  <PUBCHEM_SHAPE_FINGERPRINT>  (1) 
10608611 8 18342734139203415400
11132069 177 18409724071353478169
12032990 46 18411425020120927035
12932764 1 17917713556031814894
13380535 76 18411981330413786831
14144814 61 18409728473599926675
14325111 11 18410856568240280160
14897335 6 18411413986692744055
15669948 3 18339359781004432046
15775835 57 18334579023142734833
16945 1 18410574024075260103
17846911 113 18341325626485669169
18175812 5 18202562890804167956
18186145 218 17775292676603449416
19026448 4 16774079600306201855
19026448 5 16732700579706479867
19422 9 18113620118163011162
20279233 1 17703791431354681798
20528008 55 18343015588700154201
20645476 183 17969238878480637646
20645477 70 17060343981127328662
20871998 184 18129666429988500087
23402539 116 18201709627274614965
23402655 69 18269823230755586749
23463225 33 18334854979018190658
23559900 14 18343864420767852716
2748010 2 18051969509414647141
3248919 1 17894908585397029650
474 4 16590006068408221644
5104073 3 18410855473081811843
528886 8 18411414003851390915
53812653 166 18343014497678273473
6333449 129 18342453764144273895
69090 78 18201712951484362943
7364860 26 18198058071596684290

>  <PUBCHEM_SHAPE_MULTIPOLES>  (1) 
251.35
6.59
1.43
0.7
1.1
0.28
0
-1.12
0.01
-0.56
0
0.37
-0.09
0

>  <PUBCHEM_SHAPE_SELFOVERLAP>  (1) 
553.877

>  <PUBCHEM_SHAPE_VOLUME>  (1) 
138.4

>  <PUBCHEM_COORDINATE_TYPE>  (1) 
2
5
10

$$$$
