19346
     RDKit          3D

 17 18  0  0  0  0  0  0  0  0999 V2000
    4.5507   -0.8039    0.0004 F   0  0  0  0  0  0  0  0  0  0  0  0
    4.1341    1.0273   -1.0845 F   0  0  0  0  0  0  0  0  0  0  0  0
    4.1117    1.0260    1.0901 F   0  0  0  0  0  0  0  0  0  0  0  0
    1.3335    0.9462   -0.0010 N   0  0  0  0  0  0  0  0  0  0  0  0
    1.7522   -1.2366   -0.0005 N   0  0  0  0  0  0  0  0  0  0  0  0
   -3.6498    0.3952   -0.0005 C   0  0  0  0  0  0  0  0  0  0  0  0
   -2.2361   -0.0873    0.0002 C   0  0  0  0  0  0  0  0  0  0  0  0
   -4.4182   -0.1105    1.2587 C   0  0  0  0  0  0  0  0  0  0  0  0
   -4.4182   -0.1133   -1.2586 C   0  0  0  0  0  0  0  0  0  0  0  0
   -3.8265    1.9489   -0.0023 C   0  0  0  0  0  0  0  0  0  0  0  0
   -1.1946    0.8465   -0.0002 C   0  0  0  0  0  0  0  0  0  0  0  0
    0.1047    0.3378   -0.0005 C   0  0  0  0  0  0  0  0  0  0  0  0
   -1.9787   -1.4603    0.0008 C   0  0  0  0  0  0  0  0  0  0  0  0
    0.3927   -1.0242   -0.0002 C   0  0  0  0  0  0  0  0  0  0  0  0
   -0.6659   -1.9481    0.0005 C   0  0  0  0  0  0  0  0  0  0  0  0
    2.2852   -0.0353   -0.0013 C   0  0  0  0  0  0  0  0  0  0  0  0
    3.7232    0.2914   -0.0009 C   0  0  0  0  0  0  0  0  0  0  0  0
  1 17  1  0
  2 17  1  0
  3 17  1  0
  4 12  1  0
  4 16  1  0
  5 14  1  0
  5 16  2  0
  6  7  1  0
  6  8  1  0
  6  9  1  0
  6 10  1  0
  7 11  1  0
  7 13  2  0
 11 12  2  0
 12 14  1  0
 13 15  1  0
 14 15  2  0
 16 17  1  0
M  END
>  <PUBCHEM_COMPOUND_CID>  (1) 
19346

>  <PUBCHEM_CONFORMER_RMSD>  (1) 
0.6

>  <PUBCHEM_CONFORMER_DIVERSEORDER>  (1) 
1

>  <PUBCHEM_MMFF94_PARTIAL_CHARGES>  (1) 
18
1 -0.34
11 -0.15
12 -0.15
13 -0.15
14 0.23
15 -0.15
16 0.01
17 1.2
2 -0.34
27 0.15
28 0.15
29 0.15
3 -0.34
30 0.27
4 0.03
5 -0.57
6 0.14
7 -0.14

>  <PUBCHEM_EFFECTIVE_ROTOR_COUNT>  (1) 
2

>  <PUBCHEM_PHARMACOPHORE_FEATURES>  (1) 
5
1 4 donor
3 4 5 16 cation
4 6 8 9 10 hydrophobe
5 4 5 12 14 16 rings
6 7 11 12 13 14 15 rings

>  <PUBCHEM_HEAVY_ATOM_COUNT>  (1) 
17

>  <PUBCHEM_ATOM_DEF_STEREO_COUNT>  (1) 
0

>  <PUBCHEM_ATOM_UDEF_STEREO_COUNT>  (1) 
0

>  <PUBCHEM_BOND_DEF_STEREO_COUNT>  (1) 
0

>  <PUBCHEM_BOND_UDEF_STEREO_COUNT>  (1) 
0

>  <PUBCHEM_ISOTOPIC_ATOM_COUNT>  (1) 
0

>  <PUBCHEM_COMPONENT_COUNT>  (1) 
1

>  <PUBCHEM_CACTVS_TAUTO_COUNT>  (1) 
2

>  <PUBCHEM_CONFORMER_ID>  (1) 
00004B9200000001

>  <PUBCHEM_MMFF94_ENERGY>  (1) 
35.9571

>  <PUBCHEM_FEATURE_SELFOVERLAP>  (1) 
25.479

>  <PUBCHEM_SHAPE_FINGERPRINT>  (1) 
10608611 8 18342172319021493792
11132069 177 18409724088638738376
11401426 45 18343012302754721655
11471102 20 18411415107568295694
11543360 7 15697991976722296745
12346645 44 18339360769268493939
12390115 104 18128837260871971729
13214271 11 18259988150494262413
13380535 76 18411418410150687655
13583140 156 16950556710086007905
13675066 3 18187366540644226530
13760787 5 18408887330045907863
14289901 80 15213021552759382717
14897335 6 18411415111552331871
14943859 89 18334575758656568011
15196674 1 18410575063204079687
15309172 13 18411422799960425731
15375358 24 18272369784708940806
15536298 74 18270681965530317942
16945 1 18410575093764839847
18186145 218 17704352169273397265
19026448 4 14908175356952075483
19026448 5 14923950050270490031
200 152 15267347314286394270
20300324 65 17775279482965010861
204376 136 18334861627664527123
20645477 56 18410570725609104488
20645477 70 18341048497710420326
21267235 1 18409457972270263203
22094290 60 14620793791197858819
22485316 2 10879991341580071333
231179 274 17676477329048041903
23402539 116 18202275879583152613
23402655 69 18271516495525550781
23559900 14 18273497901520359120
2748010 2 18120091680579693687
474 4 16661782157483711068
4990 188 17632580435442211628
5104073 3 18337111155524623931
633830 44 18338519612745437319
6430166 295 18409727348497862520
69090 78 18201433692346903567
7364860 26 18269554927874217494
9709674 26 18272093781309958710

>  <PUBCHEM_SHAPE_MULTIPOLES>  (1) 
318.07
9.28
1.59
0.89
3.51
0.18
0
-2.62
0.01
-0.45
0
-0.5
-0.07
0

>  <PUBCHEM_SHAPE_SELFOVERLAP>  (1) 
685.879

>  <PUBCHEM_SHAPE_VOLUME>  (1) 
180.8

>  <PUBCHEM_COORDINATE_TYPE>  (1) 
2
5
10

$$$$
