19347
     RDKit          3D

 23 26  0  0  0  0  0  0  0  0999 V2000
    2.3318    1.7325   -0.0383 O   0  0  0  0  0  0  0  0  0  0  0  0
    2.2035   -1.8166   -0.0013 O   0  0  0  0  0  0  0  0  0  0  0  0
    1.6702    0.4743    0.0041 N   0  0  0  0  0  0  0  0  0  0  0  0
   -2.8330   -1.7335   -0.0098 C   0  0  0  0  0  0  0  0  0  0  0  0
   -1.8321   -0.5969   -0.0037 C   0  0  0  0  0  0  0  0  0  0  0  0
   -2.4986    0.6491    0.0038 C   0  0  0  0  0  0  0  0  0  0  0  0
   -4.1496   -0.9854   -0.0051 C   0  0  0  0  0  0  0  0  0  0  0  0
   -3.9258    0.4097    0.0029 C   0  0  0  0  0  0  0  0  0  0  0  0
   -0.4506   -0.6779   -0.0043 C   0  0  0  0  0  0  0  0  0  0  0  0
   -1.7786    1.8320    0.0109 C   0  0  0  0  0  0  0  0  0  0  0  0
    0.2749    0.5148    0.0030 C   0  0  0  0  0  0  0  0  0  0  0  0
   -5.4292   -1.5124   -0.0070 C   0  0  0  0  0  0  0  0  0  0  0  0
   -4.9923    1.2934    0.0089 C   0  0  0  0  0  0  0  0  0  0  0  0
   -0.3823    1.7572    0.0108 C   0  0  0  0  0  0  0  0  0  0  0  0
   -6.5040   -0.6215   -0.0009 C   0  0  0  0  0  0  0  0  0  0  0  0
   -6.2878    0.7673    0.0069 C   0  0  0  0  0  0  0  0  0  0  0  0
    2.5318   -0.6330   -0.0026 C   0  0  0  0  0  0  0  0  0  0  0  0
    3.9859   -0.3788    0.0005 C   0  0  0  0  0  0  0  0  0  0  0  0
    4.6500   -0.2707    1.2100 C   0  0  0  0  0  0  0  0  0  0  0  0
    4.6526   -0.2548   -1.2059 C   0  0  0  0  0  0  0  0  0  0  0  0
    6.0241   -0.0308    1.2131 C   0  0  0  0  0  0  0  0  0  0  0  0
    6.0268   -0.0150   -1.2028 C   0  0  0  0  0  0  0  0  0  0  0  0
    6.7124    0.0970    0.0068 C   0  0  0  0  0  0  0  0  0  0  0  0
  1  3  1  0
  2 17  2  0
  3 11  1  0
  3 17  1  0
  4  5  1  0
  4  7  1  0
  5  6  2  0
  5  9  1  0
  6  8  1  0
  6 10  1  0
  7  8  2  0
  7 12  1  0
  8 13  1  0
  9 11  2  0
 10 14  2  0
 11 14  1  0
 12 15  2  0
 13 16  2  0
 15 16  1  0
 17 18  1  0
 18 19  2  0
 18 20  1  0
 19 21  1  0
 20 22  2  0
 21 23  2  0
 22 23  1  0
M  END
>  <PUBCHEM_COMPOUND_CID>  (1) 
19347

>  <PUBCHEM_CONFORMER_RMSD>  (1) 
0.6

>  <PUBCHEM_CONFORMER_DIVERSEORDER>  (1) 
1
12
22
16
7
23
5
28
27
9
18
29
19
2
10
24
25
30
20
15
3
17
21
14
11
4
26
13
6
8

>  <PUBCHEM_MMFF94_PARTIAL_CHARGES>  (1) 
34
1 -0.44
10 -0.15
11 0.12
12 -0.15
13 -0.15
14 -0.15
15 -0.15
16 -0.15
17 0.54
18 0.09
19 -0.15
2 -0.57
20 -0.15
21 -0.15
22 -0.15
23 -0.15
26 0.15
27 0.15
28 0.15
29 0.15
3 -0.14
30 0.15
31 0.15
32 0.15
33 0.4
34 0.15
35 0.15
36 0.15
37 0.15
38 0.15
4 0.29
5 -0.14
7 -0.14
9 -0.15

>  <PUBCHEM_EFFECTIVE_ROTOR_COUNT>  (1) 
3.2

>  <PUBCHEM_PHARMACOPHORE_FEATURES>  (1) 
5
1 2 acceptor
5 4 5 6 7 8 rings
6 18 19 20 21 22 23 rings
6 5 6 9 10 11 14 rings
6 7 8 12 13 15 16 rings

>  <PUBCHEM_HEAVY_ATOM_COUNT>  (1) 
23

>  <PUBCHEM_ATOM_DEF_STEREO_COUNT>  (1) 
0

>  <PUBCHEM_ATOM_UDEF_STEREO_COUNT>  (1) 
0

>  <PUBCHEM_BOND_DEF_STEREO_COUNT>  (1) 
0

>  <PUBCHEM_BOND_UDEF_STEREO_COUNT>  (1) 
0

>  <PUBCHEM_ISOTOPIC_ATOM_COUNT>  (1) 
0

>  <PUBCHEM_COMPONENT_COUNT>  (1) 
1

>  <PUBCHEM_CACTVS_TAUTO_COUNT>  (1) 
1

>  <PUBCHEM_CONFORMER_ID>  (1) 
00004B9300000001

>  <PUBCHEM_MMFF94_ENERGY>  (1) 
88.5915

>  <PUBCHEM_FEATURE_SELFOVERLAP>  (1) 
25.538

>  <PUBCHEM_SHAPE_FINGERPRINT>  (1) 
10 15 18130212844797386336
10299344 5 17894912931645398962
10906281 52 18262255355559222314
10968037 39 18408887339026161055
11045977 3 17774998024587908098
11315181 36 18202568393148008121
11524674 6 16917065568571478535
11719270 70 18410288082618138826
11963148 33 18409442618095489742
12166972 35 17676209095308325468
12236239 1 17749389252342470498
12516196 113 18060419122755800761
12730499 353 17418095408658125854
12788726 201 18335136432414726449
12838862 33 18339060645527998711
13288520 33 18411983577045244261
13533116 47 17313095320843737386
13685833 64 18410858789144638739
13862211 1 18409163333709205851
1420 363 18060702788476828182
14251752 14 17458336416904803605
14251764 18 18335421266735973699
14617045 38 18412829070673555859
15183329 4 18333732416432656525
15849732 13 17775564252097326485
15927050 60 17622443162000392044
16087824 20 18265332816947593533
17857418 61 18334011696274845041
18006028 8 18131068242831181073
18681886 176 18342172310304698904
200 152 18202563973362734249
21033648 29 16844995832824093152
21033650 10 17898595089488196244
21130935 74 18272369741649167274
21150785 3 15502376764209405723
21267235 1 18410581716826001883
22224240 67 16988837293938965798
2297311 6 18201728335730253884
23035841 295 18408604747031022778
23198884 109 15357695284537290597
23402539 116 18412539921085769911
23522609 53 18042712549001125108
23536379 177 16081083766500657189
23559900 14 18341607165765946905
239999 70 18131917061892385870
3004659 81 18334017211482644012
335352 9 18410008845988692117
3383291 50 18338516460651730371
3411729 13 18196644319499255800
34797466 226 17989212568720703388
350125 39 18409448085261043461
3545911 37 18342175552941781547
397830 11 16987422308067636266
4073 2 17968099793298295170
4214541 1 18410856564631238501
4325135 7 18186522099003665422
4340502 62 14979962483808842252
4463277 17 18410856568235193821
5104073 3 18338802333436750617
542803 24 17530966882080591750
5486654 2 18409733967274879582
559249 180 18335416868541814867
59755656 215 18343867692968910942
59755656 520 16732982050620845763
67856867 119 18189056550330803124

>  <PUBCHEM_SHAPE_MULTIPOLES>  (1) 
456.61
17.85
1.61
0.87
6.17
0.16
0
-1.83
0.03
-1.59
0
1.4
-0.04
-0.02

>  <PUBCHEM_SHAPE_SELFOVERLAP>  (1) 
1026.012

>  <PUBCHEM_SHAPE_VOLUME>  (1) 
241.9

>  <PUBCHEM_COORDINATE_TYPE>  (1) 
2
5
10

$$$$
