19342
     RDKit          3D

 14 15  0  0  0  0  0  0  0  0999 V2000
    3.5254   -1.0623   -0.0014 F   0  0  0  0  0  0  0  0  0  0  0  0
    3.3046    0.8087   -1.0865 F   0  0  0  0  0  0  0  0  0  0  0  0
    3.2799    0.8072    1.0938 F   0  0  0  0  0  0  0  0  0  0  0  0
   -4.3404    0.9356   -0.0013 F   0  0  0  0  0  0  0  0  0  0  0  0
    0.5349    1.0235   -0.0009 N   0  0  0  0  0  0  0  0  0  0  0  0
    0.7209   -1.1913    0.0004 N   0  0  0  0  0  0  0  0  0  0  0  0
   -0.7513    0.5481   -0.0008 C   0  0  0  0  0  0  0  0  0  0  0  0
   -0.6086   -0.8366    0.0001 C   0  0  0  0  0  0  0  0  0  0  0  0
    1.3777   -0.0530   -0.0002 C   0  0  0  0  0  0  0  0  0  0  0  0
   -1.9897    1.1910   -0.0013 C   0  0  0  0  0  0  0  0  0  0  0  0
   -1.7587   -1.6436    0.0005 C   0  0  0  0  0  0  0  0  0  0  0  0
    2.8419    0.1203   -0.0011 C   0  0  0  0  0  0  0  0  0  0  0  0
   -3.1239    0.3723   -0.0011 C   0  0  0  0  0  0  0  0  0  0  0  0
   -3.0128   -1.0200   -0.0001 C   0  0  0  0  0  0  0  0  0  0  0  0
  1 12  1  0
  2 12  1  0
  3 12  1  0
  4 13  1  0
  5  7  1  0
  5  9  1  0
  6  8  1  0
  6  9  2  0
  7  8  2  0
  7 10  1  0
  8 11  1  0
  9 12  1  0
 10 13  2  0
 11 14  2  0
 13 14  1  0
M  END
>  <PUBCHEM_COMPOUND_CID>  (1) 
19342

>  <PUBCHEM_CONFORMER_RMSD>  (1) 
0.4

>  <PUBCHEM_CONFORMER_DIVERSEORDER>  (1) 
1

>  <PUBCHEM_MMFF94_PARTIAL_CHARGES>  (1) 
18
1 -0.34
10 -0.15
11 -0.15
12 1.2
13 0.19
14 -0.15
15 0.27
16 0.15
17 0.15
18 0.15
2 -0.34
3 -0.34
4 -0.19
5 0.03
6 -0.57
7 -0.15
8 0.23
9 0.01

>  <PUBCHEM_EFFECTIVE_ROTOR_COUNT>  (1) 
1

>  <PUBCHEM_PHARMACOPHORE_FEATURES>  (1) 
4
1 5 donor
3 5 6 9 cation
5 5 6 7 8 9 rings
6 7 8 10 11 13 14 rings

>  <PUBCHEM_HEAVY_ATOM_COUNT>  (1) 
14

>  <PUBCHEM_ATOM_DEF_STEREO_COUNT>  (1) 
0

>  <PUBCHEM_ATOM_UDEF_STEREO_COUNT>  (1) 
0

>  <PUBCHEM_BOND_DEF_STEREO_COUNT>  (1) 
0

>  <PUBCHEM_BOND_UDEF_STEREO_COUNT>  (1) 
0

>  <PUBCHEM_ISOTOPIC_ATOM_COUNT>  (1) 
0

>  <PUBCHEM_COMPONENT_COUNT>  (1) 
1

>  <PUBCHEM_CACTVS_TAUTO_COUNT>  (1) 
2

>  <PUBCHEM_CONFORMER_ID>  (1) 
00004B8E00000001

>  <PUBCHEM_MMFF94_ENERGY>  (1) 
14.6936

>  <PUBCHEM_FEATURE_SELFOVERLAP>  (1) 
20.404

>  <PUBCHEM_SHAPE_FINGERPRINT>  (1) 
10608611 8 18342734134918997608
11132069 177 18409724071327084929
12032990 46 18411425020115652283
12932764 1 17917713556037089654
13380535 76 18411981330403243815
14144814 61 18409728473594658418
14325111 11 18410856568245554912
14897335 6 18411413986676919807
15669948 3 18339359781009706798
15775835 57 18334580131144102865
16945 1 18410574024064717095
18175812 5 18202562895109678260
18186145 218 17703516557531663128
19026448 4 16702023105774626943
19026448 5 16660361506391599227
19422 9 18113620113878593370
20279233 1 17775849025408433990
20528008 55 18343014489177970425
20645476 183 17969238878496468398
20645477 70 17060062510471978558
20871998 184 18129666429988500103
23402539 116 18201709631564294525
23402655 69 18269540656272516597
23463225 33 18334856078540367938
23559900 14 18343582945806959820
2748010 2 18124027103442032077
3248919 1 17894908581107330618
474 4 16590006068424045900
5104073 3 18410855473071268843
528886 8 18411132528885229755
53812653 166 18343013398108649417
6333449 129 18342453764133724391
69090 78 18201711851956917407
7364860 26 18198058071591416034

>  <PUBCHEM_SHAPE_MULTIPOLES>  (1) 
249.06
6.45
1.42
0.7
1.27
0.26
0
-0.95
0.01
-0.56
0
0.38
-0.09
0

>  <PUBCHEM_SHAPE_SELFOVERLAP>  (1) 
550.815

>  <PUBCHEM_SHAPE_VOLUME>  (1) 
136.5

>  <PUBCHEM_COORDINATE_TYPE>  (1) 
2
5
10

$$$$
