19350
     RDKit          3D

 17 19  0  0  0  0  0  0  0  0999 V2000
    0.2684   -0.0192    0.0002 C   0  0  0  0  0  0  0  0  0  0  0  0
   -1.1669   -0.1347    0.0001 C   0  0  0  0  0  0  0  0  0  0  0  0
    0.8594    1.2713    0.0001 C   0  0  0  0  0  0  0  0  0  0  0  0
   -1.9561    1.0451    0.0000 C   0  0  0  0  0  0  0  0  0  0  0  0
    1.1549   -1.1251    0.0003 C   0  0  0  0  0  0  0  0  0  0  0  0
   -1.8660   -1.3679    0.0002 C   0  0  0  0  0  0  0  0  0  0  0  0
    2.5433   -0.9656    0.0002 C   0  0  0  0  0  0  0  0  0  0  0  0
    3.0945    0.3063   -0.0001 C   0  0  0  0  0  0  0  0  0  0  0  0
    2.2571    1.4176    0.0000 C   0  0  0  0  0  0  0  0  0  0  0  0
    0.0488    2.4094    0.0002 C   0  0  0  0  0  0  0  0  0  0  0  0
   -1.3377    2.2980    0.0001 C   0  0  0  0  0  0  0  0  0  0  0  0
   -3.3594    0.9666   -0.0002 C   0  0  0  0  0  0  0  0  0  0  0  0
   -3.2619   -1.4318    0.0001 C   0  0  0  0  0  0  0  0  0  0  0  0
   -1.2594   -2.7359   -0.0006 C   0  0  0  0  0  0  0  0  0  0  0  0
   -4.0087   -0.2640   -0.0003 C   0  0  0  0  0  0  0  0  0  0  0  0
    3.4160   -2.1785    0.0003 C   0  0  0  0  0  0  0  0  0  0  0  0
    4.5737    0.5085   -0.0008 C   0  0  0  0  0  0  0  0  0  0  0  0
  1  2  1  0
  1  3  1  0
  1  5  2  0
  2  4  2  0
  2  6  1  0
  3  9  2  0
  3 10  1  0
  4 11  1  0
  4 12  1  0
  5  7  1  0
  6 13  2  0
  6 14  1  0
  7  8  2  0
  7 16  1  0
  8  9  1  0
  8 17  1  0
 10 11  2  0
 12 15  2  0
 13 15  1  0
M  END
>  <PUBCHEM_COMPOUND_CID>  (1) 
19350

>  <PUBCHEM_CONFORMER_RMSD>  (1) 
0.4

>  <PUBCHEM_CONFORMER_DIVERSEORDER>  (1) 
1

>  <PUBCHEM_MMFF94_PARTIAL_CHARGES>  (1) 
20
10 -0.15
11 -0.15
12 -0.15
13 -0.15
14 0.14
15 -0.15
16 0.14
17 0.14
18 0.15
19 0.15
20 0.15
21 0.15
22 0.15
23 0.15
27 0.15
5 -0.15
6 -0.14
7 -0.14
8 -0.14
9 -0.15

>  <PUBCHEM_EFFECTIVE_ROTOR_COUNT>  (1) 
0

>  <PUBCHEM_PHARMACOPHORE_FEATURES>  (1) 
3
6 1 2 3 4 10 11 rings
6 1 3 5 7 8 9 rings
6 2 4 6 12 13 15 rings

>  <PUBCHEM_HEAVY_ATOM_COUNT>  (1) 
17

>  <PUBCHEM_ATOM_DEF_STEREO_COUNT>  (1) 
0

>  <PUBCHEM_ATOM_UDEF_STEREO_COUNT>  (1) 
0

>  <PUBCHEM_BOND_DEF_STEREO_COUNT>  (1) 
0

>  <PUBCHEM_BOND_UDEF_STEREO_COUNT>  (1) 
0

>  <PUBCHEM_ISOTOPIC_ATOM_COUNT>  (1) 
0

>  <PUBCHEM_COMPONENT_COUNT>  (1) 
1

>  <PUBCHEM_CACTVS_TAUTO_COUNT>  (1) 
1

>  <PUBCHEM_CONFORMER_ID>  (1) 
00004B9600000001

>  <PUBCHEM_MMFF94_ENERGY>  (1) 
70.6987

>  <PUBCHEM_FEATURE_SELFOVERLAP>  (1) 
15.272

>  <PUBCHEM_SHAPE_FINGERPRINT>  (1) 
10608611 8 18411695495660109832
10616163 171 18339646745181475022
10618630 7 18410012117630099756
10693767 8 18057016105074008519
10967382 1 18410855485914004199
11132069 177 18411695508671450008
11578080 2 17169811311939783836
12032990 46 18409735053737704875
12403814 3 17603300457953540877
12553582 1 18338793519615056798
13140716 1 17979357782606048105
13221675 6 18410292518791100806
13583140 156 14189294812047667303
14115302 16 18187091692685937869
14144814 61 18411138026037167251
14178342 30 18052523658642469306
14790565 3 18123760746703724617
15196674 1 18410855425979478471
15442244 35 18266458715830068786
15536298 74 18341894065533856146
16945 1 18338799047401691909
17804303 29 18341616949758994966
193761 8 17834394897104031653
19591789 44 18266179439781908467
200 152 18060129960362402885
20510252 161 18271806757240717945
21029758 11 18342731940676018849
21267235 1 18338244846164796743
21501502 16 18339364054807828952
221490 88 18119254110190766035
22721475 48 18410858780222407561
2334 1 18410856559740035855
23402539 116 18342729732867351407
23463225 33 18410294709203316364
23557571 272 18272943704446692668
23559900 14 18341045208413655090
238 59 13953089379047911134
2748010 2 18410290281398080269
3312278 4 18410577309646165832
335352 9 18122624950922193549
34934 24 18410848893302624714
427121 178 15836813948888196729
5104073 3 18411138000283149594
57005193 9 18409157827181194310
69090 78 18412259532503871207
7364860 26 18125158487648098137
8809292 202 18261957473786426507
9709674 26 18411985771225452054

>  <PUBCHEM_SHAPE_MULTIPOLES>  (1) 
349.85
6.85
2.71
0.62
2.25
0.32
0
1.25
0
-0.27
0
0
0
0

>  <PUBCHEM_SHAPE_SELFOVERLAP>  (1) 
781.628

>  <PUBCHEM_SHAPE_VOLUME>  (1) 
175.6

>  <PUBCHEM_COORDINATE_TYPE>  (1) 
2
5
10

$$$$
