19375
     RDKit          3D

 17 18  0  0  1  0  0  0  0  0999 V2000
    0.6031   -3.3906    0.1710 O   0  0  0  0  0  0  0  0  0  0  0  0
    2.5512   -2.4086   -0.4335 O   0  0  0  0  0  0  0  0  0  0  0  0
   -0.6182   -1.0540    0.4815 N   0  0  0  0  0  0  0  0  0  0  0  0
    0.5712   -1.0250   -0.3592 C   0  0  0  0  0  0  0  0  0  0  0  0
    1.4123    0.1780   -0.0951 C   0  0  0  0  0  0  0  0  0  0  0  0
   -1.7624   -0.3395    0.1974 C   0  0  0  0  0  0  0  0  0  0  0  0
    1.4960    0.7009    1.1953 C   0  0  0  0  0  0  0  0  0  0  0  0
    2.1158    0.7800   -1.1386 C   0  0  0  0  0  0  0  0  0  0  0  0
    1.3512   -2.3217   -0.1958 C   0  0  0  0  0  0  0  0  0  0  0  0
   -2.8906   -0.4020    1.0429 C   0  0  0  0  0  0  0  0  0  0  0  0
   -1.8451    0.4791   -0.9492 C   0  0  0  0  0  0  0  0  0  0  0  0
    2.2828    1.8258    1.4424 C   0  0  0  0  0  0  0  0  0  0  0  0
    2.9027    1.9050   -0.8913 C   0  0  0  0  0  0  0  0  0  0  0  0
    2.9861    2.4279    0.3993 C   0  0  0  0  0  0  0  0  0  0  0  0
   -4.0483    0.3206    0.7549 C   0  0  0  0  0  0  0  0  0  0  0  0
   -3.0030    1.2017   -1.2370 C   0  0  0  0  0  0  0  0  0  0  0  0
   -4.1046    1.1224   -0.3849 C   0  0  0  0  0  0  0  0  0  0  0  0
  1  9  1  0
  2  9  2  0
  3  4  1  0
  3  6  1  0
  4  5  1  0
  4  9  1  0
  5  7  2  0
  5  8  1  0
  6 10  2  0
  6 11  1  0
  7 12  1  0
  8 13  2  0
 10 15  1  0
 11 16  2  0
 12 14  2  0
 13 14  1  0
 15 17  2  0
 16 17  1  0
M  END
>  <PUBCHEM_COMPOUND_CID>  (1) 
19375

>  <PUBCHEM_CONFORMER_RMSD>  (1) 
0.6

>  <PUBCHEM_CONFORMER_DIVERSEORDER>  (1) 
1
14
36
43
15
23
21
30
26
37
39
16
41
32
25
19
24
40
13
31
5
22
35
27
3
20
33
38
17
4
34
2
18
7
29
9
8
28
11
10
42
6
12

>  <PUBCHEM_MMFF94_PARTIAL_CHARGES>  (1) 
29
1 -0.65
10 -0.15
11 -0.15
12 -0.15
13 -0.15
14 -0.15
15 -0.15
16 -0.15
17 -0.15
19 0.4
2 -0.57
20 0.15
21 0.15
22 0.15
23 0.15
24 0.15
25 0.15
26 0.15
27 0.15
28 0.15
29 0.15
3 -0.87
30 0.5
4 0.57
5 -0.14
6 0.1
7 -0.15
8 -0.15
9 0.66

>  <PUBCHEM_EFFECTIVE_ROTOR_COUNT>  (1) 
4

>  <PUBCHEM_PHARMACOPHORE_FEATURES>  (1) 
7
1 1 acceptor
1 2 acceptor
1 3 cation
1 3 donor
3 1 2 9 anion
6 5 7 8 12 13 14 rings
6 6 10 11 15 16 17 rings

>  <PUBCHEM_HEAVY_ATOM_COUNT>  (1) 
17

>  <PUBCHEM_ATOM_DEF_STEREO_COUNT>  (1) 
0

>  <PUBCHEM_ATOM_UDEF_STEREO_COUNT>  (1) 
1

>  <PUBCHEM_BOND_DEF_STEREO_COUNT>  (1) 
0

>  <PUBCHEM_BOND_UDEF_STEREO_COUNT>  (1) 
0

>  <PUBCHEM_ISOTOPIC_ATOM_COUNT>  (1) 
0

>  <PUBCHEM_COMPONENT_COUNT>  (1) 
1

>  <PUBCHEM_CACTVS_TAUTO_COUNT>  (1) 
1

>  <PUBCHEM_CONFORMER_ID>  (1) 
00004BAF00000001

>  <PUBCHEM_MMFF94_ENERGY>  (1) 
55.0681

>  <PUBCHEM_FEATURE_SELFOVERLAP>  (1) 
35.58

>  <PUBCHEM_SHAPE_FINGERPRINT>  (1) 
10165383 225 18122653752920431537
10608611 8 18188210905851063269
11031198 65 18341895203457609469
11725454 13 16556468730404271088
12730499 353 18411146852870148443
13132413 78 17839186212432854464
13134695 92 18054777395597285078
13294875 104 17988351663747491968
13681431 1 18054794979246369822
14250199 8 18266734693433257077
15219456 202 18260554394207584295
15309172 13 18337110197604751017
1813 80 17342672062887044054
18186145 218 18130235963762646008
18219364 16 18197786698451353425
18785283 64 18334301967745387538
19049666 15 18044933472515698517
19765921 60 17917141818474917049
20671657 1 18343300340610324143
21041028 32 18054232024881793592
21486144 27 18261107427398017485
21524375 3 18266735968706357882
21639500 275 18343295946985296391
21731228 192 18263635337310101960
22112679 90 17128480626479952586
2255824 54 18342174406312517031
22854114 111 18342457032445607081
23175994 123 18050855416062067847
23419403 2 17263799678710489136
23559900 14 17968384446687798703
25 1 18059587935131178680
2748010 2 18041280980803189151
305870 269 18339353167002300186
3082319 5 15267071392576258073
350125 39 18338803423836606266
458136 41 18338252534245706635
49207404 50 18260840327529056121
495365 180 18338503150267536941
5895379 119 16269691659136684889
6049 1 18041849385502291221
633830 44 17917443067513226505
6442390 28 18196104458487728787
7364860 26 18340204090059851326
7471813 234 17772173237672231837
7615 1 17489299725537416841
7808743 9 17831867115688519212
81228 2 17403171998625836954
84936 182 18272651229457623241

>  <PUBCHEM_SHAPE_MULTIPOLES>  (1) 
333.13
6.52
2.86
1.25
5.3
2.32
0.08
-3.99
0.07
-2.75
-0.06
-0.06
-0.51
0.82

>  <PUBCHEM_SHAPE_SELFOVERLAP>  (1) 
712.045

>  <PUBCHEM_SHAPE_VOLUME>  (1) 
183

>  <PUBCHEM_COORDINATE_TYPE>  (1) 
2
5
10

$$$$
