19378
     RDKit          3D

 30 33  0  0  0  0  0  0  0  0999 V2000
    1.1953   -0.1162   -0.9790 O   0  0  0  0  0  0  0  0  0  0  0  0
    2.0341   -1.7832    0.3689 O   0  0  0  0  0  0  0  0  0  0  0  0
   -2.8416   -0.1088    0.1272 N   0  0  0  0  0  0  0  0  0  0  0  0
   -0.1186   -0.6285   -0.7976 C   0  0  0  0  0  0  0  0  0  0  0  0
   -0.4857   -0.6109    0.6836 C   0  0  0  0  0  0  0  0  0  0  0  0
   -1.0993    0.2257   -1.5946 C   0  0  0  0  0  0  0  0  0  0  0  0
   -1.9509   -0.9890    0.8971 C   0  0  0  0  0  0  0  0  0  0  0  0
   -2.5459   -0.1776   -1.3111 C   0  0  0  0  0  0  0  0  0  0  0  0
   -4.2414   -0.4508    0.3787 C   0  0  0  0  0  0  0  0  0  0  0  0
   -5.1797    0.5413   -0.3094 C   0  0  0  0  0  0  0  0  0  0  0  0
    2.1992   -0.7935   -0.3332 C   0  0  0  0  0  0  0  0  0  0  0  0
    3.5510   -0.1700   -0.6666 C   0  0  0  0  0  0  0  0  0  0  0  0
   -6.6265    0.2130   -0.0394 C   0  0  0  0  0  0  0  0  0  0  0  0
    3.6558    1.3049   -0.3018 C   0  0  0  0  0  0  0  0  0  0  0  0
    4.7267   -0.9754   -0.1282 C   0  0  0  0  0  0  0  0  0  0  0  0
   -7.3033   -0.6392   -0.8992 C   0  0  0  0  0  0  0  0  0  0  0  0
   -7.2565    0.7680    1.0643 C   0  0  0  0  0  0  0  0  0  0  0  0
    4.4785    2.1197   -1.0516 C   0  0  0  0  0  0  0  0  0  0  0  0
    5.2021   -0.6951    1.1359 C   0  0  0  0  0  0  0  0  0  0  0  0
    2.9243    1.7804    0.7668 C   0  0  0  0  0  0  0  0  0  0  0  0
    5.2784   -1.9595   -0.9215 C   0  0  0  0  0  0  0  0  0  0  0  0
   -8.6415   -0.9431   -0.6495 C   0  0  0  0  0  0  0  0  0  0  0  0
   -8.5947    0.4639    1.3140 C   0  0  0  0  0  0  0  0  0  0  0  0
   -9.2872   -0.3916    0.4570 C   0  0  0  0  0  0  0  0  0  0  0  0
    4.5744    3.4706   -0.7177 C   0  0  0  0  0  0  0  0  0  0  0  0
    6.2784   -1.4325    1.6291 C   0  0  0  0  0  0  0  0  0  0  0  0
    3.0202    3.1314    1.1006 C   0  0  0  0  0  0  0  0  0  0  0  0
    6.3547   -2.6971   -0.4281 C   0  0  0  0  0  0  0  0  0  0  0  0
    3.8452    3.9764    0.3582 C   0  0  0  0  0  0  0  0  0  0  0  0
    6.8546   -2.4334    0.8472 C   0  0  0  0  0  0  0  0  0  0  0  0
  1  4  1  0
  1 11  1  0
  2 11  2  0
  3  7  1  0
  3  8  1  0
  3  9  1  0
  4  5  1  0
  4  6  1  0
  5  7  1  0
  6  8  1  0
  9 10  1  0
 10 13  1  0
 11 12  1  0
 12 14  1  0
 12 15  1  0
 13 16  2  0
 13 17  1  0
 14 18  2  0
 14 20  1  0
 15 19  2  0
 15 21  1  0
 16 22  1  0
 17 23  2  0
 18 25  1  0
 19 26  1  0
 20 27  2  0
 21 28  2  0
 22 24  2  0
 23 24  1  0
 25 29  2  0
 26 30  2  0
 27 29  1  0
 28 30  1  0
M  END
>  <PUBCHEM_COMPOUND_CID>  (1) 
19378

>  <PUBCHEM_CONFORMER_RMSD>  (1) 
1

>  <PUBCHEM_CONFORMER_DIVERSEORDER>  (1) 
1
38
19
212
45
215
183
165
129
153
191
189
175
187
36
11
9
16
111
34
10
149
206
216
28
205
116
210
119
196
21
172
8
49
48
197
65
220
114
2
132
115
192
50
223
32
7
84
88
174
131
144
103
75
127
202
92
54
161
14
24
68
136
39
85
89
173
6
222
27
176
193
218
178
188
99
74
86
104
209
160
105
98
133
52
80
33
73
217
47
135
182
79
59
37
158
156
118
70
201
194
213
61
5
179
159
168
87
66
107
145
155
214
26
4
166
134
40
108
22
162
44
90
15
82
137
29
150
67
195
56
94
120
121
100
30
57
203
124
169
130
83
142
17
204
60
78
170
140
139
177
95
113
18
51
41
97
184
13
91
128
3
163
76
208
72
77
141
151
23
186
157
46
31
110
35
152
58
96
199
181
148
143
200
147
53
198
112
146
207
190
219
25
125
63
20
171
12
185
126
42
69
71
55
117
211
102
122
62
138
109
81
167
221
123
43
93
154
106
164
180
101
64

>  <PUBCHEM_MMFF94_PARTIAL_CHARGES>  (1) 
43
1 -0.43
10 0.14
11 0.66
12 0.35
13 -0.14
14 -0.14
15 -0.14
16 -0.15
17 -0.15
18 -0.15
19 -0.15
2 -0.57
20 -0.15
21 -0.15
22 -0.15
23 -0.15
24 -0.15
25 -0.15
26 -0.15
27 -0.15
28 -0.15
29 -0.15
3 -0.81
30 -0.15
4 0.28
45 0.15
46 0.15
47 0.15
48 0.15
49 0.15
50 0.15
51 0.15
52 0.15
53 0.15
54 0.15
55 0.15
56 0.15
57 0.15
58 0.15
59 0.15
7 0.27
8 0.27
9 0.27

>  <PUBCHEM_EFFECTIVE_ROTOR_COUNT>  (1) 
9.2

>  <PUBCHEM_PHARMACOPHORE_FEATURES>  (1) 
6
1 2 acceptor
1 3 cation
6 13 16 17 22 23 24 rings
6 14 18 20 25 27 29 rings
6 15 19 21 26 28 30 rings
6 3 4 5 6 7 8 rings

>  <PUBCHEM_HEAVY_ATOM_COUNT>  (1) 
30

>  <PUBCHEM_ATOM_DEF_STEREO_COUNT>  (1) 
0

>  <PUBCHEM_ATOM_UDEF_STEREO_COUNT>  (1) 
0

>  <PUBCHEM_BOND_DEF_STEREO_COUNT>  (1) 
0

>  <PUBCHEM_BOND_UDEF_STEREO_COUNT>  (1) 
0

>  <PUBCHEM_ISOTOPIC_ATOM_COUNT>  (1) 
0

>  <PUBCHEM_COMPONENT_COUNT>  (1) 
1

>  <PUBCHEM_CACTVS_TAUTO_COUNT>  (1) 
1

>  <PUBCHEM_CONFORMER_ID>  (1) 
00004BB200000001

>  <PUBCHEM_MMFF94_ENERGY>  (1) 
77.2792

>  <PUBCHEM_FEATURE_SELFOVERLAP>  (1) 
30.448

>  <PUBCHEM_SHAPE_FINGERPRINT>  (1) 
10162869 55 18201990054353184663
10165383 225 18115031926439570116
10411042 1 18267586798387445414
11315181 36 8358250446737398063
11456790 92 18411982429666640753
12089408 11 18343867741436988143
12522641 24 18407759239716241970
12616971 3 18202274822989387327
13533116 47 18409730676987072060
13673619 4 17968095275129550980
13692115 27 18190177881193672508
13878862 14 18337095860930272348
14118638 360 9007065673027439239
14347424 109 18410855481756342944
14400156 96 18262234555518470204
15131766 46 18053942037285956789
15183329 4 17131563816525917377
15301273 46 16877941638157124965
15419008 47 17894906304975566413
1577012 14 17988360468330397421
15840311 113 18334859446417025885
19301679 30 18053663578241262510
20157964 124 18412546534829009948
20721686 146 14907600369070397000
20771845 65 18201435836753987320
21130935 74 18262522606343129835
21315763 28 18412826876746653167
21344244 78 18201711822419725920
21792934 111 18202276975527995457
21792938 131 15213565755291529240
22149856 69 15625680362004186707
23559900 14 17748830747806905254
249057 25 17918003758645789873
249057 3 18342174462294960382
255183 451 17701275628681748726
3178227 256 18335699421487108882
397830 11 18116443716396106843
4073 2 18190182472012980579
4112364 45 16916774228329182152
44555599 121 18130236990982659857
4625314 4 18410009928199150489
5104073 3 18335419135593782411
57359948 33 12607409896514031016
58083652 198 18339063957470511253
58260988 587 17531819073361816884
6523845 18 16805315587522213618
68570916 9 18201433748925277255
9962374 69 18410284831069160334

>  <PUBCHEM_SHAPE_MULTIPOLES>  (1) 
600.67
26.63
3.18
1.34
60.25
3.27
-0.05
-7.37
-4.96
-10.01
-0.27
-0.2
-0.01
-1.19

>  <PUBCHEM_SHAPE_SELFOVERLAP>  (1) 
1291.478

>  <PUBCHEM_SHAPE_VOLUME>  (1) 
327.9

>  <PUBCHEM_COORDINATE_TYPE>  (1) 
2
5
10

$$$$
