19405
     RDKit          3D

 14 16  0  0  0  0  0  0  0  0999 V2000
    0.5171   -1.7199    0.0000 O   0  0  0  0  0  0  0  0  0  0  0  0
   -4.0063    1.4256   -0.0012 N   0  0  0  0  0  0  0  0  0  0  0  0
   -0.4659    0.3167    0.0002 C   0  0  0  0  0  0  0  0  0  0  0  0
    0.9479    0.5001    0.0001 C   0  0  0  0  0  0  0  0  0  0  0  0
   -0.6739   -1.0591    0.0001 C   0  0  0  0  0  0  0  0  0  0  0  0
    1.5001   -0.7770   -0.0002 C   0  0  0  0  0  0  0  0  0  0  0  0
   -1.5900    1.1631    0.0005 C   0  0  0  0  0  0  0  0  0  0  0  0
    1.8188    1.6054    0.0003 C   0  0  0  0  0  0  0  0  0  0  0  0
   -1.9318   -1.6596    0.0002 C   0  0  0  0  0  0  0  0  0  0  0  0
   -2.8680    0.5881    0.0002 C   0  0  0  0  0  0  0  0  0  0  0  0
    2.8694   -1.0367   -0.0005 C   0  0  0  0  0  0  0  0  0  0  0  0
   -3.0332   -0.7989    0.0003 C   0  0  0  0  0  0  0  0  0  0  0  0
    3.2011    1.3754    0.0003 C   0  0  0  0  0  0  0  0  0  0  0  0
    3.7148    0.0767   -0.0004 C   0  0  0  0  0  0  0  0  0  0  0  0
  1  5  1  0
  1  6  1  0
  2 10  1  0
  3  4  1  0
  3  5  2  0
  3  7  1  0
  4  6  2  0
  4  8  1  0
  5  9  1  0
  6 11  1  0
  7 10  2  0
  8 13  2  0
  9 12  2  0
 10 12  1  0
 11 14  2  0
 13 14  1  0
M  END
>  <PUBCHEM_COMPOUND_CID>  (1) 
19405

>  <PUBCHEM_CONFORMER_RMSD>  (1) 
0.4

>  <PUBCHEM_CONFORMER_DIVERSEORDER>  (1) 
1

>  <PUBCHEM_MMFF94_PARTIAL_CHARGES>  (1) 
21
1 -0.28
10 0.1
11 -0.15
12 -0.15
13 -0.15
14 -0.15
15 0.15
16 0.15
17 0.15
18 0.15
19 0.15
2 -0.9
20 0.15
21 0.15
22 0.4
23 0.4
5 0.14
6 0.14
7 -0.15
8 -0.15
9 -0.15

>  <PUBCHEM_EFFECTIVE_ROTOR_COUNT>  (1) 
0

>  <PUBCHEM_PHARMACOPHORE_FEATURES>  (1) 
6
1 1 acceptor
1 2 cation
1 2 donor
5 1 3 4 5 6 rings
6 3 5 7 9 10 12 rings
6 4 6 8 11 13 14 rings

>  <PUBCHEM_HEAVY_ATOM_COUNT>  (1) 
14

>  <PUBCHEM_ATOM_DEF_STEREO_COUNT>  (1) 
0

>  <PUBCHEM_ATOM_UDEF_STEREO_COUNT>  (1) 
0

>  <PUBCHEM_BOND_DEF_STEREO_COUNT>  (1) 
0

>  <PUBCHEM_BOND_UDEF_STEREO_COUNT>  (1) 
0

>  <PUBCHEM_ISOTOPIC_ATOM_COUNT>  (1) 
0

>  <PUBCHEM_COMPONENT_COUNT>  (1) 
1

>  <PUBCHEM_CACTVS_TAUTO_COUNT>  (1) 
1

>  <PUBCHEM_CONFORMER_ID>  (1) 
00004BCD00000001

>  <PUBCHEM_MMFF94_ENERGY>  (1) 
40.449

>  <PUBCHEM_FEATURE_SELFOVERLAP>  (1) 
30.647

>  <PUBCHEM_SHAPE_FINGERPRINT>  (1) 
10608611 8 18411416249776713552
10967382 1 18338797801686836420
11132069 177 18411412916982117376
11471102 20 18411415068602399189
11543360 7 15769482222823829605
12491281 212 18411430500451600873
13380535 21 18410302422959324638
13380535 76 18411417293601407567
13571099 22 18130792222383522774
14144814 61 18410011052557247226
14325111 11 18410574015279681632
14897335 6 18411978057437268925
15196674 1 18410856568256123908
15219456 202 18411985770977083855
15442244 35 18267021652898542794
15536298 74 18343021103722927340
15775835 57 18407763629167699324
16945 1 18338797797386685318
18186145 218 18412829057835912540
193761 8 17257652218720449638
19591789 44 15605414884660044534
200 152 17988634220918765527
20510252 161 18271249429673313033
20645477 70 18270961241431071351
21267235 1 18410582811325484430
21501502 16 18410289250368539318
2334 1 18338517567945118304
23402539 116 18201428173329661588
23402655 69 18270669875919975653
23463225 33 18407757032461741138
23559900 14 18272932718242024680
25 1 18337107873821449287
2748010 2 18410857710712163022
335352 9 18266458702744720150
5104073 3 18410292523101860866
528886 8 18410569582920755698
53812653 166 18412822486736344800
57096353 35 18267020750617742518
6333449 129 18411135861700710615
69090 78 18413102858064670407
7364860 26 18268993081505676302
8809292 202 18333736822747563370
9709674 26 18412268367041005430

>  <PUBCHEM_SHAPE_MULTIPOLES>  (1) 
277.26
6.2
1.82
0.6
0.38
0.06
0
-1.52
0
0.24
0
-0.02
0
0

>  <PUBCHEM_SHAPE_SELFOVERLAP>  (1) 
630.448

>  <PUBCHEM_SHAPE_VOLUME>  (1) 
147.3

>  <PUBCHEM_COORDINATE_TYPE>  (1) 
2
5
10

$$$$
