19409
     RDKit          3D

 11 11  0  0  0  0  0  0  0  0999 V2000
    5.0313   -0.0553   -0.1276 S   0  0  0  0  0  0  0  0  0  0  0  0
    2.2960    0.0389   -0.5252 N   0  0  0  0  0  0  0  0  0  0  0  0
    0.0195    0.0204    0.4008 C   0  0  0  0  0  0  0  0  0  0  0  0
   -2.7148   -0.0159   -0.1518 C   0  0  0  0  0  0  0  0  0  0  0  0
   -0.6784    1.2192    0.2528 C   0  0  0  0  0  0  0  0  0  0  0  0
   -0.6500   -1.1966    0.2723 C   0  0  0  0  0  0  0  0  0  0  0  0
   -2.0455    1.2011   -0.0234 C   0  0  0  0  0  0  0  0  0  0  0  0
   -2.0172   -1.2147   -0.0040 C   0  0  0  0  0  0  0  0  0  0  0  0
    1.4812    0.0394    0.6962 C   0  0  0  0  0  0  0  0  0  0  0  0
   -4.1762   -0.0352   -0.4481 C   0  0  0  0  0  0  0  0  0  0  0  0
    3.4540   -0.0013   -0.3422 C   0  0  0  0  0  0  0  0  0  0  0  0
  1 11  2  0
  2  9  1  0
  2 11  2  0
  3  5  2  0
  3  6  1  0
  3  9  1  0
  4  7  2  0
  4  8  1  0
  4 10  1  0
  5  7  1  0
  6  8  2  0
M  END
>  <PUBCHEM_COMPOUND_CID>  (1) 
19409

>  <PUBCHEM_CONFORMER_RMSD>  (1) 
0.4

>  <PUBCHEM_CONFORMER_DIVERSEORDER>  (1) 
1
15
16
3
10
14
2
6
4
7
12
11
9
8
5
13

>  <PUBCHEM_MMFF94_PARTIAL_CHARGES>  (1) 
15
1 -0.27
10 0.14
11 0.57
12 0.15
13 0.15
14 0.15
15 0.15
2 -0.55
3 -0.14
4 -0.14
5 -0.15
6 -0.15
7 -0.15
8 -0.15
9 0.39

>  <PUBCHEM_EFFECTIVE_ROTOR_COUNT>  (1) 
2

>  <PUBCHEM_PHARMACOPHORE_FEATURES>  (1) 
3
1 1 acceptor
1 2 acceptor
6 3 4 5 6 7 8 rings

>  <PUBCHEM_HEAVY_ATOM_COUNT>  (1) 
11

>  <PUBCHEM_ATOM_DEF_STEREO_COUNT>  (1) 
0

>  <PUBCHEM_ATOM_UDEF_STEREO_COUNT>  (1) 
0

>  <PUBCHEM_BOND_DEF_STEREO_COUNT>  (1) 
0

>  <PUBCHEM_BOND_UDEF_STEREO_COUNT>  (1) 
0

>  <PUBCHEM_ISOTOPIC_ATOM_COUNT>  (1) 
0

>  <PUBCHEM_COMPONENT_COUNT>  (1) 
1

>  <PUBCHEM_CACTVS_TAUTO_COUNT>  (1) 
1

>  <PUBCHEM_CONFORMER_ID>  (1) 
00004BD100000001

>  <PUBCHEM_MMFF94_ENERGY>  (1) 
22.0894

>  <PUBCHEM_FEATURE_SELFOVERLAP>  (1) 
15.228

>  <PUBCHEM_SHAPE_FINGERPRINT>  (1) 
11062470 55 16702304550734019770
12032990 46 18340769359765188883
12119455 92 13840260403160058795
13024252 1 17603871113236332059
14911166 2 18410847776996113405
14993402 34 18040712571772274165
16945 1 18338504301350271393
187816 3 18410854365180520211
200 152 16702301247909463390
20201158 50 17989211442885156430
20279233 1 17846504738037067862
20645476 183 17749103417853135507
20645477 70 17346043260549019878
21119208 17 18040435494900031878
21293036 1 18408601465818342397
22485316 2 16917066650908088886
23402539 116 18341606005902821693
23559900 14 18341328972876992536
2748010 2 18049710017520178771
366044 4 18408040710540812691
449060 50 8790884077940931154

>  <PUBCHEM_SHAPE_MULTIPOLES>  (1) 
225.24
8.12
1.15
0.74
7.92
0
0.02
-0.17
-1.67
-0.71
0.07
0.09
0
0

>  <PUBCHEM_SHAPE_SELFOVERLAP>  (1) 
451.957

>  <PUBCHEM_SHAPE_VOLUME>  (1) 
132.9

>  <PUBCHEM_COORDINATE_TYPE>  (1) 
2
5
10

$$$$
