19403
     RDKit          3D

 15 15  0  0  0  0  0  0  0  0999 V2000
   -2.0965    0.2265   -0.8691 O   0  0  0  0  0  0  0  0  0  0  0  0
    2.6512    0.2883   -0.3786 O   0  0  0  0  0  0  0  0  0  0  0  0
   -2.2574   -0.7805    1.2204 O   0  0  0  0  0  0  0  0  0  0  0  0
   -3.8389   -1.1986   -0.4247 N   0  0  0  0  0  0  0  0  0  0  0  0
   -0.9628    0.8523   -0.4506 C   0  0  0  0  0  0  0  0  0  0  0  0
    1.4402    0.8837   -0.2024 C   0  0  0  0  0  0  0  0  0  0  0  0
    0.2784    0.2423   -0.6319 C   0  0  0  0  0  0  0  0  0  0  0  0
   -1.0423    2.1038    0.1604 C   0  0  0  0  0  0  0  0  0  0  0  0
    1.3607    2.1350    0.4087 C   0  0  0  0  0  0  0  0  0  0  0  0
    0.1195    2.7450    0.5900 C   0  0  0  0  0  0  0  0  0  0  0  0
    2.6810   -1.1382   -0.3698 C   0  0  0  0  0  0  0  0  0  0  0  0
   -2.7014   -0.6104    0.0887 C   0  0  0  0  0  0  0  0  0  0  0  0
   -4.6740   -2.1094    0.3232 C   0  0  0  0  0  0  0  0  0  0  0  0
    3.9862   -1.6209    0.0825 C   0  0  0  0  0  0  0  0  0  0  0  0
    5.0563   -2.0188    0.4535 C   0  0  0  0  0  0  0  0  0  0  0  0
  1  5  1  0
  1 12  1  0
  2  6  1  0
  2 11  1  0
  3 12  2  0
  4 12  1  0
  4 13  1  0
  5  7  2  0
  5  8  1  0
  6  7  1  0
  6  9  2  0
  8 10  2  0
  9 10  1  0
 11 14  1  0
 14 15  3  0
M  END
>  <PUBCHEM_COMPOUND_CID>  (1) 
19403

>  <PUBCHEM_CONFORMER_RMSD>  (1) 
0.6

>  <PUBCHEM_CONFORMER_DIVERSEORDER>  (1) 
1
120
194
265
127
85
221
170
241
34
203
130
51
240
233
129
138
237
103
168
250
71
201
167
246
248
220
267
116
189
32
269
179
84
264
173
180
70
216
146
235
223
93
55
262
211
242
151
270
128
208
219
30
162
125
14
175
213
252
191
135
255
244
149
231
47
257
75
88
259
63
247
65
181
147
13
50
230
210
74
59
186
140
122
76
95
209
214
196
69
236
254
178
114
234
90
183
187
200
86
155
198
258
97
57
260
143
18
226
23
98
91
228
54
82
141
145
16
185
99
199
37
192
212
52
96
157
249
27
113
165
169
215
232
46
53
119
205
39
159
256
106
78
58
153
193
266
156
204
160
100
108
83
92
68
17
144
89
195
80
49
206
29
207
261
164
218
60
172
67
87
40
19
45
137
10
9
197
238
217
268
154
94
102
72
22
12
190
225
48
161
61
222
44
109
142
77
134
4
123
133
263
11
64
26
188
6
131
15
174
253
182
38
150
28
25
124
139
36
33
126
43
24
224
104
158
42
110
152
7
111
243
5
79
176
229
56
239
105
115
35
117
73
101
31
202
251
20
41
227
66
132
8
121
3
112
118
245
107
2
166
136
184
148
81
163
177
62
21
171

>  <PUBCHEM_MMFF94_PARTIAL_CHARGES>  (1) 
21
1 -0.23
10 -0.15
11 0.48
12 0.78
13 0.3
14 -0.2
15 -0.18
16 0.15
17 0.15
18 0.15
19 0.15
2 -0.36
22 0.37
26 0.18
3 -0.57
4 -0.73
5 0.08
6 0.08
7 -0.15
8 -0.15
9 -0.15

>  <PUBCHEM_EFFECTIVE_ROTOR_COUNT>  (1) 
5

>  <PUBCHEM_PHARMACOPHORE_FEATURES>  (1) 
5
1 15 hydrophobe
1 2 acceptor
1 3 acceptor
1 4 donor
6 5 6 7 8 9 10 rings

>  <PUBCHEM_HEAVY_ATOM_COUNT>  (1) 
15

>  <PUBCHEM_ATOM_DEF_STEREO_COUNT>  (1) 
0

>  <PUBCHEM_ATOM_UDEF_STEREO_COUNT>  (1) 
0

>  <PUBCHEM_BOND_DEF_STEREO_COUNT>  (1) 
0

>  <PUBCHEM_BOND_UDEF_STEREO_COUNT>  (1) 
0

>  <PUBCHEM_ISOTOPIC_ATOM_COUNT>  (1) 
0

>  <PUBCHEM_COMPONENT_COUNT>  (1) 
1

>  <PUBCHEM_CACTVS_TAUTO_COUNT>  (1) 
2

>  <PUBCHEM_CONFORMER_ID>  (1) 
00004BCB00000001

>  <PUBCHEM_MMFF94_ENERGY>  (1) 
41.4947

>  <PUBCHEM_FEATURE_SELFOVERLAP>  (1) 
25.371

>  <PUBCHEM_SHAPE_FINGERPRINT>  (1) 
11357001 24 18196657285192638488
11769659 78 18334860493787678500
12363563 72 18410862048782437542
12507560 14 18201441419330633655
12553582 1 18202002148696325238
12824470 246 18041554720575642986
13140716 1 18272370815528017992
13533116 47 18196096771166351083
13955234 65 17979922936310631289
14251731 5 18409450297184830259
14252887 29 18265048218331328793
15342168 16 9583527512026017619
15352361 1 18409729551795551530
15375462 189 18200030775813262612
17841504 4 18341613754124283985
18186145 218 12685394932500290710
20281475 54 18408611378497548477
20374829 77 18187641392934633255
20645477 70 18192701461800061775
20671657 53 18410296942902834309
20832881 197 18408045117709800803
20871998 184 17844521111628284100
20871998 22 18411695529967172224
21296965 67 18412543202087414376
21452121 199 18335697260986592824
23403322 49 18261390018433644326
23526113 38 17895478158147758761
23559900 14 18338505332359076912
3086196 2 18269271262437130064
3421961 26 18340485685263881011
4416823 128 18409448089566086054
5493415 88 18411695470074805468
76465 3 18412259571195701687

>  <PUBCHEM_SHAPE_MULTIPOLES>  (1) 
286.1
8.27
2.93
0.84
2.03
1.02
0.06
-10.3
0.96
0.06
0.66
-0.18
-0.01
0.05

>  <PUBCHEM_SHAPE_SELFOVERLAP>  (1) 
584.61

>  <PUBCHEM_SHAPE_VOLUME>  (1) 
163.1

>  <PUBCHEM_COORDINATE_TYPE>  (1) 
2
5
10

$$$$
