19400
     RDKit          3D

 16 16  0  0  0  0  0  0  0  0999 V2000
    0.7522    1.0501   -1.4742 O   0  0  0  0  0  0  0  0  0  0  0  0
   -3.4884    0.0614   -0.0420 N   0  0  0  0  0  0  0  0  0  0  0  0
    0.1389   -0.7645   -0.1658 N   0  0  0  0  0  0  0  0  0  0  0  0
   -2.0880    0.0779    0.3792 C   0  0  0  0  0  0  0  0  0  0  0  0
   -4.2923    0.9243    0.8227 C   0  0  0  0  0  0  0  0  0  0  0  0
   -4.0103   -1.3047   -0.0284 C   0  0  0  0  0  0  0  0  0  0  0  0
   -1.2472   -0.7894   -0.5461 C   0  0  0  0  0  0  0  0  0  0  0  0
   -3.7641    2.3489    0.8208 C   0  0  0  0  0  0  0  0  0  0  0  0
   -5.4465   -1.3486   -0.5219 C   0  0  0  0  0  0  0  0  0  0  0  0
    1.0386    0.1679   -0.6691 C   0  0  0  0  0  0  0  0  0  0  0  0
    2.4417    0.0436   -0.1973 C   0  0  0  0  0  0  0  0  0  0  0  0
    3.4598    0.5022   -1.0073 C   0  0  0  0  0  0  0  0  0  0  0  0
    2.6818   -0.5260    1.0360 C   0  0  0  0  0  0  0  0  0  0  0  0
    4.7773    0.3857   -0.5644 C   0  0  0  0  0  0  0  0  0  0  0  0
    3.9994   -0.6423    1.4790 C   0  0  0  0  0  0  0  0  0  0  0  0
    5.0470   -0.1864    0.6787 C   0  0  0  0  0  0  0  0  0  0  0  0
  1 10  2  0
  2  4  1  0
  2  5  1  0
  2  6  1  0
  3  7  1  0
  3 10  1  0
  4  7  1  0
  5  8  1  0
  6  9  1  0
 10 11  1  0
 11 12  2  0
 11 13  1  0
 12 14  1  0
 13 15  2  0
 14 16  2  0
 15 16  1  0
M  END
>  <PUBCHEM_COMPOUND_CID>  (1) 
19400

>  <PUBCHEM_CONFORMER_RMSD>  (1) 
0.8

>  <PUBCHEM_CONFORMER_DIVERSEORDER>  (1) 
2
5
29
24
19
8
7
17
4
10
16
28
26
9
11
25
20
15
22
3
27
21
1
18
12
14
6
13
23

>  <PUBCHEM_MMFF94_PARTIAL_CHARGES>  (1) 
20
1 -0.57
10 0.54
11 0.09
12 -0.15
13 -0.15
14 -0.15
15 -0.15
16 -0.15
2 -0.81
3 -0.73
31 0.37
32 0.15
33 0.15
34 0.15
35 0.15
36 0.15
4 0.27
5 0.27
6 0.27
7 0.3

>  <PUBCHEM_EFFECTIVE_ROTOR_COUNT>  (1) 
7

>  <PUBCHEM_PHARMACOPHORE_FEATURES>  (1) 
4
1 1 acceptor
1 2 cation
1 3 donor
6 11 12 13 14 15 16 rings

>  <PUBCHEM_HEAVY_ATOM_COUNT>  (1) 
16

>  <PUBCHEM_ATOM_DEF_STEREO_COUNT>  (1) 
0

>  <PUBCHEM_ATOM_UDEF_STEREO_COUNT>  (1) 
0

>  <PUBCHEM_BOND_DEF_STEREO_COUNT>  (1) 
0

>  <PUBCHEM_BOND_UDEF_STEREO_COUNT>  (1) 
0

>  <PUBCHEM_ISOTOPIC_ATOM_COUNT>  (1) 
0

>  <PUBCHEM_COMPONENT_COUNT>  (1) 
1

>  <PUBCHEM_CACTVS_TAUTO_COUNT>  (1) 
2

>  <PUBCHEM_CONFORMER_ID>  (1) 
00004BC800000002

>  <PUBCHEM_MMFF94_ENERGY>  (1) 
30.6797

>  <PUBCHEM_FEATURE_SELFOVERLAP>  (1) 
20.297

>  <PUBCHEM_SHAPE_FINGERPRINT>  (1) 
10680689 15 17203607099394827951
10912923 1 18260268555275062640
11287383 113 15339119078150813159
11471102 20 16877660188871207110
12107183 9 17759236293464975459
12236239 1 18261109690233982399
12403259 415 16774080673873965657
12500047 106 17489866051050517430
12596602 18 18409444812727624800
12670546 56 18259701215854775084
13583140 156 17274813632440671391
13675066 3 17704354368238500534
13760787 5 17168150039378666350
14123238 8 18334575762951528686
14252887 29 16515686611489879186
14573314 32 17846224323684969494
17834072 33 17895192254848911934
17844677 252 17988929989288349912
17862501 102 18335699472873488727
19433438 28 17561362893915406851
19489759 90 18272931618239858051
200 152 17822284713164715783
20432913 95 16443348662881553609
20645477 56 16774074102658476831
20645477 70 16588009204678128850
21033648 29 16702010959591368211
21065198 48 18334856095593435442
21065201 7 18059583472433350575
22485316 2 12107783016727958072
231179 274 16630522912866654474
23402539 116 18341889715027371823
23557571 272 17560532750231646733
26918003 58 15285354029109926688
2871803 45 15647042747243799914
3268164 11 17918267650226837333
341906 21 18201999893580025168
542803 24 18411984671597279398
573450 72 18409164398739555307

>  <PUBCHEM_SHAPE_MULTIPOLES>  (1) 
313.44
12.71
1.45
1.2
2.91
0.65
-0.05
-0.63
-1.84
2.77
-0.15
-1.16
0.1
-1.23

>  <PUBCHEM_SHAPE_SELFOVERLAP>  (1) 
627.595

>  <PUBCHEM_SHAPE_VOLUME>  (1) 
186.1

>  <PUBCHEM_COORDINATE_TYPE>  (1) 
2
5
10

$$$$
