19417
     RDKit          3D

 17 18  0  0  0  0  0  0  0  0999 V2000
    5.9919    0.0118    0.0042 Cl  0  0  0  0  0  0  0  0  0  0  0  0
   -0.1131   -2.7338    0.2852 N   0  0  0  0  0  0  0  0  0  0  0  0
   -2.3176    0.0132   -0.0033 C   0  0  0  0  0  0  0  0  0  0  0  0
    1.5123    0.5361   -0.0589 C   0  0  0  0  0  0  0  0  0  0  0  0
   -0.8696   -0.2707    0.0224 C   0  0  0  0  0  0  0  0  0  0  0  0
    0.0679    0.7057   -0.0795 C   0  0  0  0  0  0  0  0  0  0  0  0
    2.2040    0.5920    1.1510 C   0  0  0  0  0  0  0  0  0  0  0  0
    2.2059    0.3181   -1.2494 C   0  0  0  0  0  0  0  0  0  0  0  0
   -2.9769    0.2725    1.1861 C   0  0  0  0  0  0  0  0  0  0  0  0
   -2.9851    0.0146   -1.2161 C   0  0  0  0  0  0  0  0  0  0  0  0
    3.5894    0.4301    1.1706 C   0  0  0  0  0  0  0  0  0  0  0  0
    3.5912    0.1560   -1.2298 C   0  0  0  0  0  0  0  0  0  0  0  0
   -4.3456    0.5414    1.1619 C   0  0  0  0  0  0  0  0  0  0  0  0
   -4.3535    0.2836   -1.2403 C   0  0  0  0  0  0  0  0  0  0  0  0
    4.2829    0.2120   -0.0199 C   0  0  0  0  0  0  0  0  0  0  0  0
   -5.0337    0.5469   -0.0513 C   0  0  0  0  0  0  0  0  0  0  0  0
   -0.4505   -1.6296    0.1672 C   0  0  0  0  0  0  0  0  0  0  0  0
  1 15  1  0
  2 17  3  0
  3  5  1  0
  3  9  2  0
  3 10  1  0
  4  6  1  0
  4  7  2  0
  4  8  1  0
  5  6  2  0
  5 17  1  0
  7 11  1  0
  8 12  2  0
  9 13  1  0
 10 14  2  0
 11 15  2  0
 12 15  1  0
 13 16  2  0
 14 16  1  0
M  END
>  <PUBCHEM_COMPOUND_CID>  (1) 
19417

>  <PUBCHEM_CONFORMER_RMSD>  (1) 
0.6

>  <PUBCHEM_CONFORMER_DIVERSEORDER>  (1) 
1
3
2

>  <PUBCHEM_MMFF94_PARTIAL_CHARGES>  (1) 
27
1 -0.18
10 -0.15
11 -0.15
12 -0.15
13 -0.15
14 -0.15
15 0.18
16 -0.15
17 0.49
18 0.15
19 0.15
2 -0.56
20 0.15
21 0.15
22 0.15
23 0.15
24 0.15
25 0.15
26 0.15
27 0.15
3 0.03
4 0.03
5 0.04
6 -0.18
7 -0.15
8 -0.15
9 -0.15

>  <PUBCHEM_EFFECTIVE_ROTOR_COUNT>  (1) 
2

>  <PUBCHEM_PHARMACOPHORE_FEATURES>  (1) 
3
1 2 acceptor
6 3 9 10 13 14 16 rings
6 4 7 8 11 12 15 rings

>  <PUBCHEM_HEAVY_ATOM_COUNT>  (1) 
17

>  <PUBCHEM_ATOM_DEF_STEREO_COUNT>  (1) 
0

>  <PUBCHEM_ATOM_UDEF_STEREO_COUNT>  (1) 
0

>  <PUBCHEM_BOND_DEF_STEREO_COUNT>  (1) 
0

>  <PUBCHEM_BOND_UDEF_STEREO_COUNT>  (1) 
1

>  <PUBCHEM_ISOTOPIC_ATOM_COUNT>  (1) 
0

>  <PUBCHEM_COMPONENT_COUNT>  (1) 
1

>  <PUBCHEM_CACTVS_TAUTO_COUNT>  (1) 
1

>  <PUBCHEM_CONFORMER_ID>  (1) 
00004BD900000001

>  <PUBCHEM_MMFF94_ENERGY>  (1) 
49.9142

>  <PUBCHEM_FEATURE_SELFOVERLAP>  (1) 
15.223

>  <PUBCHEM_SHAPE_FINGERPRINT>  (1) 
10906281 52 17845672442221453176
11370993 70 16056879130559541437
12107183 9 15622318990978996618
12119455 92 18040433291676910327
12592029 89 17749391433864383338
128620 24 10879996869356040184
13167823 11 16056879126201335285
13533116 47 18130787799200723738
13583140 156 16008741438012250311
13675066 3 17385720322594531160
13760787 19 16153425056013485569
14115302 16 18336272322942590908
14341114 176 15430038729654222389
15309172 13 18260268559854911931
15375358 24 17917997208978736342
17834072 33 15140685795116985076
18186145 218 18272928340910870249
187816 3 18202002131294669048
19489759 90 15554447387925995498
200 152 13686301270406395452
20279233 1 17632585976256023902
204376 136 18334577957964789987
20645477 70 15864340308314885904
20681677 155 18041279967533863610
21033648 29 18189877825260849060
21267235 1 16056884662393100101
21618674 57 18060701680660245690
23402539 116 17917990568395177648
23402655 69 16559037073085595464
23536379 177 16343987987649822754
23559900 14 15410889660972532674
26918003 58 13830130598423039932
351380 180 17203888565581254432
3545911 37 16128658548197936777
366044 4 18409729568864358675
4214541 1 16200434663117200153
465052 167 17313684749017415187
474 4 17917141814101192369
4990 188 17704073988436265287
542803 24 18060421330622250256
59755656 520 18342737421059686959
633830 44 18202566185334428961
67856867 119 16199856371519550984
69090 78 17203888569749452333
77779 3 16128657453039317997
81228 2 17686616149243688067
81539 233 17894908490860555963
8272917 22 16660917773249320931
9709674 26 15985110733907616197
9971528 1 17847059991462232024

>  <PUBCHEM_SHAPE_MULTIPOLES>  (1) 
346.74
11.45
1.31
1.24
3.23
0.05
1.16
0.2
-2.5
-0.27
-0.2
-0.17
-0.11
-0.01

>  <PUBCHEM_SHAPE_SELFOVERLAP>  (1) 
738.381

>  <PUBCHEM_SHAPE_VOLUME>  (1) 
191.4

>  <PUBCHEM_COORDINATE_TYPE>  (1) 
2
5
10

$$$$
