19410
     RDKit          3D

 11 11  0  0  0  0  0  0  0  0999 V2000
    4.7029   -0.0367    0.5115 I   0  0  0  0  0  0  0  0  0  0  0  0
   -5.0816   -0.0572    0.1685 S   0  0  0  0  0  0  0  0  0  0  0  0
   -2.3424    0.0373    0.5376 N   0  0  0  0  0  0  0  0  0  0  0  0
   -0.0757    0.0200   -0.4121 C   0  0  0  0  0  0  0  0  0  0  0  0
   -1.5404    0.0389   -0.6922 C   0  0  0  0  0  0  0  0  0  0  0  0
    0.6215    1.2196   -0.2695 C   0  0  0  0  0  0  0  0  0  0  0  0
    0.5966   -1.1962   -0.2913 C   0  0  0  0  0  0  0  0  0  0  0  0
    1.9912    1.2031   -0.0061 C   0  0  0  0  0  0  0  0  0  0  0  0
    1.9664   -1.2128   -0.0278 C   0  0  0  0  0  0  0  0  0  0  0  0
    2.6637   -0.0131    0.1148 C   0  0  0  0  0  0  0  0  0  0  0  0
   -3.5022   -0.0030    0.3667 C   0  0  0  0  0  0  0  0  0  0  0  0
  1 10  1  0
  2 11  2  0
  3  5  1  0
  3 11  2  0
  4  5  1  0
  4  6  2  0
  4  7  1  0
  6  8  1  0
  7  9  2  0
  8 10  2  0
  9 10  1  0
M  END
>  <PUBCHEM_COMPOUND_CID>  (1) 
19410

>  <PUBCHEM_CONFORMER_RMSD>  (1) 
0.4

>  <PUBCHEM_CONFORMER_DIVERSEORDER>  (1) 
1
11
10
12
6
2
9
7
5
13
4
8
3

>  <PUBCHEM_MMFF94_PARTIAL_CHARGES>  (1) 
15
1 -0.08
10 0.08
11 0.57
14 0.15
15 0.15
16 0.15
17 0.15
2 -0.27
3 -0.55
4 -0.14
5 0.39
6 -0.15
7 -0.15
8 -0.15
9 -0.15

>  <PUBCHEM_EFFECTIVE_ROTOR_COUNT>  (1) 
2

>  <PUBCHEM_PHARMACOPHORE_FEATURES>  (1) 
4
1 1 hydrophobe
1 2 acceptor
1 3 acceptor
6 4 6 7 8 9 10 rings

>  <PUBCHEM_HEAVY_ATOM_COUNT>  (1) 
11

>  <PUBCHEM_ATOM_DEF_STEREO_COUNT>  (1) 
0

>  <PUBCHEM_ATOM_UDEF_STEREO_COUNT>  (1) 
0

>  <PUBCHEM_BOND_DEF_STEREO_COUNT>  (1) 
0

>  <PUBCHEM_BOND_UDEF_STEREO_COUNT>  (1) 
0

>  <PUBCHEM_ISOTOPIC_ATOM_COUNT>  (1) 
0

>  <PUBCHEM_COMPONENT_COUNT>  (1) 
1

>  <PUBCHEM_CACTVS_TAUTO_COUNT>  (1) 
1

>  <PUBCHEM_CONFORMER_ID>  (1) 
00004BD200000001

>  <PUBCHEM_MMFF94_ENERGY>  (1) 
21.0191

>  <PUBCHEM_FEATURE_SELFOVERLAP>  (1) 
20.302

>  <PUBCHEM_SHAPE_FINGERPRINT>  (1) 
10219947 1 18409732863082844364
11471102 20 18409729564579681092
12032990 46 18335702685704140022
12251169 10 18411136952400935595
12346645 6 18131072610512163142
13922767 16 18412824698491631777
14252887 29 18340494378462629090
14943859 89 15482669091437743398
15048467 5 16559026117351692664
16945 1 18338784672562578484
18342897 14 18411136939695381888
187816 3 8862942797086126350
200 152 18272362075759453389
20201158 50 18186524289067857691
20279233 1 17822017501621375419
20645477 70 18337669711938036479
20871998 22 18267870480207258398
22485316 2 17022619784243703771
23402539 116 17385434432570704087
23402655 69 18342734084038617261
23557571 272 16226040051023165782
26918003 58 18334297578626427979
2748010 2 18051400778688349502
4047638 21 14979956986535311962

>  <PUBCHEM_SHAPE_MULTIPOLES>  (1) 
237.18
9.29
1.15
0.79
5.96
0.01
-0.02
-0.22
-2.39
-0.66
0.08
-0.02
0
0.01

>  <PUBCHEM_SHAPE_SELFOVERLAP>  (1) 
456.184

>  <PUBCHEM_SHAPE_VOLUME>  (1) 
148

>  <PUBCHEM_COORDINATE_TYPE>  (1) 
2
5
10

$$$$
