1941
     RDKit          3D

 26 29  0  0  0  0  0  0  0  0999 V2000
    0.6879    3.3982   -0.0630 O   0  0  0  0  0  0  0  0  0  0  0  0
    3.0792    3.2679   -0.1398 O   0  0  0  0  0  0  0  0  0  0  0  0
   -3.8720   -1.6091    0.2064 O   0  0  0  0  0  0  0  0  0  0  0  0
   -5.3660    0.6754    0.2047 O   0  0  0  0  0  0  0  0  0  0  0  0
    3.5812   -1.9124    1.2219 O   0  0  0  0  0  0  0  0  0  0  0  0
    3.6148   -2.1258   -1.0408 O   0  0  0  0  0  0  0  0  0  0  0  0
    1.1235   -3.3521   -1.0201 O   0  0  0  0  0  0  0  0  0  0  0  0
    1.1973   -3.3021    1.1733 O   0  0  0  0  0  0  0  0  0  0  0  0
    0.9065   -2.7834    0.0727 N   0  0  0  0  0  0  0  0  0  0  0  0
    0.2895    0.9516    0.0074 C   0  0  0  0  0  0  0  0  0  0  0  0
    1.0017   -0.2820    0.0122 C   0  0  0  0  0  0  0  0  0  0  0  0
   -1.1605    0.9264    0.0567 C   0  0  0  0  0  0  0  0  0  0  0  0
    1.1111    2.0983   -0.0467 C   0  0  0  0  0  0  0  0  0  0  0  0
   -1.8248   -0.3283    0.1080 C   0  0  0  0  0  0  0  0  0  0  0  0
    0.3030   -1.4893    0.0635 C   0  0  0  0  0  0  0  0  0  0  0  0
    2.4150   -0.3172   -0.0342 C   0  0  0  0  0  0  0  0  0  0  0  0
    2.4918    2.0408   -0.0914 C   0  0  0  0  0  0  0  0  0  0  0  0
   -1.0860   -1.5126    0.1105 C   0  0  0  0  0  0  0  0  0  0  0  0
    3.1721    0.8485   -0.0865 C   0  0  0  0  0  0  0  0  0  0  0  0
   -1.9959    2.0732    0.0585 C   0  0  0  0  0  0  0  0  0  0  0  0
   -3.2277   -0.4021    0.1573 C   0  0  0  0  0  0  0  0  0  0  0  0
    1.9270    4.1240   -0.1212 C   0  0  0  0  0  0  0  0  0  0  0  0
   -4.0076    0.7486    0.1574 C   0  0  0  0  0  0  0  0  0  0  0  0
   -3.3911    1.9875    0.1079 C   0  0  0  0  0  0  0  0  0  0  0  0
    3.2467   -1.5209   -0.0347 C   0  0  0  0  0  0  0  0  0  0  0  0
   -4.2167   -2.2032   -1.0400 C   0  0  0  0  0  0  0  0  0  0  0  0
  1 13  1  0
  1 22  1  0
  2 17  1  0
  2 22  1  0
  3 21  1  0
  3 26  1  0
  4 23  1  0
  5 25  1  0
  6 25  2  0
  7  9  1  0
  8  9  2  0
  9 15  1  0
 10 11  1  0
 10 12  1  0
 10 13  2  0
 11 15  1  0
 11 16  2  0
 12 14  2  0
 12 20  1  0
 13 17  1  0
 14 18  1  0
 14 21  1  0
 15 18  2  0
 16 19  1  0
 16 25  1  0
 17 19  2  0
 20 24  2  0
 21 23  2  0
 23 24  1  0
M  CHG  2   7  -1   9   1
M  END
>  <PUBCHEM_COMPOUND_CID>  (1) 
1941

>  <PUBCHEM_CONFORMER_RMSD>  (1) 
0.8

>  <PUBCHEM_CONFORMER_DIVERSEORDER>  (1) 
1

>  <PUBCHEM_MMFF94_PARTIAL_CHARGES>  (1) 
28
1 -0.36
13 0.08
15 0.13
16 0.09
17 0.08
18 -0.15
19 -0.15
2 -0.36
20 -0.15
21 0.08
22 0.56
23 0.08
24 -0.15
25 0.63
26 0.28
27 0.15
28 0.15
29 0.15
3 -0.36
32 0.15
33 0.45
37 0.5
4 -0.53
5 -0.65
6 -0.57
7 -0.52
8 -0.52
9 0.91

>  <PUBCHEM_EFFECTIVE_ROTOR_COUNT>  (1) 
3.6

>  <PUBCHEM_PHARMACOPHORE_FEATURES>  (1) 
14
1 1 acceptor
1 2 acceptor
1 3 acceptor
1 4 donor
1 5 acceptor
1 6 acceptor
1 7 acceptor
1 7 anion
1 8 acceptor
3 5 6 25 anion
5 1 2 13 17 22 rings
6 10 11 12 14 15 18 rings
6 10 11 13 16 17 19 rings
6 12 14 20 21 23 24 rings

>  <PUBCHEM_HEAVY_ATOM_COUNT>  (1) 
26

>  <PUBCHEM_ATOM_DEF_STEREO_COUNT>  (1) 
0

>  <PUBCHEM_ATOM_UDEF_STEREO_COUNT>  (1) 
0

>  <PUBCHEM_BOND_DEF_STEREO_COUNT>  (1) 
0

>  <PUBCHEM_BOND_UDEF_STEREO_COUNT>  (1) 
0

>  <PUBCHEM_ISOTOPIC_ATOM_COUNT>  (1) 
0

>  <PUBCHEM_COMPONENT_COUNT>  (1) 
1

>  <PUBCHEM_CACTVS_TAUTO_COUNT>  (1) 
3

>  <PUBCHEM_CONFORMER_ID>  (1) 
0000079500000001

>  <PUBCHEM_MMFF94_ENERGY>  (1) 
116.6259

>  <PUBCHEM_FEATURE_SELFOVERLAP>  (1) 
71.403

>  <PUBCHEM_SHAPE_FINGERPRINT>  (1) 
10319926 262 16679757669486850970
10411042 1 17905891375277412395
10616163 171 18339927138010809455
10967382 1 18410294683491794624
1100329 8 18410012104892949563
11135609 187 17690551306202857981
12403259 226 18261670381277615085
12403260 363 18338788043573907019
12553582 1 18193838128540750438
12788726 201 16967723647107577626
13140716 1 18338509738684182576
138480 1 18338237059621197672
14178342 30 18341319011898696385
14223421 5 18335989778160281929
14790565 3 18264498441549811772
15042514 8 17760643668934181570
15196674 1 18410856603138212153
15442244 35 18411420574882685681
16087824 20 17690003332458331177
16945 1 18049722910822188112
17492 89 18341050808740545983
18681886 176 18342451547983841066
19591789 44 17978795928006644857
19930381 70 18338233894293649545
20691752 17 17749103404994100571
21197605 99 17688884450501612051
21267235 1 18267032669516336011
221490 88 18337117842572464115
2255824 54 18410295821789918884
2334 1 18410294735390013848
23366157 5 18114462357102599396
23558518 356 17901949965156511186
23559900 14 18413102853485074353
2748010 2 18410007719916118828
3091708 16 9432730582981792088
314173 41 18338524018980858638
335352 9 18338799988284295293
34934 24 18193833734979422547
350125 39 18337675316316450048
352729 6 17616257317512673000
474 4 18410293648678885673
5104073 3 18410015451115527025
5939293 188 18410572860297423938
6443956 14 18337677403781059628
7364860 26 18411421704348230189
7832392 63 18267866082039161449
9709674 26 18337396044852835875
9981440 41 17833263495291836336

>  <PUBCHEM_SHAPE_MULTIPOLES>  (1) 
483.13
7.56
4.6
0.79
6.79
0.97
0.01
-0.31
0.3
-3.48
0.23
-0.14
-0.49
-0.61

>  <PUBCHEM_SHAPE_SELFOVERLAP>  (1) 
1103.687

>  <PUBCHEM_SHAPE_VOLUME>  (1) 
249.7

>  <PUBCHEM_COORDINATE_TYPE>  (1) 
2
5
10

$$$$
