19413
     RDKit          3D

 13 13  0  0  0  0  0  0  0  0999 V2000
    3.9409   -1.7865   -0.9177 N   0  0  0  0  0  0  0  0  0  0  0  0
    2.6782    2.3736    0.1057 N   0  0  0  0  0  0  0  0  0  0  0  0
   -1.3557    0.0862    0.5385 C   0  0  0  0  0  0  0  0  0  0  0  0
   -0.0566    0.2113    1.2605 C   0  0  0  0  0  0  0  0  0  0  0  0
   -1.6619    0.9623   -0.5029 C   0  0  0  0  0  0  0  0  0  0  0  0
   -2.2643   -0.9071    0.9043 C   0  0  0  0  0  0  0  0  0  0  0  0
    1.0456   -0.6144    0.6349 C   0  0  0  0  0  0  0  0  0  0  0  0
   -2.8766    0.8453   -1.1785 C   0  0  0  0  0  0  0  0  0  0  0  0
   -3.4790   -1.0241    0.2286 C   0  0  0  0  0  0  0  0  0  0  0  0
   -3.7851   -0.1479   -0.8128 C   0  0  0  0  0  0  0  0  0  0  0  0
    2.1972   -0.1692    0.0983 C   0  0  0  0  0  0  0  0  0  0  0  0
    3.1563   -1.0630   -0.4619 C   0  0  0  0  0  0  0  0  0  0  0  0
    2.4612    1.2335    0.1029 C   0  0  0  0  0  0  0  0  0  0  0  0
  1 12  3  0
  2 13  3  0
  3  4  1  0
  3  5  2  0
  3  6  1  0
  4  7  1  0
  5  8  1  0
  6  9  2  0
  7 11  2  3
  8 10  2  0
  9 10  1  0
 11 12  1  0
 11 13  1  0
M  END
>  <PUBCHEM_COMPOUND_CID>  (1) 
19413

>  <PUBCHEM_CONFORMER_RMSD>  (1) 
0.6

>  <PUBCHEM_CONFORMER_DIVERSEORDER>  (1) 
1
6
11
9
10
5
3
8
7
4
2

>  <PUBCHEM_MMFF94_PARTIAL_CHARGES>  (1) 
19
1 -0.56
10 -0.15
11 0.13
12 0.49
13 0.49
16 0.15
17 0.15
18 0.15
19 0.15
2 -0.56
20 0.15
21 0.15
3 -0.14
4 0.28
5 -0.15
6 -0.15
7 -0.29
8 -0.15
9 -0.15

>  <PUBCHEM_EFFECTIVE_ROTOR_COUNT>  (1) 
2

>  <PUBCHEM_PHARMACOPHORE_FEATURES>  (1) 
3
1 1 acceptor
1 2 acceptor
6 3 5 6 8 9 10 rings

>  <PUBCHEM_HEAVY_ATOM_COUNT>  (1) 
13

>  <PUBCHEM_ATOM_DEF_STEREO_COUNT>  (1) 
0

>  <PUBCHEM_ATOM_UDEF_STEREO_COUNT>  (1) 
0

>  <PUBCHEM_BOND_DEF_STEREO_COUNT>  (1) 
0

>  <PUBCHEM_BOND_UDEF_STEREO_COUNT>  (1) 
0

>  <PUBCHEM_ISOTOPIC_ATOM_COUNT>  (1) 
0

>  <PUBCHEM_COMPONENT_COUNT>  (1) 
1

>  <PUBCHEM_CACTVS_TAUTO_COUNT>  (1) 
1

>  <PUBCHEM_CONFORMER_ID>  (1) 
00004BD500000001

>  <PUBCHEM_MMFF94_ENERGY>  (1) 
20.9873

>  <PUBCHEM_FEATURE_SELFOVERLAP>  (1) 
15.223

>  <PUBCHEM_SHAPE_FINGERPRINT>  (1) 
10608611 8 18187356658003911413
11137873 295 18270688558299745047
11715629 250 17749656463701266117
12251169 10 12031494493367118939
12897270 3 18186798076068802747
12932764 1 17822010891318404523
13296908 3 18335420192392769403
13705890 14 18341613694458751070
14250199 8 18409732884652944724
15477762 27 18272091582866646270
17041 50 18334858273389787236
18186145 218 18187362116959780513
19422 9 17846503646914849547
200 152 17988921150082098083
20281475 54 17845935229615954747
20361792 2 16774071877986840833
20645477 70 18342455949876679743
20671657 53 18270124509214328694
232386 152 15626218005371528958
23557571 272 17896042224871622843
23559900 14 18334284366974729010
5262128 65 18340496586070473100
57812782 119 18335136492543917038
6049 1 18041293139444179945
8030462 33 17095239198542544771
93112 12 18335700520433974359

>  <PUBCHEM_SHAPE_MULTIPOLES>  (1) 
257.57
7.27
1.67
1.11
0.77
0.53
0
-1.51
-2.39
1.52
-0.16
-0.25
-0.1
1.15

>  <PUBCHEM_SHAPE_SELFOVERLAP>  (1) 
532.018

>  <PUBCHEM_SHAPE_VOLUME>  (1) 
142.9

>  <PUBCHEM_COORDINATE_TYPE>  (1) 
2
5
10

$$$$
