19415
     RDKit          3D

 13 13  0  0  0  0  0  0  0  0999 V2000
    2.0302   -0.7697   -0.0295 O   0  0  0  0  0  0  0  0  0  0  0  0
   -3.0828   -0.3734    0.0076 O   0  0  0  0  0  0  0  0  0  0  0  0
   -2.3853    1.8200   -0.0170 O   0  0  0  0  0  0  0  0  0  0  0  0
   -0.4553   -2.5458    0.0159 N   0  0  0  0  0  0  0  0  0  0  0  0
    1.6763    0.5111    0.0004 C   0  0  0  0  0  0  0  0  0  0  0  0
    0.2531    0.8828   -0.0022 C   0  0  0  0  0  0  0  0  0  0  0  0
    2.7036    1.3736    0.0289 C   0  0  0  0  0  0  0  0  0  0  0  0
   -0.7815    0.0214   -0.0086 C   0  0  0  0  0  0  0  0  0  0  0  0
    3.8517    0.5461    0.0162 C   0  0  0  0  0  0  0  0  0  0  0  0
    3.3890   -0.7486   -0.0195 C   0  0  0  0  0  0  0  0  0  0  0  0
   -2.1506    0.6198   -0.0063 C   0  0  0  0  0  0  0  0  0  0  0  0
   -4.4482    0.0571    0.0095 C   0  0  0  0  0  0  0  0  0  0  0  0
   -0.6001   -1.3944    0.0046 C   0  0  0  0  0  0  0  0  0  0  0  0
  1  5  1  0
  1 10  1  0
  2 11  1  0
  2 12  1  0
  3 11  2  0
  4 13  3  0
  5  6  1  0
  5  7  2  0
  6  8  2  0
  7  9  1  0
  8 11  1  0
  8 13  1  0
  9 10  2  0
M  END
>  <PUBCHEM_COMPOUND_CID>  (1) 
19415

>  <PUBCHEM_CONFORMER_RMSD>  (1) 
0.6

>  <PUBCHEM_CONFORMER_DIVERSEORDER>  (1) 
1
11
7
12
10
2
4
9
6
3
8
5

>  <PUBCHEM_MMFF94_PARTIAL_CHARGES>  (1) 
17
1 -0.28
10 -0.01
11 0.71
12 0.28
13 0.49
14 0.15
15 0.15
16 0.15
17 0.15
2 -0.43
3 -0.57
4 -0.56
5 0.09
6 -0.11
7 -0.15
8 0.08
9 -0.15

>  <PUBCHEM_EFFECTIVE_ROTOR_COUNT>  (1) 
3

>  <PUBCHEM_PHARMACOPHORE_FEATURES>  (1) 
4
1 1 acceptor
1 3 acceptor
1 4 acceptor
5 1 5 7 9 10 rings

>  <PUBCHEM_HEAVY_ATOM_COUNT>  (1) 
13

>  <PUBCHEM_ATOM_DEF_STEREO_COUNT>  (1) 
0

>  <PUBCHEM_ATOM_UDEF_STEREO_COUNT>  (1) 
0

>  <PUBCHEM_BOND_DEF_STEREO_COUNT>  (1) 
0

>  <PUBCHEM_BOND_UDEF_STEREO_COUNT>  (1) 
1

>  <PUBCHEM_ISOTOPIC_ATOM_COUNT>  (1) 
0

>  <PUBCHEM_COMPONENT_COUNT>  (1) 
1

>  <PUBCHEM_CACTVS_TAUTO_COUNT>  (1) 
1

>  <PUBCHEM_CONFORMER_ID>  (1) 
00004BD700000001

>  <PUBCHEM_MMFF94_ENERGY>  (1) 
25.3906

>  <PUBCHEM_FEATURE_SELFOVERLAP>  (1) 
20.298

>  <PUBCHEM_SHAPE_FINGERPRINT>  (1) 
10608611 8 18340483456429490576
11062470 55 12463570681588223961
12251169 10 18336258029207157128
12932764 1 17275091834541610428
13380535 76 18413389856232478966
13690532 89 18409728426661332346
14144814 61 18410011026893165848
14325111 11 18410855434374435621
14993402 34 18333733528438874172
15775835 57 18410857667746633203
16945 1 18338517551055477420
18186145 218 18271249317793458652
19021347 11 18336825278027475699
193761 8 17762056949007434949
20201158 50 18272937124271964886
20510252 161 18272371944951312737
20528008 55 18341047514178239768
20645477 56 18338232777713000384
20645477 70 18339358569876441167
20871998 184 18127699428991956407
21501502 16 18123466339542581468
23402539 116 18343291583246003829
23402655 69 18343016679511370141
23463225 33 18335136436772691234
23559900 14 18272649095597186232
2748010 2 18265335018956495612
366044 4 18409729577659943635
43471831 8 18263361404243598803
69090 78 18342172297420037175

>  <PUBCHEM_SHAPE_MULTIPOLES>  (1) 
244.94
6.95
1.75
0.59
1.84
0.74
0
-1.2
0.02
0.18
0.01
-0.03
-0.01
0.03

>  <PUBCHEM_SHAPE_SELFOVERLAP>  (1) 
512.56

>  <PUBCHEM_SHAPE_VOLUME>  (1) 
138.1

>  <PUBCHEM_COORDINATE_TYPE>  (1) 
2
5
10

$$$$
