19425
     RDKit          3D

  6  5  0  0  0  0  0  0  0  0999 V2000
    2.1869   -0.8658   -0.1811 N   0  0  0  0  0  0  0  0  0  0  0  0
   -2.1864   -0.8664   -0.1811 N   0  0  0  0  0  0  0  0  0  0  0  0
    0.0000    0.4652    0.4377 C   0  0  0  0  0  0  0  0  0  0  0  0
   -0.0006    1.8268   -0.2556 C   0  0  0  0  0  0  0  0  0  0  0  0
    1.2225   -0.2798    0.0901 C   0  0  0  0  0  0  0  0  0  0  0  0
   -1.2223   -0.2801    0.0900 C   0  0  0  0  0  0  0  0  0  0  0  0
  1  5  3  0
  2  6  3  0
  3  4  1  0
  3  5  1  0
  3  6  1  0
M  END
>  <PUBCHEM_COMPOUND_CID>  (1) 
19425

>  <PUBCHEM_CONFORMER_RMSD>  (1) 
0.4

>  <PUBCHEM_CONFORMER_DIVERSEORDER>  (1) 
1

>  <PUBCHEM_MMFF94_PARTIAL_CHARGES>  (1) 
5
1 -0.56
2 -0.56
3 0.4
5 0.36
6 0.36

>  <PUBCHEM_EFFECTIVE_ROTOR_COUNT>  (1) 
0

>  <PUBCHEM_PHARMACOPHORE_FEATURES>  (1) 
3
1 1 acceptor
1 2 acceptor
1 4 hydrophobe

>  <PUBCHEM_HEAVY_ATOM_COUNT>  (1) 
6

>  <PUBCHEM_ATOM_DEF_STEREO_COUNT>  (1) 
0

>  <PUBCHEM_ATOM_UDEF_STEREO_COUNT>  (1) 
0

>  <PUBCHEM_BOND_DEF_STEREO_COUNT>  (1) 
0

>  <PUBCHEM_BOND_UDEF_STEREO_COUNT>  (1) 
0

>  <PUBCHEM_ISOTOPIC_ATOM_COUNT>  (1) 
0

>  <PUBCHEM_COMPONENT_COUNT>  (1) 
1

>  <PUBCHEM_CACTVS_TAUTO_COUNT>  (1) 
1

>  <PUBCHEM_CONFORMER_ID>  (1) 
00004BE100000001

>  <PUBCHEM_MMFF94_ENERGY>  (1) 
1.3997

>  <PUBCHEM_FEATURE_SELFOVERLAP>  (1) 
15.223

>  <PUBCHEM_SHAPE_FINGERPRINT>  (1) 
139733 1 8790886280599758003
16714656 1 18121504557211104625
21040471 1 17041760366038530193
23552449 1 18266735771385859928
23552449 11 18191567847577749361
29004967 10 18337110167307657218
5943 1 11101769683043658265

>  <PUBCHEM_SHAPE_MULTIPOLES>  (1) 
113.52
2.44
1.46
0.65
0
0.83
0.03
-1.4
-0.24
0
-0.16
0
0.05
0

>  <PUBCHEM_SHAPE_SELFOVERLAP>  (1) 
207.703

>  <PUBCHEM_SHAPE_VOLUME>  (1) 
68.9

>  <PUBCHEM_COORDINATE_TYPE>  (1) 
2
5
10

$$$$
