19429
     RDKit          3D

 20 23  0  0  0  0  0  0  0  0999 V2000
   -0.5008    0.2601    0.0001 C   0  0  0  0  0  0  0  0  0  0  0  0
    0.3156   -0.9087    0.0001 C   0  0  0  0  0  0  0  0  0  0  0  0
    0.1608    1.5049    0.0000 C   0  0  0  0  0  0  0  0  0  0  0  0
    1.7566   -0.8012    0.0001 C   0  0  0  0  0  0  0  0  0  0  0  0
    1.5495    1.6153   -0.0004 C   0  0  0  0  0  0  0  0  0  0  0  0
    2.3549    0.4814   -0.0003 C   0  0  0  0  0  0  0  0  0  0  0  0
   -1.9418    0.1526    0.0002 C   0  0  0  0  0  0  0  0  0  0  0  0
   -2.5403   -1.1301   -0.0002 C   0  0  0  0  0  0  0  0  0  0  0  0
   -0.3461   -2.1536    0.0001 C   0  0  0  0  0  0  0  0  0  0  0  0
   -1.7348   -2.2641   -0.0003 C   0  0  0  0  0  0  0  0  0  0  0  0
   -0.5029    2.8504   -0.0008 C   0  0  0  0  0  0  0  0  0  0  0  0
    2.6480   -1.9068    0.0004 C   0  0  0  0  0  0  0  0  0  0  0  0
    3.7533    0.6290   -0.0003 C   0  0  0  0  0  0  0  0  0  0  0  0
    2.1703    2.9874    0.0006 C   0  0  0  0  0  0  0  0  0  0  0  0
   -2.8333    1.2582    0.0006 C   0  0  0  0  0  0  0  0  0  0  0  0
   -3.9386   -1.2776   -0.0004 C   0  0  0  0  0  0  0  0  0  0  0  0
    4.0376   -1.7508    0.0003 C   0  0  0  0  0  0  0  0  0  0  0  0
    4.5908   -0.4809   -0.0002 C   0  0  0  0  0  0  0  0  0  0  0  0
   -4.2228    1.1022    0.0004 C   0  0  0  0  0  0  0  0  0  0  0  0
   -4.7761   -0.1677   -0.0001 C   0  0  0  0  0  0  0  0  0  0  0  0
  1  2  1  0
  1  3  2  0
  1  7  1  0
  2  4  2  0
  2  9  1  0
  3  5  1  0
  3 11  1  0
  4  6  1  0
  4 12  1  0
  5  6  2  0
  5 14  1  0
  6 13  1  0
  7  8  2  0
  7 15  1  0
  8 10  1  0
  8 16  1  0
  9 10  2  0
 12 17  2  0
 13 18  2  0
 15 19  2  0
 16 20  2  0
 17 18  1  0
 19 20  1  0
M  END
>  <PUBCHEM_COMPOUND_CID>  (1) 
19429

>  <PUBCHEM_CONFORMER_RMSD>  (1) 
0.6

>  <PUBCHEM_CONFORMER_DIVERSEORDER>  (1) 
1

>  <PUBCHEM_MMFF94_PARTIAL_CHARGES>  (1) 
24
10 -0.15
11 0.14
12 -0.15
13 -0.15
14 0.14
15 -0.15
16 -0.15
17 -0.15
18 -0.15
19 -0.15
20 -0.15
21 0.15
22 0.15
26 0.15
27 0.15
3 -0.14
31 0.15
32 0.15
33 0.15
34 0.15
35 0.15
36 0.15
5 -0.14
9 -0.15

>  <PUBCHEM_EFFECTIVE_ROTOR_COUNT>  (1) 
0

>  <PUBCHEM_PHARMACOPHORE_FEATURES>  (1) 
4
6 1 2 3 4 5 6 rings
6 1 2 7 8 9 10 rings
6 4 6 12 13 17 18 rings
6 7 8 15 16 19 20 rings

>  <PUBCHEM_HEAVY_ATOM_COUNT>  (1) 
20

>  <PUBCHEM_ATOM_DEF_STEREO_COUNT>  (1) 
0

>  <PUBCHEM_ATOM_UDEF_STEREO_COUNT>  (1) 
0

>  <PUBCHEM_BOND_DEF_STEREO_COUNT>  (1) 
0

>  <PUBCHEM_BOND_UDEF_STEREO_COUNT>  (1) 
0

>  <PUBCHEM_ISOTOPIC_ATOM_COUNT>  (1) 
0

>  <PUBCHEM_COMPONENT_COUNT>  (1) 
1

>  <PUBCHEM_CACTVS_TAUTO_COUNT>  (1) 
1

>  <PUBCHEM_CONFORMER_ID>  (1) 
00004BE500000001

>  <PUBCHEM_MMFF94_ENERGY>  (1) 
107.3463

>  <PUBCHEM_FEATURE_SELFOVERLAP>  (1) 
20.367

>  <PUBCHEM_SHAPE_FINGERPRINT>  (1) 
10062212 137 18201714076845006735
10411042 1 18122344571468884066
10608611 8 18338233885566337529
10616163 171 18195249051125598470
10906281 52 18337972142117725642
10967382 1 18410573998131331044
1100329 8 18410292535986950427
11132069 177 18412539890593815274
11471102 20 18410289220277310126
11578080 2 16986300849257159499
11680986 33 18264491869789932083
116883 192 18270125595793517078
12011746 2 18411138004604542022
12236239 1 17847059983019425093
12403259 226 18337667620336169557
12553582 1 18410565168011061798
13132413 78 18412263926075937221
13140716 1 18338234967734462192
138480 1 18410574032660595524
13862211 1 18410568457534303146
14115302 16 18041290923552369566
14178342 30 17765135560174618248
14790565 3 18123197805007805025
14866123 147 17333940750824672194
15042514 8 17905040353503990418
15099037 51 18410008823685634871
15196674 1 18410855455849057735
15442244 35 18411700997454829937
15536298 74 18342455980099446368
1601671 61 18411984641780382740
16945 1 17978229683749893511
17492 89 18267021854567677711
17804303 29 18410296912569018525
1813 80 17458062664295141516
18186145 218 17749101210297610111
19591789 44 18122344584126354522
200 152 18060414725273551559
20028762 73 18201998884954528367
20510252 161 18199466554586626864
21029758 11 18413385423736324777
21267235 1 18410865355775445035
21279426 13 18193837033397962967
21421861 104 17825666647227320826
21501502 16 18267303329448553031
221490 88 18263932201096761267
2334 1 18266741461768802917
23366157 5 17969780963799328740
23402539 116 18271236145091832319
23463225 33 18410575097553268620
23557571 272 18057329392798866822
23558518 356 17827075422180580291
23559900 14 18342172302237341472
2748010 2 18338796822434286517
3004659 81 18187651254902374446
335352 9 18338516339600302845
34934 24 18411414042653990882
350125 39 18410015425409370113
3886686 26 16749276508624313722
4214541 1 18410855451933918051
5104073 3 18410856585567986291
69090 78 18413385440926983831
7364860 26 18268992153934840384
7832392 63 18340483477703685038
8809292 202 18334016107327739851
9709674 26 18337956817205376347
9981440 41 17472694105923299928

>  <PUBCHEM_SHAPE_MULTIPOLES>  (1) 
411.59
8.24
2.94
0.62
1.54
1.12
0
-1.6
0
-0.81
0
0
0
0

>  <PUBCHEM_SHAPE_SELFOVERLAP>  (1) 
941.397

>  <PUBCHEM_SHAPE_VOLUME>  (1) 
197.6

>  <PUBCHEM_COORDINATE_TYPE>  (1) 
2
5
10

$$$$
