19421
     RDKit          3D

 11 10  0  0  0  0  0  0  0  0999 V2000
   -1.8668   -0.3045   -1.4265 O   0  0  0  0  0  0  0  0  0  0  0  0
    0.7439    2.7098    0.1618 N   0  0  0  0  0  0  0  0  0  0  0  0
    3.4535   -0.7117   -0.5442 N   0  0  0  0  0  0  0  0  0  0  0  0
   -1.2653   -0.2456    0.9233 C   0  0  0  0  0  0  0  0  0  0  0  0
    0.1145   -0.7074    0.4916 C   0  0  0  0  0  0  0  0  0  0  0  0
   -2.2175   -0.1331   -0.2598 C   0  0  0  0  0  0  0  0  0  0  0  0
    0.2591   -2.2142    0.4920 C   0  0  0  0  0  0  0  0  0  0  0  0
    1.1123    0.1457    0.1566 C   0  0  0  0  0  0  0  0  0  0  0  0
   -3.6410    0.2339    0.0727 C   0  0  0  0  0  0  0  0  0  0  0  0
    0.9052    1.5603    0.1621 C   0  0  0  0  0  0  0  0  0  0  0  0
    2.4022   -0.3332   -0.2296 C   0  0  0  0  0  0  0  0  0  0  0  0
  1  6  2  0
  2 10  3  0
  3 11  3  0
  4  5  1  0
  4  6  1  0
  5  7  1  0
  5  8  2  3
  6  9  1  0
  8 10  1  0
  8 11  1  0
M  END
>  <PUBCHEM_COMPOUND_CID>  (1) 
19421

>  <PUBCHEM_CONFORMER_RMSD>  (1) 
0.4

>  <PUBCHEM_CONFORMER_DIVERSEORDER>  (1) 
1
18
17
19
10
9
12
16
11
14
2
15
4
5
6
8
3
7
13

>  <PUBCHEM_MMFF94_PARTIAL_CHARGES>  (1) 
11
1 -0.57
10 0.49
11 0.49
2 -0.56
3 -0.56
4 0.2
5 -0.28
6 0.45
7 0.14
8 0.13
9 0.06

>  <PUBCHEM_EFFECTIVE_ROTOR_COUNT>  (1) 
2

>  <PUBCHEM_PHARMACOPHORE_FEATURES>  (1) 
4
1 1 acceptor
1 2 acceptor
1 3 acceptor
1 7 hydrophobe

>  <PUBCHEM_HEAVY_ATOM_COUNT>  (1) 
11

>  <PUBCHEM_ATOM_DEF_STEREO_COUNT>  (1) 
0

>  <PUBCHEM_ATOM_UDEF_STEREO_COUNT>  (1) 
0

>  <PUBCHEM_BOND_DEF_STEREO_COUNT>  (1) 
0

>  <PUBCHEM_BOND_UDEF_STEREO_COUNT>  (1) 
0

>  <PUBCHEM_ISOTOPIC_ATOM_COUNT>  (1) 
0

>  <PUBCHEM_COMPONENT_COUNT>  (1) 
1

>  <PUBCHEM_CACTVS_TAUTO_COUNT>  (1) 
8

>  <PUBCHEM_CONFORMER_ID>  (1) 
00004BDD00000001

>  <PUBCHEM_MMFF94_ENERGY>  (1) 
10.4385

>  <PUBCHEM_FEATURE_SELFOVERLAP>  (1) 
20.297

>  <PUBCHEM_SHAPE_FINGERPRINT>  (1) 
10353120 184 18410579444113095180
11031198 65 18187368679754393071
11062470 55 13254795724593976283
12423570 1 13148365833598082713
12932764 1 17677037032233099091
16945 1 18335687339390300563
21293036 1 18334299768595719854
23235685 24 17676204663107244991
23402539 116 18342450409901552870
25 1 18260830354419887115
2748010 2 18118122712915513147
3250762 1 17904492048998541434
5084963 1 18202001074917324059
528886 8 18410573959424086043
9939556 21 17988076815673138847

>  <PUBCHEM_SHAPE_MULTIPOLES>  (1) 
210.54
4.46
1.97
0.9
1.27
0.82
0.13
-0.3
0.99
-0.9
-0.35
0.29
-0.12
0.12

>  <PUBCHEM_SHAPE_SELFOVERLAP>  (1) 
409.48

>  <PUBCHEM_SHAPE_VOLUME>  (1) 
123.4

>  <PUBCHEM_COORDINATE_TYPE>  (1) 
2
5
10

$$$$
