19422
     RDKit          3D

 16 15  0  0  0  0  0  0  0  0999 V2000
   -1.8488   -2.5539   -0.5077 N   0  0  0  0  0  0  0  0  0  0  0  0
   -5.2656    0.0685    0.4436 N   0  0  0  0  0  0  0  0  0  0  0  0
    1.8483   -2.5539    0.5078 N   0  0  0  0  0  0  0  0  0  0  0  0
    5.2658    0.0687   -0.4427 N   0  0  0  0  0  0  0  0  0  0  0  0
   -0.4698    0.8543   -0.6092 C   0  0  0  0  0  0  0  0  0  0  0  0
    0.4698    0.8542    0.6090 C   0  0  0  0  0  0  0  0  0  0  0  0
   -1.9506    0.9320   -0.2526 C   0  0  0  0  0  0  0  0  0  0  0  0
    1.9506    0.9318    0.2523 C   0  0  0  0  0  0  0  0  0  0  0  0
   -2.4392    2.3539   -0.0653 C   0  0  0  0  0  0  0  0  0  0  0  0
    2.4393    2.3537    0.0655 C   0  0  0  0  0  0  0  0  0  0  0  0
   -2.7541   -0.1542   -0.1485 C   0  0  0  0  0  0  0  0  0  0  0  0
    2.7541   -0.1544    0.1482 C   0  0  0  0  0  0  0  0  0  0  0  0
   -2.2476   -1.4755   -0.3489 C   0  0  0  0  0  0  0  0  0  0  0  0
   -4.1396   -0.0247    0.1777 C   0  0  0  0  0  0  0  0  0  0  0  0
    2.2475   -1.4757    0.3486 C   0  0  0  0  0  0  0  0  0  0  0  0
    4.1398   -0.0249   -0.1777 C   0  0  0  0  0  0  0  0  0  0  0  0
  1 13  3  0
  2 14  3  0
  3 15  3  0
  4 16  3  0
  5  6  1  0
  5  7  1  0
  6  8  1  0
  7  9  1  0
  7 11  2  3
  8 10  1  0
  8 12  2  3
 11 13  1  0
 11 14  1  0
 12 15  1  0
 12 16  1  0
M  END
>  <PUBCHEM_COMPOUND_CID>  (1) 
19422

>  <PUBCHEM_CONFORMER_RMSD>  (1) 
0.6

>  <PUBCHEM_CONFORMER_DIVERSEORDER>  (1) 
1
18
20
17
11
8
22
2
14
16
23
9
6
4
12
13
10
5
24
19
3
26
7
15
25
21

>  <PUBCHEM_MMFF94_PARTIAL_CHARGES>  (1) 
16
1 -0.56
10 0.14
11 0.13
12 0.13
13 0.49
14 0.49
15 0.49
16 0.49
2 -0.56
3 -0.56
4 -0.56
5 0.14
6 0.14
7 -0.28
8 -0.28
9 0.14

>  <PUBCHEM_EFFECTIVE_ROTOR_COUNT>  (1) 
3

>  <PUBCHEM_PHARMACOPHORE_FEATURES>  (1) 
7
1 1 acceptor
1 10 hydrophobe
1 2 acceptor
1 3 acceptor
1 4 acceptor
1 9 hydrophobe
4 5 6 7 8 hydrophobe

>  <PUBCHEM_HEAVY_ATOM_COUNT>  (1) 
16

>  <PUBCHEM_ATOM_DEF_STEREO_COUNT>  (1) 
0

>  <PUBCHEM_ATOM_UDEF_STEREO_COUNT>  (1) 
0

>  <PUBCHEM_BOND_DEF_STEREO_COUNT>  (1) 
0

>  <PUBCHEM_BOND_UDEF_STEREO_COUNT>  (1) 
0

>  <PUBCHEM_ISOTOPIC_ATOM_COUNT>  (1) 
0

>  <PUBCHEM_COMPONENT_COUNT>  (1) 
1

>  <PUBCHEM_CACTVS_TAUTO_COUNT>  (1) 
1

>  <PUBCHEM_CONFORMER_ID>  (1) 
00004BDE00000001

>  <PUBCHEM_MMFF94_ENERGY>  (1) 
18.8211

>  <PUBCHEM_FEATURE_SELFOVERLAP>  (1) 
35.529

>  <PUBCHEM_SHAPE_FINGERPRINT>  (1) 
10616163 171 18411699923813733031
12251169 10 18413388739377211349
12500047 106 18337944593570151092
12553582 1 18338504296485734597
12596599 1 17773337796600941254
14617045 38 18409175402182328635
15196674 1 18265332815580419179
15375462 189 18335976493768666594
17834074 16 18410573985151607040
20442098 301 18342165691686430943
20645477 70 18343581858526139085
21267235 1 18410583885051087904
221490 88 18265901439770967184
23402539 116 16805598136778759796
23559900 14 18269828864692622520
2871803 45 18265602359196211951
3312278 4 18341892948747628184
58051976 100 18409166619211422909
58051976 378 18411416220059699548
8809292 202 18336265746778169418
9709674 26 18411703179499144231

>  <PUBCHEM_SHAPE_MULTIPOLES>  (1) 
309.35
9.03
2.49
0.72
0
0.55
0
0.18
0
0
0
0
0.02
-0.28

>  <PUBCHEM_SHAPE_SELFOVERLAP>  (1) 
612.578

>  <PUBCHEM_SHAPE_VOLUME>  (1) 
176.3

>  <PUBCHEM_COORDINATE_TYPE>  (1) 
2
5
10

$$$$
