19435
     RDKit          3D

 20 21  0  0  1  0  0  0  0  0999 V2000
    0.4084   -0.3243    0.1440 N   0  0  0  0  0  0  0  0  0  0  0  0
    1.0660    0.2862    1.0000 N   0  0  0  0  0  0  0  0  0  0  0  0
   -1.7065   -1.9227   -2.5324 N   0  0  0  0  0  0  0  0  0  0  0  0
    0.3239   -3.9301    0.7711 N   0  0  0  0  0  0  0  0  0  0  0  0
   -0.9522   -0.6394    0.6563 C   0  0  0  0  0  0  0  0  0  0  0  0
   -1.9578    0.4340    0.4087 C   0  0  0  0  0  0  0  0  0  0  0  0
   -1.3703   -2.0294    0.0823 C   0  0  0  0  0  0  0  0  0  0  0  0
   -1.8848    1.2036   -0.7523 C   0  0  0  0  0  0  0  0  0  0  0  0
   -2.9716    0.6679    1.3379 C   0  0  0  0  0  0  0  0  0  0  0  0
   -2.8252    2.2074   -0.9841 C   0  0  0  0  0  0  0  0  0  0  0  0
   -3.9120    1.6716    1.1061 C   0  0  0  0  0  0  0  0  0  0  0  0
   -3.8389    2.4413   -0.0551 C   0  0  0  0  0  0  0  0  0  0  0  0
    2.3400    0.5610    0.4753 C   0  0  0  0  0  0  0  0  0  0  0  0
   -1.5567   -1.9707   -1.3826 C   0  0  0  0  0  0  0  0  0  0  0  0
   -0.4201   -3.0931    0.4663 C   0  0  0  0  0  0  0  0  0  0  0  0
    2.5597    1.7467   -0.2195 C   0  0  0  0  0  0  0  0  0  0  0  0
    3.3732   -0.3542    0.6534 C   0  0  0  0  0  0  0  0  0  0  0  0
    3.8241    2.0195   -0.7413 C   0  0  0  0  0  0  0  0  0  0  0  0
    4.6377   -0.0812    0.1316 C   0  0  0  0  0  0  0  0  0  0  0  0
    4.8631    1.1057   -0.5657 C   0  0  0  0  0  0  0  0  0  0  0  0
  1  2  2  0
  1  5  1  0
  2 13  1  0
  3 14  3  0
  4 15  3  0
  5  6  1  0
  5  7  1  0
  6  8  2  0
  6  9  1  0
  7 14  1  0
  7 15  1  0
  8 10  1  0
  9 11  2  0
 10 12  2  0
 11 12  1  0
 13 16  2  0
 13 17  1  0
 16 18  1  0
 17 19  2  0
 18 20  2  0
 19 20  1  0
M  END
>  <PUBCHEM_COMPOUND_CID>  (1) 
19435

>  <PUBCHEM_CONFORMER_RMSD>  (1) 
0.6

>  <PUBCHEM_CONFORMER_DIVERSEORDER>  (1) 
1
2
9
10
26
14
29
30
19
22
28
16
4
25
34
18
20
31
27
36
24
35
7
15
17
3
13
32
11
33
8
21
5
12
23
6

>  <PUBCHEM_MMFF94_PARTIAL_CHARGES>  (1) 
30
1 -0.25
10 -0.15
11 -0.15
12 -0.15
13 0.18
14 0.36
15 0.36
16 -0.15
17 -0.15
18 -0.15
19 -0.15
2 -0.18
20 -0.15
23 0.15
24 0.15
25 0.15
26 0.15
27 0.15
28 0.15
29 0.15
3 -0.56
30 0.15
31 0.15
32 0.15
4 -0.56
5 0.39
6 -0.14
7 0.4
8 -0.15
9 -0.15

>  <PUBCHEM_EFFECTIVE_ROTOR_COUNT>  (1) 
4

>  <PUBCHEM_PHARMACOPHORE_FEATURES>  (1) 
4
1 3 acceptor
1 4 acceptor
6 13 16 17 18 19 20 rings
6 6 8 9 10 11 12 rings

>  <PUBCHEM_HEAVY_ATOM_COUNT>  (1) 
20

>  <PUBCHEM_ATOM_DEF_STEREO_COUNT>  (1) 
0

>  <PUBCHEM_ATOM_UDEF_STEREO_COUNT>  (1) 
1

>  <PUBCHEM_BOND_DEF_STEREO_COUNT>  (1) 
0

>  <PUBCHEM_BOND_UDEF_STEREO_COUNT>  (1) 
0

>  <PUBCHEM_ISOTOPIC_ATOM_COUNT>  (1) 
0

>  <PUBCHEM_COMPONENT_COUNT>  (1) 
1

>  <PUBCHEM_CACTVS_TAUTO_COUNT>  (1) 
1

>  <PUBCHEM_CONFORMER_ID>  (1) 
00004BEB00000001

>  <PUBCHEM_MMFF94_ENERGY>  (1) 
46.1457

>  <PUBCHEM_FEATURE_SELFOVERLAP>  (1) 
20.297

>  <PUBCHEM_SHAPE_FINGERPRINT>  (1) 
107951 10 18338253612509955742
12173636 292 18263362641283551806
12346177 29 18059850705688546820
12592029 89 18265056834104186059
12788726 201 18196361735571298891
13134695 92 17326042954655121943
133893 2 17766860333030771347
13681431 1 17335061157526189827
13931106 250 16987985232356489294
14178342 30 18118953931412028144
14251751 93 18412825789276142331
15534591 1 18409728473774071507
16752209 62 18270101534986259426
18785283 64 18045788883687382795
204376 136 18409733919956237097
20645477 56 18410860996763461056
21120745 212 17615152286878055181
21524375 3 18343584010542156969
21665056 4 18408884070398300034
22907989 373 18194679508376129822
23419403 2 17409703892485491095
23557571 272 18128548252570031324
23558518 356 18117839030694806266
3027735 51 17346312756165928495
3729539 64 17835550149081789270
474 4 18267023851906240577
559249 180 18342738499428722526
7615 1 18116693275138382000
7832392 63 18335422408928781620
81228 2 17981870149859644003

>  <PUBCHEM_SHAPE_MULTIPOLES>  (1) 
391.67
8.28
3.6
1.38
7.74
3.25
0.65
-6.97
-0.09
-1.88
0.34
-1.03
0.48
-1.06

>  <PUBCHEM_SHAPE_SELFOVERLAP>  (1) 
831.631

>  <PUBCHEM_SHAPE_VOLUME>  (1) 
214

>  <PUBCHEM_COORDINATE_TYPE>  (1) 
2
5
10

$$$$
