19438
     RDKit          3D

 21 22  0  0  1  0  0  0  0  0999 V2000
    0.0513    0.4327   -0.2002 N   0  0  0  0  0  0  0  0  0  0  0  0
    0.7408   -0.1241   -1.0838 N   0  0  0  0  0  0  0  0  0  0  0  0
   -2.0092    1.6984    2.6234 N   0  0  0  0  0  0  0  0  0  0  0  0
   -0.4704    4.0763   -0.6997 N   0  0  0  0  0  0  0  0  0  0  0  0
   -1.3263    0.6520   -0.6396 C   0  0  0  0  0  0  0  0  0  0  0  0
   -2.2264   -0.5440   -0.3819 C   0  0  0  0  0  0  0  0  0  0  0  0
   -1.8714    1.9541    0.0012 C   0  0  0  0  0  0  0  0  0  0  0  0
   -2.0117   -1.3136    0.7452 C   0  0  0  0  0  0  0  0  0  0  0  0
   -3.2354   -0.8294   -1.2811 C   0  0  0  0  0  0  0  0  0  0  0  0
   -2.8384   -2.4118    0.9821 C   0  0  0  0  0  0  0  0  0  0  0  0
   -4.0621   -1.9277   -1.0440 C   0  0  0  0  0  0  0  0  0  0  0  0
    2.0474   -0.3126   -0.6221 C   0  0  0  0  0  0  0  0  0  0  0  0
   -3.8636   -2.7188    0.0876 C   0  0  0  0  0  0  0  0  0  0  0  0
    4.6545   -0.6896    0.2966 C   0  0  0  0  0  0  0  0  0  0  0  0
    2.3882   -1.4882    0.0470 C   0  0  0  0  0  0  0  0  0  0  0  0
    3.0105    0.6745   -0.8320 C   0  0  0  0  0  0  0  0  0  0  0  0
    3.6916   -1.6766    0.5065 C   0  0  0  0  0  0  0  0  0  0  0  0
    4.3140    0.4860   -0.3727 C   0  0  0  0  0  0  0  0  0  0  0  0
   -1.9467    1.8122    1.4701 C   0  0  0  0  0  0  0  0  0  0  0  0
   -1.0851    3.1420   -0.3897 C   0  0  0  0  0  0  0  0  0  0  0  0
    6.0484   -0.8917    0.7871 C   0  0  0  0  0  0  0  0  0  0  0  0
  1  2  2  0
  1  5  1  0
  2 12  1  0
  3 19  3  0
  4 20  3  0
  5  6  1  0
  5  7  1  0
  6  8  2  0
  6  9  1  0
  7 19  1  0
  7 20  1  0
  8 10  1  0
  9 11  2  0
 10 13  2  0
 11 13  1  0
 12 15  2  0
 12 16  1  0
 14 17  2  0
 14 18  1  0
 14 21  1  0
 15 17  1  0
 16 18  2  0
M  END
>  <PUBCHEM_COMPOUND_CID>  (1) 
19438

>  <PUBCHEM_CONFORMER_RMSD>  (1) 
0.6

>  <PUBCHEM_CONFORMER_DIVERSEORDER>  (1) 
1
32
8
27
19
23
11
22
31
18
15
3
16
29
21
4
25
10
14
26
24
30
2
7
13
20
5
6
12
9
28
17

>  <PUBCHEM_MMFF94_PARTIAL_CHARGES>  (1) 
30
1 -0.25
10 -0.15
11 -0.15
12 0.18
13 -0.15
14 -0.14
15 -0.15
16 -0.15
17 -0.15
18 -0.15
19 0.36
2 -0.18
20 0.36
21 0.14
24 0.15
25 0.15
26 0.15
27 0.15
28 0.15
29 0.15
3 -0.56
30 0.15
31 0.15
32 0.15
4 -0.56
5 0.39
6 -0.14
7 0.4
8 -0.15
9 -0.15

>  <PUBCHEM_EFFECTIVE_ROTOR_COUNT>  (1) 
4

>  <PUBCHEM_PHARMACOPHORE_FEATURES>  (1) 
4
1 3 acceptor
1 4 acceptor
6 12 14 15 16 17 18 rings
6 6 8 9 10 11 13 rings

>  <PUBCHEM_HEAVY_ATOM_COUNT>  (1) 
21

>  <PUBCHEM_ATOM_DEF_STEREO_COUNT>  (1) 
0

>  <PUBCHEM_ATOM_UDEF_STEREO_COUNT>  (1) 
1

>  <PUBCHEM_BOND_DEF_STEREO_COUNT>  (1) 
0

>  <PUBCHEM_BOND_UDEF_STEREO_COUNT>  (1) 
0

>  <PUBCHEM_ISOTOPIC_ATOM_COUNT>  (1) 
0

>  <PUBCHEM_COMPONENT_COUNT>  (1) 
1

>  <PUBCHEM_CACTVS_TAUTO_COUNT>  (1) 
1

>  <PUBCHEM_CONFORMER_ID>  (1) 
00004BEE00000001

>  <PUBCHEM_MMFF94_ENERGY>  (1) 
49.1407

>  <PUBCHEM_FEATURE_SELFOVERLAP>  (1) 
20.297

>  <PUBCHEM_SHAPE_FINGERPRINT>  (1) 
10366900 7 18271524290622440378
11045515 52 18113332042085525685
11265709 11 18410578430885844183
11315181 36 18259700104165016678
12553582 1 18265353839587998431
12788726 201 18191006942371639177
13004483 165 18411411843419712823
13544653 18 18262519328718444159
13583140 156 17916003708593295066
14142880 1 18201445714456198289
14178342 30 18200324212384727190
17349148 13 17894630366290515354
200 152 18334008432210866358
20600515 1 18200324332802054199
20671657 53 18263646336963953189
2306618 200 18271242716434116505
23402539 116 18413101779785520047
23419403 2 17915716843311730913
23557571 272 18201718414556104340
23559900 14 18188479302351670812
312423 11 18338812181828181060
463206 1 18117558654856391547
5104073 3 18271517590948212842
5283173 99 17969202508834446245
5924683 9 18410849924263697906
81228 2 18198924551515476205
9709674 26 18339360743372720062
9981440 41 16628264395397317486

>  <PUBCHEM_SHAPE_MULTIPOLES>  (1) 
412.25
9.7
3.54
1.39
13.14
3.03
0.71
-7.06
0.67
-3.65
0.2
-1.04
0.44
-1.07

>  <PUBCHEM_SHAPE_SELFOVERLAP>  (1) 
874.668

>  <PUBCHEM_SHAPE_VOLUME>  (1) 
225.5

>  <PUBCHEM_COORDINATE_TYPE>  (1) 
2
5
10

$$$$
