19433
     RDKit          3D

 16 16  0  0  0  0  0  0  0  0999 V2000
    3.8374   -2.7664    0.1904 Cl  0  0  0  0  0  0  0  0  0  0  0  0
   -0.2606    1.0142   -0.4092 N   0  0  0  0  0  0  0  0  0  0  0  0
    0.7319    1.0735   -1.1647 N   0  0  0  0  0  0  0  0  0  0  0  0
   -3.3416   -1.7725   -1.6807 N   0  0  0  0  0  0  0  0  0  0  0  0
   -4.8544   -0.2625    2.1136 N   0  0  0  0  0  0  0  0  0  0  0  0
   -2.6848    1.2786   -0.1602 C   0  0  0  0  0  0  0  0  0  0  0  0
   -1.4827    1.4452   -1.0904 C   0  0  0  0  0  0  0  0  0  0  0  0
   -2.8928   -0.1597    0.3565 C   0  0  0  0  0  0  0  0  0  0  0  0
    1.8790    0.6532   -0.4709 C   0  0  0  0  0  0  0  0  0  0  0  0
    2.2422   -0.6903   -0.4844 C   0  0  0  0  0  0  0  0  0  0  0  0
    2.6451    1.5838    0.2250 C   0  0  0  0  0  0  0  0  0  0  0  0
    3.3816   -1.1070    0.2041 C   0  0  0  0  0  0  0  0  0  0  0  0
    3.7843    1.1672    0.9134 C   0  0  0  0  0  0  0  0  0  0  0  0
    4.1527   -0.1781    0.9029 C   0  0  0  0  0  0  0  0  0  0  0  0
   -3.1458   -1.0624   -0.7840 C   0  0  0  0  0  0  0  0  0  0  0  0
   -3.9916   -0.2169    1.3386 C   0  0  0  0  0  0  0  0  0  0  0  0
  1 12  1  0
  2  3  2  0
  2  7  1  0
  3  9  1  0
  4 15  3  0
  5 16  3  0
  6  7  1  0
  6  8  1  0
  8 15  1  0
  8 16  1  0
  9 10  2  0
  9 11  1  0
 10 12  1  0
 11 13  2  0
 12 14  2  0
 13 14  1  0
M  END
>  <PUBCHEM_COMPOUND_CID>  (1) 
19433

>  <PUBCHEM_CONFORMER_RMSD>  (1) 
0.6

>  <PUBCHEM_CONFORMER_DIVERSEORDER>  (1) 
3
26
25
76
74
17
6
8
51
28
71
59
65
61
18
73
12
62
47
7
27
46
60
35
69
24
49
63
11
68
48
55
52
72
30
58
37
29
75
36
70
23
50
41
20
38
34
15
40
31
64
19
33
57
16
1
32
56
66
22
67
5
45
4
21
54
43
53
14
44
2
9
10
13
39
42

>  <PUBCHEM_MMFF94_PARTIAL_CHARGES>  (1) 
19
1 -0.18
10 -0.15
11 -0.15
12 0.18
13 -0.15
14 -0.15
15 0.36
16 0.36
2 -0.25
22 0.15
23 0.15
24 0.15
25 0.15
3 -0.18
4 -0.56
5 -0.56
7 0.25
8 0.4
9 0.18

>  <PUBCHEM_EFFECTIVE_ROTOR_COUNT>  (1) 
4

>  <PUBCHEM_PHARMACOPHORE_FEATURES>  (1) 
3
1 4 acceptor
1 5 acceptor
6 9 10 11 12 13 14 rings

>  <PUBCHEM_HEAVY_ATOM_COUNT>  (1) 
16

>  <PUBCHEM_ATOM_DEF_STEREO_COUNT>  (1) 
0

>  <PUBCHEM_ATOM_UDEF_STEREO_COUNT>  (1) 
0

>  <PUBCHEM_BOND_DEF_STEREO_COUNT>  (1) 
0

>  <PUBCHEM_BOND_UDEF_STEREO_COUNT>  (1) 
0

>  <PUBCHEM_ISOTOPIC_ATOM_COUNT>  (1) 
0

>  <PUBCHEM_COMPONENT_COUNT>  (1) 
1

>  <PUBCHEM_CACTVS_TAUTO_COUNT>  (1) 
1

>  <PUBCHEM_CONFORMER_ID>  (1) 
00004BE900000003

>  <PUBCHEM_MMFF94_ENERGY>  (1) 
24.4208

>  <PUBCHEM_FEATURE_SELFOVERLAP>  (1) 
15.223

>  <PUBCHEM_SHAPE_FINGERPRINT>  (1) 
11543360 7 12540703629810798841
11552529 35 17417235675610177687
11615756 256 10015288196059922318
12346177 29 17895740804003986525
12363563 72 17313107462046577285
12553582 1 18261119607297586621
12633257 1 17846782871154747055
13675066 3 18333454231427398209
1420 369 17894639166472445683
14251710 61 18040724627518679162
14252887 29 18260268555618103520
14289901 80 18342167886620681496
14341114 328 17775005734207393152
15239191 94 18408322164063493678
15375462 189 18342179998291143689
15537594 2 18411147934664233086
19050596 39 18131350846930512560
19107657 162 17894631448068191185
193927 3 17530977877386786857
19433438 48 18272928349601090191
20645477 70 18188475947781785215
20671657 53 16298103202685802284
20681651 13 17988632026132565127
20693207 138 15864362401494877985
21065199 12 18409728430793146304
212916 134 16558480686554222603
21503847 285 16415204507265101064
21673915 165 18341037623238121174
21713013 43 15936415554557720851
22646028 28 17313107462041205257
231179 274 12607405481498587916
23503953 91 17704073975641157619
2838139 119 14547304758039031432
316301 35 17967814899707309514
5352402 22 18260558822144780491
9882013 296 18059567057199980196

>  <PUBCHEM_SHAPE_MULTIPOLES>  (1) 
311.22
10.17
2.14
1.43
3.26
0.96
0.3
3.71
4.2
-1.72
-0.41
1.89
0.19
0.02

>  <PUBCHEM_SHAPE_SELFOVERLAP>  (1) 
625.946

>  <PUBCHEM_SHAPE_VOLUME>  (1) 
179

>  <PUBCHEM_COORDINATE_TYPE>  (1) 
2
5
10

$$$$
