19437
     RDKit          3D

 21 22  0  0  1  0  0  0  0  0999 V2000
    0.1366   -0.5206    0.1829 N   0  0  0  0  0  0  0  0  0  0  0  0
    0.8345   -0.0732    1.1052 N   0  0  0  0  0  0  0  0  0  0  0  0
   -2.0608   -1.6049   -2.6783 N   0  0  0  0  0  0  0  0  0  0  0  0
   -0.4715   -4.1147    0.5217 N   0  0  0  0  0  0  0  0  0  0  0  0
   -1.2754   -0.6776    0.6242 C   0  0  0  0  0  0  0  0  0  0  0  0
   -2.1116    0.5419    0.4291 C   0  0  0  0  0  0  0  0  0  0  0  0
   -1.8560   -1.9491   -0.0705 C   0  0  0  0  0  0  0  0  0  0  0  0
   -1.8830    1.3766   -0.6649 C   0  0  0  0  0  0  0  0  0  0  0  0
   -3.1227    0.8476    1.3403 C   0  0  0  0  0  0  0  0  0  0  0  0
   -2.6651    2.5170   -0.8477 C   0  0  0  0  0  0  0  0  0  0  0  0
   -3.9048    1.9880    1.1574 C   0  0  0  0  0  0  0  0  0  0  0  0
    2.1557    0.0573    0.6455 C   0  0  0  0  0  0  0  0  0  0  0  0
    3.8796    1.3766   -0.4026 C   0  0  0  0  0  0  0  0  0  0  0  0
   -3.6760    2.8226    0.0633 C   0  0  0  0  0  0  0  0  0  0  0  0
    2.5677    1.2476    0.0534 C   0  0  0  0  0  0  0  0  0  0  0  0
    3.0440   -1.0051    0.7855 C   0  0  0  0  0  0  0  0  0  0  0  0
    4.7736    0.3148   -0.2646 C   0  0  0  0  0  0  0  0  0  0  0  0
   -1.9689   -1.7576   -1.5315 C   0  0  0  0  0  0  0  0  0  0  0  0
   -1.0790   -3.1612    0.2595 C   0  0  0  0  0  0  0  0  0  0  0  0
    4.3558   -0.8759    0.3296 C   0  0  0  0  0  0  0  0  0  0  0  0
    4.3272    2.6499   -1.0374 C   0  0  0  0  0  0  0  0  0  0  0  0
  1  2  2  0
  1  5  1  0
  2 12  1  0
  3 18  3  0
  4 19  3  0
  5  6  1  0
  5  7  1  0
  6  8  2  0
  6  9  1  0
  7 18  1  0
  7 19  1  0
  8 10  1  0
  9 11  2  0
 10 14  2  0
 11 14  1  0
 12 15  1  0
 12 16  2  0
 13 15  2  0
 13 17  1  0
 13 21  1  0
 16 20  1  0
 17 20  2  0
M  END
>  <PUBCHEM_COMPOUND_CID>  (1) 
19437

>  <PUBCHEM_CONFORMER_RMSD>  (1) 
0.6

>  <PUBCHEM_CONFORMER_DIVERSEORDER>  (1) 
1
93
56
24
76
77
78
59
87
75
92
94
18
54
21
57
85
71
3
2
90
22
17
86
81
95
79
58
97
53
62
4
69
91
41
88
38
11
63
96
34
82
6
8
23
70
42
64
12
39
26
33
37
7
40
9
80
51
73
46
67
55
49
89
44
10
52
5
74
68
61
20
50
84
25
19
65
45
60
48
14
43
36
28
66
15
31
47
13
72
83
29
16
35
30
27
32

>  <PUBCHEM_MMFF94_PARTIAL_CHARGES>  (1) 
30
1 -0.25
10 -0.15
11 -0.15
12 0.18
13 -0.14
14 -0.15
15 -0.15
16 -0.15
17 -0.15
18 0.36
19 0.36
2 -0.18
20 -0.15
21 0.14
24 0.15
25 0.15
26 0.15
27 0.15
28 0.15
29 0.15
3 -0.56
30 0.15
31 0.15
32 0.15
4 -0.56
5 0.39
6 -0.14
7 0.4
8 -0.15
9 -0.15

>  <PUBCHEM_EFFECTIVE_ROTOR_COUNT>  (1) 
4

>  <PUBCHEM_PHARMACOPHORE_FEATURES>  (1) 
4
1 3 acceptor
1 4 acceptor
6 12 13 15 16 17 20 rings
6 6 8 9 10 11 14 rings

>  <PUBCHEM_HEAVY_ATOM_COUNT>  (1) 
21

>  <PUBCHEM_ATOM_DEF_STEREO_COUNT>  (1) 
0

>  <PUBCHEM_ATOM_UDEF_STEREO_COUNT>  (1) 
1

>  <PUBCHEM_BOND_DEF_STEREO_COUNT>  (1) 
0

>  <PUBCHEM_BOND_UDEF_STEREO_COUNT>  (1) 
0

>  <PUBCHEM_ISOTOPIC_ATOM_COUNT>  (1) 
0

>  <PUBCHEM_COMPONENT_COUNT>  (1) 
1

>  <PUBCHEM_CACTVS_TAUTO_COUNT>  (1) 
1

>  <PUBCHEM_CONFORMER_ID>  (1) 
00004BED00000001

>  <PUBCHEM_MMFF94_ENERGY>  (1) 
48.688

>  <PUBCHEM_FEATURE_SELFOVERLAP>  (1) 
20.298

>  <PUBCHEM_SHAPE_FINGERPRINT>  (1) 
107951 10 18340222807533219630
12173636 292 18408884074518966454
12714826 92 17702951481601345050
12788726 201 18270391827841909183
13583140 156 17095797694641305897
14251751 93 18341609287416207931
16752209 62 18200856457411643219
18785283 64 17975703792208980331
21033650 10 16271382789899006432
21120745 212 17834416874467516073
21524375 3 18200591389583991097
21864079 5 18187363233883697720
22620623 9 16916486169288439029
22907989 373 18268419312386770367
23227448 37 18408610283244036244
23419403 2 12244250088184425495
23557571 272 18129392651651121356
23558518 356 18335132137732468146
3027735 51 17131541825776475943
3729539 64 17692842309972061294
469060 322 15069186834659100227
474 4 18124033434229393785
5048184 11 18410013225932187272
7399639 24 17625256803612792872
7615 1 18262498386753002786
7832392 63 18408041819038065800
81228 2 18054767732253159163

>  <PUBCHEM_SHAPE_MULTIPOLES>  (1) 
412.25
8.77
3.88
1.42
8.68
2.24
0.76
-6.5
-0.03
-2.51
0.51
-1.07
0.34
-1.65

>  <PUBCHEM_SHAPE_SELFOVERLAP>  (1) 
873.753

>  <PUBCHEM_SHAPE_VOLUME>  (1) 
226.9

>  <PUBCHEM_COORDINATE_TYPE>  (1) 
2
5
10

$$$$
