19448
     RDKit          3D

 21 22  0  0  1  0  0  0  0  0999 V2000
   -5.9077   -1.5431    0.8107 Cl  0  0  0  0  0  0  0  0  0  0  0  0
    3.1645    1.3052    1.0871 O   0  0  0  0  0  0  0  0  0  0  0  0
    0.5042    3.3320    0.9275 O   0  0  0  0  0  0  0  0  0  0  0  0
   -0.0028    0.8759   -0.0123 N   0  0  0  0  0  0  0  0  0  0  0  0
   -0.8342    0.9282   -0.9413 N   0  0  0  0  0  0  0  0  0  0  0  0
    1.2765    1.4778   -0.4017 C   0  0  0  0  0  0  0  0  0  0  0  0
    2.3755    0.7318    0.3379 C   0  0  0  0  0  0  0  0  0  0  0  0
    2.5097   -0.7437    0.1477 C   0  0  0  0  0  0  0  0  0  0  0  0
    1.1513    2.9455   -0.0456 C   0  0  0  0  0  0  0  0  0  0  0  0
    2.1307   -1.2889   -1.0568 C   0  0  0  0  0  0  0  0  0  0  0  0
    3.0064   -1.4982    1.1851 C   0  0  0  0  0  0  0  0  0  0  0  0
    1.8866    3.9225   -0.9268 C   0  0  0  0  0  0  0  0  0  0  0  0
    2.2556   -2.6668   -1.2342 C   0  0  0  0  0  0  0  0  0  0  0  0
    3.1315   -2.8760    1.0076 C   0  0  0  0  0  0  0  0  0  0  0  0
   -2.0408    0.3407   -0.5255 C   0  0  0  0  0  0  0  0  0  0  0  0
    2.7561   -3.4603   -0.2020 C   0  0  0  0  0  0  0  0  0  0  0  0
   -3.0172    1.1241    0.0824 C   0  0  0  0  0  0  0  0  0  0  0  0
   -2.2511   -1.0205   -0.7240 C   0  0  0  0  0  0  0  0  0  0  0  0
   -4.2151    0.5408    0.4957 C   0  0  0  0  0  0  0  0  0  0  0  0
   -3.4489   -1.6038   -0.3108 C   0  0  0  0  0  0  0  0  0  0  0  0
   -4.4308   -0.8231    0.2992 C   0  0  0  0  0  0  0  0  0  0  0  0
  1 21  1  0
  2  7  2  0
  3  9  2  0
  4  5  2  0
  4  6  1  0
  5 15  1  0
  6  7  1  0
  6  9  1  0
  7  8  1  0
  8 10  2  0
  8 11  1  0
  9 12  1  0
 10 13  1  0
 11 14  2  0
 13 16  2  0
 14 16  1  0
 15 17  2  0
 15 18  1  0
 17 19  1  0
 18 20  2  0
 19 21  2  0
 20 21  1  0
M  END
>  <PUBCHEM_COMPOUND_CID>  (1) 
19448

>  <PUBCHEM_CONFORMER_RMSD>  (1) 
0.8

>  <PUBCHEM_CONFORMER_DIVERSEORDER>  (1) 
3
74
87
64
5
48
56
63
83
53
75
81
60
80
27
13
44
82
41
43
30
17
57
50
59
72
67
70
16
20
38
22
40
45
62
37
85
55
54
73
90
6
42
49
79
65
28
89
14
46
2
61
23
18
15
8
19
84
21
36
7
71
86
47
69
25
31
66
24
4
88
1
58
78
77
35
76
34
26
32
11
52
29
33
68
51
10
12
9
39

>  <PUBCHEM_MMFF94_PARTIAL_CHARGES>  (1) 
30
1 -0.18
10 -0.15
11 -0.15
12 0.06
13 -0.15
14 -0.15
15 0.18
16 -0.15
17 -0.15
18 -0.15
19 -0.15
2 -0.57
20 -0.15
21 0.18
23 0.15
24 0.15
28 0.15
29 0.15
3 -0.57
30 0.15
31 0.15
32 0.15
33 0.15
34 0.15
4 -0.25
5 -0.18
6 0.37
7 0.42
8 0.09
9 0.45

>  <PUBCHEM_EFFECTIVE_ROTOR_COUNT>  (1) 
5

>  <PUBCHEM_PHARMACOPHORE_FEATURES>  (1) 
5
1 2 acceptor
1 3 acceptor
1 6 anion
6 15 17 18 19 20 21 rings
6 8 10 11 13 14 16 rings

>  <PUBCHEM_HEAVY_ATOM_COUNT>  (1) 
21

>  <PUBCHEM_ATOM_DEF_STEREO_COUNT>  (1) 
0

>  <PUBCHEM_ATOM_UDEF_STEREO_COUNT>  (1) 
1

>  <PUBCHEM_BOND_DEF_STEREO_COUNT>  (1) 
0

>  <PUBCHEM_BOND_UDEF_STEREO_COUNT>  (1) 
0

>  <PUBCHEM_ISOTOPIC_ATOM_COUNT>  (1) 
0

>  <PUBCHEM_COMPONENT_COUNT>  (1) 
1

>  <PUBCHEM_CACTVS_TAUTO_COUNT>  (1) 
5

>  <PUBCHEM_CONFORMER_ID>  (1) 
00004BF800000003

>  <PUBCHEM_MMFF94_ENERGY>  (1) 
51.963

>  <PUBCHEM_FEATURE_SELFOVERLAP>  (1) 
25.372

>  <PUBCHEM_SHAPE_FINGERPRINT>  (1) 
10616163 171 18123470746200587455
114674 6 18187646929105644163
11578080 2 17531795849613674876
12107183 9 18196382416513751209
12363563 72 18263363581712876922
12506688 2 18339075995429871720
12553582 1 18341045212265855494
13140716 1 17979066420604085273
13533116 47 18338240474816465555
13785724 45 18126585431035641815
14178342 30 18199451328742699178
14790565 3 18194401323904400532
14848160 33 18335974303314467407
14863182 85 18336548308924658548
14866123 147 17331964919971226603
15422964 175 18267859497812098862
15885798 251 18194684756937012729
17138139 8 16690736859476471711
17492 89 18411704288117697267
17818456 19 17845104974020426697
17859628 70 18336836389218620747
1813 80 17458069265997245303
19591789 44 16467558483106951285
20291156 8 18337671888911130618
20645477 70 18263356053135834453
20739085 24 18410848880913829040
21197605 99 17759530254461274419
21421861 104 18411991277415327417
2255824 54 18264490770231279796
23184049 29 18050560747377983102
23559900 14 18412822504143073665
3117164 225 18267605537208322249
31174 14 18335136518366494695
314173 41 18337115566118731247
3421961 26 18411418388633334946
44317340 157 9799143890502581715
5104073 3 18341618084157869579
59755656 520 17689433110988056788
6443956 14 18336828589467918247
6823239 73 18059593372380791854
7097593 13 18342174479595596533
7364860 26 18340208608228543684
81228 2 17836919002160804420
8988823 20 18339074995404476039
9709674 26 18335986458414799931

>  <PUBCHEM_SHAPE_MULTIPOLES>  (1) 
412.34
8.99
4.46
1.12
13.92
2.17
-0.01
-6.24
-2.36
-5.22
0.27
-0.57
-0.23
0.03

>  <PUBCHEM_SHAPE_SELFOVERLAP>  (1) 
870.315

>  <PUBCHEM_SHAPE_VOLUME>  (1) 
231.3

>  <PUBCHEM_COORDINATE_TYPE>  (1) 
2
5
10

$$$$
