19446
     RDKit          3D

 21 22  0  0  1  0  0  0  0  0999 V2000
    3.1597   -1.2855    0.9622 O   0  0  0  0  0  0  0  0  0  0  0  0
    0.5447   -3.4193    0.8324 O   0  0  0  0  0  0  0  0  0  0  0  0
   -0.0672   -0.9511    0.0261 N   0  0  0  0  0  0  0  0  0  0  0  0
   -0.9417   -1.0084   -0.8622 N   0  0  0  0  0  0  0  0  0  0  0  0
    1.2130   -1.4896   -0.4447 C   0  0  0  0  0  0  0  0  0  0  0  0
    2.3182   -0.7228    0.2638 C   0  0  0  0  0  0  0  0  0  0  0  0
    2.3854    0.7621    0.1152 C   0  0  0  0  0  0  0  0  0  0  0  0
    1.1653   -2.9716   -0.1317 C   0  0  0  0  0  0  0  0  0  0  0  0
   -2.1481   -0.4847   -0.3682 C   0  0  0  0  0  0  0  0  0  0  0  0
    1.9254    1.3279   -1.0509 C   0  0  0  0  0  0  0  0  0  0  0  0
    2.9050    1.5038    1.1504 C   0  0  0  0  0  0  0  0  0  0  0  0
   -3.6203    1.3918   -0.0194 C   0  0  0  0  0  0  0  0  0  0  0  0
   -2.4225    0.8724   -0.5102 C   0  0  0  0  0  0  0  0  0  0  0  0
    1.8944   -3.8889   -1.0798 C   0  0  0  0  0  0  0  0  0  0  0  0
   -3.0608   -1.3268    0.2600 C   0  0  0  0  0  0  0  0  0  0  0  0
   -4.5384    0.5521    0.6112 C   0  0  0  0  0  0  0  0  0  0  0  0
    1.9886    2.7145   -1.1898 C   0  0  0  0  0  0  0  0  0  0  0  0
    2.9682    2.8904    1.0116 C   0  0  0  0  0  0  0  0  0  0  0  0
   -4.2587   -0.8072    0.7508 C   0  0  0  0  0  0  0  0  0  0  0  0
    2.5098    3.4957   -0.1585 C   0  0  0  0  0  0  0  0  0  0  0  0
   -3.9200    2.8453   -0.1684 C   0  0  0  0  0  0  0  0  0  0  0  0
  1  6  2  0
  2  8  2  0
  3  4  2  0
  3  5  1  0
  4  9  1  0
  5  6  1  0
  5  8  1  0
  6  7  1  0
  7 10  2  0
  7 11  1  0
  8 14  1  0
  9 13  1  0
  9 15  2  0
 10 17  1  0
 11 18  2  0
 12 13  2  0
 12 16  1  0
 12 21  1  0
 15 19  1  0
 16 19  2  0
 17 20  2  0
 18 20  1  0
M  END
>  <PUBCHEM_COMPOUND_CID>  (1) 
19446

>  <PUBCHEM_CONFORMER_RMSD>  (1) 
0.8

>  <PUBCHEM_CONFORMER_DIVERSEORDER>  (1) 
5
141
192
73
190
32
28
198
195
111
13
63
144
138
80
203
21
69
148
35
202
76
20
86
154
180
122
107
112
115
16
26
79
71
134
84
147
191
142
125
151
27
172
83
60
200
39
23
197
171
102
136
11
61
160
169
129
85
52
149
120
146
95
176
47
174
114
68
97
201
103
143
183
31
82
7
106
165
55
8
74
178
156
49
168
92
3
170
116
124
105
140
25
75
181
193
17
98
185
93
189
199
126
41
121
62
24
51
182
38
87
155
159
109
4
163
44
22
135
77
50
173
46
88
131
96
48
53
42
118
123
100
145
64
99
139
175
30
127
196
57
166
158
70
113
10
19
133
6
187
153
110
117
67
89
188
58
104
184
33
132
2
54
179
66
162
101
45
15
152
186
1
90
161
14
91
94
130
43
137
81
78
36
128
12
177
40
119
56
194
164
65
157
167
34
59
29
18
108
9
150
72
37

>  <PUBCHEM_MMFF94_PARTIAL_CHARGES>  (1) 
30
1 -0.57
10 -0.15
11 -0.15
12 -0.14
13 -0.15
14 0.06
15 -0.15
16 -0.15
17 -0.15
18 -0.15
19 -0.15
2 -0.57
20 -0.15
21 0.14
23 0.15
24 0.15
25 0.15
29 0.15
3 -0.25
30 0.15
31 0.15
32 0.15
33 0.15
34 0.15
4 -0.18
5 0.37
6 0.42
7 0.09
8 0.45
9 0.18

>  <PUBCHEM_EFFECTIVE_ROTOR_COUNT>  (1) 
5

>  <PUBCHEM_PHARMACOPHORE_FEATURES>  (1) 
5
1 1 acceptor
1 2 acceptor
1 5 anion
6 7 10 11 17 18 20 rings
6 9 12 13 15 16 19 rings

>  <PUBCHEM_HEAVY_ATOM_COUNT>  (1) 
21

>  <PUBCHEM_ATOM_DEF_STEREO_COUNT>  (1) 
0

>  <PUBCHEM_ATOM_UDEF_STEREO_COUNT>  (1) 
1

>  <PUBCHEM_BOND_DEF_STEREO_COUNT>  (1) 
0

>  <PUBCHEM_BOND_UDEF_STEREO_COUNT>  (1) 
0

>  <PUBCHEM_ISOTOPIC_ATOM_COUNT>  (1) 
0

>  <PUBCHEM_COMPONENT_COUNT>  (1) 
1

>  <PUBCHEM_CACTVS_TAUTO_COUNT>  (1) 
5

>  <PUBCHEM_CONFORMER_ID>  (1) 
00004BF600000005

>  <PUBCHEM_MMFF94_ENERGY>  (1) 
53.7691

>  <PUBCHEM_FEATURE_SELFOVERLAP>  (1) 
25.372

>  <PUBCHEM_SHAPE_FINGERPRINT>  (1) 
10090160 65 18192139607110838687
10366900 7 18187097126294625947
11725454 13 16555639758845753608
12173636 292 18124312967616895759
12633257 1 17969490520608819705
12788726 201 16748195168285260678
13140716 1 18409724079853677073
13533116 47 18338802209288906261
138480 1 18267305318176712020
14026960 21 18336831991250847643
14466204 15 18339073801144916384
14790565 3 18336267925070932740
14955137 171 18411421666326722154
15420108 30 18056166173657886706
1601671 61 18339924797417098526
20681677 76 18264487296193015847
20739085 24 18334572400667473128
21524375 3 18199749326548508654
21731228 192 18266170815460957514
21756936 100 17982449605552257852
21860390 5 18198619930480129031
21864079 5 18341609351941035221
22749437 52 18411131442280265377
23419403 2 16618939355862322738
23558518 356 18122333838477590710
23559900 14 18266457612413948179
2637199 183 18117012163517517156
350125 39 18337114574070638318
3610482 184 16741168129908099572
474 4 18409726300589191347
49207404 50 18261684782423771363
5048184 11 18194686092577240549
5939293 188 18338228246432624402
6287921 2 18335993050841030607
6442390 28 18052833716674377415
6443956 14 18195248819603422806
7097593 13 18191020102162529283
7364860 26 18341334387923846246
7808743 9 17690283033439306408
81228 2 17114952085056818510
9709674 26 18336834100402231979

>  <PUBCHEM_SHAPE_MULTIPOLES>  (1) 
410.47
7.81
4.8
1.07
8.48
1.57
-0.01
-4.56
1.69
-3.98
-0.58
-0.58
-0.11
0.56

>  <PUBCHEM_SHAPE_SELFOVERLAP>  (1) 
873.36

>  <PUBCHEM_SHAPE_VOLUME>  (1) 
228.9

>  <PUBCHEM_COORDINATE_TYPE>  (1) 
2
5
10

$$$$
