19449
     RDKit          3D

 20 20  0  0  1  0  0  0  0  0999 V2000
    4.2826   -0.6416    0.1794 O   0  0  0  0  0  0  0  0  0  0  0  0
    3.0910    1.8189   -1.5065 O   0  0  0  0  0  0  0  0  0  0  0  0
    2.4332   -1.6857   -0.7166 O   0  0  0  0  0  0  0  0  0  0  0  0
   -6.0499    0.6388   -0.5821 O   0  0  0  0  0  0  0  0  0  0  0  0
    0.8179    0.3325    0.0059 N   0  0  0  0  0  0  0  0  0  0  0  0
    0.1155    0.3192    1.0386 N   0  0  0  0  0  0  0  0  0  0  0  0
    2.2365    0.5031    0.3203 C   0  0  0  0  0  0  0  0  0  0  0  0
    2.6600    1.7913   -0.3537 C   0  0  0  0  0  0  0  0  0  0  0  0
   -3.9125   -0.1709    0.0007 C   0  0  0  0  0  0  0  0  0  0  0  0
   -1.2355    0.1551    0.6899 C   0  0  0  0  0  0  0  0  0  0  0  0
    2.9601   -0.7354   -0.1528 C   0  0  0  0  0  0  0  0  0  0  0  0
   -3.1141   -1.2883    0.2441 C   0  0  0  0  0  0  0  0  0  0  0  0
   -3.3695    1.1100    0.1027 C   0  0  0  0  0  0  0  0  0  0  0  0
   -1.7726   -1.1250    0.5897 C   0  0  0  0  0  0  0  0  0  0  0  0
   -2.0280    1.2734    0.4481 C   0  0  0  0  0  0  0  0  0  0  0  0
    5.0904   -1.7678   -0.1773 C   0  0  0  0  0  0  0  0  0  0  0  0
    2.4999    3.0598    0.4450 C   0  0  0  0  0  0  0  0  0  0  0  0
   -5.3112   -0.3411   -0.3592 C   0  0  0  0  0  0  0  0  0  0  0  0
    6.5175   -1.5081    0.2560 C   0  0  0  0  0  0  0  0  0  0  0  0
   -5.9113   -1.7384   -0.4722 C   0  0  0  0  0  0  0  0  0  0  0  0
  1 11  1  0
  1 16  1  0
  2  8  2  0
  3 11  2  0
  4 18  2  0
  5  6  2  0
  5  7  1  0
  6 10  1  0
  7  8  1  0
  7 11  1  0
  8 17  1  0
  9 12  2  0
  9 13  1  0
  9 18  1  0
 10 14  2  0
 10 15  1  0
 12 14  1  0
 13 15  2  0
 16 19  1  0
 18 20  1  0
M  END
>  <PUBCHEM_COMPOUND_CID>  (1) 
19449

>  <PUBCHEM_CONFORMER_RMSD>  (1) 
0.8

>  <PUBCHEM_CONFORMER_DIVERSEORDER>  (1) 
1
43
94
77
10
54
85
79
89
28
44
46
38
34
53
31
60
45
98
69
16
66
93
42
76
74
20
70
48
97
84
90
91
96
22
55
56
99
71
67
26
19
7
24
73
65
88
92
27
30
59
14
18
23
9
95
29
61
33
75
63
72
41
3
32
51
15
68
62
82
25
47
87
80
5
35
37
17
21
11
40
52
13
39
86
83
78
58
81
36
8
6
49
12
4
50
2
57
64

>  <PUBCHEM_MMFF94_PARTIAL_CHARGES>  (1) 
23
1 -0.43
10 0.18
11 0.66
12 -0.15
13 -0.15
14 -0.15
15 -0.15
16 0.28
17 0.06
18 0.42
2 -0.57
20 0.06
22 0.15
23 0.15
24 0.15
25 0.15
3 -0.57
4 -0.57
5 -0.25
6 -0.18
7 0.37
8 0.45
9 0.09

>  <PUBCHEM_EFFECTIVE_ROTOR_COUNT>  (1) 
7

>  <PUBCHEM_PHARMACOPHORE_FEATURES>  (1) 
5
1 2 acceptor
1 3 acceptor
1 4 acceptor
1 7 anion
6 9 10 12 13 14 15 rings

>  <PUBCHEM_HEAVY_ATOM_COUNT>  (1) 
20

>  <PUBCHEM_ATOM_DEF_STEREO_COUNT>  (1) 
0

>  <PUBCHEM_ATOM_UDEF_STEREO_COUNT>  (1) 
1

>  <PUBCHEM_BOND_DEF_STEREO_COUNT>  (1) 
0

>  <PUBCHEM_BOND_UDEF_STEREO_COUNT>  (1) 
0

>  <PUBCHEM_ISOTOPIC_ATOM_COUNT>  (1) 
0

>  <PUBCHEM_COMPONENT_COUNT>  (1) 
1

>  <PUBCHEM_CACTVS_TAUTO_COUNT>  (1) 
10

>  <PUBCHEM_CONFORMER_ID>  (1) 
00004BF900000001

>  <PUBCHEM_MMFF94_ENERGY>  (1) 
39.7586

>  <PUBCHEM_FEATURE_SELFOVERLAP>  (1) 
25.373

>  <PUBCHEM_SHAPE_FINGERPRINT>  (1) 
10670039 82 15719665464251341719
11315181 36 18273216378370665299
12166972 35 18131069333752666960
12516196 113 18341047433380833410
12596602 18 10159703503934468325
12916754 54 18412265047394964225
13288520 33 18343581815966836467
13533116 47 18410855498788148713
13862211 1 18337671911166987802
14170010 4 18410008862672903296
14341114 328 10231752267013252508
14863182 85 16630536115733370782
15048467 5 8142084269207402375
15183329 4 18114176389669062555
15196674 1 18410574028823791145
17844677 252 18410580600266490681
18186145 218 17603579759718828577
18222031 100 18341057320506558814
18335252 98 17971200463612942363
18681886 176 18342449353213166658
19784866 240 18201726119664084378
200 152 18060699481278202859
20369508 70 17917992819037240312
20374829 77 18341891879437836979
20612939 158 18113626698596227788
20645477 70 18411702109862149462
21267235 1 18410580578374929435
221490 88 18264218061551592418
22224240 67 12319441183203583870
23402539 116 18342454803663626485
23559900 14 18411131480533570585
3004659 81 18335415772850329443
3286 77 18411418410324709172
351380 180 18410572885866871615
4214541 1 18411982429988510257
5104073 3 18341620355889555697
5281201 14 18334295374812716141
559249 180 18339640027815557875
633830 44 17240760743816237659
67856867 119 18342172327727615864
9709674 26 18263367056415103819
9981440 41 17616250720991994528

>  <PUBCHEM_SHAPE_MULTIPOLES>  (1) 
378.15
14.44
2.38
0.86
2.22
1.12
0.08
-7.42
2.28
-2.54
0.13
-0.15
0.16
-0.35

>  <PUBCHEM_SHAPE_SELFOVERLAP>  (1) 
774.302

>  <PUBCHEM_SHAPE_VOLUME>  (1) 
218.6

>  <PUBCHEM_COORDINATE_TYPE>  (1) 
2
5
10

$$$$
