19454
     RDKit          3D

 22 25  0  0  1  0  0  0  0  0999 V2000
   -4.7187    0.7711    0.4247 O   0  0  0  0  0  0  0  0  0  0  0  0
    5.8091   -0.1818   -0.8069 O   0  0  0  0  0  0  0  0  0  0  0  0
   -2.6213   -0.5169    0.4330 C   0  0  0  0  0  0  0  0  0  0  0  0
   -1.8150    0.7967    0.2306 C   0  0  0  0  0  0  0  0  0  0  0  0
   -0.3221    0.6695    0.6230 C   0  0  0  0  0  0  0  0  0  0  0  0
    0.3921   -0.5335   -0.0442 C   0  0  0  0  0  0  0  0  0  0  0  0
   -3.9469   -0.1820   -0.3188 C   0  0  0  0  0  0  0  0  0  0  0  0
   -1.8753   -1.7114   -0.2131 C   0  0  0  0  0  0  0  0  0  0  0  0
   -2.1368    1.1963   -1.2202 C   0  0  0  0  0  0  0  0  0  0  0  0
   -0.4106   -1.8277    0.2015 C   0  0  0  0  0  0  0  0  0  0  0  0
    0.4991    1.9845    0.5141 C   0  0  0  0  0  0  0  0  0  0  0  0
   -3.4733    0.5369   -1.5873 C   0  0  0  0  0  0  0  0  0  0  0  0
    1.8656   -0.7047    0.4598 C   0  0  0  0  0  0  0  0  0  0  0  0
   -2.8603   -0.8013    1.9286 C   0  0  0  0  0  0  0  0  0  0  0  0
    1.8667    1.7562    1.1781 C   0  0  0  0  0  0  0  0  0  0  0  0
    2.6172    0.6139    0.5420 C   0  0  0  0  0  0  0  0  0  0  0  0
   -4.8567   -1.3656   -0.6388 C   0  0  0  0  0  0  0  0  0  0  0  0
    2.6115   -1.7289   -0.4229 C   0  0  0  0  0  0  0  0  0  0  0  0
    0.7023    2.5482   -0.8972 C   0  0  0  0  0  0  0  0  0  0  0  0
    4.1082   -1.7432   -0.1634 C   0  0  0  0  0  0  0  0  0  0  0  0
    3.8823    0.7870    0.1279 C   0  0  0  0  0  0  0  0  0  0  0  0
    4.6827   -0.3632   -0.3504 C   0  0  0  0  0  0  0  0  0  0  0  0
  1  7  1  0
  2 22  2  0
  3  4  1  0
  3  7  1  0
  3  8  1  0
  3 14  1  0
  4  5  1  0
  4  9  1  0
  5  6  1  0
  5 11  1  0
  6 10  1  0
  6 13  1  0
  7 12  1  0
  7 17  1  0
  8 10  1  0
  9 12  1  0
 11 15  1  0
 11 19  1  0
 13 16  1  0
 13 18  1  0
 15 16  1  0
 16 21  2  0
 18 20  1  0
 20 22  1  0
 21 22  1  0
M  END
>  <PUBCHEM_COMPOUND_CID>  (1) 
19454

>  <PUBCHEM_CONFORMER_RMSD>  (1) 
0.6

>  <PUBCHEM_CONFORMER_DIVERSEORDER>  (1) 
1
52
47
50
42
6
25
58
27
24
33
32
41
7
31
54
38
8
21
20
40
30
28
55
17
35
34
18
4
43
15
12
10
9
2
37
19
46
11
26
13
22
56
36
29
3
48
51
44
49
5
39
14
57
53
45
16
23

>  <PUBCHEM_MMFF94_PARTIAL_CHARGES>  (1) 
11
1 -0.68
13 0.14
15 0.14
16 -0.28
2 -0.57
20 0.06
21 -0.14
22 0.49
49 0.4
52 0.15
7 0.28

>  <PUBCHEM_EFFECTIVE_ROTOR_COUNT>  (1) 
1.8

>  <PUBCHEM_PHARMACOPHORE_FEATURES>  (1) 
7
1 1 acceptor
1 1 donor
1 2 acceptor
5 3 4 7 9 12 rings
6 13 16 18 20 21 22 rings
6 3 4 5 6 8 10 rings
6 5 6 11 13 15 16 rings

>  <PUBCHEM_HEAVY_ATOM_COUNT>  (1) 
22

>  <PUBCHEM_ATOM_DEF_STEREO_COUNT>  (1) 
2

>  <PUBCHEM_ATOM_UDEF_STEREO_COUNT>  (1) 
5

>  <PUBCHEM_BOND_DEF_STEREO_COUNT>  (1) 
0

>  <PUBCHEM_BOND_UDEF_STEREO_COUNT>  (1) 
0

>  <PUBCHEM_ISOTOPIC_ATOM_COUNT>  (1) 
0

>  <PUBCHEM_COMPONENT_COUNT>  (1) 
1

>  <PUBCHEM_CACTVS_TAUTO_COUNT>  (1) 
8

>  <PUBCHEM_CONFORMER_ID>  (1) 
00004BFE00000001

>  <PUBCHEM_MMFF94_ENERGY>  (1) 
70.4277

>  <PUBCHEM_FEATURE_SELFOVERLAP>  (1) 
35.72

>  <PUBCHEM_SHAPE_FINGERPRINT>  (1) 
10366900 7 17822285816749751979
10498660 4 17677038058271503301
10759866 29 17531802455494616066
11112241 14 16986289846094246752
11578080 2 16843855634813412697
12011746 2 18335134293647171431
12236239 1 17060339643331678433
12403259 415 18335973234131211789
12553582 1 18272934899647515970
12596602 18 16343414089988541330
12670546 177 17895198818044165852
12760667 363 18129385900242184966
12788726 201 18127126364564802056
13134695 92 18059569213369014952
13140716 1 18124584534309990952
13224815 77 18411695487386368114
13288520 33 17846502525574859871
13533116 47 17845087553395339585
13544653 18 18342463608203944184
13862211 1 18342173350320170322
13944108 23 16389278766012220341
14386348 63 18408324388782667370
14790565 3 18195535796117326361
15099037 51 18409164411529550415
15163728 17 15793953912064507975
15196674 1 18413669123284418787
15536298 74 18130499833599507552
15635459 17 18412543197929792010
15848702 151 17917997152616868495
16945 1 18273207621185647208
17349148 13 17561365114566583503
17357779 13 18410845543138723244
1813 80 17703524228734085676
18186145 218 18337941342696184529
19784866 240 17989209282753885967
19862831 5 18335136479780353994
200 152 17775564243006283507
20645477 70 18341325686636342704
20871999 31 18040714744799093436
21029758 11 18272087184324295680
21033648 29 18335689546898333585
21069387 34 17489013968114458253
21267235 1 18343309183800598814
21285901 2 18264485100842320348
221357 26 18412535510033161077
221490 88 18266742574192083306
22182313 1 18263622087157113244
23175994 123 18409174293990998085
23402539 116 18202000993370974102
23419403 2 16156566416701154160
23493267 7 17676202438050552296
23557571 272 17894910702821363628
23559900 14 18271238426415935256
2748010 2 18336537274552437824
2871803 45 18410295775130737142
3004659 81 18261393292158871634
3286 77 18059570356162261065
3323516 105 18411973676391369839
335352 9 18342175536263053077
34797466 226 16153720820336087151
34934 24 18341044194769997714
350125 39 18267311022162676795
46194498 28 17968373575598312157
4921388 177 16588317102272253395
5104073 3 18342736338400693107
59755656 215 18335127667150930773
7364860 26 18197776807131198760
9709674 26 18193269913327059803

>  <PUBCHEM_SHAPE_MULTIPOLES>  (1) 
441.01
9.63
2.18
1.21
3.19
0.4
0.13
-2.57
-2.01
0.61
-0.16
-0.78
0.19
0.63

>  <PUBCHEM_SHAPE_SELFOVERLAP>  (1) 
942.336

>  <PUBCHEM_SHAPE_VOLUME>  (1) 
242.9

>  <PUBCHEM_COORDINATE_TYPE>  (1) 
2
5
10

$$$$
