19457
     RDKit          3D

 13 13  0  0  0  0  0  0  0  0999 V2000
    2.9315    0.0901   -0.0064 S   0  0  0  0  0  0  0  0  0  0  0  0
    3.1949   -0.6086    1.2406 O   0  0  0  0  0  0  0  0  0  0  0  0
    3.1689   -0.5631   -1.2830 O   0  0  0  0  0  0  0  0  0  0  0  0
    0.6157   -1.6561    0.0099 O   0  0  0  0  0  0  0  0  0  0  0  0
    1.2628    0.6612    0.0210 C   0  0  0  0  0  0  0  0  0  0  0  0
    0.2312   -0.4691    0.0113 C   0  0  0  0  0  0  0  0  0  0  0  0
   -1.1873   -0.1488    0.0054 C   0  0  0  0  0  0  0  0  0  0  0  0
    3.8819    1.5932    0.0109 C   0  0  0  0  0  0  0  0  0  0  0  0
   -1.6013    1.1833    0.0086 C   0  0  0  0  0  0  0  0  0  0  0  0
   -2.1338   -1.1734   -0.0041 C   0  0  0  0  0  0  0  0  0  0  0  0
   -2.9618    1.4908    0.0026 C   0  0  0  0  0  0  0  0  0  0  0  0
   -3.4944   -0.8658   -0.0102 C   0  0  0  0  0  0  0  0  0  0  0  0
   -3.9084    0.4663   -0.0068 C   0  0  0  0  0  0  0  0  0  0  0  0
  1  2  2  0
  1  3  2  0
  1  5  1  0
  1  8  1  0
  4  6  2  0
  5  6  1  0
  6  7  1  0
  7  9  2  0
  7 10  1  0
  9 11  1  0
 10 12  2  0
 11 13  2  0
 12 13  1  0
M  END
>  <PUBCHEM_COMPOUND_CID>  (1) 
19457

>  <PUBCHEM_CONFORMER_RMSD>  (1) 
0.6

>  <PUBCHEM_CONFORMER_DIVERSEORDER>  (1) 
1
22
27
14
13
2
21
7
25
6
3
18
23
8
4
26
20
11
5
24
10
16
17
15
9
12
19

>  <PUBCHEM_MMFF94_PARTIAL_CHARGES>  (1) 
18
1 1.09
10 -0.15
11 -0.15
12 -0.15
13 -0.15
19 0.15
2 -0.65
20 0.15
21 0.15
22 0.15
23 0.15
3 -0.65
4 -0.57
5 0.17
6 0.42
7 0.09
8 0.11
9 -0.15

>  <PUBCHEM_EFFECTIVE_ROTOR_COUNT>  (1) 
3

>  <PUBCHEM_PHARMACOPHORE_FEATURES>  (1) 
4
1 2 acceptor
1 3 acceptor
1 4 acceptor
6 7 9 10 11 12 13 rings

>  <PUBCHEM_HEAVY_ATOM_COUNT>  (1) 
13

>  <PUBCHEM_ATOM_DEF_STEREO_COUNT>  (1) 
0

>  <PUBCHEM_ATOM_UDEF_STEREO_COUNT>  (1) 
0

>  <PUBCHEM_BOND_DEF_STEREO_COUNT>  (1) 
0

>  <PUBCHEM_BOND_UDEF_STEREO_COUNT>  (1) 
0

>  <PUBCHEM_ISOTOPIC_ATOM_COUNT>  (1) 
0

>  <PUBCHEM_COMPONENT_COUNT>  (1) 
1

>  <PUBCHEM_CACTVS_TAUTO_COUNT>  (1) 
2

>  <PUBCHEM_CONFORMER_ID>  (1) 
00004C0100000001

>  <PUBCHEM_MMFF94_ENERGY>  (1) 
28.1609

>  <PUBCHEM_FEATURE_SELFOVERLAP>  (1) 
20.316

>  <PUBCHEM_SHAPE_FINGERPRINT>  (1) 
10608611 8 18412543184802323013
11132069 177 18408602569598784565
12346645 44 18408321094458329307
12932764 1 17822007584209494980
13296908 3 17989210330277467790
13380535 76 18410008806558831371
14144814 61 18333449832990315193
14325111 11 18410855468818453096
14897335 6 18338229363187262511
15219456 202 18131357388181392375
15669948 3 18341606078996620599
15775835 57 18333732429164655520
16945 1 18410575067921020643
18186145 218 18412831261286043044
20279233 1 17346593075885625406
20510252 161 18343588455727962969
20645477 70 17561091263257102630
23402539 116 18341321275351300708
23463225 33 18260824873893891888
23559900 14 18200595791952116174
474 4 17242178079098820028
5104073 3 18409167705722027097
57812782 119 18131068233792600205
633830 44 18341897372199667156
7364860 26 18125157139012659750

>  <PUBCHEM_SHAPE_MULTIPOLES>  (1) 
253.78
7.6
1.54
0.79
1.87
0.17
-0.01
1.5
-0.02
-0.16
0.01
0.58
-0.11
0

>  <PUBCHEM_SHAPE_SELFOVERLAP>  (1) 
509.898

>  <PUBCHEM_SHAPE_VOLUME>  (1) 
149.3

>  <PUBCHEM_COORDINATE_TYPE>  (1) 
2
5
10

$$$$
