19460
     RDKit          3D

  8  7  0  0  0  0  0  0  0  0999 V2000
    0.6621    0.2361   -0.3838 C   0  0  0  0  0  0  0  0  0  0  0  0
   -0.6595    0.2020    0.3874 C   0  0  0  0  0  0  0  0  0  0  0  0
    1.8604    0.2378    0.5676 C   0  0  0  0  0  0  0  0  0  0  0  0
   -1.8582    0.2365   -0.5630 C   0  0  0  0  0  0  0  0  0  0  0  0
    3.1562    0.2387   -0.1883 C   0  0  0  0  0  0  0  0  0  0  0  0
   -3.1535    0.2354    0.1938 C   0  0  0  0  0  0  0  0  0  0  0  0
    4.1012   -0.6984   -0.0540 C   0  0  0  0  0  0  0  0  0  0  0  0
   -4.1088   -0.6881    0.0404 C   0  0  0  0  0  0  0  0  0  0  0  0
  1  2  1  0
  1  3  1  0
  2  4  1  0
  3  5  1  0
  4  6  1  0
  5  7  2  0
  6  8  2  0
M  END
>  <PUBCHEM_COMPOUND_CID>  (1) 
19460

>  <PUBCHEM_CONFORMER_RMSD>  (1) 
0.6

>  <PUBCHEM_CONFORMER_DIVERSEORDER>  (1) 
1
19
30
3
25
34
8
27
9
7
33
5
4
22
20
18
28
6
32
14
13
31
29
11
35
26
15
12
23
16
17
2
24
21
10

>  <PUBCHEM_MMFF94_PARTIAL_CHARGES>  (1) 
12
17 0.15
18 0.15
19 0.15
20 0.15
21 0.15
22 0.15
3 0.14
4 0.14
5 -0.29
6 -0.29
7 -0.3
8 -0.3

>  <PUBCHEM_EFFECTIVE_ROTOR_COUNT>  (1) 
5

>  <PUBCHEM_PHARMACOPHORE_FEATURES>  (1) 
4
1 7 hydrophobe
1 8 hydrophobe
3 1 3 5 hydrophobe
3 2 4 6 hydrophobe

>  <PUBCHEM_HEAVY_ATOM_COUNT>  (1) 
8

>  <PUBCHEM_ATOM_DEF_STEREO_COUNT>  (1) 
0

>  <PUBCHEM_ATOM_UDEF_STEREO_COUNT>  (1) 
0

>  <PUBCHEM_BOND_DEF_STEREO_COUNT>  (1) 
0

>  <PUBCHEM_BOND_UDEF_STEREO_COUNT>  (1) 
0

>  <PUBCHEM_ISOTOPIC_ATOM_COUNT>  (1) 
0

>  <PUBCHEM_COMPONENT_COUNT>  (1) 
1

>  <PUBCHEM_CACTVS_TAUTO_COUNT>  (1) 
1

>  <PUBCHEM_CONFORMER_ID>  (1) 
00004C0400000001

>  <PUBCHEM_MMFF94_ENERGY>  (1) 
0.4805

>  <PUBCHEM_FEATURE_SELFOVERLAP>  (1) 
20.363

>  <PUBCHEM_SHAPE_FINGERPRINT>  (1) 
11062470 55 18411700988907197288
12932764 1 18338498803222524033
14325111 11 18410292510174772960
177051 138 18412263943129205670
17834076 25 13984659244214679319
18342897 14 13470684854372560674
190213 19 18410571786128286529
21293036 1 16081089281396907788
22485316 2 18410851066376760902

>  <PUBCHEM_SHAPE_MULTIPOLES>  (1) 
164.64
8.29
0.78
0.74
0.03
0.07
0
2.1
-0.02
-0.01
0
0
-0.03
0.05

>  <PUBCHEM_SHAPE_SELFOVERLAP>  (1) 
291.295

>  <PUBCHEM_SHAPE_VOLUME>  (1) 
107.5

>  <PUBCHEM_COORDINATE_TYPE>  (1) 
2
5
10

$$$$
