19464
     RDKit          3D

 21 22  0  0  0  0  0  0  0  0999 V2000
   -1.3375    3.7131    0.7057 Cl  0  0  0  0  0  0  0  0  0  0  0  0
   -2.5986    2.8886   -1.8058 Cl  0  0  0  0  0  0  0  0  0  0  0  0
   -3.9056    2.3998    0.7192 Cl  0  0  0  0  0  0  0  0  0  0  0  0
   -1.3370   -3.7142   -0.7039 Cl  0  0  0  0  0  0  0  0  0  0  0  0
   -2.5962   -2.8864    1.8076 Cl  0  0  0  0  0  0  0  0  0  0  0  0
   -3.9057   -2.4019   -0.7170 Cl  0  0  0  0  0  0  0  0  0  0  0  0
    6.3424    0.0007    0.0019 Cl  0  0  0  0  0  0  0  0  0  0  0  0
   -0.2105   -1.1989    0.0449 N   0  0  0  0  0  0  0  0  0  0  0  0
   -0.2106    1.1989   -0.0477 N   0  0  0  0  0  0  0  0  0  0  0  0
   -2.2886   -0.0001   -0.0003 N   0  0  0  0  0  0  0  0  0  0  0  0
    1.8318    0.0002   -0.0014 C   0  0  0  0  0  0  0  0  0  0  0  0
    0.3848    0.0001   -0.0017 C   0  0  0  0  0  0  0  0  0  0  0  0
   -1.5511   -1.1213    0.0424 C   0  0  0  0  0  0  0  0  0  0  0  0
   -1.5512    1.1212   -0.0442 C   0  0  0  0  0  0  0  0  0  0  0  0
    2.5294   -1.0685   -0.5639 C   0  0  0  0  0  0  0  0  0  0  0  0
    2.5290    1.0690    0.5622 C   0  0  0  0  0  0  0  0  0  0  0  0
   -2.2975    2.4108   -0.0924 C   0  0  0  0  0  0  0  0  0  0  0  0
   -2.2969   -2.4111    0.0933 C   0  0  0  0  0  0  0  0  0  0  0  0
    3.9243   -1.0688   -0.5628 C   0  0  0  0  0  0  0  0  0  0  0  0
    3.9238    1.0688    0.5633 C   0  0  0  0  0  0  0  0  0  0  0  0
    4.6216   -0.0001    0.0007 C   0  0  0  0  0  0  0  0  0  0  0  0
  1 17  1  0
  2 17  1  0
  3 17  1  0
  4 18  1  0
  5 18  1  0
  6 18  1  0
  7 21  1  0
  8 12  2  0
  8 13  1  0
  9 12  1  0
  9 14  2  0
 10 13  2  0
 10 14  1  0
 11 12  1  0
 11 15  2  0
 11 16  1  0
 13 18  1  0
 14 17  1  0
 15 19  1  0
 16 20  2  0
 19 21  2  0
 20 21  1  0
M  END
>  <PUBCHEM_COMPOUND_CID>  (1) 
19464

>  <PUBCHEM_CONFORMER_RMSD>  (1) 
0.6

>  <PUBCHEM_CONFORMER_DIVERSEORDER>  (1) 
1
3
6
4
2
5

>  <PUBCHEM_MMFF94_PARTIAL_CHARGES>  (1) 
24
1 -0.29
10 -0.62
12 0.62
13 0.48
14 0.48
15 -0.15
16 -0.15
17 1.01
18 1.01
19 -0.15
2 -0.29
20 -0.15
21 0.18
22 0.15
23 0.15
24 0.15
25 0.15
3 -0.29
4 -0.29
5 -0.29
6 -0.29
7 -0.18
8 -0.62
9 -0.62

>  <PUBCHEM_EFFECTIVE_ROTOR_COUNT>  (1) 
3

>  <PUBCHEM_PHARMACOPHORE_FEATURES>  (1) 
5
3 8 10 13 cation
3 8 9 12 cation
3 9 10 14 cation
6 11 15 16 19 20 21 rings
6 8 9 10 12 13 14 rings

>  <PUBCHEM_HEAVY_ATOM_COUNT>  (1) 
21

>  <PUBCHEM_ATOM_DEF_STEREO_COUNT>  (1) 
0

>  <PUBCHEM_ATOM_UDEF_STEREO_COUNT>  (1) 
0

>  <PUBCHEM_BOND_DEF_STEREO_COUNT>  (1) 
0

>  <PUBCHEM_BOND_UDEF_STEREO_COUNT>  (1) 
0

>  <PUBCHEM_ISOTOPIC_ATOM_COUNT>  (1) 
0

>  <PUBCHEM_COMPONENT_COUNT>  (1) 
1

>  <PUBCHEM_CACTVS_TAUTO_COUNT>  (1) 
1

>  <PUBCHEM_CONFORMER_ID>  (1) 
00004C0800000001

>  <PUBCHEM_MMFF94_ENERGY>  (1) 
45.9529

>  <PUBCHEM_FEATURE_SELFOVERLAP>  (1) 
28.155

>  <PUBCHEM_SHAPE_FINGERPRINT>  (1) 
10319926 262 18270099268382595010
10411042 1 18123751121592031599
10608611 8 18343016692839409504
10670039 82 18118977021431505524
11056379 131 18339934787590248054
12160290 23 18263905727197644249
12173636 292 18268149742901609637
12403259 226 18127967710340427392
12403259 415 17917426575656097976
12500047 106 18337948992106843772
12553582 1 17979088393651997127
12730499 353 17758113692885170573
12788726 201 18334283288759031659
13004483 165 18196643206300527951
13140716 1 18264782123790708593
13681431 1 17613997817233764345
138480 1 16538770561424682471
14178342 30 18335972113329234186
14508225 48 18266166409046136381
14790565 3 17981898444862571336
14844126 61 18409162251124617050
15042514 8 18335993029540254387
16087824 20 18411698765427863261
17357779 13 18196918067190659327
1813 80 17980221973245240615
18927931 339 18338241565332360038
19141452 34 17986116425043694631
19591789 44 17834964074596501861
20101258 96 18189349016091640976
20510252 161 18342739589769985361
20600515 1 17985567768841186907
20645477 56 18337956692714498312
20645477 70 17130991954493913958
21041028 32 18046360892164642219
21065198 57 18412825764392302058
21065201 7 18408318879088700026
21236236 1 18342175566274985391
21524375 3 17974574598130435729
22182313 1 17916881144721341894
22182937 141 18271813371500851297
22224240 67 18267315236042825785
23402539 116 18271801380448052527
23419403 2 17416385766481224689
23557571 272 18341899605988940220
23558518 356 18335424525783130191
23559900 14 18268700766205363120
23598288 3 18263375826748761207
23845131 108 17906750102817925433
283562 15 18409444804301590371
3071541 12 17187287868431557493
3091708 16 8986356358590730201
350125 39 18341054124634224136
352729 6 18340206263392274919
4214541 1 18411699872817100024
4409770 3 18408876348247380191
5104073 3 18411414017300594618
5486654 2 18340485552669241909
559249 180 18263073324287779322
59755656 520 18265332815569960764
633830 44 17697033635032289965
7364860 26 17258781413225995397
81228 2 18334856168919089769
9709674 26 18272091556986111974

>  <PUBCHEM_SHAPE_MULTIPOLES>  (1) 
430.32
9.4
4.53
1.13
15.63
0
0
0
0
-7.29
0
-0.97
0
0.76

>  <PUBCHEM_SHAPE_SELFOVERLAP>  (1) 
851.486

>  <PUBCHEM_SHAPE_VOLUME>  (1) 
252.5

>  <PUBCHEM_COORDINATE_TYPE>  (1) 
2
5
10

$$$$
