1946
     RDKit          3D

 44 49  0  0  0  0  0  0  0  0999 V2000
  -10.6057    0.3953    0.6249 O   0  0  0  0  0  0  0  0  0  0  0  0
   10.6561   -0.4275   -0.7575 O   0  0  0  0  0  0  0  0  0  0  0  0
   -4.2665   -0.5524    0.2067 N   0  0  0  0  0  0  0  0  0  0  0  0
    4.3212   -0.4531    0.3012 N   0  0  0  0  0  0  0  0  0  0  0  0
   -4.3707    0.2241    2.2866 N   0  0  0  0  0  0  0  0  0  0  0  0
    4.4291   -2.0631   -1.2273 N   0  0  0  0  0  0  0  0  0  0  0  0
  -14.6649    1.1105   -1.9281 N   0  0  0  0  0  0  0  0  0  0  0  0
   14.2798    2.7711   -0.3776 N   0  0  0  0  0  0  0  0  0  0  0  0
   -0.6115   -0.7781    0.8404 C   0  0  0  0  0  0  0  0  0  0  0  0
    0.6702   -1.1462    0.2755 C   0  0  0  0  0  0  0  0  0  0  0  0
   -2.9726   -0.5478    0.6610 C   0  0  0  0  0  0  0  0  0  0  0  0
    3.0292   -0.8771    0.1244 C   0  0  0  0  0  0  0  0  0  0  0  0
   -3.0641   -0.0591    1.9612 C   0  0  0  0  0  0  0  0  0  0  0  0
    3.1228   -1.8821   -0.8342 C   0  0  0  0  0  0  0  0  0  0  0  0
   -1.7668   -0.9180    0.0643 C   0  0  0  0  0  0  0  0  0  0  0  0
    1.8233   -0.4800    0.7033 C   0  0  0  0  0  0  0  0  0  0  0  0
   -5.0638   -0.0831    1.2131 C   0  0  0  0  0  0  0  0  0  0  0  0
    5.1198   -1.1911   -0.5274 C   0  0  0  0  0  0  0  0  0  0  0  0
   -0.6713   -0.2906    2.1480 C   0  0  0  0  0  0  0  0  0  0  0  0
    0.7323   -2.1588   -0.6848 C   0  0  0  0  0  0  0  0  0  0  0  0
   -1.8932    0.0749    2.7265 C   0  0  0  0  0  0  0  0  0  0  0  0
    1.9544   -2.5410   -1.2523 C   0  0  0  0  0  0  0  0  0  0  0  0
   -6.4934    0.0396    1.0612 C   0  0  0  0  0  0  0  0  0  0  0  0
    6.5480   -0.9949   -0.5866 C   0  0  0  0  0  0  0  0  0  0  0  0
  -12.6193    0.7307   -0.6370 C   0  0  0  0  0  0  0  0  0  0  0  0
   12.4622    1.1414   -0.5665 C   0  0  0  0  0  0  0  0  0  0  0  0
  -13.2119    1.0255   -2.0112 C   0  0  0  0  0  0  0  0  0  0  0  0
   13.0958    2.2371    0.2845 C   0  0  0  0  0  0  0  0  0  0  0  0
  -11.0993    0.6577   -0.6880 C   0  0  0  0  0  0  0  0  0  0  0  0
   11.2088    0.5785    0.0900 C   0  0  0  0  0  0  0  0  0  0  0  0
   -7.0417    0.2960   -0.1954 C   0  0  0  0  0  0  0  0  0  0  0  0
    7.2386   -0.5538    0.5422 C   0  0  0  0  0  0  0  0  0  0  0  0
   -7.3271   -0.0970    2.1713 C   0  0  0  0  0  0  0  0  0  0  0  0
    7.2379   -1.2450   -1.7728 C   0  0  0  0  0  0  0  0  0  0  0  0
   -9.2572    0.2790    0.7678 C   0  0  0  0  0  0  0  0  0  0  0  0
    9.3090   -0.6133   -0.7014 C   0  0  0  0  0  0  0  0  0  0  0  0
   -8.4236    0.4156   -0.3422 C   0  0  0  0  0  0  0  0  0  0  0  0
    8.6191   -0.3630    0.4848 C   0  0  0  0  0  0  0  0  0  0  0  0
   -8.7089    0.0226    2.0246 C   0  0  0  0  0  0  0  0  0  0  0  0
    8.6184   -1.0542   -1.8303 C   0  0  0  0  0  0  0  0  0  0  0  0
  -15.0740    2.3843   -1.3337 C   0  0  0  0  0  0  0  0  0  0  0  0
  -15.2673    0.9521   -3.2531 C   0  0  0  0  0  0  0  0  0  0  0  0
   15.4362    1.9040   -0.1445 C   0  0  0  0  0  0  0  0  0  0  0  0
   14.5625    4.1300    0.0880 C   0  0  0  0  0  0  0  0  0  0  0  0
  1 29  1  0
  1 35  1  0
  2 30  1  0
  2 36  1  0
  3 11  1  0
  3 17  1  0
  4 12  1  0
  4 18  1  0
  5 13  1  0
  5 17  2  0
  6 14  1  0
  6 18  2  0
  7 27  1  0
  7 41  1  0
  7 42  1  0
  8 28  1  0
  8 43  1  0
  8 44  1  0
  9 10  1  0
  9 15  2  0
  9 19  1  0
 10 16  2  0
 10 20  1  0
 11 13  2  0
 11 15  1  0
 12 14  2  0
 12 16  1  0
 13 21  1  0
 14 22  1  0
 17 23  1  0
 18 24  1  0
 19 21  2  0
 20 22  2  0
 23 31  2  0
 23 33  1  0
 24 32  2  0
 24 34  1  0
 25 27  1  0
 25 29  1  0
 26 28  1  0
 26 30  1  0
 31 37  1  0
 32 38  1  0
 33 39  2  0
 34 40  2  0
 35 37  2  0
 35 39  1  0
 36 38  2  0
 36 40  1  0
M  END
>  <PUBCHEM_COMPOUND_CID>  (1) 
1946

>  <PUBCHEM_CONFORMER_RMSD>  (1) 
1.2

>  <PUBCHEM_CONFORMER_DIVERSEORDER>  (1) 
5
55
49
28
4
9
42
15
40
19
11
48
41
16
43
33
54
23
38
18
13
45
22
1
26
52
21
34
12
44
20
17
50
7
37
6
8
29
47
35
39
56
30
24
31
53
51
27
46
25
14
10
32
2
36
3

>  <PUBCHEM_MMFF94_PARTIAL_CHARGES>  (1) 
56
1 -0.36
11 -0.15
12 -0.15
13 0.23
14 0.23
15 -0.15
16 -0.15
17 0.13
18 0.13
19 -0.15
2 -0.36
20 -0.15
21 -0.15
22 -0.15
23 0.05
24 0.05
27 0.27
28 0.27
29 0.28
3 0.03
30 0.28
31 -0.15
32 -0.15
33 -0.15
34 -0.15
35 0.08
36 0.08
37 -0.15
38 -0.15
39 -0.15
4 0.03
40 -0.15
41 0.27
42 0.27
43 0.27
44 0.27
45 0.15
46 0.15
47 0.27
48 0.27
49 0.15
5 -0.57
50 0.15
51 0.15
52 0.15
6 -0.57
65 0.15
66 0.15
67 0.15
68 0.15
69 0.15
7 -0.81
70 0.15
71 0.15
72 0.15
8 -0.81

>  <PUBCHEM_EFFECTIVE_ROTOR_COUNT>  (1) 
13

>  <PUBCHEM_PHARMACOPHORE_FEATURES>  (1) 
14
1 1 acceptor
1 2 acceptor
1 3 donor
1 4 donor
1 7 cation
1 8 cation
3 3 5 17 cation
3 4 6 18 cation
5 3 5 11 13 17 rings
5 4 6 12 14 18 rings
6 10 12 14 16 20 22 rings
6 23 31 33 35 37 39 rings
6 24 32 34 36 38 40 rings
6 9 11 13 15 19 21 rings

>  <PUBCHEM_HEAVY_ATOM_COUNT>  (1) 
44

>  <PUBCHEM_ATOM_DEF_STEREO_COUNT>  (1) 
0

>  <PUBCHEM_ATOM_UDEF_STEREO_COUNT>  (1) 
0

>  <PUBCHEM_BOND_DEF_STEREO_COUNT>  (1) 
0

>  <PUBCHEM_BOND_UDEF_STEREO_COUNT>  (1) 
0

>  <PUBCHEM_ISOTOPIC_ATOM_COUNT>  (1) 
0

>  <PUBCHEM_COMPONENT_COUNT>  (1) 
1

>  <PUBCHEM_CACTVS_TAUTO_COUNT>  (1) 
3

>  <PUBCHEM_CONFORMER_ID>  (1) 
0000079A00000005

>  <PUBCHEM_MMFF94_ENERGY>  (1) 
125.8917

>  <PUBCHEM_FEATURE_SELFOVERLAP>  (1) 
71.264

>  <PUBCHEM_SHAPE_FINGERPRINT>  (1) 
11061554 47 18411422787534895008
12013929 94 15410891848102890387
12559415 141 12175621785041332085
12559415 43 18259980478897292660
12559415 90 18114179700883086908
14251920 17 18202005443537244162
15061470 23 17313106345861255223
15219723 13 10737282459131517888
15247644 1 10159696889601208748
15343295 29 14562527380804298811
15347591 1 13408802209336009603
15538507 75 13912320188312030280
20105231 36 14692568793926671623
21057603 11 16009037202461649443
21362035 250 11815897876910725597
21362267 2 18114184184982750621
232437 2 15195565680914709779
306946 40 18113618984254468366
3092352 35 15984824801298469830
44389302 135 14418131847459955472
54039377 194 15985098597516674371
57828716 72 18409446990070497077
58716252 7 11455893568669977260
9663363 56 18041001734497727889

>  <PUBCHEM_SHAPE_MULTIPOLES>  (1) 
863.87
77.36
2.31
2.2
10.2
1.83
-0.06
81.09
43.62
-9.77
0.9
8.1
0.07
5.18

>  <PUBCHEM_SHAPE_SELFOVERLAP>  (1) 
1888.004

>  <PUBCHEM_SHAPE_VOLUME>  (1) 
478

>  <PUBCHEM_COORDINATE_TYPE>  (1) 
2
5
10

$$$$
