19470
     RDKit          3D

  8  8  0  0  0  0  0  0  0  0999 V2000
   -0.0619    1.6649   -0.0189 O   0  0  0  0  0  0  0  0  0  0  0  0
   -1.0040   -0.4448    0.0687 N   0  0  0  0  0  0  0  0  0  0  0  0
    1.3297   -0.2009    0.0064 N   0  0  0  0  0  0  0  0  0  0  0  0
   -2.2479   -0.1032    0.6934 C   0  0  0  0  0  0  0  0  0  0  0  0
   -2.1589   -0.3006   -0.7679 C   0  0  0  0  0  0  0  0  0  0  0  0
    0.0741    0.4386    0.0156 C   0  0  0  0  0  0  0  0  0  0  0  0
    1.5204   -1.6496    0.0465 C   0  0  0  0  0  0  0  0  0  0  0  0
    2.5484    0.5957   -0.0438 C   0  0  0  0  0  0  0  0  0  0  0  0
  1  6  2  0
  2  4  1  0
  2  5  1  0
  2  6  1  0
  3  6  1  0
  3  7  1  0
  3  8  1  0
  4  5  1  0
M  END
>  <PUBCHEM_COMPOUND_CID>  (1) 
19470

>  <PUBCHEM_CONFORMER_RMSD>  (1) 
0.4

>  <PUBCHEM_CONFORMER_DIVERSEORDER>  (1) 
1
5
4
3
2

>  <PUBCHEM_MMFF94_PARTIAL_CHARGES>  (1) 
12
1 -0.57
10 0.1
11 0.1
12 0.1
2 -0.36
3 -0.66
4 -0.05
5 -0.05
6 0.69
7 0.3
8 0.3
9 0.1

>  <PUBCHEM_EFFECTIVE_ROTOR_COUNT>  (1) 
2.6

>  <PUBCHEM_PHARMACOPHORE_FEATURES>  (1) 
1
1 1 acceptor

>  <PUBCHEM_HEAVY_ATOM_COUNT>  (1) 
8

>  <PUBCHEM_ATOM_DEF_STEREO_COUNT>  (1) 
0

>  <PUBCHEM_ATOM_UDEF_STEREO_COUNT>  (1) 
0

>  <PUBCHEM_BOND_DEF_STEREO_COUNT>  (1) 
0

>  <PUBCHEM_BOND_UDEF_STEREO_COUNT>  (1) 
0

>  <PUBCHEM_ISOTOPIC_ATOM_COUNT>  (1) 
0

>  <PUBCHEM_COMPONENT_COUNT>  (1) 
1

>  <PUBCHEM_CACTVS_TAUTO_COUNT>  (1) 
1

>  <PUBCHEM_CONFORMER_ID>  (1) 
00004C0E00000001

>  <PUBCHEM_MMFF94_ENERGY>  (1) 
24.2068

>  <PUBCHEM_FEATURE_SELFOVERLAP>  (1) 
5.074

>  <PUBCHEM_SHAPE_FINGERPRINT>  (1) 
12897270 3 18408605859648949174
18185500 45 18271802462336458831
21040471 1 18122344850604113992
23552423 10 18189340069563837486
29004967 10 18333737930790752601
5460574 1 9223239541429760523

>  <PUBCHEM_SHAPE_MULTIPOLES>  (1) 
148.8
3.44
1.35
0.73
0.02
0.08
0.02
0.23
0.02
0.64
0
-0.33
0.04
-0.07

>  <PUBCHEM_SHAPE_SELFOVERLAP>  (1) 
282.82

>  <PUBCHEM_SHAPE_VOLUME>  (1) 
94.2

>  <PUBCHEM_COORDINATE_TYPE>  (1) 
2
5
10

$$$$
