19476
     RDKit          3D

 12 14  0  0  0  0  0  0  0  0999 V2000
    2.3756    0.6754    0.0014 N   0  0  0  0  0  0  0  0  0  0  0  0
    0.9534    0.3376   -0.0047 C   0  0  0  0  0  0  0  0  0  0  0  0
   -1.3900    1.2858   -0.0088 C   0  0  0  0  0  0  0  0  0  0  0  0
   -0.8955   -0.8500   -1.2542 C   0  0  0  0  0  0  0  0  0  0  0  0
   -0.8927   -0.8314    1.2673 C   0  0  0  0  0  0  0  0  0  0  0  0
    0.1103    1.6316   -0.0132 C   0  0  0  0  0  0  0  0  0  0  0  0
    0.6035   -0.4983   -1.2553 C   0  0  0  0  0  0  0  0  0  0  0  0
    0.6062   -0.4802    1.2599 C   0  0  0  0  0  0  0  0  0  0  0  0
   -1.7201    0.4485   -1.2561 C   0  0  0  0  0  0  0  0  0  0  0  0
   -1.7171    0.4672    1.2517 C   0  0  0  0  0  0  0  0  0  0  0  0
   -1.2252   -1.6574    0.0129 C   0  0  0  0  0  0  0  0  0  0  0  0
    3.1917   -0.5288   -0.0010 C   0  0  0  0  0  0  0  0  0  0  0  0
  1  2  1  0
  1 12  1  0
  2  6  1  0
  2  7  1  0
  2  8  1  0
  3  6  1  0
  3  9  1  0
  3 10  1  0
  4  7  1  0
  4  9  1  0
  4 11  1  0
  5  8  1  0
  5 10  1  0
  5 11  1  0
M  END
>  <PUBCHEM_COMPOUND_CID>  (1) 
19476

>  <PUBCHEM_CONFORMER_RMSD>  (1) 
0.6

>  <PUBCHEM_CONFORMER_DIVERSEORDER>  (1) 
1

>  <PUBCHEM_MMFF94_PARTIAL_CHARGES>  (1) 
4
1 -0.9
12 0.27
2 0.27
28 0.36

>  <PUBCHEM_EFFECTIVE_ROTOR_COUNT>  (1) 
2.2

>  <PUBCHEM_PHARMACOPHORE_FEATURES>  (1) 
6
1 1 cation
1 1 donor
6 2 3 4 6 7 9 rings
6 2 3 5 6 8 10 rings
6 2 4 5 7 8 11 rings
6 3 4 5 9 10 11 rings

>  <PUBCHEM_HEAVY_ATOM_COUNT>  (1) 
12

>  <PUBCHEM_ATOM_DEF_STEREO_COUNT>  (1) 
0

>  <PUBCHEM_ATOM_UDEF_STEREO_COUNT>  (1) 
0

>  <PUBCHEM_BOND_DEF_STEREO_COUNT>  (1) 
0

>  <PUBCHEM_BOND_UDEF_STEREO_COUNT>  (1) 
0

>  <PUBCHEM_ISOTOPIC_ATOM_COUNT>  (1) 
0

>  <PUBCHEM_COMPONENT_COUNT>  (1) 
1

>  <PUBCHEM_CACTVS_TAUTO_COUNT>  (1) 
1

>  <PUBCHEM_CONFORMER_ID>  (1) 
00004C1400000001

>  <PUBCHEM_MMFF94_ENERGY>  (1) 
26.1809

>  <PUBCHEM_FEATURE_SELFOVERLAP>  (1) 
42.967

>  <PUBCHEM_SHAPE_FINGERPRINT>  (1) 
10702982 57 18189041006611426317
12423570 1 15870763603330231155
13024252 1 17167861967369098984
137420 1 13160946926800673883
14817 1 10827759080652651187
15557651 10 17915737578907135313
16945 1 18410572851338230692
369184 2 18335139808374642696
5084963 1 17916571060165449828
528886 8 17988351560251694597
68250623 7 18121792887045134581

>  <PUBCHEM_SHAPE_MULTIPOLES>  (1) 
241.97
2.91
1.47
1.42
2.66
0.06
0.01
0.01
0
-0.42
0
-0.51
-0.24
0

>  <PUBCHEM_SHAPE_SELFOVERLAP>  (1) 
520.27

>  <PUBCHEM_SHAPE_VOLUME>  (1) 
128.8

>  <PUBCHEM_COORDINATE_TYPE>  (1) 
2
5
10

$$$$
