19475
     RDKit          3D

 10 10  0  0  0  0  0  0  0  0999 V2000
   -4.1124   -0.0345   -0.0006 O   0  0  0  0  0  0  0  0  0  0  0  0
   -2.8098   -0.5404   -0.0003 N   0  0  0  0  0  0  0  0  0  0  0  0
    2.2433   -0.1122    0.0001 C   0  0  0  0  0  0  0  0  0  0  0  0
   -0.5219    0.2572    0.0002 C   0  0  0  0  0  0  0  0  0  0  0  0
    1.7117    1.1775    0.0000 C   0  0  0  0  0  0  0  0  0  0  0  0
    1.3921   -1.2173    0.0003 C   0  0  0  0  0  0  0  0  0  0  0  0
    0.3292    1.3622    0.0001 C   0  0  0  0  0  0  0  0  0  0  0  0
    0.0094   -1.0326    0.0003 C   0  0  0  0  0  0  0  0  0  0  0  0
    3.7218   -0.3094   -0.0007 C   0  0  0  0  0  0  0  0  0  0  0  0
   -1.9635    0.4496    0.0006 C   0  0  0  0  0  0  0  0  0  0  0  0
  1  2  1  0
  2 10  2  0
  3  5  2  0
  3  6  1  0
  3  9  1  0
  4  7  2  0
  4  8  1  0
  4 10  1  0
  5  7  1  0
  6  8  2  0
M  END
>  <PUBCHEM_COMPOUND_CID>  (1) 
19475

>  <PUBCHEM_CONFORMER_RMSD>  (1) 
0.4

>  <PUBCHEM_CONFORMER_DIVERSEORDER>  (1) 
1

>  <PUBCHEM_MMFF94_PARTIAL_CHARGES>  (1) 
16
1 -0.34
10 0.3
11 0.15
12 0.15
13 0.15
14 0.15
18 0.06
19 0.4
2 -0.51
3 -0.14
4 0.09
5 -0.15
6 -0.15
7 -0.15
8 -0.15
9 0.14

>  <PUBCHEM_EFFECTIVE_ROTOR_COUNT>  (1) 
1

>  <PUBCHEM_PHARMACOPHORE_FEATURES>  (1) 
3
1 1 anion
1 2 acceptor
6 3 4 5 6 7 8 rings

>  <PUBCHEM_HEAVY_ATOM_COUNT>  (1) 
10

>  <PUBCHEM_ATOM_DEF_STEREO_COUNT>  (1) 
0

>  <PUBCHEM_ATOM_UDEF_STEREO_COUNT>  (1) 
0

>  <PUBCHEM_BOND_DEF_STEREO_COUNT>  (1) 
0

>  <PUBCHEM_BOND_UDEF_STEREO_COUNT>  (1) 
1

>  <PUBCHEM_ISOTOPIC_ATOM_COUNT>  (1) 
0

>  <PUBCHEM_COMPONENT_COUNT>  (1) 
1

>  <PUBCHEM_CACTVS_TAUTO_COUNT>  (1) 
2

>  <PUBCHEM_CONFORMER_ID>  (1) 
00004C1300000001

>  <PUBCHEM_MMFF94_ENERGY>  (1) 
22.459

>  <PUBCHEM_FEATURE_SELFOVERLAP>  (1) 
15.223

>  <PUBCHEM_SHAPE_FINGERPRINT>  (1) 
10219947 1 18413392033564262798
11062470 55 14996003241734766031
12032990 46 18411424981740515014
12932764 1 16805871983513484491
14325111 11 18338516447217246825
16945 1 18410575080658235970
193761 8 17690279730608442340
20201158 50 18334859402771195659
20645477 70 18337666396239127711
20871998 22 18127698127901643790
21040471 1 18194682798611208804
21293036 1 18335708247496709060
23235685 24 18410851075283037704
23402655 69 18267287752409695197
23552423 10 17972887964505230830
2748010 2 18121786294381085550
29004967 10 18408606937506450824
5084963 1 18412826884640469984

>  <PUBCHEM_SHAPE_MULTIPOLES>  (1) 
194.94
5.42
1.27
0.6
3.01
0.13
0
-0.67
0
-0.38
0
-0.07
0.01
0

>  <PUBCHEM_SHAPE_SELFOVERLAP>  (1) 
400.497

>  <PUBCHEM_SHAPE_VOLUME>  (1) 
113.1

>  <PUBCHEM_COORDINATE_TYPE>  (1) 
2
5
10

$$$$
