19480
     RDKit          3D

 13 15  0  0  0  0  0  0  0  0999 V2000
    2.0039   -0.7322   -0.0085 N   0  0  0  0  0  0  0  0  0  0  0  0
    0.5897   -0.3647    0.0006 C   0  0  0  0  0  0  0  0  0  0  0  0
   -1.7771   -1.2629    0.0139 C   0  0  0  0  0  0  0  0  0  0  0  0
   -1.2349    0.8633    1.2543 C   0  0  0  0  0  0  0  0  0  0  0  0
   -1.2388    0.8410   -1.2668 C   0  0  0  0  0  0  0  0  0  0  0  0
   -0.2851   -1.6379    0.0149 C   0  0  0  0  0  0  0  0  0  0  0  0
    0.2549    0.4797    1.2502 C   0  0  0  0  0  0  0  0  0  0  0  0
    0.2512    0.4579   -1.2614 C   0  0  0  0  0  0  0  0  0  0  0  0
   -2.0867   -0.4172    1.2607 C   0  0  0  0  0  0  0  0  0  0  0  0
   -2.0905   -0.4397   -1.2470 C   0  0  0  0  0  0  0  0  0  0  0  0
   -1.5509    1.6757   -0.0131 C   0  0  0  0  0  0  0  0  0  0  0  0
    2.8458    0.4545   -0.0115 C   0  0  0  0  0  0  0  0  0  0  0  0
    4.3186    0.0827    0.0138 C   0  0  0  0  0  0  0  0  0  0  0  0
  1  2  1  0
  1 12  1  0
  2  6  1  0
  2  7  1  0
  2  8  1  0
  3  6  1  0
  3  9  1  0
  3 10  1  0
  4  7  1  0
  4  9  1  0
  4 11  1  0
  5  8  1  0
  5 10  1  0
  5 11  1  0
 12 13  1  0
M  END
>  <PUBCHEM_COMPOUND_CID>  (1) 
19480

>  <PUBCHEM_CONFORMER_RMSD>  (1) 
0.6

>  <PUBCHEM_CONFORMER_DIVERSEORDER>  (1) 
1

>  <PUBCHEM_MMFF94_PARTIAL_CHARGES>  (1) 
4
1 -0.9
12 0.27
2 0.27
29 0.36

>  <PUBCHEM_EFFECTIVE_ROTOR_COUNT>  (1) 
3.2

>  <PUBCHEM_PHARMACOPHORE_FEATURES>  (1) 
6
1 1 cation
1 1 donor
6 2 3 4 6 7 9 rings
6 2 3 5 6 8 10 rings
6 2 4 5 7 8 11 rings
6 3 4 5 9 10 11 rings

>  <PUBCHEM_HEAVY_ATOM_COUNT>  (1) 
13

>  <PUBCHEM_ATOM_DEF_STEREO_COUNT>  (1) 
0

>  <PUBCHEM_ATOM_UDEF_STEREO_COUNT>  (1) 
0

>  <PUBCHEM_BOND_DEF_STEREO_COUNT>  (1) 
0

>  <PUBCHEM_BOND_UDEF_STEREO_COUNT>  (1) 
0

>  <PUBCHEM_ISOTOPIC_ATOM_COUNT>  (1) 
0

>  <PUBCHEM_COMPONENT_COUNT>  (1) 
1

>  <PUBCHEM_CACTVS_TAUTO_COUNT>  (1) 
1

>  <PUBCHEM_CONFORMER_ID>  (1) 
00004C1800000001

>  <PUBCHEM_MMFF94_ENERGY>  (1) 
22.2629

>  <PUBCHEM_FEATURE_SELFOVERLAP>  (1) 
42.979

>  <PUBCHEM_SHAPE_FINGERPRINT>  (1) 
12138202 97 17345754075499363901
12423570 1 8469624763016315111
12491281 212 18041834000491807956
12932764 1 15697998527191046806
13024252 1 13912323482013609199
14817 1 11094485341664194373
16945 1 18410578417563105303
19837323 101 18188768323533244381
20525323 117 18040718064998444306
20653085 51 18044930173606086948
2306618 200 18336257968866748368
23402539 116 17095515210816850335
23419403 2 17838036458272251607
369184 2 18272371953593468250
5084963 1 17917700340253797880
528886 8 18114166537024459807

>  <PUBCHEM_SHAPE_MULTIPOLES>  (1) 
262.55
4.35
1.4
1.35
6.55
0.05
0
-0.01
-0.01
-0.68
0
-0.74
-0.22
0

>  <PUBCHEM_SHAPE_SELFOVERLAP>  (1) 
558.017

>  <PUBCHEM_SHAPE_VOLUME>  (1) 
141.7

>  <PUBCHEM_COORDINATE_TYPE>  (1) 
2
5
10

$$$$
