19482
     RDKit          3D

 14 16  0  0  0  0  0  0  0  0999 V2000
    1.5406    0.9768    0.0011 N   0  0  0  0  0  0  0  0  0  0  0  0
    0.1683    0.4731   -0.0052 C   0  0  0  0  0  0  0  0  0  0  0  0
   -2.2706    1.1373   -0.0343 C   0  0  0  0  0  0  0  0  0  0  0  0
   -1.5197   -0.9446   -1.2424 C   0  0  0  0  0  0  0  0  0  0  0  0
   -1.5341   -0.8858    1.2784 C   0  0  0  0  0  0  0  0  0  0  0  0
   -0.8217    1.6580   -0.0384 C   0  0  0  0  0  0  0  0  0  0  0  0
   -0.0728   -0.4181   -1.2433 C   0  0  0  0  0  0  0  0  0  0  0  0
   -0.0872   -0.3599    1.2713 C   0  0  0  0  0  0  0  0  0  0  0  0
   -2.4920    0.2471   -1.2690 C   0  0  0  0  0  0  0  0  0  0  0  0
   -2.5061    0.3058    1.2382 C   0  0  0  0  0  0  0  0  0  0  0  0
   -1.7592   -1.7651    0.0365 C   0  0  0  0  0  0  0  0  0  0  0  0
    2.4934   -0.1223    0.0218 C   0  0  0  0  0  0  0  0  0  0  0  0
    3.9222    0.4144   -0.0071 C   0  0  0  0  0  0  0  0  0  0  0  0
    4.9389   -0.7167   -0.0078 C   0  0  0  0  0  0  0  0  0  0  0  0
  1  2  1  0
  1 12  1  0
  2  6  1  0
  2  7  1  0
  2  8  1  0
  3  6  1  0
  3  9  1  0
  3 10  1  0
  4  7  1  0
  4  9  1  0
  4 11  1  0
  5  8  1  0
  5 10  1  0
  5 11  1  0
 12 13  1  0
 13 14  1  0
M  END
>  <PUBCHEM_COMPOUND_CID>  (1) 
19482

>  <PUBCHEM_CONFORMER_RMSD>  (1) 
0.6

>  <PUBCHEM_CONFORMER_DIVERSEORDER>  (1) 
1

>  <PUBCHEM_MMFF94_PARTIAL_CHARGES>  (1) 
4
1 -0.9
12 0.27
2 0.27
30 0.36

>  <PUBCHEM_EFFECTIVE_ROTOR_COUNT>  (1) 
4.2

>  <PUBCHEM_PHARMACOPHORE_FEATURES>  (1) 
7
1 1 cation
1 1 donor
1 14 hydrophobe
6 2 3 4 6 7 9 rings
6 2 3 5 6 8 10 rings
6 2 4 5 7 8 11 rings
6 3 4 5 9 10 11 rings

>  <PUBCHEM_HEAVY_ATOM_COUNT>  (1) 
14

>  <PUBCHEM_ATOM_DEF_STEREO_COUNT>  (1) 
0

>  <PUBCHEM_ATOM_UDEF_STEREO_COUNT>  (1) 
0

>  <PUBCHEM_BOND_DEF_STEREO_COUNT>  (1) 
0

>  <PUBCHEM_BOND_UDEF_STEREO_COUNT>  (1) 
0

>  <PUBCHEM_ISOTOPIC_ATOM_COUNT>  (1) 
0

>  <PUBCHEM_COMPONENT_COUNT>  (1) 
1

>  <PUBCHEM_CACTVS_TAUTO_COUNT>  (1) 
1

>  <PUBCHEM_CONFORMER_ID>  (1) 
00004C1A00000001

>  <PUBCHEM_MMFF94_ENERGY>  (1) 
22.2139

>  <PUBCHEM_FEATURE_SELFOVERLAP>  (1) 
48.041

>  <PUBCHEM_SHAPE_FINGERPRINT>  (1) 
11315181 36 16917061158393983898
12423570 1 13556559160754381655
12932764 1 18202285835918640432
13024252 1 17240762891389530249
13296908 3 18409166649592594544
14577589 140 18202005421450588246
14817 1 11435564014946154755
16945 1 18337941338264197097
18186145 218 17095522907651419676
200 152 18343012328619666070
20325693 3 17095812040212018830
2306618 200 17346881122114832984
23402539 116 18272647935797799653
23559900 14 18259978272343924776
369184 2 18336548304075926625
5706482 22 17203337680132899619

>  <PUBCHEM_SHAPE_MULTIPOLES>  (1) 
283.13
5.98
1.41
1.3
10.82
0.03
-0.01
0.53
0.02
-0.67
0.01
-0.93
0.24
0

>  <PUBCHEM_SHAPE_SELFOVERLAP>  (1) 
595.829

>  <PUBCHEM_SHAPE_VOLUME>  (1) 
154.7

>  <PUBCHEM_COORDINATE_TYPE>  (1) 
2
5
10

$$$$
