19497
     RDKit          3D

 14 14  0  0  0  0  0  0  0  0999 V2000
    0.3556    0.1870    0.9509 N   0  0  0  0  0  0  0  0  0  0  0  0
    1.1397    0.0486   -0.0145 N   0  0  0  0  0  0  0  0  0  0  0  0
    3.3635   -2.4421   -0.3788 N   0  0  0  0  0  0  0  0  0  0  0  0
    3.8580    1.9308   -0.6046 N   0  0  0  0  0  0  0  0  0  0  0  0
   -3.0587   -0.6968   -0.1490 C   0  0  0  0  0  0  0  0  0  0  0  0
   -1.7491   -0.8229    0.3148 C   0  0  0  0  0  0  0  0  0  0  0  0
   -0.9575    0.3129    0.4856 C   0  0  0  0  0  0  0  0  0  0  0  0
   -3.5765    0.5649   -0.4418 C   0  0  0  0  0  0  0  0  0  0  0  0
   -1.4754    1.5745    0.1927 C   0  0  0  0  0  0  0  0  0  0  0  0
   -2.7849    1.7006   -0.2709 C   0  0  0  0  0  0  0  0  0  0  0  0
   -3.9058   -1.9107   -0.3315 C   0  0  0  0  0  0  0  0  0  0  0  0
    2.5282   -0.0858    0.4244 C   0  0  0  0  0  0  0  0  0  0  0  0
    2.9935   -1.4001   -0.0257 C   0  0  0  0  0  0  0  0  0  0  0  0
    3.2694    1.0390   -0.1517 C   0  0  0  0  0  0  0  0  0  0  0  0
  1  2  2  0
  1  7  1  0
  2 12  1  0
  3 13  3  0
  4 14  3  0
  5  6  2  0
  5  8  1  0
  5 11  1  0
  6  7  1  0
  7  9  2  0
  8 10  2  0
  9 10  1  0
 12 13  1  0
 12 14  1  0
M  END
>  <PUBCHEM_COMPOUND_CID>  (1) 
19497

>  <PUBCHEM_CONFORMER_RMSD>  (1) 
0.6

>  <PUBCHEM_CONFORMER_DIVERSEORDER>  (1) 
1
5
4
2
6
3
7
10
11
9
8

>  <PUBCHEM_MMFF94_PARTIAL_CHARGES>  (1) 
18
1 -0.18
10 -0.15
11 0.14
12 0.65
13 0.36
14 0.36
15 0.15
16 0.15
17 0.15
18 0.15
2 -0.25
3 -0.56
4 -0.56
5 -0.14
6 -0.15
7 0.18
8 -0.15
9 -0.15

>  <PUBCHEM_EFFECTIVE_ROTOR_COUNT>  (1) 
2

>  <PUBCHEM_PHARMACOPHORE_FEATURES>  (1) 
3
1 3 acceptor
1 4 acceptor
6 5 6 7 8 9 10 rings

>  <PUBCHEM_HEAVY_ATOM_COUNT>  (1) 
14

>  <PUBCHEM_ATOM_DEF_STEREO_COUNT>  (1) 
0

>  <PUBCHEM_ATOM_UDEF_STEREO_COUNT>  (1) 
0

>  <PUBCHEM_BOND_DEF_STEREO_COUNT>  (1) 
0

>  <PUBCHEM_BOND_UDEF_STEREO_COUNT>  (1) 
0

>  <PUBCHEM_ISOTOPIC_ATOM_COUNT>  (1) 
0

>  <PUBCHEM_COMPONENT_COUNT>  (1) 
1

>  <PUBCHEM_CACTVS_TAUTO_COUNT>  (1) 
1

>  <PUBCHEM_CONFORMER_ID>  (1) 
00004C2900000001

>  <PUBCHEM_MMFF94_ENERGY>  (1) 
23.893

>  <PUBCHEM_FEATURE_SELFOVERLAP>  (1) 
15.223

>  <PUBCHEM_SHAPE_FINGERPRINT>  (1) 
11543360 7 18408603690389888121
12916754 54 18412830161663619547
13296908 3 18411699872226308371
14325111 11 18410009918506636905
15375462 6 18411419539869011204
15442244 35 18194121815863656936
18186145 218 17458345208407264192
18619055 16 18343300349200213266
19422 9 18342459222762825147
20281407 28 18130784598784995475
20281475 54 18273496784222382851
20645477 70 18412262800773809382
20871999 31 18263913484320122039
21501502 16 18341616983881428032
21618674 54 18410572894403954764
221490 88 18410301298126760298
2255824 54 18187929435343601130
23402539 116 18187915214311030528
23532345 88 18411698760309872278
23557571 272 18342749545388262749
23559900 14 18341604859642354178
3082319 5 18410013221473572532
53777708 50 18340775861992162800
57096353 35 18335701705776272733
58051976 100 18337674096651031927
58051976 378 18338517568362012270
67856867 119 18335974351033712016
7364860 26 18412545393074610368
93112 12 18337391530783964558
9709674 26 18408326596507147066

>  <PUBCHEM_SHAPE_MULTIPOLES>  (1) 
268.19
8.11
2.21
0.75
2.4
0.49
-0.04
1.2
1.66
0.64
0.39
0.02
-0.04
-0.16

>  <PUBCHEM_SHAPE_SELFOVERLAP>  (1) 
552.511

>  <PUBCHEM_SHAPE_VOLUME>  (1) 
150.7

>  <PUBCHEM_COORDINATE_TYPE>  (1) 
2
5
10

$$$$
