19498
     RDKit          3D

 11 11  0  0  0  0  0  0  0  0999 V2000
    0.4531   -2.1327   -0.6652 S   0  0  0  0  0  0  0  0  0  0  0  0
    2.2527    0.3998    1.2034 O   0  0  0  0  0  0  0  0  0  0  0  0
    2.4347    0.9210   -1.0016 O   0  0  0  0  0  0  0  0  0  0  0  0
    0.2734    0.5791   -0.0343 C   0  0  0  0  0  0  0  0  0  0  0  0
   -0.4094   -0.6068   -0.3054 C   0  0  0  0  0  0  0  0  0  0  0  0
   -0.4388    1.7465    0.2411 C   0  0  0  0  0  0  0  0  0  0  0  0
   -1.8043   -0.6250   -0.3010 C   0  0  0  0  0  0  0  0  0  0  0  0
   -1.8336    1.7280    0.2454 C   0  0  0  0  0  0  0  0  0  0  0  0
   -2.5163    0.5423   -0.0257 C   0  0  0  0  0  0  0  0  0  0  0  0
    1.7299    0.6558   -0.0254 C   0  0  0  0  0  0  0  0  0  0  0  0
   -0.1415   -3.2078    0.6688 C   0  0  0  0  0  0  0  0  0  0  0  0
  1  5  1  0
  1 11  1  0
  2 10  1  0
  3 10  2  0
  4  5  2  0
  4  6  1  0
  4 10  1  0
  5  7  1  0
  6  8  2  0
  7  9  2  0
  8  9  1  0
M  END
>  <PUBCHEM_COMPOUND_CID>  (1) 
19498

>  <PUBCHEM_CONFORMER_RMSD>  (1) 
0.4

>  <PUBCHEM_CONFORMER_DIVERSEORDER>  (1) 
1
5
7
8
10
11
6
9
4
3
2

>  <PUBCHEM_MMFF94_PARTIAL_CHARGES>  (1) 
16
1 -0.33
10 0.63
11 0.23
12 0.15
13 0.15
14 0.15
15 0.15
19 0.5
2 -0.65
3 -0.57
4 0.09
5 0.1
6 -0.15
7 -0.15
8 -0.15
9 -0.15

>  <PUBCHEM_EFFECTIVE_ROTOR_COUNT>  (1) 
2

>  <PUBCHEM_PHARMACOPHORE_FEATURES>  (1) 
5
1 11 hydrophobe
1 2 acceptor
1 3 acceptor
3 2 3 10 anion
6 4 5 6 7 8 9 rings

>  <PUBCHEM_HEAVY_ATOM_COUNT>  (1) 
11

>  <PUBCHEM_ATOM_DEF_STEREO_COUNT>  (1) 
0

>  <PUBCHEM_ATOM_UDEF_STEREO_COUNT>  (1) 
0

>  <PUBCHEM_BOND_DEF_STEREO_COUNT>  (1) 
0

>  <PUBCHEM_BOND_UDEF_STEREO_COUNT>  (1) 
0

>  <PUBCHEM_ISOTOPIC_ATOM_COUNT>  (1) 
0

>  <PUBCHEM_COMPONENT_COUNT>  (1) 
1

>  <PUBCHEM_CACTVS_TAUTO_COUNT>  (1) 
1

>  <PUBCHEM_CONFORMER_ID>  (1) 
00004C2A00000001

>  <PUBCHEM_MMFF94_ENERGY>  (1) 
34.795

>  <PUBCHEM_FEATURE_SELFOVERLAP>  (1) 
25.429

>  <PUBCHEM_SHAPE_FINGERPRINT>  (1) 
100427 49 17330265074657197983
12423570 1 12102754928669050705
16945 1 18339359789704837477
193761 8 17979919311305251661
20511035 2 17766272077256687461
20645476 183 18041848427334135878
20871998 184 17912367833603131078
20871998 22 17114675566461564638
21040471 1 18413670222854166300
23419403 2 15315943378939736687
23552423 10 18121505656886009517
241688 4 17040074239165997897
2748010 2 18340493270403063551
5084963 1 18060429022644894348
528862 383 18049721823894879323
7364860 26 17841425938708459207
81228 2 18052815046409103491

>  <PUBCHEM_SHAPE_MULTIPOLES>  (1) 
218.49
3.01
2.79
0.89
0.85
0.27
-0.05
-1.15
-0.28
-1.75
-0.14
-0.37
0.14
-0.25

>  <PUBCHEM_SHAPE_SELFOVERLAP>  (1) 
438.685

>  <PUBCHEM_SHAPE_VOLUME>  (1) 
130.1

>  <PUBCHEM_COORDINATE_TYPE>  (1) 
2
5
10

$$$$
