1949
     RDKit          2D

 28 29  0  0  1  0  0  0  0  0999 V2000
    0.0000    0.0000    0.0000 Br  0  0  0  0  0  0  0  0  0  0  0  0
    0.0000    0.0000    0.0000 F   0  0  0  0  0  0  0  0  0  0  0  0
    0.0000    0.0000    0.0000 O   0  0  0  0  0  0  0  0  0  0  0  0
    0.0000    0.0000    0.0000 O   0  0  0  0  0  0  0  0  0  0  0  0
    0.0000    0.0000    0.0000 N   0  0  0  0  0  0  0  0  0  0  0  0
    0.0000    0.0000    0.0000 C   0  0  0  0  0  0  0  0  0  0  0  0
    0.0000    0.0000    0.0000 C   0  0  0  0  0  0  0  0  0  0  0  0
    0.0000    0.0000    0.0000 C   0  0  0  0  0  0  0  0  0  0  0  0
    0.0000    0.0000    0.0000 C   0  0  0  0  0  0  0  0  0  0  0  0
    0.0000    0.0000    0.0000 C   0  0  0  0  0  0  0  0  0  0  0  0
    0.0000    0.0000    0.0000 C   0  0  0  0  0  0  0  0  0  0  0  0
    0.0000    0.0000    0.0000 C   0  0  0  0  0  0  0  0  0  0  0  0
    0.0000    0.0000    0.0000 C   0  0  0  0  0  0  0  0  0  0  0  0
    0.0000    0.0000    0.0000 C   0  0  0  0  0  0  0  0  0  0  0  0
    0.0000    0.0000    0.0000 C   0  0  0  0  0  0  0  0  0  0  0  0
    0.0000    0.0000    0.0000 C   0  0  0  0  0  0  0  0  0  0  0  0
    0.0000    0.0000    0.0000 C   0  0  0  0  0  0  0  0  0  0  0  0
    0.0000    0.0000    0.0000 C   0  0  0  0  0  0  0  0  0  0  0  0
    0.0000    0.0000    0.0000 C   0  0  0  0  0  0  0  0  0  0  0  0
    0.0000    0.0000    0.0000 C   0  0  0  0  0  0  0  0  0  0  0  0
    0.0000    0.0000    0.0000 C   0  0  0  0  0  0  0  0  0  0  0  0
    0.0000    0.0000    0.0000 C   0  0  0  0  0  0  0  0  0  0  0  0
    0.0000    0.0000    0.0000 C   0  0  0  0  0  0  0  0  0  0  0  0
    0.0000    0.0000    0.0000 C   0  0  0  0  0  0  0  0  0  0  0  0
    0.0000    0.0000    0.0000 C   0  0  0  0  0  0  0  0  0  0  0  0
    0.0000    0.0000    0.0000 C   0  0  0  0  0  0  0  0  0  0  0  0
    0.0000    0.0000    0.0000 C   0  0  0  0  0  0  0  0  0  0  0  0
    0.0000    0.0000    0.0000 C   0  0  0  0  0  0  0  0  0  0  0  0
  1 28  1  0
  2 19  1  0
  3 11  1  0
  3 15  1  0
  4 22  2  0
  5  9  1  0
  5 12  1  0
  5 13  1  0
  6  7  1  0
  6  8  1  0
  7  9  1  0
  8 10  1  0
 10 11  1  0
 12 14  1  0
 14 21  2  0
 15 16  2  0
 15 17  1  0
 16 19  1  0
 17 20  2  0
 18 19  2  0
 18 20  1  0
 18 22  1  0
 22 23  1  0
 23 24  2  0
 23 25  1  0
 24 26  1  0
 25 27  2  0
 26 28  2  0
 27 28  1  0
M  END
>  <PUBCHEM_COMPOUND_CID>  (1) 
1949

>  <PUBCHEM_CONFORMER_RMSD>  (1) 
1.2

>  <PUBCHEM_CONFORMER_DIVERSEORDER>  (1) 
26
83
29
35
210
247
133
23
60
185
212
116
147
38
242
175
274
82
110
58
173
183
80
252
69
72
174
271
125
146
272
36
1
293
169
46
136
157
197
188
65
124
105
4
138
203
93
151
15
122
149
103
260
94
19
223
57
5
31
63
176
84
289
168
11
99
2
234
257
119
170
21
275
59
195
91
246
86
98
216
162
67
154
222
111
137
88
254
100
41
51
68
22
108
284
229
62
20
48
286
129
49
184
159
285
127
158
30
53
52
132
160
268
218
54
251
172
270
177
61
39
191
238
219
118
220
32
253
112
282
233
126
217
76
134
123
224
235
255
228
240
273
182
24
241
180
97
120
27
73
189
9
200
109
140
226
187
74
199
230
17
150
290
245
211
128
25
198
153
163
186
277
190
95
47
266
239
16
276
44
78
152
171
261
196
267
294
243
164
113
288
148
50
14
248
89
87
202
6
205
213
10
249
70
193
104
121
265
206
204
18
28
92
7
215
201
279
3
221
71
258
8
155
214
143
166
278
283
55
144
96
115
208
231
145
12
13
45
181
141
232
90
77
66
295
85
287
292
34
114
296
161
135
43
280
209
56
81
107
40
139
131
117
37
165
262
106
192
167
156
263
75
179
264
236
178
130
207
259
291
142
250
227
256
79
33
244
42
102
225
281
101
269
64
194
237

>  <PUBCHEM_MMFF94_PARTIAL_CHARGES>  (1) 
34
1 -0.11
11 0.28
12 0.41
13 0.27
14 -0.29
15 0.08
16 -0.15
17 -0.15
18 0.09
19 0.19
2 -0.19
20 -0.15
21 -0.3
22 0.4
23 0.09
24 -0.15
25 -0.15
26 -0.15
27 -0.15
28 0.11
3 -0.36
4 -0.57
46 0.15
47 0.15
48 0.15
49 0.15
5 -0.81
50 0.15
51 0.15
52 0.15
53 0.15
54 0.15
55 0.15
9 0.27

>  <PUBCHEM_EFFECTIVE_ROTOR_COUNT>  (1) 
12

>  <PUBCHEM_PHARMACOPHORE_FEATURES>  (1) 
8
1 1 hydrophobe
1 21 hydrophobe
1 3 acceptor
1 4 acceptor
1 5 cation
4 6 7 8 10 hydrophobe
6 15 16 17 18 19 20 rings
6 23 24 25 26 27 28 rings

>  <PUBCHEM_HEAVY_ATOM_COUNT>  (1) 
28

>  <PUBCHEM_ATOM_DEF_STEREO_COUNT>  (1) 
0

>  <PUBCHEM_ATOM_UDEF_STEREO_COUNT>  (1) 
0

>  <PUBCHEM_BOND_DEF_STEREO_COUNT>  (1) 
0

>  <PUBCHEM_BOND_UDEF_STEREO_COUNT>  (1) 
0

>  <PUBCHEM_ISOTOPIC_ATOM_COUNT>  (1) 
0

>  <PUBCHEM_COMPONENT_COUNT>  (1) 
1

>  <PUBCHEM_CACTVS_TAUTO_COUNT>  (1) 
1

$$$$
