19490
     RDKit          3D

  9  9  0  0  1  0  0  0  0  0999 V2000
    0.6614   -1.0502   -0.0831 O   0  0  0  0  0  0  0  0  0  0  0  0
   -1.4635   -1.7891   -0.3156 O   0  0  0  0  0  0  0  0  0  0  0  0
   -0.3563    1.5656   -0.3578 C   0  0  0  0  0  0  0  0  0  0  0  0
   -1.1329    0.5013    0.4183 C   0  0  0  0  0  0  0  0  0  0  0  0
    1.1516    1.3169   -0.3450 C   0  0  0  0  0  0  0  0  0  0  0  0
    1.5101    0.0217    0.3764 C   0  0  0  0  0  0  0  0  0  0  0  0
   -0.6899   -0.8798   -0.0356 C   0  0  0  0  0  0  0  0  0  0  0  0
   -2.6358    0.6942    0.2268 C   0  0  0  0  0  0  0  0  0  0  0  0
    2.9551   -0.3805    0.1156 C   0  0  0  0  0  0  0  0  0  0  0  0
  1  6  1  0
  1  7  1  0
  2  7  2  0
  3  4  1  0
  3  5  1  0
  4  7  1  0
  4  8  1  0
  5  6  1  0
  6  9  1  0
M  END
>  <PUBCHEM_COMPOUND_CID>  (1) 
19490

>  <PUBCHEM_CONFORMER_RMSD>  (1) 
0.4

>  <PUBCHEM_CONFORMER_DIVERSEORDER>  (1) 
3
4
1
2
6
5

>  <PUBCHEM_MMFF94_PARTIAL_CHARGES>  (1) 
5
1 -0.43
2 -0.57
4 0.06
6 0.28
7 0.66

>  <PUBCHEM_EFFECTIVE_ROTOR_COUNT>  (1) 
1

>  <PUBCHEM_PHARMACOPHORE_FEATURES>  (1) 
2
1 2 acceptor
6 1 3 4 5 6 7 rings

>  <PUBCHEM_HEAVY_ATOM_COUNT>  (1) 
9

>  <PUBCHEM_ATOM_DEF_STEREO_COUNT>  (1) 
0

>  <PUBCHEM_ATOM_UDEF_STEREO_COUNT>  (1) 
2

>  <PUBCHEM_BOND_DEF_STEREO_COUNT>  (1) 
0

>  <PUBCHEM_BOND_UDEF_STEREO_COUNT>  (1) 
0

>  <PUBCHEM_ISOTOPIC_ATOM_COUNT>  (1) 
0

>  <PUBCHEM_COMPONENT_COUNT>  (1) 
1

>  <PUBCHEM_CACTVS_TAUTO_COUNT>  (1) 
1

>  <PUBCHEM_CONFORMER_ID>  (1) 
00004C2200000003

>  <PUBCHEM_MMFF94_ENERGY>  (1) 
13.4797

>  <PUBCHEM_FEATURE_SELFOVERLAP>  (1) 
10.148

>  <PUBCHEM_SHAPE_FINGERPRINT>  (1) 
15310529 11 16732983081233264684
16714656 1 18337393738413043876
16945 1 18411418375774748192
18185500 45 18265051516739377260
21040471 1 18340773658552613993
23235685 24 18342172211446805737
23402655 69 17978210687996533877
23552423 10 18189335852021796036
2748010 2 18266457792127218092
29004967 10 17822019674452912000
5084963 1 18272650095559616705

>  <PUBCHEM_SHAPE_MULTIPOLES>  (1) 
173.48
3.33
1.64
0.68
0.83
0.13
-0.02
0.09
-0.34
-0.4
0.27
-0.01
-0.05
-0.18

>  <PUBCHEM_SHAPE_SELFOVERLAP>  (1) 
340.422

>  <PUBCHEM_SHAPE_VOLUME>  (1) 
103.7

>  <PUBCHEM_COORDINATE_TYPE>  (1) 
2
5
10

$$$$
