19492
     RDKit          3D

 14 14  0  0  0  0  0  0  0  0999 V2000
    4.0533   -2.0363    0.3395 Cl  0  0  0  0  0  0  0  0  0  0  0  0
   -0.3688    0.2008   -0.9511 N   0  0  0  0  0  0  0  0  0  0  0  0
   -1.1497    0.0477    0.0147 N   0  0  0  0  0  0  0  0  0  0  0  0
   -3.3424   -2.4718    0.3687 N   0  0  0  0  0  0  0  0  0  0  0  0
   -3.8899    1.8935    0.6183 N   0  0  0  0  0  0  0  0  0  0  0  0
    0.9433    0.3402   -0.4869 C   0  0  0  0  0  0  0  0  0  0  0  0
    1.7492   -0.7866   -0.3234 C   0  0  0  0  0  0  0  0  0  0  0  0
    1.4461    1.6066   -0.1880 C   0  0  0  0  0  0  0  0  0  0  0  0
    3.0579   -0.6468    0.1389 C   0  0  0  0  0  0  0  0  0  0  0  0
    2.7546    1.7464    0.2743 C   0  0  0  0  0  0  0  0  0  0  0  0
    3.5605    0.6197    0.4377 C   0  0  0  0  0  0  0  0  0  0  0  0
   -2.5371   -0.1014   -0.4232 C   0  0  0  0  0  0  0  0  0  0  0  0
   -2.9857   -1.4235    0.0206 C   0  0  0  0  0  0  0  0  0  0  0  0
   -3.2912    1.0114    0.1599 C   0  0  0  0  0  0  0  0  0  0  0  0
  1  9  1  0
  2  3  2  0
  2  6  1  0
  3 12  1  0
  4 13  3  0
  5 14  3  0
  6  7  2  0
  6  8  1  0
  7  9  1  0
  8 10  2  0
  9 11  2  0
 10 11  1  0
 12 13  1  0
 12 14  1  0
M  END
>  <PUBCHEM_COMPOUND_CID>  (1) 
19492

>  <PUBCHEM_CONFORMER_RMSD>  (1) 
0.6

>  <PUBCHEM_CONFORMER_DIVERSEORDER>  (1) 
1
5
3
9
8
11
10
4
7
6
2

>  <PUBCHEM_MMFF94_PARTIAL_CHARGES>  (1) 
18
1 -0.18
10 -0.15
11 -0.15
12 0.65
13 0.36
14 0.36
15 0.15
16 0.15
17 0.15
18 0.15
2 -0.18
3 -0.25
4 -0.56
5 -0.56
6 0.18
7 -0.15
8 -0.15
9 0.18

>  <PUBCHEM_EFFECTIVE_ROTOR_COUNT>  (1) 
2

>  <PUBCHEM_PHARMACOPHORE_FEATURES>  (1) 
3
1 4 acceptor
1 5 acceptor
6 6 7 8 9 10 11 rings

>  <PUBCHEM_HEAVY_ATOM_COUNT>  (1) 
14

>  <PUBCHEM_ATOM_DEF_STEREO_COUNT>  (1) 
0

>  <PUBCHEM_ATOM_UDEF_STEREO_COUNT>  (1) 
0

>  <PUBCHEM_BOND_DEF_STEREO_COUNT>  (1) 
0

>  <PUBCHEM_BOND_UDEF_STEREO_COUNT>  (1) 
0

>  <PUBCHEM_ISOTOPIC_ATOM_COUNT>  (1) 
0

>  <PUBCHEM_COMPONENT_COUNT>  (1) 
1

>  <PUBCHEM_CACTVS_TAUTO_COUNT>  (1) 
1

>  <PUBCHEM_CONFORMER_ID>  (1) 
00004C2400000001

>  <PUBCHEM_MMFF94_ENERGY>  (1) 
22.0856

>  <PUBCHEM_FEATURE_SELFOVERLAP>  (1) 
15.223

>  <PUBCHEM_SHAPE_FINGERPRINT>  (1) 
10799339 124 18342454846085616489
12251169 10 18410295791883396973
124424 183 17988918929747601337
12500047 106 18337105670840914517
13296908 3 18410292531718311246
13533116 47 18412257359498534175
13675066 3 17917987278850798266
14144814 61 18412261765570256605
14289901 80 18267866257900712283
14325111 11 18411417349235340540
14965852 173 18409167710038034055
15375462 189 17823413799689489434
15442244 35 18411136896619114792
15501101 241 18259980479424352108
17041 49 18340487768471011288
18186145 218 18186796963603629662
19422 9 18334859441351859894
200 152 18200299048540644479
20281475 54 18259985968165663958
20361792 2 16081086004379052965
20645477 70 18411407423645450422
20871998 22 18055915386491395094
21065199 12 18412824719871302025
21501502 16 18336269028059226565
22169311 14 18412544279944779669
23402539 116 18272079475744287781
23559900 14 18411130355225531000
5104073 3 18412823590474251850
8809292 202 18334579001420179906
9709674 26 18262520423808822315

>  <PUBCHEM_SHAPE_MULTIPOLES>  (1) 
270.06
8.24
2.28
0.75
2.23
0.63
-0.04
1.6
1.7
0.37
0.41
0.02
-0.04
-0.19

>  <PUBCHEM_SHAPE_SELFOVERLAP>  (1) 
549.403

>  <PUBCHEM_SHAPE_VOLUME>  (1) 
153.5

>  <PUBCHEM_COORDINATE_TYPE>  (1) 
2
5
10

$$$$
