19507
     RDKit          3D

  9 10  0  0  0  0  0  0  0  0999 V2000
    2.4686   -0.1655   -0.0001 O   0  0  0  0  0  0  0  0  0  0  0  0
   -1.0211   -1.0367    0.0000 N   0  0  0  0  0  0  0  0  0  0  0  0
    0.4278    1.1252    0.0001 C   0  0  0  0  0  0  0  0  0  0  0  0
   -0.4499    1.0505    1.2523 C   0  0  0  0  0  0  0  0  0  0  0  0
   -0.4516    1.0516   -1.2512 C   0  0  0  0  0  0  0  0  0  0  0  0
   -1.3111   -0.2249    1.2029 C   0  0  0  0  0  0  0  0  0  0  0  0
   -1.3131   -0.2235   -1.2015 C   0  0  0  0  0  0  0  0  0  0  0  0
    0.4086   -1.4232   -0.0013 C   0  0  0  0  0  0  0  0  0  0  0  0
    1.2418   -0.1535   -0.0011 C   0  0  0  0  0  0  0  0  0  0  0  0
  1  9  2  0
  2  6  1  0
  2  7  1  0
  2  8  1  0
  3  4  1  0
  3  5  1  0
  3  9  1  0
  4  6  1  0
  5  7  1  0
  8  9  1  0
M  END
>  <PUBCHEM_COMPOUND_CID>  (1) 
19507

>  <PUBCHEM_CONFORMER_RMSD>  (1) 
0.4

>  <PUBCHEM_CONFORMER_DIVERSEORDER>  (1) 
1

>  <PUBCHEM_MMFF94_PARTIAL_CHARGES>  (1) 
7
1 -0.57
2 -0.81
3 0.06
6 0.27
7 0.27
8 0.33
9 0.45

>  <PUBCHEM_EFFECTIVE_ROTOR_COUNT>  (1) 
1

>  <PUBCHEM_PHARMACOPHORE_FEATURES>  (1) 
3
1 1 acceptor
1 2 cation
8 2 3 4 5 6 7 8 9 rings

>  <PUBCHEM_HEAVY_ATOM_COUNT>  (1) 
9

>  <PUBCHEM_ATOM_DEF_STEREO_COUNT>  (1) 
0

>  <PUBCHEM_ATOM_UDEF_STEREO_COUNT>  (1) 
0

>  <PUBCHEM_BOND_DEF_STEREO_COUNT>  (1) 
0

>  <PUBCHEM_BOND_UDEF_STEREO_COUNT>  (1) 
0

>  <PUBCHEM_ISOTOPIC_ATOM_COUNT>  (1) 
0

>  <PUBCHEM_COMPONENT_COUNT>  (1) 
1

>  <PUBCHEM_CACTVS_TAUTO_COUNT>  (1) 
2

>  <PUBCHEM_CONFORMER_ID>  (1) 
00004C3300000001

>  <PUBCHEM_MMFF94_ENERGY>  (1) 
20.4895

>  <PUBCHEM_FEATURE_SELFOVERLAP>  (1) 
15.223

>  <PUBCHEM_SHAPE_FINGERPRINT>  (1) 
12423570 1 12991698783993600105
13024252 1 14707215404866752144
137420 1 11434392347387758049
16945 1 18410856546971165507
29004967 10 17314524809812335672
369184 2 17774993566818075418
5943 1 13938163517010560773

>  <PUBCHEM_SHAPE_MULTIPOLES>  (1) 
174.37
1.88
1.36
1.31
1.04
0.05
0
0.26
0
-0.05
0
-0.6
-0.28
0

>  <PUBCHEM_SHAPE_SELFOVERLAP>  (1) 
365.413

>  <PUBCHEM_SHAPE_VOLUME>  (1) 
97.1

>  <PUBCHEM_COORDINATE_TYPE>  (1) 
2
5
10

$$$$
