19505
     RDKit          3D

 23 25  0  0  1  0  0  0  0  0999 V2000
    3.5919   -1.0693    1.1070 O   0  0  0  0  0  0  0  0  0  0  0  0
    4.4321   -1.1621   -1.0429 O   0  0  0  0  0  0  0  0  0  0  0  0
    0.1350    0.9359    0.1311 C   0  0  0  0  0  0  0  0  0  0  0  0
    1.2697   -0.1297   -0.1091 C   0  0  0  0  0  0  0  0  0  0  0  0
   -1.0747    0.1841    0.8274 C   0  0  0  0  0  0  0  0  0  0  0  0
    2.6870    0.4214   -0.4744 C   0  0  0  0  0  0  0  0  0  0  0  0
    0.6759    2.0412    1.0731 C   0  0  0  0  0  0  0  0  0  0  0  0
    0.7689   -1.2480   -1.0475 C   0  0  0  0  0  0  0  0  0  0  0  0
   -1.5303   -1.0192    0.0102 C   0  0  0  0  0  0  0  0  0  0  0  0
    3.0761    1.5828    0.4661 C   0  0  0  0  0  0  0  0  0  0  0  0
    1.9946    2.6466    0.6009 C   0  0  0  0  0  0  0  0  0  0  0  0
   -2.2369    1.1261    1.2232 C   0  0  0  0  0  0  0  0  0  0  0  0
   -0.4471   -1.9610   -0.4548 C   0  0  0  0  0  0  0  0  0  0  0  0
   -0.3521    1.5978   -1.1852 C   0  0  0  0  0  0  0  0  0  0  0  0
   -3.5263    0.3595    1.5128 C   0  0  0  0  0  0  0  0  0  0  0  0
   -3.9842   -0.4783    0.2977 C   0  0  0  0  0  0  0  0  0  0  0  0
    2.8986    0.8268   -1.9407 C   0  0  0  0  0  0  0  0  0  0  0  0
   -2.8244   -1.2808   -0.2505 C   0  0  0  0  0  0  0  0  0  0  0  0
    3.6795   -0.6922   -0.2003 C   0  0  0  0  0  0  0  0  0  0  0  0
   -5.0891   -1.4454    0.7608 C   0  0  0  0  0  0  0  0  0  0  0  0
   -4.5482    0.4139   -0.7800 C   0  0  0  0  0  0  0  0  0  0  0  0
   -4.0747    0.4694   -2.0296 C   0  0  0  0  0  0  0  0  0  0  0  0
    4.4787   -2.1197    1.5047 C   0  0  0  0  0  0  0  0  0  0  0  0
  1 19  1  0
  1 23  1  0
  2 19  2  0
  3  4  1  0
  3  5  1  0
  3  7  1  0
  3 14  1  0
  4  6  1  0
  4  8  1  0
  5  9  1  0
  5 12  1  0
  6 10  1  0
  6 17  1  0
  6 19  1  0
  7 11  1  0
  8 13  1  0
  9 13  1  0
  9 18  2  0
 10 11  1  0
 12 15  1  0
 15 16  1  0
 16 18  1  0
 16 20  1  0
 16 21  1  0
 21 22  2  0
M  END
>  <PUBCHEM_COMPOUND_CID>  (1) 
19505

>  <PUBCHEM_CONFORMER_RMSD>  (1) 
0.8

>  <PUBCHEM_CONFORMER_DIVERSEORDER>  (1) 
1
28
24
4
9
31
25
13
11
16
7
17
26
5
20
3
30
2
21
23
19
10
29
27
8
6
22
18
14
15
12

>  <PUBCHEM_MMFF94_PARTIAL_CHARGES>  (1) 
16
1 -0.43
13 0.14
16 0.28
18 -0.29
19 0.66
2 -0.57
21 -0.29
22 -0.3
23 0.28
46 0.15
5 0.14
50 0.15
51 0.15
52 0.15
6 0.06
9 -0.28

>  <PUBCHEM_EFFECTIVE_ROTOR_COUNT>  (1) 
4.8

>  <PUBCHEM_PHARMACOPHORE_FEATURES>  (1) 
5
1 2 acceptor
1 22 hydrophobe
6 3 4 5 8 9 13 rings
6 3 4 6 7 10 11 rings
6 5 9 12 15 16 18 rings

>  <PUBCHEM_HEAVY_ATOM_COUNT>  (1) 
23

>  <PUBCHEM_ATOM_DEF_STEREO_COUNT>  (1) 
2

>  <PUBCHEM_ATOM_UDEF_STEREO_COUNT>  (1) 
3

>  <PUBCHEM_BOND_DEF_STEREO_COUNT>  (1) 
0

>  <PUBCHEM_BOND_UDEF_STEREO_COUNT>  (1) 
0

>  <PUBCHEM_ISOTOPIC_ATOM_COUNT>  (1) 
0

>  <PUBCHEM_COMPONENT_COUNT>  (1) 
1

>  <PUBCHEM_CACTVS_TAUTO_COUNT>  (1) 
1

>  <PUBCHEM_CONFORMER_ID>  (1) 
00004C3100000001

>  <PUBCHEM_MMFF94_ENERGY>  (1) 
73.2967

>  <PUBCHEM_FEATURE_SELFOVERLAP>  (1) 
25.404

>  <PUBCHEM_SHAPE_FINGERPRINT>  (1) 
10062212 137 17775289357036750281
11132069 177 17917993841123106603
11578080 2 18115290221177389388
11796584 16 17603862252508285026
12236239 1 18334021579638294750
12403259 226 18411416224334074313
12403259 415 18334858350857597077
12403260 363 18343576335414746849
12553582 1 18271537420046833040
12616971 3 17703791444587613341
12633257 1 18201449060008660753
12670546 56 15285632240064499605
13134695 92 18408316700733698556
13140716 1 18058449987878150123
13224815 77 17060062579138726497
13583140 156 18187928451373941443
13675066 3 18040711506572905299
13782708 43 18333732455657698091
14081887 123 17059215834741665065
14178342 30 17701271234470735833
14289901 80 17241049919743247411
14573314 32 16515687732059865107
14787075 74 16486677169274138770
15196674 1 18201446904056436377
15788980 27 17821731628471481435
15848700 24 18059856143159406644
15848702 151 17632306626766054551
16752209 62 18340492149411265836
16945 1 18130516283471924583
17349148 13 18060419114339939319
17492 89 18058451087152921166
17980427 23 17131540717479669080
1813 80 17969228837543522542
18186145 218 18272093850371904309
18222031 100 18131627859794814382
192875 21 17917989481931865321
200 152 17704067396173272725
20028762 73 17846498179522618783
20369508 70 18412543232373777192
20645477 70 18341619256145798888
21033648 29 18114453548425420733
21267235 1 18129680658703312087
21756936 100 12677733604698954466
23184049 59 18413388760693668710
23402539 116 17917433077255181005
23493267 7 17022618654983952129
23557571 272 15841559561111046331
23559900 14 17845942921891566116
2748010 2 17841156859233964715
3286 77 18411699889379946664
335352 9 18201168650284241533
34797466 226 15575007212158137895
34934 24 18057604463816016412
4325135 7 12822997760111800403
465052 167 18409176518800239098
4990 188 14923947847041892690
5104073 3 18272096032415751675
5281201 14 17676207995933425069
633830 44 17846232076227798917
7495541 125 18335426819717386771
9709674 26 17914905463369045727
9981440 41 17264393827006162432

>  <PUBCHEM_SHAPE_MULTIPOLES>  (1) 
461.59
9.38
2.25
1.6
2.96
0.28
0.34
-3.4
-0.36
-1.68
-0.5
0.12
0.19
-0.19

>  <PUBCHEM_SHAPE_SELFOVERLAP>  (1) 
967.302

>  <PUBCHEM_SHAPE_VOLUME>  (1) 
257.7

>  <PUBCHEM_COORDINATE_TYPE>  (1) 
2
5
10

$$$$
