19506
     RDKit          3D

  9  8  0  0  0  0  0  0  0  0999 V2000
    1.9434   -1.0247   -0.9040 O   0  0  0  0  0  0  0  0  0  0  0  0
    0.1574   -0.0559    0.4257 C   0  0  0  0  0  0  0  0  0  0  0  0
    1.6588   -0.0159    0.0671 C   0  0  0  0  0  0  0  0  0  0  0  0
   -0.7843    0.1570   -0.7696 C   0  0  0  0  0  0  0  0  0  0  0  0
   -2.2760    0.0471   -0.3970 C   0  0  0  0  0  0  0  0  0  0  0  0
    2.5001   -0.3131    1.3127 C   0  0  0  0  0  0  0  0  0  0  0  0
    2.0796    1.3273   -0.5309 C   0  0  0  0  0  0  0  0  0  0  0  0
   -2.6225   -1.3014    0.2359 C   0  0  0  0  0  0  0  0  0  0  0  0
   -2.6566    1.1795    0.5601 C   0  0  0  0  0  0  0  0  0  0  0  0
  1  3  1  0
  2  3  1  0
  2  4  1  0
  3  6  1  0
  3  7  1  0
  4  5  1  0
  5  8  1  0
  5  9  1  0
M  END
>  <PUBCHEM_COMPOUND_CID>  (1) 
19506

>  <PUBCHEM_CONFORMER_RMSD>  (1) 
0.6

>  <PUBCHEM_CONFORMER_DIVERSEORDER>  (1) 
1
2
3

>  <PUBCHEM_MMFF94_PARTIAL_CHARGES>  (1) 
3
1 -0.68
27 0.4
3 0.28

>  <PUBCHEM_EFFECTIVE_ROTOR_COUNT>  (1) 
3

>  <PUBCHEM_PHARMACOPHORE_FEATURES>  (1) 
4
1 1 acceptor
1 1 donor
3 3 6 7 hydrophobe
3 5 8 9 hydrophobe

>  <PUBCHEM_HEAVY_ATOM_COUNT>  (1) 
9

>  <PUBCHEM_ATOM_DEF_STEREO_COUNT>  (1) 
0

>  <PUBCHEM_ATOM_UDEF_STEREO_COUNT>  (1) 
0

>  <PUBCHEM_BOND_DEF_STEREO_COUNT>  (1) 
0

>  <PUBCHEM_BOND_UDEF_STEREO_COUNT>  (1) 
0

>  <PUBCHEM_ISOTOPIC_ATOM_COUNT>  (1) 
0

>  <PUBCHEM_COMPONENT_COUNT>  (1) 
1

>  <PUBCHEM_CACTVS_TAUTO_COUNT>  (1) 
1

>  <PUBCHEM_CONFORMER_ID>  (1) 
00004C3200000001

>  <PUBCHEM_MMFF94_ENERGY>  (1) 
15.3864

>  <PUBCHEM_FEATURE_SELFOVERLAP>  (1) 
20.297

>  <PUBCHEM_SHAPE_FINGERPRINT>  (1) 
10857977 72 18201714111067309115
12932741 1 16272209708193772829
12932764 1 17530966869222018253
14390081 3 17060050437187144073
15310529 11 18060424641904593245
15775835 57 17603585222721991673
19973954 147 18342463638058023921
20653091 64 18186797006780383512
21040471 1 17775279499749293334
23235687 12 18333446538734607365
23552423 10 18411705357005131431
29004967 10 17988922284006127410
3248919 1 18341607118536585005
369184 2 17676199182845032709
5084963 1 15574989537924297880
8030462 33 17632296761368554565

>  <PUBCHEM_SHAPE_MULTIPOLES>  (1) 
179.35
4.71
1.27
1.05
0.93
0.1
-0.09
-0.14
-0.67
0.21
0
-0.38
-0.07
-0.36

>  <PUBCHEM_SHAPE_SELFOVERLAP>  (1) 
323.841

>  <PUBCHEM_SHAPE_VOLUME>  (1) 
117.5

>  <PUBCHEM_COORDINATE_TYPE>  (1) 
2
5
10

$$$$
