19514
     RDKit          3D

 18 19  0  0  1  0  0  0  0  0999 V2000
    0.3720   -1.2494    0.4741 O   0  0  0  0  0  0  0  0  0  0  0  0
   -1.2418   -1.6402   -1.1280 O   0  0  0  0  0  0  0  0  0  0  0  0
    2.9472    0.2308   -0.0355 N   0  0  0  0  0  0  0  0  0  0  0  0
    0.6006    0.0595   -0.0654 C   0  0  0  0  0  0  0  0  0  0  0  0
    1.7715    0.7433    0.6919 C   0  0  0  0  0  0  0  0  0  0  0  0
    1.1380   -0.1434   -1.4998 C   0  0  0  0  0  0  0  0  0  0  0  0
    2.5859    0.3323   -1.4519 C   0  0  0  0  0  0  0  0  0  0  0  0
   -0.6799    0.8833   -0.0032 C   0  0  0  0  0  0  0  0  0  0  0  0
    1.8148    0.4298    2.1873 C   0  0  0  0  0  0  0  0  0  0  0  0
    4.1750    0.9628    0.2521 C   0  0  0  0  0  0  0  0  0  0  0  0
   -0.9272    1.8636   -0.9648 C   0  0  0  0  0  0  0  0  0  0  0  0
   -1.6060    0.6583    1.0159 C   0  0  0  0  0  0  0  0  0  0  0  0
   -0.5847   -1.9972   -0.1599 C   0  0  0  0  0  0  0  0  0  0  0  0
   -2.0992    2.6177   -0.9076 C   0  0  0  0  0  0  0  0  0  0  0  0
   -2.7781    1.4125    1.0731 C   0  0  0  0  0  0  0  0  0  0  0  0
   -0.7017   -3.3384    0.5256 C   0  0  0  0  0  0  0  0  0  0  0  0
   -3.0247    2.3922    0.1113 C   0  0  0  0  0  0  0  0  0  0  0  0
   -1.7617   -4.2173   -0.1152 C   0  0  0  0  0  0  0  0  0  0  0  0
  1  4  1  0
  1 13  1  0
  2 13  2  0
  3  5  1  0
  3  7  1  0
  3 10  1  0
  4  5  1  0
  4  6  1  0
  4  8  1  0
  5  9  1  0
  6  7  1  0
  8 11  2  0
  8 12  1  0
 11 14  1  0
 12 15  2  0
 13 16  1  0
 14 17  2  0
 15 17  1  0
 16 18  1  0
M  END
>  <PUBCHEM_COMPOUND_CID>  (1) 
19514

>  <PUBCHEM_CONFORMER_RMSD>  (1) 
0.6

>  <PUBCHEM_CONFORMER_DIVERSEORDER>  (1) 
1
73
9
41
74
79
62
17
66
20
51
76
7
57
12
33
30
69
42
75
29
71
67
56
65
39
80
58
68
23
35
44
48
45
63
4
43
6
16
26
64
31
27
53
78
10
61
40
34
21
32
14
38
15
52
36
49
60
28
50
47
46
13
70
25
72
11
3
19
2
77
24
22
55
37
54
59
18
5
8

>  <PUBCHEM_MMFF94_PARTIAL_CHARGES>  (1) 
20
1 -0.43
10 0.27
11 -0.15
12 -0.15
13 0.66
14 -0.15
15 -0.15
16 0.06
17 -0.15
2 -0.57
3 -0.81
30 0.15
31 0.15
32 0.15
33 0.15
36 0.15
4 0.42
5 0.27
7 0.27
8 -0.14

>  <PUBCHEM_EFFECTIVE_ROTOR_COUNT>  (1) 
5

>  <PUBCHEM_PHARMACOPHORE_FEATURES>  (1) 
5
1 18 hydrophobe
1 2 acceptor
1 3 cation
5 3 4 5 6 7 rings
6 8 11 12 14 15 17 rings

>  <PUBCHEM_HEAVY_ATOM_COUNT>  (1) 
18

>  <PUBCHEM_ATOM_DEF_STEREO_COUNT>  (1) 
0

>  <PUBCHEM_ATOM_UDEF_STEREO_COUNT>  (1) 
2

>  <PUBCHEM_BOND_DEF_STEREO_COUNT>  (1) 
0

>  <PUBCHEM_BOND_UDEF_STEREO_COUNT>  (1) 
0

>  <PUBCHEM_ISOTOPIC_ATOM_COUNT>  (1) 
0

>  <PUBCHEM_COMPONENT_COUNT>  (1) 
1

>  <PUBCHEM_CACTVS_TAUTO_COUNT>  (1) 
1

>  <PUBCHEM_CONFORMER_ID>  (1) 
00004C3A00000001

>  <PUBCHEM_MMFF94_ENERGY>  (1) 
48.9586

>  <PUBCHEM_FEATURE_SELFOVERLAP>  (1) 
25.371

>  <PUBCHEM_SHAPE_FINGERPRINT>  (1) 
1 1 18049444733979453870
10064457 181 17553534341409069899
11265709 11 17832995222960047362
12138202 97 18131351912414653020
121448 382 18341313536047177685
12326174 3 17555448427469548789
12423570 1 13968378573325406680
12532896 13 18341896255497607454
12716301 132 18342167886509515834
13004483 165 17979062010111009434
13134695 92 16897067350369017189
13681431 1 8573267645138167491
13955234 65 17762345717234532921
14004458 79 18121234317763287263
14178000 15 17403460062151016239
14817 1 14787401409095785530
14955137 171 16323999231434902080
15309172 13 18338239249922890297
15490181 7 18267587896886113007
16945 1 18268450077110761108
17357779 13 17843116163169319831
18186145 218 17986405403375302468
19765921 60 17986945258925582865
20600515 1 17693101072808015658
20711985 344 18267292317231761186
21041028 32 17690849277610927631
21524375 3 18200585878734787925
22112679 90 17901688264050631436
23402539 116 18270392931643301239
23419403 2 17410757473611138913
23557571 272 17979076308130516684
25 1 17631737045583880176
2748010 2 18120121427623652591
298252 57 17825421550939858132
3729539 64 17690871976914378318
458136 41 18051151202149201713
495365 180 17764009286785689669
633830 44 17772479996974286120
6442390 28 18269291100901724009
68419 9 18041268972027104608
7364860 26 17688313382668603757
81228 2 18268988868047423603
84936 31 17690544304619986819
9925002 15 17973744741655974013

>  <PUBCHEM_SHAPE_MULTIPOLES>  (1) 
353.71
4.62
3.92
1.48
2.82
5.75
-0.25
-3.58
-0.43
-3.96
0.34
0.53
-0.37
0.11

>  <PUBCHEM_SHAPE_SELFOVERLAP>  (1) 
738.853

>  <PUBCHEM_SHAPE_VOLUME>  (1) 
201.9

>  <PUBCHEM_COORDINATE_TYPE>  (1) 
2
5
10

$$$$
