19517
     RDKit          3D

 14 14  0  0  1  0  0  0  0  0999 V2000
   -1.9958   -0.9069    0.4573 N   0  0  0  0  0  0  0  0  0  0  0  0
   -2.5148    0.4193    0.3054 N   0  0  0  0  0  0  0  0  0  0  0  0
   -0.5542   -0.7979    0.6992 C   0  0  0  0  0  0  0  0  0  0  0  0
    0.1079   -0.0502   -0.4726 C   0  0  0  0  0  0  0  0  0  0  0  0
   -3.9538    0.3131    0.1037 C   0  0  0  0  0  0  0  0  0  0  0  0
    0.0096   -2.2061    0.8893 C   0  0  0  0  0  0  0  0  0  0  0  0
    1.5943    0.1505   -0.2992 C   0  0  0  0  0  0  0  0  0  0  0  0
   -4.2530   -0.4857   -1.1618 C   0  0  0  0  0  0  0  0  0  0  0  0
   -4.5600    1.7107    0.0256 C   0  0  0  0  0  0  0  0  0  0  0  0
    2.0559    1.2937    0.3334 C   0  0  0  0  0  0  0  0  0  0  0  0
    2.4695   -0.8121   -0.7762 C   0  0  0  0  0  0  0  0  0  0  0  0
    3.4291    1.4792    0.4934 C   0  0  0  0  0  0  0  0  0  0  0  0
    3.8427   -0.6266   -0.6162 C   0  0  0  0  0  0  0  0  0  0  0  0
    4.3225    0.5190    0.0186 C   0  0  0  0  0  0  0  0  0  0  0  0
  1  2  1  0
  1  3  1  0
  2  5  1  0
  3  4  1  0
  3  6  1  0
  4  7  1  0
  5  8  1  0
  5  9  1  0
  7 10  2  0
  7 11  1  0
 10 12  1  0
 11 13  2  0
 12 14  2  0
 13 14  1  0
M  END
>  <PUBCHEM_COMPOUND_CID>  (1) 
19517

>  <PUBCHEM_CONFORMER_RMSD>  (1) 
0.6

>  <PUBCHEM_CONFORMER_DIVERSEORDER>  (1) 
2
45
47
51
16
46
37
50
53
1
25
54
55
28
20
49
33
10
61
6
5
39
56
63
44
40
17
52
30
29
4
43
48
22
38
12
13
18
26
3
8
60
19
62
23
7
21
11
36
32
24
15
27
31
42
41
58
59
35
57
14
34
9

>  <PUBCHEM_MMFF94_PARTIAL_CHARGES>  (1) 
18
1 -0.63
10 -0.15
11 -0.15
12 -0.15
13 -0.15
14 -0.15
18 0.36
2 -0.63
23 0.36
3 0.27
30 0.15
31 0.15
32 0.15
33 0.15
34 0.15
4 0.14
5 0.27
7 -0.14

>  <PUBCHEM_EFFECTIVE_ROTOR_COUNT>  (1) 
5

>  <PUBCHEM_PHARMACOPHORE_FEATURES>  (1) 
4
1 1 donor
1 2 donor
3 5 8 9 hydrophobe
6 7 10 11 12 13 14 rings

>  <PUBCHEM_HEAVY_ATOM_COUNT>  (1) 
14

>  <PUBCHEM_ATOM_DEF_STEREO_COUNT>  (1) 
0

>  <PUBCHEM_ATOM_UDEF_STEREO_COUNT>  (1) 
1

>  <PUBCHEM_BOND_DEF_STEREO_COUNT>  (1) 
0

>  <PUBCHEM_BOND_UDEF_STEREO_COUNT>  (1) 
0

>  <PUBCHEM_ISOTOPIC_ATOM_COUNT>  (1) 
0

>  <PUBCHEM_COMPONENT_COUNT>  (1) 
1

>  <PUBCHEM_CACTVS_TAUTO_COUNT>  (1) 
1

>  <PUBCHEM_CONFORMER_ID>  (1) 
00004C3D00000002

>  <PUBCHEM_MMFF94_ENERGY>  (1) 
18.4702

>  <PUBCHEM_FEATURE_SELFOVERLAP>  (1) 
21.601

>  <PUBCHEM_SHAPE_FINGERPRINT>  (1) 
10608611 8 18267869561015613800
11471102 20 18272654550084202876
11543360 7 17561078137757729295
124424 183 18411705404634607730
12500047 106 18335424633663526458
12892183 10 12612756817544428165
13675066 3 15430028872688369212
13922767 16 18412827988705443448
15375358 24 18339644537847437464
18186145 218 18408039606754926837
200 152 17346882251527597246
20279233 1 18411426141513449754
20281475 54 9511463329191363065
20300324 65 18060416932976529345
20645477 70 17988650661980137638
21119208 17 17346599660012474517
212847 35 18260270720239409452
22892500 29 18131631214354449336
23402539 116 18342733013911336893
23402655 69 18059859441267288245
23559900 14 18410299121010481062
25 1 18335984190065256683
265663 24 18202560683206957975
276578 36 17313383418164210994
351380 180 18342454837585605976
4028521 119 18411416181526780733
495365 180 17917703630741942458
4990 188 18272091577986123175
53428517 58 17275385421325894487
548570 60 18335417989022058885
633830 44 18410011022587454333
6430166 295 18186519895105206600
69090 78 18272086123430554175
7495541 125 16415190252194623183

>  <PUBCHEM_SHAPE_MULTIPOLES>  (1) 
278.15
9.53
1.69
0.94
5.53
0.16
-0.08
-3.57
-1.59
0.14
0.44
0.17
0.24
0.3

>  <PUBCHEM_SHAPE_SELFOVERLAP>  (1) 
549.827

>  <PUBCHEM_SHAPE_VOLUME>  (1) 
166.8

>  <PUBCHEM_COORDINATE_TYPE>  (1) 
2
5
10

$$$$
