19519
     RDKit          3D

 16 18  0  0  1  0  0  0  0  0999 V2000
   -0.9601   -2.7911    0.2190 Cl  0  0  0  0  0  0  0  0  0  0  0  0
   -1.0753    2.7271    0.4631 Cl  0  0  0  0  0  0  0  0  0  0  0  0
   -2.9486   -0.0365   -0.4539 Cl  0  0  0  0  0  0  0  0  0  0  0  0
   -1.9782   -0.1283    2.2555 Cl  0  0  0  0  0  0  0  0  0  0  0  0
    0.3207   -1.5883   -2.5866 Cl  0  0  0  0  0  0  0  0  0  0  0  0
    0.2633    1.8318   -2.4310 Cl  0  0  0  0  0  0  0  0  0  0  0  0
    0.7896   -0.8140    1.0994 C   0  0  0  0  0  0  0  0  0  0  0  0
    0.7657    0.7559    1.1526 C   0  0  0  0  0  0  0  0  0  0  0  0
   -0.3990   -1.1343    0.1281 C   0  0  0  0  0  0  0  0  0  0  0  0
   -0.4453    1.1102    0.2252 C   0  0  0  0  0  0  0  0  0  0  0  0
   -1.4469   -0.0486    0.5447 C   0  0  0  0  0  0  0  0  0  0  0  0
    2.2076   -1.2218    0.6791 C   0  0  0  0  0  0  0  0  0  0  0  0
   -0.0545   -0.6118   -1.2549 C   0  0  0  0  0  0  0  0  0  0  0  0
   -0.0836    0.7253   -1.1975 C   0  0  0  0  0  0  0  0  0  0  0  0
    2.1373    1.1440    0.7040 C   0  0  0  0  0  0  0  0  0  0  0  0
    2.9074    0.0803    0.4531 C   0  0  0  0  0  0  0  0  0  0  0  0
  1  9  1  0
  2 10  1  0
  3 11  1  0
  4 11  1  0
  5 13  1  0
  6 14  1  0
  7  8  1  0
  7  9  1  0
  7 12  1  0
  8 10  1  0
  8 15  1  0
  9 11  1  0
  9 13  1  0
 10 11  1  0
 10 14  1  0
 12 16  1  0
 13 14  2  0
 15 16  2  0
M  END
>  <PUBCHEM_COMPOUND_CID>  (1) 
19519

>  <PUBCHEM_CONFORMER_RMSD>  (1) 
0.4

>  <PUBCHEM_CONFORMER_DIVERSEORDER>  (1) 
1
2
3

>  <PUBCHEM_MMFF94_PARTIAL_CHARGES>  (1) 
15
1 -0.29
10 0.43
11 0.58
12 0.14
15 -0.29
16 -0.29
2 -0.29
21 0.15
22 0.15
3 -0.29
4 -0.29
5 -0.14
6 -0.14
8 0.14
9 0.43

>  <PUBCHEM_EFFECTIVE_ROTOR_COUNT>  (1) 
0.4

>  <PUBCHEM_PHARMACOPHORE_FEATURES>  (1) 
2
5 7 8 12 15 16 rings
7 7 8 9 10 11 13 14 rings

>  <PUBCHEM_HEAVY_ATOM_COUNT>  (1) 
16

>  <PUBCHEM_ATOM_DEF_STEREO_COUNT>  (1) 
0

>  <PUBCHEM_ATOM_UDEF_STEREO_COUNT>  (1) 
4

>  <PUBCHEM_BOND_DEF_STEREO_COUNT>  (1) 
0

>  <PUBCHEM_BOND_UDEF_STEREO_COUNT>  (1) 
0

>  <PUBCHEM_ISOTOPIC_ATOM_COUNT>  (1) 
0

>  <PUBCHEM_COMPONENT_COUNT>  (1) 
1

>  <PUBCHEM_CACTVS_TAUTO_COUNT>  (1) 
1

>  <PUBCHEM_CONFORMER_ID>  (1) 
00004C3F00000001

>  <PUBCHEM_MMFF94_ENERGY>  (1) 
70.2505

>  <PUBCHEM_FEATURE_SELFOVERLAP>  (1) 
10.321

>  <PUBCHEM_SHAPE_FINGERPRINT>  (1) 
10863032 1 18116697548240502921
12423570 1 10008624974979814683
13024252 1 15936674979008634802
141345 1 15769782338005746510
14181834 199 16590566844580461874
144361 1 18267279032897609240
14817 1 14807023675899506294
15557651 10 17680388330499508097
15881359 60 17903312092453787756
16945 1 18411422816997604024
19010151 120 18130495388677627937
22344851 12 12662181050592531421
22344851 262 17970051447674985275
23419403 2 16097413382478785870
2748010 2 17977088081774952434
5084963 1 17774146916646510994
54276843 12 17897474802354250232
5845 1 9292726644917944688
68250623 7 17764289657733492755
68419 9 17613745994458285123

>  <PUBCHEM_SHAPE_MULTIPOLES>  (1) 
340.49
2.91
2.47
2.25
0.29
0.02
-1.29
-0.03
1.17
-0.48
-0.47
-0.03
0.01
-0.01

>  <PUBCHEM_SHAPE_SELFOVERLAP>  (1) 
698.985

>  <PUBCHEM_SHAPE_VOLUME>  (1) 
193.8

>  <PUBCHEM_COORDINATE_TYPE>  (1) 
2
5
10

$$$$
