1951
     RDKit          3D

 40 43  0  0  1  0  0  0  0  0999 V2000
   -4.5879   -0.6229   -0.6321 F   0  0  0  0  0  0  0  0  0  0  0  0
   -5.8845    0.8665    0.2787 F   0  0  0  0  0  0  0  0  0  0  0  0
   -3.1674    1.4066   -1.8946 F   0  0  0  0  0  0  0  0  0  0  0  0
   -4.4819    2.8781   -0.9661 F   0  0  0  0  0  0  0  0  0  0  0  0
   -5.3055    1.3950   -2.3346 F   0  0  0  0  0  0  0  0  0  0  0  0
   -0.0095    1.0547   -0.6242 O   0  0  0  0  0  0  0  0  0  0  0  0
    2.5030    0.0331    1.7217 O   0  0  0  0  0  0  0  0  0  0  0  0
   -3.8312    1.7055    1.8082 O   0  0  0  0  0  0  0  0  0  0  0  0
    2.0646    2.0731    0.7205 N   0  0  0  0  0  0  0  0  0  0  0  0
   -1.2629    0.9460    1.3344 N   0  0  0  0  0  0  0  0  0  0  0  0
    5.1448    1.0908    1.6687 N   0  0  0  0  0  0  0  0  0  0  0  0
    0.7598   -2.8516    2.2805 N   0  0  0  0  0  0  0  0  0  0  0  0
    0.7390    2.2596    1.2958 C   0  0  0  0  0  0  0  0  0  0  0  0
    0.4159    3.7298    1.0556 C   0  0  0  0  0  0  0  0  0  0  0  0
    1.1930    4.0607   -0.2162 C   0  0  0  0  0  0  0  0  0  0  0  0
    2.4602    3.2308   -0.0775 C   0  0  0  0  0  0  0  0  0  0  0  0
   -0.1968    1.3552    0.5519 C   0  0  0  0  0  0  0  0  0  0  0  0
    2.8721    0.9941    1.0448 C   0  0  0  0  0  0  0  0  0  0  0  0
    4.2768    1.0467    0.4991 C   0  0  0  0  0  0  0  0  0  0  0  0
   -2.3183    0.0880    0.8464 C   0  0  0  0  0  0  0  0  0  0  0  0
    4.5793   -0.1771   -0.3653 C   0  0  0  0  0  0  0  0  0  0  0  0
   -2.4627   -1.1908    1.6750 C   0  0  0  0  0  0  0  0  0  0  0  0
   -1.2140   -2.0247    1.6910 C   0  0  0  0  0  0  0  0  0  0  0  0
   -3.6065    0.8967    0.9063 C   0  0  0  0  0  0  0  0  0  0  0  0
    3.6540   -0.2947   -1.5541 C   0  0  0  0  0  0  0  0  0  0  0  0
   -0.8711   -3.0555    0.7718 C   0  0  0  0  0  0  0  0  0  0  0  0
   -4.6231    0.6624   -0.1902 C   0  0  0  0  0  0  0  0  0  0  0  0
   -0.1920   -1.9230    2.6065 C   0  0  0  0  0  0  0  0  0  0  0  0
    5.2031    2.4363    2.2229 C   0  0  0  0  0  0  0  0  0  0  0  0
    0.3715   -3.5577    1.1642 C   0  0  0  0  0  0  0  0  0  0  0  0
    2.4595   -1.0059   -1.4404 C   0  0  0  0  0  0  0  0  0  0  0  0
    3.9939    0.3085   -2.7651 C   0  0  0  0  0  0  0  0  0  0  0  0
   -1.5005   -3.6112   -0.3597 C   0  0  0  0  0  0  0  0  0  0  0  0
   -4.3936    1.5880   -1.3588 C   0  0  0  0  0  0  0  0  0  0  0  0
    1.0188   -4.5919    0.4787 C   0  0  0  0  0  0  0  0  0  0  0  0
   -0.8649   -4.6462   -1.0552 C   0  0  0  0  0  0  0  0  0  0  0  0
    1.6051   -1.1144   -2.5375 C   0  0  0  0  0  0  0  0  0  0  0  0
    3.1394    0.2002   -3.8622 C   0  0  0  0  0  0  0  0  0  0  0  0
    0.3753   -5.1275   -0.6406 C   0  0  0  0  0  0  0  0  0  0  0  0
    1.9449   -0.5113   -3.7483 C   0  0  0  0  0  0  0  0  0  0  0  0
  1 27  1  0
  2 27  1  0
  3 34  1  0
  4 34  1  0
  5 34  1  0
  6 17  2  0
  7 18  2  0
  8 24  2  0
  9 13  1  0
  9 16  1  0
  9 18  1  0
 10 17  1  0
 10 20  1  0
 11 19  1  0
 11 29  1  0
 12 28  1  0
 12 30  1  0
 13 14  1  0
 13 17  1  0
 14 15  1  0
 15 16  1  0
 18 19  1  0
 19 21  1  0
 20 22  1  0
 20 24  1  0
 21 25  1  0
 22 23  1  0
 23 26  1  0
 23 28  2  0
 24 27  1  0
 25 31  2  0
 25 32  1  0
 26 30  2  0
 26 33  1  0
 27 34  1  0
 30 35  1  0
 31 37  1  0
 32 38  2  0
 33 36  2  0
 35 39  2  0
 36 39  1  0
 37 40  2  0
 38 40  1  0
M  END
>  <PUBCHEM_COMPOUND_CID>  (1) 
1951

>  <PUBCHEM_CONFORMER_RMSD>  (1) 
1.8

>  <PUBCHEM_CONFORMER_DIVERSEORDER>  (1) 
1
63
30
146
27
144
47
121
125
97
160
87
53
23
135
62
115
152
126
79
138
134
37
83
50
35
116
64
96
156
140
84
162
91
110
32
16
3
69
56
114
167
71
150
88
4
123
65
117
13
38
130
100
105
145
153
74
59
95
26
119
45
36
75
72
81
113
104
127
159
118
80
51
12
122
141
112
28
20
157
166
5
154
67
68
101
76
139
132
54
24
31
90
93
58
48
124
120
107
99
78
133
49
131
151
25
21
161
22
70
29
42
128
82
55
15
43
155
46
108
86
41
106
111
7
57
2
18
10
164
136
39
77
137
147
163
94
66
11
149
109
44
52
148
98
89
165
34
143
40
85
73
9
129
102
6
14
60
92
103
17
142
61
19
8
158
33

>  <PUBCHEM_MMFF94_PARTIAL_CHARGES>  (1) 
50
1 -0.34
10 -0.73
11 -0.9
12 0.03
13 0.36
16 0.3
17 0.57
18 0.57
19 0.33
2 -0.34
20 0.36
21 0.14
22 0.18
23 -0.18
24 0.45
25 -0.14
27 0.74
28 -0.3
29 0.27
3 -0.34
30 -0.15
31 -0.15
32 -0.15
33 -0.15
34 1.02
35 -0.15
36 -0.15
37 -0.15
38 -0.15
39 -0.15
4 -0.34
40 -0.15
5 -0.34
50 0.37
55 0.36
56 0.15
6 -0.57
60 0.27
61 0.15
62 0.15
63 0.15
64 0.15
65 0.15
66 0.15
67 0.15
68 0.15
69 0.15
7 -0.57
8 -0.57
9 -0.66

>  <PUBCHEM_EFFECTIVE_ROTOR_COUNT>  (1) 
14

>  <PUBCHEM_PHARMACOPHORE_FEATURES>  (1) 
12
1 10 donor
1 11 cation
1 11 donor
1 12 cation
1 12 donor
1 6 acceptor
1 7 acceptor
1 8 acceptor
5 12 23 26 28 30 rings
5 9 13 14 15 16 rings
6 25 31 32 37 38 40 rings
6 26 30 33 35 36 39 rings

>  <PUBCHEM_HEAVY_ATOM_COUNT>  (1) 
40

>  <PUBCHEM_ATOM_DEF_STEREO_COUNT>  (1) 
0

>  <PUBCHEM_ATOM_UDEF_STEREO_COUNT>  (1) 
3

>  <PUBCHEM_BOND_DEF_STEREO_COUNT>  (1) 
0

>  <PUBCHEM_BOND_UDEF_STEREO_COUNT>  (1) 
0

>  <PUBCHEM_ISOTOPIC_ATOM_COUNT>  (1) 
0

>  <PUBCHEM_COMPONENT_COUNT>  (1) 
1

>  <PUBCHEM_CACTVS_TAUTO_COUNT>  (1) 
4

>  <PUBCHEM_CONFORMER_ID>  (1) 
0000079F00000001

>  <PUBCHEM_MMFF94_ENERGY>  (1) 
72.0858

>  <PUBCHEM_FEATURE_SELFOVERLAP>  (1) 
60.988

>  <PUBCHEM_SHAPE_FINGERPRINT>  (1) 
10032420 55 17911263649399331140
11513181 2 17189547369222890654
12160290 23 17974309886321716531
13617811 41 17894354372251471781
13636023 20 17844789444137463425
13642711 20 18341326713075498039
17921350 177 18267594691946524308
19315092 285 15482675632789142628
20764821 26 18267604522577895482
21987440 362 17899955180359882532
3298306 158 18260550004761719939
35225 105 18263098741366128110
463206 1 16969986961654996664
66674814 147 17561360664705938172
6669772 16 18343011194764422762

>  <PUBCHEM_SHAPE_MULTIPOLES>  (1) 
749.28
9.37
6
3.21
3.41
5.72
-2.39
-7.86
-2
1.79
0.95
-2.47
0.41
2.69

>  <PUBCHEM_SHAPE_SELFOVERLAP>  (1) 
1618.234

>  <PUBCHEM_SHAPE_VOLUME>  (1) 
412.3

>  <PUBCHEM_COORDINATE_TYPE>  (1) 
2
5
10

$$$$
