19513
     RDKit          3D

 24 26  0  0  1  0  0  0  0  0999 V2000
   -0.7225   -1.0322   -0.2446 O   0  0  0  0  0  0  0  0  0  0  0  0
    1.7098    0.3626    2.0065 O   0  0  0  0  0  0  0  0  0  0  0  0
   -0.3087   -1.3741    1.9967 O   0  0  0  0  0  0  0  0  0  0  0  0
   -3.8762   -0.6234   -0.0911 N   0  0  0  0  0  0  0  0  0  0  0  0
   -2.8811   -1.4315    0.7804 C   0  0  0  0  0  0  0  0  0  0  0  0
   -1.8188   -1.9367   -0.1831 C   0  0  0  0  0  0  0  0  0  0  0  0
   -3.4021   -0.7882   -1.5450 C   0  0  0  0  0  0  0  0  0  0  0  0
   -2.5264   -2.0262   -1.5202 C   0  0  0  0  0  0  0  0  0  0  0  0
    2.1669   -0.5121   -0.1543 C   0  0  0  0  0  0  0  0  0  0  0  0
    1.1081    0.1497    0.7256 C   0  0  0  0  0  0  0  0  0  0  0  0
    3.3934    0.3982   -0.3038 C   0  0  0  0  0  0  0  0  0  0  0  0
    2.5677   -1.8795    0.4155 C   0  0  0  0  0  0  0  0  0  0  0  0
   -5.2860   -1.1805    0.0685 C   0  0  0  0  0  0  0  0  0  0  0  0
   -3.8770    0.8441    0.3053 C   0  0  0  0  0  0  0  0  0  0  0  0
    4.4888   -0.2642   -1.1363 C   0  0  0  0  0  0  0  0  0  0  0  0
    3.6646   -2.5381   -0.4181 C   0  0  0  0  0  0  0  0  0  0  0  0
    4.8783   -1.6268   -0.5719 C   0  0  0  0  0  0  0  0  0  0  0  0
   -0.0420   -0.8364    0.9287 C   0  0  0  0  0  0  0  0  0  0  0  0
    0.5913    1.5012    0.2505 C   0  0  0  0  0  0  0  0  0  0  0  0
    0.2574    2.4543    1.1901 C   0  0  0  0  0  0  0  0  0  0  0  0
    0.4737    1.7303   -1.1048 C   0  0  0  0  0  0  0  0  0  0  0  0
   -0.2158    3.6922    0.7550 C   0  0  0  0  0  0  0  0  0  0  0  0
    0.0007    2.9683   -1.5398 C   0  0  0  0  0  0  0  0  0  0  0  0
   -0.3440    3.9492   -0.6098 C   0  0  0  0  0  0  0  0  0  0  0  0
  1  6  1  0
  1 18  1  0
  2 10  1  0
  3 18  2  0
  4  5  1  0
  4  7  1  0
  4 13  1  0
  4 14  1  0
  5  6  1  0
  6  8  1  0
  7  8  1  0
  9 10  1  0
  9 11  1  0
  9 12  1  0
 10 18  1  0
 10 19  1  0
 11 15  1  0
 12 16  1  0
 15 17  1  0
 16 17  1  0
 19 20  2  0
 19 21  1  0
 20 22  1  0
 21 23  2  0
 22 24  2  0
 23 24  1  0
M  CHG  1   4   1
M  END
>  <PUBCHEM_COMPOUND_CID>  (1) 
19513

>  <PUBCHEM_CONFORMER_RMSD>  (1) 
0.8

>  <PUBCHEM_CONFORMER_DIVERSEORDER>  (1) 
2
58
93
19
76
121
190
202
181
140
97
63
157
92
80
151
180
110
87
207
115
194
8
100
188
170
159
189
204
212
28
179
171
168
120
206
82
145
132
104
192
86
153
108
184
129
164
99
94
127
111
116
117
182
102
165
113
25
112
118
195
175
51
150
62
183
200
130
26
191
144
56
208
101
15
158
22
75
9
48
123
55
201
172
29
173
124
69
142
136
205
103
3
98
187
131
196
74
114
54
60
10
20
43
67
31
176
163
185
199
95
77
30
59
174
193
154
35
50
37
32
126
61
44
209
91
40
41
106
96
128
71
45
85
169
27
156
23
152
84
149
135
167
16
90
72
162
79
134
89
39
33
17
137
147
119
105
186
46
177
81
178
83
38
197
78
107
160
14
155
146
68
122
143
138
64
88
52
66
166
1
21
133
161
47
36
210
7
73
198
57
12
42
203
70
141
11
49
53
24
109
18
139
6
13
125
34
5
65
211
4
148

>  <PUBCHEM_MMFF94_PARTIAL_CHARGES>  (1) 
23
1 -0.43
10 0.48
13 0.5
14 0.5
18 0.66
19 -0.14
2 -0.68
20 -0.15
21 -0.15
22 -0.15
23 -0.15
24 -0.15
3 -0.57
4 -1.01
49 0.4
5 0.5
50 0.15
51 0.15
52 0.15
53 0.15
54 0.15
6 0.28
7 0.5

>  <PUBCHEM_EFFECTIVE_ROTOR_COUNT>  (1) 
7.2

>  <PUBCHEM_PHARMACOPHORE_FEATURES>  (1) 
7
1 2 acceptor
1 2 donor
1 3 acceptor
1 4 cation
5 4 5 6 7 8 rings
6 19 20 21 22 23 24 rings
6 9 11 12 15 16 17 rings

>  <PUBCHEM_HEAVY_ATOM_COUNT>  (1) 
24

>  <PUBCHEM_ATOM_DEF_STEREO_COUNT>  (1) 
0

>  <PUBCHEM_ATOM_UDEF_STEREO_COUNT>  (1) 
2

>  <PUBCHEM_BOND_DEF_STEREO_COUNT>  (1) 
0

>  <PUBCHEM_BOND_UDEF_STEREO_COUNT>  (1) 
0

>  <PUBCHEM_ISOTOPIC_ATOM_COUNT>  (1) 
0

>  <PUBCHEM_COMPONENT_COUNT>  (1) 
1

>  <PUBCHEM_CACTVS_TAUTO_COUNT>  (1) 
1

>  <PUBCHEM_CONFORMER_ID>  (1) 
00004C3900000002

>  <PUBCHEM_MMFF94_ENERGY>  (1) 
64.5867

>  <PUBCHEM_FEATURE_SELFOVERLAP>  (1) 
35.53

>  <PUBCHEM_SHAPE_FINGERPRINT>  (1) 
10165383 225 16531208717402236401
10366900 7 17240758519677585627
104564 63 18265893545220260837
11578080 2 17702929367220758336
116883 192 18268432343555013886
12035759 4 17751075812990453440
12054548 360 18411975841076038132
12156800 1 17836965241942218373
12166972 35 18130502024934752441
12422481 6 17621912814773774651
12553582 1 18411408518819750127
12617007 42 18410016575763922757
12788726 201 18264204717109465050
13004483 165 18412823556309970926
13009979 54 17845664749808269683
13134695 92 18271807985653949445
13149001 5 17824548692925527474
13681431 1 18265052629426258672
13911987 19 17827669120669641230
14251751 93 17903077724920972718
14251757 17 17095527335271942572
14251757 5 18335423409244224471
14341114 328 11386365937279966807
14955137 171 18339658788654375393
15210252 30 18040152928959852660
15238133 3 17532628188774606749
17357779 13 18339911654199987980
17492 89 18054220201322787263
17980427 23 14836412436056529403
1813 80 18409721885183424098
18335252 114 18340474601103316381
18981168 100 17391074008029712745
20600515 1 17774736336789449686
21285901 2 18057610871406192799
21304303 64 17896334669195346916
21330990 113 17916312631967380014
21524375 3 16747325450082044193
21641784 216 18189354406676388428
221357 26 18334853931457458479
23175994 123 18334021613576091967
23402539 116 18334861576335831662
23557571 272 18337936910569497330
23558518 356 17972327205116979858
23559900 14 18263922319073748091
23566358 27 17978234082308653399
238 59 17616249629531749926
25222932 49 14181932787194094567
3027735 51 18125167030686488902
340366 18 18129662023357355447
3797600 57 12540967543056398981
4409770 3 18051121498012730621
46194498 28 17896318206622319439
550186 7 14906788756603606074
57262259 84 18268997483873035036
6287921 2 17686341275668472215
70251023 43 18339932515510869818
7164475 11 18264770948623576702
7364860 26 18123750026306377033
7832392 63 18341607170318857067
81228 2 18261961756412250120
9971528 1 18271799181107837355
9981440 41 17115499096492093657

>  <PUBCHEM_SHAPE_MULTIPOLES>  (1) 
471.32
7.97
4.02
1.5
0.77
4.52
-0.12
-6.97
2.01
0.07
0.51
0.14
0.15
-0.1

>  <PUBCHEM_SHAPE_SELFOVERLAP>  (1) 
988.377

>  <PUBCHEM_SHAPE_VOLUME>  (1) 
265

>  <PUBCHEM_COORDINATE_TYPE>  (1) 
2
5
10

$$$$
