19528
     RDKit          3D

 19 19  0  0  0  0  0  0  0  0999 V2000
   -4.1447   -0.9219   -0.4652 O   0  0  0  0  0  0  0  0  0  0  0  0
    2.5222   -0.4136   -1.4420 O   0  0  0  0  0  0  0  0  0  0  0  0
    0.5437    3.1471   -0.5104 O   0  0  0  0  0  0  0  0  0  0  0  0
    1.0232    0.9488    0.2765 N   0  0  0  0  0  0  0  0  0  0  0  0
    3.7337   -1.5617    0.1694 N   0  0  0  0  0  0  0  0  0  0  0  0
    1.9851    0.0501    0.8477 C   0  0  0  0  0  0  0  0  0  0  0  0
   -0.3425    0.4550    0.0801 C   0  0  0  0  0  0  0  0  0  0  0  0
    2.7596   -0.6508   -0.2545 C   0  0  0  0  0  0  0  0  0  0  0  0
   -1.3601    1.3448    0.2374 C   0  0  0  0  0  0  0  0  0  0  0  0
   -0.4934   -0.8583   -0.2441 C   0  0  0  0  0  0  0  0  0  0  0  0
    1.3126    2.3155   -0.0214 C   0  0  0  0  0  0  0  0  0  0  0  0
   -2.8766   -0.4630   -0.2819 C   0  0  0  0  0  0  0  0  0  0  0  0
   -2.6599    0.8740    0.0519 C   0  0  0  0  0  0  0  0  0  0  0  0
   -1.7932   -1.3293   -0.4298 C   0  0  0  0  0  0  0  0  0  0  0  0
    2.7027    2.7744    0.3550 C   0  0  0  0  0  0  0  0  0  0  0  0
    4.5602   -2.3165   -0.7693 C   0  0  0  0  0  0  0  0  0  0  0  0
    3.9956   -1.8248    1.5789 C   0  0  0  0  0  0  0  0  0  0  0  0
   -5.1800   -0.2855    0.2826 C   0  0  0  0  0  0  0  0  0  0  0  0
   -6.2881   -1.2844    0.5393 C   0  0  0  0  0  0  0  0  0  0  0  0
  1 12  1  0
  1 18  1  0
  2  8  2  0
  3 11  2  0
  4  6  1  0
  4  7  1  0
  4 11  1  0
  5  8  1  0
  5 16  1  0
  5 17  1  0
  6  8  1  0
  7  9  2  0
  7 10  1  0
  9 13  1  0
 10 14  2  0
 11 15  1  0
 12 13  2  0
 12 14  1  0
 18 19  1  0
M  END
>  <PUBCHEM_COMPOUND_CID>  (1) 
19528

>  <PUBCHEM_CONFORMER_RMSD>  (1) 
0.8

>  <PUBCHEM_CONFORMER_DIVERSEORDER>  (1) 
1
13
39
30
29
9
36
19
26
10
46
32
38
43
45
7
37
21
28
34
2
44
15
31
42
12
41
20
40
25
23
18
17
11
22
33
24
6
35
4
3
8
5
14
27
16

>  <PUBCHEM_MMFF94_PARTIAL_CHARGES>  (1) 
22
1 -0.36
10 -0.15
11 0.57
12 0.08
13 -0.15
14 -0.15
15 0.06
16 0.3
17 0.3
18 0.28
2 -0.57
22 0.15
23 0.15
24 0.15
25 0.15
3 -0.57
4 -0.48
5 -0.66
6 0.36
7 0.12
8 0.57
9 -0.15

>  <PUBCHEM_EFFECTIVE_ROTOR_COUNT>  (1) 
7

>  <PUBCHEM_PHARMACOPHORE_FEATURES>  (1) 
4
1 1 acceptor
1 2 acceptor
1 3 acceptor
6 7 9 10 12 13 14 rings

>  <PUBCHEM_HEAVY_ATOM_COUNT>  (1) 
19

>  <PUBCHEM_ATOM_DEF_STEREO_COUNT>  (1) 
0

>  <PUBCHEM_ATOM_UDEF_STEREO_COUNT>  (1) 
0

>  <PUBCHEM_BOND_DEF_STEREO_COUNT>  (1) 
0

>  <PUBCHEM_BOND_UDEF_STEREO_COUNT>  (1) 
0

>  <PUBCHEM_ISOTOPIC_ATOM_COUNT>  (1) 
0

>  <PUBCHEM_COMPONENT_COUNT>  (1) 
1

>  <PUBCHEM_CACTVS_TAUTO_COUNT>  (1) 
1

>  <PUBCHEM_CONFORMER_ID>  (1) 
00004C4800000001

>  <PUBCHEM_MMFF94_ENERGY>  (1) 
77.5681

>  <PUBCHEM_FEATURE_SELFOVERLAP>  (1) 
20.298

>  <PUBCHEM_SHAPE_FINGERPRINT>  (1) 
10989021 7 18412261727158351880
11578080 2 17387669662717547196
12553582 1 18338505353401598070
12616971 3 18130787889347246079
12644460 14 18338804523331981408
12841375 25 18410856538660818790
13052359 8 17686327681828260260
13140716 1 18270677705213066507
13533116 47 18271246127239075267
13760787 5 18270956951586469311
13862211 1 18342172268120534039
13955234 65 18269273637079655440
14178342 30 17772762567209134435
14739800 52 17059489784999470905
15042514 8 18050567339757286592
15342816 4 18263083232576676054
15442244 35 18413389821651233481
15536298 74 18342738567478221193
15885798 251 18411135801254644403
17804303 29 18201438030284692080
1813 80 18339930320312453118
18186145 218 18040706018089984751
18222031 100 18342731892940735879
20028762 73 18130503119909950743
20369508 70 18335416876599058034
20554085 129 11891623489627101022
20645477 70 18410008879425322519
20832881 197 18187642458197104539
20871998 22 18411412900024034576
21041028 32 18273215270623076249
21267235 1 18340776961477747990
21296965 67 18338513041477012176
221490 88 18263649613765796891
22182313 1 18189030097606193133
2255824 54 18337392750586357636
2297311 6 18198630930635464518
23366157 5 18188207714622128228
23559900 14 18412260678938333947
312423 11 18410867559410107737
314173 41 18409168805286934122
3286 77 18260827090191988365
335352 9 18340206276868358733
3421961 26 18411417327876470744
34797466 226 16081658884909019527
465052 167 18411427228203940447
5104073 3 18343028826453908633
7364860 26 18270678796145172816
7495541 125 18260272975202936331
7970288 3 18336543798656305306
81228 2 17982463598555305552
8863177 126 17969234493857352363
9709674 26 18263924522017151747
9841814 1 18334566950084598848

>  <PUBCHEM_SHAPE_MULTIPOLES>  (1) 
363.44
10.38
2.84
0.97
11.54
1.96
-0.1
-7.97
-1.39
-3.28
0.06
-0.84
-0.36
0.07

>  <PUBCHEM_SHAPE_SELFOVERLAP>  (1) 
738.598

>  <PUBCHEM_SHAPE_VOLUME>  (1) 
211.4

>  <PUBCHEM_COORDINATE_TYPE>  (1) 
2
5
10

$$$$
