19521
     RDKit          3D

 23 23  0  0  0  0  0  0  0  0999 V2000
   -4.2397    1.1293    0.2624 P   0  0  0  0  0  0  0  0  0  0  0  0
    0.3079   -0.7932   -0.2692 O   0  0  0  0  0  0  0  0  0  0  0  0
   -4.2962   -0.3420   -0.3760 O   0  0  0  0  0  0  0  0  0  0  0  0
   -3.9115    0.8534    1.8250 O   0  0  0  0  0  0  0  0  0  0  0  0
   -5.8011    1.5611    0.2829 O   0  0  0  0  0  0  0  0  0  0  0  0
   -3.3191    2.0980   -0.4236 O   0  0  0  0  0  0  0  0  0  0  0  0
   -0.7542   -2.8365   -0.1062 O   0  0  0  0  0  0  0  0  0  0  0  0
    6.9093    1.1895    0.7219 O   0  0  0  0  0  0  0  0  0  0  0  0
    6.1573   -0.6611    1.6322 O   0  0  0  0  0  0  0  0  0  0  0  0
    6.0205    0.3136    0.8538 N   0  0  0  0  0  0  0  0  0  0  0  0
    2.6528   -0.4136   -0.5153 C   0  0  0  0  0  0  0  0  0  0  0  0
    1.5756   -1.4492   -0.3786 C   0  0  0  0  0  0  0  0  0  0  0  0
    3.8217   -0.5330    0.2281 C   0  0  0  0  0  0  0  0  0  0  0  0
    2.4725    0.6556   -1.3857 C   0  0  0  0  0  0  0  0  0  0  0  0
    4.8233    0.4292    0.0994 C   0  0  0  0  0  0  0  0  0  0  0  0
    3.4741    1.6177   -1.5143 C   0  0  0  0  0  0  0  0  0  0  0  0
    4.6495    1.5046   -0.7717 C   0  0  0  0  0  0  0  0  0  0  0  0
   -3.1818   -1.1508   -0.4735 C   0  0  0  0  0  0  0  0  0  0  0  0
   -1.9734   -0.7598   -0.0398 C   0  0  0  0  0  0  0  0  0  0  0  0
   -0.7680   -1.6167   -0.1385 C   0  0  0  0  0  0  0  0  0  0  0  0
   -3.4150   -2.4930   -1.0968 C   0  0  0  0  0  0  0  0  0  0  0  0
   -4.7383   -0.0500    2.5380 C   0  0  0  0  0  0  0  0  0  0  0  0
   -6.4660    1.7472   -0.9545 C   0  0  0  0  0  0  0  0  0  0  0  0
  1  3  1  0
  1  4  1  0
  1  5  1  0
  1  6  2  0
  2 12  1  0
  2 20  1  0
  3 18  1  0
  4 22  1  0
  5 23  1  0
  7 20  2  0
  8 10  1  0
  9 10  2  0
 10 15  1  0
 11 12  1  0
 11 13  2  0
 11 14  1  0
 13 15  1  0
 14 16  2  0
 15 17  2  0
 16 17  1  0
 18 19  2  0
 18 21  1  0
 19 20  1  0
M  CHG  2   8  -1  10   1
M  END
>  <PUBCHEM_COMPOUND_CID>  (1) 
19521

>  <PUBCHEM_CONFORMER_RMSD>  (1) 
1.2

>  <PUBCHEM_CONFORMER_DIVERSEORDER>  (1) 
6
58
17
44
46
92
89
153
152
51
75
14
64
90
161
11
65
120
66
150
145
118
24
111
157
131
159
132
5
163
55
68
134
35
50
136
21
16
57
104
79
4
56
129
83
73
156
61
96
121
19
107
2
20
52
130
88
122
112
81
82
36
27
117
15
28
113
77
98
70
76
95
9
43
114
53
18
8
101
13
154
85
127
116
110
147
78
94
80
23
91
54
140
30
42
133
164
37
109
160
108
165
69
7
125
1
59
144
143
100
87
67
86
106
62
155
138
63
158
123
141
168
126
103
99
33
60
34
167
137
3
39
115
25
41
32
48
124
135
93
12
29
22
169
166
84
102
74
45
105
47
49
149
10
142
38
146
119
26
40
139
31
162
72
97
151
128
71
148

>  <PUBCHEM_MMFF94_PARTIAL_CHARGES>  (1) 
28
1 1.51
10 0.91
11 -0.14
12 0.42
13 -0.15
14 -0.15
15 0.13
16 -0.15
17 -0.15
18 -0.06
19 -0.14
2 -0.43
20 0.71
21 0.14
22 0.28
23 0.28
26 0.15
27 0.15
28 0.15
29 0.15
3 -0.35
30 0.15
4 -0.55
5 -0.55
6 -0.7
7 -0.57
8 -0.52
9 -0.52

>  <PUBCHEM_EFFECTIVE_ROTOR_COUNT>  (1) 
9

>  <PUBCHEM_PHARMACOPHORE_FEATURES>  (1) 
6
1 6 acceptor
1 7 acceptor
1 8 acceptor
1 8 anion
1 9 acceptor
6 11 13 14 15 16 17 rings

>  <PUBCHEM_HEAVY_ATOM_COUNT>  (1) 
23

>  <PUBCHEM_ATOM_DEF_STEREO_COUNT>  (1) 
0

>  <PUBCHEM_ATOM_UDEF_STEREO_COUNT>  (1) 
0

>  <PUBCHEM_BOND_DEF_STEREO_COUNT>  (1) 
0

>  <PUBCHEM_BOND_UDEF_STEREO_COUNT>  (1) 
1

>  <PUBCHEM_ISOTOPIC_ATOM_COUNT>  (1) 
0

>  <PUBCHEM_COMPONENT_COUNT>  (1) 
1

>  <PUBCHEM_CACTVS_TAUTO_COUNT>  (1) 
1

>  <PUBCHEM_CONFORMER_ID>  (1) 
00004C4100000006

>  <PUBCHEM_MMFF94_ENERGY>  (1) 
56.6976

>  <PUBCHEM_FEATURE_SELFOVERLAP>  (1) 
30.53

>  <PUBCHEM_SHAPE_FINGERPRINT>  (1) 
10 15 18260271853799552401
10319926 262 16805615737238143307
10693767 8 10807120148875118660
12107183 9 18262226713140088122
12403259 118 17895205402429334629
12596602 18 16877950472256617024
12616971 3 18041000669625452700
12633257 1 18410578417790251412
13583140 156 16660352688929450111
14123256 34 7853572430715734596
14251764 30 13767920226719051768
14466204 15 18413385454133411784
14950920 106 16732991963252149673
15188451 53 15936985153400059491
15238133 3 18410014373189745348
15348495 7 16660652885447168201
15880784 105 14634880789696471197
16993438 75 17387672943181369148
17844677 252 13551188901098785158
18222031 100 11458708369079801154
18927931 339 12035446151670001987
20281389 69 18411138047564757752
20511986 3 18340755005678342098
21150785 3 14405177382962719521
21315759 148 13551461567302910046
21315763 76 18343018882956316653
21774942 28 16773522053875411280
22950370 63 9079126565631626310
2303208 19 14418126319124712682
23198884 109 16486978367210060133
235170 7 15339127814035152469
23559900 14 17917168117129714518
2767999 5 18272369763012701153
2838139 119 18261384534456701245
312425 54 15719396143905757185
4098825 35 13398634940042139331
441001 317 17561367287598495827
465052 167 7853568028442776200
5104073 3 17895473760502037896
543368 44 17489873713715070697
6299153 45 18337382743497720130
7226269 152 18202004330608309128
7970288 3 8574131836094053185
9981440 41 18410014359814941083

>  <PUBCHEM_SHAPE_MULTIPOLES>  (1) 
425.24
17.25
2.35
1.53
7.15
0.62
-0.83
-9.27
-4.73
-2.25
0.78
-0.81
-0.18
-0.93

>  <PUBCHEM_SHAPE_SELFOVERLAP>  (1) 
854.812

>  <PUBCHEM_SHAPE_VOLUME>  (1) 
250.6

>  <PUBCHEM_COORDINATE_TYPE>  (1) 
2
5
10

$$$$
