19529
     RDKit          3D

 21 22  0  0  0  0  0  0  0  0999 V2000
   -6.1218    0.8759   -1.7066 Cl  0  0  0  0  0  0  0  0  0  0  0  0
   -6.5277    0.6238    1.1697 Cl  0  0  0  0  0  0  0  0  0  0  0  0
    2.2380    0.2162    0.7045 O   0  0  0  0  0  0  0  0  0  0  0  0
    5.3371   -0.2105   -1.0832 O   0  0  0  0  0  0  0  0  0  0  0  0
   -3.8002    1.5492    0.2119 O   0  0  0  0  0  0  0  0  0  0  0  0
    2.6246   -0.6553   -1.4124 O   0  0  0  0  0  0  0  0  0  0  0  0
   -3.1829   -0.7018   -0.0219 N   0  0  0  0  0  0  0  0  0  0  0  0
   -1.8193   -0.4702    0.1611 C   0  0  0  0  0  0  0  0  0  0  0  0
   -1.2603    0.7475   -0.2259 C   0  0  0  0  0  0  0  0  0  0  0  0
   -1.0150   -1.4578    0.7300 C   0  0  0  0  0  0  0  0  0  0  0  0
    0.9079   -0.0094    0.5251 C   0  0  0  0  0  0  0  0  0  0  0  0
    0.1033    0.9779   -0.0441 C   0  0  0  0  0  0  0  0  0  0  0  0
    0.3486   -1.2273    0.9119 C   0  0  0  0  0  0  0  0  0  0  0  0
   -3.7100   -2.0800   -0.2660 C   0  0  0  0  0  0  0  0  0  0  0  0
   -4.1351    0.3762    0.0169 C   0  0  0  0  0  0  0  0  0  0  0  0
   -5.5981    0.0442   -0.2219 C   0  0  0  0  0  0  0  0  0  0  0  0
    4.4744    0.1128   -0.1101 C   0  0  0  0  0  0  0  0  0  0  0  0
    3.0611   -0.1602   -0.3777 C   0  0  0  0  0  0  0  0  0  0  0  0
    5.0679    0.6478    0.9765 C   0  0  0  0  0  0  0  0  0  0  0  0
    6.4479    0.6666    0.6628 C   0  0  0  0  0  0  0  0  0  0  0  0
    6.5596    0.1343   -0.6005 C   0  0  0  0  0  0  0  0  0  0  0  0
  1 16  1  0
  2 16  1  0
  3 11  1  0
  3 18  1  0
  4 17  1  0
  4 21  1  0
  5 15  2  0
  6 18  2  0
  7  8  1  0
  7 14  1  0
  7 15  1  0
  8  9  2  0
  8 10  1  0
  9 12  1  0
 10 13  2  0
 11 12  2  0
 11 13  1  0
 15 16  1  0
 17 18  1  0
 17 19  2  0
 19 20  1  0
 20 21  2  0
M  END
>  <PUBCHEM_COMPOUND_CID>  (1) 
19529

>  <PUBCHEM_CONFORMER_RMSD>  (1) 
0.8

>  <PUBCHEM_CONFORMER_DIVERSEORDER>  (1) 
1
176
143
134
206
154
190
221
175
169
216
203
224
155
100
138
27
122
26
107
152
131
188
88
141
97
121
30
92
123
132
213
149
145
222
11
209
140
215
208
158
124
24
200
211
72
212
163
21
177
162
50
4
54
128
136
144
189
156
108
142
19
17
59
7
51
101
60
15
174
70
104
157
39
202
167
18
214
130
127
66
192
168
179
62
95
93
55
5
194
110
64
161
76
170
173
171
116
160
3
37
25
85
159
129
146
61
114
117
220
153
165
197
83
150
13
68
52
78
125
172
193
120
217
103
8
80
58
148
79
133
28
119
98
34
185
86
96
118
81
139
44
109
2
56
77
75
204
33
151
178
181
14
35
46
57
112
49
218
36
183
166
91
102
22
9
137
38
82
115
164
48
63
210
84
219
205
223
186
90
40
99
23
69
184
94
45
106
105
32
73
182
41
53
10
180
29
71
195
147
126
47
207
187
67
89
42
20
191
198
74
6
16
31
87
43
65
199
113
12
135
111
196
201

>  <PUBCHEM_MMFF94_PARTIAL_CHARGES>  (1) 
28
1 -0.29
10 -0.15
11 0.08
12 -0.15
13 -0.15
14 0.3
15 0.57
16 0.64
17 0.05
18 0.81
19 -0.15
2 -0.29
20 -0.15
21 -0.01
22 0.15
23 0.15
24 0.15
25 0.15
3 -0.23
30 0.15
31 0.15
32 0.15
4 -0.28
5 -0.57
6 -0.57
7 -0.48
8 0.12
9 -0.15

>  <PUBCHEM_EFFECTIVE_ROTOR_COUNT>  (1) 
6

>  <PUBCHEM_PHARMACOPHORE_FEATURES>  (1) 
5
1 4 acceptor
1 5 acceptor
1 6 acceptor
5 4 17 19 20 21 rings
6 8 9 10 11 12 13 rings

>  <PUBCHEM_HEAVY_ATOM_COUNT>  (1) 
21

>  <PUBCHEM_ATOM_DEF_STEREO_COUNT>  (1) 
0

>  <PUBCHEM_ATOM_UDEF_STEREO_COUNT>  (1) 
0

>  <PUBCHEM_BOND_DEF_STEREO_COUNT>  (1) 
0

>  <PUBCHEM_BOND_UDEF_STEREO_COUNT>  (1) 
0

>  <PUBCHEM_ISOTOPIC_ATOM_COUNT>  (1) 
0

>  <PUBCHEM_COMPONENT_COUNT>  (1) 
1

>  <PUBCHEM_CACTVS_TAUTO_COUNT>  (1) 
1

>  <PUBCHEM_CONFORMER_ID>  (1) 
00004C4900000001

>  <PUBCHEM_MMFF94_ENERGY>  (1) 
69.0022

>  <PUBCHEM_FEATURE_SELFOVERLAP>  (1) 
25.377

>  <PUBCHEM_SHAPE_FINGERPRINT>  (1) 
10354089 29 15574715798674245778
10366900 7 12967132709369583206
106641 1 15936700332675460321
10835480 77 17988074608260837760
11315181 36 18272373104502441472
11401426 45 18407759248295743714
11646440 116 18409176510379148737
12091667 2 17458061573832123915
12166972 35 11819279953298348390
12236239 1 16805321098022990424
12390115 104 18268716004791910705
12516196 113 15051730893488016002
12596602 18 15285359517899289620
12616971 3 16732986461172294302
12916748 109 18187652374938902489
13167372 99 15936403412463623156
13288520 33 12247679379284103947
13533116 47 18337388232914323994
13668630 136 14620797110722652460
14251764 18 8142082066194939750
14251764 46 15339119035279994916
15048467 5 17240479191651474077
15183329 4 18272930501105385755
15716309 27 14129060331051938561
17834072 33 14908175369889633964
18222031 100 11095879341624222083
19489759 90 18410856568240273682
200 152 15841555163001186178
20281389 69 17530963587946430764
20645477 70 16988570044088995198
20681677 155 18411981369152862787
21150785 3 18060410336012037399
21267235 1 18337674235029092451
220451 1 18260547831508417538
22224240 67 12035451661728102680
23198884 109 17489591147684648491
23402539 116 18335416898316442310
23536379 177 16845575296705253353
23557571 272 18341620278712493244
23559900 14 18059285573528022097
293599 30 18259983764894913747
29717793 49 15410622475900810840
300161 21 18261104171216954802
347723 3 17894349986097656304
34797466 226 17560805454679546984
3545911 37 18341896285604550473
4073 2 18272090547621597122
4340502 62 15357697470237684728
5283173 99 18202285754029769848
542803 24 17240482529052046354
59755656 520 16805321119630105683
7226269 152 18333732420559059129

>  <PUBCHEM_SHAPE_MULTIPOLES>  (1) 
407.45
17.91
1.33
1.15
5.93
0.44
0.16
-5.05
1.01
-1.58
0.03
-0.35
-0.12
0.37

>  <PUBCHEM_SHAPE_SELFOVERLAP>  (1) 
849.997

>  <PUBCHEM_SHAPE_VOLUME>  (1) 
233.3

>  <PUBCHEM_COORDINATE_TYPE>  (1) 
2
5
10

$$$$
