19532
     RDKit          3D

 23 24  0  0  1  0  0  0  0  0999 V2000
    1.5702   -0.9512    0.2162 O   0  0  0  0  0  0  0  0  0  0  0  0
    0.6613   -1.9347    2.0886 O   0  0  0  0  0  0  0  0  0  0  0  0
   -4.2180    1.2206   -0.5023 O   0  0  0  0  0  0  0  0  0  0  0  0
    3.9994    0.3408   -0.5383 N   0  0  0  0  0  0  0  0  0  0  0  0
    4.9785    0.8130   -1.5169 C   0  0  0  0  0  0  0  0  0  0  0  0
    4.4789    0.8406    0.7499 C   0  0  0  0  0  0  0  0  0  0  0  0
    5.2466    2.2418   -1.0680 C   0  0  0  0  0  0  0  0  0  0  0  0
    4.9216    2.2591    0.4225 C   0  0  0  0  0  0  0  0  0  0  0  0
    3.8529   -1.1070   -0.5530 C   0  0  0  0  0  0  0  0  0  0  0  0
    2.8387   -1.5217    0.5136 C   0  0  0  0  0  0  0  0  0  0  0  0
    3.4366   -1.5784   -1.9467 C   0  0  0  0  0  0  0  0  0  0  0  0
    0.5660   -1.2394    1.0892 C   0  0  0  0  0  0  0  0  0  0  0  0
   -0.7001   -0.5885    0.6676 C   0  0  0  0  0  0  0  0  0  0  0  0
   -0.9879    0.6823    1.1290 C   0  0  0  0  0  0  0  0  0  0  0  0
   -1.5581   -1.2700   -0.1747 C   0  0  0  0  0  0  0  0  0  0  0  0
   -2.1775    1.2939    0.7335 C   0  0  0  0  0  0  0  0  0  0  0  0
   -2.7476   -0.6585   -0.5703 C   0  0  0  0  0  0  0  0  0  0  0  0
   -3.0574    0.6235   -0.1162 C   0  0  0  0  0  0  0  0  0  0  0  0
   -0.0653    1.4251    2.0399 C   0  0  0  0  0  0  0  0  0  0  0  0
   -1.2547   -2.6446   -0.6763 C   0  0  0  0  0  0  0  0  0  0  0  0
   -5.3275    0.3666   -0.7766 C   0  0  0  0  0  0  0  0  0  0  0  0
   -6.6142    1.1208   -0.4776 C   0  0  0  0  0  0  0  0  0  0  0  0
   -7.8424    0.2658   -0.7332 C   0  0  0  0  0  0  0  0  0  0  0  0
  1 10  1  0
  1 12  1  0
  2 12  2  0
  3 18  1  0
  3 21  1  0
  4  5  1  0
  4  6  1  0
  4  9  1  0
  5  7  1  0
  6  8  1  0
  7  8  1  0
  9 10  1  0
  9 11  1  0
 12 13  1  0
 13 14  2  0
 13 15  1  0
 14 16  1  0
 14 19  1  0
 15 17  2  0
 15 20  1  0
 16 18  2  0
 17 18  1  0
 21 22  1  0
 22 23  1  0
M  END
>  <PUBCHEM_COMPOUND_CID>  (1) 
19532

>  <PUBCHEM_CONFORMER_RMSD>  (1) 
1

>  <PUBCHEM_CONFORMER_DIVERSEORDER>  (1) 
2
44
30
34
76
20
65
29
74
64
48
70
28
38
23
1
56
71
10
35
66
31
62
59
14
53
37
50
67
11
40
22
57
43
17
18
6
58
60
51
33
15
27
25
13
7
9
75
55
41
21
5
63
32
45
73
24
42
47
12
36
68
39
16
72
3
61
19
52
26
54
49
69
46
4
8

>  <PUBCHEM_MMFF94_PARTIAL_CHARGES>  (1) 
20
1 -0.43
10 0.28
12 0.63
13 0.09
14 -0.14
15 -0.14
16 -0.15
17 -0.15
18 0.08
19 0.14
2 -0.57
20 0.14
21 0.28
3 -0.36
38 0.15
39 0.15
4 -0.81
5 0.27
6 0.27
9 0.27

>  <PUBCHEM_EFFECTIVE_ROTOR_COUNT>  (1) 
9

>  <PUBCHEM_PHARMACOPHORE_FEATURES>  (1) 
6
1 2 acceptor
1 23 hydrophobe
1 3 acceptor
1 4 cation
5 4 5 6 7 8 rings
6 13 14 15 16 17 18 rings

>  <PUBCHEM_HEAVY_ATOM_COUNT>  (1) 
23

>  <PUBCHEM_ATOM_DEF_STEREO_COUNT>  (1) 
0

>  <PUBCHEM_ATOM_UDEF_STEREO_COUNT>  (1) 
1

>  <PUBCHEM_BOND_DEF_STEREO_COUNT>  (1) 
0

>  <PUBCHEM_BOND_UDEF_STEREO_COUNT>  (1) 
0

>  <PUBCHEM_ISOTOPIC_ATOM_COUNT>  (1) 
0

>  <PUBCHEM_COMPONENT_COUNT>  (1) 
1

>  <PUBCHEM_CACTVS_TAUTO_COUNT>  (1) 
1

>  <PUBCHEM_CONFORMER_ID>  (1) 
00004C4C00000002

>  <PUBCHEM_MMFF94_ENERGY>  (1) 
57.2616

>  <PUBCHEM_FEATURE_SELFOVERLAP>  (1) 
30.446

>  <PUBCHEM_SHAPE_FINGERPRINT>  (1) 
10498660 4 18129952299011796112
10692045 39 16298931092571931304
10906281 52 18270971138058639915
11211813 74 18041552548013833933
11719270 70 11386368115498389953
11796584 16 13470107610920764637
11961588 58 18261105288398886875
12403259 327 13407088019563889604
12422481 6 10953726765040503085
12788726 201 17632583707948991041
13533116 47 18060143089676591430
13551218 46 8430319034646937489
13617811 41 18410563003564621497
13782708 43 12535043353612178853
13955234 65 17314784105683893427
14251757 52 18041552543586763581
14347424 109 8718826479038512534
14420673 8 8284554605411145368
14461889 52 17095250228720064449
14790565 3 18129106628367556209
14931854 50 18201167598234077548
15183329 4 17632579344911291537
15342168 16 17530971306187161134
15475509 8 16773805779478502753
16728300 4 8573896531308782460
17492 54 18342742922406176593
17959699 21 18409166593330927144
1813 80 12391515295548725514
18222031 100 12751239215961962210
193927 3 11815896785936207182
19784866 240 12895074041726493569
20567600 234 15502668087488058551
20567600 75 12247679344998394377
20715895 44 18411696591150823676
21033648 29 17168146797533042988
21049683 118 17531234119414901128
21150785 3 18201716276289930581
21521721 280 18413394237589335291
22079108 93 17095243614238540275
23016692 55 15339117940074059445
23227448 37 18334860579428483702
23522609 53 18059309664859818313
23559900 14 17988077906922471016
23569914 2 16374896376541847093
2838139 119 18040986332819189413
3004659 81 18201436922616068694
3472631 163 18334859450089474940
34797466 226 18341897368437404421
4072396 5 11314313819778482627
4340502 62 16950281776529203315
465052 167 10519699025094726105
474 4 18186525419076597610
56633871 153 7853585582096201112
57724786 102 16443632402245026572
960060 61 16558750113720179164
9981440 41 18191585457825060346

>  <PUBCHEM_SHAPE_MULTIPOLES>  (1) 
450.74
15.18
2.38
1.59
16.98
0.37
0.3
-8.32
-8.29
-2.15
-0.01
-1.14
0.09
-0.09

>  <PUBCHEM_SHAPE_SELFOVERLAP>  (1) 
925.927

>  <PUBCHEM_SHAPE_VOLUME>  (1) 
264.6

>  <PUBCHEM_COORDINATE_TYPE>  (1) 
2
5
10

$$$$
