19535
     RDKit          3D

 28 29  0  0  1  0  0  0  0  0999 V2000
   -3.4164   -0.5327   -1.1814 O   0  0  0  0  0  0  0  0  0  0  0  0
    2.7119   -0.6079   -0.0084 O   0  0  0  0  0  0  0  0  0  0  0  0
    2.5941    1.5895   -0.7799 O   0  0  0  0  0  0  0  0  0  0  0  0
    8.1210    0.1347    0.7470 O   0  0  0  0  0  0  0  0  0  0  0  0
   -4.6676    1.4967    0.3448 N   0  0  0  0  0  0  0  0  0  0  0  0
   -4.1419   -0.9019   -0.0079 C   0  0  0  0  0  0  0  0  0  0  0  0
   -5.2217    0.1532    0.2544 C   0  0  0  0  0  0  0  0  0  0  0  0
   -4.6601   -2.3367   -0.1897 C   0  0  0  0  0  0  0  0  0  0  0  0
   -5.3682   -2.9110    1.0416 C   0  0  0  0  0  0  0  0  0  0  0  0
   -3.7581    1.6055    1.4875 C   0  0  0  0  0  0  0  0  0  0  0  0
   -5.7372    2.4915    0.4530 C   0  0  0  0  0  0  0  0  0  0  0  0
   -5.8458   -4.3339    0.7908 C   0  0  0  0  0  0  0  0  0  0  0  0
   -3.1207    2.9830    1.5529 C   0  0  0  0  0  0  0  0  0  0  0  0
   -6.6948    2.3982   -0.7228 C   0  0  0  0  0  0  0  0  0  0  0  0
   -2.0822   -0.2794   -1.0208 C   0  0  0  0  0  0  0  0  0  0  0  0
   -1.2433   -1.2770   -0.5330 C   0  0  0  0  0  0  0  0  0  0  0  0
   -1.5731    0.9746   -1.3450 C   0  0  0  0  0  0  0  0  0  0  0  0
    0.1174   -1.0180   -0.3680 C   0  0  0  0  0  0  0  0  0  0  0  0
   -0.2124    1.2334   -1.1800 C   0  0  0  0  0  0  0  0  0  0  0  0
    0.6327    0.2372   -0.6916 C   0  0  0  0  0  0  0  0  0  0  0  0
    2.0514    0.5070   -0.5192 C   0  0  0  0  0  0  0  0  0  0  0  0
    4.0834   -0.4208    0.1838 C   0  0  0  0  0  0  0  0  0  0  0  0
    4.5218    0.0577    1.3982 C   0  0  0  0  0  0  0  0  0  0  0  0
    4.9423   -0.7208   -0.8500 C   0  0  0  0  0  0  0  0  0  0  0  0
    5.8906    0.2462    1.5890 C   0  0  0  0  0  0  0  0  0  0  0  0
    6.3113   -0.5324   -0.6593 C   0  0  0  0  0  0  0  0  0  0  0  0
    6.7855   -0.0490    0.5603 C   0  0  0  0  0  0  0  0  0  0  0  0
    8.9799   -0.1870   -0.3460 C   0  0  0  0  0  0  0  0  0  0  0  0
  1  6  1  0
  1 15  1  0
  2 21  1  0
  2 22  1  0
  3 21  2  0
  4 27  1  0
  4 28  1  0
  5  7  1  0
  5 10  1  0
  5 11  1  0
  6  7  1  0
  6  8  1  0
  8  9  1  0
  9 12  1  0
 10 13  1  0
 11 14  1  0
 15 16  2  0
 15 17  1  0
 16 18  1  0
 17 19  2  0
 18 20  2  0
 19 20  1  0
 20 21  1  0
 22 23  2  0
 22 24  1  0
 23 25  1  0
 24 26  2  0
 25 27  2  0
 26 27  1  0
M  END
>  <PUBCHEM_COMPOUND_CID>  (1) 
19535

>  <PUBCHEM_CONFORMER_RMSD>  (1) 
1.2

>  <PUBCHEM_CONFORMER_DIVERSEORDER>  (1) 
2
43
64
59
20
50
7
32
26
69
51
13
67
30
68
48
75
23
28
18
52
29
35
74
66
39
31
38
61
33
60
73
11
55
72
70
1
40
12
8
21
47
36
62
16
41
27
17
10
37
44
63
65
53
45
4
71
25
77
3
22
57
46
34
6
49
14
56
5
76
42
15
58
19
24
54
9

>  <PUBCHEM_MMFF94_PARTIAL_CHARGES>  (1) 
31
1 -0.36
10 0.27
11 0.27
15 0.08
16 -0.15
17 -0.15
18 -0.15
19 -0.15
2 -0.23
20 0.09
21 0.63
22 0.08
23 -0.15
24 -0.15
25 -0.15
26 -0.15
27 0.08
28 0.28
3 -0.57
4 -0.36
49 0.15
5 -0.81
50 0.15
51 0.15
52 0.15
53 0.15
54 0.15
55 0.15
56 0.15
6 0.28
7 0.27

>  <PUBCHEM_EFFECTIVE_ROTOR_COUNT>  (1) 
12

>  <PUBCHEM_PHARMACOPHORE_FEATURES>  (1) 
7
1 1 acceptor
1 12 hydrophobe
1 3 acceptor
1 4 acceptor
1 5 cation
6 15 16 17 18 19 20 rings
6 22 23 24 25 26 27 rings

>  <PUBCHEM_HEAVY_ATOM_COUNT>  (1) 
28

>  <PUBCHEM_ATOM_DEF_STEREO_COUNT>  (1) 
0

>  <PUBCHEM_ATOM_UDEF_STEREO_COUNT>  (1) 
1

>  <PUBCHEM_BOND_DEF_STEREO_COUNT>  (1) 
0

>  <PUBCHEM_BOND_UDEF_STEREO_COUNT>  (1) 
0

>  <PUBCHEM_ISOTOPIC_ATOM_COUNT>  (1) 
0

>  <PUBCHEM_COMPONENT_COUNT>  (1) 
1

>  <PUBCHEM_CACTVS_TAUTO_COUNT>  (1) 
1

>  <PUBCHEM_CONFORMER_ID>  (1) 
00004C4F00000002

>  <PUBCHEM_MMFF94_ENERGY>  (1) 
90.8568

>  <PUBCHEM_FEATURE_SELFOVERLAP>  (1) 
35.522

>  <PUBCHEM_SHAPE_FINGERPRINT>  (1) 
10 15 18334294219318930640
100830 39 17988925514275754264
10319926 262 18412823616317979441
10554248 39 13830135005830216520
10670039 82 11383831554393023139
11315181 36 18260265278626569879
11545043 162 18343299301513172883
11963148 33 18040985281233684370
12596602 18 18336262431179500864
13540713 5 17896900926800899261
13583140 156 17418373580272112135
13914758 101 10447932767895508028
14068700 675 18116998986995969019
14844126 61 18340207492634585059
15461852 350 17131823283626018981
17093844 174 18412260636352430471
17780758 139 18410573998690558703
18603816 31 16081095904748455065
19377110 9 17749388118909220656
21033648 29 17345733262662535834
21130935 74 18408037412718404474
21150785 3 13183009722860691692
21315759 148 18202007624943358702
21623969 137 15864075330370830168
21792961 116 16702026332349984132
23081809 10 17603592958179846238
23522609 53 17605299361513842972
23569943 247 17753037312509328330
2838139 119 13973967614478974458
3383291 50 18262799704073660538
397830 11 18200589336251994392
4073 2 18412831252717675278
44389302 135 18042390363406159202
4938544 92 18408884010727323501
5028188 123 18335146393345569574
5104073 3 18335415819910743168
6009941 240 18342176644058679889
6691757 9 18410858738422637209
9896288 288 18411986867059564003
9981440 41 17916873409764653735

>  <PUBCHEM_SHAPE_MULTIPOLES>  (1) 
547.77
22.71
3.14
1.37
35.38
1.94
-0.26
2.35
-4.86
-11
-1.18
0.01
-0.38
0.71

>  <PUBCHEM_SHAPE_SELFOVERLAP>  (1) 
1129.664

>  <PUBCHEM_SHAPE_VOLUME>  (1) 
315.6

>  <PUBCHEM_COORDINATE_TYPE>  (1) 
2
5
10

$$$$
