19548
     RDKit          3D

 29 30  0  0  0  0  0  0  0  0999 V2000
    4.7234    2.6748   -0.3851 O   0  0  0  0  0  0  0  0  0  0  0  0
   -0.9712   -0.3432   -0.6662 N   0  0  0  0  0  0  0  0  0  0  0  0
   -1.2043    1.5196   -2.1801 N   0  0  0  0  0  0  0  0  0  0  0  0
   -0.1877   -1.0835    0.2931 C   0  0  0  0  0  0  0  0  0  0  0  0
   -2.2750   -0.9238   -1.0095 C   0  0  0  0  0  0  0  0  0  0  0  0
    0.6604   -2.1264   -0.4295 C   0  0  0  0  0  0  0  0  0  0  0  0
   -3.3615   -0.3034   -0.1356 C   0  0  0  0  0  0  0  0  0  0  0  0
    1.5144   -2.9256    0.5561 C   0  0  0  0  0  0  0  0  0  0  0  0
   -4.7386   -0.8774   -0.4726 C   0  0  0  0  0  0  0  0  0  0  0  0
    2.3601   -4.0135   -0.1121 C   0  0  0  0  0  0  0  0  0  0  0  0
   -5.8640   -0.3160    0.4011 C   0  0  0  0  0  0  0  0  0  0  0  0
   -0.5235    0.8250   -1.3144 C   0  0  0  0  0  0  0  0  0  0  0  0
    3.2694   -4.7633    0.8639 C   0  0  0  0  0  0  0  0  0  0  0  0
   -7.2509   -0.8345    0.0150 C   0  0  0  0  0  0  0  0  0  0  0  0
    0.8351    1.3555   -1.0148 C   0  0  0  0  0  0  0  0  0  0  0  0
    4.0798   -5.8438    0.1465 C   0  0  0  0  0  0  0  0  0  0  0  0
   -8.3327   -0.2525    0.9260 C   0  0  0  0  0  0  0  0  0  0  0  0
    1.0729    2.2782    0.0170 C   0  0  0  0  0  0  0  0  0  0  0  0
    2.3922    2.7375    0.2443 C   0  0  0  0  0  0  0  0  0  0  0  0
    1.8829    0.8923   -1.8110 C   0  0  0  0  0  0  0  0  0  0  0  0
    4.9617   -6.6147    1.1160 C   0  0  0  0  0  0  0  0  0  0  0  0
   -9.7100   -0.7887    0.5687 C   0  0  0  0  0  0  0  0  0  0  0  0
    3.4347    2.2606   -0.5669 C   0  0  0  0  0  0  0  0  0  0  0  0
    3.1802    1.3440   -1.5875 C   0  0  0  0  0  0  0  0  0  0  0  0
    0.0303    2.7551    0.8282 C   0  0  0  0  0  0  0  0  0  0  0  0
    2.6299    3.6602    1.2760 C   0  0  0  0  0  0  0  0  0  0  0  0
    0.2848    3.6717    1.8488 C   0  0  0  0  0  0  0  0  0  0  0  0
    1.5821    4.1233    2.0723 C   0  0  0  0  0  0  0  0  0  0  0  0
    5.5250    1.9125    0.5125 C   0  0  0  0  0  0  0  0  0  0  0  0
  1 23  1  0
  1 29  1  0
  2  4  1  0
  2  5  1  0
  2 12  1  0
  3 12  2  0
  4  6  1  0
  5  7  1  0
  6  8  1  0
  7  9  1  0
  8 10  1  0
  9 11  1  0
 10 13  1  0
 11 14  1  0
 12 15  1  0
 13 16  1  0
 14 17  1  0
 15 18  2  0
 15 20  1  0
 16 21  1  0
 17 22  1  0
 18 19  1  0
 18 25  1  0
 19 23  2  0
 19 26  1  0
 20 24  2  0
 23 24  1  0
 25 27  2  0
 26 28  2  0
 27 28  1  0
M  END
>  <PUBCHEM_COMPOUND_CID>  (1) 
19548

>  <PUBCHEM_CONFORMER_RMSD>  (1) 
1.4

>  <PUBCHEM_CONFORMER_DIVERSEORDER>  (1) 
1
61
24
83
48
34
68
51
74
6
71
60
27
70
26
78
38
33
79
41
84
52
63
56
16
42
32
39
85
29
59
12
55
3
43
25
58
69
54
77
19
20
72
37
81
64
67
8
28
5
7
82
11
44
46
62
14
17
21
80
35
18
50
30
53
57
9
36
31
2
40
15
76
49
23
47
13
22
10
65
75
4
73
66
45

>  <PUBCHEM_MMFF94_PARTIAL_CHARGES>  (1) 
22
1 -0.36
12 0.41
15 0.09
2 -0.79
20 -0.15
23 0.08
24 -0.15
25 -0.15
26 -0.15
27 -0.15
28 -0.15
29 0.28
3 -0.85
4 0.37
5 0.37
54 0.15
61 0.4
62 0.15
63 0.15
64 0.15
65 0.15
66 0.15

>  <PUBCHEM_EFFECTIVE_ROTOR_COUNT>  (1) 
15

>  <PUBCHEM_PHARMACOPHORE_FEATURES>  (1) 
9
1 1 acceptor
1 21 hydrophobe
1 22 hydrophobe
1 3 donor
3 2 3 12 cation
5 6 8 10 13 16 hydrophobe
5 7 9 11 14 17 hydrophobe
6 15 18 19 20 23 24 rings
6 18 19 25 26 27 28 rings

>  <PUBCHEM_HEAVY_ATOM_COUNT>  (1) 
29

>  <PUBCHEM_ATOM_DEF_STEREO_COUNT>  (1) 
0

>  <PUBCHEM_ATOM_UDEF_STEREO_COUNT>  (1) 
0

>  <PUBCHEM_BOND_DEF_STEREO_COUNT>  (1) 
0

>  <PUBCHEM_BOND_UDEF_STEREO_COUNT>  (1) 
0

>  <PUBCHEM_ISOTOPIC_ATOM_COUNT>  (1) 
0

>  <PUBCHEM_COMPONENT_COUNT>  (1) 
1

>  <PUBCHEM_CACTVS_TAUTO_COUNT>  (1) 
1

>  <PUBCHEM_CONFORMER_ID>  (1) 
00004C5C00000001

>  <PUBCHEM_MMFF94_ENERGY>  (1) 
66.8585

>  <PUBCHEM_FEATURE_SELFOVERLAP>  (1) 
45.698

>  <PUBCHEM_SHAPE_FINGERPRINT>  (1) 
10165383 225 18263085577017195780
10411042 1 18119811300704644550
1100329 8 17834959668103033261
11014199 57 17834391225435105530
11297750 10 17969216729698159463
13533116 47 18408608059495468747
13540713 4 17896024474378457157
13692114 37 17903071480461583211
14028597 1 18131073740056998200
14114211 68 18115045081433547022
17980427 26 18057025020824266765
20771845 65 18269552750315165059
21033648 29 17979917438789694953
21120745 212 17835238944188337618
21344244 78 18199742557838572483
24893992 56 18199753721286236339
3418910 222 18048314441561790450
5265222 85 18188773985144523764
5385378 56 18409449219617290479
57527452 28 18040995172795612584

>  <PUBCHEM_SHAPE_MULTIPOLES>  (1) 
580.98
16.23
8.37
1.62
55.99
13.59
-0.13
12.03
4.83
-22.17
5.02
-0.71
-1.37
-1.26

>  <PUBCHEM_SHAPE_SELFOVERLAP>  (1) 
1170.635

>  <PUBCHEM_SHAPE_VOLUME>  (1) 
340.9

>  <PUBCHEM_COORDINATE_TYPE>  (1) 
2
5
10

$$$$
