19549
     RDKit          3D

 13 13  0  0  0  0  0  0  0  0999 V2000
    4.7802   -1.3221   -0.8418 Cl  0  0  0  0  0  0  0  0  0  0  0  0
    2.1974   -0.1225    0.2715 O   0  0  0  0  0  0  0  0  0  0  0  0
    0.8374    1.6734   -0.1226 O   0  0  0  0  0  0  0  0  0  0  0  0
   -0.0250   -0.4844    0.1955 N   0  0  0  0  0  0  0  0  0  0  0  0
   -1.4054   -0.3165    0.0807 C   0  0  0  0  0  0  0  0  0  0  0  0
   -2.2550   -1.4144    0.2167 C   0  0  0  0  0  0  0  0  0  0  0  0
   -1.9359    0.9492   -0.1691 C   0  0  0  0  0  0  0  0  0  0  0  0
    3.3386    0.7397    0.1934 C   0  0  0  0  0  0  0  0  0  0  0  0
   -3.6351   -1.2468    0.1025 C   0  0  0  0  0  0  0  0  0  0  0  0
   -3.3160    1.1167   -0.2833 C   0  0  0  0  0  0  0  0  0  0  0  0
   -4.1655    0.0186   -0.1474 C   0  0  0  0  0  0  0  0  0  0  0  0
    0.9786    0.4758    0.0928 C   0  0  0  0  0  0  0  0  0  0  0  0
    4.6056   -0.0668    0.4109 C   0  0  0  0  0  0  0  0  0  0  0  0
  1 13  1  0
  2  8  1  0
  2 12  1  0
  3 12  2  0
  4  5  1  0
  4 12  1  0
  5  6  2  0
  5  7  1  0
  6  9  1  0
  7 10  2  0
  8 13  1  0
  9 11  2  0
 10 11  1  0
M  END
>  <PUBCHEM_COMPOUND_CID>  (1) 
19549

>  <PUBCHEM_CONFORMER_RMSD>  (1) 
0.6

>  <PUBCHEM_CONFORMER_DIVERSEORDER>  (1) 
1
40
38
19
21
22
18
5
31
24
14
47
16
46
37
9
20
32
17
8
15
43
36
23
3
45
41
30
13
33
29
12
25
7
42
44
35
6
11
27
10
26
2
34
39
28
4

>  <PUBCHEM_MMFF94_PARTIAL_CHARGES>  (1) 
19
1 -0.29
10 -0.15
11 -0.15
12 0.78
13 0.29
14 0.15
15 0.15
16 0.37
19 0.15
2 -0.43
20 0.15
21 0.15
3 -0.57
4 -0.55
5 0.12
6 -0.15
7 -0.15
8 0.28
9 -0.15

>  <PUBCHEM_EFFECTIVE_ROTOR_COUNT>  (1) 
5

>  <PUBCHEM_PHARMACOPHORE_FEATURES>  (1) 
3
1 3 acceptor
1 4 donor
6 5 6 7 9 10 11 rings

>  <PUBCHEM_HEAVY_ATOM_COUNT>  (1) 
13

>  <PUBCHEM_ATOM_DEF_STEREO_COUNT>  (1) 
0

>  <PUBCHEM_ATOM_UDEF_STEREO_COUNT>  (1) 
0

>  <PUBCHEM_BOND_DEF_STEREO_COUNT>  (1) 
0

>  <PUBCHEM_BOND_UDEF_STEREO_COUNT>  (1) 
0

>  <PUBCHEM_ISOTOPIC_ATOM_COUNT>  (1) 
0

>  <PUBCHEM_COMPONENT_COUNT>  (1) 
1

>  <PUBCHEM_CACTVS_TAUTO_COUNT>  (1) 
2

>  <PUBCHEM_CONFORMER_ID>  (1) 
00004C5D00000001

>  <PUBCHEM_MMFF94_ENERGY>  (1) 
27.9761

>  <PUBCHEM_FEATURE_SELFOVERLAP>  (1) 
15.223

>  <PUBCHEM_SHAPE_FINGERPRINT>  (1) 
10680689 15 18113904848814434129
11128504 68 17022915549199178614
12032990 46 18412547613161174224
124424 183 18272649056288294313
13675066 3 18272646874692697904
13690532 89 18412262843622787674
17804303 29 18408887356000438245
17834072 33 18336269041577202788
17834072 8 18335980883066727812
17834074 16 18412826876251183838
17870717 6 18338809930790843638
18186145 218 17312819407512070740
1986462 14 18407761430144359486
200 152 17632853140311981391
20279233 1 18059861670328765942
20374829 77 18337673019220875886
20645477 70 17917433095168630918
21267235 1 18335146409913651403
22485316 2 18342454855176801814
2306618 200 18272657831434170177
23175994 123 17847064384812615561
23402539 116 18130780162421512293
23403322 49 18341896277072917462
23559900 14 18342453755834096296
42 15 18342176665723361606
4214541 1 18410292488810907672
4990 188 18409450263384053166
5104073 3 18410574028127654768
77779 3 18409730681519097752
9709674 26 18337675342233914522

>  <PUBCHEM_SHAPE_MULTIPOLES>  (1) 
252.68
9.93
1.47
0.7
7.92
0.06
0.05
2.35
0.86
-0.27
0.11
0.3
0.08
0.69

>  <PUBCHEM_SHAPE_SELFOVERLAP>  (1) 
503.192

>  <PUBCHEM_SHAPE_VOLUME>  (1) 
149.6

>  <PUBCHEM_COORDINATE_TYPE>  (1) 
2
5
10

$$$$
