19553
     RDKit          3D

 28 29  0  0  0  0  0  0  0  0999 V2000
    3.8444   -1.0693    0.8708 O   0  0  0  0  0  0  0  0  0  0  0  0
   -2.3840    0.5430    0.3973 N   0  0  0  0  0  0  0  0  0  0  0  0
   -2.3429   -1.2121    2.0508 N   0  0  0  0  0  0  0  0  0  0  0  0
   -3.8135    0.8247    0.5759 C   0  0  0  0  0  0  0  0  0  0  0  0
   -1.6945    1.3774   -0.5571 C   0  0  0  0  0  0  0  0  0  0  0  0
   -4.6604   -0.1039   -0.2904 C   0  0  0  0  0  0  0  0  0  0  0  0
   -1.1433    2.6303    0.1184 C   0  0  0  0  0  0  0  0  0  0  0  0
   -6.1641    0.1205   -0.1023 C   0  0  0  0  0  0  0  0  0  0  0  0
   -0.3606    3.5263   -0.8467 C   0  0  0  0  0  0  0  0  0  0  0  0
   -1.7521   -0.4396    1.1849 C   0  0  0  0  0  0  0  0  0  0  0  0
   -0.2852   -0.6568    1.0498 C   0  0  0  0  0  0  0  0  0  0  0  0
   -6.9795   -0.8176   -0.9927 C   0  0  0  0  0  0  0  0  0  0  0  0
    0.1660    4.7752   -0.1391 C   0  0  0  0  0  0  0  0  0  0  0  0
    0.2599   -1.5678    0.1305 C   0  0  0  0  0  0  0  0  0  0  0  0
    1.6651   -1.7201    0.0573 C   0  0  0  0  0  0  0  0  0  0  0  0
    0.5431    0.0934    1.8850 C   0  0  0  0  0  0  0  0  0  0  0  0
    2.4837   -0.9567    0.9055 C   0  0  0  0  0  0  0  0  0  0  0  0
   -8.4732   -0.6282   -0.7811 C   0  0  0  0  0  0  0  0  0  0  0  0
    0.9782    5.6490   -1.0816 C   0  0  0  0  0  0  0  0  0  0  0  0
    1.9249   -0.0562    1.8130 C   0  0  0  0  0  0  0  0  0  0  0  0
   -0.5588   -2.3311   -0.7178 C   0  0  0  0  0  0  0  0  0  0  0  0
    2.2101   -2.6310   -0.8621 C   0  0  0  0  0  0  0  0  0  0  0  0
    0.0000   -3.2316   -1.6253 C   0  0  0  0  0  0  0  0  0  0  0  0
    4.5807    0.1083    0.5538 C   0  0  0  0  0  0  0  0  0  0  0  0
    1.3818   -3.3812   -1.6973 C   0  0  0  0  0  0  0  0  0  0  0  0
    5.8600   -0.2910   -0.1679 C   0  0  0  0  0  0  0  0  0  0  0  0
    6.7089    0.9260   -0.5249 C   0  0  0  0  0  0  0  0  0  0  0  0
    8.0055    0.5200   -1.2068 C   0  0  0  0  0  0  0  0  0  0  0  0
  1 17  1  0
  1 24  1  0
  2  4  1  0
  2  5  1  0
  2 10  1  0
  3 10  2  0
  4  6  1  0
  5  7  1  0
  6  8  1  0
  7  9  1  0
  8 12  1  0
  9 13  1  0
 10 11  1  0
 11 14  2  0
 11 16  1  0
 12 18  1  0
 13 19  1  0
 14 15  1  0
 14 21  1  0
 15 17  2  0
 15 22  1  0
 16 20  2  0
 17 20  1  0
 21 23  2  0
 22 25  2  0
 23 25  1  0
 24 26  1  0
 26 27  1  0
 27 28  1  0
M  END
>  <PUBCHEM_COMPOUND_CID>  (1) 
19553

>  <PUBCHEM_CONFORMER_RMSD>  (1) 
1.2

>  <PUBCHEM_CONFORMER_DIVERSEORDER>  (1) 
1
21
40
3
22
20
42
51
24
32
48
16
39
50
41
30
12
43
17
52
11
47
35
46
18
25
38
34
27
9
49
8
10
37
29
15
33
19
53
45
13
36
5
44
4
7
2
31
23
26
14
6
28

>  <PUBCHEM_MMFF94_PARTIAL_CHARGES>  (1) 
22
1 -0.36
10 0.41
11 0.09
16 -0.15
17 0.08
2 -0.79
20 -0.15
21 -0.15
22 -0.15
23 -0.15
24 0.28
25 -0.15
3 -0.85
4 0.37
45 0.15
5 0.37
52 0.15
53 0.15
54 0.15
55 0.4
58 0.15
59 0.15

>  <PUBCHEM_EFFECTIVE_ROTOR_COUNT>  (1) 
14

>  <PUBCHEM_PHARMACOPHORE_FEATURES>  (1) 
8
1 1 acceptor
1 18 hydrophobe
1 19 hydrophobe
1 28 hydrophobe
1 3 donor
3 2 3 10 cation
6 11 14 15 16 17 20 rings
6 14 15 21 22 23 25 rings

>  <PUBCHEM_HEAVY_ATOM_COUNT>  (1) 
28

>  <PUBCHEM_ATOM_DEF_STEREO_COUNT>  (1) 
0

>  <PUBCHEM_ATOM_UDEF_STEREO_COUNT>  (1) 
0

>  <PUBCHEM_BOND_DEF_STEREO_COUNT>  (1) 
0

>  <PUBCHEM_BOND_UDEF_STEREO_COUNT>  (1) 
0

>  <PUBCHEM_ISOTOPIC_ATOM_COUNT>  (1) 
0

>  <PUBCHEM_COMPONENT_COUNT>  (1) 
1

>  <PUBCHEM_CACTVS_TAUTO_COUNT>  (1) 
1

>  <PUBCHEM_CONFORMER_ID>  (1) 
00004C6100000001

>  <PUBCHEM_MMFF94_ENERGY>  (1) 
63.3032

>  <PUBCHEM_FEATURE_SELFOVERLAP>  (1) 
40.621

>  <PUBCHEM_SHAPE_FINGERPRINT>  (1) 
10165383 225 18131356293434269354
10906281 52 18263096448032647729
11621639 148 18267295624283038392
13383665 225 18268443338671817853
1361 2 18341324587098269737
14028597 1 10737550714382728701
14415361 349 17774713247583733671
1454969 45 18413386544859854879
15238133 3 10809632467269506555
15664445 248 18336823105359105729
15961568 22 18336551525528537988
19611394 137 18042985326605283947
20600515 1 17750254533818570641
21049683 271 18113336440469965037
21344244 181 16128660760438774846
23576562 1 18194402418545178076
25019877 29 17704351087110327478
46194498 28 18335688478564027757
57035037 87 16081366354158871367
57527306 92 18040149643621042372
57527358 35 16590813947017993237
57527452 28 17489872652267343783
57527585 21 18123449610677314452
7399639 24 18056178211960249963

>  <PUBCHEM_SHAPE_MULTIPOLES>  (1) 
560.4
15.55
5.1
1.6
6.6
8.46
-0.37
-1.61
5.97
-1.94
3.3
-0.35
-0.61
-0.42

>  <PUBCHEM_SHAPE_SELFOVERLAP>  (1) 
1133.219

>  <PUBCHEM_SHAPE_VOLUME>  (1) 
327.7

>  <PUBCHEM_COORDINATE_TYPE>  (1) 
2
5
10

$$$$
