19562
     RDKit          3D

 10 10  0  0  0  0  0  0  0  0999 V2000
    0.0000    1.3915    0.0000 N   0  0  0  0  0  0  0  0  0  0  0  0
   -1.2025   -0.7057    0.0000 C   0  0  0  0  0  0  0  0  0  0  0  0
    1.2026   -0.7057    0.0001 C   0  0  0  0  0  0  0  0  0  0  0  0
   -1.1488    0.6788    0.0001 C   0  0  0  0  0  0  0  0  0  0  0  0
    1.1487    0.6788   -0.0001 C   0  0  0  0  0  0  0  0  0  0  0  0
    0.0001   -1.4037    0.0000 C   0  0  0  0  0  0  0  0  0  0  0  0
   -2.4942   -1.4478   -0.0002 C   0  0  0  0  0  0  0  0  0  0  0  0
    2.4944   -1.4476    0.0001 C   0  0  0  0  0  0  0  0  0  0  0  0
   -2.4091    1.4805    0.0001 C   0  0  0  0  0  0  0  0  0  0  0  0
    2.4089    1.4808   -0.0001 C   0  0  0  0  0  0  0  0  0  0  0  0
  1  4  2  0
  1  5  1  0
  2  4  1  0
  2  6  2  0
  2  7  1  0
  3  5  2  0
  3  6  1  0
  3  8  1  0
  4  9  1  0
  5 10  1  0
M  END
>  <PUBCHEM_COMPOUND_CID>  (1) 
19562

>  <PUBCHEM_CONFORMER_RMSD>  (1) 
0.4

>  <PUBCHEM_CONFORMER_DIVERSEORDER>  (1) 
1

>  <PUBCHEM_MMFF94_PARTIAL_CHARGES>  (1) 
11
1 -0.62
10 0.14
11 0.15
2 -0.14
3 -0.14
4 0.17
5 0.17
6 -0.15
7 0.14
8 0.14
9 0.14

>  <PUBCHEM_EFFECTIVE_ROTOR_COUNT>  (1) 
0

>  <PUBCHEM_PHARMACOPHORE_FEATURES>  (1) 
2
1 1 acceptor
6 1 2 3 4 5 6 rings

>  <PUBCHEM_HEAVY_ATOM_COUNT>  (1) 
10

>  <PUBCHEM_ATOM_DEF_STEREO_COUNT>  (1) 
0

>  <PUBCHEM_ATOM_UDEF_STEREO_COUNT>  (1) 
0

>  <PUBCHEM_BOND_DEF_STEREO_COUNT>  (1) 
0

>  <PUBCHEM_BOND_UDEF_STEREO_COUNT>  (1) 
0

>  <PUBCHEM_ISOTOPIC_ATOM_COUNT>  (1) 
0

>  <PUBCHEM_COMPONENT_COUNT>  (1) 
1

>  <PUBCHEM_CACTVS_TAUTO_COUNT>  (1) 
1

>  <PUBCHEM_CONFORMER_ID>  (1) 
00004C6A00000001

>  <PUBCHEM_MMFF94_ENERGY>  (1) 
24.6835

>  <PUBCHEM_FEATURE_SELFOVERLAP>  (1) 
10.148

>  <PUBCHEM_SHAPE_FINGERPRINT>  (1) 
12897270 3 18266740379437037983
13380535 21 18338531788571519716
16945 1 18194683652971973667
18185500 45 18120372060181728410
193761 8 15744444496101769276
19973954 147 18410573985151464128
21040471 1 18410575084705517280
21501502 16 18410856563934756869
23402655 69 18341033204354668343
23552423 10 18333733519980840622
241688 4 18335701611292292800
2748010 2 18410573985151451300
29004967 10 18118406378278195507
5084963 1 18273215296028590819
68250623 7 18410579482709810886

>  <PUBCHEM_SHAPE_MULTIPOLES>  (1) 
200.81
3.64
2.03
0.61
0
0.07
0
-0.02
0
0
0
0
-0.01
0

>  <PUBCHEM_SHAPE_SELFOVERLAP>  (1) 
411.288

>  <PUBCHEM_SHAPE_VOLUME>  (1) 
117.8

>  <PUBCHEM_COORDINATE_TYPE>  (1) 
2
5
10

$$$$
