19565
     RDKit          3D

 13 12  0  0  0  0  0  0  0  0999 V2000
    0.3602    1.0166    1.6786 O   0  0  0  0  0  0  0  0  0  0  0  0
   -3.2690   -0.4257   -1.4798 O   0  0  0  0  0  0  0  0  0  0  0  0
    1.2118   -1.5316    0.6141 O   0  0  0  0  0  0  0  0  0  0  0  0
    2.5140    0.0855   -0.4474 N   0  0  0  0  0  0  0  0  0  0  0  0
   -4.3342   -0.5708    0.5520 N   0  0  0  0  0  0  0  0  0  0  0  0
   -0.8359    0.4863   -0.3481 C   0  0  0  0  0  0  0  0  0  0  0  0
   -2.0473    0.1781    0.5304 C   0  0  0  0  0  0  0  0  0  0  0  0
    0.3961    0.8939    0.4531 C   0  0  0  0  0  0  0  0  0  0  0  0
    1.6817    1.1562   -0.2743 C   0  0  0  0  0  0  0  0  0  0  0  0
   -3.2532   -0.2985   -0.2591 C   0  0  0  0  0  0  0  0  0  0  0  0
    2.2248   -1.1893    0.0083 C   0  0  0  0  0  0  0  0  0  0  0  0
    2.0187    2.3655   -0.7391 C   0  0  0  0  0  0  0  0  0  0  0  0
    3.3323   -2.1663   -0.2886 C   0  0  0  0  0  0  0  0  0  0  0  0
  1  8  2  0
  2 10  2  0
  3 11  2  0
  4  9  1  0
  4 11  1  0
  5 10  1  0
  6  7  1  0
  6  8  1  0
  7 10  1  0
  8  9  1  0
  9 12  2  0
 11 13  1  0
M  END
>  <PUBCHEM_COMPOUND_CID>  (1) 
19565

>  <PUBCHEM_CONFORMER_RMSD>  (1) 
0.8

>  <PUBCHEM_CONFORMER_DIVERSEORDER>  (1) 
1
258
143
261
295
137
412
21
228
145
391
25
424
113
465
68
124
11
57
50
253
290
45
225
207
201
185
32
123
300
8
74
281
122
180
266
55
110
170
16
436
457
331
388
61
126
355
173
176
59
156
101
376
349
37
328
278
345
133
291
221
72
287
35
51
89
54
87
142
105
435
238
47
454
17
150
416
160
471
178
166
9
84
116
394
171
186
432
227
407
26
33
561
260
106
52
46
352
303
566
20
44
2
204
209
276
341
464
189
246
503
450
162
347
544
6
250
402
393
39
85
138
263
63
93
514
392
163
174
397
152
501
286
367
519
549
92
3
431
346
339
88
10
357
369
24
482
117
488
19
277
226
12
13
27
206
437
29
191

>  <PUBCHEM_MMFF94_PARTIAL_CHARGES>  (1) 
18
1 -0.57
10 0.57
11 0.57
12 -0.3
13 0.06
18 0.37
19 0.15
2 -0.57
20 0.15
21 0.37
22 0.37
3 -0.57
4 -0.54
5 -0.8
6 0.06
7 0.06
8 0.49
9 0.12

>  <PUBCHEM_EFFECTIVE_ROTOR_COUNT>  (1) 
6

>  <PUBCHEM_PHARMACOPHORE_FEATURES>  (1) 
5
1 1 acceptor
1 2 acceptor
1 3 acceptor
1 4 donor
1 5 donor

>  <PUBCHEM_HEAVY_ATOM_COUNT>  (1) 
13

>  <PUBCHEM_ATOM_DEF_STEREO_COUNT>  (1) 
0

>  <PUBCHEM_ATOM_UDEF_STEREO_COUNT>  (1) 
0

>  <PUBCHEM_BOND_DEF_STEREO_COUNT>  (1) 
0

>  <PUBCHEM_BOND_UDEF_STEREO_COUNT>  (1) 
0

>  <PUBCHEM_ISOTOPIC_ATOM_COUNT>  (1) 
0

>  <PUBCHEM_COMPONENT_COUNT>  (1) 
1

>  <PUBCHEM_CACTVS_TAUTO_COUNT>  (1) 
8

>  <PUBCHEM_CONFORMER_ID>  (1) 
00004C6D00000001

>  <PUBCHEM_MMFF94_ENERGY>  (1) 
30.8763

>  <PUBCHEM_FEATURE_SELFOVERLAP>  (1) 
25.375

>  <PUBCHEM_SHAPE_FINGERPRINT>  (1) 
11769659 78 18271804562633313318
12932764 1 17846495989283748145
13705890 14 18186240632136841202
14128692 85 18342177704968245288
14251717 144 18408603673273439414
15375462 189 17988926699327433747
15477762 27 18408325484157589870
18186145 218 17458059353096856445
19422 9 18343310275254723755
20201158 50 18260832583286640658
20339313 130 18408886222065781565
20645477 70 18408879655493510863
20671657 53 18262805055786520318
20708731 107 18334300893824449468
20820808 20 18195532716678373232
20871998 22 18197783206790465542
21499 59 18047755085398243484
232386 152 17417807340046460775
23598291 2 18196959706524527929
449060 23 17985838025394982222
581208 293 18337949107601533693
7364860 26 18412544344738853056

>  <PUBCHEM_SHAPE_MULTIPOLES>  (1) 
239.96
6.27
2.04
1.06
5.9
0.16
-0.09
-2.98
1.09
-2.68
0.24
0.4
0.17
-0.23

>  <PUBCHEM_SHAPE_SELFOVERLAP>  (1) 
468.054

>  <PUBCHEM_SHAPE_VOLUME>  (1) 
142.8

>  <PUBCHEM_COORDINATE_TYPE>  (1) 
2
5
10

$$$$
