19568
     RDKit          3D

 24 24  0  0  0  0  0  0  0  0999 V2000
   -2.0941   -3.4684   -1.0086 Cl  0  0  0  0  0  0  0  0  0  0  0  0
   -0.0370    1.9017    1.4835 S   0  0  0  0  0  0  0  0  0  0  0  0
   -4.1513   -1.0540   -0.3770 S   0  0  0  0  0  0  0  0  0  0  0  0
   -1.1920    2.7434    1.7600 O   0  0  0  0  0  0  0  0  0  0  0  0
    0.8840    1.5717    2.5607 O   0  0  0  0  0  0  0  0  0  0  0  0
   -4.6766    0.2919   -0.5423 O   0  0  0  0  0  0  0  0  0  0  0  0
   -4.3460   -2.0453   -1.4231 O   0  0  0  0  0  0  0  0  0  0  0  0
    4.7411   -2.4214   -1.3202 O   0  0  0  0  0  0  0  0  0  0  0  0
    0.8487    2.5897    0.1954 N   0  0  0  0  0  0  0  0  0  0  0  0
    1.6641   -0.5296    0.7863 N   0  0  0  0  0  0  0  0  0  0  0  0
   -4.7167   -1.6932    1.1019 N   0  0  0  0  0  0  0  0  0  0  0  0
   -0.5978    0.3960    0.7873 C   0  0  0  0  0  0  0  0  0  0  0  0
    0.2923   -0.6488    0.5138 C   0  0  0  0  0  0  0  0  0  0  0  0
   -2.4346   -0.9333   -0.0468 C   0  0  0  0  0  0  0  0  0  0  0  0
   -1.9569    0.2540    0.5078 C   0  0  0  0  0  0  0  0  0  0  0  0
   -0.1939   -1.8370   -0.0426 C   0  0  0  0  0  0  0  0  0  0  0  0
   -1.5532   -1.9788   -0.3222 C   0  0  0  0  0  0  0  0  0  0  0  0
    0.1799    2.8862   -1.0796 C   0  0  0  0  0  0  0  0  0  0  0  0
    2.7090   -1.1144    0.1447 C   0  0  0  0  0  0  0  0  0  0  0  0
    0.8612    4.0509   -1.7198 C   0  0  0  0  0  0  0  0  0  0  0  0
    4.0090   -0.9808    0.4291 C   0  0  0  0  0  0  0  0  0  0  0  0
    0.2452    5.1969   -2.0309 C   0  0  0  0  0  0  0  0  0  0  0  0
    5.0384   -1.6940   -0.3752 C   0  0  0  0  0  0  0  0  0  0  0  0
    6.4771   -1.4835    0.0180 C   0  0  0  0  0  0  0  0  0  0  0  0
  1 17  1  0
  2  4  2  0
  2  5  2  0
  2  9  1  0
  2 12  1  0
  3  6  2  0
  3  7  2  0
  3 11  1  0
  3 14  1  0
  8 23  2  0
  9 18  1  0
 10 13  1  0
 10 19  1  0
 12 13  2  0
 12 15  1  0
 13 16  1  0
 14 15  2  0
 14 17  1  0
 16 17  2  0
 18 20  1  0
 19 21  2  0
 20 22  2  0
 21 23  1  0
 23 24  1  0
M  END
>  <PUBCHEM_COMPOUND_CID>  (1) 
19568

>  <PUBCHEM_CONFORMER_RMSD>  (1) 
0.8

>  <PUBCHEM_CONFORMER_DIVERSEORDER>  (1) 
1
46
38
36
40
29
54
41
50
56
28
33
64
51
70
74
62
21
65
53
52
19
39
47
11
59
32
44
55
35
68
17
66
26
77
13
37
18
69
3
9
14
67
73
58
20
81
15
22
30
12
16
31
63
71
5
49
80
72
23
25
7
24
43
57
79
34
45
6
10
4
27
60
75
2
42
76
48
61
78
8

>  <PUBCHEM_MMFF94_PARTIAL_CHARGES>  (1) 
35
1 -0.18
10 -0.6
11 -0.98
12 -0.01
13 0.1
14 -0.01
15 -0.15
16 -0.15
17 0.18
18 0.49
19 -0.05
2 1.45
20 -0.29
21 -0.14
22 -0.3
23 0.49
24 0.06
25 0.15
26 0.15
27 0.42
28 0.4
3 1.45
31 0.15
32 0.42
33 0.42
34 0.15
35 0.15
36 0.15
37 0.15
4 -0.65
5 -0.65
6 -0.65
7 -0.65
8 -0.57
9 -0.91

>  <PUBCHEM_EFFECTIVE_ROTOR_COUNT>  (1) 
8

>  <PUBCHEM_PHARMACOPHORE_FEATURES>  (1) 
11
1 10 cation
1 10 donor
1 11 donor
1 22 hydrophobe
1 4 acceptor
1 5 acceptor
1 6 acceptor
1 7 acceptor
1 8 acceptor
1 9 donor
6 12 13 14 15 16 17 rings

>  <PUBCHEM_HEAVY_ATOM_COUNT>  (1) 
24

>  <PUBCHEM_ATOM_DEF_STEREO_COUNT>  (1) 
0

>  <PUBCHEM_ATOM_UDEF_STEREO_COUNT>  (1) 
0

>  <PUBCHEM_BOND_DEF_STEREO_COUNT>  (1) 
0

>  <PUBCHEM_BOND_UDEF_STEREO_COUNT>  (1) 
1

>  <PUBCHEM_ISOTOPIC_ATOM_COUNT>  (1) 
0

>  <PUBCHEM_COMPONENT_COUNT>  (1) 
1

>  <PUBCHEM_CACTVS_TAUTO_COUNT>  (1) 
5

>  <PUBCHEM_CONFORMER_ID>  (1) 
00004C7000000001

>  <PUBCHEM_MMFF94_ENERGY>  (1) 
32.9307

>  <PUBCHEM_FEATURE_SELFOVERLAP>  (1) 
55.858

>  <PUBCHEM_SHAPE_FINGERPRINT>  (1) 
10871710 139 18116166463076933108
11045515 52 18408039593980918156
13140716 1 17986391303224809139
14508225 48 18409725149685798724
14556957 393 17968961703419799140
14910302 57 17914628163834160230
14955137 171 18271821145945811451
1813 80 18262225707711156304
20600515 1 18129957722848583310
21029758 27 18409451379711709403
21285901 2 18128818547393423798
21641784 216 18264507126004228996
22907989 373 18049147879146907844
23366157 5 17901372708540342058
23402539 116 18201996595103430190
23419403 2 17844216624064405240
23557571 272 17917716747757063650
23559900 14 18125426756122632363
23566358 27 17975136753584031255
335352 9 18202842150300739111
469060 322 18262533485025298842
531348 171 17829616055257827846
9981440 41 17109596922121096160

>  <PUBCHEM_SHAPE_MULTIPOLES>  (1) 
459.19
9.37
5.46
1.71
9.02
8.52
0.36
-11.56
-1.93
0.7
-3.87
-0.14
1.65
-0.51

>  <PUBCHEM_SHAPE_SELFOVERLAP>  (1) 
907.587

>  <PUBCHEM_SHAPE_VOLUME>  (1) 
273.1

>  <PUBCHEM_COORDINATE_TYPE>  (1) 
2
5
10

$$$$
