19576
     RDKit          3D

  9  9  0  0  1  0  0  0  0  0999 V2000
    0.0034    2.3435    0.1981 O   0  0  0  0  0  0  0  0  0  0  0  0
   -0.6020    0.0015    0.1897 C   0  0  0  0  0  0  0  0  0  0  0  0
    0.3959    1.0661   -0.2975 C   0  0  0  0  0  0  0  0  0  0  0  0
   -0.1381   -1.4064   -0.2092 C   0  0  0  0  0  0  0  0  0  0  0  0
    1.8173    0.7654    0.1813 C   0  0  0  0  0  0  0  0  0  0  0  0
    1.2817   -1.6938    0.2724 C   0  0  0  0  0  0  0  0  0  0  0  0
    2.2655   -0.6357   -0.2152 C   0  0  0  0  0  0  0  0  0  0  0  0
   -2.0105    0.2689   -0.3480 C   0  0  0  0  0  0  0  0  0  0  0  0
   -3.0132   -0.7095    0.2284 C   0  0  0  0  0  0  0  0  0  0  0  0
  1  3  1  0
  2  3  1  0
  2  4  1  0
  2  8  1  0
  3  5  1  0
  4  6  1  0
  5  7  1  0
  6  7  1  0
  8  9  1  0
M  END
>  <PUBCHEM_COMPOUND_CID>  (1) 
19576

>  <PUBCHEM_CONFORMER_RMSD>  (1) 
0.4

>  <PUBCHEM_CONFORMER_DIVERSEORDER>  (1) 
4
9
14
22
18
19
8
20
13
5
21
3
2
11
12
1
6
15
10
7
16
17

>  <PUBCHEM_MMFF94_PARTIAL_CHARGES>  (1) 
3
1 -0.68
25 0.4
3 0.28

>  <PUBCHEM_EFFECTIVE_ROTOR_COUNT>  (1) 
2.2

>  <PUBCHEM_PHARMACOPHORE_FEATURES>  (1) 
4
1 1 acceptor
1 1 donor
1 9 hydrophobe
6 2 3 4 5 6 7 rings

>  <PUBCHEM_HEAVY_ATOM_COUNT>  (1) 
9

>  <PUBCHEM_ATOM_DEF_STEREO_COUNT>  (1) 
0

>  <PUBCHEM_ATOM_UDEF_STEREO_COUNT>  (1) 
2

>  <PUBCHEM_BOND_DEF_STEREO_COUNT>  (1) 
0

>  <PUBCHEM_BOND_UDEF_STEREO_COUNT>  (1) 
0

>  <PUBCHEM_ISOTOPIC_ATOM_COUNT>  (1) 
0

>  <PUBCHEM_COMPONENT_COUNT>  (1) 
1

>  <PUBCHEM_CACTVS_TAUTO_COUNT>  (1) 
1

>  <PUBCHEM_CONFORMER_ID>  (1) 
00004C7800000004

>  <PUBCHEM_MMFF94_ENERGY>  (1) 
8.0224

>  <PUBCHEM_FEATURE_SELFOVERLAP>  (1) 
20.297

>  <PUBCHEM_SHAPE_FINGERPRINT>  (1) 
10857977 72 18337660958240422531
12897270 3 18337671901790731870
16945 1 18338230565335006719
18185500 45 18412821391261253838
21040471 1 18049723224080520140
23552423 10 18116158761773179942
241688 4 18266181617240377688
2748010 2 18338792316997807868
29004967 10 18408322181132540987
5084963 1 18200314441270734267
66348 1 18266737974255391079

>  <PUBCHEM_SHAPE_MULTIPOLES>  (1) 
179.35
3.33
1.92
0.67
1.82
0.53
0.01
-0.82
-0.08
-0.48
-0.12
0.01
-0.02
0.06

>  <PUBCHEM_SHAPE_SELFOVERLAP>  (1) 
343.129

>  <PUBCHEM_SHAPE_VOLUME>  (1) 
109.6

>  <PUBCHEM_COORDINATE_TYPE>  (1) 
2
5
10

$$$$
