19583
     RDKit          3D

 18 18  0  0  0  0  0  0  0  0999 V2000
    1.5435    2.6932   -0.1882 Cl  0  0  0  0  0  0  0  0  0  0  0  0
    1.5247   -2.7133   -0.1713 Cl  0  0  0  0  0  0  0  0  0  0  0  0
   -1.6297    2.7041   -0.1842 Cl  0  0  0  0  0  0  0  0  0  0  0  0
   -1.6486   -2.7018   -0.1663 Cl  0  0  0  0  0  0  0  0  0  0  0  0
    3.6466    0.0338    1.3788 S   0  0  0  0  0  0  0  0  0  0  0  0
   -3.4027    0.0101    1.0996 O   0  0  0  0  0  0  0  0  0  0  0  0
    3.4427   -0.0205   -1.2409 O   0  0  0  0  0  0  0  0  0  0  0  0
   -3.6034    0.0052   -1.1935 O   0  0  0  0  0  0  0  0  0  0  0  0
    1.3426   -0.0093   -0.1790 C   0  0  0  0  0  0  0  0  0  0  0  0
   -1.4473    0.0004   -0.1757 C   0  0  0  0  0  0  0  0  0  0  0  0
    0.6493    1.2011   -0.1821 C   0  0  0  0  0  0  0  0  0  0  0  0
    0.6409   -1.2149   -0.1743 C   0  0  0  0  0  0  0  0  0  0  0  0
   -0.7456    1.2059   -0.1804 C   0  0  0  0  0  0  0  0  0  0  0  0
   -0.7540   -1.2099   -0.1726 C   0  0  0  0  0  0  0  0  0  0  0  0
    2.8068   -0.0144   -0.1816 C   0  0  0  0  0  0  0  0  0  0  0  0
   -2.9111    0.0057   -0.1735 C   0  0  0  0  0  0  0  0  0  0  0  0
    5.3735    0.0106    0.8514 C   0  0  0  0  0  0  0  0  0  0  0  0
   -4.8281    0.0142    1.2339 C   0  0  0  0  0  0  0  0  0  0  0  0
  1 11  1  0
  2 12  1  0
  3 13  1  0
  4 14  1  0
  5 15  1  0
  5 17  1  0
  6 16  1  0
  6 18  1  0
  7 15  2  0
  8 16  2  0
  9 11  2  0
  9 12  1  0
  9 15  1  0
 10 13  2  0
 10 14  1  0
 10 16  1  0
 11 13  1  0
 12 14  2  0
M  END
>  <PUBCHEM_COMPOUND_CID>  (1) 
19583

>  <PUBCHEM_CONFORMER_RMSD>  (1) 
0.6

>  <PUBCHEM_CONFORMER_DIVERSEORDER>  (1) 
1
5
4
3
2

>  <PUBCHEM_MMFF94_PARTIAL_CHARGES>  (1) 
18
1 -0.18
10 0.09
11 0.18
12 0.18
13 0.18
14 0.18
15 0.62
16 0.63
17 0.23
18 0.28
2 -0.18
3 -0.18
4 -0.18
5 -0.37
6 -0.43
7 -0.57
8 -0.57
9 0.09

>  <PUBCHEM_EFFECTIVE_ROTOR_COUNT>  (1) 
4

>  <PUBCHEM_PHARMACOPHORE_FEATURES>  (1) 
3
1 17 hydrophobe
1 8 acceptor
6 9 10 11 12 13 14 rings

>  <PUBCHEM_HEAVY_ATOM_COUNT>  (1) 
18

>  <PUBCHEM_ATOM_DEF_STEREO_COUNT>  (1) 
0

>  <PUBCHEM_ATOM_UDEF_STEREO_COUNT>  (1) 
0

>  <PUBCHEM_BOND_DEF_STEREO_COUNT>  (1) 
0

>  <PUBCHEM_BOND_UDEF_STEREO_COUNT>  (1) 
0

>  <PUBCHEM_ISOTOPIC_ATOM_COUNT>  (1) 
0

>  <PUBCHEM_COMPONENT_COUNT>  (1) 
1

>  <PUBCHEM_CACTVS_TAUTO_COUNT>  (1) 
1

>  <PUBCHEM_CONFORMER_ID>  (1) 
00004C7F00000001

>  <PUBCHEM_MMFF94_ENERGY>  (1) 
57.0176

>  <PUBCHEM_FEATURE_SELFOVERLAP>  (1) 
15.223

>  <PUBCHEM_SHAPE_FINGERPRINT>  (1) 
10967382 1 18410577288002426935
11132069 177 18412541020128041998
11796584 16 16370724829478038699
12236239 1 17603302640514091700
12251169 10 18410574010952903664
12390115 104 18129675079825982296
12553582 1 18410296912532108349
12644460 14 18114753753643953952
13140716 1 18266461094898929681
13221675 6 18410295808741447847
13583140 156 17168410636624910841
13862211 1 18409442596276787567
14178342 30 18343018934221786723
14790565 3 18266762270928563605
15042514 8 18337109076439367490
15209294 21 17846501383277278401
15309172 13 18411982447031196843
15375462 189 17967805072673832202
16945 1 18410855460154535743
1813 80 16951403210213655786
18186145 218 17775284932808978574
19591789 44 18195539090251597926
20028762 73 18056767752700857431
20510252 161 18272084938262323160
20600515 1 18272091638611862216
20739085 24 18051719666740144545
21029758 27 18186521007850292308
21501502 16 18122626329516979012
21637258 2 15719384083568524707
22182313 1 18194402190885440117
23184049 59 18337677511302999945
2334 1 17978228592764773567
23366157 5 17680704023950638724
23402539 116 18341315747728410316
23493267 7 17240754056805696517
23557571 272 17273978119562735038
23559900 14 18271538584827061140
25147074 1 18122627420475608671
2748010 2 18122343467313291749
296302 2 16056882446268894994
34934 24 18339349803842817751
4072396 5 18262784190571489842
465052 167 17822585991966570843
5104073 3 18266741470385118640
58807428 26 18411691106610001554

>  <PUBCHEM_SHAPE_MULTIPOLES>  (1) 
364.15
7.8
2.75
1.06
1.74
0.03
-0.21
-0.05
-2.94
-0.29
0.43
0
-0.01
0.01

>  <PUBCHEM_SHAPE_SELFOVERLAP>  (1) 
714.723

>  <PUBCHEM_SHAPE_VOLUME>  (1) 
224.8

>  <PUBCHEM_COORDINATE_TYPE>  (1) 
2
5
10

$$$$
