1958
     RDKit          3D

 19 21  0  0  1  0  0  0  0  0999 V2000
   -2.3756   -3.4680   -0.4547 I   0  0  0  0  0  0  0  0  0  0  0  0
    2.1401    1.5579   -1.8407 O   0  0  0  0  0  0  0  0  0  0  0  0
    4.4200   -0.4660   -1.3401 O   0  0  0  0  0  0  0  0  0  0  0  0
   -0.0098   -0.0334    0.1126 N   0  0  0  0  0  0  0  0  0  0  0  0
    4.5052   -0.5573    1.7339 N   0  0  0  0  0  0  0  0  0  0  0  0
   -1.4045    1.9194    0.3471 N   0  0  0  0  0  0  0  0  0  0  0  0
   -3.7810    1.4118    0.1980 N   0  0  0  0  0  0  0  0  0  0  0  0
   -4.6213   -0.7809   -0.1426 N   0  0  0  0  0  0  0  0  0  0  0  0
    1.2971    0.6123    0.2470 C   0  0  0  0  0  0  0  0  0  0  0  0
    2.1899    0.4184   -0.9943 C   0  0  0  0  0  0  0  0  0  0  0  0
    2.1258    0.1113    1.4498 C   0  0  0  0  0  0  0  0  0  0  0  0
    3.3580   -0.5600    0.8372 C   0  0  0  0  0  0  0  0  0  0  0  0
    3.6003    0.2514   -0.4320 C   0  0  0  0  0  0  0  0  0  0  0  0
   -1.2224    0.6000    0.1643 C   0  0  0  0  0  0  0  0  0  0  0  0
   -0.2016   -1.3761   -0.0855 C   0  0  0  0  0  0  0  0  0  0  0  0
   -2.2135   -0.3591   -0.0048 C   0  0  0  0  0  0  0  0  0  0  0  0
   -1.5586   -1.6073   -0.1623 C   0  0  0  0  0  0  0  0  0  0  0  0
   -3.5317    0.0941    0.0176 C   0  0  0  0  0  0  0  0  0  0  0  0
   -2.7164    2.2315    0.3495 C   0  0  0  0  0  0  0  0  0  0  0  0
  1 17  1  0
  2 10  1  0
  3 13  1  0
  4  9  1  0
  4 14  1  0
  4 15  1  0
  5 12  1  0
  6 14  2  0
  6 19  1  0
  7 18  1  0
  7 19  2  0
  8 18  1  0
  9 10  1  0
  9 11  1  0
 10 13  1  0
 11 12  1  0
 12 13  1  0
 14 16  1  0
 15 17  2  0
 16 17  1  0
 16 18  2  0
M  END
>  <PUBCHEM_COMPOUND_CID>  (1) 
1958

>  <PUBCHEM_CONFORMER_RMSD>  (1) 
0.6

>  <PUBCHEM_CONFORMER_DIVERSEORDER>  (1) 
1
46
44
59
63
31
60
17
64
65
36
15
57
47
42
35
29
16
14
24
51
33
12
55
40
18
53
2
11
54
37
19
58
39
50
43
61
7
49
4
30
52
9
25
26
56
21
20
62
8
38
34
27
10
48
22
45
13
32
23
5
41
3
6
28

>  <PUBCHEM_MMFF94_PARTIAL_CHARGES>  (1) 
25
1 -0.03
10 0.28
12 0.27
13 0.28
14 0.11
15 -0.3
17 0.03
18 0.41
19 0.47
2 -0.68
26 0.36
27 0.36
28 0.15
29 0.4
3 -0.68
30 0.4
31 0.15
32 0.4
33 0.4
4 0.05
5 -0.99
6 -0.57
7 -0.62
8 -0.9
9 0.26

>  <PUBCHEM_EFFECTIVE_ROTOR_COUNT>  (1) 
2

>  <PUBCHEM_PHARMACOPHORE_FEATURES>  (1) 
14
1 1 hydrophobe
1 2 acceptor
1 2 donor
1 3 acceptor
1 3 donor
1 5 cation
1 5 donor
1 8 cation
1 8 donor
3 4 6 14 cation
3 6 7 19 cation
5 4 14 15 16 17 rings
5 9 10 11 12 13 rings
6 6 7 14 16 18 19 rings

>  <PUBCHEM_HEAVY_ATOM_COUNT>  (1) 
19

>  <PUBCHEM_ATOM_DEF_STEREO_COUNT>  (1) 
0

>  <PUBCHEM_ATOM_UDEF_STEREO_COUNT>  (1) 
4

>  <PUBCHEM_BOND_DEF_STEREO_COUNT>  (1) 
0

>  <PUBCHEM_BOND_UDEF_STEREO_COUNT>  (1) 
0

>  <PUBCHEM_ISOTOPIC_ATOM_COUNT>  (1) 
0

>  <PUBCHEM_COMPONENT_COUNT>  (1) 
1

>  <PUBCHEM_CACTVS_TAUTO_COUNT>  (1) 
4

>  <PUBCHEM_CONFORMER_ID>  (1) 
000007A600000001

>  <PUBCHEM_MMFF94_ENERGY>  (1) 
39.6759

>  <PUBCHEM_FEATURE_SELFOVERLAP>  (1) 
71.325

>  <PUBCHEM_SHAPE_FINGERPRINT>  (1) 
10062212 137 18261105300956974987
10319926 262 18128792254246995570
12236239 1 18040433283234571472
12346177 29 18272359910521371599
12553582 1 17836088153543589687
12788726 201 18119534481377297074
13140716 1 18125998502226721827
13538477 17 18334292118995221523
13581323 91 18412822477919543768
13862211 1 18340760555425487199
14115302 16 18410294739262780156
14178342 30 18337938065689483154
15042514 8 18339643447074119403
15375358 24 17346590876983565936
15669948 3 18337956791340282823
16752209 62 18410567384272078939
16945 1 18341896324760415971
17804303 29 18343018895545410440
1813 80 17241885377367585282
19422 9 17894632556275131882
200 152 17022896844041558745
20279233 1 17489869353911873090
20510252 161 18130787832906101097
20600515 1 18272359897499553736
20645476 183 18186527617693989495
20645477 70 15574702583086451754
21524375 3 18334859360127217953
22112679 90 18041270011567608072
23184049 29 18196925793446395403
2334 1 17764584718061103659
23402539 116 18200297901789553503
23419403 2 16969082544421188133
23557571 272 17988933279169890988
23559900 14 18131074810315841460
23598291 2 17822573789932723520
2748010 2 17838607113671334523
2838139 119 16879329140380455709
43471831 8 18338231540810047971
474 4 17242466142571206588
54173680 148 18268146646799771195
69090 78 17274813671169165279
6992083 37 18114458985568791164
7364860 26 17767403474943279895
74978 22 18410012182091642796
7615 1 18114456885392989574
77492 1 17967813859950118016
81228 2 18198617933774178859
9709674 26 18202284710241849526

>  <PUBCHEM_SHAPE_MULTIPOLES>  (1) 
366.3
8.14
2.63
1.2
3.68
1.59
0.08
0.73
-0.28
-3.72
0.23
1.76
-0.06
-0.75

>  <PUBCHEM_SHAPE_SELFOVERLAP>  (1) 
774.471

>  <PUBCHEM_SHAPE_VOLUME>  (1) 
212.9

>  <PUBCHEM_COORDINATE_TYPE>  (1) 
2
5
10

$$$$
