19590
     RDKit          3D

 26 27  0  0  0  0  0  0  0  0999 V2000
   -2.6316    2.4546   -1.1691 Cl  0  0  0  0  0  0  0  0  0  0  0  0
    5.2947    1.5902    2.3974 O   0  0  0  0  0  0  0  0  0  0  0  0
    5.9464   -1.2302   -2.1918 O   0  0  0  0  0  0  0  0  0  0  0  0
   -7.4193   -1.2018    0.5057 O   0  0  0  0  0  0  0  0  0  0  0  0
   -7.4909    0.6317   -0.6994 O   0  0  0  0  0  0  0  0  0  0  0  0
    4.8393    0.1261    0.0250 N   0  0  0  0  0  0  0  0  0  0  0  0
   -0.7191   -0.3334   -0.4842 N   0  0  0  0  0  0  0  0  0  0  0  0
   -1.2863    0.2735    0.4537 N   0  0  0  0  0  0  0  0  0  0  0  0
   -6.8522   -0.2272   -0.0446 N   0  0  0  0  0  0  0  0  0  0  0  0
    3.4395    0.0062   -0.1002 C   0  0  0  0  0  0  0  0  0  0  0  0
    5.4676    1.4322    0.0170 C   0  0  0  0  0  0  0  0  0  0  0  0
    5.6662   -1.0545    0.1771 C   0  0  0  0  0  0  0  0  0  0  0  0
    2.7742   -1.0632    0.4996 C   0  0  0  0  0  0  0  0  0  0  0  0
    1.3899   -1.1813    0.3756 C   0  0  0  0  0  0  0  0  0  0  0  0
    2.7202    0.9574   -0.8238 C   0  0  0  0  0  0  0  0  0  0  0  0
    4.9804    2.2694    1.1888 C   0  0  0  0  0  0  0  0  0  0  0  0
    5.5415   -1.9576   -1.0395 C   0  0  0  0  0  0  0  0  0  0  0  0
    0.6708   -0.2299   -0.3481 C   0  0  0  0  0  0  0  0  0  0  0  0
    1.3359    0.8394   -0.9477 C   0  0  0  0  0  0  0  0  0  0  0  0
    0.6993   -2.3359    1.0248 C   0  0  0  0  0  0  0  0  0  0  0  0
   -2.6810    0.1697    0.3167 C   0  0  0  0  0  0  0  0  0  0  0  0
   -3.4066    1.1131   -0.4068 C   0  0  0  0  0  0  0  0  0  0  0  0
   -3.3306   -0.9041    0.9210 C   0  0  0  0  0  0  0  0  0  0  0  0
   -5.4439   -0.0919    0.0778 C   0  0  0  0  0  0  0  0  0  0  0  0
   -4.7902    0.9822   -0.5264 C   0  0  0  0  0  0  0  0  0  0  0  0
   -4.7140   -1.0349    0.8014 C   0  0  0  0  0  0  0  0  0  0  0  0
  1 22  1  0
  2 16  1  0
  3 17  1  0
  4  9  1  0
  5  9  2  0
  6 10  1  0
  6 11  1  0
  6 12  1  0
  7  8  2  0
  7 18  1  0
  8 21  1  0
  9 24  1  0
 10 13  2  0
 10 15  1  0
 11 16  1  0
 12 17  1  0
 13 14  1  0
 14 18  2  0
 14 20  1  0
 15 19  2  0
 18 19  1  0
 21 22  2  0
 21 23  1  0
 22 25  1  0
 23 26  2  0
 24 25  2  0
 24 26  1  0
M  CHG  2   4  -1   9   1
M  END
>  <PUBCHEM_COMPOUND_CID>  (1) 
19590

>  <PUBCHEM_CONFORMER_RMSD>  (1) 
0.8

>  <PUBCHEM_CONFORMER_DIVERSEORDER>  (1) 
1
61
88
59
4
11
76
54
55
72
79
87
66
83
40
84
65
10
74
78
7
62
2
89
63
56
82
73
42
75
28
85
19
30
12
57
50
51
16
25
81
69
6
8
60
31
37
80
67
43
21
33
70
9
48
86
18
36
32
77
49
15
44
27
53
39
71
47
35
3
68
38
14
23
29
52
22
34
64
26
45
5
20
24
13
17
41
46
58

>  <PUBCHEM_MMFF94_PARTIAL_CHARGES>  (1) 
34
1 -0.18
10 0.1
11 0.37
12 0.37
13 -0.15
14 -0.14
15 -0.15
16 0.28
17 0.28
18 0.18
19 -0.15
2 -0.68
20 0.14
21 0.18
22 0.18
23 -0.15
24 0.13
25 -0.15
26 -0.15
3 -0.68
31 0.15
32 0.15
37 0.15
4 -0.52
41 0.4
42 0.4
43 0.15
44 0.15
45 0.15
5 -0.52
6 -0.84
7 -0.18
8 -0.18
9 0.91

>  <PUBCHEM_EFFECTIVE_ROTOR_COUNT>  (1) 
8

>  <PUBCHEM_PHARMACOPHORE_FEATURES>  (1) 
10
1 2 acceptor
1 2 donor
1 3 acceptor
1 3 donor
1 4 acceptor
1 4 anion
1 5 acceptor
1 6 cation
6 10 13 14 15 18 19 rings
6 21 22 23 24 25 26 rings

>  <PUBCHEM_HEAVY_ATOM_COUNT>  (1) 
26

>  <PUBCHEM_ATOM_DEF_STEREO_COUNT>  (1) 
0

>  <PUBCHEM_ATOM_UDEF_STEREO_COUNT>  (1) 
0

>  <PUBCHEM_BOND_DEF_STEREO_COUNT>  (1) 
0

>  <PUBCHEM_BOND_UDEF_STEREO_COUNT>  (1) 
0

>  <PUBCHEM_ISOTOPIC_ATOM_COUNT>  (1) 
0

>  <PUBCHEM_COMPONENT_COUNT>  (1) 
1

>  <PUBCHEM_CACTVS_TAUTO_COUNT>  (1) 
1

>  <PUBCHEM_CONFORMER_ID>  (1) 
00004C8600000001

>  <PUBCHEM_MMFF94_ENERGY>  (1) 
83.5224

>  <PUBCHEM_FEATURE_SELFOVERLAP>  (1) 
50.828

>  <PUBCHEM_SHAPE_FINGERPRINT>  (1) 
10 15 18187358887466543176
10638233 991 16415479389065904193
11719270 70 18113051636381676099
11796584 16 14562539478909319488
12107183 9 17175164708942470561
12166972 35 18341899584324719304
12236239 1 18202003226838351007
12403259 415 18409165493945990940
12516196 113 18408885153167635513
12596602 18 18059859458963934201
12616971 3 16415471632523940820
13533116 47 18059860550096610454
15183329 4 16515405162114167181
17844677 252 18130794421375402616
18222031 100 17022625273533772092
18681886 176 18259985997934931840
20157964 124 17988925587521643786
21033648 29 18341035368222191320
21130935 74 18413111654300624331
21150785 3 18187094948951714950
21267235 1 18114191830635485399
21315759 40 16200432455261306551
21344244 78 17203039678997942442
22079108 93 18410004477057282056
221357 26 18411139108611830756
22956985 138 16518475965221640194
23081809 10 16272216283894250283
23402539 116 18040996267827429463
23559900 14 18113900511435847101
3004659 81 17313108565900632589
34797466 226 18202004334892421172
3545911 37 18040999523159334679
4073 2 17313394464524911810
4340502 62 18335698364370993434
5104073 3 18187923911794047977
59755656 215 18113903727817849015
59755656 520 15140679207391527859
67856867 119 17677338345727300765

>  <PUBCHEM_SHAPE_MULTIPOLES>  (1) 
493.54
18.98
2.14
1.32
14.88
0.32
-0.14
-0.53
0.42
-1.39
-0.15
-2.34
0.22
2.75

>  <PUBCHEM_SHAPE_SELFOVERLAP>  (1) 
1032.399

>  <PUBCHEM_SHAPE_VOLUME>  (1) 
281.4

>  <PUBCHEM_COORDINATE_TYPE>  (1) 
2
5
10

$$$$
