19607
     RDKit          3D

 28 30  0  0  0  0  0  0  0  0999 V2000
    5.4737   -3.5099   -1.0471 F   0  0  0  0  0  0  0  0  0  0  0  0
   -3.9000    2.1437   -0.0820 O   0  0  0  0  0  0  0  0  0  0  0  0
    4.1008    2.5738   -0.0911 O   0  0  0  0  0  0  0  0  0  0  0  0
   -3.1493   -1.0757   -0.0579 N   0  0  0  0  0  0  0  0  0  0  0  0
    0.0066    1.7207    0.2787 N   0  0  0  0  0  0  0  0  0  0  0  0
   -2.4844    0.2232   -0.1590 C   0  0  0  0  0  0  0  0  0  0  0  0
   -2.0330    0.6868    1.2316 C   0  0  0  0  0  0  0  0  0  0  0  0
   -1.2820    0.1207   -1.1058 C   0  0  0  0  0  0  0  0  0  0  0  0
   -1.1471    1.9365    1.1616 C   0  0  0  0  0  0  0  0  0  0  0  0
   -0.4246    1.3918   -1.0863 C   0  0  0  0  0  0  0  0  0  0  0  0
   -2.2048   -2.1021    0.4048 C   0  0  0  0  0  0  0  0  0  0  0  0
   -4.3162   -0.9880    0.8313 C   0  0  0  0  0  0  0  0  0  0  0  0
   -3.5224    1.1620   -0.7199 C   0  0  0  0  0  0  0  0  0  0  0  0
   -2.8718   -3.4768    0.4692 C   0  0  0  0  0  0  0  0  0  0  0  0
   -5.0523   -2.3265    0.9094 C   0  0  0  0  0  0  0  0  0  0  0  0
   -4.1177   -3.4483    1.3471 C   0  0  0  0  0  0  0  0  0  0  0  0
    0.8723    2.8998    0.2714 C   0  0  0  0  0  0  0  0  0  0  0  0
   -4.0585    0.8195   -2.0977 C   0  0  0  0  0  0  0  0  0  0  0  0
    1.7498    2.9198    1.5246 C   0  0  0  0  0  0  0  0  0  0  0  0
   -5.5012    1.2517   -2.2876 C   0  0  0  0  0  0  0  0  0  0  0  0
    2.6514    1.6860    1.6222 C   0  0  0  0  0  0  0  0  0  0  0  0
    3.6598    1.5831    0.4867 C   0  0  0  0  0  0  0  0  0  0  0  0
    4.1419    0.2322    0.0800 C   0  0  0  0  0  0  0  0  0  0  0  0
    4.2148   -0.7948    1.0211 C   0  0  0  0  0  0  0  0  0  0  0  0
    4.5189   -0.0050   -1.2419 C   0  0  0  0  0  0  0  0  0  0  0  0
    4.6646   -2.0589    0.6404 C   0  0  0  0  0  0  0  0  0  0  0  0
    4.9689   -1.2691   -1.6226 C   0  0  0  0  0  0  0  0  0  0  0  0
    5.0418   -2.2961   -0.6815 C   0  0  0  0  0  0  0  0  0  0  0  0
  1 28  1  0
  2 13  2  0
  3 22  2  0
  4  6  1  0
  4 11  1  0
  4 12  1  0
  5  9  1  0
  5 10  1  0
  5 17  1  0
  6  7  1  0
  6  8  1  0
  6 13  1  0
  7  9  1  0
  8 10  1  0
 11 14  1  0
 12 15  1  0
 13 18  1  0
 14 16  1  0
 15 16  1  0
 17 19  1  0
 18 20  1  0
 19 21  1  0
 21 22  1  0
 22 23  1  0
 23 24  2  0
 23 25  1  0
 24 26  1  0
 25 27  2  0
 26 28  2  0
 27 28  1  0
M  END
>  <PUBCHEM_COMPOUND_CID>  (1) 
19607

>  <PUBCHEM_CONFORMER_RMSD>  (1) 
1

>  <PUBCHEM_CONFORMER_DIVERSEORDER>  (1) 
2
94
65
100
43
85
9
90
34
71
30
91
97
27
56
21
67
17
8
61
46
49
36
59
95
25
89
74
44
86
66
26
79
82
22
23
80
99
14
24
62
57
6
55
18
70
98
20
78
12
53
41
1
19
64
84
32
37
11
7
101
58
40
76
92
96
38
103
3
75
63
83
87
72
16
88
93
73
15
4
48
42
51
10
52
29
13
50
69
102
60
28
5
54
33
45
68
31
81
77
35
39
47

>  <PUBCHEM_MMFF94_PARTIAL_CHARGES>  (1) 
25
1 -0.19
10 0.27
11 0.27
12 0.27
13 0.45
17 0.27
18 0.06
2 -0.57
21 0.06
22 0.42
23 0.09
24 -0.15
25 -0.15
26 -0.15
27 -0.15
28 0.19
3 -0.57
4 -0.81
5 -0.81
58 0.15
59 0.15
6 0.33
60 0.15
61 0.15
9 0.27

>  <PUBCHEM_EFFECTIVE_ROTOR_COUNT>  (1) 
10.4

>  <PUBCHEM_PHARMACOPHORE_FEATURES>  (1) 
8
1 2 acceptor
1 20 hydrophobe
1 3 acceptor
1 4 cation
1 5 cation
6 23 24 25 26 27 28 rings
6 4 11 12 14 15 16 rings
6 5 6 7 8 9 10 rings

>  <PUBCHEM_HEAVY_ATOM_COUNT>  (1) 
28

>  <PUBCHEM_ATOM_DEF_STEREO_COUNT>  (1) 
0

>  <PUBCHEM_ATOM_UDEF_STEREO_COUNT>  (1) 
0

>  <PUBCHEM_BOND_DEF_STEREO_COUNT>  (1) 
0

>  <PUBCHEM_BOND_UDEF_STEREO_COUNT>  (1) 
0

>  <PUBCHEM_ISOTOPIC_ATOM_COUNT>  (1) 
0

>  <PUBCHEM_COMPONENT_COUNT>  (1) 
1

>  <PUBCHEM_CACTVS_TAUTO_COUNT>  (1) 
4

>  <PUBCHEM_CONFORMER_ID>  (1) 
00004C9700000002

>  <PUBCHEM_MMFF94_ENERGY>  (1) 
55.1482

>  <PUBCHEM_FEATURE_SELFOVERLAP>  (1) 
40.596

>  <PUBCHEM_SHAPE_FINGERPRINT>  (1) 
10764073 3 18200054905741280883
10928967 22 18059864982281626278
11315621 136 18337400426394529108
117089 54 18200049334758261422
11796584 16 18187635878375655120
12422481 6 16773256010531675641
12623949 98 17758688024142671387
12643181 29 18261668161074883122
13533116 47 18200597020059321457
13583140 156 18057032734485725205
1361 87 18339653252262877982
13782708 43 18338794637251092031
14251751 18 18187075144910195354
14866123 147 17912090447187749977
14910302 57 18187354445969010765
15131766 46 12757156753499367871
15392192 29 18056777429271659046
15510800 12 18342734092533898394
17349148 13 16271923861109770869
1813 80 17242444156501125429
20775530 9 18411138056708917958
21307412 95 18337952277456268759
21315759 227 18337664321711407738
22393880 68 18113611292078915274
23559900 14 18409442596493162828
23572383 38 18342443847175505546
25222932 49 18057327408254860174
3117164 225 18200893845555201185
32027 91 18339075974498562346
345986 75 17203341025996768184
3729539 64 18118674423177202951
4015057 19 18201141214075404797
4058900 60 17754447959888480069
4394409 98 17538261965748236490
44062 13 18186799171327719679
46194498 28 17970632019921887828
463206 1 18194406598197431026
508706 21 18054804879420384982
59755656 520 18335979788900496177
613672 6 18270949177431958552
6608658 132 14591799235650373031
6695519 79 17481141632152700712
6823239 73 18410569604812421514
7970288 3 18196098742472086490

>  <PUBCHEM_SHAPE_MULTIPOLES>  (1) 
547.25
13.69
4.27
1.78
6.27
2.34
0.55
8.31
3.64
0.18
-1.07
-0.74
-0.4
4.01

>  <PUBCHEM_SHAPE_SELFOVERLAP>  (1) 
1139.001

>  <PUBCHEM_SHAPE_VOLUME>  (1) 
310.8

>  <PUBCHEM_COORDINATE_TYPE>  (1) 
2
5
10

$$$$
