19608
     RDKit          3D

 25 27  0  0  0  0  0  0  0  0999 V2000
    6.9064    0.7326    0.0742 O   0  0  0  0  0  0  0  0  0  0  0  0
    6.9765   -1.5459    0.3949 O   0  0  0  0  0  0  0  0  0  0  0  0
    0.7695   -0.3168   -0.7182 N   0  0  0  0  0  0  0  0  0  0  0  0
   -4.2165    0.0642    0.1230 C   0  0  0  0  0  0  0  0  0  0  0  0
   -5.6599    0.1341    0.0502 C   0  0  0  0  0  0  0  0  0  0  0  0
   -1.4334   -0.0715    0.2618 C   0  0  0  0  0  0  0  0  0  0  0  0
   -3.5731    0.1830    1.3547 C   0  0  0  0  0  0  0  0  0  0  0  0
   -3.4683   -0.1224   -1.0395 C   0  0  0  0  0  0  0  0  0  0  0  0
   -2.1817    0.1153    1.4242 C   0  0  0  0  0  0  0  0  0  0  0  0
   -2.0768   -0.1903   -0.9701 C   0  0  0  0  0  0  0  0  0  0  0  0
   -6.4209   -1.0293    0.1653 C   0  0  0  0  0  0  0  0  0  0  0  0
   -6.2906    1.3644   -0.1344 C   0  0  0  0  0  0  0  0  0  0  0  0
    2.1569   -0.3647   -0.4995 C   0  0  0  0  0  0  0  0  0  0  0  0
    0.0173   -0.1424    0.3337 C   0  0  0  0  0  0  0  0  0  0  0  0
    4.9046   -0.4603   -0.0676 C   0  0  0  0  0  0  0  0  0  0  0  0
   -7.8125   -0.9623    0.0955 C   0  0  0  0  0  0  0  0  0  0  0  0
   -7.6820    1.4314   -0.2040 C   0  0  0  0  0  0  0  0  0  0  0  0
    2.7734   -1.5850   -0.2400 C   0  0  0  0  0  0  0  0  0  0  0  0
    2.9045    0.8082   -0.5446 C   0  0  0  0  0  0  0  0  0  0  0  0
    4.1506   -1.6328   -0.0235 C   0  0  0  0  0  0  0  0  0  0  0  0
    4.2816    0.7602   -0.3282 C   0  0  0  0  0  0  0  0  0  0  0  0
   -8.4430    0.2679   -0.0891 C   0  0  0  0  0  0  0  0  0  0  0  0
    6.3404   -0.5103    0.1578 C   0  0  0  0  0  0  0  0  0  0  0  0
    8.3213    0.8142    0.2771 C   0  0  0  0  0  0  0  0  0  0  0  0
    8.7557    2.2584    0.1462 C   0  0  0  0  0  0  0  0  0  0  0  0
  1 23  1  0
  1 24  1  0
  2 23  2  0
  3 13  1  0
  3 14  2  0
  4  5  1  0
  4  7  2  0
  4  8  1  0
  5 11  2  0
  5 12  1  0
  6  9  2  0
  6 10  1  0
  6 14  1  0
  7  9  1  0
  8 10  2  0
 11 16  1  0
 12 17  2  0
 13 18  2  0
 13 19  1  0
 15 20  2  0
 15 21  1  0
 15 23  1  0
 16 22  2  0
 17 22  1  0
 18 20  1  0
 19 21  2  0
 24 25  1  0
M  END
>  <PUBCHEM_COMPOUND_CID>  (1) 
19608

>  <PUBCHEM_CONFORMER_RMSD>  (1) 
0.8

>  <PUBCHEM_CONFORMER_DIVERSEORDER>  (1) 
1
4
2
6
5
8
7
3

>  <PUBCHEM_MMFF94_PARTIAL_CHARGES>  (1) 
36
1 -0.43
10 -0.15
11 -0.15
12 -0.15
13 0.18
14 0.3
15 0.09
16 -0.15
17 -0.15
18 -0.15
19 -0.15
2 -0.57
20 -0.15
21 -0.15
22 -0.15
23 0.63
24 0.28
26 0.15
27 0.15
28 0.15
29 0.15
3 -0.63
30 0.15
31 0.15
32 0.06
33 0.15
34 0.15
35 0.15
36 0.15
37 0.15
38 0.15
39 0.15
6 0.09
7 -0.15
8 -0.15
9 -0.15

>  <PUBCHEM_EFFECTIVE_ROTOR_COUNT>  (1) 
6

>  <PUBCHEM_PHARMACOPHORE_FEATURES>  (1) 
5
1 2 acceptor
1 3 acceptor
6 13 15 18 19 20 21 rings
6 4 6 7 8 9 10 rings
6 5 11 12 16 17 22 rings

>  <PUBCHEM_HEAVY_ATOM_COUNT>  (1) 
25

>  <PUBCHEM_ATOM_DEF_STEREO_COUNT>  (1) 
0

>  <PUBCHEM_ATOM_UDEF_STEREO_COUNT>  (1) 
0

>  <PUBCHEM_BOND_DEF_STEREO_COUNT>  (1) 
0

>  <PUBCHEM_BOND_UDEF_STEREO_COUNT>  (1) 
0

>  <PUBCHEM_ISOTOPIC_ATOM_COUNT>  (1) 
0

>  <PUBCHEM_COMPONENT_COUNT>  (1) 
1

>  <PUBCHEM_CACTVS_TAUTO_COUNT>  (1) 
1

>  <PUBCHEM_CONFORMER_ID>  (1) 
00004C9800000001

>  <PUBCHEM_MMFF94_ENERGY>  (1) 
76.3007

>  <PUBCHEM_FEATURE_SELFOVERLAP>  (1) 
25.373

>  <PUBCHEM_SHAPE_FINGERPRINT>  (1) 
10 15 18272368680728337422
10162869 55 18336259141387435439
10319688 140 14189032015878719924
106641 1 18410857689696463791
10968037 39 16630525129460123959
11315181 36 18131354107839059323
11408170 108 13768469953038622496
11524674 6 13551481363002921793
11638347 137 16950556663527059866
11719270 70 18272369741802174094
12089408 11 18060137626720880919
12236239 1 18131634452237434143
12643181 29 15936413368461539905
13073987 5 16733535014727317220
13533116 47 16733538330125630843
13885169 127 18260829263930834093
13914758 101 18186803535220363697
14118638 360 15913057473417823014
14123256 10 16702302343310759699
14251764 18 17966971620931499580
14251764 46 18333449850159686723
14428016 248 17346606283047412753
14617042 71 18339644564187979684
15183329 4 16298386847079484849
15461852 350 16630519661803473285
15510794 2 18040438785462627050
155225 1 18271806861554471672
1577012 14 17346047670783821097
15840311 113 18409732890119160748
15849732 13 18273495671973488069
16120349 18 18335982060574121140
17093844 174 17967253088368035689
18335252 98 18343025502044290727
21095123 145 17060054896049071503
21150785 3 17846498128103413729
21267235 1 9007061266622731714
21315763 28 18407760344203409797
21792961 116 13758086186304420654
22224240 67 18114179748745113722
232437 2 18408886226830461618
23536379 177 18336266765497548299
23559900 14 16009326416805369573
246663 6 11024109854245606772
249057 3 16343697768209537176
28498 318 8718834184710721770
335352 9 16774072969905513909
34797466 226 14620796016012231776
4073 2 17895201046821339491
4325135 7 15554447400768972249
5758199 1 18412825802862696686
59682541 35 18187646937742453416
59755656 215 15574712469547396091
636775 72 18337953386334212997
67123 10 18411136952290029407

>  <PUBCHEM_SHAPE_MULTIPOLES>  (1) 
497.77
29.26
1.48
0.92
10.21
0.19
0.12
8.34
1.4
2.02
0
-0.56
0.01
0.17

>  <PUBCHEM_SHAPE_SELFOVERLAP>  (1) 
1079.615

>  <PUBCHEM_SHAPE_VOLUME>  (1) 
272.2

>  <PUBCHEM_COORDINATE_TYPE>  (1) 
2
5
10

$$$$
