19601
     RDKit          3D

 13 12  0  0  0  0  0  0  0  0999 V2000
   -1.3118   -0.0763    0.0032 O   0  0  0  0  0  0  0  0  0  0  0  0
   -2.6977    1.7616   -0.0054 O   0  0  0  0  0  0  0  0  0  0  0  0
    2.2756    0.7314   -0.0056 N   0  0  0  0  0  0  0  0  0  0  0  0
    3.4802   -0.1052   -0.0040 C   0  0  0  0  0  0  0  0  0  0  0  0
    4.7099    0.8092   -0.0103 C   0  0  0  0  0  0  0  0  0  0  0  0
    3.4731   -0.9682    1.2622 C   0  0  0  0  0  0  0  0  0  0  0  0
    3.4812   -0.9980   -1.2503 C   0  0  0  0  0  0  0  0  0  0  0  0
    1.0801   -0.0944    0.0104 C   0  0  0  0  0  0  0  0  0  0  0  0
   -0.1700    0.7707    0.0045 C   0  0  0  0  0  0  0  0  0  0  0  0
   -2.5244    0.5511   -0.0019 C   0  0  0  0  0  0  0  0  0  0  0  0
   -3.6190   -0.4591   -0.0013 C   0  0  0  0  0  0  0  0  0  0  0  0
   -3.2979   -1.9222    0.0032 C   0  0  0  0  0  0  0  0  0  0  0  0
   -4.8793   -0.0007   -0.0049 C   0  0  0  0  0  0  0  0  0  0  0  0
  1  9  1  0
  1 10  1  0
  2 10  2  0
  3  4  1  0
  3  8  1  0
  4  5  1  0
  4  6  1  0
  4  7  1  0
  8  9  1  0
 10 11  1  0
 11 12  1  0
 11 13  2  0
M  END
>  <PUBCHEM_COMPOUND_CID>  (1) 
19601

>  <PUBCHEM_CONFORMER_RMSD>  (1) 
0.6

>  <PUBCHEM_CONFORMER_DIVERSEORDER>  (1) 
1
52
58
48
64
53
21
24
22
18
25
19
8
61
35
56
42
20
66
51
33
40
38
54
36
63
30
11
55
12
60
27
10
14
34
49
23
39
7
57
50
2
6
4
26
67
41
5
44
9
62
28
31
16
15
46
29
65
17
3
59
47
13
43
37
45
32

>  <PUBCHEM_MMFF94_PARTIAL_CHARGES>  (1) 
13
1 -0.43
10 0.71
11 -0.12
12 0.14
13 -0.3
14 0.36
2 -0.57
3 -0.9
31 0.15
32 0.15
4 0.27
8 0.27
9 0.28

>  <PUBCHEM_EFFECTIVE_ROTOR_COUNT>  (1) 
6

>  <PUBCHEM_PHARMACOPHORE_FEATURES>  (1) 
4
1 2 acceptor
1 3 cation
1 3 donor
4 4 5 6 7 hydrophobe

>  <PUBCHEM_HEAVY_ATOM_COUNT>  (1) 
13

>  <PUBCHEM_ATOM_DEF_STEREO_COUNT>  (1) 
0

>  <PUBCHEM_ATOM_UDEF_STEREO_COUNT>  (1) 
0

>  <PUBCHEM_BOND_DEF_STEREO_COUNT>  (1) 
0

>  <PUBCHEM_BOND_UDEF_STEREO_COUNT>  (1) 
0

>  <PUBCHEM_ISOTOPIC_ATOM_COUNT>  (1) 
0

>  <PUBCHEM_COMPONENT_COUNT>  (1) 
1

>  <PUBCHEM_CACTVS_TAUTO_COUNT>  (1) 
1

>  <PUBCHEM_CONFORMER_ID>  (1) 
00004C9100000001

>  <PUBCHEM_MMFF94_ENERGY>  (1) 
18.0065

>  <PUBCHEM_FEATURE_SELFOVERLAP>  (1) 
20.297

>  <PUBCHEM_SHAPE_FINGERPRINT>  (1) 
10680689 15 18334584520590298833
11987891 27 17967246503302358626
12616999 72 18202291307880893180
13167823 11 18259700082099453698
13296908 3 17988927730161711388
14123238 8 18273214213802145188
14252887 29 18130793352176173402
15242433 33 18260547831318370347
17834072 33 18261677073005201044
17834074 16 18343305863854182727
190213 19 18131632270430750160
19107657 162 18272373087306903774
1986462 14 18337393746960884637
20279233 1 18202006525035806254
20432913 95 17060623295445630903
20645477 70 17274828991554965294
212847 35 8935001477777413798
22485316 2 18260544532625043011
22646028 1 18259980478938925219
23402539 116 18334287695479483295
23402655 69 17895189982832116596
23557571 272 18130234761061248012
23559900 14 18342455967335993720
300161 21 18261103088863856757
449060 50 17632572777842804016
573450 72 18261100838395939617
77779 3 18412829083653156444

>  <PUBCHEM_SHAPE_MULTIPOLES>  (1) 
250.81
10.78
1.42
0.85
0.67
0.21
0.01
1.01
-0.03
0.74
-0.01
-0.9
0.27
0.01

>  <PUBCHEM_SHAPE_SELFOVERLAP>  (1) 
474.562

>  <PUBCHEM_SHAPE_VOLUME>  (1) 
156.5

>  <PUBCHEM_COORDINATE_TYPE>  (1) 
2
5
10

$$$$
