19610
     RDKit          2D

 29 32  0  0  1  0  0  0  0  0999 V2000
    0.0000    0.0000    0.0000 O   0  0  0  0  0  0  0  0  0  0  0  0
    0.0000    0.0000    0.0000 O   0  0  0  0  0  0  0  0  0  0  0  0
    0.0000    0.0000    0.0000 O   0  0  0  0  0  0  0  0  0  0  0  0
    0.0000    0.0000    0.0000 O   0  0  0  0  0  0  0  0  0  0  0  0
    0.0000    0.0000    0.0000 N   0  0  0  0  0  0  0  0  0  0  0  0
    0.0000    0.0000    0.0000 C   0  0  0  0  0  0  0  0  0  0  0  0
    0.0000    0.0000    0.0000 C   0  0  0  0  0  0  0  0  0  0  0  0
    0.0000    0.0000    0.0000 C   0  0  0  0  0  0  0  0  0  0  0  0
    0.0000    0.0000    0.0000 C   0  0  0  0  0  0  0  0  0  0  0  0
    0.0000    0.0000    0.0000 C   0  0  0  0  0  0  0  0  0  0  0  0
    0.0000    0.0000    0.0000 C   0  0  0  0  0  0  0  0  0  0  0  0
    0.0000    0.0000    0.0000 C   0  0  0  0  0  0  0  0  0  0  0  0
    0.0000    0.0000    0.0000 C   0  0  0  0  0  0  0  0  0  0  0  0
    0.0000    0.0000    0.0000 C   0  0  0  0  0  0  0  0  0  0  0  0
    0.0000    0.0000    0.0000 C   0  0  0  0  0  0  0  0  0  0  0  0
    0.0000    0.0000    0.0000 C   0  0  0  0  0  0  0  0  0  0  0  0
    0.0000    0.0000    0.0000 C   0  0  0  0  0  0  0  0  0  0  0  0
    0.0000    0.0000    0.0000 C   0  0  0  0  0  0  0  0  0  0  0  0
    0.0000    0.0000    0.0000 C   0  0  0  0  0  0  0  0  0  0  0  0
    0.0000    0.0000    0.0000 C   0  0  0  0  0  0  0  0  0  0  0  0
    0.0000    0.0000    0.0000 C   0  0  0  0  0  0  0  0  0  0  0  0
    0.0000    0.0000    0.0000 C   0  0  0  0  0  0  0  0  0  0  0  0
    0.0000    0.0000    0.0000 C   0  0  0  0  0  0  0  0  0  0  0  0
    0.0000    0.0000    0.0000 C   0  0  0  0  0  0  0  0  0  0  0  0
    0.0000    0.0000    0.0000 C   0  0  0  0  0  0  0  0  0  0  0  0
    0.0000    0.0000    0.0000 C   0  0  0  0  0  0  0  0  0  0  0  0
    0.0000    0.0000    0.0000 C   0  0  0  0  0  0  0  0  0  0  0  0
    0.0000    0.0000    0.0000 C   0  0  0  0  0  0  0  0  0  0  0  0
    0.0000    0.0000    0.0000 C   0  0  0  0  0  0  0  0  0  0  0  0
  1 12  1  0
  1 17  1  0
  2 15  2  0
  3 17  2  0
  4 18  1  0
  5  6  1  0
  5  7  1  0
  5 13  1  0
  5 14  1  0
  6  8  1  0
  6 10  1  0
  7  9  1  0
  7 11  1  0
  8  9  1  0
 10 12  1  0
 11 12  1  0
 13 15  1  0
 15 16  1  0
 16 19  2  0
 16 20  1  0
 17 18  1  0
 18 21  1  0
 19 22  1  0
 20 23  2  0
 21 25  2  0
 21 26  1  0
 22 24  2  0
 23 24  1  0
 25 27  1  0
 26 28  2  0
 27 29  2  0
 28 29  1  0
M  CHG  1   5   1
M  END
>  <PUBCHEM_COMPOUND_CID>  (1) 
19610

>  <PUBCHEM_CONFORMER_RMSD>  (1) 
1

>  <PUBCHEM_CONFORMER_DIVERSEORDER>  (1) 
21
151
114
78
242
285
294
7
290
189
266
186
260
248
127
201
22
45
264
194
69
298
226
168
32
302
261
74
174
251
215
257
38
132
142
309
204
106
308
68
200
183
117
273
20
244
62
152
165
220
140
197
202
64
135
301
39
196
103
239
179
187
303
46
279
112
297
99
178
160
19
286
185
171
31
258
166
54
206
84
250
216
227
144
41
134
137
256
126
11
98
277
73
198
82
274
81
87
237
120
61
79
305
23
15
155
4
253
265
193
180
287
199
243
33
63
13
217
3
233
115
26
36
271
34
110
25
304
43
192
27
275
113
307
154
170
90
102
190
218
121
95
281
150
234
209
293
164
176
148
156
40
50
6
44
72
138
2
263
207
230
52
173
12
125
75
208
88
282
111
163
219
109
280
228
143
249
57
300
169
17
268
100
278
276
129
147
289
5
210
149
80
91
67
56
70
18
159
267
238
108
203
172
128
85
283
299
259
71
123
235
221
93
97
158
1
28
161
295
205
89
225
76
291
51
96
255
136
55
306
14
59
133
153
42
252
105
49
139
162
229
191
284
58
269
167
141
94
214
124
37
296
211
16
10
246
224
119
146
231
104
66
292
157
83
272
241
145
222
175
8
35
86
236
262
107
223
131
232
101
92
130
254
30
240
60
184
29
195
77
212
177
65
122
288
270
116
47
181
245
24
9
182
53
48
247
188
213
118

>  <PUBCHEM_MMFF94_PARTIAL_CHARGES>  (1) 
36
1 -0.43
12 0.28
13 0.56
14 0.5
15 0.42
16 0.09
17 0.66
18 0.48
19 -0.15
2 -0.57
20 -0.15
21 -0.14
22 -0.15
23 -0.15
24 -0.15
25 -0.15
26 -0.15
27 -0.15
28 -0.15
29 -0.15
3 -0.57
4 -0.68
47 0.15
48 0.15
49 0.15
5 -1.01
50 0.15
51 0.4
52 0.15
53 0.15
54 0.15
55 0.15
56 0.15
57 0.15
6 0.5
7 0.5

>  <PUBCHEM_EFFECTIVE_ROTOR_COUNT>  (1) 
8.2

>  <PUBCHEM_PHARMACOPHORE_FEATURES>  (1) 
8
1 2 acceptor
1 3 acceptor
1 4 acceptor
1 4 donor
1 5 cation
6 16 19 20 22 23 24 rings
6 21 25 26 27 28 29 rings
8 5 6 7 8 9 10 11 12 rings

>  <PUBCHEM_HEAVY_ATOM_COUNT>  (1) 
29

>  <PUBCHEM_ATOM_DEF_STEREO_COUNT>  (1) 
0

>  <PUBCHEM_ATOM_UDEF_STEREO_COUNT>  (1) 
3

>  <PUBCHEM_BOND_DEF_STEREO_COUNT>  (1) 
0

>  <PUBCHEM_BOND_UDEF_STEREO_COUNT>  (1) 
0

>  <PUBCHEM_ISOTOPIC_ATOM_COUNT>  (1) 
0

>  <PUBCHEM_COMPONENT_COUNT>  (1) 
1

>  <PUBCHEM_CACTVS_TAUTO_COUNT>  (1) 
2

$$$$
