19619
     RDKit          3D

 16 16  0  0  0  0  0  0  0  0999 V2000
   -4.2117    1.6211    0.2724 O   0  0  0  0  0  0  0  0  0  0  0  0
    4.0391   -0.1228   -0.0125 N   0  0  0  0  0  0  0  0  0  0  0  0
   -4.8870   -0.5290   -0.1054 N   0  0  0  0  0  0  0  0  0  0  0  0
   -1.9670   -2.5419   -0.4311 N   0  0  0  0  0  0  0  0  0  0  0  0
    2.6515    0.1274    0.0261 C   0  0  0  0  0  0  0  0  0  0  0  0
   -0.0935    0.6196    0.1015 C   0  0  0  0  0  0  0  0  0  0  0  0
    1.9687    0.0860    1.2417 C   0  0  0  0  0  0  0  0  0  0  0  0
    1.9618    0.4148   -1.1518 C   0  0  0  0  0  0  0  0  0  0  0  0
    0.5962    0.3319    1.2794 C   0  0  0  0  0  0  0  0  0  0  0  0
    0.5894    0.6610   -1.1142 C   0  0  0  0  0  0  0  0  0  0  0  0
    4.6520   -1.0102    0.9558 C   0  0  0  0  0  0  0  0  0  0  0  0
    4.8679    0.4933   -1.0296 C   0  0  0  0  0  0  0  0  0  0  0  0
   -1.5245    0.8763    0.1415 C   0  0  0  0  0  0  0  0  0  0  0  0
   -2.5078   -0.0473   -0.0041 C   0  0  0  0  0  0  0  0  0  0  0  0
   -3.9274    0.4426    0.0695 C   0  0  0  0  0  0  0  0  0  0  0  0
   -2.2078   -1.4230   -0.2392 C   0  0  0  0  0  0  0  0  0  0  0  0
  1 15  2  0
  2  5  1  0
  2 11  1  0
  2 12  1  0
  3 15  1  0
  4 16  3  0
  5  7  2  0
  5  8  1  0
  6  9  2  0
  6 10  1  0
  6 13  1  0
  7  9  1  0
  8 10  2  0
 13 14  2  0
 14 15  1  0
 14 16  1  0
M  END
>  <PUBCHEM_COMPOUND_CID>  (1) 
19619

>  <PUBCHEM_CONFORMER_RMSD>  (1) 
0.6

>  <PUBCHEM_CONFORMER_DIVERSEORDER>  (1) 
1
12
10
9
4
13
2
6
5
7
14
11
3
8

>  <PUBCHEM_MMFF94_PARTIAL_CHARGES>  (1) 
23
1 -0.57
10 -0.15
11 0.37
12 0.37
13 -0.18
14 0.08
15 0.62
16 0.49
17 0.15
18 0.15
19 0.15
2 -0.84
20 0.15
27 0.15
28 0.37
29 0.37
3 -0.8
4 -0.56
5 0.1
6 0.03
7 -0.15
8 -0.15
9 -0.15

>  <PUBCHEM_EFFECTIVE_ROTOR_COUNT>  (1) 
3

>  <PUBCHEM_PHARMACOPHORE_FEATURES>  (1) 
5
1 1 acceptor
1 2 cation
1 3 donor
1 4 acceptor
6 5 6 7 8 9 10 rings

>  <PUBCHEM_HEAVY_ATOM_COUNT>  (1) 
16

>  <PUBCHEM_ATOM_DEF_STEREO_COUNT>  (1) 
0

>  <PUBCHEM_ATOM_UDEF_STEREO_COUNT>  (1) 
0

>  <PUBCHEM_BOND_DEF_STEREO_COUNT>  (1) 
0

>  <PUBCHEM_BOND_UDEF_STEREO_COUNT>  (1) 
1

>  <PUBCHEM_ISOTOPIC_ATOM_COUNT>  (1) 
0

>  <PUBCHEM_COMPONENT_COUNT>  (1) 
1

>  <PUBCHEM_CACTVS_TAUTO_COUNT>  (1) 
2

>  <PUBCHEM_CONFORMER_ID>  (1) 
00004CA300000001

>  <PUBCHEM_MMFF94_ENERGY>  (1) 
57.3489

>  <PUBCHEM_FEATURE_SELFOVERLAP>  (1) 
25.371

>  <PUBCHEM_SHAPE_FINGERPRINT>  (1) 
10465860 250 17989202638022838752
11132069 177 15769768070419911844
11401426 45 16805604793693186244
11471102 20 16298106488588717988
12236239 1 17967253087793210977
12346177 29 18131058377338690879
124424 183 17418374700904947177
12500047 106 18272084993985816127
13760787 19 18410858776454967582
14115302 16 18341337768041645293
15242433 33 18334577945148316990
15375358 24 17275385395582399508
17804303 29 18272650194655009891
17834072 33 18187085091321255620
18186145 218 15646769020419629234
19026448 5 18334576854395396380
19422 9 17894919572065635163
200 152 17675925386858656969
20279233 1 17346605187492894799
20645476 183 18113336436063857283
20645477 70 16298382423585014730
20681677 155 18335421283071830682
21119208 17 18040152920121594893
21618674 57 17489308564137163003
22485316 2 18411134753741521082
22854114 59 14333406744548608890
23175994 123 16773802510570378121
23402539 116 18201431455191266261
23402655 69 16370716024694808941
23557571 272 17774735155953550248
23559900 14 18131639976377403068
23598291 2 17969224597777214439
300161 21 18335415790399522148
474 4 17387703936081984396
57426455 114 18060132159021758891
58051976 100 18334860566559594479
81228 2 16986902084475145784

>  <PUBCHEM_SHAPE_MULTIPOLES>  (1) 
308.46
9.64
1.42
1.13
0.85
0.77
-0.07
0.39
0.25
-1.12
0.2
0.88
-0.05
-1

>  <PUBCHEM_SHAPE_SELFOVERLAP>  (1) 
638.971

>  <PUBCHEM_SHAPE_VOLUME>  (1) 
174.5

>  <PUBCHEM_COORDINATE_TYPE>  (1) 
2
5
10

$$$$
