19614
     RDKit          3D

 26 27  0  0  0  0  0  0  0  0999 V2000
   -7.1861   -1.3699    1.7984 S   0  0  0  0  0  0  0  0  0  0  0  0
    5.9186   -0.8254    0.4145 S   0  0  0  0  0  0  0  0  0  0  0  0
   -8.9215    1.9711   -0.7020 N   0  0  0  0  0  0  0  0  0  0  0  0
    9.8937    1.3244    0.3622 N   0  0  0  0  0  0  0  0  0  0  0  0
   -0.8763   -1.6184   -0.5463 C   0  0  0  0  0  0  0  0  0  0  0  0
    0.4391   -0.8950   -0.2490 C   0  0  0  0  0  0  0  0  0  0  0  0
   -2.0251   -1.0414    0.2835 C   0  0  0  0  0  0  0  0  0  0  0  0
    1.5830   -1.4484   -1.1005 C   0  0  0  0  0  0  0  0  0  0  0  0
   -3.3487   -1.7886    0.0933 C   0  0  0  0  0  0  0  0  0  0  0  0
    2.9054   -0.7473   -0.7801 C   0  0  0  0  0  0  0  0  0  0  0  0
   -4.5280   -1.2822    0.9341 C   0  0  0  0  0  0  0  0  0  0  0  0
    4.0571   -1.3361   -1.6015 C   0  0  0  0  0  0  0  0  0  0  0  0
   -5.8675   -1.9847    0.7105 C   0  0  0  0  0  0  0  0  0  0  0  0
    5.4078   -0.6777   -1.3227 C   0  0  0  0  0  0  0  0  0  0  0  0
   -7.8732   -0.0472    0.8085 C   0  0  0  0  0  0  0  0  0  0  0  0
    7.4923    0.0257    0.3937 C   0  0  0  0  0  0  0  0  0  0  0  0
   -7.3668    1.2440    0.9225 C   0  0  0  0  0  0  0  0  0  0  0  0
    7.6884    1.1479    1.1931 C   0  0  0  0  0  0  0  0  0  0  0  0
   -8.9149   -0.3079   -0.0767 C   0  0  0  0  0  0  0  0  0  0  0  0
    8.5224   -0.4334   -0.4216 C   0  0  0  0  0  0  0  0  0  0  0  0
   -7.9190    2.2499    0.1424 C   0  0  0  0  0  0  0  0  0  0  0  0
    8.9191    1.7878    1.1566 C   0  0  0  0  0  0  0  0  0  0  0  0
   -9.4280    0.7372   -0.8315 C   0  0  0  0  0  0  0  0  0  0  0  0
    9.7320    0.2465   -0.4173 C   0  0  0  0  0  0  0  0  0  0  0  0
   -9.4819    3.0503   -1.5100 C   0  0  0  0  0  0  0  0  0  0  0  0
   11.1780    2.0187    0.3456 C   0  0  0  0  0  0  0  0  0  0  0  0
  1 13  1  0
  1 15  1  0
  2 14  1  0
  2 16  1  0
  3 21  2  0
  3 23  1  0
  3 25  1  0
  4 22  2  0
  4 24  1  0
  4 26  1  0
  5  6  1  0
  5  7  1  0
  6  8  1  0
  7  9  1  0
  8 10  1  0
  9 11  1  0
 10 12  1  0
 11 13  1  0
 12 14  1  0
 15 17  2  0
 15 19  1  0
 16 18  2  0
 16 20  1  0
 17 21  1  0
 18 22  1  0
 19 23  2  0
 20 24  2  0
M  CHG  2   3   1   4   1
M  END
>  <PUBCHEM_COMPOUND_CID>  (1) 
19614

>  <PUBCHEM_CONFORMER_RMSD>  (1) 
1.6

>  <PUBCHEM_CONFORMER_DIVERSEORDER>  (1) 
1
5
29
21
36
32
8
31
7
24
28
2
25
39
51
35
26
48
33
19
14
44
6
42
4
17
34
38
11
9
40
3
20
52
50
18
49
13
30
37
12
27
41
47
10
23
15
46
16
22
43
45

>  <PUBCHEM_MMFF94_PARTIAL_CHARGES>  (1) 
26
1 -0.33
13 0.23
14 0.23
15 0.1
16 0.1
17 -0.15
18 -0.15
19 -0.15
2 -0.33
20 -0.15
21 0.21
22 0.21
23 0.21
24 0.21
25 0.49
26 0.49
3 -0.21
4 -0.21
47 0.15
48 0.15
49 0.15
50 0.15
51 0.15
52 0.15
53 0.15
54 0.15

>  <PUBCHEM_EFFECTIVE_ROTOR_COUNT>  (1) 
13

>  <PUBCHEM_PHARMACOPHORE_FEATURES>  (1) 
2
6 3 15 17 19 21 23 rings
6 4 16 18 20 22 24 rings

>  <PUBCHEM_HEAVY_ATOM_COUNT>  (1) 
26

>  <PUBCHEM_ATOM_DEF_STEREO_COUNT>  (1) 
0

>  <PUBCHEM_ATOM_UDEF_STEREO_COUNT>  (1) 
0

>  <PUBCHEM_BOND_DEF_STEREO_COUNT>  (1) 
0

>  <PUBCHEM_BOND_UDEF_STEREO_COUNT>  (1) 
0

>  <PUBCHEM_ISOTOPIC_ATOM_COUNT>  (1) 
0

>  <PUBCHEM_COMPONENT_COUNT>  (1) 
1

>  <PUBCHEM_CACTVS_TAUTO_COUNT>  (1) 
1

>  <PUBCHEM_CONFORMER_ID>  (1) 
00004C9E00000001

>  <PUBCHEM_MMFF94_ENERGY>  (1) 
54.6965

>  <PUBCHEM_FEATURE_SELFOVERLAP>  (1) 
10.149

>  <PUBCHEM_SHAPE_FINGERPRINT>  (1) 
10429389 143 18343586226977487875
10533779 1 17459745910468745005
11061554 47 18409167701358825357
11456790 92 17240492432703572109
12013929 2 18343589530509367710
131241 285 17846493764185176057
13553643 46 18342179977112310984
14202775 3 8790613615477314560
14395042 24 17676490540563293276
15247644 1 9799428715891951500
15461852 350 12679464179670574555
1754911 235 15913331299237147242
1818759 1 7925913672978537302
20105231 36 7997963571147350865
21362267 2 17917137404230583312
21362267 313 18113613444749282178
21927370 108 12107786303106869583
22149856 69 17748828493508692026
232437 2 8358262540684795538
23389318 12 16415760808424271495
306946 40 18412260627931534917
393628 179 18411418376724366021
437795 83 17203334347934877577
4516262 110 17988926652421144726
54039377 194 9223226347997382075
54728670 133 14563078201844573591
5719381 82 7997973466609536864
636775 8 10807933769781935815
9937071 3 11891328760344254352
9995097 26 9223227442781610086

>  <PUBCHEM_SHAPE_MULTIPOLES>  (1) 
532.8
50.43
2.58
1.4
28.03
1.54
-0.03
37.07
4.68
-4.6
-0.28
-0.77
0
5.46

>  <PUBCHEM_SHAPE_SELFOVERLAP>  (1) 
1036.527

>  <PUBCHEM_SHAPE_VOLUME>  (1) 
323

>  <PUBCHEM_COORDINATE_TYPE>  (1) 
2
5
10

$$$$
