19626
     RDKit          3D

 20 21  0  0  0  0  0  0  0  0999 V2000
   -6.1971    1.1813    0.1344 O   0  0  0  0  0  0  0  0  0  0  0  0
    5.5895    0.3790   -0.1807 N   0  0  0  0  0  0  0  0  0  0  0  0
    0.1008   -0.3895    0.6130 N   0  0  0  0  0  0  0  0  0  0  0  0
   -0.4745   -0.5428   -0.4900 N   0  0  0  0  0  0  0  0  0  0  0  0
    4.2067    0.1857    0.0191 C   0  0  0  0  0  0  0  0  0  0  0  0
    3.3454    1.2827    0.0447 C   0  0  0  0  0  0  0  0  0  0  0  0
    3.7003   -1.1027    0.1910 C   0  0  0  0  0  0  0  0  0  0  0  0
    1.4785   -0.1959    0.4135 C   0  0  0  0  0  0  0  0  0  0  0  0
    1.9779    1.0914    0.2426 C   0  0  0  0  0  0  0  0  0  0  0  0
    2.3328   -1.2939    0.3887 C   0  0  0  0  0  0  0  0  0  0  0  0
    6.2323    1.5983    0.2671 C   0  0  0  0  0  0  0  0  0  0  0  0
    6.3882   -0.6452   -0.8241 C   0  0  0  0  0  0  0  0  0  0  0  0
   -4.0752    0.1671   -0.0663 C   0  0  0  0  0  0  0  0  0  0  0  0
   -1.8455   -0.7357   -0.2909 C   0  0  0  0  0  0  0  0  0  0  0  0
   -2.7080    0.3603   -0.2645 C   0  0  0  0  0  0  0  0  0  0  0  0
   -4.5798   -1.1219    0.1056 C   0  0  0  0  0  0  0  0  0  0  0  0
   -2.3502   -2.0247   -0.1189 C   0  0  0  0  0  0  0  0  0  0  0  0
   -3.7174   -2.2178    0.0792 C   0  0  0  0  0  0  0  0  0  0  0  0
   -4.9749    1.3095   -0.0385 C   0  0  0  0  0  0  0  0  0  0  0  0
   -4.4296    2.7148   -0.2251 C   0  0  0  0  0  0  0  0  0  0  0  0
  1 19  2  0
  2  5  1  0
  2 11  1  0
  2 12  1  0
  3  4  2  0
  3  8  1  0
  4 14  1  0
  5  6  2  0
  5  7  1  0
  6  9  1  0
  7 10  2  0
  8  9  2  0
  8 10  1  0
 13 15  2  0
 13 16  1  0
 13 19  1  0
 14 15  1  0
 14 17  2  0
 16 18  2  0
 17 18  1  0
 19 20  1  0
M  END
>  <PUBCHEM_COMPOUND_CID>  (1) 
19626

>  <PUBCHEM_CONFORMER_RMSD>  (1) 
0.6

>  <PUBCHEM_CONFORMER_DIVERSEORDER>  (1) 
1
7
20
10
17
19
5
14
13
18
9
11
16
15
12
4
2
8
3
6

>  <PUBCHEM_MMFF94_PARTIAL_CHARGES>  (1) 
28
1 -0.57
10 -0.15
11 0.37
12 0.37
13 0.09
14 0.18
15 -0.15
16 -0.15
17 -0.15
18 -0.15
19 0.42
2 -0.84
20 0.06
21 0.15
22 0.15
23 0.15
24 0.15
3 -0.18
31 0.15
32 0.15
33 0.15
34 0.15
4 -0.18
5 0.1
6 -0.15
7 -0.15
8 0.18
9 -0.15

>  <PUBCHEM_EFFECTIVE_ROTOR_COUNT>  (1) 
4

>  <PUBCHEM_PHARMACOPHORE_FEATURES>  (1) 
4
1 1 acceptor
1 2 cation
6 13 14 15 16 17 18 rings
6 5 6 7 8 9 10 rings

>  <PUBCHEM_HEAVY_ATOM_COUNT>  (1) 
20

>  <PUBCHEM_ATOM_DEF_STEREO_COUNT>  (1) 
0

>  <PUBCHEM_ATOM_UDEF_STEREO_COUNT>  (1) 
0

>  <PUBCHEM_BOND_DEF_STEREO_COUNT>  (1) 
0

>  <PUBCHEM_BOND_UDEF_STEREO_COUNT>  (1) 
0

>  <PUBCHEM_ISOTOPIC_ATOM_COUNT>  (1) 
0

>  <PUBCHEM_COMPONENT_COUNT>  (1) 
1

>  <PUBCHEM_CACTVS_TAUTO_COUNT>  (1) 
2

>  <PUBCHEM_CONFORMER_ID>  (1) 
00004CAA00000001

>  <PUBCHEM_MMFF94_ENERGY>  (1) 
71.5401

>  <PUBCHEM_FEATURE_SELFOVERLAP>  (1) 
20.297

>  <PUBCHEM_SHAPE_FINGERPRINT>  (1) 
10411042 1 17977947123197120011
10595046 47 18335137652390977694
10835480 77 18201996664350382320
10912923 1 17749099015611598234
11315181 36 17895755213592604471
12107183 9 17903348213255556187
12236239 1 18412262852698096914
12616971 3 16370730352442152966
12788726 201 17702664328693661625
13073987 5 18261108577869400506
13167372 99 18407758128005806600
14251752 14 18411419471508217522
14251764 18 18408884040702430195
14251764 75 17552085000849551553
14341114 176 18409172090730700037
14933364 13 18411141337604762312
15048467 5 18408603660604789316
15183329 4 18271529706533521714
15196674 1 18410572898825607026
15716309 27 12396300365604546937
15778101 99 18411140212792764281
15788980 27 17418092143791630854
16079462 125 17846487163099529696
17834072 8 18131071511005575964
17844677 252 18338242668647974224
20281389 69 18333729091737891016
20621476 66 18272093751799043041
20645477 56 18410011018740808173
20645477 70 16988288573164788750
20681677 155 18334574659155665378
21033648 29 17917134096202827504
21065198 48 18260821596960926539
21065198 57 18410854395103191299
21267235 1 18336834194727735283
21421861 104 17678163902950413274
21709351 56 18410569625854598268
220451 1 17530682109080967322
23081809 10 17821727260874934738
23198884 109 18273215279296997481
23402539 116 18341890813863675270
23402655 69 18409727365851908946
23536379 177 18410011048731849810
23559900 14 18201712989854401216
2916195 48 18269548498423772080
29717793 49 17489594437793192420
300161 21 18408035212829465562
3004659 81 18409732825383401494
3545911 37 18412263926234166641
4073 2 18113904909450775154
4214541 1 18410855477656210107
445580 37 18410586080317888460
4463277 17 18411701002393466376
5104073 3 18260260850146114282
542803 24 17385442133214950518
59755656 215 18342462487407527294
59755656 520 17022623078515431291
6327066 14 18190171288329917077
7062679 6 18334580130938751573
77779 3 18409728490859176859
90127 26 18336551615643346848

>  <PUBCHEM_SHAPE_MULTIPOLES>  (1) 
390.78
16.25
2.19
0.7
8.7
0.4
-0.02
5.33
-1.21
-2.57
-0.01
0.27
-0.04
0.37

>  <PUBCHEM_SHAPE_SELFOVERLAP>  (1) 
829.709

>  <PUBCHEM_SHAPE_VOLUME>  (1) 
220.3

>  <PUBCHEM_COORDINATE_TYPE>  (1) 
2
5
10

$$$$
