19620
     RDKit          3D

 30 31  0  0  0  0  0  0  0  0999 V2000
    1.5212   -1.9925    0.1944 N   0  0  0  0  0  0  0  0  0  0  0  0
    0.3736    2.5541    0.1487 N   0  0  0  0  0  0  0  0  0  0  0  0
    0.9776    0.2883    0.1778 N   0  0  0  0  0  0  0  0  0  0  0  0
   -1.3000    0.9470   -0.1911 N   0  0  0  0  0  0  0  0  0  0  0  0
   -0.7127   -1.3793   -0.1678 N   0  0  0  0  0  0  0  0  0  0  0  0
    6.1880   -0.8647   -0.5117 N   0  0  0  0  0  0  0  0  0  0  0  0
    0.0774   -6.4931    1.2936 N   0  0  0  0  0  0  0  0  0  0  0  0
    5.0977    3.4956   -0.4378 N   0  0  0  0  0  0  0  0  0  0  0  0
   -3.2211    5.6692    1.1090 N   0  0  0  0  0  0  0  0  0  0  0  0
    2.9093   -1.6499    0.4295 C   0  0  0  0  0  0  0  0  0  0  0  0
    1.1459   -3.3874    0.0831 C   0  0  0  0  0  0  0  0  0  0  0  0
    1.7519    2.9145    0.4112 C   0  0  0  0  0  0  0  0  0  0  0  0
   -0.6183    3.6011    0.0128 C   0  0  0  0  0  0  0  0  0  0  0  0
    0.5482   -0.9786    0.0619 C   0  0  0  0  0  0  0  0  0  0  0  0
   -0.0011    1.1972    0.0399 C   0  0  0  0  0  0  0  0  0  0  0  0
    3.6573   -1.4766   -0.8882 C   0  0  0  0  0  0  0  0  0  0  0  0
    0.7563   -3.9559    1.4435 C   0  0  0  0  0  0  0  0  0  0  0  0
    2.5813    2.8596   -0.8673 C   0  0  0  0  0  0  0  0  0  0  0  0
   -1.3974    3.7838    1.3110 C   0  0  0  0  0  0  0  0  0  0  0  0
   -1.5820   -0.3626   -0.2831 C   0  0  0  0  0  0  0  0  0  0  0  0
   -2.9635   -0.7141   -0.5311 C   0  0  0  0  0  0  0  0  0  0  0  0
   -3.9874    0.1111   -0.0654 C   0  0  0  0  0  0  0  0  0  0  0  0
   -3.2717   -1.8774   -1.2362 C   0  0  0  0  0  0  0  0  0  0  0  0
    5.0716   -1.1346   -0.6765 C   0  0  0  0  0  0  0  0  0  0  0  0
    0.3770   -5.3740    1.3585 C   0  0  0  0  0  0  0  0  0  0  0  0
    3.9875    3.2152   -0.6260 C   0  0  0  0  0  0  0  0  0  0  0  0
   -2.4163    4.8378    1.1970 C   0  0  0  0  0  0  0  0  0  0  0  0
   -5.3193   -0.2274   -0.3045 C   0  0  0  0  0  0  0  0  0  0  0  0
   -4.6037   -2.2157   -1.4755 C   0  0  0  0  0  0  0  0  0  0  0  0
   -5.6274   -1.3906   -1.0095 C   0  0  0  0  0  0  0  0  0  0  0  0
  1 10  1  0
  1 11  1  0
  1 14  1  0
  2 12  1  0
  2 13  1  0
  2 15  1  0
  3 14  2  0
  3 15  1  0
  4 15  2  0
  4 20  1  0
  5 14  1  0
  5 20  2  0
  6 24  3  0
  7 25  3  0
  8 26  3  0
  9 27  3  0
 10 16  1  0
 11 17  1  0
 12 18  1  0
 13 19  1  0
 16 24  1  0
 17 25  1  0
 18 26  1  0
 19 27  1  0
 20 21  1  0
 21 22  2  0
 21 23  1  0
 22 28  1  0
 23 29  2  0
 28 30  2  0
 29 30  1  0
M  END
>  <PUBCHEM_COMPOUND_CID>  (1) 
19620

>  <PUBCHEM_CONFORMER_RMSD>  (1) 
1

>  <PUBCHEM_CONFORMER_DIVERSEORDER>  (1) 
1
12
48
187
152
26
174
27
85
89
115
194
119
63
11
122
4
118
131
3
106
123
193
136
84
143
23
185
40
180
162
24
33
104
117
178
168
17
107
108
192
175
32
87
141
181
92
94
130
144
96
18
160
39
171
156
157
150
111
75
134
126
53
28
66
167
177
172
140
188
90
35
56
158
147
2
71
133
165
109
121
154
196
170
139
69
159
155
88
132
76
77
200
199
46
138
184
97
173
34
179
25
41
176
164
93
161
54
101
65
127
105
15
62
191
183
99
78
149
151
74
79
163
124
153
169
137
42
57
182
125
83
73
72
21
145
148
112
198
102
142
5
91
129
195
201
44
95
114
13
128
189
49
60
110
47
51
86
100
52
146
81
43
202
82
58
59
55
190
120
98
50
37
9
36
166
31
103
113
70
19
80
61
197
68
64
6
135
67
8
30
16
10
22
14
29
45
38
186
7
116
20

>  <PUBCHEM_MMFF94_PARTIAL_CHARGES>  (1) 
34
1 -0.84
10 0.37
11 0.37
12 0.37
13 0.37
14 0.72
15 0.72
16 0.2
17 0.2
18 0.2
19 0.2
2 -0.84
20 0.62
22 -0.15
23 -0.15
24 0.36
25 0.36
26 0.36
27 0.36
28 -0.15
29 -0.15
3 -0.62
30 -0.15
4 -0.62
47 0.15
48 0.15
49 0.15
5 -0.62
50 0.15
51 0.15
6 -0.56
7 -0.56
8 -0.56
9 -0.56

>  <PUBCHEM_EFFECTIVE_ROTOR_COUNT>  (1) 
11

>  <PUBCHEM_PHARMACOPHORE_FEATURES>  (1) 
8
1 6 acceptor
1 7 acceptor
1 8 acceptor
1 9 acceptor
4 1 3 5 14 cation
4 2 3 4 15 cation
6 21 22 23 28 29 30 rings
6 3 4 5 14 15 20 rings

>  <PUBCHEM_HEAVY_ATOM_COUNT>  (1) 
30

>  <PUBCHEM_ATOM_DEF_STEREO_COUNT>  (1) 
0

>  <PUBCHEM_ATOM_UDEF_STEREO_COUNT>  (1) 
0

>  <PUBCHEM_BOND_DEF_STEREO_COUNT>  (1) 
0

>  <PUBCHEM_BOND_UDEF_STEREO_COUNT>  (1) 
0

>  <PUBCHEM_ISOTOPIC_ATOM_COUNT>  (1) 
0

>  <PUBCHEM_COMPONENT_COUNT>  (1) 
1

>  <PUBCHEM_CACTVS_TAUTO_COUNT>  (1) 
1

>  <PUBCHEM_CONFORMER_ID>  (1) 
00004CA400000001

>  <PUBCHEM_MMFF94_ENERGY>  (1) 
73.676

>  <PUBCHEM_FEATURE_SELFOVERLAP>  (1) 
40.641

>  <PUBCHEM_SHAPE_FINGERPRINT>  (1) 
10693767 8 18058438983908259439
1100329 8 18335978783287331242
12553582 1 18339908334702516711
12788726 201 18268423534756645755
13140716 1 18410296942998007451
13911987 19 18187657907142285830
14681490 219 18270683181032742116
14790565 3 18410865330179675608
15439362 3 18192709166359727668
16112460 7 18124046869183073235
18681886 176 18130211766386866879
20775438 99 18197769115182798150
21583282 1 17178311511279064766
23558518 356 18339643330613980936
266924 87 18412546543488438796
283562 15 18410854317994220634
352729 6 17113521070746711919
463206 1 18123466348253822756

>  <PUBCHEM_SHAPE_MULTIPOLES>  (1) 
572.56
10.06
8.84
1.23
1.26
0.27
-0.17
-0.36
5.08
-0.01
-5.8
-0.53
0.49
-2.49

>  <PUBCHEM_SHAPE_SELFOVERLAP>  (1) 
1180.854

>  <PUBCHEM_SHAPE_VOLUME>  (1) 
308.4

>  <PUBCHEM_COORDINATE_TYPE>  (1) 
2
5
10

$$$$
