19625
     RDKit          3D

 18 19  0  0  0  0  0  0  0  0999 V2000
   -5.5506    2.2091   -0.1042 Cl  0  0  0  0  0  0  0  0  0  0  0  0
    5.0410    0.1445   -0.1863 N   0  0  0  0  0  0  0  0  0  0  0  0
   -0.4941   -0.1263    0.6110 N   0  0  0  0  0  0  0  0  0  0  0  0
   -1.0800   -0.2588   -0.4891 N   0  0  0  0  0  0  0  0  0  0  0  0
    3.6465    0.0765    0.0144 C   0  0  0  0  0  0  0  0  0  0  0  0
    2.8831    1.2440    0.0084 C   0  0  0  0  0  0  0  0  0  0  0  0
    3.0307   -1.1584    0.2190 C   0  0  0  0  0  0  0  0  0  0  0  0
    0.8884   -0.0580    0.4116 C   0  0  0  0  0  0  0  0  0  0  0  0
    1.5041    1.1768    0.2071 C   0  0  0  0  0  0  0  0  0  0  0  0
    1.6517   -1.2255    0.4176 C   0  0  0  0  0  0  0  0  0  0  0  0
    5.7863    1.3153    0.2310 C   0  0  0  0  0  0  0  0  0  0  0  0
    5.7488   -0.9616   -0.7999 C   0  0  0  0  0  0  0  0  0  0  0  0
   -2.4693   -0.3275   -0.2883 C   0  0  0  0  0  0  0  0  0  0  0  0
   -3.2273    0.8394   -0.2948 C   0  0  0  0  0  0  0  0  0  0  0  0
   -3.0770   -1.5628   -0.0847 C   0  0  0  0  0  0  0  0  0  0  0  0
   -4.6063    0.7704   -0.0958 C   0  0  0  0  0  0  0  0  0  0  0  0
   -4.4556   -1.6318    0.1143 C   0  0  0  0  0  0  0  0  0  0  0  0
   -5.2204   -0.4653    0.1086 C   0  0  0  0  0  0  0  0  0  0  0  0
  1 16  1  0
  2  5  1  0
  2 11  1  0
  2 12  1  0
  3  4  2  0
  3  8  1  0
  4 13  1  0
  5  6  2  0
  5  7  1  0
  6  9  1  0
  7 10  2  0
  8  9  2  0
  8 10  1  0
 13 14  2  0
 13 15  1  0
 14 16  1  0
 15 17  2  0
 16 18  2  0
 17 18  1  0
M  END
>  <PUBCHEM_COMPOUND_CID>  (1) 
19625

>  <PUBCHEM_CONFORMER_RMSD>  (1) 
0.6

>  <PUBCHEM_CONFORMER_DIVERSEORDER>  (1) 
1
5
3
8
6
2
4
7

>  <PUBCHEM_MMFF94_PARTIAL_CHARGES>  (1) 
26
1 -0.18
10 -0.15
11 0.37
12 0.37
13 0.18
14 -0.15
15 -0.15
16 0.18
17 -0.15
18 -0.15
19 0.15
2 -0.84
20 0.15
21 0.15
22 0.15
29 0.15
3 -0.18
30 0.15
31 0.15
32 0.15
4 -0.18
5 0.1
6 -0.15
7 -0.15
8 0.18
9 -0.15

>  <PUBCHEM_EFFECTIVE_ROTOR_COUNT>  (1) 
3

>  <PUBCHEM_PHARMACOPHORE_FEATURES>  (1) 
3
1 2 cation
6 13 14 15 16 17 18 rings
6 5 6 7 8 9 10 rings

>  <PUBCHEM_HEAVY_ATOM_COUNT>  (1) 
18

>  <PUBCHEM_ATOM_DEF_STEREO_COUNT>  (1) 
0

>  <PUBCHEM_ATOM_UDEF_STEREO_COUNT>  (1) 
0

>  <PUBCHEM_BOND_DEF_STEREO_COUNT>  (1) 
0

>  <PUBCHEM_BOND_UDEF_STEREO_COUNT>  (1) 
0

>  <PUBCHEM_ISOTOPIC_ATOM_COUNT>  (1) 
0

>  <PUBCHEM_COMPONENT_COUNT>  (1) 
1

>  <PUBCHEM_CACTVS_TAUTO_COUNT>  (1) 
1

>  <PUBCHEM_CONFORMER_ID>  (1) 
00004CA900000001

>  <PUBCHEM_MMFF94_ENERGY>  (1) 
62.3839

>  <PUBCHEM_FEATURE_SELFOVERLAP>  (1) 
15.223

>  <PUBCHEM_SHAPE_FINGERPRINT>  (1) 
10595046 47 18335420222209672623
10912923 1 17748819726456606699
11287383 113 18410856598790354498
11315181 36 17967814989758560461
11858739 19 17703514303259434358
12107183 9 17760080723032875065
12236239 1 18131634491002636882
13073987 5 18333448729474078659
13167823 11 18410290345712073167
13533116 47 14620524381253918118
13760787 19 18409444769867830019
14251731 8 18342458127757122141
14251764 18 18272654554558401377
14341114 176 18411142441268776693
15048467 5 18335701628519887901
15183329 4 18342178808716844024
15196674 1 18410009935696958066
15778101 99 18410858716578866801
15788980 27 17418372510413610517
17834072 33 18412262860966213182
17834072 8 18272650117287680277
17844677 252 18411707616152803689
200 152 18202847672858275771
20281389 69 18187643566346431533
20621476 66 18129669591332479809
20645477 56 18334574608401891677
20645477 70 18201725024991132846
20681677 155 18334293167252117723
21267235 1 18336552702734490867
21709351 56 18335696173969204405
220451 1 17530684290618307666
2297311 6 18411987966243325501
23402539 116 18334008406356257132
23402655 69 18410008827600696443
23536379 177 18410573985573437952
23557571 272 18410860953602544693
23559900 14 18272080625999152513
2916195 48 18341043133786579240
29717793 49 17561086865511108980
300161 21 18260822687903263687
3004659 81 18408606925439577190
3545911 37 18410292502133516545
4073 2 18041284356589845026
4214541 1 18410573985710704777
42788 4 18410855473266303746
4463277 17 18411982468627365568
4990 188 18342182171961261998
5104073 3 18333726909957393345
542803 24 17894633642864947320
59755656 215 18341616954085754086
59755656 520 16805326578496297355
6327066 14 18044647604521369237
633830 44 18260542376883828366
77779 3 18409448098572713043

>  <PUBCHEM_SHAPE_MULTIPOLES>  (1) 
357.36
15.07
1.79
0.71
2.98
0.29
-0.02
2.82
-1.41
-1.45
0.01
0.2
-0.04
0.43

>  <PUBCHEM_SHAPE_SELFOVERLAP>  (1) 
749.581

>  <PUBCHEM_SHAPE_VOLUME>  (1) 
203.7

>  <PUBCHEM_COORDINATE_TYPE>  (1) 
2
5
10

$$$$
