19637
     RDKit          3D

 18 19  0  0  0  0  0  0  0  0999 V2000
   -6.1123    0.9161    1.0131 F   0  0  0  0  0  0  0  0  0  0  0  0
    5.8572    0.6238    0.6654 O   0  0  0  0  0  0  0  0  0  0  0  0
   -0.7430   -0.2959   -1.9962 O   0  0  0  0  0  0  0  0  0  0  0  0
    3.1821    0.1053   -0.1570 N   0  0  0  0  0  0  0  0  0  0  0  0
    1.7468   -0.0037    0.0957 C   0  0  0  0  0  0  0  0  0  0  0  0
    3.9314   -0.8520    0.6686 C   0  0  0  0  0  0  0  0  0  0  0  0
    3.6552    1.4721    0.1024 C   0  0  0  0  0  0  0  0  0  0  0  0
    1.2536   -1.4090   -0.2547 C   0  0  0  0  0  0  0  0  0  0  0  0
    5.4266   -0.7111    0.3972 C   0  0  0  0  0  0  0  0  0  0  0  0
    5.1566    1.5580   -0.1567 C   0  0  0  0  0  0  0  0  0  0  0  0
   -0.2488   -1.5751   -0.0102 C   0  0  0  0  0  0  0  0  0  0  0  0
   -1.1068   -0.6715   -0.8843 C   0  0  0  0  0  0  0  0  0  0  0  0
   -2.4433   -0.2477   -0.3777 C   0  0  0  0  0  0  0  0  0  0  0  0
   -3.1269   -1.0908    0.4694 C   0  0  0  0  0  0  0  0  0  0  0  0
   -2.9446    0.9717   -0.7755 C   0  0  0  0  0  0  0  0  0  0  0  0
   -4.3774   -0.6942    0.9435 C   0  0  0  0  0  0  0  0  0  0  0  0
   -4.1950    1.3685   -0.3014 C   0  0  0  0  0  0  0  0  0  0  0  0
   -4.9114    0.5356    0.5582 C   0  0  0  0  0  0  0  0  0  0  0  0
  1 18  1  0
  2  9  1  0
  2 10  1  0
  3 12  2  0
  4  5  1  0
  4  6  1  0
  4  7  1  0
  5  8  1  0
  6  9  1  0
  7 10  1  0
  8 11  1  0
 11 12  1  0
 12 13  1  0
 13 14  2  0
 13 15  1  0
 14 16  1  0
 15 17  2  0
 16 18  2  0
 17 18  1  0
M  END
>  <PUBCHEM_COMPOUND_CID>  (1) 
19637

>  <PUBCHEM_CONFORMER_RMSD>  (1) 
0.8

>  <PUBCHEM_CONFORMER_DIVERSEORDER>  (1) 
1
16
31
6
46
32
4
48
24
37
34
41
20
44
26
47
29
18
25
28
39
40
38
30
33
27
14
11
42
2
49
43
36
9
3
12
10
21
45
5
19
13
15
35
23
7
22
8
17

>  <PUBCHEM_MMFF94_PARTIAL_CHARGES>  (1) 
21
1 -0.19
10 0.28
11 0.06
12 0.42
13 0.09
14 -0.15
15 -0.15
16 -0.15
17 -0.15
18 0.19
2 -0.56
3 -0.57
33 0.15
34 0.15
35 0.15
36 0.15
4 -0.81
5 0.27
6 0.27
7 0.27
9 0.28

>  <PUBCHEM_EFFECTIVE_ROTOR_COUNT>  (1) 
6.2

>  <PUBCHEM_PHARMACOPHORE_FEATURES>  (1) 
5
1 2 acceptor
1 3 acceptor
1 4 cation
6 13 14 15 16 17 18 rings
6 2 4 6 7 9 10 rings

>  <PUBCHEM_HEAVY_ATOM_COUNT>  (1) 
18

>  <PUBCHEM_ATOM_DEF_STEREO_COUNT>  (1) 
0

>  <PUBCHEM_ATOM_UDEF_STEREO_COUNT>  (1) 
0

>  <PUBCHEM_BOND_DEF_STEREO_COUNT>  (1) 
0

>  <PUBCHEM_BOND_UDEF_STEREO_COUNT>  (1) 
0

>  <PUBCHEM_ISOTOPIC_ATOM_COUNT>  (1) 
0

>  <PUBCHEM_COMPONENT_COUNT>  (1) 
1

>  <PUBCHEM_CACTVS_TAUTO_COUNT>  (1) 
2

>  <PUBCHEM_CONFORMER_ID>  (1) 
00004CB500000001

>  <PUBCHEM_MMFF94_ENERGY>  (1) 
35.5327

>  <PUBCHEM_FEATURE_SELFOVERLAP>  (1) 
25.371

>  <PUBCHEM_SHAPE_FINGERPRINT>  (1) 
100836 57 18273216404393624224
10354089 29 18260548922704059800
11045977 3 17967816067468375793
11089746 13 16200423676907270778
11458722 120 18272928315647345258
12236239 1 17775281660060015582
12507560 40 18261675848997511471
12516196 113 11458425747526079678
12555020 224 9151166533519644169
12596602 18 17894914044152900313
12670543 26 11743845737739680963
13288520 33 8214142958815197867
13668630 136 12035450523297915048
13685833 64 7925623415305441725
13785724 45 17835238948853141954
1420 369 12757143563380566104
14251752 14 10015598185588307275
14341114 176 18113622270036467988
14848160 23 8502656991560036292
15183329 4 13470415448063891700
15188451 53 16153716478873062411
17834072 8 12967130501840333961
1813 80 14996287981008428606
18222031 100 12396298154081576102
193927 3 12035733067816167593
19784866 240 10881402015320365235
19784866 9 18412259506850177242
20281389 69 18343299262515790168
20374829 77 10303819765171976782
20612939 158 15841002056891320199
20621476 66 18342177817291860452
21065199 12 18040997293818262843
212847 35 18202843262538721096
21637258 2 12685094821554889809
221357 26 11095882644786544667
22224240 67 18187366532719209787
23198884 109 15410897357680573001
23402539 116 14692569914148036954
23403322 49 9079116661426180197
23559900 14 18043832904247295279
2767999 5 17203889651933576336
2838139 119 17774716489766953017
2871803 45 10735883872103849892
2916195 48 18131062788190774648
300161 21 16128370485231939542
314173 85 15791728602970742071
314194 84 10953461812597544196
351380 3 12901547948583838321
4325135 7 17846495955409183391
449060 50 18408887308929955943
465052 167 12179851588981772392
5104073 3 18189604111980275570
542803 24 18342737429538390314
5924683 9 18262518229565947683
59682541 52 14979689736511820436
8272917 22 18271808995741741766
960060 61 12463572906993011898
9996256 80 18342173414143462079

>  <PUBCHEM_SHAPE_MULTIPOLES>  (1) 
346.44
14.43
1.58
1.04
5.35
0.14
-0.28
4.88
4.95
0.42
0.02
-0.68
-0.04
0.03

>  <PUBCHEM_SHAPE_SELFOVERLAP>  (1) 
716.057

>  <PUBCHEM_SHAPE_VOLUME>  (1) 
199

>  <PUBCHEM_COORDINATE_TYPE>  (1) 
2
5
10

$$$$
