19634
     RDKit          3D

 15 15  0  0  0  0  0  0  0  0999 V2000
   -0.3896    3.4923   -0.3729 F   0  0  0  0  0  0  0  0  0  0  0  0
   -1.8005   -0.9027   -0.0022 N   0  0  0  0  0  0  0  0  0  0  0  0
    0.4911   -0.4102    0.0661 N   0  0  0  0  0  0  0  0  0  0  0  0
    2.7689    0.1435    0.1268 N   0  0  0  0  0  0  0  0  0  0  0  0
   -1.1329    1.3371   -0.1938 N   0  0  0  0  0  0  0  0  0  0  0  0
    1.2053    1.8724   -0.1281 N   0  0  0  0  0  0  0  0  0  0  0  0
   -1.5051   -2.3209    0.1561 C   0  0  0  0  0  0  0  0  0  0  0  0
   -3.1975   -0.4993   -0.1007 C   0  0  0  0  0  0  0  0  0  0  0  0
   -0.7761    0.0431   -0.0449 C   0  0  0  0  0  0  0  0  0  0  0  0
   -1.1071   -2.9235   -1.1775 C   0  0  0  0  0  0  0  0  0  0  0  0
   -3.6960   -0.0100    1.2455 C   0  0  0  0  0  0  0  0  0  0  0  0
    1.4231    0.5552    0.0163 C   0  0  0  0  0  0  0  0  0  0  0  0
    3.1507   -1.2250    0.2847 C   0  0  0  0  0  0  0  0  0  0  0  0
   -0.0958    2.1894   -0.2269 C   0  0  0  0  0  0  0  0  0  0  0  0
    4.6612   -1.3415    0.3514 C   0  0  0  0  0  0  0  0  0  0  0  0
  1 14  1  0
  2  7  1  0
  2  8  1  0
  2  9  1  0
  3  9  2  0
  3 12  1  0
  4 12  1  0
  4 13  1  0
  5  9  1  0
  5 14  2  0
  6 12  2  0
  6 14  1  0
  7 10  1  0
  8 11  1  0
 13 15  1  0
M  END
>  <PUBCHEM_COMPOUND_CID>  (1) 
19634

>  <PUBCHEM_CONFORMER_RMSD>  (1) 
0.6

>  <PUBCHEM_CONFORMER_DIVERSEORDER>  (1) 
1
44
41
54
55
61
58
38
18
22
34
47
53
28
39
49
59
57
63
6
27
32
7
51
13
42
56
4
31
62
17
16
64
21
25
24
29
30
60
45
12
19
26
33
15
3
43
11
37
40
50
46
52
8
9
5
36
35
48
10
23
20
14
2

>  <PUBCHEM_MMFF94_PARTIAL_CHARGES>  (1) 
13
1 -0.19
12 0.72
13 0.37
14 0.81
2 -0.84
28 0.4
3 -0.62
4 -0.87
5 -0.62
6 -0.62
7 0.37
8 0.37
9 0.72

>  <PUBCHEM_EFFECTIVE_ROTOR_COUNT>  (1) 
5

>  <PUBCHEM_PHARMACOPHORE_FEATURES>  (1) 
4
1 4 donor
4 2 3 5 9 cation
4 3 4 6 12 cation
6 3 5 6 9 12 14 rings

>  <PUBCHEM_HEAVY_ATOM_COUNT>  (1) 
15

>  <PUBCHEM_ATOM_DEF_STEREO_COUNT>  (1) 
0

>  <PUBCHEM_ATOM_UDEF_STEREO_COUNT>  (1) 
0

>  <PUBCHEM_BOND_DEF_STEREO_COUNT>  (1) 
0

>  <PUBCHEM_BOND_UDEF_STEREO_COUNT>  (1) 
0

>  <PUBCHEM_ISOTOPIC_ATOM_COUNT>  (1) 
0

>  <PUBCHEM_COMPONENT_COUNT>  (1) 
1

>  <PUBCHEM_CACTVS_TAUTO_COUNT>  (1) 
4

>  <PUBCHEM_CONFORMER_ID>  (1) 
00004CB200000001

>  <PUBCHEM_MMFF94_ENERGY>  (1) 
34.7274

>  <PUBCHEM_FEATURE_SELFOVERLAP>  (1) 
20.34

>  <PUBCHEM_SHAPE_FINGERPRINT>  (1) 
11357001 24 18190456061123468824
12507560 14 18342178890621864037
12553582 1 18409163325098373594
13140716 1 18339926029619330898
14178342 30 17909257323592261816
15279308 51 18197776807009678127
15375462 189 18113897161034302546
15442244 35 18339927146495203555
16945 1 18193274324200443941
18511873 20 18412830213345729979
20510252 161 18199181781285932080
20645477 70 17326594299459794495
20671657 1 18194412318714093021
20711985 365 18335981974152204428
207724 885 18338520836800352683
20871998 184 18268145353724010126
21029758 27 18260559912961062748
21501502 16 18124317370079797135
22445834 79 17978799230984136579
22959321 94 18335129870131946242
23184049 59 18412834590001735707
23402539 116 18271795792484285471
23463225 33 18410296938333729342
23552423 10 17762055840900487559
23557571 272 18200602393807194244
23598291 2 18197500825143210223
23598294 1 18191859020944042536
2748010 2 17979637831632718742
34934 24 18337383963188790992
352729 6 17905039262223789396
57426455 70 18335711528651419131
6992083 37 18342184392290555507
7364860 26 17979354488466572896
74978 22 18195811997126729439
81228 2 18336551499774409024

>  <PUBCHEM_SHAPE_MULTIPOLES>  (1) 
276.51
5.96
3.19
0.83
4.68
1
0.04
-3.15
1.93
-0.59
-1.01
-0.46
-0.27
-0.46

>  <PUBCHEM_SHAPE_SELFOVERLAP>  (1) 
548.072

>  <PUBCHEM_SHAPE_VOLUME>  (1) 
164.9

>  <PUBCHEM_COORDINATE_TYPE>  (1) 
2
5
10

$$$$
