19636
     RDKit          3D

 12 12  0  0  1  0  0  0  0  0999 V2000
    0.9677   -2.2415    0.4022 F   0  0  0  0  0  0  0  0  0  0  0  0
   -3.3447   -0.0556   -0.1294 N   0  0  0  0  0  0  0  0  0  0  0  0
   -3.6095    0.5930    1.1112 N   0  0  0  0  0  0  0  0  0  0  0  0
   -1.9616    0.2452   -0.5103 C   0  0  0  0  0  0  0  0  0  0  0  0
   -1.0070   -0.2295    0.6006 C   0  0  0  0  0  0  0  0  0  0  0  0
    0.4454    0.0727    0.3197 C   0  0  0  0  0  0  0  0  0  0  0  0
   -1.6760   -0.4256   -1.8541 C   0  0  0  0  0  0  0  0  0  0  0  0
    1.3555   -0.9692    0.2372 C   0  0  0  0  0  0  0  0  0  0  0  0
    0.8412    1.3899    0.1495 C   0  0  0  0  0  0  0  0  0  0  0  0
    2.6967   -0.6865   -0.0219 C   0  0  0  0  0  0  0  0  0  0  0  0
    2.1823    1.6726   -0.1095 C   0  0  0  0  0  0  0  0  0  0  0  0
    3.1100    0.6344   -0.1951 C   0  0  0  0  0  0  0  0  0  0  0  0
  1  8  1  0
  2  3  1  0
  2  4  1  0
  4  5  1  0
  4  7  1  0
  5  6  1  0
  6  8  2  0
  6  9  1  0
  8 10  1  0
  9 11  2  0
 10 12  2  0
 11 12  1  0
M  END
>  <PUBCHEM_COMPOUND_CID>  (1) 
19636

>  <PUBCHEM_CONFORMER_RMSD>  (1) 
0.6

>  <PUBCHEM_CONFORMER_DIVERSEORDER>  (1) 
1
10
9
24
4
11
15
23
16
31
17
18
28
7
5
30
3
13
22
14
8
20
19
6
12
2
21
25
26
29
27

>  <PUBCHEM_MMFF94_PARTIAL_CHARGES>  (1) 
18
1 -0.19
10 -0.15
11 -0.15
12 -0.15
19 0.36
2 -0.63
20 0.15
21 0.15
22 0.15
23 0.15
24 0.36
25 0.36
3 -0.72
4 0.27
5 0.14
6 -0.14
8 0.19
9 -0.15

>  <PUBCHEM_EFFECTIVE_ROTOR_COUNT>  (1) 
3

>  <PUBCHEM_PHARMACOPHORE_FEATURES>  (1) 
3
1 2 donor
1 3 donor
6 6 8 9 10 11 12 rings

>  <PUBCHEM_HEAVY_ATOM_COUNT>  (1) 
12

>  <PUBCHEM_ATOM_DEF_STEREO_COUNT>  (1) 
0

>  <PUBCHEM_ATOM_UDEF_STEREO_COUNT>  (1) 
1

>  <PUBCHEM_BOND_DEF_STEREO_COUNT>  (1) 
0

>  <PUBCHEM_BOND_UDEF_STEREO_COUNT>  (1) 
0

>  <PUBCHEM_ISOTOPIC_ATOM_COUNT>  (1) 
0

>  <PUBCHEM_COMPONENT_COUNT>  (1) 
1

>  <PUBCHEM_CACTVS_TAUTO_COUNT>  (1) 
1

>  <PUBCHEM_CONFORMER_ID>  (1) 
00004CB400000001

>  <PUBCHEM_MMFF94_ENERGY>  (1) 
20.2624

>  <PUBCHEM_FEATURE_SELFOVERLAP>  (1) 
16.556

>  <PUBCHEM_SHAPE_FINGERPRINT>  (1) 
1 1 18334008419610553974
10857977 72 16081091489347727605
11031198 65 18334303071246112108
11471102 20 18408038494268888741
12932764 1 17988633099616069273
13839132 238 16009849655132430302
14325111 11 18337111279688414441
15279307 12 18130782382471477927
15775835 57 18201158848789128900
16945 1 18335409158658657220
17844478 74 17675927577613712037
18186145 218 18411418444752798388
19422 9 18131634504030119599
20201158 50 18187081732688530643
20645477 70 18335973165432957655
21040471 1 18191868049113127704
22802520 49 17606101893158447676
23235685 24 18261107517054461608
23402539 116 15719388477357186067
23402655 69 18411412904403313685
25 1 18407762542751859552
2748010 2 18120945168291707586
528886 8 18410008870814172184
53748568 43 18131066056444635039
77492 1 17989485225453964569
81228 2 16533385179220950122
8272917 22 18269562628992665611
9939556 21 17703505600991164637

>  <PUBCHEM_SHAPE_MULTIPOLES>  (1) 
229.72
5.16
1.52
1.07
2.63
0.26
-0.39
-0.92
0.23
-1.02
0.15
0.87
0.09
-0.46

>  <PUBCHEM_SHAPE_SELFOVERLAP>  (1) 
466.58

>  <PUBCHEM_SHAPE_VOLUME>  (1) 
135.3

>  <PUBCHEM_COORDINATE_TYPE>  (1) 
2
5
10

$$$$
