19630
     RDKit          3D

 16 17  0  0  0  0  0  0  0  0999 V2000
    1.3670   -2.1108    0.1659 O   0  0  0  0  0  0  0  0  0  0  0  0
   -1.0255   -1.2299    1.4467 O   0  0  0  0  0  0  0  0  0  0  0  0
    4.7624    1.1008   -0.2574 N   0  0  0  0  0  0  0  0  0  0  0  0
   -4.9022    0.6425   -0.3921 N   0  0  0  0  0  0  0  0  0  0  0  0
    1.1919    0.1016   -0.6000 N   0  0  0  0  0  0  0  0  0  0  0  0
   -1.5152   -0.8447   -0.8165 N   0  0  0  0  0  0  0  0  0  0  0  0
    5.5946   -0.0490    0.0729 C   0  0  0  0  0  0  0  0  0  0  0  0
    5.6445    1.2039    0.8978 C   0  0  0  0  0  0  0  0  0  0  0  0
   -5.3585    1.8261    0.3251 C   0  0  0  0  0  0  0  0  0  0  0  0
   -5.3390    0.4802    0.9888 C   0  0  0  0  0  0  0  0  0  0  0  0
    3.3847    0.8784    0.1618 C   0  0  0  0  0  0  0  0  0  0  0  0
   -3.4479    0.6192   -0.4796 C   0  0  0  0  0  0  0  0  0  0  0  0
    2.5646    0.3204   -0.9920 C   0  0  0  0  0  0  0  0  0  0  0  0
   -2.9564   -0.7978   -0.7359 C   0  0  0  0  0  0  0  0  0  0  0  0
    0.7459   -1.0859   -0.0660 C   0  0  0  0  0  0  0  0  0  0  0  0
   -0.7111   -1.0550    0.2804 C   0  0  0  0  0  0  0  0  0  0  0  0
  1 15  2  0
  2 16  2  0
  3  7  1  0
  3  8  1  0
  3 11  1  0
  4  9  1  0
  4 10  1  0
  4 12  1  0
  5 13  1  0
  5 15  1  0
  6 14  1  0
  6 16  1  0
  7  8  1  0
  9 10  1  0
 11 13  1  0
 12 14  1  0
 15 16  1  0
M  END
>  <PUBCHEM_COMPOUND_CID>  (1) 
19630

>  <PUBCHEM_CONFORMER_RMSD>  (1) 
0.8

>  <PUBCHEM_CONFORMER_DIVERSEORDER>  (1) 
1
96
71
9
94
83
24
40
48
143
67
137
100
15
132
97
88
5
10
92
58
109
80
43
101
2
52
121
11
7
65
105
45
76
56
82
34
27
99
20
64
103
78
120
32
12
116
72
124
106
91
55
57
19
93
126
69
70
59
79
81
61
25
122
130
87
98
23
102
51
104
140
142
113
118
115
111
41
74
125
95
90
134
75
141
73
128
44
133
8
119
136
35
29
6
62
50
4
112
49
60
129
17
37
110
38
138
46
139
108
33
127
42
117
39
22
84
131
3
66
89
53
77
26
13
18
63
123
135
30
28
86
114
85
36
54
21
47
68
14
107
16
31

>  <PUBCHEM_MMFF94_PARTIAL_CHARGES>  (1) 
26
1 -0.57
10 -0.04
11 0.27
12 0.27
13 0.3
14 0.3
15 0.63
16 0.63
17 0.1
18 0.1
19 0.1
2 -0.57
20 0.1
21 0.1
22 0.1
23 0.1
24 0.1
3 -0.59
33 0.37
34 0.37
4 -0.59
5 -0.73
6 -0.73
7 -0.04
8 -0.04
9 -0.04

>  <PUBCHEM_EFFECTIVE_ROTOR_COUNT>  (1) 
10.2

>  <PUBCHEM_PHARMACOPHORE_FEATURES>  (1) 
6
1 1 acceptor
1 2 acceptor
1 3 cation
1 4 cation
1 5 donor
1 6 donor

>  <PUBCHEM_HEAVY_ATOM_COUNT>  (1) 
16

>  <PUBCHEM_ATOM_DEF_STEREO_COUNT>  (1) 
0

>  <PUBCHEM_ATOM_UDEF_STEREO_COUNT>  (1) 
0

>  <PUBCHEM_BOND_DEF_STEREO_COUNT>  (1) 
0

>  <PUBCHEM_BOND_UDEF_STEREO_COUNT>  (1) 
0

>  <PUBCHEM_ISOTOPIC_ATOM_COUNT>  (1) 
0

>  <PUBCHEM_COMPONENT_COUNT>  (1) 
1

>  <PUBCHEM_CACTVS_TAUTO_COUNT>  (1) 
3

>  <PUBCHEM_CONFORMER_ID>  (1) 
00004CAE00000001

>  <PUBCHEM_MMFF94_ENERGY>  (1) 
17.6538

>  <PUBCHEM_FEATURE_SELFOVERLAP>  (1) 
30.452

>  <PUBCHEM_SHAPE_FINGERPRINT>  (1) 
100836 57 18409451396891409612
10354089 29 17676487246285842128
117890 112 18131067164979006064
12596602 18 14923943453132593780
12714333 28 16702302356021666184
13288520 33 8358262548905341543
13533116 47 18338795612076864290
13685833 64 10015575130346235365
13914758 101 17131840816178009426
14123256 34 9151165485173161805
14251752 14 13829582985998331561
14251764 18 17968092062668079824
14251764 30 12540961972842863224
15188451 53 14924235962602519785
15295992 7 18189621707622932416
15501527 16 18343584057660248485
15501527 24 13038906650992838852
15531645 54 18410013226485984198
17959699 21 17775284975706196704
193927 3 8790598256309857789
19784866 240 8646767811664675651
200 152 13326578461983304530
20281389 69 18413105061014004833
20374829 77 11815896734713039013
20621476 66 18335707156459562444
20645477 56 18342176678539692031
20724930 69 18411136948026717236
20871999 31 16558457682519410271
21637258 2 11169907320792119028
23402539 116 18131345345298842300
23402655 69 17632577149544303765
270888 7 18127976309314074465
2767999 5 18343017796028884457
2838139 119 18131344206911501644
2871803 45 12175627265334405988
2916195 48 18272085028256039657
314194 84 9727635033368881580
351380 180 18201998858994085832
351380 3 8358258133547592621
4259306 186 10591771977835607668
441001 317 18060701697655472281
49783359 22 13479132402140113729
59682541 35 18261683674944760081
59682541 52 17202774682871853788

>  <PUBCHEM_SHAPE_MULTIPOLES>  (1) 
297.61
14.44
1.64
1.01
1.98
0.16
-0.14
-9.17
-2.1
-0.37
-0.24
-0.23
0.07
-0.02

>  <PUBCHEM_SHAPE_SELFOVERLAP>  (1) 
583.394

>  <PUBCHEM_SHAPE_VOLUME>  (1) 
180.4

>  <PUBCHEM_COORDINATE_TYPE>  (1) 
2
5
10

$$$$
