19642
     RDKit          3D

 20 21  0  0  0  0  0  0  0  0999 V2000
   -6.3239    0.6536   -0.5829 Cl  0  0  0  0  0  0  0  0  0  0  0  0
    1.6704   -3.3750   -0.1727 O   0  0  0  0  0  0  0  0  0  0  0  0
   -0.6293   -0.0995    0.6342 O   0  0  0  0  0  0  0  0  0  0  0  0
    2.7329    0.8207    0.0431 N   0  0  0  0  0  0  0  0  0  0  0  0
    1.3714   -1.2793    0.0751 C   0  0  0  0  0  0  0  0  0  0  0  0
    2.3595   -0.4224    0.8379 C   0  0  0  0  0  0  0  0  0  0  0  0
    0.9665   -2.5599    0.7919 C   0  0  0  0  0  0  0  0  0  0  0  0
    2.0049   -2.2052   -0.9538 C   0  0  0  0  0  0  0  0  0  0  0  0
    0.2147   -0.4661   -0.4494 C   0  0  0  0  0  0  0  0  0  0  0  0
    3.3648    0.4069   -1.2781 C   0  0  0  0  0  0  0  0  0  0  0  0
    3.7252    1.6540    0.8412 C   0  0  0  0  0  0  0  0  0  0  0  0
    1.4820    1.6439   -0.2285 C   0  0  0  0  0  0  0  0  0  0  0  0
    3.7510    1.6187   -2.0996 C   0  0  0  0  0  0  0  0  0  0  0  0
    3.1318    2.0857    2.1656 C   0  0  0  0  0  0  0  0  0  0  0  0
   -1.9585    0.0761    0.3501 C   0  0  0  0  0  0  0  0  0  0  0  0
   -2.3400    0.5133   -0.9131 C   0  0  0  0  0  0  0  0  0  0  0  0
   -2.9114   -0.1846    1.3282 C   0  0  0  0  0  0  0  0  0  0  0  0
   -3.6928    0.6923   -1.2022 C   0  0  0  0  0  0  0  0  0  0  0  0
   -4.2643   -0.0057    1.0391 C   0  0  0  0  0  0  0  0  0  0  0  0
   -4.6550    0.4326   -0.2262 C   0  0  0  0  0  0  0  0  0  0  0  0
  1 20  1  0
  2  7  1  0
  2  8  1  0
  3  9  1  0
  3 15  1  0
  4  6  1  0
  4 10  1  0
  4 11  1  0
  4 12  1  0
  5  6  1  0
  5  7  1  0
  5  8  1  0
  5  9  1  0
 10 13  1  0
 11 14  1  0
 15 16  2  0
 15 17  1  0
 16 18  1  0
 17 19  2  0
 18 20  2  0
 19 20  1  0
M  CHG  1   4   1
M  END
>  <PUBCHEM_COMPOUND_CID>  (1) 
19642

>  <PUBCHEM_CONFORMER_RMSD>  (1) 
0.8

>  <PUBCHEM_CONFORMER_DIVERSEORDER>  (1) 
9
19
18
13
2
11
12
14
15
3
5
8
16
7
10
17
6
1
4

>  <PUBCHEM_MMFF94_PARTIAL_CHARGES>  (1) 
21
1 -0.18
10 0.5
11 0.5
12 0.5
15 0.08
16 -0.15
17 -0.15
18 -0.15
19 -0.15
2 -0.52
20 0.18
3 -0.36
4 -1.01
42 0.15
43 0.15
44 0.15
45 0.15
6 0.5
7 0.26
8 0.26
9 0.28

>  <PUBCHEM_EFFECTIVE_ROTOR_COUNT>  (1) 
7.8

>  <PUBCHEM_PHARMACOPHORE_FEATURES>  (1) 
5
1 2 acceptor
1 3 acceptor
1 4 cation
4 2 5 7 8 rings
6 15 16 17 18 19 20 rings

>  <PUBCHEM_HEAVY_ATOM_COUNT>  (1) 
20

>  <PUBCHEM_ATOM_DEF_STEREO_COUNT>  (1) 
0

>  <PUBCHEM_ATOM_UDEF_STEREO_COUNT>  (1) 
0

>  <PUBCHEM_BOND_DEF_STEREO_COUNT>  (1) 
0

>  <PUBCHEM_BOND_UDEF_STEREO_COUNT>  (1) 
0

>  <PUBCHEM_ISOTOPIC_ATOM_COUNT>  (1) 
0

>  <PUBCHEM_COMPONENT_COUNT>  (1) 
1

>  <PUBCHEM_CACTVS_TAUTO_COUNT>  (1) 
1

>  <PUBCHEM_CONFORMER_ID>  (1) 
00004CBA00000009

>  <PUBCHEM_MMFF94_ENERGY>  (1) 
110.5195

>  <PUBCHEM_FEATURE_SELFOVERLAP>  (1) 
25.371

>  <PUBCHEM_SHAPE_FINGERPRINT>  (1) 
10366900 7 18411990160845364161
11543360 7 15913048771724475617
12236239 1 17418089893529408945
12403259 327 16370719365773586241
12532896 13 18127685144458009890
12616999 72 18334580139559996765
12633257 1 17023173955294859185
12730499 353 18409737265920389963
12895836 83 17827098473945395700
13134695 92 18055061078525010238
13533116 47 18340491054827582259
13631057 29 17842822594150578087
13955234 65 18342735178770390507
14528608 73 18131347523290522165
15375358 24 17676490545068515427
15961568 22 16950574306356244997
1813 80 17485939527524440206
18186145 218 18201726205595234680
19784866 34 18130212869649506425
20279233 1 17894634721445181067
204376 136 18339919441149775376
20600515 1 17180785378403406218
20645477 70 18339077073904935463
21618674 25 18409722989311740363
21756936 100 16664037316299535748
22289505 5 18262797359273866885
2255824 54 18130224839686885046
23419403 2 17611708290701774542
23557571 272 17822025228494329427
23559900 14 17749673974183036467
23598291 2 17772206218836815907
3060560 45 18272090508982157308
312423 11 18057614166036134611
4340502 62 18411978088024610811
474 4 17987510571121638304
495365 180 18261948553624714243
5104073 3 18335421202422319193
5281201 14 18263081007704119037
5374978 207 16370724820851355461
6049 1 17970072149607080719
633830 44 17845946219952053208
6913067 236 18115290302749333263
7364860 26 18271804571429320610
7808743 9 17901112142055713892
81228 2 17546729717374565034
81539 233 18261116278845780790
8272917 22 18409451345494116527

>  <PUBCHEM_SHAPE_MULTIPOLES>  (1) 
396.74
10.28
2.48
1.64
14.83
2.01
0.06
-5.17
-1.34
-3.45
0.15
-1.31
-0.8
0.76

>  <PUBCHEM_SHAPE_SELFOVERLAP>  (1) 
807.057

>  <PUBCHEM_SHAPE_VOLUME>  (1) 
234.7

>  <PUBCHEM_COORDINATE_TYPE>  (1) 
2
5
10

$$$$
