19640
     RDKit          3D

 18 19  0  0  0  0  0  0  0  0999 V2000
    2.3173   -0.8055   -2.5098 Cl  0  0  0  0  0  0  0  0  0  0  0  0
   -2.4403    2.7760   -0.4025 O   0  0  0  0  0  0  0  0  0  0  0  0
    0.5349   -0.2992   -0.1417 O   0  0  0  0  0  0  0  0  0  0  0  0
   -2.7890   -1.3041    0.1727 N   0  0  0  0  0  0  0  0  0  0  0  0
   -1.5599    0.8489   -0.1706 C   0  0  0  0  0  0  0  0  0  0  0  0
   -2.1427   -0.3751   -0.8448 C   0  0  0  0  0  0  0  0  0  0  0  0
   -2.5810    1.7082    0.5620 C   0  0  0  0  0  0  0  0  0  0  0  0
   -1.3928    2.0525   -1.0876 C   0  0  0  0  0  0  0  0  0  0  0  0
   -0.3340    0.5102    0.6398 C   0  0  0  0  0  0  0  0  0  0  0  0
   -3.9075   -0.5666    0.8945 C   0  0  0  0  0  0  0  0  0  0  0  0
   -3.3616   -2.5195   -0.5424 C   0  0  0  0  0  0  0  0  0  0  0  0
   -1.7444   -1.7556    1.1832 C   0  0  0  0  0  0  0  0  0  0  0  0
    1.8782   -0.1761    0.1002 C   0  0  0  0  0  0  0  0  0  0  0  0
    2.8105   -0.3860   -0.9109 C   0  0  0  0  0  0  0  0  0  0  0  0
    2.2930    0.1641    1.3841 C   0  0  0  0  0  0  0  0  0  0  0  0
    4.1716   -0.2544   -0.6353 C   0  0  0  0  0  0  0  0  0  0  0  0
    3.6542    0.2957    1.6594 C   0  0  0  0  0  0  0  0  0  0  0  0
    4.5934    0.0864    0.6498 C   0  0  0  0  0  0  0  0  0  0  0  0
  1 14  1  0
  2  7  1  0
  2  8  1  0
  3  9  1  0
  3 13  1  0
  4  6  1  0
  4 10  1  0
  4 11  1  0
  4 12  1  0
  5  6  1  0
  5  7  1  0
  5  8  1  0
  5  9  1  0
 13 14  2  0
 13 15  1  0
 14 16  1  0
 15 17  2  0
 16 18  2  0
 17 18  1  0
M  CHG  1   4   1
M  END
>  <PUBCHEM_COMPOUND_CID>  (1) 
19640

>  <PUBCHEM_CONFORMER_RMSD>  (1) 
0.8

>  <PUBCHEM_CONFORMER_DIVERSEORDER>  (1) 
3
12
7
11
8
2
6
9
10
1
5
4

>  <PUBCHEM_MMFF94_PARTIAL_CHARGES>  (1) 
21
1 -0.18
10 0.5
11 0.5
12 0.5
13 0.08
14 0.18
15 -0.15
16 -0.15
17 -0.15
18 -0.15
2 -0.52
3 -0.36
36 0.15
37 0.15
38 0.15
39 0.15
4 -1.01
6 0.5
7 0.26
8 0.26
9 0.28

>  <PUBCHEM_EFFECTIVE_ROTOR_COUNT>  (1) 
5.8

>  <PUBCHEM_PHARMACOPHORE_FEATURES>  (1) 
5
1 2 acceptor
1 3 acceptor
1 4 cation
4 2 5 7 8 rings
6 13 14 15 16 17 18 rings

>  <PUBCHEM_HEAVY_ATOM_COUNT>  (1) 
18

>  <PUBCHEM_ATOM_DEF_STEREO_COUNT>  (1) 
0

>  <PUBCHEM_ATOM_UDEF_STEREO_COUNT>  (1) 
0

>  <PUBCHEM_BOND_DEF_STEREO_COUNT>  (1) 
0

>  <PUBCHEM_BOND_UDEF_STEREO_COUNT>  (1) 
0

>  <PUBCHEM_ISOTOPIC_ATOM_COUNT>  (1) 
0

>  <PUBCHEM_COMPONENT_COUNT>  (1) 
1

>  <PUBCHEM_CACTVS_TAUTO_COUNT>  (1) 
1

>  <PUBCHEM_CONFORMER_ID>  (1) 
00004CB800000003

>  <PUBCHEM_MMFF94_ENERGY>  (1) 
98.2333

>  <PUBCHEM_FEATURE_SELFOVERLAP>  (1) 
25.371

>  <PUBCHEM_SHAPE_FINGERPRINT>  (1) 
11132069 177 18343024406368285235
11370993 144 17346054285186749243
11615757 297 15864079766802929976
12173636 292 18193554454958061677
12236239 1 17240484702046989858
12363563 72 18192149515220783619
12500047 106 18266170630793220476
12553582 1 18188777265882170427
13296908 3 17988923349490287168
13583140 156 18125125352697466312
14289901 80 18409166619380149970
15099037 37 18341887519676552054
15219456 202 17775567511776894140
15375358 24 17989203715975064868
15653759 3 18272651238342553960
16752209 62 18041261232549044651
16945 1 18410854348301318397
17349148 13 16805316708740526690
17357779 13 18128515228397148695
1741750 31 18194115209966910225
1813 80 18264779920709764951
18186145 218 16128650882240300704
18219364 16 17275377712197136796
19049666 15 17844819074699503134
19141452 34 18059579139528935775
200 152 16515683359677435515
20279233 1 17918272026339374452
20645477 56 18339362946458736489
20645477 70 16701455655091183836
20693207 138 17773620268120815662
21639500 275 15285653135080336158
22112679 90 17822021890603373917
22943178 12 17988363676581121118
23402539 116 18261664956680971151
23419403 2 17832667491423144029
23557571 272 18341622486156735348
23559900 14 18269556044776172094
23598291 2 16951122855574283810
238078 22 17678192687351797171
312423 11 17386019351128772508
3268164 11 18336537278794586300
474 4 16154854507751802636
6049 1 17989492905013881788
633830 44 15051732049446239216
7615 1 17312827069591380180
77492 1 17240485788726476168
81228 2 18336555966672025305
88987 49 18262802860994902700

>  <PUBCHEM_SHAPE_MULTIPOLES>  (1) 
355.58
8.13
2.11
1.67
4.5
0.42
-0.49
-1.51
1.25
-3.23
-0.46
1.29
-0.26
1.06

>  <PUBCHEM_SHAPE_SELFOVERLAP>  (1) 
727.479

>  <PUBCHEM_SHAPE_VOLUME>  (1) 
209.9

>  <PUBCHEM_COORDINATE_TYPE>  (1) 
2
5
10

$$$$
