19646
     RDKit          3D

 16 17  0  0  0  0  0  0  0  0999 V2000
   -1.8738    1.1511   -0.0278 S   0  0  0  0  0  0  0  0  0  0  0  0
    4.3770   -0.9963   -0.0028 S   0  0  0  0  0  0  0  0  0  0  0  0
    1.5560   -1.9207   -0.0077 O   0  0  0  0  0  0  0  0  0  0  0  0
   -5.4354   -0.3765    0.0322 O   0  0  0  0  0  0  0  0  0  0  0  0
   -4.7402    1.7053   -0.0112 O   0  0  0  0  0  0  0  0  0  0  0  0
    0.5636    0.1871   -0.0336 N   0  0  0  0  0  0  0  0  0  0  0  0
   -1.2793   -1.3644    0.0105 N   0  0  0  0  0  0  0  0  0  0  0  0
   -4.4919    0.4653    0.0080 N   0  0  0  0  0  0  0  0  0  0  0  0
   -0.7911   -0.1637   -0.0144 C   0  0  0  0  0  0  0  0  0  0  0  0
    2.9609   -0.0336   -0.0083 C   0  0  0  0  0  0  0  0  0  0  0  0
    1.6858   -0.6743   -0.0300 C   0  0  0  0  0  0  0  0  0  0  0  0
   -3.1643    0.0219    0.0029 C   0  0  0  0  0  0  0  0  0  0  0  0
    3.2510    1.3129    0.0098 C   0  0  0  0  0  0  0  0  0  0  0  0
   -2.6566   -1.2603    0.0207 C   0  0  0  0  0  0  0  0  0  0  0  0
    4.6546    1.5575    0.0281 C   0  0  0  0  0  0  0  0  0  0  0  0
    5.3836    0.3887    0.0236 C   0  0  0  0  0  0  0  0  0  0  0  0
  1  9  1  0
  1 12  1  0
  2 10  1  0
  2 16  1  0
  3 11  2  0
  4  8  1  0
  5  8  2  0
  6  9  1  0
  6 11  1  0
  7  9  2  0
  7 14  1  0
  8 12  1  0
 10 11  1  0
 10 13  2  0
 12 14  2  0
 13 15  1  0
 15 16  2  0
M  CHG  2   4  -1   8   1
M  END
>  <PUBCHEM_COMPOUND_CID>  (1) 
19646

>  <PUBCHEM_CONFORMER_RMSD>  (1) 
0.6

>  <PUBCHEM_CONFORMER_DIVERSEORDER>  (1) 
1
5
7
6
10
2
9
3
8
4

>  <PUBCHEM_MMFF94_PARTIAL_CHARGES>  (1) 
21
1 -0.08
10 -0.05
11 0.71
12 0.12
13 -0.15
14 0.08
15 -0.15
16 -0.11
17 0.37
18 0.15
19 0.15
2 -0.08
20 0.15
21 0.15
3 -0.57
4 -0.52
5 -0.52
6 -0.49
7 -0.57
8 0.96
9 0.44

>  <PUBCHEM_EFFECTIVE_ROTOR_COUNT>  (1) 
4

>  <PUBCHEM_PHARMACOPHORE_FEATURES>  (1) 
7
1 3 acceptor
1 4 acceptor
1 4 anion
1 5 acceptor
1 6 donor
5 1 7 9 12 14 rings
5 2 10 13 15 16 rings

>  <PUBCHEM_HEAVY_ATOM_COUNT>  (1) 
16

>  <PUBCHEM_ATOM_DEF_STEREO_COUNT>  (1) 
0

>  <PUBCHEM_ATOM_UDEF_STEREO_COUNT>  (1) 
0

>  <PUBCHEM_BOND_DEF_STEREO_COUNT>  (1) 
0

>  <PUBCHEM_BOND_UDEF_STEREO_COUNT>  (1) 
0

>  <PUBCHEM_ISOTOPIC_ATOM_COUNT>  (1) 
0

>  <PUBCHEM_COMPONENT_COUNT>  (1) 
1

>  <PUBCHEM_CACTVS_TAUTO_COUNT>  (1) 
3

>  <PUBCHEM_CONFORMER_ID>  (1) 
00004CBE00000001

>  <PUBCHEM_MMFF94_ENERGY>  (1) 
26.4169

>  <PUBCHEM_FEATURE_SELFOVERLAP>  (1) 
35.602

>  <PUBCHEM_SHAPE_FINGERPRINT>  (1) 
10014705 185 18408882945274675701
11287383 113 18408325505426737107
11471102 20 18413951681141442658
12107183 9 17689715259899008378
13081056 2 18409448077024134076
13214271 11 18335703879457232431
14123238 8 18040152924675018589
14251718 22 17988923405367144583
14251764 18 18259699004890538586
14252887 29 12396290436151848552
15048467 5 18411700988933843929
15196674 1 18410856568234998918
15375358 24 18408326587774540723
15501527 16 18411420626353533089
17834072 33 18202279229815827583
17834072 8 18201728345126959566
17834076 25 18411981372930468861
18186145 218 17968088733789077950
19489759 90 16081082671954091781
200 152 17988922271247741545
20645477 56 18334858320375854221
20645477 70 18130510739007236734
21267235 1 18411145714387472494
212847 35 18410292523851167048
21652331 79 18408039611076638156
23402539 116 18342450460918687271
23402655 69 18273494559207686380
23559900 14 18341894065750374362
300161 21 18343576365605774064
351380 180 18411980269524904328
3545911 37 18410576193202497724
4047638 21 18408324384941354658
4214541 1 18410573985204361057
42788 4 18410856559650358564
449060 50 18409450280173415487
474 4 17895198843713781412
5104073 3 18408603664651746746
5374978 207 18408599262785040864
542803 24 17385727993221401700
59755656 215 18411706448596900302
633830 44 18261390087812393782
7364860 26 18268430144690429446
77779 3 18410575102175361418

>  <PUBCHEM_SHAPE_MULTIPOLES>  (1) 
304.42
12.22
1.64
0.59
2.45
0.01
0
3.18
-0.13
-0.26
0
-0.1
0.01
0.04

>  <PUBCHEM_SHAPE_SELFOVERLAP>  (1) 
626.627

>  <PUBCHEM_SHAPE_VOLUME>  (1) 
176.2

>  <PUBCHEM_COORDINATE_TYPE>  (1) 
2
5
10

$$$$
