19657
     RDKit          3D

 13 14  0  0  1  0  0  0  0  0999 V2000
   -3.4980   -0.1565   -1.4039 S   0  0  0  0  0  0  0  0  0  0  0  0
   -1.9048    0.1258   -0.3377 P   0  0  0  0  0  0  0  0  0  0  0  0
   -1.2683    1.6162   -0.3910 O   0  0  0  0  0  0  0  0  0  0  0  0
   -0.6382   -0.8118   -0.7137 O   0  0  0  0  0  0  0  0  0  0  0  0
   -2.0766   -0.1398    1.2549 O   0  0  0  0  0  0  0  0  0  0  0  0
    0.9672    0.8090    0.1093 C   0  0  0  0  0  0  0  0  0  0  0  0
   -0.0737    1.8690    0.3378 C   0  0  0  0  0  0  0  0  0  0  0  0
    0.6433   -0.4618   -0.3802 C   0  0  0  0  0  0  0  0  0  0  0  0
    2.3035    1.0809    0.4343 C   0  0  0  0  0  0  0  0  0  0  0  0
    1.6301   -1.4305   -0.5707 C   0  0  0  0  0  0  0  0  0  0  0  0
    3.2922    0.1125    0.2509 C   0  0  0  0  0  0  0  0  0  0  0  0
    2.9556   -1.1416   -0.2540 C   0  0  0  0  0  0  0  0  0  0  0  0
   -2.3324   -1.4714    1.6640 C   0  0  0  0  0  0  0  0  0  0  0  0
  1  2  2  0
  2  3  1  0
  2  4  1  0
  2  5  1  0
  3  7  1  0
  4  8  1  0
  5 13  1  0
  6  7  1  0
  6  8  2  0
  6  9  1  0
  8 10  1  0
  9 11  2  0
 10 12  2  0
 11 12  1  0
M  END
>  <PUBCHEM_COMPOUND_CID>  (1) 
19657

>  <PUBCHEM_CONFORMER_RMSD>  (1) 
0.6

>  <PUBCHEM_CONFORMER_DIVERSEORDER>  (1) 
2
1
4
3

>  <PUBCHEM_MMFF94_PARTIAL_CHARGES>  (1) 
17
1 -0.68
10 -0.15
11 -0.15
12 -0.15
13 0.28
16 0.15
17 0.15
18 0.15
19 0.15
2 1.49
3 -0.55
4 -0.35
5 -0.55
6 -0.14
7 0.42
8 0.08
9 -0.15

>  <PUBCHEM_EFFECTIVE_ROTOR_COUNT>  (1) 
1.6

>  <PUBCHEM_PHARMACOPHORE_FEATURES>  (1) 
2
6 2 3 4 6 7 8 rings
6 6 8 9 10 11 12 rings

>  <PUBCHEM_HEAVY_ATOM_COUNT>  (1) 
13

>  <PUBCHEM_ATOM_DEF_STEREO_COUNT>  (1) 
0

>  <PUBCHEM_ATOM_UDEF_STEREO_COUNT>  (1) 
1

>  <PUBCHEM_BOND_DEF_STEREO_COUNT>  (1) 
0

>  <PUBCHEM_BOND_UDEF_STEREO_COUNT>  (1) 
0

>  <PUBCHEM_ISOTOPIC_ATOM_COUNT>  (1) 
0

>  <PUBCHEM_COMPONENT_COUNT>  (1) 
1

>  <PUBCHEM_CACTVS_TAUTO_COUNT>  (1) 
1

>  <PUBCHEM_CONFORMER_ID>  (1) 
00004CC900000002

>  <PUBCHEM_MMFF94_ENERGY>  (1) 
25.6217

>  <PUBCHEM_FEATURE_SELFOVERLAP>  (1) 
10.173

>  <PUBCHEM_SHAPE_FINGERPRINT>  (1) 
11471102 22 18341622541764307506
12138202 97 17604138285935225087
124424 183 18187917361815797098
12500047 106 17167850959325961731
15207287 21 18262497261176327707
15775835 57 17775003496365764688
15852999 172 17458897142023330979
16945 1 18342741844727912348
17844478 74 18337123318650472296
18186145 218 17896022283634022757
18534176 82 17821727234640751493
19010151 120 17846204583872891037
200 152 17703777124807972087
20201158 50 18408317774469786375
20279233 1 18187361038822827234
21501502 16 18198902517985360812
23402539 116 17604127273739097645
23402655 69 18200579320594384765
23526113 38 18261376867575612707
23559900 14 17894906318218507666
2748010 2 17981037836663543884
3248919 1 18113902637011745804
5084963 1 17632003187405622062
63268167 104 18130781312776213705
77492 1 17060060375757200167
81228 2 18263923237363403481
8809292 202 18191032209453452802

>  <PUBCHEM_SHAPE_MULTIPOLES>  (1) 
257.62
5.22
1.68
1.22
0.29
0.3
-0.33
-1.07
0.59
-0.23
-0.2
1.28
-0.42
0.73

>  <PUBCHEM_SHAPE_SELFOVERLAP>  (1) 
517.374

>  <PUBCHEM_SHAPE_VOLUME>  (1) 
153.1

>  <PUBCHEM_COORDINATE_TYPE>  (1) 
2
5
10

$$$$
