19656
     RDKit          3D

 21 21  0  0  0  0  0  0  0  0999 V2000
    4.0593   -0.8531   -0.4758 S   0  0  0  0  0  0  0  0  0  0  0  0
    4.5766   -2.1731   -0.1398 O   0  0  0  0  0  0  0  0  0  0  0  0
    4.3065   -0.3001   -1.8005 O   0  0  0  0  0  0  0  0  0  0  0  0
   -2.5515    0.8966   -1.0172 O   0  0  0  0  0  0  0  0  0  0  0  0
   -7.4956    1.1659   -0.4545 O   0  0  0  0  0  0  0  0  0  0  0  0
    4.1965    2.2661   -0.4675 O   0  0  0  0  0  0  0  0  0  0  0  0
   -6.8484   -0.4576    0.9985 O   0  0  0  0  0  0  0  0  0  0  0  0
   -1.8014   -0.7942    0.4332 N   0  0  0  0  0  0  0  0  0  0  0  0
    4.6053    0.2695    0.6995 N   0  0  0  0  0  0  0  0  0  0  0  0
    2.3341   -0.8357   -0.2086 C   0  0  0  0  0  0  0  0  0  0  0  0
   -0.4033   -0.8082    0.2160 C   0  0  0  0  0  0  0  0  0  0  0  0
    1.7602   -1.7247    0.7005 C   0  0  0  0  0  0  0  0  0  0  0  0
    1.5296    0.0672   -0.9037 C   0  0  0  0  0  0  0  0  0  0  0  0
    0.3819   -1.7108    0.9141 C   0  0  0  0  0  0  0  0  0  0  0  0
    0.1512    0.0810   -0.6900 C   0  0  0  0  0  0  0  0  0  0  0  0
   -4.1487   -0.2618    0.3306 C   0  0  0  0  0  0  0  0  0  0  0  0
   -2.7434    0.0302   -0.1687 C   0  0  0  0  0  0  0  0  0  0  0  0
   -5.1690    0.6502   -0.3388 C   0  0  0  0  0  0  0  0  0  0  0  0
    4.6195    1.6902    0.5286 C   0  0  0  0  0  0  0  0  0  0  0  0
   -6.5709    0.3771    0.1472 C   0  0  0  0  0  0  0  0  0  0  0  0
    5.2115    2.4252    1.6970 C   0  0  0  0  0  0  0  0  0  0  0  0
  1  2  2  0
  1  3  2  0
  1  9  1  0
  1 10  1  0
  4 17  2  0
  5 20  1  0
  6 19  2  0
  7 20  2  0
  8 11  1  0
  8 17  1  0
  9 19  1  0
 10 12  2  0
 10 13  1  0
 11 14  2  0
 11 15  1  0
 12 14  1  0
 13 15  2  0
 16 17  1  0
 16 18  1  0
 18 20  1  0
 19 21  1  0
M  END
>  <PUBCHEM_COMPOUND_CID>  (1) 
19656

>  <PUBCHEM_CONFORMER_RMSD>  (1) 
0.8

>  <PUBCHEM_CONFORMER_DIVERSEORDER>  (1) 
1
103
33
24
80
115
30
110
73
58
92
40
102
53
65
47
52
36
44
113
87
25
82
111
59
84
32
10
88
46
71
39
100
107
86
117
108
11
54
104
112
50
64
81
77
69
26
29
94
2
27
78
83
79
48
118
28
97
114
63
31
16
106
21
9
72
96
95
35
55
76
15
56
51
75
99
93
45
34
62
68
116
22
90
14
98
91
60
12
8
67
20
70
19
41
74
105
18
49
17
23
61
101
89
42
66
85
43
3
7
6
13
37
57
38
109
5
4

>  <PUBCHEM_MMFF94_PARTIAL_CHARGES>  (1) 
28
1 1.45
10 -0.01
11 0.12
12 -0.15
13 -0.15
14 -0.15
15 -0.15
16 0.06
17 0.57
18 0.06
19 0.75
2 -0.65
20 0.66
21 0.06
22 0.15
23 0.15
24 0.15
25 0.15
28 0.37
3 -0.65
31 0.42
35 0.5
4 -0.57
5 -0.65
6 -0.57
7 -0.57
8 -0.55
9 -0.79

>  <PUBCHEM_EFFECTIVE_ROTOR_COUNT>  (1) 
8

>  <PUBCHEM_PHARMACOPHORE_FEATURES>  (1) 
10
1 2 acceptor
1 3 acceptor
1 4 acceptor
1 5 acceptor
1 6 acceptor
1 7 acceptor
1 8 donor
1 9 donor
3 5 7 20 anion
6 10 11 12 13 14 15 rings

>  <PUBCHEM_HEAVY_ATOM_COUNT>  (1) 
21

>  <PUBCHEM_ATOM_DEF_STEREO_COUNT>  (1) 
0

>  <PUBCHEM_ATOM_UDEF_STEREO_COUNT>  (1) 
0

>  <PUBCHEM_BOND_DEF_STEREO_COUNT>  (1) 
0

>  <PUBCHEM_BOND_UDEF_STEREO_COUNT>  (1) 
0

>  <PUBCHEM_ISOTOPIC_ATOM_COUNT>  (1) 
0

>  <PUBCHEM_COMPONENT_COUNT>  (1) 
1

>  <PUBCHEM_CACTVS_TAUTO_COUNT>  (1) 
4

>  <PUBCHEM_CONFORMER_ID>  (1) 
00004CC800000001

>  <PUBCHEM_MMFF94_ENERGY>  (1) 
29.3044

>  <PUBCHEM_FEATURE_SELFOVERLAP>  (1) 
50.827

>  <PUBCHEM_SHAPE_FINGERPRINT>  (1) 
10 15 17603867844444810665
10638233 991 17418096529328072897
11796584 16 13046238159861331825
12236239 1 18272088284532158095
12403259 415 18113611262182929972
125118 31 18410013204832481577
12596602 18 18344149185747515427
12616971 3 17917417710015307094
12730499 353 18410018723216513235
13167372 99 18130511825470321809
13533116 47 18336547118934400594
13955234 65 18338513028508455266
14211702 104 8574129675815304369
14251732 16 18412262874447344051
14251757 52 17561366180040460593
14461889 52 18188492492412840019
15183329 4 14836406926283050153
15475509 35 16589131755148473058
155225 6 18049160274624270264
16079462 125 18040425578274356149
17844677 252 18200600193998078345
20157964 124 18131070441748577778
20281389 69 18334576803151311309
21452121 103 18410284814384565656
21521721 280 18202569501286623763
21792934 111 18041829620036719965
22079108 93 18333449863260989855
22956985 138 15287581510861228394
23081809 10 15913331269594297711
23559900 14 18334864931058789462
249057 3 17989489615480656686
2916195 48 18409444800132859833
300161 21 18334289860723469855
3004659 81 15554175774700683806
34797466 226 17704077295687761821
3545911 37 17967537839777415839
4072396 5 16732697251027834242
4340502 62 18113335314686912123
445580 126 17917417762219761080
495365 180 18342457063148863494
5104073 3 17822850850115889337
542803 24 16989125340537216883

>  <PUBCHEM_SHAPE_MULTIPOLES>  (1) 
390.84
16.99
2
1.16
27.38
0.6
0.03
7.73
-1.58
-3.83
-0.6
-1.02
0.19
1.59

>  <PUBCHEM_SHAPE_SELFOVERLAP>  (1) 
789

>  <PUBCHEM_SHAPE_VOLUME>  (1) 
226.4

>  <PUBCHEM_COORDINATE_TYPE>  (1) 
2
5
10

$$$$
