19669
     RDKit          3D

 22 24  0  0  0  0  0  0  0  0999 V2000
   -4.6301   -1.4780   -1.0537 O   0  0  0  0  0  0  0  0  0  0  0  0
    1.1778   -1.2182    0.6393 O   0  0  0  0  0  0  0  0  0  0  0  0
   -1.8282    2.4681    0.7027 O   0  0  0  0  0  0  0  0  0  0  0  0
    4.1131    1.0540   -1.0194 O   0  0  0  0  0  0  0  0  0  0  0  0
   -2.1576   -0.9147    0.2388 N   0  0  0  0  0  0  0  0  0  0  0  0
   -1.3551   -0.2706    1.2768 C   0  0  0  0  0  0  0  0  0  0  0  0
   -2.8349    0.0884   -0.5946 C   0  0  0  0  0  0  0  0  0  0  0  0
   -3.1456   -1.8256    0.8333 C   0  0  0  0  0  0  0  0  0  0  0  0
   -0.3107    0.6117    0.6702 C   0  0  0  0  0  0  0  0  0  0  0  0
   -3.6756   -0.6069   -1.6617 C   0  0  0  0  0  0  0  0  0  0  0  0
   -3.9779   -2.4762   -0.2679 C   0  0  0  0  0  0  0  0  0  0  0  0
    0.9518    0.1024    0.3634 C   0  0  0  0  0  0  0  0  0  0  0  0
   -0.6018    1.9509    0.4105 C   0  0  0  0  0  0  0  0  0  0  0  0
    1.9167    0.9286   -0.2008 C   0  0  0  0  0  0  0  0  0  0  0  0
    0.3675    2.7794   -0.1554 C   0  0  0  0  0  0  0  0  0  0  0  0
    1.6300    2.2711   -0.4633 C   0  0  0  0  0  0  0  0  0  0  0  0
    3.2368    0.3644   -0.5130 C   0  0  0  0  0  0  0  0  0  0  0  0
    3.4479   -1.0756   -0.1864 C   0  0  0  0  0  0  0  0  0  0  0  0
    2.4218   -1.7639    0.3546 C   0  0  0  0  0  0  0  0  0  0  0  0
    4.8185   -1.6121   -0.4793 C   0  0  0  0  0  0  0  0  0  0  0  0
    2.4734   -3.2239    0.7022 C   0  0  0  0  0  0  0  0  0  0  0  0
   -2.0377    3.8467    0.4037 C   0  0  0  0  0  0  0  0  0  0  0  0
  1 10  1  0
  1 11  1  0
  2 12  1  0
  2 19  1  0
  3 13  1  0
  3 22  1  0
  4 17  2  0
  5  6  1  0
  5  7  1  0
  5  8  1  0
  6  9  1  0
  7 10  1  0
  8 11  1  0
  9 12  2  0
  9 13  1  0
 12 14  1  0
 13 15  2  0
 14 16  2  0
 14 17  1  0
 15 16  1  0
 17 18  1  0
 18 19  2  0
 18 20  1  0
 19 21  1  0
M  END
>  <PUBCHEM_COMPOUND_CID>  (1) 
19669

>  <PUBCHEM_CONFORMER_RMSD>  (1) 
0.6

>  <PUBCHEM_CONFORMER_DIVERSEORDER>  (1) 
7
14
4
1
11
10
12
9
13
2
3
8
6
5

>  <PUBCHEM_MMFF94_PARTIAL_CHARGES>  (1) 
24
1 -0.56
10 0.28
11 0.28
12 0.08
13 0.08
14 0.09
15 -0.15
16 -0.15
17 0.47
18 -0.12
19 -0.06
2 -0.16
20 0.14
21 0.14
22 0.28
3 -0.36
33 0.15
34 0.15
4 -0.57
5 -0.81
6 0.41
7 0.27
8 0.27
9 -0.14

>  <PUBCHEM_EFFECTIVE_ROTOR_COUNT>  (1) 
4.2

>  <PUBCHEM_PHARMACOPHORE_FEATURES>  (1) 
8
1 1 acceptor
1 2 acceptor
1 3 acceptor
1 4 acceptor
1 5 cation
6 1 5 7 8 10 11 rings
6 2 12 14 17 18 19 rings
6 9 12 13 14 15 16 rings

>  <PUBCHEM_HEAVY_ATOM_COUNT>  (1) 
22

>  <PUBCHEM_ATOM_DEF_STEREO_COUNT>  (1) 
0

>  <PUBCHEM_ATOM_UDEF_STEREO_COUNT>  (1) 
0

>  <PUBCHEM_BOND_DEF_STEREO_COUNT>  (1) 
0

>  <PUBCHEM_BOND_UDEF_STEREO_COUNT>  (1) 
0

>  <PUBCHEM_ISOTOPIC_ATOM_COUNT>  (1) 
0

>  <PUBCHEM_COMPONENT_COUNT>  (1) 
1

>  <PUBCHEM_CACTVS_TAUTO_COUNT>  (1) 
3

>  <PUBCHEM_CONFORMER_ID>  (1) 
00004CD500000007

>  <PUBCHEM_MMFF94_ENERGY>  (1) 
68.0762

>  <PUBCHEM_FEATURE_SELFOVERLAP>  (1) 
40.625

>  <PUBCHEM_SHAPE_FINGERPRINT>  (1) 
104564 63 18270962345342725887
10616163 171 18268996392788129686
10967382 1 18121229941639875376
11578080 2 17632282493719761585
116883 192 18341328886450125869
12403259 327 13829867845309285583
12553582 1 18409735057922409515
12715332 25 17763462820436384505
12788726 201 18199180686195884977
13140716 1 17976549626130712280
13911987 19 17757287237565221404
14178342 30 18264757767315840970
14251757 5 18337383843336090429
14576447 43 18270119153047401334
16945 1 18336558208518704120
17349148 13 18040991826572581378
19141452 34 17907862803983558064
200 152 18410854360891061558
20028762 73 17405420006300125325
20626108 58 17487880406355348423
20645477 70 18191299592816674947
21501502 16 18264774259784736648
221357 26 18335690698656165127
221490 88 18047476908898426211
23114952 82 17897443015576093045
23379529 103 18201167636530263006
23402539 116 18411420579488798290
23419403 2 17323458260442541848
23557571 272 17986668182564614864
23558518 356 18261682463051728330
23559900 14 18411125940337163816
23598288 3 18201722799623054133
23622692 118 18266169531646044306
238 59 17617069835584554503
266924 87 18337111275578823532
2748010 2 17543933642156715200
2871803 45 18409731785389126374
3323516 105 18117836818681504175
34934 24 17973733472036023552
4280585 95 17548423601237947270
46194498 28 17533492585334346895
463206 1 18266456701417268599
6438718 38 17987800692373748629
7164475 11 18338794511720814669
7471813 234 18412535531418144894
81228 2 18265038151065111209
9709674 26 18196940972246259638

>  <PUBCHEM_SHAPE_MULTIPOLES>  (1) 
424.29
8.02
3.91
1.08
0.44
1.86
-0.14
-5.9
-2.87
-1.3
0.57
-0.65
-0.19
-1.1

>  <PUBCHEM_SHAPE_SELFOVERLAP>  (1) 
910.091

>  <PUBCHEM_SHAPE_VOLUME>  (1) 
234.8

>  <PUBCHEM_COORDINATE_TYPE>  (1) 
2
5
10

$$$$
