19662
     RDKit          3D

 15 16  0  0  0  0  0  0  0  0999 V2000
    0.0054    2.6582    0.7105 Cl  0  0  0  0  0  0  0  0  0  0  0  0
   -0.8971   -2.5739   -0.1769 S   0  0  0  0  0  0  0  0  0  0  0  0
    1.6657   -2.6562    0.4341 O   0  0  0  0  0  0  0  0  0  0  0  0
    3.5579    1.4523   -0.1662 O   0  0  0  0  0  0  0  0  0  0  0  0
    2.0933    0.4093   -1.5554 O   0  0  0  0  0  0  0  0  0  0  0  0
    0.6052   -0.5472    0.4461 N   0  0  0  0  0  0  0  0  0  0  0  0
   -0.6748    0.0031    0.2067 C   0  0  0  0  0  0  0  0  0  0  0  0
   -1.6213   -0.9589   -0.1456 C   0  0  0  0  0  0  0  0  0  0  0  0
    1.7403    0.2651    0.8247 C   0  0  0  0  0  0  0  0  0  0  0  0
    0.6938   -1.9288    0.2911 C   0  0  0  0  0  0  0  0  0  0  0  0
   -1.0311    1.3438    0.2921 C   0  0  0  0  0  0  0  0  0  0  0  0
   -2.9354   -0.6130   -0.4198 C   0  0  0  0  0  0  0  0  0  0  0  0
   -2.3532    1.7037    0.0181 C   0  0  0  0  0  0  0  0  0  0  0  0
   -3.2991    0.7317   -0.3357 C   0  0  0  0  0  0  0  0  0  0  0  0
    2.4504    0.7109   -0.4237 C   0  0  0  0  0  0  0  0  0  0  0  0
  1 11  1  0
  2  8  1  0
  2 10  1  0
  3 10  2  0
  4 15  1  0
  5 15  2  0
  6  7  1  0
  6  9  1  0
  6 10  1  0
  7  8  2  0
  7 11  1  0
  8 12  1  0
  9 15  1  0
 11 13  2  0
 12 14  2  0
 13 14  1  0
M  END
>  <PUBCHEM_COMPOUND_CID>  (1) 
19662

>  <PUBCHEM_CONFORMER_RMSD>  (1) 
0.6

>  <PUBCHEM_CONFORMER_DIVERSEORDER>  (1) 
1
4
3
2

>  <PUBCHEM_MMFF94_PARTIAL_CHARGES>  (1) 
19
1 -0.18
10 0.77
11 0.18
12 -0.15
13 -0.15
14 -0.15
15 0.66
18 0.15
19 0.15
2 -0.24
20 0.15
21 0.5
3 -0.57
4 -0.65
5 -0.57
6 -0.48
7 0.12
8 0.1
9 0.36

>  <PUBCHEM_EFFECTIVE_ROTOR_COUNT>  (1) 
2

>  <PUBCHEM_PHARMACOPHORE_FEATURES>  (1) 
5
1 4 acceptor
1 5 acceptor
3 4 5 15 anion
5 2 6 7 8 10 rings
6 7 8 11 12 13 14 rings

>  <PUBCHEM_HEAVY_ATOM_COUNT>  (1) 
15

>  <PUBCHEM_ATOM_DEF_STEREO_COUNT>  (1) 
0

>  <PUBCHEM_ATOM_UDEF_STEREO_COUNT>  (1) 
0

>  <PUBCHEM_BOND_DEF_STEREO_COUNT>  (1) 
0

>  <PUBCHEM_BOND_UDEF_STEREO_COUNT>  (1) 
0

>  <PUBCHEM_ISOTOPIC_ATOM_COUNT>  (1) 
0

>  <PUBCHEM_COMPONENT_COUNT>  (1) 
1

>  <PUBCHEM_CACTVS_TAUTO_COUNT>  (1) 
1

>  <PUBCHEM_CONFORMER_ID>  (1) 
00004CCE00000001

>  <PUBCHEM_MMFF94_ENERGY>  (1) 
40.1339

>  <PUBCHEM_FEATURE_SELFOVERLAP>  (1) 
25.492

>  <PUBCHEM_SHAPE_FINGERPRINT>  (1) 
10967382 1 18411694392095796179
11206711 2 18267010829718120135
12202030 40 15051430722719015751
12423570 1 11682118197226063435
13140716 1 17979069715303028571
13380535 220 17762057636059732042
14614273 12 18261103076132150357
15775835 57 18259983798959454412
16945 1 18339913930965138899
17775402 16 18411694366315832597
193761 8 17907575831095508049
19591789 44 18050009093210091091
20645476 183 17895761819178446254
21501502 16 18268706117744838523
21524375 3 18259702319861505400
22802520 49 18057910024541964526
2334 1 18340199705188327547
23402539 116 18271517702168774252
23419403 2 16172200192152668761
23463225 33 18194394503189496011
23552423 10 18192426364633403763
23557571 272 17910970354609161708
23559900 14 18271810172842186472
2748010 2 18340478955361474787
2897 32 17978509732771023259
3071541 158 17830451678749736167
353137 74 18413395327777999985
53812653 8 18409447015956046427
6992083 37 16971958385739556281
7364860 26 18268426832948494502

>  <PUBCHEM_SHAPE_MULTIPOLES>  (1) 
291.82
4.39
2.95
0.88
0.44
0.81
0.15
-1.46
0.98
0.17
-0.48
0.37
-0.11
-0.35

>  <PUBCHEM_SHAPE_SELFOVERLAP>  (1) 
608.025

>  <PUBCHEM_SHAPE_VOLUME>  (1) 
167.8

>  <PUBCHEM_COORDINATE_TYPE>  (1) 
2
5
10

$$$$
