19661
     RDKit          3D

 21 22  0  0  1  0  0  0  0  0999 V2000
   -6.2122    1.3174    0.0242 O   0  0  0  0  0  0  0  0  0  0  0  0
    3.8480   -1.0782   -1.2328 O   0  0  0  0  0  0  0  0  0  0  0  0
   -3.7124    0.0727   -0.5266 N   0  0  0  0  0  0  0  0  0  0  0  0
   -0.3892   -1.4052    0.3101 N   0  0  0  0  0  0  0  0  0  0  0  0
   -2.7138   -0.9749   -0.3235 C   0  0  0  0  0  0  0  0  0  0  0  0
   -1.3810   -0.3582    0.0902 C   0  0  0  0  0  0  0  0  0  0  0  0
   -4.9781   -0.4989   -1.0069 C   0  0  0  0  0  0  0  0  0  0  0  0
   -3.9390    0.8253    0.7152 C   0  0  0  0  0  0  0  0  0  0  0  0
    0.9092   -0.8211    0.6499 C   0  0  0  0  0  0  0  0  0  0  0  0
   -6.0071    0.6113   -1.2000 C   0  0  0  0  0  0  0  0  0  0  0  0
   -4.9932    1.9038    0.4823 C   0  0  0  0  0  0  0  0  0  0  0  0
   -0.8288   -2.3166    1.3677 C   0  0  0  0  0  0  0  0  0  0  0  0
    1.3836    0.1345   -0.4456 C   0  0  0  0  0  0  0  0  0  0  0  0
    2.7313    0.7262   -0.1182 C   0  0  0  0  0  0  0  0  0  0  0  0
    0.1638   -3.4500    1.5633 C   0  0  0  0  0  0  0  0  0  0  0  0
    3.8925    0.0880   -0.5297 C   0  0  0  0  0  0  0  0  0  0  0  0
    2.7824    1.9137    0.5979 C   0  0  0  0  0  0  0  0  0  0  0  0
    5.1311    0.6492   -0.2184 C   0  0  0  0  0  0  0  0  0  0  0  0
    4.0211    2.4746    0.9092 C   0  0  0  0  0  0  0  0  0  0  0  0
    5.1953    1.8424    0.5011 C   0  0  0  0  0  0  0  0  0  0  0  0
    5.0964   -1.6557   -1.6095 C   0  0  0  0  0  0  0  0  0  0  0  0
  1 10  1  0
  1 11  1  0
  2 16  1  0
  2 21  1  0
  3  5  1  0
  3  7  1  0
  3  8  1  0
  4  6  1  0
  4  9  1  0
  4 12  1  0
  5  6  1  0
  7 10  1  0
  8 11  1  0
  9 13  1  0
 12 15  1  0
 13 14  1  0
 14 16  2  0
 14 17  1  0
 16 18  1  0
 17 19  2  0
 18 20  2  0
 19 20  1  0
M  END
>  <PUBCHEM_COMPOUND_CID>  (1) 
19661

>  <PUBCHEM_CONFORMER_RMSD>  (1) 
0.8

>  <PUBCHEM_CONFORMER_DIVERSEORDER>  (1) 
2
248
234
195
202
94
282
135
285
279
261
269
9
99
153
142
306
271
197
275
321
284
107
68
265
128
289
272
222
155
139
334
240
93
307
302
185
305
331
115
187
278
237
137
23
262
292
182
277
146
152
255
180
308
196
163
15
79
172
54
77
325
44
322
37
87
131
47
11
116
119
251
3
106
110
111
296
184
74
288
143
314
156
223
14
41
175
100
183
101
53
181
136
52
149
117
270
259
201
90
39
71
76
81
177
31
58
89
230
49
304
92
83
220
323
147
211
64
8
319
96
205
216
108
165
86
72
312
317
70
42
218
214
318
258
204
333
283
224
50
287
243
200
281
91
301
56
326
260
124
189
105
60
332
227
150
138
226
30
12
188
253
82
176
45
203
194
320
144
316
109
309
22
168
26
192
160
294
335
186
299
129
293
297
24
191
238
134
298
295
179
221
315
169
38
225
40
16
267
236
268
207
242
245
55
213
35
313
112
330
303
167
132
36
29
311
75
161
208
78
57
123
157
162
178
120
59
190
61
324
104
154
233
159
235
274
232
133
231
199
140
73
329
48
241
166
13
290
249
127
46
34
141
273
43
229
66
10
125
212
327
20
80
247
280
228
300
276
257
69
171
328
246
250
85
62
27
121
102
84
5
148
103
67
130
1
254
286
25
21
28
95
215
158
114
256
51
174
206
7
122
210
170
17
65
164
310
145
32
244
19
33
97
198
4
98
263
217
219
118
173
113
266
209
264
239
6
88
252
18
126
63
151
291
193

>  <PUBCHEM_MMFF94_PARTIAL_CHARGES>  (1) 
24
1 -0.56
10 0.28
11 0.28
12 0.27
13 0.14
14 -0.14
16 0.08
17 -0.15
18 -0.15
19 -0.15
2 -0.36
20 -0.15
21 0.28
3 -0.81
4 -0.81
43 0.15
44 0.15
45 0.15
46 0.15
5 0.27
6 0.27
7 0.27
8 0.27
9 0.27

>  <PUBCHEM_EFFECTIVE_ROTOR_COUNT>  (1) 
9.2

>  <PUBCHEM_PHARMACOPHORE_FEATURES>  (1) 
6
1 1 acceptor
1 2 acceptor
1 3 cation
1 4 cation
6 1 3 7 8 10 11 rings
6 14 16 17 18 19 20 rings

>  <PUBCHEM_HEAVY_ATOM_COUNT>  (1) 
21

>  <PUBCHEM_ATOM_DEF_STEREO_COUNT>  (1) 
0

>  <PUBCHEM_ATOM_UDEF_STEREO_COUNT>  (1) 
0

>  <PUBCHEM_BOND_DEF_STEREO_COUNT>  (1) 
0

>  <PUBCHEM_BOND_UDEF_STEREO_COUNT>  (1) 
0

>  <PUBCHEM_ISOTOPIC_ATOM_COUNT>  (1) 
0

>  <PUBCHEM_COMPONENT_COUNT>  (1) 
1

>  <PUBCHEM_CACTVS_TAUTO_COUNT>  (1) 
1

>  <PUBCHEM_CONFORMER_ID>  (1) 
00004CCD00000002

>  <PUBCHEM_MMFF94_ENERGY>  (1) 
55.3263

>  <PUBCHEM_FEATURE_SELFOVERLAP>  (1) 
30.447

>  <PUBCHEM_SHAPE_FINGERPRINT>  (1) 
10595046 47 17775000232438741261
10670039 82 17458912513768994828
11089746 13 18410851066656309928
12403259 415 18335151928588041267
12596602 18 12829493636381200037
13544592 145 18408612461409653326
13955234 65 18042680594787061667
14528608 73 18412538812947271181
15183329 4 17989211412524908348
16989378 47 15337746828122062348
17349148 13 14476692918063475182
1813 80 11239998966628109291
18222031 100 11167941368041876194
193927 3 11095883813186031789
19784866 34 18335414665149654835
20157964 124 18060137656653718484
20645477 70 17846508032524904102
20832881 197 18267029362650110810
21033648 29 18188215397938481624
221357 26 18273214170800231492
22289505 5 18202848768813849500
23536379 177 17704072876224352029
23559900 14 18410863196266277110
2767999 5 18187639219791957909
2838139 119 18272646853170927733
2916195 48 18339639044209959929
3004659 81 17275107198140658798
351380 180 18273214209407249996
351380 3 10519990374370269789
4073 2 18337674230111528946
474 4 18187083958082827077
495365 180 18059569235392035858
5104073 3 18040991864652716467
5283173 99 18269552900111168002
5385378 56 18041559131475394731
59682541 52 18130790005837786719
59755656 520 18187638141391247495
6328613 192 18189059853683107572
633830 44 18411693301016113951

>  <PUBCHEM_SHAPE_MULTIPOLES>  (1) 
410.47
15.06
2.82
1.3
10.32
1.4
-0.07
-8.6
-4.55
-1.37
1.52
-0.31
0.7
1.5

>  <PUBCHEM_SHAPE_SELFOVERLAP>  (1) 
829.704

>  <PUBCHEM_SHAPE_VOLUME>  (1) 
240.8

>  <PUBCHEM_COORDINATE_TYPE>  (1) 
2
5
10

$$$$
