19665
     RDKit          3D

 12 11  0  0  0  0  0  0  0  0999 V2000
    5.1806    1.2170    0.0043 O   0  0  0  0  0  0  0  0  0  0  0  0
   -0.8263   -2.8758    0.7705 O   0  0  0  0  0  0  0  0  0  0  0  0
   -0.5973   -0.9670   -0.0973 N   0  0  0  0  0  0  0  0  0  0  0  0
   -1.1468   -2.1647   -0.1894 N   0  0  0  0  0  0  0  0  0  0  0  0
    0.7629   -0.8835   -0.6163 C   0  0  0  0  0  0  0  0  0  0  0  0
    1.5925    0.0868    0.2227 C   0  0  0  0  0  0  0  0  0  0  0  0
   -1.4369    0.0607   -0.7291 C   0  0  0  0  0  0  0  0  0  0  0  0
   -2.5224    0.5280    0.2390 C   0  0  0  0  0  0  0  0  0  0  0  0
    3.0202    0.1962   -0.3099 C   0  0  0  0  0  0  0  0  0  0  0  0
   -3.3950    1.6140   -0.3915 C   0  0  0  0  0  0  0  0  0  0  0  0
    3.8687    1.1291    0.5441 C   0  0  0  0  0  0  0  0  0  0  0  0
   -4.5001    2.0594    0.5530 C   0  0  0  0  0  0  0  0  0  0  0  0
  1 11  1  0
  2  4  2  0
  3  4  1  0
  3  5  1  0
  3  7  1  0
  5  6  1  0
  6  9  1  0
  7  8  1  0
  8 10  1  0
  9 11  1  0
 10 12  1  0
M  END
>  <PUBCHEM_COMPOUND_CID>  (1) 
19665

>  <PUBCHEM_CONFORMER_RMSD>  (1) 
0.8

>  <PUBCHEM_CONFORMER_DIVERSEORDER>  (1) 
1
293
285
290
46
253
3
62
205
117
234
211
98
93
260
18
276
216
170
2
258
127
80
254
245
4
99
107
66
278
114
218
88
69
22
15
181
281
161
257
180
228
184
154
67
79
128
287
82
269
182
84
155
113
78
220
277
60
104
68
37
188
101
263
116
87
135
112
190
238
168
252
237
55
92
301
144
219
11
133
261
139
248
192
209
176
206
94
288
163
110
105
42
47
57
284
232
76
230
233
158
169
265
10
270
7
203
282
247
153
272
89
52
9
191
229
137
103
193
111
246
59
212
291
186
151
259
43
33
32
56
61
226
44
54
71
16
225
86
148
159
283
146
195
175
208
262
227
129
142
240
24
250
83
41
38
200
39
77
268
177
302
156
171
20
12
49
40
8
91
31
187
65
14
17
152
90
58
123
295
174
19
280
157
138
100
185
300
5
198
63
296
6
36
274
231
173
241
297
35
30
150
85
178
217
130
166
286
121
224
273
267
28
106
271
70
162
244
264
202
97
165
298
64
51
132
179
249
74
108
48
266
25
102
119
96
289
109
215
189
53
299
13
275
279
172
199
201
27
204
235
29
222
303
131
292
256
141
122
207
183
50
239
145
236
160
115
213
242
124
81
136
26
210
251
147
221
214
223
34
73
45
149
72
243
21
197
118
23
167
126
196
95
255
164
140
125
134
294
194
143
120
75

>  <PUBCHEM_MMFF94_PARTIAL_CHARGES>  (1) 
8
1 -0.68
11 0.28
2 -0.16
3 -0.36
30 0.4
4 -0.01
5 0.27
7 0.27

>  <PUBCHEM_EFFECTIVE_ROTOR_COUNT>  (1) 
8

>  <PUBCHEM_PHARMACOPHORE_FEATURES>  (1) 
3
1 1 acceptor
1 1 donor
1 12 hydrophobe

>  <PUBCHEM_HEAVY_ATOM_COUNT>  (1) 
12

>  <PUBCHEM_ATOM_DEF_STEREO_COUNT>  (1) 
0

>  <PUBCHEM_ATOM_UDEF_STEREO_COUNT>  (1) 
0

>  <PUBCHEM_BOND_DEF_STEREO_COUNT>  (1) 
0

>  <PUBCHEM_BOND_UDEF_STEREO_COUNT>  (1) 
0

>  <PUBCHEM_ISOTOPIC_ATOM_COUNT>  (1) 
0

>  <PUBCHEM_COMPONENT_COUNT>  (1) 
1

>  <PUBCHEM_CACTVS_TAUTO_COUNT>  (1) 
1

>  <PUBCHEM_CONFORMER_ID>  (1) 
00004CD100000001

>  <PUBCHEM_MMFF94_ENERGY>  (1) 
9.8722

>  <PUBCHEM_FEATURE_SELFOVERLAP>  (1) 
15.223

>  <PUBCHEM_SHAPE_FINGERPRINT>  (1) 
122479 349 18413389856073976524
12346645 44 18340204073296784973
12500047 106 18412259571427407362
12532896 13 18410014316812059183
14123255 52 18410290276829027153
14178000 29 9006756688842849745
14445660 50 18186798128062090844
15477762 27 9222069652990248141
15501527 16 18413392055366608280
170605 34 18128537068332163837
1741750 31 18412261748617117402
17834072 32 18411983585076730664
20112054 13 18335704918459529485
20374829 77 9295287227226498237
204376 136 18336264557388622453
20645477 56 18409732880558340068
20645477 70 16988578887732463526
21426921 1 18196370544707303222
21499 59 18339917113636171181
21524375 3 18341887455368087303
22182937 141 18342178920344192313
23402655 69 17489304153005523452
23403322 49 9295291637910127733
23500284 214 18411983563411438000
25 1 18202279160927630041
633830 44 18200312087718405181

>  <PUBCHEM_SHAPE_MULTIPOLES>  (1) 
225.25
8.67
2.43
0.8
4.06
1.65
0
-8.8
-0.98
-1.41
-0.56
-0.14
0.05
0.09

>  <PUBCHEM_SHAPE_SELFOVERLAP>  (1) 
407.662

>  <PUBCHEM_SHAPE_VOLUME>  (1) 
145.7

>  <PUBCHEM_COORDINATE_TYPE>  (1) 
2
5
10

$$$$
