19672
     RDKit          3D

 20 20  0  0  0  0  0  0  0  0999 V2000
    0.6175    0.3073    1.1896 O   0  0  0  0  0  0  0  0  0  0  0  0
   -0.9030    2.4380    0.2541 O   0  0  0  0  0  0  0  0  0  0  0  0
    2.9735    1.3343    0.8372 O   0  0  0  0  0  0  0  0  0  0  0  0
    3.8877   -0.4725   -0.2989 N   0  0  0  0  0  0  0  0  0  0  0  0
   -4.8767   -0.3930    0.1077 C   0  0  0  0  0  0  0  0  0  0  0  0
   -3.4250   -0.2045    0.3924 C   0  0  0  0  0  0  0  0  0  0  0  0
   -5.1331   -0.8324   -1.3407 C   0  0  0  0  0  0  0  0  0  0  0  0
    5.1937    0.1625   -0.4257 C   0  0  0  0  0  0  0  0  0  0  0  0
    3.7909   -1.8121   -0.8736 C   0  0  0  0  0  0  0  0  0  0  0  0
    2.8556    0.2056    0.3502 C   0  0  0  0  0  0  0  0  0  0  0  0
   -0.7218    0.1464    0.9229 C   0  0  0  0  0  0  0  0  0  0  0  0
   -2.8303    1.0407    0.1894 C   0  0  0  0  0  0  0  0  0  0  0  0
    1.5206   -0.4995    0.4644 C   0  0  0  0  0  0  0  0  0  0  0  0
   -2.6620   -1.2737    0.8617 C   0  0  0  0  0  0  0  0  0  0  0  0
   -1.4725    1.2170    0.4561 C   0  0  0  0  0  0  0  0  0  0  0  0
   -1.3041   -1.0975    1.1280 C   0  0  0  0  0  0  0  0  0  0  0  0
    5.2945    0.9747   -1.7002 C   0  0  0  0  0  0  0  0  0  0  0  0
    4.1615   -2.8775    0.1373 C   0  0  0  0  0  0  0  0  0  0  0  0
   -6.6120   -1.0557   -1.6140 C   0  0  0  0  0  0  0  0  0  0  0  0
   -0.3549    2.6918   -1.0380 C   0  0  0  0  0  0  0  0  0  0  0  0
  1 11  1  0
  1 13  1  0
  2 15  1  0
  2 20  1  0
  3 10  2  0
  4  8  1  0
  4  9  1  0
  4 10  1  0
  5  6  1  0
  5  7  1  0
  6 12  2  0
  6 14  1  0
  7 19  1  0
  8 17  1  0
  9 18  1  0
 10 13  1  0
 11 15  2  0
 11 16  1  0
 12 15  1  0
 14 16  2  0
M  END
>  <PUBCHEM_COMPOUND_CID>  (1) 
19672

>  <PUBCHEM_CONFORMER_RMSD>  (1) 
0.8

>  <PUBCHEM_CONFORMER_DIVERSEORDER>  (1) 
1
141
325
202
368
381
259
354
44
110
174
74
331
69
288
138
160
203
371
228
222
290
334
227
362
279
210
324
333
284
263
13
379
357
39
232
77
205
213
321
302
278
38
330
233
243
369
339
83
142
198
124
343
146
359
272
299
120
45
318
305
350
353
337
239
28
114
196
96
345
27
342
303
366
283
2
267
37
323
328
119
282
364
265
234
373
220
314
281
126
148
375
207
36
179
268
351
367
111
300
53
226
260
97
98
143
341
319
223
17
100
115
273
269
22
352
76
172
164
134
127
250
216
132
225
374
34
104
301
340
72
219
57
81
31
25
10
136
297
229
190
221
139
151
304
129
16
306
253
274
68
360
293
197
215
230
137
248
295
140
150
153
286
237
30
193
335
287
93
169
266
35
355
154
182
242
47
292
372
90
79
128
91
245
170
235
41
271
327
161
162
65
329
209
348
50
42
59
12
201
231
315
187
347
188
63
249
121
85
168
118
106
296
51
183
60
84
365
56
171
285
349
73
66
186
23
256
380
158
11
102
214
370
346
54
270
378
80
317
310
251
195
101
107
26
291
320
255
157
130
204
208
356
105
95
261
176
382
52
49
257
175
363
191
376
24
275
309
280
254
312
199
185
89
145
166
236
43
103
294
71
156
181
184
18
308
8
313
64
177
20
276
377
244
194
163
277
117
336
40
135
326
32
252
58
4
224
86
75
99
307
246
87
211
247
206
332
21
33
108
218
240
55
298
149
92
133
152
289
241
200
316
67
344
189
144
7
122
173
125
264
6
29
78
238
155
3
358
82
192
262
48
5
212
159
15
258
113
180
62
112
361
165
14
19
46
70
338
123
311
131
94
9
61
88
167
116
322
147
178
109
217

>  <PUBCHEM_MMFF94_PARTIAL_CHARGES>  (1) 
19
1 -0.36
10 0.57
11 0.08
12 -0.15
13 0.34
14 -0.15
15 0.08
16 -0.15
2 -0.36
20 0.28
29 0.15
3 -0.57
32 0.15
33 0.15
4 -0.66
5 0.14
6 -0.14
8 0.3
9 0.3

>  <PUBCHEM_EFFECTIVE_ROTOR_COUNT>  (1) 
9

>  <PUBCHEM_PHARMACOPHORE_FEATURES>  (1) 
5
1 1 acceptor
1 19 hydrophobe
1 2 acceptor
1 3 acceptor
6 6 11 12 14 15 16 rings

>  <PUBCHEM_HEAVY_ATOM_COUNT>  (1) 
20

>  <PUBCHEM_ATOM_DEF_STEREO_COUNT>  (1) 
0

>  <PUBCHEM_ATOM_UDEF_STEREO_COUNT>  (1) 
0

>  <PUBCHEM_BOND_DEF_STEREO_COUNT>  (1) 
0

>  <PUBCHEM_BOND_UDEF_STEREO_COUNT>  (1) 
0

>  <PUBCHEM_ISOTOPIC_ATOM_COUNT>  (1) 
0

>  <PUBCHEM_COMPONENT_COUNT>  (1) 
1

>  <PUBCHEM_CACTVS_TAUTO_COUNT>  (1) 
1

>  <PUBCHEM_CONFORMER_ID>  (1) 
00004CD800000001

>  <PUBCHEM_MMFF94_ENERGY>  (1) 
54.3017

>  <PUBCHEM_FEATURE_SELFOVERLAP>  (1) 
25.388

>  <PUBCHEM_SHAPE_FINGERPRINT>  (1) 
10366900 7 18341058484036241592
10498660 4 17749398078563580352
10693767 8 18269818901049322175
117890 112 13767920222086545951
12596602 18 10951760902780454199
12670543 26 18336255761696475031
13668630 136 16773803605728951342
14911166 2 18187354468234845603
15048467 5 15574986278671932791
15238133 3 12468641629695796134
15475509 8 18335981970511533837
18222031 100 18271234002356585353
19784866 240 17632295739968139503
200 152 17775568628273342547
20645477 70 18270408187762950550
20871999 31 18259982661220356241
21285901 2 18408600331799355127
21637258 2 16773501236337797023
23402539 116 18409449150771128801
23557571 272 18334010575594751688
23559900 14 18264210377718144648
2838139 119 14707196730708204647
2871803 45 18335417945945766066
3004659 81 17418374713842778487
3286 77 17418085516635968555
3472631 163 16588027960852914990
351380 3 17131833174603190535
4259306 186 18342454824695312447
465052 167 15051452781845198717
76465 3 18130782317851672331
7970288 3 16415212117983891430
960060 61 18410856572677912766
9709674 26 18265347122654935810

>  <PUBCHEM_SHAPE_MULTIPOLES>  (1) 
389
13.34
2.36
1.37
3.07
0.29
0.42
-5.31
7.81
-1.64
0.35
0.58
-0.04
-0.74

>  <PUBCHEM_SHAPE_SELFOVERLAP>  (1) 
775.704

>  <PUBCHEM_SHAPE_VOLUME>  (1) 
231.6

>  <PUBCHEM_COORDINATE_TYPE>  (1) 
2
5
10

$$$$
