19674
     RDKit          3D

 25 28  0  0  1  0  0  0  0  0999 V2000
   -1.0397   -0.5451   -0.5045 O   0  0  0  0  0  0  0  0  0  0  0  0
   -1.3923    1.5091    1.4854 O   0  0  0  0  0  0  0  0  0  0  0  0
    3.9101    1.2940   -2.0396 O   0  0  0  0  0  0  0  0  0  0  0  0
   -4.6873   -0.7392    0.0316 N   0  0  0  0  0  0  0  0  0  0  0  0
   -5.0821    0.4137   -0.7898 C   0  0  0  0  0  0  0  0  0  0  0  0
   -5.6395   -1.8488   -0.1176 C   0  0  0  0  0  0  0  0  0  0  0  0
   -6.4756    0.9134   -0.4056 C   0  0  0  0  0  0  0  0  0  0  0  0
   -7.0513   -1.4229    0.2889 C   0  0  0  0  0  0  0  0  0  0  0  0
   -7.5105   -0.2019   -0.4998 C   0  0  0  0  0  0  0  0  0  0  0  0
   -3.3350   -1.1754   -0.3155 C   0  0  0  0  0  0  0  0  0  0  0  0
   -2.3288   -0.0518   -0.1147 C   0  0  0  0  0  0  0  0  0  0  0  0
   -2.2873    0.4020    1.3385 C   0  0  0  0  0  0  0  0  0  0  0  0
   -0.0274    0.2907   -0.1125 C   0  0  0  0  0  0  0  0  0  0  0  0
   -0.2012    1.2933    0.8439 C   0  0  0  0  0  0  0  0  0  0  0  0
    1.2206    0.0994   -0.7058 C   0  0  0  0  0  0  0  0  0  0  0  0
    0.8615    2.1341    1.1757 C   0  0  0  0  0  0  0  0  0  0  0  0
    2.2865    0.9318   -0.3634 C   0  0  0  0  0  0  0  0  0  0  0  0
    2.1057    1.9511    0.5720 C   0  0  0  0  0  0  0  0  0  0  0  0
    3.5868    0.7394   -0.9857 C   0  0  0  0  0  0  0  0  0  0  0  0
    4.5899   -0.1643   -0.3671 C   0  0  0  0  0  0  0  0  0  0  0  0
    4.2713   -0.8063    0.8119 C   0  0  0  0  0  0  0  0  0  0  0  0
    5.8087   -0.3340   -0.9910 C   0  0  0  0  0  0  0  0  0  0  0  0
    5.2133   -1.6553    1.3929 C   0  0  0  0  0  0  0  0  0  0  0  0
    6.7506   -1.1832   -0.4100 C   0  0  0  0  0  0  0  0  0  0  0  0
    6.4528   -1.8437    0.7819 C   0  0  0  0  0  0  0  0  0  0  0  0
  1 11  1  0
  1 13  1  0
  2 12  1  0
  2 14  1  0
  3 19  2  0
  4  5  1  0
  4  6  1  0
  4 10  1  0
  5  7  1  0
  6  8  1  0
  7  9  1  0
  8  9  1  0
 10 11  1  0
 11 12  1  0
 13 14  2  0
 13 15  1  0
 14 16  1  0
 15 17  2  0
 16 18  2  0
 17 18  1  0
 17 19  1  0
 19 20  1  0
 20 21  2  0
 20 22  1  0
 21 23  1  0
 22 24  2  0
 23 25  2  0
 24 25  1  0
M  END
>  <PUBCHEM_COMPOUND_CID>  (1) 
19674

>  <PUBCHEM_CONFORMER_RMSD>  (1) 
0.8

>  <PUBCHEM_CONFORMER_DIVERSEORDER>  (1) 
1
13
14
7
4
6
9
16
15
8
10
12
2
5
3
11

>  <PUBCHEM_MMFF94_PARTIAL_CHARGES>  (1) 
30
1 -0.36
10 0.27
11 0.28
12 0.28
13 0.08
14 0.08
15 -0.15
16 -0.15
17 0.09
18 -0.15
19 0.4
2 -0.36
20 0.09
21 -0.15
22 -0.15
23 -0.15
24 -0.15
25 -0.15
3 -0.57
4 -0.81
41 0.15
42 0.15
43 0.15
44 0.15
45 0.15
46 0.15
47 0.15
48 0.15
5 0.27
6 0.27

>  <PUBCHEM_EFFECTIVE_ROTOR_COUNT>  (1) 
6

>  <PUBCHEM_PHARMACOPHORE_FEATURES>  (1) 
8
1 1 acceptor
1 2 acceptor
1 3 acceptor
1 4 cation
6 1 2 11 12 13 14 rings
6 13 14 15 16 17 18 rings
6 20 21 22 23 24 25 rings
6 4 5 6 7 8 9 rings

>  <PUBCHEM_HEAVY_ATOM_COUNT>  (1) 
25

>  <PUBCHEM_ATOM_DEF_STEREO_COUNT>  (1) 
0

>  <PUBCHEM_ATOM_UDEF_STEREO_COUNT>  (1) 
1

>  <PUBCHEM_BOND_DEF_STEREO_COUNT>  (1) 
0

>  <PUBCHEM_BOND_UDEF_STEREO_COUNT>  (1) 
0

>  <PUBCHEM_ISOTOPIC_ATOM_COUNT>  (1) 
0

>  <PUBCHEM_COMPONENT_COUNT>  (1) 
1

>  <PUBCHEM_CACTVS_TAUTO_COUNT>  (1) 
1

>  <PUBCHEM_CONFORMER_ID>  (1) 
00004CDA00000001

>  <PUBCHEM_MMFF94_ENERGY>  (1) 
72.9294

>  <PUBCHEM_FEATURE_SELFOVERLAP>  (1) 
40.639

>  <PUBCHEM_SHAPE_FINGERPRINT>  (1) 
10 15 9007057964003903861
10299344 5 18040716961371567671
10613725 11 18040434382471905485
106641 1 17632571665936651210
10670039 82 17531237324046364741
10730089 47 18335699485805876327
10753850 27 18411980256534358218
11524674 6 17775565360463321935
11578080 2 18262501621523831460
11646440 116 17275107236320668963
11719270 70 18202283589113266111
11796584 16 18334582368806805022
12166972 35 18334579061455192573
12236239 1 18408889529533315524
125118 31 10591778575369935803
12730499 353 13695865913451102160
13177829 20 12319731475589774333
13533116 47 18408602587242604744
13668630 136 18409452466591733926
13685833 64 18343582953610917538
13782708 43 18269834393175329983
13862211 1 17917993901695747575
13914758 101 18187929430726698341
14251752 14 18334292046534620101
14294032 229 18055651516259427937
14347332 77 17604137134514737901
15119646 104 18338239266944413050
15183329 4 17676485030019290491
15188451 53 18272367534673637466
15475509 8 16081368514406056295
17134984 74 17530965804661492946
17980427 23 11671768386710176513
18222031 100 17632305587748088748
19377110 9 11383828247125910289
19784866 240 18335422344435096242
19841028 212 18114737115473789634
20028762 73 17703792530829939118
20567600 234 14620505753210569642
21267235 1 18131077026128627974
21304304 249 18060423487144473414
22079108 93 13038901131980917300
221357 26 16588021303827478484
2215653 11 16370729218855512554
22224240 67 14548734006251876188
22956985 138 17769951077977451638
23198884 109 17313105255002852549
23522609 53 18121813666382730213
23536379 177 17967813851602809181
23559900 14 18339918337459497873
23569943 247 16661471905904000627
23929065 36 17202762584265583177
29717793 49 18186806876757388310
3004659 81 18334012800540362942
3383291 50 17560803260400139551
3411729 13 17559664243784325560
3472631 163 10953753192264861322
3633792 109 18040156214873493228
397830 11 13038898988591757367
4073 2 17386857281984132522
4098825 35 17749387044608149925
439807 62 18262242235284030907
46194498 28 16732984249960352622
465052 167 18343304790423393750
5104073 3 17344912034714145675
53794403 172 12108375696709539806
5758199 1 12612750199548652581
59682541 52 16805599257390742418
59755656 215 18202005395422789879
6438161 24 18334286574472160498
8863177 126 18194406825709774443

>  <PUBCHEM_SHAPE_MULTIPOLES>  (1) 
491.9
20.24
1.91
1.28
14.08
0.12
-0.03
-11.42
2.56
-0.7
-0.55
-1.22
0.31
-0.99

>  <PUBCHEM_SHAPE_SELFOVERLAP>  (1) 
1068.348

>  <PUBCHEM_SHAPE_VOLUME>  (1) 
267.4

>  <PUBCHEM_COORDINATE_TYPE>  (1) 
2
5
10

$$$$
