19678
     RDKit          3D

 25 25  0  0  0  0  0  0  0  0999 V2000
    4.3321    2.6995   -1.2997 F   0  0  0  0  0  0  0  0  0  0  0  0
    0.2362    1.3130    1.0331 O   0  0  0  0  0  0  0  0  0  0  0  0
    0.9626   -0.2566    2.5522 O   0  0  0  0  0  0  0  0  0  0  0  0
    2.7993   -1.8757    1.3234 O   0  0  0  0  0  0  0  0  0  0  0  0
   -2.8274    0.7436   -0.5128 N   0  0  0  0  0  0  0  0  0  0  0  0
   -4.2474    0.9236   -0.2052 C   0  0  0  0  0  0  0  0  0  0  0  0
   -2.6602    0.1228   -1.8215 C   0  0  0  0  0  0  0  0  0  0  0  0
   -2.1296    2.0295   -0.4595 C   0  0  0  0  0  0  0  0  0  0  0  0
   -4.8538   -0.3888    0.2888 C   0  0  0  0  0  0  0  0  0  0  0  0
   -1.2734   -0.5074   -1.9365 C   0  0  0  0  0  0  0  0  0  0  0  0
   -1.8789    2.4362    0.9891 C   0  0  0  0  0  0  0  0  0  0  0  0
   -6.3329   -0.2177    0.6364 C   0  0  0  0  0  0  0  0  0  0  0  0
   -1.0846   -1.1834   -3.2951 C   0  0  0  0  0  0  0  0  0  0  0  0
   -1.0075    1.4184    1.7123 C   0  0  0  0  0  0  0  0  0  0  0  0
   -6.9529   -1.5280    1.0953 C   0  0  0  0  0  0  0  0  0  0  0  0
    0.3062   -1.7826   -3.4311 C   0  0  0  0  0  0  0  0  0  0  0  0
    1.1343    0.4355    1.5608 C   0  0  0  0  0  0  0  0  0  0  0  0
    2.3869    0.4202    0.7638 C   0  0  0  0  0  0  0  0  0  0  0  0
    3.1667   -0.7332    0.6774 C   0  0  0  0  0  0  0  0  0  0  0  0
    2.7805    1.5798    0.0958 C   0  0  0  0  0  0  0  0  0  0  0  0
    4.3404   -0.7271   -0.0765 C   0  0  0  0  0  0  0  0  0  0  0  0
    3.9538    1.5859   -0.6585 C   0  0  0  0  0  0  0  0  0  0  0  0
    4.7338    0.4326   -0.7447 C   0  0  0  0  0  0  0  0  0  0  0  0
    2.5733   -3.0307    0.5182 C   0  0  0  0  0  0  0  0  0  0  0  0
    1.5428   -3.9094    1.1946 C   0  0  0  0  0  0  0  0  0  0  0  0
  1 22  1  0
  2 14  1  0
  2 17  1  0
  3 17  2  0
  4 19  1  0
  4 24  1  0
  5  6  1  0
  5  7  1  0
  5  8  1  0
  6  9  1  0
  7 10  1  0
  8 11  1  0
  9 12  1  0
 10 13  1  0
 11 14  1  0
 12 15  1  0
 13 16  1  0
 17 18  1  0
 18 19  2  0
 18 20  1  0
 19 21  1  0
 20 22  2  0
 21 23  2  0
 22 23  1  0
 24 25  1  0
M  END
>  <PUBCHEM_COMPOUND_CID>  (1) 
19678

>  <PUBCHEM_CONFORMER_RMSD>  (1) 
1.2

>  <PUBCHEM_CONFORMER_DIVERSEORDER>  (1) 
1
4
45
71
73
51
35
50
42
65
69
30
13
46
41
25
19
57
15
59
34
75
77
49
40
44
61
28
9
64
36
31
43
48
3
53
70
47
27
12
2
11
58
23
16
62
67
52
8
76
54
63
55
66
21
7
14
68
20
56
60
32
24
29
26
72
22
6
38
33
17
74
18
5
39
37
10

>  <PUBCHEM_MMFF94_PARTIAL_CHARGES>  (1) 
20
1 -0.19
14 0.28
17 0.63
18 0.09
19 0.08
2 -0.43
20 -0.15
21 -0.15
22 0.19
23 -0.15
24 0.28
3 -0.57
4 -0.36
5 -0.81
50 0.15
51 0.15
52 0.15
6 0.27
7 0.27
8 0.27

>  <PUBCHEM_EFFECTIVE_ROTOR_COUNT>  (1) 
14

>  <PUBCHEM_PHARMACOPHORE_FEATURES>  (1) 
6
1 15 hydrophobe
1 16 hydrophobe
1 3 acceptor
1 4 acceptor
1 5 cation
6 18 19 20 21 22 23 rings

>  <PUBCHEM_HEAVY_ATOM_COUNT>  (1) 
25

>  <PUBCHEM_ATOM_DEF_STEREO_COUNT>  (1) 
0

>  <PUBCHEM_ATOM_UDEF_STEREO_COUNT>  (1) 
0

>  <PUBCHEM_BOND_DEF_STEREO_COUNT>  (1) 
0

>  <PUBCHEM_BOND_UDEF_STEREO_COUNT>  (1) 
0

>  <PUBCHEM_ISOTOPIC_ATOM_COUNT>  (1) 
0

>  <PUBCHEM_COMPONENT_COUNT>  (1) 
1

>  <PUBCHEM_CACTVS_TAUTO_COUNT>  (1) 
1

>  <PUBCHEM_CONFORMER_ID>  (1) 
00004CDE00000001

>  <PUBCHEM_MMFF94_ENERGY>  (1) 
43.489

>  <PUBCHEM_FEATURE_SELFOVERLAP>  (1) 
30.451

>  <PUBCHEM_SHAPE_FINGERPRINT>  (1) 
10498660 4 13768507326719918048
10674148 151 15697454281815054836
10928967 22 17987778792377880087
11763715 3 17605294886432226581
12156800 1 17612352865976530670
12166972 35 10737278048099189305
12553582 1 17489011700282230377
13726171 33 17058090167006214304
15527383 91 12247679366288744392
15537594 2 18130782374013086919
16752209 62 17417517013068676708
17492 89 18192711150650221747
19319366 153 18340758325746421966
21403212 168 15626231183069814273
22950370 63 18411702093463158505
235170 7 17530954748982642591
25222932 49 18339924926430232287
2838139 119 10663829538463006523
46194498 28 17967532346418870262
465052 167 18271813462422781249

>  <PUBCHEM_SHAPE_MULTIPOLES>  (1) 
484.63
11.81
3.17
2.69
15.48
1.71
-1.69
0.76
2.51
-2.01
0.43
-0.02
1.92
-1.42

>  <PUBCHEM_SHAPE_SELFOVERLAP>  (1) 
957.778

>  <PUBCHEM_SHAPE_VOLUME>  (1) 
290.8

>  <PUBCHEM_COORDINATE_TYPE>  (1) 
2
5
10

$$$$
