19675
     RDKit          3D

 29 32  0  0  0  0  0  0  0  0999 V2000
   -2.9969    0.9942    2.0910 S   0  0  0  0  0  0  0  0  0  0  0  0
    7.2764   -0.3405    1.0690 O   0  0  0  0  0  0  0  0  0  0  0  0
    2.1596    4.3411   -0.6904 O   0  0  0  0  0  0  0  0  0  0  0  0
    1.0349   -1.8508    0.0010 N   0  0  0  0  0  0  0  0  0  0  0  0
   -1.9803   -0.0995   -0.6359 N   0  0  0  0  0  0  0  0  0  0  0  0
    3.9634   -1.8285    0.1364 C   0  0  0  0  0  0  0  0  0  0  0  0
    3.2019   -1.8825   -1.1924 C   0  0  0  0  0  0  0  0  0  0  0  0
    3.0853   -1.1771    1.2101 C   0  0  0  0  0  0  0  0  0  0  0  0
    1.8315   -2.5414   -1.0221 C   0  0  0  0  0  0  0  0  0  0  0  0
    1.7190   -1.8597    1.3010 C   0  0  0  0  0  0  0  0  0  0  0  0
    5.2852   -1.0817   -0.0188 C   0  0  0  0  0  0  0  0  0  0  0  0
   -0.2900   -2.4600    0.1155 C   0  0  0  0  0  0  0  0  0  0  0  0
   -1.0925   -2.3339   -1.1832 C   0  0  0  0  0  0  0  0  0  0  0  0
    6.0709   -1.0623    1.2799 C   0  0  0  0  0  0  0  0  0  0  0  0
   -1.3022   -0.8987   -1.6646 C   0  0  0  0  0  0  0  0  0  0  0  0
   -1.2952    1.0365   -0.1350 C   0  0  0  0  0  0  0  0  0  0  0  0
   -3.2940   -0.4866   -0.2693 C   0  0  0  0  0  0  0  0  0  0  0  0
   -1.6783    1.6380    1.0802 C   0  0  0  0  0  0  0  0  0  0  0  0
   -3.8751   -0.0361    0.9326 C   0  0  0  0  0  0  0  0  0  0  0  0
   -0.2290    1.6374   -0.8392 C   0  0  0  0  0  0  0  0  0  0  0  0
   -4.0912   -1.3054   -1.0989 C   0  0  0  0  0  0  0  0  0  0  0  0
   -1.0001    2.7688    1.5688 C   0  0  0  0  0  0  0  0  0  0  0  0
    0.4385    2.7642   -0.3514 C   0  0  0  0  0  0  0  0  0  0  0  0
   -5.1813   -0.4172    1.2879 C   0  0  0  0  0  0  0  0  0  0  0  0
    0.0547    3.3286    0.8556 C   0  0  0  0  0  0  0  0  0  0  0  0
   -5.3907   -1.6771   -0.7433 C   0  0  0  0  0  0  0  0  0  0  0  0
   -5.9350   -1.2353    0.4529 C   0  0  0  0  0  0  0  0  0  0  0  0
    1.5414    3.3403   -1.1046 C   0  0  0  0  0  0  0  0  0  0  0  0
    1.9691    2.7253   -2.4326 C   0  0  0  0  0  0  0  0  0  0  0  0
  1 18  1  0
  1 19  1  0
  2 14  1  0
  3 28  2  0
  4  9  1  0
  4 10  1  0
  4 12  1  0
  5 15  1  0
  5 16  1  0
  5 17  1  0
  6  7  1  0
  6  8  1  0
  6 11  1  0
  7  9  1  0
  8 10  1  0
 11 14  1  0
 12 13  1  0
 13 15  1  0
 16 18  2  0
 16 20  1  0
 17 19  2  0
 17 21  1  0
 18 22  1  0
 19 24  1  0
 20 23  2  0
 21 26  2  0
 22 25  2  0
 23 25  1  0
 23 28  1  0
 24 27  2  0
 26 27  1  0
 28 29  1  0
M  END
>  <PUBCHEM_COMPOUND_CID>  (1) 
19675

>  <PUBCHEM_CONFORMER_RMSD>  (1) 
1

>  <PUBCHEM_CONFORMER_DIVERSEORDER>  (1) 
2
41
12
61
57
38
35
23
9
60
58
32
52
30
64
6
21
63
56
59
51
8
26
24
20
1
39
46
31
45
53
33
13
36
18
62
22
19
65
17
4
49
34
50
37
7
27
55
15
54
42
43
25
40
11
47
14
5
44
29
16
28
48
3
10

>  <PUBCHEM_MMFF94_PARTIAL_CHARGES>  (1) 
32
1 -0.2
10 0.27
12 0.27
14 0.28
15 0.37
16 0.1
17 0.1
18 0.1
19 0.1
2 -0.68
20 -0.15
21 -0.15
22 -0.15
23 0.09
24 -0.15
25 -0.15
26 -0.15
27 -0.15
28 0.42
29 0.06
3 -0.57
4 -0.81
49 0.4
5 -0.57
50 0.15
51 0.15
52 0.15
53 0.15
54 0.15
55 0.15
56 0.15
9 0.27

>  <PUBCHEM_EFFECTIVE_ROTOR_COUNT>  (1) 
8.6

>  <PUBCHEM_PHARMACOPHORE_FEATURES>  (1) 
9
1 2 acceptor
1 2 donor
1 3 acceptor
1 4 cation
1 5 cation
6 1 5 16 17 18 19 rings
6 16 18 20 22 23 25 rings
6 17 19 21 24 26 27 rings
6 4 6 7 8 9 10 rings

>  <PUBCHEM_HEAVY_ATOM_COUNT>  (1) 
29

>  <PUBCHEM_ATOM_DEF_STEREO_COUNT>  (1) 
0

>  <PUBCHEM_ATOM_UDEF_STEREO_COUNT>  (1) 
0

>  <PUBCHEM_BOND_DEF_STEREO_COUNT>  (1) 
0

>  <PUBCHEM_BOND_UDEF_STEREO_COUNT>  (1) 
0

>  <PUBCHEM_ISOTOPIC_ATOM_COUNT>  (1) 
0

>  <PUBCHEM_COMPONENT_COUNT>  (1) 
1

>  <PUBCHEM_CACTVS_TAUTO_COUNT>  (1) 
2

>  <PUBCHEM_CONFORMER_ID>  (1) 
00004CDB00000002

>  <PUBCHEM_MMFF94_ENERGY>  (1) 
82.7877

>  <PUBCHEM_FEATURE_SELFOVERLAP>  (1) 
45.702

>  <PUBCHEM_SHAPE_FINGERPRINT>  (1) 
10369192 42 16773786005760138874
10670039 82 18265908969408144726
1100329 8 18338518659131218223
11595378 159 18191853545135586018
12156800 1 15983173347121866305
12166972 35 17386007252522768414
133893 2 18042992997807049565
14394314 77 18271251602632411728
14400156 266 18130794425944826413
14787075 74 18334019397404933947
14840074 17 18410572920680342720
14955137 171 18343305898456650459
15927050 60 17836089248717402734
17899979 19 18260823804737536684
1813 80 18409733924161507551
18336668 15 18409163324718344741
18393751 57 18272356608409309490
19026451 147 18335424586255284414
20642791 178 18340217340651183537
20771845 171 17534062158359291263
21360443 120 17901954363593789564
21421861 104 18269298844938976137
23559900 14 12252486456742704382
25019877 29 17489864943165616718
3187 122 18266176119545114437
392239 28 18410295783198692690
469060 322 18336550400130763450
474144 1 18340217400126656757
5265222 85 10447632639691812690
6287921 2 18057902246467039206

>  <PUBCHEM_SHAPE_MULTIPOLES>  (1) 
578.96
11.65
4.45
1.85
6.61
4.63
-0.1
-8.21
4.23
2.52
-1.22
0.16
0.65
-2.12

>  <PUBCHEM_SHAPE_SELFOVERLAP>  (1) 
1215.37

>  <PUBCHEM_SHAPE_VOLUME>  (1) 
326.8

>  <PUBCHEM_COORDINATE_TYPE>  (1) 
2
5
10

$$$$
