19684
     RDKit          3D

 14 13  0  0  0  0  0  0  0  0999 V2000
   -6.5757    0.9858    0.7310 F   0  0  0  0  0  0  0  0  0  0  0  0
    1.0378    1.3905   -0.3668 O   0  0  0  0  0  0  0  0  0  0  0  0
   -1.4687    0.1116   -0.1688 C   0  0  0  0  0  0  0  0  0  0  0  0
   -2.7076   -0.7781   -0.0157 C   0  0  0  0  0  0  0  0  0  0  0  0
   -0.1674   -0.6617    0.0393 C   0  0  0  0  0  0  0  0  0  0  0  0
   -3.9920    0.0190   -0.2562 C   0  0  0  0  0  0  0  0  0  0  0  0
    3.6381    0.3378   -0.0685 C   0  0  0  0  0  0  0  0  0  0  0  0
    2.4033   -0.5499    0.0792 C   0  0  0  0  0  0  0  0  0  0  0  0
    4.9430   -0.4384    0.1352 C   0  0  0  0  0  0  0  0  0  0  0  0
    1.0861    0.1887   -0.1107 C   0  0  0  0  0  0  0  0  0  0  0  0
   -5.2658   -0.8038   -0.0439 C   0  0  0  0  0  0  0  0  0  0  0  0
    6.1591    0.4799    0.0096 C   0  0  0  0  0  0  0  0  0  0  0  0
   -6.5466   -0.0018   -0.2022 C   0  0  0  0  0  0  0  0  0  0  0  0
    7.4564   -0.2794    0.2384 C   0  0  0  0  0  0  0  0  0  0  0  0
  1 13  1  0
  2 10  2  0
  3  4  1  0
  3  5  1  0
  4  6  1  0
  5 10  1  0
  6 11  1  0
  7  8  1  0
  7  9  1  0
  8 10  1  0
  9 12  1  0
 11 13  1  0
 12 14  1  0
M  END
>  <PUBCHEM_COMPOUND_CID>  (1) 
19684

>  <PUBCHEM_CONFORMER_RMSD>  (1) 
1

>  <PUBCHEM_CONFORMER_DIVERSEORDER>  (1) 
1
131
172
169
97
46
85
110
181
135
224
258
35
210
188
13
86
29
96
254
243
226
57
255
44
12
54
40
151
108
18
39
228
8
229
41
246
43
19
15
183
14
113
123
193
234
72
24
67
205
62
5
157
22
238
27
168
109
251
53
7
34
245
9
206
51
249
122
58
52
94
114
217
180
20
63
209
23
156
125
155
124
68
147
115
220
195
55
98
120
126
71
174
21
88
117
170
232
75
127
216
178
25
165
11
118
136
166
219
237
182
184
6
73
244
77
207
16
235
173
152
158
17
143
162
37
121
138
47
133
171
28
81
142
26
103
175
241
240
69
148
61
160
84
31
215
111
200
211
223
196
132
116
104
48
179
112
56
32
144
233
191
66
3
10
247
197
186
128
146
257
64
177
2
80
107
227
194
36
164
76
199
159
30
4
102
189
192
256
100
141
239
105
253
49
140
50
213
91
153
259
242
83
139
65
218
163
59
129
119
150
60
201
176
79
167
33
134
225
212
90
89
231
82
93
42
250
230
161
99
190
202
203
92
252
236
248
101
208
38
45
198
204
130
74
106
70
87
154
145
187
78
221
149
137
185
95
222
214

>  <PUBCHEM_MMFF94_PARTIAL_CHARGES>  (1) 
6
1 -0.34
10 0.45
13 0.34
2 -0.57
5 0.06
8 0.06

>  <PUBCHEM_EFFECTIVE_ROTOR_COUNT>  (1) 
10

>  <PUBCHEM_PHARMACOPHORE_FEATURES>  (1) 
4
1 14 hydrophobe
1 2 acceptor
4 7 8 9 12 hydrophobe
5 3 4 5 6 11 hydrophobe

>  <PUBCHEM_HEAVY_ATOM_COUNT>  (1) 
14

>  <PUBCHEM_ATOM_DEF_STEREO_COUNT>  (1) 
0

>  <PUBCHEM_ATOM_UDEF_STEREO_COUNT>  (1) 
0

>  <PUBCHEM_BOND_DEF_STEREO_COUNT>  (1) 
0

>  <PUBCHEM_BOND_UDEF_STEREO_COUNT>  (1) 
0

>  <PUBCHEM_ISOTOPIC_ATOM_COUNT>  (1) 
0

>  <PUBCHEM_COMPONENT_COUNT>  (1) 
1

>  <PUBCHEM_CACTVS_TAUTO_COUNT>  (1) 
3

>  <PUBCHEM_CONFORMER_ID>  (1) 
00004CE400000001

>  <PUBCHEM_MMFF94_ENERGY>  (1) 
0.3693

>  <PUBCHEM_FEATURE_SELFOVERLAP>  (1) 
20.298

>  <PUBCHEM_SHAPE_FINGERPRINT>  (1) 
11315181 36 11241971469577836431
12091667 2 16515400773085059863
13533116 47 18341326696333959482
1420 363 15357698582650102795
14251718 22 11169910585220237579
14251764 18 18410011035213860586
14251764 46 17561082509965903710
14729087 3 17632577128544448457
17834076 25 17203609293848848374
18006028 8 18131348613753383400
20281389 69 18260826003813584844
20621476 8 18335139756602959231
21130983 4 18334579061924210004
22224240 67 17203603800986792222
23035841 295 18187080659368790730
23402539 116 17775562057511339357
23521765 1 18341894095445626950
33684 2 18410853261738071423
42788 4 18334574655361467894
4463277 17 18408603669010140140
57583515 80 18060702797093260107
8209 1 18410854369222390399

>  <PUBCHEM_SHAPE_MULTIPOLES>  (1) 
274.97
20.26
0.95
0.65
1.41
0.1
0.01
0.55
1.83
-0.25
0.01
-0.17
0.03
-0.35

>  <PUBCHEM_SHAPE_SELFOVERLAP>  (1) 
498.877

>  <PUBCHEM_SHAPE_VOLUME>  (1) 
175.7

>  <PUBCHEM_COORDINATE_TYPE>  (1) 
2
5
10

$$$$
