19696
     RDKit          3D

 20 22  0  0  0  0  0  0  0  0999 V2000
   -1.8939   -4.3756   -0.0459 Cl  0  0  0  0  0  0  0  0  0  0  0  0
    2.0317   -1.3648    0.0512 N   0  0  0  0  0  0  0  0  0  0  0  0
   -0.0931   -0.3731   -0.0013 N   0  0  0  0  0  0  0  0  0  0  0  0
   -2.0394   -1.7757   -0.0501 N   0  0  0  0  0  0  0  0  0  0  0  0
    0.1480   -2.7606    0.0056 N   0  0  0  0  0  0  0  0  0  0  0  0
   -2.2599    0.5826   -0.0566 C   0  0  0  0  0  0  0  0  0  0  0  0
    2.8752   -0.2385    0.0717 C   0  0  0  0  0  0  0  0  0  0  0  0
   -1.4142   -0.5913   -0.0347 C   0  0  0  0  0  0  0  0  0  0  0  0
    0.6272   -1.5062    0.0172 C   0  0  0  0  0  0  0  0  0  0  0  0
   -1.8036    1.7598   -0.6498 C   0  0  0  0  0  0  0  0  0  0  0  0
   -3.5316    0.5371    0.5149 C   0  0  0  0  0  0  0  0  0  0  0  0
    4.1473   -0.3050   -0.5007 C   0  0  0  0  0  0  0  0  0  0  0  0
    2.4430    0.9496    0.6650 C   0  0  0  0  0  0  0  0  0  0  0  0
   -2.6188    2.8914   -0.6712 C   0  0  0  0  0  0  0  0  0  0  0  0
   -4.3467    1.6687    0.4933 C   0  0  0  0  0  0  0  0  0  0  0  0
    4.9834    0.8113   -0.4797 C   0  0  0  0  0  0  0  0  0  0  0  0
    3.2792    2.0658    0.6859 C   0  0  0  0  0  0  0  0  0  0  0  0
   -3.8903    2.8459   -0.0998 C   0  0  0  0  0  0  0  0  0  0  0  0
    4.5494    1.9966    0.1135 C   0  0  0  0  0  0  0  0  0  0  0  0
   -1.1930   -2.8181   -0.0285 C   0  0  0  0  0  0  0  0  0  0  0  0
  1 20  1  0
  2  7  1  0
  2  9  1  0
  3  8  2  0
  3  9  1  0
  4  8  1  0
  4 20  2  0
  5  9  2  0
  5 20  1  0
  6  8  1  0
  6 10  2  0
  6 11  1  0
  7 12  2  0
  7 13  1  0
 10 14  1  0
 11 15  2  0
 12 16  1  0
 13 17  2  0
 14 18  2  0
 15 18  1  0
 16 19  2  0
 17 19  1  0
M  END
>  <PUBCHEM_COMPOUND_CID>  (1) 
19696

>  <PUBCHEM_CONFORMER_RMSD>  (1) 
0.6

>  <PUBCHEM_CONFORMER_DIVERSEORDER>  (1) 
2
5
14
13
6
1
15
10
18
8
16
4
17
7
3
12
11
9

>  <PUBCHEM_MMFF94_PARTIAL_CHARGES>  (1) 
30
1 -0.18
10 -0.15
11 -0.15
12 -0.15
13 -0.15
14 -0.15
15 -0.15
16 -0.15
17 -0.15
18 -0.15
19 -0.15
2 -0.6
20 0.8
21 0.4
22 0.15
23 0.15
24 0.15
25 0.15
26 0.15
27 0.15
28 0.15
29 0.15
3 -0.62
30 0.15
31 0.15
4 -0.62
5 -0.62
7 0.1
8 0.62
9 0.72

>  <PUBCHEM_EFFECTIVE_ROTOR_COUNT>  (1) 
3

>  <PUBCHEM_PHARMACOPHORE_FEATURES>  (1) 
5
1 2 donor
4 2 3 5 9 cation
6 3 4 5 8 9 20 rings
6 6 10 11 14 15 18 rings
6 7 12 13 16 17 19 rings

>  <PUBCHEM_HEAVY_ATOM_COUNT>  (1) 
20

>  <PUBCHEM_ATOM_DEF_STEREO_COUNT>  (1) 
0

>  <PUBCHEM_ATOM_UDEF_STEREO_COUNT>  (1) 
0

>  <PUBCHEM_BOND_DEF_STEREO_COUNT>  (1) 
0

>  <PUBCHEM_BOND_UDEF_STEREO_COUNT>  (1) 
0

>  <PUBCHEM_ISOTOPIC_ATOM_COUNT>  (1) 
0

>  <PUBCHEM_COMPONENT_COUNT>  (1) 
1

>  <PUBCHEM_CACTVS_TAUTO_COUNT>  (1) 
4

>  <PUBCHEM_CONFORMER_ID>  (1) 
00004CF000000002

>  <PUBCHEM_MMFF94_ENERGY>  (1) 
64.2257

>  <PUBCHEM_FEATURE_SELFOVERLAP>  (1) 
25.373

>  <PUBCHEM_SHAPE_FINGERPRINT>  (1) 
10006869 2 18334569158052249819
10165383 225 18339088098548011328
10411042 1 17689718983626110635
10498660 4 18335409218677728604
10608611 8 18269835479537720544
10670039 82 17830180456820778524
1100329 8 18193552277520756674
12107183 9 18263067839814684618
12173636 292 18410288133629608950
12390115 104 18270699596618806105
12769317 202 18124022434554651165
12788726 201 18117828026620121587
138480 1 17329990196771411407
14123255 52 18410292467230361768
14178342 30 18264191686352418098
14466204 15 17688301292573237658
14508225 48 17837762688504332935
14787075 74 18201715155203492753
14790565 3 18340213981586578553
15042514 8 18192437587509834643
16087824 20 18338797936187382471
17834072 32 18411139104190366736
19591789 44 18338798914342017355
20510252 161 18196935684898918842
20645477 56 18411144636271358582
21033648 29 18412256207951946800
21202864 24 18340782540998884043
21524375 3 18261674749037620611
22182937 141 18341899627083962096
23227448 37 18412545448170850084
23557571 272 18200040680097439950
23558518 356 18261674895472917874
23559900 14 17688022016883350947
23845131 108 18263649477007156795
283562 15 18119803866105530498
3091708 16 9268684547813993291
3187 122 17617632780852599073
335352 9 18339361856275275110
3729539 64 17836670542824799054
474 4 18196932163257727649
5048184 11 18410572872897749128
633830 44 18057322778101104605
6442390 28 18410299073306976311
7364860 26 17761773971013879247
7399639 24 17482260918405485968
7808743 9 18336548321762724108
81228 2 18047182231207727707

>  <PUBCHEM_SHAPE_MULTIPOLES>  (1) 
393.54
9.15
4.47
0.75
7.24
3.87
0
-7.72
-0.05
-4.5
0.24
0.05
-0.22
0.46

>  <PUBCHEM_SHAPE_SELFOVERLAP>  (1) 
853.132

>  <PUBCHEM_SHAPE_VOLUME>  (1) 
210.9

>  <PUBCHEM_COORDINATE_TYPE>  (1) 
2
5
10

$$$$
