19709
     RDKit          3D

  7  6  0  0  0  0  0  0  0  0999 V2000
    2.9485   -0.2642    0.0465 N   0  0  0  0  0  0  0  0  0  0  0  0
   -0.9162   -0.0370    0.0150 C   0  0  0  0  0  0  0  0  0  0  0  0
    0.5227   -0.6136    0.1056 C   0  0  0  0  0  0  0  0  0  0  0  0
   -1.1842    0.9708    1.1449 C   0  0  0  0  0  0  0  0  0  0  0  0
   -1.0567    0.6941   -1.3347 C   0  0  0  0  0  0  0  0  0  0  0  0
   -1.9688   -1.1563    0.0747 C   0  0  0  0  0  0  0  0  0  0  0  0
    1.6547    0.4063   -0.0520 C   0  0  0  0  0  0  0  0  0  0  0  0
  1  7  1  0
  2  3  1  0
  2  4  1  0
  2  5  1  0
  2  6  1  0
  3  7  1  0
M  END
>  <PUBCHEM_COMPOUND_CID>  (1) 
19709

>  <PUBCHEM_CONFORMER_RMSD>  (1) 
0.4

>  <PUBCHEM_CONFORMER_DIVERSEORDER>  (1) 
1
2

>  <PUBCHEM_MMFF94_PARTIAL_CHARGES>  (1) 
4
1 -0.99
21 0.36
22 0.36
7 0.27

>  <PUBCHEM_EFFECTIVE_ROTOR_COUNT>  (1) 
2

>  <PUBCHEM_PHARMACOPHORE_FEATURES>  (1) 
3
1 1 cation
1 1 donor
4 2 4 5 6 hydrophobe

>  <PUBCHEM_HEAVY_ATOM_COUNT>  (1) 
7

>  <PUBCHEM_ATOM_DEF_STEREO_COUNT>  (1) 
0

>  <PUBCHEM_ATOM_UDEF_STEREO_COUNT>  (1) 
0

>  <PUBCHEM_BOND_DEF_STEREO_COUNT>  (1) 
0

>  <PUBCHEM_BOND_UDEF_STEREO_COUNT>  (1) 
0

>  <PUBCHEM_ISOTOPIC_ATOM_COUNT>  (1) 
0

>  <PUBCHEM_COMPONENT_COUNT>  (1) 
1

>  <PUBCHEM_CACTVS_TAUTO_COUNT>  (1) 
1

>  <PUBCHEM_CONFORMER_ID>  (1) 
00004CFD00000001

>  <PUBCHEM_MMFF94_ENERGY>  (1) 
10.0483

>  <PUBCHEM_FEATURE_SELFOVERLAP>  (1) 
15.223

>  <PUBCHEM_SHAPE_FINGERPRINT>  (1) 
137420 1 13574812539654793313
15310529 11 17274832358735257316
16714656 1 17967530202961365383
21040471 1 17771646558548891929
24536 1 18201712908302438274
29004967 10 17560524005155986130
5084963 1 18260828228432148586
5460574 1 9583526412508770522
5943 1 15264511854350503677

>  <PUBCHEM_SHAPE_MULTIPOLES>  (1) 
139.08
3.09
1.1
1.07
2.56
0.05
0.15
0.53
-0.11
-0.51
-0.1
-0.49
-0.37
-0.04

>  <PUBCHEM_SHAPE_SELFOVERLAP>  (1) 
245.778

>  <PUBCHEM_SHAPE_VOLUME>  (1) 
91.7

>  <PUBCHEM_COORDINATE_TYPE>  (1) 
2
5
10

$$$$
