19708
     RDKit          3D

 23 25  0  0  0  0  0  0  0  0999 V2000
    0.0000   -1.2377    0.1892 P   0  0  0  0  0  0  0  0  0  0  0  0
   -1.2409   -1.1435   -0.8590 O   0  0  0  0  0  0  0  0  0  0  0  0
    1.2407   -1.1439   -0.8592 O   0  0  0  0  0  0  0  0  0  0  0  0
   -0.0002   -2.5876    0.8695 O   0  0  0  0  0  0  0  0  0  0  0  0
    0.0003    0.1434    1.1007 N   0  0  0  0  0  0  0  0  0  0  0  0
    0.0005    1.4810    0.6532 C   0  0  0  0  0  0  0  0  0  0  0  0
   -2.5576   -1.0246   -0.5028 C   0  0  0  0  0  0  0  0  0  0  0  0
    2.5575   -1.0254   -0.5031 C   0  0  0  0  0  0  0  0  0  0  0  0
    0.0001    2.5259    1.5774 C   0  0  0  0  0  0  0  0  0  0  0  0
    0.0007    1.7589   -0.7137 C   0  0  0  0  0  0  0  0  0  0  0  0
   -3.0004   -1.5767    0.6944 C   0  0  0  0  0  0  0  0  0  0  0  0
    3.0004   -1.5777    0.6939 C   0  0  0  0  0  0  0  0  0  0  0  0
   -3.4404   -0.3528   -1.3417 C   0  0  0  0  0  0  0  0  0  0  0  0
    3.4402   -0.3531   -1.3418 C   0  0  0  0  0  0  0  0  0  0  0  0
   -0.0004    3.8487    1.1347 C   0  0  0  0  0  0  0  0  0  0  0  0
    0.0004    3.0817   -1.1564 C   0  0  0  0  0  0  0  0  0  0  0  0
   -0.0002    4.1266   -0.2321 C   0  0  0  0  0  0  0  0  0  0  0  0
   -4.3419   -1.4561    1.0569 C   0  0  0  0  0  0  0  0  0  0  0  0
    4.3416   -1.4562    1.0569 C   0  0  0  0  0  0  0  0  0  0  0  0
   -4.7818   -0.2321   -0.9791 C   0  0  0  0  0  0  0  0  0  0  0  0
    4.7815   -0.2317   -0.9788 C   0  0  0  0  0  0  0  0  0  0  0  0
   -5.2326   -0.7838    0.2202 C   0  0  0  0  0  0  0  0  0  0  0  0
    5.2322   -0.7833    0.2206 C   0  0  0  0  0  0  0  0  0  0  0  0
  1  2  1  0
  1  3  1  0
  1  4  2  0
  1  5  1  0
  2  7  1  0
  3  8  1  0
  5  6  1  0
  6  9  2  0
  6 10  1  0
  7 11  2  0
  7 13  1  0
  8 12  2  0
  8 14  1  0
  9 15  1  0
 10 16  2  0
 11 18  1  0
 12 19  1  0
 13 20  2  0
 14 21  2  0
 15 17  2  0
 16 17  1  0
 18 22  2  0
 19 23  2  0
 20 22  1  0
 21 23  1  0
M  END
>  <PUBCHEM_COMPOUND_CID>  (1) 
19708

>  <PUBCHEM_CONFORMER_RMSD>  (1) 
0.8

>  <PUBCHEM_CONFORMER_DIVERSEORDER>  (1) 
1
17
44
11
32
14
42
24
10
40
16
41
46
35
26
8
18
30
5
27
43
12
29
9
2
28
39
33
7
37
21
20
13
34
45
15
31
6
38
23
36
25
22
19
3
4

>  <PUBCHEM_MMFF94_PARTIAL_CHARGES>  (1) 
39
1 1.52
10 -0.15
11 -0.15
12 -0.15
13 -0.15
14 -0.15
15 -0.15
16 -0.15
17 -0.15
18 -0.15
19 -0.15
2 -0.35
20 -0.15
21 -0.15
22 -0.15
23 -0.15
24 0.4
25 0.15
26 0.15
27 0.15
28 0.15
29 0.15
3 -0.35
30 0.15
31 0.15
32 0.15
33 0.15
34 0.15
35 0.15
36 0.15
37 0.15
38 0.15
39 0.15
4 -0.7
5 -0.78
6 0.1
7 0.08
8 0.08
9 -0.15

>  <PUBCHEM_EFFECTIVE_ROTOR_COUNT>  (1) 
6

>  <PUBCHEM_PHARMACOPHORE_FEATURES>  (1) 
4
1 4 acceptor
6 6 9 10 15 16 17 rings
6 7 11 13 18 20 22 rings
6 8 12 14 19 21 23 rings

>  <PUBCHEM_HEAVY_ATOM_COUNT>  (1) 
23

>  <PUBCHEM_ATOM_DEF_STEREO_COUNT>  (1) 
0

>  <PUBCHEM_ATOM_UDEF_STEREO_COUNT>  (1) 
0

>  <PUBCHEM_BOND_DEF_STEREO_COUNT>  (1) 
0

>  <PUBCHEM_BOND_UDEF_STEREO_COUNT>  (1) 
0

>  <PUBCHEM_ISOTOPIC_ATOM_COUNT>  (1) 
0

>  <PUBCHEM_COMPONENT_COUNT>  (1) 
1

>  <PUBCHEM_CACTVS_TAUTO_COUNT>  (1) 
2

>  <PUBCHEM_CONFORMER_ID>  (1) 
00004CFC00000001

>  <PUBCHEM_MMFF94_ENERGY>  (1) 
62.2497

>  <PUBCHEM_FEATURE_SELFOVERLAP>  (1) 
20.297

>  <PUBCHEM_SHAPE_FINGERPRINT>  (1) 
10165383 225 17327211112977252825
104564 63 18270402664017789253
10764073 3 14331193328515139784
11045515 52 18333733515575110252
11265709 11 18412832382182959916
12516196 113 18412823598943295063
12788726 201 18337112268016163242
13004483 165 18411130308376679026
13134695 92 18342452694607967485
13149001 5 18191310583305819115
133893 2 17836900645211638365
13911987 19 18262533570882992294
14170010 4 18271521018004553593
14347329 18 16662584612267467301
14347332 77 18198348343193977406
14840074 17 17917149506820045284
14955137 171 18200047247076678775
15131766 46 15839549744661813170
15230672 131 17399234648305592164
1601671 61 18271247127724004611
17357779 13 18201146681209952917
17980427 23 17703803517682946385
1813 80 18202290207646624279
18769570 83 18337953377258020377
18785283 64 17903080267404682897
20600515 1 18130522919270535798
20642791 239 17898314915586032396
21041028 32 18341900701364077001
21285901 2 17916874516906413214
21304303 282 17469569968160496060
21641784 216 18263376819218782868
23175994 123 18410016541810593463
23402539 116 18412827958493304094
23419403 2 18058143138097783864
23557571 272 18270117903522927238
23558518 356 17760646962636482067
23559900 14 17604709019028997319
283562 15 18337671889243589602
314173 85 18202286892011142230
3298306 158 17761783158012527996
350125 39 17978237389380691127
469060 322 18336558109602555312
7164475 11 18194681467345699878
7495541 125 18188498002945641731
81228 2 18196950871749893616

>  <PUBCHEM_SHAPE_MULTIPOLES>  (1) 
454.59
9.44
3.97
1.42
0
6.2
-0.02
-7.73
0.94
0
-0.94
0
0.31
0

>  <PUBCHEM_SHAPE_SELFOVERLAP>  (1) 
965.053

>  <PUBCHEM_SHAPE_VOLUME>  (1) 
251.5

>  <PUBCHEM_COORDINATE_TYPE>  (1) 
2
5
10

$$$$
