19712
     RDKit          3D

 15 14  0  0  0  0  0  0  0  0999 V2000
   -0.9631   -0.3203   -0.6480 S   0  0  0  0  0  0  0  0  0  0  0  0
    1.9250    0.2050   -1.1943 S   0  0  0  0  0  0  0  0  0  0  0  0
    5.4156    0.3727   -1.2808 S   0  0  0  0  0  0  0  0  0  0  0  0
    3.7991    0.1625   -0.1897 P   0  0  0  0  0  0  0  0  0  0  0  0
    3.7012    1.2252    1.0475 O   0  0  0  0  0  0  0  0  0  0  0  0
    3.7847   -1.2409    0.6501 O   0  0  0  0  0  0  0  0  0  0  0  0
   -3.8806    0.2920    0.1383 O   0  0  0  0  0  0  0  0  0  0  0  0
   -5.9758   -0.6418   -0.0569 O   0  0  0  0  0  0  0  0  0  0  0  0
   -5.6090    1.5770   -0.5358 N   0  0  0  0  0  0  0  0  0  0  0  0
   -1.8652   -0.8364    0.8318 C   0  0  0  0  0  0  0  0  0  0  0  0
    0.7079   -0.2868    0.0529 C   0  0  0  0  0  0  0  0  0  0  0  0
   -3.3559   -0.9606    0.5581 C   0  0  0  0  0  0  0  0  0  0  0  0
    3.6819    2.6195    0.7917 C   0  0  0  0  0  0  0  0  0  0  0  0
    3.8544   -2.4874   -0.0225 C   0  0  0  0  0  0  0  0  0  0  0  0
   -5.2201    0.3204   -0.1426 C   0  0  0  0  0  0  0  0  0  0  0  0
  1 10  1  0
  1 11  1  0
  2  4  1  0
  2 11  1  0
  3  4  2  0
  4  5  1  0
  4  6  1  0
  5 13  1  0
  6 14  1  0
  7 12  1  0
  7 15  1  0
  8 15  2  0
  9 15  1  0
 10 12  1  0
M  END
>  <PUBCHEM_COMPOUND_CID>  (1) 
19712

>  <PUBCHEM_CONFORMER_RMSD>  (1) 
1

>  <PUBCHEM_CONFORMER_DIVERSEORDER>  (1) 
2
422
564
41
371
221
231
541
58
39
341
216
463
81
512
52
40
651
212
414
1
627
167
486
337
18
161
577
584
570
390
136
13
603
37
424
255
637
310
34
552
308
291
408
45
68
15
649
307
484
21
375
281
365
237
610
589
90
84
4
436
356
26
426
173
227
150
85
303
10
544
19
567
219
60
428
70
8
441
373
5
264
280
507
409
6
624
92
59
16
442
378
370
287
557
83
240
228
455
22
166
630
234
43
7
82
223
405
474
111
431
559
207
476
44
225
404
80
548
315
483
598
17
186
574
54
192
595
172
406
107
25
176
546
133
12
519
425
253
73
9
407
193
449
149
53
162
14
656
49
397
550
187
66
156
233
28
31
105
247
488
152
181
479
563
48
120
642
94
493
95

>  <PUBCHEM_MMFF94_PARTIAL_CHARGES>  (1) 
17
1 -0.46
10 0.23
11 0.46
12 0.28
13 0.28
14 0.28
15 0.78
2 -0.48
28 0.37
29 0.37
3 -0.68
4 1.47
5 -0.55
6 -0.55
7 -0.43
8 -0.57
9 -0.8

>  <PUBCHEM_EFFECTIVE_ROTOR_COUNT>  (1) 
9

>  <PUBCHEM_PHARMACOPHORE_FEATURES>  (1) 
2
1 8 acceptor
1 9 donor

>  <PUBCHEM_HEAVY_ATOM_COUNT>  (1) 
15

>  <PUBCHEM_ATOM_DEF_STEREO_COUNT>  (1) 
0

>  <PUBCHEM_ATOM_UDEF_STEREO_COUNT>  (1) 
0

>  <PUBCHEM_BOND_DEF_STEREO_COUNT>  (1) 
0

>  <PUBCHEM_BOND_UDEF_STEREO_COUNT>  (1) 
0

>  <PUBCHEM_ISOTOPIC_ATOM_COUNT>  (1) 
0

>  <PUBCHEM_COMPONENT_COUNT>  (1) 
1

>  <PUBCHEM_CACTVS_TAUTO_COUNT>  (1) 
2

>  <PUBCHEM_CONFORMER_ID>  (1) 
00004D0000000002

>  <PUBCHEM_MMFF94_ENERGY>  (1) 
14.2407

>  <PUBCHEM_FEATURE_SELFOVERLAP>  (1) 
10.148

>  <PUBCHEM_SHAPE_FINGERPRINT>  (1) 
11089746 13 18273495693385027244
13533116 47 18409730621105141483
13675066 3 18113903783873638787
1420 363 13758357778107819631
14251764 38 18201442445749372041
17834072 33 18343016709787208999
17834072 8 18272376381762915700
17834076 25 18113621200710839830
20645477 56 18333734632836267183
20645477 70 18131356297655519990
212847 35 18334295357885683976
220451 1 18341620321593555255
23402539 116 18409163295434068351
23532345 1 18341330097683625040
23559900 14 18187372034113067966
300161 21 18260267468790969406
351380 180 18413387627228698881
522135 26 18411700976618491794
9971528 1 18040716965370811388

>  <PUBCHEM_SHAPE_MULTIPOLES>  (1) 
295.63
15.06
1.98
1.1
16.34
0.23
0.11
2.65
1.57
-2.51
-0.57
-1.01
0.21
0.89

>  <PUBCHEM_SHAPE_SELFOVERLAP>  (1) 
497.922

>  <PUBCHEM_SHAPE_VOLUME>  (1) 
201.7

>  <PUBCHEM_COORDINATE_TYPE>  (1) 
2
5
10

$$$$
