19710
     RDKit          3D

  8  7  0  0  0  0  0  0  0  0999 V2000
   -1.8314   -0.3563   -0.4835 O   0  0  0  0  0  0  0  0  0  0  0  0
    1.9481    0.2740   -0.5946 O   0  0  0  0  0  0  0  0  0  0  0  0
    0.7830   -0.6417    1.1764 O   0  0  0  0  0  0  0  0  0  0  0  0
   -0.1143    1.2540   -0.0201 C   0  0  0  0  0  0  0  0  0  0  0  0
   -1.5204    0.7841    0.3070 C   0  0  0  0  0  0  0  0  0  0  0  0
    0.9009    0.1768    0.2737 C   0  0  0  0  0  0  0  0  0  0  0  0
   -3.1591   -0.8054   -0.2505 C   0  0  0  0  0  0  0  0  0  0  0  0
    2.9933   -0.6855   -0.4082 C   0  0  0  0  0  0  0  0  0  0  0  0
  1  5  1  0
  1  7  1  0
  2  6  1  0
  2  8  1  0
  3  6  2  0
  4  5  1  0
  4  6  1  0
M  END
>  <PUBCHEM_COMPOUND_CID>  (1) 
19710

>  <PUBCHEM_CONFORMER_RMSD>  (1) 
0.6

>  <PUBCHEM_CONFORMER_DIVERSEORDER>  (1) 
1
12
3
6
5
10
9
8
2
15
7
13
4
14
11

>  <PUBCHEM_MMFF94_PARTIAL_CHARGES>  (1) 
8
1 -0.56
2 -0.43
3 -0.57
4 0.06
5 0.28
6 0.66
7 0.28
8 0.28

>  <PUBCHEM_EFFECTIVE_ROTOR_COUNT>  (1) 
4

>  <PUBCHEM_PHARMACOPHORE_FEATURES>  (1) 
2
1 1 acceptor
1 3 acceptor

>  <PUBCHEM_HEAVY_ATOM_COUNT>  (1) 
8

>  <PUBCHEM_ATOM_DEF_STEREO_COUNT>  (1) 
0

>  <PUBCHEM_ATOM_UDEF_STEREO_COUNT>  (1) 
0

>  <PUBCHEM_BOND_DEF_STEREO_COUNT>  (1) 
0

>  <PUBCHEM_BOND_UDEF_STEREO_COUNT>  (1) 
0

>  <PUBCHEM_ISOTOPIC_ATOM_COUNT>  (1) 
0

>  <PUBCHEM_COMPONENT_COUNT>  (1) 
1

>  <PUBCHEM_CACTVS_TAUTO_COUNT>  (1) 
1

>  <PUBCHEM_CONFORMER_ID>  (1) 
00004CFE00000001

>  <PUBCHEM_MMFF94_ENERGY>  (1) 
10.9147

>  <PUBCHEM_FEATURE_SELFOVERLAP>  (1) 
10.149

>  <PUBCHEM_SHAPE_FINGERPRINT>  (1) 
12897270 3 16950279624360054431
14390081 3 11746929889293499391
21293036 1 17458633349315675590
23552423 10 17824817837103891675
29004967 10 15554447362467369494

>  <PUBCHEM_SHAPE_MULTIPOLES>  (1) 
147.03
4.45
1.11
0.83
0.43
0.17
-0.16
-1.96
0.83
0.27
0.03
-0.18
-0.08
-0.11

>  <PUBCHEM_SHAPE_SELFOVERLAP>  (1) 
266.176

>  <PUBCHEM_SHAPE_VOLUME>  (1) 
95.3

>  <PUBCHEM_COORDINATE_TYPE>  (1) 
2
5
10

$$$$
