19716
     RDKit          3D

 14 14  0  0  0  0  0  0  0  0999 V2000
   -3.3638   -1.9587   -0.5040 O   0  0  0  0  0  0  0  0  0  0  0  0
    2.4069    0.3988   -0.2452 N   0  0  0  0  0  0  0  0  0  0  0  0
   -2.7660    0.3075   -0.3853 N   0  0  0  0  0  0  0  0  0  0  0  0
    4.2440   -1.0094   -0.5538 C   0  0  0  0  0  0  0  0  0  0  0  0
    3.0707   -1.8284   -0.0244 C   0  0  0  0  0  0  0  0  0  0  0  0
    3.8683    0.4413   -0.2900 C   0  0  0  0  0  0  0  0  0  0  0  0
    2.0853   -0.8051    0.5206 C   0  0  0  0  0  0  0  0  0  0  0  0
    1.8338    1.6005    0.3424 C   0  0  0  0  0  0  0  0  0  0  0  0
    0.3702    1.5224    0.3706 C   0  0  0  0  0  0  0  0  0  0  0  0
   -2.2891    1.3914    0.4259 C   0  0  0  0  0  0  0  0  0  0  0  0
   -0.8293    1.4621    0.3946 C   0  0  0  0  0  0  0  0  0  0  0  0
   -3.0428    0.6230   -1.7923 C   0  0  0  0  0  0  0  0  0  0  0  0
   -2.9577   -0.9873    0.1393 C   0  0  0  0  0  0  0  0  0  0  0  0
   -2.6306   -1.1581    1.6017 C   0  0  0  0  0  0  0  0  0  0  0  0
  1 13  2  0
  2  6  1  0
  2  7  1  0
  2  8  1  0
  3 10  1  0
  3 12  1  0
  3 13  1  0
  4  5  1  0
  4  6  1  0
  5  7  1  0
  8  9  1  0
  9 11  3  0
 10 11  1  0
 13 14  1  0
M  END
>  <PUBCHEM_COMPOUND_CID>  (1) 
19716

>  <PUBCHEM_CONFORMER_RMSD>  (1) 
0.6

>  <PUBCHEM_CONFORMER_DIVERSEORDER>  (1) 
8
28
10
15
30
25
27
32
16
17
21
11
12
31
29
20
9
26
22
14
18
13
24
3
23
2
19
1
4
6
7
5

>  <PUBCHEM_MMFF94_PARTIAL_CHARGES>  (1) 
12
1 -0.57
10 0.5
11 -0.2
12 0.3
13 0.57
14 0.06
2 -0.81
3 -0.66
6 0.27
7 0.27
8 0.47
9 -0.2

>  <PUBCHEM_EFFECTIVE_ROTOR_COUNT>  (1) 
4

>  <PUBCHEM_PHARMACOPHORE_FEATURES>  (1) 
3
1 1 acceptor
1 2 cation
5 2 4 5 6 7 rings

>  <PUBCHEM_HEAVY_ATOM_COUNT>  (1) 
14

>  <PUBCHEM_ATOM_DEF_STEREO_COUNT>  (1) 
0

>  <PUBCHEM_ATOM_UDEF_STEREO_COUNT>  (1) 
0

>  <PUBCHEM_BOND_DEF_STEREO_COUNT>  (1) 
0

>  <PUBCHEM_BOND_UDEF_STEREO_COUNT>  (1) 
0

>  <PUBCHEM_ISOTOPIC_ATOM_COUNT>  (1) 
0

>  <PUBCHEM_COMPONENT_COUNT>  (1) 
1

>  <PUBCHEM_CACTVS_TAUTO_COUNT>  (1) 
1

>  <PUBCHEM_CONFORMER_ID>  (1) 
00004D0400000008

>  <PUBCHEM_MMFF94_ENERGY>  (1) 
20.8299

>  <PUBCHEM_FEATURE_SELFOVERLAP>  (1) 
15.223

>  <PUBCHEM_SHAPE_FINGERPRINT>  (1) 
10616163 171 18270686363666447926
11127187 94 18334852810286273837
11137873 295 18410291419690897225
11543360 7 17095537218176345716
12553582 1 18267022765205557736
13296908 3 18412824702765461048
14123260 362 13117997782079453509
14251705 54 18339646749249595371
14251710 61 18341900705178794902
15239191 94 18272656748616821936
18186145 218 17821733801761902072
19107657 46 18413109429143132638
19766037 51 18188787161317742459
20281475 54 18412831269934155856
20291156 8 18343022206970424694
20645477 70 18272082824853427517
20871999 31 17822005407019876205
21634736 98 18410296934550218222
21713013 43 18114183042367624039
221490 88 18409457998683236048
23402655 69 18115312163985345652
23557571 272 17677320731729147429
2871803 45 18261669367564859467
4921388 177 16805614684939364523

>  <PUBCHEM_SHAPE_MULTIPOLES>  (1) 
272.28
8.11
2.09
1.16
3.19
0.26
0.17
3.22
1.74
-0.31
-0.24
-1.19
0.08
0.48

>  <PUBCHEM_SHAPE_SELFOVERLAP>  (1) 
530.895

>  <PUBCHEM_SHAPE_VOLUME>  (1) 
166.4

>  <PUBCHEM_COORDINATE_TYPE>  (1) 
2
5
10

$$$$
