19724
     RDKit          3D

 13 12  0  0  0  0  0  0  0  0999 V2000
    1.3305    0.2762   -0.0748 O   0  0  0  0  0  0  0  0  0  0  0  0
    3.2379    1.4593    0.3561 O   0  0  0  0  0  0  0  0  0  0  0  0
   -3.7598   -0.6987   -0.1076 N   0  0  0  0  0  0  0  0  0  0  0  0
    3.3589   -0.8192   -0.0933 N   0  0  0  0  0  0  0  0  0  0  0  0
   -3.4440    0.6769   -0.4705 C   0  0  0  0  0  0  0  0  0  0  0  0
   -5.1841   -0.9720   -0.3098 C   0  0  0  0  0  0  0  0  0  0  0  0
   -3.3850   -0.9650    1.2826 C   0  0  0  0  0  0  0  0  0  0  0  0
    4.8094   -0.9245    0.0317 C   0  0  0  0  0  0  0  0  0  0  0  0
    2.6540   -2.0520   -0.4142 C   0  0  0  0  0  0  0  0  0  0  0  0
    2.6861    0.3942    0.0846 C   0  0  0  0  0  0  0  0  0  0  0  0
   -2.0192    0.9570   -0.2703 C   0  0  0  0  0  0  0  0  0  0  0  0
    0.5677    1.4769    0.0928 C   0  0  0  0  0  0  0  0  0  0  0  0
   -0.8524    1.1909   -0.1073 C   0  0  0  0  0  0  0  0  0  0  0  0
  1 10  1  0
  1 12  1  0
  2 10  2  0
  3  5  1  0
  3  6  1  0
  3  7  1  0
  4  8  1  0
  4  9  1  0
  4 10  1  0
  5 11  1  0
 11 13  3  0
 12 13  1  0
M  END
>  <PUBCHEM_COMPOUND_CID>  (1) 
19724

>  <PUBCHEM_CONFORMER_RMSD>  (1) 
0.6

>  <PUBCHEM_CONFORMER_DIVERSEORDER>  (1) 
1
38
19
12
4
31
15
30
8
27
28
23
24
32
35
37
9
18
21
7
33
25
11
5
29
10
22
2
34
26
14
13
6
20
36
16
17
3

>  <PUBCHEM_MMFF94_PARTIAL_CHARGES>  (1) 
13
1 -0.43
10 0.78
11 -0.2
12 0.48
13 -0.2
2 -0.57
3 -0.81
4 -0.66
5 0.47
6 0.27
7 0.27
8 0.3
9 0.3

>  <PUBCHEM_EFFECTIVE_ROTOR_COUNT>  (1) 
4

>  <PUBCHEM_PHARMACOPHORE_FEATURES>  (1) 
2
1 2 acceptor
1 3 cation

>  <PUBCHEM_HEAVY_ATOM_COUNT>  (1) 
13

>  <PUBCHEM_ATOM_DEF_STEREO_COUNT>  (1) 
0

>  <PUBCHEM_ATOM_UDEF_STEREO_COUNT>  (1) 
0

>  <PUBCHEM_BOND_DEF_STEREO_COUNT>  (1) 
0

>  <PUBCHEM_BOND_UDEF_STEREO_COUNT>  (1) 
0

>  <PUBCHEM_ISOTOPIC_ATOM_COUNT>  (1) 
0

>  <PUBCHEM_COMPONENT_COUNT>  (1) 
1

>  <PUBCHEM_CACTVS_TAUTO_COUNT>  (1) 
1

>  <PUBCHEM_CONFORMER_ID>  (1) 
00004D0C00000001

>  <PUBCHEM_MMFF94_ENERGY>  (1) 
22.0407

>  <PUBCHEM_FEATURE_SELFOVERLAP>  (1) 
10.148

>  <PUBCHEM_SHAPE_FINGERPRINT>  (1) 
100836 57 10087636031044601378
12032990 46 18410575076105098212
12596602 18 16487250001963450427
14251710 61 18411141303107893519
14252887 29 17489591117635727670
14350558 41 18408047311747102820
15375462 189 17774995808337381652
15477762 27 18410012105325505084
177051 138 18410292505911616701
17834074 16 18409730655475130283
18186145 218 14996292430568049877
19107657 162 18260551155770588259
200 152 18273211989167289545
20281475 54 18410299120467493413
20374829 77 18260260833235016203
20432913 95 18273217490941378355
20645477 70 18413102853310767415
20871999 31 17530678780402048861
21249577 43 18334861623211460347
22485316 2 18342454872340846813
22926399 37 11241964876644612623
231179 274 9295282846639073836
23402539 116 16805603621251315868
23403322 49 18335137570818143667
23500284 214 10592041371290627077
23557571 272 17749100071889028581
23559900 14 18335695057241296808
2871803 45 18187361017274202699
4921388 177 16154005598632928051

>  <PUBCHEM_SHAPE_MULTIPOLES>  (1) 
245.83
10.69
1.8
0.78
2.19
0.23
0.15
5.01
-0.19
-0.74
-0.04
0.51
0.15
0.66

>  <PUBCHEM_SHAPE_SELFOVERLAP>  (1) 
460.233

>  <PUBCHEM_SHAPE_VOLUME>  (1) 
155.1

>  <PUBCHEM_COORDINATE_TYPE>  (1) 
2
5
10

$$$$
