19720
     RDKit          3D

 13 12  0  0  0  0  0  0  0  0999 V2000
    3.5449    1.3652   -0.8487 O   0  0  0  0  0  0  0  0  0  0  0  0
   -2.9564    0.2667   -0.1507 N   0  0  0  0  0  0  0  0  0  0  0  0
    2.4733   -0.5339    0.0187 N   0  0  0  0  0  0  0  0  0  0  0  0
   -2.3018   -1.0776   -0.4343 C   0  0  0  0  0  0  0  0  0  0  0  0
   -2.1675    1.3706   -0.8400 C   0  0  0  0  0  0  0  0  0  0  0  0
   -4.3836    0.2572   -0.6790 C   0  0  0  0  0  0  0  0  0  0  0  0
   -2.9728    0.5166    1.3505 C   0  0  0  0  0  0  0  0  0  0  0  0
   -0.9315   -1.0734    0.0710 C   0  0  0  0  0  0  0  0  0  0  0  0
    1.5669   -1.0715    0.9930 C   0  0  0  0  0  0  0  0  0  0  0  0
    0.1961   -1.0725    0.4848 C   0  0  0  0  0  0  0  0  0  0  0  0
    3.0673   -1.4976   -0.9164 C   0  0  0  0  0  0  0  0  0  0  0  0
    2.7762    0.8422   -0.0375 C   0  0  0  0  0  0  0  0  0  0  0  0
    2.0889    1.7081    0.9885 C   0  0  0  0  0  0  0  0  0  0  0  0
  1 12  2  0
  2  4  1  0
  2  5  1  0
  2  6  1  0
  2  7  1  0
  3  9  1  0
  3 11  1  0
  3 12  1  0
  4  8  1  0
  8 10  3  0
  9 10  1  0
 12 13  1  0
M  CHG  1   2   1
M  END
>  <PUBCHEM_COMPOUND_CID>  (1) 
19720

>  <PUBCHEM_CONFORMER_RMSD>  (1) 
0.6

>  <PUBCHEM_CONFORMER_DIVERSEORDER>  (1) 
3
2
1
4

>  <PUBCHEM_MMFF94_PARTIAL_CHARGES>  (1) 
13
1 -0.57
10 -0.2
11 0.3
12 0.57
13 0.06
2 -1.01
3 -0.66
4 0.7
5 0.5
6 0.5
7 0.5
8 -0.2
9 0.5

>  <PUBCHEM_EFFECTIVE_ROTOR_COUNT>  (1) 
3

>  <PUBCHEM_PHARMACOPHORE_FEATURES>  (1) 
2
1 1 acceptor
1 2 cation

>  <PUBCHEM_HEAVY_ATOM_COUNT>  (1) 
13

>  <PUBCHEM_ATOM_DEF_STEREO_COUNT>  (1) 
0

>  <PUBCHEM_ATOM_UDEF_STEREO_COUNT>  (1) 
0

>  <PUBCHEM_BOND_DEF_STEREO_COUNT>  (1) 
0

>  <PUBCHEM_BOND_UDEF_STEREO_COUNT>  (1) 
0

>  <PUBCHEM_ISOTOPIC_ATOM_COUNT>  (1) 
0

>  <PUBCHEM_COMPONENT_COUNT>  (1) 
1

>  <PUBCHEM_CACTVS_TAUTO_COUNT>  (1) 
1

>  <PUBCHEM_CONFORMER_ID>  (1) 
00004D0800000003

>  <PUBCHEM_MMFF94_ENERGY>  (1) 
33.3211

>  <PUBCHEM_FEATURE_SELFOVERLAP>  (1) 
10.148

>  <PUBCHEM_SHAPE_FINGERPRINT>  (1) 
10498660 4 18186798114713102061
11715629 250 18199740508969886016
12162725 195 18060701667316375043
12932764 1 18187081724246548899
13618510 140 18260266373421438572
13764800 53 17458352969603117963
14250199 8 18342737437854232653
14350558 41 10303812115814201562
15775835 57 18408603681889695757
17041 50 18341897329656396726
177051 138 9151177566567453683
17802600 8 18335972086884144881
18186145 218 18410016506986683363
20645476 183 17203606025162588975
20653085 51 18341055133703567123
20671657 1 18272365360950862570
20711983 171 17489597722973759881
20767249 442 17530677706317177239
21524375 3 18408879655018977938
22485316 2 8358248242554031267
230 275 18040707082898969810
23402655 69 18343301465723067645
23557571 272 18195817485805283719
3248919 1 17988917860227073579
449060 62 18261108561000397005
549884 4 18343580754772375872
81228 2 17608383654648860811
93112 12 18202002131279208614
9882013 296 14273749481045111507

>  <PUBCHEM_SHAPE_MULTIPOLES>  (1) 
251.7
7.39
1.76
1.15
2.51
0.25
-0.16
1.5
1.66
-1.19
0.05
0.09
0.14
0.17

>  <PUBCHEM_SHAPE_SELFOVERLAP>  (1) 
469.68

>  <PUBCHEM_SHAPE_VOLUME>  (1) 
160.2

>  <PUBCHEM_COORDINATE_TYPE>  (1) 
2
5
10

$$$$
