19736
     RDKit          3D

 29 31  0  0  0  0  0  0  0  0999 V2000
   -0.0021   -0.0003   -0.4363 P   0  0  0  0  0  0  0  0  0  0  0  0
    1.0159   -1.0546    0.2550 O   0  0  0  0  0  0  0  0  0  0  0  0
   -1.4206   -0.3496    0.2566 O   0  0  0  0  0  0  0  0  0  0  0  0
    0.4051    1.4029    0.2563 O   0  0  0  0  0  0  0  0  0  0  0  0
   -0.0022   -0.0002   -1.9394 O   0  0  0  0  0  0  0  0  0  0  0  0
    2.3678   -1.0664    0.0863 C   0  0  0  0  0  0  0  0  0  0  0  0
   -2.1103   -1.5193    0.0864 C   0  0  0  0  0  0  0  0  0  0  0  0
   -0.2628    2.5851    0.0862 C   0  0  0  0  0  0  0  0  0  0  0  0
    3.1586   -2.0205    0.7268 C   0  0  0  0  0  0  0  0  0  0  0  0
   -3.3284   -1.7220    0.7285 C   0  0  0  0  0  0  0  0  0  0  0  0
    0.1712    3.7414    0.7279 C   0  0  0  0  0  0  0  0  0  0  0  0
    5.1327   -1.0632   -0.2852 C   0  0  0  0  0  0  0  0  0  0  0  0
   -3.4882   -3.9092   -0.2856 C   0  0  0  0  0  0  0  0  0  0  0  0
   -1.6431    4.9737   -0.2856 C   0  0  0  0  0  0  0  0  0  0  0  0
    4.5410   -2.0189    0.5410 C   0  0  0  0  0  0  0  0  0  0  0  0
   -4.0189   -2.9196    0.5420 C   0  0  0  0  0  0  0  0  0  0  0  0
   -0.5205    4.9384    0.5416 C   0  0  0  0  0  0  0  0  0  0  0  0
    2.9595   -0.1107   -0.7398 C   0  0  0  0  0  0  0  0  0  0  0  0
   -1.5766   -2.5037   -0.7403 C   0  0  0  0  0  0  0  0  0  0  0  0
   -1.3824    2.6154   -0.7402 C   0  0  0  0  0  0  0  0  0  0  0  0
    4.3420   -0.1093   -0.9256 C   0  0  0  0  0  0  0  0  0  0  0  0
   -2.2671   -3.7012   -0.9267 C   0  0  0  0  0  0  0  0  0  0  0  0
   -2.0739    3.8123   -0.9265 C   0  0  0  0  0  0  0  0  0  0  0  0
    2.5419   -3.0492    1.6159 C   0  0  0  0  0  0  0  0  0  0  0  0
   -3.9100   -0.6743    1.6191 C   0  0  0  0  0  0  0  0  0  0  0  0
    1.3695    3.7210    1.6183 C   0  0  0  0  0  0  0  0  0  0  0  0
    6.6105   -1.0608   -0.4849 C   0  0  0  0  0  0  0  0  0  0  0  0
   -4.2256   -5.1898   -0.4859 C   0  0  0  0  0  0  0  0  0  0  0  0
   -2.3832    6.2528   -0.4858 C   0  0  0  0  0  0  0  0  0  0  0  0
  1  2  1  0
  1  3  1  0
  1  4  1  0
  1  5  2  0
  2  6  1  0
  3  7  1  0
  4  8  1  0
  6  9  2  0
  6 18  1  0
  7 10  2  0
  7 19  1  0
  8 11  2  0
  8 20  1  0
  9 15  1  0
  9 24  1  0
 10 16  1  0
 10 25  1  0
 11 17  1  0
 11 26  1  0
 12 15  2  0
 12 21  1  0
 12 27  1  0
 13 16  2  0
 13 22  1  0
 13 28  1  0
 14 17  2  0
 14 23  1  0
 14 29  1  0
 18 21  2  0
 19 22  2  0
 20 23  2  0
M  END
>  <PUBCHEM_COMPOUND_CID>  (1) 
19736

>  <PUBCHEM_CONFORMER_RMSD>  (1) 
0.8

>  <PUBCHEM_CONFORMER_DIVERSEORDER>  (1) 
2
48
44
38
25
35
1
23
61
37
40
20
60
9
12
41
49
7
57
36
11
21
33
34
8
46
43
56
19
55
29
24
27
30
18
13
28
47
39
3
53
54
17
58
59
16
52
26
50
10
14
32
4
51
31
5
62
42
22
45
15
6

>  <PUBCHEM_MMFF94_PARTIAL_CHARGES>  (1) 
38
1 1.51
10 -0.14
11 -0.14
12 -0.14
13 -0.14
14 -0.14
15 -0.15
16 -0.15
17 -0.15
18 -0.15
19 -0.15
2 -0.35
20 -0.15
21 -0.15
22 -0.15
23 -0.15
24 0.14
25 0.14
26 0.14
27 0.14
28 0.14
29 0.14
3 -0.35
30 0.15
31 0.15
32 0.15
33 0.15
34 0.15
35 0.15
36 0.15
37 0.15
38 0.15
4 -0.35
5 -0.7
6 0.08
7 0.08
8 0.08
9 -0.14

>  <PUBCHEM_EFFECTIVE_ROTOR_COUNT>  (1) 
6

>  <PUBCHEM_PHARMACOPHORE_FEATURES>  (1) 
4
1 5 acceptor
6 6 9 12 15 18 21 rings
6 7 10 13 16 19 22 rings
6 8 11 14 17 20 23 rings

>  <PUBCHEM_HEAVY_ATOM_COUNT>  (1) 
29

>  <PUBCHEM_ATOM_DEF_STEREO_COUNT>  (1) 
0

>  <PUBCHEM_ATOM_UDEF_STEREO_COUNT>  (1) 
0

>  <PUBCHEM_BOND_DEF_STEREO_COUNT>  (1) 
0

>  <PUBCHEM_BOND_UDEF_STEREO_COUNT>  (1) 
0

>  <PUBCHEM_ISOTOPIC_ATOM_COUNT>  (1) 
0

>  <PUBCHEM_COMPONENT_COUNT>  (1) 
1

>  <PUBCHEM_CACTVS_TAUTO_COUNT>  (1) 
1

>  <PUBCHEM_CONFORMER_ID>  (1) 
00004D1800000002

>  <PUBCHEM_MMFF94_ENERGY>  (1) 
78.7367

>  <PUBCHEM_FEATURE_SELFOVERLAP>  (1) 
20.298

>  <PUBCHEM_SHAPE_FINGERPRINT>  (1) 
10090160 65 17257078277793620700
10411042 1 18339080522368262494
11056379 131 18338808806058265518
11578080 2 18043793489421558133
11763715 3 18264510518796673846
12553582 1 18337665416496311498
12788726 201 18261672571520986898
13540713 5 17554907829602901251
13590594 115 18337683026125228907
138480 1 15672385025163132973
13955234 65 17545045261170957819
14068700 675 18262242226735606094
14251757 5 18337388236560054685
15439362 3 17545885288059534965
15705408 1 17906452486551542550
15775530 1 17754983670757897007
20028762 73 17115211578258584966
20101258 96 18410858793028175322
20505436 4 17536326843117244210
20600515 1 17844554204071711547
23366157 5 17762627591357962455
23559900 14 18050562152007161235
23598288 3 18265605486228023142
23929065 36 18338499882177129354
283562 15 18260831510230638274
352729 6 17834114147676061841
38695281 34 9777304354361931724
4017518 198 16975059584932176220
4058900 60 16968871541890199737
4409770 3 18337110038812267517
474 4 17186158116202748943
6058803 2 17481158117065720415
6673363 416 18266757951562516876
6700243 42 17913524352906834414
77188 2 18266460008256379607
9981440 41 17761772866911957033

>  <PUBCHEM_SHAPE_MULTIPOLES>  (1) 
577.18
9.31
9.3
1.27
12.5
12.08
0.17
-12.1
-0.26
-12.47
-0.26
0
0
0

>  <PUBCHEM_SHAPE_SELFOVERLAP>  (1) 
1221.338

>  <PUBCHEM_SHAPE_VOLUME>  (1) 
325.4

>  <PUBCHEM_COORDINATE_TYPE>  (1) 
2
5
10

$$$$
