19730
     RDKit          3D

 20 20  0  0  0  0  0  0  0  0999 V2000
   -1.8036   -3.0696    0.7063 I   0  0  0  0  0  0  0  0  0  0  0  0
   -1.7117    3.0315    0.8095 I   0  0  0  0  0  0  0  0  0  0  0  0
   -0.7533   -0.0407    1.1364 O   0  0  0  0  0  0  0  0  0  0  0  0
   -0.0030   -0.0393   -1.0783 O   0  0  0  0  0  0  0  0  0  0  0  0
   -7.0652    0.0946   -1.2425 N   0  0  0  0  0  0  0  0  0  0  0  0
    5.2612   -0.0763   -0.5491 C   0  0  0  0  0  0  0  0  0  0  0  0
    4.0942   -0.1157    0.4424 C   0  0  0  0  0  0  0  0  0  0  0  0
    6.6333   -0.0196    0.1257 C   0  0  0  0  0  0  0  0  0  0  0  0
    2.7197   -0.0967   -0.2352 C   0  0  0  0  0  0  0  0  0  0  0  0
    7.7541    0.0921   -0.9091 C   0  0  0  0  0  0  0  0  0  0  0  0
    1.5740   -0.0696    0.7774 C   0  0  0  0  0  0  0  0  0  0  0  0
    9.1184    0.1871   -0.2446 C   0  0  0  0  0  0  0  0  0  0  0  0
    0.2072   -0.0380    0.1271 C   0  0  0  0  0  0  0  0  0  0  0  0
   -2.0603   -0.0126    0.6441 C   0  0  0  0  0  0  0  0  0  0  0  0
   -2.7020   -1.2069    0.3885 C   0  0  0  0  0  0  0  0  0  0  0  0
   -2.6656    1.2085    0.4293 C   0  0  0  0  0  0  0  0  0  0  0  0
   -4.0071   -1.1789   -0.1034 C   0  0  0  0  0  0  0  0  0  0  0  0
   -3.9706    1.2363   -0.0626 C   0  0  0  0  0  0  0  0  0  0  0  0
   -4.6413    0.0426   -0.3289 C   0  0  0  0  0  0  0  0  0  0  0  0
   -5.9782    0.0713   -0.8328 C   0  0  0  0  0  0  0  0  0  0  0  0
  1 15  1  0
  2 16  1  0
  3 13  1  0
  3 14  1  0
  4 13  2  0
  5 20  3  0
  6  7  1  0
  6  8  1  0
  7  9  1  0
  8 10  1  0
  9 11  1  0
 10 12  1  0
 11 13  1  0
 14 15  2  0
 14 16  1  0
 15 17  1  0
 16 18  2  0
 17 19  2  0
 18 19  1  0
 19 20  1  0
M  END
>  <PUBCHEM_COMPOUND_CID>  (1) 
19730

>  <PUBCHEM_CONFORMER_RMSD>  (1) 
0.8

>  <PUBCHEM_CONFORMER_DIVERSEORDER>  (1) 
1
128
100
134
71
143
58
141
107
44
136
103
56
18
146
137
7
145
41
99
130
92
135
9
121
106
5
129
101
120
86
67
125
49
123
126
147
90
64
124
57
119
87
72
133
33
69
118
53
104
111
127
31
110
131
42
6
19
14
66
117
115
109
4
61
148
89
138
10
51
24
2
39
16
112
54
142
48
132
63
78
97
114
62
139
47
46
102
34
94
70
88
17
29
35
77
80
96
91
122
32
95
11
22
108
36
23
65
93
40
3
98
28
50
38
113
84
37
15
73
68
144
85
21
20
74
25
52
13
140
83
105
55
8
82
81
79
45
60
43
76
27
75
12
59
116
26
30

>  <PUBCHEM_MMFF94_PARTIAL_CHARGES>  (1) 
16
1 -0.08
11 0.06
13 0.66
14 0.08
15 0.08
16 0.08
17 -0.15
18 -0.15
19 0.07
2 -0.08
20 0.48
3 -0.23
36 0.15
37 0.15
4 -0.57
5 -0.56

>  <PUBCHEM_EFFECTIVE_ROTOR_COUNT>  (1) 
8

>  <PUBCHEM_PHARMACOPHORE_FEATURES>  (1) 
8
1 1 hydrophobe
1 12 hydrophobe
1 2 hydrophobe
1 4 acceptor
1 5 acceptor
3 6 8 10 hydrophobe
3 7 9 11 hydrophobe
6 14 15 16 17 18 19 rings

>  <PUBCHEM_HEAVY_ATOM_COUNT>  (1) 
20

>  <PUBCHEM_ATOM_DEF_STEREO_COUNT>  (1) 
0

>  <PUBCHEM_ATOM_UDEF_STEREO_COUNT>  (1) 
0

>  <PUBCHEM_BOND_DEF_STEREO_COUNT>  (1) 
0

>  <PUBCHEM_BOND_UDEF_STEREO_COUNT>  (1) 
0

>  <PUBCHEM_ISOTOPIC_ATOM_COUNT>  (1) 
0

>  <PUBCHEM_COMPONENT_COUNT>  (1) 
1

>  <PUBCHEM_CACTVS_TAUTO_COUNT>  (1) 
1

>  <PUBCHEM_CONFORMER_ID>  (1) 
00004D1200000001

>  <PUBCHEM_MMFF94_ENERGY>  (1) 
32.3012

>  <PUBCHEM_FEATURE_SELFOVERLAP>  (1) 
40.611

>  <PUBCHEM_SHAPE_FINGERPRINT>  (1) 
10 15 9295283950640880270
10299344 5 11600004354477797868
10366900 7 18131912654565136314
10411042 1 18050009089147661315
10968037 39 18410573989921217647
11315181 36 18259991491467278176
12091667 2 18334863822730139922
12236239 1 17531240648002508499
12788726 201 18340763746026506417
13288520 33 18201719561539154129
13533116 47 18339633434983113378
13668630 136 15985108501030939556
14123256 10 18201719552579889678
14251764 46 17095241423778682875
14933364 13 8142080954194146526
15183329 4 18408322168880745946
15419008 47 17632570544660739024
15716309 27 11959729365818003116
17093844 174 15285363946353229424
187816 3 18411414012847403499
19489759 90 18342179955668336488
21150785 3 17918273156401167524
21267235 1 18342739650437435129
21304253 13 8214140772725090191
21315759 40 14620798210961838468
22224240 67 11241970365913685301
2297311 6 18273496771084435841
23035841 295 9511458918919475908
23402539 116 18343578526211947645
23557571 272 18131074800792782352
23559900 14 18340762749319936328
246663 6 15339119056760073996
249057 3 18261674856643619380
283562 15 18269274574121023569
300161 21 17749106695345439258
335352 9 18411693289164972541
4325135 7 16702301256489089292
59755656 215 18413389813509626910

>  <PUBCHEM_SHAPE_MULTIPOLES>  (1) 
418.74
20.17
2.37
1.05
48.7
0.03
0.02
-0.93
7.89
-3.51
-1.04
-0.55
-0.02
0

>  <PUBCHEM_SHAPE_SELFOVERLAP>  (1) 
801.906

>  <PUBCHEM_SHAPE_VOLUME>  (1) 
260.9

>  <PUBCHEM_COORDINATE_TYPE>  (1) 
2
5
10

$$$$
