19733
     RDKit          3D

 16 17  0  0  0  0  0  0  0  0999 V2000
    2.0794    2.5586   -0.0429 Cl  0  0  0  0  0  0  0  0  0  0  0  0
    2.9114   -0.5597   -0.0914 S   0  0  0  0  0  0  0  0  0  0  0  0
    2.9662   -1.8901   -0.6745 O   0  0  0  0  0  0  0  0  0  0  0  0
    3.7027    0.5193   -0.6594 O   0  0  0  0  0  0  0  0  0  0  0  0
   -2.3423   -2.6404   -0.0220 O   0  0  0  0  0  0  0  0  0  0  0  0
   -3.5078    1.8281    0.0502 O   0  0  0  0  0  0  0  0  0  0  0  0
   -3.3174   -0.5086    0.0193 N   0  0  0  0  0  0  0  0  0  0  0  0
    3.2436   -0.6699    1.5794 N   0  0  0  0  0  0  0  0  0  0  0  0
   -1.0613   -0.6369   -0.0229 C   0  0  0  0  0  0  0  0  0  0  0  0
   -1.4117    0.7064   -0.0016 C   0  0  0  0  0  0  0  0  0  0  0  0
    1.2332   -0.0491   -0.0570 C   0  0  0  0  0  0  0  0  0  0  0  0
    0.2551   -1.0479   -0.0508 C   0  0  0  0  0  0  0  0  0  0  0  0
   -0.4638    1.7084   -0.0072 C   0  0  0  0  0  0  0  0  0  0  0  0
    0.8773    1.3152   -0.0353 C   0  0  0  0  0  0  0  0  0  0  0  0
   -2.2931   -1.4254   -0.0093 C   0  0  0  0  0  0  0  0  0  0  0  0
   -2.8715    0.7921    0.0256 C   0  0  0  0  0  0  0  0  0  0  0  0
  1 14  1  0
  2  3  2  0
  2  4  2  0
  2  8  1  0
  2 11  1  0
  5 15  2  0
  6 16  2  0
  7 15  1  0
  7 16  1  0
  9 10  2  0
  9 12  1  0
  9 15  1  0
 10 13  1  0
 10 16  1  0
 11 12  2  0
 11 14  1  0
 13 14  2  0
M  END
>  <PUBCHEM_COMPOUND_CID>  (1) 
19733

>  <PUBCHEM_CONFORMER_RMSD>  (1) 
0.6

>  <PUBCHEM_CONFORMER_DIVERSEORDER>  (1) 
1
2

>  <PUBCHEM_MMFF94_PARTIAL_CHARGES>  (1) 
21
1 -0.18
10 0.09
11 -0.01
12 -0.15
13 -0.15
14 0.18
15 0.54
16 0.54
17 0.15
18 0.15
19 0.37
2 1.45
20 0.42
21 0.42
3 -0.65
4 -0.65
5 -0.57
6 -0.57
7 -0.49
8 -0.98
9 0.09

>  <PUBCHEM_EFFECTIVE_ROTOR_COUNT>  (1) 
1.2

>  <PUBCHEM_PHARMACOPHORE_FEATURES>  (1) 
8
1 3 acceptor
1 4 acceptor
1 5 acceptor
1 6 acceptor
1 7 donor
1 8 donor
5 7 9 10 15 16 rings
6 9 10 11 12 13 14 rings

>  <PUBCHEM_HEAVY_ATOM_COUNT>  (1) 
16

>  <PUBCHEM_ATOM_DEF_STEREO_COUNT>  (1) 
0

>  <PUBCHEM_ATOM_UDEF_STEREO_COUNT>  (1) 
0

>  <PUBCHEM_BOND_DEF_STEREO_COUNT>  (1) 
0

>  <PUBCHEM_BOND_UDEF_STEREO_COUNT>  (1) 
0

>  <PUBCHEM_ISOTOPIC_ATOM_COUNT>  (1) 
0

>  <PUBCHEM_COMPONENT_COUNT>  (1) 
1

>  <PUBCHEM_CACTVS_TAUTO_COUNT>  (1) 
3

>  <PUBCHEM_CONFORMER_ID>  (1) 
00004D1500000001

>  <PUBCHEM_MMFF94_ENERGY>  (1) 
29.2789

>  <PUBCHEM_FEATURE_SELFOVERLAP>  (1) 
40.708

>  <PUBCHEM_SHAPE_FINGERPRINT>  (1) 
10130415 120 18261107431360642792
10608611 8 18411699932382503549
10967382 1 18267024946842962183
11132069 177 18339074891681305560
12251169 10 18410855468908065577
12382932 28 18341609295963808322
12932764 1 17603860091965232548
13140716 1 18410290337079791545
13380535 76 18341610357211159495
14144814 61 18410293609728592368
14178342 30 18340189856659844434
14648413 74 18411140272458206232
15375462 189 18040996215575535874
15442244 35 18410856529728148736
15536298 74 18270684293729672388
15669948 3 18410008853365563334
16945 1 18338514144956566093
17804303 29 18411986831876223540
17990270 104 18411421743350803182
18186145 218 17676209043915962086
193761 8 18339081626242954997
19591789 44 16108692172983430188
20645477 70 18194396912761516975
21267235 1 18338247036566540702
21501502 16 18337672035013871653
21501925 9 18339630252269298290
2334 1 18266176325814366373
23366157 5 18041558165308479100
23402539 116 18127116485933630044
23463225 33 18408886252104178924
23552423 10 18189336951322563661
23559900 14 18342458085372049190
2748010 2 18338514265294823765
3312278 4 18412833498958567064
335352 9 18194685869201544125
34934 24 18409725141090348732
474 4 17096663186908608772
5104073 3 18410576179958900600
5902787 121 18335412478773937330
7364860 26 18270120257107379144
74978 22 18410573998178953237
81228 2 17984150249155209960
8809292 202 18335989726283434498
9709674 26 18413111683790349902

>  <PUBCHEM_SHAPE_MULTIPOLES>  (1) 
301.55
5.99
2.46
0.76
0.46
0.24
0.17
-0.61
0.09
-0.19
-0.11
0.57
-0.12
-0.1

>  <PUBCHEM_SHAPE_SELFOVERLAP>  (1) 
644.042

>  <PUBCHEM_SHAPE_VOLUME>  (1) 
171

>  <PUBCHEM_COORDINATE_TYPE>  (1) 
2
5
10

$$$$
