19745
     RDKit          3D

 31 32  0  0  0  0  0  0  0  0999 V2000
    0.3268   -0.7915    1.6864 O   0  0  0  0  0  0  0  0  0  0  0  0
   -1.2306    1.8565   -1.9306 O   0  0  0  0  0  0  0  0  0  0  0  0
   -4.9929    2.5000    0.9156 O   0  0  0  0  0  0  0  0  0  0  0  0
    2.8843   -1.4428    0.4192 O   0  0  0  0  0  0  0  0  0  0  0  0
   -2.8448   -3.2399   -0.5999 N   0  0  0  0  0  0  0  0  0  0  0  0
    0.1086   -0.9702   -0.6126 N   0  0  0  0  0  0  0  0  0  0  0  0
    2.6430    0.8588    0.1894 N   0  0  0  0  0  0  0  0  0  0  0  0
   -2.1250   -1.9733   -0.5626 C   0  0  0  0  0  0  0  0  0  0  0  0
   -2.8337   -3.8791    0.7174 C   0  0  0  0  0  0  0  0  0  0  0  0
   -4.2223   -3.0376   -1.0535 C   0  0  0  0  0  0  0  0  0  0  0  0
   -0.6240   -2.2163   -0.6200 C   0  0  0  0  0  0  0  0  0  0  0  0
   -3.5233   -5.2323    0.6767 C   0  0  0  0  0  0  0  0  0  0  0  0
   -4.9932   -2.1518   -0.0896 C   0  0  0  0  0  0  0  0  0  0  0  0
    0.5274   -0.3553    0.5549 C   0  0  0  0  0  0  0  0  0  0  0  0
    1.2844    0.9189    0.3297 C   0  0  0  0  0  0  0  0  0  0  0  0
    0.5742    2.0596    0.2797 C   0  0  0  0  0  0  0  0  0  0  0  0
   -0.8843    2.1718    0.4265 C   0  0  0  0  0  0  0  0  0  0  0  0
   -1.7285    2.0675   -0.6790 C   0  0  0  0  0  0  0  0  0  0  0  0
   -1.4207    2.3868    1.6961 C   0  0  0  0  0  0  0  0  0  0  0  0
    3.3626   -0.3249    0.2431 C   0  0  0  0  0  0  0  0  0  0  0  0
   -3.1094    2.1782   -0.5148 C   0  0  0  0  0  0  0  0  0  0  0  0
   -3.6457    2.3930    0.7549 C   0  0  0  0  0  0  0  0  0  0  0  0
   -2.8012    2.4975    1.8603 C   0  0  0  0  0  0  0  0  0  0  0  0
    4.8297   -0.1933    0.0460 C   0  0  0  0  0  0  0  0  0  0  0  0
    5.6958   -1.1313    0.6082 C   0  0  0  0  0  0  0  0  0  0  0  0
    5.3407    0.8677   -0.7015 C   0  0  0  0  0  0  0  0  0  0  0  0
    7.0728   -1.0080    0.4230 C   0  0  0  0  0  0  0  0  0  0  0  0
    6.7178    0.9908   -0.8867 C   0  0  0  0  0  0  0  0  0  0  0  0
   -2.1743    1.7644   -2.9953 C   0  0  0  0  0  0  0  0  0  0  0  0
    7.5837    0.0529   -0.3244 C   0  0  0  0  0  0  0  0  0  0  0  0
   -5.7980    2.3836   -0.2566 C   0  0  0  0  0  0  0  0  0  0  0  0
  1 14  2  0
  2 18  1  0
  2 29  1  0
  3 22  1  0
  3 31  1  0
  4 20  2  0
  5  8  1  0
  5  9  1  0
  5 10  1  0
  6 11  1  0
  6 14  1  0
  7 15  1  0
  7 20  1  0
  8 11  1  0
  9 12  1  0
 10 13  1  0
 14 15  1  0
 15 16  2  0
 16 17  1  0
 17 18  2  0
 17 19  1  0
 18 21  1  0
 19 23  2  0
 20 24  1  0
 21 22  2  0
 22 23  1  0
 24 25  2  0
 24 26  1  0
 25 27  1  0
 26 28  2  0
 27 30  2  0
 28 30  1  0
M  END
>  <PUBCHEM_COMPOUND_CID>  (1) 
19745

>  <PUBCHEM_CONFORMER_RMSD>  (1) 
1.2

>  <PUBCHEM_CONFORMER_DIVERSEORDER>  (1) 
2
20
36
26
27
34
31
12
18
30
29
8
19
39
17
33
6
23
7
9
37
10
15
4
38
24
32
21
11
22
16
13
5
25
35
1
28
3
40
14

>  <PUBCHEM_MMFF94_PARTIAL_CHARGES>  (1) 
40
1 -0.57
10 0.27
11 0.3
14 0.62
15 0.12
16 -0.18
17 0.03
18 0.08
19 -0.15
2 -0.36
20 0.54
21 -0.15
22 0.08
23 -0.15
24 0.09
25 -0.15
26 -0.15
27 -0.15
28 -0.15
29 0.28
3 -0.36
30 -0.15
31 0.28
4 -0.57
46 0.37
47 0.15
48 0.37
49 0.15
5 -0.81
50 0.15
51 0.15
52 0.15
53 0.15
54 0.15
55 0.15
59 0.15
6 -0.73
7 -0.54
8 0.27
9 0.27

>  <PUBCHEM_EFFECTIVE_ROTOR_COUNT>  (1) 
13

>  <PUBCHEM_PHARMACOPHORE_FEATURES>  (1) 
9
1 1 acceptor
1 2 acceptor
1 3 acceptor
1 4 acceptor
1 5 cation
1 6 donor
1 7 donor
6 17 18 19 21 22 23 rings
6 24 25 26 27 28 30 rings

>  <PUBCHEM_HEAVY_ATOM_COUNT>  (1) 
31

>  <PUBCHEM_ATOM_DEF_STEREO_COUNT>  (1) 
0

>  <PUBCHEM_ATOM_UDEF_STEREO_COUNT>  (1) 
0

>  <PUBCHEM_BOND_DEF_STEREO_COUNT>  (1) 
0

>  <PUBCHEM_BOND_UDEF_STEREO_COUNT>  (1) 
1

>  <PUBCHEM_ISOTOPIC_ATOM_COUNT>  (1) 
0

>  <PUBCHEM_COMPONENT_COUNT>  (1) 
1

>  <PUBCHEM_CACTVS_TAUTO_COUNT>  (1) 
4

>  <PUBCHEM_CONFORMER_ID>  (1) 
00004D2100000002

>  <PUBCHEM_MMFF94_ENERGY>  (1) 
101.7872

>  <PUBCHEM_FEATURE_SELFOVERLAP>  (1) 
45.673

>  <PUBCHEM_SHAPE_FINGERPRINT>  (1) 
10 15 17023193713299896740
10050765 1 18340486789662040864
10119406 146 17985555455534213086
11991303 11 18334014960582151239
12156800 1 18124629519907985607
12597179 24 17987803999271616406
12645989 146 17913765287640531303
12788726 201 18337666511981874362
13583140 156 17168428134902293904
13631057 29 18411695526146796082
13911987 19 18192136110897099469
14251757 5 18409160047848630691
14713325 29 18342459240117085934
14856354 85 18201723937689297133
14866123 147 18411701002425491907
15131766 46 15577571312329426796
15276724 80 18268716180826819788
15890870 6 18409726245830906423
17980427 26 14710271901005261089
19427546 20 18409736200773508894
21033648 144 18411689986246204780
21049683 271 17758120676132189462
21236236 1 18412263938918686358
21792965 131 18187916224003502691
23576562 1 18334586775902570708
25147074 1 18187919552745166266
25269216 80 18265639705081615534
4058900 60 17980198591881332321
437815 12 18198335354896187671
4409770 3 18413106174017169939
469060 322 17458340849036584167
484985 159 18411132550497365815
497634 4 18335419093150252012
5080951 261 18261938692179037538
5104073 3 18341600526626865144
5171179 24 17844235440173334225
5486654 2 18271243807482670161
5912855 24 18334294262770095514
59755656 520 18339075986771683797
7237137 82 18408885161620173596

>  <PUBCHEM_SHAPE_MULTIPOLES>  (1) 
599.55
15.35
5.15
1.56
30.1
5.63
0.64
1.91
0.98
-11.75
-0.8
-1.36
-1.02
-0.95

>  <PUBCHEM_SHAPE_SELFOVERLAP>  (1) 
1248.501

>  <PUBCHEM_SHAPE_VOLUME>  (1) 
340.4

>  <PUBCHEM_COORDINATE_TYPE>  (1) 
2
5
10

$$$$
