19744
     RDKit          3D

 16 15  0  0  0  0  0  0  0  0999 V2000
   -5.6483   -0.0187   -0.0618 N   0  0  0  0  0  0  0  0  0  0  0  0
    5.6451   -0.0258   -0.0587 N   0  0  0  0  0  0  0  0  0  0  0  0
   -4.4010    0.7808   -0.0301 C   0  0  0  0  0  0  0  0  0  0  0  0
    4.3830   -0.8020    0.0251 C   0  0  0  0  0  0  0  0  0  0  0  0
   -3.1836   -0.1262    0.1002 C   0  0  0  0  0  0  0  0  0  0  0  0
    3.2090    0.1656    0.0763 C   0  0  0  0  0  0  0  0  0  0  0  0
   -1.8542    0.6338    0.0882 C   0  0  0  0  0  0  0  0  0  0  0  0
    1.8510   -0.5405    0.1142 C   0  0  0  0  0  0  0  0  0  0  0  0
   -0.6656   -0.3289    0.1442 C   0  0  0  0  0  0  0  0  0  0  0  0
    0.6648    0.4259    0.0913 C   0  0  0  0  0  0  0  0  0  0  0  0
   -5.6518   -0.9804   -1.2591 C   0  0  0  0  0  0  0  0  0  0  0  0
   -5.7957   -0.8534    1.2187 C   0  0  0  0  0  0  0  0  0  0  0  0
   -6.8793    0.8918   -0.1801 C   0  0  0  0  0  0  0  0  0  0  0  0
    5.7895    0.9122    1.1477 C   0  0  0  0  0  0  0  0  0  0  0  0
    6.8607   -0.9628   -0.0827 C   0  0  0  0  0  0  0  0  0  0  0  0
    5.6762    0.8287   -1.3334 C   0  0  0  0  0  0  0  0  0  0  0  0
  1  3  1  0
  1 11  1  0
  1 12  1  0
  1 13  1  0
  2  4  1  0
  2 14  1  0
  2 15  1  0
  2 16  1  0
  3  5  1  0
  4  6  1  0
  5  7  1  0
  6  8  1  0
  7  9  1  0
  8 10  1  0
  9 10  1  0
M  CHG  2   1   1   2   1
M  END
>  <PUBCHEM_COMPOUND_CID>  (1) 
19744

>  <PUBCHEM_CONFORMER_RMSD>  (1) 
0.8

>  <PUBCHEM_CONFORMER_DIVERSEORDER>  (1) 
1
80
70
32
66
52
2
62
109
101
95
53
43
51
87
99
57
27
86
68
98
65
31
71
45
49
18
58
75
90
8
78
21
29
81
20
16
39
56
103
100
3
35
106
44
54
26
85
82
93
4
88
67
23
37
94
74
5
59
42
40
83
89
55
22
38
11
72
79
46
96
9
36
64
41
25
92
91
104
102
15
7
47
97
76
6
50
105
14
17
48
107
19
12
24
69
61
28
34
73
63
84
30
33
60
13
77
10
108

>  <PUBCHEM_MMFF94_PARTIAL_CHARGES>  (1) 
10
1 -1.01
11 0.5
12 0.5
13 0.5
14 0.5
15 0.5
16 0.5
2 -1.01
3 0.5
4 0.5

>  <PUBCHEM_EFFECTIVE_ROTOR_COUNT>  (1) 
9

>  <PUBCHEM_PHARMACOPHORE_FEATURES>  (1) 
4
1 1 cation
1 2 cation
3 5 7 9 hydrophobe
3 6 8 10 hydrophobe

>  <PUBCHEM_HEAVY_ATOM_COUNT>  (1) 
16

>  <PUBCHEM_ATOM_DEF_STEREO_COUNT>  (1) 
0

>  <PUBCHEM_ATOM_UDEF_STEREO_COUNT>  (1) 
0

>  <PUBCHEM_BOND_DEF_STEREO_COUNT>  (1) 
0

>  <PUBCHEM_BOND_UDEF_STEREO_COUNT>  (1) 
0

>  <PUBCHEM_ISOTOPIC_ATOM_COUNT>  (1) 
0

>  <PUBCHEM_COMPONENT_COUNT>  (1) 
1

>  <PUBCHEM_CACTVS_TAUTO_COUNT>  (1) 
1

>  <PUBCHEM_CONFORMER_ID>  (1) 
00004D2000000001

>  <PUBCHEM_MMFF94_ENERGY>  (1) 
44.3669

>  <PUBCHEM_FEATURE_SELFOVERLAP>  (1) 
20.297

>  <PUBCHEM_SHAPE_FINGERPRINT>  (1) 
10638233 991 14764342786213920794
10968037 39 18342457045704879991
11315181 36 16559029416213642755
12091667 2 18412825781450845427
125118 31 18260830397328180764
13288520 33 17846212285762102687
13533116 47 18188484675910029730
1420 363 18272374178238873587
14251718 22 17603305959875017139
14251732 16 17703503397672681808
14251764 46 16056879126095631886
15716309 27 18060419123204057047
17093844 174 17703788116256991059
17834072 33 18272650160073751356
17834076 25 18408604755842379890
19489759 90 13912321279222900789
20281389 69 18409164398613370376
20621476 8 17967531229722150437
220451 1 18060140933619092495
23035841 295 17632577145328684943
23402539 116 18341890793027174709
23521765 1 18341894082244129512
23559900 14 17968096481841794089
42788 4 18412544301688680512
4463277 17 18202844348780623825
57583515 80 18260267439089935393
8209 1 18410573976566797797

>  <PUBCHEM_SHAPE_MULTIPOLES>  (1) 
319.31
22.57
1.07
1.01
0.1
0.02
-0.07
0.43
-1.11
0
-0.03
0
0.01
0.03

>  <PUBCHEM_SHAPE_SELFOVERLAP>  (1) 
574.992

>  <PUBCHEM_SHAPE_VOLUME>  (1) 
210.1

>  <PUBCHEM_COORDINATE_TYPE>  (1) 
2
5
10

$$$$
