19742
     RDKit          3D

 23 26  0  0  1  0  0  0  0  0999 V2000
   -1.1700   -4.4642   -0.8548 Cl  0  0  0  0  0  0  0  0  0  0  0  0
   -0.9122    2.7808    1.1892 O   0  0  0  0  0  0  0  0  0  0  0  0
    2.8861    1.8065   -0.0021 N   0  0  0  0  0  0  0  0  0  0  0  0
   -0.1263    1.6359    1.0523 N   0  0  0  0  0  0  0  0  0  0  0  0
    2.3597   -0.1988    1.0057 N   0  0  0  0  0  0  0  0  0  0  0  0
    3.8424    1.0053   -0.7518 C   0  0  0  0  0  0  0  0  0  0  0  0
    3.3577    0.3161   -1.9938 C   0  0  0  0  0  0  0  0  0  0  0  0
    4.2682    1.5040   -2.1019 C   0  0  0  0  0  0  0  0  0  0  0  0
    2.1808    1.1382    0.8478 C   0  0  0  0  0  0  0  0  0  0  0  0
    1.1509    1.7882    1.7054 C   0  0  0  0  0  0  0  0  0  0  0  0
   -0.6518    0.4799    0.4755 C   0  0  0  0  0  0  0  0  0  0  0  0
   -0.0610   -0.7406    0.3314 C   0  0  0  0  0  0  0  0  0  0  0  0
    1.3738   -1.0165    0.7942 C   0  0  0  0  0  0  0  0  0  0  0  0
   -2.0494    0.6547   -0.0150 C   0  0  0  0  0  0  0  0  0  0  0  0
   -0.7616   -1.8911   -0.2615 C   0  0  0  0  0  0  0  0  0  0  0  0
    1.7122   -2.4626    0.9974 C   0  0  0  0  0  0  0  0  0  0  0  0
   -0.2994   -3.1445   -0.1614 C   0  0  0  0  0  0  0  0  0  0  0  0
   -3.1096    0.4028    0.8433 C   0  0  0  0  0  0  0  0  0  0  0  0
   -2.2670    1.0664   -1.3217 C   0  0  0  0  0  0  0  0  0  0  0  0
    0.9167   -3.4358    0.5444 C   0  0  0  0  0  0  0  0  0  0  0  0
   -4.4168    0.5660    0.3846 C   0  0  0  0  0  0  0  0  0  0  0  0
   -3.5743    1.2297   -1.7802 C   0  0  0  0  0  0  0  0  0  0  0  0
   -4.6491    0.9795   -0.9270 C   0  0  0  0  0  0  0  0  0  0  0  0
  1 17  1  0
  2  4  1  0
  3  6  1  0
  3  9  2  0
  4 10  1  0
  4 11  1  0
  5  9  1  0
  5 13  2  0
  6  7  1  0
  6  8  1  0
  7  8  1  0
  9 10  1  0
 11 12  2  0
 11 14  1  0
 12 13  1  0
 12 15  1  0
 13 16  1  0
 14 18  2  0
 14 19  1  0
 15 17  2  0
 16 20  2  0
 17 20  1  0
 18 21  1  0
 19 22  2  0
 21 23  2  0
 22 23  1  0
M  END
>  <PUBCHEM_COMPOUND_CID>  (1) 
19742

>  <PUBCHEM_CONFORMER_RMSD>  (1) 
0.6

>  <PUBCHEM_CONFORMER_DIVERSEORDER>  (1) 
2
1

>  <PUBCHEM_MMFF94_PARTIAL_CHARGES>  (1) 
37
1 -0.14
10 0.43
11 0.07
12 0.01
13 0.42
14 0.03
15 -0.15
16 -0.14
17 0.14
18 -0.15
19 -0.15
2 -0.38
20 -0.15
21 -0.15
22 -0.15
23 -0.15
24 0.1
25 0.1
26 0.1
27 0.1
28 0.1
3 -0.66
31 0.15
32 0.15
33 0.15
34 0.15
35 0.15
36 0.4
37 0.15
38 0.15
39 0.15
4 -0.49
5 -0.66
6 0.11
7 -0.2
8 -0.2
9 0.6

>  <PUBCHEM_EFFECTIVE_ROTOR_COUNT>  (1) 
3

>  <PUBCHEM_PHARMACOPHORE_FEATURES>  (1) 
6
1 2 anion
1 5 acceptor
3 3 5 9 cation
6 12 13 15 16 17 20 rings
6 14 18 19 21 22 23 rings
7 4 5 9 10 11 12 13 rings

>  <PUBCHEM_HEAVY_ATOM_COUNT>  (1) 
23

>  <PUBCHEM_ATOM_DEF_STEREO_COUNT>  (1) 
0

>  <PUBCHEM_ATOM_UDEF_STEREO_COUNT>  (1) 
0

>  <PUBCHEM_BOND_DEF_STEREO_COUNT>  (1) 
0

>  <PUBCHEM_BOND_UDEF_STEREO_COUNT>  (1) 
0

>  <PUBCHEM_ISOTOPIC_ATOM_COUNT>  (1) 
0

>  <PUBCHEM_COMPONENT_COUNT>  (1) 
1

>  <PUBCHEM_CACTVS_TAUTO_COUNT>  (1) 
1

>  <PUBCHEM_CONFORMER_ID>  (1) 
00004D1E00000002

>  <PUBCHEM_MMFF94_ENERGY>  (1) 
82.238

>  <PUBCHEM_FEATURE_SELFOVERLAP>  (1) 
30.455

>  <PUBCHEM_SHAPE_FINGERPRINT>  (1) 
10165383 225 18335432282588875997
108634 29 17839721996322600231
1100329 8 18268690793207146554
12160290 23 18121215643293210507
12293681 25 17632029640858291222
12553582 1 17623284975521823283
12596599 1 17346303926050283373
12788726 201 17616244123541873378
12824470 246 13758088363357071692
12895836 83 18042979842169553436
12895837 130 17172389907246972700
13140716 1 18268407157597960218
13149001 5 18128823134360421160
133893 2 17754195097392649040
13583140 156 16517067550465168827
13681431 1 17760364392374383198
13836976 161 18335690598996314550
14863182 85 18127112105410425066
15163728 17 17532396199984099316
15210252 30 16888056298565509223
15463212 79 17897167034247486980
15475509 35 13182439128245429069
15849732 13 17967803917865673722
16752209 62 18192705876456885610
16945 1 18341881961893997361
17134986 127 18333449872030227252
18186145 218 18272082825091044393
19591789 44 18339922731200647947
20871999 31 18123762108281242748
21285901 2 17407678879597769734
21304303 94 18272375239085675478
21344244 181 17917723438915587951
22182313 1 17557426788833964392
22620623 9 17981904226067250262
23114952 82 17970905553551151365
23227448 37 17974297808900365732
23419403 2 17395914912671439226
23558518 356 17902518086424598377
23559900 14 17387401338397478795
238 59 18338521837179722314
26353 1 17113271490155047854
2748010 2 17912355730374787168
3060560 45 18333448751007138548
3729539 64 18121805862574463982
394222 165 18040997302365766322
44802255 64 17389140925292343878
458136 41 18338243669739351203
46194498 28 17826502276623353037
58779409 8 18339081621779416671
633830 44 17988924491999677921
6669772 16 18272642481394938538
81228 2 17616526697908977283

>  <PUBCHEM_SHAPE_MULTIPOLES>  (1) 
454.39
7.06
4.1
1.73
2.02
6.05
-0.58
-5.43
-3.77
-0.11
-0.16
-0.89
-0.87
-0.69

>  <PUBCHEM_SHAPE_SELFOVERLAP>  (1) 
982.355

>  <PUBCHEM_SHAPE_VOLUME>  (1) 
248.3

>  <PUBCHEM_COORDINATE_TYPE>  (1) 
2
5
10

$$$$
