19741
     RDKit          3D

 23 25  0  0  1  0  0  0  0  0999 V2000
   -2.1165   -0.4989   -2.1226 S   0  0  0  0  0  0  0  0  0  0  0  0
   -2.0728   -2.0470    1.9927 O   0  0  0  0  0  0  0  0  0  0  0  0
   -3.1206    1.5131    1.9597 O   0  0  0  0  0  0  0  0  0  0  0  0
   -5.2185    1.4498    1.0703 O   0  0  0  0  0  0  0  0  0  0  0  0
    1.9512   -1.5040   -1.4702 O   0  0  0  0  0  0  0  0  0  0  0  0
   -2.0790   -0.2533    0.4587 N   0  0  0  0  0  0  0  0  0  0  0  0
    0.8308   -1.5202    0.5622 N   0  0  0  0  0  0  0  0  0  0  0  0
    4.6083    2.0623    0.8454 N   0  0  0  0  0  0  0  0  0  0  0  0
   -1.0903   -0.2890   -0.6233 C   0  0  0  0  0  0  0  0  0  0  0  0
   -3.5102    0.4601   -1.3459 C   0  0  0  0  0  0  0  0  0  0  0  0
   -3.4649    0.0446    0.1416 C   0  0  0  0  0  0  0  0  0  0  0  0
   -0.5321   -1.5681    0.0151 C   0  0  0  0  0  0  0  0  0  0  0  0
   -1.6421   -1.3933    1.0698 C   0  0  0  0  0  0  0  0  0  0  0  0
   -3.2455    1.9535   -1.5862 C   0  0  0  0  0  0  0  0  0  0  0  0
   -4.8276    0.0486   -2.0065 C   0  0  0  0  0  0  0  0  0  0  0  0
   -4.0575    1.0687    1.0867 C   0  0  0  0  0  0  0  0  0  0  0  0
    1.9723   -1.4918   -0.2421 C   0  0  0  0  0  0  0  0  0  0  0  0
    3.2474   -1.4418    0.5766 C   0  0  0  0  0  0  0  0  0  0  0  0
    4.0825   -0.2184    0.3056 C   0  0  0  0  0  0  0  0  0  0  0  0
    5.0454   -0.2362   -0.6844 C   0  0  0  0  0  0  0  0  0  0  0  0
    3.8946    0.9306    1.0394 C   0  0  0  0  0  0  0  0  0  0  0  0
    5.8002    0.9089   -0.9138 C   0  0  0  0  0  0  0  0  0  0  0  0
    5.5450    2.0218   -0.1287 C   0  0  0  0  0  0  0  0  0  0  0  0
  1  9  1  0
  1 10  1  0
  2 13  2  0
  3 16  1  0
  4 16  2  0
  5 17  2  0
  6  9  1  0
  6 11  1  0
  6 13  1  0
  7 12  1  0
  7 17  1  0
  8 21  2  0
  8 23  1  0
  9 12  1  0
 10 11  1  0
 10 14  1  0
 10 15  1  0
 11 16  1  0
 12 13  1  0
 17 18  1  0
 18 19  1  0
 19 20  2  0
 19 21  1  0
 20 22  1  0
 22 23  2  0
M  END
>  <PUBCHEM_COMPOUND_CID>  (1) 
19741

>  <PUBCHEM_CONFORMER_RMSD>  (1) 
0.8

>  <PUBCHEM_CONFORMER_DIVERSEORDER>  (1) 
1
202
229
223
83
98
173
266
165
253
276
128
4
85
159
61
277
2
67
252
149
150
81
275
232
241
272
96
201
40
86
163
37
222
3
274
225
270
154
99
77
104
113
139
110
179
177
7
106
14
246
56
242
261
269
206
20
219
93
97
182
112
247
129
227
175
68
49
46
264
90
210
74
95
108
240
204
123
199
267
126
130
9
103
19
124
236
164
92
268
192
54
134
111
118
196
41
11
234
166
171
214
186
178
233
87
208
235
15
221
8
94
122
193
79
167
125
25
190
152
22
58
212
65
249
138
69
183
215
258
75
169
80
250
45
207
203
23
29
141
71
21
200
39
162
26
237
185
13
259
257
260
243
271
256
53
120
33
82
48
105
191
32
265
78
17
34
64
35
102
158
170
131
84
76
209
136
153
60
5
140
52
273
135
213
180
73
101
245
251
198
55
127
116
205
195
238
187
91
88
146
218
43
70
38
109
66
121
263
197
155
114
137
220
144
63
188
72
244
107
28
42
161
59
230
51
117
145
211
115
194
248
148
184
216
31
151
156
100
119
142
189
44
181
239
89
231
160
12
10
217
6
132
226
57
16
224
147
157
262
228
62
30
143
47
176
174
133
24
36
18
255
50
172
254
168
27

>  <PUBCHEM_MMFF94_PARTIAL_CHARGES>  (1) 
27
1 -0.45
10 0.23
11 0.36
12 0.28
13 0.58
16 0.66
17 0.57
18 0.2
19 -0.14
2 -0.57
20 -0.15
21 0.16
22 -0.15
23 0.16
3 -0.65
33 0.37
34 0.5
37 0.15
38 0.15
39 0.15
4 -0.57
40 0.15
5 -0.57
6 -0.59
7 -0.65
8 -0.62
9 0.44

>  <PUBCHEM_EFFECTIVE_ROTOR_COUNT>  (1) 
5.8

>  <PUBCHEM_PHARMACOPHORE_FEATURES>  (1) 
11
1 2 acceptor
1 3 acceptor
1 4 acceptor
1 5 acceptor
1 7 donor
1 8 acceptor
3 10 14 15 hydrophobe
3 3 4 16 anion
4 6 9 12 13 rings
6 8 19 20 21 22 23 rings
7 1 6 9 10 11 12 13 rings

>  <PUBCHEM_HEAVY_ATOM_COUNT>  (1) 
23

>  <PUBCHEM_ATOM_DEF_STEREO_COUNT>  (1) 
0

>  <PUBCHEM_ATOM_UDEF_STEREO_COUNT>  (1) 
3

>  <PUBCHEM_BOND_DEF_STEREO_COUNT>  (1) 
0

>  <PUBCHEM_BOND_UDEF_STEREO_COUNT>  (1) 
0

>  <PUBCHEM_ISOTOPIC_ATOM_COUNT>  (1) 
0

>  <PUBCHEM_COMPONENT_COUNT>  (1) 
1

>  <PUBCHEM_CACTVS_TAUTO_COUNT>  (1) 
2

>  <PUBCHEM_CONFORMER_ID>  (1) 
00004D1D00000001

>  <PUBCHEM_MMFF94_ENERGY>  (1) 
60.4218

>  <PUBCHEM_FEATURE_SELFOVERLAP>  (1) 
59.619

>  <PUBCHEM_SHAPE_FINGERPRINT>  (1) 
10319926 262 15574986214068069002
10498660 4 18270956964297304208
10670039 82 17704071785619533464
10928967 22 8646223587901417712
11089746 13 18272927233421055642
11405975 8 17967244283379630930
12363563 72 10807940401037491002
12403259 415 17750238014973657527
12523318 42 15140970568919067593
12633257 1 17531536480743724716
12892183 10 15502367907707285890
13103583 49 13334734605115909030
13675066 3 16443066062855844658
13994607 96 18343590654867068081
1420 369 8070033268223549944
14528608 73 17989481939935917052
14848178 5 9151169853138811428
14848178 96 18410569617887343832
15163728 17 16413814587038851097
15183329 4 17703797994745140654
15188451 53 13623537891382128889
17780758 139 13334726947305329660
17857418 61 11891339763348989769
17870717 6 14189574131019237165
193927 3 10952054476595329002
20554085 129 15936948766648384053
20645477 56 17676486125046495126
21033648 144 18410005551031221326
21033648 29 17531239522267435332
21315764 119 15554180168188807612
21728266 224 13767933429279779713
22393880 68 16415471654072311830
23559900 14 15503499197460988467
268830 7 18338516322494462115
2838139 119 18343581841815976024
312425 83 17131846334900125500
341906 21 17748825233116389510
376196 1 16375475660424004335
4259306 186 11095884869584391138
474 4 18342455919954177482
5104073 3 16588581985621559232
57724786 102 18409453566335047756
633830 44 18128824044909357607
9981440 41 16733817576821468105

>  <PUBCHEM_SHAPE_MULTIPOLES>  (1) 
438.76
13.37
2.14
1.9
11.58
0.03
-0.12
8.24
-0.13
0.67
0.46
-2.33
0.25
0.59

>  <PUBCHEM_SHAPE_SELFOVERLAP>  (1) 
919.389

>  <PUBCHEM_SHAPE_VOLUME>  (1) 
250.9

>  <PUBCHEM_COORDINATE_TYPE>  (1) 
2
5
10

$$$$
