19749
     RDKit          3D

 12 11  0  0  1  0  0  0  0  0999 V2000
   -2.1198    0.4515   -0.0577 P   0  0  0  0  0  0  0  0  0  0  0  0
   -2.9117   -0.8863   -0.2919 F   0  0  0  0  0  0  0  0  0  0  0  0
   -0.6050    0.0637   -0.4622 O   0  0  0  0  0  0  0  0  0  0  0  0
   -2.6916    1.5397   -0.9215 O   0  0  0  0  0  0  0  0  0  0  0  0
    2.2104    0.2477   -0.0314 N   0  0  0  0  0  0  0  0  0  0  0  0
    1.4975   -1.0786   -0.2528 C   0  0  0  0  0  0  0  0  0  0  0  0
    0.0479   -1.0069    0.2159 C   0  0  0  0  0  0  0  0  0  0  0  0
    2.1454    0.6187    1.4432 C   0  0  0  0  0  0  0  0  0  0  0  0
    3.6655    0.1187   -0.4584 C   0  0  0  0  0  0  0  0  0  0  0  0
    1.5335    1.3318   -0.8575 C   0  0  0  0  0  0  0  0  0  0  0  0
   -0.7374   -2.2955    0.0087 C   0  0  0  0  0  0  0  0  0  0  0  0
   -2.0347    0.8956    1.6656 C   0  0  0  0  0  0  0  0  0  0  0  0
  1  2  1  0
  1  3  1  0
  1  4  2  0
  1 12  1  0
  3  7  1  0
  5  6  1  0
  5  8  1  0
  5  9  1  0
  5 10  1  0
  6  7  1  0
  7 11  1  0
M  CHG  1   5   1
M  END
>  <PUBCHEM_COMPOUND_CID>  (1) 
19749

>  <PUBCHEM_CONFORMER_RMSD>  (1) 
0.6

>  <PUBCHEM_CONFORMER_DIVERSEORDER>  (1) 
2
14
18
1
13
10
4
9
11
8
16
3
17
15
7
5
12
6

>  <PUBCHEM_MMFF94_PARTIAL_CHARGES>  (1) 
10
1 1.3
10 0.5
2 -0.33
3 -0.55
4 -0.7
5 -1.01
6 0.5
7 0.28
8 0.5
9 0.5

>  <PUBCHEM_EFFECTIVE_ROTOR_COUNT>  (1) 
4

>  <PUBCHEM_PHARMACOPHORE_FEATURES>  (1) 
1
1 5 cation

>  <PUBCHEM_HEAVY_ATOM_COUNT>  (1) 
12

>  <PUBCHEM_ATOM_DEF_STEREO_COUNT>  (1) 
0

>  <PUBCHEM_ATOM_UDEF_STEREO_COUNT>  (1) 
2

>  <PUBCHEM_BOND_DEF_STEREO_COUNT>  (1) 
0

>  <PUBCHEM_BOND_UDEF_STEREO_COUNT>  (1) 
0

>  <PUBCHEM_ISOTOPIC_ATOM_COUNT>  (1) 
0

>  <PUBCHEM_COMPONENT_COUNT>  (1) 
1

>  <PUBCHEM_CACTVS_TAUTO_COUNT>  (1) 
1

>  <PUBCHEM_CONFORMER_ID>  (1) 
00004D2500000002

>  <PUBCHEM_MMFF94_ENERGY>  (1) 
36.5026

>  <PUBCHEM_FEATURE_SELFOVERLAP>  (1) 
5.074

>  <PUBCHEM_SHAPE_FINGERPRINT>  (1) 
12897270 3 17274815852901677549
12932764 1 18131626798589810607
14325111 11 18408321068783484134
14993402 34 18187363246499178270
15775835 57 18341618070640081089
16945 1 18263632030016693159
18186145 218 18131354085578440344
19837323 101 16701752548910705505
207724 885 18261117365809843850
21028194 46 18342174479236900318
21040471 1 18410007749759252894
230 275 17774425153571275888
23235685 24 18410009931692212684
23402539 116 17632289090366917069
23419403 2 16180663489607364726
2748010 2 18190178979618753214
305870 269 18261950726456205338
5084963 1 18413109467570880959
57812782 119 17346594175418313160
63268167 104 18270400464741189768
8030462 33 17560513997992819809
81228 2 18051973920051258931

>  <PUBCHEM_SHAPE_MULTIPOLES>  (1) 
226.81
4.88
1.77
1.2
1.07
0.79
-0.44
-1.31
0.38
-0.68
0.09
-0.16
-0.54
0.01

>  <PUBCHEM_SHAPE_SELFOVERLAP>  (1) 
405.829

>  <PUBCHEM_SHAPE_VOLUME>  (1) 
151.1

>  <PUBCHEM_COORDINATE_TYPE>  (1) 
2
5
10

$$$$
