19750
     RDKit          3D

 13 13  0  0  0  0  0  0  0  0999 V2000
    3.1017   -2.1925    0.7617 Cl  0  0  0  0  0  0  0  0  0  0  0  0
   -4.2946   -0.7543    0.1738 F   0  0  0  0  0  0  0  0  0  0  0  0
    1.3896    1.8951    0.4020 O   0  0  0  0  0  0  0  0  0  0  0  0
    1.9683    0.1156   -1.1189 C   0  0  0  0  0  0  0  0  0  0  0  0
    3.4119    0.1638   -0.6091 C   0  0  0  0  0  0  0  0  0  0  0  0
    1.0204    0.9080   -0.2301 C   0  0  0  0  0  0  0  0  0  0  0  0
   -0.4006    0.4636   -0.1222 C   0  0  0  0  0  0  0  0  0  0  0  0
    3.5896   -0.4821    0.7609 C   0  0  0  0  0  0  0  0  0  0  0  0
   -0.9758   -0.1722   -1.1983 C   0  0  0  0  0  0  0  0  0  0  0  0
   -1.0798    0.7069    1.0496 C   0  0  0  0  0  0  0  0  0  0  0  0
   -2.3036   -0.5875   -1.0973 C   0  0  0  0  0  0  0  0  0  0  0  0
   -2.4076    0.2915    1.1508 C   0  0  0  0  0  0  0  0  0  0  0  0
   -3.0195   -0.3558    0.0772 C   0  0  0  0  0  0  0  0  0  0  0  0
  1  8  1  0
  2 13  1  0
  3  6  2  0
  4  5  1  0
  4  6  1  0
  5  8  1  0
  6  7  1  0
  7  9  2  0
  7 10  1  0
  9 11  1  0
 10 12  2  0
 11 13  2  0
 12 13  1  0
M  END
>  <PUBCHEM_COMPOUND_CID>  (1) 
19750

>  <PUBCHEM_CONFORMER_RMSD>  (1) 
0.6

>  <PUBCHEM_CONFORMER_DIVERSEORDER>  (1) 
3
35
15
18
17
29
23
16
9
39
32
31
25
30
11
12
7
34
13
42
8
41
4
33
14
36
21
2
10
26
40
19
20
38
6
24
22
5
37
1
27
28

>  <PUBCHEM_MMFF94_PARTIAL_CHARGES>  (1) 
16
1 -0.29
10 -0.15
11 -0.15
12 -0.15
13 0.19
2 -0.19
20 0.15
21 0.15
22 0.15
23 0.15
3 -0.57
4 0.06
6 0.42
7 0.09
8 0.29
9 -0.15

>  <PUBCHEM_EFFECTIVE_ROTOR_COUNT>  (1) 
4

>  <PUBCHEM_PHARMACOPHORE_FEATURES>  (1) 
2
1 3 acceptor
6 7 9 10 11 12 13 rings

>  <PUBCHEM_HEAVY_ATOM_COUNT>  (1) 
13

>  <PUBCHEM_ATOM_DEF_STEREO_COUNT>  (1) 
0

>  <PUBCHEM_ATOM_UDEF_STEREO_COUNT>  (1) 
0

>  <PUBCHEM_BOND_DEF_STEREO_COUNT>  (1) 
0

>  <PUBCHEM_BOND_UDEF_STEREO_COUNT>  (1) 
0

>  <PUBCHEM_ISOTOPIC_ATOM_COUNT>  (1) 
0

>  <PUBCHEM_COMPONENT_COUNT>  (1) 
1

>  <PUBCHEM_CACTVS_TAUTO_COUNT>  (1) 
2

>  <PUBCHEM_CONFORMER_ID>  (1) 
00004D2600000003

>  <PUBCHEM_MMFF94_ENERGY>  (1) 
24.7501

>  <PUBCHEM_FEATURE_SELFOVERLAP>  (1) 
10.148

>  <PUBCHEM_SHAPE_FINGERPRINT>  (1) 
10130415 120 17846502577478516273
10857977 72 16558750117704033360
11132069 177 16486978405780285445
11137873 295 17532090492859731394
11769659 78 18339077215480431623
12251169 10 17275381019327320408
12932764 1 18412825793803296380
13083527 12 14042032984980891509
13581323 91 17060622200212918581
13705890 14 17022902346284879582
14144814 61 17989213637407612372
14251717 144 18186238416029130066
14252887 29 18059864956559041430
14350558 41 17967254182930737262
15375462 189 18413102866649414554
16945 1 17418103126060144453
17804303 29 16270826428377424580
20201158 50 17240485780173660130
20279233 1 16298109795855791904
20281407 28 18187085048603619740
20361792 2 18409727352935430284
20528008 55 15123508099202209189
20559304 39 17489318519823998844
20645477 70 17676204675960797106
20671657 53 17096084667825111894
21501925 9 17704072919089745645
22445834 79 18272089383394984730
22485316 2 18260266369120897671
2255824 54 18266463281522963196
23402539 116 16272208570734516093
23557571 272 14189289434648210781
23559900 14 14562816586479263588
2748010 2 17057271868361877661
4072396 5 17703509888080493903
4990 188 16081367466623978491
5262128 65 15502956129201025534
90316 7 17988931011353773897

>  <PUBCHEM_SHAPE_MULTIPOLES>  (1) 
256.26
6.68
1.45
1.25
0.14
0.42
0.08
2.85
-0.57
1.36
-0.32
-0.27
-0.03
-0.57

>  <PUBCHEM_SHAPE_SELFOVERLAP>  (1) 
516.367

>  <PUBCHEM_SHAPE_VOLUME>  (1) 
151.4

>  <PUBCHEM_COORDINATE_TYPE>  (1) 
2
5
10

$$$$
