19754
     RDKit          3D

  5  4  0  0  0  0  0  0  0  0999 V2000
    1.3780   -0.7517   -0.0045 S   0  0  0  0  0  0  0  0  0  0  0  0
   -1.3598   -0.4998    0.0083 C   0  0  0  0  0  0  0  0  0  0  0  0
   -0.0804    0.3291   -0.0159 C   0  0  0  0  0  0  0  0  0  0  0  0
   -2.5916    0.3937    0.0030 C   0  0  0  0  0  0  0  0  0  0  0  0
    2.6537    0.5287    0.0090 C   0  0  0  0  0  0  0  0  0  0  0  0
  1  3  1  0
  1  5  1  0
  2  3  1  0
  2  4  1  0
M  END
>  <PUBCHEM_COMPOUND_CID>  (1) 
19754

>  <PUBCHEM_CONFORMER_RMSD>  (1) 
0.4

>  <PUBCHEM_CONFORMER_DIVERSEORDER>  (1) 
1
5
7
4
3
6
2

>  <PUBCHEM_MMFF94_PARTIAL_CHARGES>  (1) 
3
1 -0.46
3 0.23
5 0.23

>  <PUBCHEM_EFFECTIVE_ROTOR_COUNT>  (1) 
2

>  <PUBCHEM_PHARMACOPHORE_FEATURES>  (1) 
2
1 4 hydrophobe
1 5 hydrophobe

>  <PUBCHEM_HEAVY_ATOM_COUNT>  (1) 
5

>  <PUBCHEM_ATOM_DEF_STEREO_COUNT>  (1) 
0

>  <PUBCHEM_ATOM_UDEF_STEREO_COUNT>  (1) 
0

>  <PUBCHEM_BOND_DEF_STEREO_COUNT>  (1) 
0

>  <PUBCHEM_BOND_UDEF_STEREO_COUNT>  (1) 
0

>  <PUBCHEM_ISOTOPIC_ATOM_COUNT>  (1) 
0

>  <PUBCHEM_COMPONENT_COUNT>  (1) 
1

>  <PUBCHEM_CACTVS_TAUTO_COUNT>  (1) 
1

>  <PUBCHEM_CONFORMER_ID>  (1) 
00004D2A00000001

>  <PUBCHEM_MMFF94_ENERGY>  (1) 
2.1995

>  <PUBCHEM_FEATURE_SELFOVERLAP>  (1) 
10.149

>  <PUBCHEM_SHAPE_FINGERPRINT>  (1) 
139733 1 9367340435859788527
14390081 3 18344143704541291152
16714656 1 18272370875477523245
20096714 4 18341049700569606098
29004967 10 17385730179148687240
5460574 1 9295289439002371047

>  <PUBCHEM_SHAPE_MULTIPOLES>  (1) 
106.75
4.08
0.91
0.63
0.11
0.08
0
-0.8
0.02
-0.2
0
-0.02
0.01
0

>  <PUBCHEM_SHAPE_SELFOVERLAP>  (1) 
164.287

>  <PUBCHEM_SHAPE_VOLUME>  (1) 
77.5

>  <PUBCHEM_COORDINATE_TYPE>  (1) 
2
5
10

$$$$
