19759
     RDKit          3D

  9  9  0  0  0  0  0  0  0  0999 V2000
    2.3064   -1.1844    0.0007 O   0  0  0  0  0  0  0  0  0  0  0  0
    2.4572    1.0836   -0.0001 O   0  0  0  0  0  0  0  0  0  0  0  0
    0.3071    0.0341   -0.0003 C   0  0  0  0  0  0  0  0  0  0  0  0
   -0.4143    1.2279    0.0000 C   0  0  0  0  0  0  0  0  0  0  0  0
   -0.3660   -1.1875   -0.0003 C   0  0  0  0  0  0  0  0  0  0  0  0
   -1.8089    1.2002    0.0004 C   0  0  0  0  0  0  0  0  0  0  0  0
   -1.7606   -1.2153   -0.0001 C   0  0  0  0  0  0  0  0  0  0  0  0
   -2.4820   -0.0215    0.0002 C   0  0  0  0  0  0  0  0  0  0  0  0
    1.7611    0.0629   -0.0003 C   0  0  0  0  0  0  0  0  0  0  0  0
  1  9  1  0
  2  9  2  0
  3  4  2  0
  3  5  1  0
  3  9  1  0
  4  6  1  0
  5  7  2  0
  6  8  2  0
  7  8  1  0
M  ISO  1   9  13
M  END
>  <PUBCHEM_COMPOUND_CID>  (1) 
19759

>  <PUBCHEM_CONFORMER_RMSD>  (1) 
0.4

>  <PUBCHEM_CONFORMER_DIVERSEORDER>  (1) 
1
2

>  <PUBCHEM_MMFF94_PARTIAL_CHARGES>  (1) 
15
1 -0.65
10 0.15
11 0.15
12 0.15
13 0.15
14 0.15
15 0.5
2 -0.57
3 0.09
4 -0.15
5 -0.15
6 -0.15
7 -0.15
8 -0.15
9 0.63

>  <PUBCHEM_EFFECTIVE_ROTOR_COUNT>  (1) 
1

>  <PUBCHEM_PHARMACOPHORE_FEATURES>  (1) 
4
1 1 acceptor
1 2 acceptor
3 1 2 9 anion
6 3 4 5 6 7 8 rings

>  <PUBCHEM_HEAVY_ATOM_COUNT>  (1) 
9

>  <PUBCHEM_ATOM_DEF_STEREO_COUNT>  (1) 
0

>  <PUBCHEM_ATOM_UDEF_STEREO_COUNT>  (1) 
0

>  <PUBCHEM_BOND_DEF_STEREO_COUNT>  (1) 
0

>  <PUBCHEM_BOND_UDEF_STEREO_COUNT>  (1) 
0

>  <PUBCHEM_ISOTOPIC_ATOM_COUNT>  (1) 
1

>  <PUBCHEM_COMPONENT_COUNT>  (1) 
1

>  <PUBCHEM_CACTVS_TAUTO_COUNT>  (1) 
1

>  <PUBCHEM_CONFORMER_ID>  (1) 
00004D2F00000001

>  <PUBCHEM_MMFF94_ENERGY>  (1) 
24.3746

>  <PUBCHEM_FEATURE_SELFOVERLAP>  (1) 
20.355

>  <PUBCHEM_SHAPE_FINGERPRINT>  (1) 
10857977 72 18267013041230612665
12897270 3 18339081596135882076
14325111 11 18410855438743190977
16714656 1 18410856568504030781
16945 1 18266458887422947749
18185500 45 18265051525355750655
19973954 147 18411421695884766212
21040471 1 18338797801792467877
23552423 10 18260831496728408398
2748010 2 18410575076110074263
29004967 10 18262523722285066243
369184 2 18411698789989332889
5084963 1 18271521988028924001

>  <PUBCHEM_SHAPE_MULTIPOLES>  (1) 
173.48
3.43
1.51
0.6
0.99
0.03
0
-0.04
0
-0.14
0
-0.05
0
0

>  <PUBCHEM_SHAPE_SELFOVERLAP>  (1) 
363.749

>  <PUBCHEM_SHAPE_VOLUME>  (1) 
98.2

>  <PUBCHEM_COORDINATE_TYPE>  (1) 
2
5
10

$$$$
