19764
     RDKit          3D

 16 15  0  0  0  0  0  0  0  0999 V2000
    6.4984   -0.5288   -1.2567 O   0  0  0  0  0  0  0  0  0  0  0  0
    5.2658   -0.1670    0.6861 N   0  0  0  0  0  0  0  0  0  0  0  0
   -1.4024    0.5609   -0.3212 C   0  0  0  0  0  0  0  0  0  0  0  0
   -2.6031    0.0043    0.4490 C   0  0  0  0  0  0  0  0  0  0  0  0
   -0.0714    0.3859    0.4160 C   0  0  0  0  0  0  0  0  0  0  0  0
   -3.9106    0.2714   -0.3015 C   0  0  0  0  0  0  0  0  0  0  0  0
    1.1179    1.0073   -0.3197 C   0  0  0  0  0  0  0  0  0  0  0  0
   -5.1467   -0.2835    0.4121 C   0  0  0  0  0  0  0  0  0  0  0  0
    2.4241    0.7760    0.4447 C   0  0  0  0  0  0  0  0  0  0  0  0
   -6.4447   -0.0816   -0.3730 C   0  0  0  0  0  0  0  0  0  0  0  0
    3.6191    1.3715   -0.3057 C   0  0  0  0  0  0  0  0  0  0  0  0
   -7.6327   -0.7174    0.3502 C   0  0  0  0  0  0  0  0  0  0  0  0
    4.9296    1.2109    0.4577 C   0  0  0  0  0  0  0  0  0  0  0  0
   -8.9199   -0.5542   -0.4424 C   0  0  0  0  0  0  0  0  0  0  0  0
    6.0261   -0.9258   -0.1947 C   0  0  0  0  0  0  0  0  0  0  0  0
    6.2505   -2.3299    0.2989 C   0  0  0  0  0  0  0  0  0  0  0  0
  1 15  2  0
  2 13  1  0
  2 15  1  0
  3  4  1  0
  3  5  1  0
  4  6  1  0
  5  7  1  0
  6  8  1  0
  7  9  1  0
  8 10  1  0
  9 11  1  0
 10 12  1  0
 11 13  1  0
 12 14  1  0
 15 16  1  0
M  END
>  <PUBCHEM_COMPOUND_CID>  (1) 
19764

>  <PUBCHEM_CONFORMER_RMSD>  (1) 
1.2

>  <PUBCHEM_CONFORMER_DIVERSEORDER>  (1) 
1
140
74
144
2
20
15
88
132
14
86
113
36
60
75
19
72
100
123
134
7
96
12
115
35
13
128
40
87
49
143
9
21
102
3
56
43
59
112
34
78
108
10
76
30
25
151
18
129
120
66
127
138
141
16
38
83
22
79
89
85
111
149
57
5
117
33
51
69
121
92
73
77
131
8
64
4
62
46
47
124
31
110
55
109
116
135
45
27
145
136
93
80
94
37
148
98
6
52
101
63
58
17
61
119
70
107
130
147
32
146
48
71
44
65
26
104
24
28
11
67
142
97
152
105
84
103
137
90
53
68
23
125
42
41
91
118
81
50
39
54
122
29
82
133
150
126
139
114
95
99
106

>  <PUBCHEM_MMFF94_PARTIAL_CHARGES>  (1) 
6
1 -0.57
13 0.3
15 0.57
16 0.06
2 -0.73
42 0.37

>  <PUBCHEM_EFFECTIVE_ROTOR_COUNT>  (1) 
12

>  <PUBCHEM_PHARMACOPHORE_FEATURES>  (1) 
3
1 1 acceptor
1 14 hydrophobe
1 2 donor

>  <PUBCHEM_HEAVY_ATOM_COUNT>  (1) 
16

>  <PUBCHEM_ATOM_DEF_STEREO_COUNT>  (1) 
0

>  <PUBCHEM_ATOM_UDEF_STEREO_COUNT>  (1) 
0

>  <PUBCHEM_BOND_DEF_STEREO_COUNT>  (1) 
0

>  <PUBCHEM_BOND_UDEF_STEREO_COUNT>  (1) 
0

>  <PUBCHEM_ISOTOPIC_ATOM_COUNT>  (1) 
0

>  <PUBCHEM_COMPONENT_COUNT>  (1) 
1

>  <PUBCHEM_CACTVS_TAUTO_COUNT>  (1) 
2

>  <PUBCHEM_CONFORMER_ID>  (1) 
00004D3400000001

>  <PUBCHEM_MMFF94_ENERGY>  (1) 
-0.952

>  <PUBCHEM_FEATURE_SELFOVERLAP>  (1) 
15.223

>  <PUBCHEM_SHAPE_FINGERPRINT>  (1) 
10 15 12967125021256381274
10066227 49 18410292480627687667
11315181 36 10953457420006179733
11638347 137 14476968869733355652
13073987 5 13973421114635008905
13533116 47 18272650156443539600
13668630 136 18113336431953201115
14123256 10 12685091492586119799
14216079 64 18408884014326062334
14251757 52 12829209987834298966
14251764 18 17561367292526296753
14251764 46 17967530190208351833
15048467 5 8214141854301701489
15690457 1 18131910455383722318
15716309 27 17989204872065117997
195137 175 13334729108291149479
20165401 70 18130785620956492918
20281389 69 17418374709832901633
20397935 70 17203334377883317806
20621476 38 18412545388257611486
20621476 66 7997967973177755417
20621476 8 18187644683607400365
20735858 18 15985106310244184069
21095086 128 18341611547592457047
21130983 4 8502655913433528741
21150785 3 15791734109013099366
21315759 40 18202285827434148817
21315763 28 18342457067559933889
2215653 11 17967817141579465018
22224240 67 11743840261978573757
23035841 295 17846499253695997159
23521765 1 18342457071765048457
246663 6 18410859858201170183
28498 318 18408038499112261461
328311 84 18259988184643036851
33532 11 18410571782118584627
4340502 62 14261353544442028108
445580 126 8286196120752877326
445580 37 15864062145079648965
465052 167 18342460318802470566
5283156 175 18131353008037417377
59755656 215 17603864485896319723
6438161 24 17967525749808384186
8209 1 17385438843280733153

>  <PUBCHEM_SHAPE_MULTIPOLES>  (1) 
318.42
26.48
1.44
0.83
28.97
0.57
-0.06
11.92
-2.39
-3.35
0.05
-0.42
0.02
0.21

>  <PUBCHEM_SHAPE_SELFOVERLAP>  (1) 
575.808

>  <PUBCHEM_SHAPE_VOLUME>  (1) 
204.2

>  <PUBCHEM_COORDINATE_TYPE>  (1) 
2
5
10

$$$$
