19762
     RDKit          3D

  8  8  0  0  1  0  0  0  0  0999 V2000
   -1.9338   -1.6626    0.2205 Cl  0  0  0  0  0  0  0  0  0  0  0  0
   -1.9339    1.6624   -0.2205 Cl  0  0  0  0  0  0  0  0  0  0  0  0
    0.6500   -1.4005    0.0585 O   0  0  0  0  0  0  0  0  0  0  0  0
    0.6497    1.4005   -0.0586 O   0  0  0  0  0  0  0  0  0  0  0  0
   -0.5364   -0.6952   -0.3192 C   0  0  0  0  0  0  0  0  0  0  0  0
   -0.5365    0.6951    0.3193 C   0  0  0  0  0  0  0  0  0  0  0  0
    1.8205   -0.6821   -0.3323 C   0  0  0  0  0  0  0  0  0  0  0  0
    1.8203    0.6823    0.3324 C   0  0  0  0  0  0  0  0  0  0  0  0
  1  5  1  0
  2  6  1  0
  3  5  1  0
  3  7  1  0
  4  6  1  0
  4  8  1  0
  5  6  1  0
  7  8  1  0
M  END
>  <PUBCHEM_COMPOUND_CID>  (1) 
19762

>  <PUBCHEM_CONFORMER_RMSD>  (1) 
0.4

>  <PUBCHEM_CONFORMER_DIVERSEORDER>  (1) 
1
4
3
2

>  <PUBCHEM_MMFF94_PARTIAL_CHARGES>  (1) 
8
1 -0.29
2 -0.29
3 -0.56
4 -0.56
5 0.57
6 0.57
7 0.28
8 0.28

>  <PUBCHEM_EFFECTIVE_ROTOR_COUNT>  (1) 
1.2

>  <PUBCHEM_PHARMACOPHORE_FEATURES>  (1) 
3
1 3 acceptor
1 4 acceptor
6 3 4 5 6 7 8 rings

>  <PUBCHEM_HEAVY_ATOM_COUNT>  (1) 
8

>  <PUBCHEM_ATOM_DEF_STEREO_COUNT>  (1) 
1

>  <PUBCHEM_ATOM_UDEF_STEREO_COUNT>  (1) 
1

>  <PUBCHEM_BOND_DEF_STEREO_COUNT>  (1) 
0

>  <PUBCHEM_BOND_UDEF_STEREO_COUNT>  (1) 
0

>  <PUBCHEM_ISOTOPIC_ATOM_COUNT>  (1) 
0

>  <PUBCHEM_COMPONENT_COUNT>  (1) 
1

>  <PUBCHEM_CACTVS_TAUTO_COUNT>  (1) 
1

>  <PUBCHEM_CONFORMER_ID>  (1) 
00004D3200000001

>  <PUBCHEM_MMFF94_ENERGY>  (1) 
15.7245

>  <PUBCHEM_FEATURE_SELFOVERLAP>  (1) 
15.227

>  <PUBCHEM_SHAPE_FINGERPRINT>  (1) 
21040471 1 18265895752680548116
23552423 10 18261116279019808614
29004967 10 17975978979152998907
5084963 1 18200885096289983130

>  <PUBCHEM_SHAPE_MULTIPOLES>  (1) 
156.64
2.69
2.01
0.67
0.01
0
0
0
0
-1.04
0
-0.02
0
0.27

>  <PUBCHEM_SHAPE_SELFOVERLAP>  (1) 
286.204

>  <PUBCHEM_SHAPE_VOLUME>  (1) 
102

>  <PUBCHEM_COORDINATE_TYPE>  (1) 
2
5
10

$$$$
