19763
     RDKit          3D

  9  9  0  0  0  0  0  0  0  0999 V2000
    2.3580   -0.0837    0.0531 O   0  0  0  0  0  0  0  0  0  0  0  0
   -2.3580   -0.0841   -0.0544 O   0  0  0  0  0  0  0  0  0  0  0  0
    0.0000   -0.6894    0.0001 C   0  0  0  0  0  0  0  0  0  0  0  0
    0.7451    1.6988   -0.1666 C   0  0  0  0  0  0  0  0  0  0  0  0
   -0.7454    1.6986    0.1669 C   0  0  0  0  0  0  0  0  0  0  0  0
    1.1853    0.2636   -0.0083 C   0  0  0  0  0  0  0  0  0  0  0  0
   -1.1854    0.2634    0.0080 C   0  0  0  0  0  0  0  0  0  0  0  0
   -0.0055   -1.5341   -1.2666 C   0  0  0  0  0  0  0  0  0  0  0  0
    0.0059   -1.5330    1.2677 C   0  0  0  0  0  0  0  0  0  0  0  0
  1  6  2  0
  2  7  2  0
  3  6  1  0
  3  7  1  0
  3  8  1  0
  3  9  1  0
  4  5  1  0
  4  6  1  0
  5  7  1  0
M  END
>  <PUBCHEM_COMPOUND_CID>  (1) 
19763

>  <PUBCHEM_CONFORMER_RMSD>  (1) 
0.4

>  <PUBCHEM_CONFORMER_DIVERSEORDER>  (1) 
1

>  <PUBCHEM_MMFF94_PARTIAL_CHARGES>  (1) 
7
1 -0.57
2 -0.57
3 0.12
4 0.06
5 0.06
6 0.45
7 0.45

>  <PUBCHEM_EFFECTIVE_ROTOR_COUNT>  (1) 
0.6

>  <PUBCHEM_PHARMACOPHORE_FEATURES>  (1) 
4
1 1 acceptor
1 2 acceptor
3 3 8 9 hydrophobe
5 3 4 5 6 7 rings

>  <PUBCHEM_HEAVY_ATOM_COUNT>  (1) 
9

>  <PUBCHEM_ATOM_DEF_STEREO_COUNT>  (1) 
0

>  <PUBCHEM_ATOM_UDEF_STEREO_COUNT>  (1) 
0

>  <PUBCHEM_BOND_DEF_STEREO_COUNT>  (1) 
0

>  <PUBCHEM_BOND_UDEF_STEREO_COUNT>  (1) 
0

>  <PUBCHEM_ISOTOPIC_ATOM_COUNT>  (1) 
0

>  <PUBCHEM_COMPONENT_COUNT>  (1) 
1

>  <PUBCHEM_CACTVS_TAUTO_COUNT>  (1) 
3

>  <PUBCHEM_CONFORMER_ID>  (1) 
00004D3300000001

>  <PUBCHEM_MMFF94_ENERGY>  (1) 
15.426

>  <PUBCHEM_FEATURE_SELFOVERLAP>  (1) 
20.297

>  <PUBCHEM_SHAPE_FINGERPRINT>  (1) 
12423570 1 9042061302519732166
13024252 1 17748823038271932946
16945 1 18410575088958059204
18185500 45 18118960295910053537
21040471 1 18122344841777029933
23552423 10 17900270706053041318
241688 4 17907316354888416528
29004967 10 18342749489585011467
5084963 1 18409166610268112312
68250623 7 17977951176690835314

>  <PUBCHEM_SHAPE_MULTIPOLES>  (1) 
173.48
2
1.91
0.98
0
0.26
0
0.23
0
0
0
0
-0.57
-0.05

>  <PUBCHEM_SHAPE_SELFOVERLAP>  (1) 
352.661

>  <PUBCHEM_SHAPE_VOLUME>  (1) 
104.2

>  <PUBCHEM_COORDINATE_TYPE>  (1) 
2
5
10

$$$$
