19769
     RDKit          3D

 15 17  0  0  1  0  0  0  0  0999 V2000
    4.1024    0.2644   -0.1167 Cl  0  0  0  0  0  0  0  0  0  0  0  0
   -2.8088    0.3279    0.6653 N   0  0  0  0  0  0  0  0  0  0  0  0
    1.6992   -1.8501   -0.1799 N   0  0  0  0  0  0  0  0  0  0  0  0
   -1.8789    1.3945    0.2527 C   0  0  0  0  0  0  0  0  0  0  0  0
    0.1033   -0.3038    0.0651 C   0  0  0  0  0  0  0  0  0  0  0  0
   -0.4030    1.0144    0.2035 C   0  0  0  0  0  0  0  0  0  0  0  0
   -0.5051   -1.6010    0.0108 C   0  0  0  0  0  0  0  0  0  0  0  0
   -1.9512   -1.9343    0.1482 C   0  0  0  0  0  0  0  0  0  0  0  0
   -2.9067   -0.8133   -0.2460 C   0  0  0  0  0  0  0  0  0  0  0  0
    1.4843   -0.4999   -0.0365 C   0  0  0  0  0  0  0  0  0  0  0  0
    0.5114   -2.5215   -0.1477 C   0  0  0  0  0  0  0  0  0  0  0  0
   -2.3235    2.0806   -1.0483 C   0  0  0  0  0  0  0  0  0  0  0  0
    0.5470    2.0639    0.2565 C   0  0  0  0  0  0  0  0  0  0  0  0
    2.4122    0.5437    0.0088 C   0  0  0  0  0  0  0  0  0  0  0  0
    1.9176    1.8346    0.1642 C   0  0  0  0  0  0  0  0  0  0  0  0
  1 14  1  0
  2  4  1  0
  2  9  1  0
  3 10  1  0
  3 11  1  0
  4  6  1  0
  4 12  1  0
  5  6  2  0
  5  7  1  0
  5 10  1  0
  6 13  1  0
  7  8  1  0
  7 11  2  0
  8  9  1  0
 10 14  2  0
 13 15  2  0
 14 15  1  0
M  END
>  <PUBCHEM_COMPOUND_CID>  (1) 
19769

>  <PUBCHEM_CONFORMER_RMSD>  (1) 
0.4

>  <PUBCHEM_CONFORMER_DIVERSEORDER>  (1) 
1
2

>  <PUBCHEM_MMFF94_PARTIAL_CHARGES>  (1) 
18
1 -0.18
10 -0.15
11 -0.3
13 -0.15
14 0.18
15 -0.15
2 -0.9
21 0.36
22 0.15
26 0.15
27 0.27
28 0.15
3 0.03
4 0.41
6 -0.14
7 -0.18
8 0.18
9 0.27

>  <PUBCHEM_EFFECTIVE_ROTOR_COUNT>  (1) 
0.8

>  <PUBCHEM_PHARMACOPHORE_FEATURES>  (1) 
7
1 2 cation
1 2 donor
1 3 cation
1 3 donor
5 3 5 7 10 11 rings
6 5 6 10 13 14 15 rings
7 2 4 5 6 7 8 9 rings

>  <PUBCHEM_HEAVY_ATOM_COUNT>  (1) 
15

>  <PUBCHEM_ATOM_DEF_STEREO_COUNT>  (1) 
0

>  <PUBCHEM_ATOM_UDEF_STEREO_COUNT>  (1) 
1

>  <PUBCHEM_BOND_DEF_STEREO_COUNT>  (1) 
0

>  <PUBCHEM_BOND_UDEF_STEREO_COUNT>  (1) 
0

>  <PUBCHEM_ISOTOPIC_ATOM_COUNT>  (1) 
0

>  <PUBCHEM_COMPONENT_COUNT>  (1) 
1

>  <PUBCHEM_CACTVS_TAUTO_COUNT>  (1) 
1

>  <PUBCHEM_CONFORMER_ID>  (1) 
00004D3900000001

>  <PUBCHEM_MMFF94_ENERGY>  (1) 
27.7117

>  <PUBCHEM_FEATURE_SELFOVERLAP>  (1) 
35.651

>  <PUBCHEM_SHAPE_FINGERPRINT>  (1) 
108231 29 18201720708047801536
10967382 1 18267305322260578762
11132069 177 18341047518541688112
11206711 2 18410857702138059468
11680986 33 18195244408529844946
12138202 97 18041545937193572893
13140716 1 18122911094528510923
13380535 76 18410572872802686610
14614273 12 18335136479732835973
15775835 57 18410582768570704473
16945 1 18409728499390790339
193761 8 18051416162860432674
20510252 161 18200876296071130352
20588541 1 18410299115850292035
21501502 16 18337386045936673787
2334 1 17618785099018713866
23402539 116 18127402569584907295
23419403 2 16173907609293755344
23463225 33 18408039611413884538
23559900 14 18272657832030099900
238 59 16454564540990558037
25 1 18192703445784971133
2748010 2 18267589013440576614
2897 32 18410858758784442405
5255222 1 18411417327887286465
528886 8 18412823611796197826
53812653 166 18343021086221447968
54173680 148 18050006889707245418
63268167 104 18269275672957106057
66348 1 17906736165031123579
7364860 26 18198909102180989534
81228 2 17762609994628979090
8809292 202 18261958573303407059

>  <PUBCHEM_SHAPE_MULTIPOLES>  (1) 
300.6
4.74
2.77
0.73
2.02
0.41
0.06
-0.69
0.25
-0.64
0.22
-0.22
-0.18
0.35

>  <PUBCHEM_SHAPE_SELFOVERLAP>  (1) 
650.369

>  <PUBCHEM_SHAPE_VOLUME>  (1) 
164.6

>  <PUBCHEM_COORDINATE_TYPE>  (1) 
2
5
10

$$$$
