19777
     RDKit          3D

 21 22  0  0  0  0  0  0  0  0999 V2000
   -2.2384   -1.9383   -0.3298 O   0  0  0  0  0  0  0  0  0  0  0  0
    0.5489   -0.7684   -1.8230 O   0  0  0  0  0  0  0  0  0  0  0  0
    0.9749   -1.0467    0.4394 N   0  0  0  0  0  0  0  0  0  0  0  0
   -4.6837   -0.6331    0.2856 C   0  0  0  0  0  0  0  0  0  0  0  0
   -3.3935    0.1012    0.1239 C   0  0  0  0  0  0  0  0  0  0  0  0
   -2.2153   -0.5821   -0.1774 C   0  0  0  0  0  0  0  0  0  0  0  0
   -1.0193    0.1209   -0.3237 C   0  0  0  0  0  0  0  0  0  0  0  0
   -1.0018    1.5071   -0.1686 C   0  0  0  0  0  0  0  0  0  0  0  0
   -3.3760    1.4873    0.2788 C   0  0  0  0  0  0  0  0  0  0  0  0
   -5.7346   -0.2100   -0.7571 C   0  0  0  0  0  0  0  0  0  0  0  0
   -5.2662   -0.4913    1.7039 C   0  0  0  0  0  0  0  0  0  0  0  0
   -2.1802    2.1902    0.1326 C   0  0  0  0  0  0  0  0  0  0  0  0
    0.2105   -0.5972   -0.6408 C   0  0  0  0  0  0  0  0  0  0  0  0
    0.2633    2.2878   -0.3195 C   0  0  0  0  0  0  0  0  0  0  0  0
    2.2277   -1.7514    0.2886 C   0  0  0  0  0  0  0  0  0  0  0  0
    3.3990   -0.8130    0.2502 C   0  0  0  0  0  0  0  0  0  0  0  0
    3.8339   -0.3058   -0.9687 C   0  0  0  0  0  0  0  0  0  0  0  0
    4.0368   -0.4603    1.4338 C   0  0  0  0  0  0  0  0  0  0  0  0
    4.9221    0.5662   -1.0046 C   0  0  0  0  0  0  0  0  0  0  0  0
    5.1249    0.4119    1.3978 C   0  0  0  0  0  0  0  0  0  0  0  0
    5.5674    0.9251    0.1786 C   0  0  0  0  0  0  0  0  0  0  0  0
  1  6  1  0
  2 13  2  0
  3 13  1  0
  3 15  1  0
  4  5  1  0
  4 10  1  0
  4 11  1  0
  5  6  2  0
  5  9  1  0
  6  7  1  0
  7  8  2  0
  7 13  1  0
  8 12  1  0
  8 14  1  0
  9 12  2  0
 15 16  1  0
 16 17  2  0
 16 18  1  0
 17 19  1  0
 18 20  2  0
 19 21  2  0
 20 21  1  0
M  END
>  <PUBCHEM_COMPOUND_CID>  (1) 
19777

>  <PUBCHEM_CONFORMER_RMSD>  (1) 
0.8

>  <PUBCHEM_CONFORMER_DIVERSEORDER>  (1) 
1
7
5
13
12
15
2
14
6
8
11
10
9
4
3

>  <PUBCHEM_MMFF94_PARTIAL_CHARGES>  (1) 
28
1 -0.53
12 -0.15
13 0.54
14 0.14
15 0.44
16 -0.14
17 -0.15
18 -0.15
19 -0.15
2 -0.57
20 -0.15
21 -0.15
23 0.15
3 -0.73
30 0.15
36 0.37
37 0.45
38 0.15
39 0.15
4 0.14
40 0.15
41 0.15
42 0.15
5 -0.14
6 0.08
7 0.09
8 -0.14
9 -0.15

>  <PUBCHEM_EFFECTIVE_ROTOR_COUNT>  (1) 
5

>  <PUBCHEM_PHARMACOPHORE_FEATURES>  (1) 
6
1 1 donor
1 2 acceptor
1 3 donor
3 4 10 11 hydrophobe
6 16 17 18 19 20 21 rings
6 5 6 7 8 9 12 rings

>  <PUBCHEM_HEAVY_ATOM_COUNT>  (1) 
21

>  <PUBCHEM_ATOM_DEF_STEREO_COUNT>  (1) 
0

>  <PUBCHEM_ATOM_UDEF_STEREO_COUNT>  (1) 
0

>  <PUBCHEM_BOND_DEF_STEREO_COUNT>  (1) 
0

>  <PUBCHEM_BOND_UDEF_STEREO_COUNT>  (1) 
0

>  <PUBCHEM_ISOTOPIC_ATOM_COUNT>  (1) 
0

>  <PUBCHEM_COMPONENT_COUNT>  (1) 
1

>  <PUBCHEM_CACTVS_TAUTO_COUNT>  (1) 
22

>  <PUBCHEM_CONFORMER_ID>  (1) 
00004D4100000001

>  <PUBCHEM_MMFF94_ENERGY>  (1) 
60.9781

>  <PUBCHEM_FEATURE_SELFOVERLAP>  (1) 
30.446

>  <PUBCHEM_SHAPE_FINGERPRINT>  (1) 
10090160 65 18186516609656035978
10366900 7 18411982468136703778
10498660 4 18341611469766230328
10670039 82 18335713689637355732
10906281 52 18339939138423611197
11578080 2 13828757248640112945
11796584 16 16732982024971990907
12011746 2 18343297068082634525
12236239 1 17676205771082336614
12390115 104 17916880001890944777
12403814 3 17530960267720245021
12596602 18 17385723616654956800
12730499 353 17203332221683381342
13140716 1 18196097853234001587
13533116 47 17240474776757494586
14251751 18 16154287125244218075
14251764 18 18410578367242199553
14341114 328 18260265261610042658
14787075 74 18186523223704783362
14840074 17 18130785681116793477
14848160 23 15502375633931283146
15183329 4 10015867574030791771
15196674 1 18338234860582026916
15788980 27 14129061408666807811
15927050 60 17546735210453068380
17349148 13 17023197006241574138
17492 89 18042960961561937506
17980427 23 18334862684638160261
1813 80 17313109631036477036
19489759 90 12973597837640341087
200 152 14779548976270556363
20511986 3 17458611324813156371
21033648 29 17203598264251513672
21065198 48 18114460051016021232
21652331 79 18412260632131524056
23402539 116 18341886394933346959
23536379 177 15646767886521882839
23557571 272 18200887196734751948
23559900 14 18335415833259920609
23622692 118 17984135131456189495
26918003 58 17458062672747867259
3009799 131 18261944186128030845
347723 3 12685089264004410901
34797466 226 17346601910586068948
474 4 17676496064164781476
5104073 3 18265616481021963714
5283173 99 16878772812918412413
542803 24 16343705426020174947
5486654 2 18408044034745305391
59682541 35 18338237179695406552
6442390 28 18273214201434682470
7097593 13 17250605474573813442
8988823 20 14634871976787459926

>  <PUBCHEM_SHAPE_MULTIPOLES>  (1) 
415.45
13.03
1.85
1.25
2.21
0.7
0.14
-0.3
2.78
-0.52
0
0.46
-0.2
-0.07

>  <PUBCHEM_SHAPE_SELFOVERLAP>  (1) 
880.364

>  <PUBCHEM_SHAPE_VOLUME>  (1) 
233.7

>  <PUBCHEM_COORDINATE_TYPE>  (1) 
2
5
10

$$$$
