19778
     RDKit          3D

 22 23  0  0  0  0  0  0  0  0999 V2000
   -1.5216   -1.6741   -0.2890 O   0  0  0  0  0  0  0  0  0  0  0  0
    0.6103    0.3975   -1.8537 O   0  0  0  0  0  0  0  0  0  0  0  0
    6.6744   -0.6679    0.1809 O   0  0  0  0  0  0  0  0  0  0  0  0
    1.2098    0.2495    0.4099 N   0  0  0  0  0  0  0  0  0  0  0  0
   -4.2368   -1.2843    0.4442 C   0  0  0  0  0  0  0  0  0  0  0  0
   -3.2795   -0.1536    0.2564 C   0  0  0  0  0  0  0  0  0  0  0  0
   -1.9530   -0.3925   -0.1030 C   0  0  0  0  0  0  0  0  0  0  0  0
   -1.0731    0.6765   -0.2728 C   0  0  0  0  0  0  0  0  0  0  0  0
   -1.5198    1.9843   -0.0832 C   0  0  0  0  0  0  0  0  0  0  0  0
   -3.7262    1.1541    0.4460 C   0  0  0  0  0  0  0  0  0  0  0  0
   -5.4111   -1.2304   -0.5501 C   0  0  0  0  0  0  0  0  0  0  0  0
   -4.7736   -1.3659    1.8851 C   0  0  0  0  0  0  0  0  0  0  0  0
   -2.8464    2.2230    0.2762 C   0  0  0  0  0  0  0  0  0  0  0  0
    0.3130    0.4225   -0.6508 C   0  0  0  0  0  0  0  0  0  0  0  0
   -0.6014    3.1499   -0.2581 C   0  0  0  0  0  0  0  0  0  0  0  0
    2.6057    0.0157    0.3510 C   0  0  0  0  0  0  0  0  0  0  0  0
   -1.6392   -2.2103   -1.6040 C   0  0  0  0  0  0  0  0  0  0  0  0
    3.2268   -0.0633   -0.8834 C   0  0  0  0  0  0  0  0  0  0  0  0
    3.3166   -0.1299    1.5299 C   0  0  0  0  0  0  0  0  0  0  0  0
    4.6010   -0.2949   -0.9410 C   0  0  0  0  0  0  0  0  0  0  0  0
    4.6909   -0.3616    1.4725 C   0  0  0  0  0  0  0  0  0  0  0  0
    5.3332   -0.4440    0.2370 C   0  0  0  0  0  0  0  0  0  0  0  0
  1  7  1  0
  1 17  1  0
  2 14  2  0
  3 22  1  0
  4 14  1  0
  4 16  1  0
  5  6  1  0
  5 11  1  0
  5 12  1  0
  6  7  2  0
  6 10  1  0
  7  8  1  0
  8  9  2  0
  8 14  1  0
  9 13  1  0
  9 15  1  0
 10 13  2  0
 16 18  2  0
 16 19  1  0
 18 20  1  0
 19 21  2  0
 20 22  2  0
 21 22  1  0
M  END
>  <PUBCHEM_COMPOUND_CID>  (1) 
19778

>  <PUBCHEM_CONFORMER_RMSD>  (1) 
0.8

>  <PUBCHEM_CONFORMER_DIVERSEORDER>  (1) 
1
4
2
3

>  <PUBCHEM_MMFF94_PARTIAL_CHARGES>  (1) 
28
1 -0.36
10 -0.15
13 -0.15
14 0.54
15 0.14
16 0.12
17 0.28
18 -0.15
19 -0.15
2 -0.57
20 -0.15
21 -0.15
22 0.08
24 0.15
3 -0.53
31 0.15
35 0.37
39 0.15
4 -0.55
40 0.15
41 0.15
42 0.15
43 0.45
5 0.14
6 -0.14
7 0.08
8 0.09
9 -0.14

>  <PUBCHEM_EFFECTIVE_ROTOR_COUNT>  (1) 
5

>  <PUBCHEM_PHARMACOPHORE_FEATURES>  (1) 
7
1 1 acceptor
1 2 acceptor
1 3 donor
1 4 donor
3 5 11 12 hydrophobe
6 16 18 19 20 21 22 rings
6 6 7 8 9 10 13 rings

>  <PUBCHEM_HEAVY_ATOM_COUNT>  (1) 
22

>  <PUBCHEM_ATOM_DEF_STEREO_COUNT>  (1) 
0

>  <PUBCHEM_ATOM_UDEF_STEREO_COUNT>  (1) 
0

>  <PUBCHEM_BOND_DEF_STEREO_COUNT>  (1) 
0

>  <PUBCHEM_BOND_UDEF_STEREO_COUNT>  (1) 
0

>  <PUBCHEM_ISOTOPIC_ATOM_COUNT>  (1) 
0

>  <PUBCHEM_COMPONENT_COUNT>  (1) 
1

>  <PUBCHEM_CACTVS_TAUTO_COUNT>  (1) 
4

>  <PUBCHEM_CONFORMER_ID>  (1) 
00004D4200000001

>  <PUBCHEM_MMFF94_ENERGY>  (1) 
81.9098

>  <PUBCHEM_FEATURE_SELFOVERLAP>  (1) 
35.52

>  <PUBCHEM_SHAPE_FINGERPRINT>  (1) 
10 15 18129930266019277472
11045515 52 16225764116459438621
11046707 91 18186239528483382897
11315181 36 17894634759883582752
11370993 144 16773527598071697103
11552529 35 16486115361750688046
12107183 9 17395565100807302328
12236239 1 17894353276243039172
12553582 1 18336535110031585698
12596602 18 17894916247892907856
12633257 1 17632579400160070435
12788726 201 18261968404599487944
13140716 1 18054800748009888427
13288520 33 18335139795637453305
13583140 156 17988066799930808084
13782708 43 17917715648124247374
13862211 1 18339922718716562159
14178342 30 18128840572518265921
14341114 176 18131912676709801224
14420673 8 17833548995080612482
14849402 71 18187648068448578180
15183329 4 16298652933404872799
17844677 252 18273216400394485288
1813 80 17676493821959900782
18222031 100 18340484564504295997
18927931 339 18411985754245646807
19377110 9 18187070785782309568
19784866 240 17167587106906054099
200 152 16008747991974055776
20600515 1 17987814015235654829
20645477 70 15213285388985865378
21033648 29 17489011674380441544
21267235 1 18335146409528523051
21756936 100 13326848937538259925
22079108 93 15051729828568248087
22182313 1 18128554682230473943
2297311 6 18341901770773854500
23402539 116 18272927228878136445
23557571 272 18201449051170975157
23559900 14 18126860287261436972
23845131 108 17336487245846873969
2748010 2 18127430964267205367
2838139 119 13973693767696374507
3009799 131 18338781378655108597
314173 85 18413113870276356289
4340502 62 14836135389950508975
465052 167 18118983601141541315
5104073 3 18198908015765111442
5265222 85 18272098214855535558
57724786 102 15913038872452294936
602551 16 18342736330211677670
633830 44 14045744824530508252
7970288 3 18261956357259226707

>  <PUBCHEM_SHAPE_MULTIPOLES>  (1) 
430.16
12.45
2.22
1.39
11.84
1.4
0.12
-5.61
3.37
-2.85
-0.33
0.15
-0.53
-0.05

>  <PUBCHEM_SHAPE_SELFOVERLAP>  (1) 
915.039

>  <PUBCHEM_SHAPE_VOLUME>  (1) 
241.3

>  <PUBCHEM_COORDINATE_TYPE>  (1) 
2
5
10

$$$$
