19770
     RDKit          3D

 17 19  0  0  1  0  0  0  0  0999 V2000
    1.7263    3.7435   -0.0778 Cl  0  0  0  0  0  0  0  0  0  0  0  0
    3.4371   -2.0540   -1.0548 O   0  0  0  0  0  0  0  0  0  0  0  0
   -2.3880   -1.8150    0.6622 N   0  0  0  0  0  0  0  0  0  0  0  0
    2.0622    0.5647    0.1011 N   0  0  0  0  0  0  0  0  0  0  0  0
   -0.1365    0.1627    0.1530 C   0  0  0  0  0  0  0  0  0  0  0  0
    0.5698   -1.0810    0.2517 C   0  0  0  0  0  0  0  0  0  0  0  0
   -2.6754   -0.4713    0.1284 C   0  0  0  0  0  0  0  0  0  0  0  0
   -1.5112    0.5133    0.1309 C   0  0  0  0  0  0  0  0  0  0  0  0
   -0.0073   -2.4446    0.4219 C   0  0  0  0  0  0  0  0  0  0  0  0
   -1.4282   -2.6090   -0.1064 C   0  0  0  0  0  0  0  0  0  0  0  0
    0.8289    1.1721    0.0811 C   0  0  0  0  0  0  0  0  0  0  0  0
    1.9183   -0.7883    0.2087 C   0  0  0  0  0  0  0  0  0  0  0  0
   -1.8197    1.8942    0.0618 C   0  0  0  0  0  0  0  0  0  0  0  0
   -3.3581   -0.5272   -1.2469 C   0  0  0  0  0  0  0  0  0  0  0  0
    0.5131    2.5309    0.0047 C   0  0  0  0  0  0  0  0  0  0  0  0
    3.1028   -1.6676    0.2773 C   0  0  0  0  0  0  0  0  0  0  0  0
   -0.8342    2.8766    0.0031 C   0  0  0  0  0  0  0  0  0  0  0  0
  1 15  1  0
  2 16  1  0
  3  7  1  0
  3 10  1  0
  4 11  1  0
  4 12  1  0
  5  6  1  0
  5  8  2  0
  5 11  1  0
  6  9  1  0
  6 12  2  0
  7  8  1  0
  7 14  1  0
  8 13  1  0
  9 10  1  0
 11 15  2  0
 12 16  1  0
 13 17  2  0
 15 17  1  0
M  END
>  <PUBCHEM_COMPOUND_CID>  (1) 
19770

>  <PUBCHEM_CONFORMER_RMSD>  (1) 
0.6

>  <PUBCHEM_CONFORMER_DIVERSEORDER>  (1) 
1
2

>  <PUBCHEM_MMFF94_PARTIAL_CHARGES>  (1) 
20
1 -0.18
10 0.27
11 -0.15
12 -0.33
13 -0.15
15 0.18
16 0.46
17 -0.15
2 -0.68
23 0.36
24 0.27
25 0.15
3 -0.9
31 0.15
32 0.4
4 0.03
6 -0.18
7 0.41
8 -0.14
9 0.18

>  <PUBCHEM_EFFECTIVE_ROTOR_COUNT>  (1) 
1.8

>  <PUBCHEM_PHARMACOPHORE_FEATURES>  (1) 
9
1 2 acceptor
1 2 donor
1 3 cation
1 3 donor
1 4 cation
1 4 donor
5 4 5 6 11 12 rings
6 5 8 11 13 15 17 rings
7 3 5 6 7 8 9 10 rings

>  <PUBCHEM_HEAVY_ATOM_COUNT>  (1) 
17

>  <PUBCHEM_ATOM_DEF_STEREO_COUNT>  (1) 
0

>  <PUBCHEM_ATOM_UDEF_STEREO_COUNT>  (1) 
1

>  <PUBCHEM_BOND_DEF_STEREO_COUNT>  (1) 
0

>  <PUBCHEM_BOND_UDEF_STEREO_COUNT>  (1) 
0

>  <PUBCHEM_ISOTOPIC_ATOM_COUNT>  (1) 
0

>  <PUBCHEM_COMPONENT_COUNT>  (1) 
1

>  <PUBCHEM_CACTVS_TAUTO_COUNT>  (1) 
1

>  <PUBCHEM_CONFORMER_ID>  (1) 
00004D3A00000001

>  <PUBCHEM_MMFF94_ENERGY>  (1) 
29.7135

>  <PUBCHEM_FEATURE_SELFOVERLAP>  (1) 
45.801

>  <PUBCHEM_SHAPE_FINGERPRINT>  (1) 
10411042 1 18410294692166664563
10967382 1 18121780796564477401
11206711 2 18264486178842337367
11578080 2 17096899470286715300
11680986 33 18266173014252033155
12553582 1 18337957779151300834
13140716 1 17906171007543965168
14790565 3 17835541327198266184
15042514 8 18048040670632152778
15490181 7 17114664012804047761
16945 1 18338800146723324792
193761 8 18337955717540598960
19591789 44 17043178160470324667
19868273 325 18337111142386545980
20510252 161 18126280844617774434
21524375 3 17038660838585733576
2334 1 18410292480331814432
23402539 116 18197481957336028638
23419403 2 16899821919112628089
23557571 272 18200319797717431806
23559900 14 17044311220721990940
238 59 17473497767592729719
2748010 2 18338790122401576688
589210 1 18194118748808432712
7364860 26 18124036990293145730
81228 2 18268144262596627888

>  <PUBCHEM_SHAPE_MULTIPOLES>  (1) 
335.89
4.36
4.16
0.79
1.24
0.99
-0.14
-0.53
-0.61
-2.97
-0.38
0.23
0.13
0.52

>  <PUBCHEM_SHAPE_SELFOVERLAP>  (1) 
722.426

>  <PUBCHEM_SHAPE_VOLUME>  (1) 
186.2

>  <PUBCHEM_COORDINATE_TYPE>  (1) 
2
5
10

$$$$
