19771
     RDKit          3D

 16 18  0  0  1  0  0  0  0  0999 V2000
    4.2814   -0.2767    0.1411 Cl  0  0  0  0  0  0  0  0  0  0  0  0
   -2.7015   -0.3743    0.3007 N   0  0  0  0  0  0  0  0  0  0  0  0
    1.9036    1.8452   -0.1462 N   0  0  0  0  0  0  0  0  0  0  0  0
   -1.7074   -1.3925   -0.0783 C   0  0  0  0  0  0  0  0  0  0  0  0
   -0.2348   -1.0109    0.0420 C   0  0  0  0  0  0  0  0  0  0  0  0
    0.2837    0.3068   -0.0456 C   0  0  0  0  0  0  0  0  0  0  0  0
   -2.7285    0.8530   -0.4968 C   0  0  0  0  0  0  0  0  0  0  0  0
   -1.7578    1.9665   -0.1028 C   0  0  0  0  0  0  0  0  0  0  0  0
   -0.3115    1.6080   -0.1419 C   0  0  0  0  0  0  0  0  0  0  0  0
    1.6696    0.4965   -0.0208 C   0  0  0  0  0  0  0  0  0  0  0  0
   -1.9911   -1.9346   -1.4908 C   0  0  0  0  0  0  0  0  0  0  0  0
    0.7213    2.5225   -0.2134 C   0  0  0  0  0  0  0  0  0  0  0  0
    0.7022   -2.0642    0.1822 C   0  0  0  0  0  0  0  0  0  0  0  0
   -2.7907   -0.1555    1.7399 C   0  0  0  0  0  0  0  0  0  0  0  0
    2.5858   -0.5503    0.1105 C   0  0  0  0  0  0  0  0  0  0  0  0
    2.0757   -1.8394    0.2202 C   0  0  0  0  0  0  0  0  0  0  0  0
  1 15  1  0
  2  4  1  0
  2  7  1  0
  2 14  1  0
  3 10  1  0
  3 12  1  0
  4  5  1  0
  4 11  1  0
  5  6  2  0
  5 13  1  0
  6  9  1  0
  6 10  1  0
  7  8  1  0
  8  9  1  0
  9 12  2  0
 10 15  2  0
 13 16  2  0
 15 16  1  0
M  END
>  <PUBCHEM_COMPOUND_CID>  (1) 
19771

>  <PUBCHEM_CONFORMER_RMSD>  (1) 
0.4

>  <PUBCHEM_CONFORMER_DIVERSEORDER>  (1) 
5
4
2
7
1
3
6

>  <PUBCHEM_MMFF94_PARTIAL_CHARGES>  (1) 
18
1 -0.18
10 -0.15
12 -0.3
13 -0.15
14 0.27
15 0.18
16 -0.15
2 -0.81
25 0.15
26 0.15
27 0.27
3 0.03
31 0.15
4 0.41
5 -0.14
7 0.27
8 0.18
9 -0.18

>  <PUBCHEM_EFFECTIVE_ROTOR_COUNT>  (1) 
0.8

>  <PUBCHEM_PHARMACOPHORE_FEATURES>  (1) 
6
1 2 cation
1 3 cation
1 3 donor
5 3 6 9 10 12 rings
6 5 6 10 13 15 16 rings
7 2 4 5 6 7 8 9 rings

>  <PUBCHEM_HEAVY_ATOM_COUNT>  (1) 
16

>  <PUBCHEM_ATOM_DEF_STEREO_COUNT>  (1) 
0

>  <PUBCHEM_ATOM_UDEF_STEREO_COUNT>  (1) 
1

>  <PUBCHEM_BOND_DEF_STEREO_COUNT>  (1) 
0

>  <PUBCHEM_BOND_UDEF_STEREO_COUNT>  (1) 
0

>  <PUBCHEM_ISOTOPIC_ATOM_COUNT>  (1) 
0

>  <PUBCHEM_COMPONENT_COUNT>  (1) 
1

>  <PUBCHEM_CACTVS_TAUTO_COUNT>  (1) 
1

>  <PUBCHEM_CONFORMER_ID>  (1) 
00004D3B00000005

>  <PUBCHEM_MMFF94_ENERGY>  (1) 
37.086

>  <PUBCHEM_FEATURE_SELFOVERLAP>  (1) 
30.575

>  <PUBCHEM_SHAPE_FINGERPRINT>  (1) 
10967382 1 18337951177881135508
11132069 177 18341885282473351098
11471102 22 18261412051752633627
11578080 2 17558521820890115273
11680986 33 17976543810407610258
12382932 28 18266457594669498912
12423570 1 14512971720939208347
13027679 85 18412824689833398169
13132413 78 18410293605771436724
13140716 1 18339083820733691424
13172582 1 18342466923612767619
13221675 6 18409735049379654890
14251711 518 18338508660288902659
14617773 55 17843685710271440295
15309172 13 18271531888013145171
16945 1 18411141324566749742
17844478 74 17967827054168740233
193761 8 17905047311107994394
20511035 2 18263372403986964789
20871998 184 18268711606338561476
21501502 16 18269274745339225988
22112679 90 17916588798770889399
22721475 48 18336550408488686249
2334 1 18050567636036020980
23388829 49 18410566310377261044
23402539 116 18411689986034694798
23463225 33 18334293124534358114
23559900 14 18270397184483525470
2748010 2 17979075981275087324
2897 32 18265051503833558429
34934 24 18263635182612086376
528886 8 18410003321616315834
63268167 104 18267866258122336097
6992083 37 18273220793771280867
7364860 26 18198059377393070072
8809292 202 18113344127843590203

>  <PUBCHEM_SHAPE_MULTIPOLES>  (1) 
321.18
5
2.61
0.98
2.65
0.56
0.14
-0.63
0.59
-0.12
-0.47
-0.85
-0.31
-0.33

>  <PUBCHEM_SHAPE_SELFOVERLAP>  (1) 
691.503

>  <PUBCHEM_SHAPE_VOLUME>  (1) 
177.6

>  <PUBCHEM_COORDINATE_TYPE>  (1) 
2
5
10

$$$$
