19789
     RDKit          3D

 17 18  0  0  0  0  0  0  0  0999 V2000
    2.3927    1.7379   -0.6211 O   0  0  0  0  0  0  0  0  0  0  0  0
    0.4064    2.9052   -0.4997 O   0  0  0  0  0  0  0  0  0  0  0  0
   -2.9965   -0.4250    0.1110 N   0  0  0  0  0  0  0  0  0  0  0  0
    0.5472    0.6988    0.2635 N   0  0  0  0  0  0  0  0  0  0  0  0
   -1.6573   -0.1370   -0.3861 C   0  0  0  0  0  0  0  0  0  0  0  0
   -0.7910    0.4329    0.7276 C   0  0  0  0  0  0  0  0  0  0  0  0
   -3.8361   -0.9740   -0.9557 C   0  0  0  0  0  0  0  0  0  0  0  0
   -3.6107    0.7811    0.6694 C   0  0  0  0  0  0  0  0  0  0  0  0
    1.5838   -0.2080    0.3076 C   0  0  0  0  0  0  0  0  0  0  0  0
    2.6786    0.4388   -0.2283 C   0  0  0  0  0  0  0  0  0  0  0  0
    1.0303    1.8710   -0.2950 C   0  0  0  0  0  0  0  0  0  0  0  0
   -3.1978   -2.2231   -1.5322 C   0  0  0  0  0  0  0  0  0  0  0  0
   -4.9758    0.4543    1.2434 C   0  0  0  0  0  0  0  0  0  0  0  0
    1.6458   -1.5086    0.7626 C   0  0  0  0  0  0  0  0  0  0  0  0
    3.9042   -0.1830   -0.3398 C   0  0  0  0  0  0  0  0  0  0  0  0
    2.8783   -2.1592    0.6597 C   0  0  0  0  0  0  0  0  0  0  0  0
    3.9982   -1.5020    0.1130 C   0  0  0  0  0  0  0  0  0  0  0  0
  1 10  1  0
  1 11  1  0
  2 11  2  0
  3  5  1  0
  3  7  1  0
  3  8  1  0
  4  6  1  0
  4  9  1  0
  4 11  1  0
  5  6  1  0
  7 12  1  0
  8 13  1  0
  9 10  2  0
  9 14  1  0
 10 15  1  0
 14 16  2  0
 15 17  2  0
 16 17  1  0
M  END
>  <PUBCHEM_COMPOUND_CID>  (1) 
19789

>  <PUBCHEM_CONFORMER_RMSD>  (1) 
0.6

>  <PUBCHEM_CONFORMER_DIVERSEORDER>  (1) 
2
18
14
35
34
41
46
39
38
28
33
27
30
13
32
31
20
42
29
36
19
45
15
8
21
12
44
9
23
25
37
11
26
43
40
17
16
4
1
10
6
24
22
5
3
7

>  <PUBCHEM_MMFF94_PARTIAL_CHARGES>  (1) 
19
1 -0.23
10 0.08
11 0.78
14 -0.15
15 -0.15
16 -0.15
17 -0.15
2 -0.57
3 -0.81
32 0.15
33 0.15
34 0.15
35 0.15
4 -0.48
5 0.27
6 0.3
7 0.27
8 0.27
9 0.12

>  <PUBCHEM_EFFECTIVE_ROTOR_COUNT>  (1) 
5

>  <PUBCHEM_PHARMACOPHORE_FEATURES>  (1) 
4
1 2 acceptor
1 3 cation
5 1 4 9 10 11 rings
6 9 10 14 15 16 17 rings

>  <PUBCHEM_HEAVY_ATOM_COUNT>  (1) 
17

>  <PUBCHEM_ATOM_DEF_STEREO_COUNT>  (1) 
0

>  <PUBCHEM_ATOM_UDEF_STEREO_COUNT>  (1) 
0

>  <PUBCHEM_BOND_DEF_STEREO_COUNT>  (1) 
0

>  <PUBCHEM_BOND_UDEF_STEREO_COUNT>  (1) 
0

>  <PUBCHEM_ISOTOPIC_ATOM_COUNT>  (1) 
0

>  <PUBCHEM_COMPONENT_COUNT>  (1) 
1

>  <PUBCHEM_CACTVS_TAUTO_COUNT>  (1) 
1

>  <PUBCHEM_CONFORMER_ID>  (1) 
00004D4D00000002

>  <PUBCHEM_MMFF94_ENERGY>  (1) 
39.5674

>  <PUBCHEM_FEATURE_SELFOVERLAP>  (1) 
20.41

>  <PUBCHEM_SHAPE_FINGERPRINT>  (1) 
10062212 137 18202560692271854079
10616163 171 18201439228897793695
11471102 20 18259988175694399400
11578080 2 18057295384504895985
11806522 49 18341606057996141474
12236239 1 18273221876181966217
12346177 29 17203035336353131727
12403259 327 16128080144789070075
12553582 1 18335133146675080154
13167823 11 18342459266081951483
13583140 156 14404890388984701895
14251717 144 18334570282757927334
14576447 43 18339635750080989174
14965852 173 18272086123878706479
15099037 8 18199461233475581303
15375462 189 18335138657054557602
15442244 35 18411139100027229393
15757776 16 18335415760271564354
18186145 218 17240481420554812867
19422 9 18271243919246310615
20281475 54 18412821404388813735
20291156 8 18411697664570757743
20600515 1 16630532816913761393
20645477 70 18187635938389328031
21267235 1 18263658281189102866
21634736 98 18196926897269360606
221490 88 18117563035564147874
2255824 54 18264772232354509620
22646028 28 18272645779370951751
232386 152 17561075938713374607
23402539 116 18336540530602138154
23402655 69 18334856082571422412
23559900 14 16845301531453431636
23598291 2 18341613754408783093
2838139 119 14997426113725877534
312423 11 18269278031464039167
3268164 11 14201397214181859619
5281201 14 17095244709096433407
53777708 50 18198907109626893861
573450 72 17846777412704910019
58051976 100 18411698816334260311
7495541 125 16371303206526744656
83771 10 18334858273073302000
84936 182 17984142835825853688
9981440 41 17403729442436869545

>  <PUBCHEM_SHAPE_MULTIPOLES>  (1) 
328.15
8.77
2.38
1.08
5.73
0.37
0.05
-2.92
-0.72
-0.7
0.62
0.95
-0.3
-1.84

>  <PUBCHEM_SHAPE_SELFOVERLAP>  (1) 
684.922

>  <PUBCHEM_SHAPE_VOLUME>  (1) 
189

>  <PUBCHEM_COORDINATE_TYPE>  (1) 
2
5
10

$$$$
