19785
     RDKit          3D

 16 15  0  0  0  0  0  0  0  0999 V2000
    2.5520    1.5016   -2.2359 Cl  0  0  0  0  0  0  0  0  0  0  0  0
    2.2641   -3.7197    0.3318 Cl  0  0  0  0  0  0  0  0  0  0  0  0
    1.9807    0.2957    0.5060 N   0  0  0  0  0  0  0  0  0  0  0  0
   -2.6489   -0.0397   -0.0836 N   0  0  0  0  0  0  0  0  0  0  0  0
   -0.2024    1.0304    1.3467 C   0  0  0  0  0  0  0  0  0  0  0  0
   -0.6616    1.4482   -0.0541 C   0  0  0  0  0  0  0  0  0  0  0  0
    1.3154    1.1477    1.4846 C   0  0  0  0  0  0  0  0  0  0  0  0
   -2.1725    1.3264   -0.2638 C   0  0  0  0  0  0  0  0  0  0  0  0
    3.3430    0.7682    0.2528 C   0  0  0  0  0  0  0  0  0  0  0  0
    2.0023   -1.0948    0.9633 C   0  0  0  0  0  0  0  0  0  0  0  0
   -4.1038   -0.1024   -0.2342 C   0  0  0  0  0  0  0  0  0  0  0  0
   -2.0007   -0.9418   -1.0371 C   0  0  0  0  0  0  0  0  0  0  0  0
    3.3134    1.9584   -0.6934 C   0  0  0  0  0  0  0  0  0  0  0  0
    2.2555   -2.0252   -0.2127 C   0  0  0  0  0  0  0  0  0  0  0  0
   -4.7980    0.8271    0.7468 C   0  0  0  0  0  0  0  0  0  0  0  0
   -2.4385   -2.3800   -0.8170 C   0  0  0  0  0  0  0  0  0  0  0  0
  1 13  1  0
  2 14  1  0
  3  7  1  0
  3  9  1  0
  3 10  1  0
  4  8  1  0
  4 11  1  0
  4 12  1  0
  5  6  1  0
  5  7  1  0
  6  8  1  0
  9 13  1  0
 10 14  1  0
 11 15  1  0
 12 16  1  0
M  END
>  <PUBCHEM_COMPOUND_CID>  (1) 
19785

>  <PUBCHEM_CONFORMER_RMSD>  (1) 
1

>  <PUBCHEM_CONFORMER_DIVERSEORDER>  (1) 
3
97
102
92
67
85
64
72
60
79
37
86
48
81
13
82
104
56
78
50
1
98
83
74
94
54
90
14
57
32
30
100
88
58
36
61
91
18
73
75
80
16
99
69
43
22
49
66
11
47
76
20
25
35
103
87
77
96
63
17
53
55
24
12
89
34
23
65
59
21
101
26
52
51
15
93
27
62
42
45
46
31
29
84
19
44
10
2
71
38
33
68
9
40
28
41
39
95
70
5
7
8
4
6

>  <PUBCHEM_MMFF94_PARTIAL_CHARGES>  (1) 
12
1 -0.29
10 0.27
11 0.27
12 0.27
13 0.29
14 0.29
2 -0.29
3 -0.81
4 -0.81
7 0.27
8 0.27
9 0.27

>  <PUBCHEM_EFFECTIVE_ROTOR_COUNT>  (1) 
11

>  <PUBCHEM_PHARMACOPHORE_FEATURES>  (1) 
2
1 3 cation
1 4 cation

>  <PUBCHEM_HEAVY_ATOM_COUNT>  (1) 
16

>  <PUBCHEM_ATOM_DEF_STEREO_COUNT>  (1) 
0

>  <PUBCHEM_ATOM_UDEF_STEREO_COUNT>  (1) 
0

>  <PUBCHEM_BOND_DEF_STEREO_COUNT>  (1) 
0

>  <PUBCHEM_BOND_UDEF_STEREO_COUNT>  (1) 
0

>  <PUBCHEM_ISOTOPIC_ATOM_COUNT>  (1) 
0

>  <PUBCHEM_COMPONENT_COUNT>  (1) 
1

>  <PUBCHEM_CACTVS_TAUTO_COUNT>  (1) 
1

>  <PUBCHEM_CONFORMER_ID>  (1) 
00004D4900000003

>  <PUBCHEM_MMFF94_ENERGY>  (1) 
16.118

>  <PUBCHEM_FEATURE_SELFOVERLAP>  (1) 
10.149

>  <PUBCHEM_SHAPE_FINGERPRINT>  (1) 
10616163 171 18341046427762789807
12403260 363 8358263627010717737
12596599 1 17202215203083058778
12616999 72 18334860545031893472
12788726 201 17131563734436177721
13931106 250 16459935582430682202
14115302 16 18342177756434136168
14178342 30 17984395667881211107
15279307 12 18341894112388249263
15375358 24 16630524067838765528
15375462 189 18201995525782641547
15775835 57 18343580771888889291
18186145 218 16515674589412629128
18522851 12 18343303699417200427
18522851 268 18115012031364733276
20231682 184 17168146801432637644
20281475 54 18342449349028611513
20523700 14 18339919419648552037
20645477 70 18262507105520880011
23532345 88 18335983047893937394
23598291 2 17974298624891079256
3060560 45 18260272979745732876
351380 180 8646774391412284897
4175511 335 18411133632771160404

>  <PUBCHEM_SHAPE_MULTIPOLES>  (1) 
323.05
7.55
3.21
1.49
6.78
3.62
-0.37
-0.95
-0.5
-2.84
-0.36
-0.81
-0.62
-1.5

>  <PUBCHEM_SHAPE_SELFOVERLAP>  (1) 
575.659

>  <PUBCHEM_SHAPE_VOLUME>  (1) 
210.7

>  <PUBCHEM_COORDINATE_TYPE>  (1) 
2
5
10

$$$$
