19791
     RDKit          3D

 25 28  0  0  0  0  0  0  0  0999 V2000
   -1.6731   -5.3907   -0.5396 Cl  0  0  0  0  0  0  0  0  0  0  0  0
   -0.4580    2.4930    1.2452 O   0  0  0  0  0  0  0  0  0  0  0  0
    3.5276    0.8847   -0.0499 N   0  0  0  0  0  0  0  0  0  0  0  0
   -0.1310    0.3003    0.5615 N   0  0  0  0  0  0  0  0  0  0  0  0
   -3.0070   -0.6459    0.6799 N   0  0  0  0  0  0  0  0  0  0  0  0
    4.0602   -0.3527    0.5377 C   0  0  0  0  0  0  0  0  0  0  0  0
    4.2948    1.2811   -1.2391 C   0  0  0  0  0  0  0  0  0  0  0  0
    5.5270   -0.1866    0.9380 C   0  0  0  0  0  0  0  0  0  0  0  0
    5.7693    1.5008   -0.8967 C   0  0  0  0  0  0  0  0  0  0  0  0
    6.3770    0.2643   -0.2444 C   0  0  0  0  0  0  0  0  0  0  0  0
    2.1126    0.7246   -0.3838 C   0  0  0  0  0  0  0  0  0  0  0  0
    1.3023    0.4366    0.8716 C   0  0  0  0  0  0  0  0  0  0  0  0
   -0.5879   -1.0191    0.1985 C   0  0  0  0  0  0  0  0  0  0  0  0
   -0.8926    1.4720    0.6992 C   0  0  0  0  0  0  0  0  0  0  0  0
   -1.9109   -1.4625    0.3626 C   0  0  0  0  0  0  0  0  0  0  0  0
   -2.2410    1.6186    0.1192 C   0  0  0  0  0  0  0  0  0  0  0  0
   -3.2393    0.6611    0.2489 C   0  0  0  0  0  0  0  0  0  0  0  0
    0.3668   -1.9745   -0.2341 C   0  0  0  0  0  0  0  0  0  0  0  0
   -2.2176   -2.8271    0.1243 C   0  0  0  0  0  0  0  0  0  0  0  0
   -2.5447    2.8751   -0.4436 C   0  0  0  0  0  0  0  0  0  0  0  0
    0.0409   -3.3103   -0.4790 C   0  0  0  0  0  0  0  0  0  0  0  0
   -4.5431    0.9892   -0.1796 C   0  0  0  0  0  0  0  0  0  0  0  0
   -1.2565   -3.7424   -0.2887 C   0  0  0  0  0  0  0  0  0  0  0  0
   -3.8350    3.1770   -0.8744 C   0  0  0  0  0  0  0  0  0  0  0  0
   -4.8410    2.2335   -0.7336 C   0  0  0  0  0  0  0  0  0  0  0  0
  1 23  1  0
  2 14  2  0
  3  6  1  0
  3  7  1  0
  3 11  1  0
  4 12  1  0
  4 13  1  0
  4 14  1  0
  5 15  1  0
  5 17  1  0
  6  8  1  0
  7  9  1  0
  8 10  1  0
  9 10  1  0
 11 12  1  0
 13 15  2  0
 13 18  1  0
 14 16  1  0
 15 19  1  0
 16 17  2  0
 16 20  1  0
 17 22  1  0
 18 21  2  0
 19 23  2  0
 20 24  2  0
 21 23  1  0
 22 25  2  0
 24 25  1  0
M  END
>  <PUBCHEM_COMPOUND_CID>  (1) 
19791

>  <PUBCHEM_CONFORMER_RMSD>  (1) 
0.8

>  <PUBCHEM_CONFORMER_DIVERSEORDER>  (1) 
1
11
14
8
15
4
12
2
13
10
6
9
5
3
7
16
17

>  <PUBCHEM_MMFF94_PARTIAL_CHARGES>  (1) 
30
1 -0.18
11 0.27
12 0.3
13 0.12
14 0.54
15 0.1
16 0.09
17 0.1
18 -0.15
19 -0.15
2 -0.57
20 -0.15
21 -0.15
22 -0.15
23 0.18
24 -0.15
25 -0.15
3 -0.81
4 -0.48
40 0.4
41 0.15
42 0.15
43 0.15
44 0.15
45 0.15
46 0.15
47 0.15
5 -0.6
6 0.27
7 0.27

>  <PUBCHEM_EFFECTIVE_ROTOR_COUNT>  (1) 
4.6

>  <PUBCHEM_PHARMACOPHORE_FEATURES>  (1) 
8
1 2 acceptor
1 3 cation
1 5 cation
1 5 donor
6 13 15 18 19 21 23 rings
6 16 17 20 22 24 25 rings
6 3 6 7 8 9 10 rings
7 4 5 13 14 15 16 17 rings

>  <PUBCHEM_HEAVY_ATOM_COUNT>  (1) 
25

>  <PUBCHEM_ATOM_DEF_STEREO_COUNT>  (1) 
0

>  <PUBCHEM_ATOM_UDEF_STEREO_COUNT>  (1) 
0

>  <PUBCHEM_BOND_DEF_STEREO_COUNT>  (1) 
0

>  <PUBCHEM_BOND_UDEF_STEREO_COUNT>  (1) 
0

>  <PUBCHEM_ISOTOPIC_ATOM_COUNT>  (1) 
0

>  <PUBCHEM_COMPONENT_COUNT>  (1) 
1

>  <PUBCHEM_CACTVS_TAUTO_COUNT>  (1) 
2

>  <PUBCHEM_CONFORMER_ID>  (1) 
00004D4F00000001

>  <PUBCHEM_MMFF94_ENERGY>  (1) 
94.1979

>  <PUBCHEM_FEATURE_SELFOVERLAP>  (1) 
40.613

>  <PUBCHEM_SHAPE_FINGERPRINT>  (1) 
10165383 225 18342184341210130961
10411042 1 17762338415321228495
10483366 6 18268414902347492183
105312 117 18408040688970758284
11370993 70 18337671897522138429
12107183 9 18189324681513856306
12236239 1 17894911828440327168
12293681 160 17988638532807988065
12597179 24 18201725015852474998
12788726 201 18189892196347840762
13052359 8 18411698811374829834
13257819 101 17096633311253059621
13690498 29 18053116300369706134
13785724 45 17546173364428243435
138480 1 17258496643798755407
13911987 19 18410854318100189925
13968360 50 18192418689616315391
14251757 5 18339927120667241152
14508225 48 17837484520694716159
14713325 29 18261398883710204835
14767858 380 18340750582363369765
14790565 3 18340491045373257609
15042514 8 18266745868690767563
15230672 131 18336550401091638430
15463212 79 18186795911468595784
15775530 1 17698144489658086969
16087824 20 18337954597920834559
16752209 62 18339912809857589354
167882 2 18121216476548474939
17539 30 18197773517101821687
17980427 23 17531257132018763477
19427546 20 18265058114510835652
19958102 18 18409727327376604030
20101258 96 17830748907745921955
20197701 30 18336541604027171602
20511986 3 17967802869672672280
20554085 129 17984675879847620544
20715895 44 18191864531139650212
20775438 99 17047910953154852999
21703447 108 17837761597793285400
22182313 1 18267608839189261791
22849339 104 18341067292882583030
23366157 5 17686623437871338931
23419403 2 16986863777904172531
23559900 14 17691114942818277123
23598288 3 18116162232069961786
255183 451 17190390118830823758
283562 15 18129945546733078281
3103668 31 18192981833371611271
3298306 158 18271241625696831814
394222 165 17970058950998624515
4015057 19 16702011020042897720
4017518 198 18199465477320774694
4409770 3 18409728508387270655
508706 21 18270972335790754070
559249 180 18334011667085793458
59025328 239 16406437202907746142
59755656 520 18336257968755745214
6327066 14 18261107431297969813
6669772 16 18200596878072804175
6898599 12 18335424633595208500
70251023 43 17544475718242595723
9981440 41 18336830775759350603

>  <PUBCHEM_SHAPE_MULTIPOLES>  (1) 
495.55
11.29
5.23
0.98
18.36
7.63
0.01
-8.62
1.95
-6.91
1.48
0.41
-0.31
-0.1

>  <PUBCHEM_SHAPE_SELFOVERLAP>  (1) 
1061.888

>  <PUBCHEM_SHAPE_VOLUME>  (1) 
272.2

>  <PUBCHEM_COORDINATE_TYPE>  (1) 
2
5
10

$$$$
