19797
     RDKit          3D

 13 13  0  0  0  0  0  0  0  0999 V2000
    1.0838    2.5388   -0.0544 Cl  0  0  0  0  0  0  0  0  0  0  0  0
   -1.2233   -0.1907    0.3756 N   0  0  0  0  0  0  0  0  0  0  0  0
   -3.2940   -0.0154   -0.7246 N   0  0  0  0  0  0  0  0  0  0  0  0
   -3.1106   -0.3112    1.6468 N   0  0  0  0  0  0  0  0  0  0  0  0
   -0.3942   -0.0622   -0.7990 C   0  0  0  0  0  0  0  0  0  0  0  0
    1.0430   -0.1641   -0.4010 C   0  0  0  0  0  0  0  0  0  0  0  0
    1.7865    0.9623   -0.0489 C   0  0  0  0  0  0  0  0  0  0  0  0
    1.6385   -1.4253   -0.3869 C   0  0  0  0  0  0  0  0  0  0  0  0
    3.1257    0.8272    0.3176 C   0  0  0  0  0  0  0  0  0  0  0  0
    2.9777   -1.5602   -0.0206 C   0  0  0  0  0  0  0  0  0  0  0  0
    3.7212   -0.4340    0.3316 C   0  0  0  0  0  0  0  0  0  0  0  0
   -2.6081   -0.1637    0.3705 C   0  0  0  0  0  0  0  0  0  0  0  0
   -4.7462   -0.0016   -0.6067 C   0  0  0  0  0  0  0  0  0  0  0  0
  1  7  1  0
  2  5  1  0
  2 12  1  0
  3 12  2  0
  3 13  1  0
  4 12  1  0
  5  6  1  0
  6  7  2  0
  6  8  1  0
  7  9  1  0
  8 10  2  0
  9 11  2  0
 10 11  1  0
M  END
>  <PUBCHEM_COMPOUND_CID>  (1) 
19797

>  <PUBCHEM_CONFORMER_RMSD>  (1) 
0.6

>  <PUBCHEM_CONFORMER_DIVERSEORDER>  (1) 
2
44
31
29
35
30
45
9
13
3
21
47
22
4
46
12
41
10
20
42
23
28
40
14
16
11
43
1
33
19
39
17
51
5
38
37
6
18
25
32
48
27
15
36
24
8
7
50
34
26
49

>  <PUBCHEM_MMFF94_PARTIAL_CHARGES>  (1) 
20
1 -0.18
10 -0.15
11 -0.15
12 0.55
13 0.25
16 0.15
17 0.4
18 0.15
19 0.15
2 -0.82
20 0.15
21 0.4
22 0.4
3 -0.7
4 -0.85
5 0.51
6 -0.14
7 0.18
8 -0.15
9 -0.15

>  <PUBCHEM_EFFECTIVE_ROTOR_COUNT>  (1) 
3

>  <PUBCHEM_PHARMACOPHORE_FEATURES>  (1) 
4
1 2 donor
1 4 donor
4 2 3 4 12 cation
6 6 7 8 9 10 11 rings

>  <PUBCHEM_HEAVY_ATOM_COUNT>  (1) 
13

>  <PUBCHEM_ATOM_DEF_STEREO_COUNT>  (1) 
0

>  <PUBCHEM_ATOM_UDEF_STEREO_COUNT>  (1) 
0

>  <PUBCHEM_BOND_DEF_STEREO_COUNT>  (1) 
0

>  <PUBCHEM_BOND_UDEF_STEREO_COUNT>  (1) 
0

>  <PUBCHEM_ISOTOPIC_ATOM_COUNT>  (1) 
0

>  <PUBCHEM_COMPONENT_COUNT>  (1) 
1

>  <PUBCHEM_CACTVS_TAUTO_COUNT>  (1) 
3

>  <PUBCHEM_CONFORMER_ID>  (1) 
00004D5500000002

>  <PUBCHEM_MMFF94_ENERGY>  (1) 
35.0602

>  <PUBCHEM_FEATURE_SELFOVERLAP>  (1) 
20.353

>  <PUBCHEM_SHAPE_FINGERPRINT>  (1) 
10219947 1 18413388735293130142
10980938 120 18342176682940141188
11471102 20 18410571799398258476
12346177 29 16878223164700304283
12346645 6 18272367585970437614
124424 183 18040994033732213961
12500047 106 17458340862248832331
13296908 3 17530689839689485187
13922767 16 18335416876488151773
14144814 61 18201723946289319707
14251717 144 18413103961444186014
14252887 29 18342741776235568218
14993402 34 18130791174374534062
15501101 241 18333732433522894148
200 152 18131061637302984975
20201158 50 18261111859171354986
20279233 1 18040156214604422483
20281407 28 17458349615181035338
20606313 2 18410289220361784068
20645477 70 18409725123594540391
20871998 22 18127978503688473638
22485316 2 16588023515408646250
23048698 100 18060135444497653891
23402539 116 18340758279028978029
23557571 272 13973696030964576433
2748010 2 18053371116531688100
3248919 1 17561094617637031767
581208 293 18412258450208970966
77492 1 17561080319316207583
81228 2 17973735670637623572

>  <PUBCHEM_SHAPE_MULTIPOLES>  (1) 
254.46
7.6
1.69
0.94
7.57
0.96
-0.22
-1.26
-0.32
-1.69
0.08
0.74
-0.07
0.17

>  <PUBCHEM_SHAPE_SELFOVERLAP>  (1) 
508.875

>  <PUBCHEM_SHAPE_VOLUME>  (1) 
150.1

>  <PUBCHEM_COORDINATE_TYPE>  (1) 
2
5
10

$$$$
