19801
     RDKit          3D

 11 10  0  0  0  0  0  0  0  0999 V2000
   -5.8864   -0.6926    0.4252 O   0  0  0  0  0  0  0  0  0  0  0  0
    2.3847   -0.3140   -0.3100 C   0  0  0  0  0  0  0  0  0  0  0  0
    1.2295    0.5950    0.1184 C   0  0  0  0  0  0  0  0  0  0  0  0
    3.7270    0.2231    0.1917 C   0  0  0  0  0  0  0  0  0  0  0  0
   -0.1182    0.0381   -0.3511 C   0  0  0  0  0  0  0  0  0  0  0  0
    4.9154   -0.6624   -0.1891 C   0  0  0  0  0  0  0  0  0  0  0  0
   -1.3073    0.9018    0.0814 C   0  0  0  0  0  0  0  0  0  0  0  0
    6.2425   -0.1703    0.3672 C   0  0  0  0  0  0  0  0  0  0  0  0
   -2.6219    0.3928   -0.4370 C   0  0  0  0  0  0  0  0  0  0  0  0
   -3.6568    0.0892    0.3556 C   0  0  0  0  0  0  0  0  0  0  0  0
   -4.9084   -0.4008   -0.2523 C   0  0  0  0  0  0  0  0  0  0  0  0
  1 11  2  0
  2  3  1  0
  2  4  1  0
  3  5  1  0
  4  6  1  0
  5  7  1  0
  6  8  1  0
  7  9  1  0
  9 10  2  0
 10 11  1  0
M  END
>  <PUBCHEM_COMPOUND_CID>  (1) 
19801

>  <PUBCHEM_CONFORMER_RMSD>  (1) 
0.6

>  <PUBCHEM_CONFORMER_DIVERSEORDER>  (1) 
1
31
127
125
162
121
139
3
148
124
171
90
28
157
138
170
126
100
22
95
160
6
71
66
134
18
159
133
51
117
17
9
167
15
101
53
93
61
152
11
151
158
10
155
107
85
163
65
136
13
92
146
84
49
169
52
103
150
64
130
63
59
23
54
32
7
30
26
153
104
102
143
86
147
166
131
165
75
21
67
149
128
55
39
12
16
116
115
24
81
36
97
14
137
110
56
98
41
50
44
119
141
96
42
27
122
156
129
40
161
73
72
46
4
114
164
2
87
43
5
74
144
140
45
135
47
29
58
123
106
69
83
154
38
62
35
19
94
108
77
132
34
37
79
25
113
145
168
88
99
57
78
142
20
68
33
76
118
8
109
60
89
91
48
105
70
80
120
82
112
111

>  <PUBCHEM_MMFF94_PARTIAL_CHARGES>  (1) 
8
1 -0.57
10 -0.14
11 0.5
27 0.15
28 0.15
29 0.06
7 0.14
9 -0.29

>  <PUBCHEM_EFFECTIVE_ROTOR_COUNT>  (1) 
7

>  <PUBCHEM_PHARMACOPHORE_FEATURES>  (1) 
2
1 1 acceptor
1 8 hydrophobe

>  <PUBCHEM_HEAVY_ATOM_COUNT>  (1) 
11

>  <PUBCHEM_ATOM_DEF_STEREO_COUNT>  (1) 
0

>  <PUBCHEM_ATOM_UDEF_STEREO_COUNT>  (1) 
0

>  <PUBCHEM_BOND_DEF_STEREO_COUNT>  (1) 
0

>  <PUBCHEM_BOND_UDEF_STEREO_COUNT>  (1) 
1

>  <PUBCHEM_ISOTOPIC_ATOM_COUNT>  (1) 
0

>  <PUBCHEM_COMPONENT_COUNT>  (1) 
1

>  <PUBCHEM_CACTVS_TAUTO_COUNT>  (1) 
1

>  <PUBCHEM_CONFORMER_ID>  (1) 
00004D5900000001

>  <PUBCHEM_MMFF94_ENERGY>  (1) 
-0.806

>  <PUBCHEM_FEATURE_SELFOVERLAP>  (1) 
10.148

>  <PUBCHEM_SHAPE_FINGERPRINT>  (1) 
10354089 29 15123509211989174458
11401426 45 11674881095358659236
12714333 28 11602821302445136334
14123238 8 18272651242674437876
1420 363 18412266133799948950
14251718 22 17675924296263693148
15048467 5 11312054353174062162
15242439 84 12324246065869754100
15501527 16 10735873980493350303
17834072 33 17968099750332550828
17834072 8 11530483316163209026
17834076 25 18409730659759353210
18342897 14 13183019618201266122
187816 3 14851605479471434029
20281389 69 11672066328543968114
20645477 56 11095882661881679697
20645477 70 12540960877557813080
20719005 15 18411418406198085508
20724930 69 11455889161173382797
20767249 13 17821729433558466376
21130983 4 14548732933169551898
23218964 4 9151175350812669860
23402539 116 17458059344200921653
23402655 69 12324232871846135233
42788 4 18334294262547827700

>  <PUBCHEM_SHAPE_MULTIPOLES>  (1) 
220.51
15.06
0.84
0.7
2.44
0.04
-0.01
-3.99
1.98
-0.13
0
-0.06
-0.01
0.19

>  <PUBCHEM_SHAPE_SELFOVERLAP>  (1) 
396.904

>  <PUBCHEM_SHAPE_VOLUME>  (1) 
141.8

>  <PUBCHEM_COORDINATE_TYPE>  (1) 
2
5
10

$$$$
