19806
     RDKit          3D

 31 31  0  0  0  0  0  0  0  0999 V2000
   -3.0319    1.7248   -1.5869 O   0  0  0  0  0  0  0  0  0  0  0  0
   -2.4494   -2.5849   -0.2510 O   0  0  0  0  0  0  0  0  0  0  0  0
   -1.0800    0.8666    2.5383 O   0  0  0  0  0  0  0  0  0  0  0  0
   -2.1714    1.3617    0.5468 N   0  0  0  0  0  0  0  0  0  0  0  0
   -1.8635   -0.8996    1.2466 N   0  0  0  0  0  0  0  0  0  0  0  0
    2.9180    2.9997   -0.2694 N   0  0  0  0  0  0  0  0  0  0  0  0
    2.8338   -3.1376   -0.2294 N   0  0  0  0  0  0  0  0  0  0  0  0
   -3.4515   -0.4140   -0.5571 C   0  0  0  0  0  0  0  0  0  0  0  0
   -4.7598   -0.3410    0.2517 C   0  0  0  0  0  0  0  0  0  0  0  0
   -3.7778   -0.8992   -1.9801 C   0  0  0  0  0  0  0  0  0  0  0  0
   -2.8602    0.9868   -0.6159 C   0  0  0  0  0  0  0  0  0  0  0  0
   -2.5343   -1.4162    0.1286 C   0  0  0  0  0  0  0  0  0  0  0  0
   -1.6782    0.4735    1.5307 C   0  0  0  0  0  0  0  0  0  0  0  0
   -5.7264    0.6401   -0.3719 C   0  0  0  0  0  0  0  0  0  0  0  0
   -2.5185   -1.0437   -2.8052 C   0  0  0  0  0  0  0  0  0  0  0  0
   -1.8254    2.7705    0.7036 C   0  0  0  0  0  0  0  0  0  0  0  0
   -1.1968   -1.8466    2.1343 C   0  0  0  0  0  0  0  0  0  0  0  0
   -0.5304    3.0604    0.0902 C   0  0  0  0  0  0  0  0  0  0  0  0
    0.1967   -2.0407    1.7371 C   0  0  0  0  0  0  0  0  0  0  0  0
    1.8291    3.5988   -1.0304 C   0  0  0  0  0  0  0  0  0  0  0  0
    2.7413   -2.3969    1.0223 C   0  0  0  0  0  0  0  0  0  0  0  0
    0.5336    3.3017   -0.4124 C   0  0  0  0  0  0  0  0  0  0  0  0
    1.3420   -2.2027    1.4130 C   0  0  0  0  0  0  0  0  0  0  0  0
    2.9369    3.5176    1.1001 C   0  0  0  0  0  0  0  0  0  0  0  0
    4.2038    3.2499   -0.9238 C   0  0  0  0  0  0  0  0  0  0  0  0
    4.2310   -3.2770   -0.6447 C   0  0  0  0  0  0  0  0  0  0  0  0
    2.2106   -4.4560   -0.0964 C   0  0  0  0  0  0  0  0  0  0  0  0
    4.0683    2.9007    1.9048 C   0  0  0  0  0  0  0  0  0  0  0  0
    4.2307    2.6616   -2.3243 C   0  0  0  0  0  0  0  0  0  0  0  0
    4.8795   -1.9191   -0.8540 C   0  0  0  0  0  0  0  0  0  0  0  0
    2.3002   -5.2391   -1.3951 C   0  0  0  0  0  0  0  0  0  0  0  0
  1 11  2  0
  2 12  2  0
  3 13  2  0
  4 11  1  0
  4 13  1  0
  4 16  1  0
  5 12  1  0
  5 13  1  0
  5 17  1  0
  6 20  1  0
  6 24  1  0
  6 25  1  0
  7 21  1  0
  7 26  1  0
  7 27  1  0
  8  9  1  0
  8 10  1  0
  8 11  1  0
  8 12  1  0
  9 14  1  0
 10 15  1  0
 16 18  1  0
 17 19  1  0
 18 22  3  0
 19 23  3  0
 20 22  1  0
 21 23  1  0
 24 28  1  0
 25 29  1  0
 26 30  1  0
 27 31  1  0
M  END
>  <PUBCHEM_COMPOUND_CID>  (1) 
19806

>  <PUBCHEM_CONFORMER_RMSD>  (1) 
1.2

>  <PUBCHEM_CONFORMER_DIVERSEORDER>  (1) 
1
13
9
28
37
16
3
24
36
18
25
39
35
34
7
14
22
10
33
8
27
11
20
19
12
29
2
32
15
26
38
21
30
17
5
31
23
4
6

>  <PUBCHEM_MMFF94_PARTIAL_CHARGES>  (1) 
23
1 -0.57
11 0.57
12 0.57
13 0.69
16 0.5
17 0.5
18 -0.2
19 -0.2
2 -0.57
20 0.47
21 0.47
22 -0.2
23 -0.2
24 0.27
25 0.27
26 0.27
27 0.27
3 -0.57
4 -0.42
5 -0.42
6 -0.81
7 -0.81
8 0.12

>  <PUBCHEM_EFFECTIVE_ROTOR_COUNT>  (1) 
10.6

>  <PUBCHEM_PHARMACOPHORE_FEATURES>  (1) 
8
1 1 acceptor
1 14 hydrophobe
1 15 hydrophobe
1 2 acceptor
1 3 acceptor
1 6 cation
1 7 cation
6 4 5 8 11 12 13 rings

>  <PUBCHEM_HEAVY_ATOM_COUNT>  (1) 
31

>  <PUBCHEM_ATOM_DEF_STEREO_COUNT>  (1) 
0

>  <PUBCHEM_ATOM_UDEF_STEREO_COUNT>  (1) 
0

>  <PUBCHEM_BOND_DEF_STEREO_COUNT>  (1) 
0

>  <PUBCHEM_BOND_UDEF_STEREO_COUNT>  (1) 
0

>  <PUBCHEM_ISOTOPIC_ATOM_COUNT>  (1) 
0

>  <PUBCHEM_COMPONENT_COUNT>  (1) 
1

>  <PUBCHEM_CACTVS_TAUTO_COUNT>  (1) 
1

>  <PUBCHEM_CONFORMER_ID>  (1) 
00004D5E00000001

>  <PUBCHEM_MMFF94_ENERGY>  (1) 
53.4505

>  <PUBCHEM_FEATURE_SELFOVERLAP>  (1) 
40.596

>  <PUBCHEM_SHAPE_FINGERPRINT>  (1) 
12156800 1 14924813231370582649
14955137 171 17834132848560125409
161222 619 18043546094926224747
20764821 26 18263382398681811180
21344244 181 17475225182043575463
23419403 2 17532399537948927617
23559900 14 18411972546836076930
26353 1 18123447419895313434
3027735 51 18266179615828231377
3298306 158 18190460656511836356
5085150 59 18263917903889566048

>  <PUBCHEM_SHAPE_MULTIPOLES>  (1) 
600.43
9.73
7.07
2.29
0.65
2.6
-0.17
-0.83
-3.64
-11.52
-1.33
0
0.02
0.09

>  <PUBCHEM_SHAPE_SELFOVERLAP>  (1) 
1196.652

>  <PUBCHEM_SHAPE_VOLUME>  (1) 
350.9

>  <PUBCHEM_COORDINATE_TYPE>  (1) 
2
5
10

$$$$
