19812
     RDKit          3D

 14 14  0  0  1  0  0  0  0  0999 V2000
   -4.0003   -1.2866    0.4747 O   0  0  0  0  0  0  0  0  0  0  0  0
    3.3439    0.2892    0.1101 N   0  0  0  0  0  0  0  0  0  0  0  0
   -1.8260   -0.2221    0.2963 C   0  0  0  0  0  0  0  0  0  0  0  0
   -1.5537    1.0991   -0.4255 C   0  0  0  0  0  0  0  0  0  0  0  0
   -2.7423    1.9768   -0.0549 C   0  0  0  0  0  0  0  0  0  0  0  0
   -3.9441    1.0442   -0.1417 C   0  0  0  0  0  0  0  0  0  0  0  0
   -3.3388   -0.2831    0.2404 C   0  0  0  0  0  0  0  0  0  0  0  0
   -1.1602   -1.4089   -0.3704 C   0  0  0  0  0  0  0  0  0  0  0  0
    2.9568   -1.1008   -0.2362 C   0  0  0  0  0  0  0  0  0  0  0  0
    2.7770    0.6882    1.4796 C   0  0  0  0  0  0  0  0  0  0  0  0
    4.8713    0.4317    0.1664 C   0  0  0  0  0  0  0  0  0  0  0  0
    2.8106    1.2802   -0.9338 C   0  0  0  0  0  0  0  0  0  0  0  0
    0.3044   -1.2995   -0.3221 C   0  0  0  0  0  0  0  0  0  0  0  0
    1.5013   -1.2085   -0.2828 C   0  0  0  0  0  0  0  0  0  0  0  0
  1  7  2  0
  2  9  1  0
  2 10  1  0
  2 11  1  0
  2 12  1  0
  3  4  1  0
  3  7  1  0
  3  8  1  0
  4  5  1  0
  5  6  1  0
  6  7  1  0
  8 13  1  0
  9 14  1  0
 13 14  3  0
M  CHG  1   2   1
M  END
>  <PUBCHEM_COMPOUND_CID>  (1) 
19812

>  <PUBCHEM_CONFORMER_RMSD>  (1) 
0.6

>  <PUBCHEM_CONFORMER_DIVERSEORDER>  (1) 
5
6
1
3
8
12
11
2
4
7
10
9

>  <PUBCHEM_MMFF94_PARTIAL_CHARGES>  (1) 
12
1 -0.57
10 0.5
11 0.5
12 0.5
13 -0.2
14 -0.2
2 -1.01
3 0.06
6 0.06
7 0.45
8 0.2
9 0.7

>  <PUBCHEM_EFFECTIVE_ROTOR_COUNT>  (1) 
2.8

>  <PUBCHEM_PHARMACOPHORE_FEATURES>  (1) 
3
1 1 acceptor
1 2 cation
5 3 4 5 6 7 rings

>  <PUBCHEM_HEAVY_ATOM_COUNT>  (1) 
14

>  <PUBCHEM_ATOM_DEF_STEREO_COUNT>  (1) 
0

>  <PUBCHEM_ATOM_UDEF_STEREO_COUNT>  (1) 
1

>  <PUBCHEM_BOND_DEF_STEREO_COUNT>  (1) 
0

>  <PUBCHEM_BOND_UDEF_STEREO_COUNT>  (1) 
0

>  <PUBCHEM_ISOTOPIC_ATOM_COUNT>  (1) 
0

>  <PUBCHEM_COMPONENT_COUNT>  (1) 
1

>  <PUBCHEM_CACTVS_TAUTO_COUNT>  (1) 
3

>  <PUBCHEM_CONFORMER_ID>  (1) 
00004D6400000005

>  <PUBCHEM_MMFF94_ENERGY>  (1) 
27.6552

>  <PUBCHEM_FEATURE_SELFOVERLAP>  (1) 
15.223

>  <PUBCHEM_SHAPE_FINGERPRINT>  (1) 
10498660 4 18409730629705599532
10608611 8 18340205172438952815
11132069 177 18334579014584591821
11615756 256 18339932523441167984
11615757 297 17418375787721687739
11715629 250 18201995547241744422
12162725 195 18187087264701236388
12251169 10 18113899381563763422
13081056 2 18272090513192747770
13214271 11 18410572890515176095
13897977 13 18409736157729065749
14252887 29 12612752394012956194
14289901 80 18260833704405025827
15196674 1 18410575059178222276
15775835 57 18273494580914579422
17802600 8 18412822508089868272
18186145 218 18130238046658150374
20233049 118 18272084994481818496
20645477 56 17988360472662319982
20645477 70 16773530897408512462
21119208 17 13614525164435710976
21249577 43 18342736312488463721
21524375 3 18343584053313021062
21652331 79 18411418427272014805
23048698 100 16805323327195400166
23402539 116 18335132133315960455
23402655 69 17775002354020463036
23557571 272 18201726188410142911
23559900 14 18264206919984673446
351380 180 18261109673117273914
3524813 1 18273205404898457776
449060 62 18341615871616669599
5104073 3 18410294666296063090
548570 60 18411978035751689181
6333272 397 18259990404587474578
7364860 26 18125721188646579022
9882013 296 18113619001444880647

>  <PUBCHEM_SHAPE_MULTIPOLES>  (1) 
277.26
8.89
1.81
0.9
2.32
0.12
0.16
2.06
0.87
-0.75
-0.2
0.54
0.17
0.36

>  <PUBCHEM_SHAPE_SELFOVERLAP>  (1) 
542.231

>  <PUBCHEM_SHAPE_VOLUME>  (1) 
170.1

>  <PUBCHEM_COORDINATE_TYPE>  (1) 
2
5
10

$$$$
