19810
     RDKit          3D

 18 20  0  0  0  0  0  0  0  0999 V2000
    0.1255    2.0905    0.2007 S   0  0  0  0  0  0  0  0  0  0  0  0
    1.5632   -0.1933   -0.1320 O   0  0  0  0  0  0  0  0  0  0  0  0
   -3.4904    0.3079   -0.3077 N   0  0  0  0  0  0  0  0  0  0  0  0
    2.7841    1.6742    0.2659 N   0  0  0  0  0  0  0  0  0  0  0  0
   -3.4106   -0.7147    0.7448 C   0  0  0  0  0  0  0  0  0  0  0  0
   -4.8446    0.8714   -0.3994 C   0  0  0  0  0  0  0  0  0  0  0  0
   -4.3953   -1.8549    0.4820 C   0  0  0  0  0  0  0  0  0  0  0  0
   -5.8762   -0.2171   -0.6998 C   0  0  0  0  0  0  0  0  0  0  0  0
   -5.8207   -1.3344    0.3358 C   0  0  0  0  0  0  0  0  0  0  0  0
   -2.5106    1.3670   -0.0673 C   0  0  0  0  0  0  0  0  0  0  0  0
   -1.1026    0.7858   -0.0973 C   0  0  0  0  0  0  0  0  0  0  0  0
    1.6083    1.1354    0.1076 C   0  0  0  0  0  0  0  0  0  0  0  0
    2.8823   -0.5465   -0.1246 C   0  0  0  0  0  0  0  0  0  0  0  0
    3.6261    0.5986    0.1190 C   0  0  0  0  0  0  0  0  0  0  0  0
    3.4195   -1.8125   -0.3217 C   0  0  0  0  0  0  0  0  0  0  0  0
    5.0238    0.4996    0.1753 C   0  0  0  0  0  0  0  0  0  0  0  0
    4.8149   -1.8942   -0.2623 C   0  0  0  0  0  0  0  0  0  0  0  0
    5.6032   -0.7626   -0.0189 C   0  0  0  0  0  0  0  0  0  0  0  0
  1 11  1  0
  1 12  1  0
  2 12  1  0
  2 13  1  0
  3  5  1  0
  3  6  1  0
  3 10  1  0
  4 12  2  0
  4 14  1  0
  5  7  1  0
  6  8  1  0
  7  9  1  0
  8  9  1  0
 10 11  1  0
 13 14  2  0
 13 15  1  0
 14 16  1  0
 15 17  2  0
 16 18  2  0
 17 18  1  0
M  END
>  <PUBCHEM_COMPOUND_CID>  (1) 
19810

>  <PUBCHEM_CONFORMER_RMSD>  (1) 
0.8

>  <PUBCHEM_CONFORMER_DIVERSEORDER>  (1) 
1
44
16
25
47
46
50
48
22
42
51
49
54
37
53
45
13
5
2
31
15
9
43
7
20
38
52
39
36
21
24
19
3
11
27
32
35
18
29
28
12
10
17
30
8
33
23
14
40
6
26
41
34
4

>  <PUBCHEM_MMFF94_PARTIAL_CHARGES>  (1) 
19
1 -0.29
10 0.27
11 0.23
12 0.53
13 0.14
14 0.23
15 -0.15
16 -0.15
17 -0.15
18 -0.15
2 -0.28
3 -0.81
33 0.15
34 0.15
35 0.15
36 0.15
4 -0.57
5 0.27
6 0.27

>  <PUBCHEM_EFFECTIVE_ROTOR_COUNT>  (1) 
5.2

>  <PUBCHEM_PHARMACOPHORE_FEATURES>  (1) 
4
1 3 cation
5 2 4 12 13 14 rings
6 13 14 15 16 17 18 rings
6 3 5 6 7 8 9 rings

>  <PUBCHEM_HEAVY_ATOM_COUNT>  (1) 
18

>  <PUBCHEM_ATOM_DEF_STEREO_COUNT>  (1) 
0

>  <PUBCHEM_ATOM_UDEF_STEREO_COUNT>  (1) 
0

>  <PUBCHEM_BOND_DEF_STEREO_COUNT>  (1) 
0

>  <PUBCHEM_BOND_UDEF_STEREO_COUNT>  (1) 
0

>  <PUBCHEM_ISOTOPIC_ATOM_COUNT>  (1) 
0

>  <PUBCHEM_COMPONENT_COUNT>  (1) 
1

>  <PUBCHEM_CACTVS_TAUTO_COUNT>  (1) 
1

>  <PUBCHEM_CONFORMER_ID>  (1) 
00004D6200000001

>  <PUBCHEM_MMFF94_ENERGY>  (1) 
20.1091

>  <PUBCHEM_FEATURE_SELFOVERLAP>  (1) 
20.418

>  <PUBCHEM_SHAPE_FINGERPRINT>  (1) 
10447042 23 18411976953836493302
10835480 77 18410565202244959717
11796584 16 18259698982614030803
12516196 113 18273212001862540801
12555020 224 18409157836668148887
12596602 18 16056592192389970699
12633257 1 15625937668540117593
13167823 11 18411417310833751431
13402501 40 18408887338868444595
13533116 47 18201156663178315601
13685833 64 18409171026148484019
13955234 65 18057037119758221840
14123256 34 18342466923602562526
1420 363 18413110562819222495
14251764 18 18130793356866987633
14252887 29 17418098681169848340
14341114 176 18412830191659610975
14386348 63 18408323293660887377
14848160 23 18409727365751584727
15183329 4 18187356594201549913
15196674 1 18410575084853009003
15352361 1 18410576184391101489
15537594 2 18059856203051546382
17844677 252 18411425007347204181
17857418 61 18412825785197394371
17870717 6 17821446864066741203
193927 3 18200886096869637596
200 152 18202844344617466809
20028762 73 18202279182777754030
20261772 1 17917988386757383638
20281389 69 10375871870262818919
20374829 77 18259982665304171169
20403669 9 18412832369456268335
20621476 21 17822867493251454523
20645477 70 18408884044585908272
21267235 1 18272655606931033430
21623969 137 18202847647247020070
221490 88 18336551606964014016
2215653 11 18409157814987272277
23402539 116 16008746896493709901
23424784 1240 18340783575622362975
23557571 272 17749382655009616461
23559900 14 18336258033539417993
239999 70 18407759248944486346
26918003 58 18341892983001793457
2871803 45 18259701181484201488
3004659 81 18186238429040216400
314194 84 18131063848667869013
3421961 26 18342173414180560872
351380 3 18202842153962463495
4073 2 18259989296543610091
4214541 1 18410011005703445181
4325135 7 18187368757496237052
465052 167 18202285792836969102
5104073 3 18201716190011056560
542803 24 13262395553386562989
559249 180 18411980222776162181
5718773 13 18192146006828855338
59682541 35 18201144521890936442
9709674 26 18116718602555271131

>  <PUBCHEM_SHAPE_MULTIPOLES>  (1) 
358.45
15.69
2.1
0.72
7.25
0.13
0.01
7.15
-0.75
-0.38
0.11
0.37
0.05
0.92

>  <PUBCHEM_SHAPE_SELFOVERLAP>  (1) 
744.88

>  <PUBCHEM_SHAPE_VOLUME>  (1) 
206.6

>  <PUBCHEM_COORDINATE_TYPE>  (1) 
2
5
10

$$$$
