19829
     RDKit          3D

 13 13  0  0  0  0  0  0  0  0999 V2000
    1.9623   -1.7489   -0.4113 O   0  0  0  0  0  0  0  0  0  0  0  0
    2.8357    0.8683   -0.1712 O   0  0  0  0  0  0  0  0  0  0  0  0
    0.9898    2.9045    0.1662 O   0  0  0  0  0  0  0  0  0  0  0  0
   -2.8982   -1.6325   -0.1085 O   0  0  0  0  0  0  0  0  0  0  0  0
   -3.5491    0.5272    0.1717 O   0  0  0  0  0  0  0  0  0  0  0  0
    1.0670   -0.7360   -0.2433 C   0  0  0  0  0  0  0  0  0  0  0  0
   -1.2234    0.0015   -0.0247 C   0  0  0  0  0  0  0  0  0  0  0  0
    1.5033    0.5835   -0.1225 C   0  0  0  0  0  0  0  0  0  0  0  0
   -0.2964   -1.0269   -0.1945 C   0  0  0  0  0  0  0  0  0  0  0  0
    0.5761    1.6118    0.0472 C   0  0  0  0  0  0  0  0  0  0  0  0
   -0.7872    1.3209    0.0961 C   0  0  0  0  0  0  0  0  0  0  0  0
   -2.6451   -0.3018    0.0259 C   0  0  0  0  0  0  0  0  0  0  0  0
    2.4652   -2.3717    0.7690 C   0  0  0  0  0  0  0  0  0  0  0  0
  1  6  1  0
  1 13  1  0
  2  8  1  0
  3 10  1  0
  4 12  1  0
  5 12  2  0
  6  8  2  0
  6  9  1  0
  7  9  2  0
  7 11  1  0
  7 12  1  0
  8 10  1  0
 10 11  2  0
M  END
>  <PUBCHEM_COMPOUND_CID>  (1) 
19829

>  <PUBCHEM_CONFORMER_RMSD>  (1) 
0.6

>  <PUBCHEM_CONFORMER_DIVERSEORDER>  (1) 
1
3
2

>  <PUBCHEM_MMFF94_PARTIAL_CHARGES>  (1) 
18
1 -0.36
10 0.08
11 -0.15
12 0.63
13 0.28
14 0.15
15 0.15
19 0.45
2 -0.53
20 0.45
21 0.5
3 -0.53
4 -0.65
5 -0.57
6 0.08
7 0.09
8 0.08
9 -0.15

>  <PUBCHEM_EFFECTIVE_ROTOR_COUNT>  (1) 
2

>  <PUBCHEM_PHARMACOPHORE_FEATURES>  (1) 
7
1 1 acceptor
1 2 donor
1 3 donor
1 4 acceptor
1 5 acceptor
3 4 5 12 anion
6 6 7 8 9 10 11 rings

>  <PUBCHEM_HEAVY_ATOM_COUNT>  (1) 
13

>  <PUBCHEM_ATOM_DEF_STEREO_COUNT>  (1) 
0

>  <PUBCHEM_ATOM_UDEF_STEREO_COUNT>  (1) 
0

>  <PUBCHEM_BOND_DEF_STEREO_COUNT>  (1) 
0

>  <PUBCHEM_BOND_UDEF_STEREO_COUNT>  (1) 
0

>  <PUBCHEM_ISOTOPIC_ATOM_COUNT>  (1) 
0

>  <PUBCHEM_COMPONENT_COUNT>  (1) 
1

>  <PUBCHEM_CACTVS_TAUTO_COUNT>  (1) 
12

>  <PUBCHEM_CONFORMER_ID>  (1) 
00004D7500000001

>  <PUBCHEM_MMFF94_ENERGY>  (1) 
45.1536

>  <PUBCHEM_FEATURE_SELFOVERLAP>  (1) 
35.583

>  <PUBCHEM_SHAPE_FINGERPRINT>  (1) 
1 1 18194400219543099188
10130415 120 18264489490473054043
13380535 76 17549822630566676116
15442244 35 18340771421275605505
16945 1 18338514252320199037
17990270 104 18411138064903070787
19021347 11 18337953518627937726
193761 8 18122908629497052316
20201158 50 18336264634508123211
20645476 183 17536608657148581404
20645477 70 18411415116601881335
20711985 365 18120653526594878229
20871998 184 17767955442375233774
20871998 22 18126853694265597590
21040471 1 17619349152873922660
21501502 16 18339082571051468005
21650355 55 17469864607686670746
2334 1 18339362963553858868
23402655 69 18342728603982289581
23463225 33 18338516339700620142
23552423 10 18338519767316514101
241688 4 18194686960249941656
2748010 2 18267862787630635436
53812653 166 18343018938632480264
63268167 104 18411143528196306561
7364860 26 18342458183359588424
81228 2 17764033467002445880

>  <PUBCHEM_SHAPE_MULTIPOLES>  (1) 
238.19
4.32
2.55
0.66
2.25
0.67
-0.03
-1.83
-0.29
-1.47
-0.29
-0.15
-0.12
-0.31

>  <PUBCHEM_SHAPE_SELFOVERLAP>  (1) 
503.497

>  <PUBCHEM_SHAPE_VOLUME>  (1) 
134.1

>  <PUBCHEM_COORDINATE_TYPE>  (1) 
2
5
10

$$$$
