19828
     RDKit          3D

 22 24  0  0  0  0  0  0  0  0999 V2000
    1.4334    4.3759   -0.0805 Cl  0  0  0  0  0  0  0  0  0  0  0  0
    2.8329   -1.7580    0.1877 S   0  0  0  0  0  0  0  0  0  0  0  0
    4.1396    3.1182   -0.4212 O   0  0  0  0  0  0  0  0  0  0  0  0
   -0.0062   -0.5456    0.5535 N   0  0  0  0  0  0  0  0  0  0  0  0
   -4.5207    1.2975   -0.4055 N   0  0  0  0  0  0  0  0  0  0  0  0
   -1.2516   -0.0351    1.1412 C   0  0  0  0  0  0  0  0  0  0  0  0
   -2.2630    0.4008    0.0828 C   0  0  0  0  0  0  0  0  0  0  0  0
    1.0351    0.3874    0.3182 C   0  0  0  0  0  0  0  0  0  0  0  0
    0.0356   -1.9190    0.2040 C   0  0  0  0  0  0  0  0  0  0  0  0
   -3.5921    0.9088    0.6491 C   0  0  0  0  0  0  0  0  0  0  0  0
    2.3615   -0.0414    0.1136 C   0  0  0  0  0  0  0  0  0  0  0  0
    1.2630   -2.5764   -0.0120 C   0  0  0  0  0  0  0  0  0  0  0  0
    0.7917    1.7763    0.2420 C   0  0  0  0  0  0  0  0  0  0  0  0
   -1.1398   -2.6802    0.0210 C   0  0  0  0  0  0  0  0  0  0  0  0
    3.3893    0.8878   -0.1268 C   0  0  0  0  0  0  0  0  0  0  0  0
    1.2984   -3.9369   -0.3662 C   0  0  0  0  0  0  0  0  0  0  0  0
    1.8161    2.6951   -0.0020 C   0  0  0  0  0  0  0  0  0  0  0  0
   -3.9569    2.3782   -1.2165 C   0  0  0  0  0  0  0  0  0  0  0  0
   -5.8056    1.7075    0.1639 C   0  0  0  0  0  0  0  0  0  0  0  0
    3.1169    2.2505   -0.1833 C   0  0  0  0  0  0  0  0  0  0  0  0
   -1.0990   -4.0308   -0.3362 C   0  0  0  0  0  0  0  0  0  0  0  0
    0.1215   -4.6605   -0.5268 C   0  0  0  0  0  0  0  0  0  0  0  0
  1 17  1  0
  2 11  1  0
  2 12  1  0
  3 20  1  0
  4  6  1  0
  4  8  1  0
  4  9  1  0
  5 10  1  0
  5 18  1  0
  5 19  1  0
  6  7  1  0
  7 10  1  0
  8 11  2  0
  8 13  1  0
  9 12  2  0
  9 14  1  0
 11 15  1  0
 12 16  1  0
 13 17  2  0
 14 21  2  0
 15 20  2  0
 16 22  2  0
 17 20  1  0
 21 22  1  0
M  END
>  <PUBCHEM_COMPOUND_CID>  (1) 
19828

>  <PUBCHEM_CONFORMER_RMSD>  (1) 
0.8

>  <PUBCHEM_CONFORMER_DIVERSEORDER>  (1) 
1
8
9
5
12
13
3
11
14
10
2
7
6
4

>  <PUBCHEM_MMFF94_PARTIAL_CHARGES>  (1) 
28
1 -0.18
10 0.27
11 0.1
12 0.1
13 -0.15
14 -0.15
15 -0.15
16 -0.15
17 0.18
18 0.27
19 0.27
2 -0.2
20 0.08
21 -0.15
22 -0.15
29 0.15
3 -0.53
30 0.15
31 0.15
32 0.15
39 0.15
4 -0.57
40 0.15
41 0.45
5 -0.81
6 0.37
8 0.1
9 0.1

>  <PUBCHEM_EFFECTIVE_ROTOR_COUNT>  (1) 
4.4

>  <PUBCHEM_PHARMACOPHORE_FEATURES>  (1) 
6
1 3 donor
1 4 cation
1 5 cation
6 2 4 8 9 11 12 rings
6 8 11 13 15 17 20 rings
6 9 12 14 16 21 22 rings

>  <PUBCHEM_HEAVY_ATOM_COUNT>  (1) 
22

>  <PUBCHEM_ATOM_DEF_STEREO_COUNT>  (1) 
0

>  <PUBCHEM_ATOM_UDEF_STEREO_COUNT>  (1) 
0

>  <PUBCHEM_BOND_DEF_STEREO_COUNT>  (1) 
0

>  <PUBCHEM_BOND_UDEF_STEREO_COUNT>  (1) 
0

>  <PUBCHEM_ISOTOPIC_ATOM_COUNT>  (1) 
0

>  <PUBCHEM_COMPONENT_COUNT>  (1) 
1

>  <PUBCHEM_CACTVS_TAUTO_COUNT>  (1) 
3

>  <PUBCHEM_CONFORMER_ID>  (1) 
00004D7400000001

>  <PUBCHEM_MMFF94_ENERGY>  (1) 
74.4239

>  <PUBCHEM_FEATURE_SELFOVERLAP>  (1) 
30.477

>  <PUBCHEM_SHAPE_FINGERPRINT>  (1) 
10411042 1 17618225001235482603
10693767 8 17843403985928892118
10871710 139 17181108037415855933
10967382 1 18267308625449521914
1100329 8 18411135836311046386
116883 192 17186153168099672139
11833330 49 17257362475847317961
12173636 292 18051127287538948813
12553582 1 17547307605060796051
12730499 353 18337119994957864473
12788726 201 17543339918398329152
13009979 54 17198263266788723363
13140716 1 18409442584009311426
138480 1 17978511931915559069
14114211 80 18193865784179061517
14178342 30 17907278199005893616
14790565 3 18052551155767098139
15081414 286 17979358555995599179
15420108 30 18265317568984842352
16087824 20 16465305583962045249
16728300 4 17173746378246542970
17134986 127 18410298012244371366
18785283 64 18336551499990556835
19591789 44 18339930440777538595
19930381 70 18337952264898563373
20642791 105 18197202866377358514
20645477 70 18192149300783090203
21197605 99 18336275639000891307
21307412 95 17985861227409228548
2255824 54 18269274556545424139
23558518 356 17901944472072421544
23559900 14 18193834835044659171
23929065 36 17551494970789062648
2748010 2 18339942475397435634
3060560 45 18339922602124502775
3380486 145 17114965296534061568
350125 39 18122634017571840049
3886686 26 17910079694646512656
46194498 28 18118396255815869029
59025328 239 17118270510212659597
6025842 7 18339921503345805719
6443956 14 17977104552705390213
7164475 11 17474108078113710292
81228 2 17257375669902449058
8272917 22 18268995280855505213
9777508 108 17980754166690149889

>  <PUBCHEM_SHAPE_MULTIPOLES>  (1) 
442.64
7.42
6.63
0.82
13.94
2.22
-0.01
-5.59
-0.86
-5.44
-1.45
0.41
-0.04
0.24

>  <PUBCHEM_SHAPE_SELFOVERLAP>  (1) 
921.067

>  <PUBCHEM_SHAPE_VOLUME>  (1) 
254.2

>  <PUBCHEM_COORDINATE_TYPE>  (1) 
2
5
10

$$$$
