19826
     RDKit          3D

 10 10  0  0  1  0  0  0  0  0999 V2000
    1.9578    0.3455    0.5252 O   0  0  0  0  0  0  0  0  0  0  0  0
    0.9597    2.3156   -0.0873 O   0  0  0  0  0  0  0  0  0  0  0  0
   -0.1943    0.1963   -0.4148 C   0  0  0  0  0  0  0  0  0  0  0  0
    0.1160   -1.0739    0.3544 C   0  0  0  0  0  0  0  0  0  0  0  0
    1.6266   -1.0501    0.4595 C   0  0  0  0  0  0  0  0  0  0  0  0
   -1.5614    0.7643   -0.0831 C   0  0  0  0  0  0  0  0  0  0  0  0
    0.9329    1.0992    0.0174 C   0  0  0  0  0  0  0  0  0  0  0  0
    2.3341   -1.6799   -0.7318 C   0  0  0  0  0  0  0  0  0  0  0  0
   -2.6596   -0.1869   -0.4580 C   0  0  0  0  0  0  0  0  0  0  0  0
   -3.5118   -0.7301    0.4184 C   0  0  0  0  0  0  0  0  0  0  0  0
  1  5  1  0
  1  7  1  0
  2  7  2  0
  3  4  1  0
  3  6  1  0
  3  7  1  0
  4  5  1  0
  5  8  1  0
  6  9  1  0
  9 10  2  0
M  END
>  <PUBCHEM_COMPOUND_CID>  (1) 
19826

>  <PUBCHEM_CONFORMER_RMSD>  (1) 
0.6

>  <PUBCHEM_CONFORMER_DIVERSEORDER>  (1) 
1
3
15
16
11
10
5
14
4
9
6
2
12
8
13
7

>  <PUBCHEM_MMFF94_PARTIAL_CHARGES>  (1) 
11
1 -0.43
10 -0.3
2 -0.57
20 0.15
21 0.15
22 0.15
3 0.06
5 0.28
6 0.14
7 0.66
9 -0.29

>  <PUBCHEM_EFFECTIVE_ROTOR_COUNT>  (1) 
2.8

>  <PUBCHEM_PHARMACOPHORE_FEATURES>  (1) 
3
1 10 hydrophobe
1 2 acceptor
5 1 3 4 5 7 rings

>  <PUBCHEM_HEAVY_ATOM_COUNT>  (1) 
10

>  <PUBCHEM_ATOM_DEF_STEREO_COUNT>  (1) 
0

>  <PUBCHEM_ATOM_UDEF_STEREO_COUNT>  (1) 
2

>  <PUBCHEM_BOND_DEF_STEREO_COUNT>  (1) 
0

>  <PUBCHEM_BOND_UDEF_STEREO_COUNT>  (1) 
0

>  <PUBCHEM_ISOTOPIC_ATOM_COUNT>  (1) 
0

>  <PUBCHEM_COMPONENT_COUNT>  (1) 
1

>  <PUBCHEM_CACTVS_TAUTO_COUNT>  (1) 
2

>  <PUBCHEM_CONFORMER_ID>  (1) 
00004D7200000001

>  <PUBCHEM_MMFF94_ENERGY>  (1) 
9.8931

>  <PUBCHEM_FEATURE_SELFOVERLAP>  (1) 
15.223

>  <PUBCHEM_SHAPE_FINGERPRINT>  (1) 
12032990 46 18338800013901390722
12932764 1 17346593101818939953
13380535 76 18119806069528358296
14128692 85 18337962185745236726
161256 15 18408882927720429164
16945 1 18340761645412899677
17990270 104 18410008840744197603
19973954 147 18409164407440616749
20201158 50 18261386763291357435
20645477 70 18337945797010372087
20653091 64 18410014325174828761
20711978 78 18341320180298332989
20711985 344 17763739893097626492
20871998 22 18270401560100671278
21040471 1 17832420178383936784
23552423 10 18261114010970913367
241688 4 18194965136702292504
2748010 2 18267007376174134276
29004967 10 18338789031363637618
5084963 1 18272931613717979003
7364860 26 18271809076586127028

>  <PUBCHEM_SHAPE_MULTIPOLES>  (1) 
194.06
4.23
1.8
0.77
3.4
0.68
0.03
-1.78
-0.01
-1.03
0.09
-0.08
-0.14
0.32

>  <PUBCHEM_SHAPE_SELFOVERLAP>  (1) 
385.196

>  <PUBCHEM_SHAPE_VOLUME>  (1) 
117.3

>  <PUBCHEM_COORDINATE_TYPE>  (1) 
2
5
10

$$$$
