19827
     RDKit          3D

 12 12  0  0  0  0  0  0  0  0999 V2000
   -2.1697    1.7779    0.1289 O   0  0  0  0  0  0  0  0  0  0  0  0
    0.5623    2.0961    0.1284 O   0  0  0  0  0  0  0  0  0  0  0  0
    2.9348   -1.2020    0.5149 O   0  0  0  0  0  0  0  0  0  0  0  0
    2.9278    0.8412   -0.4813 O   0  0  0  0  0  0  0  0  0  0  0  0
   -1.9135   -0.5935   -0.0358 C   0  0  0  0  0  0  0  0  0  0  0  0
   -1.3594    0.6838    0.0473 C   0  0  0  0  0  0  0  0  0  0  0  0
    0.8576   -0.2726   -0.0361 C   0  0  0  0  0  0  0  0  0  0  0  0
    0.0262    0.8443    0.0471 C   0  0  0  0  0  0  0  0  0  0  0  0
   -1.0822   -1.7105   -0.1189 C   0  0  0  0  0  0  0  0  0  0  0  0
    0.3034   -1.5500   -0.1192 C   0  0  0  0  0  0  0  0  0  0  0  0
   -3.3943   -0.7856   -0.0371 C   0  0  0  0  0  0  0  0  0  0  0  0
    2.3070   -0.1291   -0.0381 C   0  0  0  0  0  0  0  0  0  0  0  0
  1  6  1  0
  2  8  1  0
  3 12  1  0
  4 12  2  0
  5  6  2  0
  5  9  1  0
  5 11  1  0
  6  8  1  0
  7  8  2  0
  7 10  1  0
  7 12  1  0
  9 10  2  0
M  END
>  <PUBCHEM_COMPOUND_CID>  (1) 
19827

>  <PUBCHEM_CONFORMER_RMSD>  (1) 
0.4

>  <PUBCHEM_CONFORMER_DIVERSEORDER>  (1) 
1
3
2

>  <PUBCHEM_MMFF94_PARTIAL_CHARGES>  (1) 
17
1 -0.53
10 -0.15
11 0.14
12 0.63
13 0.15
14 0.15
18 0.45
19 0.45
2 -0.53
20 0.5
3 -0.65
4 -0.57
5 -0.14
6 0.08
7 0.09
8 0.08
9 -0.15

>  <PUBCHEM_EFFECTIVE_ROTOR_COUNT>  (1) 
1

>  <PUBCHEM_PHARMACOPHORE_FEATURES>  (1) 
6
1 1 donor
1 2 donor
1 3 acceptor
1 4 acceptor
3 3 4 12 anion
6 5 6 7 8 9 10 rings

>  <PUBCHEM_HEAVY_ATOM_COUNT>  (1) 
12

>  <PUBCHEM_ATOM_DEF_STEREO_COUNT>  (1) 
0

>  <PUBCHEM_ATOM_UDEF_STEREO_COUNT>  (1) 
0

>  <PUBCHEM_BOND_DEF_STEREO_COUNT>  (1) 
0

>  <PUBCHEM_BOND_UDEF_STEREO_COUNT>  (1) 
0

>  <PUBCHEM_ISOTOPIC_ATOM_COUNT>  (1) 
0

>  <PUBCHEM_COMPONENT_COUNT>  (1) 
1

>  <PUBCHEM_CACTVS_TAUTO_COUNT>  (1) 
26

>  <PUBCHEM_CONFORMER_ID>  (1) 
00004D7300000001

>  <PUBCHEM_MMFF94_ENERGY>  (1) 
34.5509

>  <PUBCHEM_FEATURE_SELFOVERLAP>  (1) 
30.509

>  <PUBCHEM_SHAPE_FINGERPRINT>  (1) 
11206711 2 18410571790829494685
12032990 46 18411707564476150015
12423570 1 12434816872311553045
13380535 76 18195241114479417207
14325111 11 18410293583942964252
14993402 34 18341051907977276063
16945 1 18339640156485072659
20871998 184 18201434753209022559
21040471 1 18340487742468800038
2334 1 18339925905102072335
23402539 116 18271793623351890143
23402655 69 18268975507338050861
23463225 33 18336544911120548946
23552423 10 17975131264193262253
23559900 14 18200879462326963254
2748010 2 18196939868291880647
369184 2 18407758131657046202
5084963 1 18059575823302116699
528886 8 18340203110817954851
53812654 25 18271794761534021494

>  <PUBCHEM_SHAPE_MULTIPOLES>  (1) 
223.48
4.28
1.91
0.62
0.32
0.42
0
-0.51
0
-0.23
0.06
0.06
-0.04
-0.24

>  <PUBCHEM_SHAPE_SELFOVERLAP>  (1) 
475.362

>  <PUBCHEM_SHAPE_VOLUME>  (1) 
125.2

>  <PUBCHEM_COORDINATE_TYPE>  (1) 
2
5
10

$$$$
