19834
     RDKit          3D

 26 27  0  0  0  0  0  0  0  0999 V2000
   -3.6243   -0.6165   -0.8981 O   0  0  0  0  0  0  0  0  0  0  0  0
    2.6991    0.5434   -0.3151 N   0  0  0  0  0  0  0  0  0  0  0  0
    2.5479   -1.0756   -2.0758 N   0  0  0  0  0  0  0  0  0  0  0  0
    4.1386    0.7474   -0.4535 C   0  0  0  0  0  0  0  0  0  0  0  0
    2.0521    1.3598    0.7089 C   0  0  0  0  0  0  0  0  0  0  0  0
    4.9104   -0.2099    0.4507 C   0  0  0  0  0  0  0  0  0  0  0  0
    1.6999    2.7392    0.1589 C   0  0  0  0  0  0  0  0  0  0  0  0
    1.9740   -0.3301   -1.1578 C   0  0  0  0  0  0  0  0  0  0  0  0
    0.5241   -0.4587   -1.0423 C   0  0  0  0  0  0  0  0  0  0  0  0
    6.4250   -0.0014    0.3746 C   0  0  0  0  0  0  0  0  0  0  0  0
    1.0605    3.6485    1.2113 C   0  0  0  0  0  0  0  0  0  0  0  0
   -0.0835   -1.3934   -0.1882 C   0  0  0  0  0  0  0  0  0  0  0  0
   -1.4959   -1.4597   -0.1276 C   0  0  0  0  0  0  0  0  0  0  0  0
   -0.2496    0.3982   -1.8254 C   0  0  0  0  0  0  0  0  0  0  0  0
   -2.2590   -0.5895   -0.9230 C   0  0  0  0  0  0  0  0  0  0  0  0
   -1.6386    0.3330   -1.7659 C   0  0  0  0  0  0  0  0  0  0  0  0
    7.1612   -0.9236    1.3340 C   0  0  0  0  0  0  0  0  0  0  0  0
    0.7819    5.0350    0.6516 C   0  0  0  0  0  0  0  0  0  0  0  0
    0.6796   -2.2637    0.6072 C   0  0  0  0  0  0  0  0  0  0  0  0
   -2.1036   -2.3944    0.7265 C   0  0  0  0  0  0  0  0  0  0  0  0
   -4.2858    0.5817   -0.5025 C   0  0  0  0  0  0  0  0  0  0  0  0
   -5.5921    0.2172    0.1883 C   0  0  0  0  0  0  0  0  0  0  0  0
    0.0591   -3.1860    1.4502 C   0  0  0  0  0  0  0  0  0  0  0  0
   -1.3298   -3.2513    1.5097 C   0  0  0  0  0  0  0  0  0  0  0  0
   -6.3635    1.4588    0.6263 C   0  0  0  0  0  0  0  0  0  0  0  0
   -7.6875    1.0915    1.2771 C   0  0  0  0  0  0  0  0  0  0  0  0
  1 15  1  0
  1 21  1  0
  2  4  1  0
  2  5  1  0
  2  8  1  0
  3  8  2  0
  4  6  1  0
  5  7  1  0
  6 10  1  0
  7 11  1  0
  8  9  1  0
  9 12  2  0
  9 14  1  0
 10 17  1  0
 11 18  1  0
 12 13  1  0
 12 19  1  0
 13 15  2  0
 13 20  1  0
 14 16  2  0
 15 16  1  0
 19 23  2  0
 20 24  2  0
 21 22  1  0
 22 25  1  0
 23 24  1  0
 25 26  1  0
M  END
>  <PUBCHEM_COMPOUND_CID>  (1) 
19834

>  <PUBCHEM_CONFORMER_RMSD>  (1) 
1

>  <PUBCHEM_CONFORMER_DIVERSEORDER>  (1) 
1
60
21
46
74
17
11
53
84
10
31
80
37
16
59
41
12
24
61
56
77
35
50
19
69
40
13
30
55
48
66
64
4
82
25
71
63
57
58
27
83
23
38
54
39
22
7
45
5
72
76
73
47
15
18
9
79
78
26
34
70
3
49
44
20
81
65
43
32
75
42
52
8
62
29
36
67
28
6
85
33
2
14
68
51

>  <PUBCHEM_MMFF94_PARTIAL_CHARGES>  (1) 
22
1 -0.36
14 -0.15
15 0.08
16 -0.15
19 -0.15
2 -0.79
20 -0.15
21 0.28
23 -0.15
24 -0.15
3 -0.85
39 0.15
4 0.37
40 0.15
47 0.15
48 0.15
5 0.37
51 0.4
54 0.15
55 0.15
8 0.41
9 0.09

>  <PUBCHEM_EFFECTIVE_ROTOR_COUNT>  (1) 
12

>  <PUBCHEM_PHARMACOPHORE_FEATURES>  (1) 
8
1 1 acceptor
1 17 hydrophobe
1 18 hydrophobe
1 26 hydrophobe
1 3 donor
3 2 3 8 cation
6 12 13 19 20 23 24 rings
6 9 12 13 14 15 16 rings

>  <PUBCHEM_HEAVY_ATOM_COUNT>  (1) 
26

>  <PUBCHEM_ATOM_DEF_STEREO_COUNT>  (1) 
0

>  <PUBCHEM_ATOM_UDEF_STEREO_COUNT>  (1) 
0

>  <PUBCHEM_BOND_DEF_STEREO_COUNT>  (1) 
0

>  <PUBCHEM_BOND_UDEF_STEREO_COUNT>  (1) 
0

>  <PUBCHEM_ISOTOPIC_ATOM_COUNT>  (1) 
0

>  <PUBCHEM_COMPONENT_COUNT>  (1) 
1

>  <PUBCHEM_CACTVS_TAUTO_COUNT>  (1) 
1

>  <PUBCHEM_CONFORMER_ID>  (1) 
00004D7A00000001

>  <PUBCHEM_MMFF94_ENERGY>  (1) 
64.3665

>  <PUBCHEM_FEATURE_SELFOVERLAP>  (1) 
40.622

>  <PUBCHEM_SHAPE_FINGERPRINT>  (1) 
10165383 225 18114471110330020277
10906281 52 18271538575783783284
11578080 2 17898585429748414892
12293681 4 18341619225907195064
12507560 18 18408598171889649930
12633257 1 18335975462802390168
12788726 201 18267286661593107200
13140716 1 17751088101008107711
14028597 1 18263358101787807920
14466204 15 18411979139600560408
14849402 71 18409730694562664657
15131766 46 15910761840328504520
15238133 3 18412268350071977140
15295992 7 18266176312813251045
16112460 7 18272376394458856209
17980427 23 12966854601984713122
18769570 83 18202281377172985624
20600515 1 18334300868434538972
21403212 168 18335416834023872891
21475661 188 18342740775539869393
21781055 127 18265353724198485550
22224240 67 18186803582755095595
23175994 123 18342454889821286124
23558518 356 18124315996460148964
23559900 14 17680133364414428558
24893992 56 18410858768424195977
2838139 119 17704065197081809225
3009799 131 14117513242372335931
3178227 256 18333740100234910713
392239 28 18339096981520970777
4093350 32 17917428662567800086
4340502 62 18261401018509443183
465052 167 15719689709742530287
5104073 3 17896594175814777824
5385378 56 18261672563068559554
57527306 92 17845928550736321977
59755656 520 18334853931268067567
6086070 43 18194934462578764245
7226269 152 18338507565715593100

>  <PUBCHEM_SHAPE_MULTIPOLES>  (1) 
519.24
13.79
4.22
1.64
5.88
3.94
0.41
3.34
-5.99
-0.46
-2.82
0.02
-0.34
-0.16

>  <PUBCHEM_SHAPE_SELFOVERLAP>  (1) 
1057.596

>  <PUBCHEM_SHAPE_VOLUME>  (1) 
302.6

>  <PUBCHEM_COORDINATE_TYPE>  (1) 
2
5
10

$$$$
