19846
     RDKit          3D

  8  7  0  0  1  0  0  0  0  0999 V2000
    0.5551    0.4283    0.2960 O   0  0  0  0  0  0  0  0  0  0  0  0
   -2.8913   -0.7282    0.3546 O   0  0  0  0  0  0  0  0  0  0  0  0
    1.8215   -0.2148    0.2916 C   0  0  0  0  0  0  0  0  0  0  0  0
   -0.5087   -0.5173    0.3227 C   0  0  0  0  0  0  0  0  0  0  0  0
   -1.8358    0.2305    0.3046 C   0  0  0  0  0  0  0  0  0  0  0  0
    1.9288   -1.1010   -0.9399 C   0  0  0  0  0  0  0  0  0  0  0  0
    2.9183    0.8385    0.3291 C   0  0  0  0  0  0  0  0  0  0  0  0
   -1.9878    1.0641   -0.9587 C   0  0  0  0  0  0  0  0  0  0  0  0
  1  3  1  0
  1  4  1  0
  2  5  1  0
  3  6  1  0
  3  7  1  0
  4  5  1  0
  5  8  1  0
M  END
>  <PUBCHEM_COMPOUND_CID>  (1) 
19846

>  <PUBCHEM_CONFORMER_RMSD>  (1) 
0.6

>  <PUBCHEM_CONFORMER_DIVERSEORDER>  (1) 
4
14
10
13
2
11
5
12
9
3
1
8
7
6

>  <PUBCHEM_MMFF94_PARTIAL_CHARGES>  (1) 
6
1 -0.56
2 -0.68
22 0.4
3 0.28
4 0.28
5 0.28

>  <PUBCHEM_EFFECTIVE_ROTOR_COUNT>  (1) 
3

>  <PUBCHEM_PHARMACOPHORE_FEATURES>  (1) 
4
1 1 acceptor
1 2 acceptor
1 2 donor
3 3 6 7 hydrophobe

>  <PUBCHEM_HEAVY_ATOM_COUNT>  (1) 
8

>  <PUBCHEM_ATOM_DEF_STEREO_COUNT>  (1) 
0

>  <PUBCHEM_ATOM_UDEF_STEREO_COUNT>  (1) 
1

>  <PUBCHEM_BOND_DEF_STEREO_COUNT>  (1) 
0

>  <PUBCHEM_BOND_UDEF_STEREO_COUNT>  (1) 
0

>  <PUBCHEM_ISOTOPIC_ATOM_COUNT>  (1) 
0

>  <PUBCHEM_COMPONENT_COUNT>  (1) 
1

>  <PUBCHEM_CACTVS_TAUTO_COUNT>  (1) 
1

>  <PUBCHEM_CONFORMER_ID>  (1) 
00004D8600000004

>  <PUBCHEM_MMFF94_ENERGY>  (1) 
13.9604

>  <PUBCHEM_FEATURE_SELFOVERLAP>  (1) 
20.297

>  <PUBCHEM_SHAPE_FINGERPRINT>  (1) 
10857977 72 18041559242965092129
12897270 3 18273494555023612244
12932741 1 18337954493442933382
12932764 1 18114750334459082946
14325111 11 18408884031495161274
14390081 3 18114175307121045589
15310529 11 17418096498809380065
19973954 147 18410294666385947372
21040471 1 17531249417903720642
23552423 10 17916313740164102054
29004967 10 18060702775365118602
3248919 1 18059569148706550457
5460574 1 9223236242894883890

>  <PUBCHEM_SHAPE_MULTIPOLES>  (1) 
152.9
4.54
1.12
0.91
0.09
0
0.21
0.37
-0.01
-0.17
0.19
0.05
-0.01
0.7

>  <PUBCHEM_SHAPE_SELFOVERLAP>  (1) 
272.273

>  <PUBCHEM_SHAPE_VOLUME>  (1) 
101.2

>  <PUBCHEM_COORDINATE_TYPE>  (1) 
2
5
10

$$$$
