1984
     RDKit          3D

 20 21  0  0  0  0  0  0  0  0999 V2000
   -0.8640    0.7229    0.4255 O   0  0  0  0  0  0  0  0  0  0  0  0
   -3.4665   -2.2914   -0.6069 O   0  0  0  0  0  0  0  0  0  0  0  0
   -1.1544   -0.9415   -1.1810 O   0  0  0  0  0  0  0  0  0  0  0  0
    5.3030   -1.2865    1.1033 O   0  0  0  0  0  0  0  0  0  0  0  0
    4.6032    0.3606   -0.4316 N   0  0  0  0  0  0  0  0  0  0  0  0
    3.2280    0.4518   -0.2153 C   0  0  0  0  0  0  0  0  0  0  0  0
    0.5135    0.6306    0.2088 C   0  0  0  0  0  0  0  0  0  0  0  0
   -3.0430    0.0102   -0.0796 C   0  0  0  0  0  0  0  0  0  0  0  0
    2.6185   -0.3506    0.7490 C   0  0  0  0  0  0  0  0  0  0  0  0
    2.4623    1.3448   -0.9650 C   0  0  0  0  0  0  0  0  0  0  0  0
    1.2433   -0.2601    0.9639 C   0  0  0  0  0  0  0  0  0  0  0  0
    1.0870    1.4355   -0.7502 C   0  0  0  0  0  0  0  0  0  0  0  0
   -3.9184   -1.0678   -0.2120 C   0  0  0  0  0  0  0  0  0  0  0  0
   -1.6220   -0.1421   -0.3596 C   0  0  0  0  0  0  0  0  0  0  0  0
   -3.5257    1.2550    0.3246 C   0  0  0  0  0  0  0  0  0  0  0  0
   -5.2763   -0.9008    0.0600 C   0  0  0  0  0  0  0  0  0  0  0  0
   -4.8837    1.4218    0.5963 C   0  0  0  0  0  0  0  0  0  0  0  0
   -5.7590    0.3440    0.4640 C   0  0  0  0  0  0  0  0  0  0  0  0
    5.5277   -0.4700    0.2157 C   0  0  0  0  0  0  0  0  0  0  0  0
    6.9265   -0.2662   -0.3099 C   0  0  0  0  0  0  0  0  0  0  0  0
  1  7  1  0
  1 14  1  0
  2 13  1  0
  3 14  2  0
  4 19  2  0
  5  6  1  0
  5 19  1  0
  6  9  2  0
  6 10  1  0
  7 11  2  0
  7 12  1  0
  8 13  2  0
  8 14  1  0
  8 15  1  0
  9 11  1  0
 10 12  2  0
 13 16  1  0
 15 17  2  0
 16 18  2  0
 17 18  1  0
 19 20  1  0
M  END
>  <PUBCHEM_COMPOUND_CID>  (1) 
1984

>  <PUBCHEM_CONFORMER_RMSD>  (1) 
0.8

>  <PUBCHEM_CONFORMER_DIVERSEORDER>  (1) 
1
44
30
38
16
48
8
24
46
56
47
34
55
49
54
52
12
45
33
3
42
50
57
43
14
20
5
32
37
29
6
25
26
10
21
31
2
36
28
53
13
40
4
17
51
27
7
23
9
11
18
39
22
15
41
19
35

>  <PUBCHEM_MMFF94_PARTIAL_CHARGES>  (1) 
30
1 -0.23
10 -0.15
11 -0.15
12 -0.15
13 0.08
14 0.63
15 -0.15
16 -0.15
17 -0.15
18 -0.15
19 0.57
2 -0.53
20 0.06
21 0.15
22 0.15
23 0.15
24 0.15
25 0.15
26 0.37
27 0.15
28 0.15
29 0.15
3 -0.57
33 0.45
4 -0.57
5 -0.55
6 0.12
7 0.08
8 0.09
9 -0.15

>  <PUBCHEM_EFFECTIVE_ROTOR_COUNT>  (1) 
5

>  <PUBCHEM_PHARMACOPHORE_FEATURES>  (1) 
6
1 2 donor
1 3 acceptor
1 4 acceptor
1 5 donor
6 6 7 9 10 11 12 rings
6 8 13 15 16 17 18 rings

>  <PUBCHEM_HEAVY_ATOM_COUNT>  (1) 
20

>  <PUBCHEM_ATOM_DEF_STEREO_COUNT>  (1) 
0

>  <PUBCHEM_ATOM_UDEF_STEREO_COUNT>  (1) 
0

>  <PUBCHEM_BOND_DEF_STEREO_COUNT>  (1) 
0

>  <PUBCHEM_BOND_UDEF_STEREO_COUNT>  (1) 
0

>  <PUBCHEM_ISOTOPIC_ATOM_COUNT>  (1) 
0

>  <PUBCHEM_COMPONENT_COUNT>  (1) 
1

>  <PUBCHEM_CACTVS_TAUTO_COUNT>  (1) 
8

>  <PUBCHEM_CONFORMER_ID>  (1) 
000007C000000001

>  <PUBCHEM_MMFF94_ENERGY>  (1) 
67.5871

>  <PUBCHEM_FEATURE_SELFOVERLAP>  (1) 
30.446

>  <PUBCHEM_SHAPE_FINGERPRINT>  (1) 
10366900 7 14707202240961230365
11315181 36 18412266151307008849
11524674 6 16989123153850614823
11796584 16 18060422417470678462
12107183 9 17687743840119887793
12236239 1 18407762542556953625
12507557 5 13973961034762844515
13167823 11 18335139825580918115
13288520 33 18411419518742399149
13533116 47 17603860063055730346
13590594 115 18113904835904185204
13862211 1 17748821896132405506
1420 363 15068344496887745432
14251764 18 18413110576120784261
14350574 20 17095525106015240308
14386348 63 16415766331535864909
15183329 4 18260827094487130854
15348495 7 17274531135509813730
15788980 27 18410014351044781201
17093844 174 18130783464612812657
17834072 33 18335140916281221108
17844677 252 18201443605078902825
1813 80 17676497098856352462
19489759 90 17632578241083266273
19784866 140 16805597041182310528
200 152 18113054934874049328
20279233 1 16128381492937694245
20567600 75 16988568957314666868
20612939 158 17603873342293100364
20645477 70 15430304798926095440
21033648 29 16199857380699390857
21267235 1 18334020514327928971
21641784 216 16154281498905612974
21709351 56 17894908538104962613
220451 1 18335141981891994530
22224240 67 12895065203200789484
22950370 63 18259982665388443666
23035841 295 18409448068629378346
23402539 116 18341892991364900860
23522609 53 17970094204317803252
23536379 177 18412546500859707216
23557571 272 17274833398112731176
23559900 14 18131345341062196232
26918003 58 15769777978703787155
3004659 81 18411143537260942972
351380 3 18113613478391400650
3545911 37 18343303652372942225
397830 11 17059196211606106978
4073 2 18042410295409453378
4214541 1 18412826893557549537
4340502 62 16988843861349929030
4463277 17 18334295362249573900
5104073 3 18200598123913487209
5385378 56 17560255613267253559
559249 180 18410854348196011743
59755656 215 18059581239509344750
59755656 520 17022905657736430963
67856867 119 18339924943256725564
7226269 152 17632861901839686841
9971528 1 17968094269891620820

>  <PUBCHEM_SHAPE_MULTIPOLES>  (1) 
383.13
15.4
1.49
0.94
9.42
0.18
0
2.73
-1.38
-1.1
0.19
0.25
0.05
-1.31

>  <PUBCHEM_SHAPE_SELFOVERLAP>  (1) 
824.807

>  <PUBCHEM_SHAPE_VOLUME>  (1) 
207.5

>  <PUBCHEM_COORDINATE_TYPE>  (1) 
2
5
10

$$$$
