19854
     RDKit          3D

 39 45  0  0  0  0  0  0  0  0999 V2000
   -3.3725   -2.0258    0.0320 O   0  0  0  0  0  0  0  0  0  0  0  0
   -0.3549    1.1697    1.4767 O   0  0  0  0  0  0  0  0  0  0  0  0
    1.1721   -2.8557   -0.2169 O   0  0  0  0  0  0  0  0  0  0  0  0
   -1.9015   -0.3980    0.7667 N   0  0  0  0  0  0  0  0  0  0  0  0
   -1.1095   -2.4858   -0.1117 N   0  0  0  0  0  0  0  0  0  0  0  0
    0.4556   -0.8284    0.6377 N   0  0  0  0  0  0  0  0  0  0  0  0
   -4.8745   -0.2203   -0.5331 C   0  0  0  0  0  0  0  0  0  0  0  0
    1.6819    2.1710    0.6498 C   0  0  0  0  0  0  0  0  0  0  0  0
    3.1405   -1.6738   -0.9679 C   0  0  0  0  0  0  0  0  0  0  0  0
   -5.9065    0.6574   -0.1240 C   0  0  0  0  0  0  0  0  0  0  0  0
    3.0367    2.5070    0.8827 C   0  0  0  0  0  0  0  0  0  0  0  0
    4.4492   -1.2165   -0.6839 C   0  0  0  0  0  0  0  0  0  0  0  0
   -4.3679   -1.1582    0.3812 C   0  0  0  0  0  0  0  0  0  0  0  0
    0.9665    1.5169    1.6571 C   0  0  0  0  0  0  0  0  0  0  0  0
    2.4486   -2.3901    0.0134 C   0  0  0  0  0  0  0  0  0  0  0  0
   -4.3801   -0.1344   -1.8448 C   0  0  0  0  0  0  0  0  0  0  0  0
    1.0943    2.5026   -0.5820 C   0  0  0  0  0  0  0  0  0  0  0  0
    2.5736   -1.3969   -2.2225 C   0  0  0  0  0  0  0  0  0  0  0  0
   -6.4014    0.5714    1.1874 C   0  0  0  0  0  0  0  0  0  0  0  0
    3.6245    2.1759    2.1145 C   0  0  0  0  0  0  0  0  0  0  0  0
    5.0161   -1.4929    0.5708 C   0  0  0  0  0  0  0  0  0  0  0  0
   -6.4135    1.5950   -1.0385 C   0  0  0  0  0  0  0  0  0  0  0  0
    3.7640    3.1646   -0.1229 C   0  0  0  0  0  0  0  0  0  0  0  0
    5.1525   -0.4956   -1.6628 C   0  0  0  0  0  0  0  0  0  0  0  0
   -4.8713   -1.2296    1.6805 C   0  0  0  0  0  0  0  0  0  0  0  0
    1.5546    1.1922    2.8734 C   0  0  0  0  0  0  0  0  0  0  0  0
    3.0160   -2.6602    1.2525 C   0  0  0  0  0  0  0  0  0  0  0  0
   -5.8862   -0.3665    2.0828 C   0  0  0  0  0  0  0  0  0  0  0  0
    2.8870    1.5228    3.1024 C   0  0  0  0  0  0  0  0  0  0  0  0
    4.3030   -2.2103    1.5319 C   0  0  0  0  0  0  0  0  0  0  0  0
   -4.8951    0.8034   -2.7400 C   0  0  0  0  0  0  0  0  0  0  0  0
    1.8318    3.1557   -1.5698 C   0  0  0  0  0  0  0  0  0  0  0  0
    3.2868   -0.6797   -3.1835 C   0  0  0  0  0  0  0  0  0  0  0  0
   -5.9101    1.6665   -2.3377 C   0  0  0  0  0  0  0  0  0  0  0  0
    3.1642    3.4863   -1.3409 C   0  0  0  0  0  0  0  0  0  0  0  0
    4.5739   -0.2297   -2.9042 C   0  0  0  0  0  0  0  0  0  0  0  0
   -2.0677   -1.6178    0.2386 C   0  0  0  0  0  0  0  0  0  0  0  0
   -0.6108   -0.0698    0.9383 C   0  0  0  0  0  0  0  0  0  0  0  0
    0.1299   -2.0224    0.1167 C   0  0  0  0  0  0  0  0  0  0  0  0
  1 13  1  0
  1 37  1  0
  2 14  1  0
  2 38  1  0
  3 15  1  0
  3 39  1  0
  4 37  2  0
  4 38  1  0
  5 37  1  0
  5 39  2  0
  6 38  2  0
  6 39  1  0
  7 10  1  0
  7 13  1  0
  7 16  2  0
  8 11  1  0
  8 14  1  0
  8 17  2  0
  9 12  1  0
  9 15  1  0
  9 18  2  0
 10 19  1  0
 10 22  2  0
 11 20  1  0
 11 23  2  0
 12 21  1  0
 12 24  2  0
 13 25  2  0
 14 26  2  0
 15 27  2  0
 16 31  1  0
 17 32  1  0
 18 33  1  0
 19 28  2  0
 20 29  2  0
 21 30  2  0
 22 34  1  0
 23 35  1  0
 24 36  1  0
 25 28  1  0
 26 29  1  0
 27 30  1  0
 31 34  2  0
 32 35  2  0
 33 36  2  0
M  END
>  <PUBCHEM_COMPOUND_CID>  (1) 
19854

>  <PUBCHEM_CONFORMER_RMSD>  (1) 
1.4

>  <PUBCHEM_CONFORMER_DIVERSEORDER>  (1) 
1
50
52
90
62
99
49
107
12
93
102
95
24
85
100
37
58
56
106
105
10
77
21
81
68
54
80
98
38
35
101
72
92
71
86
47
14
97
75
61
7
78
103
57
67
69
89
104
76
16
79
41
19
13
96
83
66
23
18
42
20
44
91
82
84
64
59
70
74
87
43
29
25
108
28
48
22
73
40
6
45
32
51
65
36
8
94
88
55
60
2
46
3
17
9
53
5
27
39
15
34
63
30
33
31
11
4
26

>  <PUBCHEM_MMFF94_PARTIAL_CHARGES>  (1) 
54
1 -0.17
13 0.08
14 0.08
15 0.08
16 -0.15
17 -0.15
18 -0.15
19 -0.15
2 -0.17
20 -0.15
21 -0.15
22 -0.15
23 -0.15
24 -0.15
25 -0.15
26 -0.15
27 -0.15
28 -0.15
29 -0.15
3 -0.17
30 -0.15
31 -0.15
32 -0.15
33 -0.15
34 -0.15
35 -0.15
36 -0.15
37 0.7
38 0.7
39 0.7
4 -0.62
40 0.15
41 0.15
42 0.15
43 0.15
44 0.15
45 0.15
46 0.15
47 0.15
48 0.15
49 0.15
5 -0.62
50 0.15
51 0.15
52 0.15
53 0.15
54 0.15
55 0.15
56 0.15
57 0.15
58 0.15
59 0.15
6 -0.62
60 0.15

>  <PUBCHEM_EFFECTIVE_ROTOR_COUNT>  (1) 
6

>  <PUBCHEM_PHARMACOPHORE_FEATURES>  (1) 
10
3 4 5 37 cation
3 4 6 38 cation
3 5 6 39 cation
6 4 5 6 37 38 39 rings
6 7 10 13 19 25 28 rings
6 7 10 16 22 31 34 rings
6 8 11 14 20 26 29 rings
6 8 11 17 23 32 35 rings
6 9 12 15 21 27 30 rings
6 9 12 18 24 33 36 rings

>  <PUBCHEM_HEAVY_ATOM_COUNT>  (1) 
39

>  <PUBCHEM_ATOM_DEF_STEREO_COUNT>  (1) 
0

>  <PUBCHEM_ATOM_UDEF_STEREO_COUNT>  (1) 
0

>  <PUBCHEM_BOND_DEF_STEREO_COUNT>  (1) 
0

>  <PUBCHEM_BOND_UDEF_STEREO_COUNT>  (1) 
0

>  <PUBCHEM_ISOTOPIC_ATOM_COUNT>  (1) 
0

>  <PUBCHEM_COMPONENT_COUNT>  (1) 
1

>  <PUBCHEM_CACTVS_TAUTO_COUNT>  (1) 
1

>  <PUBCHEM_CONFORMER_ID>  (1) 
00004D8E00000001

>  <PUBCHEM_MMFF94_ENERGY>  (1) 
141.0394

>  <PUBCHEM_FEATURE_SELFOVERLAP>  (1) 
53.615

>  <PUBCHEM_SHAPE_FINGERPRINT>  (1) 
11399939 17 14764633006097896132
11578080 2 18188767366098208358
12156800 1 16663983173951916292
12422481 6 18042943510703410785
13512321 179 17607803907779906429
15183329 4 18413112740868860029
15336146 87 17822007645083056631
15439362 3 17974583682583191188
15975801 100 16154260595152519140
16090146 7 16773254937049100359
161222 10 16845564327401485111
17492 54 18119277110774357764
19377110 9 14345796054866844857
20764821 26 18262220218405316247
21033648 29 18114453501533812067
21223535 225 18055904404387113229
22121540 332 18199444646439049736
23559900 14 18342457066562629234
23569914 2 16881000548025213501
24771293 8 17131819963853630858
5081480 168 18340496594871508525
513532 50 17988915712991124676
550186 83 17531234097919510612
5776283 40 17099780323690084900
57816373 69 14619132342891762892
77296 10 14907887268037186419

>  <PUBCHEM_SHAPE_MULTIPOLES>  (1) 
770.05
14.84
3.77
3.08
24.15
1.48
0.57
0.92
3.53
-4.61
-0.02
-1.35
0.97
2.15

>  <PUBCHEM_SHAPE_SELFOVERLAP>  (1) 
1762.273

>  <PUBCHEM_SHAPE_VOLUME>  (1) 
391.5

>  <PUBCHEM_COORDINATE_TYPE>  (1) 
2
5
10

$$$$
