19855
     RDKit          3D

 11 10  0  0  0  0  0  0  0  0999 V2000
    0.8040   -0.0064    0.3666 O   0  0  0  0  0  0  0  0  0  0  0  0
    2.2740    1.1592   -0.9827 O   0  0  0  0  0  0  0  0  0  0  0  0
   -1.6129    0.2151    0.4388 C   0  0  0  0  0  0  0  0  0  0  0  0
   -2.7900    1.0021   -0.1696 C   0  0  0  0  0  0  0  0  0  0  0  0
   -1.7782   -1.3197    0.3727 C   0  0  0  0  0  0  0  0  0  0  0  0
   -0.2975    0.6908   -0.1991 C   0  0  0  0  0  0  0  0  0  0  0  0
   -4.1370    0.6804    0.4613 C   0  0  0  0  0  0  0  0  0  0  0  0
   -1.8772   -1.9001   -1.0312 C   0  0  0  0  0  0  0  0  0  0  0  0
    2.0340    0.3292   -0.1203 C   0  0  0  0  0  0  0  0  0  0  0  0
    3.0425   -0.4932    0.5795 C   0  0  0  0  0  0  0  0  0  0  0  0
    4.3384   -0.3574    0.2840 C   0  0  0  0  0  0  0  0  0  0  0  0
  1  6  1  0
  1  9  1  0
  2  9  2  0
  3  4  1  0
  3  5  1  0
  3  6  1  0
  4  7  1  0
  5  8  1  0
  9 10  1  0
 10 11  2  0
M  END
>  <PUBCHEM_COMPOUND_CID>  (1) 
19855

>  <PUBCHEM_CONFORMER_RMSD>  (1) 
0.6

>  <PUBCHEM_CONFORMER_DIVERSEORDER>  (1) 
1
169
138
36
95
173
91
107
155
57
13
111
152
174
86
2
76
149
92
118
147
19
150
22
70
171
166
85
98
28
151
83
63
130
29
113
170
112
162
135
38
140
7
167
160
54
116
61
119
139
154
77
136
144
66
125
69
153
9
41
105
47
159
133
49
48
104
87
175
33
12
68
114
168
122
82
164
24
50
131
145
148
34
59
51
127
123
21
158
8
14
103
90
75
40
124
129
37
20
42
27
52
6
71
115
101
100
39
64
45
81
5
65
126
163
79
165
72
97
93
96
94
4
134
35
156
43
137
132
142
16
128
60
157
120
53
74
10
161
143
58
32
78
88
146
117
106
26
44
73
89
46
110
62
15
84
109
121
172
99
3
31
141
67
108
25
55
30
80
56
11
102
18
23
17

>  <PUBCHEM_MMFF94_PARTIAL_CHARGES>  (1) 
9
1 -0.43
10 -0.14
11 -0.3
2 -0.57
25 0.15
26 0.15
27 0.15
6 0.28
9 0.71

>  <PUBCHEM_EFFECTIVE_ROTOR_COUNT>  (1) 
6

>  <PUBCHEM_PHARMACOPHORE_FEATURES>  (1) 
4
1 11 hydrophobe
1 2 acceptor
1 7 hydrophobe
1 8 hydrophobe

>  <PUBCHEM_HEAVY_ATOM_COUNT>  (1) 
11

>  <PUBCHEM_ATOM_DEF_STEREO_COUNT>  (1) 
0

>  <PUBCHEM_ATOM_UDEF_STEREO_COUNT>  (1) 
0

>  <PUBCHEM_BOND_DEF_STEREO_COUNT>  (1) 
0

>  <PUBCHEM_BOND_UDEF_STEREO_COUNT>  (1) 
0

>  <PUBCHEM_ISOTOPIC_ATOM_COUNT>  (1) 
0

>  <PUBCHEM_COMPONENT_COUNT>  (1) 
1

>  <PUBCHEM_CACTVS_TAUTO_COUNT>  (1) 
1

>  <PUBCHEM_CONFORMER_ID>  (1) 
00004D8F00000001

>  <PUBCHEM_MMFF94_ENERGY>  (1) 
13.5581

>  <PUBCHEM_FEATURE_SELFOVERLAP>  (1) 
20.297

>  <PUBCHEM_SHAPE_FINGERPRINT>  (1) 
11062470 55 16271922692646037897
124424 183 16988840562588250562
12500047 106 18131343103326030338
12932764 1 18198634413146780248
13380535 76 18272090470259334527
14577589 140 18410856555498043439
18186145 218 16732979864513646208
18511873 20 18335702723715209072
187816 3 17489583438197428529
20279233 1 16988567909199981310
20645464 45 17489591168711182675
22485316 2 18342171164128835394
23380061 50 17418083343329899010
23402539 116 18060127709778791461
23598291 2 18260269684872573852
3248919 1 16558480767578280968
366044 4 18272087163445408483
58051976 100 18409168835066518047
69090 78 18343015580247434599
81228 2 16772696333032215240
9939556 21 18335422404174449804

>  <PUBCHEM_SHAPE_MULTIPOLES>  (1) 
214.64
7.37
1.44
0.87
3.36
0.68
0.1
-0.65
-1
-1.08
0.36
0
0.09
-0.59

>  <PUBCHEM_SHAPE_SELFOVERLAP>  (1) 
396.82

>  <PUBCHEM_SHAPE_VOLUME>  (1) 
135.3

>  <PUBCHEM_COORDINATE_TYPE>  (1) 
2
5
10

$$$$
