19857
     RDKit          3D

 19 19  0  0  1  0  0  0  0  0999 V2000
   -4.3137   -0.0355    0.5941 O   0  0  0  0  0  0  0  0  0  0  0  0
   -1.5905    2.5498   -1.4792 O   0  0  0  0  0  0  0  0  0  0  0  0
   -1.9919    1.2720    0.4255 N   0  0  0  0  0  0  0  0  0  0  0  0
   -3.6011   -1.7553   -0.7937 N   0  0  0  0  0  0  0  0  0  0  0  0
   -4.8345   -2.3732   -0.7986 N   0  0  0  0  0  0  0  0  0  0  0  0
   -0.9440   -0.9903    0.3411 C   0  0  0  0  0  0  0  0  0  0  0  0
    0.4644   -0.3884    0.1167 C   0  0  0  0  0  0  0  0  0  0  0  0
   -2.0227   -0.0228   -0.2056 C   0  0  0  0  0  0  0  0  0  0  0  0
    1.6392   -1.3239    0.4384 C   0  0  0  0  0  0  0  0  0  0  0  0
   -1.1777   -1.3468    1.8155 C   0  0  0  0  0  0  0  0  0  0  0  0
   -3.4357   -0.5877   -0.0667 C   0  0  0  0  0  0  0  0  0  0  0  0
    2.9939   -0.7296    0.1449 C   0  0  0  0  0  0  0  0  0  0  0  0
   -1.7774    2.4528   -0.2692 C   0  0  0  0  0  0  0  0  0  0  0  0
    3.5575   -0.9067   -1.1097 C   0  0  0  0  0  0  0  0  0  0  0  0
    3.6532   -0.0158    1.1341 C   0  0  0  0  0  0  0  0  0  0  0  0
    4.8103   -0.3569   -1.3814 C   0  0  0  0  0  0  0  0  0  0  0  0
    4.9060    0.5339    0.8622 C   0  0  0  0  0  0  0  0  0  0  0  0
   -1.8199    3.6613    0.6272 C   0  0  0  0  0  0  0  0  0  0  0  0
    5.4845    0.3634   -0.3956 C   0  0  0  0  0  0  0  0  0  0  0  0
  1 11  2  0
  2 13  2  0
  3  8  1  0
  3 13  1  0
  4  5  1  0
  4 11  1  0
  6  7  1  0
  6  8  1  0
  6 10  1  0
  7  9  1  0
  8 11  1  0
  9 12  1  0
 12 14  2  0
 12 15  1  0
 13 18  1  0
 14 16  1  0
 15 17  2  0
 16 19  2  0
 17 19  1  0
M  END
>  <PUBCHEM_COMPOUND_CID>  (1) 
19857

>  <PUBCHEM_CONFORMER_RMSD>  (1) 
0.8

>  <PUBCHEM_CONFORMER_DIVERSEORDER>  (1) 
1
76
10
125
111
13
126
176
128
172
89
86
43
147
23
41
106
112
177
64
75
153
173
21
12
95
114
137
133
91
151
178
127
81
145
79
170
143
58
96
37
174
167
130
97
149
54
136
94
60
68
24
98
20
162
99
69
72
83
36
48
166
124
152
109
158
113
14
61
47
163
28
171
100
25
31
92
168
73
150
146
74
144
88
27
156
17
63
107
32
65
50
169
157
35
16
42
102
19
22
165
131
103
154
15
117
101
161
119
134
56
18
78
53
138
33
8
115
66
59
82
45
155
129
160
7
141
49
77
9
67
90
159
104
70
139
3
6
142
123
84
135
5
29
164
148
80
71
85
105
11
39
121
51
132
110
175
140
4
40
46
44
38
57
120
52
30
2
118
55
108
93
62
26
116
34
122
87

>  <PUBCHEM_MMFF94_PARTIAL_CHARGES>  (1) 
25
1 -0.57
11 0.57
12 -0.14
13 0.57
14 -0.15
15 -0.15
16 -0.15
17 -0.15
18 0.06
19 -0.15
2 -0.57
29 0.37
3 -0.73
30 0.15
31 0.15
32 0.37
33 0.15
34 0.15
38 0.15
39 0.36
4 -0.42
40 0.36
5 -0.73
8 0.36
9 0.14

>  <PUBCHEM_EFFECTIVE_ROTOR_COUNT>  (1) 
8

>  <PUBCHEM_PHARMACOPHORE_FEATURES>  (1) 
7
1 1 acceptor
1 10 hydrophobe
1 2 acceptor
1 3 donor
1 4 donor
1 5 donor
6 12 14 15 16 17 19 rings

>  <PUBCHEM_HEAVY_ATOM_COUNT>  (1) 
19

>  <PUBCHEM_ATOM_DEF_STEREO_COUNT>  (1) 
0

>  <PUBCHEM_ATOM_UDEF_STEREO_COUNT>  (1) 
2

>  <PUBCHEM_BOND_DEF_STEREO_COUNT>  (1) 
0

>  <PUBCHEM_BOND_UDEF_STEREO_COUNT>  (1) 
0

>  <PUBCHEM_ISOTOPIC_ATOM_COUNT>  (1) 
0

>  <PUBCHEM_COMPONENT_COUNT>  (1) 
1

>  <PUBCHEM_CACTVS_TAUTO_COUNT>  (1) 
4

>  <PUBCHEM_CONFORMER_ID>  (1) 
00004D9100000001

>  <PUBCHEM_MMFF94_ENERGY>  (1) 
41.4989

>  <PUBCHEM_FEATURE_SELFOVERLAP>  (1) 
37.033

>  <PUBCHEM_SHAPE_FINGERPRINT>  (1) 
10366900 7 18334577975366069250
10498660 4 18336543799019665228
10670039 82 18041856025912004572
11759241 127 18271520991944658172
12173636 292 18125153832167183013
12788726 201 18334566941384355675
13533116 47 17894901906997510034
13675066 3 12829207780490406690
15849732 13 18201723960276651271
15961568 22 18266171928464941104
17349148 13 17821447967367207038
18186145 218 17775286019931804178
187816 3 18040430027581218107
192875 21 17821444685974919108
20300324 65 18409450280041559518
20510252 161 18336264544113428233
20645477 70 17274551932353507798
21033650 10 18194143857994308276
221357 26 18201441355111819952
22182937 141 18127414449338048960
23352939 185 18131072692222050049
23402539 116 18334289881565342623
235170 7 17775006765294716006
23557571 272 18342744000453309572
312423 11 17895757266824524602
3268164 11 18410286999868876156
341906 21 18261383422112808208
46194498 28 17846225483985977268
497634 4 17489599964751418704
5281201 14 18060427880995775684
621550 5 17703508886894120323
7399639 24 18060125570789820522
7615 1 17896867764767549778

>  <PUBCHEM_SHAPE_MULTIPOLES>  (1) 
364.33
11.02
2.78
1.29
8.19
2.94
0.07
-2.31
-2.03
-4.42
-0.18
0.47
-0.13
-0.09

>  <PUBCHEM_SHAPE_SELFOVERLAP>  (1) 
732.534

>  <PUBCHEM_SHAPE_VOLUME>  (1) 
213

>  <PUBCHEM_COORDINATE_TYPE>  (1) 
2
5
10

$$$$
