19868
     RDKit          3D

 13 14  0  0  1  0  0  0  0  0999 V2000
   -2.5533    2.2457   -0.0253 O   0  0  0  0  0  0  0  0  0  0  0  0
   -0.4049   -1.5403    0.0653 N   0  0  0  0  0  0  0  0  0  0  0  0
   -0.4041    1.5343   -0.1485 N   0  0  0  0  0  0  0  0  0  0  0  0
   -1.7290   -1.1232   -0.3372 C   0  0  0  0  0  0  0  0  0  0  0  0
   -2.2010   -0.0170    0.5876 C   0  0  0  0  0  0  0  0  0  0  0  0
    0.7110   -0.7227    0.0664 C   0  0  0  0  0  0  0  0  0  0  0  0
   -2.6680   -2.3280   -0.2571 C   0  0  0  0  0  0  0  0  0  0  0  0
    0.7197    0.6750   -0.0838 C   0  0  0  0  0  0  0  0  0  0  0  0
   -1.7365    1.3265    0.0977 C   0  0  0  0  0  0  0  0  0  0  0  0
    1.9610   -1.3789    0.1766 C   0  0  0  0  0  0  0  0  0  0  0  0
    1.9582    1.3496   -0.1745 C   0  0  0  0  0  0  0  0  0  0  0  0
    3.1743   -0.6958    0.1096 C   0  0  0  0  0  0  0  0  0  0  0  0
    3.1726    0.6748   -0.0768 C   0  0  0  0  0  0  0  0  0  0  0  0
  1  9  2  0
  2  4  1  0
  2  6  1  0
  3  8  1  0
  3  9  1  0
  4  5  1  0
  4  7  1  0
  5  9  1  0
  6  8  2  0
  6 10  1  0
  8 11  1  0
 10 12  2  0
 11 13  2  0
 12 13  1  0
M  END
>  <PUBCHEM_COMPOUND_CID>  (1) 
19868

>  <PUBCHEM_CONFORMER_RMSD>  (1) 
0.4

>  <PUBCHEM_CONFORMER_DIVERSEORDER>  (1) 
1
2
3
4

>  <PUBCHEM_MMFF94_PARTIAL_CHARGES>  (1) 
18
1 -0.57
10 -0.15
11 -0.15
12 -0.15
13 -0.15
17 0.4
2 -0.87
21 0.37
22 0.15
23 0.15
24 0.15
25 0.15
3 -0.55
4 0.37
5 0.06
6 0.1
8 0.12
9 0.57

>  <PUBCHEM_EFFECTIVE_ROTOR_COUNT>  (1) 
0.8

>  <PUBCHEM_PHARMACOPHORE_FEATURES>  (1) 
6
1 1 acceptor
1 2 cation
1 2 donor
1 3 donor
6 6 8 10 11 12 13 rings
7 2 3 4 5 6 8 9 rings

>  <PUBCHEM_HEAVY_ATOM_COUNT>  (1) 
13

>  <PUBCHEM_ATOM_DEF_STEREO_COUNT>  (1) 
0

>  <PUBCHEM_ATOM_UDEF_STEREO_COUNT>  (1) 
1

>  <PUBCHEM_BOND_DEF_STEREO_COUNT>  (1) 
0

>  <PUBCHEM_BOND_UDEF_STEREO_COUNT>  (1) 
0

>  <PUBCHEM_ISOTOPIC_ATOM_COUNT>  (1) 
0

>  <PUBCHEM_COMPONENT_COUNT>  (1) 
1

>  <PUBCHEM_CACTVS_TAUTO_COUNT>  (1) 
2

>  <PUBCHEM_CONFORMER_ID>  (1) 
00004D9C00000001

>  <PUBCHEM_MMFF94_ENERGY>  (1) 
50.0484

>  <PUBCHEM_FEATURE_SELFOVERLAP>  (1) 
30.454

>  <PUBCHEM_SHAPE_FINGERPRINT>  (1) 
10967382 1 18194402178026905032
11132069 177 18411413973892095432
11206711 2 18337956791334884932
12382932 28 18341326700264397064
12932764 1 18341060674232224480
13380535 21 18340499867383055294
13380535 76 18268987588178681615
14325111 11 18409731733839086120
15442244 35 18337387124364173546
15775835 57 18410866438196692656
16945 1 18265055906417525850
193761 8 18410573985156732414
19973954 147 18410575102048721918
20871998 184 18202004356283063263
21501502 16 18408885140018697152
2334 1 18410012160679908458
23388829 49 18193838373411980245
23402539 116 18128246994319860454
23463225 33 18335421240470265122
23552423 10 18261113006180720094
23559900 14 18199751337621987814
241688 4 18195244640436570945
2748010 2 18338520741957598724
6333449 129 18412542080921602068
69090 78 18338232653227410105

>  <PUBCHEM_SHAPE_MULTIPOLES>  (1) 
251.7
4.83
2.32
0.65
1.31
0.17
0.01
-0.56
0
-1.63
-0.12
-0.06
-0.03
-0.3

>  <PUBCHEM_SHAPE_SELFOVERLAP>  (1) 
532.957

>  <PUBCHEM_SHAPE_VOLUME>  (1) 
138.4

>  <PUBCHEM_COORDINATE_TYPE>  (1) 
2
5
10

$$$$
