19869
     RDKit          3D

  8  8  0  0  1  0  0  0  0  0999 V2000
    1.2935   -2.1031    0.4124 Cl  0  0  0  0  0  0  0  0  0  0  0  0
    1.2918    2.1041   -0.4124 Cl  0  0  0  0  0  0  0  0  0  0  0  0
   -0.4153   -0.6432   -0.9234 O   0  0  0  0  0  0  0  0  0  0  0  0
   -0.4160    0.6430    0.9237 O   0  0  0  0  0  0  0  0  0  0  0  0
   -2.4164   -0.0008   -0.0003 O   0  0  0  0  0  0  0  0  0  0  0  0
    0.9289   -0.5929   -0.4614 C   0  0  0  0  0  0  0  0  0  0  0  0
    0.9283    0.5934    0.4613 C   0  0  0  0  0  0  0  0  0  0  0  0
   -1.1947   -0.0006    0.0001 C   0  0  0  0  0  0  0  0  0  0  0  0
  1  6  1  0
  2  7  1  0
  3  6  1  0
  3  8  1  0
  4  7  1  0
  4  8  1  0
  5  8  2  0
  6  7  1  0
M  END
>  <PUBCHEM_COMPOUND_CID>  (1) 
19869

>  <PUBCHEM_CONFORMER_RMSD>  (1) 
0.4

>  <PUBCHEM_CONFORMER_DIVERSEORDER>  (1) 
1
3
2
4

>  <PUBCHEM_MMFF94_PARTIAL_CHARGES>  (1) 
8
1 -0.29
2 -0.29
3 -0.43
4 -0.43
5 -0.57
6 0.57
7 0.57
8 0.87

>  <PUBCHEM_EFFECTIVE_ROTOR_COUNT>  (1) 
0.8

>  <PUBCHEM_PHARMACOPHORE_FEATURES>  (1) 
1
5 3 4 6 7 8 rings

>  <PUBCHEM_HEAVY_ATOM_COUNT>  (1) 
8

>  <PUBCHEM_ATOM_DEF_STEREO_COUNT>  (1) 
0

>  <PUBCHEM_ATOM_UDEF_STEREO_COUNT>  (1) 
2

>  <PUBCHEM_BOND_DEF_STEREO_COUNT>  (1) 
0

>  <PUBCHEM_BOND_UDEF_STEREO_COUNT>  (1) 
0

>  <PUBCHEM_ISOTOPIC_ATOM_COUNT>  (1) 
0

>  <PUBCHEM_COMPONENT_COUNT>  (1) 
1

>  <PUBCHEM_CACTVS_TAUTO_COUNT>  (1) 
1

>  <PUBCHEM_CONFORMER_ID>  (1) 
00004D9D00000001

>  <PUBCHEM_MMFF94_ENERGY>  (1) 
8.704

>  <PUBCHEM_FEATURE_SELFOVERLAP>  (1) 
5.074

>  <PUBCHEM_SHAPE_FINGERPRINT>  (1) 
137420 1 13572086579509168000
18185500 45 18268713805325159958
20653091 64 18341339907188599003
21040471 1 17981601885912418984
23552423 10 18412262856745176927
29004967 10 18261671454818660706
5943 1 16386136859657365152

>  <PUBCHEM_SHAPE_MULTIPOLES>  (1) 
150.77
2.1
2.09
0.86
1.31
0.05
0
-0.05
0
-1.61
0
-0.04
0
-0.22

>  <PUBCHEM_SHAPE_SELFOVERLAP>  (1) 
286.967

>  <PUBCHEM_SHAPE_VOLUME>  (1) 
95.1

>  <PUBCHEM_COORDINATE_TYPE>  (1) 
2
5
10

$$$$
