1987
     RDKit          3D

 33 35  0  0  0  0  0  0  0  0999 V2000
    1.4159   -3.2380    1.8965 Cl  0  0  0  0  0  0  0  0  0  0  0  0
    2.1252    3.4782    0.3987 O   0  0  0  0  0  0  0  0  0  0  0  0
    0.3539    4.8944    0.8388 O   0  0  0  0  0  0  0  0  0  0  0  0
    2.7765    0.6895    0.6515 N   0  0  0  0  0  0  0  0  0  0  0  0
    1.6789   -0.1101    0.4696 N   0  0  0  0  0  0  0  0  0  0  0  0
   -5.0160    0.0783   -1.8071 N   0  0  0  0  0  0  0  0  0  0  0  0
    0.9802   -0.2639    1.4937 N   0  0  0  0  0  0  0  0  0  0  0  0
   -5.7844    0.2860    0.4675 N   0  0  0  0  0  0  0  0  0  0  0  0
   -4.4422   -0.4653    2.2636 N   0  0  0  0  0  0  0  0  0  0  0  0
   -7.1067    1.0272   -1.3234 N   0  0  0  0  0  0  0  0  0  0  0  0
   -3.6343   -0.6927    0.0065 C   0  0  0  0  0  0  0  0  0  0  0  0
    3.6087    0.8884   -0.5177 C   0  0  0  0  0  0  0  0  0  0  0  0
   -2.4045   -1.3013    0.4657 C   0  0  0  0  0  0  0  0  0  0  0  0
    2.8767    1.6399    1.7456 C   0  0  0  0  0  0  0  0  0  0  0  0
   -3.8847   -0.4848   -1.3344 C   0  0  0  0  0  0  0  0  0  0  0  0
    4.4912   -0.2960   -0.7871 C   0  0  0  0  0  0  0  0  0  0  0  0
   -2.8879   -0.8827   -2.3747 C   0  0  0  0  0  0  0  0  0  0  0  0
   -1.2988   -0.5037    0.7608 C   0  0  0  0  0  0  0  0  0  0  0  0
    1.8681    2.7648    1.6013 C   0  0  0  0  0  0  0  0  0  0  0  0
   -4.6295   -0.2834    0.8704 C   0  0  0  0  0  0  0  0  0  0  0  0
   -0.1137   -1.0908    1.2037 C   0  0  0  0  0  0  0  0  0  0  0  0
   -2.3248   -2.6861    0.6133 C   0  0  0  0  0  0  0  0  0  0  0  0
    4.0400   -1.3297   -1.6076 C   0  0  0  0  0  0  0  0  0  0  0  0
    5.7627   -0.3623   -0.2173 C   0  0  0  0  0  0  0  0  0  0  0  0
   -0.0341   -2.4755    1.3514 C   0  0  0  0  0  0  0  0  0  0  0  0
   -1.9039    0.2390   -2.6904 C   0  0  0  0  0  0  0  0  0  0  0  0
   -1.1396   -3.2732    1.0562 C   0  0  0  0  0  0  0  0  0  0  0  0
   -5.9101    0.4345   -0.8651 C   0  0  0  0  0  0  0  0  0  0  0  0
    4.8600   -2.4299   -1.8582 C   0  0  0  0  0  0  0  0  0  0  0  0
    6.5829   -1.4624   -0.4681 C   0  0  0  0  0  0  0  0  0  0  0  0
    6.1316   -2.4961   -1.2884 C   0  0  0  0  0  0  0  0  0  0  0  0
    1.2870    4.5267    0.1379 C   0  0  0  0  0  0  0  0  0  0  0  0
    1.6754    5.1810   -1.1533 C   0  0  0  0  0  0  0  0  0  0  0  0
  1 25  1  0
  2 19  1  0
  2 32  1  0
  3 32  2  0
  4  5  1  0
  4 12  1  0
  4 14  1  0
  5  7  2  0
  6 15  2  0
  6 28  1  0
  7 21  1  0
  8 20  1  0
  8 28  2  0
  9 20  1  0
 10 28  1  0
 11 13  1  0
 11 15  1  0
 11 20  2  0
 12 16  1  0
 13 18  2  0
 13 22  1  0
 14 19  1  0
 15 17  1  0
 16 23  2  0
 16 24  1  0
 17 26  1  0
 18 21  1  0
 21 25  2  0
 22 27  2  0
 23 29  1  0
 24 30  2  0
 25 27  1  0
 29 31  2  0
 30 31  1  0
 32 33  1  0
M  END
>  <PUBCHEM_COMPOUND_CID>  (1) 
1987

>  <PUBCHEM_CONFORMER_RMSD>  (1) 
1

>  <PUBCHEM_CONFORMER_DIVERSEORDER>  (1) 
1
17
255
403
125
178
152
58
432
326
191
216
246
457
331
225
51
426
170
47
409
349
164
25
81
121
418
186
88
420
115
146
153
120
267
196
79
386
289
441
358
231
410
467
144
242
135
385
315
451
464
160
13
145
415
370
129
444
192
221
67
118
19
275
251
448
103
238
391
105
282
156
355
65
56
396
20
37
104
140
268
452
283
22
406
348
74
414
281
150
66
377
256
354
373
68
340
229
224
26
417
87
434
181
177
312
455
324
62
174
154
263
90
453
119
280
276
438
113
401
264
382
77
412
332
111
363
21
429
141
114
39
23
314
86
346
293
9
439
101
99
461
394
364
213
294
6
100
184
163
143
57
73
93
127
361
257
45
456
18
207
194
404
212
89
187
278
383
304
33
319
240
327
344
309
14
8
466
422
424
215
35
116
60
235
374
98
367
136
317
447
345
36
285
78
342
142
337
4
435
440
258
59
253
94
411
237
7
449
306
204
102
305
208
339
149
97
437
269
10
226
71
232
180
469
169
54
131
64
173
200
108
380
446
430
41
369
243
195
249
399
320
362
158
49
241
442
148
397
338
405
3
69
381
123
134
419
270
211
322
244
378
5
407
80
61
262
390
183
199
2
234
287
450
379
395
387
384
334
12
284
159
468
347
43
29
147
63
202
70
303
75
260
219
84
31
368
250
366
40
376
161
259
252
423
425
323
389
288
351
24
400
421
106
445
352
167
266
128
124
329
28
52
302
298
459
296
109
223
30
182
291
46
460
443
166
311
271
233
85
11
265
189
137
307
126
462
72
155
122
371
16
171
179
318
360
436
222
42
356
236
188
112
96
172
392
325
239
162
201
398
53
206
110
357
176
95
335
107
168
299
277
295
198
321
454
372
185
433
279
428
165
138
92
50
274
117
48
416
254
353
463
313
55
133
27
328
465
388
83
300
245
38
408
310
210
247
175
218
76
341
230
227
431
286
190
365
292
343
297
359
413
273
32
350
333
248
151
261
228
458
157
336
375
214
197
209
15
203
290
272
330
393
427
316
82
132
220
34
44
217
193
91
308
205
402
130
301
139

>  <PUBCHEM_MMFF94_PARTIAL_CHARGES>  (1) 
42
1 -0.18
10 -0.9
12 0.44
14 0.3
15 0.17
16 -0.14
17 0.14
18 -0.15
19 0.28
2 -0.43
20 0.41
21 0.18
22 -0.15
23 -0.15
24 -0.15
25 0.18
27 -0.15
28 0.72
29 -0.15
3 -0.57
30 -0.15
31 -0.15
32 0.66
33 0.06
4 -0.54
40 0.15
43 0.15
44 0.15
45 0.15
49 0.15
5 -0.06
50 0.15
51 0.15
52 0.15
53 0.4
54 0.4
55 0.4
56 0.4
6 -0.62
7 -0.18
8 -0.62
9 -0.9

>  <PUBCHEM_EFFECTIVE_ROTOR_COUNT>  (1) 
10

>  <PUBCHEM_PHARMACOPHORE_FEATURES>  (1) 
8
1 10 donor
1 26 hydrophobe
1 3 acceptor
1 9 donor
4 6 8 10 28 cation
6 13 18 21 22 25 27 rings
6 16 23 24 29 30 31 rings
6 6 8 11 15 20 28 rings

>  <PUBCHEM_HEAVY_ATOM_COUNT>  (1) 
33

>  <PUBCHEM_ATOM_DEF_STEREO_COUNT>  (1) 
0

>  <PUBCHEM_ATOM_UDEF_STEREO_COUNT>  (1) 
0

>  <PUBCHEM_BOND_DEF_STEREO_COUNT>  (1) 
0

>  <PUBCHEM_BOND_UDEF_STEREO_COUNT>  (1) 
0

>  <PUBCHEM_ISOTOPIC_ATOM_COUNT>  (1) 
0

>  <PUBCHEM_COMPONENT_COUNT>  (1) 
1

>  <PUBCHEM_CACTVS_TAUTO_COUNT>  (1) 
17

>  <PUBCHEM_CONFORMER_ID>  (1) 
000007C300000001

>  <PUBCHEM_MMFF94_ENERGY>  (1) 
97.8267

>  <PUBCHEM_FEATURE_SELFOVERLAP>  (1) 
40.596

>  <PUBCHEM_SHAPE_FINGERPRINT>  (1) 
10165383 225 18040436564426529431
10675989 125 18334300843002104410
10815517 723 18056776346312745016
11513181 2 17975978987653139662
11720765 8 18343302587332647824
11828532 37 18261682574964003479
12107698 1 17988641870160976749
12788726 201 18263086518485075314
13726171 33 15864343576373737125
14068700 675 16702023041883160442
14341114 328 14490190509879076735
14681490 219 18268713814326531758
15183329 4 18336267851676524506
15264996 19 17978801103485188860
15775530 1 17613173170923924050
15927050 60 17329441541308103174
18393751 57 9367050139574328670
19309040 13 17840602705601192061
20511986 3 16486964082159844438
21033648 29 18040992994323761233
21857420 4 18410015446868870204
21860390 5 18269829986000820676
23536364 44 18264485088137045508
23559900 14 18270684302477440896
3004659 81 15913330212562851134
339767 52 15697998526890821822
3459 83 18060143128173275106
3729539 64 18190464865775680034
4066623 53 18339074887882580636
5080951 261 17627501645895819770
5081480 168 18412258450082714900
508180 173 18410289173555663345
513532 50 18200294598949562874
5252454 2 17894899742144172539
6086070 43 18336538395760968187
613672 6 18201170884200602542
7399639 24 17113269287063775586

>  <PUBCHEM_SHAPE_MULTIPOLES>  (1) 
634.39
14.41
5.2
2.28
3.14
8.58
0.64
-4.78
7.32
-5.18
-1.25
0.84
-0.53
2.41

>  <PUBCHEM_SHAPE_SELFOVERLAP>  (1) 
1340.27

>  <PUBCHEM_SHAPE_VOLUME>  (1) 
356.4

>  <PUBCHEM_COORDINATE_TYPE>  (1) 
2
5
10

$$$$
