19871
     RDKit          3D

  8  7  0  0  1  0  0  0  0  0999 V2000
   -0.7123    1.5709    0.0618 O   0  0  0  0  0  0  0  0  0  0  0  0
    1.0189   -0.1303   -0.0228 C   0  0  0  0  0  0  0  0  0  0  0  0
   -0.4543    0.2371   -0.3867 C   0  0  0  0  0  0  0  0  0  0  0  0
   -1.5234   -0.6981    0.2039 C   0  0  0  0  0  0  0  0  0  0  0  0
    1.9694    0.9215   -0.6369 C   0  0  0  0  0  0  0  0  0  0  0  0
    1.2267   -0.1254    1.5030 C   0  0  0  0  0  0  0  0  0  0  0  0
    1.4183   -1.5113   -0.5762 C   0  0  0  0  0  0  0  0  0  0  0  0
   -2.9433   -0.2645   -0.1461 C   0  0  0  0  0  0  0  0  0  0  0  0
  1  3  1  0
  2  3  1  0
  2  5  1  0
  2  6  1  0
  2  7  1  0
  3  4  1  0
  4  8  1  0
M  END
>  <PUBCHEM_COMPOUND_CID>  (1) 
19871

>  <PUBCHEM_CONFORMER_RMSD>  (1) 
0.4

>  <PUBCHEM_CONFORMER_DIVERSEORDER>  (1) 
1
4
2
3

>  <PUBCHEM_MMFF94_PARTIAL_CHARGES>  (1) 
3
1 -0.68
24 0.4
3 0.28

>  <PUBCHEM_EFFECTIVE_ROTOR_COUNT>  (1) 
2

>  <PUBCHEM_PHARMACOPHORE_FEATURES>  (1) 
4
1 1 acceptor
1 1 donor
1 8 hydrophobe
4 2 5 6 7 hydrophobe

>  <PUBCHEM_HEAVY_ATOM_COUNT>  (1) 
8

>  <PUBCHEM_ATOM_DEF_STEREO_COUNT>  (1) 
0

>  <PUBCHEM_ATOM_UDEF_STEREO_COUNT>  (1) 
1

>  <PUBCHEM_BOND_DEF_STEREO_COUNT>  (1) 
0

>  <PUBCHEM_BOND_UDEF_STEREO_COUNT>  (1) 
0

>  <PUBCHEM_ISOTOPIC_ATOM_COUNT>  (1) 
0

>  <PUBCHEM_COMPONENT_COUNT>  (1) 
1

>  <PUBCHEM_CACTVS_TAUTO_COUNT>  (1) 
1

>  <PUBCHEM_CONFORMER_ID>  (1) 
00004D9F00000001

>  <PUBCHEM_MMFF94_ENERGY>  (1) 
17.6944

>  <PUBCHEM_FEATURE_SELFOVERLAP>  (1) 
20.297

>  <PUBCHEM_SHAPE_FINGERPRINT>  (1) 
12897270 3 18338529619718335748
12932764 1 17275385417605901143
14128692 85 18057339300835062998
20711978 78 17346026762745990871
21040471 1 18200026386161662934
23552333 60 17822004307086229169
23552423 10 18263087625911352095
23552449 11 17676755518137381146
24536 1 18265602208845638404
29004967 10 18410863199843943059
5084963 1 18200594683460027043
5943 1 13895362334397958114

>  <PUBCHEM_SHAPE_MULTIPOLES>  (1) 
158.77
3.2
1.32
1.02
2.27
0.02
-0.37
-0.2
0.29
-0.36
0.21
-0.5
-0.07
-0.01

>  <PUBCHEM_SHAPE_SELFOVERLAP>  (1) 
286.241

>  <PUBCHEM_SHAPE_VOLUME>  (1) 
104.5

>  <PUBCHEM_COORDINATE_TYPE>  (1) 
2
5
10

$$$$
