19875
     RDKit          3D

 13 13  0  0  1  0  0  0  0  0999 V2000
   -3.2394    1.3794    0.5485 O   0  0  0  0  0  0  0  0  0  0  0  0
   -1.0536    0.1459   -0.6593 N   0  0  0  0  0  0  0  0  0  0  0  0
   -2.3403   -0.3645   -0.7044 N   0  0  0  0  0  0  0  0  0  0  0  0
   -0.1495   -0.8174   -0.0460 C   0  0  0  0  0  0  0  0  0  0  0  0
    1.2799   -0.3132   -0.0434 C   0  0  0  0  0  0  0  0  0  0  0  0
   -0.6341   -1.1551    1.3659 C   0  0  0  0  0  0  0  0  0  0  0  0
    1.5151    1.0429    0.0919 C   0  0  0  0  0  0  0  0  0  0  0  0
    2.3145   -1.2213   -0.1759 C   0  0  0  0  0  0  0  0  0  0  0  0
    2.8305    1.5071    0.0945 C   0  0  0  0  0  0  0  0  0  0  0  0
    3.6299   -0.7570   -0.1732 C   0  0  0  0  0  0  0  0  0  0  0  0
    3.8878    0.6072   -0.0380 C   0  0  0  0  0  0  0  0  0  0  0  0
   -3.3578    0.3251   -0.0715 C   0  0  0  0  0  0  0  0  0  0  0  0
   -4.6830   -0.3791   -0.1890 C   0  0  0  0  0  0  0  0  0  0  0  0
  1 12  2  0
  2  3  1  0
  2  4  1  0
  3 12  1  0
  4  5  1  0
  4  6  1  0
  5  7  2  0
  5  8  1  0
  7  9  1  0
  8 10  2  0
  9 11  2  0
 10 11  1  0
 12 13  1  0
M  END
>  <PUBCHEM_COMPOUND_CID>  (1) 
19875

>  <PUBCHEM_CONFORMER_RMSD>  (1) 
0.6

>  <PUBCHEM_CONFORMER_DIVERSEORDER>  (1) 
2
3
19
9
5
7
6
17
20
11
14
13
18
8
15
10
1
4
12
16

>  <PUBCHEM_MMFF94_PARTIAL_CHARGES>  (1) 
19
1 -0.57
10 -0.15
11 -0.15
12 0.57
13 0.06
18 0.36
19 0.15
2 -0.64
20 0.15
21 0.37
22 0.15
23 0.15
24 0.15
3 -0.42
4 0.41
5 -0.14
7 -0.15
8 -0.15
9 -0.15

>  <PUBCHEM_EFFECTIVE_ROTOR_COUNT>  (1) 
4

>  <PUBCHEM_PHARMACOPHORE_FEATURES>  (1) 
4
1 1 acceptor
1 2 donor
1 3 donor
6 5 7 8 9 10 11 rings

>  <PUBCHEM_HEAVY_ATOM_COUNT>  (1) 
13

>  <PUBCHEM_ATOM_DEF_STEREO_COUNT>  (1) 
0

>  <PUBCHEM_ATOM_UDEF_STEREO_COUNT>  (1) 
1

>  <PUBCHEM_BOND_DEF_STEREO_COUNT>  (1) 
0

>  <PUBCHEM_BOND_UDEF_STEREO_COUNT>  (1) 
0

>  <PUBCHEM_ISOTOPIC_ATOM_COUNT>  (1) 
0

>  <PUBCHEM_COMPONENT_COUNT>  (1) 
1

>  <PUBCHEM_CACTVS_TAUTO_COUNT>  (1) 
2

>  <PUBCHEM_CONFORMER_ID>  (1) 
00004DA300000002

>  <PUBCHEM_MMFF94_ENERGY>  (1) 
26.5982

>  <PUBCHEM_FEATURE_SELFOVERLAP>  (1) 
21.788

>  <PUBCHEM_SHAPE_FINGERPRINT>  (1) 
10130415 120 18334288743815370514
11031198 65 18410860983888712366
11062470 55 9943804495557074879
11132069 177 17530685433185018619
11471102 20 18410572886093484660
12162725 195 18343585131349351009
12932764 1 17676193667701057206
13380535 76 18335139816917507362
14123238 8 17775002401418045239
14325111 11 18411418414540080789
14415576 193 18343586248156821292
15219456 202 18261961854990626538
15442244 35 18054793884076805154
17802600 8 18413101754015780881
17834072 33 18271800255329800527
18186145 218 18334574607584084239
200 152 17846780697996162914
20279233 1 16950281802040361731
20645477 70 18271810086331047766
21119208 17 17704072893140477005
23402539 116 18335973233656165999
23402655 69 18342454824684854029
25 1 18407759222884720474
276578 36 16660640735216491586
4047638 21 18259985989782756098
69090 78 18408881867116954791
77779 3 18343021090642918231
81228 2 17025726050568734163

>  <PUBCHEM_SHAPE_MULTIPOLES>  (1) 
251.7
8.08
1.38
0.83
5.34
0.17
-0.16
1.14
0.61
-0.61
-0.2
0.24
-0.15
0.05

>  <PUBCHEM_SHAPE_SELFOVERLAP>  (1) 
509.672

>  <PUBCHEM_SHAPE_VOLUME>  (1) 
147

>  <PUBCHEM_COORDINATE_TYPE>  (1) 
2
5
10

$$$$
