19872
     RDKit          3D

 14 13  0  0  1  0  0  0  0  0999 V2000
    3.0217   -1.9737   -0.6393 O   0  0  0  0  0  0  0  0  0  0  0  0
    3.0725   -1.2168    1.4984 O   0  0  0  0  0  0  0  0  0  0  0  0
   -5.9845    0.3912    0.4556 O   0  0  0  0  0  0  0  0  0  0  0  0
   -4.8433   -1.1839   -0.7303 O   0  0  0  0  0  0  0  0  0  0  0  0
    1.4448    0.9876    0.1397 C   0  0  0  0  0  0  0  0  0  0  0  0
    2.7883    0.3870   -0.3192 C   0  0  0  0  0  0  0  0  0  0  0  0
    0.2057    0.1897   -0.2864 C   0  0  0  0  0  0  0  0  0  0  0  0
   -1.1120    0.8427    0.1480 C   0  0  0  0  0  0  0  0  0  0  0  0
    3.9822    1.3126   -0.0274 C   0  0  0  0  0  0  0  0  0  0  0  0
   -2.3488    0.0099   -0.2050 C   0  0  0  0  0  0  0  0  0  0  0  0
    2.9790   -0.9919    0.2989 C   0  0  0  0  0  0  0  0  0  0  0  0
   -3.6409    0.6467    0.3002 C   0  0  0  0  0  0  0  0  0  0  0  0
    5.2942    0.7601   -0.5730 C   0  0  0  0  0  0  0  0  0  0  0  0
   -4.8592   -0.1612   -0.0603 C   0  0  0  0  0  0  0  0  0  0  0  0
  1 11  1  0
  2 11  2  0
  3 14  1  0
  4 14  2  0
  5  6  1  0
  5  7  1  0
  6  9  1  0
  6 11  1  0
  7  8  1  0
  8 10  1  0
  9 13  1  0
 10 12  1  0
 12 14  1  0
M  END
>  <PUBCHEM_COMPOUND_CID>  (1) 
19872

>  <PUBCHEM_CONFORMER_RMSD>  (1) 
0.8

>  <PUBCHEM_CONFORMER_DIVERSEORDER>  (1) 
1
191
32
43
204
102
206
74
194
219
11
171
116
111
97
178
22
7
146
142
134
193
38
78
201
192
127
211
14
226
75
133
209
166
158
53
163
106
208
26
179
188
25
18
47
147
155
46
136
115
30
200
67
223
59
123
164
104
21
182
118
214
88
86
215
221
108
62
5
140
150
173
9
196
2
36
151
138
156
19
71
70
185
198
45
131
224
3
34
76
16
110
154
93
20
139
162
152
153
33
103
217
189
225
149
58
207
6
141
84
63
96
15
172
4
174
124
83
39
125
91
160
40
120
44
183
87
137
218
195
186
143
101
216
135
100
27
197
176
129
90
31
187
73
64
170
190
112
165
161
144
167
202
56
168
119
42
177
57
180
145
114
81
175
122
89
213
99
203
107
92
212
132
29
52
199
61
159
13
126
181
24
210
98
37
157
12
169
17
79
113
51
85
72
121
220
77
23
49
130
95
28
105
8
69
10
35
94
222
117
148
54
184
66
60
41
205
128
50
80
48
65
109
55
82
68

>  <PUBCHEM_MMFF94_PARTIAL_CHARGES>  (1) 
10
1 -0.65
11 0.66
12 0.06
14 0.66
2 -0.57
3 -0.65
31 0.5
32 0.5
4 -0.57
6 0.06

>  <PUBCHEM_EFFECTIVE_ROTOR_COUNT>  (1) 
8

>  <PUBCHEM_PHARMACOPHORE_FEATURES>  (1) 
7
1 1 acceptor
1 13 hydrophobe
1 2 acceptor
1 3 acceptor
1 4 acceptor
3 1 2 11 anion
3 3 4 14 anion

>  <PUBCHEM_HEAVY_ATOM_COUNT>  (1) 
14

>  <PUBCHEM_ATOM_DEF_STEREO_COUNT>  (1) 
0

>  <PUBCHEM_ATOM_UDEF_STEREO_COUNT>  (1) 
1

>  <PUBCHEM_BOND_DEF_STEREO_COUNT>  (1) 
0

>  <PUBCHEM_BOND_UDEF_STEREO_COUNT>  (1) 
0

>  <PUBCHEM_ISOTOPIC_ATOM_COUNT>  (1) 
0

>  <PUBCHEM_COMPONENT_COUNT>  (1) 
1

>  <PUBCHEM_CACTVS_TAUTO_COUNT>  (1) 
1

>  <PUBCHEM_CONFORMER_ID>  (1) 
00004DA000000001

>  <PUBCHEM_MMFF94_ENERGY>  (1) 
8.5406

>  <PUBCHEM_FEATURE_SELFOVERLAP>  (1) 
35.638

>  <PUBCHEM_SHAPE_FINGERPRINT>  (1) 
10912923 1 18342739611476839465
11287383 113 16660650690961486057
12107183 9 17694229863501785433
12616999 72 18343867710475457206
13167823 11 18412543211020292367
13533116 47 18272370832923820635
14123238 8 18259703414988722477
14251718 22 18341051903713931117
14252887 29 18408327666090653504
15242433 33 18412827997147672023
15375358 24 17386009493920521472
17834072 33 18413671326639707772
17834076 25 18186803599539397468
20279233 1 16950289502790285544
20645477 70 18334294223851144858
220451 1 18343025501827473751
22485316 2 18410009944782842829
23402539 116 18201435900561480485
23402655 69 18408601444354263397
23532345 1 17967820482895579708
23557571 272 15430307019318555780
300161 21 18411132546102126037
33824 294 18040996228882664594
42 15 18342457024077101645
42788 4 18273498991899064725
522135 26 18413108346827113756
5374978 207 18343578529852872033
58051976 378 18040721389503760476

>  <PUBCHEM_SHAPE_MULTIPOLES>  (1) 
264.64
13.17
1.4
0.84
12.29
0.51
0.14
-0.11
-0.63
-1.37
-0.02
-0.36
0.21
-0.7

>  <PUBCHEM_SHAPE_SELFOVERLAP>  (1) 
496.016

>  <PUBCHEM_SHAPE_VOLUME>  (1) 
164.4

>  <PUBCHEM_COORDINATE_TYPE>  (1) 
2
5
10

$$$$
