19878
     RDKit          3D

 10 10  0  0  0  0  0  0  0  0999 V2000
   -2.7162   -0.0105   -0.0003 N   0  0  0  0  0  0  0  0  0  0  0  0
    1.5700    0.0019   -0.0001 C   0  0  0  0  0  0  0  0  0  0  0  0
    0.0222   -0.0028    0.0006 C   0  0  0  0  0  0  0  0  0  0  0  0
    2.0924    0.7305    1.2574 C   0  0  0  0  0  0  0  0  0  0  0  0
    2.0916    0.7212   -1.2631 C   0  0  0  0  0  0  0  0  0  0  0  0
    2.1854   -1.4147    0.0048 C   0  0  0  0  0  0  0  0  0  0  0  0
   -0.6225    1.1981    0.0002 C   0  0  0  0  0  0  0  0  0  0  0  0
   -0.6156   -1.2071    0.0005 C   0  0  0  0  0  0  0  0  0  0  0  0
   -2.0069    1.1404   -0.0002 C   0  0  0  0  0  0  0  0  0  0  0  0
   -2.0003   -1.1571    0.0002 C   0  0  0  0  0  0  0  0  0  0  0  0
  1  9  2  0
  1 10  1  0
  2  3  1  0
  2  4  1  0
  2  5  1  0
  2  6  1  0
  3  7  2  0
  3  8  1  0
  7  9  1  0
  8 10  2  0
M  END
>  <PUBCHEM_COMPOUND_CID>  (1) 
19878

>  <PUBCHEM_CONFORMER_RMSD>  (1) 
0.4

>  <PUBCHEM_CONFORMER_DIVERSEORDER>  (1) 
1

>  <PUBCHEM_MMFF94_PARTIAL_CHARGES>  (1) 
11
1 -0.62
10 0.16
2 0.14
20 0.15
21 0.15
22 0.15
23 0.15
3 -0.14
7 -0.15
8 -0.15
9 0.16

>  <PUBCHEM_EFFECTIVE_ROTOR_COUNT>  (1) 
1

>  <PUBCHEM_PHARMACOPHORE_FEATURES>  (1) 
3
1 1 acceptor
4 2 4 5 6 hydrophobe
6 1 3 7 8 9 10 rings

>  <PUBCHEM_HEAVY_ATOM_COUNT>  (1) 
10

>  <PUBCHEM_ATOM_DEF_STEREO_COUNT>  (1) 
0

>  <PUBCHEM_ATOM_UDEF_STEREO_COUNT>  (1) 
0

>  <PUBCHEM_BOND_DEF_STEREO_COUNT>  (1) 
0

>  <PUBCHEM_BOND_UDEF_STEREO_COUNT>  (1) 
0

>  <PUBCHEM_ISOTOPIC_ATOM_COUNT>  (1) 
0

>  <PUBCHEM_COMPONENT_COUNT>  (1) 
1

>  <PUBCHEM_CACTVS_TAUTO_COUNT>  (1) 
1

>  <PUBCHEM_CONFORMER_ID>  (1) 
00004DA600000001

>  <PUBCHEM_MMFF94_ENERGY>  (1) 
35.8485

>  <PUBCHEM_FEATURE_SELFOVERLAP>  (1) 
15.223

>  <PUBCHEM_SHAPE_FINGERPRINT>  (1) 
10857977 72 18339634672001571105
12326174 3 16630527323914144566
12897270 3 18264219156499032580
12932764 1 18060422438591742495
14128692 85 18265906769725414662
16945 1 18338517563876991333
19973954 147 18343861108578181328
20645464 45 17846210089994577816
21040471 1 18410575054677487585
23552423 10 18187649084978363282
2748010 2 18411417289322056783
29004967 10 18340768255388732331
3248919 1 18040712597457759667
369184 2 18060128843259416635
5084963 1 18262801752708554817
8030462 33 18411699902322669663

>  <PUBCHEM_SHAPE_MULTIPOLES>  (1) 
200.81
3.72
1.49
0.93
0.47
0.22
0
0.05
0
0.09
0
-0.68
-0.24
0

>  <PUBCHEM_SHAPE_SELFOVERLAP>  (1) 
410.445

>  <PUBCHEM_SHAPE_VOLUME>  (1) 
116.7

>  <PUBCHEM_COORDINATE_TYPE>  (1) 
2
5
10

$$$$
