19883
     RDKit          3D

  5  4  0  0  0  0  0  0  0  0999 V2000
   -0.7075    1.8243    0.1372 Cl  0  0  0  0  0  0  0  0  0  0  0  0
   -0.7068   -1.0315    1.5112 Cl  0  0  0  0  0  0  0  0  0  0  0  0
   -0.7058   -0.7936   -1.6489 Cl  0  0  0  0  0  0  0  0  0  0  0  0
    2.0233    0.0007    0.0006 S   0  0  0  0  0  0  0  0  0  0  0  0
    0.0968    0.0001    0.0000 P   0  0  0  0  0  0  0  0  0  0  0  0
  1  5  1  0
  2  5  1  0
  3  5  1  0
  4  5  2  0
M  END
>  <PUBCHEM_COMPOUND_CID>  (1) 
19883

>  <PUBCHEM_CONFORMER_RMSD>  (1) 
0.4

>  <PUBCHEM_CONFORMER_DIVERSEORDER>  (1) 
1

>  <PUBCHEM_MMFF94_PARTIAL_CHARGES>  (1) 
5
1 -0.32
2 -0.32
3 -0.32
4 -0.68
5 1.63

>  <PUBCHEM_EFFECTIVE_ROTOR_COUNT>  (1) 
0

>  <PUBCHEM_PHARMACOPHORE_FEATURES>  (1) 
0

>  <PUBCHEM_HEAVY_ATOM_COUNT>  (1) 
5

>  <PUBCHEM_ATOM_DEF_STEREO_COUNT>  (1) 
0

>  <PUBCHEM_ATOM_UDEF_STEREO_COUNT>  (1) 
0

>  <PUBCHEM_BOND_DEF_STEREO_COUNT>  (1) 
0

>  <PUBCHEM_BOND_UDEF_STEREO_COUNT>  (1) 
0

>  <PUBCHEM_ISOTOPIC_ATOM_COUNT>  (1) 
0

>  <PUBCHEM_COMPONENT_COUNT>  (1) 
1

>  <PUBCHEM_CACTVS_TAUTO_COUNT>  (1) 
1

>  <PUBCHEM_CONFORMER_ID>  (1) 
00004DAB00000001

>  <PUBCHEM_MMFF94_ENERGY>  (1) 
5.894

>  <PUBCHEM_FEATURE_SELFOVERLAP>  (1) 
0

>  <PUBCHEM_SHAPE_FINGERPRINT>  (1) 
16714656 1 15864337108137228599
5943 1 10301245971586120835

>  <PUBCHEM_SHAPE_MULTIPOLES>  (1) 
116.21
1.82
1.64
1.64
1.46
0.88
0.14
0
0
-0.7
-0.14
-0.7
-0.88
0

>  <PUBCHEM_SHAPE_SELFOVERLAP>  (1) 
158.615

>  <PUBCHEM_SHAPE_VOLUME>  (1) 
92.2

>  <PUBCHEM_COORDINATE_TYPE>  (1) 
2
5
10

$$$$
