19889
     RDKit          3D

 15 15  0  0  0  0  0  0  0  0999 V2000
   -2.1755   -0.0124   -0.9701 O   0  0  0  0  0  0  0  0  0  0  0  0
   -2.6388    0.0204    1.3082 O   0  0  0  0  0  0  0  0  0  0  0  0
    3.2870    0.0027    0.2487 N   0  0  0  0  0  0  0  0  0  0  0  0
   -4.3550   -0.0003   -0.2527 N   0  0  0  0  0  0  0  0  0  0  0  0
    1.7931   -0.0013   -0.0844 C   0  0  0  0  0  0  0  0  0  0  0  0
    4.0376   -0.7381   -0.8542 C   0  0  0  0  0  0  0  0  0  0  0  0
    3.4911   -0.6808    1.5980 C   0  0  0  0  0  0  0  0  0  0  0  0
    3.8539    1.4177    0.3426 C   0  0  0  0  0  0  0  0  0  0  0  0
    1.1939   -1.2107   -0.1987 C   0  0  0  0  0  0  0  0  0  0  0  0
    1.1956    1.2050   -0.2368 C   0  0  0  0  0  0  0  0  0  0  0  0
   -0.1676   -1.2145   -0.5022 C   0  0  0  0  0  0  0  0  0  0  0  0
   -0.1659    1.2013   -0.5403 C   0  0  0  0  0  0  0  0  0  0  0  0
   -0.8476   -0.0086   -0.6729 C   0  0  0  0  0  0  0  0  0  0  0  0
   -3.0342    0.0052    0.1463 C   0  0  0  0  0  0  0  0  0  0  0  0
   -5.4675    0.0144    0.6685 C   0  0  0  0  0  0  0  0  0  0  0  0
  1 13  1  0
  1 14  1  0
  2 14  2  0
  3  5  1  0
  3  6  1  0
  3  7  1  0
  3  8  1  0
  4 14  1  0
  4 15  1  0
  5  9  2  0
  5 10  1  0
  9 11  1  0
 10 12  2  0
 11 13  2  0
 12 13  1  0
M  CHG  1   3   1
M  END
>  <PUBCHEM_COMPOUND_CID>  (1) 
19889

>  <PUBCHEM_CONFORMER_RMSD>  (1) 
0.6

>  <PUBCHEM_CONFORMER_DIVERSEORDER>  (1) 
1
11
12
15
14
16
3
6
4
5
13
2
8
9
17
7
10

>  <PUBCHEM_MMFF94_PARTIAL_CHARGES>  (1) 
20
1 -0.23
10 -0.15
11 -0.15
12 -0.15
13 0.08
14 0.78
15 0.3
2 -0.57
25 0.15
26 0.15
27 0.15
28 0.15
29 0.37
3 -0.87
4 -0.73
5 0.36
6 0.5
7 0.5
8 0.5
9 -0.15

>  <PUBCHEM_EFFECTIVE_ROTOR_COUNT>  (1) 
4

>  <PUBCHEM_PHARMACOPHORE_FEATURES>  (1) 
4
1 2 acceptor
1 3 cation
1 4 donor
6 5 9 10 11 12 13 rings

>  <PUBCHEM_HEAVY_ATOM_COUNT>  (1) 
15

>  <PUBCHEM_ATOM_DEF_STEREO_COUNT>  (1) 
0

>  <PUBCHEM_ATOM_UDEF_STEREO_COUNT>  (1) 
0

>  <PUBCHEM_BOND_DEF_STEREO_COUNT>  (1) 
0

>  <PUBCHEM_BOND_UDEF_STEREO_COUNT>  (1) 
0

>  <PUBCHEM_ISOTOPIC_ATOM_COUNT>  (1) 
0

>  <PUBCHEM_COMPONENT_COUNT>  (1) 
1

>  <PUBCHEM_CACTVS_TAUTO_COUNT>  (1) 
2

>  <PUBCHEM_CONFORMER_ID>  (1) 
00004DB100000001

>  <PUBCHEM_MMFF94_ENERGY>  (1) 
59.2456

>  <PUBCHEM_FEATURE_SELFOVERLAP>  (1) 
20.297

>  <PUBCHEM_SHAPE_FINGERPRINT>  (1) 
10219947 1 18410576188538284908
10498660 4 14835577838691831755
11132069 177 18272641359611954406
12032990 46 18335703802079048126
12236239 1 17703790323733005053
12251169 10 18334859441599760159
13571099 22 10303816514314302252
13675066 3 17989205949605965605
13760787 19 16805612481452602578
13760787 5 18334284384017506782
14252887 29 18334301941648757091
14350558 41 16153426108502116530
14943859 89 15267339626252821039
15309172 13 18412259527934707918
16945 1 18339348700452674822
18186145 218 17632291264037054740
19026448 4 16226032376016762782
19026448 5 16200141114865880500
200 152 11602813614390360079
20281407 28 17240485814095411896
20645477 70 10809332339539739240
21119208 17 11891332062978893699
212847 35 16845575313953590552
22485316 2 17313101968893935299
22854114 59 18412261739937531409
23048698 100 17988928872390942552
23402539 116 14908175327198573245
23557571 272 16733263443713252174
23559900 14 11959733789592516676
265663 24 15985102998623834903
2748010 2 17980188700249123718
3286 77 12252167577232493638
351380 180 15123508094838748275
4047638 21 14979955882591631786
42 15 17346601854619424087
465052 167 18040442087422084955
5374978 207 18040147414242774320

>  <PUBCHEM_SHAPE_MULTIPOLES>  (1) 
286.99
9.2
1.23
1.09
8.17
0.15
-0.3
0.08
-2.36
-1.01
0.08
-0.32
-0.15
0.04

>  <PUBCHEM_SHAPE_SELFOVERLAP>  (1) 
583.443

>  <PUBCHEM_SHAPE_VOLUME>  (1) 
168.6

>  <PUBCHEM_COORDINATE_TYPE>  (1) 
2
5
10

$$$$
