19892
     RDKit          3D

 13 12  0  0  0  0  0  0  0  0999 V2000
   -4.3648    0.0616   -0.0186 P   0  0  0  0  0  0  0  0  0  0  0  0
   -2.8648    0.6659   -0.0056 O   0  0  0  0  0  0  0  0  0  0  0  0
   -4.3845   -0.9464    1.2457 O   0  0  0  0  0  0  0  0  0  0  0  0
   -4.3373   -0.9372   -1.2901 O   0  0  0  0  0  0  0  0  0  0  0  0
   -5.4620    1.0852   -0.0404 O   0  0  0  0  0  0  0  0  0  0  0  0
    2.0478    0.4433    0.0813 C   0  0  0  0  0  0  0  0  0  0  0  0
    3.3075   -0.4274    0.0664 C   0  0  0  0  0  0  0  0  0  0  0  0
    0.7490   -0.3645    0.0303 C   0  0  0  0  0  0  0  0  0  0  0  0
    4.6063    0.3812    0.0429 C   0  0  0  0  0  0  0  0  0  0  0  0
   -0.4729    0.5528    0.0241 C   0  0  0  0  0  0  0  0  0  0  0  0
    5.8274   -0.5357   -0.0446 C   0  0  0  0  0  0  0  0  0  0  0  0
   -1.7715   -0.2413    0.0151 C   0  0  0  0  0  0  0  0  0  0  0  0
    7.1200    0.2624   -0.1068 C   0  0  0  0  0  0  0  0  0  0  0  0
  1  2  1  0
  1  3  1  0
  1  4  1  0
  1  5  2  0
  2 12  1  0
  6  7  1  0
  6  8  1  0
  7  9  1  0
  8 10  1  0
  9 11  1  0
 10 12  1  0
 11 13  1  0
M  END
>  <PUBCHEM_COMPOUND_CID>  (1) 
19892

>  <PUBCHEM_CONFORMER_RMSD>  (1) 
0.8

>  <PUBCHEM_CONFORMER_DIVERSEORDER>  (1) 
1
107
95
80
66
55
9
97
27
39
50
106
3
102
33
34
41
76
35
17
90
10
83
59
13
81
31
11
54
79
91
108
84
58
86
57
8
69
77
7
48
44
14
103
26
64
18
62
12
4
63
78
40
82
5
56
51
104
89
47
25
96
32
6
52
38
49
24
61
53
101
73
105
71
60
2
45
70
68
100
28
42
67
20
109
72
46
93
23
30
87
98
88
37
65
99
15
85
75
21
92
16
74
19
43
94
29
22
36

>  <PUBCHEM_MMFF94_PARTIAL_CHARGES>  (1) 
8
1 1.51
12 0.28
2 -0.55
3 -0.77
31 0.5
32 0.5
4 -0.77
5 -0.7

>  <PUBCHEM_EFFECTIVE_ROTOR_COUNT>  (1) 
8

>  <PUBCHEM_PHARMACOPHORE_FEATURES>  (1) 
7
1 13 hydrophobe
1 3 acceptor
1 4 acceptor
1 5 acceptor
3 6 8 10 hydrophobe
3 7 9 11 hydrophobe
4 1 3 4 5 anion

>  <PUBCHEM_HEAVY_ATOM_COUNT>  (1) 
13

>  <PUBCHEM_ATOM_DEF_STEREO_COUNT>  (1) 
0

>  <PUBCHEM_ATOM_UDEF_STEREO_COUNT>  (1) 
0

>  <PUBCHEM_BOND_DEF_STEREO_COUNT>  (1) 
0

>  <PUBCHEM_BOND_UDEF_STEREO_COUNT>  (1) 
0

>  <PUBCHEM_ISOTOPIC_ATOM_COUNT>  (1) 
0

>  <PUBCHEM_COMPONENT_COUNT>  (1) 
1

>  <PUBCHEM_CACTVS_TAUTO_COUNT>  (1) 
1

>  <PUBCHEM_CONFORMER_ID>  (1) 
00004DB400000001

>  <PUBCHEM_MMFF94_ENERGY>  (1) 
-28.7008

>  <PUBCHEM_FEATURE_SELFOVERLAP>  (1) 
35.569

>  <PUBCHEM_SHAPE_FINGERPRINT>  (1) 
11287383 113 17894917356041865048
12091667 2 18341895194682850673
13288520 33 17846776339147618223
13533116 47 18187356581585927402
14123238 8 18411136931311013094
1420 363 18334863818277001354
14251718 22 16950284022622843354
14251764 46 17749109989637901209
17834072 33 18201999958500205028
17834076 25 11963391843123598156
20645477 70 18340487743392589926
220451 1 17775288261830957662
23402539 116 18272928327936245781
23521765 1 18342175562117207112
42788 4 18410293610134839120
4463277 17 18411699885654750024
57483677 66 18202561761692278606
8209 1 18413670206143724004

>  <PUBCHEM_SHAPE_MULTIPOLES>  (1) 
247.91
17.24
0.91
0.79
12.17
0
0.01
-0.15
0.55
-0.62
0
-0.79
0.18
0.01

>  <PUBCHEM_SHAPE_SELFOVERLAP>  (1) 
436.192

>  <PUBCHEM_SHAPE_VOLUME>  (1) 
162.4

>  <PUBCHEM_COORDINATE_TYPE>  (1) 
2
5
10

$$$$
