19894
     RDKit          3D

 17 17  0  0  0  0  0  0  0  0999 V2000
    5.7151    1.4563    0.3598 Cl  0  0  0  0  0  0  0  0  0  0  0  0
   -2.9537    1.1336    0.0619 O   0  0  0  0  0  0  0  0  0  0  0  0
   -4.1571   -0.8338   -0.2394 O   0  0  0  0  0  0  0  0  0  0  0  0
    0.4148   -1.0534   -0.4565 N   0  0  0  0  0  0  0  0  0  0  0  0
   -0.6987   -0.2977   -0.5241 N   0  0  0  0  0  0  0  0  0  0  0  0
   -1.4109   -3.2738    0.7174 N   0  0  0  0  0  0  0  0  0  0  0  0
    1.6718   -0.4585   -0.2629 C   0  0  0  0  0  0  0  0  0  0  0  0
    2.8228   -1.2495   -0.2004 C   0  0  0  0  0  0  0  0  0  0  0  0
    1.7807    0.9290   -0.1314 C   0  0  0  0  0  0  0  0  0  0  0  0
    4.0715   -0.6582   -0.0081 C   0  0  0  0  0  0  0  0  0  0  0  0
    3.0294    1.5203    0.0610 C   0  0  0  0  0  0  0  0  0  0  0  0
    4.1748    0.7266    0.1226 C   0  0  0  0  0  0  0  0  0  0  0  0
   -4.1542    1.9105    0.0892 C   0  0  0  0  0  0  0  0  0  0  0  0
   -3.7940    3.3680    0.2832 C   0  0  0  0  0  0  0  0  0  0  0  0
   -1.7960   -0.8425   -0.1121 C   0  0  0  0  0  0  0  0  0  0  0  0
   -3.1359   -0.1894   -0.1063 C   0  0  0  0  0  0  0  0  0  0  0  0
   -1.5804   -2.1876    0.3461 C   0  0  0  0  0  0  0  0  0  0  0  0
  1 12  1  0
  2 13  1  0
  2 16  1  0
  3 16  2  0
  4  5  1  0
  4  7  1  0
  5 15  2  0
  6 17  3  0
  7  8  2  0
  7  9  1  0
  8 10  1  0
  9 11  2  0
 10 12  2  0
 11 12  1  0
 13 14  1  0
 15 16  1  0
 15 17  1  0
M  END
>  <PUBCHEM_COMPOUND_CID>  (1) 
19894

>  <PUBCHEM_CONFORMER_RMSD>  (1) 
0.6

>  <PUBCHEM_CONFORMER_DIVERSEORDER>  (1) 
1
52
40
36
10
20
48
29
6
26
27
24
5
35
33
19
7
21
30
51
46
42
43
28
44
4
22
16
50
11
49
34
14
45
41
8
31
25
3
23
13
38
15
2
18
17
37
12
47
9
32
39

>  <PUBCHEM_MMFF94_PARTIAL_CHARGES>  (1) 
21
1 -0.18
10 -0.15
11 -0.15
12 0.18
13 0.28
15 0.56
16 0.72
17 0.45
18 0.15
19 0.15
2 -0.43
20 0.15
21 0.15
22 0.4
3 -0.57
4 -0.46
5 -0.49
6 -0.56
7 0.1
8 -0.15
9 -0.15

>  <PUBCHEM_EFFECTIVE_ROTOR_COUNT>  (1) 
5

>  <PUBCHEM_PHARMACOPHORE_FEATURES>  (1) 
5
1 3 acceptor
1 4 donor
1 5 acceptor
1 6 acceptor
6 7 8 9 10 11 12 rings

>  <PUBCHEM_HEAVY_ATOM_COUNT>  (1) 
17

>  <PUBCHEM_ATOM_DEF_STEREO_COUNT>  (1) 
0

>  <PUBCHEM_ATOM_UDEF_STEREO_COUNT>  (1) 
0

>  <PUBCHEM_BOND_DEF_STEREO_COUNT>  (1) 
0

>  <PUBCHEM_BOND_UDEF_STEREO_COUNT>  (1) 
1

>  <PUBCHEM_ISOTOPIC_ATOM_COUNT>  (1) 
0

>  <PUBCHEM_COMPONENT_COUNT>  (1) 
1

>  <PUBCHEM_CACTVS_TAUTO_COUNT>  (1) 
1

>  <PUBCHEM_CONFORMER_ID>  (1) 
00004DB600000001

>  <PUBCHEM_MMFF94_ENERGY>  (1) 
49.3013

>  <PUBCHEM_FEATURE_SELFOVERLAP>  (1) 
25.373

>  <PUBCHEM_SHAPE_FINGERPRINT>  (1) 
10608611 8 18340768238356478036
12107183 9 18047744910894681898
12173636 292 18410291441023757463
122479 349 18412265016944941279
12251169 10 18260829357861042950
12390115 104 18270417004977186497
12500047 106 18411134762088914538
14123255 352 18341048523664703733
14123255 52 18265333907019025153
14178342 30 18187646967949993490
14251764 75 17625268503183894033
15196674 1 18412825759438263580
15375358 24 18342176678703462518
17834072 32 18340489946083013225
18186145 218 18335981952497890143
20510252 161 18413394241704915491
20645477 56 18409450318791184779
20645477 70 17060071324130128334
21065198 57 18410012178260938146
212916 134 18268411482497943978
21421861 104 17750784455847948354
21524375 3 18341612556355552463
22182937 141 18412271610178683257
23402539 116 18339354275557939855
23402655 69 18130784542913633756
3545911 37 18339644542037013534
4214541 1 18410011052599503604
5104073 3 18335138657281281578
59124914 9 18051698737291125873
633830 44 18198055885499990071
90127 26 18411149021575496586
9709674 26 18341900713874712038

>  <PUBCHEM_SHAPE_MULTIPOLES>  (1) 
325.04
10.72
3.07
0.68
4.89
0.32
0.02
7.1
0.84
-3.65
0.67
0.03
-0.08
0.22

>  <PUBCHEM_SHAPE_SELFOVERLAP>  (1) 
659.734

>  <PUBCHEM_SHAPE_VOLUME>  (1) 
188.8

>  <PUBCHEM_COORDINATE_TYPE>  (1) 
2
5
10

$$$$
