19890
     RDKit          3D

 11 12  0  0  0  0  0  0  0  0999 V2000
   -3.6589   -0.8896    0.0001 S   0  0  0  0  0  0  0  0  0  0  0  0
   -1.0755   -1.0559    0.0001 O   0  0  0  0  0  0  0  0  0  0  0  0
    0.5107    0.7922    0.0003 C   0  0  0  0  0  0  0  0  0  0  0  0
    0.2503   -0.5761    0.0001 C   0  0  0  0  0  0  0  0  0  0  0  0
    1.8381    1.2263    0.0003 C   0  0  0  0  0  0  0  0  0  0  0  0
   -0.6080    1.7205   -0.0002 C   0  0  0  0  0  0  0  0  0  0  0  0
    1.2775   -1.5177    0.0000 C   0  0  0  0  0  0  0  0  0  0  0  0
    2.8786    0.2928    0.0000 C   0  0  0  0  0  0  0  0  0  0  0  0
    2.5986   -1.0757   -0.0004 C   0  0  0  0  0  0  0  0  0  0  0  0
   -1.8637    1.2637   -0.0004 C   0  0  0  0  0  0  0  0  0  0  0  0
   -2.1478   -0.1804    0.0000 C   0  0  0  0  0  0  0  0  0  0  0  0
  1 11  2  0
  2  4  1  0
  2 11  1  0
  3  4  2  0
  3  5  1  0
  3  6  1  0
  4  7  1  0
  5  8  2  0
  6 10  2  0
  7  9  2  0
  8  9  1  0
 10 11  1  0
M  END
>  <PUBCHEM_COMPOUND_CID>  (1) 
19890

>  <PUBCHEM_CONFORMER_RMSD>  (1) 
0.4

>  <PUBCHEM_CONFORMER_DIVERSEORDER>  (1) 
1

>  <PUBCHEM_MMFF94_PARTIAL_CHARGES>  (1) 
17
1 -0.38
10 -0.14
11 0.52
12 0.15
13 0.15
14 0.15
15 0.15
16 0.15
17 0.15
2 -0.23
3 0.03
4 0.08
5 -0.15
6 -0.18
7 -0.15
8 -0.15
9 -0.15

>  <PUBCHEM_EFFECTIVE_ROTOR_COUNT>  (1) 
0

>  <PUBCHEM_PHARMACOPHORE_FEATURES>  (1) 
3
1 1 acceptor
6 2 3 4 6 10 11 rings
6 3 4 5 7 8 9 rings

>  <PUBCHEM_HEAVY_ATOM_COUNT>  (1) 
11

>  <PUBCHEM_ATOM_DEF_STEREO_COUNT>  (1) 
0

>  <PUBCHEM_ATOM_UDEF_STEREO_COUNT>  (1) 
0

>  <PUBCHEM_BOND_DEF_STEREO_COUNT>  (1) 
0

>  <PUBCHEM_BOND_UDEF_STEREO_COUNT>  (1) 
0

>  <PUBCHEM_ISOTOPIC_ATOM_COUNT>  (1) 
0

>  <PUBCHEM_COMPONENT_COUNT>  (1) 
1

>  <PUBCHEM_CACTVS_TAUTO_COUNT>  (1) 
1

>  <PUBCHEM_CONFORMER_ID>  (1) 
00004DB200000001

>  <PUBCHEM_MMFF94_ENERGY>  (1) 
35.0121

>  <PUBCHEM_FEATURE_SELFOVERLAP>  (1) 
15.251

>  <PUBCHEM_SHAPE_FINGERPRINT>  (1) 
10219947 1 18341334486997932375
11206711 2 18335705996459202965
11471102 20 18410288142651904063
11769659 78 18336541629591370539
12032990 46 18410580590943320007
12897270 3 18409728452125077141
14128692 85 18411986819107307748
14325111 11 18410856542476017473
161256 15 18411980277808974740
16945 1 18410856589810133636
17844478 74 18113907065344586857
17990270 104 18339925900854499862
193761 8 17977946774359575047
19973954 147 18339362946468909204
20201158 50 18334857238160425963
20645477 70 18411695483387313399
20871998 184 18130504137336086327
21040471 1 18266740173669140644
21501502 16 18338239254101410248
21501925 9 18336533954796016698
23402655 69 18412254026672257325
23463225 33 18409167701194872309
23552423 10 18261115131946821540
23559900 14 17405990657584031094
241688 4 18263363598892603376
2748010 2 18339077073334839892
5084963 1 18343865498129417496
528886 8 18339639061321146858

>  <PUBCHEM_SHAPE_MULTIPOLES>  (1) 
224.36
4.79
1.75
0.62
2.03
0.22
0
-1.3
0
-0.06
0
0.02
0
0

>  <PUBCHEM_SHAPE_SELFOVERLAP>  (1) 
475.849

>  <PUBCHEM_SHAPE_VOLUME>  (1) 
126.5

>  <PUBCHEM_COORDINATE_TYPE>  (1) 
2
5
10

$$$$
