19909
     RDKit          3D

  6  6  0  0  0  0  0  0  0  0999 V2000
   -0.0759   -1.4519    0.0002 S   0  0  0  0  0  0  0  0  0  0  0  0
    0.0134    1.1091    0.0002 N   0  0  0  0  0  0  0  0  0  0  0  0
    2.1341    0.0454   -0.0004 N   0  0  0  0  0  0  0  0  0  0  0  0
   -1.3313    0.7817   -0.0001 N   0  0  0  0  0  0  0  0  0  0  0  0
    0.7763    0.0368    0.0004 C   0  0  0  0  0  0  0  0  0  0  0  0
   -1.5166   -0.5210   -0.0003 C   0  0  0  0  0  0  0  0  0  0  0  0
  1  5  1  0
  1  6  1  0
  2  4  1  0
  2  5  2  0
  3  5  1  0
  4  6  2  0
M  END
>  <PUBCHEM_COMPOUND_CID>  (1) 
19909

>  <PUBCHEM_CONFORMER_RMSD>  (1) 
0.4

>  <PUBCHEM_CONFORMER_DIVERSEORDER>  (1) 
1

>  <PUBCHEM_MMFF94_PARTIAL_CHARGES>  (1) 
9
1 -0.08
2 -0.34
3 -0.88
4 -0.34
5 0.46
6 0.23
7 0.15
8 0.4
9 0.4

>  <PUBCHEM_EFFECTIVE_ROTOR_COUNT>  (1) 
0

>  <PUBCHEM_PHARMACOPHORE_FEATURES>  (1) 
4
1 3 donor
1 4 acceptor
3 2 3 5 cation
5 1 2 4 5 6 rings

>  <PUBCHEM_HEAVY_ATOM_COUNT>  (1) 
6

>  <PUBCHEM_ATOM_DEF_STEREO_COUNT>  (1) 
0

>  <PUBCHEM_ATOM_UDEF_STEREO_COUNT>  (1) 
0

>  <PUBCHEM_BOND_DEF_STEREO_COUNT>  (1) 
0

>  <PUBCHEM_BOND_UDEF_STEREO_COUNT>  (1) 
0

>  <PUBCHEM_ISOTOPIC_ATOM_COUNT>  (1) 
0

>  <PUBCHEM_COMPONENT_COUNT>  (1) 
1

>  <PUBCHEM_CACTVS_TAUTO_COUNT>  (1) 
2

>  <PUBCHEM_CONFORMER_ID>  (1) 
00004DC500000001

>  <PUBCHEM_MMFF94_ENERGY>  (1) 
4.6971

>  <PUBCHEM_FEATURE_SELFOVERLAP>  (1) 
20.297

>  <PUBCHEM_SHAPE_FINGERPRINT>  (1) 
139733 1 9222971260571542627
16714656 1 18410580612481258734
20096714 4 18339080371885508322
21015797 1 9222071864507950475
21040471 1 18338798896914085377
29004967 10 18261402168974836995
5943 1 9065239441398450279

>  <PUBCHEM_SHAPE_MULTIPOLES>  (1) 
112.38
2
1.33
0.59
0.61
0.26
0
-0.08
0
-0.22
0
-0.02
0.05
0

>  <PUBCHEM_SHAPE_SELFOVERLAP>  (1) 
213.564

>  <PUBCHEM_SHAPE_VOLUME>  (1) 
71.2

>  <PUBCHEM_COORDINATE_TYPE>  (1) 
2
5
10

$$$$
