19904
     RDKit          3D

 11 11  0  0  0  0  0  0  0  0999 V2000
    0.8464    2.3128    0.0010 O   0  0  0  0  0  0  0  0  0  0  0  0
    0.8449   -2.3132    0.0010 O   0  0  0  0  0  0  0  0  0  0  0  0
   -1.1833   -1.1994   -0.0004 N   0  0  0  0  0  0  0  0  0  0  0  0
   -1.1824    1.2002   -0.0005 N   0  0  0  0  0  0  0  0  0  0  0  0
    0.8952   -0.0004   -0.0011 N   0  0  0  0  0  0  0  0  0  0  0  0
   -1.7859    0.0006   -0.0003 C   0  0  0  0  0  0  0  0  0  0  0  0
    0.1581    1.1220   -0.0010 C   0  0  0  0  0  0  0  0  0  0  0  0
    0.1573   -1.1221   -0.0009 C   0  0  0  0  0  0  0  0  0  0  0  0
   -3.2770    0.0009    0.0013 C   0  0  0  0  0  0  0  0  0  0  0  0
    2.2641    2.2268    0.0005 C   0  0  0  0  0  0  0  0  0  0  0  0
    2.2627   -2.2281    0.0004 C   0  0  0  0  0  0  0  0  0  0  0  0
  1  7  1  0
  1 10  1  0
  2  8  1  0
  2 11  1  0
  3  6  2  0
  3  8  1  0
  4  6  1  0
  4  7  2  0
  5  7  1  0
  5  8  2  0
  6  9  1  0
M  END
>  <PUBCHEM_COMPOUND_CID>  (1) 
19904

>  <PUBCHEM_CONFORMER_RMSD>  (1) 
0.4

>  <PUBCHEM_CONFORMER_DIVERSEORDER>  (1) 
1
2
3

>  <PUBCHEM_MMFF94_PARTIAL_CHARGES>  (1) 
11
1 -0.36
10 0.28
11 0.28
2 -0.36
3 -0.62
4 -0.62
5 -0.62
6 0.48
7 0.7
8 0.7
9 0.14

>  <PUBCHEM_EFFECTIVE_ROTOR_COUNT>  (1) 
2

>  <PUBCHEM_PHARMACOPHORE_FEATURES>  (1) 
4
3 3 4 6 cation
3 3 5 8 cation
3 4 5 7 cation
6 3 4 5 6 7 8 rings

>  <PUBCHEM_HEAVY_ATOM_COUNT>  (1) 
11

>  <PUBCHEM_ATOM_DEF_STEREO_COUNT>  (1) 
0

>  <PUBCHEM_ATOM_UDEF_STEREO_COUNT>  (1) 
0

>  <PUBCHEM_BOND_DEF_STEREO_COUNT>  (1) 
0

>  <PUBCHEM_BOND_UDEF_STEREO_COUNT>  (1) 
0

>  <PUBCHEM_ISOTOPIC_ATOM_COUNT>  (1) 
0

>  <PUBCHEM_COMPONENT_COUNT>  (1) 
1

>  <PUBCHEM_CACTVS_TAUTO_COUNT>  (1) 
1

>  <PUBCHEM_CONFORMER_ID>  (1) 
00004DC000000001

>  <PUBCHEM_MMFF94_ENERGY>  (1) 
32.4149

>  <PUBCHEM_FEATURE_SELFOVERLAP>  (1) 
23.07

>  <PUBCHEM_SHAPE_FINGERPRINT>  (1) 
1 1 18338233893982270485
100427 49 18195522593355475732
12716758 59 17620757618847954776
13380535 76 18191579963886375403
16945 1 18410573985351891717
193761 8 18410575084995394789
20645476 183 17536323879210157740
20645477 70 18410001157749624183
20871998 184 16902163067188546124
21040471 1 17906453581916232549
23552423 10 18411417336656413271
23552449 1 17689995635427614902
241688 4 17906451030599819833
2748010 2 18051120402569203526
3071541 12 18411422786833047541
3071541 158 18116995485805987949
3071541 250 18267881492186829302
3071541 37 18335423516771361685
528862 383 18335411404678626856
7364860 26 18413388734939656707
81228 2 17475513872037406849

>  <PUBCHEM_SHAPE_MULTIPOLES>  (1) 
199.69
3.46
2.87
0.57
1.84
0
0
0
0
-2.78
0
0
0
0

>  <PUBCHEM_SHAPE_SELFOVERLAP>  (1) 
403.603

>  <PUBCHEM_SHAPE_VOLUME>  (1) 
114.6

>  <PUBCHEM_COORDINATE_TYPE>  (1) 
2
5
10

$$$$
