19903
     RDKit          3D

  7  6  0  0  0  0  0  0  0  0999 V2000
    1.3455   -0.0331   -0.0296 N   0  0  0  0  0  0  0  0  0  0  0  0
   -0.7062   -1.1383    0.1072 N   0  0  0  0  0  0  0  0  0  0  0  0
   -0.7009    1.2140   -0.0491 N   0  0  0  0  0  0  0  0  0  0  0  0
    2.1451    1.0925    0.0347 N   0  0  0  0  0  0  0  0  0  0  0  0
    0.0008   -2.3111   -0.0633 N   0  0  0  0  0  0  0  0  0  0  0  0
   -2.0425    1.1000   -0.0034 N   0  0  0  0  0  0  0  0  0  0  0  0
   -0.0419    0.0760    0.0035 C   0  0  0  0  0  0  0  0  0  0  0  0
  1  4  1  0
  1  7  1  0
  2  5  1  0
  2  7  1  0
  3  6  1  0
  3  7  2  3
M  END
>  <PUBCHEM_COMPOUND_CID>  (1) 
19903

>  <PUBCHEM_CONFORMER_RMSD>  (1) 
0.4

>  <PUBCHEM_CONFORMER_DIVERSEORDER>  (1) 
1
8
6
4
2
9
7
3
5

>  <PUBCHEM_MMFF94_PARTIAL_CHARGES>  (1) 
15
1 -0.46
10 0.36
11 0.36
12 0.36
13 0.36
14 0.36
15 0.36
2 -0.46
3 -0.5
4 -0.71
5 -0.71
6 -0.67
7 0.55
8 0.4
9 0.4

>  <PUBCHEM_EFFECTIVE_ROTOR_COUNT>  (1) 
2

>  <PUBCHEM_PHARMACOPHORE_FEATURES>  (1) 
5
1 1 donor
1 2 donor
1 4 donor
1 5 donor
4 1 2 3 7 cation

>  <PUBCHEM_HEAVY_ATOM_COUNT>  (1) 
7

>  <PUBCHEM_ATOM_DEF_STEREO_COUNT>  (1) 
0

>  <PUBCHEM_ATOM_UDEF_STEREO_COUNT>  (1) 
0

>  <PUBCHEM_BOND_DEF_STEREO_COUNT>  (1) 
0

>  <PUBCHEM_BOND_UDEF_STEREO_COUNT>  (1) 
0

>  <PUBCHEM_ISOTOPIC_ATOM_COUNT>  (1) 
0

>  <PUBCHEM_COMPONENT_COUNT>  (1) 
1

>  <PUBCHEM_CACTVS_TAUTO_COUNT>  (1) 
1

>  <PUBCHEM_CONFORMER_ID>  (1) 
00004DBF00000001

>  <PUBCHEM_MMFF94_ENERGY>  (1) 
26.2279

>  <PUBCHEM_FEATURE_SELFOVERLAP>  (1) 
28.439

>  <PUBCHEM_SHAPE_FINGERPRINT>  (1) 
139733 1 9292250388931899882
16714656 1 18266185121759500640
20096714 4 18338234856134176280
21040471 1 18410575089116548612
23552449 1 18052253187530550936
29004967 10 17185596819474289075
5943 1 13251180384084826855

>  <PUBCHEM_SHAPE_MULTIPOLES>  (1) 
114.17
2.11
1.97
0.53
0.43
1.29
0
-1.31
-0.02
-0.25
0.03
0
0
0.03

>  <PUBCHEM_SHAPE_SELFOVERLAP>  (1) 
207.007

>  <PUBCHEM_SHAPE_VOLUME>  (1) 
70.7

>  <PUBCHEM_COORDINATE_TYPE>  (1) 
2
5
10

$$$$
