19918
     RDKit          3D

 16 17  0  0  0  0  0  0  0  0999 V2000
   -2.4801   -1.6525    0.2727 O   0  0  0  0  0  0  0  0  0  0  0  0
   -3.2109    1.0260    0.1534 O   0  0  0  0  0  0  0  0  0  0  0  0
    3.1211    0.6461    0.1045 N   0  0  0  0  0  0  0  0  0  0  0  0
    1.3750    2.3057    0.0436 N   0  0  0  0  0  0  0  0  0  0  0  0
    0.7979   -0.0193    0.1601 C   0  0  0  0  0  0  0  0  0  0  0  0
    2.1621   -0.2972    0.1593 C   0  0  0  0  0  0  0  0  0  0  0  0
    0.4428    1.3382    0.0992 C   0  0  0  0  0  0  0  0  0  0  0  0
    2.6726   -1.7012    0.2207 C   0  0  0  0  0  0  0  0  0  0  0  0
   -0.1854   -1.0223    0.2179 C   0  0  0  0  0  0  0  0  0  0  0  0
   -1.5331   -0.6764    0.2155 C   0  0  0  0  0  0  0  0  0  0  0  0
   -0.9133    1.6558    0.0981 C   0  0  0  0  0  0  0  0  0  0  0  0
   -1.8972    0.6642    0.1554 C   0  0  0  0  0  0  0  0  0  0  0  0
    2.8549   -2.3100   -1.1657 C   0  0  0  0  0  0  0  0  0  0  0  0
    2.6632    1.9072    0.0496 C   0  0  0  0  0  0  0  0  0  0  0  0
   -2.0193   -3.0014    0.3321 C   0  0  0  0  0  0  0  0  0  0  0  0
   -3.8503    1.1372   -1.1164 C   0  0  0  0  0  0  0  0  0  0  0  0
  1 10  1  0
  1 15  1  0
  2 12  1  0
  2 16  1  0
  3  6  2  0
  3 14  1  0
  4  7  1  0
  4 14  2  0
  5  6  1  0
  5  7  2  0
  5  9  1  0
  6  8  1  0
  7 11  1  0
  8 13  1  0
  9 10  2  0
 10 12  1  0
 11 12  2  0
M  END
>  <PUBCHEM_COMPOUND_CID>  (1) 
19918

>  <PUBCHEM_CONFORMER_RMSD>  (1) 
0.6

>  <PUBCHEM_CONFORMER_DIVERSEORDER>  (1) 
4
5
1
2
6
3

>  <PUBCHEM_MMFF94_PARTIAL_CHARGES>  (1) 
17
1 -0.36
10 0.08
11 -0.15
12 0.08
14 0.47
15 0.28
16 0.28
19 0.15
2 -0.36
20 0.15
24 0.15
3 -0.62
4 -0.62
6 0.17
7 0.31
8 0.14
9 -0.15

>  <PUBCHEM_EFFECTIVE_ROTOR_COUNT>  (1) 
3

>  <PUBCHEM_PHARMACOPHORE_FEATURES>  (1) 
7
1 1 acceptor
1 13 hydrophobe
1 2 acceptor
1 3 acceptor
3 3 4 14 cation
6 3 4 5 6 7 14 rings
6 5 7 9 10 11 12 rings

>  <PUBCHEM_HEAVY_ATOM_COUNT>  (1) 
16

>  <PUBCHEM_ATOM_DEF_STEREO_COUNT>  (1) 
0

>  <PUBCHEM_ATOM_UDEF_STEREO_COUNT>  (1) 
0

>  <PUBCHEM_BOND_DEF_STEREO_COUNT>  (1) 
0

>  <PUBCHEM_BOND_UDEF_STEREO_COUNT>  (1) 
0

>  <PUBCHEM_ISOTOPIC_ATOM_COUNT>  (1) 
0

>  <PUBCHEM_COMPONENT_COUNT>  (1) 
1

>  <PUBCHEM_CACTVS_TAUTO_COUNT>  (1) 
3

>  <PUBCHEM_CONFORMER_ID>  (1) 
00004DCE00000004

>  <PUBCHEM_MMFF94_ENERGY>  (1) 
63.9638

>  <PUBCHEM_FEATURE_SELFOVERLAP>  (1) 
35.556

>  <PUBCHEM_SHAPE_FINGERPRINT>  (1) 
10608611 8 18336823203494948665
10693767 8 17696168337331304791
10967382 1 18410292475830852480
11680986 33 18413108355448664482
12553582 1 18123764049612287122
13140716 1 18410013221378835411
13380535 21 18337964474984027801
13380535 76 18411410730685404121
13571099 22 18341610373884606853
13897977 150 18410853286969993361
14115302 16 18115885009327184854
14178342 30 18339070609651925728
14648413 74 18410012164932788384
14790565 3 17835263155003654040
14911166 2 18264769852879103335
15219456 202 18410576205649549731
15442244 35 18339925909191116608
16945 1 18338239254096109616
17990270 104 18411421734766325290
18186145 218 18264482889282594829
193761 8 18338237171015885003
19591789 44 16252802962917907448
20645476 183 17023768713654794507
20645477 70 18340762659346961135
20871999 31 17979367365174009798
21029758 11 18198335152847828728
21069387 34 17845930723910197767
21501502 16 18336826501876455000
2334 1 18337674229652482755
23402539 116 17982156825788737230
23552423 10 18261959647213704584
23559900 14 18412824673502328896
25 1 17827911824739524813
2748010 2 18409452513424618427
3060560 45 18118666743912470829
3312278 4 18340209695024009672
34934 24 18337381674097751466
69090 78 18408879655588118265
7364860 26 18343864407735400776
74978 22 18410296886757029651
81228 2 17838627652041530930
8809292 202 18336270059041528522
9709674 26 18411981390237419399

>  <PUBCHEM_SHAPE_MULTIPOLES>  (1) 
307.57
5.56
2.98
0.8
1.45
1.29
-0.2
0.13
-1.2
-0.33
-0.05
0.07
0.16
0.92

>  <PUBCHEM_SHAPE_SELFOVERLAP>  (1) 
658.172

>  <PUBCHEM_SHAPE_VOLUME>  (1) 
170.3

>  <PUBCHEM_COORDINATE_TYPE>  (1) 
2
5
10

$$$$
