19912
     RDKit          3D

 17 18  0  0  0  0  0  0  0  0999 V2000
    2.6147   -2.9040   -0.1422 O   0  0  0  0  0  0  0  0  0  0  0  0
   -1.1568    2.5361   -0.2628 O   0  0  0  0  0  0  0  0  0  0  0  0
    3.2655    0.5253    0.2396 N   0  0  0  0  0  0  0  0  0  0  0  0
   -2.1560   -0.0435   -0.6272 N   0  0  0  0  0  0  0  0  0  0  0  0
   -2.7512   -0.2065    0.4609 N   0  0  0  0  0  0  0  0  0  0  0  0
   -4.7320   -0.4819   -0.9210 N   0  0  0  0  0  0  0  0  0  0  0  0
   -4.7668   -0.6091    1.4078 N   0  0  0  0  0  0  0  0  0  0  0  0
    1.9051    0.5954    0.0400 C   0  0  0  0  0  0  0  0  0  0  0  0
    1.4478   -0.7121   -0.1370 C   0  0  0  0  0  0  0  0  0  0  0  0
    2.5802   -1.5678   -0.0362 C   0  0  0  0  0  0  0  0  0  0  0  0
    3.6827   -0.7778    0.1952 C   0  0  0  0  0  0  0  0  0  0  0  0
    1.0532    1.7050    0.0029 C   0  0  0  0  0  0  0  0  0  0  0  0
    0.0733   -0.9252   -0.3625 C   0  0  0  0  0  0  0  0  0  0  0  0
   -0.7907    0.1751   -0.4022 C   0  0  0  0  0  0  0  0  0  0  0  0
   -0.3061    1.4691   -0.2218 C   0  0  0  0  0  0  0  0  0  0  0  0
    4.1413    1.6551    0.4649 C   0  0  0  0  0  0  0  0  0  0  0  0
   -4.1041   -0.4332    0.3014 C   0  0  0  0  0  0  0  0  0  0  0  0
  1 10  1  0
  2 15  1  0
  3  8  1  0
  3 11  1  0
  3 16  1  0
  4  5  2  0
  4 14  1  0
  5 17  1  0
  6 17  1  0
  7 17  2  0
  8  9  2  0
  8 12  1  0
  9 10  1  0
  9 13  1  0
 10 11  2  0
 12 15  2  0
 13 14  2  0
 14 15  1  0
M  END
>  <PUBCHEM_COMPOUND_CID>  (1) 
19912

>  <PUBCHEM_CONFORMER_RMSD>  (1) 
0.6

>  <PUBCHEM_CONFORMER_DIVERSEORDER>  (1) 
1
2

>  <PUBCHEM_MMFF94_PARTIAL_CHARGES>  (1) 
24
1 -0.51
10 0.06
11 -0.3
12 -0.15
13 -0.15
14 0.18
15 0.08
16 0.26
17 0.71
18 0.15
19 0.15
2 -0.53
20 0.15
24 0.45
25 0.45
26 0.4
27 0.4
28 0.4
3 0.05
4 -0.18
5 -0.21
6 -0.85
7 -0.85
8 -0.15

>  <PUBCHEM_EFFECTIVE_ROTOR_COUNT>  (1) 
2

>  <PUBCHEM_PHARMACOPHORE_FEATURES>  (1) 
8
1 1 donor
1 2 donor
1 3 cation
1 6 donor
1 7 donor
4 5 6 7 17 cation
5 3 8 9 10 11 rings
6 8 9 12 13 14 15 rings

>  <PUBCHEM_HEAVY_ATOM_COUNT>  (1) 
17

>  <PUBCHEM_ATOM_DEF_STEREO_COUNT>  (1) 
0

>  <PUBCHEM_ATOM_UDEF_STEREO_COUNT>  (1) 
0

>  <PUBCHEM_BOND_DEF_STEREO_COUNT>  (1) 
0

>  <PUBCHEM_BOND_UDEF_STEREO_COUNT>  (1) 
1

>  <PUBCHEM_ISOTOPIC_ATOM_COUNT>  (1) 
0

>  <PUBCHEM_COMPONENT_COUNT>  (1) 
1

>  <PUBCHEM_CACTVS_TAUTO_COUNT>  (1) 
13

>  <PUBCHEM_CONFORMER_ID>  (1) 
00004DC800000001

>  <PUBCHEM_MMFF94_ENERGY>  (1) 
35.0208

>  <PUBCHEM_FEATURE_SELFOVERLAP>  (1) 
40.733

>  <PUBCHEM_SHAPE_FINGERPRINT>  (1) 
10493431 412 18125999614544370360
10618630 7 18408322163957972557
10967382 1 18411415146333699668
11471102 20 18410851092341659204
11796584 16 16588292865698040139
12032990 46 18335986380530063791
12236239 1 17703790349487101479
12251169 10 18272654571184512383
13140716 1 18051123989315581120
14252887 29 18335145297126653891
14790565 3 17977672231587557812
15375358 24 18187080689138000347
15375462 189 18131346414518767506
15475509 84 17772199617124449424
16945 1 18341316864952832364
200 152 18202273724406141581
20645477 70 18338505366291645191
20871998 22 18410299068668955373
21267235 1 18411706456928293742
21501502 16 18267587901344818160
221490 88 18265897960747392966
2334 1 17690272034101128452
23557571 272 17313656062408684004
23559900 14 18192420871275208614
25610 137 18408885135460310700
26918003 58 18040147422711181747
2748010 2 18195797484527337924
2871803 45 18334290933747784654
33824 294 18408882953717255106
34934 24 18339070588039899799
449060 62 18272089435245672720
4990 188 11386361534927594577
5104073 3 18337951186339565921
7364860 26 18343580712471536238

>  <PUBCHEM_SHAPE_MULTIPOLES>  (1) 
313.21
8.39
2.16
0.8
7.87
0.06
0.1
1.63
1.69
-1.95
-0.1
0.69
0.05
0.42

>  <PUBCHEM_SHAPE_SELFOVERLAP>  (1) 
681.659

>  <PUBCHEM_SHAPE_VOLUME>  (1) 
171.4

>  <PUBCHEM_COORDINATE_TYPE>  (1) 
2
5
10

$$$$
