19913
     RDKit          3D

 10 10  0  0  1  0  0  0  0  0999 V2000
    2.0794   -0.7173    0.4336 O   0  0  0  0  0  0  0  0  0  0  0  0
    1.3648    0.4824    0.1144 C   0  0  0  0  0  0  0  0  0  0  0  0
   -0.1002    0.2054    0.0704 C   0  0  0  0  0  0  0  0  0  0  0  0
    1.9006    1.0398   -1.2079 C   0  0  0  0  0  0  0  0  0  0  0  0
   -1.0091    1.1993    0.4332 C   0  0  0  0  0  0  0  0  0  0  0  0
   -0.5612   -1.0476   -0.3332 C   0  0  0  0  0  0  0  0  0  0  0  0
   -2.3791    0.9401    0.3926 C   0  0  0  0  0  0  0  0  0  0  0  0
   -1.9312   -1.3069   -0.3740 C   0  0  0  0  0  0  0  0  0  0  0  0
   -2.8401   -0.3129   -0.0111 C   0  0  0  0  0  0  0  0  0  0  0  0
    3.4760   -0.4823    0.4820 C   0  0  0  0  0  0  0  0  0  0  0  0
  1  2  1  0
  1 10  1  0
  2  3  1  0
  2  4  1  0
  3  5  2  0
  3  6  1  0
  5  7  1  0
  6  8  2  0
  7  9  2  0
  8  9  1  0
M  END
>  <PUBCHEM_COMPOUND_CID>  (1) 
19913

>  <PUBCHEM_CONFORMER_RMSD>  (1) 
0.4

>  <PUBCHEM_CONFORMER_DIVERSEORDER>  (1) 
5
3
7
4
2
1
6

>  <PUBCHEM_MMFF94_PARTIAL_CHARGES>  (1) 
14
1 -0.56
10 0.28
15 0.15
16 0.15
17 0.15
18 0.15
19 0.15
2 0.42
3 -0.14
5 -0.15
6 -0.15
7 -0.15
8 -0.15
9 -0.15

>  <PUBCHEM_EFFECTIVE_ROTOR_COUNT>  (1) 
2

>  <PUBCHEM_PHARMACOPHORE_FEATURES>  (1) 
2
1 1 acceptor
6 3 5 6 7 8 9 rings

>  <PUBCHEM_HEAVY_ATOM_COUNT>  (1) 
10

>  <PUBCHEM_ATOM_DEF_STEREO_COUNT>  (1) 
0

>  <PUBCHEM_ATOM_UDEF_STEREO_COUNT>  (1) 
1

>  <PUBCHEM_BOND_DEF_STEREO_COUNT>  (1) 
0

>  <PUBCHEM_BOND_UDEF_STEREO_COUNT>  (1) 
0

>  <PUBCHEM_ISOTOPIC_ATOM_COUNT>  (1) 
0

>  <PUBCHEM_COMPONENT_COUNT>  (1) 
1

>  <PUBCHEM_CACTVS_TAUTO_COUNT>  (1) 
1

>  <PUBCHEM_CONFORMER_ID>  (1) 
00004DC900000005

>  <PUBCHEM_MMFF94_ENERGY>  (1) 
29.6443

>  <PUBCHEM_FEATURE_SELFOVERLAP>  (1) 
10.148

>  <PUBCHEM_SHAPE_FINGERPRINT>  (1) 
10857977 72 17704068533912169385
12932764 1 18338807808976772197
13024252 1 15502375595656385225
14128692 85 18336262426894790122
14325111 11 18342738490036668360
15310529 11 17895201051216065373
16945 1 18131360712839435629
20645464 45 16988843877796555194
20653085 51 17095230424335861301
207724 885 18113899321217891378
20871998 184 17845933038892620255
21040471 1 18201167533508231449
23402539 116 17703213049895132357
23552423 10 18261672661620074630
29004967 10 16370724841835451453
3248919 1 17749387130317454952
369184 2 17775278365782923059
5084963 1 18259980474691450065
8030462 33 18336269062376669524

>  <PUBCHEM_SHAPE_MULTIPOLES>  (1) 
199.93
4.66
1.35
0.86
2
0.02
0.16
0.56
-0.47
-0.38
0.08
0.34
-0.13
-0.63

>  <PUBCHEM_SHAPE_SELFOVERLAP>  (1) 
404.913

>  <PUBCHEM_SHAPE_VOLUME>  (1) 
117.6

>  <PUBCHEM_COORDINATE_TYPE>  (1) 
2
5
10

$$$$
