19922
     RDKit          3D

 19 18  0  0  1  0  0  0  0  0999 V2000
    3.8331   -1.5955    0.2771 S   0  0  0  0  0  0  0  0  0  0  0  0
    5.4104   -1.3328    0.5939 O   0  0  0  0  0  0  0  0  0  0  0  0
    3.5796    2.2282   -0.5260 O   0  0  0  0  0  0  0  0  0  0  0  0
    3.7147   -2.7375   -0.6068 O   0  0  0  0  0  0  0  0  0  0  0  0
    3.0840   -1.5036    1.5139 O   0  0  0  0  0  0  0  0  0  0  0  0
    3.8249    1.0612    1.4471 O   0  0  0  0  0  0  0  0  0  0  0  0
   -0.3362   -0.0759   -1.0507 C   0  0  0  0  0  0  0  0  0  0  0  0
   -1.4944   -0.0964   -0.0517 C   0  0  0  0  0  0  0  0  0  0  0  0
    1.0160   -0.1289   -0.3359 C   0  0  0  0  0  0  0  0  0  0  0  0
   -2.8473   -0.0777   -0.7672 C   0  0  0  0  0  0  0  0  0  0  0  0
    2.1736   -0.1383   -1.3392 C   0  0  0  0  0  0  0  0  0  0  0  0
   -4.0033   -0.0643    0.2353 C   0  0  0  0  0  0  0  0  0  0  0  0
    3.5472   -0.1197   -0.6640 C   0  0  0  0  0  0  0  0  0  0  0  0
   -5.3842   -0.0765   -0.4268 C   0  0  0  0  0  0  0  0  0  0  0  0
   -6.5394    0.0110    0.5729 C   0  0  0  0  0  0  0  0  0  0  0  0
   -7.8918   -0.0176   -0.1406 C   0  0  0  0  0  0  0  0  0  0  0  0
    3.6644    1.0954    0.2343 C   0  0  0  0  0  0  0  0  0  0  0  0
   -9.0438    0.1071    0.8438 C   0  0  0  0  0  0  0  0  0  0  0  0
    3.6924    3.4619    0.1905 C   0  0  0  0  0  0  0  0  0  0  0  0
  1  2  1  0
  1  4  2  0
  1  5  2  0
  1 13  1  0
  3 17  1  0
  3 19  1  0
  6 17  2  0
  7  8  1  0
  7  9  1  0
  8 10  1  0
  9 11  1  0
 10 12  1  0
 11 13  1  0
 12 14  1  0
 13 17  1  0
 14 15  1  0
 15 16  1  0
 16 18  1  0
M  END
>  <PUBCHEM_COMPOUND_CID>  (1) 
19922

>  <PUBCHEM_CONFORMER_RMSD>  (1) 
1.2

>  <PUBCHEM_CONFORMER_DIVERSEORDER>  (1) 
1
29
94
92
44
41
63
113
15
20
103
106
73
62
98
22
120
77
96
110
12
146
144
17
27
7
102
3
50
145
87
122
28
8
107
4
111
31
74
147
85
135
93
115
118
6
56
43
66
116
101
130
36
2
91
68
60
38
21
137
9
46
78
32
125
99
67
129
40
123
45
18
33
30
69
139
132
104
59
131
10
95
141
19
14
82
142
37
80
13
112
25
100
26
114
126
86
83
51
34
134
133
42
64
53
71
48
136
76
5
97
121
105
16
117
119
39
61
11
70
79
75
89
127
55
84
54
128
35
57
109
47
58
23
65
108
72
81
90
138
52
140
143
88
24
124
49

>  <PUBCHEM_MMFF94_PARTIAL_CHARGES>  (1) 
10
1 1.38
13 0.17
17 0.66
19 0.28
2 -0.68
3 -0.43
4 -0.65
42 0.5
5 -0.65
6 -0.57

>  <PUBCHEM_EFFECTIVE_ROTOR_COUNT>  (1) 
12

>  <PUBCHEM_PHARMACOPHORE_FEATURES>  (1) 
6
1 18 hydrophobe
1 2 acceptor
1 4 acceptor
1 5 acceptor
1 6 acceptor
4 1 2 4 5 anion

>  <PUBCHEM_HEAVY_ATOM_COUNT>  (1) 
19

>  <PUBCHEM_ATOM_DEF_STEREO_COUNT>  (1) 
0

>  <PUBCHEM_ATOM_UDEF_STEREO_COUNT>  (1) 
1

>  <PUBCHEM_BOND_DEF_STEREO_COUNT>  (1) 
0

>  <PUBCHEM_BOND_UDEF_STEREO_COUNT>  (1) 
0

>  <PUBCHEM_ISOTOPIC_ATOM_COUNT>  (1) 
0

>  <PUBCHEM_COMPONENT_COUNT>  (1) 
1

>  <PUBCHEM_CACTVS_TAUTO_COUNT>  (1) 
1

>  <PUBCHEM_CONFORMER_ID>  (1) 
00004DD200000001

>  <PUBCHEM_MMFF94_ENERGY>  (1) 
10.899

>  <PUBCHEM_FEATURE_SELFOVERLAP>  (1) 
30.51

>  <PUBCHEM_SHAPE_FINGERPRINT>  (1) 
125118 31 18202570554033983929
12596602 18 18410577323216935371
12616971 3 18059565897891081045
13167372 99 18272656710579808105
13533116 47 18261111850871642187
13955234 65 18409725171334662994
14251764 75 17979352289607809084
15183329 4 16486980600930645281
15348495 7 18334297612938797483
15475509 35 17023167298543489418
17844677 252 18409169879323981965
18222031 100 16081092567321254911
20157964 124 18412546526460666797
20281389 69 18060139830624789833
20397935 70 18261114058484962279
21150785 3 12179853796985716031
21344244 78 18200581515586254968
220451 1 18411420631292170015
22956985 138 14203331138516906665
23081809 10 17846494860076257623
23522609 53 12252468749214873263
23559900 14 17749679561961537718
5374978 207 18272930513969019709
8988823 20 18409448089682039797

>  <PUBCHEM_SHAPE_MULTIPOLES>  (1) 
365.51
20.92
2.22
1.12
56.34
1.39
-0.09
0.22
-5.41
-6.42
-0.22
-0.59
-0.12
-0.18

>  <PUBCHEM_SHAPE_SELFOVERLAP>  (1) 
677.096

>  <PUBCHEM_SHAPE_VOLUME>  (1) 
229.2

>  <PUBCHEM_COORDINATE_TYPE>  (1) 
2
5
10

$$$$
