19929
     RDKit          3D

 25 27  0  0  0  0  0  0  0  0999 V2000
    1.6022    4.6277    0.7813 Cl  0  0  0  0  0  0  0  0  0  0  0  0
    6.8323   -3.0133    0.1095 Cl  0  0  0  0  0  0  0  0  0  0  0  0
   -7.7535   -1.8336    0.0837 Cl  0  0  0  0  0  0  0  0  0  0  0  0
    0.7215   -1.0005   -0.6619 O   0  0  0  0  0  0  0  0  0  0  0  0
   -1.8559    0.7671   -1.8826 O   0  0  0  0  0  0  0  0  0  0  0  0
   -2.2608    0.3177    0.3674 N   0  0  0  0  0  0  0  0  0  0  0  0
    2.2098    0.7441    0.0290 C   0  0  0  0  0  0  0  0  0  0  0  0
   -0.1359    1.2030   -0.3377 C   0  0  0  0  0  0  0  0  0  0  0  0
    0.9325    0.3063   -0.3254 C   0  0  0  0  0  0  0  0  0  0  0  0
    3.3322   -0.1689    0.0486 C   0  0  0  0  0  0  0  0  0  0  0  0
    2.4151    2.0819    0.3713 C   0  0  0  0  0  0  0  0  0  0  0  0
    0.0713    2.5393    0.0044 C   0  0  0  0  0  0  0  0  0  0  0  0
    1.3469    2.9789    0.3590 C   0  0  0  0  0  0  0  0  0  0  0  0
   -1.4767    0.7675   -0.7045 C   0  0  0  0  0  0  0  0  0  0  0  0
    3.6411   -0.8692    1.2146 C   0  0  0  0  0  0  0  0  0  0  0  0
    4.1056   -0.3480   -1.0983 C   0  0  0  0  0  0  0  0  0  0  0  0
   -3.5622   -0.1925    0.3001 C   0  0  0  0  0  0  0  0  0  0  0  0
    4.7236   -1.7486    1.2338 C   0  0  0  0  0  0  0  0  0  0  0  0
    5.1881   -1.2276   -1.0792 C   0  0  0  0  0  0  0  0  0  0  0  0
    5.4971   -1.9280    0.0869 C   0  0  0  0  0  0  0  0  0  0  0  0
   -4.2050   -0.2912   -0.9313 C   0  0  0  0  0  0  0  0  0  0  0  0
   -4.2084   -0.5988    1.4650 C   0  0  0  0  0  0  0  0  0  0  0  0
   -5.5024   -0.7993   -0.9983 C   0  0  0  0  0  0  0  0  0  0  0  0
   -5.5058   -1.1069    1.3981 C   0  0  0  0  0  0  0  0  0  0  0  0
   -6.1528   -1.2072    0.1664 C   0  0  0  0  0  0  0  0  0  0  0  0
  1 13  1  0
  2 20  1  0
  3 25  1  0
  4  9  1  0
  5 14  2  0
  6 14  1  0
  6 17  1  0
  7  9  2  0
  7 10  1  0
  7 11  1  0
  8  9  1  0
  8 12  2  0
  8 14  1  0
 10 15  2  0
 10 16  1  0
 11 13  2  0
 12 13  1  0
 15 18  1  0
 16 19  2  0
 17 21  2  0
 17 22  1  0
 18 20  2  0
 19 20  1  0
 21 23  1  0
 22 24  2  0
 23 25  2  0
 24 25  1  0
M  END
>  <PUBCHEM_COMPOUND_CID>  (1) 
19929

>  <PUBCHEM_CONFORMER_RMSD>  (1) 
0.8

>  <PUBCHEM_CONFORMER_DIVERSEORDER>  (1) 
1
3
6
5
4
2

>  <PUBCHEM_MMFF94_PARTIAL_CHARGES>  (1) 
35
1 -0.18
11 -0.15
12 -0.15
13 0.18
14 0.54
15 -0.15
16 -0.15
17 0.12
18 -0.15
19 -0.15
2 -0.18
20 0.18
21 -0.15
22 -0.15
23 -0.15
24 -0.15
25 0.18
26 0.15
27 0.15
28 0.15
29 0.15
3 -0.18
30 0.37
31 0.15
32 0.15
33 0.15
34 0.15
35 0.45
36 0.15
37 0.15
4 -0.53
5 -0.57
6 -0.55
8 0.09
9 0.08

>  <PUBCHEM_EFFECTIVE_ROTOR_COUNT>  (1) 
4

>  <PUBCHEM_PHARMACOPHORE_FEATURES>  (1) 
6
1 4 donor
1 5 acceptor
1 6 donor
6 10 15 16 18 19 20 rings
6 17 21 22 23 24 25 rings
6 7 8 9 11 12 13 rings

>  <PUBCHEM_HEAVY_ATOM_COUNT>  (1) 
25

>  <PUBCHEM_ATOM_DEF_STEREO_COUNT>  (1) 
0

>  <PUBCHEM_ATOM_UDEF_STEREO_COUNT>  (1) 
0

>  <PUBCHEM_BOND_DEF_STEREO_COUNT>  (1) 
0

>  <PUBCHEM_BOND_UDEF_STEREO_COUNT>  (1) 
0

>  <PUBCHEM_ISOTOPIC_ATOM_COUNT>  (1) 
0

>  <PUBCHEM_COMPONENT_COUNT>  (1) 
1

>  <PUBCHEM_CACTVS_TAUTO_COUNT>  (1) 
7

>  <PUBCHEM_CONFORMER_ID>  (1) 
00004DD900000001

>  <PUBCHEM_MMFF94_ENERGY>  (1) 
83.1848

>  <PUBCHEM_FEATURE_SELFOVERLAP>  (1) 
30.446

>  <PUBCHEM_SHAPE_FINGERPRINT>  (1) 
10 15 12751234818216352575
10319926 262 14764630840948653109
10411042 1 18412263896486153472
117089 54 18123194498521693342
11796584 16 17458337524779571219
11991303 11 17754741520376200189
12107183 9 18199479783618967209
12236239 1 17703796972558689327
12516196 113 18411981356172612434
12553582 1 18342731893526064702
12616971 3 17846215614092719013
12633257 1 18201162139145599463
12760667 363 18335141947052338251
13103583 49 18270698484259174161
13533116 47 18338799043570987513
13540713 4 18265030514524458196
13540713 5 17486760050929246021
1361 4 17907294704929864583
13631057 29 18188491247399616986
13673619 4 18113900450905079781
13685833 64 18408603673500318699
13782708 43 18260824951921156751
13862211 1 18411420583562362550
13911852 28 18339924805548493382
13914758 101 18343582929054430033
13955234 65 18196933494439665968
14123256 34 18408606933206689402
14251764 30 18340487777251038338
14739800 52 16342288271375179672
15131766 46 17697027404106050493
15183329 4 15574428800158979187
15188451 53 17203598316397944887
15927050 60 17909549802792025940
17980427 23 12750939040724253169
1813 80 18130796637689433876
18222031 100 18343301461665360172
1979834 28 17203616977413667846
20028762 73 18130787888741377591
20505436 4 17341818081386016725
20554085 129 11891617983473850188
20715895 44 9655567522647378474
20832881 197 18335421257697847817
21033650 10 15719664369525434285
21049683 271 18335144236993191532
21130935 74 18194125338517906171
21267235 1 18410576167142946446
21344244 78 17775564264565906625
2215653 11 17822288020437298155
22950370 63 18338805524476040472
23522609 53 18048914902514538732
23559900 14 17749673003894733645
249999 5 18197213870073527856
2838139 119 10951764136479344978
2916195 48 12031791353491651183
3004659 81 17603586305491957578
312425 54 15913324680445027678
314194 84 18410014351102920262
3421961 26 18411134779221752840
437815 12 18408041792824747827
465052 167 18412547613124615086
5104073 3 18201718435794051865
54039377 194 18337395938201950998
543368 44 10737285749740753803
56633871 153 18059569165929339270
5718773 13 18409165541544500707
6086070 43 18337097987603773641
636775 8 18266467517041861966
6697151 62 18196626606547328301
77188 2 18411981352047444008
7970288 3 18339921524441736958
8863177 126 18188215428425642155
9841814 1 18342179998613137316
9962374 69 18271517723522492983

>  <PUBCHEM_SHAPE_MULTIPOLES>  (1) 
503.38
17.32
3.61
1.27
15.9
4.36
0.01
-20.59
-1.38
-5.1
-1
0.41
-0.2
0.45

>  <PUBCHEM_SHAPE_SELFOVERLAP>  (1) 
1078.643

>  <PUBCHEM_SHAPE_VOLUME>  (1) 
282.2

>  <PUBCHEM_COORDINATE_TYPE>  (1) 
2
5
10

$$$$
