19933
     RDKit          3D

 14 14  0  0  0  0  0  0  0  0999 V2000
   -5.1053   -0.4610    0.3404 Cl  0  0  0  0  0  0  0  0  0  0  0  0
    0.6497    0.3858   -0.7013 N   0  0  0  0  0  0  0  0  0  0  0  0
    2.7686    0.8014   -0.0354 N   0  0  0  0  0  0  0  0  0  0  0  0
    1.0936    0.7095    1.6380 N   0  0  0  0  0  0  0  0  0  0  0  0
    4.8678   -0.1457   -0.4044 N   0  0  0  0  0  0  0  0  0  0  0  0
    3.1735   -1.5585    0.1865 N   0  0  0  0  0  0  0  0  0  0  0  0
   -0.7185    0.1840   -0.4545 C   0  0  0  0  0  0  0  0  0  0  0  0
   -1.5872    1.2712   -0.4496 C   0  0  0  0  0  0  0  0  0  0  0  0
   -1.1957   -1.1014   -0.2157 C   0  0  0  0  0  0  0  0  0  0  0  0
   -2.9456    1.0712   -0.2036 C   0  0  0  0  0  0  0  0  0  0  0  0
   -2.5540   -1.3014    0.0303 C   0  0  0  0  0  0  0  0  0  0  0  0
   -3.4291   -0.2150    0.0363 C   0  0  0  0  0  0  0  0  0  0  0  0
    1.4440    0.6160    0.3073 C   0  0  0  0  0  0  0  0  0  0  0  0
    3.5382   -0.2561   -0.0743 C   0  0  0  0  0  0  0  0  0  0  0  0
  1 12  1  0
  2  7  1  0
  2 13  2  0
  3 13  1  0
  3 14  2  0
  4 13  1  0
  5 14  1  0
  6 14  1  0
  7  8  2  0
  7  9  1  0
  8 10  1  0
  9 11  2  0
 10 12  2  0
 11 12  1  0
M  END
>  <PUBCHEM_COMPOUND_CID>  (1) 
19933

>  <PUBCHEM_CONFORMER_RMSD>  (1) 
0.6

>  <PUBCHEM_CONFORMER_DIVERSEORDER>  (1) 
1
2
3

>  <PUBCHEM_MMFF94_PARTIAL_CHARGES>  (1) 
24
1 -0.18
10 -0.15
11 -0.15
12 0.18
13 0.71
14 0.55
15 0.15
16 0.15
17 0.15
18 0.15
19 0.4
2 -0.63
20 0.4
21 0.4
22 0.4
23 0.4
24 0.4
3 -0.66
4 -0.85
5 -0.85
6 -0.85
7 0.18
8 -0.15
9 -0.15

>  <PUBCHEM_EFFECTIVE_ROTOR_COUNT>  (1) 
2

>  <PUBCHEM_PHARMACOPHORE_FEATURES>  (1) 
6
1 4 donor
1 5 donor
1 6 donor
4 2 3 4 13 cation
4 3 5 6 14 cation
6 7 8 9 10 11 12 rings

>  <PUBCHEM_HEAVY_ATOM_COUNT>  (1) 
14

>  <PUBCHEM_ATOM_DEF_STEREO_COUNT>  (1) 
0

>  <PUBCHEM_ATOM_UDEF_STEREO_COUNT>  (1) 
0

>  <PUBCHEM_BOND_DEF_STEREO_COUNT>  (1) 
0

>  <PUBCHEM_BOND_UDEF_STEREO_COUNT>  (1) 
0

>  <PUBCHEM_ISOTOPIC_ATOM_COUNT>  (1) 
0

>  <PUBCHEM_COMPONENT_COUNT>  (1) 
1

>  <PUBCHEM_CACTVS_TAUTO_COUNT>  (1) 
5

>  <PUBCHEM_CONFORMER_ID>  (1) 
00004DDD00000001

>  <PUBCHEM_MMFF94_ENERGY>  (1) 
45.2454

>  <PUBCHEM_FEATURE_SELFOVERLAP>  (1) 
30.547

>  <PUBCHEM_SHAPE_FINGERPRINT>  (1) 
10130415 120 17632577154092615112
10465860 250 18060695066273375248
11062470 55 9079116661252230269
11401426 45 11240001140113331459
12032990 46 18334016107707287975
12119455 92 17346880044568554685
12186901 62 18113613448389861797
12251169 10 18342176691255743253
124424 183 17847059982402376553
12932764 1 17917700340222116972
13581323 91 18408039611034128389
13675066 3 13686302395967388917
14993402 34 17095521811959823743
15653759 3 18342733031122802641
17802600 8 9871750174311028918
17804303 29 18341897411155033301
17834072 33 17968101970376968780
17834074 16 18410294696397893006
190213 19 17458344143265963317
19422 9 17822290137317883960
200 152 17132108057379770415
20645477 70 18338234865114767550
22485316 2 18410289220525294838
2297311 6 18341625797497328036
23175994 123 17489875937811992488
23402539 116 17918269853692714237
23559900 14 18339073907954816928
3286 77 17131542959858493225
42 15 18409169913393277559
474 4 16734122317404257676
57426455 114 17846492660298952435
69090 78 18130783486557498367
7364860 26 18191589850875210964
77779 3 18408042905411233420

>  <PUBCHEM_SHAPE_MULTIPOLES>  (1) 
265.08
8.83
1.31
0.84
1.93
0.17
-0.23
1.81
-0.17
-0.24
0.02
0.14
-0.13
0.21

>  <PUBCHEM_SHAPE_SELFOVERLAP>  (1) 
541.573

>  <PUBCHEM_SHAPE_VOLUME>  (1) 
153.6

>  <PUBCHEM_COORDINATE_TYPE>  (1) 
2
5
10

$$$$
