19942
     RDKit          3D

 10 10  0  0  0  0  0  0  0  0999 V2000
    2.4367   -0.1105   -0.0017 O   0  0  0  0  0  0  0  0  0  0  0  0
    1.0567   -0.0442    0.0023 N   0  0  0  0  0  0  0  0  0  0  0  0
   -0.8603    1.2540   -0.0001 N   0  0  0  0  0  0  0  0  0  0  0  0
   -1.0144   -1.1527    0.0001 N   0  0  0  0  0  0  0  0  0  0  0  0
    1.2601    2.2941   -0.0004 N   0  0  0  0  0  0  0  0  0  0  0  0
    0.8844   -2.4200   -0.0009 N   0  0  0  0  0  0  0  0  0  0  0  0
    0.4519    1.1893    0.0004 C   0  0  0  0  0  0  0  0  0  0  0  0
   -1.5427    0.0416    0.0004 C   0  0  0  0  0  0  0  0  0  0  0  0
    0.3671   -1.2315    0.0010 C   0  0  0  0  0  0  0  0  0  0  0  0
   -3.0395    0.1798   -0.0011 C   0  0  0  0  0  0  0  0  0  0  0  0
  1  2  1  0
  2  7  1  0
  2  9  1  0
  3  7  2  0
  3  8  1  0
  4  8  2  0
  4  9  1  0
  5  7  1  0
  6  9  2  0
  8 10  1  0
M  END
>  <PUBCHEM_COMPOUND_CID>  (1) 
19942

>  <PUBCHEM_CONFORMER_RMSD>  (1) 
0.4

>  <PUBCHEM_CONFORMER_DIVERSEORDER>  (1) 
1

>  <PUBCHEM_MMFF94_PARTIAL_CHARGES>  (1) 
14
1 -0.38
10 0.06
14 0.4
15 0.4
16 0.4
17 0.4
2 -0.12
3 -0.66
4 -0.66
5 -0.85
6 -0.85
7 0.55
8 0.6
9 0.71

>  <PUBCHEM_EFFECTIVE_ROTOR_COUNT>  (1) 
0

>  <PUBCHEM_PHARMACOPHORE_FEATURES>  (1) 
5
1 5 donor
1 6 donor
4 2 3 5 7 cation
4 2 4 6 9 cation
6 2 3 4 7 8 9 rings

>  <PUBCHEM_HEAVY_ATOM_COUNT>  (1) 
10

>  <PUBCHEM_ATOM_DEF_STEREO_COUNT>  (1) 
0

>  <PUBCHEM_ATOM_UDEF_STEREO_COUNT>  (1) 
0

>  <PUBCHEM_BOND_DEF_STEREO_COUNT>  (1) 
0

>  <PUBCHEM_BOND_UDEF_STEREO_COUNT>  (1) 
0

>  <PUBCHEM_ISOTOPIC_ATOM_COUNT>  (1) 
0

>  <PUBCHEM_COMPONENT_COUNT>  (1) 
1

>  <PUBCHEM_CACTVS_TAUTO_COUNT>  (1) 
2

>  <PUBCHEM_CONFORMER_ID>  (1) 
00004DE600000001

>  <PUBCHEM_MMFF94_ENERGY>  (1) 
30.2438

>  <PUBCHEM_FEATURE_SELFOVERLAP>  (1) 
25.405

>  <PUBCHEM_SHAPE_FINGERPRINT>  (1) 
16945 1 18410573972503926085
18185500 45 18340485552151621103
193761 8 17762055840826582406
21040471 1 17978511158689836801
23552423 10 18411136952690962647
241688 4 17834116342462379115
2748010 2 18193278726388551799
29004967 10 18335426712168929651
5084963 1 18130507538812982483

>  <PUBCHEM_SHAPE_MULTIPOLES>  (1) 
175.02
2.92
2.16
0.56
1.6
0.13
0
-0.21
0
-1.1
0
0.04
0
0

>  <PUBCHEM_SHAPE_SELFOVERLAP>  (1) 
358.88

>  <PUBCHEM_SHAPE_VOLUME>  (1) 
99.9

>  <PUBCHEM_COORDINATE_TYPE>  (1) 
2
5
10

$$$$
