19947
     RDKit          3D

 18 19  0  0  0  0  0  0  0  0999 V2000
    6.1040    0.0085    0.3242 Cl  0  0  0  0  0  0  0  0  0  0  0  0
   -2.6389    2.8041   -0.0493 O   0  0  0  0  0  0  0  0  0  0  0  0
    0.2841   -0.3139   -0.3839 O   0  0  0  0  0  0  0  0  0  0  0  0
   -3.0322   -1.3118    0.0210 N   0  0  0  0  0  0  0  0  0  0  0  0
   -1.7845    0.8529   -0.1254 C   0  0  0  0  0  0  0  0  0  0  0  0
   -2.4345   -0.2669   -0.9102 C   0  0  0  0  0  0  0  0  0  0  0  0
   -2.7383    1.6225    0.7779 C   0  0  0  0  0  0  0  0  0  0  0  0
   -1.6529    2.1628   -0.8900 C   0  0  0  0  0  0  0  0  0  0  0  0
   -0.5157    0.3981    0.5511 C   0  0  0  0  0  0  0  0  0  0  0  0
   -4.0863   -0.6604    0.9045 C   0  0  0  0  0  0  0  0  0  0  0  0
   -3.6745   -2.4179   -0.8039 C   0  0  0  0  0  0  0  0  0  0  0  0
   -1.9336   -1.9021    0.8932 C   0  0  0  0  0  0  0  0  0  0  0  0
    1.6424   -0.2388   -0.2187 C   0  0  0  0  0  0  0  0  0  0  0  0
    2.1723   -0.0723    1.0556 C   0  0  0  0  0  0  0  0  0  0  0  0
    2.4765   -0.3298   -1.3273 C   0  0  0  0  0  0  0  0  0  0  0  0
    3.5548    0.0044    1.2238 C   0  0  0  0  0  0  0  0  0  0  0  0
    3.8591   -0.2532   -1.1591 C   0  0  0  0  0  0  0  0  0  0  0  0
    4.3983   -0.0862    0.1165 C   0  0  0  0  0  0  0  0  0  0  0  0
  1 18  1  0
  2  7  1  0
  2  8  1  0
  3  9  1  0
  3 13  1  0
  4  6  1  0
  4 10  1  0
  4 11  1  0
  4 12  1  0
  5  6  1  0
  5  7  1  0
  5  8  1  0
  5  9  1  0
 13 14  2  0
 13 15  1  0
 14 16  1  0
 15 17  2  0
 16 18  2  0
 17 18  1  0
M  CHG  1   4   1
M  END
>  <PUBCHEM_COMPOUND_CID>  (1) 
19947

>  <PUBCHEM_CONFORMER_RMSD>  (1) 
0.8

>  <PUBCHEM_CONFORMER_DIVERSEORDER>  (1) 
2
4
3
1

>  <PUBCHEM_MMFF94_PARTIAL_CHARGES>  (1) 
21
1 -0.18
10 0.5
11 0.5
12 0.5
13 0.08
14 -0.15
15 -0.15
16 -0.15
17 -0.15
18 0.18
2 -0.52
3 -0.36
36 0.15
37 0.15
38 0.15
39 0.15
4 -1.01
6 0.5
7 0.26
8 0.26
9 0.28

>  <PUBCHEM_EFFECTIVE_ROTOR_COUNT>  (1) 
5.8

>  <PUBCHEM_PHARMACOPHORE_FEATURES>  (1) 
5
1 2 acceptor
1 3 acceptor
1 4 cation
4 2 5 7 8 rings
6 13 14 15 16 17 18 rings

>  <PUBCHEM_HEAVY_ATOM_COUNT>  (1) 
18

>  <PUBCHEM_ATOM_DEF_STEREO_COUNT>  (1) 
0

>  <PUBCHEM_ATOM_UDEF_STEREO_COUNT>  (1) 
0

>  <PUBCHEM_BOND_DEF_STEREO_COUNT>  (1) 
0

>  <PUBCHEM_BOND_UDEF_STEREO_COUNT>  (1) 
0

>  <PUBCHEM_ISOTOPIC_ATOM_COUNT>  (1) 
0

>  <PUBCHEM_COMPONENT_COUNT>  (1) 
1

>  <PUBCHEM_CACTVS_TAUTO_COUNT>  (1) 
1

>  <PUBCHEM_CONFORMER_ID>  (1) 
00004DEB00000002

>  <PUBCHEM_MMFF94_ENERGY>  (1) 
97.2881

>  <PUBCHEM_FEATURE_SELFOVERLAP>  (1) 
25.371

>  <PUBCHEM_SHAPE_FINGERPRINT>  (1) 
10366900 7 18340197587622089114
10680689 15 18413392029506652946
10912923 1 17967811635842854584
11315181 36 17822292401282561624
11370993 144 17131007402858475507
11405975 8 18127978516531027786
11615757 297 16515689948479033932
12107183 9 17612017189055077560
12173636 292 18123190108890199293
12236239 1 17530684307898175946
12403259 415 17774998003915028728
12500047 106 18267581312701377924
12553582 1 18262521506546554875
128620 24 17603307076503366330
13167823 11 18260545585572889642
13296908 3 17775284937309693716
13583140 156 18127384836128613514
14289901 80 18410858763395940290
14386348 63 17775007886112498042
15099037 37 18341893004339246190
15653759 3 18202566168075159296
16752209 62 18115290250988380843
17349148 13 16950278529433505538
17844677 252 18341899593605263016
18186145 218 15769769165842150998
18927931 339 18410016541631368934
19141452 34 17988930015617569503
200 152 17022899068676316902
20279233 1 17775284937183086830
20645477 56 18339925900728211113
21065201 7 18341049632172181594
21339142 126 18411419518779380879
21426921 1 18411134723386859493
21728266 224 18335124402438131242
22094290 60 18410576184296026072
22943178 12 17917431982450055382
2297311 6 18412273847540042190
23402539 116 18334571373600570831
23557571 272 18343023276860730888
23559900 14 18337942484983639432
238078 22 17824840055112210043
312423 11 17895209817376250564
3268164 11 18410567388092273388
4214541 1 18410011001418605208
5104073 3 18200870683028786234
573450 72 18260538988323424146
602551 16 18413109489568398594
6049 1 17917990581411864080
633830 44 14333125325812836976
7495541 125 18059573642075850552
7615 1 17675928694315667708
77492 1 17530686489641302988
81228 2 18409455791006729473

>  <PUBCHEM_SHAPE_MULTIPOLES>  (1) 
355.58
10.23
2.07
1.23
11.89
0.62
-0.05
-1.98
0.78
-3.84
-0.22
0.3
-0.11
0.01

>  <PUBCHEM_SHAPE_SELFOVERLAP>  (1) 
726.884

>  <PUBCHEM_SHAPE_VOLUME>  (1) 
210.5

>  <PUBCHEM_COORDINATE_TYPE>  (1) 
2
5
10

$$$$
