19944
     RDKit          3D

 10  9  0  0  1  0  0  0  0  0999 V2000
   -1.1671   -0.8126   -0.1233 C   0  0  0  0  0  0  0  0  0  0  0  0
    0.3317   -0.6471    0.2254 C   0  0  0  0  0  0  0  0  0  0  0  0
   -1.9023    0.5293   -0.4061 C   0  0  0  0  0  0  0  0  0  0  0  0
    1.1157    0.1894   -0.7931 C   0  0  0  0  0  0  0  0  0  0  0  0
    2.6028    0.3593   -0.4266 C   0  0  0  0  0  0  0  0  0  0  0  0
   -1.8371   -1.6502    0.9756 C   0  0  0  0  0  0  0  0  0  0  0  0
   -3.3688    0.3082   -0.7957 C   0  0  0  0  0  0  0  0  0  0  0  0
   -1.8247    1.5352    0.7455 C   0  0  0  0  0  0  0  0  0  0  0  0
    3.3202   -0.9821   -0.2669 C   0  0  0  0  0  0  0  0  0  0  0  0
    2.7297    1.1705    0.8652 C   0  0  0  0  0  0  0  0  0  0  0  0
  1  2  1  0
  1  3  1  0
  1  6  1  0
  2  4  1  0
  3  7  1  0
  3  8  1  0
  4  5  1  0
  5  9  1  0
  5 10  1  0
M  END
>  <PUBCHEM_COMPOUND_CID>  (1) 
19944

>  <PUBCHEM_CONFORMER_RMSD>  (1) 
0.6

>  <PUBCHEM_CONFORMER_DIVERSEORDER>  (1) 
1
5
12
7
9
3
2
11
10
4
8
6

>  <PUBCHEM_MMFF94_PARTIAL_CHARGES>  (1) 
0

>  <PUBCHEM_EFFECTIVE_ROTOR_COUNT>  (1) 
4

>  <PUBCHEM_PHARMACOPHORE_FEATURES>  (1) 
4
1 6 hydrophobe
3 3 7 8 hydrophobe
3 5 9 10 hydrophobe
5 1 2 3 4 5 hydrophobe

>  <PUBCHEM_HEAVY_ATOM_COUNT>  (1) 
10

>  <PUBCHEM_ATOM_DEF_STEREO_COUNT>  (1) 
0

>  <PUBCHEM_ATOM_UDEF_STEREO_COUNT>  (1) 
1

>  <PUBCHEM_BOND_DEF_STEREO_COUNT>  (1) 
0

>  <PUBCHEM_BOND_UDEF_STEREO_COUNT>  (1) 
0

>  <PUBCHEM_ISOTOPIC_ATOM_COUNT>  (1) 
0

>  <PUBCHEM_COMPONENT_COUNT>  (1) 
1

>  <PUBCHEM_CACTVS_TAUTO_COUNT>  (1) 
1

>  <PUBCHEM_CONFORMER_ID>  (1) 
00004DE800000001

>  <PUBCHEM_MMFF94_ENERGY>  (1) 
13.9121

>  <PUBCHEM_FEATURE_SELFOVERLAP>  (1) 
20.318

>  <PUBCHEM_SHAPE_FINGERPRINT>  (1) 
12162725 195 18060417993390398272
124424 183 18341894057065221422
12716758 59 18335419075543140459
12897270 3 17775562039841028605
12932741 1 18412549837912100598
12932764 1 18059584649644610790
14325111 11 18334858324607576478
14390081 3 18343017791749449064
15310529 11 16988839454196596405
15775835 57 17312818286193297044
18186145 218 18337101272805070045
19973954 147 18341337785501323176
20201158 50 18202001023367121404
20653085 51 17560250110991660393
20715346 28 18338520845348199478
207724 885 17895203155707758036
21028194 46 18336827502783209117
21524375 3 18053672369516668801
22096605 113 17559942385132801032
23380061 50 18335411417569056784
23402539 116 18131057213238893437
305870 269 17899981525878465545
3248919 1 18261109707730193958
369184 2 18202285831048634071
5084963 1 18113907073538876190
57812782 119 18202559562346892820
74978 22 18041002851474074598
8030462 33 18342746216962382852

>  <PUBCHEM_SHAPE_MULTIPOLES>  (1) 
205.8
5.58
1.52
1.02
1.7
0.08
-0.08
-0.43
0.52
-0.35
-0.51
-0.18
-0.05
0.5

>  <PUBCHEM_SHAPE_SELFOVERLAP>  (1) 
368.362

>  <PUBCHEM_SHAPE_VOLUME>  (1) 
136.5

>  <PUBCHEM_COORDINATE_TYPE>  (1) 
2
5
10

$$$$
