19958
     RDKit          3D

 12 12  0  0  0  0  0  0  0  0999 V2000
   -3.9140   -1.9349   -0.0009 S   0  0  0  0  0  0  0  0  0  0  0  0
    3.9152   -1.9340   -0.0006 S   0  0  0  0  0  0  0  0  0  0  0  0
   -2.7936    0.6032    0.0001 N   0  0  0  0  0  0  0  0  0  0  0  0
    2.7934    0.6033    0.0001 N   0  0  0  0  0  0  0  0  0  0  0  0
   -1.3950    0.6045    0.0002 C   0  0  0  0  0  0  0  0  0  0  0  0
    1.3947    0.6038    0.0003 C   0  0  0  0  0  0  0  0  0  0  0  0
   -0.6977    0.6052   -1.2078 C   0  0  0  0  0  0  0  0  0  0  0  0
    0.6971    0.6048   -1.2077 C   0  0  0  0  0  0  0  0  0  0  0  0
   -0.6976    0.6034    1.2083 C   0  0  0  0  0  0  0  0  0  0  0  0
    0.6973    0.6031    1.2084 C   0  0  0  0  0  0  0  0  0  0  0  0
   -3.2591   -0.4814    0.0000 C   0  0  0  0  0  0  0  0  0  0  0  0
    3.2594   -0.4811   -0.0005 C   0  0  0  0  0  0  0  0  0  0  0  0
  1 11  2  0
  2 12  2  0
  3  5  1  0
  3 11  2  0
  4  6  1  0
  4 12  2  0
  5  7  2  0
  5  9  1  0
  6  8  2  0
  6 10  1  0
  7  8  1  0
  9 10  2  0
M  END
>  <PUBCHEM_COMPOUND_CID>  (1) 
19958

>  <PUBCHEM_CONFORMER_RMSD>  (1) 
0.6

>  <PUBCHEM_CONFORMER_DIVERSEORDER>  (1) 
1
6
3
4
5
2

>  <PUBCHEM_MMFF94_PARTIAL_CHARGES>  (1) 
16
1 -0.27
10 -0.15
11 0.57
12 0.57
13 0.15
14 0.15
15 0.15
16 0.15
2 -0.27
3 -0.48
4 -0.48
5 0.18
6 0.18
7 -0.15
8 -0.15
9 -0.15

>  <PUBCHEM_EFFECTIVE_ROTOR_COUNT>  (1) 
2

>  <PUBCHEM_PHARMACOPHORE_FEATURES>  (1) 
5
1 1 acceptor
1 2 acceptor
1 3 acceptor
1 4 acceptor
6 5 6 7 8 9 10 rings

>  <PUBCHEM_HEAVY_ATOM_COUNT>  (1) 
12

>  <PUBCHEM_ATOM_DEF_STEREO_COUNT>  (1) 
0

>  <PUBCHEM_ATOM_UDEF_STEREO_COUNT>  (1) 
0

>  <PUBCHEM_BOND_DEF_STEREO_COUNT>  (1) 
0

>  <PUBCHEM_BOND_UDEF_STEREO_COUNT>  (1) 
0

>  <PUBCHEM_ISOTOPIC_ATOM_COUNT>  (1) 
0

>  <PUBCHEM_COMPONENT_COUNT>  (1) 
1

>  <PUBCHEM_CACTVS_TAUTO_COUNT>  (1) 
1

>  <PUBCHEM_CONFORMER_ID>  (1) 
00004DF600000001

>  <PUBCHEM_MMFF94_ENERGY>  (1) 
29.2831

>  <PUBCHEM_FEATURE_SELFOVERLAP>  (1) 
25.381

>  <PUBCHEM_SHAPE_FINGERPRINT>  (1) 
10857977 72 16343988000513814057
11206711 2 15647325317062573085
11543360 7 18113906004150119972
11769659 78 18410854364911728678
12006461 19 18410011043793661439
122479 349 10303805497401538582
124424 183 17774997947695494097
12644460 14 16845003645380069618
13380536 243 14129059239729383290
13705890 14 18334293188700365666
14251710 61 18410579487005200423
14350558 41 18410581707513471838
14911166 2 15719393944755452297
14993402 34 16877659093258953219
15375462 189 17846492685984379694
15477762 27 18260831548368041436
177051 138 18413109476150486990
18186145 218 15140687993981972349
19026448 4 18410847767842130917
19026448 5 18410864260516547552
19422 9 18410579487004667748
21293036 1 15213023755877112908
22485316 2 18410571790423169378
22620623 9 17386555861105498767
23402539 116 16588019074850188638
23402655 69 15214116675653483503
23500284 214 12031781483229550358
449060 23 17822008700869311023

>  <PUBCHEM_SHAPE_MULTIPOLES>  (1) 
244.69
6.95
1.63
1.11
0.01
1.18
0
5.38
0
0
0
0
-0.3
0

>  <PUBCHEM_SHAPE_SELFOVERLAP>  (1) 
495.301

>  <PUBCHEM_SHAPE_VOLUME>  (1) 
143.9

>  <PUBCHEM_COORDINATE_TYPE>  (1) 
2
5
10

$$$$
