19969
     RDKit          3D

  7  7  0  0  0  0  0  0  0  0999 V2000
    0.0070    1.5568   -0.4309 C   0  0  0  0  0  0  0  0  0  0  0  0
   -1.2740    1.0598    0.2294 C   0  0  0  0  0  0  0  0  0  0  0  0
    1.2847    1.0481    0.2270 C   0  0  0  0  0  0  0  0  0  0  0  0
   -1.5737   -0.3983    0.0746 C   0  0  0  0  0  0  0  0  0  0  0  0
    1.5697   -0.4132    0.0756 C   0  0  0  0  0  0  0  0  0  0  0  0
   -0.7275   -1.4231   -0.0887 C   0  0  0  0  0  0  0  0  0  0  0  0
    0.7138   -1.4300   -0.0870 C   0  0  0  0  0  0  0  0  0  0  0  0
  1  2  1  0
  1  3  1  0
  2  4  1  0
  3  5  1  0
  4  6  2  0
  5  7  2  0
  6  7  1  0
M  END
>  <PUBCHEM_COMPOUND_CID>  (1) 
19969

>  <PUBCHEM_CONFORMER_RMSD>  (1) 
0.4

>  <PUBCHEM_CONFORMER_DIVERSEORDER>  (1) 
1

>  <PUBCHEM_MMFF94_PARTIAL_CHARGES>  (1) 
10
14 0.15
15 0.15
16 0.15
17 0.15
2 0.14
3 0.14
4 -0.29
5 -0.29
6 -0.15
7 -0.15

>  <PUBCHEM_EFFECTIVE_ROTOR_COUNT>  (1) 
0.6

>  <PUBCHEM_PHARMACOPHORE_FEATURES>  (1) 
1
7 1 2 3 4 5 6 7 rings

>  <PUBCHEM_HEAVY_ATOM_COUNT>  (1) 
7

>  <PUBCHEM_ATOM_DEF_STEREO_COUNT>  (1) 
0

>  <PUBCHEM_ATOM_UDEF_STEREO_COUNT>  (1) 
0

>  <PUBCHEM_BOND_DEF_STEREO_COUNT>  (1) 
0

>  <PUBCHEM_BOND_UDEF_STEREO_COUNT>  (1) 
0

>  <PUBCHEM_ISOTOPIC_ATOM_COUNT>  (1) 
0

>  <PUBCHEM_COMPONENT_COUNT>  (1) 
1

>  <PUBCHEM_CACTVS_TAUTO_COUNT>  (1) 
1

>  <PUBCHEM_CONFORMER_ID>  (1) 
00004E0100000001

>  <PUBCHEM_MMFF94_ENERGY>  (1) 
7.8162

>  <PUBCHEM_FEATURE_SELFOVERLAP>  (1) 
5.074

>  <PUBCHEM_SHAPE_FINGERPRINT>  (1) 
16714656 1 18266190434940098494
18185500 45 17690557915276291878
20096714 4 18411984654285690883
21040471 1 18411139104084605360

>  <PUBCHEM_SHAPE_MULTIPOLES>  (1) 
144.06
1.94
1.91
0.66
0
0.02
-0.01
-0.01
0.15
0
-0.12
0
0.05
0

>  <PUBCHEM_SHAPE_SELFOVERLAP>  (1) 
279.261

>  <PUBCHEM_SHAPE_VOLUME>  (1) 
83.8

>  <PUBCHEM_COORDINATE_TYPE>  (1) 
2
5
10

$$$$
