1996
     RDKit          3D

 13 12  0  0  1  0  0  0  0  0999 V2000
   -0.9903    0.7646   -0.3268 O   0  0  0  0  0  0  0  0  0  0  0  0
    1.4114   -2.5429    0.0974 O   0  0  0  0  0  0  0  0  0  0  0  0
   -0.4972   -1.9640   -0.9964 O   0  0  0  0  0  0  0  0  0  0  0  0
   -2.5301    0.1516    1.2861 O   0  0  0  0  0  0  0  0  0  0  0  0
    1.5187    1.0106   -0.0670 N   0  0  0  0  0  0  0  0  0  0  0  0
    0.1428    0.6342    0.5753 C   0  0  0  0  0  0  0  0  0  0  0  0
    2.6134    0.7995    0.9852 C   0  0  0  0  0  0  0  0  0  0  0  0
    1.8450    0.1103   -1.2573 C   0  0  0  0  0  0  0  0  0  0  0  0
    1.5539    2.4695   -0.5066 C   0  0  0  0  0  0  0  0  0  0  0  0
    0.1312   -0.8237    1.0721 C   0  0  0  0  0  0  0  0  0  0  0  0
    0.2802   -1.8092   -0.0670 C   0  0  0  0  0  0  0  0  0  0  0  0
   -2.2383    0.4988    0.1502 C   0  0  0  0  0  0  0  0  0  0  0  0
   -3.2406    0.7008   -0.9453 C   0  0  0  0  0  0  0  0  0  0  0  0
  1  6  1  0
  1 12  1  0
  2 11  1  0
  3 11  2  0
  4 12  2  0
  5  6  1  0
  5  7  1  0
  5  8  1  0
  5  9  1  0
  6 10  1  0
 10 11  1  0
 12 13  1  0
M  CHG  1   5   1
M  END
>  <PUBCHEM_COMPOUND_CID>  (1) 
1996

>  <PUBCHEM_CONFORMER_RMSD>  (1) 
0.6

>  <PUBCHEM_CONFORMER_DIVERSEORDER>  (1) 
1
17
14
6
2
7
15
8
4
20
19
21
5
16
3
13
12
9
18
10
11
22

>  <PUBCHEM_MMFF94_PARTIAL_CHARGES>  (1) 
14
1 -0.43
10 0.06
11 0.66
12 0.66
13 0.06
2 -0.65
29 0.5
3 -0.57
4 -0.57
5 -1.01
6 0.78
7 0.5
8 0.5
9 0.5

>  <PUBCHEM_EFFECTIVE_ROTOR_COUNT>  (1) 
5

>  <PUBCHEM_PHARMACOPHORE_FEATURES>  (1) 
5
1 2 acceptor
1 3 acceptor
1 4 acceptor
1 5 cation
3 2 3 11 anion

>  <PUBCHEM_HEAVY_ATOM_COUNT>  (1) 
13

>  <PUBCHEM_ATOM_DEF_STEREO_COUNT>  (1) 
0

>  <PUBCHEM_ATOM_UDEF_STEREO_COUNT>  (1) 
1

>  <PUBCHEM_BOND_DEF_STEREO_COUNT>  (1) 
0

>  <PUBCHEM_BOND_UDEF_STEREO_COUNT>  (1) 
0

>  <PUBCHEM_ISOTOPIC_ATOM_COUNT>  (1) 
0

>  <PUBCHEM_COMPONENT_COUNT>  (1) 
1

>  <PUBCHEM_CACTVS_TAUTO_COUNT>  (1) 
1

>  <PUBCHEM_CONFORMER_ID>  (1) 
000007CC00000001

>  <PUBCHEM_MMFF94_ENERGY>  (1) 
42.7379

>  <PUBCHEM_FEATURE_SELFOVERLAP>  (1) 
25.429

>  <PUBCHEM_SHAPE_FINGERPRINT>  (1) 
1 1 18409448089587159093
10702982 57 18267286798103625878
12138202 97 18127693948840241172
12423570 1 12111427661677493210
14128692 85 17914048694655549111
14817 1 16476219855821414138
15775835 57 18188483695960965085
15852999 172 17916862555728175372
16945 1 18336273374566078097
20711985 344 17548432847826683478
21028194 46 18187367683174222417
21040471 1 18268716171952172072
23211744 41 17894918476759512097
23419403 2 15009886766758961232
241688 4 17687473364464718512
2748010 2 18193289699987911888
305870 269 18271526403282022568
353137 74 17399226946362249148
5084963 1 18202007650348964109
528862 383 18338222770053968419
81228 2 17474959104007344402

>  <PUBCHEM_SHAPE_MULTIPOLES>  (1) 
239.08
3.76
2.33
1.2
2.24
0.92
0.02
-1.77
-0.1
-1.14
-0.46
0.02
0.02
0.05

>  <PUBCHEM_SHAPE_SELFOVERLAP>  (1) 
454.494

>  <PUBCHEM_SHAPE_VOLUME>  (1) 
147.6

>  <PUBCHEM_COORDINATE_TYPE>  (1) 
2
5
10

$$$$
