19970
     RDKit          3D

 29 32  0  0  1  0  0  0  0  0999 V2000
   -0.9613    1.3299   -1.7855 O   0  0  0  0  0  0  0  0  0  0  0  0
    0.5168   -2.1015    0.3285 O   0  0  0  0  0  0  0  0  0  0  0  0
   -4.3835   -1.0143    0.8917 O   0  0  0  0  0  0  0  0  0  0  0  0
    2.2166    2.4434    1.9010 O   0  0  0  0  0  0  0  0  0  0  0  0
    3.5557   -0.8753   -2.0757 O   0  0  0  0  0  0  0  0  0  0  0  0
    0.4219   -4.3919    0.1167 O   0  0  0  0  0  0  0  0  0  0  0  0
   -2.7420    0.5546    0.3526 N   0  0  0  0  0  0  0  0  0  0  0  0
    0.1825    1.1124    0.3059 N   0  0  0  0  0  0  0  0  0  0  0  0
    5.6068    0.2205   -0.6830 N   0  0  0  0  0  0  0  0  0  0  0  0
    0.4016   -3.3883    2.1853 N   0  0  0  0  0  0  0  0  0  0  0  0
   -1.6654   -0.2604   -0.1455 C   0  0  0  0  0  0  0  0  0  0  0  0
   -1.7159    0.1582    1.2635 C   0  0  0  0  0  0  0  0  0  0  0  0
   -0.4975    0.4031   -0.8061 C   0  0  0  0  0  0  0  0  0  0  0  0
   -0.5830    1.0983    1.5497 C   0  0  0  0  0  0  0  0  0  0  0  0
    0.6434   -0.4775   -1.4190 C   0  0  0  0  0  0  0  0  0  0  0  0
    1.5473    0.9881    0.1794 C   0  0  0  0  0  0  0  0  0  0  0  0
    1.8778    0.1445   -0.7963 C   0  0  0  0  0  0  0  0  0  0  0  0
   -4.0399    0.0799    0.4514 C   0  0  0  0  0  0  0  0  0  0  0  0
    0.5669   -1.9645   -1.0794 C   0  0  0  0  0  0  0  0  0  0  0  0
    2.5435    1.6708    1.0070 C   0  0  0  0  0  0  0  0  0  0  0  0
    3.2727   -0.1288   -1.1439 C   0  0  0  0  0  0  0  0  0  0  0  0
   -5.0439    1.0839   -0.0460 C   0  0  0  0  0  0  0  0  0  0  0  0
   -1.4728    0.6615   -2.9286 C   0  0  0  0  0  0  0  0  0  0  0  0
    3.9815    1.3785    0.6903 C   0  0  0  0  0  0  0  0  0  0  0  0
    4.3297    0.5436   -0.3135 C   0  0  0  0  0  0  0  0  0  0  0  0
   -6.4554    0.5329    0.0762 C   0  0  0  0  0  0  0  0  0  0  0  0
    4.9614    2.0960    1.5804 C   0  0  0  0  0  0  0  0  0  0  0  0
   -7.5103    1.4849   -0.4704 C   0  0  0  0  0  0  0  0  0  0  0  0
    0.4448   -3.3826    0.8131 C   0  0  0  0  0  0  0  0  0  0  0  0
  1 13  1  0
  1 23  1  0
  2 19  1  0
  2 29  1  0
  3 18  2  0
  4 20  2  0
  5 21  2  0
  6 29  2  0
  7 11  1  0
  7 12  1  0
  7 18  1  0
  8 13  1  0
  8 14  1  0
  8 16  1  0
  9 25  1  0
 10 29  1  0
 11 12  1  0
 11 13  1  0
 12 14  1  0
 13 15  1  0
 15 17  1  0
 15 19  1  0
 16 17  2  0
 16 20  1  0
 17 21  1  0
 18 22  1  0
 20 24  1  0
 21 25  1  0
 22 26  1  0
 24 25  2  0
 24 27  1  0
 26 28  1  0
M  END
>  <PUBCHEM_COMPOUND_CID>  (1) 
19970

>  <PUBCHEM_CONFORMER_RMSD>  (1) 
1

>  <PUBCHEM_CONFORMER_DIVERSEORDER>  (1) 
2
16
7
53
70
63
10
24
30
48
59
47
57
5
43
35
39
58
45
62
68
14
31
25
52
3
67
64
37
54
6
66
50
60
32
38
13
46
20
41
61
29
51
56
55
22
18
69
27
19
15
71
65
9
21
42
40
36
26
44
1
8
17
28
23
34
33
11
12
49
4

>  <PUBCHEM_MMFF94_PARTIAL_CHARGES>  (1) 
33
1 -0.56
10 -0.8
11 -0.05
12 -0.05
13 0.74
14 0.46
15 0.14
16 0.11
17 -0.12
18 0.57
19 0.28
2 -0.43
20 0.54
21 0.54
22 0.06
23 0.28
24 -0.12
25 0.11
27 0.14
29 0.78
3 -0.57
30 0.1
31 0.1
4 -0.57
47 0.4
48 0.4
5 -0.57
52 0.37
53 0.37
6 -0.57
7 -0.36
8 -0.84
9 -0.9

>  <PUBCHEM_EFFECTIVE_ROTOR_COUNT>  (1) 
7.6

>  <PUBCHEM_PHARMACOPHORE_FEATURES>  (1) 
13
1 1 acceptor
1 10 donor
1 28 hydrophobe
1 3 acceptor
1 4 acceptor
1 5 acceptor
1 6 acceptor
1 8 cation
1 9 cation
1 9 donor
5 8 13 15 16 17 rings
6 16 17 20 21 24 25 rings
6 7 8 11 12 13 14 rings

>  <PUBCHEM_HEAVY_ATOM_COUNT>  (1) 
29

>  <PUBCHEM_ATOM_DEF_STEREO_COUNT>  (1) 
1

>  <PUBCHEM_ATOM_UDEF_STEREO_COUNT>  (1) 
3

>  <PUBCHEM_BOND_DEF_STEREO_COUNT>  (1) 
0

>  <PUBCHEM_BOND_UDEF_STEREO_COUNT>  (1) 
0

>  <PUBCHEM_ISOTOPIC_ATOM_COUNT>  (1) 
0

>  <PUBCHEM_COMPONENT_COUNT>  (1) 
1

>  <PUBCHEM_CACTVS_TAUTO_COUNT>  (1) 
42

>  <PUBCHEM_CONFORMER_ID>  (1) 
00004E0200000002

>  <PUBCHEM_MMFF94_ENERGY>  (1) 
99.4974

>  <PUBCHEM_FEATURE_SELFOVERLAP>  (1) 
66.144

>  <PUBCHEM_SHAPE_FINGERPRINT>  (1) 
10165383 225 18333456439277751204
11421498 54 14476699467989211535
11578080 2 17826236190150863061
12011746 2 18202014239361552772
12236239 1 16057163908682957325
12422481 6 17604136039519603939
12788726 201 17467362556723064626
13583140 156 18272936025219266461
14787075 74 17916585487071308473
14955137 171 8142076568373069711
15238133 3 14274023157368937501
16945 1 17488206857680702780
20197701 30 18412545448376740659
20567600 347 18259988158562432315
21033648 29 18339075011909332945
21049683 118 18127383826284038890
21285901 2 17313670322449082359
21421861 104 18049173176372328641
22224240 67 18335979843990739949
22393880 68 18342737429950204471
22956985 138 17387964279545500434
23419403 2 17463101597020162547
23558518 356 17766824401276239653
23559900 14 18340502122114441276
335352 9 17561086917277985788
3383291 50 18198350564040729190
34934 24 17489302014475605517
4340502 62 18412266146990779979
474 4 17703788184518070952
59755656 215 18271813388859834605
59755656 520 18412256268323562478
81228 2 17756979374430529054
9999458 23 18413389851784537453

>  <PUBCHEM_SHAPE_MULTIPOLES>  (1) 
541.67
11.54
3.06
1.96
16.55
4.26
-0.65
-7.91
0.01
-1.73
1.81
-0.7
0.07
1.56

>  <PUBCHEM_SHAPE_SELFOVERLAP>  (1) 
1173.087

>  <PUBCHEM_SHAPE_VOLUME>  (1) 
298.7

>  <PUBCHEM_COORDINATE_TYPE>  (1) 
2
5
10

$$$$
