19973
     RDKit          3D

 25 28  0  0  1  0  0  0  0  0999 V2000
   -2.1011   -0.7793    1.6234 O   0  0  0  0  0  0  0  0  0  0  0  0
   -3.0776    1.3653   -0.0741 O   0  0  0  0  0  0  0  0  0  0  0  0
    2.8114   -1.9063    1.4606 O   0  0  0  0  0  0  0  0  0  0  0  0
    1.0538    2.4481   -1.0966 O   0  0  0  0  0  0  0  0  0  0  0  0
    3.7045    2.3417   -0.5814 O   0  0  0  0  0  0  0  0  0  0  0  0
   -3.5609    3.4000    0.8886 O   0  0  0  0  0  0  0  0  0  0  0  0
   -1.2813   -2.6660   -1.5180 N   0  0  0  0  0  0  0  0  0  0  0  0
   -0.0062   -1.5824    0.8412 N   0  0  0  0  0  0  0  0  0  0  0  0
   -5.2191    2.0933   -0.0226 N   0  0  0  0  0  0  0  0  0  0  0  0
   -1.9634   -2.0633   -0.3768 C   0  0  0  0  0  0  0  0  0  0  0  0
   -1.1621   -3.3128   -0.2183 C   0  0  0  0  0  0  0  0  0  0  0  0
   -1.3149   -1.0019    0.4599 C   0  0  0  0  0  0  0  0  0  0  0  0
    0.0361   -3.0304    0.6435 C   0  0  0  0  0  0  0  0  0  0  0  0
   -0.9399    0.3204   -0.2874 C   0  0  0  0  0  0  0  0  0  0  0  0
    1.0031   -0.6814    0.5822 C   0  0  0  0  0  0  0  0  0  0  0  0
    0.5502    0.4124   -0.0318 C   0  0  0  0  0  0  0  0  0  0  0  0
   -2.0377   -3.4008   -2.5038 C   0  0  0  0  0  0  0  0  0  0  0  0
   -1.7048    1.5421    0.2202 C   0  0  0  0  0  0  0  0  0  0  0  0
    2.4226   -0.8940    0.8876 C   0  0  0  0  0  0  0  0  0  0  0  0
    1.4589    1.4699   -0.4783 C   0  0  0  0  0  0  0  0  0  0  0  0
    3.3679    0.1993    0.4779 C   0  0  0  0  0  0  0  0  0  0  0  0
    2.9075    1.2963   -0.1598 C   0  0  0  0  0  0  0  0  0  0  0  0
    4.8025   -0.0653    0.8470 C   0  0  0  0  0  0  0  0  0  0  0  0
   -3.9187    2.3767    0.3150 C   0  0  0  0  0  0  0  0  0  0  0  0
    4.1691    2.1183   -1.8981 C   0  0  0  0  0  0  0  0  0  0  0  0
  1 12  1  0
  2 18  1  0
  2 24  1  0
  3 19  2  0
  4 20  2  0
  5 22  1  0
  5 25  1  0
  6 24  2  0
  7 10  1  0
  7 11  1  0
  7 17  1  0
  8 12  1  0
  8 13  1  0
  8 15  1  0
  9 24  1  0
 10 11  1  0
 10 12  1  0
 11 13  1  0
 12 14  1  0
 14 16  1  0
 14 18  1  0
 15 16  2  0
 15 19  1  0
 16 20  1  0
 19 21  1  0
 20 22  1  0
 21 22  2  0
 21 23  1  0
M  END
>  <PUBCHEM_COMPOUND_CID>  (1) 
19973

>  <PUBCHEM_CONFORMER_RMSD>  (1) 
0.8

>  <PUBCHEM_CONFORMER_DIVERSEORDER>  (1) 
1
7
2
6
5
4
3

>  <PUBCHEM_MMFF94_PARTIAL_CHARGES>  (1) 
30
1 -0.68
10 -0.04
11 -0.04
12 0.74
13 0.46
14 0.14
15 0.11
16 -0.12
17 0.27
18 0.28
19 0.54
2 -0.43
20 0.54
21 -0.12
22 0.09
23 0.14
24 0.78
25 0.28
26 0.1
27 0.1
3 -0.57
34 0.4
4 -0.57
43 0.37
44 0.37
5 -0.36
6 -0.57
7 -0.59
8 -0.84
9 -0.8

>  <PUBCHEM_EFFECTIVE_ROTOR_COUNT>  (1) 
4.6

>  <PUBCHEM_PHARMACOPHORE_FEATURES>  (1) 
12
1 1 acceptor
1 1 donor
1 3 acceptor
1 4 acceptor
1 5 acceptor
1 6 acceptor
1 7 cation
1 8 cation
1 9 donor
5 8 12 14 15 16 rings
6 15 16 19 20 21 22 rings
6 7 8 10 11 12 13 rings

>  <PUBCHEM_HEAVY_ATOM_COUNT>  (1) 
25

>  <PUBCHEM_ATOM_DEF_STEREO_COUNT>  (1) 
4

>  <PUBCHEM_ATOM_UDEF_STEREO_COUNT>  (1) 
0

>  <PUBCHEM_BOND_DEF_STEREO_COUNT>  (1) 
0

>  <PUBCHEM_BOND_UDEF_STEREO_COUNT>  (1) 
0

>  <PUBCHEM_ISOTOPIC_ATOM_COUNT>  (1) 
0

>  <PUBCHEM_COMPONENT_COUNT>  (1) 
1

>  <PUBCHEM_CACTVS_TAUTO_COUNT>  (1) 
18

>  <PUBCHEM_CONFORMER_ID>  (1) 
00004E0500000001

>  <PUBCHEM_MMFF94_ENERGY>  (1) 
88.1475

>  <PUBCHEM_FEATURE_SELFOVERLAP>  (1) 
61.177

>  <PUBCHEM_SHAPE_FINGERPRINT>  (1) 
10493431 412 18338508647540897880
1100329 8 18407757024135966752
11115154 58 17552614252483891271
11578080 2 17701523228755127304
12553582 1 17906172111292576530
12788726 201 18268991071492299223
13140716 1 18187361043640235704
13540713 5 18187921846273376528
13583140 156 16589133923442285777
14178342 30 18192137407955896336
14790565 3 18192721051077807604
15420108 30 17981587291676597553
15906896 17 18341048614017175095
16752209 62 18342171223767896871
16945 1 17972878348126098914
192875 21 17974826665714289434
19591789 44 17760364392928004786
20739085 24 17618787955161260688
21197605 99 18334870411653045091
21524375 3 18337389344825303385
22620623 9 17915750966277784710
23184049 59 18116151069365635008
2334 1 18260543463621272138
23558518 356 18044095880931126160
23598288 3 18339365278604749287
238 59 17320377299927852373
25147074 1 18187638154993359840
298252 57 18339640049385139027
3060560 45 18123470483948768822
335352 9 18261956246280042756
4017518 198 17916019063144415142
474 4 18264208011354746737
59444896 2 12701608090323987402
59554788 248 18269293308652122787
6287921 2 17624417476798226337
6438718 38 18200038472320862375
7164475 11 18197770205586915438
7832392 63 18335699451398522488

>  <PUBCHEM_SHAPE_MULTIPOLES>  (1) 
464.33
7.54
4.39
1.49
2.37
0.75
0.75
-6.39
0.27
-4.58
1.09
0.22
0.84
-2.92

>  <PUBCHEM_SHAPE_SELFOVERLAP>  (1) 
1012.851

>  <PUBCHEM_SHAPE_VOLUME>  (1) 
255.8

>  <PUBCHEM_COORDINATE_TYPE>  (1) 
2
5
10

$$$$
