19974
     RDKit          3D

 10  9  0  0  1  0  0  0  0  0999 V2000
    1.5729   -0.2898   -0.3691 C   0  0  0  0  0  0  0  0  0  0  0  0
    0.5785   -1.2213    0.3627 C   0  0  0  0  0  0  0  0  0  0  0  0
    2.4025    0.5494    0.6226 C   0  0  0  0  0  0  0  0  0  0  0  0
   -0.4421   -0.5232    1.2733 C   0  0  0  0  0  0  0  0  0  0  0  0
    2.4725   -1.1405   -1.2749 C   0  0  0  0  0  0  0  0  0  0  0  0
    3.3992    1.4846   -0.0494 C   0  0  0  0  0  0  0  0  0  0  0  0
   -1.2712    0.4957    0.5425 C   0  0  0  0  0  0  0  0  0  0  0  0
   -2.4348    0.3143   -0.1106 C   0  0  0  0  0  0  0  0  0  0  0  0
   -3.2137    1.3834   -0.8228 C   0  0  0  0  0  0  0  0  0  0  0  0
   -3.0638   -1.0528   -0.1744 C   0  0  0  0  0  0  0  0  0  0  0  0
  1  2  1  0
  1  3  1  0
  1  5  1  0
  2  4  1  0
  3  6  1  0
  4  7  1  0
  7  8  2  3
  8  9  1  0
  8 10  1  0
M  END
>  <PUBCHEM_COMPOUND_CID>  (1) 
19974

>  <PUBCHEM_CONFORMER_RMSD>  (1) 
0.6

>  <PUBCHEM_CONFORMER_DIVERSEORDER>  (1) 
4
23
63
46
70
31
73
7
55
69
41
57
62
36
67
17
56
66
37
71
72
53
13
19
51
18
47
68
35
54
60
26
22
42
65
52
8
3
61
40
5
39
64
14
27
74
29
58
9
48
2
34
59
45
50
15
33
43
16
12
6
49
25
30
1
24
10
44
21
28
32
38
20
11

>  <PUBCHEM_MMFF94_PARTIAL_CHARGES>  (1) 
6
10 0.14
24 0.15
4 0.14
7 -0.29
8 -0.28
9 0.14

>  <PUBCHEM_EFFECTIVE_ROTOR_COUNT>  (1) 
4

>  <PUBCHEM_PHARMACOPHORE_FEATURES>  (1) 
4
1 5 hydrophobe
1 6 hydrophobe
3 8 9 10 hydrophobe
5 1 2 3 4 7 hydrophobe

>  <PUBCHEM_HEAVY_ATOM_COUNT>  (1) 
10

>  <PUBCHEM_ATOM_DEF_STEREO_COUNT>  (1) 
0

>  <PUBCHEM_ATOM_UDEF_STEREO_COUNT>  (1) 
1

>  <PUBCHEM_BOND_DEF_STEREO_COUNT>  (1) 
0

>  <PUBCHEM_BOND_UDEF_STEREO_COUNT>  (1) 
0

>  <PUBCHEM_ISOTOPIC_ATOM_COUNT>  (1) 
0

>  <PUBCHEM_COMPONENT_COUNT>  (1) 
1

>  <PUBCHEM_CACTVS_TAUTO_COUNT>  (1) 
1

>  <PUBCHEM_CONFORMER_ID>  (1) 
00004E0600000004

>  <PUBCHEM_MMFF94_ENERGY>  (1) 
8.0721

>  <PUBCHEM_FEATURE_SELFOVERLAP>  (1) 
20.305

>  <PUBCHEM_SHAPE_FINGERPRINT>  (1) 
10149128 111 16515981263051727229
12006461 19 10375868610346107789
12162725 195 17968092066282876948
12897270 3 18271526407734933223
12932741 1 18263944218541855938
12932764 1 18261400996596581579
14325111 11 18334853926508311328
14390081 3 18114179705431196857
15310529 11 17489592250969003783
15775835 57 17822285769146441201
170605 34 18411134770858060770
18186145 218 18339930324475447611
18511873 20 12540681639578191236
18522851 12 14908186364921425311
20281407 28 10735889377998728640
20361792 2 14620505710239765081
20651381 17 16805596001610158451
20653085 51 18336837394166783777
20671657 53 17772483295867567310
20871998 22 11527941253331713778
20871999 31 18058716018663836367
22485316 2 11455899061257603200
230 275 16588304921597152315
23552423 10 17416697846920301319
23557571 272 18409731789678812373
305870 269 17459176422049811467
3248919 1 17703224023088109211
449060 23 12895353304431231785
528716 315 17704075131098071401
9939556 21 17273431468888382760

>  <PUBCHEM_SHAPE_MULTIPOLES>  (1) 
205.8
5.99
1.52
1.11
0.62
0.16
0.02
1.92
1.52
-0.22
0.24
-0.19
-0.16
0.72

>  <PUBCHEM_SHAPE_SELFOVERLAP>  (1) 
370.932

>  <PUBCHEM_SHAPE_VOLUME>  (1) 
134.6

>  <PUBCHEM_COORDINATE_TYPE>  (1) 
2
5
10

$$$$
