19985
     RDKit          3D

 33 37  0  0  1  0  0  0  0  0999 V2000
    2.3658   -1.4924    0.1440 O   0  0  0  0  0  0  0  0  0  0  0  0
   -3.9740   -1.7856    1.2052 O   0  0  0  0  0  0  0  0  0  0  0  0
   -5.6471   -0.4493   -0.6760 O   0  0  0  0  0  0  0  0  0  0  0  0
   -2.7723    0.7391    3.1407 O   0  0  0  0  0  0  0  0  0  0  0  0
    6.1288   -1.2136   -0.4709 O   0  0  0  0  0  0  0  0  0  0  0  0
   -6.7998    1.1865   -1.8303 O   0  0  0  0  0  0  0  0  0  0  0  0
    8.1605   -0.8593    0.4852 O   0  0  0  0  0  0  0  0  0  0  0  0
    1.4569   -0.4535   -0.2506 C   0  0  0  0  0  0  0  0  0  0  0  0
    0.0671   -0.7665    0.3691 C   0  0  0  0  0  0  0  0  0  0  0  0
    2.0273    0.9350    0.1452 C   0  0  0  0  0  0  0  0  0  0  0  0
   -0.9723    0.3732    0.1815 C   0  0  0  0  0  0  0  0  0  0  0  0
   -2.3509    0.0344    0.8630 C   0  0  0  0  0  0  0  0  0  0  0  0
   -2.8826   -1.3550    0.3748 C   0  0  0  0  0  0  0  0  0  0  0  0
    0.9487    2.0323   -0.0596 C   0  0  0  0  0  0  0  0  0  0  0  0
   -0.3769    1.7228    0.6328 C   0  0  0  0  0  0  0  0  0  0  0  0
    3.1705    1.1543   -0.8959 C   0  0  0  0  0  0  0  0  0  0  0  0
   -0.4860   -2.1080   -0.1456 C   0  0  0  0  0  0  0  0  0  0  0  0
    1.4849   -0.4256   -1.7900 C   0  0  0  0  0  0  0  0  0  0  0  0
   -1.8194   -2.4621    0.4974 C   0  0  0  0  0  0  0  0  0  0  0  0
    2.6409    0.5035   -2.1878 C   0  0  0  0  0  0  0  0  0  0  0  0
   -3.4287    1.1243    0.6043 C   0  0  0  0  0  0  0  0  0  0  0  0
   -3.4049   -1.2882   -1.0861 C   0  0  0  0  0  0  0  0  0  0  0  0
    2.5321    1.0028    1.6006 C   0  0  0  0  0  0  0  0  0  0  0  0
   -3.8990    1.1840   -0.8481 C   0  0  0  0  0  0  0  0  0  0  0  0
   -4.4159   -0.1643   -1.3359 C   0  0  0  0  0  0  0  0  0  0  0  0
   -2.1580    0.0103    2.3687 C   0  0  0  0  0  0  0  0  0  0  0  0
    4.5102    0.5791   -0.5360 C   0  0  0  0  0  0  0  0  0  0  0  0
    5.4610    1.4221    0.1410 C   0  0  0  0  0  0  0  0  0  0  0  0
    4.8776   -0.6774   -0.8070 C   0  0  0  0  0  0  0  0  0  0  0  0
    6.6672    0.9589    0.4832 C   0  0  0  0  0  0  0  0  0  0  0  0
   -6.6389    0.4743   -0.8484 C   0  0  0  0  0  0  0  0  0  0  0  0
    7.0533   -0.4333    0.1725 C   0  0  0  0  0  0  0  0  0  0  0  0
   -7.5260    0.4969    0.3592 C   0  0  0  0  0  0  0  0  0  0  0  0
  1  8  1  0
  2 13  1  0
  3 25  1  0
  3 31  1  0
  4 26  2  0
  5 29  1  0
  5 32  1  0
  6 31  2  0
  7 32  2  0
  8  9  1  0
  8 10  1  0
  8 18  1  0
  9 11  1  0
  9 17  1  0
 10 14  1  0
 10 16  1  0
 10 23  1  0
 11 12  1  0
 11 15  1  0
 12 13  1  0
 12 21  1  0
 12 26  1  0
 13 19  1  0
 13 22  1  0
 14 15  1  0
 16 20  1  0
 16 27  1  0
 17 19  1  0
 18 20  1  0
 21 24  1  0
 22 25  1  0
 24 25  1  0
 27 28  1  0
 27 29  2  0
 28 30  2  0
 30 32  1  0
 31 33  1  0
M  END
>  <PUBCHEM_COMPOUND_CID>  (1) 
19985

>  <PUBCHEM_CONFORMER_RMSD>  (1) 
0.8

>  <PUBCHEM_CONFORMER_DIVERSEORDER>  (1) 
3
55
26
77
66
30
67
14
41
72
59
9
62
63
32
36
12
21
74
33
44
81
75
53
28
78
23
16
6
76
37
70
57
4
79
52
25
1
11
17
19
40
20
34
50
39
47
2
64
18
80
24
58
65
31
15
42
48
5
73
38
49
13
27
56
7
54
68
10
8
69
35
45
22
29
43
61
46
71
51
60

>  <PUBCHEM_MMFF94_PARTIAL_CHARGES>  (1) 
26
1 -0.68
12 0.06
13 0.28
16 0.14
2 -0.68
25 0.28
26 0.45
27 -0.14
28 -0.15
29 -0.07
3 -0.43
30 -0.14
31 0.66
32 0.71
33 0.06
4 -0.57
5 -0.23
59 0.4
6 -0.57
60 0.06
61 0.4
62 0.15
63 0.15
64 0.15
7 -0.57
8 0.28

>  <PUBCHEM_EFFECTIVE_ROTOR_COUNT>  (1) 
6.2

>  <PUBCHEM_PHARMACOPHORE_FEATURES>  (1) 
12
1 1 acceptor
1 1 donor
1 2 acceptor
1 2 donor
1 4 acceptor
1 6 acceptor
1 7 acceptor
5 8 10 16 18 20 rings
6 12 13 21 22 24 25 rings
6 5 27 28 29 30 32 rings
6 8 9 10 11 14 15 rings
6 9 11 12 13 17 19 rings

>  <PUBCHEM_HEAVY_ATOM_COUNT>  (1) 
33

>  <PUBCHEM_ATOM_DEF_STEREO_COUNT>  (1) 
6

>  <PUBCHEM_ATOM_UDEF_STEREO_COUNT>  (1) 
2

>  <PUBCHEM_BOND_DEF_STEREO_COUNT>  (1) 
0

>  <PUBCHEM_BOND_UDEF_STEREO_COUNT>  (1) 
0

>  <PUBCHEM_ISOTOPIC_ATOM_COUNT>  (1) 
0

>  <PUBCHEM_COMPONENT_COUNT>  (1) 
1

>  <PUBCHEM_CACTVS_TAUTO_COUNT>  (1) 
1

>  <PUBCHEM_CONFORMER_ID>  (1) 
00004E1100000003

>  <PUBCHEM_MMFF94_ENERGY>  (1) 
126.6926

>  <PUBCHEM_FEATURE_SELFOVERLAP>  (1) 
61.133

>  <PUBCHEM_SHAPE_FINGERPRINT>  (1) 
10165383 225 14490470868311976969
106641 1 10015576229525326517
10835480 77 18339357591162246920
10930396 42 17844499225070952306
11315181 36 18060421347664781224
11796584 16 18187364363634183074
12011746 2 18342172276108523072
12107698 1 16630525141670215433
12166972 35 18114465681269903036
12236239 1 17704355459497959573
12788726 201 18342451492423560137
13631057 29 13901894631362228605
13782708 43 17970077849018815563
13811026 1 18411698811332320014
13914758 101 18260263031973558652
13947920 75 16988847164158777883
14068700 675 16845566543820815521
14856354 85 14779270821372475434
15131766 46 16300945561003575636
15183329 4 16443062790438599852
15238133 3 15791734083248674863
15788980 27 18041287642439896160
15849732 13 17603302652539196436
17349148 13 17774733042660238024
17980427 23 17489039226833242704
1813 80 17386011685255753870
18608769 82 18335142038159352403
19377110 9 15913054209490480998
200 152 17132117961437315061
20105231 36 8718546155403667816
20511986 3 18341602768257265366
20737093 133 16552244510332551888
21033648 29 17750230473243291744
21223535 225 18059011684281902217
22224240 67 15698275617011228676
23402539 116 18343865520000042292
23559900 14 17987507268645059673
23622692 88 14851604388575945679
249057 3 16443066114315999700
2747138 104 10663815316897984862
2838139 119 17967808371419887741
3009799 131 18413103965860394652
32027 91 15264563235107895356
335352 9 18408885152803476676
34797466 226 12967128337730925800
3633792 109 18341328886212872463
4098825 35 17530968007594053923
4325135 7 12607402204549382374
504579 68 18340498845930348060
5104073 3 18271254919263983928
5385378 56 18113897109378825659
59682541 35 12463277129617242590
59755656 215 18260827073065171918
59755656 520 15213018271842069521
6009941 240 17022624182622465872

>  <PUBCHEM_SHAPE_MULTIPOLES>  (1) 
638.04
17.82
1.88
1.76
6.96
0.4
-0.39
-0.9
2.66
-0.14
-0.3
-1.54
-0.31
0.33

>  <PUBCHEM_SHAPE_SELFOVERLAP>  (1) 
1385.405

>  <PUBCHEM_SHAPE_VOLUME>  (1) 
341.9

>  <PUBCHEM_COORDINATE_TYPE>  (1) 
2
5
10

$$$$
