19989
     RDKit          3D

 14 15  0  0  0  0  0  0  0  0999 V2000
   -1.3395    2.3223    0.0161 O   0  0  0  0  0  0  0  0  0  0  0  0
   -1.3391   -2.3052    0.2473 O   0  0  0  0  0  0  0  0  0  0  0  0
   -0.8184    0.0095    0.1470 N   0  0  0  0  0  0  0  0  0  0  0  0
    0.6134    0.0115    0.1883 C   0  0  0  0  0  0  0  0  0  0  0  0
    1.3631   -0.0649   -0.9854 C   0  0  0  0  0  0  0  0  0  0  0  0
    1.2572    0.0928    1.4231 C   0  0  0  0  0  0  0  0  0  0  0  0
   -1.6134    1.1337    0.0498 C   0  0  0  0  0  0  0  0  0  0  0  0
   -1.6142   -1.1174    0.1982 C   0  0  0  0  0  0  0  0  0  0  0  0
    2.7566   -0.0601   -0.9244 C   0  0  0  0  0  0  0  0  0  0  0  0
    0.7002   -0.1531   -2.3217 C   0  0  0  0  0  0  0  0  0  0  0  0
   -3.0080    0.6689    0.0343 C   0  0  0  0  0  0  0  0  0  0  0  0
   -3.0089   -0.6568    0.1330 C   0  0  0  0  0  0  0  0  0  0  0  0
    2.6508    0.0976    1.4841 C   0  0  0  0  0  0  0  0  0  0  0  0
    3.4003    0.0211    0.3104 C   0  0  0  0  0  0  0  0  0  0  0  0
  1  7  2  0
  2  8  2  0
  3  4  1  0
  3  7  1  0
  3  8  1  0
  4  5  2  0
  4  6  1  0
  5  9  1  0
  5 10  1  0
  6 13  2  0
  7 11  1  0
  8 12  1  0
  9 14  2  0
 11 12  2  0
 13 14  1  0
M  END
>  <PUBCHEM_COMPOUND_CID>  (1) 
19989

>  <PUBCHEM_CONFORMER_RMSD>  (1) 
0.4

>  <PUBCHEM_CONFORMER_DIVERSEORDER>  (1) 
1

>  <PUBCHEM_MMFF94_PARTIAL_CHARGES>  (1) 
20
1 -0.57
10 0.14
11 -0.14
12 -0.14
13 -0.15
14 -0.15
15 0.15
16 0.15
2 -0.57
20 0.15
21 0.15
22 0.15
23 0.15
3 -0.24
4 0.12
5 -0.14
6 -0.15
7 0.62
8 0.62
9 -0.15

>  <PUBCHEM_EFFECTIVE_ROTOR_COUNT>  (1) 
1.2

>  <PUBCHEM_PHARMACOPHORE_FEATURES>  (1) 
4
1 1 acceptor
1 2 acceptor
5 3 7 8 11 12 rings
6 4 5 6 9 13 14 rings

>  <PUBCHEM_HEAVY_ATOM_COUNT>  (1) 
14

>  <PUBCHEM_ATOM_DEF_STEREO_COUNT>  (1) 
0

>  <PUBCHEM_ATOM_UDEF_STEREO_COUNT>  (1) 
0

>  <PUBCHEM_BOND_DEF_STEREO_COUNT>  (1) 
0

>  <PUBCHEM_BOND_UDEF_STEREO_COUNT>  (1) 
0

>  <PUBCHEM_ISOTOPIC_ATOM_COUNT>  (1) 
0

>  <PUBCHEM_COMPONENT_COUNT>  (1) 
1

>  <PUBCHEM_CACTVS_TAUTO_COUNT>  (1) 
1

>  <PUBCHEM_CONFORMER_ID>  (1) 
00004E1500000001

>  <PUBCHEM_MMFF94_ENERGY>  (1) 
52.4891

>  <PUBCHEM_FEATURE_SELFOVERLAP>  (1) 
20.297

>  <PUBCHEM_SHAPE_FINGERPRINT>  (1) 
12326174 3 16630251294734646822
12423570 1 12235897746867251081
124424 183 17917425381201456626
12716758 59 18341057298145317146
13538477 17 17895478119498360107
13581323 91 18335138695714492451
13839132 238 18198623220351425412
13898156 1 17895486889589288006
14817 1 14062903523535434639
14993402 34 17240201032125953406
15207287 21 17917704699714441759
15219456 202 17560803203757714992
15775835 57 17530972370927645893
16945 1 18409446990038510624
17844478 74 17775570840091926505
18175812 5 17775002431219117612
19049666 15 17773044055070831218
20201158 50 17418099788580340014
20645476 183 17458633345295424139
23402539 116 18342446041771938005
23559900 14 18342178830745685590
2748010 2 15984248790137984726
474 4 13541308728324467602
63268167 104 16443068322029397084
77492 1 17603305955295161169
8272917 22 14835582253912819541

>  <PUBCHEM_SHAPE_MULTIPOLES>  (1) 
271.39
4.9
1.49
1.44
0.45
0.57
-0.05
-0.7
-0.12
1.1
0.14
-1.25
-0.08
0.44

>  <PUBCHEM_SHAPE_SELFOVERLAP>  (1) 
590.787

>  <PUBCHEM_SHAPE_VOLUME>  (1) 
147

>  <PUBCHEM_COORDINATE_TYPE>  (1) 
2
5
10

$$$$
