19987
     RDKit          3D

 19 19  0  0  0  0  0  0  0  0999 V2000
    0.0403    3.8074   -0.0014 Cl  0  0  0  0  0  0  0  0  0  0  0  0
    3.7402    1.3248   -0.3057 O   0  0  0  0  0  0  0  0  0  0  0  0
   -3.7341    1.3541    0.3035 O   0  0  0  0  0  0  0  0  0  0  0  0
    2.3427   -0.5619   -0.1435 N   0  0  0  0  0  0  0  0  0  0  0  0
   -2.3232   -0.5294    0.1408 N   0  0  0  0  0  0  0  0  0  0  0  0
    0.0095   -0.5817   -0.0010 N   0  0  0  0  0  0  0  0  0  0  0  0
   -1.1735    1.5047    0.0715 N   0  0  0  0  0  0  0  0  0  0  0  0
    1.2216    1.4879   -0.0733 N   0  0  0  0  0  0  0  0  0  0  0  0
    2.2527   -2.0267   -0.0408 C   0  0  0  0  0  0  0  0  0  0  0  0
   -2.2936   -2.0178    0.0403 C   0  0  0  0  0  0  0  0  0  0  0  0
    1.0952    0.1713   -0.0664 C   0  0  0  0  0  0  0  0  0  0  0  0
   -1.1053    0.1637    0.0666 C   0  0  0  0  0  0  0  0  0  0  0  0
    2.2522   -2.4762    1.4104 C   0  0  0  0  0  0  0  0  0  0  0  0
   -2.3191   -2.4707   -1.4097 C   0  0  0  0  0  0  0  0  0  0  0  0
    3.5819    0.1045   -0.2183 C   0  0  0  0  0  0  0  0  0  0  0  0
   -3.5928    0.1317    0.2179 C   0  0  0  0  0  0  0  0  0  0  0  0
    4.8166   -0.7643   -0.1437 C   0  0  0  0  0  0  0  0  0  0  0  0
   -4.8395   -0.7206    0.1539 C   0  0  0  0  0  0  0  0  0  0  0  0
    0.0282    2.0993   -0.0010 C   0  0  0  0  0  0  0  0  0  0  0  0
  1 19  1  0
  2 15  2  0
  3 16  2  0
  4  9  1  0
  4 11  1  0
  4 15  1  0
  5 10  1  0
  5 12  1  0
  5 16  1  0
  6 11  2  0
  6 12  1  0
  7 12  2  0
  7 19  1  0
  8 11  1  0
  8 19  2  0
  9 13  1  0
 10 14  1  0
 15 17  1  0
 16 18  1  0
M  END
>  <PUBCHEM_COMPOUND_CID>  (1) 
19987

>  <PUBCHEM_CONFORMER_RMSD>  (1) 
0.8

>  <PUBCHEM_CONFORMER_DIVERSEORDER>  (1) 
1
68
3
73
62
13
38
8
51
36
59
28
18
69
4
72
5
39
57
26
55
20
42
40
63
22
33
65
43
76
50
67
37
12
35
17
60
34
29
56
10
30
78
2
46
54
25
27
16
77
58
70
14
15
75
61
74
23
49
71
19
32
53
66
52
48
9
11
6
44
7
64
41
21
45
31
24
47

>  <PUBCHEM_MMFF94_PARTIAL_CHARGES>  (1) 
17
1 -0.18
10 0.3
11 0.74
12 0.74
15 0.57
16 0.57
17 0.06
18 0.06
19 0.8
2 -0.57
3 -0.57
4 -0.48
5 -0.48
6 -0.62
7 -0.62
8 -0.62
9 0.3

>  <PUBCHEM_EFFECTIVE_ROTOR_COUNT>  (1) 
6

>  <PUBCHEM_PHARMACOPHORE_FEATURES>  (1) 
4
1 2 acceptor
1 3 acceptor
3 7 8 19 cation
6 6 7 8 11 12 19 rings

>  <PUBCHEM_HEAVY_ATOM_COUNT>  (1) 
19

>  <PUBCHEM_ATOM_DEF_STEREO_COUNT>  (1) 
0

>  <PUBCHEM_ATOM_UDEF_STEREO_COUNT>  (1) 
0

>  <PUBCHEM_BOND_DEF_STEREO_COUNT>  (1) 
0

>  <PUBCHEM_BOND_UDEF_STEREO_COUNT>  (1) 
0

>  <PUBCHEM_ISOTOPIC_ATOM_COUNT>  (1) 
0

>  <PUBCHEM_COMPONENT_COUNT>  (1) 
1

>  <PUBCHEM_CACTVS_TAUTO_COUNT>  (1) 
1

>  <PUBCHEM_CONFORMER_ID>  (1) 
00004E1300000001

>  <PUBCHEM_MMFF94_ENERGY>  (1) 
54.4508

>  <PUBCHEM_FEATURE_SELFOVERLAP>  (1) 
20.297

>  <PUBCHEM_SHAPE_FINGERPRINT>  (1) 
10062212 137 18337105760808601670
10616163 171 18413110554250958646
10967382 1 18410576197064889833
11132069 177 18342453755591178250
12553582 1 18410844465017490083
13132413 78 18412547643052021613
13140716 1 18194681690177590792
14178342 30 18125703824082582979
14252887 29 18130238085529159878
15196674 1 18410858758668391332
15375462 189 18335417975973698259
16945 1 18338503196974308197
200 152 18408603643403639210
20510252 161 18055915385816233392
20600515 1 17917163744198937049
20645477 70 18410294679244514654
20671657 1 18268155447177321589
21267235 1 18410867554761738339
21421861 104 17970345919407318114
21634736 98 17695059294717223022
221490 88 18048322442014133259
2255824 54 18192993948497782861
2334 1 17978513361965920100
23366157 5 17900254505310254988
23402539 116 18201433649845474197
23419403 2 14898246775622229791
23557571 272 18201729401399036780
23558518 356 17617090747484704890
23559900 14 18125156027132731094
23598291 2 18199185277352179941
2871803 45 18334859394439593894
3091708 16 9428246787280162729
34934 24 18410570682321691458
352729 6 17690557481442962085
5104073 3 18411140238003302320
6992083 37 18271258165837415345
7364860 26 18196936793048122609
7832392 63 18412542145604535427
81228 2 18191321385280450296
9709674 26 18338525135825810582
9981440 41 17042317814265823313

>  <PUBCHEM_SHAPE_MULTIPOLES>  (1) 
356.24
7.86
3.39
0.83
0.17
2.05
0
-2.74
0.01
-0.04
0
0.01
-0.55
-0.95

>  <PUBCHEM_SHAPE_SELFOVERLAP>  (1) 
713.03

>  <PUBCHEM_SHAPE_VOLUME>  (1) 
210

>  <PUBCHEM_COORDINATE_TYPE>  (1) 
2
5
10

$$$$
