19983
     RDKit          3D

 15 15  0  0  0  0  0  0  0  0999 V2000
   -0.2357    1.5104    0.8125 O   0  0  0  0  0  0  0  0  0  0  0  0
    0.2540   -1.2236    0.9224 O   0  0  0  0  0  0  0  0  0  0  0  0
    1.0863   -1.1404   -1.2470 O   0  0  0  0  0  0  0  0  0  0  0  0
    2.4150   -1.8709    0.5088 N   0  0  0  0  0  0  0  0  0  0  0  0
   -1.1811    0.6204    0.4005 C   0  0  0  0  0  0  0  0  0  0  0  0
   -0.9351   -0.7516    0.4550 C   0  0  0  0  0  0  0  0  0  0  0  0
   -2.4034    1.0912   -0.0792 C   0  0  0  0  0  0  0  0  0  0  0  0
   -1.9115   -1.6526    0.0298 C   0  0  0  0  0  0  0  0  0  0  0  0
   -3.3797    0.1903   -0.5043 C   0  0  0  0  0  0  0  0  0  0  0  0
   -3.1337   -1.1816   -0.4498 C   0  0  0  0  0  0  0  0  0  0  0  0
    0.2368    2.4476   -0.1532 C   0  0  0  0  0  0  0  0  0  0  0  0
    1.2517   -1.3911   -0.0569 C   0  0  0  0  0  0  0  0  0  0  0  0
    1.6318    2.8414    0.2029 C   0  0  0  0  0  0  0  0  0  0  0  0
    3.6163   -2.1434   -0.2453 C   0  0  0  0  0  0  0  0  0  0  0  0
    2.6882    2.6539   -0.5960 C   0  0  0  0  0  0  0  0  0  0  0  0
  1  5  1  0
  1 11  1  0
  2  6  1  0
  2 12  1  0
  3 12  2  0
  4 12  1  0
  4 14  1  0
  5  6  2  0
  5  7  1  0
  6  8  1  0
  7  9  2  0
  8 10  2  0
  9 10  1  0
 11 13  1  0
 13 15  2  0
M  END
>  <PUBCHEM_COMPOUND_CID>  (1) 
19983

>  <PUBCHEM_CONFORMER_RMSD>  (1) 
0.8

>  <PUBCHEM_CONFORMER_DIVERSEORDER>  (1) 
1
22
2
6
51
41
61
60
73
16
70
11
49
10
32
67
58
38
28
43
45
4
3
48
9
26
36
56
17
34
69
44
29
71
27
21
15
46
13
63
50
57
52
65
23
64
33
74
53
62
31
55
47
25
66
37
40
19
20
30
68
54
14
24
12
42
18
5
8
72
35
7
75
59
39

>  <PUBCHEM_MMFF94_PARTIAL_CHARGES>  (1) 
23
1 -0.36
10 -0.15
11 0.42
12 0.78
13 -0.29
14 0.3
15 -0.3
16 0.15
17 0.15
18 0.15
19 0.15
2 -0.23
22 0.15
23 0.37
27 0.15
28 0.15
3 -0.57
4 -0.73
5 0.08
6 0.08
7 -0.15
8 -0.15
9 -0.15

>  <PUBCHEM_EFFECTIVE_ROTOR_COUNT>  (1) 
6

>  <PUBCHEM_PHARMACOPHORE_FEATURES>  (1) 
5
1 1 acceptor
1 15 hydrophobe
1 3 acceptor
1 4 donor
6 5 6 7 8 9 10 rings

>  <PUBCHEM_HEAVY_ATOM_COUNT>  (1) 
15

>  <PUBCHEM_ATOM_DEF_STEREO_COUNT>  (1) 
0

>  <PUBCHEM_ATOM_UDEF_STEREO_COUNT>  (1) 
0

>  <PUBCHEM_BOND_DEF_STEREO_COUNT>  (1) 
0

>  <PUBCHEM_BOND_UDEF_STEREO_COUNT>  (1) 
0

>  <PUBCHEM_ISOTOPIC_ATOM_COUNT>  (1) 
0

>  <PUBCHEM_COMPONENT_COUNT>  (1) 
1

>  <PUBCHEM_CACTVS_TAUTO_COUNT>  (1) 
2

>  <PUBCHEM_CONFORMER_ID>  (1) 
00004E0F00000001

>  <PUBCHEM_MMFF94_ENERGY>  (1) 
41.246

>  <PUBCHEM_FEATURE_SELFOVERLAP>  (1) 
25.372

>  <PUBCHEM_SHAPE_FINGERPRINT>  (1) 
1 1 18051689137991551381
10756046 5 18339345466547964551
10989021 7 18411419488123649225
12592029 89 18121501524900689233
15006816 218 18267302208984646424
16945 1 18051403260963207465
19021347 11 18194680599255650445
19591789 44 17186160314767653315
19868273 325 18194403294729178878
20645476 183 17176308643649259780
20905425 154 18341618139365060244
21041028 32 18341063921597136089
21501502 16 18341893039184209573
23402539 116 17982155734761711415
23419403 2 17971444395858428460
23557571 272 17841715110825798606
23559900 14 18055341441295563154
23598294 1 17759519963243833690
23728640 28 17330540455576658048
2748010 2 18339625772961273987
3071541 158 18335976480746556021
3071541 250 18411984658823088955
43471831 8 17977660136663291754
7364860 26 18339922713730095468
81228 2 17910121213287870371
90316 7 17903905665719182906
9925002 15 17557675209536767054

>  <PUBCHEM_SHAPE_MULTIPOLES>  (1) 
286.1
5.12
3.47
0.86
0.1
1.24
0.05
-1.2
1.06
-3.83
0.09
-0.07
-0.07
-0.16

>  <PUBCHEM_SHAPE_SELFOVERLAP>  (1) 
582.519

>  <PUBCHEM_SHAPE_VOLUME>  (1) 
164.3

>  <PUBCHEM_COORDINATE_TYPE>  (1) 
2
5
10

$$$$
