19981
     RDKit          3D

 21 22  0  0  1  0  0  0  0  0999 V2000
    5.2999    2.6292    0.2199 Cl  0  0  0  0  0  0  0  0  0  0  0  0
   -0.7250   -0.3824   -0.1456 N   0  0  0  0  0  0  0  0  0  0  0  0
   -1.2760    0.3196   -1.0068 N   0  0  0  0  0  0  0  0  0  0  0  0
    1.1093   -2.2809    2.5415 N   0  0  0  0  0  0  0  0  0  0  0  0
   -1.2759   -3.9577   -0.7088 N   0  0  0  0  0  0  0  0  0  0  0  0
    0.5541   -0.9378   -0.6634 C   0  0  0  0  0  0  0  0  0  0  0  0
    1.7338   -0.0521   -0.4433 C   0  0  0  0  0  0  0  0  0  0  0  0
    0.7305   -2.3700   -0.0681 C   0  0  0  0  0  0  0  0  0  0  0  0
    1.8082    0.7382    0.7034 C   0  0  0  0  0  0  0  0  0  0  0  0
    2.7622   -0.0135   -1.3851 C   0  0  0  0  0  0  0  0  0  0  0  0
    2.9110    1.5673    0.9086 C   0  0  0  0  0  0  0  0  0  0  0  0
    3.8650    0.8156   -1.1799 C   0  0  0  0  0  0  0  0  0  0  0  0
    3.9395    1.6060   -0.0330 C   0  0  0  0  0  0  0  0  0  0  0  0
   -2.4767    0.8207   -0.4766 C   0  0  0  0  0  0  0  0  0  0  0  0
    0.9406   -2.3208    1.3939 C   0  0  0  0  0  0  0  0  0  0  0  0
   -0.3944   -3.2582   -0.4251 C   0  0  0  0  0  0  0  0  0  0  0  0
   -2.4788    2.0375    0.1989 C   0  0  0  0  0  0  0  0  0  0  0  0
   -3.6554    0.0967   -0.6297 C   0  0  0  0  0  0  0  0  0  0  0  0
   -3.6705    2.5348    0.7262 C   0  0  0  0  0  0  0  0  0  0  0  0
   -4.8470    0.5943   -0.1025 C   0  0  0  0  0  0  0  0  0  0  0  0
   -4.8545    1.8133    0.5754 C   0  0  0  0  0  0  0  0  0  0  0  0
  1 13  1  0
  2  3  2  0
  2  6  1  0
  3 14  1  0
  4 15  3  0
  5 16  3  0
  6  7  1  0
  6  8  1  0
  7  9  2  0
  7 10  1  0
  8 15  1  0
  8 16  1  0
  9 11  1  0
 10 12  2  0
 11 13  2  0
 12 13  1  0
 14 17  2  0
 14 18  1  0
 17 19  1  0
 18 20  2  0
 19 21  2  0
 20 21  1  0
M  END
>  <PUBCHEM_COMPOUND_CID>  (1) 
19981

>  <PUBCHEM_CONFORMER_RMSD>  (1) 
0.6

>  <PUBCHEM_CONFORMER_DIVERSEORDER>  (1) 
1
2
27
11
15
20
25
23
26
19
32
9
22
28
10
8
14
31
7
33
3
4
18
21
24
29
30
13
16
17
5
12
6

>  <PUBCHEM_MMFF94_PARTIAL_CHARGES>  (1) 
30
1 -0.18
10 -0.15
11 -0.15
12 -0.15
13 0.18
14 0.18
15 0.36
16 0.36
17 -0.15
18 -0.15
19 -0.15
2 -0.25
20 -0.15
21 -0.15
24 0.15
25 0.15
26 0.15
27 0.15
28 0.15
29 0.15
3 -0.18
30 0.15
31 0.15
32 0.15
4 -0.56
5 -0.56
6 0.39
7 -0.14
8 0.4
9 -0.15

>  <PUBCHEM_EFFECTIVE_ROTOR_COUNT>  (1) 
4

>  <PUBCHEM_PHARMACOPHORE_FEATURES>  (1) 
4
1 4 acceptor
1 5 acceptor
6 14 17 18 19 20 21 rings
6 7 9 10 11 12 13 rings

>  <PUBCHEM_HEAVY_ATOM_COUNT>  (1) 
21

>  <PUBCHEM_ATOM_DEF_STEREO_COUNT>  (1) 
0

>  <PUBCHEM_ATOM_UDEF_STEREO_COUNT>  (1) 
1

>  <PUBCHEM_BOND_DEF_STEREO_COUNT>  (1) 
0

>  <PUBCHEM_BOND_UDEF_STEREO_COUNT>  (1) 
0

>  <PUBCHEM_ISOTOPIC_ATOM_COUNT>  (1) 
0

>  <PUBCHEM_COMPONENT_COUNT>  (1) 
1

>  <PUBCHEM_CACTVS_TAUTO_COUNT>  (1) 
1

>  <PUBCHEM_CONFORMER_ID>  (1) 
00004E0D00000001

>  <PUBCHEM_MMFF94_ENERGY>  (1) 
46.9006

>  <PUBCHEM_FEATURE_SELFOVERLAP>  (1) 
20.297

>  <PUBCHEM_SHAPE_FINGERPRINT>  (1) 
10382601 240 18189056399859014040
10498660 4 18341612568903786109
12363563 72 9439401349907878285
12532896 13 18261675977846666490
12644460 14 18124325913033493265
12788726 201 17612885098413047134
13878862 14 17758667859641222653
13955234 65 18122354484384928099
14955137 171 18050002186797450530
20559304 39 17910390589689698555
21524375 3 18333733507211859982
21756936 100 18271517706279131572
2255824 54 18123471583655763775
23419403 2 17324138759393018394
23557571 272 18053949738583434668
23558518 356 17902790005004070852
23559900 14 17908701727282084421
2637199 183 18272378529093492132
394222 165 18334574594889139074
427121 178 18261399935692011118
474 4 18261118473653502365
5104073 3 18117850893832951769
5486654 2 18341610490613452799
5895379 119 17269479733883185696
59755656 520 18408881867316954036
633830 44 18202002084145312605
6442390 28 18411990160634036255
7097593 13 17547855149372214507
7364860 26 18123754145206407415
7808743 9 18267303312723046420
81228 2 17828481702074105390

>  <PUBCHEM_SHAPE_MULTIPOLES>  (1) 
414.12
9.31
3.93
1.35
2.06
3.58
0.59
-10.81
-0.21
0.22
0.75
-0.74
0.7
-0.75

>  <PUBCHEM_SHAPE_SELFOVERLAP>  (1) 
870.668

>  <PUBCHEM_SHAPE_VOLUME>  (1) 
229

>  <PUBCHEM_COORDINATE_TYPE>  (1) 
2
5
10

$$$$
