19998
     RDKit          3D

 16 17  0  0  0  0  0  0  0  0999 V2000
    4.2065    1.5830   -0.0008 O   0  0  0  0  0  0  0  0  0  0  0  0
    3.3990   -0.6321    0.0007 N   0  0  0  0  0  0  0  0  0  0  0  0
   -0.7607   -0.1721    0.0012 C   0  0  0  0  0  0  0  0  0  0  0  0
   -2.1989   -0.0129    0.0002 C   0  0  0  0  0  0  0  0  0  0  0  0
    2.0123   -0.4790    0.0007 C   0  0  0  0  0  0  0  0  0  0  0  0
    0.0654    0.9518   -0.0014 C   0  0  0  0  0  0  0  0  0  0  0  0
   -0.2002   -1.4495    0.0035 C   0  0  0  0  0  0  0  0  0  0  0  0
    1.4518    0.7984   -0.0018 C   0  0  0  0  0  0  0  0  0  0  0  0
    1.1862   -1.6030    0.0032 C   0  0  0  0  0  0  0  0  0  0  0  0
   -2.8924    0.0676    1.2079 C   0  0  0  0  0  0  0  0  0  0  0  0
   -2.8919    0.0608   -1.2082 C   0  0  0  0  0  0  0  0  0  0  0  0
   -4.2788    0.2213    1.2072 C   0  0  0  0  0  0  0  0  0  0  0  0
   -4.2783    0.2147   -1.2088 C   0  0  0  0  0  0  0  0  0  0  0  0
   -4.9716    0.2949   -0.0011 C   0  0  0  0  0  0  0  0  0  0  0  0
    4.3800    0.3686   -0.0016 C   0  0  0  0  0  0  0  0  0  0  0  0
    5.7716   -0.2126   -0.0008 C   0  0  0  0  0  0  0  0  0  0  0  0
  1 15  2  0
  2  5  1  0
  2 15  1  0
  3  4  1  0
  3  6  2  0
  3  7  1  0
  4 10  2  0
  4 11  1  0
  5  8  2  0
  5  9  1  0
  6  8  1  0
  7  9  2  0
 10 12  1  0
 11 13  2  0
 12 14  2  0
 13 14  1  0
 15 16  1  0
M  END
>  <PUBCHEM_COMPOUND_CID>  (1) 
19998

>  <PUBCHEM_CONFORMER_RMSD>  (1) 
0.6

>  <PUBCHEM_CONFORMER_DIVERSEORDER>  (1) 
1
3
2

>  <PUBCHEM_MMFF94_PARTIAL_CHARGES>  (1) 
24
1 -0.57
10 -0.15
11 -0.15
12 -0.15
13 -0.15
14 -0.15
15 0.57
16 0.06
17 0.15
18 0.15
19 0.15
2 -0.55
20 0.15
21 0.15
22 0.15
23 0.37
24 0.15
25 0.15
26 0.15
5 0.12
6 -0.15
7 -0.15
8 -0.15
9 -0.15

>  <PUBCHEM_EFFECTIVE_ROTOR_COUNT>  (1) 
3

>  <PUBCHEM_PHARMACOPHORE_FEATURES>  (1) 
4
1 1 acceptor
1 2 donor
6 3 5 6 7 8 9 rings
6 4 10 11 12 13 14 rings

>  <PUBCHEM_HEAVY_ATOM_COUNT>  (1) 
16

>  <PUBCHEM_ATOM_DEF_STEREO_COUNT>  (1) 
0

>  <PUBCHEM_ATOM_UDEF_STEREO_COUNT>  (1) 
0

>  <PUBCHEM_BOND_DEF_STEREO_COUNT>  (1) 
0

>  <PUBCHEM_BOND_UDEF_STEREO_COUNT>  (1) 
0

>  <PUBCHEM_ISOTOPIC_ATOM_COUNT>  (1) 
0

>  <PUBCHEM_COMPONENT_COUNT>  (1) 
1

>  <PUBCHEM_CACTVS_TAUTO_COUNT>  (1) 
2

>  <PUBCHEM_CONFORMER_ID>  (1) 
00004E1E00000001

>  <PUBCHEM_MMFF94_ENERGY>  (1) 
52.3131

>  <PUBCHEM_FEATURE_SELFOVERLAP>  (1) 
20.297

>  <PUBCHEM_SHAPE_FINGERPRINT>  (1) 
10465860 250 16298386863979922109
11401426 45 18342453746589760926
11471102 20 18411135831662254798
11543360 7 15913044369614904296
12236239 1 17775286049943561157
13214271 11 17749106695276815463
13288520 33 15554445210831231125
13533116 47 17775003437349766922
13675066 3 17531248370116375074
13760787 19 15769776827547011751
13760787 5 18413387614169587270
14123238 8 13262397760936449528
14251718 22 15267058164145064396
15375358 24 18040154002711887947
17834072 33 17346312730232170972
17834076 25 17917711300957479239
18186145 218 18413108377050114524
19026448 4 16950280676526996954
19026448 5 16988564571894529502
19489759 90 16226044487898396677
200 152 18271802424346176967
20279233 1 17676211251835133347
20325693 3 15554448496718589301
204376 136 18408324405852123938
20645477 70 18262792956732226766
21033648 29 18114164355023448052
22854114 59 18261112971609972179
2297311 6 16443070469301983655
23402539 116 16845570907043052329
23402655 69 18200869583284945309
23536379 177 16056884611333371302
23557571 272 16733264543230070111
23559900 14 16660923266940130530
300161 21 17203323381949277407
366044 4 18412825793893109838
474 4 17916009347352975648
4990 188 16056603157715420196
5104073 3 18337668749996711938
542803 24 17775568641100202353
77492 1 17703788090260476487

>  <PUBCHEM_SHAPE_MULTIPOLES>  (1) 
318.42
11.25
1.18
0.98
6.14
0.17
0
-2.03
0.01
0.88
0
-1.35
-0.04
0

>  <PUBCHEM_SHAPE_SELFOVERLAP>  (1) 
683.863

>  <PUBCHEM_SHAPE_VOLUME>  (1) 
175.6

>  <PUBCHEM_COORDINATE_TYPE>  (1) 
2
5
10

$$$$
