1999
     RDKit          3D

 18 18  0  0  1  0  0  0  0  0999 V2000
    0.0892   -1.7098   -1.3582 O   0  0  0  0  0  0  0  0  0  0  0  0
   -2.5468   -0.7490   -1.3458 O   0  0  0  0  0  0  0  0  0  0  0  0
   -4.9916    0.4972   -0.6959 O   0  0  0  0  0  0  0  0  0  0  0  0
   -0.9228   -0.4178    0.2965 N   0  0  0  0  0  0  0  0  0  0  0  0
   -3.0266    0.4950    0.5688 N   0  0  0  0  0  0  0  0  0  0  0  0
    1.4030   -1.0647    0.5811 C   0  0  0  0  0  0  0  0  0  0  0  0
    2.2631   -2.3359    0.4383 C   0  0  0  0  0  0  0  0  0  0  0  0
    2.2086    0.1782    0.2346 C   0  0  0  0  0  0  0  0  0  0  0  0
    0.1368   -1.1233   -0.2792 C   0  0  0  0  0  0  0  0  0  0  0  0
    1.5024   -3.5974    0.8294 C   0  0  0  0  0  0  0  0  0  0  0  0
    2.9804    0.7687    1.2149 C   0  0  0  0  0  0  0  0  0  0  0  0
    2.1439    0.6795   -1.0498 C   0  0  0  0  0  0  0  0  0  0  0  0
    3.7188    1.9087    0.8974 C   0  0  0  0  0  0  0  0  0  0  0  0
    2.8823    1.8196   -1.3674 C   0  0  0  0  0  0  0  0  0  0  0  0
    3.6698    2.4341   -0.3938 C   0  0  0  0  0  0  0  0  0  0  0  0
   -2.1996   -0.2712   -0.2673 C   0  0  0  0  0  0  0  0  0  0  0  0
   -4.3538    0.8245    0.3010 C   0  0  0  0  0  0  0  0  0  0  0  0
   -4.9568    1.6635    1.3955 C   0  0  0  0  0  0  0  0  0  0  0  0
  1  9  2  0
  2 16  2  0
  3 17  2  0
  4  9  1  0
  4 16  1  0
  5 16  1  0
  5 17  1  0
  6  7  1  0
  6  8  1  0
  6  9  1  0
  7 10  1  0
  8 11  2  0
  8 12  1  0
 11 13  1  0
 12 14  2  0
 13 15  2  0
 14 15  1  0
 17 18  1  0
M  END
>  <PUBCHEM_COMPOUND_CID>  (1) 
1999

>  <PUBCHEM_CONFORMER_RMSD>  (1) 
0.8

>  <PUBCHEM_CONFORMER_DIVERSEORDER>  (1) 
1
14
15
52
27
21
49
48
41
46
35
51
50
31
8
55
19
47
42
39
44
22
38
5
13
37
53
25
34
54
28
2
45
29
43
36
24
30
18
16
17
32
3
11
9
4
23
26
33
6
40
12
7
10
20

>  <PUBCHEM_MMFF94_PARTIAL_CHARGES>  (1) 
23
1 -0.57
11 -0.15
12 -0.15
13 -0.15
14 -0.15
15 -0.15
16 0.69
17 0.57
18 0.06
2 -0.57
25 0.15
26 0.15
27 0.37
28 0.15
29 0.15
3 -0.57
30 0.15
31 0.37
4 -0.49
5 -0.49
6 0.2
8 -0.14
9 0.57

>  <PUBCHEM_EFFECTIVE_ROTOR_COUNT>  (1) 
7

>  <PUBCHEM_PHARMACOPHORE_FEATURES>  (1) 
7
1 1 acceptor
1 10 hydrophobe
1 2 acceptor
1 3 acceptor
1 4 donor
1 5 donor
6 8 11 12 13 14 15 rings

>  <PUBCHEM_HEAVY_ATOM_COUNT>  (1) 
18

>  <PUBCHEM_ATOM_DEF_STEREO_COUNT>  (1) 
0

>  <PUBCHEM_ATOM_UDEF_STEREO_COUNT>  (1) 
1

>  <PUBCHEM_BOND_DEF_STEREO_COUNT>  (1) 
0

>  <PUBCHEM_BOND_UDEF_STEREO_COUNT>  (1) 
0

>  <PUBCHEM_ISOTOPIC_ATOM_COUNT>  (1) 
0

>  <PUBCHEM_COMPONENT_COUNT>  (1) 
1

>  <PUBCHEM_CACTVS_TAUTO_COUNT>  (1) 
8

>  <PUBCHEM_CONFORMER_ID>  (1) 
000007CF00000001

>  <PUBCHEM_MMFF94_ENERGY>  (1) 
42.1039

>  <PUBCHEM_FEATURE_SELFOVERLAP>  (1) 
35.576

>  <PUBCHEM_SHAPE_FINGERPRINT>  (1) 
10382601 240 18114454609350505512
10465860 228 18409166601968120186
10498660 4 17704075096902285993
11640471 11 18272081733920924831
12363563 72 10231491708590810476
12633257 1 16805596027401301832
12788726 201 17544197533279087054
13878862 14 18119514459025727453
13955234 65 18334862662609370723
14123255 52 18339926025187096288
1420 369 11169909502852121049
15342168 16 18333734654073857133
15842332 3 18129361779310270519
15906896 17 17906452482853329246
17868525 174 17758396271187895673
1798214 55 18411984701556990676
1813 80 17910397186807828310
18785283 64 18186240619758699010
193927 3 8574438659503261333
19784866 34 18339643442103646232
19784866 9 18411978053316368960
20157964 124 18261381223221096877
20671657 1 18339365171146196919
21524375 3 18341608278283444886
2255824 54 18337953381152606602
23559900 14 17313963909022739503
2838139 119 16842739815712064064
31174 14 18115869590236407727
449060 62 18411142428516009945
474 4 18335137613472320137
49207404 50 18041011677574008419
6049 1 17386846097878757399
621550 5 17172940431152896799
633830 44 18341053007699725260
7364860 26 18339640040916841458
7615 1 18057863815226314143
960060 61 12175623979679390337
9841814 1 17971471801950168794
9999458 23 18334581222366827558

>  <PUBCHEM_SHAPE_MULTIPOLES>  (1) 
342.86
9.07
3.07
1.31
13.35
2.24
-0.11
-7.39
1.65
-3.33
0.52
-0.01
-0.25
-1.26

>  <PUBCHEM_SHAPE_SELFOVERLAP>  (1) 
700.995

>  <PUBCHEM_SHAPE_VOLUME>  (1) 
196.7

>  <PUBCHEM_COORDINATE_TYPE>  (1) 
2
5
10

$$$$
