19990
     RDKit          3D

 16 15  0  0  0  0  0  0  0  0999 V2000
    1.8247   -0.3728   -0.0104 N   0  0  0  0  0  0  0  0  0  0  0  0
   -1.8267    0.3731   -0.0253 N   0  0  0  0  0  0  0  0  0  0  0  0
    5.4648    0.4265   -0.0151 N   0  0  0  0  0  0  0  0  0  0  0  0
   -5.4668   -0.4263   -0.0146 N   0  0  0  0  0  0  0  0  0  0  0  0
    9.1185   -0.3195    0.0510 N   0  0  0  0  0  0  0  0  0  0  0  0
   -9.1177    0.3186    0.0563 N   0  0  0  0  0  0  0  0  0  0  0  0
    0.6199    0.4444   -0.0129 C   0  0  0  0  0  0  0  0  0  0  0  0
   -0.6192   -0.4455   -0.0409 C   0  0  0  0  0  0  0  0  0  0  0  0
    3.0199    0.4638   -0.0104 C   0  0  0  0  0  0  0  0  0  0  0  0
   -3.0193   -0.4617   -0.0151 C   0  0  0  0  0  0  0  0  0  0  0  0
    4.2720   -0.4079    0.0028 C   0  0  0  0  0  0  0  0  0  0  0  0
   -4.2715    0.4101   -0.0069 C   0  0  0  0  0  0  0  0  0  0  0  0
    6.6720   -0.3917    0.0241 C   0  0  0  0  0  0  0  0  0  0  0  0
   -6.6713    0.3905    0.0198 C   0  0  0  0  0  0  0  0  0  0  0  0
    7.9113    0.4977   -0.0061 C   0  0  0  0  0  0  0  0  0  0  0  0
   -7.9107   -0.4991    0.0038 C   0  0  0  0  0  0  0  0  0  0  0  0
  1  7  1  0
  1  9  1  0
  2  8  1  0
  2 10  1  0
  3 11  1  0
  3 13  1  0
  4 12  1  0
  4 14  1  0
  5 15  1  0
  6 16  1  0
  7  8  1  0
  9 11  1  0
 10 12  1  0
 13 15  1  0
 14 16  1  0
M  END
>  <PUBCHEM_COMPOUND_CID>  (1) 
19990

>  <PUBCHEM_CONFORMER_RMSD>  (1) 
1

>  <PUBCHEM_CONFORMER_DIVERSEORDER>  (1) 
1
3
5
4
6
2

>  <PUBCHEM_MMFF94_PARTIAL_CHARGES>  (1) 
24
1 -0.9
10 0.27
11 0.27
12 0.27
13 0.27
14 0.27
15 0.27
16 0.27
2 -0.9
29 0.36
3 -0.9
30 0.36
31 0.36
32 0.36
4 -0.9
41 0.36
42 0.36
43 0.36
44 0.36
5 -0.99
6 -0.99
7 0.27
8 0.27
9 0.27

>  <PUBCHEM_EFFECTIVE_ROTOR_COUNT>  (1) 
13

>  <PUBCHEM_PHARMACOPHORE_FEATURES>  (1) 
12
1 1 cation
1 1 donor
1 2 cation
1 2 donor
1 3 cation
1 3 donor
1 4 cation
1 4 donor
1 5 cation
1 5 donor
1 6 cation
1 6 donor

>  <PUBCHEM_HEAVY_ATOM_COUNT>  (1) 
16

>  <PUBCHEM_ATOM_DEF_STEREO_COUNT>  (1) 
0

>  <PUBCHEM_ATOM_UDEF_STEREO_COUNT>  (1) 
0

>  <PUBCHEM_BOND_DEF_STEREO_COUNT>  (1) 
0

>  <PUBCHEM_BOND_UDEF_STEREO_COUNT>  (1) 
0

>  <PUBCHEM_ISOTOPIC_ATOM_COUNT>  (1) 
0

>  <PUBCHEM_COMPONENT_COUNT>  (1) 
1

>  <PUBCHEM_CACTVS_TAUTO_COUNT>  (1) 
1

>  <PUBCHEM_CONFORMER_ID>  (1) 
00004E1600000001

>  <PUBCHEM_MMFF94_ENERGY>  (1) 
-21.0423

>  <PUBCHEM_FEATURE_SELFOVERLAP>  (1) 
60.905

>  <PUBCHEM_SHAPE_FINGERPRINT>  (1) 
12091667 2 18334857220732350979
14123256 10 18410575084663078914
14251764 18 18411136922225252019
14251764 46 18410575084668373155
17834076 25 18410575088958046223
18006028 8 17989205949363775432
20621476 8 18333447642572792589
22224240 67 16443063915429881458
232437 2 18407760335334153618
23521765 1 18341895194640646149
23581129 1 18409449184756236295
28498 318 18342458123504379038
33684 2 18410855460128161794
59567204 34 18337106758323189765
67123 10 18410574002331320335
8209 1 18410856563940038125

>  <PUBCHEM_SHAPE_MULTIPOLES>  (1) 
299.39
31.25
0.76
0.58
0.01
0
0
-0.01
0.54
0
0
0
0
-0.03

>  <PUBCHEM_SHAPE_SELFOVERLAP>  (1) 
535.332

>  <PUBCHEM_SHAPE_VOLUME>  (1) 
187.8

>  <PUBCHEM_COORDINATE_TYPE>  (1) 
2
5
10

$$$$
