2
     RDKit          3D

 14 13  0  0  1  0  0  0  0  0999 V2000
   -0.3716   -0.9039   -0.2836 O   0  0  0  0  0  0  0  0  0  0  0  0
   -1.6132    3.0213    0.1787 O   0  0  0  0  0  0  0  0  0  0  0  0
   -1.9869    1.2054   -1.1367 O   0  0  0  0  0  0  0  0  0  0  0  0
   -1.6468   -2.1498    1.1855 O   0  0  0  0  0  0  0  0  0  0  0  0
    2.3652    0.0287   -0.1171 N   0  0  0  0  0  0  0  0  0  0  0  0
    1.1845    0.8766    0.1895 C   0  0  0  0  0  0  0  0  0  0  0  0
    0.0537    0.0070    0.7310 C   0  0  0  0  0  0  0  0  0  0  0  0
    2.0056   -1.0527   -1.1447 C   0  0  0  0  0  0  0  0  0  0  0  0
    3.5074    0.8756   -0.6937 C   0  0  0  0  0  0  0  0  0  0  0  0
    2.8785   -0.6677    1.1501 C   0  0  0  0  0  0  0  0  0  0  0  0
   -1.1484    0.8729    1.1062 C   0  0  0  0  0  0  0  0  0  0  0  0
   -1.6224    1.6883   -0.0726 C   0  0  0  0  0  0  0  0  0  0  0  0
   -1.3995   -1.7323    0.0623 C   0  0  0  0  0  0  0  0  0  0  0  0
   -2.2062   -2.0695   -1.1549 C   0  0  0  0  0  0  0  0  0  0  0  0
  1  7  1  0
  1 13  1  0
  2 12  1  0
  3 12  2  0
  4 13  2  0
  5  6  1  0
  5  8  1  0
  5  9  1  0
  5 10  1  0
  6  7  1  0
  7 11  1  0
 11 12  1  0
 13 14  1  0
M  CHG  1   5   1
M  END
>  <PUBCHEM_COMPOUND_CID>  (1) 
2

>  <PUBCHEM_CONFORMER_RMSD>  (1) 
0.6

>  <PUBCHEM_CONFORMER_DIVERSEORDER>  (1) 
2
6
13
7
11
4
8
9
5
14
3
1
12
10

>  <PUBCHEM_MMFF94_PARTIAL_CHARGES>  (1) 
15
1 -0.43
10 0.5
11 0.06
12 0.66
13 0.66
14 0.06
2 -0.65
3 -0.57
32 0.5
4 -0.57
5 -1.01
6 0.5
7 0.28
8 0.5
9 0.5

>  <PUBCHEM_EFFECTIVE_ROTOR_COUNT>  (1) 
6

>  <PUBCHEM_PHARMACOPHORE_FEATURES>  (1) 
5
1 2 acceptor
1 3 acceptor
1 4 acceptor
1 5 cation
3 2 3 12 anion

>  <PUBCHEM_HEAVY_ATOM_COUNT>  (1) 
14

>  <PUBCHEM_ATOM_DEF_STEREO_COUNT>  (1) 
0

>  <PUBCHEM_ATOM_UDEF_STEREO_COUNT>  (1) 
1

>  <PUBCHEM_BOND_DEF_STEREO_COUNT>  (1) 
0

>  <PUBCHEM_BOND_UDEF_STEREO_COUNT>  (1) 
0

>  <PUBCHEM_ISOTOPIC_ATOM_COUNT>  (1) 
0

>  <PUBCHEM_COMPONENT_COUNT>  (1) 
1

>  <PUBCHEM_CACTVS_TAUTO_COUNT>  (1) 
1

>  <PUBCHEM_CONFORMER_ID>  (1) 
0000000200000002

>  <PUBCHEM_MMFF94_ENERGY>  (1) 
44.1107

>  <PUBCHEM_FEATURE_SELFOVERLAP>  (1) 
25.429

>  <PUBCHEM_SHAPE_FINGERPRINT>  (1) 
1 1 17688030812433054093
100427 49 17978514465967505697
10702982 57 18044642123097879627
11206711 2 18340210807573182436
12138202 97 18341611469259334758
12423570 1 16760242461435361603
12716758 59 18270396075406010554
12932764 1 18261123967259162392
13898156 1 17751332063291958344
14817 1 12021907503781911571
15490181 8 18122908629148541955
15775835 57 17895474717815826372
15852999 172 17843385311695268630
16945 1 18272359845980557453
17954114 43 17687739441988876567
18534176 82 18411699898133216828
20645476 183 17534088309829710350
20711985 344 18411136965227847891
20871998 184 18270134481790675931
21061003 4 17612046162292974571
21501502 16 18408882945332619964
21524375 3 18120650223875985809
23402539 116 18268687464364535021
23419403 2 16841030036158862667
23557571 272 18341331201458896112
23559900 14 17986384491981456594
25 1 17548997558432015341
2748010 2 18055059128135065177
305870 269 17688301287919619384
3060560 45 17832417601408938373
353137 74 17972040498711678236
74978 22 18335705975559216534
81228 2 18411983593692285873

>  <PUBCHEM_SHAPE_MULTIPOLES>  (1) 
259.66
4.36
2.6
1.23
3.54
0.81
0.05
-0.4
-0.71
-2.51
-0.17
0.01
-0.33
-0.13

>  <PUBCHEM_SHAPE_SELFOVERLAP>  (1) 
497.67

>  <PUBCHEM_SHAPE_VOLUME>  (1) 
160

>  <PUBCHEM_COORDINATE_TYPE>  (1) 
2
5
10

$$$$
