20006
     RDKit          3D

 12 12  0  0  1  0  0  0  0  0999 V2000
   -2.9079    0.0327   -0.2231 N   0  0  0  0  0  0  0  0  0  0  0  0
   -1.5374   -0.1940    0.2453 C   0  0  0  0  0  0  0  0  0  0  0  0
   -0.5427    0.3696   -0.7858 C   0  0  0  0  0  0  0  0  0  0  0  0
   -1.3514   -1.6931    0.4807 C   0  0  0  0  0  0  0  0  0  0  0  0
    0.9028    0.2210   -0.3754 C   0  0  0  0  0  0  0  0  0  0  0  0
   -3.1335    1.4564   -0.4625 C   0  0  0  0  0  0  0  0  0  0  0  0
   -3.8688   -0.4835    0.7491 C   0  0  0  0  0  0  0  0  0  0  0  0
    1.5087    1.2311    0.3547 C   0  0  0  0  0  0  0  0  0  0  0  0
    1.5973   -0.9225   -0.7366 C   0  0  0  0  0  0  0  0  0  0  0  0
    2.8442    1.0938    0.7335 C   0  0  0  0  0  0  0  0  0  0  0  0
    2.9325   -1.0599   -0.3575 C   0  0  0  0  0  0  0  0  0  0  0  0
    3.5561   -0.0517    0.3776 C   0  0  0  0  0  0  0  0  0  0  0  0
  1  2  1  0
  1  6  1  0
  1  7  1  0
  2  3  1  0
  2  4  1  0
  3  5  1  0
  5  8  2  0
  5  9  1  0
  8 10  1  0
  9 11  2  0
 10 12  2  0
 11 12  1  0
M  END
>  <PUBCHEM_COMPOUND_CID>  (1) 
20006

>  <PUBCHEM_CONFORMER_RMSD>  (1) 
0.6

>  <PUBCHEM_CONFORMER_DIVERSEORDER>  (1) 
1
8
14
12
5
7
9
13
10
11
3
6
4
2

>  <PUBCHEM_MMFF94_PARTIAL_CHARGES>  (1) 
16
1 -0.81
10 -0.15
11 -0.15
12 -0.15
2 0.27
25 0.15
26 0.15
27 0.15
28 0.15
29 0.15
3 0.14
5 -0.14
6 0.27
7 0.27
8 -0.15
9 -0.15

>  <PUBCHEM_EFFECTIVE_ROTOR_COUNT>  (1) 
3

>  <PUBCHEM_PHARMACOPHORE_FEATURES>  (1) 
2
1 1 cation
6 5 8 9 10 11 12 rings

>  <PUBCHEM_HEAVY_ATOM_COUNT>  (1) 
12

>  <PUBCHEM_ATOM_DEF_STEREO_COUNT>  (1) 
0

>  <PUBCHEM_ATOM_UDEF_STEREO_COUNT>  (1) 
1

>  <PUBCHEM_BOND_DEF_STEREO_COUNT>  (1) 
0

>  <PUBCHEM_BOND_UDEF_STEREO_COUNT>  (1) 
0

>  <PUBCHEM_ISOTOPIC_ATOM_COUNT>  (1) 
0

>  <PUBCHEM_COMPONENT_COUNT>  (1) 
1

>  <PUBCHEM_CACTVS_TAUTO_COUNT>  (1) 
1

>  <PUBCHEM_CONFORMER_ID>  (1) 
00004E2600000001

>  <PUBCHEM_MMFF94_ENERGY>  (1) 
33.3673

>  <PUBCHEM_FEATURE_SELFOVERLAP>  (1) 
10.148

>  <PUBCHEM_SHAPE_FINGERPRINT>  (1) 
10219947 1 17704070673001029204
10608611 8 18411976979205714529
11062470 55 17132115732032751387
12251169 10 18334853973911278480
124424 183 18410848828856996796
12500047 106 18335134284793654878
12932764 1 18201722872605381829
13296908 3 18335702728047002119
13581323 91 18113900493749237923
13922767 16 18201432550075298880
14144814 61 18408885118185229657
14325111 11 18410572881571780901
15219456 202 18412823577436524252
15279308 132 18260551116889347674
15653759 3 18333453136010193273
15775835 57 17967530138441819699
17834069 15 18408602543707434127
18186145 218 18202008685599320395
190213 19 15791450430760363689
19049666 15 18266461996963413391
19422 9 16081094765964656275
200 152 17703780436607571949
20201158 50 18342458123314637158
20279233 1 18409728460736188647
20361792 2 15719667757600385879
20528008 55 18412258462919676087
20645464 45 18410291415279917903
20645477 70 18059287639491707095
20711983 171 14273726318618936727
20715346 28 18409169913335144949
20871998 22 17486783982919905942
21501502 16 18194682794047196798
23402539 116 18410844487246337191
23402655 69 18060412482984449909
3248919 1 18114459054071938189
449060 50 18339643446662305352
53812653 166 18335417915833301139
57812782 119 18411417310939194493
69090 78 18343579672783813871
77492 1 15913322485637091340

>  <PUBCHEM_SHAPE_MULTIPOLES>  (1) 
241.97
6.62
1.47
0.89
2.06
0.05
0
-0.3
1.05
0.13
0.07
0
0
0.84

>  <PUBCHEM_SHAPE_SELFOVERLAP>  (1) 
485.156

>  <PUBCHEM_SHAPE_VOLUME>  (1) 
144.3

>  <PUBCHEM_COORDINATE_TYPE>  (1) 
2
5
10

$$$$
