20012
     RDKit          3D

 14 16  0  0  0  0  0  0  0  0999 V2000
    4.8991    0.9105    0.0866 Cl  0  0  0  0  0  0  0  0  0  0  0  0
    0.1187   -0.6151   -0.0161 N   0  0  0  0  0  0  0  0  0  0  0  0
   -2.3318   -0.8842   -0.4353 N   0  0  0  0  0  0  0  0  0  0  0  0
   -1.2301    1.2662   -0.9617 N   0  0  0  0  0  0  0  0  0  0  0  0
   -1.5587    0.5895    1.3939 N   0  0  0  0  0  0  0  0  0  0  0  0
   -1.0159   -1.5589   -0.4458 C   0  0  0  0  0  0  0  0  0  0  0  0
    0.0842    0.5888   -0.9713 C   0  0  0  0  0  0  0  0  0  0  0  0
   -0.2440   -0.0871    1.3812 C   0  0  0  0  0  0  0  0  0  0  0  0
   -2.2692    0.2804   -1.3550 C   0  0  0  0  0  0  0  0  0  0  0  0
   -2.5888   -0.3784    0.9374 C   0  0  0  0  0  0  0  0  0  0  0  0
   -1.5170    1.7145    0.4250 C   0  0  0  0  0  0  0  0  0  0  0  0
    1.4588   -1.3043   -0.0272 C   0  0  0  0  0  0  0  0  0  0  0  0
    2.5769   -0.4044    0.3874 C   0  0  0  0  0  0  0  0  0  0  0  0
    3.6176   -0.1175   -0.3990 C   0  0  0  0  0  0  0  0  0  0  0  0
  1 14  1  0
  2  6  1  0
  2  7  1  0
  2  8  1  0
  2 12  1  0
  3  6  1  0
  3  9  1  0
  3 10  1  0
  4  7  1  0
  4  9  1  0
  4 11  1  0
  5  8  1  0
  5 10  1  0
  5 11  1  0
 12 13  1  0
 13 14  2  0
M  CHG  1   2   1
M  END
>  <PUBCHEM_COMPOUND_CID>  (1) 
20012

>  <PUBCHEM_CONFORMER_RMSD>  (1) 
0.6

>  <PUBCHEM_CONFORMER_DIVERSEORDER>  (1) 
1

>  <PUBCHEM_MMFF94_PARTIAL_CHARGES>  (1) 
16
1 -0.14
10 0.54
11 0.54
12 0.64
13 -0.29
14 -0.01
2 -1.01
29 0.15
3 -0.81
30 0.15
4 -0.81
5 -0.81
6 0.77
7 0.77
8 0.77
9 0.54

>  <PUBCHEM_EFFECTIVE_ROTOR_COUNT>  (1) 
3.2

>  <PUBCHEM_PHARMACOPHORE_FEATURES>  (1) 
8
1 2 cation
1 3 cation
1 4 cation
1 5 cation
6 2 3 4 6 7 9 rings
6 2 3 5 6 8 10 rings
6 2 4 5 7 8 11 rings
6 3 4 5 9 10 11 rings

>  <PUBCHEM_HEAVY_ATOM_COUNT>  (1) 
14

>  <PUBCHEM_ATOM_DEF_STEREO_COUNT>  (1) 
0

>  <PUBCHEM_ATOM_UDEF_STEREO_COUNT>  (1) 
0

>  <PUBCHEM_BOND_DEF_STEREO_COUNT>  (1) 
0

>  <PUBCHEM_BOND_UDEF_STEREO_COUNT>  (1) 
1

>  <PUBCHEM_ISOTOPIC_ATOM_COUNT>  (1) 
0

>  <PUBCHEM_COMPONENT_COUNT>  (1) 
1

>  <PUBCHEM_CACTVS_TAUTO_COUNT>  (1) 
1

>  <PUBCHEM_CONFORMER_ID>  (1) 
00004E2C00000001

>  <PUBCHEM_MMFF94_ENERGY>  (1) 
44.3441

>  <PUBCHEM_FEATURE_SELFOVERLAP>  (1) 
54.416

>  <PUBCHEM_SHAPE_FINGERPRINT>  (1) 
11315181 36 14851602207402498308
12173636 292 18059861623342607728
12186901 62 16056608633550952160
12423570 1 10272584293848127415
12491281 212 18263925436491621340
12932764 1 15123503688677250862
13024252 1 15430038751329336875
13214271 11 17894351089956959854
14713566 1 8646487380127693143
15309172 13 18407763633932262438
15775835 57 18411140208291964704
16945 1 18272356577600193963
18186145 218 18202007612506368974
200 152 18335976545097173598
20525323 117 18333732390388494082
20645464 45 16008750182470615498
20653085 51 18048031874417369223
2306618 200 18410005503618061672
23236772 104 18335139769540634603
23402539 116 12107781930692316219
23419403 2 17463708836955558537
369184 2 16878226363754282467
4175511 318 15913051984586795016

>  <PUBCHEM_SHAPE_MULTIPOLES>  (1) 
270.06
5.95
1.44
1.25
9.45
0.08
0.1
1.2
-0.08
-0.33
-0.08
-0.78
0.17
-0.03

>  <PUBCHEM_SHAPE_SELFOVERLAP>  (1) 
552.728

>  <PUBCHEM_SHAPE_VOLUME>  (1) 
152.2

>  <PUBCHEM_COORDINATE_TYPE>  (1) 
2
5
10

$$$$
