20021
     RDKit          3D

 26 28  0  0  1  0  0  0  0  0999 V2000
    1.4788   -3.3621   -3.1329 Cl  0  0  0  0  0  0  0  0  0  0  0  0
    0.9899    2.1164   -0.6950 F   0  0  0  0  0  0  0  0  0  0  0  0
   -2.1180   -0.0449    3.2592 O   0  0  0  0  0  0  0  0  0  0  0  0
   -1.9453   -0.8994    1.0931 N   0  0  0  0  0  0  0  0  0  0  0  0
    0.9472   -0.6662    2.3873 N   0  0  0  0  0  0  0  0  0  0  0  0
   -2.8933    2.6973   -1.2562 N   0  0  0  0  0  0  0  0  0  0  0  0
    0.8869   -0.1594    1.0051 C   0  0  0  0  0  0  0  0  0  0  0  0
    0.2871   -1.1615    0.0151 C   0  0  0  0  0  0  0  0  0  0  0  0
   -1.1078   -1.4324    0.0505 C   0  0  0  0  0  0  0  0  0  0  0  0
   -3.3265   -0.5604    0.7573 C   0  0  0  0  0  0  0  0  0  0  0  0
   -0.2303   -1.4205    2.8011 C   0  0  0  0  0  0  0  0  0  0  0  0
   -3.4211    0.4333   -0.3989 C   0  0  0  0  0  0  0  0  0  0  0  0
   -1.5037   -0.6977    2.4117 C   0  0  0  0  0  0  0  0  0  0  0  0
    2.1941    0.5068    0.5678 C   0  0  0  0  0  0  0  0  0  0  0  0
   -2.7602    1.7873   -0.1250 C   0  0  0  0  0  0  0  0  0  0  0  0
    1.0702   -1.7817   -0.9753 C   0  0  0  0  0  0  0  0  0  0  0  0
   -1.6766   -2.2285   -0.9599 C   0  0  0  0  0  0  0  0  0  0  0  0
    0.4904   -2.5994   -1.9452 C   0  0  0  0  0  0  0  0  0  0  0  0
   -0.8819   -2.8100   -1.9466 C   0  0  0  0  0  0  0  0  0  0  0  0
    2.1581    1.6185   -0.2664 C   0  0  0  0  0  0  0  0  0  0  0  0
    3.4073   -0.0084    1.0103 C   0  0  0  0  0  0  0  0  0  0  0  0
    3.3511    2.2228   -0.6632 C   0  0  0  0  0  0  0  0  0  0  0  0
    4.6001    0.5959    0.6132 C   0  0  0  0  0  0  0  0  0  0  0  0
   -2.2506    2.1374   -2.4467 C   0  0  0  0  0  0  0  0  0  0  0  0
   -2.3179    4.0050   -0.9367 C   0  0  0  0  0  0  0  0  0  0  0  0
    4.5720    1.7115   -0.2235 C   0  0  0  0  0  0  0  0  0  0  0  0
  1 18  1  0
  2 20  1  0
  3 13  2  0
  4  9  1  0
  4 10  1  0
  4 13  1  0
  5  7  1  0
  5 11  1  0
  6 15  1  0
  6 24  1  0
  6 25  1  0
  7  8  1  0
  7 14  1  0
  8  9  2  0
  8 16  1  0
  9 17  1  0
 10 12  1  0
 11 13  1  0
 12 15  1  0
 14 20  2  0
 14 21  1  0
 16 18  2  0
 17 19  2  0
 18 19  1  0
 20 22  1  0
 21 23  2  0
 22 26  2  0
 23 26  1  0
M  END
>  <PUBCHEM_COMPOUND_CID>  (1) 
20021

>  <PUBCHEM_CONFORMER_RMSD>  (1) 
0.8

>  <PUBCHEM_CONFORMER_DIVERSEORDER>  (1) 
1
158
38
10
151
120
143
62
82
74
127
90
61
93
132
77
7
131
104
66
159
17
161
136
23
153
24
146
157
57
103
91
4
125
99
141
2
139
110
111
137
142
115
84
55
50
97
26
48
116
126
138
22
25
123
42
107
129
133
96
67
108
148
102
36
47
119
34
20
31
68
18
59
44
65
121
130
94
122
58
124
70
76
149
145
19
154
98
73
134
112
53
37
117
29
162
79
155
135
113
95
63
54
45
46
75
150
28
27
92
106
147
87
60
156
71
85
56
72
118
81
32
128
109
101
30
105
39
80
64
49
6
86
89
21
43
140
51
144
40
78
114
152
33
41
12
83
5
69
14
8
160
100
15
88
11
35
16
52
13
9
3

>  <PUBCHEM_MMFF94_PARTIAL_CHARGES>  (1) 
33
1 -0.18
10 0.3
11 0.33
13 0.57
14 -0.14
15 0.27
16 -0.15
17 -0.15
18 0.18
19 -0.15
2 -0.19
20 0.19
21 -0.15
22 -0.15
23 -0.15
24 0.27
25 0.27
26 -0.15
3 -0.57
30 0.36
37 0.15
38 0.15
39 0.15
4 -0.48
40 0.15
41 0.15
42 0.15
49 0.15
5 -0.9
6 -0.81
7 0.56
8 -0.14
9 0.12

>  <PUBCHEM_EFFECTIVE_ROTOR_COUNT>  (1) 
5.8

>  <PUBCHEM_PHARMACOPHORE_FEATURES>  (1) 
7
1 3 acceptor
1 5 cation
1 5 donor
1 6 cation
6 14 20 21 22 23 26 rings
6 8 9 16 17 18 19 rings
7 4 5 7 8 9 11 13 rings

>  <PUBCHEM_HEAVY_ATOM_COUNT>  (1) 
26

>  <PUBCHEM_ATOM_DEF_STEREO_COUNT>  (1) 
0

>  <PUBCHEM_ATOM_UDEF_STEREO_COUNT>  (1) 
1

>  <PUBCHEM_BOND_DEF_STEREO_COUNT>  (1) 
0

>  <PUBCHEM_BOND_UDEF_STEREO_COUNT>  (1) 
0

>  <PUBCHEM_ISOTOPIC_ATOM_COUNT>  (1) 
0

>  <PUBCHEM_COMPONENT_COUNT>  (1) 
1

>  <PUBCHEM_CACTVS_TAUTO_COUNT>  (1) 
1

>  <PUBCHEM_CONFORMER_ID>  (1) 
00004E3500000001

>  <PUBCHEM_MMFF94_ENERGY>  (1) 
85.1428

>  <PUBCHEM_FEATURE_SELFOVERLAP>  (1) 
35.533

>  <PUBCHEM_SHAPE_FINGERPRINT>  (1) 
10165383 225 17917158281485424211
11221954 11 18189899712550962829
11578080 2 17907898069464309548
12156800 1 14948974514065144171
12539773 59 16755269370227276161
133893 2 17772489901179335834
13994607 96 17750517454067142533
14251751 93 18261098678154360180
14251757 17 18198350550410749196
14713325 29 18339636853745159510
16752209 62 17487050317810175062
17492 54 18119500332861778477
20600515 1 17460904975310407097
22907989 373 17985248905778110564
23114952 82 18057893450389808703
23419403 2 17834434174384820334
238 59 17984414136076943269
26353 1 16903519825592522207
392239 28 17313678126357505041
44802255 64 18270405014018846782
46194498 28 17912920583457591925
5081480 168 17482004332379614653
550186 7 18041575701607026204
57527306 92 17897987252509811141
5951187 136 17253401537360468621
6438718 38 18335129930024143716
9862522 239 18411971481858371092

>  <PUBCHEM_SHAPE_MULTIPOLES>  (1) 
508.85
6.29
4.08
2.97
4.75
0.24
-1.26
-5.13
0.3
-1.09
4.53
-1.38
1.23
1.53

>  <PUBCHEM_SHAPE_SELFOVERLAP>  (1) 
1070.633

>  <PUBCHEM_SHAPE_VOLUME>  (1) 
287.7

>  <PUBCHEM_COORDINATE_TYPE>  (1) 
2
5
10

$$$$
