20029
     RDKit          3D

 19 19  0  0  1  0  0  0  0  0999 V2000
    4.6299   -3.5244   -0.1797 Cl  0  0  0  0  0  0  0  0  0  0  0  0
    4.3338    1.9344   -1.5428 F   0  0  0  0  0  0  0  0  0  0  0  0
   -6.7455   -0.3941    0.3534 O   0  0  0  0  0  0  0  0  0  0  0  0
   -5.0961   -1.4953   -0.7481 O   0  0  0  0  0  0  0  0  0  0  0  0
    3.0086    0.1597    0.1502 N   0  0  0  0  0  0  0  0  0  0  0  0
    1.6030    0.1789    0.2666 C   0  0  0  0  0  0  0  0  0  0  0  0
   -2.6632    0.2383    0.6181 C   0  0  0  0  0  0  0  0  0  0  0  0
   -1.1619    0.2176    0.4943 C   0  0  0  0  0  0  0  0  0  0  0  0
   -3.3923    0.8658   -0.5787 C   0  0  0  0  0  0  0  0  0  0  0  0
    3.6798   -0.9769   -0.4485 C   0  0  0  0  0  0  0  0  0  0  0  0
    3.8007    1.2701    0.6401 C   0  0  0  0  0  0  0  0  0  0  0  0
    0.9669    1.2716    0.8555 C   0  0  0  0  0  0  0  0  0  0  0  0
    0.8489   -0.8944   -0.2080 C   0  0  0  0  0  0  0  0  0  0  0  0
   -0.4231    1.2911    0.9701 C   0  0  0  0  0  0  0  0  0  0  0  0
   -0.5412   -0.8750   -0.0935 C   0  0  0  0  0  0  0  0  0  0  0  0
   -4.9156    0.9107   -0.4247 C   0  0  0  0  0  0  0  0  0  0  0  0
    3.8153   -2.1173    0.5483 C   0  0  0  0  0  0  0  0  0  0  0  0
    3.8063    2.3939   -0.3761 C   0  0  0  0  0  0  0  0  0  0  0  0
   -5.5542   -0.4548   -0.2965 C   0  0  0  0  0  0  0  0  0  0  0  0
  1 17  1  0
  2 18  1  0
  3 19  1  0
  4 19  2  0
  5  6  1  0
  5 10  1  0
  5 11  1  0
  6 12  2  0
  6 13  1  0
  7  8  1  0
  7  9  1  0
  8 14  2  0
  8 15  1  0
  9 16  1  0
 10 17  1  0
 11 18  1  0
 12 14  1  0
 13 15  2  0
 16 19  1  0
M  END
>  <PUBCHEM_COMPOUND_CID>  (1) 
20029

>  <PUBCHEM_CONFORMER_RMSD>  (1) 
0.8

>  <PUBCHEM_CONFORMER_DIVERSEORDER>  (1) 
3
86
83
89
134
110
85
215
67
200
108
158
100
206
136
198
205
59
190
113
188
179
109
45
34
23
137
159
212
195
187
183
156
19
135
150
54
84
61
51
155
142
75
69
50
144
97
64
176
181
202
82
70
151
172
182
20
78
168
165
170
180
157
174
76
217
129
68
127
213
201
211
112
36
220
81
178
194
166
115
207
193
203
101
154
152
123
209
104
99
92
56
42
175
189
37
132
88
210
22
80
145
26
32
107
25
35
116
216
39
118
199
161
163
153
55
208
38
139
29
186
10
111
6
90
125
133
16
31
87
40
33
53
131
148
169
191
117
11
63
71
65
24
143
46
94
91
57
204
43
5
149
164
27
7
114
103
124
77
48
171
173
72
138
105
12
13
126
66
221
141
185
214
122
60
47
184
119
147
160
62
102
128
95
93
2
192
96
41
28
79
140
18
1
49
218
98
197
14
52
219
74
15
17
120
106
162
21
177
167
196
4
130
73
58
8
121
146
44
9
30

>  <PUBCHEM_MMFF94_PARTIAL_CHARGES>  (1) 
23
1 -0.29
10 0.37
11 0.37
12 -0.15
13 -0.15
14 -0.15
15 -0.15
16 0.06
17 0.29
18 0.34
19 0.66
2 -0.34
28 0.15
29 0.15
3 -0.65
30 0.15
31 0.15
38 0.5
4 -0.57
5 -0.84
6 0.1
7 0.14
8 -0.14

>  <PUBCHEM_EFFECTIVE_ROTOR_COUNT>  (1) 
9

>  <PUBCHEM_PHARMACOPHORE_FEATURES>  (1) 
5
1 3 acceptor
1 4 acceptor
1 5 cation
3 3 4 19 anion
6 6 8 12 13 14 15 rings

>  <PUBCHEM_HEAVY_ATOM_COUNT>  (1) 
19

>  <PUBCHEM_ATOM_DEF_STEREO_COUNT>  (1) 
0

>  <PUBCHEM_ATOM_UDEF_STEREO_COUNT>  (1) 
0

>  <PUBCHEM_BOND_DEF_STEREO_COUNT>  (1) 
0

>  <PUBCHEM_BOND_UDEF_STEREO_COUNT>  (1) 
0

>  <PUBCHEM_ISOTOPIC_ATOM_COUNT>  (1) 
0

>  <PUBCHEM_COMPONENT_COUNT>  (1) 
1

>  <PUBCHEM_CACTVS_TAUTO_COUNT>  (1) 
1

>  <PUBCHEM_CONFORMER_ID>  (1) 
00004E3D00000003

>  <PUBCHEM_MMFF94_ENERGY>  (1) 
46.4667

>  <PUBCHEM_FEATURE_SELFOVERLAP>  (1) 
25.43

>  <PUBCHEM_SHAPE_FINGERPRINT>  (1) 
10912923 1 18060707182381366241
11287383 113 18186800314031795417
12403259 226 18266734693259644736
12596602 18 10807930475589311407
12616971 3 17988914553392153031
12730499 353 18338523052766243512
12916748 109 17603584140881109801
13073987 5 18273213084568878609
13167823 11 18411131412273224219
13533116 47 18413670201400526442
13540713 5 18127992818830549064
13760787 5 18341341019516654377
13862211 1 18059847329955509295
13955234 65 18343013428558581704
14863182 85 16702021929428615270
15196674 1 18341610395865910529
17834072 33 18412544344722924901
17844677 252 18336550421911801325
18335252 98 18188217619080301267
200 152 17918273173728606441
20369508 70 17775560944993763384
20554085 129 18129654344631089536
20645477 70 18409446960353827082
21267235 1 18200879478430977534
220451 1 18201443610059106715
23081809 10 18131630085115342249
23522609 53 18057630783613522921
23559900 14 18410007707047074058
25147074 1 18129959870569829400
3004659 81 18411981330281749042
312423 11 18272097041353367808
34797466 226 17240209854331437165
4325135 7 18410011083023159573
465052 167 18201439121544586758
5104073 3 17845932940287305347
5281201 14 18260828163749598908
6025842 7 18408888451712867102
633830 44 17968089803045848817
7164475 11 18340488846713953288
7364860 26 18341897368980729562
7970288 3 18052816940886352718
90127 26 17748830678998127913
9841814 1 16486964116197297448

>  <PUBCHEM_SHAPE_MULTIPOLES>  (1) 
368.89
13.45
2.66
0.94
17.38
1.24
-0.08
4.59
-2.26
-5.47
-0.33
-0.33
-0.31
-0.67

>  <PUBCHEM_SHAPE_SELFOVERLAP>  (1) 
731.792

>  <PUBCHEM_SHAPE_VOLUME>  (1) 
219.8

>  <PUBCHEM_COORDINATE_TYPE>  (1) 
2
5
10

$$$$
