20025
     RDKit          3D

 12 12  0  0  0  0  0  0  0  0999 V2000
    3.2015   -0.7308    0.0236 O   0  0  0  0  0  0  0  0  0  0  0  0
    1.0650    0.2677   -0.0150 N   0  0  0  0  0  0  0  0  0  0  0  0
   -0.3174    0.0790   -0.0060 C   0  0  0  0  0  0  0  0  0  0  0  0
   -1.0180   -0.0023   -1.2095 C   0  0  0  0  0  0  0  0  0  0  0  0
   -0.9989   -0.0291    1.2064 C   0  0  0  0  0  0  0  0  0  0  0  0
    1.9729   -0.8550    0.0018 C   0  0  0  0  0  0  0  0  0  0  0  0
   -2.4000   -0.1914   -1.2007 C   0  0  0  0  0  0  0  0  0  0  0  0
   -2.3809   -0.2184    1.2150 C   0  0  0  0  0  0  0  0  0  0  0  0
   -3.0813   -0.2995    0.0114 C   0  0  0  0  0  0  0  0  0  0  0  0
    1.6405    1.5598   -0.0057 C   0  0  0  0  0  0  0  0  0  0  0  0
    1.4040   -2.2585   -0.0325 C   0  0  0  0  0  0  0  0  0  0  0  0
    0.9128    2.6785    0.0112 C   0  0  0  0  0  0  0  0  0  0  0  0
  1  6  2  0
  2  3  1  0
  2  6  1  0
  2 10  1  0
  3  4  2  0
  3  5  1  0
  4  7  1  0
  5  8  2  0
  6 11  1  0
  7  9  2  0
  8  9  1  0
 10 12  2  0
M  END
>  <PUBCHEM_COMPOUND_CID>  (1) 
20025

>  <PUBCHEM_CONFORMER_RMSD>  (1) 
0.6

>  <PUBCHEM_CONFORMER_DIVERSEORDER>  (1) 
1
9
2
5
7
3
8
10
4
6

>  <PUBCHEM_MMFF94_PARTIAL_CHARGES>  (1) 
20
1 -0.57
10 -0.04
11 0.06
12 -0.3
13 0.15
14 0.15
15 0.15
16 0.15
17 0.15
18 0.15
2 -0.29
22 0.15
23 0.15
3 0.12
4 -0.15
5 -0.15
6 0.57
7 -0.15
8 -0.15
9 -0.15

>  <PUBCHEM_EFFECTIVE_ROTOR_COUNT>  (1) 
3

>  <PUBCHEM_PHARMACOPHORE_FEATURES>  (1) 
2
1 1 acceptor
6 3 4 5 7 8 9 rings

>  <PUBCHEM_HEAVY_ATOM_COUNT>  (1) 
12

>  <PUBCHEM_ATOM_DEF_STEREO_COUNT>  (1) 
0

>  <PUBCHEM_ATOM_UDEF_STEREO_COUNT>  (1) 
0

>  <PUBCHEM_BOND_DEF_STEREO_COUNT>  (1) 
0

>  <PUBCHEM_BOND_UDEF_STEREO_COUNT>  (1) 
0

>  <PUBCHEM_ISOTOPIC_ATOM_COUNT>  (1) 
0

>  <PUBCHEM_COMPONENT_COUNT>  (1) 
1

>  <PUBCHEM_CACTVS_TAUTO_COUNT>  (1) 
1

>  <PUBCHEM_CONFORMER_ID>  (1) 
00004E3900000001

>  <PUBCHEM_MMFF94_ENERGY>  (1) 
57.8804

>  <PUBCHEM_FEATURE_SELFOVERLAP>  (1) 
10.148

>  <PUBCHEM_SHAPE_FINGERPRINT>  (1) 
12326174 3 18188756336353212064
12423570 1 16256984435929626221
13538477 17 17417529241256988103
13898156 1 17275111664500405665
15219456 202 17895475933159572229
16945 1 18410856568351186383
19837323 101 15431168937539629757
20201158 50 18113617846109610818
20361792 2 18270679762317421454
20645464 45 17386555998555059385
20711985 344 17687744939599801386
21061003 4 18409170974229068274
23211744 41 17533483784582424881
23552423 10 18200868586599260087
2748010 2 18047480198953676850
29004967 10 18336547127244429002
369184 2 14692564390941452367
5084963 1 18060132163279659861
77492 1 17703793647246557037
81228 2 17831859054050163768

>  <PUBCHEM_SHAPE_MULTIPOLES>  (1) 
236.1
4.13
2
1.11
0.72
0.74
0
-0.94
-0.01
-1.92
0.01
0.85
-0.04
0.01

>  <PUBCHEM_SHAPE_SELFOVERLAP>  (1) 
483.941

>  <PUBCHEM_SHAPE_VOLUME>  (1) 
136.4

>  <PUBCHEM_COORDINATE_TYPE>  (1) 
2
5
10

$$$$
