2002
     RDKit          3D

 18 19  0  0  1  0  0  0  0  0999 V2000
    4.1412    1.4758   -0.0613 O   0  0  0  0  0  0  0  0  0  0  0  0
    3.7066   -0.1479   -1.5845 O   0  0  0  0  0  0  0  0  0  0  0  0
    1.4446   -1.4546    2.1919 O   0  0  0  0  0  0  0  0  0  0  0  0
   -2.1331    1.7039    1.3115 N   0  0  0  0  0  0  0  0  0  0  0  0
    1.5621   -0.9638   -0.0784 N   0  0  0  0  0  0  0  0  0  0  0  0
    0.9629    1.3852   -0.5978 C   0  0  0  0  0  0  0  0  0  0  0  0
   -0.3856    1.3116    0.0003 C   0  0  0  0  0  0  0  0  0  0  0  0
    1.9944    0.4260    0.0498 C   0  0  0  0  0  0  0  0  0  0  0  0
   -1.4468    0.4544   -0.4046 C   0  0  0  0  0  0  0  0  0  0  0  0
   -2.5314    0.7207    0.4340 C   0  0  0  0  0  0  0  0  0  0  0  0
   -0.8379    2.0675    1.0571 C   0  0  0  0  0  0  0  0  0  0  0  0
   -1.5894   -0.5254   -1.4071 C   0  0  0  0  0  0  0  0  0  0  0  0
   -3.7562    0.0535    0.3197 C   0  0  0  0  0  0  0  0  0  0  0  0
    3.3525    0.5232   -0.6236 C   0  0  0  0  0  0  0  0  0  0  0  0
   -2.8086   -1.2009   -1.5333 C   0  0  0  0  0  0  0  0  0  0  0  0
   -3.8741   -0.9143   -0.6820 C   0  0  0  0  0  0  0  0  0  0  0  0
    1.3287   -1.7710    1.0108 C   0  0  0  0  0  0  0  0  0  0  0  0
    0.8701   -3.1439    0.5976 C   0  0  0  0  0  0  0  0  0  0  0  0
  1 14  1  0
  2 14  2  0
  3 17  2  0
  4 10  1  0
  4 11  1  0
  5  8  1  0
  5 17  1  0
  6  7  1  0
  6  8  1  0
  7  9  1  0
  7 11  2  0
  8 14  1  0
  9 10  2  0
  9 12  1  0
 10 13  1  0
 12 15  2  0
 13 16  2  0
 15 16  1  0
 17 18  1  0
M  END
>  <PUBCHEM_COMPOUND_CID>  (1) 
2002

>  <PUBCHEM_CONFORMER_RMSD>  (1) 
0.6

>  <PUBCHEM_CONFORMER_DIVERSEORDER>  (1) 
1
14
103
38
3
100
9
30
13
79
33
99
72
63
12
90
47
37
97
102
5
74
73
11
52
62
24
39
87
10
23
98
19
82
93
89
84
88
44
85
94
81
95
27
54
8
34
101
43
2
25
6
28
32
75
20
56
71
59
58
7
40
41
50
60
64
55
4
36
53
21
15
29
31
16
46
26
48
45
22
80
91
69
92
78
18
68
57
49
67
17
83
96
86
35
42
61
65
70
76
51
66
77

>  <PUBCHEM_MMFF94_PARTIAL_CHARGES>  (1) 
25
1 -0.65
10 -0.15
11 -0.3
12 -0.15
13 -0.15
14 0.66
15 -0.15
16 -0.15
17 0.57
18 0.06
2 -0.57
22 0.15
23 0.27
24 0.37
25 0.15
26 0.15
27 0.15
28 0.15
3 -0.57
32 0.5
4 0.03
5 -0.73
6 0.18
7 -0.18
8 0.36

>  <PUBCHEM_EFFECTIVE_ROTOR_COUNT>  (1) 
5

>  <PUBCHEM_PHARMACOPHORE_FEATURES>  (1) 
9
1 1 acceptor
1 2 acceptor
1 3 acceptor
1 4 cation
1 4 donor
1 5 donor
3 1 2 14 anion
5 4 7 9 10 11 rings
6 9 10 12 13 15 16 rings

>  <PUBCHEM_HEAVY_ATOM_COUNT>  (1) 
18

>  <PUBCHEM_ATOM_DEF_STEREO_COUNT>  (1) 
0

>  <PUBCHEM_ATOM_UDEF_STEREO_COUNT>  (1) 
1

>  <PUBCHEM_BOND_DEF_STEREO_COUNT>  (1) 
0

>  <PUBCHEM_BOND_UDEF_STEREO_COUNT>  (1) 
0

>  <PUBCHEM_ISOTOPIC_ATOM_COUNT>  (1) 
0

>  <PUBCHEM_COMPONENT_COUNT>  (1) 
1

>  <PUBCHEM_CACTVS_TAUTO_COUNT>  (1) 
2

>  <PUBCHEM_CONFORMER_ID>  (1) 
000007D200000001

>  <PUBCHEM_MMFF94_ENERGY>  (1) 
29.5991

>  <PUBCHEM_FEATURE_SELFOVERLAP>  (1) 
45.821

>  <PUBCHEM_SHAPE_FINGERPRINT>  (1) 
11578080 2 18122309494096658660
12553582 1 18272358802915427767
12592029 89 17168136871066978426
13221675 6 18272936033170806813
13538477 17 18200308801883917353
13583140 156 18115610170650394849
14787075 74 18056473087483317960
15207287 21 16443344303500492536
15209289 33 18411146814152093548
15279307 12 18270126682013982873
15375462 189 18412541024781575603
15653759 3 15626222420386860567
15852999 172 15936411134777871952
16752209 62 17916574346459178581
16945 1 18187916326765569645
19422 9 18201165360207287660
22112679 90 18269827632036443368
22445834 79 18340489963283507225
23236772 104 18341619213085557633
23402539 116 18341890823049942700
23419403 2 17690292924352564929
23559900 14 17489308568696133900
23598291 2 18050013194386465433
23598294 1 17917153780254508505
23728640 28 15086879711959378723
2871803 45 18411416219743363949
34934 24 18341333310256384921
4340502 62 17968109620478614089
4409770 3 15457882083643616525
449060 23 18131353033095188356
53748568 43 18339647741386729037
9981440 41 17192904689465783520

>  <PUBCHEM_SHAPE_MULTIPOLES>  (1) 
342.86
6.36
2.43
1.49
0.99
1.21
-0.17
-0.29
1.81
0.63
-0.97
0.13
0.4
-1.42

>  <PUBCHEM_SHAPE_SELFOVERLAP>  (1) 
730.386

>  <PUBCHEM_SHAPE_VOLUME>  (1) 
191.1

>  <PUBCHEM_COORDINATE_TYPE>  (1) 
2
5
10

$$$$
