20035
     RDKit          3D

 18 18  0  0  0  0  0  0  0  0999 V2000
    3.9021    2.2743   -1.1795 F   0  0  0  0  0  0  0  0  0  0  0  0
    4.2865   -1.7955    1.2958 F   0  0  0  0  0  0  0  0  0  0  0  0
   -5.9841    1.2345    0.3838 O   0  0  0  0  0  0  0  0  0  0  0  0
   -5.8049   -0.9459   -0.2626 O   0  0  0  0  0  0  0  0  0  0  0  0
    2.6686    0.0731    0.0061 N   0  0  0  0  0  0  0  0  0  0  0  0
    3.2653    1.1476    0.7741 C   0  0  0  0  0  0  0  0  0  0  0  0
    3.5305   -0.8469   -0.7091 C   0  0  0  0  0  0  0  0  0  0  0  0
    1.2674   -0.0835   -0.0337 C   0  0  0  0  0  0  0  0  0  0  0  0
    0.4467    0.7988    0.6687 C   0  0  0  0  0  0  0  0  0  0  0  0
    0.7025   -1.1211   -0.7752 C   0  0  0  0  0  0  0  0  0  0  0  0
    3.2180    2.4402   -0.0152 C   0  0  0  0  0  0  0  0  0  0  0  0
    3.7238   -2.1141    0.0989 C   0  0  0  0  0  0  0  0  0  0  0  0
   -1.5039   -0.3940   -0.1117 C   0  0  0  0  0  0  0  0  0  0  0  0
   -0.9390    0.6435    0.6298 C   0  0  0  0  0  0  0  0  0  0  0  0
   -0.6831   -1.2764   -0.8143 C   0  0  0  0  0  0  0  0  0  0  0  0
   -2.9486   -0.5562   -0.1524 C   0  0  0  0  0  0  0  0  0  0  0  0
   -3.8514    0.4053    0.1431 C   0  0  0  0  0  0  0  0  0  0  0  0
   -5.2967    0.1164    0.0533 C   0  0  0  0  0  0  0  0  0  0  0  0
  1 11  1  0
  2 12  1  0
  3 18  1  0
  4 18  2  0
  5  6  1  0
  5  7  1  0
  5  8  1  0
  6 11  1  0
  7 12  1  0
  8  9  2  0
  8 10  1  0
  9 14  1  0
 10 15  2  0
 13 14  2  0
 13 15  1  0
 13 16  1  0
 16 17  2  0
 17 18  1  0
M  END
>  <PUBCHEM_COMPOUND_CID>  (1) 
20035

>  <PUBCHEM_CONFORMER_RMSD>  (1) 
0.8

>  <PUBCHEM_CONFORMER_DIVERSEORDER>  (1) 
1
15
16
14
10
11
19
9
18
13
8
21
20
5
6
17
3
7
12
2
4

>  <PUBCHEM_MMFF94_PARTIAL_CHARGES>  (1) 
25
1 -0.34
10 -0.15
11 0.34
12 0.34
13 0.03
14 -0.15
15 -0.15
16 -0.18
17 -0.14
18 0.71
2 -0.34
23 0.15
24 0.15
29 0.15
3 -0.65
30 0.15
31 0.15
32 0.15
33 0.5
4 -0.57
5 -0.84
6 0.37
7 0.37
8 0.1
9 -0.15

>  <PUBCHEM_EFFECTIVE_ROTOR_COUNT>  (1) 
7

>  <PUBCHEM_PHARMACOPHORE_FEATURES>  (1) 
5
1 3 acceptor
1 4 acceptor
1 5 cation
3 3 4 18 anion
6 8 9 10 13 14 15 rings

>  <PUBCHEM_HEAVY_ATOM_COUNT>  (1) 
18

>  <PUBCHEM_ATOM_DEF_STEREO_COUNT>  (1) 
0

>  <PUBCHEM_ATOM_UDEF_STEREO_COUNT>  (1) 
0

>  <PUBCHEM_BOND_DEF_STEREO_COUNT>  (1) 
0

>  <PUBCHEM_BOND_UDEF_STEREO_COUNT>  (1) 
1

>  <PUBCHEM_ISOTOPIC_ATOM_COUNT>  (1) 
0

>  <PUBCHEM_COMPONENT_COUNT>  (1) 
1

>  <PUBCHEM_CACTVS_TAUTO_COUNT>  (1) 
1

>  <PUBCHEM_CONFORMER_ID>  (1) 
00004E4300000001

>  <PUBCHEM_MMFF94_ENERGY>  (1) 
52.6924

>  <PUBCHEM_FEATURE_SELFOVERLAP>  (1) 
25.427

>  <PUBCHEM_SHAPE_FINGERPRINT>  (1) 
10912923 1 18201723964059935339
11287383 113 18336267924838018539
11405975 8 18334858324808316099
12616971 3 18130498678670146887
12644460 14 18410018753802861360
13167823 11 18412541020666547439
13533116 47 18040433248363539867
13675066 3 17822013120802147527
13760787 19 18341614883695323862
13760787 5 18342449348981113031
15196674 1 18272370880394969665
15342168 16 18043253641918120516
17834072 33 18202001062412204319
17844677 252 18335708226217323985
18186145 218 18040990752266540462
20369508 70 18187922842468523026
20559304 39 18202846535462055954
20645477 70 18342178855935429022
21267235 1 18130233674376343815
212847 35 18202282506770418361
2255824 54 18408606968278337334
23081809 10 18131350822094177389
23402539 116 18411412879034066183
23402655 69 17775567525236964869
23557571 272 17241329062927159415
23559900 14 18411982464248158314
25147074 1 18128802205142965670
3004659 81 18343586222270972726
34934 24 17988073521570574040
4072396 5 17845645950441132547
465052 167 18412267198878531070
474 4 18042690683385456572
5104073 3 18342741832175496035
522135 26 18409731759598061118
5281201 14 18260263027647242053
5374978 207 17917705794988832258
537710 114 17989209269352201321
633830 44 18334571356679216311
7364860 26 18201719574888110728
8272917 22 18409168818408771158
90127 26 17967536757577513193
9971528 1 17748828522776488853
9999458 23 18334577923621051518

>  <PUBCHEM_SHAPE_MULTIPOLES>  (1) 
339.16
11.61
2.07
0.91
15.35
0.49
-0.01
0.9
-0.56
-3.04
0.14
-0.8
-0.01
-0.98

>  <PUBCHEM_SHAPE_SELFOVERLAP>  (1) 
694.855

>  <PUBCHEM_SHAPE_VOLUME>  (1) 
196.3

>  <PUBCHEM_COORDINATE_TYPE>  (1) 
2
5
10

$$$$
