20030
     RDKit          3D

 19 19  0  0  0  0  0  0  0  0999 V2000
    4.5254   -2.1565    0.9728 F   0  0  0  0  0  0  0  0  0  0  0  0
    4.3486    1.9699   -1.4315 F   0  0  0  0  0  0  0  0  0  0  0  0
   -6.7435   -0.3249    0.4181 O   0  0  0  0  0  0  0  0  0  0  0  0
   -5.1721   -1.2403   -0.9381 O   0  0  0  0  0  0  0  0  0  0  0  0
    3.0136   -0.0461   -0.0435 N   0  0  0  0  0  0  0  0  0  0  0  0
    1.6140   -0.0063    0.1276 C   0  0  0  0  0  0  0  0  0  0  0  0
   -2.6339    0.1161    0.6456 C   0  0  0  0  0  0  0  0  0  0  0  0
   -1.1390    0.0733    0.4633 C   0  0  0  0  0  0  0  0  0  0  0  0
   -3.3755    0.9878   -0.3780 C   0  0  0  0  0  0  0  0  0  0  0  0
    3.6212   -1.0554   -0.8877 C   0  0  0  0  0  0  0  0  0  0  0  0
    3.8609    0.9305    0.6114 C   0  0  0  0  0  0  0  0  0  0  0  0
    1.0385    0.9695    0.9413 C   0  0  0  0  0  0  0  0  0  0  0  0
    0.8054   -0.9421   -0.5175 C   0  0  0  0  0  0  0  0  0  0  0  0
   -0.3455    1.0095    1.1102 C   0  0  0  0  0  0  0  0  0  0  0  0
   -0.5787   -0.9021   -0.3487 C   0  0  0  0  0  0  0  0  0  0  0  0
   -4.8905    1.0492   -0.1605 C   0  0  0  0  0  0  0  0  0  0  0  0
    3.7518   -2.3598   -0.1277 C   0  0  0  0  0  0  0  0  0  0  0  0
    3.8755    2.2219   -0.1811 C   0  0  0  0  0  0  0  0  0  0  0  0
   -5.5761   -0.2944   -0.2759 C   0  0  0  0  0  0  0  0  0  0  0  0
  1 17  1  0
  2 18  1  0
  3 19  1  0
  4 19  2  0
  5  6  1  0
  5 10  1  0
  5 11  1  0
  6 12  2  0
  6 13  1  0
  7  8  1  0
  7  9  1  0
  8 14  2  0
  8 15  1  0
  9 16  1  0
 10 17  1  0
 11 18  1  0
 12 14  1  0
 13 15  2  0
 16 19  1  0
M  END
>  <PUBCHEM_COMPOUND_CID>  (1) 
20030

>  <PUBCHEM_CONFORMER_RMSD>  (1) 
0.8

>  <PUBCHEM_CONFORMER_DIVERSEORDER>  (1) 
1
51
29
81
75
91
38
126
94
73
14
119
117
113
31
46
17
58
92
18
98
101
83
50
22
122
125
89
129
70
88
99
114
106
84
45
121
97
57
132
74
112
95
40
68
86
47
108
25
115
87
56
20
111
39
82
33
78
62
109
60
11
96
124
12
105
21
43
79
44
49
100
37
4
30
27
80
76
90
120
63
67
103
24
64
123
59
69
41
15
61
110
93
23
104
42
3
35
72
9
116
53
5
10
77
131
118
128
16
107
32
2
130
19
52
48
66
102
54
55
8
65
28
127
6
34
36
26
71
85
7
13

>  <PUBCHEM_MMFF94_PARTIAL_CHARGES>  (1) 
23
1 -0.34
10 0.37
11 0.37
12 -0.15
13 -0.15
14 -0.15
15 -0.15
16 0.06
17 0.34
18 0.34
19 0.66
2 -0.34
28 0.15
29 0.15
3 -0.65
30 0.15
31 0.15
38 0.5
4 -0.57
5 -0.84
6 0.1
7 0.14
8 -0.14

>  <PUBCHEM_EFFECTIVE_ROTOR_COUNT>  (1) 
9

>  <PUBCHEM_PHARMACOPHORE_FEATURES>  (1) 
5
1 3 acceptor
1 4 acceptor
1 5 cation
3 3 4 19 anion
6 6 8 12 13 14 15 rings

>  <PUBCHEM_HEAVY_ATOM_COUNT>  (1) 
19

>  <PUBCHEM_ATOM_DEF_STEREO_COUNT>  (1) 
0

>  <PUBCHEM_ATOM_UDEF_STEREO_COUNT>  (1) 
0

>  <PUBCHEM_BOND_DEF_STEREO_COUNT>  (1) 
0

>  <PUBCHEM_BOND_UDEF_STEREO_COUNT>  (1) 
0

>  <PUBCHEM_ISOTOPIC_ATOM_COUNT>  (1) 
0

>  <PUBCHEM_COMPONENT_COUNT>  (1) 
1

>  <PUBCHEM_CACTVS_TAUTO_COUNT>  (1) 
1

>  <PUBCHEM_CONFORMER_ID>  (1) 
00004E3E00000001

>  <PUBCHEM_MMFF94_ENERGY>  (1) 
45.3648

>  <PUBCHEM_FEATURE_SELFOVERLAP>  (1) 
25.43

>  <PUBCHEM_SHAPE_FINGERPRINT>  (1) 
10670039 82 14418695788364145342
10912923 1 18131357397219687537
11287383 113 18334295387945323345
12403260 363 18337954463605197488
12596602 18 10952044568480161815
12616971 3 18059846251770700367
12730499 353 18339367477722775232
12916748 109 17821729438233482193
13167823 11 18412539882405080039
13533116 47 18260829259119285666
13760787 5 18272100374237342585
14863182 85 16917069911104999158
15196674 1 18271805696879427321
15961568 22 17531533177983135372
17834072 33 18342175574733025285
17844677 252 18336831901183531213
18335252 98 18187937243615192443
200 152 17632857530153679939
20369508 70 17704347775875417952
20645477 70 18342178830355490238
21150785 3 16660657253645368031
21267235 1 18059581243540632550
220451 1 18130513011139420111
23081809 10 18131913754799255145
23402539 116 17968657117102884765
23402655 69 18131068217398922433
23522609 53 17986418718312315585
23559900 14 18410573968536338050
25147074 1 18059028180760046168
3004659 81 18343022164332189606
312423 11 18130519521819464608
34797466 226 17312831497866043181
4325135 7 18341050800334695213
4340502 62 18186797010954051330
465052 167 18201159854080780982
5104073 3 18202282481454127083
5281201 14 18334293132613096812
5374978 207 17632570535632414642
6025842 7 18410295822238221070
633830 44 18186516579722685601
7164475 11 17916312632379356408
7495541 125 17988636415515165547
90127 26 17894636915952235065
9841814 1 16200141106328726306
9971528 1 17603869991928153844

>  <PUBCHEM_SHAPE_MULTIPOLES>  (1) 
359.74
13.21
2.03
1
16.77
0.22
-0.04
1.35
-1.64
-3.19
-0.18
-0.53
-0.14
-0.83

>  <PUBCHEM_SHAPE_SELFOVERLAP>  (1) 
725.772

>  <PUBCHEM_SHAPE_VOLUME>  (1) 
210.4

>  <PUBCHEM_COORDINATE_TYPE>  (1) 
2
5
10

$$$$
