20039
     RDKit          3D

 17 19  0  0  1  0  0  0  0  0999 V2000
   -2.2960   -0.1172   -0.7678 O   0  0  0  0  0  0  0  0  0  0  0  0
   -4.7537    1.1905   -1.2349 O   0  0  0  0  0  0  0  0  0  0  0  0
   -0.0412   -0.0653   -0.0434 N   0  0  0  0  0  0  0  0  0  0  0  0
    1.1607    1.7523    0.4245 N   0  0  0  0  0  0  0  0  0  0  0  0
    1.7478   -1.6384   -0.5171 N   0  0  0  0  0  0  0  0  0  0  0  0
    3.9375   -0.5868   -0.2815 N   0  0  0  0  0  0  0  0  0  0  0  0
    4.1999    1.7086    0.3424 N   0  0  0  0  0  0  0  0  0  0  0  0
   -1.2165   -0.9135   -0.2469 C   0  0  0  0  0  0  0  0  0  0  0  0
   -1.7136   -1.5909    1.0259 C   0  0  0  0  0  0  0  0  0  0  0  0
   -2.9308   -0.7774    1.4008 C   0  0  0  0  0  0  0  0  0  0  0  0
   -3.4584   -0.3591    0.0409 C   0  0  0  0  0  0  0  0  0  0  0  0
   -4.3255    0.8838    0.0826 C   0  0  0  0  0  0  0  0  0  0  0  0
    1.2670   -0.4336   -0.1756 C   0  0  0  0  0  0  0  0  0  0  0  0
   -0.0540    1.2557    0.3173 C   0  0  0  0  0  0  0  0  0  0  0  0
    1.9962    0.7074    0.1193 C   0  0  0  0  0  0  0  0  0  0  0  0
    3.3821    0.6016    0.0574 C   0  0  0  0  0  0  0  0  0  0  0  0
    3.0983   -1.6177   -0.5438 C   0  0  0  0  0  0  0  0  0  0  0  0
  1  8  1  0
  1 11  1  0
  2 12  1  0
  3  8  1  0
  3 13  1  0
  3 14  1  0
  4 14  2  0
  4 15  1  0
  5 13  1  0
  5 17  2  0
  6 16  2  0
  6 17  1  0
  7 16  1  0
  8  9  1  0
  9 10  1  0
 10 11  1  0
 11 12  1  0
 13 15  2  0
 15 16  1  0
M  END
>  <PUBCHEM_COMPOUND_CID>  (1) 
20039

>  <PUBCHEM_CONFORMER_RMSD>  (1) 
0.6

>  <PUBCHEM_CONFORMER_DIVERSEORDER>  (1) 
1
13
6
3
12
5
4
14
11
8
2
7
9
10

>  <PUBCHEM_MMFF94_PARTIAL_CHARGES>  (1) 
20
1 -0.56
11 0.28
12 0.28
13 0.11
14 0.04
15 0.23
16 0.41
17 0.47
2 -0.68
26 0.15
27 0.4
28 0.15
29 0.4
3 0.05
30 0.4
4 -0.57
5 -0.57
6 -0.62
7 -0.9
8 0.54

>  <PUBCHEM_EFFECTIVE_ROTOR_COUNT>  (1) 
3

>  <PUBCHEM_PHARMACOPHORE_FEATURES>  (1) 
11
1 1 acceptor
1 2 acceptor
1 2 donor
1 7 cation
1 7 donor
3 3 4 14 cation
3 3 5 13 cation
3 5 6 17 cation
5 1 8 9 10 11 rings
5 3 4 13 14 15 rings
6 5 6 13 15 16 17 rings

>  <PUBCHEM_HEAVY_ATOM_COUNT>  (1) 
17

>  <PUBCHEM_ATOM_DEF_STEREO_COUNT>  (1) 
2

>  <PUBCHEM_ATOM_UDEF_STEREO_COUNT>  (1) 
0

>  <PUBCHEM_BOND_DEF_STEREO_COUNT>  (1) 
0

>  <PUBCHEM_BOND_UDEF_STEREO_COUNT>  (1) 
0

>  <PUBCHEM_ISOTOPIC_ATOM_COUNT>  (1) 
0

>  <PUBCHEM_COMPONENT_COUNT>  (1) 
1

>  <PUBCHEM_CACTVS_TAUTO_COUNT>  (1) 
3

>  <PUBCHEM_CONFORMER_ID>  (1) 
00004E4700000001

>  <PUBCHEM_MMFF94_ENERGY>  (1) 
33.5546

>  <PUBCHEM_FEATURE_SELFOVERLAP>  (1) 
56.43

>  <PUBCHEM_SHAPE_FINGERPRINT>  (1) 
10608611 8 18335984263311679329
11471102 20 18343018887208657316
11543360 7 14117520990735859728
116883 192 18269560429526454508
12236239 1 16845574201340977719
124424 183 18410294696566373227
12500047 106 18260547852888288851
12654215 9 18411700984960266196
13296908 3 18335427888847829730
13571099 22 18272933804051124963
13675066 3 18261118495075045539
14144814 61 18131360712475620851
14993402 34 16988844998783000124
15196674 1 18412546526212792387
15219456 202 18336269019453461138
15375358 24 18409165523688696810
15653759 3 17895481413806750547
16945 1 18271813474996381704
18186145 218 18040998414567311335
19049666 15 18261395494743507883
200 152 17561080285330950473
20201158 50 18410579478488839602
20279233 1 18335424585912425499
20645477 56 18187085087553873801
20645477 70 18201440246588368798
221357 26 18269543976066250789
22892500 29 17988916799396551280
23402539 116 18114170956255650605
23402655 69 18201433666951529269
23559900 14 18334860494204572138
25 1 18262797363816539155
2748010 2 18270399387295346188
296302 2 18411420643633401616
34934 24 18342170094433961258
4028521 119 18262230028870541373
4072396 5 18340470206771491074
495365 180 18201986729541965186
5104073 3 18410295821652691851
77492 1 16917075455338058691
81228 2 18194697968414937360
8809292 202 18261118486401046298
9709674 26 18409735100887828295

>  <PUBCHEM_SHAPE_MULTIPOLES>  (1) 
313.21
8.38
1.76
0.94
2.49
0.03
-0.08
1.97
0.94
-0.73
-0.09
0.77
-0.1
1.21

>  <PUBCHEM_SHAPE_SELFOVERLAP>  (1) 
680.314

>  <PUBCHEM_SHAPE_VOLUME>  (1) 
168.8

>  <PUBCHEM_COORDINATE_TYPE>  (1) 
2
5
10

$$$$
