20041
     RDKit          3D

 18 18  0  0  1  0  0  0  0  0999 V2000
   -0.2557   -2.5140    0.5126 O   0  0  0  0  0  0  0  0  0  0  0  0
    3.5400   -1.6309   -0.6428 O   0  0  0  0  0  0  0  0  0  0  0  0
    2.0182   -3.1389   -0.1447 O   0  0  0  0  0  0  0  0  0  0  0  0
    0.4769    3.7036    0.1112 O   0  0  0  0  0  0  0  0  0  0  0  0
    2.4931    3.0424   -0.4680 O   0  0  0  0  0  0  0  0  0  0  0  0
    2.3807   -1.9480   -0.2885 N   0  0  0  0  0  0  0  0  0  0  0  0
    1.3158    2.7984   -0.1113 N   0  0  0  0  0  0  0  0  0  0  0  0
   -2.1761   -0.4893    1.0246 C   0  0  0  0  0  0  0  0  0  0  0  0
   -3.2412    0.0327    0.0367 C   0  0  0  0  0  0  0  0  0  0  0  0
   -0.7528   -0.1817    0.5922 C   0  0  0  0  0  0  0  0  0  0  0  0
   -3.1062   -0.5742   -1.3638 C   0  0  0  0  0  0  0  0  0  0  0  0
   -2.4453    0.0707    2.4268 C   0  0  0  0  0  0  0  0  0  0  0  0
    0.1345   -1.2150    0.3585 C   0  0  0  0  0  0  0  0  0  0  0  0
   -0.3853    1.1429    0.4438 C   0  0  0  0  0  0  0  0  0  0  0  0
   -4.1803   -0.0462   -2.3027 C   0  0  0  0  0  0  0  0  0  0  0  0
    1.4373   -0.9134   -0.0381 C   0  0  0  0  0  0  0  0  0  0  0  0
    0.9176    1.4445    0.0474 C   0  0  0  0  0  0  0  0  0  0  0  0
    1.8289    0.4163   -0.1937 C   0  0  0  0  0  0  0  0  0  0  0  0
  1 13  1  0
  2  6  1  0
  3  6  2  0
  4  7  1  0
  5  7  2  0
  6 16  1  0
  7 17  1  0
  8  9  1  0
  8 10  1  0
  8 12  1  0
  9 11  1  0
 10 13  2  0
 10 14  1  0
 11 15  1  0
 13 16  1  0
 14 17  2  0
 16 18  2  0
 17 18  1  0
M  CHG  4   2  -1   4  -1   6   1   7   1
M  END
>  <PUBCHEM_COMPOUND_CID>  (1) 
20041

>  <PUBCHEM_CONFORMER_RMSD>  (1) 
0.6

>  <PUBCHEM_CONFORMER_DIVERSEORDER>  (1) 
1
4
5
6
9
12
11
10
7
2
8
3

>  <PUBCHEM_MMFF94_PARTIAL_CHARGES>  (1) 
17
1 -0.53
10 -0.14
13 0.08
14 -0.15
16 0.13
17 0.13
18 -0.15
2 -0.52
27 0.15
3 -0.52
31 0.15
32 0.45
4 -0.52
5 -0.52
6 0.91
7 0.91
8 0.14

>  <PUBCHEM_EFFECTIVE_ROTOR_COUNT>  (1) 
5

>  <PUBCHEM_PHARMACOPHORE_FEATURES>  (1) 
10
1 1 donor
1 12 hydrophobe
1 15 hydrophobe
1 2 acceptor
1 2 anion
1 3 acceptor
1 4 acceptor
1 4 anion
1 5 acceptor
6 10 13 14 16 17 18 rings

>  <PUBCHEM_HEAVY_ATOM_COUNT>  (1) 
18

>  <PUBCHEM_ATOM_DEF_STEREO_COUNT>  (1) 
0

>  <PUBCHEM_ATOM_UDEF_STEREO_COUNT>  (1) 
1

>  <PUBCHEM_BOND_DEF_STEREO_COUNT>  (1) 
0

>  <PUBCHEM_BOND_UDEF_STEREO_COUNT>  (1) 
0

>  <PUBCHEM_ISOTOPIC_ATOM_COUNT>  (1) 
0

>  <PUBCHEM_COMPONENT_COUNT>  (1) 
1

>  <PUBCHEM_CACTVS_TAUTO_COUNT>  (1) 
6

>  <PUBCHEM_CONFORMER_ID>  (1) 
00004E4900000001

>  <PUBCHEM_MMFF94_ENERGY>  (1) 
54.1417

>  <PUBCHEM_FEATURE_SELFOVERLAP>  (1) 
50.906

>  <PUBCHEM_SHAPE_FINGERPRINT>  (1) 
10967382 1 18266477540735037264
11725454 13 17316728240047309261
12553582 1 18267037063204758202
12759256 9 18411147943280314042
13140716 1 18051149260961023904
13294875 104 17170080743548510897
14181834 199 18261661683920828692
14614273 12 17687190107103005539
14817 1 15938090231062636667
15852999 172 18050830410777963649
16945 1 18338812198538551640
18219364 16 18046635782677114441
20361792 2 18270123392164304543
20671657 53 18198324192281206807
21160774 45 16970271219596266115
21524375 3 17684933896231345872
21639500 275 18338797939394938657
22112679 90 17418106407567938225
22620623 9 17625831461435943174
23114952 82 18261944228492342901
2334 1 17691139544406551984
23388829 49 18272094846635395056
23402539 116 18268995272123652646
23419403 2 17968678080468906929
23526113 38 18040715814546786723
23598291 2 17988655081501192509
238 59 18192693747811698365
25 1 18264487463153817573
2748010 2 18265621970338398376
6049 1 17677065623882980249
621550 5 17027171736955777771
6438718 38 17695639445951257097
6992083 37 17772763667005663827
7364860 26 18267038300102085400
77492 1 17775575242918513187
7832392 63 18123174720249185373
81228 2 17830737552094744008
88987 49 15719666654199719147

>  <PUBCHEM_SHAPE_MULTIPOLES>  (1) 
331.12
5.36
3.39
1.54
3.3
1.72
-0.18
-1.02
2.78
-4.15
0.29
2.45
-0.05
0.02

>  <PUBCHEM_SHAPE_SELFOVERLAP>  (1) 
686.777

>  <PUBCHEM_SHAPE_VOLUME>  (1) 
190.1

>  <PUBCHEM_COORDINATE_TYPE>  (1) 
2
5
10

$$$$
