20044
     RDKit          3D

 19 20  0  0  0  0  0  0  0  0999 V2000
   -3.4335   -0.4331   -0.0004 O   0  0  0  0  0  0  0  0  0  0  0  0
   -0.7883   -3.5135    0.0000 O   0  0  0  0  0  0  0  0  0  0  0  0
   -2.0787    3.3945   -0.0001 O   0  0  0  0  0  0  0  0  0  0  0  0
   -2.8694   -2.8148    0.0000 O   0  0  0  0  0  0  0  0  0  0  0  0
   -3.7673    1.9916   -0.0004 O   0  0  0  0  0  0  0  0  0  0  0  0
   -1.6361   -2.5899   -0.0001 N   0  0  0  0  0  0  0  0  0  0  0  0
   -2.5359    2.2272    0.0001 N   0  0  0  0  0  0  0  0  0  0  0  0
    2.1401    0.6081    0.0005 C   0  0  0  0  0  0  0  0  0  0  0  0
    2.8232    0.0673   -1.2678 C   0  0  0  0  0  0  0  0  0  0  0  0
    2.8242    0.0667    1.2681 C   0  0  0  0  0  0  0  0  0  0  0  0
    4.3225    0.3613   -1.2630 C   0  0  0  0  0  0  0  0  0  0  0  0
    4.3235    0.3607    1.2623 C   0  0  0  0  0  0  0  0  0  0  0  0
    4.9963   -0.1689   -0.0008 C   0  0  0  0  0  0  0  0  0  0  0  0
    0.6480    0.3294    0.0004 C   0  0  0  0  0  0  0  0  0  0  0  0
   -0.2557    1.3894    0.0006 C   0  0  0  0  0  0  0  0  0  0  0  0
    0.1879   -0.9855    0.0000 C   0  0  0  0  0  0  0  0  0  0  0  0
   -1.1834   -1.2416   -0.0001 C   0  0  0  0  0  0  0  0  0  0  0  0
   -1.6269    1.1333    0.0005 C   0  0  0  0  0  0  0  0  0  0  0  0
   -2.0906   -0.1822    0.0001 C   0  0  0  0  0  0  0  0  0  0  0  0
  1 19  1  0
  2  6  1  0
  3  7  1  0
  4  6  2  0
  5  7  2  0
  6 17  1  0
  7 18  1  0
  8  9  1  0
  8 10  1  0
  8 14  1  0
  9 11  1  0
 10 12  1  0
 11 13  1  0
 12 13  1  0
 14 15  2  0
 14 16  1  0
 15 18  1  0
 16 17  2  0
 17 19  1  0
 18 19  2  0
M  CHG  4   2  -1   3  -1   6   1   7   1
M  END
>  <PUBCHEM_COMPOUND_CID>  (1) 
20044

>  <PUBCHEM_CONFORMER_RMSD>  (1) 
0.6

>  <PUBCHEM_CONFORMER_DIVERSEORDER>  (1) 
1
4
3
2
5

>  <PUBCHEM_MMFF94_PARTIAL_CHARGES>  (1) 
17
1 -0.53
14 -0.14
15 -0.15
16 -0.15
17 0.13
18 0.13
19 0.08
2 -0.52
3 -0.52
31 0.15
32 0.15
33 0.45
4 -0.52
5 -0.52
6 0.91
7 0.91
8 0.14

>  <PUBCHEM_EFFECTIVE_ROTOR_COUNT>  (1) 
4.2

>  <PUBCHEM_PHARMACOPHORE_FEATURES>  (1) 
9
1 1 donor
1 2 acceptor
1 2 anion
1 3 acceptor
1 3 anion
1 4 acceptor
1 5 acceptor
6 14 15 16 17 18 19 rings
6 8 9 10 11 12 13 rings

>  <PUBCHEM_HEAVY_ATOM_COUNT>  (1) 
19

>  <PUBCHEM_ATOM_DEF_STEREO_COUNT>  (1) 
0

>  <PUBCHEM_ATOM_UDEF_STEREO_COUNT>  (1) 
0

>  <PUBCHEM_BOND_DEF_STEREO_COUNT>  (1) 
0

>  <PUBCHEM_BOND_UDEF_STEREO_COUNT>  (1) 
0

>  <PUBCHEM_ISOTOPIC_ATOM_COUNT>  (1) 
0

>  <PUBCHEM_COMPONENT_COUNT>  (1) 
1

>  <PUBCHEM_CACTVS_TAUTO_COUNT>  (1) 
3

>  <PUBCHEM_CONFORMER_ID>  (1) 
00004E4C00000001

>  <PUBCHEM_MMFF94_ENERGY>  (1) 
57.0926

>  <PUBCHEM_FEATURE_SELFOVERLAP>  (1) 
45.835

>  <PUBCHEM_SHAPE_FINGERPRINT>  (1) 
10319926 262 18270094896042473880
10411042 1 17978229683898353091
10616163 171 18409731789900793618
12173636 292 18266455416984319669
12236239 1 17748826319906632364
12500047 106 18340201904369721600
12553582 1 18121223348485923818
12788726 201 18117287049724303698
13052359 8 18407755937382354123
13140716 1 18194686097219880619
13538477 17 18259981608826462884
13544592 145 18128545864594160230
13583140 156 17917702518546041350
13862211 1 18338514261606875047
14178342 30 18335967736789234178
15042514 8 18336552706808081155
15279307 12 18186799137105242034
15669948 3 18334296495888500134
15885798 251 18122911090423856643
16752209 62 18337100241696511643
16945 1 18410855486077313637
1741750 31 18340207379994276656
17804303 29 18341614879400077130
18186145 218 17846220995149040696
19049666 15 17917158191285868510
20279233 1 17846780694065140604
20510252 161 18272088275272518689
20645476 183 18260554389659422420
20645477 56 18412267207547333504
21065201 7 18413670210670864906
212916 134 18268977705554184632
21452121 199 17762049243767436822
21524375 3 18115308847827598305
22224240 67 18271254824912379561
23184049 29 18194116541401276184
2334 1 17762055836721519179
23366157 5 17610908880944343347
23402539 116 18342728655120756007
23419403 2 17130412700443612955
23526113 38 17560797706611032986
23557571 272 18272936059489515976
23559900 14 18272657797416959190
23598291 2 17894918464211947694
2748010 2 18193850236507264647
3071541 12 17403178097558317005
3091708 16 9272619708487719539
43471831 8 18264204721288316251
458136 41 17908158581085722753
474 4 16951986161550388820
559249 180 18262235505033036314
573450 72 18261384555883603338
6049 1 17917716854935905152
6992083 37 18040154002643511388
7364860 26 17547848556196391137
7615 1 17822288033206090716
77492 1 17676204689214632744
81228 2 18268995448026914139
84936 182 17551790326577912216
88987 49 18410294714089231332
9709674 26 18272938206762089862
9862522 239 17678446476842912420

>  <PUBCHEM_SHAPE_MULTIPOLES>  (1) 
351.7
7.92
2.98
0.96
7.12
1
0
-1.26
0
-4.79
0
1.33
-0.07
0

>  <PUBCHEM_SHAPE_SELFOVERLAP>  (1) 
747.715

>  <PUBCHEM_SHAPE_VOLUME>  (1) 
194.6

>  <PUBCHEM_COORDINATE_TYPE>  (1) 
2
5
10

$$$$
