2004
     RDKit          3D

 18 18  0  0  1  0  0  0  0  0999 V2000
    1.3550    1.7603   -0.4090 O   0  0  0  0  0  0  0  0  0  0  0  0
    1.1713    2.0108    1.8696 O   0  0  0  0  0  0  0  0  0  0  0  0
   -4.6274   -0.1584   -1.1483 O   0  0  0  0  0  0  0  0  0  0  0  0
    3.1402   -2.5071    0.4042 O   0  0  0  0  0  0  0  0  0  0  0  0
    1.7450   -0.7939   -0.3302 N   0  0  0  0  0  0  0  0  0  0  0  0
    1.4562   -0.2075    0.9545 C   0  0  0  0  0  0  0  0  0  0  0  0
    0.2374   -0.8628    1.6209 C   0  0  0  0  0  0  0  0  0  0  0  0
   -1.0663   -0.6737    0.8785 C   0  0  0  0  0  0  0  0  0  0  0  0
    1.3166    1.3070    0.8753 C   0  0  0  0  0  0  0  0  0  0  0  0
   -1.8564    0.4256    1.1677 C   0  0  0  0  0  0  0  0  0  0  0  0
   -1.4429   -1.6048   -0.0746 C   0  0  0  0  0  0  0  0  0  0  0  0
    2.5663   -1.8986   -0.4951 C   0  0  0  0  0  0  0  0  0  0  0  0
   -3.0594    0.5992    0.4832 C   0  0  0  0  0  0  0  0  0  0  0  0
   -2.6457   -1.4311   -0.7591 C   0  0  0  0  0  0  0  0  0  0  0  0
   -3.4541   -0.3291   -0.4802 C   0  0  0  0  0  0  0  0  0  0  0  0
    1.2111    3.1748   -0.5732 C   0  0  0  0  0  0  0  0  0  0  0  0
    2.6776   -2.3197   -1.9359 C   0  0  0  0  0  0  0  0  0  0  0  0
    1.2756    3.5090   -2.0482 C   0  0  0  0  0  0  0  0  0  0  0  0
  1  9  1  0
  1 16  1  0
  2  9  2  0
  3 15  1  0
  4 12  2  0
  5  6  1  0
  5 12  1  0
  6  7  1  0
  6  9  1  0
  7  8  1  0
  8 10  2  0
  8 11  1  0
 10 13  1  0
 11 14  2  0
 12 17  1  0
 13 15  2  0
 14 15  1  0
 16 18  1  0
M  END
>  <PUBCHEM_COMPOUND_CID>  (1) 
2004

>  <PUBCHEM_CONFORMER_RMSD>  (1) 
0.8

>  <PUBCHEM_CONFORMER_DIVERSEORDER>  (1) 
1
15
98
77
109
65
38
101
5
102
72
99
49
51
83
14
73
12
64
25
13
32
47
10
37
97
18
78
33
39
100
19
69
107
17
43
56
34
108
59
88
82
104
24
4
52
95
9
27
11
2
70
44
90
66
46
91
84
94
8
68
81
76
7
16
62
29
40
103
54
48
106
75
6
74
41
30
28
93
86
92
50
31
85
35
3
105
67
87
79
20
96
45
42
60
36
80
89
22
57
58
53
23
55
21
63
26
61
71

>  <PUBCHEM_MMFF94_PARTIAL_CHARGES>  (1) 
23
1 -0.43
10 -0.15
11 -0.15
12 0.57
13 -0.15
14 -0.15
15 0.08
16 0.28
17 0.06
2 -0.57
22 0.37
23 0.15
24 0.15
25 0.15
26 0.15
3 -0.53
35 0.45
4 -0.57
5 -0.73
6 0.36
7 0.14
8 -0.14
9 0.66

>  <PUBCHEM_EFFECTIVE_ROTOR_COUNT>  (1) 
7

>  <PUBCHEM_PHARMACOPHORE_FEATURES>  (1) 
5
1 2 acceptor
1 3 donor
1 4 acceptor
1 5 donor
6 8 10 11 13 14 15 rings

>  <PUBCHEM_HEAVY_ATOM_COUNT>  (1) 
18

>  <PUBCHEM_ATOM_DEF_STEREO_COUNT>  (1) 
0

>  <PUBCHEM_ATOM_UDEF_STEREO_COUNT>  (1) 
1

>  <PUBCHEM_BOND_DEF_STEREO_COUNT>  (1) 
0

>  <PUBCHEM_BOND_UDEF_STEREO_COUNT>  (1) 
0

>  <PUBCHEM_ISOTOPIC_ATOM_COUNT>  (1) 
0

>  <PUBCHEM_COMPONENT_COUNT>  (1) 
1

>  <PUBCHEM_CACTVS_TAUTO_COUNT>  (1) 
4

>  <PUBCHEM_CONFORMER_ID>  (1) 
000007D400000001

>  <PUBCHEM_MMFF94_ENERGY>  (1) 
33.6553

>  <PUBCHEM_FEATURE_SELFOVERLAP>  (1) 
25.372

>  <PUBCHEM_SHAPE_FINGERPRINT>  (1) 
11322862 65 16619014079677022590
12617007 42 18409448046774636501
12654903 92 18342175510139899227
13681431 1 18340503209094412982
13931106 250 17405702584888226190
14004458 79 17902513684156673868
14181834 199 18273214205444267386
14250199 8 18335420214083961645
14817 1 9652425161068988120
15210252 30 17314231051139988668
15806764 133 18114473292685011703
17980427 23 17760890285492360889
18186145 218 18261660516286017915
18981168 100 17169284821520528361
20671657 53 18339074883139213891
21285901 2 17767127505718920087
21524375 3 17467066783889850696
22889148 1 17472142773956068916
23114952 82 18261955253546719461
23419403 2 17483354631658529704
23559900 14 16772385098718110170
23598291 2 18129958775178887251
26353 1 18193859071144301332
3060560 45 18264188267400740199
5262128 65 18410016533030481981
6992083 37 17914631453119121689
7364860 26 17988351671836390130
81228 2 17908159689319056674

>  <PUBCHEM_SHAPE_MULTIPOLES>  (1) 
341.97
5.57
3.58
1.77
5.15
2.71
0.17
-2.23
2.28
-4.28
1.92
-0.64
0.45
-0.08

>  <PUBCHEM_SHAPE_SELFOVERLAP>  (1) 
695.353

>  <PUBCHEM_SHAPE_VOLUME>  (1) 
198.7

>  <PUBCHEM_COORDINATE_TYPE>  (1) 
2
5
10

$$$$
