20045
     RDKit          3D

 16 16  0  0  1  0  0  0  0  0999 V2000
    1.1651    4.1437    0.6977 O   0  0  0  0  0  0  0  0  0  0  0  0
   -4.8305   -0.2837    0.5056 O   0  0  0  0  0  0  0  0  0  0  0  0
    0.5644    2.2578   -0.5622 N   0  0  0  0  0  0  0  0  0  0  0  0
   -2.6091   -0.6874   -0.1637 N   0  0  0  0  0  0  0  0  0  0  0  0
   -0.2630   -0.0767   -0.3108 C   0  0  0  0  0  0  0  0  0  0  0  0
    1.5663   -1.9261    0.2220 C   0  0  0  0  0  0  0  0  0  0  0  0
    0.0922   -1.4529    0.3218 C   0  0  0  0  0  0  0  0  0  0  0  0
    0.7864    0.9770    0.1261 C   0  0  0  0  0  0  0  0  0  0  0  0
    2.5285   -0.7830    0.6051 C   0  0  0  0  0  0  0  0  0  0  0  0
    2.2297    0.5302   -0.1130 C   0  0  0  0  0  0  0  0  0  0  0  0
   -1.6551    0.3368    0.2269 C   0  0  0  0  0  0  0  0  0  0  0  0
   -0.3938   -0.1801   -1.8444 C   0  0  0  0  0  0  0  0  0  0  0  0
    1.7654   -3.0901    1.2200 C   0  0  0  0  0  0  0  0  0  0  0  0
    1.9074   -2.4773   -1.1745 C   0  0  0  0  0  0  0  0  0  0  0  0
    0.8659    3.1945    0.0708 C   0  0  0  0  0  0  0  0  0  0  0  0
   -3.7199   -0.4826    0.1726 C   0  0  0  0  0  0  0  0  0  0  0  0
  1 15  2  0
  2 16  2  0
  3  8  1  0
  3 15  2  0
  4 11  1  0
  4 16  2  0
  5  7  1  0
  5  8  1  0
  5 11  1  0
  5 12  1  0
  6  7  1  0
  6  9  1  0
  6 13  1  0
  6 14  1  0
  8 10  1  0
  9 10  1  0
M  END
>  <PUBCHEM_COMPOUND_CID>  (1) 
20045

>  <PUBCHEM_CONFORMER_RMSD>  (1) 
0.6

>  <PUBCHEM_CONFORMER_DIVERSEORDER>  (1) 
1
112
24
187
186
110
154
156
15
193
113
117
174
107
81
121
92
103
175
185
176
189
164
104
181
66
59
25
159
120
137
128
153
84
148
98
199
171
122
151
65
109
177
184
115
70
76
169
71
62
147
89
126
194
72
190
95
33
58
146
28
188
198
191
3
155
6
180
63
54
134
27
133
123
48
160
100
74
75
79
85
7
39
178
165
91
8
90
201
101
38
105
172
93
96
136
40
69
129
145
29
78
57
152
44
170
200
94
31
46
125
158
16
192
68
99
102
30
130
173
108
5
52
51
166
97
195
142
182
87
12
183
197
86
60
149
56
50
83
20
124
157
135
82
32
143
55
4
42
43
179
14
17
77
35
162
18
21
114
111
34
22
119
37
116
61
167
139
127
13
163
106
64
88
26
73
49
140
9
196
41
132
150
80
10
161
67
36
141
131
2
23
11
53
45
47
138
144
168
118
19

>  <PUBCHEM_MMFF94_PARTIAL_CHARGES>  (1) 
8
1 -0.49
11 0.25
15 0.79
16 0.79
2 -0.49
3 -0.55
4 -0.55
8 0.25

>  <PUBCHEM_EFFECTIVE_ROTOR_COUNT>  (1) 
4.2

>  <PUBCHEM_PHARMACOPHORE_FEATURES>  (1) 
4
1 3 acceptor
1 4 acceptor
3 6 13 14 hydrophobe
6 5 6 7 8 9 10 rings

>  <PUBCHEM_HEAVY_ATOM_COUNT>  (1) 
16

>  <PUBCHEM_ATOM_DEF_STEREO_COUNT>  (1) 
0

>  <PUBCHEM_ATOM_UDEF_STEREO_COUNT>  (1) 
2

>  <PUBCHEM_BOND_DEF_STEREO_COUNT>  (1) 
0

>  <PUBCHEM_BOND_UDEF_STEREO_COUNT>  (1) 
0

>  <PUBCHEM_ISOTOPIC_ATOM_COUNT>  (1) 
0

>  <PUBCHEM_COMPONENT_COUNT>  (1) 
1

>  <PUBCHEM_CACTVS_TAUTO_COUNT>  (1) 
1

>  <PUBCHEM_CONFORMER_ID>  (1) 
00004E4D00000001

>  <PUBCHEM_MMFF94_ENERGY>  (1) 
43.4008

>  <PUBCHEM_FEATURE_SELFOVERLAP>  (1) 
20.297

>  <PUBCHEM_SHAPE_FINGERPRINT>  (1) 
1 1 18264767851329365309
116883 192 17837488544756734293
13134695 92 18337656521945192981
13140716 1 18120933073226010905
13380536 305 18267028438736003692
14817 1 11175883320949519374
15501101 241 18040716965603121199
15906896 17 17188109212022714351
16945 1 18337378443929072927
19765921 60 17698165393706833089
20511035 2 17609506273426703866
20559304 39 18411706495361355833
20645477 70 18410855495374636919
20711985 344 17762632689146798991
20871998 22 18268149751538912790
21041028 32 18266455408356980716
21524375 3 17839178863638634349
2255824 54 18340769368001539661
2334 1 17689435309720109125
23419403 2 17680111245005910412
2748010 2 18195231235585144662
298252 57 16770718522083151853
3091708 16 9503108136037082017
31174 14 18408039628620114559
4175511 71 18269569247215359497
54173680 148 17616246983852948978
7364860 26 18340210786014092557
81228 2 17617088114537779597
8272917 22 18339368556070614221
84936 182 18057045933220861217
9999458 23 18265055910717852677

>  <PUBCHEM_SHAPE_MULTIPOLES>  (1) 
307.57
4.75
3.93
1.11
6.25
5.03
0.39
-4.31
-1.04
-1.62
-0.96
-0.34
-0.38
0.03

>  <PUBCHEM_SHAPE_SELFOVERLAP>  (1) 
621.402

>  <PUBCHEM_SHAPE_VOLUME>  (1) 
176.8

>  <PUBCHEM_COORDINATE_TYPE>  (1) 
2
5
10

$$$$
