20053
     RDKit          3D

 24 25  0  0  1  0  0  0  0  0999 V2000
   -5.2585   -3.8824   -0.0247 O   0  0  0  0  0  0  0  0  0  0  0  0
   -0.8847   -0.5039   -1.1395 O   0  0  0  0  0  0  0  0  0  0  0  0
   -3.3237    2.1904    1.7614 O   0  0  0  0  0  0  0  0  0  0  0  0
    0.7322    3.6287    0.1961 O   0  0  0  0  0  0  0  0  0  0  0  0
   -2.2374    0.8566    0.1824 N   0  0  0  0  0  0  0  0  0  0  0  0
   -1.3232    2.9087    0.9224 N   0  0  0  0  0  0  0  0  0  0  0  0
   -3.2180   -0.1888    0.3483 C   0  0  0  0  0  0  0  0  0  0  0  0
   -2.5772   -1.4310    0.9730 C   0  0  0  0  0  0  0  0  0  0  0  0
   -3.8902   -0.5184   -0.9875 C   0  0  0  0  0  0  0  0  0  0  0  0
   -3.5807   -2.5713    1.1105 C   0  0  0  0  0  0  0  0  0  0  0  0
   -4.8915   -1.6598   -0.8439 C   0  0  0  0  0  0  0  0  0  0  0  0
   -4.2491   -2.8986   -0.2237 C   0  0  0  0  0  0  0  0  0  0  0  0
   -0.3379    1.8357   -1.0177 C   0  0  0  0  0  0  0  0  0  0  0  0
   -1.1469    0.6013   -0.6635 C   0  0  0  0  0  0  0  0  0  0  0  0
    1.0400    1.4588   -1.5595 C   0  0  0  0  0  0  0  0  0  0  0  0
   -2.3768    2.0000    0.9934 C   0  0  0  0  0  0  0  0  0  0  0  0
    1.9150    0.8285   -0.4764 C   0  0  0  0  0  0  0  0  0  0  0  0
   -0.2200    2.8587    0.0874 C   0  0  0  0  0  0  0  0  0  0  0  0
    3.2810    0.4220   -1.0318 C   0  0  0  0  0  0  0  0  0  0  0  0
    4.1447   -0.2396    0.0433 C   0  0  0  0  0  0  0  0  0  0  0  0
    5.5236   -0.6158   -0.5042 C   0  0  0  0  0  0  0  0  0  0  0  0
    6.3974   -1.2474    0.5820 C   0  0  0  0  0  0  0  0  0  0  0  0
    7.8006   -1.6146    0.0946 C   0  0  0  0  0  0  0  0  0  0  0  0
    8.6813   -2.2179    1.1778 C   0  0  0  0  0  0  0  0  0  0  0  0
  1 12  1  0
  2 14  2  0
  3 16  2  0
  4 18  2  0
  5  7  1  0
  5 14  1  0
  5 16  1  0
  6 16  1  0
  6 18  1  0
  7  8  1  0
  7  9  1  0
  8 10  1  0
  9 11  1  0
 10 12  1  0
 11 12  1  0
 13 14  1  0
 13 15  1  0
 13 18  1  0
 15 17  1  0
 17 19  1  0
 19 20  1  0
 20 21  1  0
 21 22  1  0
 22 23  1  0
 23 24  1  0
M  END
>  <PUBCHEM_COMPOUND_CID>  (1) 
20053

>  <PUBCHEM_CONFORMER_RMSD>  (1) 
1

>  <PUBCHEM_CONFORMER_DIVERSEORDER>  (1) 
1
2
79
117
115
114
3
47
49
104
118
36
99
35
125
59
34
111
116
124
45
109
86
67
16
106
101
30
90
72
41
70
74
82
94
50
4
108
76
69
5
27
100
18
122
93
78
57
88
110
123
83
75
39
33
23
43
63
87
96
51
119
22
112
64
98
105
73
66
77
31
38
21
62
24
28
120
85
10
55
17
13
56
12
11
26
60
107
80
54
102
89
91
8
40
81
14
103
121
6
95
20
97
32
7
92
44
29
84
37
68
113
25
42
71
65
53
52
48
46
61
19
15
58
9

>  <PUBCHEM_MMFF94_PARTIAL_CHARGES>  (1) 
14
1 -0.68
12 0.28
13 0.12
14 0.57
16 0.69
18 0.57
2 -0.57
3 -0.57
4 -0.57
42 0.37
43 0.4
5 -0.42
6 -0.49
7 0.3

>  <PUBCHEM_EFFECTIVE_ROTOR_COUNT>  (1) 
9.8

>  <PUBCHEM_PHARMACOPHORE_FEATURES>  (1) 
10
1 1 acceptor
1 1 donor
1 13 anion
1 2 acceptor
1 24 hydrophobe
1 3 acceptor
1 4 acceptor
1 6 donor
6 5 6 13 14 16 18 rings
6 7 8 9 10 11 12 rings

>  <PUBCHEM_HEAVY_ATOM_COUNT>  (1) 
24

>  <PUBCHEM_ATOM_DEF_STEREO_COUNT>  (1) 
0

>  <PUBCHEM_ATOM_UDEF_STEREO_COUNT>  (1) 
1

>  <PUBCHEM_BOND_DEF_STEREO_COUNT>  (1) 
0

>  <PUBCHEM_BOND_UDEF_STEREO_COUNT>  (1) 
0

>  <PUBCHEM_ISOTOPIC_ATOM_COUNT>  (1) 
0

>  <PUBCHEM_COMPONENT_COUNT>  (1) 
1

>  <PUBCHEM_CACTVS_TAUTO_COUNT>  (1) 
3

>  <PUBCHEM_CONFORMER_ID>  (1) 
00004E5500000001

>  <PUBCHEM_MMFF94_ENERGY>  (1) 
35.1869

>  <PUBCHEM_FEATURE_SELFOVERLAP>  (1) 
50.746

>  <PUBCHEM_SHAPE_FINGERPRINT>  (1) 
11273773 46 18113615716623983771
11315181 36 18413105035771481412
12760667 363 18334575741751141798
12895837 130 10015571840348746890
13140716 1 18059032677955295505
13540713 5 18265637517925623693
13631057 29 18333726893637658754
13828863 39 10519719881572070467
14344974 204 18412263905520167926
14844126 61 18273214184022288731
14866123 147 18411427194149559937
15163728 17 9007070066731302536
15188451 53 18412539921064846318
15342168 16 8429504258498321163
17780758 139 18339923719396150960
21033648 29 16343437115028672612
21315759 148 17917713449533462478
22956985 138 18267862964315891936
23389318 12 17748830731545246046
23522609 53 18044970933964857484
23559900 14 18190455163786670197
23569943 247 18192715764474843907
270888 7 10159711187256888054
2838139 119 10159684799668729398
312425 54 18129386991073954058
3504750 166 17826787033466597958
484985 159 18334850576428656351
5104073 3 18059584611106385312
559249 180 18334012766127799381
57527585 103 17315107465102728603
5924683 9 18341052938764132596
7970288 3 18410292557757887518
9953998 17 18200592493680892776

>  <PUBCHEM_SHAPE_MULTIPOLES>  (1) 
460.47
17.03
4.14
1.31
45.78
0.05
0.08
-21.53
3.58
-4.56
1.02
-0.45
0.31
-2

>  <PUBCHEM_SHAPE_SELFOVERLAP>  (1) 
926.967

>  <PUBCHEM_SHAPE_VOLUME>  (1) 
265.7

>  <PUBCHEM_COORDINATE_TYPE>  (1) 
2
5
10

$$$$
