20064
     RDKit          3D

  7  6  0  0  0  0  0  0  0  0999 V2000
   -0.6808    0.4533    0.0001 O   0  0  0  0  0  0  0  0  0  0  0  0
    0.6702   -1.4039    0.0000 O   0  0  0  0  0  0  0  0  0  0  0  0
    1.5431    0.7459    0.0001 N   0  0  0  0  0  0  0  0  0  0  0  0
    2.8539    0.3181   -0.0003 N   0  0  0  0  0  0  0  0  0  0  0  0
   -1.8347   -0.3948   -0.0001 C   0  0  0  0  0  0  0  0  0  0  0  0
   -3.0797    0.4663   -0.0001 C   0  0  0  0  0  0  0  0  0  0  0  0
    0.5280   -0.1849    0.0002 C   0  0  0  0  0  0  0  0  0  0  0  0
  1  5  1  0
  1  7  1  0
  2  7  2  0
  3  4  1  0
  3  7  1  0
  5  6  1  0
M  END
>  <PUBCHEM_COMPOUND_CID>  (1) 
20064

>  <PUBCHEM_CONFORMER_RMSD>  (1) 
0.4

>  <PUBCHEM_CONFORMER_DIVERSEORDER>  (1) 
1
8
9
4
10
11
5
2
3
6
7

>  <PUBCHEM_MMFF94_PARTIAL_CHARGES>  (1) 
9
1 -0.43
13 0.37
14 0.36
15 0.36
2 -0.57
3 -0.42
4 -0.73
5 0.28
7 0.78

>  <PUBCHEM_EFFECTIVE_ROTOR_COUNT>  (1) 
3

>  <PUBCHEM_PHARMACOPHORE_FEATURES>  (1) 
3
1 2 acceptor
1 3 donor
1 4 donor

>  <PUBCHEM_HEAVY_ATOM_COUNT>  (1) 
7

>  <PUBCHEM_ATOM_DEF_STEREO_COUNT>  (1) 
0

>  <PUBCHEM_ATOM_UDEF_STEREO_COUNT>  (1) 
0

>  <PUBCHEM_BOND_DEF_STEREO_COUNT>  (1) 
0

>  <PUBCHEM_BOND_UDEF_STEREO_COUNT>  (1) 
0

>  <PUBCHEM_ISOTOPIC_ATOM_COUNT>  (1) 
0

>  <PUBCHEM_COMPONENT_COUNT>  (1) 
1

>  <PUBCHEM_CACTVS_TAUTO_COUNT>  (1) 
2

>  <PUBCHEM_CONFORMER_ID>  (1) 
00004E6000000001

>  <PUBCHEM_MMFF94_ENERGY>  (1) 
4.5709

>  <PUBCHEM_FEATURE_SELFOVERLAP>  (1) 
16.738

>  <PUBCHEM_SHAPE_FINGERPRINT>  (1) 
14325111 11 18410856598442227264
14390081 3 18272649052178105817
20096714 4 18340485663715217256
21040471 1 18338516451327604294
29004967 10 18113907043716750241
5460574 1 9295290538698667105

>  <PUBCHEM_SHAPE_MULTIPOLES>  (1) 
122.36
4.19
0.97
0.56
0.77
0.26
0
-0.99
0
-0.15
0
0.07
0
0

>  <PUBCHEM_SHAPE_SELFOVERLAP>  (1) 
220.427

>  <PUBCHEM_SHAPE_VOLUME>  (1) 
79

>  <PUBCHEM_COORDINATE_TYPE>  (1) 
2
5
10

$$$$
