20068
     RDKit          3D

 26 29  0  0  1  0  0  0  0  0999 V2000
    2.3848    1.6701    1.7852 O   0  0  0  0  0  0  0  0  0  0  0  0
    1.2970   -1.8240   -0.4695 O   0  0  0  0  0  0  0  0  0  0  0  0
   -0.9051    2.5561   -1.8392 O   0  0  0  0  0  0  0  0  0  0  0  0
   -1.8328   -1.0384    2.0132 O   0  0  0  0  0  0  0  0  0  0  0  0
    1.6438   -4.0974   -0.3623 O   0  0  0  0  0  0  0  0  0  0  0  0
    4.2886    1.1755   -0.3937 N   0  0  0  0  0  0  0  0  0  0  0  0
    1.2784    1.3895   -0.3133 N   0  0  0  0  0  0  0  0  0  0  0  0
   -4.0056   -0.1248    0.6737 N   0  0  0  0  0  0  0  0  0  0  0  0
    1.5327   -3.0065   -2.3834 N   0  0  0  0  0  0  0  0  0  0  0  0
    3.2818    0.2298    0.0895 C   0  0  0  0  0  0  0  0  0  0  0  0
    2.0427    0.7254    0.7715 C   0  0  0  0  0  0  0  0  0  0  0  0
    3.2723    0.7170   -1.3238 C   0  0  0  0  0  0  0  0  0  0  0  0
    2.0280    1.5215   -1.5588 C   0  0  0  0  0  0  0  0  0  0  0  0
    1.0120   -0.3030    1.3505 C   0  0  0  0  0  0  0  0  0  0  0  0
   -0.0632    1.1157   -0.1821 C   0  0  0  0  0  0  0  0  0  0  0  0
   -0.2896    0.2056    0.7628 C   0  0  0  0  0  0  0  0  0  0  0  0
    1.2470   -1.7560    0.9433 C   0  0  0  0  0  0  0  0  0  0  0  0
   -1.1364    1.7170   -0.9757 C   0  0  0  0  0  0  0  0  0  0  0  0
   -1.6427   -0.2307    1.1092 C   0  0  0  0  0  0  0  0  0  0  0  0
    2.9652    1.0308    2.9113 C   0  0  0  0  0  0  0  0  0  0  0  0
   -2.5307    1.2564   -0.6625 C   0  0  0  0  0  0  0  0  0  0  0  0
   -2.7753    0.3513    0.3106 C   0  0  0  0  0  0  0  0  0  0  0  0
   -3.5920    1.8956   -1.5184 C   0  0  0  0  0  0  0  0  0  0  0  0
    1.5034   -3.0666   -1.0121 C   0  0  0  0  0  0  0  0  0  0  0  0
   -4.8643   -0.8534   -0.2201 C   0  0  0  0  0  0  0  0  0  0  0  0
   -6.1399   -1.2567    0.4942 C   0  0  0  0  0  0  0  0  0  0  0  0
  1 11  1  0
  1 20  1  0
  2 17  1  0
  2 24  1  0
  3 18  2  0
  4 19  2  0
  5 24  2  0
  6 10  1  0
  6 12  1  0
  7 11  1  0
  7 13  1  0
  7 15  1  0
  8 22  1  0
  8 25  1  0
  9 24  1  0
 10 11  1  0
 10 12  1  0
 11 14  1  0
 12 13  1  0
 14 16  1  0
 14 17  1  0
 15 16  2  0
 15 18  1  0
 16 19  1  0
 18 21  1  0
 19 22  1  0
 21 22  2  0
 21 23  1  0
 25 26  1  0
M  END
>  <PUBCHEM_COMPOUND_CID>  (1) 
20068

>  <PUBCHEM_CONFORMER_RMSD>  (1) 
0.8

>  <PUBCHEM_CONFORMER_DIVERSEORDER>  (1) 
1
15
16
11
18
3
19
13
14
5
6
12
10
17
7
4
8
9
2

>  <PUBCHEM_MMFF94_PARTIAL_CHARGES>  (1) 
31
1 -0.56
10 -0.04
11 0.74
12 -0.04
13 0.46
14 0.14
15 0.11
16 -0.12
17 0.28
18 0.54
19 0.54
2 -0.43
20 0.28
21 -0.12
22 0.11
23 0.14
24 0.78
25 0.37
27 0.1
28 0.1
29 0.36
3 -0.57
4 -0.57
41 0.4
44 0.37
45 0.37
5 -0.57
6 -0.68
7 -0.84
8 -0.87
9 -0.8

>  <PUBCHEM_EFFECTIVE_ROTOR_COUNT>  (1) 
6.6

>  <PUBCHEM_PHARMACOPHORE_FEATURES>  (1) 
13
1 1 acceptor
1 3 acceptor
1 4 acceptor
1 5 acceptor
1 6 cation
1 6 donor
1 7 cation
1 8 cation
1 8 donor
1 9 donor
5 7 11 14 15 16 rings
6 15 16 18 19 21 22 rings
6 6 7 10 11 12 13 rings

>  <PUBCHEM_HEAVY_ATOM_COUNT>  (1) 
26

>  <PUBCHEM_ATOM_DEF_STEREO_COUNT>  (1) 
2

>  <PUBCHEM_ATOM_UDEF_STEREO_COUNT>  (1) 
2

>  <PUBCHEM_BOND_DEF_STEREO_COUNT>  (1) 
0

>  <PUBCHEM_BOND_UDEF_STEREO_COUNT>  (1) 
0

>  <PUBCHEM_ISOTOPIC_ATOM_COUNT>  (1) 
0

>  <PUBCHEM_COMPONENT_COUNT>  (1) 
1

>  <PUBCHEM_CACTVS_TAUTO_COUNT>  (1) 
36

>  <PUBCHEM_CONFORMER_ID>  (1) 
00004E6400000001

>  <PUBCHEM_MMFF94_ENERGY>  (1) 
93.4752

>  <PUBCHEM_FEATURE_SELFOVERLAP>  (1) 
66.14

>  <PUBCHEM_SHAPE_FINGERPRINT>  (1) 
10906281 52 17822874059902982477
11963148 33 18188488115884155787
12553582 1 18189045559988916749
12778500 126 17416713288055510411
12788726 201 17894343389735297601
13140716 1 17389681996360657153
13149001 5 17543061290879563980
13533116 47 18058449816812265529
13583140 156 17561080268457511041
14863182 85 18410579525933927023
15219462 58 17916574324594406833
15664445 248 18188789321866069773
16945 1 17822558495475379672
17349148 13 17895183437755735601
17980427 23 17751610287269199468
18681886 176 18188208809960296556
20905425 154 18041834000576099928
21285901 2 18186799176187189599
22182313 1 18041569023080469613
22956985 138 18191014613089441026
23114952 82 18118974593893053342
23419403 2 17184140035793131112
23557571 272 18260547788832823489
23559900 14 17970897860995542778
23566358 2 18040995103759371805
2748010 2 18041560213917929249
3052486 1 18050842514017474495
3060560 45 18337678636415347124
34934 24 17533782873420801204
4280585 95 17757268176695669902
4340502 62 17560514139922114659
6669772 16 17845356886958570274
7399639 24 18269821138389147097
81228 2 17550088699653854210
84936 31 17987498343523449122
9709674 26 18113626651135114627

>  <PUBCHEM_SHAPE_MULTIPOLES>  (1) 
485.8
8
3.13
2.09
11.02
3.11
0.51
0.36
0.6
-1.36
-2.02
-1.54
-0.06
1.75

>  <PUBCHEM_SHAPE_SELFOVERLAP>  (1) 
1053.343

>  <PUBCHEM_SHAPE_VOLUME>  (1) 
267.3

>  <PUBCHEM_COORDINATE_TYPE>  (1) 
2
5
10

$$$$
