20065
     RDKit          3D

  9  8  0  0  1  0  0  0  0  0999 V2000
   -0.8151   -2.0905   -0.3189 Cl  0  0  0  0  0  0  0  0  0  0  0  0
    1.0791    0.1294   -1.3787 O   0  0  0  0  0  0  0  0  0  0  0  0
   -1.5743    1.1541   -0.9145 O   0  0  0  0  0  0  0  0  0  0  0  0
    1.8920    0.0638    0.7930 N   0  0  0  0  0  0  0  0  0  0  0  0
   -0.4239   -0.5085    0.3970 C   0  0  0  0  0  0  0  0  0  0  0  0
    0.9122   -0.0763   -0.1775 C   0  0  0  0  0  0  0  0  0  0  0  0
   -1.5726    0.4270    0.0789 C   0  0  0  0  0  0  0  0  0  0  0  0
   -2.7400    0.4252    1.0345 C   0  0  0  0  0  0  0  0  0  0  0  0
    3.2425    0.4759    0.4862 C   0  0  0  0  0  0  0  0  0  0  0  0
  1  5  1  0
  2  6  2  0
  3  7  2  0
  4  6  1  0
  4  9  1  0
  5  6  1  0
  5  7  1  0
  7  8  1  0
M  END
>  <PUBCHEM_COMPOUND_CID>  (1) 
20065

>  <PUBCHEM_CONFORMER_RMSD>  (1) 
0.6

>  <PUBCHEM_CONFORMER_DIVERSEORDER>  (1) 
1
27
24
26
30
23
16
9
15
10
28
2
25
8
5
18
6
29
20
21
11
4
14
17
12
22
7
19
13
3

>  <PUBCHEM_MMFF94_PARTIAL_CHARGES>  (1) 
10
1 -0.29
11 0.37
2 -0.57
3 -0.57
4 -0.73
5 0.41
6 0.57
7 0.45
8 0.06
9 0.3

>  <PUBCHEM_EFFECTIVE_ROTOR_COUNT>  (1) 
3

>  <PUBCHEM_PHARMACOPHORE_FEATURES>  (1) 
4
1 2 acceptor
1 3 acceptor
1 4 donor
1 5 anion

>  <PUBCHEM_HEAVY_ATOM_COUNT>  (1) 
9

>  <PUBCHEM_ATOM_DEF_STEREO_COUNT>  (1) 
0

>  <PUBCHEM_ATOM_UDEF_STEREO_COUNT>  (1) 
1

>  <PUBCHEM_BOND_DEF_STEREO_COUNT>  (1) 
0

>  <PUBCHEM_BOND_UDEF_STEREO_COUNT>  (1) 
0

>  <PUBCHEM_ISOTOPIC_ATOM_COUNT>  (1) 
0

>  <PUBCHEM_COMPONENT_COUNT>  (1) 
1

>  <PUBCHEM_CACTVS_TAUTO_COUNT>  (1) 
8

>  <PUBCHEM_CONFORMER_ID>  (1) 
00004E6100000001

>  <PUBCHEM_MMFF94_ENERGY>  (1) 
8.6965

>  <PUBCHEM_FEATURE_SELFOVERLAP>  (1) 
20.299

>  <PUBCHEM_SHAPE_FINGERPRINT>  (1) 
10857977 72 18115046159454299161
12897270 3 14476953480491091192
12932764 1 18261103097991868288
14390081 3 16415757518131124552
20645464 45 18202568375662079530
20653085 51 15769774692969293152
21040471 1 18340500992601345663
21930827 45 18057906773003840375
23211744 41 17988081084617566173
23235685 24 17917992771681583360
5084963 1 18042704813727185339

>  <PUBCHEM_SHAPE_MULTIPOLES>  (1) 
170.37
3.92
1.39
1.07
2.05
0.99
0.21
-1.52
-1.1
-0.72
0.05
-0.07
-0.17
0.09

>  <PUBCHEM_SHAPE_SELFOVERLAP>  (1) 
311.869

>  <PUBCHEM_SHAPE_VOLUME>  (1) 
109

>  <PUBCHEM_COORDINATE_TYPE>  (1) 
2
5
10

$$$$
