20069
     RDKit          3D

 25 28  0  0  1  0  0  0  0  0999 V2000
    1.7531    1.9594    1.7861 O   0  0  0  0  0  0  0  0  0  0  0  0
    1.4217   -1.7106   -0.4267 O   0  0  0  0  0  0  0  0  0  0  0  0
   -1.5116    2.1557   -1.9620 O   0  0  0  0  0  0  0  0  0  0  0  0
   -1.8873   -1.4903    1.9350 O   0  0  0  0  0  0  0  0  0  0  0  0
    2.1845   -3.8763   -0.2591 O   0  0  0  0  0  0  0  0  0  0  0  0
    3.7932    1.7989   -0.3184 N   0  0  0  0  0  0  0  0  0  0  0  0
    0.7954    1.4440   -0.3408 N   0  0  0  0  0  0  0  0  0  0  0  0
   -4.1431   -1.0222    0.5060 N   0  0  0  0  0  0  0  0  0  0  0  0
    1.9439   -2.8566   -2.3058 N   0  0  0  0  0  0  0  0  0  0  0  0
    2.9649    0.6880    0.1521 C   0  0  0  0  0  0  0  0  0  0  0  0
    1.6309    0.9520    0.7825 C   0  0  0  0  0  0  0  0  0  0  0  0
    2.9152    1.1433   -1.2709 C   0  0  0  0  0  0  0  0  0  0  0  0
    1.5514    1.6957   -1.5637 C   0  0  0  0  0  0  0  0  0  0  0  0
    0.7912   -0.2431    1.3497 C   0  0  0  0  0  0  0  0  0  0  0  0
   -0.4749    0.9247   -0.2475 C   0  0  0  0  0  0  0  0  0  0  0  0
   -0.5607    0.0026    0.7090 C   0  0  0  0  0  0  0  0  0  0  0  0
    1.3089   -1.6319    0.9819 C   0  0  0  0  0  0  0  0  0  0  0  0
   -1.6125    1.3013   -1.0885 C   0  0  0  0  0  0  0  0  0  0  0  0
   -1.8195   -0.6751    1.0205 C   0  0  0  0  0  0  0  0  0  0  0  0
    2.4020    1.4578    2.9441 C   0  0  0  0  0  0  0  0  0  0  0  0
   -2.9061    0.5914   -0.8111 C   0  0  0  0  0  0  0  0  0  0  0  0
   -3.0116   -0.3287    0.1729 C   0  0  0  0  0  0  0  0  0  0  0  0
   -4.0368    1.0065   -1.7147 C   0  0  0  0  0  0  0  0  0  0  0  0
    1.8769   -2.9003   -0.9352 C   0  0  0  0  0  0  0  0  0  0  0  0
   -5.3692   -0.3860    0.9046 C   0  0  0  0  0  0  0  0  0  0  0  0
  1 11  1  0
  1 20  1  0
  2 17  1  0
  2 24  1  0
  3 18  2  0
  4 19  2  0
  5 24  2  0
  6 10  1  0
  6 12  1  0
  7 11  1  0
  7 13  1  0
  7 15  1  0
  8 22  1  0
  8 25  1  0
  9 24  1  0
 10 11  1  0
 10 12  1  0
 11 14  1  0
 12 13  1  0
 14 16  1  0
 14 17  1  0
 15 16  2  0
 15 18  1  0
 16 19  1  0
 18 21  1  0
 19 22  1  0
 21 22  2  0
 21 23  1  0
M  END
>  <PUBCHEM_COMPOUND_CID>  (1) 
20069

>  <PUBCHEM_CONFORMER_RMSD>  (1) 
0.8

>  <PUBCHEM_CONFORMER_DIVERSEORDER>  (1) 
1
7
5
4
3
6
2

>  <PUBCHEM_MMFF94_PARTIAL_CHARGES>  (1) 
31
1 -0.56
10 -0.04
11 0.74
12 -0.04
13 0.46
14 0.14
15 0.11
16 -0.12
17 0.28
18 0.54
19 0.54
2 -0.43
20 0.28
21 -0.12
22 0.11
23 0.14
24 0.78
25 0.37
26 0.1
27 0.1
28 0.36
3 -0.57
4 -0.57
40 0.4
44 0.37
45 0.37
5 -0.57
6 -0.68
7 -0.84
8 -0.87
9 -0.8

>  <PUBCHEM_EFFECTIVE_ROTOR_COUNT>  (1) 
5.6

>  <PUBCHEM_PHARMACOPHORE_FEATURES>  (1) 
13
1 1 acceptor
1 3 acceptor
1 4 acceptor
1 5 acceptor
1 6 cation
1 6 donor
1 7 cation
1 8 cation
1 8 donor
1 9 donor
5 7 11 14 15 16 rings
6 15 16 18 19 21 22 rings
6 6 7 10 11 12 13 rings

>  <PUBCHEM_HEAVY_ATOM_COUNT>  (1) 
25

>  <PUBCHEM_ATOM_DEF_STEREO_COUNT>  (1) 
2

>  <PUBCHEM_ATOM_UDEF_STEREO_COUNT>  (1) 
2

>  <PUBCHEM_BOND_DEF_STEREO_COUNT>  (1) 
0

>  <PUBCHEM_BOND_UDEF_STEREO_COUNT>  (1) 
0

>  <PUBCHEM_ISOTOPIC_ATOM_COUNT>  (1) 
0

>  <PUBCHEM_COMPONENT_COUNT>  (1) 
1

>  <PUBCHEM_CACTVS_TAUTO_COUNT>  (1) 
36

>  <PUBCHEM_CONFORMER_ID>  (1) 
00004E6500000001

>  <PUBCHEM_MMFF94_ENERGY>  (1) 
95.1961

>  <PUBCHEM_FEATURE_SELFOVERLAP>  (1) 
66.14

>  <PUBCHEM_SHAPE_FINGERPRINT>  (1) 
11582403 64 16316315440300447356
13140716 1 17100321348109635449
13149001 5 17830726556688173045
13533116 47 18202006504563367747
13583140 156 17632306700592641539
13681431 1 18056476141320791662
14022347 108 17168440289648757097
15219462 58 17988096551200955795
15664445 248 17822875163551374869
16945 1 18053697859862376720
17980427 23 17608050399593700460
17980427 26 17560791186650574968
1813 80 16987165902967948478
20600515 1 17543045915308068770
20691752 17 17241056405338991241
20715895 44 16519302849573757373
20905425 154 17895183377409973996
22182313 1 18040718039793071703
23114952 82 18262525788180341814
23419403 2 17401718040906442312
23557571 272 17894917317255258245
23559900 14 17896302637012404170
2748010 2 17970050176601957917
34934 24 17317047167091796868
394222 165 16342267324829654162
4340502 62 17488175092593399819
474 4 14346363471074876260
495365 180 18129073724216646433
5104073 3 17241031172348995361
5845 1 9415610036086557698
633830 44 17345755333887923553
84936 31 18059278907717666090

>  <PUBCHEM_SHAPE_MULTIPOLES>  (1) 
465.22
6.84
3.01
2.2
8
2.91
0.52
-0.51
0.09
-2.9
-1.36
-0.88
-0.34
2.05

>  <PUBCHEM_SHAPE_SELFOVERLAP>  (1) 
1015.614

>  <PUBCHEM_SHAPE_VOLUME>  (1) 
254.3

>  <PUBCHEM_COORDINATE_TYPE>  (1) 
2
5
10

$$$$
