2006
     RDKit          3D

 17 18  0  0  0  0  0  0  0  0999 V2000
    3.6082    1.2443    0.0008 O   0  0  0  0  0  0  0  0  0  0  0  0
    5.4691   -0.5220    0.0003 O   0  0  0  0  0  0  0  0  0  0  0  0
    3.9230   -2.2045   -0.0023 O   0  0  0  0  0  0  0  0  0  0  0  0
    1.8950   -0.3824    0.0007 N   0  0  0  0  0  0  0  0  0  0  0  0
   -4.1398    0.4269   -0.0016 N   0  0  0  0  0  0  0  0  0  0  0  0
   -3.0770   -1.5726    0.0009 N   0  0  0  0  0  0  0  0  0  0  0  0
   -4.9644   -0.6299    0.0002 N   0  0  0  0  0  0  0  0  0  0  0  0
   -4.3783   -1.8352    0.0014 N   0  0  0  0  0  0  0  0  0  0  0  0
   -1.7000    0.4540   -0.0005 C   0  0  0  0  0  0  0  0  0  0  0  0
    0.7142    0.3607    0.0011 C   0  0  0  0  0  0  0  0  0  0  0  0
   -0.5198   -0.2896    0.0005 C   0  0  0  0  0  0  0  0  0  0  0  0
   -1.6461    1.8478   -0.0009 C   0  0  0  0  0  0  0  0  0  0  0  0
    0.7680    1.7545    0.0007 C   0  0  0  0  0  0  0  0  0  0  0  0
   -0.4121    2.4981   -0.0003 C   0  0  0  0  0  0  0  0  0  0  0  0
   -2.9706   -0.2151   -0.0009 C   0  0  0  0  0  0  0  0  0  0  0  0
    3.2044    0.0928    0.0002 C   0  0  0  0  0  0  0  0  0  0  0  0
    4.2262   -1.0280   -0.0002 C   0  0  0  0  0  0  0  0  0  0  0  0
  1 16  2  0
  2 17  1  0
  3 17  2  0
  4 10  1  0
  4 16  1  0
  5  7  1  0
  5 15  2  0
  6  8  2  0
  6 15  1  0
  7  8  1  0
  9 11  1  0
  9 12  2  0
  9 15  1  0
 10 11  2  0
 10 13  1  0
 12 14  1  0
 13 14  2  0
 16 17  1  0
M  END
>  <PUBCHEM_COMPOUND_CID>  (1) 
2006

>  <PUBCHEM_CONFORMER_RMSD>  (1) 
0.6

>  <PUBCHEM_CONFORMER_DIVERSEORDER>  (1) 
1
3
2
4

>  <PUBCHEM_MMFF94_PARTIAL_CHARGES>  (1) 
24
1 -0.57
10 0.12
11 -0.15
12 -0.15
13 -0.15
14 -0.15
15 0.46
16 0.63
17 0.72
18 0.15
19 0.15
2 -0.65
20 0.15
21 0.15
22 0.37
23 0.27
24 0.5
3 -0.57
4 -0.55
5 -0.71
6 -0.23
7 0.57
8 -0.42
9 0.05

>  <PUBCHEM_EFFECTIVE_ROTOR_COUNT>  (1) 
4

>  <PUBCHEM_PHARMACOPHORE_FEATURES>  (1) 
8
1 1 acceptor
1 2 acceptor
1 3 acceptor
1 4 donor
3 2 3 17 anion
3 5 6 15 cation
5 5 6 7 8 15 rings
6 9 10 11 12 13 14 rings

>  <PUBCHEM_HEAVY_ATOM_COUNT>  (1) 
17

>  <PUBCHEM_ATOM_DEF_STEREO_COUNT>  (1) 
0

>  <PUBCHEM_ATOM_UDEF_STEREO_COUNT>  (1) 
0

>  <PUBCHEM_BOND_DEF_STEREO_COUNT>  (1) 
0

>  <PUBCHEM_BOND_UDEF_STEREO_COUNT>  (1) 
0

>  <PUBCHEM_ISOTOPIC_ATOM_COUNT>  (1) 
0

>  <PUBCHEM_COMPONENT_COUNT>  (1) 
1

>  <PUBCHEM_CACTVS_TAUTO_COUNT>  (1) 
4

>  <PUBCHEM_CONFORMER_ID>  (1) 
000007D600000001

>  <PUBCHEM_MMFF94_ENERGY>  (1) 
35.8827

>  <PUBCHEM_FEATURE_SELFOVERLAP>  (1) 
40.663

>  <PUBCHEM_SHAPE_FINGERPRINT>  (1) 
11045515 52 18040152902921400405
11046707 91 18411138021842511121
11543360 7 15575002805041416931
11806522 49 18336265725324399276
12032990 46 18410856572588202857
12916748 109 9079116682758578855
12916754 54 18341054025791791704
13288520 33 18411702071275768837
13690532 89 18410575102096155683
13740256 8 18337675316453275355
13862211 1 18411132550033460239
14115302 16 17676497184513162991
14252887 29 17703799102398478622
15196674 1 18410574006774208037
15352361 1 18410573998099935879
17492 89 18267021653110266806
17804303 29 18343866619284914049
17834072 33 18333455352688026444
18186145 218 14129066936310927532
19141452 34 18273215313825612463
200 152 18333730208465901986
20261772 1 17917988395363369886
20281475 54 18411142454291224865
20374829 77 18335698334242749850
204376 136 9295289452072116709
20645477 70 18261953049991021994
20671657 53 18410298042409629157
20871998 22 18411416249887574321
21267235 1 18410301310562970362
221490 88 18046070616604724163
22485316 2 18411417332150332341
2297311 6 18201449043224469444
23402539 116 18410288094964243142
23403322 49 18409166601973531279
23557571 272 18201444614807485388
23559900 14 18410287021650089712
2871803 45 18261388923401366346
3004659 81 18186237329618285406
314194 84 18340770467645373971
335352 9 18410573973232186581
4214541 1 18338797818845898912
465052 167 18271250511863133919
5104073 3 18342175565816245313
7364860 26 18124877017114203737
83771 10 18411981377405011553
8809292 202 18260832643827555059
9709674 26 18337117769927798346

>  <PUBCHEM_SHAPE_MULTIPOLES>  (1) 
307.34
10.07
2.17
0.57
3.18
0.46
0
-6.2
0
-0.23
0
0
0.03
0

>  <PUBCHEM_SHAPE_SELFOVERLAP>  (1) 
664.392

>  <PUBCHEM_SHAPE_VOLUME>  (1) 
168.1

>  <PUBCHEM_COORDINATE_TYPE>  (1) 
2
5
10

$$$$
