20063
     RDKit          3D

  6  5  0  0  0  0  0  0  0  0999 V2000
    0.7133   -0.7278    0.0004 S   0  0  0  0  0  0  0  0  0  0  0  0
   -2.0271   -0.5059   -0.0009 C   0  0  0  0  0  0  0  0  0  0  0  0
   -0.7568    0.3371   -0.0014 C   0  0  0  0  0  0  0  0  0  0  0  0
    1.9751    0.5663   -0.0005 C   0  0  0  0  0  0  0  0  0  0  0  0
   -3.2686    0.3741    0.0016 C   0  0  0  0  0  0  0  0  0  0  0  0
    3.3640   -0.0437    0.0008 C   0  0  0  0  0  0  0  0  0  0  0  0
  1  3  1  0
  1  4  1  0
  2  3  1  0
  2  5  1  0
  4  6  1  0
M  END
>  <PUBCHEM_COMPOUND_CID>  (1) 
20063

>  <PUBCHEM_CONFORMER_RMSD>  (1) 
0.4

>  <PUBCHEM_CONFORMER_DIVERSEORDER>  (1) 
1
16
17
8
9
2
14
12
10
7
15
13
11
6
3
5
4

>  <PUBCHEM_MMFF94_PARTIAL_CHARGES>  (1) 
3
1 -0.46
3 0.23
4 0.23

>  <PUBCHEM_EFFECTIVE_ROTOR_COUNT>  (1) 
3

>  <PUBCHEM_PHARMACOPHORE_FEATURES>  (1) 
3
1 5 hydrophobe
1 6 hydrophobe
4 1 2 3 4 hydrophobe

>  <PUBCHEM_HEAVY_ATOM_COUNT>  (1) 
6

>  <PUBCHEM_ATOM_DEF_STEREO_COUNT>  (1) 
0

>  <PUBCHEM_ATOM_UDEF_STEREO_COUNT>  (1) 
0

>  <PUBCHEM_BOND_DEF_STEREO_COUNT>  (1) 
0

>  <PUBCHEM_BOND_UDEF_STEREO_COUNT>  (1) 
0

>  <PUBCHEM_ISOTOPIC_ATOM_COUNT>  (1) 
0

>  <PUBCHEM_COMPONENT_COUNT>  (1) 
1

>  <PUBCHEM_CACTVS_TAUTO_COUNT>  (1) 
1

>  <PUBCHEM_CONFORMER_ID>  (1) 
00004E5F00000001

>  <PUBCHEM_MMFF94_ENERGY>  (1) 
1.3372

>  <PUBCHEM_FEATURE_SELFOVERLAP>  (1) 
15.223

>  <PUBCHEM_SHAPE_FINGERPRINT>  (1) 
11062470 55 13406793324187277007
12932764 1 15574986316693557610
14325111 11 18410855490372371874
14390081 3 18343580741924423089
16714656 1 18273494589240782919
5460574 1 9295291637888476546

>  <PUBCHEM_SHAPE_MULTIPOLES>  (1) 
127.33
5.67
0.87
0.63
0.11
0.07
0
-0.65
0
0.01
0
0.01
0.01
0

>  <PUBCHEM_SHAPE_SELFOVERLAP>  (1) 
201.841

>  <PUBCHEM_SHAPE_VOLUME>  (1) 
90.2

>  <PUBCHEM_COORDINATE_TYPE>  (1) 
2
5
10

$$$$
