20074
     RDKit          3D

 21 21  0  0  0  0  0  0  0  0999 V2000
    2.2860    1.7302    0.0595 O   0  0  0  0  0  0  0  0  0  0  0  0
   -2.3649    0.3167    0.2167 O   0  0  0  0  0  0  0  0  0  0  0  0
    1.5098    2.1136   -2.0805 O   0  0  0  0  0  0  0  0  0  0  0  0
   -3.2792    1.5595    1.9313 O   0  0  0  0  0  0  0  0  0  0  0  0
   -0.4610    3.2916    0.2820 C   0  0  0  0  0  0  0  0  0  0  0  0
   -1.4436    2.8237   -0.7986 C   0  0  0  0  0  0  0  0  0  0  0  0
    0.9176    3.6165   -0.2873 C   0  0  0  0  0  0  0  0  0  0  0  0
   -2.8433    2.5663   -0.2397 C   0  0  0  0  0  0  0  0  0  0  0  0
    3.6960   -0.0752    0.7837 C   0  0  0  0  0  0  0  0  0  0  0  0
    2.9762    0.5625   -0.3961 C   0  0  0  0  0  0  0  0  0  0  0  0
    1.5906    2.4109   -0.8955 C   0  0  0  0  0  0  0  0  0  0  0  0
    4.4693   -1.3223    0.3648 C   0  0  0  0  0  0  0  0  0  0  0  0
   -2.8786    1.4498    0.7806 C   0  0  0  0  0  0  0  0  0  0  0  0
    5.2216   -1.9314    1.5372 C   0  0  0  0  0  0  0  0  0  0  0  0
   -2.3040   -0.8261    1.0759 C   0  0  0  0  0  0  0  0  0  0  0  0
   -1.7210   -1.9805    0.3150 C   0  0  0  0  0  0  0  0  0  0  0  0
   -2.5614   -2.8356   -0.3892 C   0  0  0  0  0  0  0  0  0  0  0  0
   -0.3456   -2.1845    0.3203 C   0  0  0  0  0  0  0  0  0  0  0  0
   -2.0196   -3.9087   -1.0968 C   0  0  0  0  0  0  0  0  0  0  0  0
    0.1961   -3.2576   -0.3874 C   0  0  0  0  0  0  0  0  0  0  0  0
   -0.6410   -4.1195   -1.0960 C   0  0  0  0  0  0  0  0  0  0  0  0
  1 10  1  0
  1 11  1  0
  2 13  1  0
  2 15  1  0
  3 11  2  0
  4 13  2  0
  5  6  1  0
  5  7  1  0
  6  8  1  0
  7 11  1  0
  8 13  1  0
  9 10  1  0
  9 12  1  0
 12 14  1  0
 15 16  1  0
 16 17  2  0
 16 18  1  0
 17 19  1  0
 18 20  2  0
 19 21  2  0
 20 21  1  0
M  END
>  <PUBCHEM_COMPOUND_CID>  (1) 
20074

>  <PUBCHEM_CONFORMER_RMSD>  (1) 
1

>  <PUBCHEM_CONFORMER_DIVERSEORDER>  (1) 
1
188
371
374
187
53
127
311
348
324
82
160
7
143
368
273
200
213
207
129
349
32
112
11
319
202
24
52
317
89
166
6
301
43
330
19
356
211
38
31
308
92
91
361
130
63
131
144
267
338
190
246
344
335
79
157
48
306
177
309
124
360
37
118
346
62
176
322
182
237
148
314
189
56
336
59
223
72
276
332
279
49
350
16
326
299
353
329
256
100
272
26
136
252
249
50
122
343
303
302
140
117
23
139
103
179
357
65
175
88
109
198
99
365
278
347
323
161
318
83
78
307
285
289
184
325
125
258
51
29
162
362
193
45
68
352
90
269
339
165
60
266
373
171
152
106
169
355
192
27
327
196
66
260
274
342
115
234
36
290
104
248
341
333
233
242
156
320
95
316
304
214
13
102
315
86
305
101
296
15
128
359
87
67
76
97
375
254
70
121
146
298
133
337
194
5
195
158
275
120
251
297
47
225
209
123
167
245
288
58
142
44
293
77
191
354
331
135
263
253
153
367
257
3
369
4
240
151
57
108
64
372
8
105
34
2
25
227
134
18
294
216
204
30
41
244
39
75
116
111
186
21
328
178
10
287
54
173
203
150
180
261
310
345
163
300
74
14
119
284
270
81
73
283
262
321
170
340
107
295
222
264
212
12
46
370
9
147
199
17
351
113
210
40
231
201
94
218
159
221
280
229
20
219
281
312
277
55
84
85
138
114
334
132
291
181
228
172
96
232
185
243
98
28
268
110
363
292
205
226
239
215
358
183
174
265
286
241
206
61
93
247
217
164
238
271
155
230
69
22
71
364
149
141
126
220
42
145
137
197
80
224
282
366
168
208
259
33
313
250
236
35
235
154
255

>  <PUBCHEM_MMFF94_PARTIAL_CHARGES>  (1) 
21
1 -0.43
10 0.28
11 0.66
13 0.66
15 0.42
16 -0.14
17 -0.15
18 -0.15
19 -0.15
2 -0.43
20 -0.15
21 -0.15
3 -0.57
4 -0.57
41 0.15
42 0.15
43 0.15
44 0.15
45 0.15
7 0.06
8 0.06

>  <PUBCHEM_EFFECTIVE_ROTOR_COUNT>  (1) 
12

>  <PUBCHEM_PHARMACOPHORE_FEATURES>  (1) 
5
1 14 hydrophobe
1 3 acceptor
1 4 acceptor
4 5 6 7 8 hydrophobe
6 16 17 18 19 20 21 rings

>  <PUBCHEM_HEAVY_ATOM_COUNT>  (1) 
21

>  <PUBCHEM_ATOM_DEF_STEREO_COUNT>  (1) 
0

>  <PUBCHEM_ATOM_UDEF_STEREO_COUNT>  (1) 
0

>  <PUBCHEM_BOND_DEF_STEREO_COUNT>  (1) 
0

>  <PUBCHEM_BOND_UDEF_STEREO_COUNT>  (1) 
0

>  <PUBCHEM_ISOTOPIC_ATOM_COUNT>  (1) 
0

>  <PUBCHEM_COMPONENT_COUNT>  (1) 
1

>  <PUBCHEM_CACTVS_TAUTO_COUNT>  (1) 
1

>  <PUBCHEM_CONFORMER_ID>  (1) 
00004E6A00000001

>  <PUBCHEM_MMFF94_ENERGY>  (1) 
23.9242

>  <PUBCHEM_FEATURE_SELFOVERLAP>  (1) 
25.372

>  <PUBCHEM_SHAPE_FINGERPRINT>  (1) 
10498660 4 14948156473171651229
11014199 57 18122060068904168290
12553582 1 17545334428164563377
13122387 1 18337678524772590670
14251757 17 17542753840547328559
14251757 5 18267043712320171342
14647877 51 17042881292916998322
15006816 218 17977950072778615200
15403338 16 16807847625382906931
16728300 4 17606951789893044667
19930381 70 17906454325372790821
20621476 51 18339913909485170482
21315764 21 17536565732886761831
21344244 246 17977647729336750165
22113638 7 18408881806797346324
23559900 14 15677734923286433433
238918 7 17909538472695315638
532947 4 17761772867291920709
9862522 239 18120079607469277314

>  <PUBCHEM_SHAPE_MULTIPOLES>  (1) 
408.69
7.06
6.61
1.37
9.88
2.1
-0.03
1.56
-3.37
-3.22
2.47
0.01
-0.13
-1.95

>  <PUBCHEM_SHAPE_SELFOVERLAP>  (1) 
809.957

>  <PUBCHEM_SHAPE_VOLUME>  (1) 
242

>  <PUBCHEM_COORDINATE_TYPE>  (1) 
2
5
10

$$$$
