20073
     RDKit          3D

 18 20  0  0  0  0  0  0  0  0999 V2000
    4.9225    0.5428    0.0023 O   0  0  0  0  0  0  0  0  0  0  0  0
    3.1126   -0.9678   -0.0003 N   0  0  0  0  0  0  0  0  0  0  0  0
   -0.4626    0.1005   -0.0001 C   0  0  0  0  0  0  0  0  0  0  0  0
   -1.8015   -0.4292    0.0000 C   0  0  0  0  0  0  0  0  0  0  0  0
   -0.2747    1.5075   -0.0003 C   0  0  0  0  0  0  0  0  0  0  0  0
   -2.9011    0.4682    0.0001 C   0  0  0  0  0  0  0  0  0  0  0  0
    0.7087   -0.6977    0.0000 C   0  0  0  0  0  0  0  0  0  0  0  0
   -1.3825    2.3588   -0.0002 C   0  0  0  0  0  0  0  0  0  0  0  0
   -2.6759    1.8471    0.0000 C   0  0  0  0  0  0  0  0  0  0  0  0
    1.9898   -0.1391   -0.0001 C   0  0  0  0  0  0  0  0  0  0  0  0
    1.0191    2.0561   -0.0005 C   0  0  0  0  0  0  0  0  0  0  0  0
   -2.1095   -1.8128    0.0000 C   0  0  0  0  0  0  0  0  0  0  0  0
    2.1449    1.2385   -0.0004 C   0  0  0  0  0  0  0  0  0  0  0  0
   -4.2202   -0.0170    0.0003 C   0  0  0  0  0  0  0  0  0  0  0  0
   -3.4259   -2.2820    0.0001 C   0  0  0  0  0  0  0  0  0  0  0  0
   -4.4815   -1.3836    0.0002 C   0  0  0  0  0  0  0  0  0  0  0  0
    4.4630   -0.5946   -0.0006 C   0  0  0  0  0  0  0  0  0  0  0  0
    5.3748   -1.7958   -0.0006 C   0  0  0  0  0  0  0  0  0  0  0  0
  1 17  2  0
  2 10  1  0
  2 17  1  0
  3  4  1  0
  3  5  1  0
  3  7  2  0
  4  6  2  0
  4 12  1  0
  5  8  1  0
  5 11  2  0
  6  9  1  0
  6 14  1  0
  7 10  1  0
  8  9  2  0
 10 13  2  0
 11 13  1  0
 12 15  2  0
 14 16  2  0
 15 16  1  0
 17 18  1  0
M  END
>  <PUBCHEM_COMPOUND_CID>  (1) 
20073

>  <PUBCHEM_CONFORMER_RMSD>  (1) 
0.6

>  <PUBCHEM_CONFORMER_DIVERSEORDER>  (1) 
1
2
4
3

>  <PUBCHEM_MMFF94_PARTIAL_CHARGES>  (1) 
24
1 -0.57
10 0.12
11 -0.15
12 -0.15
13 -0.15
14 -0.15
15 -0.15
16 -0.15
17 0.57
18 0.06
19 0.15
2 -0.55
20 0.15
21 0.15
22 0.15
23 0.15
24 0.15
25 0.15
26 0.15
27 0.15
28 0.37
7 -0.15
8 -0.15
9 -0.15

>  <PUBCHEM_EFFECTIVE_ROTOR_COUNT>  (1) 
2

>  <PUBCHEM_PHARMACOPHORE_FEATURES>  (1) 
5
1 1 acceptor
1 2 donor
6 3 4 5 6 8 9 rings
6 3 5 7 10 11 13 rings
6 4 6 12 14 15 16 rings

>  <PUBCHEM_HEAVY_ATOM_COUNT>  (1) 
18

>  <PUBCHEM_ATOM_DEF_STEREO_COUNT>  (1) 
0

>  <PUBCHEM_ATOM_UDEF_STEREO_COUNT>  (1) 
0

>  <PUBCHEM_BOND_DEF_STEREO_COUNT>  (1) 
0

>  <PUBCHEM_BOND_UDEF_STEREO_COUNT>  (1) 
0

>  <PUBCHEM_ISOTOPIC_ATOM_COUNT>  (1) 
0

>  <PUBCHEM_COMPONENT_COUNT>  (1) 
1

>  <PUBCHEM_CACTVS_TAUTO_COUNT>  (1) 
2

>  <PUBCHEM_CONFORMER_ID>  (1) 
00004E6900000001

>  <PUBCHEM_MMFF94_ENERGY>  (1) 
61.6435

>  <PUBCHEM_FEATURE_SELFOVERLAP>  (1) 
25.42

>  <PUBCHEM_SHAPE_FINGERPRINT>  (1) 
10319926 262 18197477560307486938
10493431 412 18054800477290182369
10616163 171 18339643339346431118
10967382 1 18050568744591244453
11046707 91 18410575076073144336
11458722 379 18334013878192493827
11806522 49 18335701671838637548
12032990 46 18411138056112513697
12107183 9 17543063486177701130
12236239 1 17821730507732982494
12553582 1 18335689551267160539
13140716 1 18340214093476332529
13167823 11 18334856078867643082
13288520 33 18411983533589247118
13583140 156 14405185054222820039
138480 1 15240039435303782053
13862211 1 18411696590887488767
14115302 16 17749679583230788623
14790565 3 17691410711241200009
15042514 8 18338801095958621888
15196674 1 18410575097595693924
15209289 33 18259705609659131675
15352361 1 18411136952395816774
15442244 35 18411421743335147857
15536298 74 18341893060221586032
16945 1 18410575055131376101
17492 89 18050566541252767091
17804303 29 18341896294252734609
1813 80 17603580863509853044
18186145 218 17458896158660007739
19141452 34 18272936050736051095
200 152 18059851792463017767
20281475 54 18409732850662328500
20510252 161 18200313204193884081
21267235 1 18409456911930266835
221490 88 18118690052225433683
2297311 6 18270974474604780534
23366157 5 17969783171391744740
23402539 116 18342731906363435295
23463225 33 18339081613600633317
23557571 272 18201446826915771676
23559900 14 18339916103865578616
2748010 2 18266734869595546261
2871803 45 18261385663325977370
3004659 81 18187083932545521686
335352 9 18410855439397312629
350125 39 18410578383762964921
4214541 1 18338797819235990208
5104073 3 18342736287298682032
559249 180 18189330161306504762
67856867 119 18189055451325564508
7364860 26 18197214960947566104
76465 3 18271519913966200927
8809292 202 18334297608274740339
9709674 26 18191305098869692611

>  <PUBCHEM_SHAPE_MULTIPOLES>  (1) 
359.58
9.67
2.49
0.61
9.22
0.33
0
-5.59
0
-1.05
0
-0.04
0
0

>  <PUBCHEM_SHAPE_SELFOVERLAP>  (1) 
799.43

>  <PUBCHEM_SHAPE_VOLUME>  (1) 
192.3

>  <PUBCHEM_COORDINATE_TYPE>  (1) 
2
5
10

$$$$
