20078
     RDKit          3D

  9  9  0  0  0  0  0  0  0  0999 V2000
    1.3896    0.5026    0.0060 N   0  0  0  0  0  0  0  0  0  0  0  0
   -0.3574   -1.0611    0.0015 N   0  0  0  0  0  0  0  0  0  0  0  0
   -0.8177    1.2940    0.0014 N   0  0  0  0  0  0  0  0  0  0  0  0
   -2.6270   -0.2822   -0.0038 N   0  0  0  0  0  0  0  0  0  0  0  0
    2.4061   -0.5208    0.0077 C   0  0  0  0  0  0  0  0  0  0  0  0
    3.7842    0.1120   -0.0114 C   0  0  0  0  0  0  0  0  0  0  0  0
    0.0288    0.2369    0.0029 C   0  0  0  0  0  0  0  0  0  0  0  0
   -1.6880   -1.2420   -0.0020 C   0  0  0  0  0  0  0  0  0  0  0  0
   -2.1185    0.9605   -0.0022 C   0  0  0  0  0  0  0  0  0  0  0  0
  1  5  1  0
  1  7  1  0
  2  7  2  0
  2  8  1  0
  3  7  1  0
  3  9  2  0
  4  8  2  0
  4  9  1  0
  5  6  1  0
M  END
>  <PUBCHEM_COMPOUND_CID>  (1) 
20078

>  <PUBCHEM_CONFORMER_RMSD>  (1) 
0.4

>  <PUBCHEM_CONFORMER_DIVERSEORDER>  (1) 
1
4
3
2

>  <PUBCHEM_MMFF94_PARTIAL_CHARGES>  (1) 
11
1 -0.87
12 0.4
16 0.15
17 0.15
2 -0.62
3 -0.62
4 -0.62
5 0.37
7 0.72
8 0.47
9 0.47

>  <PUBCHEM_EFFECTIVE_ROTOR_COUNT>  (1) 
2

>  <PUBCHEM_PHARMACOPHORE_FEATURES>  (1) 
3
1 1 donor
4 1 2 3 7 cation
6 2 3 4 7 8 9 rings

>  <PUBCHEM_HEAVY_ATOM_COUNT>  (1) 
9

>  <PUBCHEM_ATOM_DEF_STEREO_COUNT>  (1) 
0

>  <PUBCHEM_ATOM_UDEF_STEREO_COUNT>  (1) 
0

>  <PUBCHEM_BOND_DEF_STEREO_COUNT>  (1) 
0

>  <PUBCHEM_BOND_UDEF_STEREO_COUNT>  (1) 
0

>  <PUBCHEM_ISOTOPIC_ATOM_COUNT>  (1) 
0

>  <PUBCHEM_COMPONENT_COUNT>  (1) 
1

>  <PUBCHEM_CACTVS_TAUTO_COUNT>  (1) 
3

>  <PUBCHEM_CONFORMER_ID>  (1) 
00004E6E00000001

>  <PUBCHEM_MMFF94_ENERGY>  (1) 
19.3269

>  <PUBCHEM_FEATURE_SELFOVERLAP>  (1) 
15.223

>  <PUBCHEM_SHAPE_FINGERPRINT>  (1) 
10857977 72 18341602759060409672
11062470 55 17060621092185124842
12932764 1 17203317910588307670
14325111 11 18410575046330185088
16714656 1 18410011031077135861
20645464 45 17988926660762398782
20871998 184 18201442540021945879
21040471 1 18266458707203197825
23552423 10 18115869766276923044
29004967 10 16415483748357248046
369184 2 15195284218110523518

>  <PUBCHEM_SHAPE_MULTIPOLES>  (1) 
165.29
4.9
1.22
0.58
4.32
0.04
0
0.01
0.02
-0.66
0
0.03
0
0

>  <PUBCHEM_SHAPE_SELFOVERLAP>  (1) 
328.349

>  <PUBCHEM_SHAPE_VOLUME>  (1) 
91.8

>  <PUBCHEM_COORDINATE_TYPE>  (1) 
2
5
10

$$$$
