20084
     RDKit          3D

 10  9  0  0  0  0  0  0  0  0999 V2000
   -0.0054    0.9263    1.2338 O   0  0  0  0  0  0  0  0  0  0  0  0
    1.1496   -0.4193   -0.2649 N   0  0  0  0  0  0  0  0  0  0  0  0
   -1.1489   -0.4225   -0.2683 N   0  0  0  0  0  0  0  0  0  0  0  0
    2.4837   -0.0490    0.1476 C   0  0  0  0  0  0  0  0  0  0  0  0
   -2.4811   -0.0505    0.1465 C   0  0  0  0  0  0  0  0  0  0  0  0
   -0.0012    0.1042    0.3186 C   0  0  0  0  0  0  0  0  0  0  0  0
    2.9562    1.1752   -0.6255 C   0  0  0  0  0  0  0  0  0  0  0  0
    3.4428   -1.2192   -0.0315 C   0  0  0  0  0  0  0  0  0  0  0  0
   -3.4383   -1.2213   -0.0345 C   0  0  0  0  0  0  0  0  0  0  0  0
   -2.9574    1.1760   -0.6219 C   0  0  0  0  0  0  0  0  0  0  0  0
  1  6  2  0
  2  4  1  0
  2  6  1  0
  3  5  1  0
  3  6  1  0
  4  7  1  0
  4  8  1  0
  5  9  1  0
  5 10  1  0
M  END
>  <PUBCHEM_COMPOUND_CID>  (1) 
20084

>  <PUBCHEM_CONFORMER_RMSD>  (1) 
0.6

>  <PUBCHEM_CONFORMER_DIVERSEORDER>  (1) 
1
5
4
3
6
2

>  <PUBCHEM_MMFF94_PARTIAL_CHARGES>  (1) 
8
1 -0.57
13 0.37
14 0.37
2 -0.73
3 -0.73
4 0.3
5 0.3
6 0.69

>  <PUBCHEM_EFFECTIVE_ROTOR_COUNT>  (1) 
4

>  <PUBCHEM_PHARMACOPHORE_FEATURES>  (1) 
5
1 1 acceptor
1 2 donor
1 3 donor
3 4 7 8 hydrophobe
3 5 9 10 hydrophobe

>  <PUBCHEM_HEAVY_ATOM_COUNT>  (1) 
10

>  <PUBCHEM_ATOM_DEF_STEREO_COUNT>  (1) 
0

>  <PUBCHEM_ATOM_UDEF_STEREO_COUNT>  (1) 
0

>  <PUBCHEM_BOND_DEF_STEREO_COUNT>  (1) 
0

>  <PUBCHEM_BOND_UDEF_STEREO_COUNT>  (1) 
0

>  <PUBCHEM_ISOTOPIC_ATOM_COUNT>  (1) 
0

>  <PUBCHEM_COMPONENT_COUNT>  (1) 
1

>  <PUBCHEM_CACTVS_TAUTO_COUNT>  (1) 
2

>  <PUBCHEM_CONFORMER_ID>  (1) 
00004E7400000001

>  <PUBCHEM_MMFF94_ENERGY>  (1) 
5.8704

>  <PUBCHEM_FEATURE_SELFOVERLAP>  (1) 
25.423

>  <PUBCHEM_SHAPE_FINGERPRINT>  (1) 
11062470 55 18272367555599691656
12162725 195 17894631482565203204
12932764 1 17917705850665092711
14325111 11 18334576849551770414
14390081 3 17530681013357755021
15310529 11 18409728495227711479
177051 138 18273215279218064606
18186145 218 17022619766984635156
190213 19 18273494559207712242
20653085 51 17822300045617830549
20711983 171 18408324367429319389
20711985 327 15769766957807033112
21293036 1 17988649656762351188
3248919 1 17774727475976349558
93112 12 18333730186938370151

>  <PUBCHEM_SHAPE_MULTIPOLES>  (1) 
189.96
6.6
1.31
0.82
0.02
0.05
0.13
-0.94
-1.07
0
-0.14
0
0.17
0

>  <PUBCHEM_SHAPE_SELFOVERLAP>  (1) 
346.803

>  <PUBCHEM_SHAPE_VOLUME>  (1) 
122.4

>  <PUBCHEM_COORDINATE_TYPE>  (1) 
2
5
10

$$$$
