20098
     RDKit          3D

 13 13  0  0  0  0  0  0  0  0999 V2000
   -2.2367    0.1892    0.1568 O   0  0  0  0  0  0  0  0  0  0  0  0
    1.9648    2.7634   -0.2451 O   0  0  0  0  0  0  0  0  0  0  0  0
    3.3387   -1.7535    0.4615 O   0  0  0  0  0  0  0  0  0  0  0  0
   -1.7050   -1.8809   -0.6982 O   0  0  0  0  0  0  0  0  0  0  0  0
    0.0198   -0.3337   -0.1356 C   0  0  0  0  0  0  0  0  0  0  0  0
    1.0293   -1.2657    0.1043 C   0  0  0  0  0  0  0  0  0  0  0  0
    0.3341    1.0202   -0.2529 C   0  0  0  0  0  0  0  0  0  0  0  0
    1.6580    1.4422   -0.1302 C   0  0  0  0  0  0  0  0  0  0  0  0
    2.3533   -0.8439    0.2271 C   0  0  0  0  0  0  0  0  0  0  0  0
   -1.3606   -0.7737   -0.2640 C   0  0  0  0  0  0  0  0  0  0  0  0
    2.6677    0.5100    0.1098 C   0  0  0  0  0  0  0  0  0  0  0  0
   -3.6310   -0.1269    0.0803 C   0  0  0  0  0  0  0  0  0  0  0  0
   -4.4325    1.0535    0.5862 C   0  0  0  0  0  0  0  0  0  0  0  0
  1 10  1  0
  1 12  1  0
  2  8  1  0
  3  9  1  0
  4 10  2  0
  5  6  2  0
  5  7  1  0
  5 10  1  0
  6  9  1  0
  7  8  2  0
  8 11  1  0
  9 11  2  0
 12 13  1  0
M  END
>  <PUBCHEM_COMPOUND_CID>  (1) 
20098

>  <PUBCHEM_CONFORMER_RMSD>  (1) 
0.6

>  <PUBCHEM_CONFORMER_DIVERSEORDER>  (1) 
1
8
10
3
5
2
6
7
4
9
11
12

>  <PUBCHEM_MMFF94_PARTIAL_CHARGES>  (1) 
17
1 -0.43
10 0.63
11 -0.15
12 0.28
14 0.15
15 0.15
16 0.15
2 -0.53
22 0.45
23 0.45
3 -0.53
4 -0.57
5 0.09
6 -0.15
7 -0.15
8 0.08
9 0.08

>  <PUBCHEM_EFFECTIVE_ROTOR_COUNT>  (1) 
3

>  <PUBCHEM_PHARMACOPHORE_FEATURES>  (1) 
4
1 2 donor
1 3 donor
1 4 acceptor
6 5 6 7 8 9 11 rings

>  <PUBCHEM_HEAVY_ATOM_COUNT>  (1) 
13

>  <PUBCHEM_ATOM_DEF_STEREO_COUNT>  (1) 
0

>  <PUBCHEM_ATOM_UDEF_STEREO_COUNT>  (1) 
0

>  <PUBCHEM_BOND_DEF_STEREO_COUNT>  (1) 
0

>  <PUBCHEM_BOND_UDEF_STEREO_COUNT>  (1) 
0

>  <PUBCHEM_ISOTOPIC_ATOM_COUNT>  (1) 
0

>  <PUBCHEM_COMPONENT_COUNT>  (1) 
1

>  <PUBCHEM_CACTVS_TAUTO_COUNT>  (1) 
5

>  <PUBCHEM_CONFORMER_ID>  (1) 
00004E8200000001

>  <PUBCHEM_MMFF94_ENERGY>  (1) 
29.6458

>  <PUBCHEM_FEATURE_SELFOVERLAP>  (1) 
20.297

>  <PUBCHEM_SHAPE_FINGERPRINT>  (1) 
10130415 120 18261671480678122314
10465860 228 18410295851775776632
10980938 120 18409167727038678509
11471102 20 18408036295303506149
12251169 10 18411415115873419587
12932764 1 17385991884639120499
13380535 21 18262245550222693079
13922767 16 18339641140444066121
14144814 61 18412545409858782203
14178342 30 18196351814249579986
14325111 11 18411702118995143145
14897335 6 18341608282588812181
15442244 35 18411980239233176011
15501101 241 18113336409797824244
15775835 57 18340211902674116429
16945 1 18336252505583685494
17041 49 18410008806152240370
17844478 74 17530963558013301309
18186145 218 18342179947199727701
18511873 20 18341611490776563955
201361 129 18265337385573497052
20671657 1 18338241564794049476
20871998 22 18124597488068680638
21501502 16 18339919449792600351
22094290 62 18411982459815852457
23402539 116 17488731290842232101
23552423 10 18265610068809967342
3071541 12 18337674247381133988
7364860 26 18342175609309229796
74978 22 18412263973315426103
7832392 63 18341611559306045628
9939556 21 18342452694507649687

>  <PUBCHEM_SHAPE_MULTIPOLES>  (1) 
244.06
6.29
2.08
0.68
6.22
0.73
0
0.62
-1.27
-1.37
0.17
0.11
-0.05
-0.68

>  <PUBCHEM_SHAPE_SELFOVERLAP>  (1) 
506.126

>  <PUBCHEM_SHAPE_VOLUME>  (1) 
140.1

>  <PUBCHEM_COORDINATE_TYPE>  (1) 
2
5
10

$$$$
