20094
     RDKit          3D

 28 30  0  0  0  0  0  0  0  0999 V2000
   -3.8755   -3.7036   -1.2589 Cl  0  0  0  0  0  0  0  0  0  0  0  0
   -2.6386    2.4795    1.9917 F   0  0  0  0  0  0  0  0  0  0  0  0
    2.3290    0.0127    2.3819 O   0  0  0  0  0  0  0  0  0  0  0  0
    3.6046    0.8097   -0.7252 N   0  0  0  0  0  0  0  0  0  0  0  0
    1.2066   -1.3659    0.8753 N   0  0  0  0  0  0  0  0  0  0  0  0
   -0.7641    0.6860    1.9377 N   0  0  0  0  0  0  0  0  0  0  0  0
    2.5924   -1.4036   -1.1899 C   0  0  0  0  0  0  0  0  0  0  0  0
    2.5325    0.1090   -1.4217 C   0  0  0  0  0  0  0  0  0  0  0  0
    2.4585   -1.8236    0.2726 C   0  0  0  0  0  0  0  0  0  0  0  0
   -0.0269   -1.8769    0.3419 C   0  0  0  0  0  0  0  0  0  0  0  0
    3.5200    2.2513   -0.9662 C   0  0  0  0  0  0  0  0  0  0  0  0
    4.9115    0.3009   -1.1453 C   0  0  0  0  0  0  0  0  0  0  0  0
   -1.2397   -1.1578    0.3804 C   0  0  0  0  0  0  0  0  0  0  0  0
    1.2849   -0.5045    1.9759 C   0  0  0  0  0  0  0  0  0  0  0  0
   -1.3214    0.2551    0.8568 C   0  0  0  0  0  0  0  0  0  0  0  0
   -0.0009   -0.2597    2.7245 C   0  0  0  0  0  0  0  0  0  0  0  0
   -0.0428   -3.1488   -0.2645 C   0  0  0  0  0  0  0  0  0  0  0  0
    2.1652    2.7752   -0.5301 C   0  0  0  0  0  0  0  0  0  0  0  0
    6.0152    0.9902   -0.3664 C   0  0  0  0  0  0  0  0  0  0  0  0
   -2.4280   -1.7371   -0.1007 C   0  0  0  0  0  0  0  0  0  0  0  0
   -2.0749    1.2494    0.0392 C   0  0  0  0  0  0  0  0  0  0  0  0
   -1.2234   -3.7090   -0.7587 C   0  0  0  0  0  0  0  0  0  0  0  0
   -2.4180   -3.0086   -0.6654 C   0  0  0  0  0  0  0  0  0  0  0  0
   -2.7008    2.3227    0.6615 C   0  0  0  0  0  0  0  0  0  0  0  0
   -2.1413    1.0900   -1.3397 C   0  0  0  0  0  0  0  0  0  0  0  0
   -3.4038    3.2507   -0.1069 C   0  0  0  0  0  0  0  0  0  0  0  0
   -2.8445    2.0181   -2.1079 C   0  0  0  0  0  0  0  0  0  0  0  0
   -3.4757    3.0984   -1.4915 C   0  0  0  0  0  0  0  0  0  0  0  0
  1 23  1  0
  2 24  1  0
  3 14  2  0
  4  8  1  0
  4 11  1  0
  4 12  1  0
  5  9  1  0
  5 10  1  0
  5 14  1  0
  6 15  2  0
  6 16  1  0
  7  8  1  0
  7  9  1  0
 10 13  2  0
 10 17  1  0
 11 18  1  0
 12 19  1  0
 13 15  1  0
 13 20  1  0
 14 16  1  0
 15 21  1  0
 17 22  2  0
 20 23  2  0
 21 24  2  0
 21 25  1  0
 22 23  1  0
 24 26  1  0
 25 27  2  0
 26 28  2  0
 27 28  1  0
M  END
>  <PUBCHEM_COMPOUND_CID>  (1) 
20094

>  <PUBCHEM_CONFORMER_RMSD>  (1) 
0.8

>  <PUBCHEM_CONFORMER_DIVERSEORDER>  (1) 
1
76
64
85
69
89
67
8
60
101
115
31
54
56
70
116
42
97
81
65
108
52
127
126
61
93
49
111
62
51
74
44
50
43
48
10
109
103
91
121
110
82
112
95
63
72
53
94
128
33
28
124
73
16
98
12
129
104
106
27
84
105
131
102
5
23
46
114
125
79
59
88
71
117
55
87
45
68
58
6
107
78
66
29
86
118
92
24
123
100
80
30
47
41
77
36
90
37
18
130
96
19
120
15
21
57
99
113
4
35
119
20
38
17
7
11
39
14
13
32
34
3
25
122
40
9
2
83
26
75
22

>  <PUBCHEM_MMFF94_PARTIAL_CHARGES>  (1) 
32
1 -0.18
10 0.12
11 0.27
12 0.27
13 0.09
14 0.57
15 0.28
16 0.31
17 -0.15
2 -0.19
20 -0.15
21 0.09
22 -0.15
23 0.18
24 0.19
25 -0.15
26 -0.15
27 -0.15
28 -0.15
3 -0.57
4 -0.81
41 0.15
48 0.15
49 0.15
5 -0.48
50 0.15
51 0.15
52 0.15
53 0.15
6 -0.7
8 0.27
9 0.3

>  <PUBCHEM_EFFECTIVE_ROTOR_COUNT>  (1) 
7.4

>  <PUBCHEM_PHARMACOPHORE_FEATURES>  (1) 
6
1 3 acceptor
1 4 cation
1 6 acceptor
6 10 13 17 20 22 23 rings
6 21 24 25 26 27 28 rings
7 5 6 10 13 14 15 16 rings

>  <PUBCHEM_HEAVY_ATOM_COUNT>  (1) 
28

>  <PUBCHEM_ATOM_DEF_STEREO_COUNT>  (1) 
0

>  <PUBCHEM_ATOM_UDEF_STEREO_COUNT>  (1) 
0

>  <PUBCHEM_BOND_DEF_STEREO_COUNT>  (1) 
0

>  <PUBCHEM_BOND_UDEF_STEREO_COUNT>  (1) 
0

>  <PUBCHEM_ISOTOPIC_ATOM_COUNT>  (1) 
0

>  <PUBCHEM_COMPONENT_COUNT>  (1) 
1

>  <PUBCHEM_CACTVS_TAUTO_COUNT>  (1) 
1

>  <PUBCHEM_CONFORMER_ID>  (1) 
00004E7E00000001

>  <PUBCHEM_MMFF94_ENERGY>  (1) 
90.4579

>  <PUBCHEM_FEATURE_SELFOVERLAP>  (1) 
30.458

>  <PUBCHEM_SHAPE_FINGERPRINT>  (1) 
10165383 225 18200893789604419043
11582403 64 17169820077783301341
11725454 13 17532949190024034737
12035759 4 18189044460018457039
12156800 1 17903879534874818628
12403260 363 18263927812294085236
12788726 201 18262222443583990339
13004483 165 18052260892485498751
13583140 156 17388549198556794547
14251751 93 18261116291931168668
15082195 135 17543611056070286501
15210252 30 17831288768324061247
15664445 248 17546152469237378633
17980427 26 16878780470649941634
19319366 153 17198001591500672609
19930381 70 18049172064044825037
21285901 2 17986682664810014639
22907989 373 18340757204881205975
23419403 2 17201917256943418555
23557571 272 18055336188111885544
238 59 17834680396565455383
3493558 16 15730569419611152669
474 4 17978224955381433893
6287921 2 17834666102935711853

>  <PUBCHEM_SHAPE_MULTIPOLES>  (1) 
550.01
8.05
4.85
2.12
9.92
0.76
-1.21
-3.46
3.91
-6.17
1.84
-0.16
-0.51
-0.99

>  <PUBCHEM_SHAPE_SELFOVERLAP>  (1) 
1160.879

>  <PUBCHEM_SHAPE_VOLUME>  (1) 
309.5

>  <PUBCHEM_COORDINATE_TYPE>  (1) 
2
5
10

$$$$
