20095
     RDKit          3D

 14 14  0  0  0  0  0  0  0  0999 V2000
    4.0343   -1.0976   -0.3185 O   0  0  0  0  0  0  0  0  0  0  0  0
    4.0339    1.0976   -0.3199 O   0  0  0  0  0  0  0  0  0  0  0  0
   -2.0861   -0.0008    0.8352 N   0  0  0  0  0  0  0  0  0  0  0  0
    3.4366   -0.0001   -0.2064 N   0  0  0  0  0  0  0  0  0  0  0  0
   -3.0968    0.0003   -0.2073 C   0  0  0  0  0  0  0  0  0  0  0  0
   -4.4812    0.0019    0.4472 C   0  0  0  0  0  0  0  0  0  0  0  0
   -2.9121    1.2569   -1.0614 C   0  0  0  0  0  0  0  0  0  0  0  0
   -2.9224   -1.2559   -1.0654 C   0  0  0  0  0  0  0  0  0  0  0  0
   -0.7289   -0.0007    0.5790 C   0  0  0  0  0  0  0  0  0  0  0  0
   -0.0147   -1.2084    0.4447 C   0  0  0  0  0  0  0  0  0  0  0  0
   -0.0152    1.2075    0.4441 C   0  0  0  0  0  0  0  0  0  0  0  0
    1.3560   -1.2083    0.1864 C   0  0  0  0  0  0  0  0  0  0  0  0
    1.3556    1.2078    0.1856 C   0  0  0  0  0  0  0  0  0  0  0  0
    2.0412   -0.0002    0.0566 C   0  0  0  0  0  0  0  0  0  0  0  0
  1  4  1  0
  2  4  2  0
  3  5  1  0
  3  9  1  0
  4 14  1  0
  5  6  1  0
  5  7  1  0
  5  8  1  0
  9 10  2  0
  9 11  1  0
 10 12  1  0
 11 13  2  0
 12 14  2  0
 13 14  1  0
M  CHG  2   1  -1   4   1
M  END
>  <PUBCHEM_COMPOUND_CID>  (1) 
20095

>  <PUBCHEM_CONFORMER_RMSD>  (1) 
0.6

>  <PUBCHEM_CONFORMER_DIVERSEORDER>  (1) 
1
3
2

>  <PUBCHEM_MMFF94_PARTIAL_CHARGES>  (1) 
16
1 -0.52
10 -0.15
11 -0.15
12 -0.15
13 -0.15
14 0.13
15 0.4
2 -0.52
25 0.15
26 0.15
27 0.15
28 0.15
3 -0.87
4 0.91
5 0.37
9 0.1

>  <PUBCHEM_EFFECTIVE_ROTOR_COUNT>  (1) 
3

>  <PUBCHEM_PHARMACOPHORE_FEATURES>  (1) 
7
1 1 acceptor
1 1 anion
1 2 acceptor
1 3 cation
1 3 donor
4 5 6 7 8 hydrophobe
6 9 10 11 12 13 14 rings

>  <PUBCHEM_HEAVY_ATOM_COUNT>  (1) 
14

>  <PUBCHEM_ATOM_DEF_STEREO_COUNT>  (1) 
0

>  <PUBCHEM_ATOM_UDEF_STEREO_COUNT>  (1) 
0

>  <PUBCHEM_BOND_DEF_STEREO_COUNT>  (1) 
0

>  <PUBCHEM_BOND_UDEF_STEREO_COUNT>  (1) 
0

>  <PUBCHEM_ISOTOPIC_ATOM_COUNT>  (1) 
0

>  <PUBCHEM_COMPONENT_COUNT>  (1) 
1

>  <PUBCHEM_CACTVS_TAUTO_COUNT>  (1) 
1

>  <PUBCHEM_CONFORMER_ID>  (1) 
00004E7F00000001

>  <PUBCHEM_MMFF94_ENERGY>  (1) 
59.9327

>  <PUBCHEM_FEATURE_SELFOVERLAP>  (1) 
35.602

>  <PUBCHEM_SHAPE_FINGERPRINT>  (1) 
10062212 137 18264194838267855443
11401426 45 18341607122942322144
11471102 20 18410011035208696345
12500047 106 13686299046098756149
12932764 1 18338784672404329417
13690532 89 18411702062981467210
13705890 14 18060416936949600390
14911166 2 18410300215778651182
14993402 34 17989488532525989662
15775835 57 18410855469140206679
16945 1 18337379500564718403
17844478 74 18040439884784045145
18186145 218 18272365399441901488
19422 9 17917147316418067231
200 152 18059573555722817130
20281407 28 13470691451046493308
20645477 70 18341337699844817342
20871999 31 18272077327938717535
21119208 17 18131069329362617103
21293036 1 18409449202068019824
22485316 2 18060698398867244862
23402539 116 18343578526011266812
23402655 69 18412544292887970309
23557571 272 16371010663825572063
23559900 14 18201718483987542808
25 1 18188205408139846059
2748010 2 18050293866510175480

>  <PUBCHEM_SHAPE_MULTIPOLES>  (1) 
266.41
7.55
1.42
0.9
1.01
0
0.09
0
1.28
0.22
0.16
-0.6
0
0

>  <PUBCHEM_SHAPE_SELFOVERLAP>  (1) 
546.23

>  <PUBCHEM_SHAPE_VOLUME>  (1) 
155.2

>  <PUBCHEM_COORDINATE_TYPE>  (1) 
2
5
10

$$$$
