20100
     RDKit          3D

 21 24  0  0  1  0  0  0  0  0999 V2000
   -4.8936    1.1183    0.7447 O   0  0  0  0  0  0  0  0  0  0  0  0
    1.8171    2.6224   -0.3415 O   0  0  0  0  0  0  0  0  0  0  0  0
    5.7299   -0.0070    0.2065 O   0  0  0  0  0  0  0  0  0  0  0  0
   -2.7904   -0.1555    0.5672 C   0  0  0  0  0  0  0  0  0  0  0  0
   -2.1558   -0.9072   -0.6258 C   0  0  0  0  0  0  0  0  0  0  0  0
   -0.6139   -0.9793   -0.6637 C   0  0  0  0  0  0  0  0  0  0  0  0
    0.0700    0.3568   -0.2853 C   0  0  0  0  0  0  0  0  0  0  0  0
   -4.2178    0.0997    0.0298 C   0  0  0  0  0  0  0  0  0  0  0  0
   -2.0400    1.1578    0.8786 C   0  0  0  0  0  0  0  0  0  0  0  0
   -2.7217   -0.1803   -1.8668 C   0  0  0  0  0  0  0  0  0  0  0  0
   -0.5284    0.9707    0.9933 C   0  0  0  0  0  0  0  0  0  0  0  0
   -4.0323    0.4731   -1.4362 C   0  0  0  0  0  0  0  0  0  0  0  0
   -0.0643   -2.1215    0.2049 C   0  0  0  0  0  0  0  0  0  0  0  0
   -2.8901   -1.0113    1.8409 C   0  0  0  0  0  0  0  0  0  0  0  0
    1.5803    0.2248   -0.1566 C   0  0  0  0  0  0  0  0  0  0  0  0
    1.4283   -2.3144   -0.0505 C   0  0  0  0  0  0  0  0  0  0  0  0
    2.2080   -1.0263   -0.0135 C   0  0  0  0  0  0  0  0  0  0  0  0
    2.3726    1.3865   -0.1722 C   0  0  0  0  0  0  0  0  0  0  0  0
    3.6063   -1.0899    0.1019 C   0  0  0  0  0  0  0  0  0  0  0  0
    3.7594    1.3105   -0.0466 C   0  0  0  0  0  0  0  0  0  0  0  0
    4.3764    0.0720    0.0910 C   0  0  0  0  0  0  0  0  0  0  0  0
  1  8  1  0
  2 18  1  0
  3 21  1  0
  4  5  1  0
  4  8  1  0
  4  9  1  0
  4 14  1  0
  5  6  1  0
  5 10  1  0
  6  7  1  0
  6 13  1  0
  7 11  1  0
  7 15  1  0
  8 12  1  0
  9 11  1  0
 10 12  1  0
 13 16  1  0
 15 17  2  0
 15 18  1  0
 16 17  1  0
 17 19  1  0
 18 20  2  0
 19 21  2  0
 20 21  1  0
M  END
>  <PUBCHEM_COMPOUND_CID>  (1) 
20100

>  <PUBCHEM_CONFORMER_RMSD>  (1) 
0.6

>  <PUBCHEM_CONFORMER_DIVERSEORDER>  (1) 
2
19
17
8
16
22
23
10
1
14
5
18
7
3
15
20
4
6
9
11
13
21
12

>  <PUBCHEM_MMFF94_PARTIAL_CHARGES>  (1) 
17
1 -0.68
15 -0.14
16 0.14
17 -0.14
18 0.08
19 -0.15
2 -0.53
20 -0.15
21 0.08
3 -0.53
41 0.4
42 0.15
43 0.15
44 0.45
45 0.45
7 0.14
8 0.28

>  <PUBCHEM_EFFECTIVE_ROTOR_COUNT>  (1) 
1.4

>  <PUBCHEM_PHARMACOPHORE_FEATURES>  (1) 
8
1 1 acceptor
1 1 donor
1 2 donor
1 3 donor
5 4 5 8 10 12 rings
6 15 17 18 19 20 21 rings
6 4 5 6 7 9 11 rings
6 6 7 13 15 16 17 rings

>  <PUBCHEM_HEAVY_ATOM_COUNT>  (1) 
21

>  <PUBCHEM_ATOM_DEF_STEREO_COUNT>  (1) 
1

>  <PUBCHEM_ATOM_UDEF_STEREO_COUNT>  (1) 
4

>  <PUBCHEM_BOND_DEF_STEREO_COUNT>  (1) 
0

>  <PUBCHEM_BOND_UDEF_STEREO_COUNT>  (1) 
0

>  <PUBCHEM_ISOTOPIC_ATOM_COUNT>  (1) 
0

>  <PUBCHEM_COMPONENT_COUNT>  (1) 
1

>  <PUBCHEM_CACTVS_TAUTO_COUNT>  (1) 
17

>  <PUBCHEM_CONFORMER_ID>  (1) 
00004E8400000002

>  <PUBCHEM_MMFF94_ENERGY>  (1) 
69.0166

>  <PUBCHEM_FEATURE_SELFOVERLAP>  (1) 
40.823

>  <PUBCHEM_SHAPE_FINGERPRINT>  (1) 
10062212 137 17989199382548385207
11315181 36 16200433589675796722
11471102 20 18410006628899337366
12011746 2 18408889516838395782
12236239 1 17917990568357981606
12500047 106 17095518500382075507
12507557 5 18335701675964683016
12592029 89 18040989627148750082
12633257 1 17313395534330399169
13140716 1 18266459991556649178
13224815 77 18131072653313980322
13583140 156 17603579759529178098
14289901 80 16153710942180123682
15196674 1 18339643451109993634
15309172 13 18409732876063049006
15375358 24 18113898234580758867
15536298 74 18059297565509326214
15653759 3 17095241427635858871
16752209 62 16845274052479447919
16945 1 18413114947970535590
16988056 13 14030610845790513273
17349148 13 18272362088143500442
1813 80 17626680297124187966
18186145 218 18411135857205283510
18219364 16 18333733545671568582
192875 21 18272649064968237576
19784866 9 18412827958450762075
19862831 5 18060698411567608596
200 152 18202277000606384085
20645477 70 18410854326447213126
21033648 29 17895739773053683716
21267235 1 18342466932556285926
22854114 111 18410014346623089892
231179 274 18114174224979158750
23184049 59 18335421283472750692
23402539 116 17846494837889517620
23493267 7 17603575335691608121
23557571 272 17167866365953654405
23559900 14 18059288890134363376
25 1 18408036312388644118
26918003 58 18260832604755936208
296302 2 18261110755554715871
335352 9 18411138035270738838
34797466 226 15502957246351620430
34934 24 17988644047788198801
350125 39 18120378910586188574
4340502 62 18188223026660242611
474 4 18411700993181059082
5104073 3 18336260262526692376
602551 16 16081376292528551754
633830 44 18271818912055733124
77492 1 17846495924431821487
8272917 22 18341336574378535575
9981440 41 17049899999443482568

>  <PUBCHEM_SHAPE_MULTIPOLES>  (1) 
414.56
9.11
1.95
1.23
3.13
0.12
0.05
-1.85
-0.12
1.03
-0.09
-1.63
0.05
-0.1

>  <PUBCHEM_SHAPE_SELFOVERLAP>  (1) 
906.298

>  <PUBCHEM_SHAPE_VOLUME>  (1) 
223.4

>  <PUBCHEM_COORDINATE_TYPE>  (1) 
2
5
10

$$$$
