20109
     RDKit          3D

 23 25  0  0  0  0  0  0  0  0999 V2000
   -1.3876    2.3138    0.0025 O   0  0  0  0  0  0  0  0  0  0  0  0
   -1.4181   -2.3122   -0.0004 O   0  0  0  0  0  0  0  0  0  0  0  0
   -1.3531    0.0004   -0.0009 N   0  0  0  0  0  0  0  0  0  0  0  0
   -3.4390   -1.1856   -0.0011 N   0  0  0  0  0  0  0  0  0  0  0  0
   -3.4232    1.2139    0.0003 N   0  0  0  0  0  0  0  0  0  0  0  0
   -5.4460    0.0273    0.0003 N   0  0  0  0  0  0  0  0  0  0  0  0
    2.7586    2.1174   -0.0010 C   0  0  0  0  0  0  0  0  0  0  0  0
    2.7288   -2.1326    0.0005 C   0  0  0  0  0  0  0  0  0  0  0  0
   -0.0280    2.2500    0.0021 C   0  0  0  0  0  0  0  0  0  0  0  0
   -0.0411   -2.2533   -0.0007 C   0  0  0  0  0  0  0  0  0  0  0  0
    2.0609    2.1540   -1.2082 C   0  0  0  0  0  0  0  0  0  0  0  0
    2.0315   -2.1621    1.2082 C   0  0  0  0  0  0  0  0  0  0  0  0
    2.0631    2.1471    1.2078 C   0  0  0  0  0  0  0  0  0  0  0  0
    2.0325   -2.1639   -1.2078 C   0  0  0  0  0  0  0  0  0  0  0  0
    0.6676    2.2204   -1.2066 C   0  0  0  0  0  0  0  0  0  0  0  0
    0.6698    2.2134    1.2093 C   0  0  0  0  0  0  0  0  0  0  0  0
    0.6379   -2.2228    1.2075 C   0  0  0  0  0  0  0  0  0  0  0  0
    0.6390   -2.2245   -1.2084 C   0  0  0  0  0  0  0  0  0  0  0  0
    4.2482    2.0474   -0.0023 C   0  0  0  0  0  0  0  0  0  0  0  0
    4.2185   -2.0687    0.0008 C   0  0  0  0  0  0  0  0  0  0  0  0
   -2.0879    1.1192   -0.0003 C   0  0  0  0  0  0  0  0  0  0  0  0
   -2.0980   -1.1168   -0.0016 C   0  0  0  0  0  0  0  0  0  0  0  0
   -4.0342    0.0181   -0.0003 C   0  0  0  0  0  0  0  0  0  0  0  0
  1  9  1  0
  1 21  1  0
  2 10  1  0
  2 22  1  0
  3 21  2  0
  3 22  1  0
  4 22  2  0
  4 23  1  0
  5 21  1  0
  5 23  2  0
  6 23  1  0
  7 11  2  0
  7 13  1  0
  7 19  1  0
  8 12  2  0
  8 14  1  0
  8 20  1  0
  9 15  2  0
  9 16  1  0
 10 17  2  0
 10 18  1  0
 11 15  1  0
 12 17  1  0
 13 16  2  0
 14 18  2  0
M  END
>  <PUBCHEM_COMPOUND_CID>  (1) 
20109

>  <PUBCHEM_CONFORMER_RMSD>  (1) 
0.8

>  <PUBCHEM_CONFORMER_DIVERSEORDER>  (1) 
1
27
24
9
3
5
2
12
21
17
4
26
18
22
19
23
20
13
6
25
11
16
8
15
7
10
14

>  <PUBCHEM_MMFF94_PARTIAL_CHARGES>  (1) 
33
1 -0.17
10 0.08
11 -0.15
12 -0.15
13 -0.15
14 -0.15
15 -0.15
16 -0.15
17 -0.15
18 -0.15
19 0.14
2 -0.17
20 0.14
21 0.7
22 0.7
23 0.72
24 0.15
25 0.15
26 0.15
27 0.15
28 0.15
29 0.15
3 -0.62
30 0.15
31 0.15
38 0.4
39 0.4
4 -0.62
5 -0.62
6 -0.9
7 -0.14
8 -0.14
9 0.08

>  <PUBCHEM_EFFECTIVE_ROTOR_COUNT>  (1) 
4

>  <PUBCHEM_PHARMACOPHORE_FEATURES>  (1) 
5
1 6 donor
4 4 5 6 23 cation
6 3 4 5 21 22 23 rings
6 7 9 11 13 15 16 rings
6 8 10 12 14 17 18 rings

>  <PUBCHEM_HEAVY_ATOM_COUNT>  (1) 
23

>  <PUBCHEM_ATOM_DEF_STEREO_COUNT>  (1) 
0

>  <PUBCHEM_ATOM_UDEF_STEREO_COUNT>  (1) 
0

>  <PUBCHEM_BOND_DEF_STEREO_COUNT>  (1) 
0

>  <PUBCHEM_BOND_UDEF_STEREO_COUNT>  (1) 
0

>  <PUBCHEM_ISOTOPIC_ATOM_COUNT>  (1) 
0

>  <PUBCHEM_COMPONENT_COUNT>  (1) 
1

>  <PUBCHEM_CACTVS_TAUTO_COUNT>  (1) 
3

>  <PUBCHEM_CONFORMER_ID>  (1) 
00004E8D00000001

>  <PUBCHEM_MMFF94_ENERGY>  (1) 
76.9101

>  <PUBCHEM_FEATURE_SELFOVERLAP>  (1) 
25.373

>  <PUBCHEM_SHAPE_FINGERPRINT>  (1) 
10498660 4 17762057640280917998
1100329 8 17909558250529136025
11578080 2 17386826362593761927
11963148 33 17975689812624123579
12422481 6 18193528200228722032
12592029 89 18190750928055998547
13140716 1 18338527343807623035
14022349 108 18411145736041475481
14081887 123 16614193300952366088
14790565 3 16971397634937095104
14931854 50 18337687325619412982
14955137 171 17622197601370795249
15006816 218 18338800133864764116
16752209 62 17761489592480657141
17093844 170 18337111271584185828
17357779 13 18053647101796402503
17492 54 18188793664357028398
18336668 15 18115031784414946462
19591789 44 17041481090454794899
20642791 178 18118421561072392189
20691752 17 17603868879869240281
20715895 44 16021967110842561517
20905425 154 18340774818225315830
21421861 104 18198925629231151105
23419403 2 17824519929529371103
23557571 272 17983018851743235798
350125 39 18265901259583450305
5265222 85 17833561467934633012
5939293 188 18339637820217990466
59755656 215 18194117650046339695
6287921 2 18059852814217218046
6443956 14 18339923705994739089
70251023 43 15388925422213813917
7364860 26 18342457041040666981
81228 2 17691981357896516699
90525 40 17901951064515099625
9925002 15 17771875445893718454

>  <PUBCHEM_SHAPE_MULTIPOLES>  (1) 
441.67
7.03
4.24
1.14
5.6
0.04
0
-0.1
0
-3.46
0
-0.7
0
0

>  <PUBCHEM_SHAPE_SELFOVERLAP>  (1) 
962.246

>  <PUBCHEM_SHAPE_VOLUME>  (1) 
234.9

>  <PUBCHEM_COORDINATE_TYPE>  (1) 
2
5
10

$$$$
