20105
     RDKit          3D

 17 17  0  0  0  0  0  0  0  0999 V2000
   -0.4123   -2.8129   -0.4421 S   0  0  0  0  0  0  0  0  0  0  0  0
    2.8047    0.9710    0.2336 N   0  0  0  0  0  0  0  0  0  0  0  0
   -1.7625    1.9989   -0.0571 N   0  0  0  0  0  0  0  0  0  0  0  0
    0.5280    1.5162    0.0913 N   0  0  0  0  0  0  0  0  0  0  0  0
   -1.0781   -0.2370   -0.2319 N   0  0  0  0  0  0  0  0  0  0  0  0
    1.2583   -0.7629   -0.0829 N   0  0  0  0  0  0  0  0  0  0  0  0
    3.9307    0.0624    0.2388 C   0  0  0  0  0  0  0  0  0  0  0  0
   -3.1379    1.6441   -0.2156 C   0  0  0  0  0  0  0  0  0  0  0  0
    5.1105    0.7291    0.9337 C   0  0  0  0  0  0  0  0  0  0  0  0
    4.2772   -0.3265   -1.1925 C   0  0  0  0  0  0  0  0  0  0  0  0
   -3.9213    2.8657   -0.6773 C   0  0  0  0  0  0  0  0  0  0  0  0
   -3.6788    1.1032    1.1015 C   0  0  0  0  0  0  0  0  0  0  0  0
    1.4917    0.5628    0.0758 C   0  0  0  0  0  0  0  0  0  0  0  0
   -0.7200    1.0465   -0.0664 C   0  0  0  0  0  0  0  0  0  0  0  0
   -0.0370   -1.0850   -0.2295 C   0  0  0  0  0  0  0  0  0  0  0  0
   -2.0658   -2.9267    0.2986 C   0  0  0  0  0  0  0  0  0  0  0  0
   -2.5872   -4.3491    0.2221 C   0  0  0  0  0  0  0  0  0  0  0  0
  1 15  1  0
  1 16  1  0
  2  7  1  0
  2 13  1  0
  3  8  1  0
  3 14  1  0
  4 13  2  0
  4 14  1  0
  5 14  2  0
  5 15  1  0
  6 13  1  0
  6 15  2  0
  7  9  1  0
  7 10  1  0
  8 11  1  0
  8 12  1  0
 16 17  1  0
M  END
>  <PUBCHEM_COMPOUND_CID>  (1) 
20105

>  <PUBCHEM_CONFORMER_RMSD>  (1) 
0.8

>  <PUBCHEM_CONFORMER_DIVERSEORDER>  (1) 
1
51
29
50
24
34
26
18
52
19
43
38
28
2
32
33
47
41
21
36
45
42
25
49
53
30
17
48
3
31
13
44
5
22
20
6
23
46
10
16
11
40
27
15
35
39
12
14
7
9
8
37
4

>  <PUBCHEM_MMFF94_PARTIAL_CHARGES>  (1) 
14
1 -0.33
13 0.72
14 0.72
15 0.72
16 0.23
2 -0.87
20 0.4
21 0.4
3 -0.87
4 -0.62
5 -0.62
6 -0.62
7 0.37
8 0.37

>  <PUBCHEM_EFFECTIVE_ROTOR_COUNT>  (1) 
6

>  <PUBCHEM_PHARMACOPHORE_FEATURES>  (1) 
8
1 17 hydrophobe
1 2 donor
1 3 donor
3 7 9 10 hydrophobe
3 8 11 12 hydrophobe
4 2 4 6 13 cation
4 3 4 5 14 cation
6 4 5 6 13 14 15 rings

>  <PUBCHEM_HEAVY_ATOM_COUNT>  (1) 
17

>  <PUBCHEM_ATOM_DEF_STEREO_COUNT>  (1) 
0

>  <PUBCHEM_ATOM_UDEF_STEREO_COUNT>  (1) 
0

>  <PUBCHEM_BOND_DEF_STEREO_COUNT>  (1) 
0

>  <PUBCHEM_BOND_UDEF_STEREO_COUNT>  (1) 
0

>  <PUBCHEM_ISOTOPIC_ATOM_COUNT>  (1) 
0

>  <PUBCHEM_COMPONENT_COUNT>  (1) 
1

>  <PUBCHEM_CACTVS_TAUTO_COUNT>  (1) 
5

>  <PUBCHEM_CONFORMER_ID>  (1) 
00004E8900000001

>  <PUBCHEM_MMFF94_ENERGY>  (1) 
35.7522

>  <PUBCHEM_FEATURE_SELFOVERLAP>  (1) 
40.637

>  <PUBCHEM_SHAPE_FINGERPRINT>  (1) 
10411042 1 17905605858388446435
11357001 24 18265611159647517819
116883 192 18196095670947718022
12532896 13 18340762646214327838
12553582 1 17693094480507996286
12788726 201 18046070621079195338
13052359 8 18409162221101673071
13140716 1 18341047540275409816
13380535 76 18342454790319626486
13544592 145 18200883864304197990
14178000 15 17474951403611426559
14178000 22 18336819797485428853
14178342 30 18264472027584519106
14866123 147 18408600357717696466
15042514 8 18409730689908715322
15885798 251 18050289472453423434
17539 30 18268137841953225975
19591789 44 18194408783697656054
204376 136 18339923718821404305
20602899 9 15554438596207140703
20645477 56 18411696582935851048
20645477 70 17902788562317130485
21041028 32 17977664543432125903
21478907 32 18266175230740695883
22224240 67 18343026562990721841
23402539 116 18200298945124221716
23419403 2 16913455850353977591
23530152 11 18266177240816558327
23557571 272 18200039568239025876
23558518 356 18116713117660754176
23559900 14 18272938194462431972
23598291 2 17822862008261277476
2748010 2 18120394080885171879
3071541 37 18120939395338872692
3091708 16 9198875467865675835
3759504 43 18409725136479007053
474229 33 18410292502212566361
53917941 68 18267843069467577717
54173680 148 18338235002300142927
58779409 54 18339067311138206143
58779409 8 18409172086456981639
633830 44 17844528803472190404
68521 5 18265615579142517639
7164475 11 18192434297337578110
7364860 26 17762898771213616463
77188 2 17688870156823271247
81228 2 18120644983899456915
81539 233 18118401735460727061
9709674 26 18272932743674348614
9925002 15 18042980954407645877

>  <PUBCHEM_SHAPE_MULTIPOLES>  (1) 
328.8
8.3
4.23
0.89
8.35
5
0
-4.17
-0.82
-7.14
0.12
0.25
-0.1
0.89

>  <PUBCHEM_SHAPE_SELFOVERLAP>  (1) 
631.917

>  <PUBCHEM_SHAPE_VOLUME>  (1) 
202.2

>  <PUBCHEM_COORDINATE_TYPE>  (1) 
2
5
10

$$$$
