20103
     RDKit          3D

 24 27  0  0  1  0  0  0  0  0999 V2000
    5.4984    0.4362   -1.0709 O   0  0  0  0  0  0  0  0  0  0  0  0
   -1.3398    1.4961    0.3252 O   0  0  0  0  0  0  0  0  0  0  0  0
   -4.7973   -2.0421   -0.9419 O   0  0  0  0  0  0  0  0  0  0  0  0
   -3.6393    1.4056    0.5270 O   0  0  0  0  0  0  0  0  0  0  0  0
    2.3906   -0.7684    0.4063 C   0  0  0  0  0  0  0  0  0  0  0  0
    3.1043    0.2444   -0.5102 C   0  0  0  0  0  0  0  0  0  0  0  0
    0.9622   -0.3417    0.7511 C   0  0  0  0  0  0  0  0  0  0  0  0
    0.1354   -0.2346   -0.5764 C   0  0  0  0  0  0  0  0  0  0  0  0
    2.3322    0.3143   -1.8332 C   0  0  0  0  0  0  0  0  0  0  0  0
    4.4858   -0.4332   -0.6020 C   0  0  0  0  0  0  0  0  0  0  0  0
    3.3937   -0.9971    1.5335 C   0  0  0  0  0  0  0  0  0  0  0  0
    0.8530    0.6781   -1.6100 C   0  0  0  0  0  0  0  0  0  0  0  0
   -1.3384    0.1950   -0.2789 C   0  0  0  0  0  0  0  0  0  0  0  0
    4.7635   -0.9115    0.8360 C   0  0  0  0  0  0  0  0  0  0  0  0
    0.2949   -1.3203    1.7307 C   0  0  0  0  0  0  0  0  0  0  0  0
    3.2427    1.6702    0.0819 C   0  0  0  0  0  0  0  0  0  0  0  0
   -1.1483   -0.9177    2.0257 C   0  0  0  0  0  0  0  0  0  0  0  0
   -1.9267   -0.7669    0.7440 C   0  0  0  0  0  0  0  0  0  0  0  0
   -2.1749    0.2791   -1.5338 C   0  0  0  0  0  0  0  0  0  0  0  0
   -3.0396   -1.4850    0.5284 C   0  0  0  0  0  0  0  0  0  0  0  0
   -3.2847   -0.4310   -1.7591 C   0  0  0  0  0  0  0  0  0  0  0  0
   -3.7878   -1.3749   -0.7421 C   0  0  0  0  0  0  0  0  0  0  0  0
   -2.5660    1.9736    0.6769 C   0  0  0  0  0  0  0  0  0  0  0  0
   -2.4137    3.3318    1.2917 C   0  0  0  0  0  0  0  0  0  0  0  0
  1 10  1  0
  2 13  1  0
  2 23  1  0
  3 22  2  0
  4 23  2  0
  5  6  1  0
  5  7  1  0
  5 11  1  0
  6  9  1  0
  6 10  1  0
  6 16  1  0
  7  8  1  0
  7 15  1  0
  8 12  1  0
  8 13  1  0
  9 12  1  0
 10 14  1  0
 11 14  1  0
 13 18  1  0
 13 19  1  0
 15 17  1  0
 17 18  1  0
 18 20  2  0
 19 21  2  0
 20 22  1  0
 21 22  1  0
 23 24  1  0
M  END
>  <PUBCHEM_COMPOUND_CID>  (1) 
20103

>  <PUBCHEM_CONFORMER_RMSD>  (1) 
0.6

>  <PUBCHEM_CONFORMER_DIVERSEORDER>  (1) 
2
40
6
12
26
24
9
18
22
31
15
43
4
30
17
38
37
42
7
23
3
33
35
21
41
1
34
25
14
8
28
36
5
27
32
20
16
11
10
13
39
29
19

>  <PUBCHEM_MMFF94_PARTIAL_CHARGES>  (1) 
18
1 -0.68
10 0.28
13 0.56
17 0.14
18 -0.28
19 -0.29
2 -0.43
20 -0.14
21 -0.14
22 0.54
23 0.66
24 0.06
3 -0.57
4 -0.57
44 0.15
45 0.4
46 0.15
47 0.15

>  <PUBCHEM_EFFECTIVE_ROTOR_COUNT>  (1) 
3.4

>  <PUBCHEM_PHARMACOPHORE_FEATURES>  (1) 
8
1 1 acceptor
1 1 donor
1 3 acceptor
1 4 acceptor
5 5 6 10 11 14 rings
6 13 18 19 20 21 22 rings
6 5 6 7 8 9 12 rings
6 7 8 13 15 17 18 rings

>  <PUBCHEM_HEAVY_ATOM_COUNT>  (1) 
24

>  <PUBCHEM_ATOM_DEF_STEREO_COUNT>  (1) 
2

>  <PUBCHEM_ATOM_UDEF_STEREO_COUNT>  (1) 
4

>  <PUBCHEM_BOND_DEF_STEREO_COUNT>  (1) 
0

>  <PUBCHEM_BOND_UDEF_STEREO_COUNT>  (1) 
0

>  <PUBCHEM_ISOTOPIC_ATOM_COUNT>  (1) 
0

>  <PUBCHEM_COMPONENT_COUNT>  (1) 
1

>  <PUBCHEM_CACTVS_TAUTO_COUNT>  (1) 
3

>  <PUBCHEM_CONFORMER_ID>  (1) 
00004E8700000002

>  <PUBCHEM_MMFF94_ENERGY>  (1) 
73.9079

>  <PUBCHEM_FEATURE_SELFOVERLAP>  (1) 
40.701

>  <PUBCHEM_SHAPE_FINGERPRINT>  (1) 
10366900 7 18260268590183485536
10863032 1 17916300528760264450
11315181 36 18259988197791630772
11578080 2 17971721519854537133
11640471 11 18119530925460536521
12236239 1 18259704476146058613
12403814 3 17418093252025126965
12596599 1 18187926118990642606
12633257 1 18115021888731408888
12714826 92 17346876754307198419
12788726 201 18412826885094170331
13140716 1 17458073663933031904
13224815 77 17894632556465081106
13583140 156 17202749420190618354
14289901 80 18202846547935611686
14787075 74 17758954109781821484
15196674 1 17022896852869058430
15309172 13 17022627446607706578
15534591 1 18267306430752667977
15788980 27 17275383192749564430
16945 1 18343295993929509730
17349148 13 18113897169307504682
17980427 23 18335148600347200228
1813 80 17559953393492397503
18186145 218 17821450136357184090
18219364 16 16443351948621134243
19862831 5 17967524679570190711
200 152 18334009527569828087
20645477 70 16660913405832433858
20775438 99 16608551711418257631
21033648 29 16370719335935532324
21033650 10 18126593157602406496
21304303 282 17910087141982776397
23402539 116 18412543210487380159
23419403 2 15956616048349991570
23557571 272 17704079473130802529
23559900 14 17532089569731783428
296302 2 14273732971396625374
312423 11 18411990186483247116
3286 77 18338221735462449562
4340502 62 17605293791684980169
463206 1 18120369023941511419
5104073 3 17603308163747414448
633830 44 18115883910042299466
6786 2 16911466671180142729

>  <PUBCHEM_SHAPE_MULTIPOLES>  (1) 
470.43
9.11
2.13
1.85
5.83
1.23
-0.08
-1.35
-1.87
-2.08
1.08
-0.56
0.07
-1.81

>  <PUBCHEM_SHAPE_SELFOVERLAP>  (1) 
1021.687

>  <PUBCHEM_SHAPE_VOLUME>  (1) 
252.3

>  <PUBCHEM_COORDINATE_TYPE>  (1) 
2
5
10

$$$$
