20112
     RDKit          3D

  7  6  0  0  1  0  0  0  0  0999 V2000
   -1.3210   -1.1629   -0.5755 O   0  0  0  0  0  0  0  0  0  0  0  0
    1.3167   -1.1603    0.4304 O   0  0  0  0  0  0  0  0  0  0  0  0
   -1.2559   -0.0309    0.2904 C   0  0  0  0  0  0  0  0  0  0  0  0
   -0.0192    0.8027   -0.0480 C   0  0  0  0  0  0  0  0  0  0  0  0
   -2.5352    0.7787    0.1241 C   0  0  0  0  0  0  0  0  0  0  0  0
    1.2769    0.0146    0.0687 C   0  0  0  0  0  0  0  0  0  0  0  0
    2.5377    0.7580   -0.2901 C   0  0  0  0  0  0  0  0  0  0  0  0
  1  3  1  0
  2  6  2  0
  3  4  1  0
  3  5  1  0
  4  6  1  0
  6  7  1  0
M  END
>  <PUBCHEM_COMPOUND_CID>  (1) 
20112

>  <PUBCHEM_CONFORMER_RMSD>  (1) 
0.4

>  <PUBCHEM_CONFORMER_DIVERSEORDER>  (1) 
2
16
12
7
1
6
14
10
15
13
5
11
8
9
4
3

>  <PUBCHEM_MMFF94_PARTIAL_CHARGES>  (1) 
7
1 -0.68
17 0.4
2 -0.57
3 0.28
4 0.06
6 0.45
7 0.06

>  <PUBCHEM_EFFECTIVE_ROTOR_COUNT>  (1) 
2

>  <PUBCHEM_PHARMACOPHORE_FEATURES>  (1) 
3
1 1 acceptor
1 1 donor
1 2 acceptor

>  <PUBCHEM_HEAVY_ATOM_COUNT>  (1) 
7

>  <PUBCHEM_ATOM_DEF_STEREO_COUNT>  (1) 
0

>  <PUBCHEM_ATOM_UDEF_STEREO_COUNT>  (1) 
1

>  <PUBCHEM_BOND_DEF_STEREO_COUNT>  (1) 
0

>  <PUBCHEM_BOND_UDEF_STEREO_COUNT>  (1) 
0

>  <PUBCHEM_ISOTOPIC_ATOM_COUNT>  (1) 
0

>  <PUBCHEM_COMPONENT_COUNT>  (1) 
1

>  <PUBCHEM_CACTVS_TAUTO_COUNT>  (1) 
3

>  <PUBCHEM_CONFORMER_ID>  (1) 
00004E9000000002

>  <PUBCHEM_MMFF94_ENERGY>  (1) 
5.3448

>  <PUBCHEM_FEATURE_SELFOVERLAP>  (1) 
15.226

>  <PUBCHEM_SHAPE_FINGERPRINT>  (1) 
12932741 1 16558743559315307232
14390081 3 18342457066626296320
16714656 1 18343871017093944405
18185500 45 18410852187373631746
20096714 4 18410295813031049368
21040471 1 18343299236750936065
23552423 10 18335421235948795326
24536 1 17458343060913138121
29004967 10 17385731282950202464
5460574 1 9799691489224514953

>  <PUBCHEM_SHAPE_MULTIPOLES>  (1) 
132.32
3.48
1.16
0.67
0.03
0.2
0.01
-0.84
0.11
-0.01
0.04
-0.02
0.04
-0.27

>  <PUBCHEM_SHAPE_SELFOVERLAP>  (1) 
238.23

>  <PUBCHEM_SHAPE_VOLUME>  (1) 
85.8

>  <PUBCHEM_COORDINATE_TYPE>  (1) 
2
5
10

$$$$
