20110
     RDKit          3D

 29 33  0  0  1  0  0  0  0  0999 V2000
    2.8277   -1.3095   -2.0950 O   0  0  0  0  0  0  0  0  0  0  0  0
    1.6888    1.8294    0.6115 O   0  0  0  0  0  0  0  0  0  0  0  0
    0.1765   -2.8808    1.8099 O   0  0  0  0  0  0  0  0  0  0  0  0
   -1.6476    0.8859   -1.5225 O   0  0  0  0  0  0  0  0  0  0  0  0
    1.7718    4.1290    0.6857 O   0  0  0  0  0  0  0  0  0  0  0  0
    4.9465   -0.7748   -0.1351 N   0  0  0  0  0  0  0  0  0  0  0  0
    1.9940   -1.3390    0.1434 N   0  0  0  0  0  0  0  0  0  0  0  0
   -3.5035   -0.3898   -0.0162 N   0  0  0  0  0  0  0  0  0  0  0  0
    2.0549    2.8680    2.5875 N   0  0  0  0  0  0  0  0  0  0  0  0
    3.7877    0.0811   -0.3923 C   0  0  0  0  0  0  0  0  0  0  0  0
    2.5275   -0.5003   -0.9583 C   0  0  0  0  0  0  0  0  0  0  0  0
    4.0231   -0.5200    0.9562 C   0  0  0  0  0  0  0  0  0  0  0  0
    2.9161   -1.4839    1.2656 C   0  0  0  0  0  0  0  0  0  0  0  0
    1.3232    0.4425   -1.2990 C   0  0  0  0  0  0  0  0  0  0  0  0
    0.6254   -1.2171    0.2098 C   0  0  0  0  0  0  0  0  0  0  0  0
    0.1760   -0.2650   -0.6050 C   0  0  0  0  0  0  0  0  0  0  0  0
    1.4543    1.8741   -0.7836 C   0  0  0  0  0  0  0  0  0  0  0  0
   -0.2589   -2.0063    1.0691 C   0  0  0  0  0  0  0  0  0  0  0  0
   -1.2506    0.0342   -0.7335 C   0  0  0  0  0  0  0  0  0  0  0  0
    3.1772   -0.5139   -3.2167 C   0  0  0  0  0  0  0  0  0  0  0  0
   -2.1948   -0.7434    0.1400 C   0  0  0  0  0  0  0  0  0  0  0  0
   -1.7241   -1.6909    0.9809 C   0  0  0  0  0  0  0  0  0  0  0  0
   -2.5842   -2.5212    1.8964 C   0  0  0  0  0  0  0  0  0  0  0  0
   -4.3096    0.1304    1.0895 C   0  0  0  0  0  0  0  0  0  0  0  0
   -4.2246   -0.6004   -1.2725 C   0  0  0  0  0  0  0  0  0  0  0  0
   -4.9672    1.4467    0.6799 C   0  0  0  0  0  0  0  0  0  0  0  0
   -4.8802    0.7044   -1.7211 C   0  0  0  0  0  0  0  0  0  0  0  0
    1.8327    3.0383    1.2434 C   0  0  0  0  0  0  0  0  0  0  0  0
   -5.7581    1.2925   -0.6179 C   0  0  0  0  0  0  0  0  0  0  0  0
  1 11  1  0
  1 20  1  0
  2 17  1  0
  2 28  1  0
  3 18  2  0
  4 19  2  0
  5 28  2  0
  6 10  1  0
  6 12  1  0
  7 11  1  0
  7 13  1  0
  7 15  1  0
  8 21  1  0
  8 24  1  0
  8 25  1  0
  9 28  1  0
 10 11  1  0
 10 12  1  0
 11 14  1  0
 12 13  1  0
 14 16  1  0
 14 17  1  0
 15 16  2  0
 15 18  1  0
 16 19  1  0
 18 22  1  0
 19 21  1  0
 21 22  2  0
 22 23  1  0
 24 26  1  0
 25 27  1  0
 26 29  1  0
 27 29  1  0
M  END
>  <PUBCHEM_COMPOUND_CID>  (1) 
20110

>  <PUBCHEM_CONFORMER_RMSD>  (1) 
0.8

>  <PUBCHEM_CONFORMER_DIVERSEORDER>  (1) 
1
10
9
7
11
5
12
3
13
6
8
4
2

>  <PUBCHEM_MMFF94_PARTIAL_CHARGES>  (1) 
31
1 -0.56
10 -0.04
11 0.74
12 -0.04
13 0.46
14 0.14
15 0.11
16 -0.12
17 0.28
18 0.54
19 0.54
2 -0.43
20 0.28
21 0.11
22 -0.12
23 0.14
24 0.37
25 0.37
28 0.78
3 -0.57
30 0.1
31 0.1
32 0.36
4 -0.57
5 -0.57
54 0.37
55 0.37
6 -0.68
7 -0.84
8 -0.84
9 -0.8

>  <PUBCHEM_EFFECTIVE_ROTOR_COUNT>  (1) 
6.8

>  <PUBCHEM_PHARMACOPHORE_FEATURES>  (1) 
13
1 1 acceptor
1 3 acceptor
1 4 acceptor
1 5 acceptor
1 6 cation
1 6 donor
1 7 cation
1 8 cation
1 9 donor
5 7 11 14 15 16 rings
6 15 16 18 19 21 22 rings
6 6 7 10 11 12 13 rings
6 8 24 25 26 27 29 rings

>  <PUBCHEM_HEAVY_ATOM_COUNT>  (1) 
29

>  <PUBCHEM_ATOM_DEF_STEREO_COUNT>  (1) 
2

>  <PUBCHEM_ATOM_UDEF_STEREO_COUNT>  (1) 
2

>  <PUBCHEM_BOND_DEF_STEREO_COUNT>  (1) 
0

>  <PUBCHEM_BOND_UDEF_STEREO_COUNT>  (1) 
0

>  <PUBCHEM_ISOTOPIC_ATOM_COUNT>  (1) 
0

>  <PUBCHEM_COMPONENT_COUNT>  (1) 
1

>  <PUBCHEM_CACTVS_TAUTO_COUNT>  (1) 
18

>  <PUBCHEM_CONFORMER_ID>  (1) 
00004E8E00000001

>  <PUBCHEM_MMFF94_ENERGY>  (1) 
100.2388

>  <PUBCHEM_FEATURE_SELFOVERLAP>  (1) 
66.14

>  <PUBCHEM_SHAPE_FINGERPRINT>  (1) 
10906281 52 18270975617277356900
11089746 13 18339912737418125973
11578080 2 18116726302967863608
12633257 1 17899665085736912472
12778500 126 13191169104466813157
12788726 201 18266470810548015300
13134695 92 18202291298948183980
13140716 1 17968104169790874107
13692114 37 18187919643214344691
14251764 38 18196362831051573849
14466204 15 18264481785302160369
14790565 3 17822584802223888693
15131766 46 16483555699841464058
15238133 3 18263657185634864596
15295992 7 18336831982692568409
1601671 61 17967817115350997942
16945 1 17968678067726774230
17980427 26 18122030291462758518
18186145 218 18335708256213270135
20600515 1 18335433335404223604
20691752 17 17604415422731086295
21033648 29 17750216085398353605
21860390 5 18131631209679869004
23559900 14 18041274469369063324
335352 9 17749389226394085390
350125 39 17896050982727223067
474 4 18198327640849911817
495365 180 18271236243970817569
5104073 3 17531250616510722568
5895379 119 16844745148294451769
6086070 43 18411694396422815131
7226269 152 18334858286079588096
81228 2 17911827703275287304
8509985 295 18260538996575683664
9971528 1 17704077248337724116
9981440 41 17409910849331223937

>  <PUBCHEM_SHAPE_MULTIPOLES>  (1) 
547.54
9.72
3.09
2.23
9.5
1.79
0.68
1.88
1.89
-1.12
-2.57
-1.33
0.31
1.6

>  <PUBCHEM_SHAPE_SELFOVERLAP>  (1) 
1194.163

>  <PUBCHEM_SHAPE_VOLUME>  (1) 
297.5

>  <PUBCHEM_COORDINATE_TYPE>  (1) 
2
5
10

$$$$
