20129
     RDKit          3D

 11 11  0  0  1  0  0  0  0  0999 V2000
   -0.7002    0.0359   -0.9303 O   0  0  0  0  0  0  0  0  0  0  0  0
   -3.6910    0.6639    1.0394 O   0  0  0  0  0  0  0  0  0  0  0  0
   -1.7370   -0.2650    0.0026 C   0  0  0  0  0  0  0  0  0  0  0  0
   -2.6629    0.9411    0.0944 C   0  0  0  0  0  0  0  0  0  0  0  0
   -2.4817   -1.5035   -0.4722 C   0  0  0  0  0  0  0  0  0  0  0  0
    0.5798    0.0282   -0.4471 C   0  0  0  0  0  0  0  0  0  0  0  0
    1.1009   -1.1355    0.1096 C   0  0  0  0  0  0  0  0  0  0  0  0
    1.3497    1.1850   -0.5152 C   0  0  0  0  0  0  0  0  0  0  0  0
    2.4055   -1.1425    0.6032 C   0  0  0  0  0  0  0  0  0  0  0  0
    2.6545    1.1780   -0.0218 C   0  0  0  0  0  0  0  0  0  0  0  0
    3.1823    0.0143    0.5374 C   0  0  0  0  0  0  0  0  0  0  0  0
  1  3  1  0
  1  6  1  0
  2  4  1  0
  3  4  1  0
  3  5  1  0
  6  7  2  0
  6  8  1  0
  7  9  1  0
  8 10  2  0
  9 11  2  0
 10 11  1  0
M  END
>  <PUBCHEM_COMPOUND_CID>  (1) 
20129

>  <PUBCHEM_CONFORMER_RMSD>  (1) 
0.6

>  <PUBCHEM_CONFORMER_DIVERSEORDER>  (1) 
2
15
7
14
6
9
13
3
5
10
4
11
12
1
8

>  <PUBCHEM_MMFF94_PARTIAL_CHARGES>  (1) 
16
1 -0.36
10 -0.15
11 -0.15
18 0.15
19 0.15
2 -0.68
20 0.15
21 0.15
22 0.15
23 0.4
3 0.28
4 0.28
6 0.08
7 -0.15
8 -0.15
9 -0.15

>  <PUBCHEM_EFFECTIVE_ROTOR_COUNT>  (1) 
3

>  <PUBCHEM_PHARMACOPHORE_FEATURES>  (1) 
4
1 1 acceptor
1 2 acceptor
1 2 donor
6 6 7 8 9 10 11 rings

>  <PUBCHEM_HEAVY_ATOM_COUNT>  (1) 
11

>  <PUBCHEM_ATOM_DEF_STEREO_COUNT>  (1) 
0

>  <PUBCHEM_ATOM_UDEF_STEREO_COUNT>  (1) 
1

>  <PUBCHEM_BOND_DEF_STEREO_COUNT>  (1) 
0

>  <PUBCHEM_BOND_UDEF_STEREO_COUNT>  (1) 
0

>  <PUBCHEM_ISOTOPIC_ATOM_COUNT>  (1) 
0

>  <PUBCHEM_COMPONENT_COUNT>  (1) 
1

>  <PUBCHEM_CACTVS_TAUTO_COUNT>  (1) 
1

>  <PUBCHEM_CONFORMER_ID>  (1) 
00004EA100000002

>  <PUBCHEM_MMFF94_ENERGY>  (1) 
33.0927

>  <PUBCHEM_FEATURE_SELFOVERLAP>  (1) 
20.297

>  <PUBCHEM_SHAPE_FINGERPRINT>  (1) 
10219947 1 17748820852054516692
12138202 97 13901609883741679396
12251169 10 18409166597541264561
12696612 119 18261114088359667012
12932764 1 18186517687502527238
13764800 53 16988297429656196187
14144814 61 18410007741137507359
14325111 11 18410570734114448236
15775835 57 18343025518385188689
16945 1 18187916279610483238
17844478 74 17313385591132864909
20279233 1 16153416272926671299
20281407 28 16081090346532973049
20645477 70 17823398457781743879
20871998 22 18050846620549456562
2748010 2 17616520762417005550
3248919 1 18131343111778743735

>  <PUBCHEM_SHAPE_MULTIPOLES>  (1) 
214.64
5.64
1.45
0.86
2.23
0.16
0.04
-0.59
1.5
-0.04
-0.03
0.24
-0.03
-0.64

>  <PUBCHEM_SHAPE_SELFOVERLAP>  (1) 
433.166

>  <PUBCHEM_SHAPE_VOLUME>  (1) 
126.4

>  <PUBCHEM_COORDINATE_TYPE>  (1) 
2
5
10

$$$$
