20123
     RDKit          3D

 12 11  0  0  0  0  0  0  0  0999 V2000
   -3.5092    0.6069    0.3764 O   0  0  0  0  0  0  0  0  0  0  0  0
    3.5236    0.5752   -0.3729 O   0  0  0  0  0  0  0  0  0  0  0  0
   -1.6966    1.6632   -0.2915 O   0  0  0  0  0  0  0  0  0  0  0  0
    1.7256    1.6659    0.2789 O   0  0  0  0  0  0  0  0  0  0  0  0
   -1.8074   -0.5726   -0.4998 N   0  0  0  0  0  0  0  0  0  0  0  0
    1.7914   -0.5701    0.5027 N   0  0  0  0  0  0  0  0  0  0  0  0
   -2.3681    0.6425   -0.0995 N   0  0  0  0  0  0  0  0  0  0  0  0
    2.3809    0.6329    0.0970 N   0  0  0  0  0  0  0  0  0  0  0  0
   -0.3527   -0.5772   -0.6778 C   0  0  0  0  0  0  0  0  0  0  0  0
    0.3435   -0.5476    0.6796 C   0  0  0  0  0  0  0  0  0  0  0  0
   -2.2458   -1.7553    0.2464 C   0  0  0  0  0  0  0  0  0  0  0  0
    2.2149   -1.7637   -0.2396 C   0  0  0  0  0  0  0  0  0  0  0  0
  1  7  1  0
  2  8  1  0
  3  7  2  0
  4  8  2  0
  5  7  1  0
  5  9  1  0
  5 11  1  0
  6  8  1  0
  6 10  1  0
  6 12  1  0
  9 10  1  0
M  CHG  4   1  -1   2  -1   7   1   8   1
M  END
>  <PUBCHEM_COMPOUND_CID>  (1) 
20123

>  <PUBCHEM_CONFORMER_RMSD>  (1) 
0.6

>  <PUBCHEM_CONFORMER_DIVERSEORDER>  (1) 
1
46
80
13
63
35
22
68
76
90
40
95
21
98
48
93
10
41
16
31
25
37
5
61
56
69
11
73
29
53
72
55
99
103
18
54
47
3
96
60
50
71
57
84
39
2
7
58
81
52
9
14
88
86
82
45
79
24
42
100
26
94
51
77
89
6
67
83
91
64
19
28
38
34
78
44
85
30
97
8
27
87
101
62
17
12
33
49
36
59
20
15
92
4
102
23
32
75
65
66
43
74
70

>  <PUBCHEM_MMFF94_PARTIAL_CHARGES>  (1) 
12
1 -0.52
10 0.27
11 0.27
12 0.27
2 -0.52
3 -0.52
4 -0.52
5 -0.53
6 -0.53
7 1.03
8 1.03
9 0.27

>  <PUBCHEM_EFFECTIVE_ROTOR_COUNT>  (1) 
5

>  <PUBCHEM_PHARMACOPHORE_FEATURES>  (1) 
4
1 1 acceptor
1 2 acceptor
1 3 acceptor
1 4 acceptor

>  <PUBCHEM_HEAVY_ATOM_COUNT>  (1) 
12

>  <PUBCHEM_ATOM_DEF_STEREO_COUNT>  (1) 
0

>  <PUBCHEM_ATOM_UDEF_STEREO_COUNT>  (1) 
0

>  <PUBCHEM_BOND_DEF_STEREO_COUNT>  (1) 
0

>  <PUBCHEM_BOND_UDEF_STEREO_COUNT>  (1) 
0

>  <PUBCHEM_ISOTOPIC_ATOM_COUNT>  (1) 
0

>  <PUBCHEM_COMPONENT_COUNT>  (1) 
1

>  <PUBCHEM_CACTVS_TAUTO_COUNT>  (1) 
1

>  <PUBCHEM_CONFORMER_ID>  (1) 
00004E9B00000001

>  <PUBCHEM_MMFF94_ENERGY>  (1) 
34.2171

>  <PUBCHEM_FEATURE_SELFOVERLAP>  (1) 
20.458

>  <PUBCHEM_SHAPE_FINGERPRINT>  (1) 
11031198 65 18336276694945024110
12897270 3 18339355391600330078
12932764 1 17531240617452687251
13380535 21 18410865355733117091
14325111 11 18410855460159972711
14390081 3 18412257371844995600
14648413 74 18412263904585432226
15310529 11 18271804648401141334
15775835 57 18410579482715118116
170605 34 18259984877217441000
19973954 147 18410854360616566503
20871998 184 18342181124121519863
21501502 16 18410852165899314947
23552423 10 18409441458115858731
3248919 1 18338500997956411843
5084963 1 18058437708640159515

>  <PUBCHEM_SHAPE_MULTIPOLES>  (1) 
203.55
5.15
1.78
0.73
0.03
0.08
0
-0.81
0
-0.01
0
0
0.09
0.12

>  <PUBCHEM_SHAPE_SELFOVERLAP>  (1) 
386.099

>  <PUBCHEM_SHAPE_VOLUME>  (1) 
126.9

>  <PUBCHEM_COORDINATE_TYPE>  (1) 
2
5
10

$$$$
