20120
     RDKit          3D

  6  5  0  0  0  0  0  0  0  0999 V2000
    1.3327    1.0787    0.0015 O   0  0  0  0  0  0  0  0  0  0  0  0
    1.2672   -1.1196    0.1044 O   0  0  0  0  0  0  0  0  0  0  0  0
   -0.6292    0.0208   -0.2931 N   0  0  0  0  0  0  0  0  0  0  0  0
    0.7426   -0.0078   -0.0316 N   0  0  0  0  0  0  0  0  0  0  0  0
   -1.3410    1.2197    0.1583 C   0  0  0  0  0  0  0  0  0  0  0  0
   -1.3724   -1.1918    0.0604 C   0  0  0  0  0  0  0  0  0  0  0  0
  1  4  1  0
  2  4  2  0
  3  4  1  0
  3  5  1  0
  3  6  1  0
M  CHG  2   1  -1   4   1
M  END
>  <PUBCHEM_COMPOUND_CID>  (1) 
20120

>  <PUBCHEM_CONFORMER_RMSD>  (1) 
0.4

>  <PUBCHEM_CONFORMER_DIVERSEORDER>  (1) 
1
3
2

>  <PUBCHEM_MMFF94_PARTIAL_CHARGES>  (1) 
6
1 -0.52
2 -0.52
3 -0.53
4 1.03
5 0.27
6 0.27

>  <PUBCHEM_EFFECTIVE_ROTOR_COUNT>  (1) 
1

>  <PUBCHEM_PHARMACOPHORE_FEATURES>  (1) 
2
1 1 acceptor
1 2 acceptor

>  <PUBCHEM_HEAVY_ATOM_COUNT>  (1) 
6

>  <PUBCHEM_ATOM_DEF_STEREO_COUNT>  (1) 
0

>  <PUBCHEM_ATOM_UDEF_STEREO_COUNT>  (1) 
0

>  <PUBCHEM_BOND_DEF_STEREO_COUNT>  (1) 
0

>  <PUBCHEM_BOND_UDEF_STEREO_COUNT>  (1) 
0

>  <PUBCHEM_ISOTOPIC_ATOM_COUNT>  (1) 
0

>  <PUBCHEM_COMPONENT_COUNT>  (1) 
1

>  <PUBCHEM_CACTVS_TAUTO_COUNT>  (1) 
1

>  <PUBCHEM_CONFORMER_ID>  (1) 
00004E9800000001

>  <PUBCHEM_MMFF94_ENERGY>  (1) 
15.5512

>  <PUBCHEM_FEATURE_SELFOVERLAP>  (1) 
10.228

>  <PUBCHEM_SHAPE_FINGERPRINT>  (1) 
139733 1 9438589893394311679
16714656 1 17834404796935239724
20096714 4 18339645512335742481
21015797 1 9295024465168659901
21040471 1 18267305322324070637
24536 1 18338783568154661477
29004967 10 17973447895022738323
5943 1 17388288811774106605

>  <PUBCHEM_SHAPE_MULTIPOLES>  (1) 
101.78
1.9
1.49
0.57
0.11
0
0.01
0.01
0.07
-0.26
0.08
-0.07
0
-0.05

>  <PUBCHEM_SHAPE_SELFOVERLAP>  (1) 
180.684

>  <PUBCHEM_SHAPE_VOLUME>  (1) 
68.1

>  <PUBCHEM_COORDINATE_TYPE>  (1) 
2
5
10

$$$$
