20128
     RDKit          3D

 12 13  0  0  1  0  0  0  0  0999 V2000
   -0.5623   -0.4464   -0.0721 O   0  0  0  0  0  0  0  0  0  0  0  0
   -0.2635    1.8586    0.2585 O   0  0  0  0  0  0  0  0  0  0  0  0
   -3.0289   -1.8837    0.0618 O   0  0  0  0  0  0  0  0  0  0  0  0
    0.4127    0.6017    0.0820 C   0  0  0  0  0  0  0  0  0  0  0  0
    1.2694    0.3284    1.3221 C   0  0  0  0  0  0  0  0  0  0  0  0
    1.2750    0.6645   -1.1827 C   0  0  0  0  0  0  0  0  0  0  0  0
    2.1400   -0.9157    1.1573 C   0  0  0  0  0  0  0  0  0  0  0  0
    2.1475   -0.5785   -1.3475 C   0  0  0  0  0  0  0  0  0  0  0  0
    2.9947   -0.8380   -0.1048 C   0  0  0  0  0  0  0  0  0  0  0  0
   -1.8038    0.1525    0.3069 C   0  0  0  0  0  0  0  0  0  0  0  0
   -1.6209    1.5943   -0.0970 C   0  0  0  0  0  0  0  0  0  0  0  0
   -2.9599   -0.5377   -0.3845 C   0  0  0  0  0  0  0  0  0  0  0  0
  1  4  1  0
  1 10  1  0
  2  4  1  0
  2 11  1  0
  3 12  1  0
  4  5  1  0
  4  6  1  0
  5  7  1  0
  6  8  1  0
  7  9  1  0
  8  9  1  0
 10 11  1  0
 10 12  1  0
M  END
>  <PUBCHEM_COMPOUND_CID>  (1) 
20128

>  <PUBCHEM_CONFORMER_RMSD>  (1) 
0.6

>  <PUBCHEM_CONFORMER_DIVERSEORDER>  (1) 
2
11
8
1
9
7
5
6
10
4
3

>  <PUBCHEM_MMFF94_PARTIAL_CHARGES>  (1) 
8
1 -0.56
10 0.28
11 0.28
12 0.28
2 -0.56
28 0.4
3 -0.68
4 0.56

>  <PUBCHEM_EFFECTIVE_ROTOR_COUNT>  (1) 
2.8

>  <PUBCHEM_PHARMACOPHORE_FEATURES>  (1) 
6
1 1 acceptor
1 2 acceptor
1 3 acceptor
1 3 donor
5 1 2 4 10 11 rings
6 4 5 6 7 8 9 rings

>  <PUBCHEM_HEAVY_ATOM_COUNT>  (1) 
12

>  <PUBCHEM_ATOM_DEF_STEREO_COUNT>  (1) 
0

>  <PUBCHEM_ATOM_UDEF_STEREO_COUNT>  (1) 
1

>  <PUBCHEM_BOND_DEF_STEREO_COUNT>  (1) 
0

>  <PUBCHEM_BOND_UDEF_STEREO_COUNT>  (1) 
0

>  <PUBCHEM_ISOTOPIC_ATOM_COUNT>  (1) 
0

>  <PUBCHEM_COMPONENT_COUNT>  (1) 
1

>  <PUBCHEM_CACTVS_TAUTO_COUNT>  (1) 
1

>  <PUBCHEM_CONFORMER_ID>  (1) 
00004EA000000002

>  <PUBCHEM_MMFF94_ENERGY>  (1) 
20.917

>  <PUBCHEM_FEATURE_SELFOVERLAP>  (1) 
30.5

>  <PUBCHEM_SHAPE_FINGERPRINT>  (1) 
10857977 72 18060413599385426028
11471102 22 16272203059721600562
11769659 78 18261104119972778946
12202030 40 17631742551636716142
12423570 1 17101712934271142560
12716758 59 17912087144367987068
12897270 3 15719397247627572447
12932764 1 18041849410750121804
14128692 85 18186519899473948944
16945 1 18124034533450805984
18186145 218 12324514290751024155
20281407 28 18131077017021962543
20645477 70 17979347896414986495
20653085 51 14851884721186204037
20653091 64 18339365274299102744
20711985 344 18340489946140762601
20871998 22 18342739667100404483
21061003 4 15984549888614678918
230 275 9150908169186615363
23419403 2 12328123021611343672
23552423 10 18186525435750266005
23559900 14 18127124166264030978
29004967 10 16486689152443799664
369184 2 14979661148892687697
8030462 33 17749395844774482388
81228 2 18129101121997864913

>  <PUBCHEM_SHAPE_MULTIPOLES>  (1) 
229.35
4.45
1.55
1.19
1.19
0.08
0.03
-2.23
0.37
0.99
-0.05
-0.88
-0.02
-0.16

>  <PUBCHEM_SHAPE_SELFOVERLAP>  (1) 
466.432

>  <PUBCHEM_SHAPE_VOLUME>  (1) 
132.8

>  <PUBCHEM_COORDINATE_TYPE>  (1) 
2
5
10

$$$$
