20147
     RDKit          3D

 18 18  0  0  1  0  0  0  0  0999 V2000
   -1.8909    2.3159    1.4326 O   0  0  0  0  0  0  0  0  0  0  0  0
    5.0944   -0.7577    0.4456 O   0  0  0  0  0  0  0  0  0  0  0  0
    4.7584    0.5835   -1.2595 O   0  0  0  0  0  0  0  0  0  0  0  0
   -1.2048   -0.2472    0.6760 N   0  0  0  0  0  0  0  0  0  0  0  0
   -2.4165    2.7929   -0.7516 N   0  0  0  0  0  0  0  0  0  0  0  0
    4.3277   -0.1026   -0.3012 N   0  0  0  0  0  0  0  0  0  0  0  0
   -3.5844   -0.1043    0.0987 C   0  0  0  0  0  0  0  0  0  0  0  0
   -3.7648   -1.5701   -0.3478 C   0  0  0  0  0  0  0  0  0  0  0  0
   -2.1776    0.4700   -0.1192 C   0  0  0  0  0  0  0  0  0  0  0  0
   -3.4137   -1.7781   -1.8216 C   0  0  0  0  0  0  0  0  0  0  0  0
   -2.8983   -2.4850    0.5225 C   0  0  0  0  0  0  0  0  0  0  0  0
   -2.1438    1.9344    0.2923 C   0  0  0  0  0  0  0  0  0  0  0  0
    0.1577   -0.2118    0.4352 C   0  0  0  0  0  0  0  0  0  0  0  0
    1.0550   -0.9315    1.2474 C   0  0  0  0  0  0  0  0  0  0  0  0
    0.6852    0.5452   -0.6287 C   0  0  0  0  0  0  0  0  0  0  0  0
    2.4282   -0.8955    1.0049 C   0  0  0  0  0  0  0  0  0  0  0  0
    2.0583    0.5812   -0.8713 C   0  0  0  0  0  0  0  0  0  0  0  0
    2.9299   -0.1393   -0.0545 C   0  0  0  0  0  0  0  0  0  0  0  0
  1 12  2  0
  2  6  1  0
  3  6  2  0
  4  9  1  0
  4 13  1  0
  5 12  1  0
  6 18  1  0
  7  8  1  0
  7  9  1  0
  8 10  1  0
  8 11  1  0
  9 12  1  0
 13 14  2  0
 13 15  1  0
 14 16  1  0
 15 17  2  0
 16 18  2  0
 17 18  1  0
M  CHG  2   2  -1   6   1
M  END
>  <PUBCHEM_COMPOUND_CID>  (1) 
20147

>  <PUBCHEM_CONFORMER_RMSD>  (1) 
0.8

>  <PUBCHEM_CONFORMER_DIVERSEORDER>  (1) 
1
5
22
20
28
23
27
19
8
15
6
25
9
24
21
4
26
7
17
10
18
2
14
3
11
12
16
13

>  <PUBCHEM_MMFF94_PARTIAL_CHARGES>  (1) 
21
1 -0.57
12 0.57
13 0.1
14 -0.15
15 -0.15
16 -0.15
17 -0.15
18 0.13
2 -0.52
29 0.4
3 -0.52
30 0.15
31 0.15
32 0.37
33 0.37
34 0.15
35 0.15
4 -0.87
5 -0.8
6 0.91
9 0.43

>  <PUBCHEM_EFFECTIVE_ROTOR_COUNT>  (1) 
6

>  <PUBCHEM_PHARMACOPHORE_FEATURES>  (1) 
9
1 1 acceptor
1 2 acceptor
1 2 anion
1 3 acceptor
1 4 cation
1 4 donor
1 5 donor
3 8 10 11 hydrophobe
6 13 14 15 16 17 18 rings

>  <PUBCHEM_HEAVY_ATOM_COUNT>  (1) 
18

>  <PUBCHEM_ATOM_DEF_STEREO_COUNT>  (1) 
0

>  <PUBCHEM_ATOM_UDEF_STEREO_COUNT>  (1) 
1

>  <PUBCHEM_BOND_DEF_STEREO_COUNT>  (1) 
0

>  <PUBCHEM_BOND_UDEF_STEREO_COUNT>  (1) 
0

>  <PUBCHEM_ISOTOPIC_ATOM_COUNT>  (1) 
0

>  <PUBCHEM_COMPONENT_COUNT>  (1) 
1

>  <PUBCHEM_CACTVS_TAUTO_COUNT>  (1) 
2

>  <PUBCHEM_CONFORMER_ID>  (1) 
00004EB300000001

>  <PUBCHEM_MMFF94_ENERGY>  (1) 
58.4791

>  <PUBCHEM_FEATURE_SELFOVERLAP>  (1) 
45.751

>  <PUBCHEM_SHAPE_FINGERPRINT>  (1) 
11045515 52 17676204727832747189
11046707 91 18131067177637061287
11543360 7 18273221919516715332
12236239 1 18187366523775502579
12553582 1 18338788026979996635
12788726 201 18339349778726771467
13583140 156 17488441015525147898
13675066 3 12751248016529494722
14251751 93 18272932687439100590
15669948 3 18339634556269601531
16752209 62 18338779162024955815
17349148 13 17676202485732918922
17862501 102 18333728018512713594
200 152 18260545662470649127
20300324 65 18410296921222353976
20645477 70 15140948522983468674
20871999 31 18337377306553926559
21061003 4 16343702162082316219
21634736 98 18190462859835119814
22094290 60 18202003226511309890
231179 274 15285352942704818366
23402539 116 18409727378509983687
23402655 69 17749100080610441807
23557571 272 18131637759357035865
23559900 14 18339635737290922408
23598291 2 17969770891710876866
238078 22 18262523731271068459
3268164 11 18411132537063811821
57096353 35 18187367653214868598
603831 33 18261101976567839891
6049 1 17489575775474573904
633830 44 17096665218448835302
7615 1 17968642822839683840
81228 2 18342740702683362793

>  <PUBCHEM_SHAPE_MULTIPOLES>  (1) 
337.88
8.72
2.32
1.27
8.17
1
-0.18
-2.69
-2.11
-3.29
0.14
-0.2
-0.13
-1.09

>  <PUBCHEM_SHAPE_SELFOVERLAP>  (1) 
689.959

>  <PUBCHEM_SHAPE_VOLUME>  (1) 
195.8

>  <PUBCHEM_COORDINATE_TYPE>  (1) 
2
5
10

$$$$
