20158
     RDKit          3D

 36 41  0  0  1  0  0  0  0  0999 V2000
    1.6275    0.5164    1.5216 O   0  0  0  0  0  0  0  0  0  0  0  0
    3.1711   -2.1478    0.9095 O   0  0  0  0  0  0  0  0  0  0  0  0
   -4.7789    1.7190    1.2890 O   0  0  0  0  0  0  0  0  0  0  0  0
   -6.1471   -0.6398    0.5085 O   0  0  0  0  0  0  0  0  0  0  0  0
    5.5625    0.9038    1.1359 O   0  0  0  0  0  0  0  0  0  0  0  0
    4.0457   -3.0376   -1.0349 O   0  0  0  0  0  0  0  0  0  0  0  0
    7.5122    1.8294    0.4222 O   0  0  0  0  0  0  0  0  0  0  0  0
   -7.1185   -2.3131   -0.7538 O   0  0  0  0  0  0  0  0  0  0  0  0
    0.7468    0.4592    0.3890 C   0  0  0  0  0  0  0  0  0  0  0  0
    1.4162    0.5284   -0.9750 C   0  0  0  0  0  0  0  0  0  0  0  0
   -0.6172    1.0850    0.5662 C   0  0  0  0  0  0  0  0  0  0  0  0
    1.2057   -0.7823    1.0855 C   0  0  0  0  0  0  0  0  0  0  0  0
   -1.5977    0.5251   -0.5060 C   0  0  0  0  0  0  0  0  0  0  0  0
    2.6250   -0.4833   -0.8656 C   0  0  0  0  0  0  0  0  0  0  0  0
    2.1308   -1.5280    0.1751 C   0  0  0  0  0  0  0  0  0  0  0  0
   -3.0516    1.1408   -0.3828 C   0  0  0  0  0  0  0  0  0  0  0  0
    0.4024    0.0038   -2.0219 C   0  0  0  0  0  0  0  0  0  0  0  0
   -0.9750    0.6702   -1.9189 C   0  0  0  0  0  0  0  0  0  0  0  0
   -1.1804    0.9318    1.9855 C   0  0  0  0  0  0  0  0  0  0  0  0
   -3.5789    0.9543    1.0874 C   0  0  0  0  0  0  0  0  0  0  0  0
    1.8528    1.9601   -1.3227 C   0  0  0  0  0  0  0  0  0  0  0  0
   -2.5812    1.5096    2.1196 C   0  0  0  0  0  0  0  0  0  0  0  0
   -4.0500    0.4561   -1.3670 C   0  0  0  0  0  0  0  0  0  0  0  0
    3.9400    0.1395   -0.4831 C   0  0  0  0  0  0  0  0  0  0  0  0
   -3.9119   -0.5280    1.4072 C   0  0  0  0  0  0  0  0  0  0  0  0
   -3.0426    2.6462   -0.7677 C   0  0  0  0  0  0  0  0  0  0  0  0
   -4.3326   -1.0103   -1.0429 C   0  0  0  0  0  0  0  0  0  0  0  0
   -4.8384   -1.1914    0.3844 C   0  0  0  0  0  0  0  0  0  0  0  0
    4.8297    0.5660   -1.5316 C   0  0  0  0  0  0  0  0  0  0  0  0
    4.3366    0.3236    0.7803 C   0  0  0  0  0  0  0  0  0  0  0  0
    4.0692   -2.8794    0.1782 C   0  0  0  0  0  0  0  0  0  0  0  0
    6.0096    1.1248   -1.2456 C   0  0  0  0  0  0  0  0  0  0  0  0
    5.1072   -3.4725    1.0820 C   0  0  0  0  0  0  0  0  0  0  0  0
    6.4291    1.3174    0.1585 C   0  0  0  0  0  0  0  0  0  0  0  0
   -7.0937   -1.1682   -0.3229 C   0  0  0  0  0  0  0  0  0  0  0  0
   -8.1245   -0.1286   -0.6430 C   0  0  0  0  0  0  0  0  0  0  0  0
  1  9  1  0
  1 12  1  0
  2 15  1  0
  2 31  1  0
  3 20  1  0
  4 28  1  0
  4 35  1  0
  5 30  1  0
  5 34  1  0
  6 31  2  0
  7 34  2  0
  8 35  2  0
  9 10  1  0
  9 11  1  0
  9 12  1  0
 10 14  1  0
 10 17  1  0
 10 21  1  0
 11 13  1  0
 11 19  1  0
 12 15  1  0
 13 16  1  0
 13 18  1  0
 14 15  1  0
 14 24  1  0
 16 20  1  0
 16 23  1  0
 16 26  1  0
 17 18  1  0
 19 22  1  0
 20 22  1  0
 20 25  1  0
 23 27  1  0
 24 29  1  0
 24 30  2  0
 25 28  1  0
 27 28  1  0
 29 32  2  0
 31 33  1  0
 32 34  1  0
 35 36  1  0
M  END
>  <PUBCHEM_COMPOUND_CID>  (1) 
20158

>  <PUBCHEM_CONFORMER_RMSD>  (1) 
1

>  <PUBCHEM_CONFORMER_DIVERSEORDER>  (1) 
1
7
2
14
11
6
4
8
15
13
12
5
10
16
9
3

>  <PUBCHEM_MMFF94_PARTIAL_CHARGES>  (1) 
30
1 -0.3
10 0.09
11 0.09
12 -0.05
14 0.14
15 0.38
2 -0.43
20 0.28
24 -0.14
28 0.28
29 -0.15
3 -0.68
30 -0.07
31 0.66
32 -0.14
33 0.06
34 0.71
35 0.66
36 0.06
38 0.1
4 -0.43
5 -0.23
6 -0.57
63 0.4
64 0.15
65 0.15
66 0.15
7 -0.57
8 -0.57
9 -0.04

>  <PUBCHEM_EFFECTIVE_ROTOR_COUNT>  (1) 
7.2

>  <PUBCHEM_PHARMACOPHORE_FEATURES>  (1) 
11
1 1 acceptor
1 3 acceptor
1 3 donor
1 6 acceptor
1 7 acceptor
1 8 acceptor
6 1 9 10 12 14 15 rings
6 11 13 16 19 20 22 rings
6 16 20 23 25 27 28 rings
6 5 24 29 30 32 34 rings
6 9 10 11 13 17 18 rings

>  <PUBCHEM_HEAVY_ATOM_COUNT>  (1) 
36

>  <PUBCHEM_ATOM_DEF_STEREO_COUNT>  (1) 
8

>  <PUBCHEM_ATOM_UDEF_STEREO_COUNT>  (1) 
2

>  <PUBCHEM_BOND_DEF_STEREO_COUNT>  (1) 
0

>  <PUBCHEM_BOND_UDEF_STEREO_COUNT>  (1) 
0

>  <PUBCHEM_ISOTOPIC_ATOM_COUNT>  (1) 
0

>  <PUBCHEM_COMPONENT_COUNT>  (1) 
1

>  <PUBCHEM_CACTVS_TAUTO_COUNT>  (1) 
1

>  <PUBCHEM_CONFORMER_ID>  (1) 
00004EBE00000001

>  <PUBCHEM_MMFF94_ENERGY>  (1) 
130.1992

>  <PUBCHEM_FEATURE_SELFOVERLAP>  (1) 
56.006

>  <PUBCHEM_SHAPE_FINGERPRINT>  (1) 
10165383 225 14189302581601321069
11963148 33 18261949768858652154
12236239 1 18272940392425715376
12596602 18 18202006503639889792
13224815 77 16200146556579083049
13583140 156 18271513234870224556
13631057 29 18270677713544434503
13636023 20 18041551460321120664
13726171 33 16988298481796902280
13782708 43 18336267821284757739
13811026 1 16805595958781778628
13914758 101 13045930322522998813
14118638 360 18411984641506154089
14394314 77 18341615928242697825
14955137 171 15841273748048652985
15064981 113 12613020704694119435
15064986 266 18115038411654927203
15183329 4 11458424605159731074
15238133 3 12468641650632451479
15301273 46 16200440169681745089
15461852 350 15719682047109495834
15685185 35 17911797192171346344
18608769 82 15626224649960327501
19315092 285 18339636716875866802
19377110 9 18202559562758505514
19841028 212 18408882919669324907
21223535 225 16009295545229299463
23559900 14 16154289187134851066
23569917 315 18335141986594118506
2838139 119 8142091949083850339
3009799 131 15430029989575084157
32027 91 17826224095634051922
3633792 109 18187361005190900735
4325135 7 18334012817583030196
4340502 62 18411418423779082894
45266715 3 17022617559619944002
5104073 3 18341611447747659528
6004065 56 17749957781358546605
613672 6 17167874062134232537
6523845 18 13614526259620917885

>  <PUBCHEM_SHAPE_MULTIPOLES>  (1) 
693.91
18.19
2.65
1.8
9.05
1.99
0.18
3.68
-1.25
-2.86
0.05
0.39
-0.44
-1.12

>  <PUBCHEM_SHAPE_SELFOVERLAP>  (1) 
1511.827

>  <PUBCHEM_SHAPE_VOLUME>  (1) 
372

>  <PUBCHEM_COORDINATE_TYPE>  (1) 
2
5
10

$$$$
