20155
     RDKit          3D

 10 10  0  0  1  0  0  0  0  0999 V2000
    1.7459   -1.6024    0.7446 O   0  0  0  0  0  0  0  0  0  0  0  0
   -0.0556   -0.0814    0.3190 C   0  0  0  0  0  0  0  0  0  0  0  0
    1.3833   -0.2159    0.6876 C   0  0  0  0  0  0  0  0  0  0  0  0
   -0.8070    0.9824    0.8186 C   0  0  0  0  0  0  0  0  0  0  0  0
   -0.6501   -1.0191   -0.5255 C   0  0  0  0  0  0  0  0  0  0  0  0
   -2.1526    1.1087    0.4739 C   0  0  0  0  0  0  0  0  0  0  0  0
   -1.9959   -0.8928   -0.8703 C   0  0  0  0  0  0  0  0  0  0  0  0
   -2.7470    0.1711   -0.3705 C   0  0  0  0  0  0  0  0  0  0  0  0
    2.2797    0.4869   -0.2537 C   0  0  0  0  0  0  0  0  0  0  0  0
    2.9993    1.0625   -1.0237 C   0  0  0  0  0  0  0  0  0  0  0  0
  1  3  1  0
  2  3  1  0
  2  4  2  0
  2  5  1  0
  3  9  1  0
  4  6  1  0
  5  7  2  0
  6  8  2  0
  7  8  1  0
  9 10  3  0
M  END
>  <PUBCHEM_COMPOUND_CID>  (1) 
20155

>  <PUBCHEM_CONFORMER_RMSD>  (1) 
0.4

>  <PUBCHEM_CONFORMER_DIVERSEORDER>  (1) 
1
2

>  <PUBCHEM_MMFF94_PARTIAL_CHARGES>  (1) 
17
1 -0.68
10 -0.18
12 0.15
13 0.15
14 0.15
15 0.15
16 0.15
17 0.4
18 0.18
2 -0.14
3 0.62
4 -0.15
5 -0.15
6 -0.15
7 -0.15
8 -0.15
9 -0.2

>  <PUBCHEM_EFFECTIVE_ROTOR_COUNT>  (1) 
1

>  <PUBCHEM_PHARMACOPHORE_FEATURES>  (1) 
4
1 1 acceptor
1 1 donor
1 10 hydrophobe
6 2 4 5 6 7 8 rings

>  <PUBCHEM_HEAVY_ATOM_COUNT>  (1) 
10

>  <PUBCHEM_ATOM_DEF_STEREO_COUNT>  (1) 
0

>  <PUBCHEM_ATOM_UDEF_STEREO_COUNT>  (1) 
1

>  <PUBCHEM_BOND_DEF_STEREO_COUNT>  (1) 
0

>  <PUBCHEM_BOND_UDEF_STEREO_COUNT>  (1) 
0

>  <PUBCHEM_ISOTOPIC_ATOM_COUNT>  (1) 
0

>  <PUBCHEM_COMPONENT_COUNT>  (1) 
1

>  <PUBCHEM_CACTVS_TAUTO_COUNT>  (1) 
1

>  <PUBCHEM_CONFORMER_ID>  (1) 
00004EBB00000001

>  <PUBCHEM_MMFF94_ENERGY>  (1) 
21.1306

>  <PUBCHEM_FEATURE_SELFOVERLAP>  (1) 
20.297

>  <PUBCHEM_SHAPE_FINGERPRINT>  (1) 
12326174 3 17168694242216676162
12716758 59 17846786208354664774
12897270 3 17989211485771499900
12932764 1 18273492377427668601
15310529 11 18187362117075792369
15775835 57 18335990813052656812
16945 1 17775558728647901571
20201158 50 15769790043340814196
20645464 45 15357694193103952872
20645476 183 18410854373728543055
20653085 51 18265635293237416236
20711985 344 15553061921934376666
21040471 1 17701816592480607961
228727 97 18341620363978517897
23552423 10 18267862796236666951
2748010 2 17627487656759938943
29004967 10 16877942706992136265
3248919 1 18114451310346221203
369184 2 14707200050174221481
5084963 1 18265603291256492355
8030462 33 18341885303415450463

>  <PUBCHEM_SHAPE_MULTIPOLES>  (1) 
199.93
4.26
1.36
1.03
1.24
0.15
0.05
-0.87
1.25
-0.09
-0.11
0.33
0.02
-0.82

>  <PUBCHEM_SHAPE_SELFOVERLAP>  (1) 
411.521

>  <PUBCHEM_SHAPE_VOLUME>  (1) 
114.1

>  <PUBCHEM_COORDINATE_TYPE>  (1) 
2
5
10

$$$$
