20154
     RDKit          3D

  9  9  0  0  0  0  0  0  0  0999 V2000
    0.5245    0.2500    0.0478 N   0  0  0  0  0  0  0  0  0  0  0  0
   -0.4685    1.3023   -0.4588 C   0  0  0  0  0  0  0  0  0  0  0  0
    0.0389   -1.1630   -0.2951 C   0  0  0  0  0  0  0  0  0  0  0  0
   -1.8800    1.0425    0.0521 C   0  0  0  0  0  0  0  0  0  0  0  0
   -1.3742   -1.4167    0.2148 C   0  0  0  0  0  0  0  0  0  0  0  0
    1.8643    0.4785   -0.6641 C   0  0  0  0  0  0  0  0  0  0  0  0
   -2.3553   -0.3644   -0.2827 C   0  0  0  0  0  0  0  0  0  0  0  0
    0.7764    0.4013    1.5478 C   0  0  0  0  0  0  0  0  0  0  0  0
    2.8739   -0.5305   -0.1618 C   0  0  0  0  0  0  0  0  0  0  0  0
  1  2  1  0
  1  3  1  0
  1  6  1  0
  1  8  1  0
  2  4  1  0
  3  5  1  0
  4  7  1  0
  5  7  1  0
  6  9  1  0
M  CHG  1   1   1
M  END
>  <PUBCHEM_COMPOUND_CID>  (1) 
20154

>  <PUBCHEM_CONFORMER_RMSD>  (1) 
0.4

>  <PUBCHEM_CONFORMER_DIVERSEORDER>  (1) 
1
9
10
7
11
4
5
6
8
2
3

>  <PUBCHEM_MMFF94_PARTIAL_CHARGES>  (1) 
5
1 -1.01
2 0.5
3 0.5
6 0.5
8 0.5

>  <PUBCHEM_EFFECTIVE_ROTOR_COUNT>  (1) 
2.2

>  <PUBCHEM_PHARMACOPHORE_FEATURES>  (1) 
2
1 1 cation
6 1 2 3 4 5 7 rings

>  <PUBCHEM_HEAVY_ATOM_COUNT>  (1) 
9

>  <PUBCHEM_ATOM_DEF_STEREO_COUNT>  (1) 
0

>  <PUBCHEM_ATOM_UDEF_STEREO_COUNT>  (1) 
0

>  <PUBCHEM_BOND_DEF_STEREO_COUNT>  (1) 
0

>  <PUBCHEM_BOND_UDEF_STEREO_COUNT>  (1) 
0

>  <PUBCHEM_ISOTOPIC_ATOM_COUNT>  (1) 
0

>  <PUBCHEM_COMPONENT_COUNT>  (1) 
1

>  <PUBCHEM_CACTVS_TAUTO_COUNT>  (1) 
1

>  <PUBCHEM_CONFORMER_ID>  (1) 
00004EBA00000001

>  <PUBCHEM_MMFF94_ENERGY>  (1) 
20.993

>  <PUBCHEM_FEATURE_SELFOVERLAP>  (1) 
10.148

>  <PUBCHEM_SHAPE_FINGERPRINT>  (1) 
12423570 1 12252771191350977345
12716758 59 18410853222661203784
12897270 3 18335144214926666604
13024252 1 15140971668061066052
137420 1 11985253101705240637
16714656 1 18408044009001466205
16945 1 18411144610232581494
18185500 45 17968085482182135377
20653085 51 18042990725563491860
21040471 1 18338227155421162965
23235685 24 18336824204496407957
23552423 10 18114465655705846758
241688 4 18267582588449011843
29004967 10 16271931501787284324
369184 2 16486972869235228846
5084963 1 18341890796789320381
68250623 7 17535499193622306299

>  <PUBCHEM_SHAPE_MULTIPOLES>  (1) 
180.23
3.32
1.41
0.98
1.06
0.12
-0.37
0.34
0.43
-0.5
0.08
0.27
-0.14
0.06

>  <PUBCHEM_SHAPE_SELFOVERLAP>  (1) 
338.536

>  <PUBCHEM_SHAPE_VOLUME>  (1) 
113

>  <PUBCHEM_COORDINATE_TYPE>  (1) 
2
5
10

$$$$
