20157
     RDKit          3D

 25 28  0  0  1  0  0  0  0  0999 V2000
    1.6037   -0.2710   -1.4903 N   0  0  0  0  0  0  0  0  0  0  0  0
    2.6335   -1.2143   -1.9427 C   0  0  0  0  0  0  0  0  0  0  0  0
    1.7567   -0.0027   -0.0494 C   0  0  0  0  0  0  0  0  0  0  0  0
    4.0176   -0.5670   -1.8305 C   0  0  0  0  0  0  0  0  0  0  0  0
    3.1605    0.4030    0.3378 C   0  0  0  0  0  0  0  0  0  0  0  0
    4.2486    0.0923   -0.4958 C   0  0  0  0  0  0  0  0  0  0  0  0
    0.2654   -0.7888   -1.7725 C   0  0  0  0  0  0  0  0  0  0  0  0
    3.3907    1.0369    1.5663 C   0  0  0  0  0  0  0  0  0  0  0  0
    5.5451    0.4530   -0.1065 C   0  0  0  0  0  0  0  0  0  0  0  0
   -0.7965    0.1958   -1.3646 C   0  0  0  0  0  0  0  0  0  0  0  0
    4.6862    1.3834    1.9495 C   0  0  0  0  0  0  0  0  0  0  0  0
    5.7619    1.0939    1.1129 C   0  0  0  0  0  0  0  0  0  0  0  0
   -1.8164    0.0083   -0.4976 C   0  0  0  0  0  0  0  0  0  0  0  0
   -2.7202    1.1595   -0.2387 C   0  0  0  0  0  0  0  0  0  0  0  0
   -2.0108   -1.3046    0.1571 C   0  0  0  0  0  0  0  0  0  0  0  0
   -2.4166    2.0257    0.7908 C   0  0  0  0  0  0  0  0  0  0  0  0
   -2.8075   -2.2516   -0.4591 C   0  0  0  0  0  0  0  0  0  0  0  0
   -3.8331    1.3249   -1.0365 C   0  0  0  0  0  0  0  0  0  0  0  0
   -1.3903   -1.5506    1.3676 C   0  0  0  0  0  0  0  0  0  0  0  0
   -3.2644    3.1065    1.0337 C   0  0  0  0  0  0  0  0  0  0  0  0
   -2.9904   -3.4892    0.1576 C   0  0  0  0  0  0  0  0  0  0  0  0
   -4.6809    2.4058   -0.7938 C   0  0  0  0  0  0  0  0  0  0  0  0
   -1.5731   -2.7884    1.9843 C   0  0  0  0  0  0  0  0  0  0  0  0
   -4.3964    3.2965    0.2413 C   0  0  0  0  0  0  0  0  0  0  0  0
   -2.3732   -3.7576    1.3792 C   0  0  0  0  0  0  0  0  0  0  0  0
  1  2  1  0
  1  3  1  0
  1  7  1  0
  2  4  1  0
  3  5  1  0
  4  6  1  0
  5  6  2  0
  5  8  1  0
  6  9  1  0
  7 10  1  0
  8 11  2  0
  9 12  2  0
 10 13  2  3
 11 12  1  0
 13 14  1  0
 13 15  1  0
 14 16  2  0
 14 18  1  0
 15 17  2  0
 15 19  1  0
 16 20  1  0
 17 21  1  0
 18 22  2  0
 19 23  2  0
 20 24  2  0
 21 25  2  0
 22 24  1  0
 23 25  1  0
M  END
>  <PUBCHEM_COMPOUND_CID>  (1) 
20157

>  <PUBCHEM_CONFORMER_RMSD>  (1) 
0.8

>  <PUBCHEM_CONFORMER_DIVERSEORDER>  (1) 
1
16
24
17
30
25
6
3
31
5
12
26
21
9
22
10
18
27
11
14
23
20
15
13
19
8
4
29
2
32
7
28

>  <PUBCHEM_MMFF94_PARTIAL_CHARGES>  (1) 
40
1 -0.81
10 -0.29
11 -0.15
12 -0.15
13 -0.06
14 0.03
15 0.03
16 -0.15
17 -0.15
18 -0.15
19 -0.15
2 0.27
20 -0.15
21 -0.15
22 -0.15
23 -0.15
24 -0.15
25 -0.15
3 0.41
34 0.15
35 0.15
36 0.15
37 0.15
38 0.15
39 0.15
4 0.14
40 0.15
41 0.15
42 0.15
43 0.15
44 0.15
45 0.15
46 0.15
47 0.15
48 0.15
5 -0.14
6 -0.14
7 0.41
8 -0.15
9 -0.15

>  <PUBCHEM_EFFECTIVE_ROTOR_COUNT>  (1) 
4.8

>  <PUBCHEM_PHARMACOPHORE_FEATURES>  (1) 
5
1 1 cation
6 1 2 3 4 5 6 rings
6 14 16 18 20 22 24 rings
6 15 17 19 21 23 25 rings
6 5 6 8 9 11 12 rings

>  <PUBCHEM_HEAVY_ATOM_COUNT>  (1) 
25

>  <PUBCHEM_ATOM_DEF_STEREO_COUNT>  (1) 
0

>  <PUBCHEM_ATOM_UDEF_STEREO_COUNT>  (1) 
0

>  <PUBCHEM_BOND_DEF_STEREO_COUNT>  (1) 
0

>  <PUBCHEM_BOND_UDEF_STEREO_COUNT>  (1) 
0

>  <PUBCHEM_ISOTOPIC_ATOM_COUNT>  (1) 
0

>  <PUBCHEM_COMPONENT_COUNT>  (1) 
1

>  <PUBCHEM_CACTVS_TAUTO_COUNT>  (1) 
1

>  <PUBCHEM_CONFORMER_ID>  (1) 
00004EBD00000001

>  <PUBCHEM_MMFF94_ENERGY>  (1) 
78.9189

>  <PUBCHEM_FEATURE_SELFOVERLAP>  (1) 
25.396

>  <PUBCHEM_SHAPE_FINGERPRINT>  (1) 
10074138 170 18260842531074489955
10291535 26 18343861134611670689
11545043 162 18341621438590851582
11552529 35 18189328151441320802
12403259 118 18339915039436401652
12549972 3 18270698467127212334
12616971 3 16443065002631594132
12633257 1 17967806150721686076
12788726 201 17971210346058454891
12930653 34 18410572907468724414
13004483 165 17974018541763593991
131258 38 15585460479672848491
133893 2 14835022550379954380
13402501 40 17917702475217288144
13583140 156 18060422430429387918
14068700 675 17752760513643940127
14178342 30 18260550039021465238
14251764 38 18343016735509838872
14468879 13 17988915674019719283
15131766 46 16199026317317551944
15537594 2 15719395019309718034
15842332 3 17023763336608694630
17980427 26 17908408174572573023
20554085 129 18188767224655047873
21033648 29 18190462653735537285
21049683 118 18266168440618200641
212916 134 18188209788938143717
21304303 282 18190158175604501039
21401589 2 18343025445903696377
22182313 1 17845948406559548236
22956985 138 16533131818910514851
23557571 272 18340488962234269838
23559900 14 18339090281029409582
2838139 119 17845643734080070780
3380486 145 17701824508506683375
376196 1 17913770522804179677
4015057 19 17560522777069522612
4073 2 18410292519772341266
4258327 124 17895208739165886669
5081480 168 15911676547645038316
59755656 520 18262796263946046687
6004065 56 17764585813373710335
6009941 240 18411700951323389858
7226269 152 18262512715133543855
7288768 16 18341326683106055397
90127 26 18131631223207887700
9658208 31 18265914474770084703
9981440 41 18059564776440710887

>  <PUBCHEM_SHAPE_MULTIPOLES>  (1) 
509.51
11.45
4
1.96
12.93
1.63
0.01
-7.41
-1.45
-8.17
-1.96
1.36
0.56
2.26

>  <PUBCHEM_SHAPE_SELFOVERLAP>  (1) 
1113.06

>  <PUBCHEM_SHAPE_VOLUME>  (1) 
275.7

>  <PUBCHEM_COORDINATE_TYPE>  (1) 
2
5
10

$$$$
