20168
     RDKit          3D

 32 34  0  0  0  0  0  0  0  0999 V2000
    1.3863    2.0538    0.1335 O   0  0  0  0  0  0  0  0  0  0  0  0
   -2.7456    1.0204    0.0089 O   0  0  0  0  0  0  0  0  0  0  0  0
    0.2904   -0.1368    1.2134 O   0  0  0  0  0  0  0  0  0  0  0  0
    3.1476    3.1380    1.1442 O   0  0  0  0  0  0  0  0  0  0  0  0
   -3.0549    0.9305   -2.2705 O   0  0  0  0  0  0  0  0  0  0  0  0
    0.1910   -1.7151    2.8862 O   0  0  0  0  0  0  0  0  0  0  0  0
   -0.8542    2.0396    1.1893 C   0  0  0  0  0  0  0  0  0  0  0  0
    0.4597    2.8076    0.9033 C   0  0  0  0  0  0  0  0  0  0  0  0
   -1.5185    1.7164   -0.1696 C   0  0  0  0  0  0  0  0  0  0  0  0
   -0.5764    0.7181    1.9470 C   0  0  0  0  0  0  0  0  0  0  0  0
   -1.7965    2.9221    2.0337 C   0  0  0  0  0  0  0  0  0  0  0  0
    2.7037    2.3197    0.3538 C   0  0  0  0  0  0  0  0  0  0  0  0
   -3.4143    0.6865   -1.1292 C   0  0  0  0  0  0  0  0  0  0  0  0
    0.5942   -1.3274    1.8007 C   0  0  0  0  0  0  0  0  0  0  0  0
    3.5640    1.4713   -0.5093 C   0  0  0  0  0  0  0  0  0  0  0  0
   -4.6737   -0.0312   -0.8079 C   0  0  0  0  0  0  0  0  0  0  0  0
    1.5038   -2.1231    0.9381 C   0  0  0  0  0  0  0  0  0  0  0  0
    4.8168    1.1129   -0.0552 C   0  0  0  0  0  0  0  0  0  0  0  0
   -5.7483    0.0914   -1.6648 C   0  0  0  0  0  0  0  0  0  0  0  0
    2.3970   -2.9906    1.5325 C   0  0  0  0  0  0  0  0  0  0  0  0
    3.0838    1.0671   -1.7381 C   0  0  0  0  0  0  0  0  0  0  0  0
   -4.7304   -0.7989    0.3374 C   0  0  0  0  0  0  0  0  0  0  0  0
    1.4272   -1.9706   -0.4312 C   0  0  0  0  0  0  0  0  0  0  0  0
    5.6250    0.3156   -0.8657 C   0  0  0  0  0  0  0  0  0  0  0  0
   -6.9314   -0.5832   -1.3632 C   0  0  0  0  0  0  0  0  0  0  0  0
    3.2514   -3.7384    0.7223 C   0  0  0  0  0  0  0  0  0  0  0  0
    3.8920    0.2697   -2.5484 C   0  0  0  0  0  0  0  0  0  0  0  0
   -5.9136   -1.4734    0.6388 C   0  0  0  0  0  0  0  0  0  0  0  0
    2.2816   -2.7185   -1.2415 C   0  0  0  0  0  0  0  0  0  0  0  0
    5.1625   -0.1060   -2.1122 C   0  0  0  0  0  0  0  0  0  0  0  0
   -7.0140   -1.3654   -0.2116 C   0  0  0  0  0  0  0  0  0  0  0  0
    3.1936   -3.6024   -0.6646 C   0  0  0  0  0  0  0  0  0  0  0  0
  1  8  1  0
  1 12  1  0
  2  9  1  0
  2 13  1  0
  3 10  1  0
  3 14  1  0
  4 12  2  0
  5 13  2  0
  6 14  2  0
  7  8  1  0
  7  9  1  0
  7 10  1  0
  7 11  1  0
 12 15  1  0
 13 16  1  0
 14 17  1  0
 15 18  2  0
 15 21  1  0
 16 19  2  0
 16 22  1  0
 17 20  2  0
 17 23  1  0
 18 24  1  0
 19 25  1  0
 20 26  1  0
 21 27  2  0
 22 28  2  0
 23 29  2  0
 24 30  2  0
 25 31  2  0
 26 32  2  0
 27 30  1  0
 28 31  1  0
 29 32  1  0
M  END
>  <PUBCHEM_COMPOUND_CID>  (1) 
20168

>  <PUBCHEM_CONFORMER_RMSD>  (1) 
1.2

>  <PUBCHEM_CONFORMER_DIVERSEORDER>  (1) 
1
21
5
19
30
14
2
13
25
22
11
29
23
10
28
27
18
20
3
24
6
15
17
7
16
26
12
8
9
4

>  <PUBCHEM_MMFF94_PARTIAL_CHARGES>  (1) 
45
1 -0.43
10 0.28
12 0.63
13 0.63
14 0.63
15 0.09
16 0.09
17 0.09
18 -0.15
19 -0.15
2 -0.43
20 -0.15
21 -0.15
22 -0.15
23 -0.15
24 -0.15
25 -0.15
26 -0.15
27 -0.15
28 -0.15
29 -0.15
3 -0.43
30 -0.15
31 -0.15
32 -0.15
4 -0.57
42 0.15
43 0.15
44 0.15
45 0.15
46 0.15
47 0.15
48 0.15
49 0.15
5 -0.57
50 0.15
51 0.15
52 0.15
53 0.15
54 0.15
55 0.15
56 0.15
6 -0.57
8 0.28
9 0.28

>  <PUBCHEM_EFFECTIVE_ROTOR_COUNT>  (1) 
12

>  <PUBCHEM_PHARMACOPHORE_FEATURES>  (1) 
7
1 11 hydrophobe
1 4 acceptor
1 5 acceptor
1 6 acceptor
6 15 18 21 24 27 30 rings
6 16 19 22 25 28 31 rings
6 17 20 23 26 29 32 rings

>  <PUBCHEM_HEAVY_ATOM_COUNT>  (1) 
32

>  <PUBCHEM_ATOM_DEF_STEREO_COUNT>  (1) 
0

>  <PUBCHEM_ATOM_UDEF_STEREO_COUNT>  (1) 
0

>  <PUBCHEM_BOND_DEF_STEREO_COUNT>  (1) 
0

>  <PUBCHEM_BOND_UDEF_STEREO_COUNT>  (1) 
0

>  <PUBCHEM_ISOTOPIC_ATOM_COUNT>  (1) 
0

>  <PUBCHEM_COMPONENT_COUNT>  (1) 
1

>  <PUBCHEM_CACTVS_TAUTO_COUNT>  (1) 
1

>  <PUBCHEM_CONFORMER_ID>  (1) 
00004EC800000001

>  <PUBCHEM_MMFF94_ENERGY>  (1) 
96.701

>  <PUBCHEM_FEATURE_SELFOVERLAP>  (1) 
35.522

>  <PUBCHEM_SHAPE_FINGERPRINT>  (1) 
10928967 22 17274524444119903511
11488393 25 18408036321226382331
11513181 2 17693951696236039662
12156800 1 16410086379769879538
12838863 1 18262511495600546690
13383661 66 17116904272669415527
13617811 41 17603579769115930981
15001296 14 17845930848596027327
15721738 202 17988368065732158486
17909252 39 18343301435795518378
19026451 147 18339073783754349050
20429585 67 18340780303141223771
20567600 347 18261386780323273720
208703 8 18057891242914133102
21344244 246 18334857182853592634
22899556 105 18339934727076142830
238 59 18334866000194266604
345986 75 17561083584208875057
404807 78 17751649977135880595
45266715 3 18411705405204313654
484989 97 18189911974840881194
513532 50 17417233468233974307
57359948 33 16155084181539724791
59755656 215 18334011726640290007
6669772 16 18197206152328058984

>  <PUBCHEM_SHAPE_MULTIPOLES>  (1) 
623.33
14.17
4.12
2.35
21.9
1.53
0.04
4.16
-8.65
-4.55
1.92
-0.57
0.01
-0.64

>  <PUBCHEM_SHAPE_SELFOVERLAP>  (1) 
1337.796

>  <PUBCHEM_SHAPE_VOLUME>  (1) 
340.7

>  <PUBCHEM_COORDINATE_TYPE>  (1) 
2
5
10

$$$$
