20162
     RDKit          3D

 21 22  0  0  1  0  0  0  0  0999 V2000
    0.3700    0.9136   -1.0342 O   0  0  0  0  0  0  0  0  0  0  0  0
    2.6933   -2.2248    1.4910 O   0  0  0  0  0  0  0  0  0  0  0  0
   -1.5642   -3.1478    0.0798 O   0  0  0  0  0  0  0  0  0  0  0  0
    1.6556   -0.6707    0.0912 N   0  0  0  0  0  0  0  0  0  0  0  0
    0.5888   -2.6834    0.7276 N   0  0  0  0  0  0  0  0  0  0  0  0
    2.7409    0.2625    0.2744 C   0  0  0  0  0  0  0  0  0  0  0  0
    2.2603    1.5021    1.0326 C   0  0  0  0  0  0  0  0  0  0  0  0
    3.3643    0.6398   -1.0721 C   0  0  0  0  0  0  0  0  0  0  0  0
    3.3767    2.5306    1.1946 C   0  0  0  0  0  0  0  0  0  0  0  0
    4.4800    1.6683   -0.9062 C   0  0  0  0  0  0  0  0  0  0  0  0
    3.9992    2.9023   -0.1483 C   0  0  0  0  0  0  0  0  0  0  0  0
   -0.3940   -1.3675   -1.0580 C   0  0  0  0  0  0  0  0  0  0  0  0
    0.5497   -0.2467   -0.6621 C   0  0  0  0  0  0  0  0  0  0  0  0
   -1.7568   -0.8214   -1.4810 C   0  0  0  0  0  0  0  0  0  0  0  0
    1.7280   -1.8849    0.8015 C   0  0  0  0  0  0  0  0  0  0  0  0
   -2.5041   -0.2038   -0.2992 C   0  0  0  0  0  0  0  0  0  0  0  0
   -0.5490   -2.4628   -0.0296 C   0  0  0  0  0  0  0  0  0  0  0  0
   -3.8540    0.3718   -0.7335 C   0  0  0  0  0  0  0  0  0  0  0  0
   -4.5830    1.0232    0.4438 C   0  0  0  0  0  0  0  0  0  0  0  0
   -5.9306    1.6368    0.0579 C   0  0  0  0  0  0  0  0  0  0  0  0
   -6.6708    2.2629    1.2297 C   0  0  0  0  0  0  0  0  0  0  0  0
  1 13  2  0
  2 15  2  0
  3 17  2  0
  4  6  1  0
  4 13  1  0
  4 15  1  0
  5 15  1  0
  5 17  1  0
  6  7  1  0
  6  8  1  0
  7  9  1  0
  8 10  1  0
  9 11  1  0
 10 11  1  0
 12 13  1  0
 12 14  1  0
 12 17  1  0
 14 16  1  0
 16 18  1  0
 18 19  1  0
 19 20  1  0
 20 21  1  0
M  END
>  <PUBCHEM_COMPOUND_CID>  (1) 
20162

>  <PUBCHEM_CONFORMER_RMSD>  (1) 
0.8

>  <PUBCHEM_CONFORMER_DIVERSEORDER>  (1) 
1
19
64
81
28
49
12
71
70
46
2
60
85
69
82
20
45
21
76
5
48
58
62
63
75
31
87
17
34
80
29
77
22
8
86
27
16
47
59
4
66
30
50
7
10
61
42
14
79
84
15
51
67
73
68
26
78
40
83
25
39
53
57
23
55
33
24
36
37
41
54
18
65
52
44
11
74
72
13
3
38
32
35
9
43
56
6

>  <PUBCHEM_MMFF94_PARTIAL_CHARGES>  (1) 
11
1 -0.57
12 0.12
13 0.57
15 0.69
17 0.57
2 -0.57
3 -0.57
38 0.37
4 -0.42
5 -0.49
6 0.3

>  <PUBCHEM_EFFECTIVE_ROTOR_COUNT>  (1) 
7.8

>  <PUBCHEM_PHARMACOPHORE_FEATURES>  (1) 
9
1 1 acceptor
1 12 anion
1 2 acceptor
1 21 hydrophobe
1 3 acceptor
1 5 donor
5 14 16 18 19 20 hydrophobe
6 4 5 12 13 15 17 rings
6 6 7 8 9 10 11 rings

>  <PUBCHEM_HEAVY_ATOM_COUNT>  (1) 
21

>  <PUBCHEM_ATOM_DEF_STEREO_COUNT>  (1) 
0

>  <PUBCHEM_ATOM_UDEF_STEREO_COUNT>  (1) 
1

>  <PUBCHEM_BOND_DEF_STEREO_COUNT>  (1) 
0

>  <PUBCHEM_BOND_UDEF_STEREO_COUNT>  (1) 
0

>  <PUBCHEM_ISOTOPIC_ATOM_COUNT>  (1) 
0

>  <PUBCHEM_COMPONENT_COUNT>  (1) 
1

>  <PUBCHEM_CACTVS_TAUTO_COUNT>  (1) 
3

>  <PUBCHEM_CONFORMER_ID>  (1) 
00004EC200000001

>  <PUBCHEM_MMFF94_ENERGY>  (1) 
29.9917

>  <PUBCHEM_FEATURE_SELFOVERLAP>  (1) 
45.671

>  <PUBCHEM_SHAPE_FINGERPRINT>  (1) 
10382601 240 17967520277566114546
10493431 412 18261955262020635493
12390115 104 18190468348956285508
13140716 1 18187911902955140394
13878862 14 18118661259403407605
13965767 371 18042102389051606460
14178342 30 18044361962571143306
1420 369 11097849688231665989
14251740 57 12612751285384614329
14251764 75 18340493347950507937
146900 427 18340774750160350073
14790565 3 18261961867675880829
14848178 5 10953733426624846297
14955137 171 18193270785248086794
15238133 3 18272925025386048200
15475509 35 16081929213654326611
15475509 8 18057611958587001134
15475509 84 17976532811002075449
15534591 1 18270677704901622639
20510252 161 17758953014971420778
20626108 58 9079122137251085077
20739085 24 18115312163674090101
21756936 100 18270396221271335965
22182937 141 18195526115318420137
23558518 356 18048313645778562974
23845131 108 18333167280705365947
283562 15 17757824911483195938
3178227 256 18116435838724842706
34797466 226 14116929398442262881
350125 39 18262795151760877340
38570 142 18270977781476663749
427121 178 18260553320154549958
458136 41 18113893875558218622
474 4 18342173333076601465
5104073 3 18187356670714610714
5252454 2 18335693979156825165
57527295 17 18199186360169605606
57527585 21 17406825662933140364
633830 44 18272647931360323743
76465 3 9511195039870045132
7808743 9 18191305077384728948

>  <PUBCHEM_SHAPE_MULTIPOLES>  (1) 
404.6
11.24
3.57
1.31
18.49
0.88
0.02
-13.46
1.9
-0.96
1.19
-0.35
0.02
-1.46

>  <PUBCHEM_SHAPE_SELFOVERLAP>  (1) 
819.002

>  <PUBCHEM_SHAPE_VOLUME>  (1) 
231.7

>  <PUBCHEM_COORDINATE_TYPE>  (1) 
2
5
10

$$$$
