20164
     RDKit          3D

 17 16  0  0  0  0  0  0  0  0999 V2000
   -1.0787    1.4931    0.0081 S   0  0  0  0  0  0  0  0  0  0  0  0
    2.9830   -0.8210   -0.2532 P   0  0  0  0  0  0  0  0  0  0  0  0
    2.8314    0.7859   -0.1246 O   0  0  0  0  0  0  0  0  0  0  0  0
    4.5818   -1.0533   -0.1303 O   0  0  0  0  0  0  0  0  0  0  0  0
    2.4202   -1.3631    1.1661 O   0  0  0  0  0  0  0  0  0  0  0  0
   -4.3326   -0.7473   -0.0985 O   0  0  0  0  0  0  0  0  0  0  0  0
    2.3422   -1.4267   -1.4693 O   0  0  0  0  0  0  0  0  0  0  0  0
   -4.0500    1.5323    0.0825 O   0  0  0  0  0  0  0  0  0  0  0  0
    1.6346    1.4151   -0.0512 C   0  0  0  0  0  0  0  0  0  0  0  0
   -2.1338    0.0307   -0.0841 C   0  0  0  0  0  0  0  0  0  0  0  0
    0.4754    0.7400   -0.0806 C   0  0  0  0  0  0  0  0  0  0  0  0
    1.6973    2.9073    0.0628 C   0  0  0  0  0  0  0  0  0  0  0  0
   -5.7528   -0.5734   -0.0536 C   0  0  0  0  0  0  0  0  0  0  0  0
   -3.5939    0.4021   -0.0201 C   0  0  0  0  0  0  0  0  0  0  0  0
   -6.4190   -1.9293   -0.1505 C   0  0  0  0  0  0  0  0  0  0  0  0
    5.4171   -0.5560   -1.1612 C   0  0  0  0  0  0  0  0  0  0  0  0
    2.9778   -0.8366    2.3577 C   0  0  0  0  0  0  0  0  0  0  0  0
  1 10  1  0
  1 11  1  0
  2  3  1  0
  2  4  1  0
  2  5  1  0
  2  7  2  0
  3  9  1  0
  4 16  1  0
  5 17  1  0
  6 13  1  0
  6 14  1  0
  8 14  2  0
  9 11  2  0
  9 12  1  0
 10 14  1  0
 13 15  1  0
M  END
>  <PUBCHEM_COMPOUND_CID>  (1) 
20164

>  <PUBCHEM_CONFORMER_RMSD>  (1) 
0.8

>  <PUBCHEM_CONFORMER_DIVERSEORDER>  (1) 
1
104
199
97
214
176
56
203
8
152
79
25
5
145
121
113
64
218
42
66
94
6
99
54
116
202
27
130
68
41
223
149
110
77
78
35
26
55
91
58
49
36
63
220
3
195
80
86
21
160
167
103
114
11
32
37
185
198
30
67
84
172
222
44
53
181
127
59
221
112
142
175
125
210
107
52
47
14
109
65
89
102
13
106
137
123
190
88
146
50
69
93
83
132
178
61
173
156
73
75
168
31
209
117
4
28
129
204
111
15
196
192
20
98
197
157
171
225
224
87
60
147
48
62
51
184
72
161
213
38
180
133
140
166
90
29
182
193
119
136
108
43
74
153
120
22
179
207
134
151
105
217
101
71
70
165
34
205
18
10
138
16
219
46
216
158
141
191
9
12
17
76
122
81
174
169
82
131
57
33
139
118
45
159
148
144
200
162
201
183
40
194
128
189
85
135
124
150
23
208
154
143
212
155
211
163
170
115
96
7
39
92
24
19
126
187
186
215
95
177
164
206
100
188
2

>  <PUBCHEM_MMFF94_PARTIAL_CHARGES>  (1) 
17
1 -0.33
10 0.29
11 -0.05
12 0.14
13 0.28
14 0.66
16 0.28
17 0.28
2 1.51
20 0.15
3 -0.35
4 -0.55
5 -0.55
6 -0.43
7 -0.7
8 -0.57
9 -0.06

>  <PUBCHEM_EFFECTIVE_ROTOR_COUNT>  (1) 
9

>  <PUBCHEM_PHARMACOPHORE_FEATURES>  (1) 
2
1 7 acceptor
1 8 acceptor

>  <PUBCHEM_HEAVY_ATOM_COUNT>  (1) 
17

>  <PUBCHEM_ATOM_DEF_STEREO_COUNT>  (1) 
0

>  <PUBCHEM_ATOM_UDEF_STEREO_COUNT>  (1) 
0

>  <PUBCHEM_BOND_DEF_STEREO_COUNT>  (1) 
0

>  <PUBCHEM_BOND_UDEF_STEREO_COUNT>  (1) 
1

>  <PUBCHEM_ISOTOPIC_ATOM_COUNT>  (1) 
0

>  <PUBCHEM_COMPONENT_COUNT>  (1) 
1

>  <PUBCHEM_CACTVS_TAUTO_COUNT>  (1) 
1

>  <PUBCHEM_CONFORMER_ID>  (1) 
00004EC400000001

>  <PUBCHEM_MMFF94_ENERGY>  (1) 
23.5425

>  <PUBCHEM_FEATURE_SELFOVERLAP>  (1) 
10.149

>  <PUBCHEM_SHAPE_FINGERPRINT>  (1) 
10366900 7 17675927599051482457
11069576 57 17314217878718151202
12553582 1 18339629084027683406
12596602 18 15626219156845276943
12916754 54 18412266160139854681
13167823 11 18411980299969308167
13464513 79 18341896290290050782
13533116 47 18268148833164802801
13675066 3 17632007577289609297
14123256 34 18342185474701630287
14251740 57 18130222761180604899
14252887 29 18201441337836738832
14576447 43 18259984855700432514
15183329 4 18260820468228221749
15342816 4 18187082841006279885
15501527 24 17967542254971751510
20369508 70 18187637024720622425
20645477 70 18337953492984844997
21150785 3 14924229361274845019
21267235 1 18341059579184434063
23559900 14 18341046410857298761
239999 70 18409731806684393822
3004659 81 18408320012785934157
3060560 45 13406790013015587544
312423 11 18340216266867551241
351380 3 18410009940430080663
465052 167 18271813444668048911
5104073 3 18341897424725978561
59682541 35 18271798065249823248
7970288 3 18339641135780587334
94968 8 18334012783239194008
960060 61 17022901242256816279

>  <PUBCHEM_SHAPE_MULTIPOLES>  (1) 
322.34
13.47
2.23
1.21
17.01
1.14
-0.63
-8.35
1.97
-0.19
-0.04
-1.92
-0.62
-0.18

>  <PUBCHEM_SHAPE_SELFOVERLAP>  (1) 
586.143

>  <PUBCHEM_SHAPE_VOLUME>  (1) 
206.9

>  <PUBCHEM_COORDINATE_TYPE>  (1) 
2
5
10

$$$$
