20160
     RDKit          3D

 25 27  0  0  1  0  0  0  0  0999 V2000
    1.3008    3.9655    2.3803 Cl  0  0  0  0  0  0  0  0  0  0  0  0
    1.1310   -1.9208    1.1478 F   0  0  0  0  0  0  0  0  0  0  0  0
   -2.3918   -0.8549   -2.9043 O   0  0  0  0  0  0  0  0  0  0  0  0
   -2.1577    0.4414   -0.9765 N   0  0  0  0  0  0  0  0  0  0  0  0
    0.6575    0.1499   -2.4206 N   0  0  0  0  0  0  0  0  0  0  0  0
   -2.6454   -2.6459    2.1193 N   0  0  0  0  0  0  0  0  0  0  0  0
    0.7274   -0.0614   -0.9642 C   0  0  0  0  0  0  0  0  0  0  0  0
    0.1072    1.0795   -0.1533 C   0  0  0  0  0  0  0  0  0  0  0  0
   -1.3053    1.2376   -0.1327 C   0  0  0  0  0  0  0  0  0  0  0  0
   -3.4810    0.0827   -0.4712 C   0  0  0  0  0  0  0  0  0  0  0  0
   -0.6038    0.7162   -2.8845 C   0  0  0  0  0  0  0  0  0  0  0  0
   -1.7838    0.0017   -2.2577 C   0  0  0  0  0  0  0  0  0  0  0  0
    2.1116   -0.5277   -0.5055 C   0  0  0  0  0  0  0  0  0  0  0  0
   -3.4177   -0.6530    0.8659 C   0  0  0  0  0  0  0  0  0  0  0  0
    0.8947    1.9461    0.6263 C   0  0  0  0  0  0  0  0  0  0  0  0
   -1.8757    2.1841    0.7374 C   0  0  0  0  0  0  0  0  0  0  0  0
   -2.6618   -1.9840    0.8204 C   0  0  0  0  0  0  0  0  0  0  0  0
    0.3090    2.9044    1.4532 C   0  0  0  0  0  0  0  0  0  0  0  0
   -1.0736    3.0129    1.5202 C   0  0  0  0  0  0  0  0  0  0  0  0
    2.2232   -1.4413    0.5365 C   0  0  0  0  0  0  0  0  0  0  0  0
    3.2462   -0.0311   -1.1374 C   0  0  0  0  0  0  0  0  0  0  0  0
    3.4860   -1.8638    0.9521 C   0  0  0  0  0  0  0  0  0  0  0  0
    4.5088   -0.4536   -0.7215 C   0  0  0  0  0  0  0  0  0  0  0  0
    4.6288   -1.3698    0.3231 C   0  0  0  0  0  0  0  0  0  0  0  0
   -1.9346   -3.9148    2.0468 C   0  0  0  0  0  0  0  0  0  0  0  0
  1 18  1  0
  2 20  1  0
  3 12  2  0
  4  9  1  0
  4 10  1  0
  4 12  1  0
  5  7  1  0
  5 11  1  0
  6 17  1  0
  6 25  1  0
  7  8  1  0
  7 13  1  0
  8  9  2  0
  8 15  1  0
  9 16  1  0
 10 14  1  0
 11 12  1  0
 13 20  2  0
 13 21  1  0
 14 17  1  0
 15 18  2  0
 16 19  2  0
 18 19  1  0
 20 22  1  0
 21 23  2  0
 22 24  2  0
 23 24  1  0
M  END
>  <PUBCHEM_COMPOUND_CID>  (1) 
20160

>  <PUBCHEM_CONFORMER_RMSD>  (1) 
0.8

>  <PUBCHEM_CONFORMER_DIVERSEORDER>  (1) 
1
98
134
100
116
104
41
131
48
96
46
26
51
16
53
39
136
95
113
85
56
130
91
71
27
97
47
133
61
9
121
138
72
115
128
63
80
75
62
6
129
114
31
123
109
132
110
88
2
135
127
111
65
126
55
19
112
54
64
13
43
37
101
106
137
99
23
69
59
57
108
68
139
92
44
74
119
118
83
125
36
58
90
49
86
122
102
117
73
12
25
87
120
93
103
28
34
78
30
14
94
124
5
50
42
76
10
24
107
21
81
105
11
45
17
18
52
89
82
70
15
84
32
67
66
33
20
7
22
79
38
35
77
4
8
3
29
60
40

>  <PUBCHEM_MMFF94_PARTIAL_CHARGES>  (1) 
33
1 -0.18
10 0.3
11 0.33
12 0.57
13 -0.14
15 -0.15
16 -0.15
17 0.27
18 0.18
19 -0.15
2 -0.19
20 0.19
21 -0.15
22 -0.15
23 -0.15
24 -0.15
25 0.27
29 0.36
3 -0.57
34 0.15
35 0.15
38 0.15
39 0.15
4 -0.48
40 0.36
41 0.15
42 0.15
43 0.15
5 -0.9
6 -0.9
7 0.56
8 -0.14
9 0.12

>  <PUBCHEM_EFFECTIVE_ROTOR_COUNT>  (1) 
5.8

>  <PUBCHEM_PHARMACOPHORE_FEATURES>  (1) 
8
1 3 acceptor
1 5 cation
1 5 donor
1 6 cation
1 6 donor
6 13 20 21 22 23 24 rings
6 8 9 15 16 18 19 rings
7 4 5 7 8 9 11 12 rings

>  <PUBCHEM_HEAVY_ATOM_COUNT>  (1) 
25

>  <PUBCHEM_ATOM_DEF_STEREO_COUNT>  (1) 
0

>  <PUBCHEM_ATOM_UDEF_STEREO_COUNT>  (1) 
1

>  <PUBCHEM_BOND_DEF_STEREO_COUNT>  (1) 
0

>  <PUBCHEM_BOND_UDEF_STEREO_COUNT>  (1) 
0

>  <PUBCHEM_ISOTOPIC_ATOM_COUNT>  (1) 
0

>  <PUBCHEM_COMPONENT_COUNT>  (1) 
1

>  <PUBCHEM_CACTVS_TAUTO_COUNT>  (1) 
1

>  <PUBCHEM_CONFORMER_ID>  (1) 
00004EC000000001

>  <PUBCHEM_MMFF94_ENERGY>  (1) 
75.9851

>  <PUBCHEM_FEATURE_SELFOVERLAP>  (1) 
40.608

>  <PUBCHEM_SHAPE_FINGERPRINT>  (1) 
10906281 52 17630059152375644865
11578080 2 18114456863966366789
12293681 25 17684627102881835375
12403259 327 18196679452025060643
12539773 59 16897313709772548487
12553582 1 17988912362642178196
12633257 1 18055664856632629291
12788726 201 18198911296687602145
13140716 1 17417511618800691397
133893 2 17771038764773699013
13631057 29 18115321097601996458
14787075 74 18050300446642990884
14844126 61 17771890659073691822
14863182 85 16387070491369932819
20600515 1 18124627247965756937
20775530 9 17824836778031558347
21330990 113 17326621800134871040
23419403 2 18191577769057723920
23598288 3 18129947762941081116
35225 105 17339541714374410600
392239 28 18411421752304683448
469060 322 17703777124660733678
81228 2 17770515135267101536
90316 7 17631437995569196636

>  <PUBCHEM_SHAPE_MULTIPOLES>  (1) 
488.27
6.32
4.08
2.72
5.07
2.12
-1.34
-4.54
0.46
-1.11
4.93
-1.55
-0.58
1.07

>  <PUBCHEM_SHAPE_SELFOVERLAP>  (1) 
1029.156

>  <PUBCHEM_SHAPE_VOLUME>  (1) 
274.5

>  <PUBCHEM_COORDINATE_TYPE>  (1) 
2
5
10

$$$$
