20176
     RDKit          3D

 11 11  0  0  0  0  0  0  0  0999 V2000
    2.8677   -0.0001    0.0002 O   0  0  0  0  0  0  0  0  0  0  0  0
   -3.8769    0.0002    0.0001 N   0  0  0  0  0  0  0  0  0  0  0  0
    0.8062   -1.2080    0.0001 C   0  0  0  0  0  0  0  0  0  0  0  0
    0.8064    1.2081   -0.0003 C   0  0  0  0  0  0  0  0  0  0  0  0
    1.5038    0.0000   -0.0001 C   0  0  0  0  0  0  0  0  0  0  0  0
   -0.5886   -1.2080    0.0001 C   0  0  0  0  0  0  0  0  0  0  0  0
   -0.5886    1.2080   -0.0003 C   0  0  0  0  0  0  0  0  0  0  0  0
   -1.2860   -0.0001   -0.0001 C   0  0  0  0  0  0  0  0  0  0  0  0
    1.5354   -2.5113   -0.0001 C   0  0  0  0  0  0  0  0  0  0  0  0
    1.5356    2.5113    0.0003 C   0  0  0  0  0  0  0  0  0  0  0  0
   -2.7150    0.0000    0.0001 C   0  0  0  0  0  0  0  0  0  0  0  0
  1  5  1  0
  2 11  3  0
  3  5  2  0
  3  6  1  0
  3  9  1  0
  4  5  1  0
  4  7  2  0
  4 10  1  0
  6  8  2  0
  7  8  1  0
  8 11  1  0
M  END
>  <PUBCHEM_COMPOUND_CID>  (1) 
20176

>  <PUBCHEM_CONFORMER_RMSD>  (1) 
0.4

>  <PUBCHEM_CONFORMER_DIVERSEORDER>  (1) 
1

>  <PUBCHEM_MMFF94_PARTIAL_CHARGES>  (1) 
14
1 -0.53
10 0.14
11 0.48
12 0.15
13 0.15
2 -0.56
20 0.45
3 -0.14
4 -0.14
5 0.08
6 -0.15
7 -0.15
8 0.07
9 0.14

>  <PUBCHEM_EFFECTIVE_ROTOR_COUNT>  (1) 
0

>  <PUBCHEM_PHARMACOPHORE_FEATURES>  (1) 
3
1 1 donor
1 2 acceptor
6 3 4 5 6 7 8 rings

>  <PUBCHEM_HEAVY_ATOM_COUNT>  (1) 
11

>  <PUBCHEM_ATOM_DEF_STEREO_COUNT>  (1) 
0

>  <PUBCHEM_ATOM_UDEF_STEREO_COUNT>  (1) 
0

>  <PUBCHEM_BOND_DEF_STEREO_COUNT>  (1) 
0

>  <PUBCHEM_BOND_UDEF_STEREO_COUNT>  (1) 
0

>  <PUBCHEM_ISOTOPIC_ATOM_COUNT>  (1) 
0

>  <PUBCHEM_COMPONENT_COUNT>  (1) 
1

>  <PUBCHEM_CACTVS_TAUTO_COUNT>  (1) 
2

>  <PUBCHEM_CONFORMER_ID>  (1) 
00004ED000000001

>  <PUBCHEM_MMFF94_ENERGY>  (1) 
24.2823

>  <PUBCHEM_FEATURE_SELFOVERLAP>  (1) 
15.223

>  <PUBCHEM_SHAPE_FINGERPRINT>  (1) 
1 1 18338233872496702605
11471102 20 18410006620430650605
13380535 76 18193552491735461802
13380536 305 18338524148051540580
14325111 11 18266740367042902241
161256 15 18196936578436557118
16945 1 18410855464491700871
193761 8 17834395614400545312
20201158 50 18334858303391371707
20511035 2 18044945820393505174
20588541 1 18334299759773728586
20645477 70 18410568471337044695
20871998 22 18054512395967870430
21040471 1 17978229696677162304
2334 1 17978511167216188545
23402655 69 18339909417508704549
23552423 10 18411979204299129527
23559900 14 16110075354786983766
241688 4 17905892478761481352
2748010 2 18048885378924156686
528886 8 18339074994612788648
63268167 104 18411140191032980897

>  <PUBCHEM_SHAPE_MULTIPOLES>  (1) 
215.52
3.97
2.36
0.6
3.75
0
0
0
0
-1.89
0
-0.01
0
0

>  <PUBCHEM_SHAPE_SELFOVERLAP>  (1) 
450.887

>  <PUBCHEM_SHAPE_VOLUME>  (1) 
122.4

>  <PUBCHEM_COORDINATE_TYPE>  (1) 
2
5
10

$$$$
