20187
     RDKit          3D

 19 19  0  0  0  0  0  0  0  0999 V2000
    4.6240    3.3737   -0.2673 Cl  0  0  0  0  0  0  0  0  0  0  0  0
    4.8020   -3.2805   -0.4066 Cl  0  0  0  0  0  0  0  0  0  0  0  0
    2.6030   -0.0281    0.5409 N   0  0  0  0  0  0  0  0  0  0  0  0
   -6.3075    0.0438   -1.1069 N   0  0  0  0  0  0  0  0  0  0  0  0
   -3.6311   -0.1703    2.4605 N   0  0  0  0  0  0  0  0  0  0  0  0
    3.3176    1.2114    0.7729 C   0  0  0  0  0  0  0  0  0  0  0  0
    3.3014   -1.2874    0.7071 C   0  0  0  0  0  0  0  0  0  0  0  0
    1.2421   -0.0096    0.1714 C   0  0  0  0  0  0  0  0  0  0  0  0
    0.5750    1.2069    0.0271 C   0  0  0  0  0  0  0  0  0  0  0  0
    0.5630   -1.2079   -0.0498 C   0  0  0  0  0  0  0  0  0  0  0  0
    3.7534    1.8436   -0.5395 C   0  0  0  0  0  0  0  0  0  0  0  0
    3.9317   -1.7384   -0.6012 C   0  0  0  0  0  0  0  0  0  0  0  0
   -1.4500    0.0272   -0.5595 C   0  0  0  0  0  0  0  0  0  0  0  0
   -0.7710    1.2254   -0.3383 C   0  0  0  0  0  0  0  0  0  0  0  0
   -0.7831   -1.1894   -0.4153 C   0  0  0  0  0  0  0  0  0  0  0  0
   -2.8534    0.0464   -0.9405 C   0  0  0  0  0  0  0  0  0  0  0  0
   -3.9212    0.0014   -0.1055 C   0  0  0  0  0  0  0  0  0  0  0  0
   -5.2370    0.0246   -0.6590 C   0  0  0  0  0  0  0  0  0  0  0  0
   -3.7588   -0.0928    1.3095 C   0  0  0  0  0  0  0  0  0  0  0  0
  1 11  1  0
  2 12  1  0
  3  6  1  0
  3  7  1  0
  3  8  1  0
  4 18  3  0
  5 19  3  0
  6 11  1  0
  7 12  1  0
  8  9  2  0
  8 10  1  0
  9 14  1  0
 10 15  2  0
 13 14  2  0
 13 15  1  0
 13 16  1  0
 16 17  2  3
 17 18  1  0
 17 19  1  0
M  END
>  <PUBCHEM_COMPOUND_CID>  (1) 
20187

>  <PUBCHEM_CONFORMER_RMSD>  (1) 
0.8

>  <PUBCHEM_CONFORMER_DIVERSEORDER>  (1) 
2
34
28
5
23
27
22
19
20
14
4
40
32
13
38
33
9
1
21
25
29
16
17
26
11
7
31
15
6
37
39
10
36
8
30
35
18
24
3
12

>  <PUBCHEM_MMFF94_PARTIAL_CHARGES>  (1) 
24
1 -0.29
10 -0.15
11 0.29
12 0.29
13 0.03
14 -0.15
15 -0.15
16 -0.18
17 0.13
18 0.49
19 0.49
2 -0.29
24 0.15
25 0.15
3 -0.84
30 0.15
31 0.15
32 0.15
4 -0.56
5 -0.56
6 0.37
7 0.37
8 0.1
9 -0.15

>  <PUBCHEM_EFFECTIVE_ROTOR_COUNT>  (1) 
6

>  <PUBCHEM_PHARMACOPHORE_FEATURES>  (1) 
4
1 3 cation
1 4 acceptor
1 5 acceptor
6 8 9 10 13 14 15 rings

>  <PUBCHEM_HEAVY_ATOM_COUNT>  (1) 
19

>  <PUBCHEM_ATOM_DEF_STEREO_COUNT>  (1) 
0

>  <PUBCHEM_ATOM_UDEF_STEREO_COUNT>  (1) 
0

>  <PUBCHEM_BOND_DEF_STEREO_COUNT>  (1) 
0

>  <PUBCHEM_BOND_UDEF_STEREO_COUNT>  (1) 
0

>  <PUBCHEM_ISOTOPIC_ATOM_COUNT>  (1) 
0

>  <PUBCHEM_COMPONENT_COUNT>  (1) 
1

>  <PUBCHEM_CACTVS_TAUTO_COUNT>  (1) 
1

>  <PUBCHEM_CONFORMER_ID>  (1) 
00004EDB00000002

>  <PUBCHEM_MMFF94_ENERGY>  (1) 
53.3468

>  <PUBCHEM_FEATURE_SELFOVERLAP>  (1) 
20.297

>  <PUBCHEM_SHAPE_FINGERPRINT>  (1) 
10366900 7 17822857459527232179
10912923 1 17775570849077279003
12236239 1 17846773010690343111
12644460 14 18410296926076367320
12670546 56 16773790364323912411
12916748 109 15482669095975388243
13533116 47 18202558488800487899
13760787 5 18342181059374704681
13955234 65 18411699907366586928
14739800 52 16343120537779982234
15375358 24 17821723940817540873
17844677 252 18410576137004244501
1813 80 17986400992818377726
200 152 18202556298984105151
20612939 158 18341897398438891140
20645477 70 18336818723817542438
22182313 1 17895460467341218148
23081809 10 17918268762828939397
23402539 116 15338823258748062469
23557571 272 17095795551505632988
23559900 14 17240491281752576270
239999 70 18260824895754064786
312423 11 18341621369296420224
3286 77 17203315689663052083
34797466 226 16950578695865392895
465052 167 18272368633616118526
5104073 3 18186239537363507513
59755656 215 18409171022217845164
6025842 7 18412260658159667646
633830 44 18260820480205788103
7364860 26 18412259550358837276
90127 26 18187366502190149645
9841814 1 18188482481339691658
9999458 23 18334008368139927790

>  <PUBCHEM_SHAPE_MULTIPOLES>  (1) 
379.81
12.28
2.75
1.23
9.19
0.22
-0.65
-0.38
1.49
-7.77
0.52
1.48
-0.06
0.21

>  <PUBCHEM_SHAPE_SELFOVERLAP>  (1) 
756.371

>  <PUBCHEM_SHAPE_VOLUME>  (1) 
221.5

>  <PUBCHEM_COORDINATE_TYPE>  (1) 
2
5
10

$$$$
