20186
     RDKit          3D

 17 17  0  0  0  0  0  0  0  0999 V2000
    2.0658   -0.4779   -0.7389 O   0  0  0  0  0  0  0  0  0  0  0  0
    0.4062    1.3927   -0.7228 O   0  0  0  0  0  0  0  0  0  0  0  0
    0.5530   -2.1202   -0.2863 O   0  0  0  0  0  0  0  0  0  0  0  0
    0.7177    1.6045    1.5649 O   0  0  0  0  0  0  0  0  0  0  0  0
   -0.1330    0.1048   -0.4717 N   0  0  0  0  0  0  0  0  0  0  0  0
    3.1390   -1.2268   -0.1564 C   0  0  0  0  0  0  0  0  0  0  0  0
    4.4648   -0.6076   -0.5717 C   0  0  0  0  0  0  0  0  0  0  0  0
    2.9722   -1.2478    1.3554 C   0  0  0  0  0  0  0  0  0  0  0  0
   -1.5209   -0.1107   -0.2303 C   0  0  0  0  0  0  0  0  0  0  0  0
    0.7944   -0.9320   -0.4787 C   0  0  0  0  0  0  0  0  0  0  0  0
   -1.9021   -1.1598    0.5817 C   0  0  0  0  0  0  0  0  0  0  0  0
   -2.4401    0.7366   -0.8153 C   0  0  0  0  0  0  0  0  0  0  0  0
   -3.2605   -1.3707    0.8184 C   0  0  0  0  0  0  0  0  0  0  0  0
   -3.7984    0.5257   -0.5783 C   0  0  0  0  0  0  0  0  0  0  0  0
   -4.2085   -0.5280    0.2386 C   0  0  0  0  0  0  0  0  0  0  0  0
    0.7978    2.0355    0.4225 C   0  0  0  0  0  0  0  0  0  0  0  0
    1.3525    3.3818    0.0687 C   0  0  0  0  0  0  0  0  0  0  0  0
  1  6  1  0
  1 10  1  0
  2  5  1  0
  2 16  1  0
  3 10  2  0
  4 16  2  0
  5  9  1  0
  5 10  1  0
  6  7  1  0
  6  8  1  0
  9 11  2  0
  9 12  1  0
 11 13  1  0
 12 14  2  0
 13 15  2  0
 14 15  1  0
 16 17  1  0
M  END
>  <PUBCHEM_COMPOUND_CID>  (1) 
20186

>  <PUBCHEM_CONFORMER_RMSD>  (1) 
0.8

>  <PUBCHEM_CONFORMER_DIVERSEORDER>  (1) 
1
37
43
15
51
49
17
22
42
36
21
10
13
35
25
20
27
24
26
34
28
11
29
12
6
40
5
23
2
18
44
14
31
16
32
46
41
19
47
39
38
8
4
7
3
45
9
48
30
33
50

>  <PUBCHEM_MMFF94_PARTIAL_CHARGES>  (1) 
20
1 -0.43
10 0.78
11 -0.15
12 -0.15
13 -0.15
14 -0.15
15 -0.15
16 0.66
17 0.06
2 -0.19
25 0.15
26 0.15
27 0.15
28 0.15
29 0.15
3 -0.57
4 -0.57
5 -0.14
6 0.28
9 0.12

>  <PUBCHEM_EFFECTIVE_ROTOR_COUNT>  (1) 
6

>  <PUBCHEM_PHARMACOPHORE_FEATURES>  (1) 
4
1 3 acceptor
1 4 acceptor
3 6 7 8 hydrophobe
6 9 11 12 13 14 15 rings

>  <PUBCHEM_HEAVY_ATOM_COUNT>  (1) 
17

>  <PUBCHEM_ATOM_DEF_STEREO_COUNT>  (1) 
0

>  <PUBCHEM_ATOM_UDEF_STEREO_COUNT>  (1) 
0

>  <PUBCHEM_BOND_DEF_STEREO_COUNT>  (1) 
0

>  <PUBCHEM_BOND_UDEF_STEREO_COUNT>  (1) 
0

>  <PUBCHEM_ISOTOPIC_ATOM_COUNT>  (1) 
0

>  <PUBCHEM_COMPONENT_COUNT>  (1) 
1

>  <PUBCHEM_CACTVS_TAUTO_COUNT>  (1) 
1

>  <PUBCHEM_CONFORMER_ID>  (1) 
00004EDA00000001

>  <PUBCHEM_MMFF94_ENERGY>  (1) 
50.1525

>  <PUBCHEM_FEATURE_SELFOVERLAP>  (1) 
20.297

>  <PUBCHEM_SHAPE_FINGERPRINT>  (1) 
10130415 120 18334577901866204695
10465860 250 18334849477101657690
108231 29 18409736148933578202
12592029 89 18119250816505160312
12716301 132 17608338308647652741
13132413 78 18200320892206605033
13140716 1 18265625458068523467
15219456 202 18336264660504799773
16945 1 18413392012395479039
17804303 29 18333735723636621671
18785283 64 18046911751553432104
20097449 115 18412825759327643184
20233049 118 18334016077373628198
20600515 1 18201734928826514292
20671657 1 18197783408316461101
21041028 32 18201166494163550129
21061003 4 18343304742951795987
21501502 16 18127408084560038655
21524375 3 17480302709075504885
2297311 6 18269003003491949718
23175994 123 18340495477747117871
23402539 116 18201432546134110662
23526113 38 18262233305550779827
23559900 14 17968376866059880791
2748010 2 18189896594636295069
3071541 158 18408606976145618212
3286 77 18409731802779881871
537710 114 18409456890518500356
5493415 88 18409732876099738407
5902787 121 18335420175017948802
68521 5 18267028262864027300
7364860 26 18267305506976184789
81228 2 17839192817749865816

>  <PUBCHEM_SHAPE_MULTIPOLES>  (1) 
321.39
7
2.56
1.06
0.89
2.34
-0.27
-2.87
0.23
-1.51
-0.45
-0.27
0.02
0.57

>  <PUBCHEM_SHAPE_SELFOVERLAP>  (1) 
656.005

>  <PUBCHEM_SHAPE_VOLUME>  (1) 
185.4

>  <PUBCHEM_COORDINATE_TYPE>  (1) 
2
5
10

$$$$
