20197
     RDKit          3D

 11 11  0  0  0  0  0  0  0  0999 V2000
    2.5518    0.3054   -0.1717 C   0  0  0  0  0  0  0  0  0  0  0  0
    1.0725    0.2075   -0.0082 C   0  0  0  0  0  0  0  0  0  0  0  0
   -1.6944    0.0251    0.2972 C   0  0  0  0  0  0  0  0  0  0  0  0
    3.0639   -0.4905   -1.3872 C   0  0  0  0  0  0  0  0  0  0  0  0
    3.3142   -0.1276    1.0949 C   0  0  0  0  0  0  0  0  0  0  0  0
    0.4774   -1.0310    0.2325 C   0  0  0  0  0  0  0  0  0  0  0  0
    0.2841    1.3548   -0.0962 C   0  0  0  0  0  0  0  0  0  0  0  0
   -0.9061   -1.1222    0.3852 C   0  0  0  0  0  0  0  0  0  0  0  0
   -1.0995    1.2636    0.0565 C   0  0  0  0  0  0  0  0  0  0  0  0
   -3.1734   -0.0723    0.4615 C   0  0  0  0  0  0  0  0  0  0  0  0
   -3.8904   -0.3128   -0.8646 C   0  0  0  0  0  0  0  0  0  0  0  0
  1  2  1  0
  1  4  1  0
  1  5  1  0
  2  6  2  0
  2  7  1  0
  3  8  2  0
  3  9  1  0
  3 10  1  0
  6  8  1  0
  7  9  2  0
 10 11  1  0
M  END
>  <PUBCHEM_COMPOUND_CID>  (1) 
20197

>  <PUBCHEM_CONFORMER_RMSD>  (1) 
0.4

>  <PUBCHEM_CONFORMER_DIVERSEORDER>  (1) 
1
5
6
4
2
3

>  <PUBCHEM_MMFF94_PARTIAL_CHARGES>  (1) 
12
1 0.14
10 0.14
19 0.15
2 -0.14
20 0.15
21 0.15
22 0.15
3 -0.14
6 -0.15
7 -0.15
8 -0.15
9 -0.15

>  <PUBCHEM_EFFECTIVE_ROTOR_COUNT>  (1) 
2

>  <PUBCHEM_PHARMACOPHORE_FEATURES>  (1) 
3
1 11 hydrophobe
3 1 4 5 hydrophobe
6 2 3 6 7 8 9 rings

>  <PUBCHEM_HEAVY_ATOM_COUNT>  (1) 
11

>  <PUBCHEM_ATOM_DEF_STEREO_COUNT>  (1) 
0

>  <PUBCHEM_ATOM_UDEF_STEREO_COUNT>  (1) 
0

>  <PUBCHEM_BOND_DEF_STEREO_COUNT>  (1) 
0

>  <PUBCHEM_BOND_UDEF_STEREO_COUNT>  (1) 
0

>  <PUBCHEM_ISOTOPIC_ATOM_COUNT>  (1) 
0

>  <PUBCHEM_COMPONENT_COUNT>  (1) 
1

>  <PUBCHEM_CACTVS_TAUTO_COUNT>  (1) 
1

>  <PUBCHEM_CONFORMER_ID>  (1) 
00004EE500000001

>  <PUBCHEM_MMFF94_ENERGY>  (1) 
22.9774

>  <PUBCHEM_FEATURE_SELFOVERLAP>  (1) 
15.223

>  <PUBCHEM_SHAPE_FINGERPRINT>  (1) 
10130415 120 17968090928142820096
10219947 1 18411418423061437145
11206711 2 18261675883178051333
11401426 45 18338784676641371689
11769659 78 16558750096424395663
12032990 46 18339090362253946851
124424 183 17603296060001760683
12932764 1 17560526114063880854
14289901 80 16128653080667717283
14325111 11 18410014320879841753
14911166 2 18335143106856798199
14993402 34 17967541176687008068
16945 1 18335709337985839993
18186145 218 18187089472383173773
19026448 4 16559032670902158225
19026448 5 15913333489580628451
193761 8 17687179790533310889
20201158 50 18411703187919987814
20645476 183 17168440366505026570
21293036 1 18333735740505124717
22485316 2 16056874741461530623
23402539 116 18270949194031585316
23402655 69 18191850264160276053
23552423 10 17680156458110609380
23559900 14 18337118947217673502
2748010 2 18047760582966327491
5084963 1 18201450142292972320
57812782 119 17846777420804097835
581208 293 18060699502758314102
8030462 33 18114471071706923770

>  <PUBCHEM_SHAPE_MULTIPOLES>  (1) 
226.37
5.93
1.18
1.02
1.33
0.17
0.16
-0.79
0.84
0.11
-0.02
-0.55
-0.14
0.06

>  <PUBCHEM_SHAPE_SELFOVERLAP>  (1) 
455.287

>  <PUBCHEM_SHAPE_VOLUME>  (1) 
129

>  <PUBCHEM_COORDINATE_TYPE>  (1) 
2
5
10

$$$$
