20196
     RDKit          3D

 18 19  0  0  0  0  0  0  0  0999 V2000
    3.7405    3.1572    0.5047 Cl  0  0  0  0  0  0  0  0  0  0  0  0
   -5.2194    2.1866   -0.6035 Cl  0  0  0  0  0  0  0  0  0  0  0  0
    2.5904   -2.4986   -0.5847 O   0  0  0  0  0  0  0  0  0  0  0  0
    0.2529   -1.9743    0.5410 O   0  0  0  0  0  0  0  0  0  0  0  0
   -0.5582    0.1408   -0.0704 N   0  0  0  0  0  0  0  0  0  0  0  0
    1.8149   -0.3204    0.0556 C   0  0  0  0  0  0  0  0  0  0  0  0
   -1.9628   -0.0278    0.0027 C   0  0  0  0  0  0  0  0  0  0  0  0
    0.4465   -0.8000    0.1909 C   0  0  0  0  0  0  0  0  0  0  0  0
    2.8414   -1.1842   -0.3267 C   0  0  0  0  0  0  0  0  0  0  0  0
    2.0928    1.0220    0.3133 C   0  0  0  0  0  0  0  0  0  0  0  0
   -2.7896    1.0402   -0.3007 C   0  0  0  0  0  0  0  0  0  0  0  0
   -2.4764   -1.2584    0.3747 C   0  0  0  0  0  0  0  0  0  0  0  0
    4.1455   -0.7058   -0.4512 C   0  0  0  0  0  0  0  0  0  0  0  0
    3.3971    1.5006    0.1888 C   0  0  0  0  0  0  0  0  0  0  0  0
    4.4235    0.6366   -0.1934 C   0  0  0  0  0  0  0  0  0  0  0  0
   -4.1726    0.8724   -0.2299 C   0  0  0  0  0  0  0  0  0  0  0  0
   -3.8592   -1.4261    0.4456 C   0  0  0  0  0  0  0  0  0  0  0  0
   -4.7074   -0.3608    0.1432 C   0  0  0  0  0  0  0  0  0  0  0  0
  1 14  1  0
  2 16  1  0
  3  9  1  0
  4  8  2  0
  5  7  1  0
  5  8  1  0
  6  8  1  0
  6  9  2  0
  6 10  1  0
  7 11  2  0
  7 12  1  0
  9 13  1  0
 10 14  2  0
 11 16  1  0
 12 17  2  0
 13 15  2  0
 14 15  1  0
 16 18  2  0
 17 18  1  0
M  END
>  <PUBCHEM_COMPOUND_CID>  (1) 
20196

>  <PUBCHEM_CONFORMER_RMSD>  (1) 
0.6

>  <PUBCHEM_CONFORMER_DIVERSEORDER>  (1) 
5
11
4
14
8
9
12
2
7
13
6
3
10
1

>  <PUBCHEM_MMFF94_PARTIAL_CHARGES>  (1) 
27
1 -0.18
10 -0.15
11 -0.15
12 -0.15
13 -0.15
14 0.18
15 -0.15
16 0.18
17 -0.15
18 -0.15
19 0.37
2 -0.18
20 0.15
21 0.15
22 0.15
23 0.15
24 0.15
25 0.15
26 0.15
27 0.45
3 -0.53
4 -0.57
5 -0.55
6 0.09
7 0.12
8 0.54
9 0.08

>  <PUBCHEM_EFFECTIVE_ROTOR_COUNT>  (1) 
3

>  <PUBCHEM_PHARMACOPHORE_FEATURES>  (1) 
5
1 3 donor
1 4 acceptor
1 5 donor
6 6 9 10 13 14 15 rings
6 7 11 12 16 17 18 rings

>  <PUBCHEM_HEAVY_ATOM_COUNT>  (1) 
18

>  <PUBCHEM_ATOM_DEF_STEREO_COUNT>  (1) 
0

>  <PUBCHEM_ATOM_UDEF_STEREO_COUNT>  (1) 
0

>  <PUBCHEM_BOND_DEF_STEREO_COUNT>  (1) 
0

>  <PUBCHEM_BOND_UDEF_STEREO_COUNT>  (1) 
0

>  <PUBCHEM_ISOTOPIC_ATOM_COUNT>  (1) 
0

>  <PUBCHEM_COMPONENT_COUNT>  (1) 
1

>  <PUBCHEM_CACTVS_TAUTO_COUNT>  (1) 
7

>  <PUBCHEM_CONFORMER_ID>  (1) 
00004EE400000005

>  <PUBCHEM_MMFF94_ENERGY>  (1) 
55.1241

>  <PUBCHEM_FEATURE_SELFOVERLAP>  (1) 
25.371

>  <PUBCHEM_SHAPE_FINGERPRINT>  (1) 
10014705 185 18333448725595764501
10498660 4 18333445426723537357
10608611 8 18409448098134824177
10646746 165 18260547826864920045
11405975 8 18335981982699746395
11471102 20 18342459231822173590
11595378 159 15936965228688460261
11615757 297 17846504750494649939
12403259 415 18409453621536918712
12507560 40 18409451401428820559
12596602 18 14345808140150870900
12730499 353 18410865385956189450
12769317 202 17915734474026166872
13081056 2 18410294743679242129
14528608 73 18411694392322721189
15196674 1 18409448102614609129
15375358 24 18335702762475598147
15536298 74 18411702096977026780
15961568 22 17677332860949121404
17834072 33 18272929445007557415
17844677 252 18412834585759645633
17959699 21 18410854335263948993
18186145 218 18272100387127531994
200 152 17846499227166759075
20645477 56 18260267413499700533
20645477 70 18059861631843157862
21065198 57 18409730651338327591
21315763 129 18409444803916221497
21452121 103 18340196479926617736
21709351 56 18342735239052328846
221357 26 18269835328692139149
221490 88 18410865364602879986
22289505 5 18341048511001153236
23227448 37 18197777910631338686
23402539 116 18408598180268665846
23402655 69 18343302561150536340
23557571 272 17821446850759937661
23559900 14 18340202977689942330
245318 6 16738342354332235500
3060560 45 18060143120316563910
3545911 37 18409452479349729661
4028521 119 18334573512905584813
4214541 1 18409730642996273885
474 4 18340768247215756472
495365 180 18059564819891238672
4990 188 18342745100249994782
5104073 3 18333732399358198729
5281201 14 18341901774731023484
543358 83 18267870484153838658
633830 44 18410285921726693687
77779 3 18410857663715500943
7808743 9 17618501425794928984
90127 26 18334301976240480849
9709674 26 18410018749144624327

>  <PUBCHEM_SHAPE_MULTIPOLES>  (1) 
357.45
11.35
2.63
0.73
5.81
1.06
0.01
4.8
0.94
-1.38
-0.09
0.01
0.03
1.46

>  <PUBCHEM_SHAPE_SELFOVERLAP>  (1) 
755.147

>  <PUBCHEM_SHAPE_VOLUME>  (1) 
201.7

>  <PUBCHEM_COORDINATE_TYPE>  (1) 
2
5
10

$$$$
