20192
     RDKit          3D

 17 17  0  0  0  0  0  0  0  0999 V2000
    3.6556    3.2020    0.3103 Cl  0  0  0  0  0  0  0  0  0  0  0  0
    2.7432   -3.8498    0.4395 Cl  0  0  0  0  0  0  0  0  0  0  0  0
   -0.7308   -0.0682    1.6038 O   0  0  0  0  0  0  0  0  0  0  0  0
   -3.3307    0.2571    0.7237 O   0  0  0  0  0  0  0  0  0  0  0  0
    1.3962   -0.1015   -0.2237 N   0  0  0  0  0  0  0  0  0  0  0  0
    0.0607    0.0634   -0.6516 C   0  0  0  0  0  0  0  0  0  0  0  0
    2.3842    0.9223   -0.4961 C   0  0  0  0  0  0  0  0  0  0  0  0
    1.7903   -1.2901    0.5046 C   0  0  0  0  0  0  0  0  0  0  0  0
   -0.9851    0.0774    0.2713 C   0  0  0  0  0  0  0  0  0  0  0  0
   -0.2076    0.2137   -2.0121 C   0  0  0  0  0  0  0  0  0  0  0  0
    2.4362    1.9434    0.6295 C   0  0  0  0  0  0  0  0  0  0  0  0
    2.2458   -2.3862   -0.4458 C   0  0  0  0  0  0  0  0  0  0  0  0
   -2.2992    0.2414   -0.1663 C   0  0  0  0  0  0  0  0  0  0  0  0
   -1.5218    0.3776   -2.4498 C   0  0  0  0  0  0  0  0  0  0  0  0
   -2.5677    0.3915   -1.5269 C   0  0  0  0  0  0  0  0  0  0  0  0
   -1.1292    1.0008    2.4582 C   0  0  0  0  0  0  0  0  0  0  0  0
   -3.9400   -0.9951    1.0315 C   0  0  0  0  0  0  0  0  0  0  0  0
  1 11  1  0
  2 12  1  0
  3  9  1  0
  3 16  1  0
  4 13  1  0
  4 17  1  0
  5  6  1  0
  5  7  1  0
  5  8  1  0
  6  9  2  0
  6 10  1  0
  7 11  1  0
  8 12  1  0
  9 13  1  0
 10 14  2  0
 13 15  2  0
 14 15  1  0
M  END
>  <PUBCHEM_COMPOUND_CID>  (1) 
20192

>  <PUBCHEM_CONFORMER_RMSD>  (1) 
0.8

>  <PUBCHEM_CONFORMER_DIVERSEORDER>  (1) 
1
14
31
46
45
29
36
19
7
23
48
24
44
42
37
13
22
34
20
6
47
28
12
27
11
2
39
38
26
4
16
18
8
15
9
21
43
30
25
40
49
35
41
32
17
10
3
33
5

>  <PUBCHEM_MMFF94_PARTIAL_CHARGES>  (1) 
20
1 -0.29
10 -0.15
11 0.29
12 0.29
13 0.08
14 -0.15
15 -0.15
16 0.28
17 0.28
2 -0.29
22 0.15
27 0.15
28 0.15
3 -0.36
4 -0.36
5 -0.84
6 0.1
7 0.37
8 0.37
9 0.08

>  <PUBCHEM_EFFECTIVE_ROTOR_COUNT>  (1) 
7

>  <PUBCHEM_PHARMACOPHORE_FEATURES>  (1) 
4
1 3 acceptor
1 4 acceptor
1 5 cation
6 6 9 10 13 14 15 rings

>  <PUBCHEM_HEAVY_ATOM_COUNT>  (1) 
17

>  <PUBCHEM_ATOM_DEF_STEREO_COUNT>  (1) 
0

>  <PUBCHEM_ATOM_UDEF_STEREO_COUNT>  (1) 
0

>  <PUBCHEM_BOND_DEF_STEREO_COUNT>  (1) 
0

>  <PUBCHEM_BOND_UDEF_STEREO_COUNT>  (1) 
0

>  <PUBCHEM_ISOTOPIC_ATOM_COUNT>  (1) 
0

>  <PUBCHEM_COMPONENT_COUNT>  (1) 
1

>  <PUBCHEM_CACTVS_TAUTO_COUNT>  (1) 
1

>  <PUBCHEM_CONFORMER_ID>  (1) 
00004EE000000001

>  <PUBCHEM_MMFF94_ENERGY>  (1) 
76.0223

>  <PUBCHEM_FEATURE_SELFOVERLAP>  (1) 
20.302

>  <PUBCHEM_SHAPE_FINGERPRINT>  (1) 
10764073 3 15969385801906154696
12202030 40 17895762776845604446
12788726 201 16751819661195748642
13583140 156 18342183258677723473
14787075 74 17411627187171540043
14817 1 9553972081067264024
16945 1 18342726438390129933
1813 80 17772472288167211102
18915476 22 18335409171490896302
19765921 60 17916018156415139496
20361792 2 17982718680852857638
20511035 2 14279042289882884509
21061003 4 18048031878744426878
22079108 93 17911523404188238120
22112679 90 16773500144666958956
229495 10 18340756100990149941
23402539 116 16517075440498926417
23493267 7 17345496880151975931
23526113 38 17826771673909387934
23557571 272 17313103051325842901
23559900 14 16660912289166953110
23598291 2 17847059986692283772
23598294 1 16486410026655918991
2748010 2 17240758446056291711
31174 14 18336267851264736598
3286 77 18262245391472654239
458136 41 18337115678146310774
59755656 520 18052819436594004872
6049 1 17895755084632660357
621550 34 18260828254154551213
633830 44 18058457663216914188
77492 1 17632284692462934756
81228 2 16515688801839090173
84936 31 18409164420167048998

>  <PUBCHEM_SHAPE_MULTIPOLES>  (1) 
336.87
5.76
3.16
2.05
1.13
2.21
-0.2
-0.65
1.15
-6.29
0.74
1.74
-0.55
0.41

>  <PUBCHEM_SHAPE_SELFOVERLAP>  (1) 
657.72

>  <PUBCHEM_SHAPE_VOLUME>  (1) 
207.3

>  <PUBCHEM_COORDINATE_TYPE>  (1) 
2
5
10

$$$$
