20208
     RDKit          3D

 13 13  0  0  0  0  0  0  0  0999 V2000
   -2.4389    1.3161    0.3124 O   0  0  0  0  0  0  0  0  0  0  0  0
    1.8673   -2.1008   -0.1302 O   0  0  0  0  0  0  0  0  0  0  0  0
    3.2626    0.1283   -0.6620 O   0  0  0  0  0  0  0  0  0  0  0  0
   -1.5762   -0.9147    0.1559 C   0  0  0  0  0  0  0  0  0  0  0  0
    1.0060    0.1328    0.0249 C   0  0  0  0  0  0  0  0  0  0  0  0
   -1.3802    0.4656    0.2023 C   0  0  0  0  0  0  0  0  0  0  0  0
   -0.0891    0.9893    0.1369 C   0  0  0  0  0  0  0  0  0  0  0  0
    0.8102   -1.2476   -0.0215 C   0  0  0  0  0  0  0  0  0  0  0  0
   -0.4811   -1.7714    0.0440 C   0  0  0  0  0  0  0  0  0  0  0  0
   -2.9513   -1.4924    0.2240 C   0  0  0  0  0  0  0  0  0  0  0  0
    2.3457    0.7001   -0.0413 C   0  0  0  0  0  0  0  0  0  0  0  0
    2.6549    2.0192    0.6562 C   0  0  0  0  0  0  0  0  0  0  0  0
   -3.0299    1.7754   -0.9015 C   0  0  0  0  0  0  0  0  0  0  0  0
  1  6  1  0
  1 13  1  0
  2  8  1  0
  3 11  2  0
  4  6  2  0
  4  9  1  0
  4 10  1  0
  5  7  2  0
  5  8  1  0
  5 11  1  0
  6  7  1  0
  8  9  2  0
 11 12  1  0
M  END
>  <PUBCHEM_COMPOUND_CID>  (1) 
20208

>  <PUBCHEM_CONFORMER_RMSD>  (1) 
0.6

>  <PUBCHEM_CONFORMER_DIVERSEORDER>  (1) 
2
3
4
1

>  <PUBCHEM_MMFF94_PARTIAL_CHARGES>  (1) 
16
1 -0.36
10 0.14
11 0.42
12 0.06
13 0.28
14 0.15
15 0.15
2 -0.53
22 0.45
3 -0.57
4 -0.14
5 0.09
6 0.08
7 -0.15
8 0.08
9 -0.15

>  <PUBCHEM_EFFECTIVE_ROTOR_COUNT>  (1) 
2

>  <PUBCHEM_PHARMACOPHORE_FEATURES>  (1) 
4
1 1 acceptor
1 2 donor
1 3 acceptor
6 4 5 6 7 8 9 rings

>  <PUBCHEM_HEAVY_ATOM_COUNT>  (1) 
13

>  <PUBCHEM_ATOM_DEF_STEREO_COUNT>  (1) 
0

>  <PUBCHEM_ATOM_UDEF_STEREO_COUNT>  (1) 
0

>  <PUBCHEM_BOND_DEF_STEREO_COUNT>  (1) 
0

>  <PUBCHEM_BOND_UDEF_STEREO_COUNT>  (1) 
0

>  <PUBCHEM_ISOTOPIC_ATOM_COUNT>  (1) 
0

>  <PUBCHEM_COMPONENT_COUNT>  (1) 
1

>  <PUBCHEM_CACTVS_TAUTO_COUNT>  (1) 
15

>  <PUBCHEM_CONFORMER_ID>  (1) 
00004EF000000002

>  <PUBCHEM_MMFF94_ENERGY>  (1) 
47.3259

>  <PUBCHEM_FEATURE_SELFOVERLAP>  (1) 
20.297

>  <PUBCHEM_SHAPE_FINGERPRINT>  (1) 
10608611 8 18410572898567248081
11206711 2 18338518641982361295
12897270 3 18339361967142480231
12932764 1 18410020939434832056
13380535 21 18337685121889816971
13380535 76 18337946796951358915
13897977 150 18411697651849639517
14325111 11 18411420648044640824
14614273 12 18335693992315754165
14648413 74 18338799992125685667
14897335 6 18338227176806270237
14911166 2 18050289158962606343
15279308 100 18191025595066602125
15490181 7 18270112543256236862
15775835 57 18335428928150644564
16945 1 18263928923936454987
17844478 74 18190755304406347779
18186145 218 18201447990588482904
193761 8 18410855425937579355
20510252 161 18198626716470674497
21028194 46 18410296955719138448
21501502 16 18408602526548923811
2334 1 18410013234369257827
23402539 116 18052806233120400958
23402655 69 18268979896509855565
23552423 10 18334298630155365667
23559900 14 18272100383935046748
25 1 18193839245454131445
2748010 2 18410299085943958447
5084963 1 18129110085335531528
53812653 166 18413672400481791224
63268167 104 18267309733213129928
6333449 129 18411418431799292069
7364860 26 18270399391316247034

>  <PUBCHEM_SHAPE_MULTIPOLES>  (1) 
249.93
4.81
2.32
0.74
0.37
0.12
0.04
-1.61
0.35
-0.41
0.05
-0.03
-0.17
0.72

>  <PUBCHEM_SHAPE_SELFOVERLAP>  (1) 
520.183

>  <PUBCHEM_SHAPE_VOLUME>  (1) 
143.5

>  <PUBCHEM_COORDINATE_TYPE>  (1) 
2
5
10

$$$$
