20204
     RDKit          3D

 22 23  0  0  1  0  0  0  0  0999 V2000
    2.7027   -1.3868   -1.5018 N   0  0  0  0  0  0  0  0  0  0  0  0
    1.2711   -1.7292    0.5796 C   0  0  0  0  0  0  0  0  0  0  0  0
    1.7440   -0.7549   -0.5801 C   0  0  0  0  0  0  0  0  0  0  0  0
    0.0554   -1.0828    1.3214 C   0  0  0  0  0  0  0  0  0  0  0  0
    2.3970   -2.0366    1.5896 C   0  0  0  0  0  0  0  0  0  0  0  0
    0.8300   -3.0715   -0.0559 C   0  0  0  0  0  0  0  0  0  0  0  0
   -1.1885   -0.7715    0.4731 C   0  0  0  0  0  0  0  0  0  0  0  0
    2.2373    0.6146   -0.1219 C   0  0  0  0  0  0  0  0  0  0  0  0
   -2.3470   -0.2115    1.3129 C   0  0  0  0  0  0  0  0  0  0  0  0
    3.9915   -1.5631   -0.8410 C   0  0  0  0  0  0  0  0  0  0  0  0
    2.8443   -0.5795   -2.7088 C   0  0  0  0  0  0  0  0  0  0  0  0
    2.0753    1.6934   -0.9638 C   0  0  0  0  0  0  0  0  0  0  0  0
    2.8281    0.7256    1.1179 C   0  0  0  0  0  0  0  0  0  0  0  0
   -3.5907    0.0855    0.5126 C   0  0  0  0  0  0  0  0  0  0  0  0
    2.5265    2.9451   -0.5451 C   0  0  0  0  0  0  0  0  0  0  0  0
    3.2793    1.9773    1.5367 C   0  0  0  0  0  0  0  0  0  0  0  0
    3.1285    3.0871    0.7050 C   0  0  0  0  0  0  0  0  0  0  0  0
   -3.7546    1.3425   -0.0490 C   0  0  0  0  0  0  0  0  0  0  0  0
   -4.5490   -0.9035    0.3524 C   0  0  0  0  0  0  0  0  0  0  0  0
   -4.9049    1.6172   -0.7887 C   0  0  0  0  0  0  0  0  0  0  0  0
   -5.6992   -0.6289   -0.3874 C   0  0  0  0  0  0  0  0  0  0  0  0
   -5.8772    0.6315   -0.9578 C   0  0  0  0  0  0  0  0  0  0  0  0
  1  3  1  0
  1 10  1  0
  1 11  1  0
  2  3  1  0
  2  4  1  0
  2  5  1  0
  2  6  1  0
  3  8  1  0
  4  7  1  0
  7  9  1  0
  8 12  2  0
  8 13  1  0
  9 14  1  0
 12 15  1  0
 13 16  2  0
 14 18  2  0
 14 19  1  0
 15 17  2  0
 16 17  1  0
 18 20  1  0
 19 21  2  0
 20 22  2  0
 21 22  1  0
M  END
>  <PUBCHEM_COMPOUND_CID>  (1) 
20204

>  <PUBCHEM_CONFORMER_RMSD>  (1) 
0.8

>  <PUBCHEM_CONFORMER_DIVERSEORDER>  (1) 
3
11
10
13
7
5
16
18
2
14
9
12
8
15
4
6
17
1

>  <PUBCHEM_MMFF94_PARTIAL_CHARGES>  (1) 
27
1 -0.81
10 0.27
11 0.27
12 -0.15
13 -0.15
14 -0.14
15 -0.15
16 -0.15
17 -0.15
18 -0.15
19 -0.15
20 -0.15
21 -0.15
22 -0.15
3 0.41
42 0.15
43 0.15
44 0.15
45 0.15
46 0.15
47 0.15
48 0.15
49 0.15
50 0.15
51 0.15
8 -0.14
9 0.14

>  <PUBCHEM_EFFECTIVE_ROTOR_COUNT>  (1) 
7

>  <PUBCHEM_PHARMACOPHORE_FEATURES>  (1) 
5
1 1 cation
3 2 5 6 hydrophobe
4 2 4 7 9 hydrophobe
6 14 18 19 20 21 22 rings
6 8 12 13 15 16 17 rings

>  <PUBCHEM_HEAVY_ATOM_COUNT>  (1) 
22

>  <PUBCHEM_ATOM_DEF_STEREO_COUNT>  (1) 
0

>  <PUBCHEM_ATOM_UDEF_STEREO_COUNT>  (1) 
1

>  <PUBCHEM_BOND_DEF_STEREO_COUNT>  (1) 
0

>  <PUBCHEM_BOND_UDEF_STEREO_COUNT>  (1) 
0

>  <PUBCHEM_ISOTOPIC_ATOM_COUNT>  (1) 
0

>  <PUBCHEM_COMPONENT_COUNT>  (1) 
1

>  <PUBCHEM_CACTVS_TAUTO_COUNT>  (1) 
1

>  <PUBCHEM_CONFORMER_ID>  (1) 
00004EEC00000003

>  <PUBCHEM_MMFF94_ENERGY>  (1) 
103.1896

>  <PUBCHEM_FEATURE_SELFOVERLAP>  (1) 
25.396

>  <PUBCHEM_SHAPE_FINGERPRINT>  (1) 
10930396 42 18268695153611951298
11595378 159 14273734006842258655
12616971 3 17703524216049377803
12633257 1 15068613937550780601
12769317 202 18200588232430231233
12778500 126 12540967448456368551
13134695 92 18115860802960310074
13294875 104 18260274066377817866
14251764 38 18407755937419966025
15210252 30 17313684675512848500
15342816 4 14333126360356629963
15799311 1 15841273744439715295
17844677 252 18342178830888136361
17980427 23 17628601359054925186
18186145 218 18338809944002604731
18681886 176 18342731897394368186
20645477 70 18131355210886070147
21304303 282 17554299777627646814
21403212 168 18268973415451497136
21860390 5 18411697694846980476
22149856 69 18263947565376571219
22289505 5 18115305545034482767
22393880 68 18409169909362392327
23419403 2 17389069327902454538
23559900 14 18337384946952859339
238 59 18129679593809612752
239999 70 18343865515319881727
3060560 45 18341897351020853150
312423 11 17274556351320584057
341906 21 17022905692022257177
34797466 226 18272930544977991117
46194498 28 18131077021496168005
474 4 18335136552668262657
495365 180 18408881841272940907
5104073 3 18187363200072235617
513532 50 18413668006962200076
5281201 14 18272376351903859821
5895379 119 17986109600123935825
59755656 215 18343866636860604028
633830 44 18059871536575611251
67856867 119 18335688443444893875
7471813 234 17703232806359539768
7808743 9 17758402150977440256

>  <PUBCHEM_SHAPE_MULTIPOLES>  (1) 
447.77
11.21
3.15
1.72
20.48
0.89
0.59
3.25
2.5
-3.73
-0.3
-1.74
-0.25
1.33

>  <PUBCHEM_SHAPE_SELFOVERLAP>  (1) 
928.688

>  <PUBCHEM_SHAPE_VOLUME>  (1) 
256.1

>  <PUBCHEM_COORDINATE_TYPE>  (1) 
2
5
10

$$$$
