20206
     RDKit          3D

 13 12  0  0  0  0  0  0  0  0999 V2000
   -3.4010   -0.6020    1.0670 O   0  0  0  0  0  0  0  0  0  0  0  0
   -1.9688   -0.5659   -0.7633 N   0  0  0  0  0  0  0  0  0  0  0  0
    3.3560    0.4260    0.0632 C   0  0  0  0  0  0  0  0  0  0  0  0
    2.2075   -0.4343    0.6550 C   0  0  0  0  0  0  0  0  0  0  0  0
    0.9939   -0.6468   -0.2592 C   0  0  0  0  0  0  0  0  0  0  0  0
    4.5398    0.5225    1.0398 C   0  0  0  0  0  0  0  0  0  0  0  0
    2.8116    1.8464   -0.1860 C   0  0  0  0  0  0  0  0  0  0  0  0
    3.8492   -0.1482   -1.2752 C   0  0  0  0  0  0  0  0  0  0  0  0
   -0.0413   -1.5617    0.4071 C   0  0  0  0  0  0  0  0  0  0  0  0
   -1.2710   -1.7869   -0.4674 C   0  0  0  0  0  0  0  0  0  0  0  0
   -2.9877   -0.0721    0.0405 C   0  0  0  0  0  0  0  0  0  0  0  0
   -3.5490    1.2010   -0.4849 C   0  0  0  0  0  0  0  0  0  0  0  0
   -4.5392    1.8221    0.1632 C   0  0  0  0  0  0  0  0  0  0  0  0
  1 11  2  0
  2 10  1  0
  2 11  1  0
  3  4  1  0
  3  6  1  0
  3  7  1  0
  3  8  1  0
  4  5  1  0
  5  9  1  0
  9 10  1  0
 11 12  1  0
 12 13  2  0
M  END
>  <PUBCHEM_COMPOUND_CID>  (1) 
20206

>  <PUBCHEM_CONFORMER_RMSD>  (1) 
0.8

>  <PUBCHEM_CONFORMER_DIVERSEORDER>  (1) 
1
23
3
8
25
4
14
18
12
27
19
28
5
24
20
11
26
15
9
6
21
13
16
10
29
22
7
17
2

>  <PUBCHEM_MMFF94_PARTIAL_CHARGES>  (1) 
10
1 -0.57
10 0.3
11 0.62
12 -0.14
13 -0.3
2 -0.73
31 0.37
32 0.15
33 0.15
34 0.15

>  <PUBCHEM_EFFECTIVE_ROTOR_COUNT>  (1) 
7

>  <PUBCHEM_PHARMACOPHORE_FEATURES>  (1) 
5
1 1 acceptor
1 13 hydrophobe
1 2 donor
4 3 4 5 9 hydrophobe
4 3 6 7 8 hydrophobe

>  <PUBCHEM_HEAVY_ATOM_COUNT>  (1) 
13

>  <PUBCHEM_ATOM_DEF_STEREO_COUNT>  (1) 
0

>  <PUBCHEM_ATOM_UDEF_STEREO_COUNT>  (1) 
0

>  <PUBCHEM_BOND_DEF_STEREO_COUNT>  (1) 
0

>  <PUBCHEM_BOND_UDEF_STEREO_COUNT>  (1) 
0

>  <PUBCHEM_ISOTOPIC_ATOM_COUNT>  (1) 
0

>  <PUBCHEM_COMPONENT_COUNT>  (1) 
1

>  <PUBCHEM_CACTVS_TAUTO_COUNT>  (1) 
2

>  <PUBCHEM_CONFORMER_ID>  (1) 
00004EEE00000001

>  <PUBCHEM_MMFF94_ENERGY>  (1) 
18.1431

>  <PUBCHEM_FEATURE_SELFOVERLAP>  (1) 
25.408

>  <PUBCHEM_SHAPE_FINGERPRINT>  (1) 
11046707 91 8718828699604961491
11552529 35 16371869510733502370
122479 349 18335703857707991923
14123255 352 18341888615046498696
14123255 52 18412260619067202615
14123260 362 17917716777526254113
1420 369 8286192864460973057
14252887 29 12901547923272794850
14576447 43 10519983781684913736
15775835 57 18408321068846754989
17041 49 18189041136141154592
1741750 31 18413668015373085291
177051 138 8502653718446836082
17834072 32 18412263922055542649
17834072 8 18059582347673918198
1798214 20 10159694673160180953
1798214 55 18412260597566135281
18186145 218 18059867163824208278
18915474 69 10303818717600837872
19107657 162 11025789894895727824
19107657 9 18040157335580129590
200 152 14045749227019445674
20112054 13 18335417958920059263
20233049 118 18271800224975132528
20281407 28 9295297139915909510
20281475 54 9583528632759079222
20645477 56 17917149532236511770
20645477 70 16415211078659840766
20671657 53 11312052140965536091
212847 35 18261394412622615892
22485316 2 9799698090420437282
22646028 28 9295289460419263213
231179 274 18412262800657297023
23402539 116 18130495397378383948
23402655 69 17989208135839472612
23403322 49 9295289443598200641
23557571 272 17703217541792711179
251288 83 11674887701424594454
27216 239 18334577962607566337
351380 3 8862935104715874841
4028521 119 17989204828561667601
6430166 295 18410289207629739498
9882013 296 14418137348094404462

>  <PUBCHEM_SHAPE_MULTIPOLES>  (1) 
256.68
9.84
1.84
1.02
1.5
0.23
0.03
5.24
-0.7
1.08
0.06
-0.57
-0.07
0.18

>  <PUBCHEM_SHAPE_SELFOVERLAP>  (1) 
477.899

>  <PUBCHEM_SHAPE_VOLUME>  (1) 
161.6

>  <PUBCHEM_COORDINATE_TYPE>  (1) 
2
5
10

$$$$
