20215
     RDKit          3D

 15 16  0  0  0  0  0  0  0  0999 V2000
   -1.9618    3.3067    0.0006 Br  0  0  0  0  0  0  0  0  0  0  0  0
   -1.9061   -3.3077    0.0010 Br  0  0  0  0  0  0  0  0  0  0  0  0
    3.4116   -1.2122    0.0012 F   0  0  0  0  0  0  0  0  0  0  0  0
    3.3240    0.6683   -1.0864 F   0  0  0  0  0  0  0  0  0  0  0  0
    3.2968    0.6713    1.0938 F   0  0  0  0  0  0  0  0  0  0  0  0
    0.5752    1.0785   -0.0019 N   0  0  0  0  0  0  0  0  0  0  0  0
    0.6048   -1.1439   -0.0004 N   0  0  0  0  0  0  0  0  0  0  0  0
   -0.7413    0.6949   -0.0015 C   0  0  0  0  0  0  0  0  0  0  0  0
   -0.6965   -0.6965   -0.0007 C   0  0  0  0  0  0  0  0  0  0  0  0
    1.3400   -0.0546   -0.0015 C   0  0  0  0  0  0  0  0  0  0  0  0
   -1.9313    1.4235   -0.0018 C   0  0  0  0  0  0  0  0  0  0  0  0
   -1.9006   -1.4205    0.0000 C   0  0  0  0  0  0  0  0  0  0  0  0
    2.8131    0.0155   -0.0008 C   0  0  0  0  0  0  0  0  0  0  0  0
   -3.1203    0.6868   -0.0013 C   0  0  0  0  0  0  0  0  0  0  0  0
   -3.1076   -0.7101   -0.0002 C   0  0  0  0  0  0  0  0  0  0  0  0
  1 11  1  0
  2 12  1  0
  3 13  1  0
  4 13  1  0
  5 13  1  0
  6  8  1  0
  6 10  1  0
  7  9  1  0
  7 10  2  0
  8  9  2  0
  8 11  1  0
  9 12  1  0
 10 13  1  0
 11 14  2  0
 12 15  2  0
 14 15  1  0
M  END
>  <PUBCHEM_COMPOUND_CID>  (1) 
20215

>  <PUBCHEM_CONFORMER_RMSD>  (1) 
0.4

>  <PUBCHEM_CONFORMER_DIVERSEORDER>  (1) 
1

>  <PUBCHEM_MMFF94_PARTIAL_CHARGES>  (1) 
18
1 -0.11
10 0.01
11 0.11
12 0.11
13 1.2
14 -0.15
15 -0.15
16 0.27
17 0.15
18 0.15
2 -0.11
3 -0.34
4 -0.34
5 -0.34
6 0.03
7 -0.57
8 -0.15
9 0.23

>  <PUBCHEM_EFFECTIVE_ROTOR_COUNT>  (1) 
1

>  <PUBCHEM_PHARMACOPHORE_FEATURES>  (1) 
6
1 1 hydrophobe
1 2 hydrophobe
1 6 donor
3 6 7 10 cation
5 6 7 8 9 10 rings
6 8 9 11 12 14 15 rings

>  <PUBCHEM_HEAVY_ATOM_COUNT>  (1) 
15

>  <PUBCHEM_ATOM_DEF_STEREO_COUNT>  (1) 
0

>  <PUBCHEM_ATOM_UDEF_STEREO_COUNT>  (1) 
0

>  <PUBCHEM_BOND_DEF_STEREO_COUNT>  (1) 
0

>  <PUBCHEM_BOND_UDEF_STEREO_COUNT>  (1) 
0

>  <PUBCHEM_ISOTOPIC_ATOM_COUNT>  (1) 
0

>  <PUBCHEM_COMPONENT_COUNT>  (1) 
1

>  <PUBCHEM_CACTVS_TAUTO_COUNT>  (1) 
1

>  <PUBCHEM_CONFORMER_ID>  (1) 
00004EF700000001

>  <PUBCHEM_MMFF94_ENERGY>  (1) 
16.4792

>  <PUBCHEM_FEATURE_SELFOVERLAP>  (1) 
30.553

>  <PUBCHEM_SHAPE_FINGERPRINT>  (1) 
10608611 8 18342732988405413616
10967382 1 16897646290606805447
11132069 177 18410851079277415745
11680986 33 17909259531885855665
12173636 292 18338793395346238453
12500047 106 18339074870428060508
12553582 1 17905614650191782591
12932764 1 17847058913182308302
13140716 1 18266740379716678065
13380535 76 18341610369911678903
14325111 11 18410855421647711332
14614273 12 18044372726086442989
15042514 8 18408889559662026875
15309172 13 18339370647756604465
15669948 3 18336827584303503390
16945 1 18410855477550708545
18186145 218 17917713444399699072
193761 8 17762055845664829677
19868273 325 18266174109827331135
20510252 161 18343017757695887113
20871998 184 18201161069651425839
21524375 3 17983010051402426533
21650355 55 18265881635270616147
2334 1 17906452482536168265
23402539 116 18271796948294744287
23419403 2 16964868137858375413
23463225 33 18262516992382776938
23557571 272 18200042866146239820
23559900 14 18342455950715150708
2748010 2 18121507847430093805
305870 269 17976259032695780145
3071541 12 17258780318019910413
3091708 16 9201967281894344963
43471831 8 18263361387433040235
54173680 148 18337955700629891459
6333449 129 18412542089780523021
7364860 26 17402897120866209077
81228 2 18339641243438735971
8809292 202 18411140255130884323
9709674 26 18343585131486956086

>  <PUBCHEM_SHAPE_MULTIPOLES>  (1) 
288.79
5.42
3.28
0.71
5.03
0.11
0
-0.16
0.01
-3.43
0
0.28
-0.07
0

>  <PUBCHEM_SHAPE_SELFOVERLAP>  (1) 
603.545

>  <PUBCHEM_SHAPE_VOLUME>  (1) 
170.6

>  <PUBCHEM_COORDINATE_TYPE>  (1) 
2
5
10

$$$$
