20225
     RDKit          3D

 28 31  0  0  1  0  0  0  0  0999 V2000
   -5.6910   -0.4020    1.8960 O   0  0  0  0  0  0  0  0  0  0  0  0
   -5.8146    0.4547   -0.9335 O   0  0  0  0  0  0  0  0  0  0  0  0
    1.2943    2.1254   -0.8970 O   0  0  0  0  0  0  0  0  0  0  0  0
    4.9513   -0.8323   -0.6837 O   0  0  0  0  0  0  0  0  0  0  0  0
    1.6054    2.5501    1.3839 O   0  0  0  0  0  0  0  0  0  0  0  0
    5.2150   -0.1991    1.5545 O   0  0  0  0  0  0  0  0  0  0  0  0
   -2.9132   -0.8324    0.6695 C   0  0  0  0  0  0  0  0  0  0  0  0
   -3.5652   -0.4547   -0.6839 C   0  0  0  0  0  0  0  0  0  0  0  0
   -1.3774   -0.9924    0.6738 C   0  0  0  0  0  0  0  0  0  0  0  0
   -0.6439    0.0787   -0.1671 C   0  0  0  0  0  0  0  0  0  0  0  0
   -2.7552    0.5826   -1.4736 C   0  0  0  0  0  0  0  0  0  0  0  0
   -3.3713    0.2905    1.6221 C   0  0  0  0  0  0  0  0  0  0  0  0
   -1.2724    0.2418   -1.5621 C   0  0  0  0  0  0  0  0  0  0  0  0
   -0.9488   -2.3992    0.2256 C   0  0  0  0  0  0  0  0  0  0  0  0
   -4.8562    0.2105   -0.2092 C   0  0  0  0  0  0  0  0  0  0  0  0
   -4.8339    0.5254    1.2650 C   0  0  0  0  0  0  0  0  0  0  0  0
   -3.9073   -1.6799   -1.5341 C   0  0  0  0  0  0  0  0  0  0  0  0
    0.8473   -0.1954   -0.2887 C   0  0  0  0  0  0  0  0  0  0  0  0
    0.5440   -2.6069    0.4686 C   0  0  0  0  0  0  0  0  0  0  0  0
    1.3932   -1.4648   -0.0240 C   0  0  0  0  0  0  0  0  0  0  0  0
    1.7043    0.8450   -0.6891 C   0  0  0  0  0  0  0  0  0  0  0  0
    2.7770   -1.6640   -0.1568 C   0  0  0  0  0  0  0  0  0  0  0  0
    3.0754    0.6316   -0.8263 C   0  0  0  0  0  0  0  0  0  0  0  0
    3.6118   -0.6234   -0.5608 C   0  0  0  0  0  0  0  0  0  0  0  0
    1.2863    2.9186    0.2613 C   0  0  0  0  0  0  0  0  0  0  0  0
    5.6824   -0.5780    0.4887 C   0  0  0  0  0  0  0  0  0  0  0  0
    0.8218    4.3055   -0.0708 C   0  0  0  0  0  0  0  0  0  0  0  0
    7.1408   -0.8361    0.2516 C   0  0  0  0  0  0  0  0  0  0  0  0
  1 16  1  0
  2 15  2  0
  3 21  1  0
  3 25  1  0
  4 24  1  0
  4 26  1  0
  5 25  2  0
  6 26  2  0
  7  8  1  0
  7  9  1  0
  7 12  1  0
  8 11  1  0
  8 15  1  0
  8 17  1  0
  9 10  1  0
  9 14  1  0
 10 13  1  0
 10 18  1  0
 11 13  1  0
 12 16  1  0
 14 19  1  0
 15 16  1  0
 18 20  2  0
 18 21  1  0
 19 20  1  0
 20 22  1  0
 21 23  2  0
 22 24  2  0
 23 24  1  0
 25 27  1  0
 26 28  1  0
M  END
>  <PUBCHEM_COMPOUND_CID>  (1) 
20225

>  <PUBCHEM_CONFORMER_RMSD>  (1) 
0.8

>  <PUBCHEM_CONFORMER_DIVERSEORDER>  (1) 
1
295
72
280
137
207
80
160
292
92
226
131
304
212
290
128
241
47
79
232
163
235
24
231
245
96
158
204
306
256
138
200
118
32
102
34
76
223
310
195
248
286
98
274
136
175
67
289
41
53
221
297
176
210
254
192
33
62
5
257
135
252
222
149
307
296
170
251
145
246
227
23
228
287
66
263
144
130
46
173
186
83
311
293
258
101
90
185
142
162
230
64
300
86
220
259
139
213
81
38
57
4
272
253
267
125
167
55
303
301
157
194
314
154
133
180
237
150
198
239
270
124
68
116
71
276
171
111
275
110
69
196
70
52
218
318
199
147
203
273
177
10
315
188
308
214
14
18
299
108
99
117
255
206
12
302
264
58
114
166
229
30
261
233
134
243
284
184
260
8
89
268
132
152
6
211
247
265
197
115
189
216
45
36
277
120
262
266
159
91
27
106
42
153
77
178
225
234
294
164
182
283
143
236
16
129
95
190
217
187
112
37
44
43
22
56
191
172
51
240
224
75
305
109
63
269
19
105
298
20
25
174
59
168
151
74
40
39
169
88
119
29
155
165
103
7
100
146
278
309
50
61
209
107
205
148
281
78
279
193
215
242
87
35
183
181
93
288
123
65
312
316
85
31
126
26
208
54
250
21
28
161
201
179
244
11
60
140
104
319
249
282
2
313
17
122
238
141
13
285
3
73
49
317
219
48
84
127
271
82
121
291
9
97
156
15
113
94
202

>  <PUBCHEM_MMFF94_PARTIAL_CHARGES>  (1) 
24
1 -0.68
10 0.14
15 0.45
16 0.34
18 -0.14
19 0.14
2 -0.57
20 -0.14
21 0.08
22 -0.15
23 -0.15
24 0.08
25 0.66
26 0.66
27 0.06
28 0.06
3 -0.23
4 -0.23
46 0.4
47 0.15
48 0.15
5 -0.57
6 -0.57
8 0.06

>  <PUBCHEM_EFFECTIVE_ROTOR_COUNT>  (1) 
5.2

>  <PUBCHEM_PHARMACOPHORE_FEATURES>  (1) 
9
1 1 acceptor
1 1 donor
1 2 acceptor
1 5 acceptor
1 6 acceptor
5 7 8 12 15 16 rings
6 18 20 21 22 23 24 rings
6 7 8 9 10 11 13 rings
6 9 10 14 18 19 20 rings

>  <PUBCHEM_HEAVY_ATOM_COUNT>  (1) 
28

>  <PUBCHEM_ATOM_DEF_STEREO_COUNT>  (1) 
0

>  <PUBCHEM_ATOM_UDEF_STEREO_COUNT>  (1) 
5

>  <PUBCHEM_BOND_DEF_STEREO_COUNT>  (1) 
0

>  <PUBCHEM_BOND_UDEF_STEREO_COUNT>  (1) 
0

>  <PUBCHEM_ISOTOPIC_ATOM_COUNT>  (1) 
0

>  <PUBCHEM_COMPONENT_COUNT>  (1) 
1

>  <PUBCHEM_CACTVS_TAUTO_COUNT>  (1) 
4

>  <PUBCHEM_CONFORMER_ID>  (1) 
00004F0100000001

>  <PUBCHEM_MMFF94_ENERGY>  (1) 
85.9078

>  <PUBCHEM_FEATURE_SELFOVERLAP>  (1) 
45.874

>  <PUBCHEM_SHAPE_FINGERPRINT>  (1) 
10162869 55 18342179965197112345
10165383 225 17900567844775922685
10675989 125 16602070583786803949
10906281 52 18269573740035981518
10930396 42 18119776284927485936
1100329 8 18336830891818627050
11646440 116 18411424994667342488
11796584 16 16370728110796350282
12035758 1 18335134319569930192
12166972 35 18200589314634752560
12236239 1 17632577119527375631
12507557 5 18341896298980062731
12516196 113 18411417306818424022
12553582 1 18411145718582070396
12633257 1 18336270123312901174
12741549 16 17748545931061497413
12788726 201 18263640676598016176
13140716 1 18191030194913441466
13402501 40 18113617872174404661
13583140 156 18335428959228154995
13590594 115 18412830157364046689
13782708 43 17604442893706298923
13911987 19 18261690228737961950
14294032 229 14129602344042800895
14466204 15 18337392630311949489
14849402 71 18199189671067664456
14955137 171 18337687355246840098
15081414 286 18340497664196922182
15238133 3 18269011833164007557
15295992 7 18264497341683729827
15849732 13 17704351061071465429
17980427 23 17346318215021692849
1813 80 18129956593567765940
18681886 176 18200581596753198615
18785283 64 18190468344519347812
21033648 29 17821999943932382093
21344244 181 11675158112930223832
21641784 216 17970087581715311252
22122407 14 18198930058228670217
23402539 116 18272929410584671374
23558518 356 17978788235688997986
23559900 14 18267858557114248409
23569943 247 17913217459792601558
244849 19 14636306869595739332
24771293 8 18201995582350907088
249057 3 18272081713284858823
283562 15 18265614278426387552
3178227 256 18261125075165533275
335352 9 18334011700701980454
345986 75 17897144867915706104
350125 39 18192162709381383563
3633792 109 18201141197470250157
469060 322 18190196597976067272
474 4 18197214956889813153
5104073 3 18263369251064128202
5895379 119 16055781809318029433
59755656 215 18263084332252243534
6086070 43 18188753034008631949
7226269 152 18334574625476064378
7495541 125 17023194841672957246
9971528 1 18059863844030435214

>  <PUBCHEM_SHAPE_MULTIPOLES>  (1) 
541.01
12.62
2.93
1.43
6.48
3.19
0.16
-3.21
2.41
1.56
0.22
-1.41
0.09
-0.19

>  <PUBCHEM_SHAPE_SELFOVERLAP>  (1) 
1173.173

>  <PUBCHEM_SHAPE_VOLUME>  (1) 
291.4

>  <PUBCHEM_COORDINATE_TYPE>  (1) 
2
5
10

$$$$
