20223
     RDKit          3D

 14 14  0  0  1  0  0  0  0  0999 V2000
   -0.3987    3.0645    0.2746 O   0  0  0  0  0  0  0  0  0  0  0  0
   -3.7953   -2.1665    0.2385 O   0  0  0  0  0  0  0  0  0  0  0  0
    1.9529    0.2563   -0.3203 N   0  0  0  0  0  0  0  0  0  0  0  0
    0.0986    1.8756   -0.3382 C   0  0  0  0  0  0  0  0  0  0  0  0
    1.4317    1.4661    0.3000 C   0  0  0  0  0  0  0  0  0  0  0  0
    3.2341   -0.1182    0.2659 C   0  0  0  0  0  0  0  0  0  0  0  0
   -0.9457    0.7918   -0.1836 C   0  0  0  0  0  0  0  0  0  0  0  0
    3.7628   -1.3933   -0.3863 C   0  0  0  0  0  0  0  0  0  0  0  0
   -1.5414    0.2611   -1.3146 C   0  0  0  0  0  0  0  0  0  0  0  0
   -1.2827    0.3543    1.0855 C   0  0  0  0  0  0  0  0  0  0  0  0
    5.0899   -1.8179    0.2232 C   0  0  0  0  0  0  0  0  0  0  0  0
   -2.5043   -0.7381   -1.1720 C   0  0  0  0  0  0  0  0  0  0  0  0
   -2.2455   -0.6448    1.2281 C   0  0  0  0  0  0  0  0  0  0  0  0
   -2.8563   -1.1910    0.0993 C   0  0  0  0  0  0  0  0  0  0  0  0
  1  4  1  0
  2 14  1  0
  3  5  1  0
  3  6  1  0
  4  5  1  0
  4  7  1  0
  6  8  1  0
  7  9  2  0
  7 10  1  0
  8 11  1  0
  9 12  1  0
 10 13  2  0
 12 14  2  0
 13 14  1  0
M  END
>  <PUBCHEM_COMPOUND_CID>  (1) 
20223

>  <PUBCHEM_CONFORMER_RMSD>  (1) 
0.6

>  <PUBCHEM_CONFORMER_DIVERSEORDER>  (1) 
2
19
49
31
41
5
42
51
52
32
4
16
18
11
37
24
29
50
14
25
6
22
38
20
47
13
44
12
27
26
10
23
45
48
8
7
46
43
35
34
1
21
36
3
53
33
15
39
40
30
28
17
9

>  <PUBCHEM_MMFF94_PARTIAL_CHARGES>  (1) 
19
1 -0.68
10 -0.15
12 -0.15
13 -0.15
14 0.08
2 -0.53
20 0.36
23 0.15
24 0.15
28 0.4
29 0.15
3 -0.9
30 0.15
31 0.45
4 0.42
5 0.27
6 0.27
7 -0.14
9 -0.15

>  <PUBCHEM_EFFECTIVE_ROTOR_COUNT>  (1) 
5

>  <PUBCHEM_PHARMACOPHORE_FEATURES>  (1) 
7
1 1 acceptor
1 1 donor
1 11 hydrophobe
1 2 donor
1 3 cation
1 3 donor
6 7 9 10 12 13 14 rings

>  <PUBCHEM_HEAVY_ATOM_COUNT>  (1) 
14

>  <PUBCHEM_ATOM_DEF_STEREO_COUNT>  (1) 
0

>  <PUBCHEM_ATOM_UDEF_STEREO_COUNT>  (1) 
1

>  <PUBCHEM_BOND_DEF_STEREO_COUNT>  (1) 
0

>  <PUBCHEM_BOND_UDEF_STEREO_COUNT>  (1) 
0

>  <PUBCHEM_ISOTOPIC_ATOM_COUNT>  (1) 
0

>  <PUBCHEM_COMPONENT_COUNT>  (1) 
1

>  <PUBCHEM_CACTVS_TAUTO_COUNT>  (1) 
2

>  <PUBCHEM_CONFORMER_ID>  (1) 
00004EFF00000002

>  <PUBCHEM_MMFF94_ENERGY>  (1) 
20.2856

>  <PUBCHEM_FEATURE_SELFOVERLAP>  (1) 
35.52

>  <PUBCHEM_SHAPE_FINGERPRINT>  (1) 
10618630 7 18409732854877979654
11127187 94 17967247572538192943
11137873 295 18334574650686835327
12363563 72 18408887339021146026
14123260 362 8934704618296505162
15375462 189 17845654884152255056
19766037 51 18114474430292377322
20112054 13 10735877283434224146
20281475 54 18410017649832936944
20361792 2 18341612654596695724
20645477 70 18046335599044291511
20671657 53 18409732906000920709
20871998 22 18338795727318242600
21061003 4 18412826901777972131
21296965 67 18410571824930854177
22926399 37 11169906195590003743
23403322 49 18261107440056501058
23526113 38 18192684908558500005
23559900 14 18336532830036980312
27216 239 11095585815106389990
4072396 5 16916524652507133995
90316 7 15698286624548392723

>  <PUBCHEM_SHAPE_MULTIPOLES>  (1) 
271.39
7.44
2.43
1.09
9.61
1.06
-0.05
-7.26
0.2
-0.21
0.17
-0.76
-0.09
0.16

>  <PUBCHEM_SHAPE_SELFOVERLAP>  (1) 
543.67

>  <PUBCHEM_SHAPE_VOLUME>  (1) 
160.9

>  <PUBCHEM_COORDINATE_TYPE>  (1) 
2
5
10

$$$$
