20224
     RDKit          3D

 16 16  0  0  0  0  0  0  0  0999 V2000
    2.0724    0.6498    0.7459 O   0  0  0  0  0  0  0  0  0  0  0  0
    0.4481   -2.9817   -0.1520 O   0  0  0  0  0  0  0  0  0  0  0  0
    2.2191   -1.7798    0.3357 O   0  0  0  0  0  0  0  0  0  0  0  0
   -4.1148    1.2265   -0.1106 O   0  0  0  0  0  0  0  0  0  0  0  0
   -3.8874   -0.9286   -0.4609 O   0  0  0  0  0  0  0  0  0  0  0  0
    2.3868    1.0507   -1.5389 O   0  0  0  0  0  0  0  0  0  0  0  0
    0.9874   -1.8846    0.1261 N   0  0  0  0  0  0  0  0  0  0  0  0
   -3.4034    0.1956   -0.1852 N   0  0  0  0  0  0  0  0  0  0  0  0
    0.1752   -0.7200    0.2060 C   0  0  0  0  0  0  0  0  0  0  0  0
    0.7353    0.5197    0.5137 C   0  0  0  0  0  0  0  0  0  0  0  0
   -2.0071    0.3049    0.0494 C   0  0  0  0  0  0  0  0  0  0  0  0
   -1.1961   -0.8275   -0.0262 C   0  0  0  0  0  0  0  0  0  0  0  0
   -0.0757    1.6520    0.5892 C   0  0  0  0  0  0  0  0  0  0  0  0
   -1.4469    1.5446    0.3572 C   0  0  0  0  0  0  0  0  0  0  0  0
    2.8280    0.9272   -0.4041 C   0  0  0  0  0  0  0  0  0  0  0  0
    4.2791    1.0513   -0.0452 C   0  0  0  0  0  0  0  0  0  0  0  0
  1 10  1  0
  1 15  1  0
  2  7  1  0
  3  7  2  0
  4  8  1  0
  5  8  2  0
  6 15  2  0
  7  9  1  0
  8 11  1  0
  9 10  2  0
  9 12  1  0
 10 13  1  0
 11 12  2  0
 11 14  1  0
 13 14  2  0
 15 16  1  0
M  CHG  4   2  -1   4  -1   7   1   8   1
M  END
>  <PUBCHEM_COMPOUND_CID>  (1) 
20224

>  <PUBCHEM_CONFORMER_RMSD>  (1) 
0.6

>  <PUBCHEM_CONFORMER_DIVERSEORDER>  (1) 
1
4
7
2
6
5
3

>  <PUBCHEM_MMFF94_PARTIAL_CHARGES>  (1) 
19
1 -0.23
10 0.08
11 0.13
12 -0.15
13 -0.15
14 -0.15
15 0.66
16 0.06
17 0.15
18 0.15
19 0.15
2 -0.52
3 -0.52
4 -0.52
5 -0.52
6 -0.57
7 0.91
8 0.91
9 0.13

>  <PUBCHEM_EFFECTIVE_ROTOR_COUNT>  (1) 
4

>  <PUBCHEM_PHARMACOPHORE_FEATURES>  (1) 
8
1 2 acceptor
1 2 anion
1 3 acceptor
1 4 acceptor
1 4 anion
1 5 acceptor
1 6 acceptor
6 9 10 11 12 13 14 rings

>  <PUBCHEM_HEAVY_ATOM_COUNT>  (1) 
16

>  <PUBCHEM_ATOM_DEF_STEREO_COUNT>  (1) 
0

>  <PUBCHEM_ATOM_UDEF_STEREO_COUNT>  (1) 
0

>  <PUBCHEM_BOND_DEF_STEREO_COUNT>  (1) 
0

>  <PUBCHEM_BOND_UDEF_STEREO_COUNT>  (1) 
0

>  <PUBCHEM_ISOTOPIC_ATOM_COUNT>  (1) 
0

>  <PUBCHEM_COMPONENT_COUNT>  (1) 
1

>  <PUBCHEM_CACTVS_TAUTO_COUNT>  (1) 
1

>  <PUBCHEM_CONFORMER_ID>  (1) 
00004F0000000001

>  <PUBCHEM_MMFF94_ENERGY>  (1) 
55.7693

>  <PUBCHEM_FEATURE_SELFOVERLAP>  (1) 
40.762

>  <PUBCHEM_SHAPE_FINGERPRINT>  (1) 
11031198 65 18409452487860445505
13380535 21 18411143515601483483
13380535 76 18334295383249611466
14181834 199 18190468160299698622
14576447 43 18057304271451016591
14993402 34 18188212103999460188
15207287 21 17703517674771766964
15536298 74 18271243820609684222
15775835 57 18342738524422832396
16945 1 18411141372027921377
19021347 11 18410292501669292922
193761 8 17979918207103186745
20645476 183 18042131027798084070
20645477 70 18339072671721517623
21501502 16 18197218053360585337
21524375 3 18187082901188627880
23402539 116 18272082838229050124
23402655 69 18341601591541728037
23463225 33 18337103471479964554
23493267 7 17894914069816884289
23552423 10 18193558865699122171
23559900 14 18124305017754295690
2748010 2 18339093673478793650
3071541 37 18336267855501441130
3312278 4 18342458149474772841
366044 4 18409447029099391768
4990 188 17846786221086767948
528886 8 18411132571502593472
58051976 378 18411134736256073797
7364860 26 18198343957567676310
81228 2 17473251553833346851
81539 233 18187080633224394918

>  <PUBCHEM_SHAPE_MULTIPOLES>  (1) 
284.09
6.19
2.21
0.81
1.39
1.59
-0.14
-2.11
-1.18
-0.4
0.09
-0.36
-0.19
-0.38

>  <PUBCHEM_SHAPE_SELFOVERLAP>  (1) 
601.038

>  <PUBCHEM_SHAPE_VOLUME>  (1) 
157.8

>  <PUBCHEM_COORDINATE_TYPE>  (1) 
2
5
10

$$$$
