20221
     RDKit          3D

 24 26  0  0  0  0  0  0  0  0999 V2000
   -0.7920    1.7250   -0.9274 O   0  0  0  0  0  0  0  0  0  0  0  0
   -0.0943   -0.4871   -0.8776 N   0  0  0  0  0  0  0  0  0  0  0  0
   -3.3651    0.3831    0.3993 N   0  0  0  0  0  0  0  0  0  0  0  0
    2.1180   -0.2193    1.1751 N   0  0  0  0  0  0  0  0  0  0  0  0
   -2.2856   -1.6352   -0.5495 C   0  0  0  0  0  0  0  0  0  0  0  0
   -1.3649   -0.8830   -1.5086 C   0  0  0  0  0  0  0  0  0  0  0  0
   -2.6589   -0.8532    0.7131 C   0  0  0  0  0  0  0  0  0  0  0  0
    0.7668   -1.5580   -0.4389 C   0  0  0  0  0  0  0  0  0  0  0  0
   -3.7076    1.1066    1.6252 C   0  0  0  0  0  0  0  0  0  0  0  0
   -4.5731    0.1037   -0.3792 C   0  0  0  0  0  0  0  0  0  0  0  0
    0.1061    0.8958   -0.7394 C   0  0  0  0  0  0  0  0  0  0  0  0
    1.7145   -1.4292    0.5903 C   0  0  0  0  0  0  0  0  0  0  0  0
    1.4278    1.4846   -0.4527 C   0  0  0  0  0  0  0  0  0  0  0  0
    2.2775    1.0136    0.5407 C   0  0  0  0  0  0  0  0  0  0  0  0
    0.5718   -2.8537   -0.9818 C   0  0  0  0  0  0  0  0  0  0  0  0
   -2.4674    1.4074    2.4497 C   0  0  0  0  0  0  0  0  0  0  0  0
   -5.2838    1.3884   -0.7697 C   0  0  0  0  0  0  0  0  0  0  0  0
    2.3951   -2.5853    1.0526 C   0  0  0  0  0  0  0  0  0  0  0  0
    1.7368    2.6831   -1.1280 C   0  0  0  0  0  0  0  0  0  0  0  0
    3.4274    1.7693    0.8535 C   0  0  0  0  0  0  0  0  0  0  0  0
    1.2642   -3.9766   -0.5235 C   0  0  0  0  0  0  0  0  0  0  0  0
    2.1735   -3.8444    0.5072 C   0  0  0  0  0  0  0  0  0  0  0  0
    2.8843    3.4091   -0.8159 C   0  0  0  0  0  0  0  0  0  0  0  0
    3.7289    2.9554    0.1855 C   0  0  0  0  0  0  0  0  0  0  0  0
  1 11  2  0
  2  6  1  0
  2  8  1  0
  2 11  1  0
  3  7  1  0
  3  9  1  0
  3 10  1  0
  4 12  1  0
  4 14  1  0
  5  6  1  0
  5  7  1  0
  8 12  2  0
  8 15  1  0
  9 16  1  0
 10 17  1  0
 11 13  1  0
 12 18  1  0
 13 14  2  0
 13 19  1  0
 14 20  1  0
 15 21  2  0
 18 22  2  0
 19 23  2  0
 20 24  2  0
 21 22  1  0
 23 24  1  0
M  END
>  <PUBCHEM_COMPOUND_CID>  (1) 
20221

>  <PUBCHEM_CONFORMER_RMSD>  (1) 
0.8

>  <PUBCHEM_CONFORMER_DIVERSEORDER>  (1) 
1
37
12
9
5
24
23
30
34
36
29
41
26
10
33
4
15
27
8
28
2
25
16
3
11
17
31
43
6
32
18
13
21
22
20
7
14
19
35
42
38
40
39

>  <PUBCHEM_MMFF94_PARTIAL_CHARGES>  (1) 
30
1 -0.57
10 0.27
11 0.54
12 0.1
13 0.09
14 0.1
15 -0.15
18 -0.15
19 -0.15
2 -0.48
20 -0.15
21 -0.15
22 -0.15
23 -0.15
24 -0.15
3 -0.81
35 0.4
36 0.15
4 -0.6
43 0.15
44 0.15
45 0.15
46 0.15
47 0.15
48 0.15
49 0.15
6 0.3
7 0.27
8 0.12
9 0.27

>  <PUBCHEM_EFFECTIVE_ROTOR_COUNT>  (1) 
6.4

>  <PUBCHEM_PHARMACOPHORE_FEATURES>  (1) 
7
1 1 acceptor
1 3 cation
1 4 cation
1 4 donor
6 13 14 19 20 23 24 rings
6 8 12 15 18 21 22 rings
7 2 4 8 11 12 13 14 rings

>  <PUBCHEM_HEAVY_ATOM_COUNT>  (1) 
24

>  <PUBCHEM_ATOM_DEF_STEREO_COUNT>  (1) 
0

>  <PUBCHEM_ATOM_UDEF_STEREO_COUNT>  (1) 
0

>  <PUBCHEM_BOND_DEF_STEREO_COUNT>  (1) 
0

>  <PUBCHEM_BOND_UDEF_STEREO_COUNT>  (1) 
0

>  <PUBCHEM_ISOTOPIC_ATOM_COUNT>  (1) 
0

>  <PUBCHEM_COMPONENT_COUNT>  (1) 
1

>  <PUBCHEM_CACTVS_TAUTO_COUNT>  (1) 
2

>  <PUBCHEM_CONFORMER_ID>  (1) 
00004EFD00000001

>  <PUBCHEM_MMFF94_ENERGY>  (1) 
96.7122

>  <PUBCHEM_FEATURE_SELFOVERLAP>  (1) 
35.536

>  <PUBCHEM_SHAPE_FINGERPRINT>  (1) 
10382601 240 18335708238690477114
11578080 2 16951681377121024558
11640471 11 18201441419277749633
12160290 23 17476106964245528023
12166972 35 18127402351189836737
12422481 6 18193533616113780554
12633257 1 17459168802809444704
12788726 201 16964927021765454115
13134695 92 18047484330828312231
13135754 10 16666013172816718370
13140716 1 18336537326387730170
133893 2 18196674937581792265
14081887 123 16971945776022049896
14787075 74 17696475461530446063
14790565 3 18190743222780031980
15309172 13 18118396486963134164
17138139 8 17554866034795563919
17980427 23 17557702461204142201
1813 80 17981894046937009214
192875 21 18127127464629758617
19591789 44 18336825394450171422
20157964 124 18336536167379407645
20510252 161 17765158658340164615
20715895 44 17911232816298948601
20739085 24 18334286570498842384
23419403 2 17751621187658365799
23557571 272 17116915272190942712
23559900 14 18338231557973871883
2748010 2 17977347626917720358
3091708 16 9185653823251205790
3380486 145 17259917217380046897
35225 105 17762348306529717226
394222 165 17970612189946671176
469060 322 17905344162473995683
474 4 18410291445239200467
539174 4 18343294851536553456
9981440 41 18266176313293325627

>  <PUBCHEM_SHAPE_MULTIPOLES>  (1) 
473.1
7.36
4.79
1.55
8.82
2.96
0.59
-5.33
1.07
-5.91
-0.59
0.85
-0.44
-1.12

>  <PUBCHEM_SHAPE_SELFOVERLAP>  (1) 
1003.711

>  <PUBCHEM_SHAPE_VOLUME>  (1) 
262.5

>  <PUBCHEM_COORDINATE_TYPE>  (1) 
2
5
10

$$$$
