20239
     RDKit          3D

 15 14  0  0  0  0  0  0  0  0999 V2000
   -3.5662   -0.2924   -0.0205 O   0  0  0  0  0  0  0  0  0  0  0  0
    3.5660   -0.2909    0.0204 O   0  0  0  0  0  0  0  0  0  0  0  0
   -0.0005    0.4023    0.0000 O   0  0  0  0  0  0  0  0  0  0  0  0
   -8.4047   -0.5097    0.0121 N   0  0  0  0  0  0  0  0  0  0  0  0
    8.4045   -0.5107   -0.0120 N   0  0  0  0  0  0  0  0  0  0  0  0
   -5.9586   -0.4074   -0.0228 C   0  0  0  0  0  0  0  0  0  0  0  0
    5.9583   -0.4071    0.0228 C   0  0  0  0  0  0  0  0  0  0  0  0
   -4.7409    0.5066    0.0007 C   0  0  0  0  0  0  0  0  0  0  0  0
    4.7411    0.5075   -0.0008 C   0  0  0  0  0  0  0  0  0  0  0  0
   -2.3908    0.5084    0.0001 C   0  0  0  0  0  0  0  0  0  0  0  0
    2.3910    0.5086   -0.0001 C   0  0  0  0  0  0  0  0  0  0  0  0
   -1.1746   -0.3977    0.0001 C   0  0  0  0  0  0  0  0  0  0  0  0
    1.1753   -0.3981    0.0000 C   0  0  0  0  0  0  0  0  0  0  0  0
   -7.2580    0.3905    0.0143 C   0  0  0  0  0  0  0  0  0  0  0  0
    7.2581    0.3901   -0.0142 C   0  0  0  0  0  0  0  0  0  0  0  0
  1  8  1  0
  1 10  1  0
  2  9  1  0
  2 11  1  0
  3 12  1  0
  3 13  1  0
  4 14  1  0
  5 15  1  0
  6  8  1  0
  6 14  1  0
  7  9  1  0
  7 15  1  0
 10 12  1  0
 11 13  1  0
M  END
>  <PUBCHEM_COMPOUND_CID>  (1) 
20239

>  <PUBCHEM_CONFORMER_RMSD>  (1) 
1

>  <PUBCHEM_CONFORMER_DIVERSEORDER>  (1) 
2
74
10
181
1
59
8
198
63
149
193
106
89
141
26
80
116
203
58
186
12
45
99
28
34
107
44
156
196
54
150
43
161
64
151
77
15
46
121
16
169
6
9
171
97
94
138
62
29
103
41
188
4
133
92
114
119
173
144
39
160
131
165
158
184
51
178
202
101
60
109
201
115
104
111
30
36
52
166
48
139
170
85
127
134
3
70
96
126
21
72
192
152
155
65
22
40
187
69
20
84
117
145
162
68
124
37
154
159
205
182
13
27
185
123
42
23
174
88
195
38
83
56
163
137
75
136
135
47
105
57
177
50
19
76
189
168
73
157
18
31
132
81
112
153
7
82
204
53
87
167
100
172
122
86
140
120
25
164
108
142
49
118
11
102
125
146
191
5
199
95
129
67
190
55
148
33
183
110
66
61
128
24
179
79
78
71
113
91
32
17
197
143
130
180
93
194
90
175
147
14
35
200
98
176

>  <PUBCHEM_MMFF94_PARTIAL_CHARGES>  (1) 
17
1 -0.56
10 0.28
11 0.28
12 0.28
13 0.28
14 0.27
15 0.27
2 -0.56
3 -0.56
36 0.36
37 0.36
38 0.36
39 0.36
4 -0.99
5 -0.99
8 0.28
9 0.28

>  <PUBCHEM_EFFECTIVE_ROTOR_COUNT>  (1) 
12

>  <PUBCHEM_PHARMACOPHORE_FEATURES>  (1) 
7
1 1 acceptor
1 2 acceptor
1 3 acceptor
1 4 cation
1 4 donor
1 5 cation
1 5 donor

>  <PUBCHEM_HEAVY_ATOM_COUNT>  (1) 
15

>  <PUBCHEM_ATOM_DEF_STEREO_COUNT>  (1) 
0

>  <PUBCHEM_ATOM_UDEF_STEREO_COUNT>  (1) 
0

>  <PUBCHEM_BOND_DEF_STEREO_COUNT>  (1) 
0

>  <PUBCHEM_BOND_UDEF_STEREO_COUNT>  (1) 
0

>  <PUBCHEM_ISOTOPIC_ATOM_COUNT>  (1) 
0

>  <PUBCHEM_COMPONENT_COUNT>  (1) 
1

>  <PUBCHEM_CACTVS_TAUTO_COUNT>  (1) 
1

>  <PUBCHEM_CONFORMER_ID>  (1) 
00004F0F00000002

>  <PUBCHEM_MMFF94_ENERGY>  (1) 
11.1936

>  <PUBCHEM_FEATURE_SELFOVERLAP>  (1) 
35.522

>  <PUBCHEM_SHAPE_FINGERPRINT>  (1) 
11315181 36 18412268350562217265
12091667 2 18040998441207345153
13533116 47 16298654015483606120
14123256 10 18410856555344822275
14251764 18 18333448724909825976
14251764 46 18410856563934782850
17834076 25 18410575088958059204
18006028 8 18060700589248286257
20621476 8 18334574633385510646
22224240 67 15430036578023177072
23521765 1 18341894090834057573
246663 6 18410577283686366951
28498 318 18409729535000265198
33684 2 18410573980856490346
42788 4 18410855464423297989
67123 10 18410575106137915397
8209 1 18410573989446431436

>  <PUBCHEM_SHAPE_MULTIPOLES>  (1) 
281.12
27
0.78
0.59
0
0.02
0
-2.05
0
0
0
0
0.01
-0.01

>  <PUBCHEM_SHAPE_SELFOVERLAP>  (1) 
505.968

>  <PUBCHEM_SHAPE_VOLUME>  (1) 
181.3

>  <PUBCHEM_COORDINATE_TYPE>  (1) 
2
5
10

$$$$
