20232
     RDKit          3D

 16 16  0  0  0  0  0  0  0  0999 V2000
   -5.8835    0.9763    0.3305 F   0  0  0  0  0  0  0  0  0  0  0  0
   -3.3699   -0.1605    0.2214 O   0  0  0  0  0  0  0  0  0  0  0  0
   -1.6749   -0.4088   -1.3233 O   0  0  0  0  0  0  0  0  0  0  0  0
    5.0265   -1.0136   -0.2768 O   0  0  0  0  0  0  0  0  0  0  0  0
    4.9270    1.1557   -0.5980 O   0  0  0  0  0  0  0  0  0  0  0  0
    4.3852    0.0648   -0.2966 N   0  0  0  0  0  0  0  0  0  0  0  0
    0.2895    0.0208    0.6754 C   0  0  0  0  0  0  0  0  0  0  0  0
   -1.1617    0.0052    1.0186 C   0  0  0  0  0  0  0  0  0  0  0  0
    1.0228   -1.1656    0.6914 C   0  0  0  0  0  0  0  0  0  0  0  0
    0.9132    1.2219    0.3376 C   0  0  0  0  0  0  0  0  0  0  0  0
    3.0039    0.0502    0.0319 C   0  0  0  0  0  0  0  0  0  0  0  0
   -2.0645   -0.2141   -0.1799 C   0  0  0  0  0  0  0  0  0  0  0  0
    2.3799   -1.1509    0.3697 C   0  0  0  0  0  0  0  0  0  0  0  0
    2.2704    1.2367    0.0159 C   0  0  0  0  0  0  0  0  0  0  0  0
   -4.3408   -0.3534   -0.8125 C   0  0  0  0  0  0  0  0  0  0  0  0
   -5.7230   -0.2649   -0.2053 C   0  0  0  0  0  0  0  0  0  0  0  0
  1 16  1  0
  2 12  1  0
  2 15  1  0
  3 12  2  0
  4  6  1  0
  5  6  2  0
  6 11  1  0
  7  8  1  0
  7  9  2  0
  7 10  1  0
  8 12  1  0
  9 13  1  0
 10 14  2  0
 11 13  2  0
 11 14  1  0
 15 16  1  0
M  CHG  2   4  -1   6   1
M  END
>  <PUBCHEM_COMPOUND_CID>  (1) 
20232

>  <PUBCHEM_CONFORMER_RMSD>  (1) 
0.8

>  <PUBCHEM_CONFORMER_DIVERSEORDER>  (1) 
1
15
17
16
19
12
9
24
3
4
8
21
6
10
18
23
22
7
20
14
2
5
11
13

>  <PUBCHEM_MMFF94_PARTIAL_CHARGES>  (1) 
20
1 -0.34
10 -0.15
11 0.13
12 0.66
13 -0.15
14 -0.15
15 0.28
16 0.34
19 0.15
2 -0.43
20 0.15
21 0.15
22 0.15
3 -0.57
4 -0.52
5 -0.52
6 0.91
7 -0.14
8 0.2
9 -0.15

>  <PUBCHEM_EFFECTIVE_ROTOR_COUNT>  (1) 
6

>  <PUBCHEM_PHARMACOPHORE_FEATURES>  (1) 
5
1 3 acceptor
1 4 acceptor
1 4 anion
1 5 acceptor
6 7 9 10 11 13 14 rings

>  <PUBCHEM_HEAVY_ATOM_COUNT>  (1) 
16

>  <PUBCHEM_ATOM_DEF_STEREO_COUNT>  (1) 
0

>  <PUBCHEM_ATOM_UDEF_STEREO_COUNT>  (1) 
0

>  <PUBCHEM_BOND_DEF_STEREO_COUNT>  (1) 
0

>  <PUBCHEM_BOND_UDEF_STEREO_COUNT>  (1) 
0

>  <PUBCHEM_ISOTOPIC_ATOM_COUNT>  (1) 
0

>  <PUBCHEM_COMPONENT_COUNT>  (1) 
1

>  <PUBCHEM_CACTVS_TAUTO_COUNT>  (1) 
1

>  <PUBCHEM_CONFORMER_ID>  (1) 
00004F0800000001

>  <PUBCHEM_MMFF94_ENERGY>  (1) 
32.5675

>  <PUBCHEM_FEATURE_SELFOVERLAP>  (1) 
25.453

>  <PUBCHEM_SHAPE_FINGERPRINT>  (1) 
106641 1 9511169725833618414
11287383 113 17603589655291797563
11401426 45 18411133667299424656
11471102 20 18334575754725396168
11796584 16 16128375986420395159
12236239 1 18131634482576232617
12251169 10 9871748000772292457
12730499 353 17749112188054827099
12815109 37 14189575238846395487
12916748 109 15430035435308583927
13533116 47 8358269137506973916
13760787 19 18343015606297118607
14115302 16 16845289496506474069
14251731 8 17132114654428444437
14252887 29 10519717704044594412
14911166 2 18335423482612044258
14993402 34 18131353029063886742
15048467 5 18187365424417044093
15242433 33 18343863320676301199
17834072 33 18343299297196976351
17834072 8 16989120942680674845
17834076 25 18114180839587321643
18186145 218 18335125532061586857
200 152 18273215304940006033
20645477 70 18261671472231080266
20681677 155 17917704742727450503
21119208 17 18130787875554826783
22079108 93 11602831228162121236
23402539 116 10735879457083224043
23402655 69 18409445899391208435
23557571 272 16371004057659546838
23559900 14 15626214766913498970
2916195 48 16298382491692743413
29717793 49 17989212521101152996
3060560 45 18409165524153251878
4047638 21 17022620888377261808
4072396 5 18114730595643796898
42 15 10952054467894611683
42788 4 18408885140002872907
522135 26 18410288103622827371
7495541 125 12396595039426994189
8272917 22 18341614755363457839

>  <PUBCHEM_SHAPE_MULTIPOLES>  (1) 
293.54
11.9
1.17
0.9
9.55
0.08
0.03
0.82
2.44
-0.93
-0.07
0.28
-0.05
-0.38

>  <PUBCHEM_SHAPE_SELFOVERLAP>  (1) 
604.29

>  <PUBCHEM_SHAPE_VOLUME>  (1) 
169.4

>  <PUBCHEM_COORDINATE_TYPE>  (1) 
2
5
10

$$$$
