20247
     RDKit          3D

 24 25  0  0  0  0  0  0  0  0999 V2000
    8.7283    0.5169    0.0337 O   0  0  0  0  0  0  0  0  0  0  0  0
   -3.5617   -0.0648   -0.1567 O   0  0  0  0  0  0  0  0  0  0  0  0
    6.9465    1.9684   -0.1611 O   0  0  0  0  0  0  0  0  0  0  0  0
   -2.0730   -0.4507   -1.8494 O   0  0  0  0  0  0  0  0  0  0  0  0
   -1.4041   -0.4002    0.3980 N   0  0  0  0  0  0  0  0  0  0  0  0
    4.1966   -1.3941    0.1926 C   0  0  0  0  0  0  0  0  0  0  0  0
    5.0658   -0.1344    0.0670 C   0  0  0  0  0  0  0  0  0  0  0  0
    2.7139   -1.1305    0.2461 C   0  0  0  0  0  0  0  0  0  0  0  0
    6.5694   -0.4175    0.0404 C   0  0  0  0  0  0  0  0  0  0  0  0
    1.9692   -1.0884   -0.9325 C   0  0  0  0  0  0  0  0  0  0  0  0
    2.0860   -0.9290    1.4754 C   0  0  0  0  0  0  0  0  0  0  0  0
   -0.0312   -0.6437    0.3471 C   0  0  0  0  0  0  0  0  0  0  0  0
    0.5967   -0.8451   -0.8821 C   0  0  0  0  0  0  0  0  0  0  0  0
    0.7135   -0.6856    1.5259 C   0  0  0  0  0  0  0  0  0  0  0  0
    7.4050    0.8386   -0.0520 C   0  0  0  0  0  0  0  0  0  0  0  0
   -5.9045    0.3260   -0.4116 C   0  0  0  0  0  0  0  0  0  0  0  0
   -4.6131    0.0474   -1.1230 C   0  0  0  0  0  0  0  0  0  0  0  0
   -2.3119   -0.3204   -0.6551 C   0  0  0  0  0  0  0  0  0  0  0  0
   -6.7125   -0.7312    0.0068 C   0  0  0  0  0  0  0  0  0  0  0  0
   -6.2971    1.6422   -0.1689 C   0  0  0  0  0  0  0  0  0  0  0  0
   -7.9133   -0.4722    0.6678 C   0  0  0  0  0  0  0  0  0  0  0  0
   -7.4978    1.9013    0.4921 C   0  0  0  0  0  0  0  0  0  0  0  0
   -8.3058    0.8440    0.9104 C   0  0  0  0  0  0  0  0  0  0  0  0
    9.6351    1.6231   -0.0108 C   0  0  0  0  0  0  0  0  0  0  0  0
  1 15  1  0
  1 24  1  0
  2 17  1  0
  2 18  1  0
  3 15  2  0
  4 18  2  0
  5 12  1  0
  5 18  1  0
  6  7  1  0
  6  8  1  0
  7  9  1  0
  8 10  2  0
  8 11  1  0
  9 15  1  0
 10 13  1  0
 11 14  2  0
 12 13  2  0
 12 14  1  0
 16 17  1  0
 16 19  2  0
 16 20  1  0
 19 21  1  0
 20 22  2  0
 21 23  2  0
 22 23  1  0
M  END
>  <PUBCHEM_COMPOUND_CID>  (1) 
20247

>  <PUBCHEM_CONFORMER_RMSD>  (1) 
1

>  <PUBCHEM_CONFORMER_DIVERSEORDER>  (1) 
1
159
149
112
76
95
97
155
35
164
26
145
47
188
160
86
127
140
170
6
173
113
73
24
129
143
176
38
168
174
88
100
138
117
199
114
181
109
148
169
64
92
54
131
44
98
154
104
180
200
91
137
60
84
123
189
158
198
68
2
90
107
190
15
203
21
133
42
177
31
146
204
116
184
134
108
195
151
194
65
7
167
141
185
16
111
69
102
166
78
130
172
118
132
45
89
99
110
157
192
144
115
62
81
171
191
80
43
120
142
87
175
101
202
163
82
103
12
122
135
72
136
55
162
197
5
150
186
183
17
4
178
53
23
61
147
8
125
52
179
182
32
34
206
193
152
20
50
49
85
18
27
83
139
121
22
75
33
196
19
37
48
3
105
51
119
201
79
74
126
9
14
153
63
40
58
59
124
77
187
13
205
46
28
165
96
57
106
29
25
66
56
67
93
156
36
71
70
30
39
94
161
41
128
11
10

>  <PUBCHEM_MMFF94_PARTIAL_CHARGES>  (1) 
33
1 -0.43
10 -0.15
11 -0.15
12 0.12
13 -0.15
14 -0.15
15 0.66
16 -0.14
17 0.42
18 0.78
19 -0.15
2 -0.43
20 -0.15
21 -0.15
22 -0.15
23 -0.15
24 0.28
3 -0.57
31 0.15
32 0.15
33 0.15
34 0.15
35 0.37
38 0.15
39 0.15
4 -0.57
40 0.15
41 0.15
42 0.15
5 -0.55
6 0.14
8 -0.14
9 0.06

>  <PUBCHEM_EFFECTIVE_ROTOR_COUNT>  (1) 
10

>  <PUBCHEM_PHARMACOPHORE_FEATURES>  (1) 
5
1 3 acceptor
1 4 acceptor
1 5 donor
6 16 19 20 21 22 23 rings
6 8 10 11 12 13 14 rings

>  <PUBCHEM_HEAVY_ATOM_COUNT>  (1) 
24

>  <PUBCHEM_ATOM_DEF_STEREO_COUNT>  (1) 
0

>  <PUBCHEM_ATOM_UDEF_STEREO_COUNT>  (1) 
0

>  <PUBCHEM_BOND_DEF_STEREO_COUNT>  (1) 
0

>  <PUBCHEM_BOND_UDEF_STEREO_COUNT>  (1) 
0

>  <PUBCHEM_ISOTOPIC_ATOM_COUNT>  (1) 
0

>  <PUBCHEM_COMPONENT_COUNT>  (1) 
1

>  <PUBCHEM_CACTVS_TAUTO_COUNT>  (1) 
2

>  <PUBCHEM_CONFORMER_ID>  (1) 
00004F1700000001

>  <PUBCHEM_MMFF94_ENERGY>  (1) 
54.8068

>  <PUBCHEM_FEATURE_SELFOVERLAP>  (1) 
25.372

>  <PUBCHEM_SHAPE_FINGERPRINT>  (1) 
10 15 15068629296770510518
10319688 67 15502374564706479512
106641 1 18040437702829888907
10883706 142 18186517709742442986
11315181 36 18335700530326629765
11386260 185 13973669646901713834
11408170 108 9295018989160074588
11638347 137 16008742490853939424
11646440 116 16950002513123013972
12592606 108 8935002568751802508
12838862 33 15936401261291798771
13073987 5 16443898354476751271
13540713 4 15767781356209950674
13668630 136 12391499885485635429
14216079 64 11743846854916617516
14251757 52 18342457032566887384
14251764 18 13695872515232300910
14251764 46 12967129415472122782
14428016 248 18408609179933469316
14671636 106 18262801886976940443
14849402 71 18187650240572973405
14933364 13 18343018870434872611
15183329 4 14692567694082584943
15461852 350 17203315716725391269
155225 1 18412825811827353088
15690457 1 7853575708451099140
15706992 2 18187092767287780044
17093844 174 16950280673434673525
1768 124 10953730098347309432
1768 4 18040716987157312804
19489759 90 8934993786213627727
20157964 124 18335700525726253034
20505436 4 18343294873545205710
20735858 18 15574713586523677162
21095123 145 17775283902908806679
21095123 293 18344146986002391520
21130935 74 16443898350297829267
21150785 3 18131351912119182482
21521721 280 18260829293515895378
21792961 116 16773803558732490214
22224240 67 16805323292619631130
23559900 14 13901321803353576955
23576562 1 16342554302145339009
249057 25 8285916942582207551
249057 3 16343980334276648784
28498 318 11527952253048848954
29717793 49 12535340212370147515
3092352 35 18342453746848971022
33532 11 9583524209475722140
335352 9 15698276712027500135
34797466 226 18411420588332012294
3711267 37 18201166502474345288
4017518 198 11743838075218352213
4073 2 18413110546304940087
5283156 175 17131834240794407270
54076057 127 18114180792227339170
5758199 1 17894912918860880051
59682541 35 16515405183636716572
59755656 215 13901909998812910796
6081469 158 16487263154108040892
6394761 36 13973965398006524957
67123 10 18410856572983861267
9663363 56 16298384666053704567
9689198 14 18342177756275789895
9953998 17 17749112184672092713

>  <PUBCHEM_SHAPE_MULTIPOLES>  (1) 
465.45
30.97
1.55
1.14
15.8
0.68
-0.02
18.57
3.2
0.94
0.1
-0.71
-0.25
-0.58

>  <PUBCHEM_SHAPE_SELFOVERLAP>  (1) 
967.663

>  <PUBCHEM_SHAPE_VOLUME>  (1) 
263.9

>  <PUBCHEM_COORDINATE_TYPE>  (1) 
2
5
10

$$$$
