20251
     RDKit          3D

 13 13  0  0  0  0  0  0  0  0999 V2000
    1.7481   -3.0404    0.2154 I   0  0  0  0  0  0  0  0  0  0  0  0
    1.6412    3.0619    0.2191 I   0  0  0  0  0  0  0  0  0  0  0  0
    2.7657    0.0291    0.2935 O   0  0  0  0  0  0  0  0  0  0  0  0
   -3.3717    1.1786   -0.1357 O   0  0  0  0  0  0  0  0  0  0  0  0
   -3.5254   -1.0891   -0.1528 O   0  0  0  0  0  0  0  0  0  0  0  0
   -1.3791   -0.0432    0.0005 C   0  0  0  0  0  0  0  0  0  0  0  0
    1.4035    0.0055    0.1963 C   0  0  0  0  0  0  0  0  0  0  0  0
    0.7290   -1.2144    0.1462 C   0  0  0  0  0  0  0  0  0  0  0  0
    0.6866    1.2012    0.1484 C   0  0  0  0  0  0  0  0  0  0  0  0
   -0.6623   -1.2387    0.0483 C   0  0  0  0  0  0  0  0  0  0  0  0
   -0.7047    1.1767    0.0505 C   0  0  0  0  0  0  0  0  0  0  0  0
   -2.8297   -0.0697   -0.1016 C   0  0  0  0  0  0  0  0  0  0  0  0
    3.4988    0.0424   -0.9280 C   0  0  0  0  0  0  0  0  0  0  0  0
  1  8  1  0
  2  9  1  0
  3  7  1  0
  3 13  1  0
  4 12  1  0
  5 12  2  0
  6 10  2  0
  6 11  1  0
  6 12  1  0
  7  8  2  0
  7  9  1  0
  8 10  1  0
  9 11  2  0
M  END
>  <PUBCHEM_COMPOUND_CID>  (1) 
20251

>  <PUBCHEM_CONFORMER_RMSD>  (1) 
0.6

>  <PUBCHEM_CONFORMER_DIVERSEORDER>  (1) 
1
2

>  <PUBCHEM_MMFF94_PARTIAL_CHARGES>  (1) 
16
1 -0.08
10 -0.15
11 -0.15
12 0.63
13 0.28
14 0.15
15 0.15
19 0.5
2 -0.08
3 -0.36
4 -0.65
5 -0.57
6 0.09
7 0.08
8 0.08
9 0.08

>  <PUBCHEM_EFFECTIVE_ROTOR_COUNT>  (1) 
2

>  <PUBCHEM_PHARMACOPHORE_FEATURES>  (1) 
7
1 1 hydrophobe
1 2 hydrophobe
1 3 acceptor
1 4 acceptor
1 5 acceptor
3 4 5 12 anion
6 6 7 8 9 10 11 rings

>  <PUBCHEM_HEAVY_ATOM_COUNT>  (1) 
13

>  <PUBCHEM_ATOM_DEF_STEREO_COUNT>  (1) 
0

>  <PUBCHEM_ATOM_UDEF_STEREO_COUNT>  (1) 
0

>  <PUBCHEM_BOND_DEF_STEREO_COUNT>  (1) 
0

>  <PUBCHEM_BOND_UDEF_STEREO_COUNT>  (1) 
0

>  <PUBCHEM_ISOTOPIC_ATOM_COUNT>  (1) 
0

>  <PUBCHEM_COMPONENT_COUNT>  (1) 
1

>  <PUBCHEM_CACTVS_TAUTO_COUNT>  (1) 
1

>  <PUBCHEM_CONFORMER_ID>  (1) 
00004F1B00000001

>  <PUBCHEM_MMFF94_ENERGY>  (1) 
48.0887

>  <PUBCHEM_FEATURE_SELFOVERLAP>  (1) 
35.578

>  <PUBCHEM_SHAPE_FINGERPRINT>  (1) 
1 1 18338231673473511950
10967382 1 18338797797397163466
116883 192 17621315736767729606
13140716 1 18266740379442339067
13380535 76 17908697685338447024
13380536 305 18338801237972033008
14325111 11 18339077215396080929
16945 1 18410849971175794819
18186145 218 18412544348817627021
19021347 11 18409449176346117494
193761 8 17690280409192267104
20588541 1 18334017181053713434
20645476 183 17823715237959073878
20645477 70 18271238439221514583
20871998 184 16683730818760427088
21501502 16 18051697642005471114
21524375 3 17973433601166095648
2334 1 17905889532329532962
23402539 116 18343297055572175278
23402655 69 18267850706779325125
23419403 2 15449366911757847360
23463225 33 18265893549520749778
23526114 1 18266739082373187015
23552423 10 18412259571158336509
23557571 272 17120571710899523046
241688 4 17978228253546759994
25 1 18334296456954323612
2748010 2 18047757292884287090
3071541 250 18122913027469781838
3250762 1 17691135150939701700
63268167 104 18338518530302662009
7364860 26 18411976970678654816
81228 2 17328865396334037850

>  <PUBCHEM_SHAPE_MULTIPOLES>  (1) 
273.8
4.92
3.44
0.74
3.29
0.14
0.03
-0.18
0.86
-2.72
-0.47
-0.34
0.01
-0.03

>  <PUBCHEM_SHAPE_SELFOVERLAP>  (1) 
529.473

>  <PUBCHEM_SHAPE_VOLUME>  (1) 
173.1

>  <PUBCHEM_COORDINATE_TYPE>  (1) 
2
5
10

$$$$
