20254
     RDKit          3D

 12 12  0  0  1  0  0  0  0  0999 V2000
    2.5376   -1.7833    0.2557 N   0  0  0  0  0  0  0  0  0  0  0  0
    1.4270   -0.9125   -0.1503 C   0  0  0  0  0  0  0  0  0  0  0  0
    0.1886   -1.3076    0.6805 C   0  0  0  0  0  0  0  0  0  0  0  0
    1.8141    0.5663    0.0590 C   0  0  0  0  0  0  0  0  0  0  0  0
   -1.0581   -0.5327    0.3249 C   0  0  0  0  0  0  0  0  0  0  0  0
   -1.3326    0.6525    0.9883 C   0  0  0  0  0  0  0  0  0  0  0  0
   -1.9037   -1.0211   -0.6581 C   0  0  0  0  0  0  0  0  0  0  0  0
    3.0435    0.9680   -0.7080 C   0  0  0  0  0  0  0  0  0  0  0  0
   -2.4838    1.3684    0.6600 C   0  0  0  0  0  0  0  0  0  0  0  0
   -3.0549   -0.3049   -0.9864 C   0  0  0  0  0  0  0  0  0  0  0  0
   -3.3449    0.8897   -0.3273 C   0  0  0  0  0  0  0  0  0  0  0  0
    4.1673    1.4173   -0.1382 C   0  0  0  0  0  0  0  0  0  0  0  0
  1  2  1  0
  2  3  1  0
  2  4  1  0
  3  5  1  0
  4  8  1  0
  5  6  2  0
  5  7  1  0
  6  9  1  0
  7 10  2  0
  8 12  2  0
  9 11  2  0
 10 11  1  0
M  END
>  <PUBCHEM_COMPOUND_CID>  (1) 
20254

>  <PUBCHEM_CONFORMER_RMSD>  (1) 
0.6

>  <PUBCHEM_CONFORMER_DIVERSEORDER>  (1) 
1
25
13
9
5
16
21
23
33
22
12
29
32
28
17
6
10
4
7
24
14
11
19
31
30
26
18
27
15
8
3
2
20

>  <PUBCHEM_MMFF94_PARTIAL_CHARGES>  (1) 
22
1 -0.99
10 -0.15
11 -0.15
12 -0.3
18 0.36
19 0.36
2 0.27
20 0.15
21 0.15
22 0.15
23 0.15
24 0.15
25 0.15
26 0.15
27 0.15
3 0.14
4 0.14
5 -0.14
6 -0.15
7 -0.15
8 -0.29
9 -0.15

>  <PUBCHEM_EFFECTIVE_ROTOR_COUNT>  (1) 
4

>  <PUBCHEM_PHARMACOPHORE_FEATURES>  (1) 
4
1 1 cation
1 1 donor
1 12 hydrophobe
6 5 6 7 9 10 11 rings

>  <PUBCHEM_HEAVY_ATOM_COUNT>  (1) 
12

>  <PUBCHEM_ATOM_DEF_STEREO_COUNT>  (1) 
0

>  <PUBCHEM_ATOM_UDEF_STEREO_COUNT>  (1) 
1

>  <PUBCHEM_BOND_DEF_STEREO_COUNT>  (1) 
0

>  <PUBCHEM_BOND_UDEF_STEREO_COUNT>  (1) 
0

>  <PUBCHEM_ISOTOPIC_ATOM_COUNT>  (1) 
0

>  <PUBCHEM_COMPONENT_COUNT>  (1) 
1

>  <PUBCHEM_CACTVS_TAUTO_COUNT>  (1) 
1

>  <PUBCHEM_CONFORMER_ID>  (1) 
00004F1E00000001

>  <PUBCHEM_MMFF94_ENERGY>  (1) 
19.9166

>  <PUBCHEM_FEATURE_SELFOVERLAP>  (1) 
20.297

>  <PUBCHEM_SHAPE_FINGERPRINT>  (1) 
10857977 72 14851903408683964487
12162725 195 18340765953312693686
124424 183 15647320983672881084
12897270 3 17846214496541372007
12932764 1 17632855343255911331
14577589 140 9727371116344843211
14897335 6 18409446998992519986
15342168 16 17895490196951898973
15775835 57 18411985745281347573
18186145 218 18260833652733419318
20281407 28 11023840452469262604
20300324 65 17988644150514167916
20645464 45 16226047803444376673
20645476 183 18201714080944782615
20653085 51 18263083215217043017
20711985 344 14044917909796959571
20828058 34 18411142475871329108
20871999 31 17632004360469693159
21499 59 18335138726021830614
21524375 3 18261672679237676826
22169311 14 13695862658013285932
22485316 2 11167952346268311740
22926399 37 18409726296426307421
23552423 10 18127688232413161623
305870 269 18114179731290762602
528716 315 17989207083503776989
57096353 35 18272078435591763607
63268167 104 18408885109532147384
8030462 33 18201998832701782858
81228 2 16663207119836387515
83771 10 11383840376239771430
9939556 21 18270957925790041543

>  <PUBCHEM_SHAPE_MULTIPOLES>  (1) 
241.97
6.57
1.69
0.96
3.63
0.21
0.01
-2.91
1.46
0.66
-0.16
-0.4
-0.03
-0.64

>  <PUBCHEM_SHAPE_SELFOVERLAP>  (1) 
485.072

>  <PUBCHEM_SHAPE_VOLUME>  (1) 
142.5

>  <PUBCHEM_COORDINATE_TYPE>  (1) 
2
5
10

$$$$
