20258
     RDKit          3D

 26 29  0  0  1  0  0  0  0  0999 V2000
    0.2139   -0.7097   -1.7484 O   0  0  0  0  0  0  0  0  0  0  0  0
   -5.6938   -0.3647    0.1915 O   0  0  0  0  0  0  0  0  0  0  0  0
    0.7263   -1.3233    0.5572 C   0  0  0  0  0  0  0  0  0  0  0  0
   -0.0063   -0.3022   -0.3868 C   0  0  0  0  0  0  0  0  0  0  0  0
   -0.0103   -2.6729    0.5768 C   0  0  0  0  0  0  0  0  0  0  0  0
   -1.5325   -0.3340   -0.2016 C   0  0  0  0  0  0  0  0  0  0  0  0
   -1.4052   -2.4869    1.1642 C   0  0  0  0  0  0  0  0  0  0  0  0
   -2.1734   -1.3698    0.5078 C   0  0  0  0  0  0  0  0  0  0  0  0
    0.5823    1.1012   -0.1599 C   0  0  0  0  0  0  0  0  0  0  0  0
    2.2122   -1.4935    0.2522 C   0  0  0  0  0  0  0  0  0  0  0  0
   -2.3317    0.6532   -0.8145 C   0  0  0  0  0  0  0  0  0  0  0  0
   -3.5722   -1.3574    0.6451 C   0  0  0  0  0  0  0  0  0  0  0  0
    0.4191    1.7218    1.0716 C   0  0  0  0  0  0  0  0  0  0  0  0
    1.2694    1.7310   -1.1897 C   0  0  0  0  0  0  0  0  0  0  0  0
    3.1311   -0.5894    0.7745 C   0  0  0  0  0  0  0  0  0  0  0  0
    2.6356   -2.5516   -0.5452 C   0  0  0  0  0  0  0  0  0  0  0  0
   -3.7201    0.6453   -0.6818 C   0  0  0  0  0  0  0  0  0  0  0  0
   -4.3400   -0.3562    0.0547 C   0  0  0  0  0  0  0  0  0  0  0  0
    0.9518    2.9944    1.2771 C   0  0  0  0  0  0  0  0  0  0  0  0
    1.8023    3.0036   -0.9843 C   0  0  0  0  0  0  0  0  0  0  0  0
    4.4891   -0.7450    0.4960 C   0  0  0  0  0  0  0  0  0  0  0  0
    3.9935   -2.7071   -0.8236 C   0  0  0  0  0  0  0  0  0  0  0  0
    1.6436    3.6354    0.2492 C   0  0  0  0  0  0  0  0  0  0  0  0
    4.9202   -1.8037   -0.3030 C   0  0  0  0  0  0  0  0  0  0  0  0
    2.2134    4.9960    0.4685 C   0  0  0  0  0  0  0  0  0  0  0  0
   -6.4181    0.6855   -0.4477 C   0  0  0  0  0  0  0  0  0  0  0  0
  1  4  1  0
  2 18  1  0
  2 26  1  0
  3  4  1  0
  3  5  1  0
  3 10  1  0
  4  6  1  0
  4  9  1  0
  5  7  1  0
  6  8  2  0
  6 11  1  0
  7  8  1  0
  8 12  1  0
  9 13  2  0
  9 14  1  0
 10 15  2  0
 10 16  1  0
 11 17  2  0
 12 18  2  0
 13 19  1  0
 14 20  2  0
 15 21  1  0
 16 22  2  0
 17 18  1  0
 19 23  2  0
 20 23  1  0
 21 24  2  0
 22 24  1  0
 23 25  1  0
M  END
>  <PUBCHEM_COMPOUND_CID>  (1) 
20258

>  <PUBCHEM_CONFORMER_RMSD>  (1) 
0.8

>  <PUBCHEM_CONFORMER_DIVERSEORDER>  (1) 
1
5
2
7
4
6
3

>  <PUBCHEM_MMFF94_PARTIAL_CHARGES>  (1) 
38
1 -0.68
10 -0.14
11 -0.15
12 -0.15
13 -0.15
14 -0.15
15 -0.15
16 -0.15
17 -0.15
18 0.08
19 -0.15
2 -0.36
20 -0.15
21 -0.15
22 -0.15
23 -0.14
24 -0.15
25 0.14
26 0.28
3 0.14
32 0.15
33 0.4
34 0.15
35 0.15
36 0.15
37 0.15
38 0.15
39 0.15
4 0.57
40 0.15
41 0.15
42 0.15
43 0.15
44 0.15
6 -0.14
7 0.14
8 -0.14
9 -0.14

>  <PUBCHEM_EFFECTIVE_ROTOR_COUNT>  (1) 
3.8

>  <PUBCHEM_PHARMACOPHORE_FEATURES>  (1) 
7
1 1 acceptor
1 1 donor
1 2 acceptor
6 10 15 16 21 22 24 rings
6 3 4 5 6 7 8 rings
6 6 8 11 12 17 18 rings
6 9 13 14 19 20 23 rings

>  <PUBCHEM_HEAVY_ATOM_COUNT>  (1) 
26

>  <PUBCHEM_ATOM_DEF_STEREO_COUNT>  (1) 
0

>  <PUBCHEM_ATOM_UDEF_STEREO_COUNT>  (1) 
2

>  <PUBCHEM_BOND_DEF_STEREO_COUNT>  (1) 
0

>  <PUBCHEM_BOND_UDEF_STEREO_COUNT>  (1) 
0

>  <PUBCHEM_ISOTOPIC_ATOM_COUNT>  (1) 
0

>  <PUBCHEM_COMPONENT_COUNT>  (1) 
1

>  <PUBCHEM_CACTVS_TAUTO_COUNT>  (1) 
1

>  <PUBCHEM_CONFORMER_ID>  (1) 
00004F2200000001

>  <PUBCHEM_MMFF94_ENERGY>  (1) 
94.2332

>  <PUBCHEM_FEATURE_SELFOVERLAP>  (1) 
35.543

>  <PUBCHEM_SHAPE_FINGERPRINT>  (1) 
10006869 2 17473259877970589753
1100329 8 18409165545137588443
11112241 14 17056945593098546976
11421498 54 13479411617995487439
11578080 2 17751664249105872349
11582403 64 15980866799656120448
11646440 116 18338525135915170075
12011746 2 18336265652241727799
12035758 1 18334562564690926682
12166972 35 18201719531606115907
12422481 6 17973698536893948952
12516196 113 18340205198151208486
12549972 3 17895771715152199811
12788726 201 18119810206019948226
12930653 34 17688310504882227521
13004483 165 18195800774230076538
13134695 92 18131062732024013593
13140716 1 18261672700828889491
13149001 5 18260831526735443114
13540713 4 18042689584464614211
13590594 115 18267877077462076969
14022347 108 18335420115395088522
140371 6 18341343214202744522
14170010 4 18412539903932235347
14787075 74 18334013882598211310
14849402 71 18410022052385938329
14866123 147 17186160864539376010
14955137 171 18341898463153333455
15081414 286 18341059540213366826
15131766 46 16054307421067293314
15230672 131 17759524761947403252
15238133 3 18270132201675173385
15927050 60 17837493312724190966
17980427 23 17774452585559251857
1813 80 18059305248962959654
18393751 57 18058423514454404482
18785283 64 18263362662542318416
20600515 1 18200326424292955922
20642791 13 18127697024031355384
20642791 178 17825956098691574652
20642791 239 17533532073326852974
20691752 17 16516233179910980555
21029758 11 18410576141288675139
21033648 29 17630867344929214059
21120745 212 18054532222391444836
21285901 2 18057889030974320262
21304253 13 18411979144285774992
23175994 123 18411985723959348867
23419403 2 17914588632411822464
23557571 272 18267308617218400638
23559900 14 18410007762886819515
249057 25 17775574135523988857
283562 15 18047758087933707114
3178227 256 18262249824548771851
3298306 158 18051142681282408756
3411729 13 18189892196590368592
350125 39 18261112959379516477
5104073 3 18262244438749297755
5895379 119 17345215315171318057
6443956 14 18411419505657076224
70251023 43 18269252665482323399
7364860 26 18338799038864394408
7399639 24 17986941957050832654
81228 2 18050300167390897706
9981440 41 17763738093622647537

>  <PUBCHEM_SHAPE_MULTIPOLES>  (1) 
523.33
9.28
4.72
1.15
11.19
5.86
0.08
-3.63
0.95
-5.74
-0.76
-0.2
0.15
1.12

>  <PUBCHEM_SHAPE_SELFOVERLAP>  (1) 
1151.286

>  <PUBCHEM_SHAPE_VOLUME>  (1) 
280.9

>  <PUBCHEM_COORDINATE_TYPE>  (1) 
2
5
10

$$$$
