20263
     RDKit          3D

 10 11  0  0  0  0  0  0  0  0999 V2000
   -1.2066   -1.0412    0.0000 O   0  0  0  0  0  0  0  0  0  0  0  0
    0.1397    0.7729   -0.0002 C   0  0  0  0  0  0  0  0  0  0  0  0
    0.0885   -0.6172   -0.0001 C   0  0  0  0  0  0  0  0  0  0  0  0
   -1.9859    0.0717    0.0000 C   0  0  0  0  0  0  0  0  0  0  0  0
   -1.2116    1.2088   -0.0003 C   0  0  0  0  0  0  0  0  0  0  0  0
    1.3985    1.3987    0.0000 C   0  0  0  0  0  0  0  0  0  0  0  0
    1.2130   -1.4406   -0.0002 C   0  0  0  0  0  0  0  0  0  0  0  0
   -3.4380   -0.1526    0.0003 C   0  0  0  0  0  0  0  0  0  0  0  0
    2.5482    0.5968    0.0004 C   0  0  0  0  0  0  0  0  0  0  0  0
    2.4543   -0.7973    0.0000 C   0  0  0  0  0  0  0  0  0  0  0  0
  1  3  1  0
  1  4  1  0
  2  3  2  0
  2  5  1  0
  2  6  1  0
  3  7  1  0
  4  5  2  0
  4  8  1  0
  6  9  2  0
  7 10  2  0
  9 10  1  0
M  END
>  <PUBCHEM_COMPOUND_CID>  (1) 
20263

>  <PUBCHEM_CONFORMER_RMSD>  (1) 
0.4

>  <PUBCHEM_CONFORMER_DIVERSEORDER>  (1) 
1

>  <PUBCHEM_MMFF94_PARTIAL_CHARGES>  (1) 
14
1 -0.28
10 -0.15
11 0.15
12 0.15
13 0.15
17 0.15
18 0.15
3 0.14
4 -0.04
5 -0.15
6 -0.15
7 -0.15
8 0.18
9 -0.15

>  <PUBCHEM_EFFECTIVE_ROTOR_COUNT>  (1) 
0

>  <PUBCHEM_PHARMACOPHORE_FEATURES>  (1) 
3
1 1 acceptor
5 1 2 3 4 5 rings
6 2 3 6 7 9 10 rings

>  <PUBCHEM_HEAVY_ATOM_COUNT>  (1) 
10

>  <PUBCHEM_ATOM_DEF_STEREO_COUNT>  (1) 
0

>  <PUBCHEM_ATOM_UDEF_STEREO_COUNT>  (1) 
0

>  <PUBCHEM_BOND_DEF_STEREO_COUNT>  (1) 
0

>  <PUBCHEM_BOND_UDEF_STEREO_COUNT>  (1) 
0

>  <PUBCHEM_ISOTOPIC_ATOM_COUNT>  (1) 
0

>  <PUBCHEM_COMPONENT_COUNT>  (1) 
1

>  <PUBCHEM_CACTVS_TAUTO_COUNT>  (1) 
1

>  <PUBCHEM_CONFORMER_ID>  (1) 
00004F2700000001

>  <PUBCHEM_MMFF94_ENERGY>  (1) 
14.5216

>  <PUBCHEM_FEATURE_SELFOVERLAP>  (1) 
15.325

>  <PUBCHEM_SHAPE_FINGERPRINT>  (1) 
12032990 46 18410582759801623183
12897270 3 18409730664033215101
14325111 11 18410856572851927457
16945 1 18410575093316356004
17844478 74 18040442083606872981
193761 8 17474107596713038306
20201158 50 18408322172526976971
20645477 70 18411412878923842175
20871998 22 18054794979399558374
21040471 1 18194401323655571172
23235685 24 18336823190673148876
23402655 69 18267849615799700677
23552423 10 18261678073400108974
2748010 2 18122622756178061356
29004967 10 18333736809846512336
369184 2 18410852148734795865
5084963 1 18343019965023954544
528886 8 18411414055048068114

>  <PUBCHEM_SHAPE_MULTIPOLES>  (1) 
199.93
4.13
1.46
0.61
1.94
0.04
0
-0.25
0
-0.5
0
-0.01
0.01
0

>  <PUBCHEM_SHAPE_SELFOVERLAP>  (1) 
438.479

>  <PUBCHEM_SHAPE_VOLUME>  (1) 
110.6

>  <PUBCHEM_COORDINATE_TYPE>  (1) 
2
5
10

$$$$
