20260
     RDKit          3D

 25 28  0  0  0  0  0  0  0  0999 V2000
    5.7930    0.0966    0.0228 O   0  0  0  0  0  0  0  0  0  0  0  0
    0.2998    2.7150   -0.1592 C   0  0  0  0  0  0  0  0  0  0  0  0
    1.6324    2.6254    0.5802 C   0  0  0  0  0  0  0  0  0  0  0  0
   -0.4843    1.4233   -0.0841 C   0  0  0  0  0  0  0  0  0  0  0  0
    0.1210    0.2087   -0.0222 C   0  0  0  0  0  0  0  0  0  0  0  0
    2.3534    1.3481    0.2470 C   0  0  0  0  0  0  0  0  0  0  0  0
    1.6164    0.1794   -0.0305 C   0  0  0  0  0  0  0  0  0  0  0  0
   -0.7095   -1.0211    0.0287 C   0  0  0  0  0  0  0  0  0  0  0  0
   -1.9509    1.6120   -0.0938 C   0  0  0  0  0  0  0  0  0  0  0  0
    3.7549    1.3106    0.2735 C   0  0  0  0  0  0  0  0  0  0  0  0
    2.3190   -1.0070   -0.2995 C   0  0  0  0  0  0  0  0  0  0  0  0
    4.4327    0.1248    0.0023 C   0  0  0  0  0  0  0  0  0  0  0  0
    3.7155   -1.0318   -0.2860 C   0  0  0  0  0  0  0  0  0  0  0  0
   -1.0858   -1.5447    1.2593 C   0  0  0  0  0  0  0  0  0  0  0  0
   -1.1004   -1.6351   -1.1549 C   0  0  0  0  0  0  0  0  0  0  0  0
   -2.6367    1.7617    1.1082 C   0  0  0  0  0  0  0  0  0  0  0  0
   -2.6368    1.6388   -1.3047 C   0  0  0  0  0  0  0  0  0  0  0  0
   -1.8652   -2.7006    1.3072 C   0  0  0  0  0  0  0  0  0  0  0  0
   -1.8800   -2.7909   -1.1071 C   0  0  0  0  0  0  0  0  0  0  0  0
   -2.2625   -3.3237    0.1241 C   0  0  0  0  0  0  0  0  0  0  0  0
   -4.0202    1.9394    1.0991 C   0  0  0  0  0  0  0  0  0  0  0  0
   -4.0202    1.8166   -1.3137 C   0  0  0  0  0  0  0  0  0  0  0  0
   -4.7119    1.9669   -0.1117 C   0  0  0  0  0  0  0  0  0  0  0  0
   -3.0951   -4.5598    0.1757 C   0  0  0  0  0  0  0  0  0  0  0  0
    6.4212   -1.1528   -0.2606 C   0  0  0  0  0  0  0  0  0  0  0  0
  1 12  1  0
  1 25  1  0
  2  3  1  0
  2  4  1  0
  3  6  1  0
  4  5  2  0
  4  9  1  0
  5  7  1  0
  5  8  1  0
  6  7  2  0
  6 10  1  0
  7 11  1  0
  8 14  2  0
  8 15  1  0
  9 16  2  0
  9 17  1  0
 10 12  2  0
 11 13  2  0
 12 13  1  0
 14 18  1  0
 15 19  2  0
 16 21  1  0
 17 22  2  0
 18 20  2  0
 19 20  1  0
 20 24  1  0
 21 23  2  0
 22 23  1  0
M  END
>  <PUBCHEM_COMPOUND_CID>  (1) 
20260

>  <PUBCHEM_CONFORMER_RMSD>  (1) 
0.6

>  <PUBCHEM_CONFORMER_DIVERSEORDER>  (1) 
1

>  <PUBCHEM_MMFF94_PARTIAL_CHARGES>  (1) 
37
1 -0.36
10 -0.15
11 -0.15
12 0.08
13 -0.15
14 -0.15
15 -0.15
16 -0.15
17 -0.15
18 -0.15
19 -0.15
2 0.14
20 -0.14
21 -0.15
22 -0.15
23 -0.15
24 0.14
25 0.28
3 0.14
30 0.15
31 0.15
32 0.15
33 0.15
34 0.15
35 0.15
36 0.15
37 0.15
38 0.15
39 0.15
4 -0.17
40 0.15
41 0.15
5 -0.06
6 -0.14
7 0.03
8 0.03
9 0.03

>  <PUBCHEM_EFFECTIVE_ROTOR_COUNT>  (1) 
3.4

>  <PUBCHEM_PHARMACOPHORE_FEATURES>  (1) 
5
1 1 acceptor
6 2 3 4 5 6 7 rings
6 6 7 10 11 12 13 rings
6 8 14 15 18 19 20 rings
6 9 16 17 21 22 23 rings

>  <PUBCHEM_HEAVY_ATOM_COUNT>  (1) 
25

>  <PUBCHEM_ATOM_DEF_STEREO_COUNT>  (1) 
0

>  <PUBCHEM_ATOM_UDEF_STEREO_COUNT>  (1) 
0

>  <PUBCHEM_BOND_DEF_STEREO_COUNT>  (1) 
0

>  <PUBCHEM_BOND_UDEF_STEREO_COUNT>  (1) 
0

>  <PUBCHEM_ISOTOPIC_ATOM_COUNT>  (1) 
0

>  <PUBCHEM_COMPONENT_COUNT>  (1) 
1

>  <PUBCHEM_CACTVS_TAUTO_COUNT>  (1) 
1

>  <PUBCHEM_CONFORMER_ID>  (1) 
00004F2400000001

>  <PUBCHEM_MMFF94_ENERGY>  (1) 
92.5003

>  <PUBCHEM_FEATURE_SELFOVERLAP>  (1) 
25.397

>  <PUBCHEM_SHAPE_FINGERPRINT>  (1) 
10050765 1 18338517568736954744
10119406 146 18125168139231104822
10254770 206 17542212473111862594
10906281 52 18130520626016670572
1100329 8 18411138039075550184
11421498 54 17345193282337086929
11578080 2 16986296442873453611
12035758 1 18339941332661315545
12236239 1 17560231423853413997
12293681 25 17844831229615590486
12422481 6 18122094068049387555
12549972 3 17845639465113927928
12643181 29 18340210683842641830
12788726 201 18192137420619200291
12969540 114 18189042110613577445
13004483 165 18053098716404746443
13052359 8 18409167710222884215
13140716 1 18412824724768110760
13540713 4 18199177568113249904
13583140 156 17168146706479302480
13911987 19 18189889821199180221
14790565 3 18195815054986085072
14866123 147 18409167718539025787
15042514 8 18410578396088171425
15927050 60 18337952268761605051
16728300 4 16956456461663083578
17138139 8 17769333337388835901
17492 54 18189876661856708869
19591789 44 18122062000947614363
20028762 73 18273495663869324287
20602899 9 16128647552886383550
21033648 144 18339631318039172028
21033648 29 18190725471474689828
21236236 1 18411418435972940126
21478907 32 18194402431926211523
21703447 108 18051116288486419722
22033318 11 17400971795120131955
22182313 1 17774179958331352262
22224240 67 18340775832592348577
23402539 116 18059568027942320812
23419403 2 17344338115292405257
23558518 356 18116714225466943528
23559900 14 18341889689547971504
23569943 247 17199117608609217534
23598288 3 18340771558440402254
3178227 256 18336559205357539305
335352 9 18340486677939760548
3383291 50 17978228258228031282
34934 24 18336543833526564114
350125 39 18267309909317630753
3759504 43 17894915087745225345
38695281 34 18195243317987914389
4015057 19 17917414446125570272
4058900 60 18046346323588458541
469060 322 16805599300625323727
484989 97 18337666538368414623
5104073 3 18340759430227952272
59025328 239 16908312571483331167
59755656 520 18339078194732819293
6669772 16 18267585693478979559
70251023 43 18050002495702643706
7164475 11 18120373425991982069
81228 2 18044089292493557065
9709674 26 18268701878253674692
9981440 41 16766715200325989665

>  <PUBCHEM_SHAPE_MULTIPOLES>  (1) 
508.62
9.76
4.48
1.12
13.63
4.26
0.01
-0.91
0.55
-5.93
-0.31
-1.06
0.06
0.62

>  <PUBCHEM_SHAPE_SELFOVERLAP>  (1) 
1124.531

>  <PUBCHEM_SHAPE_VOLUME>  (1) 
273.1

>  <PUBCHEM_COORDINATE_TYPE>  (1) 
2
5
10

$$$$
