20262
     RDKit          3D

 17 19  0  0  0  0  0  0  0  0999 V2000
    0.1760   -0.7870    0.8134 N   0  0  0  0  0  0  0  0  0  0  0  0
    1.7499   -1.9151   -0.2911 N   0  0  0  0  0  0  0  0  0  0  0  0
    1.1787    1.4254    0.8241 N   0  0  0  0  0  0  0  0  0  0  0  0
    3.3373    1.4256   -0.3145 N   0  0  0  0  0  0  0  0  0  0  0  0
    4.2743   -0.5476   -1.2922 N   0  0  0  0  0  0  0  0  0  0  0  0
   -1.0540   -0.5328    1.5236 C   0  0  0  0  0  0  0  0  0  0  0  0
    1.1542    0.1194    0.5185 C   0  0  0  0  0  0  0  0  0  0  0  0
   -2.1610   -0.1416    0.5823 C   0  0  0  0  0  0  0  0  0  0  0  0
    2.1205   -0.5997   -0.1666 C   0  0  0  0  0  0  0  0  0  0  0  0
    0.5797   -1.9941    0.3073 C   0  0  0  0  0  0  0  0  0  0  0  0
    3.2451    0.1020   -0.5890 C   0  0  0  0  0  0  0  0  0  0  0  0
   -2.9732   -1.1256    0.0350 C   0  0  0  0  0  0  0  0  0  0  0  0
   -2.3556    1.1979    0.2739 C   0  0  0  0  0  0  0  0  0  0  0  0
   -3.9994   -0.7632   -0.8374 C   0  0  0  0  0  0  0  0  0  0  0  0
   -3.3820    1.5602   -0.5984 C   0  0  0  0  0  0  0  0  0  0  0  0
    2.3135    1.9966    0.3650 C   0  0  0  0  0  0  0  0  0  0  0  0
   -4.2039    0.5796   -1.1541 C   0  0  0  0  0  0  0  0  0  0  0  0
  1  6  1  0
  1  7  1  0
  1 10  1  0
  2  9  1  0
  2 10  2  0
  3  7  1  0
  3 16  2  0
  4 11  2  0
  4 16  1  0
  5 11  1  0
  6  8  1  0
  7  9  2  0
  8 12  2  0
  8 13  1  0
  9 11  1  0
 12 14  1  0
 13 15  2  0
 14 17  2  0
 15 17  1  0
M  END
>  <PUBCHEM_COMPOUND_CID>  (1) 
20262

>  <PUBCHEM_CONFORMER_RMSD>  (1) 
0.6

>  <PUBCHEM_CONFORMER_DIVERSEORDER>  (1) 
1
9
8
6
10
5
4
7
3
2

>  <PUBCHEM_MMFF94_PARTIAL_CHARGES>  (1) 
26
1 0.05
10 0.04
11 0.41
12 -0.15
13 -0.15
14 -0.15
15 -0.15
16 0.47
17 -0.15
2 -0.57
20 0.15
21 0.15
22 0.15
23 0.15
24 0.15
25 0.15
26 0.15
27 0.4
28 0.4
3 -0.57
4 -0.62
5 -0.9
6 0.4
7 0.11
8 -0.14
9 0.23

>  <PUBCHEM_EFFECTIVE_ROTOR_COUNT>  (1) 
2

>  <PUBCHEM_PHARMACOPHORE_FEATURES>  (1) 
8
1 5 cation
1 5 donor
3 1 2 10 cation
3 1 3 7 cation
3 3 4 16 cation
5 1 2 7 9 10 rings
6 3 4 7 9 11 16 rings
6 8 12 13 14 15 17 rings

>  <PUBCHEM_HEAVY_ATOM_COUNT>  (1) 
17

>  <PUBCHEM_ATOM_DEF_STEREO_COUNT>  (1) 
0

>  <PUBCHEM_ATOM_UDEF_STEREO_COUNT>  (1) 
0

>  <PUBCHEM_BOND_DEF_STEREO_COUNT>  (1) 
0

>  <PUBCHEM_BOND_UDEF_STEREO_COUNT>  (1) 
0

>  <PUBCHEM_ISOTOPIC_ATOM_COUNT>  (1) 
0

>  <PUBCHEM_COMPONENT_COUNT>  (1) 
1

>  <PUBCHEM_CACTVS_TAUTO_COUNT>  (1) 
3

>  <PUBCHEM_CONFORMER_ID>  (1) 
00004F2600000001

>  <PUBCHEM_MMFF94_ENERGY>  (1) 
38.0328

>  <PUBCHEM_FEATURE_SELFOVERLAP>  (1) 
41.203

>  <PUBCHEM_SHAPE_FINGERPRINT>  (1) 
10498660 4 17894620440610590845
10764073 3 16969364745400431472
10799339 124 8214148464625537911
11640471 11 15502646127014305905
11715629 250 18334283271832083797
12363563 72 14333117573048636439
12382932 28 8574440806828140649
12507560 40 10737275836481169199
12654215 9 18408887326273270848
12730499 353 18333736806174212811
12892183 10 11169907269415860127
13004483 165 16890866130532531467
13296908 3 14045733803670488819
13464514 151 18188777119557460960
13705890 14 17561084717710813180
13764800 53 17022914432338889521
14250199 8 18412545431355042401
14251745 187 18334011683458872164
14252887 29 9295296044899592244
15209294 21 13190630506935677406
15239191 94 13614521865842877077
16752209 62 16128090049732045673
16945 1 18341055142061217874
1813 80 13830135026544910859
18186145 218 18341620329703019826
18915474 69 17203320165287883063
19784866 170 8430321229649311490
19862831 5 18060701676011694241
200 152 17703793621587451729
20361792 2 15195277643021989473
21065199 12 8430320151549054573
21713013 43 18060129981863743343
221357 26 18413669093715792941
22393880 68 18412821378334173758
231179 274 17385720287997351108
23402655 69 18339642244055618853
23493267 7 17168437033673267136
23557571 272 17677347116150791235
25 1 18262525792469884987
2748010 2 18052552250614357034
2838139 119 17023482957323450660
2871803 45 18340197600818097311
3060560 45 18341888593492443798
3082319 5 18342171138142591223
3323516 105 18271802479848565897
4028521 119 18114174229574761069
4280585 95 17410788964433693206
4371632 12 12746447802677860944
474 4 17530688701628660061
5262128 65 17917725594630181157
7832392 63 18198343953341547393
93112 12 18341327825545659503

>  <PUBCHEM_SHAPE_MULTIPOLES>  (1) 
324.95
7.72
1.94
1.12
1.7
0.11
-0.04
1.41
3.68
-0.51
-0.07
0.14
-0.05
0.5

>  <PUBCHEM_SHAPE_SELFOVERLAP>  (1) 
719.715

>  <PUBCHEM_SHAPE_VOLUME>  (1) 
171.7

>  <PUBCHEM_COORDINATE_TYPE>  (1) 
2
5
10

$$$$
