20261
     RDKit          3D

 20 20  0  0  0  0  0  0  0  0999 V2000
    2.5518   -2.3762   -1.4574 Cl  0  0  0  0  0  0  0  0  0  0  0  0
    2.5797   -2.3687    1.4735 Cl  0  0  0  0  0  0  0  0  0  0  0  0
    4.9894   -1.7438   -0.0166 Cl  0  0  0  0  0  0  0  0  0  0  0  0
   -2.5545   -2.3755    1.4587 Cl  0  0  0  0  0  0  0  0  0  0  0  0
   -2.5771   -2.3697   -1.4722 Cl  0  0  0  0  0  0  0  0  0  0  0  0
   -4.9893   -1.7437    0.0132 Cl  0  0  0  0  0  0  0  0  0  0  0  0
    3.6464    0.7746   -0.0007 O   0  0  0  0  0  0  0  0  0  0  0  0
   -3.6461    0.7745   -0.0018 O   0  0  0  0  0  0  0  0  0  0  0  0
    1.4187    0.0562    0.0005 N   0  0  0  0  0  0  0  0  0  0  0  0
   -1.4185    0.0559    0.0015 N   0  0  0  0  0  0  0  0  0  0  0  0
    0.6977    1.2539    0.0007 C   0  0  0  0  0  0  0  0  0  0  0  0
   -0.6973    1.2535    0.0020 C   0  0  0  0  0  0  0  0  0  0  0  0
    1.3947    2.4622   -0.0010 C   0  0  0  0  0  0  0  0  0  0  0  0
   -1.3950    2.4615    0.0016 C   0  0  0  0  0  0  0  0  0  0  0  0
    0.6968    3.6700   -0.0014 C   0  0  0  0  0  0  0  0  0  0  0  0
   -0.6980    3.6697   -0.0002 C   0  0  0  0  0  0  0  0  0  0  0  0
    2.8113   -0.1270    0.0000 C   0  0  0  0  0  0  0  0  0  0  0  0
   -2.8110   -0.1273   -0.0004 C   0  0  0  0  0  0  0  0  0  0  0  0
    3.2129   -1.6000   -0.0001 C   0  0  0  0  0  0  0  0  0  0  0  0
   -3.2128   -1.6001   -0.0002 C   0  0  0  0  0  0  0  0  0  0  0  0
  1 19  1  0
  2 19  1  0
  3 19  1  0
  4 20  1  0
  5 20  1  0
  6 20  1  0
  7 17  2  0
  8 18  2  0
  9 11  1  0
  9 17  1  0
 10 12  1  0
 10 18  1  0
 11 12  2  0
 11 13  1  0
 12 14  1  0
 13 15  2  0
 14 16  2  0
 15 16  1  0
 17 19  1  0
 18 20  1  0
M  END
>  <PUBCHEM_COMPOUND_CID>  (1) 
20261

>  <PUBCHEM_CONFORMER_RMSD>  (1) 
0.8

>  <PUBCHEM_CONFORMER_DIVERSEORDER>  (1) 
1
4
3
7
2
6
5

>  <PUBCHEM_MMFF94_PARTIAL_CHARGES>  (1) 
26
1 -0.29
10 -0.55
11 0.12
12 0.12
13 -0.15
14 -0.15
15 -0.15
16 -0.15
17 0.57
18 0.57
19 0.93
2 -0.29
20 0.93
21 0.15
22 0.15
23 0.37
24 0.37
25 0.15
26 0.15
3 -0.29
4 -0.29
5 -0.29
6 -0.29
7 -0.57
8 -0.57
9 -0.55

>  <PUBCHEM_EFFECTIVE_ROTOR_COUNT>  (1) 
6

>  <PUBCHEM_PHARMACOPHORE_FEATURES>  (1) 
5
1 10 donor
1 7 acceptor
1 8 acceptor
1 9 donor
6 11 12 13 14 15 16 rings

>  <PUBCHEM_HEAVY_ATOM_COUNT>  (1) 
20

>  <PUBCHEM_ATOM_DEF_STEREO_COUNT>  (1) 
0

>  <PUBCHEM_ATOM_UDEF_STEREO_COUNT>  (1) 
0

>  <PUBCHEM_BOND_DEF_STEREO_COUNT>  (1) 
0

>  <PUBCHEM_BOND_UDEF_STEREO_COUNT>  (1) 
0

>  <PUBCHEM_ISOTOPIC_ATOM_COUNT>  (1) 
0

>  <PUBCHEM_COMPONENT_COUNT>  (1) 
1

>  <PUBCHEM_CACTVS_TAUTO_COUNT>  (1) 
3

>  <PUBCHEM_CONFORMER_ID>  (1) 
00004F2500000001

>  <PUBCHEM_MMFF94_ENERGY>  (1) 
57.5118

>  <PUBCHEM_FEATURE_SELFOVERLAP>  (1) 
25.375

>  <PUBCHEM_SHAPE_FINGERPRINT>  (1) 
10616163 171 18267304231666342510
11265709 11 18410575076078419097
114674 6 17754178900976648003
116883 192 18268433442781616588
12107183 9 18341908381292967611
12363563 72 18410017636568519263
12506688 2 18408888463996388752
12553582 1 18410567388082035267
12788726 201 18192149291644555610
13004483 165 18340195319794661691
13140716 1 18340484439823877856
13533116 47 18194687201596538587
138480 1 14880032922799492999
14787075 74 18261392317037265020
14790565 3 17762624992735092969
14866123 147 18123191195621972081
15042514 8 18194685865017599545
15352361 1 18410573989483647019
15442244 35 18340492261465933761
16752209 62 17974554811174236425
17492 89 18124030397962309135
17818456 19 17845952774957987401
20028762 73 17841144451670455269
20291156 8 18410854360616722410
20645477 70 18194395830603565271
20832881 197 18261108578576126275
21197605 99 16606899149256364195
21452121 199 18337380621641230216
221490 88 18118691160353226899
2255824 54 17979919628805978997
23184049 29 18337670806874589160
23557571 272 18126849296724994846
23559900 14 18411128156202756321
23728640 28 17760639270265146090
3091708 16 9209831005740553168
314173 41 18336270132029514299
3421961 26 18339643476721613513
34934 24 18410848863058622504
352729 6 17689998929541424068
6443956 14 18336828692599971789
7097593 13 18198065970389084149
7364860 26 18123470746100269625
81228 2 18267871575075921689
9709674 26 18191586565536277323

>  <PUBCHEM_SHAPE_MULTIPOLES>  (1) 
401.11
8.17
4.68
1.09
0
3.76
0
-8.05
0
0
0
0
-1.13
0

>  <PUBCHEM_SHAPE_SELFOVERLAP>  (1) 
773.923

>  <PUBCHEM_SHAPE_VOLUME>  (1) 
244

>  <PUBCHEM_COORDINATE_TYPE>  (1) 
2
5
10

$$$$
