20265
     RDKit          3D

 11 11  0  0  0  0  0  0  0  0999 V2000
   -2.1095   -2.6014    0.3184 Cl  0  0  0  0  0  0  0  0  0  0  0  0
   -2.1100    2.6012    0.3182 Cl  0  0  0  0  0  0  0  0  0  0  0  0
    3.7263    0.0002    1.1416 S   0  0  0  0  0  0  0  0  0  0  0  0
   -0.0160    1.1998   -0.3395 N   0  0  0  0  0  0  0  0  0  0  0  0
   -0.0161   -1.1998   -0.3398 N   0  0  0  0  0  0  0  0  0  0  0  0
   -1.9984    0.0000    0.2837 N   0  0  0  0  0  0  0  0  0  0  0  0
    1.8905    0.0002   -0.9400 N   0  0  0  0  0  0  0  0  0  0  0  0
    0.5592    0.0001   -0.5206 C   0  0  0  0  0  0  0  0  0  0  0  0
   -1.2949   -1.1221    0.0623 C   0  0  0  0  0  0  0  0  0  0  0  0
   -1.2949    1.1221    0.0625 C   0  0  0  0  0  0  0  0  0  0  0  0
    2.6639   -0.0002   -0.0469 C   0  0  0  0  0  0  0  0  0  0  0  0
  1  9  1  0
  2 10  1  0
  3 11  2  0
  4  8  2  0
  4 10  1  0
  5  8  1  0
  5  9  2  0
  6  9  1  0
  6 10  2  0
  7  8  1  0
  7 11  2  0
M  END
>  <PUBCHEM_COMPOUND_CID>  (1) 
20265

>  <PUBCHEM_CONFORMER_RMSD>  (1) 
0.4

>  <PUBCHEM_CONFORMER_DIVERSEORDER>  (1) 
1
2
3

>  <PUBCHEM_MMFF94_PARTIAL_CHARGES>  (1) 
11
1 -0.18
10 0.8
11 0.57
2 -0.18
3 -0.27
4 -0.62
5 -0.62
6 -0.62
7 -0.48
8 0.8
9 0.8

>  <PUBCHEM_EFFECTIVE_ROTOR_COUNT>  (1) 
1

>  <PUBCHEM_PHARMACOPHORE_FEATURES>  (1) 
4
1 3 acceptor
1 7 acceptor
4 4 5 7 8 cation
6 4 5 6 8 9 10 rings

>  <PUBCHEM_HEAVY_ATOM_COUNT>  (1) 
11

>  <PUBCHEM_ATOM_DEF_STEREO_COUNT>  (1) 
0

>  <PUBCHEM_ATOM_UDEF_STEREO_COUNT>  (1) 
0

>  <PUBCHEM_BOND_DEF_STEREO_COUNT>  (1) 
0

>  <PUBCHEM_BOND_UDEF_STEREO_COUNT>  (1) 
0

>  <PUBCHEM_ISOTOPIC_ATOM_COUNT>  (1) 
0

>  <PUBCHEM_COMPONENT_COUNT>  (1) 
1

>  <PUBCHEM_CACTVS_TAUTO_COUNT>  (1) 
1

>  <PUBCHEM_CONFORMER_ID>  (1) 
00004F2900000001

>  <PUBCHEM_MMFF94_ENERGY>  (1) 
18.3808

>  <PUBCHEM_FEATURE_SELFOVERLAP>  (1) 
20.302

>  <PUBCHEM_SHAPE_FINGERPRINT>  (1) 
10130415 120 18118691160680748659
10857977 72 18199752603661205434
12716758 59 18269562645528904654
12932764 1 17346602997629383630
13380535 76 18268988683337267879
16945 1 18410586079911225647
18380122 1 17917438673935431358
19021347 4 18266181617419602145
20645464 45 18059572447663459300
20715346 28 17846503634246147630
20871998 184 18272654596754155246
21040471 1 18193854647090609069
21524375 3 17911796873404028597
21650355 55 18266447892354344522
22445834 79 17967805003965080394
23211744 41 17915182316918747973
23402539 116 18341034264720992773
23500284 5 18114178691597778714
23552423 10 17754184393986020309
2748010 2 17976840700248481391
305870 269 17832423103124731777
3071541 236 18335135363094027889
3086196 2 18337095873994177802
369184 2 18342168960467571610
7364860 26 17259623638969263549
81228 2 18339655502709066019
88987 49 18337402560518593364

>  <PUBCHEM_SHAPE_MULTIPOLES>  (1) 
214.04
4.71
2.47
0.88
5.05
0
-0.07
0
-1.58
-3.35
-0.41
0.53
0
0

>  <PUBCHEM_SHAPE_SELFOVERLAP>  (1) 
417.961

>  <PUBCHEM_SHAPE_VOLUME>  (1) 
130.6

>  <PUBCHEM_COORDINATE_TYPE>  (1) 
2
5
10

$$$$
