20264
     RDKit          3D

 14 13  0  0  0  0  0  0  0  0999 V2000
    1.7631   -0.9802   -0.1380 S   0  0  0  0  0  0  0  0  0  0  0  0
   -0.9712    0.2694   -0.3740 S   0  0  0  0  0  0  0  0  0  0  0  0
    4.3597    1.8317    0.5600 O   0  0  0  0  0  0  0  0  0  0  0  0
   -4.5418    1.4426    0.6236 O   0  0  0  0  0  0  0  0  0  0  0  0
    4.1863    0.3602   -1.1632 O   0  0  0  0  0  0  0  0  0  0  0  0
   -3.4672    1.4826   -1.3787 O   0  0  0  0  0  0  0  0  0  0  0  0
    0.0130   -1.0297    0.5197 C   0  0  0  0  0  0  0  0  0  0  0  0
   -0.5389   -2.4609    0.2729 C   0  0  0  0  0  0  0  0  0  0  0  0
    0.0196   -0.7562    2.0320 C   0  0  0  0  0  0  0  0  0  0  0  0
   -0.6304   -2.9373   -1.1760 C   0  0  0  0  0  0  0  0  0  0  0  0
    2.2799    0.7090    0.2697 C   0  0  0  0  0  0  0  0  0  0  0  0
   -2.6061    0.0771    0.3797 C   0  0  0  0  0  0  0  0  0  0  0  0
    3.6906    0.9256   -0.1969 C   0  0  0  0  0  0  0  0  0  0  0  0
   -3.5566    1.0663   -0.2307 C   0  0  0  0  0  0  0  0  0  0  0  0
  1  7  1  0
  1 11  1  0
  2  7  1  0
  2 12  1  0
  3 13  1  0
  4 14  1  0
  5 13  2  0
  6 14  2  0
  7  8  1  0
  7  9  1  0
  8 10  1  0
 11 13  1  0
 12 14  1  0
M  END
>  <PUBCHEM_COMPOUND_CID>  (1) 
20264

>  <PUBCHEM_CONFORMER_RMSD>  (1) 
0.8

>  <PUBCHEM_CONFORMER_DIVERSEORDER>  (1) 
1
32
33
25
9
5
16
29
23
18
19
3
34
11
22
6
28
21
35
36
8
2
31
15
37
17
26
13
30
14
20
24
4
7
12
27
10

>  <PUBCHEM_MMFF94_PARTIAL_CHARGES>  (1) 
13
1 -0.46
11 0.29
12 0.29
13 0.66
14 0.66
2 -0.46
27 0.5
28 0.5
3 -0.65
4 -0.65
5 -0.57
6 -0.57
7 0.46

>  <PUBCHEM_EFFECTIVE_ROTOR_COUNT>  (1) 
7

>  <PUBCHEM_PHARMACOPHORE_FEATURES>  (1) 
11
1 10 hydrophobe
1 3 acceptor
1 4 acceptor
1 5 acceptor
1 6 acceptor
1 9 hydrophobe
3 3 5 13 anion
3 4 6 14 anion
4 1 7 8 11 hydrophobe
4 2 7 8 12 hydrophobe
5 1 2 7 11 12 hydrophobe

>  <PUBCHEM_HEAVY_ATOM_COUNT>  (1) 
14

>  <PUBCHEM_ATOM_DEF_STEREO_COUNT>  (1) 
0

>  <PUBCHEM_ATOM_UDEF_STEREO_COUNT>  (1) 
0

>  <PUBCHEM_BOND_DEF_STEREO_COUNT>  (1) 
0

>  <PUBCHEM_BOND_UDEF_STEREO_COUNT>  (1) 
0

>  <PUBCHEM_ISOTOPIC_ATOM_COUNT>  (1) 
0

>  <PUBCHEM_COMPONENT_COUNT>  (1) 
1

>  <PUBCHEM_CACTVS_TAUTO_COUNT>  (1) 
1

>  <PUBCHEM_CONFORMER_ID>  (1) 
00004F2800000001

>  <PUBCHEM_MMFF94_ENERGY>  (1) 
25.9996

>  <PUBCHEM_FEATURE_SELFOVERLAP>  (1) 
61.829

>  <PUBCHEM_SHAPE_FINGERPRINT>  (1) 
10922049 32 18336272275086261179
11543360 7 16486965236973141124
12119455 92 18335136462421149746
12138202 97 18272653493021471526
122479 349 18114467854808197568
12532896 13 18335701667290865466
13544653 18 9871743598399113408
14123255 52 18409724062774203540
15534591 1 18260543463178550258
15775835 57 18260265243802562280
1741750 31 18413105091210352546
17834072 32 18263088876127078788
18186145 218 18272373044457230060
19786989 88 18267019458354974635
20645477 56 18269560610004459448
20671657 53 17407122054415704423
20711985 344 17979899824680466434
20820808 20 18200592493047922315
20871998 22 8646769997571102666
20871999 31 17845363500622598335
21499 59 18341045238177758951
21524375 3 18334010566788123538
22218785 32 18342181042131668654
22620623 9 17844249738003619431
23382010 3 17846769732691487667
23402539 116 18202278104782413236
23419403 2 17761260614800314635
23500284 214 18334579074608729880
23558518 356 17755578596563825992
25 1 18343023254947771682
298252 57 18409727365503879675
633830 44 17987804007850994597
81228 2 17905877433665480467
81539 233 18114460046441628327

>  <PUBCHEM_SHAPE_MULTIPOLES>  (1) 
272.34
7.65
2.52
1.3
1.55
1.83
-0.3
-7.47
1.19
-0.65
0.57
-0.16
0.27
0.24

>  <PUBCHEM_SHAPE_SELFOVERLAP>  (1) 
489.175

>  <PUBCHEM_SHAPE_VOLUME>  (1) 
175.8

>  <PUBCHEM_COORDINATE_TYPE>  (1) 
2
5
10

$$$$
