20269
     RDKit          3D

  8  7  0  0  0  0  0  0  0  0999 V2000
    3.7253   -1.0245   -0.1925 Br  0  0  0  0  0  0  0  0  0  0  0  0
   -3.4100   -1.4992   -0.2266 Br  0  0  0  0  0  0  0  0  0  0  0  0
    0.0160    0.8314    0.2850 N   0  0  0  0  0  0  0  0  0  0  0  0
    1.3915    0.5993   -0.1542 C   0  0  0  0  0  0  0  0  0  0  0  0
   -0.8539   -0.2555   -0.1633 C   0  0  0  0  0  0  0  0  0  0  0  0
   -0.4709    2.1158   -0.2168 C   0  0  0  0  0  0  0  0  0  0  0  0
    1.8732   -0.7499    0.3453 C   0  0  0  0  0  0  0  0  0  0  0  0
   -2.2712   -0.0175    0.3231 C   0  0  0  0  0  0  0  0  0  0  0  0
  1  7  1  0
  2  8  1  0
  3  4  1  0
  3  5  1  0
  3  6  1  0
  4  7  1  0
  5  8  1  0
M  END
>  <PUBCHEM_COMPOUND_CID>  (1) 
20269

>  <PUBCHEM_CONFORMER_RMSD>  (1) 
0.6

>  <PUBCHEM_CONFORMER_DIVERSEORDER>  (1) 
2
13
16
8
1
11
12
17
14
15
4
7
3
10
6
5
9

>  <PUBCHEM_MMFF94_PARTIAL_CHARGES>  (1) 
8
1 -0.23
2 -0.23
3 -0.81
4 0.27
5 0.27
6 0.27
7 0.23
8 0.23

>  <PUBCHEM_EFFECTIVE_ROTOR_COUNT>  (1) 
4

>  <PUBCHEM_PHARMACOPHORE_FEATURES>  (1) 
3
1 1 hydrophobe
1 2 hydrophobe
1 3 cation

>  <PUBCHEM_HEAVY_ATOM_COUNT>  (1) 
8

>  <PUBCHEM_ATOM_DEF_STEREO_COUNT>  (1) 
0

>  <PUBCHEM_ATOM_UDEF_STEREO_COUNT>  (1) 
0

>  <PUBCHEM_BOND_DEF_STEREO_COUNT>  (1) 
0

>  <PUBCHEM_BOND_UDEF_STEREO_COUNT>  (1) 
0

>  <PUBCHEM_ISOTOPIC_ATOM_COUNT>  (1) 
0

>  <PUBCHEM_COMPONENT_COUNT>  (1) 
1

>  <PUBCHEM_CACTVS_TAUTO_COUNT>  (1) 
1

>  <PUBCHEM_CONFORMER_ID>  (1) 
00004F2D00000002

>  <PUBCHEM_MMFF94_ENERGY>  (1) 
11.3677

>  <PUBCHEM_FEATURE_SELFOVERLAP>  (1) 
15.223

>  <PUBCHEM_SHAPE_FINGERPRINT>  (1) 
14128692 85 18408046220941298116
18342897 69 18337105649297649282
20211469 16 18413108381086891671
20211469 26 17918268745026798663
20281407 28 18341896260077619162
20645477 70 18120644993138900671
20653085 51 7781515953321687946
20711978 1 18408042918338372244
20711985 344 17968928678736192673
20871998 184 18130222657911551014
20871998 22 18272097075676260774
23552423 10 18187086143709607732
29004967 10 18262236736981560769

>  <PUBCHEM_SHAPE_MULTIPOLES>  (1) 
171.54
5.97
1.86
0.7
1.18
0.75
-0.02
-4.53
-0.39
-0.54
-0.18
0
-0.05
-0.11

>  <PUBCHEM_SHAPE_SELFOVERLAP>  (1) 
279.834

>  <PUBCHEM_SHAPE_VOLUME>  (1) 
123.5

>  <PUBCHEM_COORDINATE_TYPE>  (1) 
2
5
10

$$$$
