20279
     RDKit          3D

 19 21  0  0  1  0  0  0  0  0999 V2000
    1.6330    3.3744    0.3086 Cl  0  0  0  0  0  0  0  0  0  0  0  0
   -1.7996    0.0059   -0.9620 O   0  0  0  0  0  0  0  0  0  0  0  0
   -4.3416   -1.3596    0.1353 O   0  0  0  0  0  0  0  0  0  0  0  0
   -2.1398    2.7706   -0.7255 O   0  0  0  0  0  0  0  0  0  0  0  0
    0.0048   -1.3461   -0.2243 N   0  0  0  0  0  0  0  0  0  0  0  0
    2.0188   -2.3091   -0.1868 N   0  0  0  0  0  0  0  0  0  0  0  0
    0.6561    0.9811    0.0280 N   0  0  0  0  0  0  0  0  0  0  0  0
    3.0795    1.2132    0.1989 N   0  0  0  0  0  0  0  0  0  0  0  0
    4.5592   -0.6652    0.1181 N   0  0  0  0  0  0  0  0  0  0  0  0
   -1.4462   -1.2216   -0.3011 C   0  0  0  0  0  0  0  0  0  0  0  0
   -3.4150   -0.4529    0.7289 C   0  0  0  0  0  0  0  0  0  0  0  0
   -2.1460   -1.2088    1.0502 C   0  0  0  0  0  0  0  0  0  0  0  0
   -2.9596    0.5656   -0.3108 C   0  0  0  0  0  0  0  0  0  0  0  0
   -2.5562    1.8965    0.3088 C   0  0  0  0  0  0  0  0  0  0  0  0
    0.9108   -0.3318   -0.0760 C   0  0  0  0  0  0  0  0  0  0  0  0
    0.7219   -2.5141   -0.2854 C   0  0  0  0  0  0  0  0  0  0  0  0
    2.1511   -0.9496   -0.0555 C   0  0  0  0  0  0  0  0  0  0  0  0
    3.2622   -0.1247    0.0880 C   0  0  0  0  0  0  0  0  0  0  0  0
    1.8066    1.6761    0.1625 C   0  0  0  0  0  0  0  0  0  0  0  0
  1 19  1  0
  2 10  1  0
  2 13  1  0
  3 11  1  0
  4 14  1  0
  5 10  1  0
  5 15  1  0
  5 16  1  0
  6 16  2  0
  6 17  1  0
  7 15  1  0
  7 19  2  0
  8 18  2  0
  8 19  1  0
  9 18  1  0
 10 12  1  0
 11 12  1  0
 11 13  1  0
 13 14  1  0
 15 17  2  0
 17 18  1  0
M  END
>  <PUBCHEM_COMPOUND_CID>  (1) 
20279

>  <PUBCHEM_CONFORMER_RMSD>  (1) 
0.6

>  <PUBCHEM_CONFORMER_DIVERSEORDER>  (1) 
1
3
13
12
7
9
15
4
5
8
11
10
2
6
14

>  <PUBCHEM_MMFF94_PARTIAL_CHARGES>  (1) 
23
1 -0.18
10 0.54
11 0.28
13 0.28
14 0.28
15 0.11
16 0.04
17 0.23
18 0.41
19 0.8
2 -0.56
27 0.15
28 0.4
29 0.4
3 -0.68
30 0.4
31 0.4
4 -0.68
5 0.05
6 -0.57
7 -0.57
8 -0.62
9 -0.9

>  <PUBCHEM_EFFECTIVE_ROTOR_COUNT>  (1) 
3

>  <PUBCHEM_PHARMACOPHORE_FEATURES>  (1) 
13
1 2 acceptor
1 3 acceptor
1 3 donor
1 4 acceptor
1 4 donor
1 9 cation
1 9 donor
3 5 6 16 cation
3 5 7 15 cation
3 7 8 19 cation
5 2 10 11 12 13 rings
5 5 6 15 16 17 rings
6 7 8 15 17 18 19 rings

>  <PUBCHEM_HEAVY_ATOM_COUNT>  (1) 
19

>  <PUBCHEM_ATOM_DEF_STEREO_COUNT>  (1) 
3

>  <PUBCHEM_ATOM_UDEF_STEREO_COUNT>  (1) 
0

>  <PUBCHEM_BOND_DEF_STEREO_COUNT>  (1) 
0

>  <PUBCHEM_BOND_UDEF_STEREO_COUNT>  (1) 
0

>  <PUBCHEM_ISOTOPIC_ATOM_COUNT>  (1) 
0

>  <PUBCHEM_COMPONENT_COUNT>  (1) 
1

>  <PUBCHEM_CACTVS_TAUTO_COUNT>  (1) 
3

>  <PUBCHEM_CONFORMER_ID>  (1) 
00004F3700000001

>  <PUBCHEM_MMFF94_ENERGY>  (1) 
39.6323

>  <PUBCHEM_FEATURE_SELFOVERLAP>  (1) 
66.58

>  <PUBCHEM_SHAPE_FINGERPRINT>  (1) 
10366900 7 18187092783739869955
10608611 8 18409166571887479343
10967382 1 18267302208551947820
11471102 20 18411980299304858310
12403259 226 18410571824804013347
12403260 363 18339634633136057051
12633257 1 18334868220433916107
13132413 78 18342456993965176204
13140716 1 18122343742254826962
14026960 21 18265338498001415531
14223421 5 18409733954326277899
14790565 3 18410865373825940668
15042514 8 16176505639459748810
15196674 1 18411138039011967192
15375462 6 18410014364219917799
15442244 35 18123189004661363994
15775835 57 18059017322887243699
16945 1 18411695517203446726
17802600 8 18411416228412283121
18186145 218 18059582437767978242
19049666 15 18189901911521276011
19591789 44 18411702054613104710
19930381 70 18123746723745603921
200 152 18201429303560220655
21501502 16 18336830779985765043
21524375 3 18128538352163842974
22094290 62 18340485689870077992
22854114 111 18341053015994286355
2334 1 17763461020881640198
23402539 116 18409724089108691639
23559900 14 18409441497118392825
238 59 18123719094078415133
2748010 2 18197779899428173334
3286 77 18333731350948431782
350125 39 18410579517175330121
44154327 71 18048322437803743933
7832392 63 18125441912787478177
8809292 202 18262242101321678496
9709674 26 18410017628347901811

>  <PUBCHEM_SHAPE_MULTIPOLES>  (1) 
350.37
6.57
3.17
0.77
0.55
1.98
-0.04
-0.44
-0.69
-0.78
0.1
0.38
0.01
0.55

>  <PUBCHEM_SHAPE_SELFOVERLAP>  (1) 
752.839

>  <PUBCHEM_SHAPE_VOLUME>  (1) 
196.2

>  <PUBCHEM_COORDINATE_TYPE>  (1) 
2
5
10

$$$$
