20276
     RDKit          3D

 12 11  0  0  0  0  0  0  0  0999 V2000
   -7.4800   -0.5556    0.1071 I   0  0  0  0  0  0  0  0  0  0  0  0
    0.6618   -0.4197   -0.0330 C   0  0  0  0  0  0  0  0  0  0  0  0
   -0.5785    0.4780   -0.0364 C   0  0  0  0  0  0  0  0  0  0  0  0
    1.9465    0.4112   -0.0379 C   0  0  0  0  0  0  0  0  0  0  0  0
   -1.8629   -0.3527   -0.0687 C   0  0  0  0  0  0  0  0  0  0  0  0
    3.2217   -0.4365   -0.0022 C   0  0  0  0  0  0  0  0  0  0  0  0
   -3.1384    0.4955   -0.0648 C   0  0  0  0  0  0  0  0  0  0  0  0
    4.5409    0.3415    0.0176 C   0  0  0  0  0  0  0  0  0  0  0  0
   -4.4583   -0.2829   -0.0346 C   0  0  0  0  0  0  0  0  0  0  0  0
    5.7781   -0.5564   -0.0102 C   0  0  0  0  0  0  0  0  0  0  0  0
   -5.6885    0.6189    0.0607 C   0  0  0  0  0  0  0  0  0  0  0  0
    7.0575    0.2587    0.1023 C   0  0  0  0  0  0  0  0  0  0  0  0
  1 11  1  0
  2  3  1  0
  2  4  1  0
  3  5  1  0
  4  6  1  0
  5  7  1  0
  6  8  1  0
  7  9  1  0
  8 10  1  0
  9 11  1  0
 10 12  1  0
M  END
>  <PUBCHEM_COMPOUND_CID>  (1) 
20276

>  <PUBCHEM_CONFORMER_RMSD>  (1) 
0.8

>  <PUBCHEM_CONFORMER_DIVERSEORDER>  (1) 
1
220
231
176
12
314
199
270
60
440
3
444
207
5
187
62
15
404
37
198
71
109
218
162
445
397
331
32
367
224
116
410
19
380
97
72
332
434
101
237
438
84
442
102
90
75
106
212
39
208
80
320
278
371
144
35
122
78
309
268
143
115
13
26
408
24
291
286
7
327
10
359
318
229
298
273
426
81
171
289
9
8
290
63
82
232
28
27
390
432
153
108
113
117
392
313
264
366
125
66
96
361
319
363
339
164
427
222
277
257
306
148
92
95
384
368
123
210
364
121
70
294
429
326
358
33
287
403
188
17
69
83
91
340
350
376
160
242
282
213
254
149
253
202
435
288
86
205
150
98
61
214
141
357
400
307
11
30
323
110
158
146
443
230
132
38
139
424
395
186
48
266
129
346
165
217
49
225
156
234
245
333
259
233
168
193
385
373
53
29
174
216
45
206
271
267
47
417
182
284
372
352
140
42
439
200
204
178
336
285
419
401
343
137
145
18
317
192
209
51
41
414
89
399
422
297
105
374
54
126
167
436
381
221
46
251
76
433
2
338
67
305
4
272
349
111
354
304
159
344
136
161
418
36
20
21
190
276
56
369
279
59
183
155
201
353
94
402
428
22
157
154
134
334
34
55
112
321
175
342
283
379
68
348
74
73
337
196
133
252
312
355
128
185
316
211
300
215
269
6
180
219
255
386
44
50
241
398
382
169
43
172
179
394
293
40
93
52
330
151
236
437
226
430
23
114
303
170
197
405
227
87
64
301
88
425
441
407
345
431
275
65
184
243
130
311
246
127
274
57
191
142
79
107
173
365
263
308
135
223
77
413
152
416
302
388
247
393
189
147
347
16
377
195
261
166
411
391
325
324
124
118
14
383
262
31
240
370
420
360
203
335
280
120
406
249
25
258
299
281
415
256
228
328
362
100
58
265
356
387
119
260
250
423
85
235
315
103
238
99
351
341
131
181
322
104
295
378
310
412
163
296
292
244
389
177
375
194
396
239
329
138
248
409
421

>  <PUBCHEM_MMFF94_PARTIAL_CHARGES>  (1) 
2
1 -0.19
11 0.19

>  <PUBCHEM_EFFECTIVE_ROTOR_COUNT>  (1) 
9

>  <PUBCHEM_PHARMACOPHORE_FEATURES>  (1) 
2
1 1 hydrophobe
1 12 hydrophobe

>  <PUBCHEM_HEAVY_ATOM_COUNT>  (1) 
12

>  <PUBCHEM_ATOM_DEF_STEREO_COUNT>  (1) 
0

>  <PUBCHEM_ATOM_UDEF_STEREO_COUNT>  (1) 
0

>  <PUBCHEM_BOND_DEF_STEREO_COUNT>  (1) 
0

>  <PUBCHEM_BOND_UDEF_STEREO_COUNT>  (1) 
0

>  <PUBCHEM_ISOTOPIC_ATOM_COUNT>  (1) 
0

>  <PUBCHEM_COMPONENT_COUNT>  (1) 
1

>  <PUBCHEM_CACTVS_TAUTO_COUNT>  (1) 
1

>  <PUBCHEM_CONFORMER_ID>  (1) 
00004F3400000001

>  <PUBCHEM_MMFF94_ENERGY>  (1) 
-1.6147

>  <PUBCHEM_FEATURE_SELFOVERLAP>  (1) 
10.149

>  <PUBCHEM_SHAPE_FINGERPRINT>  (1) 
12091667 2 18412544311048683389
13533116 47 18261104124642429570
1420 363 18410577279391386663
14251764 18 18412545409837741619
14251764 46 17385443224041613699
17834076 25 18410575084700015175
18006028 8 14490190518595670751
20767249 213 17989487428777488152
21130983 4 13686296893734591706
22224240 67 17240481429181852794
23402539 116 17988918981445328341
23521765 1 18341895194651202151
33684 2 18187363224897779915
42788 4 18410855460423671349
57583515 80 8574712408307988661
8209 1 18410573989451699700

>  <PUBCHEM_SHAPE_MULTIPOLES>  (1) 
258.89
22.2
0.85
0.65
1.54
0.02
0.01
1.94
1.02
0.36
0
0.2
0.01
0.04

>  <PUBCHEM_SHAPE_SELFOVERLAP>  (1) 
436.939

>  <PUBCHEM_SHAPE_VOLUME>  (1) 
176.7

>  <PUBCHEM_COORDINATE_TYPE>  (1) 
2
5
10

$$$$
