20277
     RDKit          3D

 16 16  0  0  1  0  0  0  0  0999 V2000
   -0.0339   -1.6010   -1.4062 O   0  0  0  0  0  0  0  0  0  0  0  0
    0.6424    1.7362    1.7327 O   0  0  0  0  0  0  0  0  0  0  0  0
   -3.3502    1.5225   -0.4942 O   0  0  0  0  0  0  0  0  0  0  0  0
   -1.8049   -0.1857   -0.8771 N   0  0  0  0  0  0  0  0  0  0  0  0
   -1.3741    1.5653    0.6523 N   0  0  0  0  0  0  0  0  0  0  0  0
    0.1074   -0.3734    0.6674 C   0  0  0  0  0  0  0  0  0  0  0  0
    1.6213   -0.6268    0.5919 C   0  0  0  0  0  0  0  0  0  0  0  0
   -0.4953   -1.2592    1.7729 C   0  0  0  0  0  0  0  0  0  0  0  0
    2.2788    0.3059   -0.4161 C   0  0  0  0  0  0  0  0  0  0  0  0
   -0.5519   -0.7776   -0.6498 C   0  0  0  0  0  0  0  0  0  0  0  0
   -0.1438    1.0741    1.0567 C   0  0  0  0  0  0  0  0  0  0  0  0
    3.7883    0.0709   -0.4666 C   0  0  0  0  0  0  0  0  0  0  0  0
   -0.2603   -2.7238    1.4804 C   0  0  0  0  0  0  0  0  0  0  0  0
   -2.2653    0.9879   -0.2494 C   0  0  0  0  0  0  0  0  0  0  0  0
   -2.6259   -0.7325   -1.9509 C   0  0  0  0  0  0  0  0  0  0  0  0
    4.4671    1.0173   -1.4439 C   0  0  0  0  0  0  0  0  0  0  0  0
  1 10  2  0
  2 11  2  0
  3 14  2  0
  4 10  1  0
  4 14  1  0
  4 15  1  0
  5 11  1  0
  5 14  1  0
  6  7  1  0
  6  8  1  0
  6 10  1  0
  6 11  1  0
  7  9  1  0
  8 13  1  0
  9 12  1  0
 12 16  1  0
M  END
>  <PUBCHEM_COMPOUND_CID>  (1) 
20277

>  <PUBCHEM_CONFORMER_RMSD>  (1) 
0.6

>  <PUBCHEM_CONFORMER_DIVERSEORDER>  (1) 
1
5
19
16
10
18
9
12
6
17
15
20
11
13
4
14
8
2
3
7
21

>  <PUBCHEM_MMFF94_PARTIAL_CHARGES>  (1) 
11
1 -0.57
10 0.57
11 0.57
14 0.69
15 0.3
2 -0.57
28 0.37
3 -0.57
4 -0.42
5 -0.49
6 0.12

>  <PUBCHEM_EFFECTIVE_ROTOR_COUNT>  (1) 
4.6

>  <PUBCHEM_PHARMACOPHORE_FEATURES>  (1) 
7
1 1 acceptor
1 13 hydrophobe
1 16 hydrophobe
1 2 acceptor
1 3 acceptor
1 5 donor
6 4 5 6 10 11 14 rings

>  <PUBCHEM_HEAVY_ATOM_COUNT>  (1) 
16

>  <PUBCHEM_ATOM_DEF_STEREO_COUNT>  (1) 
0

>  <PUBCHEM_ATOM_UDEF_STEREO_COUNT>  (1) 
1

>  <PUBCHEM_BOND_DEF_STEREO_COUNT>  (1) 
0

>  <PUBCHEM_BOND_UDEF_STEREO_COUNT>  (1) 
0

>  <PUBCHEM_ISOTOPIC_ATOM_COUNT>  (1) 
0

>  <PUBCHEM_COMPONENT_COUNT>  (1) 
1

>  <PUBCHEM_CACTVS_TAUTO_COUNT>  (1) 
3

>  <PUBCHEM_CONFORMER_ID>  (1) 
00004F3500000001

>  <PUBCHEM_MMFF94_ENERGY>  (1) 
34.2578

>  <PUBCHEM_FEATURE_SELFOVERLAP>  (1) 
35.522

>  <PUBCHEM_SHAPE_FINGERPRINT>  (1) 
12119455 92 16588015788778122926
12173636 292 18113346318487907492
12423570 1 13488446691393144594
13024252 1 12468916584532076618
14817 1 10638606547456733939
15775835 57 18335419024077567972
16945 1 18129644392125857331
18186145 218 17968089777402853510
18534176 82 18262810686609893042
19765921 60 18336828572066671993
19786989 88 17313936408014606419
20645476 183 18334858320513121246
20820808 20 18114740413090027465
20871999 31 17846494867680041004
21296965 67 12751229285949925770
22802520 49 17485348299252497263
23382010 3 18262226824307700796
23419403 2 17833845141247913547
23559900 14 18408326610409809624
27216 239 15937266654025442844
2748010 2 17700942639877461429
298252 57 18130221562679020527
430814 3 18114452371234824035
528886 8 17632002057960974975

>  <PUBCHEM_SHAPE_MULTIPOLES>  (1) 
301.7
5.15
2.09
1.81
5.76
1.68
0.1
-3.65
2.39
-0.63
-0.49
-0.7
-0.23
-0.34

>  <PUBCHEM_SHAPE_SELFOVERLAP>  (1) 
610.489

>  <PUBCHEM_SHAPE_VOLUME>  (1) 
174.9

>  <PUBCHEM_COORDINATE_TYPE>  (1) 
2
5
10

$$$$
