20272
     RDKit          3D

 14 14  0  0  1  0  0  0  0  0999 V2000
    3.3522    0.1198    1.0640 O   0  0  0  0  0  0  0  0  0  0  0  0
    1.1495   -1.3268    0.1620 N   0  0  0  0  0  0  0  0  0  0  0  0
    1.8486   -0.4280   -0.6267 N   0  0  0  0  0  0  0  0  0  0  0  0
   -0.2396   -1.4029   -0.2694 C   0  0  0  0  0  0  0  0  0  0  0  0
   -0.9514   -2.5616    0.4584 C   0  0  0  0  0  0  0  0  0  0  0  0
   -0.9245   -0.0595   -0.0950 C   0  0  0  0  0  0  0  0  0  0  0  0
   -2.3830   -2.7746   -0.0201 C   0  0  0  0  0  0  0  0  0  0  0  0
   -1.8920    0.3236   -1.0042 C   0  0  0  0  0  0  0  0  0  0  0  0
   -0.5622    0.7452    0.9681 C   0  0  0  0  0  0  0  0  0  0  0  0
   -2.5211    1.5581   -0.8440 C   0  0  0  0  0  0  0  0  0  0  0  0
   -1.1913    1.9798    1.1284 C   0  0  0  0  0  0  0  0  0  0  0  0
   -2.1709    2.3862    0.2224 C   0  0  0  0  0  0  0  0  0  0  0  0
    2.9296    0.2408   -0.0836 C   0  0  0  0  0  0  0  0  0  0  0  0
    3.5561    1.1999   -1.0602 C   0  0  0  0  0  0  0  0  0  0  0  0
  1 13  2  0
  2  3  1  0
  2  4  1  0
  3 13  1  0
  4  5  1  0
  4  6  1  0
  5  7  1  0
  6  8  2  0
  6  9  1  0
  8 10  1  0
  9 11  2  0
 10 12  2  0
 11 12  1  0
 13 14  1  0
M  END
>  <PUBCHEM_COMPOUND_CID>  (1) 
20272

>  <PUBCHEM_CONFORMER_RMSD>  (1) 
0.6

>  <PUBCHEM_CONFORMER_DIVERSEORDER>  (1) 
1
37
26
35
33
34
38
32
42
7
28
41
27
30
39
31
6
13
24
2
29
4
36
10
12
40
15
19
21
16
18
20
23
3
5
22
8
25
17
9
14
11

>  <PUBCHEM_MMFF94_PARTIAL_CHARGES>  (1) 
19
1 -0.57
10 -0.15
11 -0.15
12 -0.15
13 0.57
14 0.06
18 0.36
2 -0.64
22 0.15
23 0.15
24 0.37
25 0.15
26 0.15
27 0.15
3 -0.42
4 0.41
6 -0.14
8 -0.15
9 -0.15

>  <PUBCHEM_EFFECTIVE_ROTOR_COUNT>  (1) 
5

>  <PUBCHEM_PHARMACOPHORE_FEATURES>  (1) 
5
1 1 acceptor
1 2 donor
1 3 donor
1 7 hydrophobe
6 6 8 9 10 11 12 rings

>  <PUBCHEM_HEAVY_ATOM_COUNT>  (1) 
14

>  <PUBCHEM_ATOM_DEF_STEREO_COUNT>  (1) 
0

>  <PUBCHEM_ATOM_UDEF_STEREO_COUNT>  (1) 
1

>  <PUBCHEM_BOND_DEF_STEREO_COUNT>  (1) 
0

>  <PUBCHEM_BOND_UDEF_STEREO_COUNT>  (1) 
0

>  <PUBCHEM_ISOTOPIC_ATOM_COUNT>  (1) 
0

>  <PUBCHEM_COMPONENT_COUNT>  (1) 
1

>  <PUBCHEM_CACTVS_TAUTO_COUNT>  (1) 
2

>  <PUBCHEM_CONFORMER_ID>  (1) 
00004F3000000001

>  <PUBCHEM_MMFF94_ENERGY>  (1) 
27.8061

>  <PUBCHEM_FEATURE_SELFOVERLAP>  (1) 
26.862

>  <PUBCHEM_SHAPE_FINGERPRINT>  (1) 
100427 49 17691967484883066607
12138202 78 17547839115964029479
13764800 53 18412273838844547688
15490181 8 18196935457170797263
15775835 57 18336549296435301484
16945 1 18410572911610139239
18186145 218 18123750859376915589
19765921 60 18055905503296841249
20097449 115 17905051704754543515
20510252 161 18266463281375120610
20645476 183 18262795168629211136
20671657 1 18190185585874618182
20820808 20 18123179100809703233
21339142 36 18198056087189548303
21524375 3 18198058071384992798
22802520 49 17774458100455294350
23419403 2 17689688167572352767
23552423 10 17549814487508785653
23557571 272 18198357332238059902
23559900 14 18201717307414572882
2748010 2 18121235194152919031
305870 269 17975972064297629360
3071541 236 18336253587604402762
576247 118 17979353389049923291
68521 5 18265338489538347847
7364860 26 17477761278284417743
74978 22 18336552621045664358
81228 2 18265351649144134491

>  <PUBCHEM_SHAPE_MULTIPOLES>  (1) 
272.28
4.87
3.01
1.09
5.63
1.17
-0.04
-1.4
0.85
-2.98
-0.37
0.09
-0.4
-0.22

>  <PUBCHEM_SHAPE_SELFOVERLAP>  (1) 
548.445

>  <PUBCHEM_SHAPE_VOLUME>  (1) 
159.7

>  <PUBCHEM_COORDINATE_TYPE>  (1) 
2
5
10

$$$$
