20270
     RDKit          3D

 13 12  0  0  0  0  0  0  0  0999 V2000
    0.0039    0.3965    0.0010 S   0  0  0  0  0  0  0  0  0  0  0  0
   -3.0505    0.0496    0.3065 O   0  0  0  0  0  0  0  0  0  0  0  0
    3.0472    0.0536   -0.3005 O   0  0  0  0  0  0  0  0  0  0  0  0
   -4.8775   -0.6122   -0.9429 O   0  0  0  0  0  0  0  0  0  0  0  0
    4.8785   -0.6118    0.9407 O   0  0  0  0  0  0  0  0  0  0  0  0
   -1.3159    1.5860   -0.3892 C   0  0  0  0  0  0  0  0  0  0  0  0
    1.3126    1.5801    0.3902 C   0  0  0  0  0  0  0  0  0  0  0  0
   -2.6059    0.8780   -0.7725 C   0  0  0  0  0  0  0  0  0  0  0  0
    2.6039    0.8741    0.7724 C   0  0  0  0  0  0  0  0  0  0  0  0
   -4.2047   -0.6395    0.0788 C   0  0  0  0  0  0  0  0  0  0  0  0
    4.2058   -0.6391   -0.0811 C   0  0  0  0  0  0  0  0  0  0  0  0
   -4.5457   -1.4590    1.2864 C   0  0  0  0  0  0  0  0  0  0  0  0
    4.5482   -1.4562   -1.2898 C   0  0  0  0  0  0  0  0  0  0  0  0
  1  6  1  0
  1  7  1  0
  2  8  1  0
  2 10  1  0
  3  9  1  0
  3 11  1  0
  4 10  2  0
  5 11  2  0
  6  8  1  0
  7  9  1  0
 10 12  1  0
 11 13  1  0
M  END
>  <PUBCHEM_COMPOUND_CID>  (1) 
20270

>  <PUBCHEM_CONFORMER_RMSD>  (1) 
0.8

>  <PUBCHEM_CONFORMER_DIVERSEORDER>  (1) 
1
75
56
6
18
65
89
182
159
144
137
117
252
79
161
179
28
42
178
38
260
106
8
96
149
70
16
206
148
183
2
80
113
184
112
235
71
43
5
73
212
129
48
146
189
152
84
63
4
219
25
49
197
185
243
41
61
174
233
21
9
153
131
30
55
192
33
85
251
257
90
160
133
130
31
59
32
171
166
217
223
58
13
127
191
88
94
104
110
50
186
7
201
213
250
83
196
239
164
111
256
157
81
226
24
107
244
62
15
246
100
128
101
238
99
114
35
216
162
221
198
102
229
261
69
12
53
214
40
26
167
143
158
168
209
109
176
77
172
126
163
175
225
240
27
45
170
93
155
202
44
76
123
258
124
218
151
60
87
228
150
72
68
116
134
39
78
132
17
230
242
36
97
120
118
231
208
125
138
181
22
194
98
29
195
154
203
232
14
207
193
180
46
165
205
23
11
169
115
103
199
139
187
37
253
136
245
95
86
57
47
141
220
105
10
147
241
254
51
173
66
255
237
234
91
211
135
92
190
54
140
3
210
34
259
188
156
121
249
224
20
227
247
215
19
74
200
177
236
142
119
67
108
82
64
52
222
204
122
248
145

>  <PUBCHEM_MMFF94_PARTIAL_CHARGES>  (1) 
13
1 -0.46
10 0.66
11 0.66
12 0.06
13 0.06
2 -0.43
3 -0.43
4 -0.57
5 -0.57
6 0.23
7 0.23
8 0.28
9 0.28

>  <PUBCHEM_EFFECTIVE_ROTOR_COUNT>  (1) 
8

>  <PUBCHEM_PHARMACOPHORE_FEATURES>  (1) 
2
1 4 acceptor
1 5 acceptor

>  <PUBCHEM_HEAVY_ATOM_COUNT>  (1) 
13

>  <PUBCHEM_ATOM_DEF_STEREO_COUNT>  (1) 
0

>  <PUBCHEM_ATOM_UDEF_STEREO_COUNT>  (1) 
0

>  <PUBCHEM_BOND_DEF_STEREO_COUNT>  (1) 
0

>  <PUBCHEM_BOND_UDEF_STEREO_COUNT>  (1) 
0

>  <PUBCHEM_ISOTOPIC_ATOM_COUNT>  (1) 
0

>  <PUBCHEM_COMPONENT_COUNT>  (1) 
1

>  <PUBCHEM_CACTVS_TAUTO_COUNT>  (1) 
1

>  <PUBCHEM_CONFORMER_ID>  (1) 
00004F2E00000001

>  <PUBCHEM_MMFF94_ENERGY>  (1) 
13.6927

>  <PUBCHEM_FEATURE_SELFOVERLAP>  (1) 
10.149

>  <PUBCHEM_SHAPE_FINGERPRINT>  (1) 
10014705 185 9655574098109900705
11128504 68 15719116872157162966
11543360 7 16153430553661359916
12032990 46 18410855460128558048
12596602 18 15697996353268084779
13675066 3 16845573084744549720
1420 369 18202848742473937398
14251710 61 18410578387493078948
14251718 22 17967257520262601828
14251732 14 17604450577001773102
14251757 5 15359412824330765179
14251758 9 15553622689754553012
14252887 29 17846497011548956282
14455015 7 18411987965911113507
14993402 34 15719392836632946817
17041 49 15123504839142943792
17834072 33 16226052210086181662
17834074 16 18410575084663403718
17870717 6 17894348874318389583
18915474 69 17386010597558135828
193927 3 18410580586516321504
1986462 14 18114177497533404133
20374829 77 18186796985289514785
20432913 95 17917992775923737855
20605781 2 8430312441782032204
20621476 21 18341629095943021134
20621476 51 17699844322272323583
20645477 70 18342448266348829884
20724930 31 18412824685960118744
20871999 31 17530965756688650500
212847 35 9295287249296952964
22765269 38 11025805352789273662
22926399 37 12901547935925737853
231179 274 8430312437861747724
23402655 69 12757145779399041784
23403322 49 18186518817601145955
23500284 214 10375871900633688173
23590187 135 18335696139962835048
328317 168 8502655887605891185
42 15 17203892959069027889
5352402 22 17846225440186744254

>  <PUBCHEM_SHAPE_MULTIPOLES>  (1) 
247.91
12.31
1.62
1.11
0.01
0.13
0
-7.53
-0.01
-0.01
0
0
-0.3
1.44

>  <PUBCHEM_SHAPE_SELFOVERLAP>  (1) 
449.536

>  <PUBCHEM_SHAPE_VOLUME>  (1) 
158.9

>  <PUBCHEM_COORDINATE_TYPE>  (1) 
2
5
10

$$$$
