20275
     RDKit          3D

 10  9  0  0  0  0  0  0  0  0999 V2000
   -6.1816   -0.5595   -0.0435 I   0  0  0  0  0  0  0  0  0  0  0  0
    0.7199    0.4296   -0.0143 C   0  0  0  0  0  0  0  0  0  0  0  0
   -0.6058   -0.3372    0.0018 C   0  0  0  0  0  0  0  0  0  0  0  0
    1.9499   -0.4803    0.0186 C   0  0  0  0  0  0  0  0  0  0  0  0
   -1.8366    0.5735   -0.0057 C   0  0  0  0  0  0  0  0  0  0  0  0
    3.2436    0.3376    0.0129 C   0  0  0  0  0  0  0  0  0  0  0  0
   -3.1306   -0.2485    0.0365 C   0  0  0  0  0  0  0  0  0  0  0  0
    4.4745   -0.5687    0.0073 C   0  0  0  0  0  0  0  0  0  0  0  0
   -4.3945    0.6131    0.0182 C   0  0  0  0  0  0  0  0  0  0  0  0
    5.7613    0.2402   -0.0320 C   0  0  0  0  0  0  0  0  0  0  0  0
  1  9  1  0
  2  3  1  0
  2  4  1  0
  3  5  1  0
  4  6  1  0
  5  7  1  0
  6  8  1  0
  7  9  1  0
  8 10  1  0
M  END
>  <PUBCHEM_COMPOUND_CID>  (1) 
20275

>  <PUBCHEM_CONFORMER_RMSD>  (1) 
0.6

>  <PUBCHEM_CONFORMER_DIVERSEORDER>  (1) 
1
306
78
175
376
349
177
396
49
163
43
314
55
268
408
409
37
407
24
81
45
92
232
253
242
25
365
289
259
2
234
394
231
69
34
381
371
14
60
125
100
400
235
302
90
97
59
239
46
118
133
5
48
339
30
203
117
193
410
264
364
29
283
19
220
318
205
26
292
56
357
17
215
335
84
116
28
348
70
284
384
393
75
224
73
369
50
96
144
221
366
187
88
275
101
106
230
114
288
77
4
154
386
359
129
137
214
404
373
57
217
211
27
281
15
300
6
383
32
240
23
103
338
252
58
195
122
403
257
11
169
401
128
299
109
9
3
390
185
377
80
170
398
210
141
91
391
98
179
110
341
156
53
155
382
380
40
190
322
7
13
329
44
136
250
161
188
352
236
254
8
139
119
41
206
89
226
176
273
142
378
310
261
35
405
158
146
368
18
71
336
345
54
127
379
12
258
353
213
52
313
173
150
363
31
134
227
342
297
124
219
337
83
76
68
402
16
39
200
20
389
62
132
112
387
321
143
164
406
330
287
102
265
255
166
269
198
326
67
120
138
286
304
207
174
317
267
222
93
367
411
245
38
171
130
123
47
131
332
33
327
152
237
280
272
111
360
374
184
72
189
94
331
311
241
63
160
251
66
42
168
86
324
293
244
320
233
186
201
153
282
312
216
298
303
270
36
344
294
113
340
358
334
10
21
397
182
355
223
305
315
399
388
248
197
218
126
165
180
140
316
121
105
145
167
246
135
372
51
65
295
95
61
238
263
178
202
196
354
85
290
22
285
148
162
308
99
115
325
323
191
172
347
208
151
183
309
108
356
194
181
375
351
385
87
159
249
104
204
199
157
82
64
274
291
392
74
362
361
271
149
229
260
256
228
262
343
79
319
147
328
395
225
192
346
370
296
209
278
107
247
350
243
276
333
266
307
301
279
277
212

>  <PUBCHEM_MMFF94_PARTIAL_CHARGES>  (1) 
2
1 -0.19
9 0.19

>  <PUBCHEM_EFFECTIVE_ROTOR_COUNT>  (1) 
7

>  <PUBCHEM_PHARMACOPHORE_FEATURES>  (1) 
2
1 1 hydrophobe
1 10 hydrophobe

>  <PUBCHEM_HEAVY_ATOM_COUNT>  (1) 
10

>  <PUBCHEM_ATOM_DEF_STEREO_COUNT>  (1) 
0

>  <PUBCHEM_ATOM_UDEF_STEREO_COUNT>  (1) 
0

>  <PUBCHEM_BOND_DEF_STEREO_COUNT>  (1) 
0

>  <PUBCHEM_BOND_UDEF_STEREO_COUNT>  (1) 
0

>  <PUBCHEM_ISOTOPIC_ATOM_COUNT>  (1) 
0

>  <PUBCHEM_COMPONENT_COUNT>  (1) 
1

>  <PUBCHEM_CACTVS_TAUTO_COUNT>  (1) 
1

>  <PUBCHEM_CONFORMER_ID>  (1) 
00004F3300000001

>  <PUBCHEM_MMFF94_ENERGY>  (1) 
-2.3447

>  <PUBCHEM_FEATURE_SELFOVERLAP>  (1) 
10.149

>  <PUBCHEM_SHAPE_FINGERPRINT>  (1) 
12091667 2 17967814947220370105
12815109 37 12829489250865811631
14123238 8 18410293605396675727
1420 363 18413674621301642895
14251718 22 18334294275469594315
17834072 33 18341331179730631357
17834076 25 18410292514469720774
20645477 70 18341050697102966870
20719005 15 18410855455859574761
20767249 13 18113617885080392213
20767249 213 17530968003130314132
23218964 4 9079118856012076079
23402539 116 18187079551562419749
23521765 1 18341895194640652647
366044 4 18260830401480327043
42788 4 18411138030400751648
8209 1 18260829302247799671

>  <PUBCHEM_SHAPE_MULTIPOLES>  (1) 
217.73
15.78
0.86
0.65
1.52
0.03
0
1.69
-0.2
0.34
0
0.19
0.02
-0.02

>  <PUBCHEM_SHAPE_SELFOVERLAP>  (1) 
362.139

>  <PUBCHEM_SHAPE_VOLUME>  (1) 
150.9

>  <PUBCHEM_COORDINATE_TYPE>  (1) 
2
5
10

$$$$
