20282
     RDKit          3D

 13 12  0  0  0  0  0  0  0  0999 V2000
    8.0876   -0.6691    0.0199 I   0  0  0  0  0  0  0  0  0  0  0  0
   -0.0489   -0.3591   -0.0264 C   0  0  0  0  0  0  0  0  0  0  0  0
   -1.3184    0.4972   -0.0203 C   0  0  0  0  0  0  0  0  0  0  0  0
    1.2076    0.5139   -0.0285 C   0  0  0  0  0  0  0  0  0  0  0  0
   -2.5749   -0.3757   -0.0505 C   0  0  0  0  0  0  0  0  0  0  0  0
    2.5105   -0.2914   -0.0428 C   0  0  0  0  0  0  0  0  0  0  0  0
   -3.8770    0.4301   -0.0238 C   0  0  0  0  0  0  0  0  0  0  0  0
    3.8038    0.5278    0.0109 C   0  0  0  0  0  0  0  0  0  0  0  0
   -5.1325   -0.4437    0.0206 C   0  0  0  0  0  0  0  0  0  0  0  0
    5.0706   -0.3312    0.0179 C   0  0  0  0  0  0  0  0  0  0  0  0
   -6.4009    0.4107    0.0341 C   0  0  0  0  0  0  0  0  0  0  0  0
    6.3255    0.5420    0.0431 C   0  0  0  0  0  0  0  0  0  0  0  0
   -7.6532   -0.4515    0.0458 C   0  0  0  0  0  0  0  0  0  0  0  0
  1 12  1  0
  2  3  1  0
  2  4  1  0
  3  5  1  0
  4  6  1  0
  5  7  1  0
  6  8  1  0
  7  9  1  0
  8 10  1  0
  9 11  1  0
 10 12  1  0
 11 13  1  0
M  END
>  <PUBCHEM_COMPOUND_CID>  (1) 
20282

>  <PUBCHEM_CONFORMER_RMSD>  (1) 
1

>  <PUBCHEM_CONFORMER_DIVERSEORDER>  (1) 
1
15
242
983
894
901
2
902
91
177
580
551
461
749
659
59
351
326
763
913
264
450
475
292
948
55
105
16
753
661
761
952
810
170
23
811
528
569
178
515
544
21
465
18
837
196
97
967
8
98
986
471
644
205
239
25
464
681
620
22
144
552
288
414
35
499
816
129
483
223
975
5
570
226
101
856
272
876
684
611
674
13
519
189
364
399
616
723
12
488
108
381
522
708
933
76
537
121
729
982
808
94
193
360
63
209
297
139
180
907
387
335
736
849
344
562
238
572
4
970
669
857
990
368
42
201
501
456
395
631
305
989
77
455
56
375
346
271
141
635
490
439
597
945
372
575
248
715
614
331
854
623
337
978
245
680
86
881
166
217
657
637
155
791
333
96
818
316
370
658
873
482
784
440
391
187
936
930
932
747
497
284

>  <PUBCHEM_MMFF94_PARTIAL_CHARGES>  (1) 
2
1 -0.19
12 0.19

>  <PUBCHEM_EFFECTIVE_ROTOR_COUNT>  (1) 
10

>  <PUBCHEM_PHARMACOPHORE_FEATURES>  (1) 
2
1 1 hydrophobe
1 13 hydrophobe

>  <PUBCHEM_HEAVY_ATOM_COUNT>  (1) 
13

>  <PUBCHEM_ATOM_DEF_STEREO_COUNT>  (1) 
0

>  <PUBCHEM_ATOM_UDEF_STEREO_COUNT>  (1) 
0

>  <PUBCHEM_BOND_DEF_STEREO_COUNT>  (1) 
0

>  <PUBCHEM_BOND_UDEF_STEREO_COUNT>  (1) 
0

>  <PUBCHEM_ISOTOPIC_ATOM_COUNT>  (1) 
0

>  <PUBCHEM_COMPONENT_COUNT>  (1) 
1

>  <PUBCHEM_CACTVS_TAUTO_COUNT>  (1) 
1

>  <PUBCHEM_CONFORMER_ID>  (1) 
00004F3A00000001

>  <PUBCHEM_MMFF94_ENERGY>  (1) 
-2.4002

>  <PUBCHEM_FEATURE_SELFOVERLAP>  (1) 
10.149

>  <PUBCHEM_SHAPE_FINGERPRINT>  (1) 
11638347 137 15338841937682152526
12091667 2 17676487246865960893
13533116 47 16950551156951783704
14123256 10 18410856555344848274
14251764 18 18411138017774312786
14251764 46 18410856559639809058
14729087 3 12823302273636244987
17834076 25 18410573989446437925
18006028 8 18202845452434387464
20281389 69 18412823590859782256
20621476 8 18187081741251961574
21315763 28 18411699889464420632
22224240 67 14836400333339536804
23035841 295 18272932726114651454
23402539 116 17846211176642519749
23521765 1 18341894095134299620
246663 6 18259706696264530882
28498 318 18410292480780070998
33532 11 18333729088155340314
33684 2 18413388731166954831
42788 4 18410575093912506925
8209 1 18410292514474989044

>  <PUBCHEM_SHAPE_MULTIPOLES>  (1) 
279.47
25.6
0.86
0.64
1.94
0.03
0
3.99
-0.55
0.38
0
0.2
0.01
0.01

>  <PUBCHEM_SHAPE_SELFOVERLAP>  (1) 
475.303

>  <PUBCHEM_SHAPE_VOLUME>  (1) 
189.5

>  <PUBCHEM_COORDINATE_TYPE>  (1) 
2
5
10

$$$$
