20285
     RDKit          3D

 18 19  0  0  1  0  0  0  0  0999 V2000
    2.6827   -2.4433   -0.3922 F   0  0  0  0  0  0  0  0  0  0  0  0
   -1.5008   -0.3323    0.9903 O   0  0  0  0  0  0  0  0  0  0  0  0
   -1.0971    0.1691   -1.9399 O   0  0  0  0  0  0  0  0  0  0  0  0
   -3.5171    1.8939    0.1004 O   0  0  0  0  0  0  0  0  0  0  0  0
   -2.9049   -2.7339    0.8428 O   0  0  0  0  0  0  0  0  0  0  0  0
    1.2676    2.6195    0.6151 O   0  0  0  0  0  0  0  0  0  0  0  0
    0.5861    0.4423    0.2567 N   0  0  0  0  0  0  0  0  0  0  0  0
    2.9190    1.1058    0.2410 N   0  0  0  0  0  0  0  0  0  0  0  0
    4.6039   -0.4564   -0.1437 N   0  0  0  0  0  0  0  0  0  0  0  0
   -1.5085    1.0673   -0.9160 C   0  0  0  0  0  0  0  0  0  0  0  0
   -2.9495    0.7657   -0.5613 C   0  0  0  0  0  0  0  0  0  0  0  0
   -0.8013    0.7694    0.3970 C   0  0  0  0  0  0  0  0  0  0  0  0
   -2.8367   -0.3784    0.4479 C   0  0  0  0  0  0  0  0  0  0  0  0
   -3.0407   -1.7537   -0.1716 C   0  0  0  0  0  0  0  0  0  0  0  0
    0.9797   -0.8638   -0.0045 C   0  0  0  0  0  0  0  0  0  0  0  0
    1.5827    1.4508    0.3828 C   0  0  0  0  0  0  0  0  0  0  0  0
    2.2588   -1.1936   -0.1395 C   0  0  0  0  0  0  0  0  0  0  0  0
    3.2761   -0.1285   -0.0053 C   0  0  0  0  0  0  0  0  0  0  0  0
  1 17  1  0
  2 12  1  0
  2 13  1  0
  3 10  1  0
  4 11  1  0
  5 14  1  0
  6 16  2  0
  7 12  1  0
  7 15  1  0
  7 16  1  0
  8 16  1  0
  8 18  2  0
  9 18  1  0
 10 11  1  0
 10 12  1  0
 11 13  1  0
 13 14  1  0
 15 17  2  0
 17 18  1  0
M  END
>  <PUBCHEM_COMPOUND_CID>  (1) 
20285

>  <PUBCHEM_CONFORMER_RMSD>  (1) 
0.6

>  <PUBCHEM_CONFORMER_DIVERSEORDER>  (1) 
1
9
7
8
3
6
5
4
2

>  <PUBCHEM_MMFF94_PARTIAL_CHARGES>  (1) 
24
1 -0.15
10 0.28
11 0.28
12 0.58
13 0.28
14 0.28
15 -0.04
16 0.84
17 0.16
18 0.49
2 -0.56
25 0.4
26 0.4
27 0.15
28 0.4
29 0.4
3 -0.68
30 0.4
4 -0.68
5 -0.68
6 -0.57
7 -0.47
8 -0.66
9 -0.85

>  <PUBCHEM_EFFECTIVE_ROTOR_COUNT>  (1) 
3

>  <PUBCHEM_PHARMACOPHORE_FEATURES>  (1) 
12
1 2 acceptor
1 3 acceptor
1 3 donor
1 4 acceptor
1 4 donor
1 5 acceptor
1 5 donor
1 6 acceptor
1 8 donor
1 9 donor
5 2 10 11 12 13 rings
6 7 8 15 16 17 18 rings

>  <PUBCHEM_HEAVY_ATOM_COUNT>  (1) 
18

>  <PUBCHEM_ATOM_DEF_STEREO_COUNT>  (1) 
4

>  <PUBCHEM_ATOM_UDEF_STEREO_COUNT>  (1) 
0

>  <PUBCHEM_BOND_DEF_STEREO_COUNT>  (1) 
0

>  <PUBCHEM_BOND_UDEF_STEREO_COUNT>  (1) 
0

>  <PUBCHEM_ISOTOPIC_ATOM_COUNT>  (1) 
0

>  <PUBCHEM_COMPONENT_COUNT>  (1) 
1

>  <PUBCHEM_CACTVS_TAUTO_COUNT>  (1) 
3

>  <PUBCHEM_CONFORMER_ID>  (1) 
00004F3D00000001

>  <PUBCHEM_MMFF94_ENERGY>  (1) 
52.1553

>  <PUBCHEM_FEATURE_SELFOVERLAP>  (1) 
60.95

>  <PUBCHEM_SHAPE_FINGERPRINT>  (1) 
10608611 8 18410006658727030321
12500047 106 18334852780100280909
12932764 1 17530954753019218329
12969540 114 17605813864884615469
13214271 11 18343297059418846852
13296908 3 18343019982377838438
14115302 16 18189346683686840684
14965852 173 18409729573401789113
15219456 202 18410007766749289545
15375462 6 18267303329675536165
16945 1 18268708479554955545
17834074 16 18409730681329349587
19107657 46 18411982442609674518
200 152 17988635324604054151
20201158 50 18409166576156124906
20645477 70 17846211142462266076
21501502 16 18334297608021500041
221490 88 18338240487094718882
23402539 116 16515400759825436310
23559900 14 18338227292855121145
25 1 18192424182594871021
2748010 2 18266445693162445944
2871803 45 18262792007771197259
3286 77 18337105790915402004
3312278 4 18341615888796616928
5104073 3 18412260657890701328
69090 78 18336542734115182437
74978 22 18411697660545023889
77492 1 17203886353441027092
81228 2 17895194467437265729
8809292 202 18334579057159887418
9709674 26 18411982468416706911

>  <PUBCHEM_SHAPE_MULTIPOLES>  (1) 
318.87
6.64
2.36
0.96
2.41
0.55
0.29
1.55
0
-0.63
-0.36
-0.47
-0.04
0.8

>  <PUBCHEM_SHAPE_SELFOVERLAP>  (1) 
675.312

>  <PUBCHEM_SHAPE_VOLUME>  (1) 
178.7

>  <PUBCHEM_COORDINATE_TYPE>  (1) 
2
5
10

$$$$
