20309
     RDKit          3D

 21 22  0  0  0  0  0  0  0  0999 V2000
   -6.4248    1.0321    0.2492 O   0  0  0  0  0  0  0  0  0  0  0  0
   -4.7596    2.4469    0.0388 O   0  0  0  0  0  0  0  0  0  0  0  0
    5.3554    0.6739   -0.1487 N   0  0  0  0  0  0  0  0  0  0  0  0
   -0.1075   -0.3241    0.5763 N   0  0  0  0  0  0  0  0  0  0  0  0
   -0.6830   -0.3891   -0.5353 N   0  0  0  0  0  0  0  0  0  0  0  0
   -5.2043    1.2747    0.0884 N   0  0  0  0  0  0  0  0  0  0  0  0
    3.9802    0.4082    0.0327 C   0  0  0  0  0  0  0  0  0  0  0  0
    3.5077   -0.9031    0.0852 C   0  0  0  0  0  0  0  0  0  0  0  0
    3.0914    1.4755    0.1611 C   0  0  0  0  0  0  0  0  0  0  0  0
    2.1463   -1.1471    0.2662 C   0  0  0  0  0  0  0  0  0  0  0  0
    1.2575   -0.0798    0.3946 C   0  0  0  0  0  0  0  0  0  0  0  0
    1.7300    1.2315    0.3422 C   0  0  0  0  0  0  0  0  0  0  0  0
    4.4376   -2.0650   -0.0481 C   0  0  0  0  0  0  0  0  0  0  0  0
    5.8090    1.4352   -1.2944 C   0  0  0  0  0  0  0  0  0  0  0  0
    6.3260    0.2001    0.8164 C   0  0  0  0  0  0  0  0  0  0  0  0
   -2.0546   -0.6349   -0.3523 C   0  0  0  0  0  0  0  0  0  0  0  0
   -2.9371    0.4333   -0.2234 C   0  0  0  0  0  0  0  0  0  0  0  0
   -4.2981    0.1890   -0.0412 C   0  0  0  0  0  0  0  0  0  0  0  0
   -2.5204   -1.9452   -0.3006 C   0  0  0  0  0  0  0  0  0  0  0  0
   -4.7703   -1.1225    0.0113 C   0  0  0  0  0  0  0  0  0  0  0  0
   -3.8814   -2.1897   -0.1183 C   0  0  0  0  0  0  0  0  0  0  0  0
  1  6  1  0
  2  6  2  0
  3  7  1  0
  3 14  1  0
  3 15  1  0
  4  5  2  0
  4 11  1  0
  5 16  1  0
  6 18  1  0
  7  8  2  0
  7  9  1  0
  8 10  1  0
  8 13  1  0
  9 12  2  0
 10 11  2  0
 11 12  1  0
 16 17  2  0
 16 19  1  0
 17 18  1  0
 18 20  2  0
 19 21  2  0
 20 21  1  0
M  CHG  2   1  -1   6   1
M  END
>  <PUBCHEM_COMPOUND_CID>  (1) 
20309

>  <PUBCHEM_CONFORMER_RMSD>  (1) 
0.6

>  <PUBCHEM_CONFORMER_DIVERSEORDER>  (1) 
10
4
3
11
12
6
1
5
2
9
8
7

>  <PUBCHEM_MMFF94_PARTIAL_CHARGES>  (1) 
28
1 -0.52
10 -0.15
11 0.18
12 -0.15
13 0.14
14 0.37
15 0.37
16 0.18
17 -0.15
18 0.13
19 -0.15
2 -0.52
20 -0.15
21 -0.15
22 0.15
23 0.15
24 0.15
3 -0.84
34 0.15
35 0.15
36 0.15
37 0.15
4 -0.18
5 -0.18
6 0.91
7 0.1
8 -0.14
9 -0.15

>  <PUBCHEM_EFFECTIVE_ROTOR_COUNT>  (1) 
4

>  <PUBCHEM_PHARMACOPHORE_FEATURES>  (1) 
6
1 1 acceptor
1 1 anion
1 2 acceptor
1 3 cation
6 16 17 18 19 20 21 rings
6 7 8 9 10 11 12 rings

>  <PUBCHEM_HEAVY_ATOM_COUNT>  (1) 
21

>  <PUBCHEM_ATOM_DEF_STEREO_COUNT>  (1) 
0

>  <PUBCHEM_ATOM_UDEF_STEREO_COUNT>  (1) 
0

>  <PUBCHEM_BOND_DEF_STEREO_COUNT>  (1) 
0

>  <PUBCHEM_BOND_UDEF_STEREO_COUNT>  (1) 
0

>  <PUBCHEM_ISOTOPIC_ATOM_COUNT>  (1) 
0

>  <PUBCHEM_COMPONENT_COUNT>  (1) 
1

>  <PUBCHEM_CACTVS_TAUTO_COUNT>  (1) 
1

>  <PUBCHEM_CONFORMER_ID>  (1) 
00004F550000000A

>  <PUBCHEM_MMFF94_ENERGY>  (1) 
83.2431

>  <PUBCHEM_FEATURE_SELFOVERLAP>  (1) 
30.528

>  <PUBCHEM_SHAPE_FINGERPRINT>  (1) 
10595046 47 18336263552155428102
10912923 1 17895184537051027218
11089746 13 17917983996994975041
11315181 36 18114741641888400359
11405975 8 18409443683119726611
12107183 9 17977663100259519123
12236239 1 18407759252975650994
12616971 3 16660647379409735070
12788726 201 17632020745179285200
13073987 5 18409446985823113043
13167372 99 18334294254200810944
13167823 11 18410289237589567683
13668630 136 16200154334896465695
1420 363 12396298149322242416
14251764 18 18343022203435190643
14341114 176 18409735032268149613
15048467 5 18408323293682213820
15183329 4 18341897372252498668
15196674 1 18411417306275436271
15250474 111 18338782507446569262
1601671 61 18411980273988780708
17834072 33 18411136982750471886
17844677 252 18340492282381373681
1813 80 16877664547709209775
20281389 69 18408882927836726993
20621476 66 18342462487529112745
20645477 56 18411136931569540909
20645477 70 18412545380153376414
20681677 155 18408038520091706739
21065198 57 18412260674938856659
21150785 3 15985095340692052981
21267235 1 18338521957982313819
21421861 104 17896307031497411850
21709351 56 18339917220530344836
22224240 67 15863792803317185401
23081809 10 18114177579664991422
23402539 116 18410287042860746892
23402655 69 18410854373818102942
23522609 53 17896057527946380004
23536379 177 18408602561193330090
23559900 14 18202556306577287385
300161 21 18273209803071270274
3004659 81 18410576142053780470
34797466 226 17703238441710209268
3545911 37 18341895199252248097
4073 2 18113623425625738546
4214541 1 18411980278125284491
4340502 62 16443061704028171938
5104073 3 18408599270879318251
542803 24 17967813868503077382
543358 83 18409730630148516322
59755656 520 17167861980465277675
6327066 14 18190171284119397813
633830 44 17967249814506087090
7062679 6 18408608054261634613
77779 3 18410854390903130515
8272917 22 18411139113360628214

>  <PUBCHEM_SHAPE_MULTIPOLES>  (1) 
400.51
16.2
2.1
0.77
0.62
0.16
-0.09
-4.36
-0.33
1.32
-0.12
-0.72
-0.09
-0.72

>  <PUBCHEM_SHAPE_SELFOVERLAP>  (1) 
852.856

>  <PUBCHEM_SHAPE_VOLUME>  (1) 
225.3

>  <PUBCHEM_COORDINATE_TYPE>  (1) 
2
5
10

$$$$
