20308
     RDKit          3D

 21 22  0  0  0  0  0  0  0  0999 V2000
   -6.7083    1.0387    0.1343 O   0  0  0  0  0  0  0  0  0  0  0  0
   -6.6463   -1.1497    0.2947 O   0  0  0  0  0  0  0  0  0  0  0  0
    5.6138    0.2833   -0.1534 N   0  0  0  0  0  0  0  0  0  0  0  0
    0.0587    0.1588    0.5459 N   0  0  0  0  0  0  0  0  0  0  0  0
   -0.5113    0.0611   -0.5661 N   0  0  0  0  0  0  0  0  0  0  0  0
   -6.0740   -0.0440    0.1378 N   0  0  0  0  0  0  0  0  0  0  0  0
    4.2134    0.2376    0.0230 C   0  0  0  0  0  0  0  0  0  0  0  0
    3.5557   -0.9798    0.1985 C   0  0  0  0  0  0  0  0  0  0  0  0
    3.4874    1.4286    0.0215 C   0  0  0  0  0  0  0  0  0  0  0  0
    2.1719   -1.0062    0.3726 C   0  0  0  0  0  0  0  0  0  0  0  0
    1.4460    0.1849    0.3712 C   0  0  0  0  0  0  0  0  0  0  0  0
    2.1037    1.4023    0.1957 C   0  0  0  0  0  0  0  0  0  0  0  0
    4.3086   -2.2704    0.2058 C   0  0  0  0  0  0  0  0  0  0  0  0
    6.4461    1.0117    0.7819 C   0  0  0  0  0  0  0  0  0  0  0  0
    6.2348   -0.4093   -1.2638 C   0  0  0  0  0  0  0  0  0  0  0  0
   -1.9055    0.0346   -0.3911 C   0  0  0  0  0  0  0  0  0  0  0  0
   -2.6242    1.2260   -0.3934 C   0  0  0  0  0  0  0  0  0  0  0  0
   -2.5567   -1.1825   -0.2152 C   0  0  0  0  0  0  0  0  0  0  0  0
   -4.6658   -0.0172   -0.0415 C   0  0  0  0  0  0  0  0  0  0  0  0
   -4.0078    1.2000   -0.2182 C   0  0  0  0  0  0  0  0  0  0  0  0
   -3.9402   -1.2084   -0.0401 C   0  0  0  0  0  0  0  0  0  0  0  0
  1  6  1  0
  2  6  2  0
  3  7  1  0
  3 14  1  0
  3 15  1  0
  4  5  2  0
  4 11  1  0
  5 16  1  0
  6 19  1  0
  7  8  2  0
  7  9  1  0
  8 10  1  0
  8 13  1  0
  9 12  2  0
 10 11  2  0
 11 12  1  0
 16 17  2  0
 16 18  1  0
 17 20  1  0
 18 21  2  0
 19 20  2  0
 19 21  1  0
M  CHG  2   1  -1   6   1
M  END
>  <PUBCHEM_COMPOUND_CID>  (1) 
20308

>  <PUBCHEM_CONFORMER_RMSD>  (1) 
0.6

>  <PUBCHEM_CONFORMER_DIVERSEORDER>  (1) 
1
4
3
5
2

>  <PUBCHEM_MMFF94_PARTIAL_CHARGES>  (1) 
28
1 -0.52
10 -0.15
11 0.18
12 -0.15
13 0.14
14 0.37
15 0.37
16 0.18
17 -0.15
18 -0.15
19 0.13
2 -0.52
20 -0.15
21 -0.15
22 0.15
23 0.15
24 0.15
3 -0.84
34 0.15
35 0.15
36 0.15
37 0.15
4 -0.18
5 -0.18
6 0.91
7 0.1
8 -0.14
9 -0.15

>  <PUBCHEM_EFFECTIVE_ROTOR_COUNT>  (1) 
4

>  <PUBCHEM_PHARMACOPHORE_FEATURES>  (1) 
6
1 1 acceptor
1 1 anion
1 2 acceptor
1 3 cation
6 16 17 18 19 20 21 rings
6 7 8 9 10 11 12 rings

>  <PUBCHEM_HEAVY_ATOM_COUNT>  (1) 
21

>  <PUBCHEM_ATOM_DEF_STEREO_COUNT>  (1) 
0

>  <PUBCHEM_ATOM_UDEF_STEREO_COUNT>  (1) 
0

>  <PUBCHEM_BOND_DEF_STEREO_COUNT>  (1) 
0

>  <PUBCHEM_BOND_UDEF_STEREO_COUNT>  (1) 
0

>  <PUBCHEM_ISOTOPIC_ATOM_COUNT>  (1) 
0

>  <PUBCHEM_COMPONENT_COUNT>  (1) 
1

>  <PUBCHEM_CACTVS_TAUTO_COUNT>  (1) 
1

>  <PUBCHEM_CONFORMER_ID>  (1) 
00004F5400000001

>  <PUBCHEM_MMFF94_ENERGY>  (1) 
83.3272

>  <PUBCHEM_FEATURE_SELFOVERLAP>  (1) 
30.528

>  <PUBCHEM_SHAPE_FINGERPRINT>  (1) 
10354089 29 18410855464961270756
10968037 39 18186521016772100935
11524674 6 16773797013508462743
12107183 9 17690843363113608745
12236239 1 17775287166360862096
12516196 113 18272087205772816753
12730499 353 18335141999209143866
12788726 201 17560806476649389411
12916748 109 16225765190601915534
13073987 5 18340204090133789040
13533116 47 13758086151338086436
13668630 136 17561089111204154494
1420 363 17676210173708469945
14251764 18 18343581854642712527
14341114 176 18411421695779076383
14617045 38 18408889529227834630
14933364 13 18411983559216781869
15183329 4 18342460305010109843
17834072 33 18410290319746707294
17844677 252 18411143523680247692
1813 80 16950565458554549820
19489759 90 10159701296105025727
20645477 70 18338516331622836686
21267235 1 18411425015773069341
220451 1 17632292380591746055
221357 26 18410009922970682044
2297311 6 18412832373819846333
23035841 295 17167859781320448841
23536379 177 18411699872484621993
23559900 14 18340761645592546833
239999 70 18202005435121454502
29717793 49 17561089103110059300
300161 21 18410848863158738854
3004659 81 18262237712662154570
34797466 226 17989491840278892836
3545911 37 18410009944350358568
4073 2 18114185288852090242
4214541 1 18410291393836937773
4325135 7 17967818245428310174
4340502 62 17313098658038834858
4463277 17 18413107264342530297
465052 167 18201722829988388702
5104073 3 18339354154808096112
542803 24 17312822679791847133
59755656 215 18410578370461143422
59755656 520 16732979855892395179
77779 3 18409165510872386109

>  <PUBCHEM_SHAPE_MULTIPOLES>  (1) 
400.51
17.97
1.62
0.78
8.3
0.35
-0.09
0
-0.05
-0.73
0.1
-0.71
0.01
0.41

>  <PUBCHEM_SHAPE_SELFOVERLAP>  (1) 
852.884

>  <PUBCHEM_SHAPE_VOLUME>  (1) 
225.6

>  <PUBCHEM_COORDINATE_TYPE>  (1) 
2
5
10

$$$$
