20315
     RDKit          3D

  7  7  0  0  0  0  0  0  0  0999 V2000
   -1.7675   -0.0056   -0.2952 O   0  0  0  0  0  0  0  0  0  0  0  0
    1.0016    0.0054    0.3330 N   0  0  0  0  0  0  0  0  0  0  0  0
    2.3680   -0.0002   -0.1039 N   0  0  0  0  0  0  0  0  0  0  0  0
    0.3419   -1.2014   -0.1807 C   0  0  0  0  0  0  0  0  0  0  0  0
    0.3316    1.2077   -0.1815 C   0  0  0  0  0  0  0  0  0  0  0  0
   -1.1329   -1.1799    0.2142 C   0  0  0  0  0  0  0  0  0  0  0  0
   -1.1426    1.1740    0.2142 C   0  0  0  0  0  0  0  0  0  0  0  0
  1  6  1  0
  1  7  1  0
  2  3  1  0
  2  4  1  0
  2  5  1  0
  4  6  1  0
  5  7  1  0
M  END
>  <PUBCHEM_COMPOUND_CID>  (1) 
20315

>  <PUBCHEM_CONFORMER_RMSD>  (1) 
0.4

>  <PUBCHEM_CONFORMER_DIVERSEORDER>  (1) 
1
2
3
4

>  <PUBCHEM_MMFF94_PARTIAL_CHARGES>  (1) 
9
1 -0.56
16 0.36
17 0.36
2 -0.54
3 -0.72
4 0.27
5 0.27
6 0.28
7 0.28

>  <PUBCHEM_EFFECTIVE_ROTOR_COUNT>  (1) 
1.2

>  <PUBCHEM_PHARMACOPHORE_FEATURES>  (1) 
3
1 1 acceptor
1 3 donor
6 1 2 4 5 6 7 rings

>  <PUBCHEM_HEAVY_ATOM_COUNT>  (1) 
7

>  <PUBCHEM_ATOM_DEF_STEREO_COUNT>  (1) 
0

>  <PUBCHEM_ATOM_UDEF_STEREO_COUNT>  (1) 
0

>  <PUBCHEM_BOND_DEF_STEREO_COUNT>  (1) 
0

>  <PUBCHEM_BOND_UDEF_STEREO_COUNT>  (1) 
0

>  <PUBCHEM_ISOTOPIC_ATOM_COUNT>  (1) 
0

>  <PUBCHEM_COMPONENT_COUNT>  (1) 
1

>  <PUBCHEM_CACTVS_TAUTO_COUNT>  (1) 
1

>  <PUBCHEM_CONFORMER_ID>  (1) 
00004F5B00000001

>  <PUBCHEM_MMFF94_ENERGY>  (1) 
8.4821

>  <PUBCHEM_FEATURE_SELFOVERLAP>  (1) 
15.223

>  <PUBCHEM_SHAPE_FINGERPRINT>  (1) 
16714656 1 18410578383393128148
18185500 45 18335698385803475754
20096714 4 18051695442971607571
21040471 1 18266740173273482313
23552423 10 18260555485266752326
29004967 10 18337961180728216202

>  <PUBCHEM_SHAPE_MULTIPOLES>  (1) 
128.23
2.19
1.49
0.63
0.83
0
0
0
0.05
-0.32
0
-0.03
0
0

>  <PUBCHEM_SHAPE_SELFOVERLAP>  (1) 
243.01

>  <PUBCHEM_SHAPE_VOLUME>  (1) 
79.6

>  <PUBCHEM_COORDINATE_TYPE>  (1) 
2
5
10

$$$$
