20320
     RDKit          3D

  8  8  0  0  0  0  0  0  0  0999 V2000
   -2.5095   -0.0001   -0.6168 O   0  0  0  0  0  0  0  0  0  0  0  0
    2.6218    0.0004   -0.2429 O   0  0  0  0  0  0  0  0  0  0  0  0
   -1.4822    0.0002    0.3717 C   0  0  0  0  0  0  0  0  0  0  0  0
   -0.6707   -1.2529    0.2370 C   0  0  0  0  0  0  0  0  0  0  0  0
   -0.6714    1.2523    0.2371 C   0  0  0  0  0  0  0  0  0  0  0  0
    0.6523   -1.2688    0.0406 C   0  0  0  0  0  0  0  0  0  0  0  0
    0.6517    1.2687    0.0406 C   0  0  0  0  0  0  0  0  0  0  0  0
    1.4080    0.0002   -0.0674 C   0  0  0  0  0  0  0  0  0  0  0  0
  1  3  1  0
  2  8  2  0
  3  4  1  0
  3  5  1  0
  4  6  2  0
  5  7  2  0
  6  8  1  0
  7  8  1  0
M  END
>  <PUBCHEM_COMPOUND_CID>  (1) 
20320

>  <PUBCHEM_CONFORMER_RMSD>  (1) 
0.4

>  <PUBCHEM_CONFORMER_DIVERSEORDER>  (1) 
1

>  <PUBCHEM_MMFF94_PARTIAL_CHARGES>  (1) 
13
1 -0.68
10 0.15
11 0.15
12 0.15
13 0.15
14 0.4
2 -0.57
3 0.56
4 -0.29
5 -0.29
6 -0.14
7 -0.14
8 0.54

>  <PUBCHEM_EFFECTIVE_ROTOR_COUNT>  (1) 
0.2

>  <PUBCHEM_PHARMACOPHORE_FEATURES>  (1) 
4
1 1 acceptor
1 1 donor
1 2 acceptor
6 3 4 5 6 7 8 rings

>  <PUBCHEM_HEAVY_ATOM_COUNT>  (1) 
8

>  <PUBCHEM_ATOM_DEF_STEREO_COUNT>  (1) 
0

>  <PUBCHEM_ATOM_UDEF_STEREO_COUNT>  (1) 
0

>  <PUBCHEM_BOND_DEF_STEREO_COUNT>  (1) 
0

>  <PUBCHEM_BOND_UDEF_STEREO_COUNT>  (1) 
0

>  <PUBCHEM_ISOTOPIC_ATOM_COUNT>  (1) 
0

>  <PUBCHEM_COMPONENT_COUNT>  (1) 
1

>  <PUBCHEM_CACTVS_TAUTO_COUNT>  (1) 
1

>  <PUBCHEM_CONFORMER_ID>  (1) 
00004F6000000001

>  <PUBCHEM_MMFF94_ENERGY>  (1) 
7.8574

>  <PUBCHEM_FEATURE_SELFOVERLAP>  (1) 
20.297

>  <PUBCHEM_SHAPE_FINGERPRINT>  (1) 
16714656 1 18410864260753515150
18185500 45 18340204090059766851
21040471 1 18409450271451553546
23552423 10 18118694209912226462
29004967 10 18408613551671638779

>  <PUBCHEM_SHAPE_MULTIPOLES>  (1) 
152.9
2.66
1.45
0.67
0.19
0
-0.01
0
0.46
0
-0.1
-0.13
0
0

>  <PUBCHEM_SHAPE_SELFOVERLAP>  (1) 
311.894

>  <PUBCHEM_SHAPE_VOLUME>  (1) 
88.4

>  <PUBCHEM_COORDINATE_TYPE>  (1) 
2
5
10

$$$$
