20324
     RDKit          3D

 15 15  0  0  1  0  0  0  0  0999 V2000
    0.8245    2.2089    0.9506 O   0  0  0  0  0  0  0  0  0  0  0  0
   -0.9111   -2.0576    1.4165 O   0  0  0  0  0  0  0  0  0  0  0  0
    2.8460   -1.4259   -1.1192 O   0  0  0  0  0  0  0  0  0  0  0  0
    1.7872    0.4706   -0.2622 N   0  0  0  0  0  0  0  0  0  0  0  0
    0.9301   -1.7039    0.0947 N   0  0  0  0  0  0  0  0  0  0  0  0
   -0.4853    0.2029    0.6545 C   0  0  0  0  0  0  0  0  0  0  0  0
   -1.3353    0.3849   -0.6161 C   0  0  0  0  0  0  0  0  0  0  0  0
   -2.6218   -0.4471   -0.4996 C   0  0  0  0  0  0  0  0  0  0  0  0
    0.7647    1.0661    0.4938 C   0  0  0  0  0  0  0  0  0  0  0  0
   -1.2946    0.6790    1.8712 C   0  0  0  0  0  0  0  0  0  0  0  0
   -0.1877   -1.2810    0.7946 C   0  0  0  0  0  0  0  0  0  0  0  0
   -1.6139    1.8703   -0.8354 C   0  0  0  0  0  0  0  0  0  0  0  0
   -3.4998   -0.3777   -1.7409 C   0  0  0  0  0  0  0  0  0  0  0  0
    1.9149   -0.9129   -0.4928 C   0  0  0  0  0  0  0  0  0  0  0  0
    2.8821    1.3233   -0.7098 C   0  0  0  0  0  0  0  0  0  0  0  0
  1  9  2  0
  2 11  2  0
  3 14  2  0
  4  9  1  0
  4 14  1  0
  4 15  1  0
  5 11  1  0
  5 14  1  0
  6  7  1  0
  6  9  1  0
  6 10  1  0
  6 11  1  0
  7  8  1  0
  7 12  1  0
  8 13  1  0
M  END
>  <PUBCHEM_COMPOUND_CID>  (1) 
20324

>  <PUBCHEM_CONFORMER_RMSD>  (1) 
0.6

>  <PUBCHEM_CONFORMER_DIVERSEORDER>  (1) 
1
6
5
7
10
8
2
4
11
9
3
12

>  <PUBCHEM_MMFF94_PARTIAL_CHARGES>  (1) 
11
1 -0.57
11 0.57
14 0.69
15 0.3
2 -0.57
25 0.37
3 -0.57
4 -0.42
5 -0.49
6 0.12
9 0.57

>  <PUBCHEM_EFFECTIVE_ROTOR_COUNT>  (1) 
2.6

>  <PUBCHEM_PHARMACOPHORE_FEATURES>  (1) 
7
1 1 acceptor
1 12 hydrophobe
1 13 hydrophobe
1 2 acceptor
1 3 acceptor
1 5 donor
6 4 5 6 9 11 14 rings

>  <PUBCHEM_HEAVY_ATOM_COUNT>  (1) 
15

>  <PUBCHEM_ATOM_DEF_STEREO_COUNT>  (1) 
0

>  <PUBCHEM_ATOM_UDEF_STEREO_COUNT>  (1) 
2

>  <PUBCHEM_BOND_DEF_STEREO_COUNT>  (1) 
0

>  <PUBCHEM_BOND_UDEF_STEREO_COUNT>  (1) 
0

>  <PUBCHEM_ISOTOPIC_ATOM_COUNT>  (1) 
0

>  <PUBCHEM_COMPONENT_COUNT>  (1) 
1

>  <PUBCHEM_CACTVS_TAUTO_COUNT>  (1) 
3

>  <PUBCHEM_CONFORMER_ID>  (1) 
00004F6400000001

>  <PUBCHEM_MMFF94_ENERGY>  (1) 
44.3672

>  <PUBCHEM_FEATURE_SELFOVERLAP>  (1) 
35.521

>  <PUBCHEM_SHAPE_FINGERPRINT>  (1) 
10702982 57 17341548349107621857
12138202 97 17896033424177911846
12423570 1 16607443411795510825
12897270 3 18187918461380075271
13299463 15 18342172301635902821
14128692 85 17988069015822755087
14617773 55 17917445180467831113
14761567 1 18187656755964157338
14817 1 16738866799865871475
15001771 113 17846213302667057757
15207287 21 18267002016271044808
15852999 172 18264196084135074448
15906896 17 17415591764319357203
16945 1 18200866404703113045
18186145 218 18114178610172189303
18534176 82 17969227909202254348
21947302 44 18262503888231679252
22112679 90 17910664372206220971
22802520 49 18266453381485994335
23211744 25 18261664870844616995
23402539 116 18042666455369068276
23419403 2 17551233295199506187
23559900 14 18334010610692507098
2748010 2 17690844883658852304
353137 74 18260537914470875685
5084963 1 18411981325701659332
53812653 217 17695357970758092904
59915604 170 18113328722070173405

>  <PUBCHEM_SHAPE_MULTIPOLES>  (1) 
281.12
4.09
2.06
1.53
0.51
0.03
-0.3
-0.14
2.72
-0.58
-0.29
0.75
-0.05
0.29

>  <PUBCHEM_SHAPE_SELFOVERLAP>  (1) 
575.79

>  <PUBCHEM_SHAPE_VOLUME>  (1) 
162

>  <PUBCHEM_COORDINATE_TYPE>  (1) 
2
5
10

$$$$
