2032
     RDKit          3D

 24 24  0  0  1  0  0  0  0  0999 V2000
    6.0691   -1.3104   -2.6382 O   0  0  0  0  0  0  0  0  0  0  0  0
    1.1150    2.7365    0.9961 O   0  0  0  0  0  0  0  0  0  0  0  0
    1.9432   -1.9403    0.9499 N   0  0  0  0  0  0  0  0  0  0  0  0
    3.2281    2.6179   -0.0427 N   0  0  0  0  0  0  0  0  0  0  0  0
   -2.8728   -0.9275    0.0477 C   0  0  0  0  0  0  0  0  0  0  0  0
   -4.2272   -0.5469    0.6508 C   0  0  0  0  0  0  0  0  0  0  0  0
   -1.7400   -0.9622    1.0791 C   0  0  0  0  0  0  0  0  0  0  0  0
   -5.3588   -0.5001   -0.3815 C   0  0  0  0  0  0  0  0  0  0  0  0
   -0.4006   -1.4200    0.4913 C   0  0  0  0  0  0  0  0  0  0  0  0
   -6.7366   -0.1032    0.1578 C   0  0  0  0  0  0  0  0  0  0  0  0
    0.7032   -1.5013    1.5434 C   0  0  0  0  0  0  0  0  0  0  0  0
   -7.8137   -0.0185   -0.9254 C   0  0  0  0  0  0  0  0  0  0  0  0
   -9.1431    0.4679   -0.3470 C   0  0  0  0  0  0  0  0  0  0  0  0
    2.8658   -1.0256    0.4224 C   0  0  0  0  0  0  0  0  0  0  0  0
    2.2356   -3.3745    0.9179 C   0  0  0  0  0  0  0  0  0  0  0  0
  -10.2271    0.5234   -1.4118 C   0  0  0  0  0  0  0  0  0  0  0  0
    4.0613   -1.4824   -0.1325 C   0  0  0  0  0  0  0  0  0  0  0  0
    2.5882    0.3410    0.4524 C   0  0  0  0  0  0  0  0  0  0  0  0
    4.9791   -0.5725   -0.6574 C   0  0  0  0  0  0  0  0  0  0  0  0
    3.5060    1.2508   -0.0725 C   0  0  0  0  0  0  0  0  0  0  0  0
    4.7014    0.7941   -0.6276 C   0  0  0  0  0  0  0  0  0  0  0  0
    6.2571   -1.0612   -1.2505 C   0  0  0  0  0  0  0  0  0  0  0  0
    2.0918    3.2587    0.4686 C   0  0  0  0  0  0  0  0  0  0  0  0
    2.1753    4.7561    0.3097 C   0  0  0  0  0  0  0  0  0  0  0  0
  1 22  1  0
  2 23  2  0
  3 11  1  0
  3 14  1  0
  3 15  1  0
  4 20  1  0
  4 23  1  0
  5  6  1  0
  5  7  1  0
  6  8  1  0
  7  9  1  0
  8 10  1  0
  9 11  1  0
 10 12  1  0
 12 13  1  0
 13 16  1  0
 14 17  2  0
 14 18  1  0
 17 19  1  0
 18 20  2  0
 19 21  2  0
 19 22  1  0
 20 21  1  0
 23 24  1  0
M  END
>  <PUBCHEM_COMPOUND_CID>  (1) 
2032

>  <PUBCHEM_CONFORMER_RMSD>  (1) 
1.4

>  <PUBCHEM_CONFORMER_DIVERSEORDER>  (1) 
1
29
31
26
32
46
41
89
45
38
90
25
24
48
96
9
68
35
92
77
94
7
20
30
21
58
91
84
4
36
74
37
3
47
62
51
97
66
22
23
76
73
88
5
39
85
61
43
71
79
6
80
10
75
78
69
12
83
40
42
87
55
2
15
33
72
34
49
8
82
14
16
70
95
57
44
18
67
81
13
17
65
59
27
60
64
54
56
86
11
52
53
63
19
28
93
50

>  <PUBCHEM_MMFF94_PARTIAL_CHARGES>  (1) 
20
1 -0.68
11 0.37
14 0.1
15 0.37
17 -0.15
18 -0.15
19 -0.14
2 -0.57
20 0.12
21 -0.15
22 0.42
23 0.57
24 0.06
3 -0.84
4 -0.55
49 0.15
50 0.15
51 0.15
54 0.37
55 0.4

>  <PUBCHEM_EFFECTIVE_ROTOR_COUNT>  (1) 
13

>  <PUBCHEM_PHARMACOPHORE_FEATURES>  (1) 
7
1 1 acceptor
1 1 donor
1 16 hydrophobe
1 2 acceptor
1 3 cation
1 4 donor
6 14 17 18 19 20 21 rings

>  <PUBCHEM_HEAVY_ATOM_COUNT>  (1) 
24

>  <PUBCHEM_ATOM_DEF_STEREO_COUNT>  (1) 
0

>  <PUBCHEM_ATOM_UDEF_STEREO_COUNT>  (1) 
0

>  <PUBCHEM_BOND_DEF_STEREO_COUNT>  (1) 
0

>  <PUBCHEM_BOND_UDEF_STEREO_COUNT>  (1) 
0

>  <PUBCHEM_ISOTOPIC_ATOM_COUNT>  (1) 
0

>  <PUBCHEM_COMPONENT_COUNT>  (1) 
1

>  <PUBCHEM_CACTVS_TAUTO_COUNT>  (1) 
2

>  <PUBCHEM_CONFORMER_ID>  (1) 
000007F000000001

>  <PUBCHEM_MMFF94_ENERGY>  (1) 
53.4833

>  <PUBCHEM_FEATURE_SELFOVERLAP>  (1) 
35.521

>  <PUBCHEM_SHAPE_FINGERPRINT>  (1) 
10165383 225 17530967986409946054
10638233 991 18413106157301290945
10693767 8 18200880569928223310
11386260 185 18342738542056915173
13073987 5 8141819291769930735
14537116 161 18410295800320331917
14931854 50 18335146349377745516
15183329 4 18342739603361554585
15439362 3 18122907792137152968
16988056 13 18336831999894491348
1768 124 9511461135249480689
18335252 114 18411982451273410239
20554085 129 16370718228582796585
21033648 29 17604146050993295523
21049683 118 17314213622716278075
21344244 78 17972574633856755586
221357 26 18410014316827480564
22224240 67 8069739647163923462
22899556 56 17696731292090636554
249057 3 18272652363466347127
255183 451 17984425139647077311
44555599 121 18342460306218632601
5312510 48 18336543915152399105
54076057 255 16805612494390291684
58902169 19 18059849585118840583
59521099 67 17846492647182631561
59682541 52 18342747282167676222
6438161 24 14979952554409098831

>  <PUBCHEM_SHAPE_MULTIPOLES>  (1) 
472.21
23.9
3.8
1.37
78.87
5.07
0.58
1.06
15.03
-6.95
-1.37
-1.15
-0.53
1.49

>  <PUBCHEM_SHAPE_SELFOVERLAP>  (1) 
925.277

>  <PUBCHEM_SHAPE_VOLUME>  (1) 
284.7

>  <PUBCHEM_COORDINATE_TYPE>  (1) 
2
5
10

$$$$
