20339
     RDKit          3D

 11 11  0  0  1  0  0  0  0  0999 V2000
   -0.8061   -0.0413    0.4379 P   0  0  0  0  0  0  0  0  0  0  0  0
    0.2502   -1.2819    0.4998 O   0  0  0  0  0  0  0  0  0  0  0  0
   -1.7596   -0.4304   -0.8047 O   0  0  0  0  0  0  0  0  0  0  0  0
   -1.5086    0.2917    1.7193 O   0  0  0  0  0  0  0  0  0  0  0  0
    0.3735    1.2241   -0.1622 C   0  0  0  0  0  0  0  0  0  0  0  0
    1.6102    0.3671   -0.3617 C   0  0  0  0  0  0  0  0  0  0  0  0
    0.6512    2.3608    0.8177 C   0  0  0  0  0  0  0  0  0  0  0  0
   -0.0725    1.8032   -1.5088 C   0  0  0  0  0  0  0  0  0  0  0  0
    1.4919   -0.9162    0.0001 C   0  0  0  0  0  0  0  0  0  0  0  0
    2.5310   -1.9732   -0.0667 C   0  0  0  0  0  0  0  0  0  0  0  0
   -2.7612   -1.4038   -0.5706 C   0  0  0  0  0  0  0  0  0  0  0  0
  1  2  1  0
  1  3  1  0
  1  4  2  0
  1  5  1  0
  2  9  1  0
  3 11  1  0
  5  6  1  0
  5  7  1  0
  5  8  1  0
  6  9  2  0
  9 10  1  0
M  END
>  <PUBCHEM_COMPOUND_CID>  (1) 
20339

>  <PUBCHEM_CONFORMER_RMSD>  (1) 
0.4

>  <PUBCHEM_CONFORMER_DIVERSEORDER>  (1) 
1
2

>  <PUBCHEM_MMFF94_PARTIAL_CHARGES>  (1) 
10
1 1.24
10 0.14
11 0.28
12 0.15
2 -0.35
3 -0.55
4 -0.7
5 0.14
6 -0.29
9 -0.06

>  <PUBCHEM_EFFECTIVE_ROTOR_COUNT>  (1) 
1.4

>  <PUBCHEM_PHARMACOPHORE_FEATURES>  (1) 
3
1 4 acceptor
3 5 7 8 hydrophobe
5 1 2 5 6 9 rings

>  <PUBCHEM_HEAVY_ATOM_COUNT>  (1) 
11

>  <PUBCHEM_ATOM_DEF_STEREO_COUNT>  (1) 
0

>  <PUBCHEM_ATOM_UDEF_STEREO_COUNT>  (1) 
1

>  <PUBCHEM_BOND_DEF_STEREO_COUNT>  (1) 
0

>  <PUBCHEM_BOND_UDEF_STEREO_COUNT>  (1) 
0

>  <PUBCHEM_ISOTOPIC_ATOM_COUNT>  (1) 
0

>  <PUBCHEM_COMPONENT_COUNT>  (1) 
1

>  <PUBCHEM_CACTVS_TAUTO_COUNT>  (1) 
1

>  <PUBCHEM_CONFORMER_ID>  (1) 
00004F7300000001

>  <PUBCHEM_MMFF94_ENERGY>  (1) 
20.0791

>  <PUBCHEM_FEATURE_SELFOVERLAP>  (1) 
15.223

>  <PUBCHEM_SHAPE_FINGERPRINT>  (1) 
1 1 17906444777132802350
11129358 1 8640930379440957222
12423570 1 14274895094952063195
13024252 1 15289055938721145944
14128692 85 18271521004645274895
14817 1 14449196537123441784
16945 1 18127111194497036846
18185500 45 18342748407132018003
20653085 51 12902125110800579542
20871998 184 17691421714967478402
21040471 1 17184187782290686116
241688 4 18338513036849657810
5084963 1 17396151595275437520

>  <PUBCHEM_SHAPE_MULTIPOLES>  (1) 
212.62
2.93
2.39
1.22
0.79
0.63
-0.09
-2.39
0.34
-0.82
0.11
0.45
0.52
-0.13

>  <PUBCHEM_SHAPE_SELFOVERLAP>  (1) 
405.577

>  <PUBCHEM_SHAPE_VOLUME>  (1) 
133.5

>  <PUBCHEM_COORDINATE_TYPE>  (1) 
2
5
10

$$$$
