20330
     RDKit          3D

 10 10  0  0  0  0  0  0  0  0999 V2000
   -2.9588   -0.7529   -0.7356 O   0  0  0  0  0  0  0  0  0  0  0  0
   -2.6032    0.7695    0.9232 O   0  0  0  0  0  0  0  0  0  0  0  0
    2.1285    0.0494    0.3297 C   0  0  0  0  0  0  0  0  0  0  0  0
   -0.7450   -0.0525   -0.3845 C   0  0  0  0  0  0  0  0  0  0  0  0
    1.4575    1.1833   -0.4570 C   0  0  0  0  0  0  0  0  0  0  0  0
    1.4107   -1.2848    0.0846 C   0  0  0  0  0  0  0  0  0  0  0  0
   -0.0343    1.2796   -0.1449 C   0  0  0  0  0  0  0  0  0  0  0  0
   -0.0816   -1.1881    0.3951 C   0  0  0  0  0  0  0  0  0  0  0  0
    3.6077   -0.0590   -0.0364 C   0  0  0  0  0  0  0  0  0  0  0  0
   -2.1815    0.0555    0.0257 C   0  0  0  0  0  0  0  0  0  0  0  0
  1 10  1  0
  2 10  2  0
  3  5  1  0
  3  6  1  0
  3  9  1  0
  4  7  1  0
  4  8  1  0
  4 10  1  0
  5  7  1  0
  6  8  1  0
M  END
>  <PUBCHEM_COMPOUND_CID>  (1) 
20330

>  <PUBCHEM_CONFORMER_RMSD>  (1) 
0.4

>  <PUBCHEM_CONFORMER_DIVERSEORDER>  (1) 
1
8
7
2
14
3
15
12
16
9
6
5
11
4
13
10

>  <PUBCHEM_MMFF94_PARTIAL_CHARGES>  (1) 
5
1 -0.65
10 0.66
2 -0.57
24 0.5
4 0.06

>  <PUBCHEM_EFFECTIVE_ROTOR_COUNT>  (1) 
2.2

>  <PUBCHEM_PHARMACOPHORE_FEATURES>  (1) 
4
1 1 acceptor
1 2 acceptor
3 1 2 10 anion
6 3 4 5 6 7 8 rings

>  <PUBCHEM_HEAVY_ATOM_COUNT>  (1) 
10

>  <PUBCHEM_ATOM_DEF_STEREO_COUNT>  (1) 
0

>  <PUBCHEM_ATOM_UDEF_STEREO_COUNT>  (1) 
0

>  <PUBCHEM_BOND_DEF_STEREO_COUNT>  (1) 
0

>  <PUBCHEM_BOND_UDEF_STEREO_COUNT>  (1) 
0

>  <PUBCHEM_ISOTOPIC_ATOM_COUNT>  (1) 
0

>  <PUBCHEM_COMPONENT_COUNT>  (1) 
1

>  <PUBCHEM_CACTVS_TAUTO_COUNT>  (1) 
1

>  <PUBCHEM_CONFORMER_ID>  (1) 
00004F6A00000001

>  <PUBCHEM_MMFF94_ENERGY>  (1) 
9.6481

>  <PUBCHEM_FEATURE_SELFOVERLAP>  (1) 
20.353

>  <PUBCHEM_SHAPE_FINGERPRINT>  (1) 
10219947 1 18187364328994434372
11062470 55 16009026176810528639
14325111 11 18411418423209221032
14993402 34 18408320012353437190
15310529 11 15554447383868391942
15775835 57 18202007590261522865
16945 1 18186522102966212630
20201158 50 18113615677150937954
21040471 1 18264210390539313940
21293036 1 18187644734513784494
23235685 24 18335136497055071224
23402655 69 18119225313274031469
23552423 10 18044093458311290026
29004967 10 17894917299637643024
5084963 1 18410848897518457765
528886 8 18409444782472858322
63268167 104 18409444756724121009

>  <PUBCHEM_SHAPE_MULTIPOLES>  (1) 
194.06
4.61
1.34
0.77
0.32
0
0.03
-0.14
0.01
0.18
-0.01
-0.26
0.02
-0.32

>  <PUBCHEM_SHAPE_SELFOVERLAP>  (1) 
381.471

>  <PUBCHEM_SHAPE_VOLUME>  (1) 
115.1

>  <PUBCHEM_COORDINATE_TYPE>  (1) 
2
5
10

$$$$
