20331
     RDKit          3D

 18 19  0  0  0  0  0  0  0  0999 V2000
    2.2804   -0.1541   -0.0111 O   0  0  0  0  0  0  0  0  0  0  0  0
   -2.1449    2.3923    0.1641 O   0  0  0  0  0  0  0  0  0  0  0  0
    5.4971   -1.5141   -0.1385 O   0  0  0  0  0  0  0  0  0  0  0  0
    3.5090   -2.4551   -0.1290 O   0  0  0  0  0  0  0  0  0  0  0  0
    4.2354   -1.4186   -0.1058 N   0  0  0  0  0  0  0  0  0  0  0  0
    1.9538    1.1321    0.0471 C   0  0  0  0  0  0  0  0  0  0  0  0
   -2.9959    0.2094    0.0427 C   0  0  0  0  0  0  0  0  0  0  0  0
    0.5357    1.5294    0.0953 C   0  0  0  0  0  0  0  0  0  0  0  0
    2.9951    1.9758    0.0559 C   0  0  0  0  0  0  0  0  0  0  0  0
   -1.9110    1.1755    0.1057 C   0  0  0  0  0  0  0  0  0  0  0  0
   -0.4954    0.6720    0.0669 C   0  0  0  0  0  0  0  0  0  0  0  0
    3.6388   -0.1579   -0.0428 C   0  0  0  0  0  0  0  0  0  0  0  0
    4.1264    1.1276   -0.0037 C   0  0  0  0  0  0  0  0  0  0  0  0
   -2.8179   -1.0740    0.5596 C   0  0  0  0  0  0  0  0  0  0  0  0
   -4.2150    0.5658   -0.5342 C   0  0  0  0  0  0  0  0  0  0  0  0
   -3.8586   -2.0008    0.4995 C   0  0  0  0  0  0  0  0  0  0  0  0
   -5.2557   -0.3611   -0.5942 C   0  0  0  0  0  0  0  0  0  0  0  0
   -5.0774   -1.6443   -0.0773 C   0  0  0  0  0  0  0  0  0  0  0  0
  1  6  1  0
  1 12  1  0
  2 10  2  0
  3  5  1  0
  4  5  2  0
  5 12  1  0
  6  8  1  0
  6  9  2  0
  7 10  1  0
  7 14  2  0
  7 15  1  0
  8 11  2  0
  9 13  1  0
 10 11  1  0
 12 13  2  0
 14 16  1  0
 15 17  2  0
 16 18  2  0
 17 18  1  0
M  CHG  2   3  -1   5   1
M  END
>  <PUBCHEM_COMPOUND_CID>  (1) 
20331

>  <PUBCHEM_CONFORMER_RMSD>  (1) 
0.6

>  <PUBCHEM_CONFORMER_DIVERSEORDER>  (1) 
1
12
7
10
15
8
9
6
11
2
3
16
14
5
13
4
17

>  <PUBCHEM_MMFF94_PARTIAL_CHARGES>  (1) 
27
1 -0.28
10 0.47
11 -0.14
12 0.22
13 -0.15
14 -0.15
15 -0.15
16 -0.15
17 -0.15
18 -0.15
19 0.15
2 -0.57
20 0.15
21 0.15
22 0.15
23 0.15
24 0.15
25 0.15
26 0.15
27 0.15
3 -0.52
4 -0.52
5 0.96
6 0.09
7 0.09
8 -0.11
9 -0.15

>  <PUBCHEM_EFFECTIVE_ROTOR_COUNT>  (1) 
4

>  <PUBCHEM_PHARMACOPHORE_FEATURES>  (1) 
7
1 1 acceptor
1 2 acceptor
1 3 acceptor
1 3 anion
1 4 acceptor
5 1 6 9 12 13 rings
6 7 14 15 16 17 18 rings

>  <PUBCHEM_HEAVY_ATOM_COUNT>  (1) 
18

>  <PUBCHEM_ATOM_DEF_STEREO_COUNT>  (1) 
0

>  <PUBCHEM_ATOM_UDEF_STEREO_COUNT>  (1) 
0

>  <PUBCHEM_BOND_DEF_STEREO_COUNT>  (1) 
0

>  <PUBCHEM_BOND_UDEF_STEREO_COUNT>  (1) 
1

>  <PUBCHEM_ISOTOPIC_ATOM_COUNT>  (1) 
0

>  <PUBCHEM_COMPONENT_COUNT>  (1) 
1

>  <PUBCHEM_CACTVS_TAUTO_COUNT>  (1) 
1

>  <PUBCHEM_CONFORMER_ID>  (1) 
00004F6B00000001

>  <PUBCHEM_MMFF94_ENERGY>  (1) 
48.0498

>  <PUBCHEM_FEATURE_SELFOVERLAP>  (1) 
35.614

>  <PUBCHEM_SHAPE_FINGERPRINT>  (1) 
10835480 77 18337662109608902973
11405975 8 18271248231235623273
11458722 379 18259984868738666187
12107183 9 17981897336786726913
12555020 224 18409157827920023719
12596602 18 15913320316853134762
12760667 363 18343584027885491403
12916754 54 18411702084166510641
13167823 11 18412261744243002773
13255334 9 18409172129412104282
13533116 47 18271806860667715673
13544653 18 18337960085849295553
13955234 65 18127971021528747568
1420 369 18413390951264276151
14866123 147 18124880049803973385
15188451 53 15338539640424409741
15196674 1 18410293631435615299
15352361 1 18410856559645070827
15537594 2 18129668641469045431
17857418 61 18410290289887820554
17870717 6 18040435499569740375
193927 3 18272662220505442558
200 152 18202281429129298305
20261772 1 17846777442305568486
20281475 54 18411707594662279465
20374829 77 18260825981831937003
20403669 9 18341900675182849239
20645477 70 18408038528828905250
21033650 10 16515959255423648532
21267235 1 18411707577466254598
21279426 13 18336541625997796149
221490 88 18408891758537043656
2215653 11 18409439302769776583
22393880 68 18040987410860968979
23403322 49 18410855482209653235
23559900 14 18409161147138614961
239999 70 18410856581890222494
27216 239 10447931681168399461
2871803 45 18259981587003499443
3004659 81 18187362129886815282
312423 11 18270976694818483888
314194 84 18198624522221998417
33824 294 18410853304729793104
3421961 26 18413386553639933792
4214541 1 18410292476142504477
4259306 186 18411975892974166623
465052 167 18201443618026744479
4921388 177 16443353130285825843
5104073 3 18273215283170147825
559249 180 18339075974340176581
59682541 35 18200860830959313234
77779 3 18409730681408659245
960060 61 17749113296462039006
9709674 26 18261115239426629195

>  <PUBCHEM_SHAPE_MULTIPOLES>  (1) 
341.97
12.67
2.41
0.67
0.56
0.53
0
6.41
1.28
1.17
-0.1
-0.33
0.02
0.5

>  <PUBCHEM_SHAPE_SELFOVERLAP>  (1) 
738.93

>  <PUBCHEM_SHAPE_VOLUME>  (1) 
187.3

>  <PUBCHEM_COORDINATE_TYPE>  (1) 
2
5
10

$$$$
