20341
     RDKit          3D

 39 44  0  0  1  0  0  0  0  0999 V2000
    3.5259    1.8620    2.0407 O   0  0  0  0  0  0  0  0  0  0  0  0
   -0.7702    3.2993    1.1408 O   0  0  0  0  0  0  0  0  0  0  0  0
   -4.2937    0.6823   -0.7806 O   0  0  0  0  0  0  0  0  0  0  0  0
   -0.6556    2.6694   -2.7432 O   0  0  0  0  0  0  0  0  0  0  0  0
    7.3712   -2.3805   -1.7113 O   0  0  0  0  0  0  0  0  0  0  0  0
   -5.1164   -1.5109   -0.8945 O   0  0  0  0  0  0  0  0  0  0  0  0
    9.3246   -1.7674   -0.6603 O   0  0  0  0  0  0  0  0  0  0  0  0
   -7.0127    0.5796   -1.2642 O   0  0  0  0  0  0  0  0  0  0  0  0
   -8.7475   -0.3014    0.7162 O   0  0  0  0  0  0  0  0  0  0  0  0
   -8.0886   -3.1036    0.6140 O   0  0  0  0  0  0  0  0  0  0  0  0
    3.1608    0.6320    1.4059 C   0  0  0  0  0  0  0  0  0  0  0  0
    1.6561    0.6766    1.0161 C   0  0  0  0  0  0  0  0  0  0  0  0
    4.1059    0.3187    0.1823 C   0  0  0  0  0  0  0  0  0  0  0  0
    1.3936    1.6526   -0.1635 C   0  0  0  0  0  0  0  0  0  0  0  0
   -0.1198    1.6803   -0.5973 C   0  0  0  0  0  0  0  0  0  0  0  0
   -1.0334    1.9793    0.6372 C   0  0  0  0  0  0  0  0  0  0  0  0
    4.6877   -1.0908    0.5233 C   0  0  0  0  0  0  0  0  0  0  0  0
    3.3171    0.2432   -1.1449 C   0  0  0  0  0  0  0  0  0  0  0  0
    2.3752    1.4275   -1.3411 C   0  0  0  0  0  0  0  0  0  0  0  0
    3.4429   -0.4795    2.4449 C   0  0  0  0  0  0  0  0  0  0  0  0
    0.7524    1.0404    2.2059 C   0  0  0  0  0  0  0  0  0  0  0  0
   -0.7232    1.0245    1.8097 C   0  0  0  0  0  0  0  0  0  0  0  0
    4.7850   -1.0752    2.0453 C   0  0  0  0  0  0  0  0  0  0  0  0
   -0.5623    0.3635   -1.2935 C   0  0  0  0  0  0  0  0  0  0  0  0
   -2.5300    1.9076    0.2774 C   0  0  0  0  0  0  0  0  0  0  0  0
    5.2363    1.3693    0.0341 C   0  0  0  0  0  0  0  0  0  0  0  0
   -2.0621    0.2901   -1.5966 C   0  0  0  0  0  0  0  0  0  0  0  0
   -2.9289    0.5908   -0.3801 C   0  0  0  0  0  0  0  0  0  0  0  0
   -0.2567    2.8206   -1.5933 C   0  0  0  0  0  0  0  0  0  0  0  0
    5.9652   -1.4765   -0.1471 C   0  0  0  0  0  0  0  0  0  0  0  0
    5.9782   -2.2176   -1.4247 C   0  0  0  0  0  0  0  0  0  0  0  0
    7.2013   -1.2279    0.2774 C   0  0  0  0  0  0  0  0  0  0  0  0
   -5.0937   -0.3027   -0.1302 C   0  0  0  0  0  0  0  0  0  0  0  0
    8.1075   -1.8034   -0.7175 C   0  0  0  0  0  0  0  0  0  0  0  0
   -6.5079    0.2525    0.0353 C   0  0  0  0  0  0  0  0  0  0  0  0
   -7.4102   -0.7943    0.6864 C   0  0  0  0  0  0  0  0  0  0  0  0
   -5.9031   -2.5646   -0.3254 C   0  0  0  0  0  0  0  0  0  0  0  0
   -7.3529   -2.1102   -0.0922 C   0  0  0  0  0  0  0  0  0  0  0  0
   -5.2180   -3.1555    0.9087 C   0  0  0  0  0  0  0  0  0  0  0  0
  1 11  1  0
  2 16  1  0
  3 28  1  0
  3 33  1  0
  4 29  2  0
  5 31  1  0
  5 34  1  0
  6 33  1  0
  6 37  1  0
  7 34  2  0
  8 35  1  0
  9 36  1  0
 10 38  1  0
 11 12  1  0
 11 13  1  0
 11 20  1  0
 12 14  1  0
 12 21  1  0
 13 17  1  0
 13 18  1  0
 13 26  1  0
 14 15  1  0
 14 19  1  0
 15 16  1  0
 15 24  1  0
 15 29  1  0
 16 22  1  0
 16 25  1  0
 17 23  1  0
 17 30  1  0
 18 19  1  0
 20 23  1  0
 21 22  1  0
 24 27  1  0
 25 28  1  0
 27 28  1  0
 30 31  1  0
 30 32  2  0
 32 34  1  0
 33 35  1  0
 35 36  1  0
 36 38  1  0
 37 38  1  0
 37 39  1  0
M  END
>  <PUBCHEM_COMPOUND_CID>  (1) 
20341

>  <PUBCHEM_CONFORMER_RMSD>  (1) 
1

>  <PUBCHEM_CONFORMER_DIVERSEORDER>  (1) 
8
96
133
181
69
79
159
229
11
230
224
103
97
218
41
66
182
188
140
235
57
78
56
214
226
2
77
120
150
136
149
43
233
100
64
16
195
165
112
147
107
85
164
247
33
157
237
171
99
161
82
168
148
199
166
70
193
205
117
80
67
35
14
244
32
217
210
207
25
104
155
169
50
138
223
162
122
191
27
62
109
7
173
91
92
167
65
243
127
53
213
234
135
156
73
24
194
174
74
36
242
236
13
252
187
31
178
126
94
130
176
17
212
143
129
113
201
221
192
39
30
245
241
76
45
139
172
219
209
68
160
28
128
131
189
211
102
63
88
116
231
141
152
61
198
145
58
163
121
108
239
118
225
114
19
75
9
83
215
124
154
125
251
87
246
10
146
170
177
72
123
216
81
175
51
203
190
254
15
119
228
101
142
185
86
34
200
89
183
47
238
55
196
84
184
21
44
220
204
115
111
4
48
248
105
52
12
40
153
29
249
144
132
186
22
46
158
42
20
90
98
137
134
1
232
95
71
18
197
26
6
106
23
59
151
49
222
253
110
250
3
180
37
60
179
208
206
202
93
5
227
240
54
38

>  <PUBCHEM_MMFF94_PARTIAL_CHARGES>  (1) 
32
1 -0.68
10 -0.68
11 0.28
15 0.06
16 0.28
17 0.14
2 -0.68
28 0.28
29 0.45
3 -0.56
30 -0.28
31 0.42
32 -0.14
33 0.56
34 0.71
35 0.28
36 0.28
37 0.28
38 0.28
4 -0.57
5 -0.43
6 -0.56
65 0.4
66 0.06
67 0.4
7 -0.57
70 0.15
76 0.4
8 -0.68
80 0.4
81 0.4
9 -0.68

>  <PUBCHEM_EFFECTIVE_ROTOR_COUNT>  (1) 
7.8

>  <PUBCHEM_PHARMACOPHORE_FEATURES>  (1) 
20
1 1 acceptor
1 1 donor
1 10 acceptor
1 10 donor
1 2 acceptor
1 2 donor
1 3 acceptor
1 4 acceptor
1 6 acceptor
1 7 acceptor
1 8 acceptor
1 8 donor
1 9 acceptor
1 9 donor
5 11 13 17 20 23 rings
5 5 30 31 32 34 rings
6 11 12 13 14 18 19 rings
6 12 14 15 16 21 22 rings
6 15 16 24 25 27 28 rings
6 6 33 35 36 37 38 rings

>  <PUBCHEM_HEAVY_ATOM_COUNT>  (1) 
39

>  <PUBCHEM_ATOM_DEF_STEREO_COUNT>  (1) 
8

>  <PUBCHEM_ATOM_UDEF_STEREO_COUNT>  (1) 
5

>  <PUBCHEM_BOND_DEF_STEREO_COUNT>  (1) 
0

>  <PUBCHEM_BOND_UDEF_STEREO_COUNT>  (1) 
0

>  <PUBCHEM_ISOTOPIC_ATOM_COUNT>  (1) 
0

>  <PUBCHEM_COMPONENT_COUNT>  (1) 
1

>  <PUBCHEM_CACTVS_TAUTO_COUNT>  (1) 
1

>  <PUBCHEM_CONFORMER_ID>  (1) 
00004F7500000008

>  <PUBCHEM_MMFF94_ENERGY>  (1) 
138.0309

>  <PUBCHEM_FEATURE_SELFOVERLAP>  (1) 
101.712

>  <PUBCHEM_SHAPE_FINGERPRINT>  (1) 
10280341 67 10447663366125562731
10622 236 16518466107732956401
11135609 12 18131627890271100462
11409948 41 15647605646481047858
11456790 92 15267341825091908715
11497681 19 18408605872935213196
11607047 141 18339368582178625921
11607047 74 18048318030941114341
117089 54 17701270131413980814
11961588 58 12612756800349150192
12013929 27 18267029346013983798
12422481 6 17988637540860355767
131258 43 18338251443978894996
13540713 5 16155942792166787464
13673619 4 18341610391634415556
13690498 29 17385714786792981613
13782708 43 18272080587254295102
13811026 1 18341888584722913858
13911987 19 15647059230996330193
13947930 73 18131062762384684454
14068700 675 17894910698853639012
14347424 109 16773508958003180608
14767858 380 16225765198817388176
14904525 67 9150013193420850834
14931854 50 16008747966451957492
15131766 46 15551880149072502256
15183329 4 15719389534414889601
15289351 153 9222961348483492614
15352257 5 18410011052842700883
15439362 3 9030268594653847756
15510800 12 18202010905934467318
16994733 274 8646773283590329695
18608769 82 18343862212975970974
19246450 95 15697724692639259915
19304144 158 9223237351856282969
195137 95 9511462208469201442
20105231 36 16056881296346464110
20775438 99 17387688551202518922
21033648 29 11671782693330336092
21403212 168 14333126356267462261
21424621 283 9943807785423207853
21585481 151 18341896307713195171
21781051 124 17988650696545344526
21781055 127 12175627317612459640
21792938 703 17896046614465668195
23522609 53 17896344488129369989
23576562 1 14563398244292439278
25269216 80 18337679620690864908
3004659 81 18113333124163621393
3178227 256 16559028282173542878
392239 28 15841546388277531213
4107672 100 17894905171457329149
4149490 64 18342734140342456938
439807 62 18201722838498915746
44249763 50 10809636912771121793
4461854 278 16630525129508137238
44880168 125 18202272628572939551
474113 269 17774987021878760903
5372103 7 12035447246254101154
5385378 56 12247681540048741644
54039377 194 18409452487639276479
5937810 71 12685080459686224727
6058803 2 16157060969653814808
636775 8 18342745083655811726
6691757 9 13182442323469072100
9831232 110 18339361868780570454
9896288 288 17916309325249094937
999808 66 17917991642474495062

>  <PUBCHEM_SHAPE_MULTIPOLES>  (1) 
743.91
24.41
3.24
2
10.45
0.54
0.33
26.36
-2.77
1.7
-0.5
-1.82
-0.62
2.07

>  <PUBCHEM_SHAPE_SELFOVERLAP>  (1) 
1607.603

>  <PUBCHEM_SHAPE_VOLUME>  (1) 
402.9

>  <PUBCHEM_COORDINATE_TYPE>  (1) 
2
5
10

$$$$
