20349
     RDKit          3D

 15 16  0  0  0  0  0  0  0  0999 V2000
    5.7292   -0.0008    0.3695 Cl  0  0  0  0  0  0  0  0  0  0  0  0
   -0.1044    0.0001   -0.5744 N   0  0  0  0  0  0  0  0  0  0  0  0
   -0.7148    0.0002    0.5204 N   0  0  0  0  0  0  0  0  0  0  0  0
    1.2831    0.0001   -0.3508 C   0  0  0  0  0  0  0  0  0  0  0  0
   -2.0955    0.0003    0.2983 C   0  0  0  0  0  0  0  0  0  0  0  0
    1.9646   -1.2078   -0.2409 C   0  0  0  0  0  0  0  0  0  0  0  0
    1.9647    1.2082   -0.2401 C   0  0  0  0  0  0  0  0  0  0  0  0
   -2.7840   -1.2079    0.1877 C   0  0  0  0  0  0  0  0  0  0  0  0
   -2.7843    1.2081    0.1870 C   0  0  0  0  0  0  0  0  0  0  0  0
    3.3414   -1.2079   -0.0179 C   0  0  0  0  0  0  0  0  0  0  0  0
    3.3417    1.2082   -0.0172 C   0  0  0  0  0  0  0  0  0  0  0  0
    4.0302    0.0001    0.0939 C   0  0  0  0  0  0  0  0  0  0  0  0
   -4.1610   -1.2082   -0.0345 C   0  0  0  0  0  0  0  0  0  0  0  0
   -4.1613    1.2077   -0.0351 C   0  0  0  0  0  0  0  0  0  0  0  0
   -4.8497   -0.0005   -0.1459 C   0  0  0  0  0  0  0  0  0  0  0  0
  1 12  1  0
  2  3  2  0
  2  4  1  0
  3  5  1  0
  4  6  2  0
  4  7  1  0
  5  8  2  0
  5  9  1  0
  6 10  1  0
  7 11  2  0
  8 13  1  0
  9 14  2  0
 10 12  2  0
 11 12  1  0
 13 15  2  0
 14 15  1  0
M  END
>  <PUBCHEM_COMPOUND_CID>  (1) 
20349

>  <PUBCHEM_CONFORMER_RMSD>  (1) 
0.6

>  <PUBCHEM_CONFORMER_DIVERSEORDER>  (1) 
1
2

>  <PUBCHEM_MMFF94_PARTIAL_CHARGES>  (1) 
24
1 -0.18
10 -0.15
11 -0.15
12 0.18
13 -0.15
14 -0.15
15 -0.15
16 0.15
17 0.15
18 0.15
19 0.15
2 -0.18
20 0.15
21 0.15
22 0.15
23 0.15
24 0.15
3 -0.18
4 0.18
5 0.18
6 -0.15
7 -0.15
8 -0.15
9 -0.15

>  <PUBCHEM_EFFECTIVE_ROTOR_COUNT>  (1) 
2

>  <PUBCHEM_PHARMACOPHORE_FEATURES>  (1) 
2
6 4 6 7 10 11 12 rings
6 5 8 9 13 14 15 rings

>  <PUBCHEM_HEAVY_ATOM_COUNT>  (1) 
15

>  <PUBCHEM_ATOM_DEF_STEREO_COUNT>  (1) 
0

>  <PUBCHEM_ATOM_UDEF_STEREO_COUNT>  (1) 
0

>  <PUBCHEM_BOND_DEF_STEREO_COUNT>  (1) 
0

>  <PUBCHEM_BOND_UDEF_STEREO_COUNT>  (1) 
0

>  <PUBCHEM_ISOTOPIC_ATOM_COUNT>  (1) 
0

>  <PUBCHEM_COMPONENT_COUNT>  (1) 
1

>  <PUBCHEM_CACTVS_TAUTO_COUNT>  (1) 
1

>  <PUBCHEM_CONFORMER_ID>  (1) 
00004F7D00000001

>  <PUBCHEM_MMFF94_ENERGY>  (1) 
38.6376

>  <PUBCHEM_FEATURE_SELFOVERLAP>  (1) 
10.149

>  <PUBCHEM_SHAPE_FINGERPRINT>  (1) 
10014705 185 18260546702280113261
11401426 45 18334011691995682426
11615757 297 17275108357396570209
12107183 9 17689433784901257168
12236239 1 17918273151794905254
12251169 10 18411418427535882518
12507557 5 18272932738741331184
13167823 11 18410291419385325355
14123238 8 18410573985151451148
15375358 24 18410296903963642811
17802600 8 18411979169686521257
17834072 33 18409168844078309300
18186145 218 17749105595506581659
18522853 276 18343865510893253409
19050596 39 18411704304785428153
19489759 90 18411133636823287857
200 152 18202843257943034123
20279233 1 18334866012541215347
20645477 56 18335140848247709061
20645477 70 18271246015043034982
21267235 1 18410583893667617135
21709351 56 18409161134448515572
22485316 2 18335419049694260666
23402539 116 18410005542356962117
23402655 69 18412545396668003228
23557571 272 18202289069528224533
23559900 14 18412541020091040952
26918003 58 18409448102482610619
300161 21 18410005516381325801
351380 180 18410291414963471776
3545911 37 18411702075713258249
42 15 18334296465512499228
4214541 1 18410012122199457997
42788 4 18411136939816584152
5104073 3 18410576188496068185
542803 24 17385727997410796020
573450 72 18334849498703010499
67856867 119 18264207079083170780
69090 78 18409728469695583175
77779 3 18410858763174283773
9709674 26 18411427215065947943
9971528 1 17821446876635372844

>  <PUBCHEM_SHAPE_MULTIPOLES>  (1) 
300.6
11.71
1.41
0.68
1.97
0
0
0
0.76
-0.35
-0.02
0.06
0
0

>  <PUBCHEM_SHAPE_SELFOVERLAP>  (1) 
636.944

>  <PUBCHEM_SHAPE_VOLUME>  (1) 
168.6

>  <PUBCHEM_COORDINATE_TYPE>  (1) 
2
5
10

$$$$
