20346
     RDKit          3D

 20 21  0  0  0  0  0  0  0  0999 V2000
   -0.0010    3.6923   -0.0002 S   0  0  0  0  0  0  0  0  0  0  0  0
   -1.1463    1.2320   -0.3714 N   0  0  0  0  0  0  0  0  0  0  0  0
    1.1455    1.2326    0.3715 N   0  0  0  0  0  0  0  0  0  0  0  0
   -0.0005    1.9927    0.0001 C   0  0  0  0  0  0  0  0  0  0  0  0
   -2.1659    1.7979   -1.2701 C   0  0  0  0  0  0  0  0  0  0  0  0
    2.1648    1.7987    1.2704 C   0  0  0  0  0  0  0  0  0  0  0  0
   -1.4199   -0.0794    0.1837 C   0  0  0  0  0  0  0  0  0  0  0  0
    1.4199   -0.0786   -0.1837 C   0  0  0  0  0  0  0  0  0  0  0  0
   -3.5086    1.9192   -0.5698 C   0  0  0  0  0  0  0  0  0  0  0  0
    3.5076    1.9206    0.5700 C   0  0  0  0  0  0  0  0  0  0  0  0
   -0.9850   -0.3429    1.4541 C   0  0  0  0  0  0  0  0  0  0  0  0
    0.9852   -0.3422   -1.4541 C   0  0  0  0  0  0  0  0  0  0  0  0
   -2.0979   -0.9781   -0.5942 C   0  0  0  0  0  0  0  0  0  0  0  0
    2.0984   -0.9769    0.5942 C   0  0  0  0  0  0  0  0  0  0  0  0
   -1.2485   -1.6042    1.9884 C   0  0  0  0  0  0  0  0  0  0  0  0
    1.2494   -1.6033   -1.9885 C   0  0  0  0  0  0  0  0  0  0  0  0
   -2.3614   -2.2393   -0.0597 C   0  0  0  0  0  0  0  0  0  0  0  0
    2.3627   -2.2379    0.0596 C   0  0  0  0  0  0  0  0  0  0  0  0
   -1.9367   -2.5522    1.2316 C   0  0  0  0  0  0  0  0  0  0  0  0
    1.9381   -2.5510   -1.2318 C   0  0  0  0  0  0  0  0  0  0  0  0
  1  4  2  0
  2  4  1  0
  2  5  1  0
  2  7  1  0
  3  4  1  0
  3  6  1  0
  3  8  1  0
  5  9  1  0
  6 10  1  0
  7 11  2  0
  7 13  1  0
  8 12  2  0
  8 14  1  0
 11 15  1  0
 12 16  1  0
 13 17  2  0
 14 18  2  0
 15 19  2  0
 16 20  2  0
 17 19  1  0
 18 20  1  0
M  END
>  <PUBCHEM_COMPOUND_CID>  (1) 
20346

>  <PUBCHEM_CONFORMER_RMSD>  (1) 
0.8

>  <PUBCHEM_CONFORMER_DIVERSEORDER>  (1) 
1
15
3
19
9
27
17
2
26
28
13
23
6
12
16
30
14
24
22
18
7
4
25
20
11
10
8
29
5
21

>  <PUBCHEM_MMFF94_PARTIAL_CHARGES>  (1) 
28
1 -0.38
11 -0.15
12 -0.15
13 -0.15
14 -0.15
15 -0.15
16 -0.15
17 -0.15
18 -0.15
19 -0.15
2 -0.48
20 -0.15
3 -0.48
31 0.15
32 0.15
33 0.15
34 0.15
35 0.15
36 0.15
37 0.15
38 0.15
39 0.15
4 0.5
40 0.15
5 0.3
6 0.3
7 0.12
8 0.12

>  <PUBCHEM_EFFECTIVE_ROTOR_COUNT>  (1) 
6

>  <PUBCHEM_PHARMACOPHORE_FEATURES>  (1) 
3
1 1 acceptor
6 7 11 13 15 17 19 rings
6 8 12 14 16 18 20 rings

>  <PUBCHEM_HEAVY_ATOM_COUNT>  (1) 
20

>  <PUBCHEM_ATOM_DEF_STEREO_COUNT>  (1) 
0

>  <PUBCHEM_ATOM_UDEF_STEREO_COUNT>  (1) 
0

>  <PUBCHEM_BOND_DEF_STEREO_COUNT>  (1) 
0

>  <PUBCHEM_BOND_UDEF_STEREO_COUNT>  (1) 
0

>  <PUBCHEM_ISOTOPIC_ATOM_COUNT>  (1) 
0

>  <PUBCHEM_COMPONENT_COUNT>  (1) 
1

>  <PUBCHEM_CACTVS_TAUTO_COUNT>  (1) 
1

>  <PUBCHEM_CONFORMER_ID>  (1) 
00004F7A00000001

>  <PUBCHEM_MMFF94_ENERGY>  (1) 
106.6878

>  <PUBCHEM_FEATURE_SELFOVERLAP>  (1) 
15.223

>  <PUBCHEM_SHAPE_FINGERPRINT>  (1) 
10863032 1 18339066151254053030
10906281 52 18127695920499411176
11578080 2 18194434192682013569
12423570 1 9021227588872204105
13140716 1 18336824191268511067
14142880 1 15822400948722660577
14178342 30 17763771053450038563
14817 1 12694186571055973135
15309172 13 17839749497277725968
15881359 60 17548111781614416250
16945 1 18053088537052030444
19765921 60 16604375151568024165
20600515 1 17759804741688808718
20645476 183 16881069632157345675
20905425 154 18336256950779982362
23419403 2 18127156145640535435
23526113 38 17979637836006833166
23559900 14 18193553364532402802
2748010 2 18342454893705049972
3250762 1 18410857654856456545
5845 1 12045388047013219972
81228 2 18114191873374084017

>  <PUBCHEM_SHAPE_MULTIPOLES>  (1) 
405.48
4.29
4
1.63
0
1.52
0
0.37
0
0
0
0
-0.76
1.86

>  <PUBCHEM_SHAPE_SELFOVERLAP>  (1) 
846.206

>  <PUBCHEM_SHAPE_VOLUME>  (1) 
231.7

>  <PUBCHEM_COORDINATE_TYPE>  (1) 
2
5
10

$$$$
