20351
     RDKit          3D

 23 25  0  0  0  0  0  0  0  0999 V2000
    0.3924    2.4691    0.2054 O   0  0  0  0  0  0  0  0  0  0  0  0
   -0.1262    0.2211    0.4539 N   0  0  0  0  0  0  0  0  0  0  0  0
   -3.7580    0.9823   -0.0329 N   0  0  0  0  0  0  0  0  0  0  0  0
    2.1932   -0.9541   -1.1009 N   0  0  0  0  0  0  0  0  0  0  0  0
   -1.4997    0.5982    0.8290 C   0  0  0  0  0  0  0  0  0  0  0  0
   -2.3938    0.6261   -0.4071 C   0  0  0  0  0  0  0  0  0  0  0  0
    0.1292   -1.1880    0.2801 C   0  0  0  0  0  0  0  0  0  0  0  0
   -4.3029    0.0081    0.9140 C   0  0  0  0  0  0  0  0  0  0  0  0
   -4.6110    1.0697   -1.2191 C   0  0  0  0  0  0  0  0  0  0  0  0
    0.7640    1.2910    0.2674 C   0  0  0  0  0  0  0  0  0  0  0  0
    1.1523   -1.7041   -0.5326 C   0  0  0  0  0  0  0  0  0  0  0  0
    2.2276    1.1116    0.2259 C   0  0  0  0  0  0  0  0  0  0  0  0
    2.8584    0.1332   -0.5325 C   0  0  0  0  0  0  0  0  0  0  0  0
   -0.7720   -2.1189    0.8571 C   0  0  0  0  0  0  0  0  0  0  0  0
   -5.6999    0.4013    1.3632 C   0  0  0  0  0  0  0  0  0  0  0  0
   -4.0631    2.0764   -2.2164 C   0  0  0  0  0  0  0  0  0  0  0  0
    1.2155   -3.1029   -0.7605 C   0  0  0  0  0  0  0  0  0  0  0  0
    2.9962    2.1038    0.8679 C   0  0  0  0  0  0  0  0  0  0  0  0
    4.2642    0.1764   -0.6477 C   0  0  0  0  0  0  0  0  0  0  0  0
   -0.6829   -3.4943    0.6331 C   0  0  0  0  0  0  0  0  0  0  0  0
    0.3099   -3.9892   -0.1891 C   0  0  0  0  0  0  0  0  0  0  0  0
    4.3849    2.1227    0.7553 C   0  0  0  0  0  0  0  0  0  0  0  0
    5.0215    1.1603   -0.0135 C   0  0  0  0  0  0  0  0  0  0  0  0
  1 10  2  0
  2  5  1  0
  2  7  1  0
  2 10  1  0
  3  6  1  0
  3  8  1  0
  3  9  1  0
  4 11  1  0
  4 13  1  0
  5  6  1  0
  7 11  2  0
  7 14  1  0
  8 15  1  0
  9 16  1  0
 10 12  1  0
 11 17  1  0
 12 13  2  0
 12 18  1  0
 13 19  1  0
 14 20  2  0
 17 21  2  0
 18 22  2  0
 19 23  2  0
 20 21  1  0
 22 23  1  0
M  END
>  <PUBCHEM_COMPOUND_CID>  (1) 
20351

>  <PUBCHEM_CONFORMER_RMSD>  (1) 
0.8

>  <PUBCHEM_CONFORMER_DIVERSEORDER>  (1) 
4
10
9
6
1
12
15
3
13
16
8
7
2
11
5
14

>  <PUBCHEM_MMFF94_PARTIAL_CHARGES>  (1) 
30
1 -0.57
10 0.54
11 0.1
12 0.09
13 0.1
14 -0.15
17 -0.15
18 -0.15
19 -0.15
2 -0.48
20 -0.15
21 -0.15
22 -0.15
23 -0.15
3 -0.81
32 0.4
33 0.15
4 -0.6
40 0.15
41 0.15
42 0.15
43 0.15
44 0.15
45 0.15
46 0.15
5 0.3
6 0.27
7 0.12
8 0.27
9 0.27

>  <PUBCHEM_EFFECTIVE_ROTOR_COUNT>  (1) 
5.4

>  <PUBCHEM_PHARMACOPHORE_FEATURES>  (1) 
7
1 1 acceptor
1 3 cation
1 4 cation
1 4 donor
6 12 13 18 19 22 23 rings
6 7 11 14 17 20 21 rings
7 2 4 7 10 11 12 13 rings

>  <PUBCHEM_HEAVY_ATOM_COUNT>  (1) 
23

>  <PUBCHEM_ATOM_DEF_STEREO_COUNT>  (1) 
0

>  <PUBCHEM_ATOM_UDEF_STEREO_COUNT>  (1) 
0

>  <PUBCHEM_BOND_DEF_STEREO_COUNT>  (1) 
0

>  <PUBCHEM_BOND_UDEF_STEREO_COUNT>  (1) 
0

>  <PUBCHEM_ISOTOPIC_ATOM_COUNT>  (1) 
0

>  <PUBCHEM_COMPONENT_COUNT>  (1) 
1

>  <PUBCHEM_CACTVS_TAUTO_COUNT>  (1) 
2

>  <PUBCHEM_CONFORMER_ID>  (1) 
00004F7F00000004

>  <PUBCHEM_MMFF94_ENERGY>  (1) 
97.9524

>  <PUBCHEM_FEATURE_SELFOVERLAP>  (1) 
35.536

>  <PUBCHEM_SHAPE_FINGERPRINT>  (1) 
10411042 1 17620204126154731919
105312 117 18260541255871036276
10688039 33 17686621659454847483
10693767 8 17916298334264599078
10764073 3 15798158366654988080
10871710 139 16817731551795877468
10906281 52 18059308659652828128
11578080 2 16268544104020482074
12035758 1 18338524152251530496
12236239 1 17203616964993034497
12403259 415 18334018271901631701
12553582 1 17329997893827878051
12730499 353 18336830801819219693
12769317 202 18340195293940656765
12969540 114 18410001152568316668
13034934 17 18262533584152730371
13140716 1 18412832408411790866
13402501 40 18336556005458684443
13540713 4 17842852289749238028
13583140 156 16733806718437430897
13911987 19 18409455811923163565
16728300 4 17607785237672797202
18915476 22 18338231549562908493
20567600 347 18187086139631243643
21033648 29 18337377327238453081
21521239 73 17917702517775856878
22182313 1 18198363907817535734
23419403 2 16882132834379599230
23559900 14 17902785271992542699
266924 87 18194680371791825524
2748010 2 18198084632011643782
335352 9 18341902900756208158
4340502 62 18341343253205486379
4371632 12 15119830443614573360
53917941 68 18269254924038664518
59755656 215 18408887339400629387
633830 44 18060145318854606577
6669772 16 18342459227469801646
7399639 24 18260551096184416845
7471813 234 17693076488499505719
81228 2 17614834549824936411

>  <PUBCHEM_SHAPE_MULTIPOLES>  (1) 
452.52
9.72
3.87
1.3
5.89
4.57
-0.38
-8.2
0.06
-1.01
-0.2
1.46
-0.46
1.95

>  <PUBCHEM_SHAPE_SELFOVERLAP>  (1) 
964.096

>  <PUBCHEM_SHAPE_VOLUME>  (1) 
251

>  <PUBCHEM_COORDINATE_TYPE>  (1) 
2
5
10

$$$$
