20356
     RDKit          3D

 32 36  0  0  1  0  0  0  0  0999 V2000
    3.3366   -1.0985   -0.4520 O   0  0  0  0  0  0  0  0  0  0  0  0
   -6.3015   -3.3855    0.0943 O   0  0  0  0  0  0  0  0  0  0  0  0
    6.1407   -1.7508   -0.4034 O   0  0  0  0  0  0  0  0  0  0  0  0
    7.8260   -0.6019    0.5474 O   0  0  0  0  0  0  0  0  0  0  0  0
    8.2968   -2.4959   -0.6616 O   0  0  0  0  0  0  0  0  0  0  0  0
   -3.8273    2.1754    0.2266 C   0  0  0  0  0  0  0  0  0  0  0  0
   -4.8126    1.2479   -0.4801 C   0  0  0  0  0  0  0  0  0  0  0  0
   -2.3963    1.7060    0.0835 C   0  0  0  0  0  0  0  0  0  0  0  0
   -2.0689    0.3906   -0.0068 C   0  0  0  0  0  0  0  0  0  0  0  0
   -4.5150   -0.1945   -0.1749 C   0  0  0  0  0  0  0  0  0  0  0  0
   -3.1841   -0.6050    0.0401 C   0  0  0  0  0  0  0  0  0  0  0  0
   -0.6416   -0.0019   -0.1245 C   0  0  0  0  0  0  0  0  0  0  0  0
   -1.4056    2.8037    0.0614 C   0  0  0  0  0  0  0  0  0  0  0  0
   -5.5552   -1.1349   -0.1656 C   0  0  0  0  0  0  0  0  0  0  0  0
   -2.9342   -1.9657    0.2840 C   0  0  0  0  0  0  0  0  0  0  0  0
   -5.2868   -2.4791    0.0798 C   0  0  0  0  0  0  0  0  0  0  0  0
   -3.9784   -2.8933    0.3066 C   0  0  0  0  0  0  0  0  0  0  0  0
   -0.0695   -0.1416   -1.3828 C   0  0  0  0  0  0  0  0  0  0  0  0
    0.1056   -0.2258    1.0254 C   0  0  0  0  0  0  0  0  0  0  0  0
   -1.0352    3.3763   -1.1520 C   0  0  0  0  0  0  0  0  0  0  0  0
   -0.8500    3.2580    1.2538 C   0  0  0  0  0  0  0  0  0  0  0  0
    2.0288   -0.7378   -0.3442 C   0  0  0  0  0  0  0  0  0  0  0  0
    5.6055   -0.5099    0.0425 C   0  0  0  0  0  0  0  0  0  0  0  0
    1.2711   -0.5111   -1.4931 C   0  0  0  0  0  0  0  0  0  0  0  0
    1.4461   -0.5951    0.9150 C   0  0  0  0  0  0  0  0  0  0  0  0
    4.2103   -0.6967    0.6022 C   0  0  0  0  0  0  0  0  0  0  0  0
    6.6121   -0.0741    1.0656 C   0  0  0  0  0  0  0  0  0  0  0  0
   -0.1011    4.4122   -1.1731 C   0  0  0  0  0  0  0  0  0  0  0  0
    0.0841    4.2938    1.2329 C   0  0  0  0  0  0  0  0  0  0  0  0
    0.4584    4.8709    0.0194 C   0  0  0  0  0  0  0  0  0  0  0  0
    7.4949   -1.6896   -0.2146 C   0  0  0  0  0  0  0  0  0  0  0  0
   -5.9539   -4.7460    0.3483 C   0  0  0  0  0  0  0  0  0  0  0  0
  1 22  1  0
  1 26  1  0
  2 16  1  0
  2 32  1  0
  3 23  1  0
  3 31  1  0
  4 27  1  0
  4 31  1  0
  5 31  2  0
  6  7  1  0
  6  8  1  0
  7 10  1  0
  8  9  2  0
  8 13  1  0
  9 11  1  0
  9 12  1  0
 10 11  2  0
 10 14  1  0
 11 15  1  0
 12 18  2  0
 12 19  1  0
 13 20  2  0
 13 21  1  0
 14 16  2  0
 15 17  2  0
 16 17  1  0
 18 24  1  0
 19 25  2  0
 20 28  1  0
 21 29  2  0
 22 24  2  0
 22 25  1  0
 23 26  1  0
 23 27  1  0
 28 30  2  0
 29 30  1  0
M  END
>  <PUBCHEM_COMPOUND_CID>  (1) 
20356

>  <PUBCHEM_CONFORMER_RMSD>  (1) 
1

>  <PUBCHEM_CONFORMER_DIVERSEORDER>  (1) 
2
10
14
9
11
8
3
13
5
1
4
6
16
15
7
12

>  <PUBCHEM_MMFF94_PARTIAL_CHARGES>  (1) 
44
1 -0.36
10 -0.14
11 0.03
12 0.03
13 0.03
14 -0.15
15 -0.15
16 0.08
17 -0.15
18 -0.15
19 -0.15
2 -0.36
20 -0.15
21 -0.15
22 0.08
23 0.28
24 -0.15
25 -0.15
26 0.28
27 0.28
28 -0.15
29 -0.15
3 -0.43
30 -0.15
31 0.87
32 0.28
37 0.15
38 0.15
39 0.15
4 -0.43
40 0.15
41 0.15
42 0.15
43 0.15
45 0.15
46 0.15
5 -0.57
51 0.15
52 0.15
53 0.15
6 0.14
7 0.14
8 -0.17
9 -0.06

>  <PUBCHEM_EFFECTIVE_ROTOR_COUNT>  (1) 
7.2

>  <PUBCHEM_PHARMACOPHORE_FEATURES>  (1) 
7
1 1 acceptor
1 2 acceptor
5 3 4 23 27 31 rings
6 10 11 14 15 16 17 rings
6 12 18 19 22 24 25 rings
6 13 20 21 28 29 30 rings
6 6 7 8 9 10 11 rings

>  <PUBCHEM_HEAVY_ATOM_COUNT>  (1) 
32

>  <PUBCHEM_ATOM_DEF_STEREO_COUNT>  (1) 
0

>  <PUBCHEM_ATOM_UDEF_STEREO_COUNT>  (1) 
1

>  <PUBCHEM_BOND_DEF_STEREO_COUNT>  (1) 
0

>  <PUBCHEM_BOND_UDEF_STEREO_COUNT>  (1) 
0

>  <PUBCHEM_ISOTOPIC_ATOM_COUNT>  (1) 
0

>  <PUBCHEM_COMPONENT_COUNT>  (1) 
1

>  <PUBCHEM_CACTVS_TAUTO_COUNT>  (1) 
1

>  <PUBCHEM_CONFORMER_ID>  (1) 
00004F8400000002

>  <PUBCHEM_MMFF94_ENERGY>  (1) 
114.6403

>  <PUBCHEM_FEATURE_SELFOVERLAP>  (1) 
35.548

>  <PUBCHEM_SHAPE_FINGERPRINT>  (1) 
10050765 1 18193839465536453101
100830 39 18266740174349512236
10290309 65 17831578674221626165
10411042 1 18338518646504376403
1100329 8 18411989036281643185
11488393 25 17977679919752402785
11963148 33 17259340497931299695
12166972 35 17822294617069312860
12741549 16 17561082510456346289
12788726 201 18188484653690855563
13540713 4 18119232103980958861
13782708 43 17988641870472440662
14068700 675 18186802483037649012
14394314 77 18408888400136576931
14713325 29 18127691535348253928
14856354 85 18410017611194484790
14955137 171 18200589319220402633
15324884 4 17985797480835155865
15419008 47 18131344203433848968
15876981 60 18334583408125503460
15927050 60 17404867441408619540
16087824 20 18264487279499372261
17492 89 18194118753984556443
17686467 74 18412538843545013336
19611394 137 18341051899503632914
20600515 1 18270976648080350045
21304303 172 18272653412102979673
21315759 40 17749953255402097690
21796203 349 17975731503480685155
21927370 108 18335155184521060843
22899556 105 18120110616932357079
22956985 138 17976540834016126311
23559900 14 18266169716587568249
25019877 29 16845292778072609446
255183 451 18265890453281923991
3418910 222 18411425038409182744
3504750 166 18044083554581273634
4017518 198 17327181451923518876
4280585 95 18408881841478935421
469060 322 18338808818658266216
6057620 51 18260553342763782862
6673363 416 18339372924886337412
6700243 42 17914367656576175940

>  <PUBCHEM_SHAPE_MULTIPOLES>  (1) 
629.2
17.4
5.96
1.09
33.9
5.14
-0.08
-24.83
0.68
-6.21
0.28
0.48
0.55
1.07

>  <PUBCHEM_SHAPE_SELFOVERLAP>  (1) 
1390.365

>  <PUBCHEM_SHAPE_VOLUME>  (1) 
336.9

>  <PUBCHEM_COORDINATE_TYPE>  (1) 
2
5
10

$$$$
