20364
     RDKit          3D

 13 13  0  0  0  0  0  0  0  0999 V2000
    6.6467    0.0652   -0.2613 O   0  0  0  0  0  0  0  0  0  0  0  0
   -2.1000   -0.3762    0.2807 C   0  0  0  0  0  0  0  0  0  0  0  0
   -2.3001    1.0330   -0.2934 C   0  0  0  0  0  0  0  0  0  0  0  0
   -3.2527   -1.3023   -0.1299 C   0  0  0  0  0  0  0  0  0  0  0  0
   -0.7583   -0.9546   -0.1649 C   0  0  0  0  0  0  0  0  0  0  0  0
   -3.6588    1.6120    0.0948 C   0  0  0  0  0  0  0  0  0  0  0  0
   -4.6098   -0.7193    0.2578 C   0  0  0  0  0  0  0  0  0  0  0  0
   -4.8014    0.6847   -0.3072 C   0  0  0  0  0  0  0  0  0  0  0  0
    0.4093   -0.1053    0.3389 C   0  0  0  0  0  0  0  0  0  0  0  0
    1.7759   -0.6029   -0.1410 C   0  0  0  0  0  0  0  0  0  0  0  0
    2.9378    0.2889    0.3019 C   0  0  0  0  0  0  0  0  0  0  0  0
    4.2719   -0.2399   -0.2229 C   0  0  0  0  0  0  0  0  0  0  0  0
    5.4396    0.6165    0.2465 C   0  0  0  0  0  0  0  0  0  0  0  0
  1 13  1  0
  2  3  1  0
  2  4  1  0
  2  5  1  0
  3  6  1  0
  4  7  1  0
  5  9  1  0
  6  8  1  0
  7  8  1  0
  9 10  1  0
 10 11  1  0
 11 12  1  0
 12 13  1  0
M  END
>  <PUBCHEM_COMPOUND_CID>  (1) 
20364

>  <PUBCHEM_CONFORMER_RMSD>  (1) 
0.8

>  <PUBCHEM_CONFORMER_DIVERSEORDER>  (1) 
1
60
59
24
62
63
9
8
56
31
34
17
50
55
15
14
37
42
23
2
41
5
58
22
47
12
30
16
13
18
61
52
44
38
35
21
3
10
46
36
25
7
32
53
40
54
20
28
29
33
39
49
57
11
19
26
67
48
6
65
45
4
43
51
68
64
66
27

>  <PUBCHEM_MMFF94_PARTIAL_CHARGES>  (1) 
3
1 -0.68
13 0.28
37 0.4

>  <PUBCHEM_EFFECTIVE_ROTOR_COUNT>  (1) 
7.2

>  <PUBCHEM_PHARMACOPHORE_FEATURES>  (1) 
4
1 1 acceptor
1 1 donor
5 5 9 10 11 12 hydrophobe
6 2 3 4 6 7 8 rings

>  <PUBCHEM_HEAVY_ATOM_COUNT>  (1) 
13

>  <PUBCHEM_ATOM_DEF_STEREO_COUNT>  (1) 
0

>  <PUBCHEM_ATOM_UDEF_STEREO_COUNT>  (1) 
0

>  <PUBCHEM_BOND_DEF_STEREO_COUNT>  (1) 
0

>  <PUBCHEM_BOND_UDEF_STEREO_COUNT>  (1) 
0

>  <PUBCHEM_ISOTOPIC_ATOM_COUNT>  (1) 
0

>  <PUBCHEM_COMPONENT_COUNT>  (1) 
1

>  <PUBCHEM_CACTVS_TAUTO_COUNT>  (1) 
1

>  <PUBCHEM_CONFORMER_ID>  (1) 
00004F8C00000001

>  <PUBCHEM_MMFF94_ENERGY>  (1) 
5.348

>  <PUBCHEM_FEATURE_SELFOVERLAP>  (1) 
20.297

>  <PUBCHEM_SHAPE_FINGERPRINT>  (1) 
10680689 15 18273214231124634043
114248 4 18060138743227579626
12091667 2 18410575106486302434
13214271 11 18410854365613160583
13897977 58 18334857208227367661
14123238 8 18333731321194767002
14251718 22 18413108381281836658
15242439 84 17989486329487367674
15501527 16 18413390933973604849
15778101 99 18342181008078145145
17834072 33 18334577983908465868
17834076 25 18113337514274293018
187816 3 16056881333777705650
19489759 90 18334294275052824091
200 152 15841833339232049299
20281389 69 18187080646753147924
20645477 56 18413106160556897815
20645477 70 17346046567642338670
20767249 213 18259703397692750285
2297311 6 18343027695996820181
23402539 116 18410569608595770006
23402655 69 18060417984673622822
23557571 272 18272376368666997757
23559900 14 18343576365263129896
2916195 48 18342169012360886768
300161 21 17968087612380555658
3545911 37 18412263925938709010
4214541 1 18411136943800419048
42788 4 18410856573046943906
441001 317 18412826871702924609
542803 24 17748827423375532918

>  <PUBCHEM_SHAPE_MULTIPOLES>  (1) 
261.66
13.95
1.26
0.67
18.87
0.17
0.01
2.24
-0.51
-1.51
-0.02
-0.04
0
0.22

>  <PUBCHEM_SHAPE_SELFOVERLAP>  (1) 
491.442

>  <PUBCHEM_SHAPE_VOLUME>  (1) 
161.8

>  <PUBCHEM_COORDINATE_TYPE>  (1) 
2
5
10

$$$$
