20360
     RDKit          3D

  9  9  0  0  0  0  0  0  0  0999 V2000
   -1.3114    0.4176   -1.0567 O   0  0  0  0  0  0  0  0  0  0  0  0
   -0.6616   -0.4552    1.0250 O   0  0  0  0  0  0  0  0  0  0  0  0
   -0.2882    0.4243   -0.0480 C   0  0  0  0  0  0  0  0  0  0  0  0
    1.0185   -0.0736   -0.6528 C   0  0  0  0  0  0  0  0  0  0  0  0
    2.1316   -0.1221    0.3904 C   0  0  0  0  0  0  0  0  0  0  0  0
   -2.1507   -0.6845   -0.7133 C   0  0  0  0  0  0  0  0  0  0  0  0
   -2.0359   -0.7559    0.7846 C   0  0  0  0  0  0  0  0  0  0  0  0
   -0.1444    1.8424    0.4900 C   0  0  0  0  0  0  0  0  0  0  0  0
    3.4422   -0.5929   -0.2193 C   0  0  0  0  0  0  0  0  0  0  0  0
  1  3  1  0
  1  6  1  0
  2  3  1  0
  2  7  1  0
  3  4  1  0
  3  8  1  0
  4  5  1  0
  5  9  1  0
  6  7  1  0
M  END
>  <PUBCHEM_COMPOUND_CID>  (1) 
20360

>  <PUBCHEM_CONFORMER_RMSD>  (1) 
0.6

>  <PUBCHEM_CONFORMER_DIVERSEORDER>  (1) 
2
4
7
6
5
1
3

>  <PUBCHEM_MMFF94_PARTIAL_CHARGES>  (1) 
5
1 -0.56
2 -0.56
3 0.56
6 0.28
7 0.28

>  <PUBCHEM_EFFECTIVE_ROTOR_COUNT>  (1) 
3

>  <PUBCHEM_PHARMACOPHORE_FEATURES>  (1) 
4
1 1 acceptor
1 2 acceptor
1 9 hydrophobe
5 1 2 3 6 7 rings

>  <PUBCHEM_HEAVY_ATOM_COUNT>  (1) 
9

>  <PUBCHEM_ATOM_DEF_STEREO_COUNT>  (1) 
0

>  <PUBCHEM_ATOM_UDEF_STEREO_COUNT>  (1) 
0

>  <PUBCHEM_BOND_DEF_STEREO_COUNT>  (1) 
0

>  <PUBCHEM_BOND_UDEF_STEREO_COUNT>  (1) 
0

>  <PUBCHEM_ISOTOPIC_ATOM_COUNT>  (1) 
0

>  <PUBCHEM_COMPONENT_COUNT>  (1) 
1

>  <PUBCHEM_CACTVS_TAUTO_COUNT>  (1) 
1

>  <PUBCHEM_CONFORMER_ID>  (1) 
00004F8800000002

>  <PUBCHEM_MMFF94_ENERGY>  (1) 
16.3587

>  <PUBCHEM_FEATURE_SELFOVERLAP>  (1) 
20.338

>  <PUBCHEM_SHAPE_FINGERPRINT>  (1) 
12897270 3 16805322219030690070
12932764 1 17489585615809118382
13024252 1 18041003894913809021
137420 1 13033526972336597333
14128692 85 17604723298924642878
14390081 3 8646775486470871654
15310529 11 15068339012304185770
20653085 51 15068622647628373462
21040471 1 16517898863228852551
23552423 10 16153993559459886050
29004967 10 18343584078865955755
369184 2 18059853943867138530

>  <PUBCHEM_SHAPE_MULTIPOLES>  (1) 
173.48
3.89
1.22
1.01
3.11
0.7
0.02
-1.64
-0.03
-0.19
0.08
-0.4
-0.09
0.09

>  <PUBCHEM_SHAPE_SELFOVERLAP>  (1) 
334.758

>  <PUBCHEM_SHAPE_VOLUME>  (1) 
107.5

>  <PUBCHEM_COORDINATE_TYPE>  (1) 
2
5
10

$$$$
