20366
     RDKit          3D

 17 18  0  0  1  0  0  0  0  0999 V2000
   -1.2873   -2.6775   -1.3889 O   0  0  0  0  0  0  0  0  0  0  0  0
   -2.9421    1.4872   -0.4107 O   0  0  0  0  0  0  0  0  0  0  0  0
   -2.0644   -0.5768   -0.8754 N   0  0  0  0  0  0  0  0  0  0  0  0
   -0.3843   -2.3755    2.4331 N   0  0  0  0  0  0  0  0  0  0  0  0
   -0.3928    3.5724    0.6949 N   0  0  0  0  0  0  0  0  0  0  0  0
    0.4700    0.1790    0.0982 C   0  0  0  0  0  0  0  0  0  0  0  0
    0.9397    0.6628   -1.3144 C   0  0  0  0  0  0  0  0  0  0  0  0
    1.6536    0.4263    1.0879 C   0  0  0  0  0  0  0  0  0  0  0  0
    0.0881   -1.3368    0.0546 C   0  0  0  0  0  0  0  0  0  0  0  0
   -0.7927    0.9679    0.5729 C   0  0  0  0  0  0  0  0  0  0  0  0
    2.2643    0.0470   -1.7728 C   0  0  0  0  0  0  0  0  0  0  0  0
    2.9660   -0.2189    0.6411 C   0  0  0  0  0  0  0  0  0  0  0  0
    3.3738    0.2538   -0.7491 C   0  0  0  0  0  0  0  0  0  0  0  0
   -1.1271   -1.5988   -0.8159 C   0  0  0  0  0  0  0  0  0  0  0  0
   -2.0200    0.6797   -0.2840 C   0  0  0  0  0  0  0  0  0  0  0  0
   -0.1764   -1.9186    1.3871 C   0  0  0  0  0  0  0  0  0  0  0  0
   -0.5686    2.4269    0.6413 C   0  0  0  0  0  0  0  0  0  0  0  0
  1 14  2  0
  2 15  2  0
  3 14  1  0
  3 15  1  0
  4 16  3  0
  5 17  3  0
  6  7  1  0
  6  8  1  0
  6  9  1  0
  6 10  1  0
  7 11  1  0
  8 12  1  0
  9 14  1  0
  9 16  1  0
 10 15  1  0
 10 17  1  0
 11 13  1  0
 12 13  1  0
M  END
>  <PUBCHEM_COMPOUND_CID>  (1) 
20366

>  <PUBCHEM_CONFORMER_RMSD>  (1) 
0.6

>  <PUBCHEM_CONFORMER_DIVERSEORDER>  (1) 
1
2
5
4
3

>  <PUBCHEM_MMFF94_PARTIAL_CHARGES>  (1) 
12
1 -0.57
10 0.26
14 0.57
15 0.57
16 0.36
17 0.36
2 -0.57
3 -0.49
30 0.37
4 -0.56
5 -0.56
9 0.26

>  <PUBCHEM_EFFECTIVE_ROTOR_COUNT>  (1) 
1.6

>  <PUBCHEM_PHARMACOPHORE_FEATURES>  (1) 
7
1 1 acceptor
1 2 acceptor
1 3 donor
1 4 acceptor
1 5 acceptor
6 3 6 9 10 14 15 rings
6 6 7 8 11 12 13 rings

>  <PUBCHEM_HEAVY_ATOM_COUNT>  (1) 
17

>  <PUBCHEM_ATOM_DEF_STEREO_COUNT>  (1) 
0

>  <PUBCHEM_ATOM_UDEF_STEREO_COUNT>  (1) 
2

>  <PUBCHEM_BOND_DEF_STEREO_COUNT>  (1) 
0

>  <PUBCHEM_BOND_UDEF_STEREO_COUNT>  (1) 
0

>  <PUBCHEM_ISOTOPIC_ATOM_COUNT>  (1) 
0

>  <PUBCHEM_COMPONENT_COUNT>  (1) 
1

>  <PUBCHEM_CACTVS_TAUTO_COUNT>  (1) 
2

>  <PUBCHEM_CONFORMER_ID>  (1) 
00004F8E00000001

>  <PUBCHEM_MMFF94_ENERGY>  (1) 
36.0597

>  <PUBCHEM_FEATURE_SELFOVERLAP>  (1) 
35.525

>  <PUBCHEM_SHAPE_FINGERPRINT>  (1) 
10702982 57 17894922827392480182
12138202 97 18273777146733816982
12423570 1 16824200511409246860
13024252 1 18041572436988600326
14181834 199 17398081895560114013
14761567 1 17534897799459128290
14817 1 12412511517894586808
15490181 8 17974598834615082316
15906896 17 18189067511013313771
16945 1 18272646805820363692
20645476 183 17822306681510828734
21524375 3 18049174267326091776
22802520 49 17846783992114656022
23402539 116 17988626481008163021
23419403 2 17252598279142533386
23559900 14 18130784543704599548
2748010 2 18057872731172205896
394222 165 18044370526725512457
430814 3 18041567918572157058
576247 118 17688344551336214490
7364860 26 17119733882347365989
81228 2 18412835685250298128

>  <PUBCHEM_SHAPE_MULTIPOLES>  (1) 
323.17
3.53
2.95
1.69
2.04
0.91
0.29
0.55
-1.1
-1.83
1
0.24
-0.95
-0.28

>  <PUBCHEM_SHAPE_SELFOVERLAP>  (1) 
677.583

>  <PUBCHEM_SHAPE_VOLUME>  (1) 
174

>  <PUBCHEM_COORDINATE_TYPE>  (1) 
2
5
10

$$$$
