20365
     RDKit          3D

 11 11  0  0  0  0  0  0  0  0999 V2000
   -2.3902   -2.2418    0.1955 N   0  0  0  0  0  0  0  0  0  0  0  0
   -2.3770    2.2497    0.2067 N   0  0  0  0  0  0  0  0  0  0  0  0
    3.0368   -0.0021    0.1909 C   0  0  0  0  0  0  0  0  0  0  0  0
    2.1985    1.2645    0.3708 C   0  0  0  0  0  0  0  0  0  0  0  0
    2.1961   -1.2649    0.3861 C   0  0  0  0  0  0  0  0  0  0  0  0
    0.9688    1.2667   -0.5384 C   0  0  0  0  0  0  0  0  0  0  0  0
    0.9660   -1.2755   -0.5226 C   0  0  0  0  0  0  0  0  0  0  0  0
    0.1758   -0.0024   -0.3666 C   0  0  0  0  0  0  0  0  0  0  0  0
   -1.1330    0.0009   -0.0757 C   0  0  0  0  0  0  0  0  0  0  0  0
   -1.8246   -1.2359    0.0736 C   0  0  0  0  0  0  0  0  0  0  0  0
   -1.8173    1.2409    0.0797 C   0  0  0  0  0  0  0  0  0  0  0  0
  1 10  3  0
  2 11  3  0
  3  4  1  0
  3  5  1  0
  4  6  1  0
  5  7  1  0
  6  8  1  0
  7  8  1  0
  8  9  2  3
  9 10  1  0
  9 11  1  0
M  END
>  <PUBCHEM_COMPOUND_CID>  (1) 
20365

>  <PUBCHEM_CONFORMER_RMSD>  (1) 
0.4

>  <PUBCHEM_CONFORMER_DIVERSEORDER>  (1) 
1
2
3

>  <PUBCHEM_MMFF94_PARTIAL_CHARGES>  (1) 
8
1 -0.56
10 0.49
11 0.49
2 -0.56
6 0.14
7 0.14
8 -0.28
9 0.13

>  <PUBCHEM_EFFECTIVE_ROTOR_COUNT>  (1) 
1

>  <PUBCHEM_PHARMACOPHORE_FEATURES>  (1) 
3
1 1 acceptor
1 2 acceptor
6 3 4 5 6 7 8 rings

>  <PUBCHEM_HEAVY_ATOM_COUNT>  (1) 
11

>  <PUBCHEM_ATOM_DEF_STEREO_COUNT>  (1) 
0

>  <PUBCHEM_ATOM_UDEF_STEREO_COUNT>  (1) 
0

>  <PUBCHEM_BOND_DEF_STEREO_COUNT>  (1) 
0

>  <PUBCHEM_BOND_UDEF_STEREO_COUNT>  (1) 
0

>  <PUBCHEM_ISOTOPIC_ATOM_COUNT>  (1) 
0

>  <PUBCHEM_COMPONENT_COUNT>  (1) 
1

>  <PUBCHEM_CACTVS_TAUTO_COUNT>  (1) 
1

>  <PUBCHEM_CONFORMER_ID>  (1) 
00004F8D00000001

>  <PUBCHEM_MMFF94_ENERGY>  (1) 
8.538

>  <PUBCHEM_FEATURE_SELFOVERLAP>  (1) 
15.223

>  <PUBCHEM_SHAPE_FINGERPRINT>  (1) 
12251169 10 18336541621265011336
12423570 1 9717318315912808238
13380535 21 18339656537690624414
13380535 76 18269830930734831039
16945 1 18410857659177791166
19973954 147 18411136952448395368
20511035 2 18200584813804444644
20653091 64 18114460154047782928
20715346 28 17917710206231422742
20871998 184 18272654571190021311
21040471 1 18266468606886595949
21501502 16 18409729555952732140
23552423 10 18187649153766067646
2748010 2 18413107251647370310
5084963 1 18129108985982146216

>  <PUBCHEM_SHAPE_MULTIPOLES>  (1) 
216.41
4.14
2.23
0.71
0.57
0.01
-0.03
-0.01
0.65
-1.44
0.14
0.13
0
-0.01

>  <PUBCHEM_SHAPE_SELFOVERLAP>  (1) 
436.352

>  <PUBCHEM_SHAPE_VOLUME>  (1) 
121.3

>  <PUBCHEM_COORDINATE_TYPE>  (1) 
2
5
10

$$$$
