2036
     RDKit          3D

 15 15  0  0  1  0  0  0  0  0999 V2000
    1.1750   -2.9786    0.0011 Br  0  0  0  0  0  0  0  0  0  0  0  0
    2.6449    2.4847    0.6920 Br  0  0  0  0  0  0  0  0  0  0  0  0
   -1.1891    0.6271   -1.7071 O   0  0  0  0  0  0  0  0  0  0  0  0
   -1.1702   -1.0571    1.5055 O   0  0  0  0  0  0  0  0  0  0  0  0
    3.0491   -0.4961    0.1533 O   0  0  0  0  0  0  0  0  0  0  0  0
   -4.3096   -0.5765   -0.2780 N   0  0  0  0  0  0  0  0  0  0  0  0
   -1.0398    0.6165   -0.2790 C   0  0  0  0  0  0  0  0  0  0  0  0
   -0.7144   -0.8379    0.1684 C   0  0  0  0  0  0  0  0  0  0  0  0
   -2.3773    1.1038    0.2898 C   0  0  0  0  0  0  0  0  0  0  0  0
    0.0605    1.5971    0.0586 C   0  0  0  0  0  0  0  0  0  0  0  0
    0.7644   -1.1556    0.1298 C   0  0  0  0  0  0  0  0  0  0  0  0
    1.7014   -0.1917    0.1848 C   0  0  0  0  0  0  0  0  0  0  0  0
    1.3288    1.2130    0.2878 C   0  0  0  0  0  0  0  0  0  0  0  0
   -3.4505    0.1631   -0.0304 C   0  0  0  0  0  0  0  0  0  0  0  0
    3.5268   -0.5119   -1.1769 C   0  0  0  0  0  0  0  0  0  0  0  0
  1 11  1  0
  2 13  1  0
  3  7  1  0
  4  8  1  0
  5 12  1  0
  5 15  1  0
  6 14  3  0
  7  8  1  0
  7  9  1  0
  7 10  1  0
  8 11  1  0
  9 14  1  0
 10 13  2  0
 11 12  2  0
 12 13  1  0
M  END
>  <PUBCHEM_COMPOUND_CID>  (1) 
2036

>  <PUBCHEM_CONFORMER_RMSD>  (1) 
0.6

>  <PUBCHEM_CONFORMER_DIVERSEORDER>  (1) 
1
10
19
15
11
7
2
17
3
4
14
6
13
18
8
9
5
16
12

>  <PUBCHEM_MMFF94_PARTIAL_CHARGES>  (1) 
18
1 -0.11
10 -0.29
11 -0.03
12 0.08
13 0.11
14 0.36
15 0.28
19 0.15
2 -0.11
20 0.4
21 0.4
3 -0.68
4 -0.68
5 -0.36
6 -0.56
7 0.42
8 0.42
9 0.2

>  <PUBCHEM_EFFECTIVE_ROTOR_COUNT>  (1) 
2.4

>  <PUBCHEM_PHARMACOPHORE_FEATURES>  (1) 
9
1 1 hydrophobe
1 2 hydrophobe
1 3 acceptor
1 3 donor
1 4 acceptor
1 4 donor
1 5 acceptor
1 6 acceptor
6 7 8 10 11 12 13 rings

>  <PUBCHEM_HEAVY_ATOM_COUNT>  (1) 
15

>  <PUBCHEM_ATOM_DEF_STEREO_COUNT>  (1) 
0

>  <PUBCHEM_ATOM_UDEF_STEREO_COUNT>  (1) 
2

>  <PUBCHEM_BOND_DEF_STEREO_COUNT>  (1) 
0

>  <PUBCHEM_BOND_UDEF_STEREO_COUNT>  (1) 
0

>  <PUBCHEM_ISOTOPIC_ATOM_COUNT>  (1) 
0

>  <PUBCHEM_COMPONENT_COUNT>  (1) 
1

>  <PUBCHEM_CACTVS_TAUTO_COUNT>  (1) 
1

>  <PUBCHEM_CONFORMER_ID>  (1) 
000007F400000001

>  <PUBCHEM_MMFF94_ENERGY>  (1) 
39.1457

>  <PUBCHEM_FEATURE_SELFOVERLAP>  (1) 
45.672

>  <PUBCHEM_SHAPE_FINGERPRINT>  (1) 
11132069 177 18187921845830109017
11471102 20 18411695478443168029
11680986 33 18264495163929699304
12423570 1 10216107268795894958
13140716 1 18338515351858155546
13380535 76 18196927997070885200
13380536 305 18412545435691895928
14251717 144 18412821412946969919
15219456 202 18265055906159134761
15536298 74 18272650190043817273
16945 1 18340193090527254468
18186145 218 18410289203372137229
193761 8 17906735061366920834
19422 9 17704075109718290885
20201158 50 18334861580214106715
20511035 2 18116160046105512466
20588541 1 18260838059301312698
20645477 70 18201431485282021613
21452121 199 17830438493427387314
21501502 16 18124866009349699216
2334 1 18194122056123135306
23402539 116 17676764271518139934
23526113 38 18188497856605335906
23532345 42 17459189745460252561
2748010 2 18191876823314458642
3060560 45 18342453729478905622
3286 77 18335412444118812540
53812653 11 18411704309064701342
7364860 26 18341609291747962226
7832392 63 17984142552505302265
81228 2 17613150085047290162

>  <PUBCHEM_SHAPE_MULTIPOLES>  (1) 
297.99
5.45
2.61
1.03
3.23
0.79
-0.16
-0.53
-0.74
-2.1
0.48
-0.06
0.03
0.54

>  <PUBCHEM_SHAPE_SELFOVERLAP>  (1) 
586.864

>  <PUBCHEM_SHAPE_VOLUME>  (1) 
183.1

>  <PUBCHEM_COORDINATE_TYPE>  (1) 
2
5
10

$$$$
