20379
     RDKit          3D

 26 27  0  0  0  0  0  0  0  0999 V2000
   -8.0147    1.9811    1.7669 Cl  0  0  0  0  0  0  0  0  0  0  0  0
    6.3850    1.0168    0.1612 N   0  0  0  0  0  0  0  0  0  0  0  0
    2.7132    0.4758    0.0247 N   0  0  0  0  0  0  0  0  0  0  0  0
    0.3823   -0.0078   -0.0236 N   0  0  0  0  0  0  0  0  0  0  0  0
   -0.3983   -2.2087    0.5714 N   0  0  0  0  0  0  0  0  0  0  0  0
   -1.8913   -0.5294   -0.0555 N   0  0  0  0  0  0  0  0  0  0  0  0
   -3.7105   -0.3095   -1.5924 N   0  0  0  0  0  0  0  0  0  0  0  0
   -1.7662   -1.2098   -2.3486 N   0  0  0  0  0  0  0  0  0  0  0  0
    4.9783    1.3361   -0.0800 C   0  0  0  0  0  0  0  0  0  0  0  0
    6.8002   -0.1178   -0.6628 C   0  0  0  0  0  0  0  0  0  0  0  0
    7.2271    2.1812   -0.1103 C   0  0  0  0  0  0  0  0  0  0  0  0
    4.0989    0.1346    0.2420 C   0  0  0  0  0  0  0  0  0  0  0  0
    8.2425   -0.5026   -0.3804 C   0  0  0  0  0  0  0  0  0  0  0  0
    6.8095    3.3705    0.7378 C   0  0  0  0  0  0  0  0  0  0  0  0
    1.6649   -0.4127    0.2041 C   0  0  0  0  0  0  0  0  0  0  0  0
    1.9563   -1.7119    0.6179 C   0  0  0  0  0  0  0  0  0  0  0  0
    0.8853   -2.5657    0.7847 C   0  0  0  0  0  0  0  0  0  0  0  0
   -0.5751   -0.9339    0.1748 C   0  0  0  0  0  0  0  0  0  0  0  0
    1.1261   -3.9704    1.2257 C   0  0  0  0  0  0  0  0  0  0  0  0
   -2.4130   -0.6677   -1.2518 C   0  0  0  0  0  0  0  0  0  0  0  0
   -4.7367    0.2363   -0.7919 C   0  0  0  0  0  0  0  0  0  0  0  0
   -5.7050    1.0588   -1.3661 C   0  0  0  0  0  0  0  0  0  0  0  0
   -4.7808   -0.0477    0.5727 C   0  0  0  0  0  0  0  0  0  0  0  0
   -6.7191    1.5982   -0.5746 C   0  0  0  0  0  0  0  0  0  0  0  0
   -5.7950    0.4917    1.3639 C   0  0  0  0  0  0  0  0  0  0  0  0
   -6.7641    1.3147    0.7903 C   0  0  0  0  0  0  0  0  0  0  0  0
  1 26  1  0
  2  9  1  0
  2 10  1  0
  2 11  1  0
  3 12  1  0
  3 15  1  0
  4 15  2  0
  4 18  1  0
  5 17  1  0
  5 18  2  0
  6 18  1  0
  6 20  2  0
  7 20  1  0
  7 21  1  0
  8 20  1  0
  9 12  1  0
 10 13  1  0
 11 14  1  0
 15 16  1  0
 16 17  2  0
 17 19  1  0
 21 22  2  0
 21 23  1  0
 22 24  1  0
 23 25  2  0
 24 26  2  0
 25 26  1  0
M  END
>  <PUBCHEM_COMPOUND_CID>  (1) 
20379

>  <PUBCHEM_CONFORMER_RMSD>  (1) 
1

>  <PUBCHEM_CONFORMER_DIVERSEORDER>  (1) 
1
211
188
67
13
19
127
87
143
200
115
105
26
38
163
190
206
141
103
97
167
12
154
119
158
179
70
133
63
73
185
44
15
176
54
205
62
197
149
148
161
75
120
203
92
152
173
124
74
35
30
89
126
72
94
102
52
201
199
24
118
34
142
157
184
168
134
208
45
79
106
147
11
104
192
138
113
128
191
214
43
57
29
150
112
137
180
50
9
207
165
136
145
8
181
156
135
88
84
186
20
58
177
83
116
68
210
125
132
122
146
64
99
196
23
41
198
49
21
47
40
123
193
194
53
183
16
51
76
71
171
159
25
69
42
204
109
160
77
189
95
98
108
187
144
86
59
27
162
48
169
111
14
172
33
121
81
202
61
6
129
100
182
195
46
155
2
151
56
130
18
78
85
39
80
5
82
37
110
90
213
22
65
7
28
175
17
101
32
178
174
3
140
60
66
107
36
55
10
91
212
93
96
164
166
4
114
131
153
170
139
31
209
117

>  <PUBCHEM_MMFF94_PARTIAL_CHARGES>  (1) 
33
1 -0.18
10 0.27
11 0.27
12 0.37
15 0.41
16 -0.15
17 0.17
18 0.8
19 0.14
2 -0.81
20 0.55
21 0.1
22 -0.15
23 -0.15
24 -0.15
25 -0.15
26 0.18
3 -0.87
4 -0.62
41 0.4
42 0.15
46 0.4
47 0.15
48 0.15
49 0.15
5 -0.62
50 0.15
51 0.4
52 0.4
6 -0.63
7 -0.55
8 -0.85
9 0.27

>  <PUBCHEM_EFFECTIVE_ROTOR_COUNT>  (1) 
9

>  <PUBCHEM_PHARMACOPHORE_FEATURES>  (1) 
8
1 2 cation
1 3 donor
1 7 donor
1 8 donor
4 4 5 6 18 cation
4 6 7 8 20 cation
6 21 22 23 24 25 26 rings
6 4 5 15 16 17 18 rings

>  <PUBCHEM_HEAVY_ATOM_COUNT>  (1) 
26

>  <PUBCHEM_ATOM_DEF_STEREO_COUNT>  (1) 
0

>  <PUBCHEM_ATOM_UDEF_STEREO_COUNT>  (1) 
0

>  <PUBCHEM_BOND_DEF_STEREO_COUNT>  (1) 
0

>  <PUBCHEM_BOND_UDEF_STEREO_COUNT>  (1) 
1

>  <PUBCHEM_ISOTOPIC_ATOM_COUNT>  (1) 
0

>  <PUBCHEM_COMPONENT_COUNT>  (1) 
1

>  <PUBCHEM_CACTVS_TAUTO_COUNT>  (1) 
15

>  <PUBCHEM_CONFORMER_ID>  (1) 
00004F9B00000001

>  <PUBCHEM_MMFF94_ENERGY>  (1) 
79.1811

>  <PUBCHEM_FEATURE_SELFOVERLAP>  (1) 
40.693

>  <PUBCHEM_SHAPE_FINGERPRINT>  (1) 
10 15 17603303735324635449
10369192 42 17967249801821528894
10391435 84 10375574998108388780
10670039 82 16415480411964270777
10835480 77 18196648713340151560
10883706 17 8934126241158926993
11135609 99 11603122581468946921
12166972 35 8286192855876508527
12539765 74 18272097101994548422
13177829 20 13767930122070481532
13631057 29 18266733770575230575
13947920 75 17060622178980649689
14251764 18 12035450536752502520
15183329 4 16774080661152600532
15188451 53 11746935395520648549
15357212 105 17170696629396537700
1768 124 11530475628167183008
17913733 40 18187368718303630051
18222031 100 10303813181203526430
20505436 4 18272649035304698639
20621476 66 18335983159832164484
21033648 29 18189610709008123120
21424621 283 18411417341120250784
21521721 280 18408041814626586562
21585482 111 18191305979702920661
21756936 100 18341891930993392335
22224240 67 17894630370495701667
22393880 68 13470106490245705669
23559900 14 13901607667871084659
3014063 24 8574717896807110304
3178227 256 17894917325824489896
38570 142 18344145890795741339
5385378 56 18114177502450980754
54076057 127 18340215081398776291
5718773 13 9367351431108266488
5758199 1 18408041818800240923
5911458 16 18131358488173724497
59682541 35 17822017523465555241
59755656 520 18408602586868655854
6698420 124 18410299120662412986
9689198 14 18412832390751633061
9953998 17 17676494952142960921

>  <PUBCHEM_SHAPE_MULTIPOLES>  (1) 
502.07
24.93
3.09
1.44
9.02
1.29
0.36
-23.74
-2.85
3.85
-1.53
-2.67
0.13
-0.78

>  <PUBCHEM_SHAPE_SELFOVERLAP>  (1) 
1024.385

>  <PUBCHEM_SHAPE_VOLUME>  (1) 
291.5

>  <PUBCHEM_COORDINATE_TYPE>  (1) 
2
5
10

$$$$
