20370
     RDKit          3D

 13 13  0  0  1  0  0  0  0  0999 V2000
   -1.1481    0.3187   -0.4203 O   0  0  0  0  0  0  0  0  0  0  0  0
   -1.5780   -1.7817    0.5407 O   0  0  0  0  0  0  0  0  0  0  0  0
   -2.9530    2.5294   -0.5698 O   0  0  0  0  0  0  0  0  0  0  0  0
   -0.6486   -1.0173   -0.2450 C   0  0  0  0  0  0  0  0  0  0  0  0
    0.6869   -0.9444    0.4846 C   0  0  0  0  0  0  0  0  0  0  0  0
   -2.5100    0.2551    0.0122 C   0  0  0  0  0  0  0  0  0  0  0  0
    1.6860   -0.1084   -0.2975 C   0  0  0  0  0  0  0  0  0  0  0  0
   -2.4787   -0.8124    1.0787 C   0  0  0  0  0  0  0  0  0  0  0  0
   -0.4999   -1.6829   -1.6073 C   0  0  0  0  0  0  0  0  0  0  0  0
    3.0116   -0.0134    0.4576 C   0  0  0  0  0  0  0  0  0  0  0  0
   -2.9739    1.6073    0.5096 C   0  0  0  0  0  0  0  0  0  0  0  0
    4.0457    0.7923   -0.3290 C   0  0  0  0  0  0  0  0  0  0  0  0
    5.3599    0.8575    0.3856 C   0  0  0  0  0  0  0  0  0  0  0  0
  1  4  1  0
  1  6  1  0
  2  4  1  0
  2  8  1  0
  3 11  1  0
  4  5  1  0
  4  9  1  0
  5  7  1  0
  6  8  1  0
  6 11  1  0
  7 10  1  0
 10 12  1  0
 12 13  1  0
M  END
>  <PUBCHEM_COMPOUND_CID>  (1) 
20370

>  <PUBCHEM_CONFORMER_RMSD>  (1) 
0.6

>  <PUBCHEM_CONFORMER_DIVERSEORDER>  (1) 
2
132
14
98
127
116
140
151
7
131
143
40
34
107
9
126
105
10
128
47
94
87
108
83
65
63
110
123
100
4
88
95
21
106
129
23
18
120
53
67
115
137
113
46
102
111
50
99
38
93
52
133
42
31
144
1
114
91
69
103
25
150
96
43
85
122
72
139
71
136
121
76
101
17
8
138
145
82
130
70
22
109
30
35
45
142
27
147
148
149
119
58
20
39
86
97
62
66
146
134
60
125
33
41
5
12
80
118
104
124
54
81
135
26
68
57
55
64
141
59
11
89
92
29
16
15
61
84
78
79
90
112
74
13
117
75
3
73
6
51
19
28
24
48
36
32
37
44
77
56
49

>  <PUBCHEM_MMFF94_PARTIAL_CHARGES>  (1) 
8
1 -0.56
11 0.28
2 -0.56
3 -0.68
33 0.4
4 0.56
6 0.28
8 0.28

>  <PUBCHEM_EFFECTIVE_ROTOR_COUNT>  (1) 
6

>  <PUBCHEM_PHARMACOPHORE_FEATURES>  (1) 
7
1 1 acceptor
1 13 hydrophobe
1 2 acceptor
1 3 acceptor
1 3 donor
4 5 7 10 12 hydrophobe
5 1 2 4 6 8 rings

>  <PUBCHEM_HEAVY_ATOM_COUNT>  (1) 
13

>  <PUBCHEM_ATOM_DEF_STEREO_COUNT>  (1) 
0

>  <PUBCHEM_ATOM_UDEF_STEREO_COUNT>  (1) 
2

>  <PUBCHEM_BOND_DEF_STEREO_COUNT>  (1) 
0

>  <PUBCHEM_BOND_UDEF_STEREO_COUNT>  (1) 
0

>  <PUBCHEM_ISOTOPIC_ATOM_COUNT>  (1) 
0

>  <PUBCHEM_COMPONENT_COUNT>  (1) 
1

>  <PUBCHEM_CACTVS_TAUTO_COUNT>  (1) 
1

>  <PUBCHEM_CONFORMER_ID>  (1) 
00004F9200000002

>  <PUBCHEM_MMFF94_ENERGY>  (1) 
21.2589

>  <PUBCHEM_FEATURE_SELFOVERLAP>  (1) 
35.564

>  <PUBCHEM_SHAPE_FINGERPRINT>  (1) 
10014705 185 17917141806096514656
10680689 15 18200597024818531598
11046707 91 8718825392654476712
11543360 7 11743834777278534250
11769659 78 9583508811490075074
122479 349 18409729526025325508
12251169 10 17821736043376088813
12500047 106 17917705838513608830
12932764 1 17988356083300754178
13024252 1 17822284747239851195
13214271 11 18334293201606483606
13675066 3 18412265064938492418
14251710 61 9223220862939191832
15061688 2 17897437303654607069
15279308 16 18411708651244982379
1741750 31 18342459209988725632
17834072 32 18336828572099002381
18186145 218 17203333351301659594
19107657 162 11241962677531907072
20645477 56 17988364875040429362
20645477 70 16701755882280172446
21061003 4 13190347876132709639
21524375 3 18269265773220921421
22485316 2 10591774160285265656
23402539 116 18338795727961918311
23403322 49 9079117747921466096
23500284 214 18340211803768510609
23559900 14 16845296073341022922
27216 239 18409169934662541865
4175511 318 17989209286848289252
57265010 4 17603587460611001928
6430166 295 18411697669535846008

>  <PUBCHEM_SHAPE_MULTIPOLES>  (1) 
249.93
7.86
1.94
1.04
11.72
0.59
-0.15
4.81
1.08
-2.06
-0.42
-0.37
-0.34
0.33

>  <PUBCHEM_SHAPE_SELFOVERLAP>  (1) 
482.316

>  <PUBCHEM_SHAPE_VOLUME>  (1) 
153.7

>  <PUBCHEM_COORDINATE_TYPE>  (1) 
2
5
10

$$$$
