20373
     RDKit          3D

 13 14  0  0  1  0  0  0  0  0999 V2000
    1.6308   -1.5028    0.5911 S   0  0  0  0  0  0  0  0  0  0  0  0
   -1.0801   -0.2924    0.5771 O   0  0  0  0  0  0  0  0  0  0  0  0
   -0.4586    1.7179   -0.4521 O   0  0  0  0  0  0  0  0  0  0  0  0
   -3.5725   -1.6573    0.2906 O   0  0  0  0  0  0  0  0  0  0  0  0
   -0.0603    0.7246    0.5150 C   0  0  0  0  0  0  0  0  0  0  0  0
   -2.1814    0.2296   -0.1698 C   0  0  0  0  0  0  0  0  0  0  0  0
   -1.5124    1.1068   -1.1960 C   0  0  0  0  0  0  0  0  0  0  0  0
    1.2805    0.1125    0.1373 C   0  0  0  0  0  0  0  0  0  0  0  0
    0.0307    1.4059    1.8799 C   0  0  0  0  0  0  0  0  0  0  0  0
   -3.0020   -0.8955   -0.7629 C   0  0  0  0  0  0  0  0  0  0  0  0
    2.3248    0.6889   -0.5559 C   0  0  0  0  0  0  0  0  0  0  0  0
    3.4224   -0.2056   -0.7154 C   0  0  0  0  0  0  0  0  0  0  0  0
    3.1781   -1.4325   -0.1389 C   0  0  0  0  0  0  0  0  0  0  0  0
  1  8  1  0
  1 13  1  0
  2  5  1  0
  2  6  1  0
  3  5  1  0
  3  7  1  0
  4 10  1  0
  5  8  1  0
  5  9  1  0
  6  7  1  0
  6 10  1  0
  8 11  2  0
 11 12  1  0
 12 13  2  0
M  END
>  <PUBCHEM_COMPOUND_CID>  (1) 
20373

>  <PUBCHEM_CONFORMER_RMSD>  (1) 
0.6

>  <PUBCHEM_CONFORMER_DIVERSEORDER>  (1) 
7
28
17
19
27
34
30
32
16
3
29
11
21
13
15
25
35
1
26
33
24
18
6
9
8
31
23
2
5
20
12
22
14
4
10

>  <PUBCHEM_MMFF94_PARTIAL_CHARGES>  (1) 
16
1 -0.08
10 0.28
11 -0.15
12 -0.15
13 -0.11
2 -0.56
22 0.15
23 0.15
24 0.15
25 0.4
3 -0.56
4 -0.68
5 0.74
6 0.28
7 0.28
8 -0.14

>  <PUBCHEM_EFFECTIVE_ROTOR_COUNT>  (1) 
3

>  <PUBCHEM_PHARMACOPHORE_FEATURES>  (1) 
6
1 2 acceptor
1 3 acceptor
1 4 acceptor
1 4 donor
5 1 8 11 12 13 rings
5 2 3 5 6 7 rings

>  <PUBCHEM_HEAVY_ATOM_COUNT>  (1) 
13

>  <PUBCHEM_ATOM_DEF_STEREO_COUNT>  (1) 
0

>  <PUBCHEM_ATOM_UDEF_STEREO_COUNT>  (1) 
2

>  <PUBCHEM_BOND_DEF_STEREO_COUNT>  (1) 
0

>  <PUBCHEM_BOND_UDEF_STEREO_COUNT>  (1) 
0

>  <PUBCHEM_ISOTOPIC_ATOM_COUNT>  (1) 
0

>  <PUBCHEM_COMPONENT_COUNT>  (1) 
1

>  <PUBCHEM_CACTVS_TAUTO_COUNT>  (1) 
1

>  <PUBCHEM_CONFORMER_ID>  (1) 
00004F9500000007

>  <PUBCHEM_MMFF94_ENERGY>  (1) 
23.7889

>  <PUBCHEM_FEATURE_SELFOVERLAP>  (1) 
30.491

>  <PUBCHEM_SHAPE_FINGERPRINT>  (1) 
11769659 78 18410006603045241390
12119455 92 11242238701730654914
12423570 1 16455752558518622625
12897270 3 18040715857327232046
12932764 1 18114748105692822504
13296908 3 17775275054336757512
13299463 15 18334011670584117014
13538477 17 17915192225513918560
13571099 52 8718556020847867073
14128692 85 18411136922383533468
15375462 189 18202284748727671827
15906896 17 17199676173226598441
16945 1 17095525101667622860
17834069 15 11455896853380668983
18186145 218 15430039841987279636
18522851 268 18187080603286302982
19422 9 18343592840657274895
200 152 18413390921526533294
20201158 50 18260830397195772530
20231682 184 8069760571943734091
20281407 28 18413103983193146999
20361792 2 17274809255694975332
20645477 70 18130494353653930263
20653085 51 17096657487054372924
20711985 344 17129858310059728152
20871999 31 17894904144838715391
21028194 46 11458430110985765109
21061003 4 17203320104915649922
21524375 3 7925915863538400267
23402539 116 16732698337912893180
23402655 69 17750232517425873676
23500284 5 18129949966037647355
23552423 10 17896312515437191331
23557571 272 18189872289052980520
23559900 14 18196073458036122802
25610 137 18131634512778433144
305870 269 11891321041686909720
5084963 1 18337116670426128864
59915604 170 17167868603136048836
81228 2 17058369163533445136
83771 10 18343303695037882503
94968 8 18338794645150131279

>  <PUBCHEM_SHAPE_MULTIPOLES>  (1) 
253.78
5.31
1.73
1.21
0.1
0.18
0.31
2.95
-1.35
0.39
0.26
0.12
-0.46
-0.01

>  <PUBCHEM_SHAPE_SELFOVERLAP>  (1) 
516.934

>  <PUBCHEM_SHAPE_VOLUME>  (1) 
149.8

>  <PUBCHEM_COORDINATE_TYPE>  (1) 
2
5
10

$$$$
