20374
     RDKit          3D

  9  9  0  0  1  0  0  0  0  0999 V2000
    3.1481    1.0227    0.0665 Cl  0  0  0  0  0  0  0  0  0  0  0  0
    0.1149    0.6860   -0.2021 O   0  0  0  0  0  0  0  0  0  0  0  0
   -1.2968   -1.1166    0.3252 O   0  0  0  0  0  0  0  0  0  0  0  0
   -1.2515    0.2754   -0.0291 C   0  0  0  0  0  0  0  0  0  0  0  0
    0.8869   -0.3901    0.3383 C   0  0  0  0  0  0  0  0  0  0  0  0
    0.0230   -1.5979    0.0671 C   0  0  0  0  0  0  0  0  0  0  0  0
   -1.8827    1.0852    1.0964 C   0  0  0  0  0  0  0  0  0  0  0  0
   -1.9914    0.4847   -1.3443 C   0  0  0  0  0  0  0  0  0  0  0  0
    2.2495   -0.4493   -0.3179 C   0  0  0  0  0  0  0  0  0  0  0  0
  1  9  1  0
  2  4  1  0
  2  5  1  0
  3  4  1  0
  3  6  1  0
  4  7  1  0
  4  8  1  0
  5  6  1  0
  5  9  1  0
M  END
>  <PUBCHEM_COMPOUND_CID>  (1) 
20374

>  <PUBCHEM_CONFORMER_RMSD>  (1) 
0.4

>  <PUBCHEM_CONFORMER_DIVERSEORDER>  (1) 
2
4
6
1
5
3

>  <PUBCHEM_MMFF94_PARTIAL_CHARGES>  (1) 
7
1 -0.29
2 -0.56
3 -0.56
4 0.56
5 0.28
6 0.28
9 0.29

>  <PUBCHEM_EFFECTIVE_ROTOR_COUNT>  (1) 
2

>  <PUBCHEM_PHARMACOPHORE_FEATURES>  (1) 
4
1 2 acceptor
1 3 acceptor
3 4 7 8 hydrophobe
5 2 3 4 5 6 rings

>  <PUBCHEM_HEAVY_ATOM_COUNT>  (1) 
9

>  <PUBCHEM_ATOM_DEF_STEREO_COUNT>  (1) 
0

>  <PUBCHEM_ATOM_UDEF_STEREO_COUNT>  (1) 
1

>  <PUBCHEM_BOND_DEF_STEREO_COUNT>  (1) 
0

>  <PUBCHEM_BOND_UDEF_STEREO_COUNT>  (1) 
0

>  <PUBCHEM_ISOTOPIC_ATOM_COUNT>  (1) 
0

>  <PUBCHEM_COMPONENT_COUNT>  (1) 
1

>  <PUBCHEM_CACTVS_TAUTO_COUNT>  (1) 
1

>  <PUBCHEM_CONFORMER_ID>  (1) 
00004F9600000002

>  <PUBCHEM_MMFF94_ENERGY>  (1) 
18.6048

>  <PUBCHEM_FEATURE_SELFOVERLAP>  (1) 
20.338

>  <PUBCHEM_SHAPE_FINGERPRINT>  (1) 
10857977 72 16878810247520813849
12423570 1 16837689371762070503
12897270 3 17060042783481569596
12932764 1 17821732728188785570
13024252 1 14851877097197266587
14390081 3 18202002148843939760
15310529 11 17060623286939800022
20645464 45 18413113870397682022
20653085 51 17130728096724055624
21040471 1 18335703797546775202
23235685 24 18411982446714633865
23552423 10 17916022343749751334
29004967 10 15936418822837753648
3248919 1 18273210898525093138
369184 2 17240477039735708520
5084963 1 18040723575383586234

>  <PUBCHEM_SHAPE_MULTIPOLES>  (1) 
175.35
3.76
1.39
0.99
2.64
0.29
0.14
-1.51
0.29
0.03
-0.2
-0.65
-0.21
-0.06

>  <PUBCHEM_SHAPE_SELFOVERLAP>  (1) 
333.765

>  <PUBCHEM_SHAPE_VOLUME>  (1) 
110.7

>  <PUBCHEM_COORDINATE_TYPE>  (1) 
2
5
10

$$$$
