20371
     RDKit          3D

 14 15  0  0  1  0  0  0  0  0999 V2000
    1.3195    0.2740   -0.6182 O   0  0  0  0  0  0  0  0  0  0  0  0
    0.7382   -1.7004    0.5003 O   0  0  0  0  0  0  0  0  0  0  0  0
    3.3972    2.1023    0.1043 O   0  0  0  0  0  0  0  0  0  0  0  0
    0.3277   -0.7685   -0.5207 C   0  0  0  0  0  0  0  0  0  0  0  0
    2.1082    0.1451    0.5666 C   0  0  0  0  0  0  0  0  0  0  0  0
    2.0811   -1.3393    0.8235 C   0  0  0  0  0  0  0  0  0  0  0  0
   -1.0391   -0.1865   -0.1916 C   0  0  0  0  0  0  0  0  0  0  0  0
    0.2857   -1.5020   -1.8607 C   0  0  0  0  0  0  0  0  0  0  0  0
    3.4961    0.7068    0.3459 C   0  0  0  0  0  0  0  0  0  0  0  0
   -1.9642   -0.9426    0.5284 C   0  0  0  0  0  0  0  0  0  0  0  0
   -1.3673    1.1030   -0.6103 C   0  0  0  0  0  0  0  0  0  0  0  0
   -3.2173   -0.4090    0.8298 C   0  0  0  0  0  0  0  0  0  0  0  0
   -2.6203    1.6365   -0.3087 C   0  0  0  0  0  0  0  0  0  0  0  0
   -3.5453    0.8806    0.4114 C   0  0  0  0  0  0  0  0  0  0  0  0
  1  4  1  0
  1  5  1  0
  2  4  1  0
  2  6  1  0
  3  9  1  0
  4  7  1  0
  4  8  1  0
  5  6  1  0
  5  9  1  0
  7 10  2  0
  7 11  1  0
 10 12  1  0
 11 13  2  0
 12 14  2  0
 13 14  1  0
M  END
>  <PUBCHEM_COMPOUND_CID>  (1) 
20371

>  <PUBCHEM_CONFORMER_RMSD>  (1) 
0.6

>  <PUBCHEM_CONFORMER_DIVERSEORDER>  (1) 
2
14
1
16
18
12
8
13
3
10
4
15
5
19
9
7
11
6
17

>  <PUBCHEM_MMFF94_PARTIAL_CHARGES>  (1) 
19
1 -0.56
10 -0.15
11 -0.15
12 -0.15
13 -0.15
14 -0.15
2 -0.56
23 0.15
24 0.15
25 0.15
26 0.15
27 0.4
28 0.15
3 -0.68
4 0.7
5 0.28
6 0.28
7 -0.14
9 0.28

>  <PUBCHEM_EFFECTIVE_ROTOR_COUNT>  (1) 
3

>  <PUBCHEM_PHARMACOPHORE_FEATURES>  (1) 
6
1 1 acceptor
1 2 acceptor
1 3 acceptor
1 3 donor
5 1 2 4 5 6 rings
6 7 10 11 12 13 14 rings

>  <PUBCHEM_HEAVY_ATOM_COUNT>  (1) 
14

>  <PUBCHEM_ATOM_DEF_STEREO_COUNT>  (1) 
0

>  <PUBCHEM_ATOM_UDEF_STEREO_COUNT>  (1) 
2

>  <PUBCHEM_BOND_DEF_STEREO_COUNT>  (1) 
0

>  <PUBCHEM_BOND_UDEF_STEREO_COUNT>  (1) 
0

>  <PUBCHEM_ISOTOPIC_ATOM_COUNT>  (1) 
0

>  <PUBCHEM_COMPONENT_COUNT>  (1) 
1

>  <PUBCHEM_CACTVS_TAUTO_COUNT>  (1) 
1

>  <PUBCHEM_CONFORMER_ID>  (1) 
00004F9300000002

>  <PUBCHEM_MMFF94_ENERGY>  (1) 
36.4275

>  <PUBCHEM_FEATURE_SELFOVERLAP>  (1) 
30.49

>  <PUBCHEM_SHAPE_FINGERPRINT>  (1) 
10608611 8 18262514780327010885
107287 299 17845941744801618639
10922049 32 18342184383869373934
11031198 65 17132115701994354047
12251169 10 18040718069172228785
12382932 28 18334580122691493961
12423570 1 7940937283907252294
12696612 119 18187372016685467397
12897270 3 11527362918984760251
12932764 1 18261965024718669303
13549 16 11095900245298298713
13705890 14 10592036964638194594
13897977 13 18335422429939277529
14648413 74 17841162047507044181
15219456 202 18341619157166586743
15309172 13 17988925582567358439
15775835 57 18271805756571015720
16945 1 18187931728243999447
17804303 29 17753050488318595419
1813 80 15694371087685516670
18186145 218 15913326918301712730
19786989 88 18060140895069654439
201361 129 18334574625201719130
20361792 2 13912328958102478691
20528008 55 18187359905283679473
20645477 56 17702383051860439368
20711985 327 15213022652160240862
21296965 67 12324236174301530622
21524375 3 18272646887430030030
23402539 116 18337665434340481095
2748010 2 18043822991667893287
369184 2 18188489069460554187
7364860 26 18266460906126564426
81228 2 17126738192423613614

>  <PUBCHEM_SHAPE_MULTIPOLES>  (1) 
270.51
5.73
1.82
1.12
0.2
0.3
-0.37
2.84
1.64
0.68
-0.18
0.02
-0.47
0.25

>  <PUBCHEM_SHAPE_SELFOVERLAP>  (1) 
568.767

>  <PUBCHEM_SHAPE_VOLUME>  (1) 
153.5

>  <PUBCHEM_COORDINATE_TYPE>  (1) 
2
5
10

$$$$
