20386
     RDKit          3D

 33 33  0  0  0  0  0  0  0  0999 V2000
   -1.0726   -1.0480   -1.3897 O   0  0  0  0  0  0  0  0  0  0  0  0
   -1.5659   -2.9567    0.5763 O   0  0  0  0  0  0  0  0  0  0  0  0
    1.5517   -0.5132   -2.0049 O   0  0  0  0  0  0  0  0  0  0  0  0
    0.5730   -4.1650    1.7374 O   0  0  0  0  0  0  0  0  0  0  0  0
    5.5015    1.5148    0.5857 C   0  0  0  0  0  0  0  0  0  0  0  0
    0.7619    2.8489    1.2515 C   0  0  0  0  0  0  0  0  0  0  0  0
    4.6991    2.8117    0.7547 C   0  0  0  0  0  0  0  0  0  0  0  0
    2.1728    3.2378    0.8639 C   0  0  0  0  0  0  0  0  0  0  0  0
   -0.1538    2.5459    0.0588 C   0  0  0  0  0  0  0  0  0  0  0  0
    4.8978    0.5900   -0.4558 C   0  0  0  0  0  0  0  0  0  0  0  0
    3.2772    2.5205    1.1495 C   0  0  0  0  0  0  0  0  0  0  0  0
    3.8283   -1.6892   -0.9531 C   0  0  0  0  0  0  0  0  0  0  0  0
    2.4723   -2.0731   -0.4617 C   0  0  0  0  0  0  0  0  0  0  0  0
   -2.7081    2.5589    0.1964 C   0  0  0  0  0  0  0  0  0  0  0  0
    4.4524   -0.6292   -0.0930 C   0  0  0  0  0  0  0  0  0  0  0  0
   -1.5028    2.0241    0.4713 C   0  0  0  0  0  0  0  0  0  0  0  0
   -4.0274    1.9612    0.6285 C   0  0  0  0  0  0  0  0  0  0  0  0
    2.2247   -2.9839    0.4979 C   0  0  0  0  0  0  0  0  0  0  0  0
   -4.9421    1.6658   -0.5623 C   0  0  0  0  0  0  0  0  0  0  0  0
    2.2881    4.5034    0.0522 C   0  0  0  0  0  0  0  0  0  0  0  0
    4.8734    1.1330   -1.8585 C   0  0  0  0  0  0  0  0  0  0  0  0
    1.3468   -1.3639   -1.1426 C   0  0  0  0  0  0  0  0  0  0  0  0
   -2.8125    3.8254   -0.6115 C   0  0  0  0  0  0  0  0  0  0  0  0
    0.8195   -3.3216    0.8786 C   0  0  0  0  0  0  0  0  0  0  0  0
   -0.0388   -1.7039   -0.7510 C   0  0  0  0  0  0  0  0  0  0  0  0
   -0.2847   -2.6166    0.1908 C   0  0  0  0  0  0  0  0  0  0  0  0
    3.2741   -3.7257    1.2813 C   0  0  0  0  0  0  0  0  0  0  0  0
   -6.2593    1.1034   -0.1070 C   0  0  0  0  0  0  0  0  0  0  0  0
   -6.6023   -0.1937    0.0068 C   0  0  0  0  0  0  0  0  0  0  0  0
   -5.6223   -1.2774   -0.3547 C   0  0  0  0  0  0  0  0  0  0  0  0
   -7.9414   -0.6936    0.4699 C   0  0  0  0  0  0  0  0  0  0  0  0
   -1.4766   -1.7555   -2.5452 C   0  0  0  0  0  0  0  0  0  0  0  0
   -2.0041   -2.1344    1.6399 C   0  0  0  0  0  0  0  0  0  0  0  0
  1 25  1  0
  1 32  1  0
  2 26  1  0
  2 33  1  0
  3 22  2  0
  4 24  2  0
  5  7  1  0
  5 10  1  0
  6  8  1  0
  6  9  1  0
  7 11  1  0
  8 11  2  0
  8 20  1  0
  9 16  1  0
 10 15  2  0
 10 21  1  0
 12 13  1  0
 12 15  1  0
 13 18  2  0
 13 22  1  0
 14 16  2  0
 14 17  1  0
 14 23  1  0
 17 19  1  0
 18 24  1  0
 18 27  1  0
 19 28  1  0
 22 25  1  0
 24 26  1  0
 25 26  2  0
 28 29  2  3
 29 30  1  0
 29 31  1  0
M  END
>  <PUBCHEM_COMPOUND_CID>  (1) 
20386

>  <PUBCHEM_CONFORMER_RMSD>  (1) 
1.4

>  <PUBCHEM_CONFORMER_DIVERSEORDER>  (1) 
1
264
32
138
161
64
189
124
72
204
182
38
209
233
220
257
17
113
266
246
227
95
130
190
201
208
135
97
19
183
250
39
187
80
256
258
137
42
88
193
36
82
172
195
148
163
54
231
232
168
14
160
164
223
239
205
15
230
94
216
215
40
237
194
212
167
75
249
3
191
221
150
25
186
173
96
185
48
74
9
127
103
177
87
180
20
10
50
247
115
202
102
214
152
78
213
44
146
117
119
162
245
13
7
76
261
156
157
123
53
200
165
61
28
69
259
243
59
238
159
263
114
198
116
23
132
139
222
134
171
260
60
226
91
253
158
229
111
240
242
110
225
43
219
203
41
126
235
170
92
2
129
118
29
143
120
100
6
188
169
63
107
141
265
207
136
104
81
49
62
244
83
93
181
66
106
131
11
27
142
125
166
55
16
70
234
89
228
122
175
153
84
56
26
147
178
176
145
255
109
105
154
108
101
149
90
46
71
196
98
30
236
12
248
224
68
133
218
65
45
73
47
144
254
52
128
57
8
112
24
252
140
210
121
174
77
184
192
217
31
197
34
22
241
155
51
179
35
151
79
99
206
21
18
5
199
37
58
4
262
251
211
86
33
85
67

>  <PUBCHEM_MMFF94_PARTIAL_CHARGES>  (1) 
37
1 -0.36
10 -0.28
11 -0.29
12 0.28
13 -0.12
14 -0.28
15 -0.29
16 -0.29
17 0.14
18 -0.12
19 0.14
2 -0.36
20 0.14
21 0.14
22 0.54
23 0.14
24 0.54
25 0.09
26 0.09
27 0.14
28 -0.29
29 -0.28
3 -0.57
30 0.14
31 0.14
32 0.28
33 0.28
4 -0.57
42 0.15
45 0.15
46 0.15
5 0.14
6 0.14
63 0.15
7 0.14
8 -0.28
9 0.14

>  <PUBCHEM_EFFECTIVE_ROTOR_COUNT>  (1) 
13

>  <PUBCHEM_PHARMACOPHORE_FEATURES>  (1) 
12
1 1 acceptor
1 2 acceptor
1 20 hydrophobe
1 21 hydrophobe
1 23 hydrophobe
1 3 acceptor
1 4 acceptor
3 29 30 31 hydrophobe
4 14 17 19 28 hydrophobe
4 5 7 10 11 hydrophobe
4 6 8 9 16 hydrophobe
6 13 18 22 24 25 26 rings

>  <PUBCHEM_HEAVY_ATOM_COUNT>  (1) 
33

>  <PUBCHEM_ATOM_DEF_STEREO_COUNT>  (1) 
0

>  <PUBCHEM_ATOM_UDEF_STEREO_COUNT>  (1) 
0

>  <PUBCHEM_BOND_DEF_STEREO_COUNT>  (1) 
0

>  <PUBCHEM_BOND_UDEF_STEREO_COUNT>  (1) 
3

>  <PUBCHEM_ISOTOPIC_ATOM_COUNT>  (1) 
0

>  <PUBCHEM_COMPONENT_COUNT>  (1) 
1

>  <PUBCHEM_CACTVS_TAUTO_COUNT>  (1) 
5

>  <PUBCHEM_CONFORMER_ID>  (1) 
00004FA200000001

>  <PUBCHEM_MMFF94_ENERGY>  (1) 
61.1994

>  <PUBCHEM_FEATURE_SELFOVERLAP>  (1) 
60.949

>  <PUBCHEM_SHAPE_FINGERPRINT>  (1) 
10006869 2 18412258411259255991
10316853 100 18410577322462931192
1100329 8 18267299825599342634
11204353 107 18411134771397033935
12522641 33 18338513157805697905
13402501 40 18413109493689318681
1361 2 18410012164886075888
13617811 41 18259988197581505077
14787075 74 18339368448506670973
15264996 151 18261109617341098537
15721738 202 17632300034629519857
15968369 153 17916302921194490717
20764821 26 18265619968540967804
21133410 62 18263066773950749157
21197605 99 18272652393393493917
3298306 158 18411697660366195408
338550 245 18340766069230026852
392239 28 18195535778905152825
484989 97 18339649940800290230
5265222 85 17978792637941286377
5776283 40 18266751362518707900
59755656 215 18410290341844529745
6669772 16 18410849997119977561

>  <PUBCHEM_SHAPE_MULTIPOLES>  (1) 
655.65
13.99
6.22
1.59
21.73
0.76
0.54
4.03
0.17
-3.75
-2.26
-0.73
-0.89
0.43

>  <PUBCHEM_SHAPE_SELFOVERLAP>  (1) 
1309.674

>  <PUBCHEM_SHAPE_VOLUME>  (1) 
386.9

>  <PUBCHEM_COORDINATE_TYPE>  (1) 
2
5
10

$$$$
