2039
     RDKit          3D

  7  6  0  0  0  0  0  0  0  0999 V2000
    0.3509   -0.7322    0.6944 S   0  0  0  0  0  0  0  0  0  0  0  0
   -3.4033    0.3431   -0.4187 N   0  0  0  0  0  0  0  0  0  0  0  0
    2.6231   -0.7774   -0.6407 N   0  0  0  0  0  0  0  0  0  0  0  0
    1.9708    1.3272    0.2098 N   0  0  0  0  0  0  0  0  0  0  0  0
   -0.9829    0.1717   -0.1439 C   0  0  0  0  0  0  0  0  0  0  0  0
   -2.3398   -0.3904    0.2611 C   0  0  0  0  0  0  0  0  0  0  0  0
    1.7812    0.0581    0.0380 C   0  0  0  0  0  0  0  0  0  0  0  0
  1  5  1  0
  1  7  1  0
  2  6  1  0
  3  7  1  0
  4  7  2  0
  5  6  1  0
M  END
>  <PUBCHEM_COMPOUND_CID>  (1) 
2039

>  <PUBCHEM_CONFORMER_RMSD>  (1) 
0.4

>  <PUBCHEM_CONFORMER_DIVERSEORDER>  (1) 
1
17
20
13
21
11
18
9
19
12
10
16
2
14
7
6
15
5
8
4
3

>  <PUBCHEM_MMFF94_PARTIAL_CHARGES>  (1) 
12
1 -0.37
12 0.36
13 0.36
14 0.4
15 0.4
16 0.4
2 -0.99
3 -0.85
4 -0.85
5 0.23
6 0.27
7 0.64

>  <PUBCHEM_EFFECTIVE_ROTOR_COUNT>  (1) 
3

>  <PUBCHEM_PHARMACOPHORE_FEATURES>  (1) 
5
1 2 cation
1 2 donor
1 3 donor
1 4 donor
3 3 4 7 cation

>  <PUBCHEM_HEAVY_ATOM_COUNT>  (1) 
7

>  <PUBCHEM_ATOM_DEF_STEREO_COUNT>  (1) 
0

>  <PUBCHEM_ATOM_UDEF_STEREO_COUNT>  (1) 
0

>  <PUBCHEM_BOND_DEF_STEREO_COUNT>  (1) 
0

>  <PUBCHEM_BOND_UDEF_STEREO_COUNT>  (1) 
0

>  <PUBCHEM_ISOTOPIC_ATOM_COUNT>  (1) 
0

>  <PUBCHEM_COMPONENT_COUNT>  (1) 
1

>  <PUBCHEM_CACTVS_TAUTO_COUNT>  (1) 
1

>  <PUBCHEM_CONFORMER_ID>  (1) 
000007F700000001

>  <PUBCHEM_MMFF94_ENERGY>  (1) 
3.9217

>  <PUBCHEM_FEATURE_SELFOVERLAP>  (1) 
25.41

>  <PUBCHEM_SHAPE_FINGERPRINT>  (1) 
12897270 3 18407759227047695563
12932741 1 18261401078100707443
12932764 1 17967809440587097483
14325111 11 18408322219998269131
14390081 3 18186795885846536633
20651381 32 18131069324919950209
21040471 1 17530965825555690386
29004967 10 17847065488677083226
3248919 1 17846499240183549267
5460574 1 12103847860617828299

>  <PUBCHEM_SHAPE_MULTIPOLES>  (1) 
132.96
4.72
1.01
0.76
2.46
0.1
-0.02
0.5
0.88
-0.44
-0.1
-0.16
-0.08
0.34

>  <PUBCHEM_SHAPE_SELFOVERLAP>  (1) 
224.609

>  <PUBCHEM_SHAPE_VOLUME>  (1) 
90.3

>  <PUBCHEM_COORDINATE_TYPE>  (1) 
2
5
10

$$$$
