20398
     RDKit          3D

  9  8  0  0  0  0  0  0  0  0999 V2000
    1.5005    1.4110    0.2586 O   0  0  0  0  0  0  0  0  0  0  0  0
   -2.4132   -1.3291    0.2943 O   0  0  0  0  0  0  0  0  0  0  0  0
    0.1019   -0.3445   -0.3198 N   0  0  0  0  0  0  0  0  0  0  0  0
   -1.0230    0.4386   -0.2857 N   0  0  0  0  0  0  0  0  0  0  0  0
    2.3548   -0.7162   -0.1137 N   0  0  0  0  0  0  0  0  0  0  0  0
    3.6537   -0.3300    0.1429 N   0  0  0  0  0  0  0  0  0  0  0  0
   -3.2700    0.7839    0.0240 N   0  0  0  0  0  0  0  0  0  0  0  0
    1.3358    0.2259   -0.0321 C   0  0  0  0  0  0  0  0  0  0  0  0
   -2.2405   -0.1397    0.0316 C   0  0  0  0  0  0  0  0  0  0  0  0
  1  8  2  0
  2  9  2  0
  3  4  1  0
  3  8  1  0
  4  9  1  0
  5  6  1  0
  5  8  1  0
  7  9  1  0
M  END
>  <PUBCHEM_COMPOUND_CID>  (1) 
20398

>  <PUBCHEM_CONFORMER_RMSD>  (1) 
0.6

>  <PUBCHEM_CONFORMER_DIVERSEORDER>  (1) 
1
2

>  <PUBCHEM_MMFF94_PARTIAL_CHARGES>  (1) 
16
1 -0.57
10 0.37
11 0.37
12 0.37
13 0.36
14 0.36
15 0.37
16 0.37
2 -0.57
3 -0.43
4 -0.43
5 -0.42
6 -0.73
7 -0.8
8 0.69
9 0.69

>  <PUBCHEM_EFFECTIVE_ROTOR_COUNT>  (1) 
4

>  <PUBCHEM_PHARMACOPHORE_FEATURES>  (1) 
7
1 1 acceptor
1 2 acceptor
1 3 donor
1 4 donor
1 5 donor
1 6 donor
1 7 donor

>  <PUBCHEM_HEAVY_ATOM_COUNT>  (1) 
9

>  <PUBCHEM_ATOM_DEF_STEREO_COUNT>  (1) 
0

>  <PUBCHEM_ATOM_UDEF_STEREO_COUNT>  (1) 
0

>  <PUBCHEM_BOND_DEF_STEREO_COUNT>  (1) 
0

>  <PUBCHEM_BOND_UDEF_STEREO_COUNT>  (1) 
0

>  <PUBCHEM_ISOTOPIC_ATOM_COUNT>  (1) 
0

>  <PUBCHEM_COMPONENT_COUNT>  (1) 
1

>  <PUBCHEM_CACTVS_TAUTO_COUNT>  (1) 
9

>  <PUBCHEM_CONFORMER_ID>  (1) 
00004FAE00000001

>  <PUBCHEM_MMFF94_ENERGY>  (1) 
12.6953

>  <PUBCHEM_FEATURE_SELFOVERLAP>  (1) 
38.692

>  <PUBCHEM_SHAPE_FINGERPRINT>  (1) 
11062470 55 17632573825345156952
12932764 1 17022891367915999749
14325111 11 18410574019521745524
14390081 3 18343862247140095009
29004967 10 18272653428791796402
5460574 1 9079114462223615574

>  <PUBCHEM_SHAPE_MULTIPOLES>  (1) 
148.57
5.5
1.08
0.58
0.76
0.06
0
-0.45
0.39
-0.18
0.09
-0.02
0
0.16

>  <PUBCHEM_SHAPE_SELFOVERLAP>  (1) 
279.922

>  <PUBCHEM_SHAPE_VOLUME>  (1) 
91.2

>  <PUBCHEM_COORDINATE_TYPE>  (1) 
2
5
10

$$$$
