20399
     RDKit          3D

 22 24  0  0  1  0  0  0  0  0999 V2000
   -0.7272    0.7596    0.0070 O   0  0  0  0  0  0  0  0  0  0  0  0
    0.3240   -2.7694   -0.0808 O   0  0  0  0  0  0  0  0  0  0  0  0
   -2.3589   -3.0034    0.1451 O   0  0  0  0  0  0  0  0  0  0  0  0
    3.8301    0.7270    2.4613 O   0  0  0  0  0  0  0  0  0  0  0  0
    4.4976    0.3352   -2.2649 O   0  0  0  0  0  0  0  0  0  0  0  0
   -5.0196    2.7580   -0.1550 O   0  0  0  0  0  0  0  0  0  0  0  0
    5.5126    0.8322    0.2634 O   0  0  0  0  0  0  0  0  0  0  0  0
    0.0207   -0.3937   -0.4102 C   0  0  0  0  0  0  0  0  0  0  0  0
   -0.3851   -1.6350    0.3862 C   0  0  0  0  0  0  0  0  0  0  0  0
    1.4910   -0.0658   -0.2299 C   0  0  0  0  0  0  0  0  0  0  0  0
   -1.8630   -1.8833    0.1781 C   0  0  0  0  0  0  0  0  0  0  0  0
   -2.7004   -0.6744    0.0511 C   0  0  0  0  0  0  0  0  0  0  0  0
   -2.0842    0.5775   -0.0104 C   0  0  0  0  0  0  0  0  0  0  0  0
    2.3322   -0.0148   -1.3394 C   0  0  0  0  0  0  0  0  0  0  0  0
    1.9957    0.1827    1.0449 C   0  0  0  0  0  0  0  0  0  0  0  0
   -4.0937   -0.7785    0.0225 C   0  0  0  0  0  0  0  0  0  0  0  0
   -2.8671    1.7319   -0.0659 C   0  0  0  0  0  0  0  0  0  0  0  0
    3.3476    0.4835    1.2108 C   0  0  0  0  0  0  0  0  0  0  0  0
    3.6842    0.2860   -1.1734 C   0  0  0  0  0  0  0  0  0  0  0  0
   -4.2584    1.6312   -0.0906 C   0  0  0  0  0  0  0  0  0  0  0  0
   -4.8700    0.3782   -0.0513 C   0  0  0  0  0  0  0  0  0  0  0  0
    4.1919    0.5352    0.1017 C   0  0  0  0  0  0  0  0  0  0  0  0
  1  8  1  0
  1 13  1  0
  2  9  1  0
  3 11  2  0
  4 18  1  0
  5 19  1  0
  6 20  1  0
  7 22  1  0
  8  9  1  0
  8 10  1  0
  9 11  1  0
 10 14  2  0
 10 15  1  0
 11 12  1  0
 12 13  2  0
 12 16  1  0
 13 17  1  0
 14 19  1  0
 15 18  2  0
 16 21  2  0
 17 20  2  0
 18 22  1  0
 19 22  2  0
 20 21  1  0
M  END
>  <PUBCHEM_COMPOUND_CID>  (1) 
20399

>  <PUBCHEM_CONFORMER_RMSD>  (1) 
0.6

>  <PUBCHEM_CONFORMER_DIVERSEORDER>  (1) 
1
5
4
11
3
7
10
8
6
2
9

>  <PUBCHEM_MMFF94_PARTIAL_CHARGES>  (1) 
32
1 -0.36
10 -0.14
11 0.42
12 0.09
13 0.08
14 -0.15
15 -0.15
16 -0.15
17 -0.15
18 0.08
19 0.08
2 -0.68
20 0.08
21 -0.15
22 0.08
25 0.15
26 0.15
27 0.15
28 0.15
29 0.4
3 -0.57
30 0.15
31 0.45
32 0.45
33 0.45
34 0.45
4 -0.53
5 -0.53
6 -0.53
7 -0.53
8 0.42
9 0.34

>  <PUBCHEM_EFFECTIVE_ROTOR_COUNT>  (1) 
1.6

>  <PUBCHEM_PHARMACOPHORE_FEATURES>  (1) 
11
1 1 acceptor
1 2 acceptor
1 2 donor
1 3 acceptor
1 4 donor
1 5 donor
1 6 donor
1 7 donor
6 1 8 9 11 12 13 rings
6 10 14 15 18 19 22 rings
6 12 13 16 17 20 21 rings

>  <PUBCHEM_HEAVY_ATOM_COUNT>  (1) 
22

>  <PUBCHEM_ATOM_DEF_STEREO_COUNT>  (1) 
0

>  <PUBCHEM_ATOM_UDEF_STEREO_COUNT>  (1) 
2

>  <PUBCHEM_BOND_DEF_STEREO_COUNT>  (1) 
0

>  <PUBCHEM_BOND_UDEF_STEREO_COUNT>  (1) 
0

>  <PUBCHEM_ISOTOPIC_ATOM_COUNT>  (1) 
0

>  <PUBCHEM_COMPONENT_COUNT>  (1) 
1

>  <PUBCHEM_CACTVS_TAUTO_COUNT>  (1) 
726

>  <PUBCHEM_CONFORMER_ID>  (1) 
00004FAF00000001

>  <PUBCHEM_MMFF94_ENERGY>  (1) 
57.3716

>  <PUBCHEM_FEATURE_SELFOVERLAP>  (1) 
55.868

>  <PUBCHEM_SHAPE_FINGERPRINT>  (1) 
10319926 262 18269536373904929026
10411042 1 17761213611148004611
10498660 4 18411984624400612129
10646746 165 18413385449374110450
10670039 82 18261965045988063996
11796584 16 18413113845187703822
12236239 1 17603583058443550872
12390115 104 18271257010834351033
12403259 415 18130792273569748017
12403814 3 17240478105272720149
12596602 18 16878233046929344425
12616971 3 16805600400094324542
12788726 201 17462299236889432875
12892183 10 14634873015926984989
12969540 114 17632004287233865221
13140716 1 18048039859542554403
13544592 145 18202012005799146030
13583140 156 17846497084268521174
14341114 328 17022628571820826201
14386348 63 17846223293024699852
15375358 24 18059852882867817608
15806764 133 17916039012839534944
1601671 61 18260552195026463236
16752209 62 18336547238871776866
173720 79 18113886153296619835
18186145 218 17918000472515669027
200 152 14836129848714670178
20645477 56 18413390951501484177
20645477 70 16630537215229057142
21033648 29 17917703626009450240
21065201 7 18341614862431672082
212916 134 18339067242196904011
22122407 14 16153717496585568357
23366157 5 17825107008836537803
23402539 116 18341887511018110940
23557571 272 18201720707788916088
23559900 14 18343872100127180350
2916195 48 18201711881879510616
341906 21 18409725179492100288
350125 39 18047754788955224877
38570 142 16517406320938098660
4028521 119 18131351886702910313
469060 322 18264229035641245251
474 4 17675927573213191235
495365 180 17632289056487622702
5104073 3 18191311477518340697
5265222 85 18196383726869251006
573450 72 18114455747042202162
633830 44 18060411404831620453
7064713 232 18261670381303982437
77492 1 17530959237334288394
7808743 9 18335706069716675020
9862522 239 17750217141780642221
9981440 41 18334017181470887243

>  <PUBCHEM_SHAPE_MULTIPOLES>  (1) 
411.66
10.84
2.23
1.3
2.05
1.05
-0.09
-5.86
0.38
-3.22
-0.09
2.51
-0.27
0.41

>  <PUBCHEM_SHAPE_SELFOVERLAP>  (1) 
915.396

>  <PUBCHEM_SHAPE_VOLUME>  (1) 
218.2

>  <PUBCHEM_COORDINATE_TYPE>  (1) 
2
5
10

$$$$
