20406
     RDKit          3D

 15 15  0  0  0  0  0  0  0  0999 V2000
   -0.2494   -2.1393   -0.0145 S   0  0  0  0  0  0  0  0  0  0  0  0
    0.9724    1.8105    1.2668 O   0  0  0  0  0  0  0  0  0  0  0  0
   -3.1578    1.3811    0.1386 O   0  0  0  0  0  0  0  0  0  0  0  0
   -0.6858    0.5311    0.3868 N   0  0  0  0  0  0  0  0  0  0  0  0
   -2.4680   -0.8307   -0.1280 N   0  0  0  0  0  0  0  0  0  0  0  0
    1.7024   -0.1538    0.0795 C   0  0  0  0  0  0  0  0  0  0  0  0
    3.0876    0.2126    0.6526 C   0  0  0  0  0  0  0  0  0  0  0  0
    1.7699   -0.0021   -1.4495 C   0  0  0  0  0  0  0  0  0  0  0  0
    1.3730   -1.5790    0.5389 C   0  0  0  0  0  0  0  0  0  0  0  0
    0.6400    0.8019    0.6443 C   0  0  0  0  0  0  0  0  0  0  0  0
    4.1584   -0.6915    0.0884 C   0  0  0  0  0  0  0  0  0  0  0  0
    2.1682    1.4045   -1.8376 C   0  0  0  0  0  0  0  0  0  0  0  0
   -1.1327   -0.6483    0.1141 C   0  0  0  0  0  0  0  0  0  0  0  0
   -3.3926    0.1992   -0.0992 C   0  0  0  0  0  0  0  0  0  0  0  0
   -4.7857   -0.2962   -0.3811 C   0  0  0  0  0  0  0  0  0  0  0  0
  1  9  1  0
  1 13  1  0
  2 10  2  0
  3 14  2  0
  4 10  1  0
  4 13  2  0
  5 13  1  0
  5 14  1  0
  6  7  1  0
  6  8  1  0
  6  9  1  0
  6 10  1  0
  7 11  1  0
  8 12  1  0
 14 15  1  0
M  END
>  <PUBCHEM_COMPOUND_CID>  (1) 
20406

>  <PUBCHEM_CONFORMER_RMSD>  (1) 
0.6

>  <PUBCHEM_CONFORMER_DIVERSEORDER>  (1) 
1
17
9
18
21
5
22
19
6
7
23
14
15
12
13
8
24
3
11
2
16
20
4
10

>  <PUBCHEM_MMFF94_PARTIAL_CHARGES>  (1) 
12
1 -0.37
10 0.72
13 0.65
14 0.57
15 0.06
2 -0.57
28 0.37
3 -0.57
4 -0.66
5 -0.49
6 0.06
9 0.23

>  <PUBCHEM_EFFECTIVE_ROTOR_COUNT>  (1) 
4.6

>  <PUBCHEM_PHARMACOPHORE_FEATURES>  (1) 
7
1 11 hydrophobe
1 12 hydrophobe
1 2 acceptor
1 3 acceptor
1 4 donor
1 5 donor
6 1 4 6 9 10 13 rings

>  <PUBCHEM_HEAVY_ATOM_COUNT>  (1) 
15

>  <PUBCHEM_ATOM_DEF_STEREO_COUNT>  (1) 
0

>  <PUBCHEM_ATOM_UDEF_STEREO_COUNT>  (1) 
0

>  <PUBCHEM_BOND_DEF_STEREO_COUNT>  (1) 
0

>  <PUBCHEM_BOND_UDEF_STEREO_COUNT>  (1) 
0

>  <PUBCHEM_ISOTOPIC_ATOM_COUNT>  (1) 
0

>  <PUBCHEM_COMPONENT_COUNT>  (1) 
1

>  <PUBCHEM_CACTVS_TAUTO_COUNT>  (1) 
4

>  <PUBCHEM_CONFORMER_ID>  (1) 
00004FB600000001

>  <PUBCHEM_MMFF94_ENERGY>  (1) 
42.3875

>  <PUBCHEM_FEATURE_SELFOVERLAP>  (1) 
35.571

>  <PUBCHEM_SHAPE_FINGERPRINT>  (1) 
10219947 1 17676486120983318066
12423570 1 14012021291320378798
13705890 14 16056883541380119119
14115302 16 18335706073863624422
14252887 29 16917074360210854663
14344429 50 18272085023987296640
14911166 2 18343021103332803570
14993402 34 17968106304742976646
15048467 5 18334573590637145148
15207287 21 17489871535797581254
15775835 57 18411978066059066375
15852999 172 15626224658413300406
16945 1 17895485743107547410
17802600 8 18412255138984351497
18186145 218 18409454665271714741
18511873 20 18333729130835662842
18522853 295 18342464759033776299
20201158 50 17775005695373241527
20233049 118 18411133623827661632
20279233 1 17489874847064242679
20511035 2 18123750017943230786
20645476 183 18115039626624841270
20645477 70 13398361122760164661
21524375 3 18408321094822806767
231179 274 17095514076655359871
23402539 116 17775276136832059406
23402655 69 18270951342322432813
23557571 272 17489873704539703273
23559900 14 18272091622053880978
2748010 2 17839181053897648203
3060560 45 17775280556432756167
3286 77 18342448279428793597
4990 188 17775569749681832335
53812653 166 18343012311355362011
549884 4 18202289129836737961
69090 78 17632569487718591951
81228 2 17559139608542879832

>  <PUBCHEM_SHAPE_MULTIPOLES>  (1) 
290.84
6.85
1.73
1.16
5.83
0.32
-0.31
-0.31
-0.67
-0.33
-0.02
-0.83
-0.53
-0.46

>  <PUBCHEM_SHAPE_SELFOVERLAP>  (1) 
575.755

>  <PUBCHEM_SHAPE_VOLUME>  (1) 
174.3

>  <PUBCHEM_COORDINATE_TYPE>  (1) 
2
5
10

$$$$
