20407
     RDKit          3D

 17 18  0  0  1  0  0  0  0  0999 V2000
    1.3835   -2.1653   -0.3013 S   0  0  0  0  0  0  0  0  0  0  0  0
   -0.3424    1.6644    0.7708 O   0  0  0  0  0  0  0  0  0  0  0  0
    3.9318    1.5949    0.2121 O   0  0  0  0  0  0  0  0  0  0  0  0
    1.5310    0.5282    0.1597 N   0  0  0  0  0  0  0  0  0  0  0  0
    3.4766   -0.6630   -0.1542 N   0  0  0  0  0  0  0  0  0  0  0  0
   -0.7001   -0.4137   -0.3936 C   0  0  0  0  0  0  0  0  0  0  0  0
   -0.3134   -1.7765    0.1746 C   0  0  0  0  0  0  0  0  0  0  0  0
   -2.1889   -0.1421   -0.2289 C   0  0  0  0  0  0  0  0  0  0  0  0
    0.1635    0.6707    0.2509 C   0  0  0  0  0  0  0  0  0  0  0  0
   -2.8626   -0.6368    0.8839 C   0  0  0  0  0  0  0  0  0  0  0  0
   -2.8669    0.5995   -1.1918 C   0  0  0  0  0  0  0  0  0  0  0  0
    2.1114   -0.6025   -0.0672 C   0  0  0  0  0  0  0  0  0  0  0  0
   -4.2267   -0.3879    1.0351 C   0  0  0  0  0  0  0  0  0  0  0  0
   -4.2311    0.8485   -1.0405 C   0  0  0  0  0  0  0  0  0  0  0  0
   -4.9110    0.3548    0.0730 C   0  0  0  0  0  0  0  0  0  0  0  0
    4.2964    0.4429   -0.0083 C   0  0  0  0  0  0  0  0  0  0  0  0
    5.7489    0.0840   -0.1743 C   0  0  0  0  0  0  0  0  0  0  0  0
  1  7  1  0
  1 12  1  0
  2  9  2  0
  3 16  2  0
  4  9  1  0
  4 12  2  0
  5 12  1  0
  5 16  1  0
  6  7  1  0
  6  8  1  0
  6  9  1  0
  8 10  2  0
  8 11  1  0
 10 13  1  0
 11 14  2  0
 13 15  2  0
 14 15  1  0
 16 17  1  0
M  END
>  <PUBCHEM_COMPOUND_CID>  (1) 
20407

>  <PUBCHEM_CONFORMER_RMSD>  (1) 
0.6

>  <PUBCHEM_CONFORMER_DIVERSEORDER>  (1) 
1
16
27
10
21
15
24
18
14
20
6
9
5
11
4
26
23
25
7
17
8
22
12
19
13
3
28
29
2

>  <PUBCHEM_MMFF94_PARTIAL_CHARGES>  (1) 
23
1 -0.37
10 -0.15
11 -0.15
12 0.65
13 -0.15
14 -0.15
15 -0.15
16 0.57
17 0.06
2 -0.57
21 0.15
22 0.15
23 0.15
24 0.15
25 0.15
26 0.37
3 -0.57
4 -0.66
5 -0.49
6 0.2
7 0.23
8 -0.14
9 0.72

>  <PUBCHEM_EFFECTIVE_ROTOR_COUNT>  (1) 
3.6

>  <PUBCHEM_PHARMACOPHORE_FEATURES>  (1) 
6
1 2 acceptor
1 3 acceptor
1 4 donor
1 5 donor
6 1 4 6 7 9 12 rings
6 8 10 11 13 14 15 rings

>  <PUBCHEM_HEAVY_ATOM_COUNT>  (1) 
17

>  <PUBCHEM_ATOM_DEF_STEREO_COUNT>  (1) 
0

>  <PUBCHEM_ATOM_UDEF_STEREO_COUNT>  (1) 
1

>  <PUBCHEM_BOND_DEF_STEREO_COUNT>  (1) 
0

>  <PUBCHEM_BOND_UDEF_STEREO_COUNT>  (1) 
0

>  <PUBCHEM_ISOTOPIC_ATOM_COUNT>  (1) 
0

>  <PUBCHEM_COMPONENT_COUNT>  (1) 
1

>  <PUBCHEM_CACTVS_TAUTO_COUNT>  (1) 
4

>  <PUBCHEM_CONFORMER_ID>  (1) 
00004FB700000001

>  <PUBCHEM_MMFF94_ENERGY>  (1) 
46.006

>  <PUBCHEM_FEATURE_SELFOVERLAP>  (1) 
30.496

>  <PUBCHEM_SHAPE_FINGERPRINT>  (1) 
11401426 45 18201716262603259702
11471102 20 18341892978611705206
11543360 7 15051447266869716354
12236239 1 17203892942495716211
12969540 114 18341600529893313886
13214271 11 18114179744302278047
13583140 156 16734365253311898668
13675066 3 18187368743930924130
13760787 5 18202280273345200430
14123238 8 17603585235538380293
14251718 22 13542459882422179820
14993402 34 17203601588788224383
15196674 1 18340768264469225146
15219456 202 18187928335678868919
15375358 24 18334013878334645659
17834072 33 17417806283632218509
18186145 218 18272367602986808664
187816 3 18130788962434708376
19489759 90 17022902354426453737
200 152 17917709080470040728
20279233 1 18186806859514514083
204376 136 18411983580591593070
20645477 56 17822008688432815101
20645477 70 18270677554541077950
22854114 59 18407762538356788947
23402539 116 18202278121935648998
23402655 69 18272362024103918293
23493267 7 17967808349243392088
23557571 272 17313386677885996831
23559900 14 17677052326522372066
296302 2 18409166584957172943
350125 39 18124598845288707227
4072396 5 18337938009854551034
5104073 3 17968661489295105697
633830 44 18059868228770116247
77492 1 17060052615210375095

>  <PUBCHEM_SHAPE_MULTIPOLES>  (1) 
332
10.63
1.59
0.93
5.46
0.5
0.05
-2.76
0.19
0.69
-0.01
-0.89
-0.07
0.74

>  <PUBCHEM_SHAPE_SELFOVERLAP>  (1) 
690.594

>  <PUBCHEM_SHAPE_VOLUME>  (1) 
189

>  <PUBCHEM_COORDINATE_TYPE>  (1) 
2
5
10

$$$$
