2040
     RDKit          3D

 21 23  0  0  0  0  0  0  0  0999 V2000
    1.7318   -2.9979    0.5645 F   0  0  0  0  0  0  0  0  0  0  0  0
   -0.1959    2.1095   -0.0377 O   0  0  0  0  0  0  0  0  0  0  0  0
    0.5825   -0.1031   -0.2553 N   0  0  0  0  0  0  0  0  0  0  0  0
   -1.0000   -1.8796   -0.2813 N   0  0  0  0  0  0  0  0  0  0  0  0
   -5.2425    1.7625    0.2047 N   0  0  0  0  0  0  0  0  0  0  0  0
    1.9556    0.3197   -0.2183 C   0  0  0  0  0  0  0  0  0  0  0  0
   -1.7981    0.4229   -0.0970 C   0  0  0  0  0  0  0  0  0  0  0  0
    0.2225   -1.4496   -0.3502 C   0  0  0  0  0  0  0  0  0  0  0  0
   -0.4011    0.9028   -0.1461 C   0  0  0  0  0  0  0  0  0  0  0  0
   -2.0359   -0.9507   -0.1418 C   0  0  0  0  0  0  0  0  0  0  0  0
    2.6365    0.4027    0.9908 C   0  0  0  0  0  0  0  0  0  0  0  0
   -2.8597    1.3284    0.0186 C   0  0  0  0  0  0  0  0  0  0  0  0
    2.5896    0.6424   -1.4128 C   0  0  0  0  0  0  0  0  0  0  0  0
   -3.3552   -1.4127   -0.0701 C   0  0  0  0  0  0  0  0  0  0  0  0
    1.2793   -2.5048   -0.6064 C   0  0  0  0  0  0  0  0  0  0  0  0
   -4.1691    0.8549    0.0884 C   0  0  0  0  0  0  0  0  0  0  0  0
    3.9692    0.8139    1.0058 C   0  0  0  0  0  0  0  0  0  0  0  0
   -4.4172   -0.5148    0.0454 C   0  0  0  0  0  0  0  0  0  0  0  0
    1.9730    0.0606    2.2852 C   0  0  0  0  0  0  0  0  0  0  0  0
    3.9225    1.0535   -1.3979 C   0  0  0  0  0  0  0  0  0  0  0  0
    4.6123    1.1393   -0.1886 C   0  0  0  0  0  0  0  0  0  0  0  0
  1 15  1  0
  2  9  2  0
  3  6  1  0
  3  8  1  0
  3  9  1  0
  4  8  2  0
  4 10  1  0
  5 16  1  0
  6 11  2  0
  6 13  1  0
  7  9  1  0
  7 10  2  0
  7 12  1  0
  8 15  1  0
 10 14  1  0
 11 17  1  0
 11 19  1  0
 12 16  2  0
 13 20  2  0
 14 18  2  0
 16 18  1  0
 17 21  2  0
 20 21  1  0
M  END
>  <PUBCHEM_COMPOUND_CID>  (1) 
2040

>  <PUBCHEM_CONFORMER_RMSD>  (1) 
0.6

>  <PUBCHEM_CONFORMER_DIVERSEORDER>  (1) 
2
1

>  <PUBCHEM_MMFF94_PARTIAL_CHARGES>  (1) 
30
1 -0.34
10 0.18
11 -0.14
12 -0.15
13 -0.15
14 -0.15
15 0.4
16 0.1
17 -0.15
18 -0.15
19 0.14
2 -0.57
20 -0.15
21 -0.15
22 0.15
23 0.15
24 0.15
27 0.15
28 0.15
3 -0.24
32 0.15
33 0.15
34 0.4
35 0.4
4 -0.63
5 -0.9
6 0.12
7 0.09
8 0.45
9 0.54

>  <PUBCHEM_EFFECTIVE_ROTOR_COUNT>  (1) 
2

>  <PUBCHEM_PHARMACOPHORE_FEATURES>  (1) 
6
1 2 acceptor
1 5 cation
1 5 donor
6 3 4 7 8 9 10 rings
6 6 11 13 17 20 21 rings
6 7 10 12 14 16 18 rings

>  <PUBCHEM_HEAVY_ATOM_COUNT>  (1) 
21

>  <PUBCHEM_ATOM_DEF_STEREO_COUNT>  (1) 
0

>  <PUBCHEM_ATOM_UDEF_STEREO_COUNT>  (1) 
0

>  <PUBCHEM_BOND_DEF_STEREO_COUNT>  (1) 
0

>  <PUBCHEM_BOND_UDEF_STEREO_COUNT>  (1) 
0

>  <PUBCHEM_ISOTOPIC_ATOM_COUNT>  (1) 
0

>  <PUBCHEM_COMPONENT_COUNT>  (1) 
1

>  <PUBCHEM_CACTVS_TAUTO_COUNT>  (1) 
1

>  <PUBCHEM_CONFORMER_ID>  (1) 
000007F800000002

>  <PUBCHEM_MMFF94_ENERGY>  (1) 
93.4092

>  <PUBCHEM_FEATURE_SELFOVERLAP>  (1) 
30.475

>  <PUBCHEM_SHAPE_FINGERPRINT>  (1) 
10366900 7 18130780175221992281
10411042 1 17403176392135417886
10498660 4 18342177769298270401
11132069 177 18410575097843581453
11578080 2 16880465970472729094
11963148 33 18191301783409349595
12236239 1 17895192246897235364
12403259 415 17845936341716936257
12403814 3 17603862317349291917
12592029 89 18335427875910063546
12633257 1 16515956051736215672
12788726 201 17320714085741898322
13140716 1 17907017631835046979
13544592 145 17917441951269518588
14178342 30 18340755040164992987
14341114 328 17603302686846330128
14790565 3 18337680831023167116
15196674 1 18411984641801689743
15536298 74 18342461391700503079
1601671 61 18409731755171660325
16752209 62 18267297818995274543
16945 1 18339919441424237783
18186145 218 17346321526546726419
19784866 170 18408326579379531489
19784866 9 18409729538978747418
20028762 73 17769661133093254087
20600515 1 18270958072061990448
20691752 17 17822015259353352991
20715895 44 17608349269726180109
21033648 29 17418369220959285745
21421861 104 17896877651571067411
2334 1 17475230683833319463
23366157 5 18042409032352159246
23402539 116 18272366516560738164
23493267 7 18114472252580551706
23559900 14 18201166511791416164
2748010 2 18339646620896299559
34934 24 18341610400292506365
350125 39 18194686956012970404
474 4 18041002851205211639
495365 180 17631436887636185575
4990 188 17489594471483004884
5104073 3 18338526214679669611
5265222 85 18054797441317197804
59755656 215 18341338786624290590
633830 44 18059569230459083508
7364860 26 18200031716522337846
7495541 125 11887665226065280687
77492 1 17749943488044670588
8272917 22 17022894632117434256

>  <PUBCHEM_SHAPE_MULTIPOLES>  (1) 
404.08
8.91
2.26
1.21
4.03
1.46
0.42
-4.19
-0.03
0.4
-0.12
-1.56
-0.12
-0.33

>  <PUBCHEM_SHAPE_SELFOVERLAP>  (1) 
890.625

>  <PUBCHEM_SHAPE_VOLUME>  (1) 
217.7

>  <PUBCHEM_COORDINATE_TYPE>  (1) 
2
5
10

$$$$
