20401
     RDKit          3D

 14 15  0  0  0  0  0  0  0  0999 V2000
    3.9260   -0.2617    0.0017 O   0  0  0  0  0  0  0  0  0  0  0  0
   -4.1171    0.7931    0.0013 O   0  0  0  0  0  0  0  0  0  0  0  0
   -3.9871   -1.4762    0.0013 O   0  0  0  0  0  0  0  0  0  0  0  0
   -1.3934    1.0660   -0.0004 N   0  0  0  0  0  0  0  0  0  0  0  0
    0.2626   -0.4288   -0.0009 C   0  0  0  0  0  0  0  0  0  0  0  0
   -0.0226    0.9383   -0.0003 C   0  0  0  0  0  0  0  0  0  0  0  0
   -0.9836   -1.1155   -0.0013 C   0  0  0  0  0  0  0  0  0  0  0  0
   -1.9829   -0.1697   -0.0011 C   0  0  0  0  0  0  0  0  0  0  0  0
    1.6102   -0.8403   -0.0009 C   0  0  0  0  0  0  0  0  0  0  0  0
    0.9763    1.9181    0.0003 C   0  0  0  0  0  0  0  0  0  0  0  0
    2.6201    0.1287   -0.0006 C   0  0  0  0  0  0  0  0  0  0  0  0
    2.3057    1.4862    0.0000 C   0  0  0  0  0  0  0  0  0  0  0  0
   -3.3968   -0.3738    0.0001 C   0  0  0  0  0  0  0  0  0  0  0  0
    4.1824   -1.6643    0.0008 C   0  0  0  0  0  0  0  0  0  0  0  0
  1 11  1  0
  1 14  1  0
  2 13  1  0
  3 13  2  0
  4  6  1  0
  4  8  1  0
  5  6  2  0
  5  7  1  0
  5  9  1  0
  6 10  1  0
  7  8  2  0
  8 13  1  0
  9 11  2  0
 10 12  2  0
 11 12  1  0
M  END
>  <PUBCHEM_COMPOUND_CID>  (1) 
20401

>  <PUBCHEM_CONFORMER_RMSD>  (1) 
0.6

>  <PUBCHEM_CONFORMER_DIVERSEORDER>  (1) 
1
2

>  <PUBCHEM_MMFF94_PARTIAL_CHARGES>  (1) 
19
1 -0.36
10 -0.15
11 0.08
12 -0.15
13 0.81
14 0.28
15 0.15
16 0.27
17 0.15
18 0.15
19 0.15
2 -0.65
23 0.5
3 -0.57
4 0.03
6 -0.15
7 -0.15
8 -0.24
9 -0.15

>  <PUBCHEM_EFFECTIVE_ROTOR_COUNT>  (1) 
2

>  <PUBCHEM_PHARMACOPHORE_FEATURES>  (1) 
8
1 1 acceptor
1 2 acceptor
1 3 acceptor
1 4 cation
1 4 donor
3 2 3 13 anion
5 4 5 6 7 8 rings
6 5 6 9 10 11 12 rings

>  <PUBCHEM_HEAVY_ATOM_COUNT>  (1) 
14

>  <PUBCHEM_ATOM_DEF_STEREO_COUNT>  (1) 
0

>  <PUBCHEM_ATOM_UDEF_STEREO_COUNT>  (1) 
0

>  <PUBCHEM_BOND_DEF_STEREO_COUNT>  (1) 
0

>  <PUBCHEM_BOND_UDEF_STEREO_COUNT>  (1) 
0

>  <PUBCHEM_ISOTOPIC_ATOM_COUNT>  (1) 
0

>  <PUBCHEM_COMPONENT_COUNT>  (1) 
1

>  <PUBCHEM_CACTVS_TAUTO_COUNT>  (1) 
2

>  <PUBCHEM_CONFORMER_ID>  (1) 
00004FB100000001

>  <PUBCHEM_MMFF94_ENERGY>  (1) 
34.2564

>  <PUBCHEM_FEATURE_SELFOVERLAP>  (1) 
40.744

>  <PUBCHEM_SHAPE_FINGERPRINT>  (1) 
10062212 137 18272082799489818367
10130415 120 18409446990307594584
10219947 1 18272653454334753438
10608611 8 18337104674440488069
11401426 45 18413100654297996041
11471102 20 18410006658647610285
11543360 7 15719686432255423062
11769659 78 18341890826748719879
12032990 46 18410577275291728118
12932764 1 17095508622036155811
13288520 33 18340771425781673342
13675066 3 18201715167296922115
13690532 89 18411136930857618278
14115302 16 17676781928202799902
14144814 61 18412546539350869537
14252887 29 18059582369233462182
14325111 11 18338797922341734977
15196674 1 18410575097553294533
15442244 35 18412265038451471681
15536298 74 18342737459571694824
16945 1 18410855494593538116
18186145 218 17821720654787770679
18522853 276 18342455928718204936
193761 8 17546164104113651878
19422 9 18411705421566537421
200 152 18060129947435218455
20201158 50 18409731755018465082
20645477 70 18410571807629763358
20871998 22 18200319797343093302
21267235 1 18411146839352633295
21501925 9 18411974772051044688
221490 88 18191030207877542539
22959321 4 18339363071249749163
23402539 116 18272079470515448878
23402655 69 18412541029129524461
23463225 33 18411138030638063630
23559900 14 18411415112301028442
2748010 2 18120940774065481518
5104073 3 18412263964862427993
7364860 26 18269836579049835536
8809292 202 18187651331436195987

>  <PUBCHEM_SHAPE_MULTIPOLES>  (1) 
265.52
7.22
1.73
0.59
1.71
0.26
0
-2.74
0
-0.72
0
-0.04
0
0

>  <PUBCHEM_SHAPE_SELFOVERLAP>  (1) 
580.337

>  <PUBCHEM_SHAPE_VOLUME>  (1) 
146.1

>  <PUBCHEM_COORDINATE_TYPE>  (1) 
2
5
10

$$$$
