20415
     RDKit          3D

 18 19  0  0  0  0  0  0  0  0999 V2000
    4.1357    1.9232   -0.2629 O   0  0  0  0  0  0  0  0  0  0  0  0
    1.9994    2.3140   -0.9341 O   0  0  0  0  0  0  0  0  0  0  0  0
    0.3194    0.6264    0.4516 N   0  0  0  0  0  0  0  0  0  0  0  0
    1.1357   -1.5862    0.6938 N   0  0  0  0  0  0  0  0  0  0  0  0
   -3.0049   -0.6115   -0.6193 C   0  0  0  0  0  0  0  0  0  0  0  0
   -1.0800    0.4944    0.3340 C   0  0  0  0  0  0  0  0  0  0  0  0
   -3.8478    0.2331    0.1031 C   0  0  0  0  0  0  0  0  0  0  0  0
   -1.6209   -0.4809   -0.5038 C   0  0  0  0  0  0  0  0  0  0  0  0
   -1.9231    1.3390    1.0563 C   0  0  0  0  0  0  0  0  0  0  0  0
   -3.3070    1.2083    0.9409 C   0  0  0  0  0  0  0  0  0  0  0  0
    1.3769   -0.2978    0.3456 C   0  0  0  0  0  0  0  0  0  0  0  0
   -3.5614   -1.6619   -1.5234 C   0  0  0  0  0  0  0  0  0  0  0  0
   -5.3326    0.1124   -0.0041 C   0  0  0  0  0  0  0  0  0  0  0  0
    2.6106    0.1532   -0.1087 C   0  0  0  0  0  0  0  0  0  0  0  0
    3.6497   -0.7650   -0.2111 C   0  0  0  0  0  0  0  0  0  0  0  0
    3.4334   -2.0933    0.1385 C   0  0  0  0  0  0  0  0  0  0  0  0
    2.1696   -2.4498    0.5811 C   0  0  0  0  0  0  0  0  0  0  0  0
    2.8473    1.5421   -0.4775 C   0  0  0  0  0  0  0  0  0  0  0  0
  1 18  1  0
  2 18  2  0
  3  6  1  0
  3 11  1  0
  4 11  2  0
  4 17  1  0
  5  7  2  0
  5  8  1  0
  5 12  1  0
  6  8  2  0
  6  9  1  0
  7 10  1  0
  7 13  1  0
  9 10  2  0
 11 14  1  0
 14 15  2  0
 14 18  1  0
 15 16  1  0
 16 17  2  0
M  END
>  <PUBCHEM_COMPOUND_CID>  (1) 
20415

>  <PUBCHEM_CONFORMER_RMSD>  (1) 
0.6

>  <PUBCHEM_CONFORMER_DIVERSEORDER>  (1) 
1
13
17
16
2
14
18
6
8
12
7
15
4
3
10
9
11
5

>  <PUBCHEM_MMFF94_PARTIAL_CHARGES>  (1) 
26
1 -0.65
10 -0.15
11 0.41
12 0.14
13 0.14
14 0.09
15 -0.15
16 -0.15
17 0.16
18 0.63
19 0.15
2 -0.57
20 0.15
21 0.15
22 0.4
29 0.15
3 -0.6
30 0.15
31 0.15
32 0.5
4 -0.62
5 -0.14
6 0.1
7 -0.14
8 -0.15
9 -0.15

>  <PUBCHEM_EFFECTIVE_ROTOR_COUNT>  (1) 
3

>  <PUBCHEM_PHARMACOPHORE_FEATURES>  (1) 
8
1 1 acceptor
1 2 acceptor
1 3 cation
1 3 donor
1 4 acceptor
3 1 2 18 anion
6 4 11 14 15 16 17 rings
6 5 6 7 8 9 10 rings

>  <PUBCHEM_HEAVY_ATOM_COUNT>  (1) 
18

>  <PUBCHEM_ATOM_DEF_STEREO_COUNT>  (1) 
0

>  <PUBCHEM_ATOM_UDEF_STEREO_COUNT>  (1) 
0

>  <PUBCHEM_BOND_DEF_STEREO_COUNT>  (1) 
0

>  <PUBCHEM_BOND_UDEF_STEREO_COUNT>  (1) 
0

>  <PUBCHEM_ISOTOPIC_ATOM_COUNT>  (1) 
0

>  <PUBCHEM_COMPONENT_COUNT>  (1) 
1

>  <PUBCHEM_CACTVS_TAUTO_COUNT>  (1) 
3

>  <PUBCHEM_CONFORMER_ID>  (1) 
00004FBF00000001

>  <PUBCHEM_MMFF94_ENERGY>  (1) 
68.1244

>  <PUBCHEM_FEATURE_SELFOVERLAP>  (1) 
40.652

>  <PUBCHEM_SHAPE_FINGERPRINT>  (1) 
10616163 171 18201999945404911087
11471102 20 18261114058495141408
11578080 2 18055322839101335337
12107183 9 17764595313476359185
12236239 1 18272371949171900441
12553582 1 18046060458960077106
12788726 201 17704082772245993737
13009979 54 17914619358686817154
13167823 11 18341613690016077723
13760787 19 18272089430855779647
13760787 5 18341610400487691525
14250199 8 18334861601588456410
14251717 144 18334576836983295162
15342168 16 17823710843574650997
15375462 189 18272370893058410243
15442244 35 18267306417656762848
15536298 74 18342177756666153832
15669948 3 17846493751500051791
16752209 62 17632007555946381777
17492 89 18341334401151983727
1813 80 18122634842754758750
18186145 218 17458341935869122475
18915474 69 18273209824403727599
19050596 39 18342454841896235267
19422 9 18344145886521801527
200 152 18411697660676678257
20281475 54 18272079518219089767
20612939 158 18334582330441704220
20645477 70 18408604734104072215
21267235 1 18341622468607685275
21634736 98 18412262830991515678
221490 88 18334305274760033634
2255824 54 18335706027056866450
22646028 28 18343298137360900395
22854114 111 18335426755044905312
23402655 69 18410857633397717260
23463225 33 18271243811729657759
23557571 272 16773802437656173776
23559900 14 18408884040116783570
23598291 2 18269567043617672220
3082319 5 18343584048927778715
312423 11 18270133326560576569
474 4 18261116334780751260
5104073 3 18413111632661719033
5281201 14 17967531238227773773
57096353 35 18342454901988795901
58051976 100 18265054622475745861
603831 33 18200868582103741903
633830 44 17894349956307269801
67856867 119 18341885329639117128
7364860 26 18411420596758026552
77492 1 18272371953503823513
84936 182 18271528710180958368
9709674 26 18410018710484624595
9981440 41 17835232729550022160

>  <PUBCHEM_SHAPE_MULTIPOLES>  (1) 
348.73
9.21
2.31
1.01
4.56
0.18
-0.1
0.32
-0.95
-2.22
-0.17
0.49
0.05
-1.83

>  <PUBCHEM_SHAPE_SELFOVERLAP>  (1) 
749.136

>  <PUBCHEM_SHAPE_VOLUME>  (1) 
191.7

>  <PUBCHEM_COORDINATE_TYPE>  (1) 
2
5
10

$$$$
