20416
     RDKit          3D

 23 24  0  0  0  0  0  0  0  0999 V2000
    6.0838    1.2456   -1.1892 Cl  0  0  0  0  0  0  0  0  0  0  0  0
    0.1648   -3.4474   -1.4748 Cl  0  0  0  0  0  0  0  0  0  0  0  0
    2.3369   -0.2416    0.8997 P   0  0  0  0  0  0  0  0  0  0  0  0
    1.5398    0.8644    0.0245 O   0  0  0  0  0  0  0  0  0  0  0  0
   -2.7808   -0.8967    1.0210 O   0  0  0  0  0  0  0  0  0  0  0  0
    3.8971    0.0410    0.5642 O   0  0  0  0  0  0  0  0  0  0  0  0
    2.0171   -1.6368    0.1371 O   0  0  0  0  0  0  0  0  0  0  0  0
    1.9884   -0.2625    2.3614 O   0  0  0  0  0  0  0  0  0  0  0  0
   -4.8447   -1.7527    1.5082 O   0  0  0  0  0  0  0  0  0  0  0  0
   -2.6122    1.0675   -0.4216 C   0  0  0  0  0  0  0  0  0  0  0  0
   -2.0095    0.0766    0.3547 C   0  0  0  0  0  0  0  0  0  0  0  0
   -4.0770    1.0793   -0.5344 C   0  0  0  0  0  0  0  0  0  0  0  0
    0.1882    0.9274   -0.1184 C   0  0  0  0  0  0  0  0  0  0  0  0
   -0.6252   -0.0063    0.5148 C   0  0  0  0  0  0  0  0  0  0  0  0
   -1.7754    1.9987   -1.0512 C   0  0  0  0  0  0  0  0  0  0  0  0
   -0.3859    1.9284   -0.9001 C   0  0  0  0  0  0  0  0  0  0  0  0
   -4.7852    0.1411    0.1100 C   0  0  0  0  0  0  0  0  0  0  0  0
   -4.7553    2.1316   -1.3618 C   0  0  0  0  0  0  0  0  0  0  0  0
   -4.1641   -0.9104    0.9330 C   0  0  0  0  0  0  0  0  0  0  0  0
    4.4708    1.2606    1.0014 C   0  0  0  0  0  0  0  0  0  0  0  0
    2.2931   -1.7684   -1.2469 C   0  0  0  0  0  0  0  0  0  0  0  0
    5.9287    1.3194    0.5846 C   0  0  0  0  0  0  0  0  0  0  0  0
    1.9066   -3.1588   -1.7162 C   0  0  0  0  0  0  0  0  0  0  0  0
  1 22  1  0
  2 23  1  0
  3  4  1  0
  3  6  1  0
  3  7  1  0
  3  8  2  0
  4 13  1  0
  5 11  1  0
  5 19  1  0
  6 20  1  0
  7 21  1  0
  9 19  2  0
 10 11  2  0
 10 12  1  0
 10 15  1  0
 11 14  1  0
 12 17  2  0
 12 18  1  0
 13 14  2  0
 13 16  1  0
 15 16  2  0
 17 19  1  0
 20 22  1  0
 21 23  1  0
M  END
>  <PUBCHEM_COMPOUND_CID>  (1) 
20416

>  <PUBCHEM_CONFORMER_RMSD>  (1) 
0.8

>  <PUBCHEM_CONFORMER_DIVERSEORDER>  (1) 
1
113
55
118
50
125
93
136
204
116
209
36
26
242
61
284
56
221
320
107
32
98
154
122
186
96
9
138
191
109
228
43
128
30
165
62
260
79
306
87
259
75
159
12
31
120
271
21
102
111
132
58
297
232
101
203
29
84
222
253
76
230
133
34
205
195
168
110
151
157
59
285
27
99
80
39
192
183
214
115
71
22
264
206
210
63
105
108
218
289
212
33
89
44
92
142
40
48
175
91
117
68
5
2
177
226
309
25
303
7
70
41
167
188
10
283
77
279
45
239
42
278
90
19
231
46
148
24
270
182
131
255
67
290
171
267
20
57
4
178
35
202
224
174
250
18
193
199
322
307
233
240
295
72
145
28
227
135
104
121
94
49
237
251
276
134
282
173
280
86
184
156
211
53
198
47
291
235
316
217
119
124
244
161
8
185
17
265
127
319
317
269
321
14
252
181
304
137
83
208
69
114
196
143
23
207
296
286
146
74
6
300
37
38
95
311
150
187
234
85
153
166
189
60
164
52
299
180
3
112
106
201
162
129
298
308
261
213
256
100
13
219
262
245
281
141
149
172
318
215
54
275
294
158
170
305
97
223
78
155
229
123
73
190
266
169
258
312
160
263
277
293
313
66
314
16
315
179
88
287
51
273
274
126
197
257
139
144
310
288
248
130
200
81
238
163
216
236
140
176
152
147
254
15
246
272
247
268
301
292
65
82
11
194
243
225
302
241
64
220
103
249

>  <PUBCHEM_MMFF94_PARTIAL_CHARGES>  (1) 
27
1 -0.29
10 0.03
11 0.08
12 -0.17
13 0.08
14 -0.15
15 -0.15
16 -0.15
17 -0.14
18 0.14
19 0.71
2 -0.29
20 0.28
21 0.28
22 0.29
23 0.29
24 0.15
25 0.15
26 0.15
27 0.15
3 1.51
4 -0.35
5 -0.23
6 -0.55
7 -0.55
8 -0.7
9 -0.57

>  <PUBCHEM_EFFECTIVE_ROTOR_COUNT>  (1) 
8

>  <PUBCHEM_PHARMACOPHORE_FEATURES>  (1) 
4
1 8 acceptor
1 9 acceptor
6 10 11 13 14 15 16 rings
6 5 10 11 12 17 19 rings

>  <PUBCHEM_HEAVY_ATOM_COUNT>  (1) 
23

>  <PUBCHEM_ATOM_DEF_STEREO_COUNT>  (1) 
0

>  <PUBCHEM_ATOM_UDEF_STEREO_COUNT>  (1) 
0

>  <PUBCHEM_BOND_DEF_STEREO_COUNT>  (1) 
0

>  <PUBCHEM_BOND_UDEF_STEREO_COUNT>  (1) 
0

>  <PUBCHEM_ISOTOPIC_ATOM_COUNT>  (1) 
0

>  <PUBCHEM_COMPONENT_COUNT>  (1) 
1

>  <PUBCHEM_CACTVS_TAUTO_COUNT>  (1) 
1

>  <PUBCHEM_CONFORMER_ID>  (1) 
00004FC000000001

>  <PUBCHEM_MMFF94_ENERGY>  (1) 
49.8494

>  <PUBCHEM_FEATURE_SELFOVERLAP>  (1) 
20.324

>  <PUBCHEM_SHAPE_FINGERPRINT>  (1) 
10165383 225 18060144288299488450
10366900 7 17632285774905489337
10906281 52 18187939347500664973
11488393 25 18199478666932939166
12236239 1 16515680048680046368
13533116 47 17560230307498682743
13583140 156 17132114637501835283
13911882 115 18412835685007607258
14341114 328 17531241764710154480
14747281 78 17697612000071911797
15375358 24 18335976480867784273
17980427 23 16008753519623294318
20600515 1 17530972388350043245
20645477 70 18057594383184907719
21033648 29 18130488817014396200
21365058 27 17774170118661451862
22182313 1 18336836299361787775
22224240 67 18060135500348150714
23402539 116 17603859026919065600
23557571 272 18187374207055250737
23558518 356 17552073996398890648
23559900 14 18044665204236557766
335352 9 17894907469702370085
34934 24 17894900802890058593
3729539 64 17987257551431976502
4325135 7 17676488371425030916
458136 41 17989203724982140190
5104073 3 18187076213661207633
59755656 520 17131559434809845430
9709674 26 18265893566958744183

>  <PUBCHEM_SHAPE_MULTIPOLES>  (1) 
445.7
11.94
3.04
1.64
5.97
3.09
-0.2
-5.68
-0.68
0.7
1.98
0.2
0.44
2.35

>  <PUBCHEM_SHAPE_SELFOVERLAP>  (1) 
891.279

>  <PUBCHEM_SHAPE_VOLUME>  (1) 
265.1

>  <PUBCHEM_COORDINATE_TYPE>  (1) 
2
5
10

$$$$
