20414
     RDKit          3D

 16 15  0  0  1  0  0  0  0  0999 V2000
    1.3719    1.0747   -0.3053 C   0  0  0  0  0  0  0  0  0  0  0  0
    0.2320    0.0196   -0.2539 C   0  0  0  0  0  0  0  0  0  0  0  0
    2.7382    0.4110   -0.7200 C   0  0  0  0  0  0  0  0  0  0  0  0
   -1.2413    0.4669   -0.0501 C   0  0  0  0  0  0  0  0  0  0  0  0
    3.3871   -0.7895    0.0428 C   0  0  0  0  0  0  0  0  0  0  0  0
   -2.1730   -0.7684   -0.2297 C   0  0  0  0  0  0  0  0  0  0  0  0
   -3.7029   -0.5072   -0.1112 C   0  0  0  0  0  0  0  0  0  0  0  0
    1.0699    2.1341   -1.3947 C   0  0  0  0  0  0  0  0  0  0  0  0
    1.5337    1.8247    1.0321 C   0  0  0  0  0  0  0  0  0  0  0  0
   -1.4826    1.1007    1.3224 C   0  0  0  0  0  0  0  0  0  0  0  0
    3.7915   -0.4639    1.4847 C   0  0  0  0  0  0  0  0  0  0  0  0
    2.4855   -2.0384    0.0408 C   0  0  0  0  0  0  0  0  0  0  0  0
    4.6759   -1.1679   -0.7303 C   0  0  0  0  0  0  0  0  0  0  0  0
   -4.4971   -1.5439   -0.9270 C   0  0  0  0  0  0  0  0  0  0  0  0
   -4.0890    0.9056   -0.5726 C   0  0  0  0  0  0  0  0  0  0  0  0
   -4.0999   -0.6580    1.3720 C   0  0  0  0  0  0  0  0  0  0  0  0
  1  2  1  0
  1  3  1  0
  1  8  1  0
  1  9  1  0
  2  4  1  0
  3  5  1  0
  4  6  1  0
  4 10  1  0
  5 11  1  0
  5 12  1  0
  5 13  1  0
  6  7  1  0
  7 14  1  0
  7 15  1  0
  7 16  1  0
M  END
>  <PUBCHEM_COMPOUND_CID>  (1) 
20414

>  <PUBCHEM_CONFORMER_RMSD>  (1) 
0.8

>  <PUBCHEM_CONFORMER_DIVERSEORDER>  (1) 
1
6
3
7
8
4
5
2

>  <PUBCHEM_MMFF94_PARTIAL_CHARGES>  (1) 
0

>  <PUBCHEM_EFFECTIVE_ROTOR_COUNT>  (1) 
6

>  <PUBCHEM_PHARMACOPHORE_FEATURES>  (1) 
4
1 10 hydrophobe
3 1 8 9 hydrophobe
4 5 11 12 13 hydrophobe
4 7 14 15 16 hydrophobe

>  <PUBCHEM_HEAVY_ATOM_COUNT>  (1) 
16

>  <PUBCHEM_ATOM_DEF_STEREO_COUNT>  (1) 
0

>  <PUBCHEM_ATOM_UDEF_STEREO_COUNT>  (1) 
1

>  <PUBCHEM_BOND_DEF_STEREO_COUNT>  (1) 
0

>  <PUBCHEM_BOND_UDEF_STEREO_COUNT>  (1) 
0

>  <PUBCHEM_ISOTOPIC_ATOM_COUNT>  (1) 
0

>  <PUBCHEM_COMPONENT_COUNT>  (1) 
1

>  <PUBCHEM_CACTVS_TAUTO_COUNT>  (1) 
1

>  <PUBCHEM_CONFORMER_ID>  (1) 
00004FBE00000001

>  <PUBCHEM_MMFF94_ENERGY>  (1) 
70.89

>  <PUBCHEM_FEATURE_SELFOVERLAP>  (1) 
20.3

>  <PUBCHEM_SHAPE_FINGERPRINT>  (1) 
10062212 137 18273214205803177919
10922049 32 9583509941288390260
11405975 8 18409167719124146241
11543360 7 14779557810812692235
116883 192 18042965380866760348
11806522 49 18342174483837783750
12507560 40 16988555767728407896
12553582 1 18334017185401512682
12916754 54 18270399516276246815
13296908 3 17531248413276953713
13675066 3 18343016709702449243
13705890 14 17967254217074106776
14251717 144 18408602569577873966
14252887 29 18060704961978466310
15239154 128 9295288348191675047
15848700 24 18334289855911278308
17041 50 17313099778476724805
17834072 14 18059847346729060177
17834072 33 18341618139802669732
17834072 8 18334852780290178757
1798214 20 18335416846444674542
18186145 218 16443341014141041165
18222031 100 18410290298804841854
193927 3 18340220608715315254
200 152 18342175566116807847
20281475 54 18273219715739608397
20339313 130 18186525422802236068
20559304 39 18202570600508042256
20626108 58 18187909703678151146
20645477 70 18187646958953519806
20671657 53 17822010904092783024
20871999 31 17531531988265877556
21250096 35 18341890757992306906
21501925 9 18202559592343273968
221490 88 18042699470645671723
2255824 54 18264495151229511228
22646028 1 18342459266007923223
22646028 28 18341336617059098570
22854114 59 12967131614099674463
231179 274 10303816466763642082
23402539 116 17313101908854064012
23532345 12 18341899588687849029
23559900 14 18340479058240496217
251288 83 17417806270958280698
2838139 119 12902413316624468718
2871803 45 18260830350378452238
312423 11 18336839696717712157
42 15 17917996070174255343
4990 188 15285355124004788546
5104073 3 18411702118958402625
573450 72 17632863036133130051
58051976 100 18408318900415979975
59682541 52 16880160452828595319
6333272 397 11095873887004979372
633830 44 17240478143959165077
7364860 26 18265054807027743708
76465 3 17988354975177976063
94968 8 18335140886707092866
9882013 296 14620788306097360345

>  <PUBCHEM_SHAPE_MULTIPOLES>  (1) 
329.27
9.54
1.96
1.32
3.47
0.25
-0.3
-4.79
0.25
-0.72
0.28
-0.03
0.27
-0.24

>  <PUBCHEM_SHAPE_SELFOVERLAP>  (1) 
615.011

>  <PUBCHEM_SHAPE_VOLUME>  (1) 
213.6

>  <PUBCHEM_COORDINATE_TYPE>  (1) 
2
5
10

$$$$
