20421
     RDKit          3D

 11 11  0  0  0  0  0  0  0  0999 V2000
   -0.5830    2.6545    0.0000 Cl  0  0  0  0  0  0  0  0  0  0  0  0
   -2.1273   -0.0128    0.0000 C   0  0  0  0  0  0  0  0  0  0  0  0
   -0.6337   -0.0699    0.0001 C   0  0  0  0  0  0  0  0  0  0  0  0
   -2.7377   -0.6516    1.2603 C   0  0  0  0  0  0  0  0  0  0  0  0
   -2.7378   -0.6509   -1.2606 C   0  0  0  0  0  0  0  0  0  0  0  0
    0.1432    1.0885    0.0001 C   0  0  0  0  0  0  0  0  0  0  0  0
   -0.0189   -1.3220    0.0000 C   0  0  0  0  0  0  0  0  0  0  0  0
    2.1497   -0.2572    0.0002 C   0  0  0  0  0  0  0  0  0  0  0  0
    1.5349    0.9949    0.0003 C   0  0  0  0  0  0  0  0  0  0  0  0
    1.3728   -1.4157    0.0000 C   0  0  0  0  0  0  0  0  0  0  0  0
    3.6378   -0.3578   -0.0005 C   0  0  0  0  0  0  0  0  0  0  0  0
  1  6  1  0
  2  3  1  0
  2  4  1  0
  2  5  1  0
  3  6  2  0
  3  7  1  0
  6  9  1  0
  7 10  2  0
  8  9  2  0
  8 10  1  0
  8 11  1  0
M  END
>  <PUBCHEM_COMPOUND_CID>  (1) 
20421

>  <PUBCHEM_CONFORMER_RMSD>  (1) 
0.4

>  <PUBCHEM_CONFORMER_DIVERSEORDER>  (1) 
1
2

>  <PUBCHEM_MMFF94_PARTIAL_CHARGES>  (1) 
12
1 -0.18
10 -0.15
11 0.14
19 0.15
2 0.14
20 0.15
21 0.15
3 -0.14
6 0.18
7 -0.15
8 -0.14
9 -0.15

>  <PUBCHEM_EFFECTIVE_ROTOR_COUNT>  (1) 
1

>  <PUBCHEM_PHARMACOPHORE_FEATURES>  (1) 
2
3 2 4 5 hydrophobe
6 3 6 7 8 9 10 rings

>  <PUBCHEM_HEAVY_ATOM_COUNT>  (1) 
11

>  <PUBCHEM_ATOM_DEF_STEREO_COUNT>  (1) 
0

>  <PUBCHEM_ATOM_UDEF_STEREO_COUNT>  (1) 
0

>  <PUBCHEM_BOND_DEF_STEREO_COUNT>  (1) 
0

>  <PUBCHEM_BOND_UDEF_STEREO_COUNT>  (1) 
0

>  <PUBCHEM_ISOTOPIC_ATOM_COUNT>  (1) 
0

>  <PUBCHEM_COMPONENT_COUNT>  (1) 
1

>  <PUBCHEM_CACTVS_TAUTO_COUNT>  (1) 
1

>  <PUBCHEM_CONFORMER_ID>  (1) 
00004FC500000001

>  <PUBCHEM_MMFF94_ENERGY>  (1) 
27.6774

>  <PUBCHEM_FEATURE_SELFOVERLAP>  (1) 
10.148

>  <PUBCHEM_SHAPE_FINGERPRINT>  (1) 
10219947 1 18412267263170599986
10353120 184 18337128790428225502
11206711 2 18337110060234350276
12032990 46 18409176519037414402
12423570 1 11040605930049336169
12897270 3 18410006615792830902
12932764 1 17989202603905751658
13380535 21 17908438960813818836
13380535 76 17905601099574582396
14128692 85 17773581901141004247
14993402 34 18201150039774216846
16945 1 18410856564256679138
17844478 74 17967260814207040523
18534176 82 17167856470148758815
193761 8 17834114139239302790
20201158 50 18259701190206290619
21061003 4 18335713770640080929
21501502 16 18049155575638618338
23402539 116 18341321232939834318
23402655 69 18194382434896118125
23552423 10 18045506309452271030
241688 4 18269825557530257705
2748010 2 18122627425134637478
29004967 10 18335145297105528779
5084963 1 18060411439053844890
528886 8 18411976949298919827
63268167 104 18269831089627612717
81228 2 18264489473008828969

>  <PUBCHEM_SHAPE_MULTIPOLES>  (1) 
228.24
4.44
1.94
0.91
1.26
1.46
0
-1.43
0
-0.18
0
-0.78
-0.19
0

>  <PUBCHEM_SHAPE_SELFOVERLAP>  (1) 
456.418

>  <PUBCHEM_SHAPE_VOLUME>  (1) 
133.8

>  <PUBCHEM_COORDINATE_TYPE>  (1) 
2
5
10

$$$$
