2042
     RDKit          3D

 20 21  0  0  0  0  0  0  0  0999 V2000
   -5.0697   -0.0483    0.2898 N   0  0  0  0  0  0  0  0  0  0  0  0
    3.4893   -1.8744    0.0718 N   0  0  0  0  0  0  0  0  0  0  0  0
    0.4106   -2.6664   -1.5607 N   0  0  0  0  0  0  0  0  0  0  0  0
    6.0159    0.7048    0.1640 N   0  0  0  0  0  0  0  0  0  0  0  0
    2.0954    2.7534   -0.1286 N   0  0  0  0  0  0  0  0  0  0  0  0
   -3.0648    0.6527   -0.3931 C   0  0  0  0  0  0  0  0  0  0  0  0
   -3.7192   -0.1662    0.5296 C   0  0  0  0  0  0  0  0  0  0  0  0
   -0.9586   -0.0395    0.5830 C   0  0  0  0  0  0  0  0  0  0  0  0
   -1.6575    0.7164   -0.3651 C   0  0  0  0  0  0  0  0  0  0  0  0
   -3.0337   -0.9274    1.4831 C   0  0  0  0  0  0  0  0  0  0  0  0
   -4.0692    1.2654   -1.1935 C   0  0  0  0  0  0  0  0  0  0  0  0
   -1.6383   -0.8479    1.4921 C   0  0  0  0  0  0  0  0  0  0  0  0
   -5.2911    0.8146   -0.7497 C   0  0  0  0  0  0  0  0  0  0  0  0
    0.4952    0.0217    0.6193 C   0  0  0  0  0  0  0  0  0  0  0  0
    1.3563   -0.7890   -0.0462 C   0  0  0  0  0  0  0  0  0  0  0  0
    2.8208   -0.6728    0.0203 C   0  0  0  0  0  0  0  0  0  0  0  0
    3.4337    0.5392    0.0248 C   0  0  0  0  0  0  0  0  0  0  0  0
    0.8334   -1.8255   -0.8817 C   0  0  0  0  0  0  0  0  0  0  0  0
    4.8596    0.6292    0.1013 C   0  0  0  0  0  0  0  0  0  0  0  0
    2.6920    1.7602   -0.0604 C   0  0  0  0  0  0  0  0  0  0  0  0
  1  7  1  0
  1 13  1  0
  2 16  1  0
  3 18  3  0
  4 19  3  0
  5 20  3  0
  6  7  2  0
  6  9  1  0
  6 11  1  0
  7 10  1  0
  8  9  2  0
  8 12  1  0
  8 14  1  0
 10 12  2  0
 11 13  2  0
 14 15  2  0
 15 16  1  0
 15 18  1  0
 16 17  2  0
 17 19  1  0
 17 20  1  0
M  END
>  <PUBCHEM_COMPOUND_CID>  (1) 
2042

>  <PUBCHEM_CONFORMER_RMSD>  (1) 
0.6

>  <PUBCHEM_CONFORMER_DIVERSEORDER>  (1) 
1
3
14
9
7
13
8
6
12
10
5
11
4
2

>  <PUBCHEM_MMFF94_PARTIAL_CHARGES>  (1) 
28
1 0.03
10 -0.15
11 -0.15
12 -0.15
13 -0.3
14 -0.18
15 0.06
16 0.1
17 0.13
18 0.49
19 0.49
2 -0.9
20 0.49
21 0.15
22 0.15
23 0.15
24 0.27
25 0.15
26 0.15
27 0.15
28 0.4
29 0.4
3 -0.56
4 -0.56
5 -0.56
7 -0.15
8 0.03
9 -0.15

>  <PUBCHEM_EFFECTIVE_ROTOR_COUNT>  (1) 
2

>  <PUBCHEM_PHARMACOPHORE_FEATURES>  (1) 
9
1 1 cation
1 1 donor
1 2 cation
1 2 donor
1 3 acceptor
1 4 acceptor
1 5 acceptor
5 1 6 7 11 13 rings
6 6 7 8 9 10 12 rings

>  <PUBCHEM_HEAVY_ATOM_COUNT>  (1) 
20

>  <PUBCHEM_ATOM_DEF_STEREO_COUNT>  (1) 
0

>  <PUBCHEM_ATOM_UDEF_STEREO_COUNT>  (1) 
0

>  <PUBCHEM_BOND_DEF_STEREO_COUNT>  (1) 
0

>  <PUBCHEM_BOND_UDEF_STEREO_COUNT>  (1) 
1

>  <PUBCHEM_ISOTOPIC_ATOM_COUNT>  (1) 
0

>  <PUBCHEM_COMPONENT_COUNT>  (1) 
1

>  <PUBCHEM_CACTVS_TAUTO_COUNT>  (1) 
2

>  <PUBCHEM_CONFORMER_ID>  (1) 
000007FA00000001

>  <PUBCHEM_MMFF94_ENERGY>  (1) 
50.8267

>  <PUBCHEM_FEATURE_SELFOVERLAP>  (1) 
45.762

>  <PUBCHEM_SHAPE_FINGERPRINT>  (1) 
10646746 165 17675925412628304992
10871710 139 16822226385426515157
11128504 68 16128651981330026600
12011746 2 18409735049875449396
12119455 92 18411981381768420686
12236239 1 16845576404648573089
12500047 106 17749110019017201794
12507557 5 18335704974389173504
12670546 177 18410565202792715671
13402501 40 18259981565634775293
13583140 156 18187369860622648963
13836976 161 18272652367766037172
15375358 24 18334014965261999835
17980427 23 16805613611039778759
200 152 17989204828746244969
204376 136 18202284714489382870
20645477 56 17894631457285756441
20645477 70 18342177704931841790
21054139 6 17845640556109935143
21709351 56 18338232773000938196
22289505 5 18335697209383746788
23227448 37 18338516447328263823
23402539 116 17967526896073826879
23557571 272 17967823785904401987
23559900 14 17895195463643182378
3060560 45 18273217482715356630
34934 24 18335977645336717202
351380 180 18260545627852337513
3545911 37 18333452049246323896
4072396 5 18336252480388817072
4325135 7 18340484560715964863
495365 180 18271794770008178273
5104073 3 17241609425491873633
58051976 378 18202568375488025919
8272917 22 18059019371924325687
9709674 26 18335145267484226531

>  <PUBCHEM_SHAPE_MULTIPOLES>  (1) 
386.69
11.04
2.04
1.15
1.19
0.06
0.01
-3.84
0.37
1.38
0.63
-0.9
0.5
1.16

>  <PUBCHEM_SHAPE_SELFOVERLAP>  (1) 
842.683

>  <PUBCHEM_SHAPE_VOLUME>  (1) 
204.2

>  <PUBCHEM_COORDINATE_TYPE>  (1) 
2
5
10

$$$$
