20438
     RDKit          3D

 13 13  0  0  0  0  0  0  0  0999 V2000
   -1.5800   -2.6476    0.4788 S   0  0  0  0  0  0  0  0  0  0  0  0
   -1.7018    2.6640    0.1022 S   0  0  0  0  0  0  0  0  0  0  0  0
   -1.4874    0.0133    0.3053 N   0  0  0  0  0  0  0  0  0  0  0  0
    0.5536    1.2704    0.4140 N   0  0  0  0  0  0  0  0  0  0  0  0
    0.6078   -1.1226    0.5836 N   0  0  0  0  0  0  0  0  0  0  0  0
    2.5701    0.1322    0.6846 N   0  0  0  0  0  0  0  0  0  0  0  0
    3.1648    0.0678   -0.4145 N   0  0  0  0  0  0  0  0  0  0  0  0
    3.7032    0.0087   -1.4193 N   0  0  0  0  0  0  0  0  0  0  0  0
   -0.7281   -1.0843    0.4532 C   0  0  0  0  0  0  0  0  0  0  0  0
   -0.7788    1.1537    0.2945 C   0  0  0  0  0  0  0  0  0  0  0  0
    1.1809    0.0915    0.5549 C   0  0  0  0  0  0  0  0  0  0  0  0
   -2.3868   -2.6568   -1.1476 C   0  0  0  0  0  0  0  0  0  0  0  0
   -3.1176    2.1097   -0.8898 C   0  0  0  0  0  0  0  0  0  0  0  0
  1  9  1  0
  1 12  1  0
  2 10  1  0
  2 13  1  0
  3  9  2  0
  3 10  1  0
  4 10  2  0
  4 11  1  0
  5  9  1  0
  5 11  2  0
  6  7  2  0
  6 11  1  0
  7  8  2  0
M  CHG  2   7   1   8  -1
M  END
>  <PUBCHEM_COMPOUND_CID>  (1) 
20438

>  <PUBCHEM_CONFORMER_RMSD>  (1) 
0.6

>  <PUBCHEM_CONFORMER_DIVERSEORDER>  (1) 
1
5
18
12
6
15
11
10
3
17
14
9
16
4
13
2
8
7

>  <PUBCHEM_MMFF94_PARTIAL_CHARGES>  (1) 
13
1 -0.33
10 0.72
11 0.8
12 0.23
13 0.23
2 -0.33
3 -0.62
4 -0.62
5 -0.62
6 -0.5
7 0.69
8 -0.37
9 0.72

>  <PUBCHEM_EFFECTIVE_ROTOR_COUNT>  (1) 
3

>  <PUBCHEM_PHARMACOPHORE_FEATURES>  (1) 
4
1 12 hydrophobe
1 13 hydrophobe
4 4 5 6 11 cation
6 3 4 5 9 10 11 rings

>  <PUBCHEM_HEAVY_ATOM_COUNT>  (1) 
13

>  <PUBCHEM_ATOM_DEF_STEREO_COUNT>  (1) 
0

>  <PUBCHEM_ATOM_UDEF_STEREO_COUNT>  (1) 
0

>  <PUBCHEM_BOND_DEF_STEREO_COUNT>  (1) 
0

>  <PUBCHEM_BOND_UDEF_STEREO_COUNT>  (1) 
1

>  <PUBCHEM_ISOTOPIC_ATOM_COUNT>  (1) 
0

>  <PUBCHEM_COMPONENT_COUNT>  (1) 
1

>  <PUBCHEM_CACTVS_TAUTO_COUNT>  (1) 
1

>  <PUBCHEM_CONFORMER_ID>  (1) 
00004FD600000001

>  <PUBCHEM_MMFF94_ENERGY>  (1) 
22.1507

>  <PUBCHEM_FEATURE_SELFOVERLAP>  (1) 
20.297

>  <PUBCHEM_SHAPE_FINGERPRINT>  (1) 
1 1 17760359998775339409
11206711 2 18335979877944380871
12138202 97 18340213989927781430
15502708 8 18411704308900995567
16945 1 18410569591415796889
20645476 183 17896049766734110474
20711985 344 18337387239990602595
20871999 31 18411704321759536964
21524375 3 18044372716884435632
22620623 9 18272661172285541799
23419403 2 17129274718725220865
23530152 11 18123179118078898839
23557571 272 18269833271851054208
23559900 14 18271530776766517910
2748010 2 18051403265026098777
53812653 217 18410575080505463219
7364860 26 17260454878307683425
81228 2 18338794632233068081
81539 233 17900536771003748077
88987 49 18409438181630480880

>  <PUBCHEM_SHAPE_MULTIPOLES>  (1) 
245.35
4.69
3.36
1.05
4.11
0.82
0.31
-0.91
2.24
-4.34
0.35
0.21
0.22
-0.03

>  <PUBCHEM_SHAPE_SELFOVERLAP>  (1) 
468.797

>  <PUBCHEM_SHAPE_VOLUME>  (1) 
151.7

>  <PUBCHEM_COORDINATE_TYPE>  (1) 
2
5
10

$$$$
