20436
     RDKit          3D

 12 12  0  0  0  0  0  0  0  0999 V2000
   -1.4680    1.4731   -0.1818 O   0  0  0  0  0  0  0  0  0  0  0  0
   -0.4596   -0.6128    0.1848 N   0  0  0  0  0  0  0  0  0  0  0  0
   -2.8708   -0.4495    0.2161 C   0  0  0  0  0  0  0  0  0  0  0  0
   -1.5282    0.2689    0.0492 C   0  0  0  0  0  0  0  0  0  0  0  0
   -3.9218    0.4782    0.8226 C   0  0  0  0  0  0  0  0  0  0  0  0
   -3.3495   -0.9864   -1.1314 C   0  0  0  0  0  0  0  0  0  0  0  0
    0.9214   -0.3167    0.0949 C   0  0  0  0  0  0  0  0  0  0  0  0
    1.8449   -1.3357    0.2595 C   0  0  0  0  0  0  0  0  0  0  0  0
    1.3202    0.9857   -0.1566 C   0  0  0  0  0  0  0  0  0  0  0  0
    3.2059   -1.0441    0.1705 C   0  0  0  0  0  0  0  0  0  0  0  0
    2.6814    1.2772   -0.2457 C   0  0  0  0  0  0  0  0  0  0  0  0
    3.6242    0.2622   -0.0821 C   0  0  0  0  0  0  0  0  0  0  0  0
  1  4  2  0
  2  4  1  0
  2  7  1  0
  3  4  1  0
  3  5  1  0
  3  6  1  0
  7  8  2  0
  7  9  1  0
  8 10  1  0
  9 11  2  0
 10 12  2  0
 11 12  1  0
M  END
>  <PUBCHEM_COMPOUND_CID>  (1) 
20436

>  <PUBCHEM_CONFORMER_RMSD>  (1) 
0.6

>  <PUBCHEM_CONFORMER_DIVERSEORDER>  (1) 
1
3
2
4

>  <PUBCHEM_MMFF94_PARTIAL_CHARGES>  (1) 
16
1 -0.57
10 -0.15
11 -0.15
12 -0.15
2 -0.55
20 0.37
21 0.15
22 0.15
23 0.15
24 0.15
25 0.15
3 0.06
4 0.57
7 0.12
8 -0.15
9 -0.15

>  <PUBCHEM_EFFECTIVE_ROTOR_COUNT>  (1) 
3

>  <PUBCHEM_PHARMACOPHORE_FEATURES>  (1) 
4
1 1 acceptor
1 2 donor
3 3 5 6 hydrophobe
6 7 8 9 10 11 12 rings

>  <PUBCHEM_HEAVY_ATOM_COUNT>  (1) 
12

>  <PUBCHEM_ATOM_DEF_STEREO_COUNT>  (1) 
0

>  <PUBCHEM_ATOM_UDEF_STEREO_COUNT>  (1) 
0

>  <PUBCHEM_BOND_DEF_STEREO_COUNT>  (1) 
0

>  <PUBCHEM_BOND_UDEF_STEREO_COUNT>  (1) 
0

>  <PUBCHEM_ISOTOPIC_ATOM_COUNT>  (1) 
0

>  <PUBCHEM_COMPONENT_COUNT>  (1) 
1

>  <PUBCHEM_CACTVS_TAUTO_COUNT>  (1) 
2

>  <PUBCHEM_CONFORMER_ID>  (1) 
00004FD400000001

>  <PUBCHEM_MMFF94_ENERGY>  (1) 
31.2756

>  <PUBCHEM_FEATURE_SELFOVERLAP>  (1) 
20.297

>  <PUBCHEM_SHAPE_FINGERPRINT>  (1) 
11471102 20 18335419067016392300
12932764 1 18202558479846458985
13296908 3 17095522898581300719
14144814 61 18409449180482452642
14251717 144 18409161142922502606
14325111 11 18410012143304938448
14445660 50 18202009819713305947
15775835 57 18271812340671399833
17844478 74 17749393650194023773
18186145 218 17894348877932900819
190213 19 15626227922255797555
19050596 39 18412825785012700371
19422 9 18202002152970082479
200 152 18341601629695013911
20201158 50 18259985976486605634
20279233 1 17095237034153476875
20645477 70 18261664879382388759
20871998 22 18124033421677080286
21501925 9 18261660498910905242
23402539 116 18342731918947695636
23402655 69 18410009909943258149
57096353 35 18339924929954404212
57812782 119 17822005419466778452
581208 293 18336260232287886132

>  <PUBCHEM_SHAPE_MULTIPOLES>  (1) 
236.1
7.18
1.38
0.8
2.47
0.08
0.07
-0.33
-0.1
-0.45
0.08
0.56
-0.08
-0.63

>  <PUBCHEM_SHAPE_SELFOVERLAP>  (1) 
479.828

>  <PUBCHEM_SHAPE_VOLUME>  (1) 
137.9

>  <PUBCHEM_COORDINATE_TYPE>  (1) 
2
5
10

$$$$
