20433
     RDKit          3D

 14 15  0  0  0  0  0  0  0  0999 V2000
   -3.4467   -1.6285    1.0055 O   0  0  0  0  0  0  0  0  0  0  0  0
   -0.2389    0.8652   -0.5362 N   0  0  0  0  0  0  0  0  0  0  0  0
   -3.3200    0.9206    0.3929 N   0  0  0  0  0  0  0  0  0  0  0  0
   -2.4724   -1.2980    0.0591 N   0  0  0  0  0  0  0  0  0  0  0  0
    0.8316    0.0244   -0.3297 C   0  0  0  0  0  0  0  0  0  0  0  0
    1.8182    0.7675    0.3218 C   0  0  0  0  0  0  0  0  0  0  0  0
   -1.4815    0.5002   -1.1823 C   0  0  0  0  0  0  0  0  0  0  0  0
    0.0362    2.1107   -0.0389 C   0  0  0  0  0  0  0  0  0  0  0  0
    1.3023    2.0818    0.4990 C   0  0  0  0  0  0  0  0  0  0  0  0
    1.0002   -1.3234   -0.6664 C   0  0  0  0  0  0  0  0  0  0  0  0
    3.0336    0.1370    0.6544 C   0  0  0  0  0  0  0  0  0  0  0  0
    2.2139   -1.9277   -0.3263 C   0  0  0  0  0  0  0  0  0  0  0  0
   -2.4930   -0.0193   -0.1765 C   0  0  0  0  0  0  0  0  0  0  0  0
    3.2164   -1.2106    0.3237 C   0  0  0  0  0  0  0  0  0  0  0  0
  1  4  1  0
  2  5  1  0
  2  7  1  0
  2  8  1  0
  3 13  1  0
  4 13  2  0
  5  6  2  0
  5 10  1  0
  6  9  1  0
  6 11  1  0
  7 13  1  0
  8  9  2  0
 10 12  2  0
 11 14  2  0
 12 14  1  0
M  END
>  <PUBCHEM_COMPOUND_CID>  (1) 
20433

>  <PUBCHEM_CONFORMER_RMSD>  (1) 
0.6

>  <PUBCHEM_CONFORMER_DIVERSEORDER>  (1) 
1
13
7
8
12
9
11
6
10
5
2
4
3
14

>  <PUBCHEM_MMFF94_PARTIAL_CHARGES>  (1) 
22
1 -0.34
10 -0.15
11 -0.15
12 -0.15
13 0.44
14 -0.15
17 0.15
18 0.15
19 0.15
2 0.05
20 0.15
21 0.15
22 0.15
23 0.4
24 0.4
25 0.4
3 -0.85
4 -0.51
5 -0.15
7 0.32
8 -0.3
9 -0.15

>  <PUBCHEM_EFFECTIVE_ROTOR_COUNT>  (1) 
2

>  <PUBCHEM_PHARMACOPHORE_FEATURES>  (1) 
6
1 1 anion
1 2 cation
1 3 donor
3 3 4 13 cation
5 2 5 6 8 9 rings
6 5 6 10 11 12 14 rings

>  <PUBCHEM_HEAVY_ATOM_COUNT>  (1) 
14

>  <PUBCHEM_ATOM_DEF_STEREO_COUNT>  (1) 
0

>  <PUBCHEM_ATOM_UDEF_STEREO_COUNT>  (1) 
0

>  <PUBCHEM_BOND_DEF_STEREO_COUNT>  (1) 
0

>  <PUBCHEM_BOND_UDEF_STEREO_COUNT>  (1) 
1

>  <PUBCHEM_ISOTOPIC_ATOM_COUNT>  (1) 
0

>  <PUBCHEM_COMPONENT_COUNT>  (1) 
1

>  <PUBCHEM_CACTVS_TAUTO_COUNT>  (1) 
3

>  <PUBCHEM_CONFORMER_ID>  (1) 
00004FD100000001

>  <PUBCHEM_MMFF94_ENERGY>  (1) 
27.8659

>  <PUBCHEM_FEATURE_SELFOVERLAP>  (1) 
30.542

>  <PUBCHEM_SHAPE_FINGERPRINT>  (1) 
11471102 22 18340487871307334610
12251169 10 18343582975375982183
12382932 28 18341612573034365571
12696612 119 18342176703982376645
14115302 16 17969791778146847637
15375462 189 18113901502887412771
15501101 241 18335701688612338029
16945 1 18271226284268842284
17841504 4 18340768234167161785
17990270 104 18409164449904629275
20201158 50 18337383855566844727
20281407 28 18114464474373413023
20645477 70 18263913514147789055
20871998 22 18200037222606750550
21061003 4 18343295946901004292
21501502 16 18335706086859263605
22721475 48 18337389344513742246
2748010 2 17984121687933622596
5493415 88 18408316675095308682
568465 68 18201711881826445002
576247 118 17342127847417223190
5902787 121 18260260833119173306
81228 2 17838051503395470648
8809292 202 18262520282106264130

>  <PUBCHEM_SHAPE_MULTIPOLES>  (1) 
267.3
5.27
2.2
0.9
2.49
0.28
0.05
-2.22
-1.45
-0.34
-0.2
0.26
-0.08
0.63

>  <PUBCHEM_SHAPE_SELFOVERLAP>  (1) 
574.961

>  <PUBCHEM_SHAPE_VOLUME>  (1) 
147.7

>  <PUBCHEM_COORDINATE_TYPE>  (1) 
2
5
10

$$$$
