2044
     RDKit          3D

 18 18  0  0  0  0  0  0  0  0999 V2000
    1.6287    3.7783    0.0769 Br  0  0  0  0  0  0  0  0  0  0  0  0
    3.3209    1.1814    0.2890 O   0  0  0  0  0  0  0  0  0  0  0  0
   -5.4227   -0.6496   -0.9323 N   0  0  0  0  0  0  0  0  0  0  0  0
   -2.6156   -0.1932    2.5097 N   0  0  0  0  0  0  0  0  0  0  0  0
    2.5584   -1.5252   -0.0329 C   0  0  0  0  0  0  0  0  0  0  0  0
    1.5663   -0.3594   -0.1780 C   0  0  0  0  0  0  0  0  0  0  0  0
    1.8254   -2.8635   -0.2684 C   0  0  0  0  0  0  0  0  0  0  0  0
    3.1619   -1.5200    1.3884 C   0  0  0  0  0  0  0  0  0  0  0  0
    3.7384   -1.4695   -1.0296 C   0  0  0  0  0  0  0  0  0  0  0  0
    0.2613   -0.6690   -0.4763 C   0  0  0  0  0  0  0  0  0  0  0  0
    2.0131    0.9272   -0.0068 C   0  0  0  0  0  0  0  0  0  0  0  0
   -0.6536    0.3750   -0.6120 C   0  0  0  0  0  0  0  0  0  0  0  0
    1.0981    1.9713   -0.1425 C   0  0  0  0  0  0  0  0  0  0  0  0
   -0.2353    1.6952   -0.4451 C   0  0  0  0  0  0  0  0  0  0  0  0
   -2.0440    0.0867   -0.9274 C   0  0  0  0  0  0  0  0  0  0  0  0
   -3.0420   -0.1591   -0.0427 C   0  0  0  0  0  0  0  0  0  0  0  0
   -4.3547   -0.4298   -0.5346 C   0  0  0  0  0  0  0  0  0  0  0  0
   -2.8047   -0.1769    1.3647 C   0  0  0  0  0  0  0  0  0  0  0  0
  1 13  1  0
  2 11  1  0
  3 17  3  0
  4 18  3  0
  5  6  1  0
  5  7  1  0
  5  8  1  0
  5  9  1  0
  6 10  2  0
  6 11  1  0
 10 12  1  0
 11 13  2  0
 12 14  2  0
 12 15  1  0
 13 14  1  0
 15 16  2  3
 16 17  1  0
 16 18  1  0
M  END
>  <PUBCHEM_COMPOUND_CID>  (1) 
2044

>  <PUBCHEM_CONFORMER_RMSD>  (1) 
0.6

>  <PUBCHEM_CONFORMER_DIVERSEORDER>  (1) 
1
5
4
2
6
3

>  <PUBCHEM_MMFF94_PARTIAL_CHARGES>  (1) 
19
1 -0.11
10 -0.15
11 0.08
12 0.03
13 0.11
14 -0.15
15 -0.18
16 0.13
17 0.49
18 0.49
2 -0.53
28 0.15
29 0.15
3 -0.56
30 0.15
31 0.45
4 -0.56
5 0.14
6 -0.14

>  <PUBCHEM_EFFECTIVE_ROTOR_COUNT>  (1) 
2

>  <PUBCHEM_PHARMACOPHORE_FEATURES>  (1) 
6
1 1 hydrophobe
1 2 donor
1 3 acceptor
1 4 acceptor
4 5 7 8 9 hydrophobe
6 6 10 11 12 13 14 rings

>  <PUBCHEM_HEAVY_ATOM_COUNT>  (1) 
18

>  <PUBCHEM_ATOM_DEF_STEREO_COUNT>  (1) 
0

>  <PUBCHEM_ATOM_UDEF_STEREO_COUNT>  (1) 
0

>  <PUBCHEM_BOND_DEF_STEREO_COUNT>  (1) 
0

>  <PUBCHEM_BOND_UDEF_STEREO_COUNT>  (1) 
0

>  <PUBCHEM_ISOTOPIC_ATOM_COUNT>  (1) 
0

>  <PUBCHEM_COMPONENT_COUNT>  (1) 
1

>  <PUBCHEM_CACTVS_TAUTO_COUNT>  (1) 
3

>  <PUBCHEM_CONFORMER_ID>  (1) 
000007FC00000001

>  <PUBCHEM_MMFF94_ENERGY>  (1) 
57.2562

>  <PUBCHEM_FEATURE_SELFOVERLAP>  (1) 
30.446

>  <PUBCHEM_SHAPE_FINGERPRINT>  (1) 
10366900 7 18113340790843956887
11471102 20 18410007762459441300
11471102 22 18334861653191640409
11582403 64 16383040600886626093
12202030 40 17386299765148392995
12236239 1 17704072928096275469
12363563 72 18263360291762594934
12403259 327 16517908857349569713
12553582 1 18337965471437786298
12596599 1 18201447973213805143
12707595 3 18261117348150232186
12788726 201 17757555157561595264
12892183 10 16199862856735706926
13009979 54 17560818592673094011
13140716 1 17977933911212533792
14251717 144 18411415133116761343
14252887 29 18272366439193408150
14790565 3 18265904733954075844
15375358 24 17749386001010016419
15635459 17 18261110738201111203
15848700 24 18410570643719870022
16945 1 18339083795212170972
1813 80 18058465226532425422
18222031 100 18272646814204888679
200 152 18201996634406469183
20279233 1 17748826336643370571
20369508 70 18334284371111564063
20645477 70 18335415807304993967
20832881 197 18042398041941714553
20871998 22 18269833117005267998
21524375 3 17769942603357732804
2255824 54 18340768242614574388
2334 1 17545597216066006748
23526113 38 18113330895297303409
23559900 14 18411130368616887023
23598291 2 17988097607309281033
2748010 2 18267568127558253692
31174 14 18336537291716684437
33824 294 18337103583096340580
474 4 18126562564039063592
495365 180 18193545886461402065
7364860 26 18340204193313380332
7615 1 17774736315625927433
77492 1 17703799149585018357
81228 2 17687738346983634332
8272917 22 18411982494286354477
9709674 26 18187643652482654103

>  <PUBCHEM_SHAPE_MULTIPOLES>  (1) 
360.54
7.52
3.08
1.32
8.68
2.58
-0.84
-3.49
0.48
-3.91
0.07
0.82
-0.35
0.03

>  <PUBCHEM_SHAPE_SELFOVERLAP>  (1) 
741.359

>  <PUBCHEM_SHAPE_VOLUME>  (1) 
211.8

>  <PUBCHEM_COORDINATE_TYPE>  (1) 
2
5
10

$$$$
