20449
     RDKit          3D

  7  7  0  0  0  0  0  0  0  0999 V2000
   -1.8667    0.5322   -0.2249 O   0  0  0  0  0  0  0  0  0  0  0  0
    2.5203   -0.3066   -0.5253 O   0  0  0  0  0  0  0  0  0  0  0  0
    0.3069    0.1598    0.2094 C   0  0  0  0  0  0  0  0  0  0  0  0
    1.7425    0.3919    0.4480 C   0  0  0  0  0  0  0  0  0  0  0  0
   -0.3675   -1.0846    0.2113 C   0  0  0  0  0  0  0  0  0  0  0  0
   -0.6486    1.1117   -0.0608 C   0  0  0  0  0  0  0  0  0  0  0  0
   -1.6870   -0.8044   -0.0577 C   0  0  0  0  0  0  0  0  0  0  0  0
  1  6  1  0
  1  7  1  0
  2  4  1  0
  3  4  1  0
  3  5  1  0
  3  6  2  0
  5  7  2  0
M  END
>  <PUBCHEM_COMPOUND_CID>  (1) 
20449

>  <PUBCHEM_CONFORMER_RMSD>  (1) 
0.4

>  <PUBCHEM_CONFORMER_DIVERSEORDER>  (1) 
1
3
2
4

>  <PUBCHEM_MMFF94_PARTIAL_CHARGES>  (1) 
11
1 -0.28
10 0.15
11 0.15
12 0.15
13 0.4
2 -0.68
3 -0.18
4 0.46
5 -0.15
6 -0.01
7 -0.01

>  <PUBCHEM_EFFECTIVE_ROTOR_COUNT>  (1) 
1

>  <PUBCHEM_PHARMACOPHORE_FEATURES>  (1) 
4
1 1 acceptor
1 2 acceptor
1 2 donor
5 1 3 5 6 7 rings

>  <PUBCHEM_HEAVY_ATOM_COUNT>  (1) 
7

>  <PUBCHEM_ATOM_DEF_STEREO_COUNT>  (1) 
0

>  <PUBCHEM_ATOM_UDEF_STEREO_COUNT>  (1) 
0

>  <PUBCHEM_BOND_DEF_STEREO_COUNT>  (1) 
0

>  <PUBCHEM_BOND_UDEF_STEREO_COUNT>  (1) 
0

>  <PUBCHEM_ISOTOPIC_ATOM_COUNT>  (1) 
0

>  <PUBCHEM_COMPONENT_COUNT>  (1) 
1

>  <PUBCHEM_CACTVS_TAUTO_COUNT>  (1) 
1

>  <PUBCHEM_CONFORMER_ID>  (1) 
00004FE100000001

>  <PUBCHEM_MMFF94_ENERGY>  (1) 
2.7866

>  <PUBCHEM_FEATURE_SELFOVERLAP>  (1) 
20.297

>  <PUBCHEM_SHAPE_FINGERPRINT>  (1) 
16714656 1 18407762533950889469
20096714 4 18334851680208812433
21040471 1 18264197015900507889
23552423 10 18259987063371956578
24536 1 18341600568679985424
29004967 10 16845574235879927690

>  <PUBCHEM_SHAPE_MULTIPOLES>  (1) 
132.32
2.7
1.13
0.67
1.2
0.01
0.02
-0.19
-0.33
-0.33
0.01
0.12
-0.01
0.14

>  <PUBCHEM_SHAPE_SELFOVERLAP>  (1) 
270.02

>  <PUBCHEM_SHAPE_VOLUME>  (1) 
79.2

>  <PUBCHEM_COORDINATE_TYPE>  (1) 
2
5
10

$$$$
