20447
     RDKit          3D

 13 13  0  0  0  0  0  0  0  0999 V2000
    0.8158   -2.2643   -0.5092 O   0  0  0  0  0  0  0  0  0  0  0  0
    2.6961   -1.4995    0.5245 O   0  0  0  0  0  0  0  0  0  0  0  0
    0.8947    0.0144   -0.0193 C   0  0  0  0  0  0  0  0  0  0  0  0
   -0.5829    0.0185    0.0125 C   0  0  0  0  0  0  0  0  0  0  0  0
    1.6178    1.1597   -0.0701 C   0  0  0  0  0  0  0  0  0  0  0  0
   -1.2828   -0.0166   -1.1802 C   0  0  0  0  0  0  0  0  0  0  0  0
   -1.2307    0.0572    1.2342 C   0  0  0  0  0  0  0  0  0  0  0  0
    3.1279    1.2155   -0.1045 C   0  0  0  0  0  0  0  0  0  0  0  0
    1.0020    2.5413   -0.1139 C   0  0  0  0  0  0  0  0  0  0  0  0
   -2.6774   -0.0125   -1.1502 C   0  0  0  0  0  0  0  0  0  0  0  0
   -2.6253    0.0611    1.2640 C   0  0  0  0  0  0  0  0  0  0  0  0
    1.5933   -1.3010    0.0403 C   0  0  0  0  0  0  0  0  0  0  0  0
   -3.3485    0.0262    0.0718 C   0  0  0  0  0  0  0  0  0  0  0  0
  1 12  1  0
  2 12  2  0
  3  4  1  0
  3  5  2  3
  3 12  1  0
  4  6  2  0
  4  7  1  0
  5  8  1  0
  5  9  1  0
  6 10  1  0
  7 11  2  0
 10 13  2  0
 11 13  1  0
M  END
>  <PUBCHEM_COMPOUND_CID>  (1) 
20447

>  <PUBCHEM_CONFORMER_RMSD>  (1) 
0.6

>  <PUBCHEM_CONFORMER_DIVERSEORDER>  (1) 
1

>  <PUBCHEM_MMFF94_PARTIAL_CHARGES>  (1) 
19
1 -0.65
10 -0.15
11 -0.15
12 0.71
13 -0.15
14 0.15
15 0.15
2 -0.57
22 0.15
23 0.15
24 0.15
25 0.5
3 -0.01
4 0.03
5 -0.28
6 -0.15
7 -0.15
8 0.14
9 0.14

>  <PUBCHEM_EFFECTIVE_ROTOR_COUNT>  (1) 
2

>  <PUBCHEM_PHARMACOPHORE_FEATURES>  (1) 
5
1 1 acceptor
1 2 acceptor
3 1 2 12 anion
3 5 8 9 hydrophobe
6 4 6 7 10 11 13 rings

>  <PUBCHEM_HEAVY_ATOM_COUNT>  (1) 
13

>  <PUBCHEM_ATOM_DEF_STEREO_COUNT>  (1) 
0

>  <PUBCHEM_ATOM_UDEF_STEREO_COUNT>  (1) 
0

>  <PUBCHEM_BOND_DEF_STEREO_COUNT>  (1) 
0

>  <PUBCHEM_BOND_UDEF_STEREO_COUNT>  (1) 
0

>  <PUBCHEM_ISOTOPIC_ATOM_COUNT>  (1) 
0

>  <PUBCHEM_COMPONENT_COUNT>  (1) 
1

>  <PUBCHEM_CACTVS_TAUTO_COUNT>  (1) 
1

>  <PUBCHEM_CONFORMER_ID>  (1) 
00004FDF00000001

>  <PUBCHEM_MMFF94_ENERGY>  (1) 
40.9869

>  <PUBCHEM_FEATURE_SELFOVERLAP>  (1) 
25.428

>  <PUBCHEM_SHAPE_FINGERPRINT>  (1) 
1 1 18263644133503480780
10219947 1 18410852153340947554
107287 299 18114754818547312764
11031198 65 18261116313115842116
12326174 3 18261105249401315938
13538477 17 17489583493847270023
13898156 1 17346881139310396135
15219456 202 17894910728358720573
15775835 57 18342176725489128052
16945 1 18336546113537285981
19049666 15 17677040231746429057
20201158 50 18113335310275633769
20645464 45 17385437752395865857
20645476 183 17917710240712422453
20645477 70 18409440363516325111
21061003 4 18191873322821543658
21639500 275 18338506560012848389
22802520 49 17968933063924176109
23559900 14 16516241822134240506
23598291 2 18059860519625527845
23728640 28 15670128827557132091
2748010 2 18265320721395774980
528862 383 18410576201486581194
528886 8 18340483473340074608
63268167 104 18341609334539470432
77492 1 17775284967131819645
8030462 33 17703785938159958435
81228 2 17544190481047879192

>  <PUBCHEM_SHAPE_MULTIPOLES>  (1) 
255.8
4.72
1.9
1.11
0.97
0.01
-0.04
0.42
-0.19
-1.91
0.12
0.85
-0.02
-0.16

>  <PUBCHEM_SHAPE_SELFOVERLAP>  (1) 
532.732

>  <PUBCHEM_SHAPE_VOLUME>  (1) 
145.8

>  <PUBCHEM_COORDINATE_TYPE>  (1) 
2
5
10

$$$$
