20455
     RDKit          3D

 12 13  0  0  0  0  0  0  0  0999 V2000
    0.4181   -1.0649    0.4544 N   0  0  0  0  0  0  0  0  0  0  0  0
    0.4359    1.1568    0.3913 N   0  0  0  0  0  0  0  0  0  0  0  0
    4.0670   -0.0816   -1.2722 N   0  0  0  0  0  0  0  0  0  0  0  0
   -0.8678   -0.6970    0.1520 C   0  0  0  0  0  0  0  0  0  0  0  0
   -0.8310    0.6943    0.1184 C   0  0  0  0  0  0  0  0  0  0  0  0
    1.1584    0.0767    0.5879 C   0  0  0  0  0  0  0  0  0  0  0  0
   -2.0247   -1.4391   -0.0877 C   0  0  0  0  0  0  0  0  0  0  0  0
   -2.0090    1.4038   -0.1700 C   0  0  0  0  0  0  0  0  0  0  0  0
    2.5952    0.0237    0.9171 C   0  0  0  0  0  0  0  0  0  0  0  0
   -3.1881   -0.7168   -0.3729 C   0  0  0  0  0  0  0  0  0  0  0  0
   -3.1826    0.6795   -0.4140 C   0  0  0  0  0  0  0  0  0  0  0  0
    3.4284   -0.0354   -0.3042 C   0  0  0  0  0  0  0  0  0  0  0  0
  1  4  1  0
  1  6  1  0
  2  5  1  0
  2  6  2  0
  3 12  3  0
  4  5  2  0
  4  7  1  0
  5  8  1  0
  6  9  1  0
  7 10  2  0
  8 11  2  0
  9 12  1  0
 10 11  1  0
M  END
>  <PUBCHEM_COMPOUND_CID>  (1) 
20455

>  <PUBCHEM_CONFORMER_RMSD>  (1) 
0.4

>  <PUBCHEM_CONFORMER_DIVERSEORDER>  (1) 
1
2

>  <PUBCHEM_MMFF94_PARTIAL_CHARGES>  (1) 
17
1 0.03
10 -0.15
11 -0.15
12 0.36
13 0.27
14 0.15
15 0.15
18 0.15
19 0.15
2 -0.57
3 -0.56
4 -0.15
5 0.23
6 0.01
7 -0.15
8 -0.15
9 0.38

>  <PUBCHEM_EFFECTIVE_ROTOR_COUNT>  (1) 
1

>  <PUBCHEM_PHARMACOPHORE_FEATURES>  (1) 
5
1 1 donor
1 3 acceptor
3 1 2 6 cation
5 1 2 4 5 6 rings
6 4 5 7 8 10 11 rings

>  <PUBCHEM_HEAVY_ATOM_COUNT>  (1) 
12

>  <PUBCHEM_ATOM_DEF_STEREO_COUNT>  (1) 
0

>  <PUBCHEM_ATOM_UDEF_STEREO_COUNT>  (1) 
0

>  <PUBCHEM_BOND_DEF_STEREO_COUNT>  (1) 
0

>  <PUBCHEM_BOND_UDEF_STEREO_COUNT>  (1) 
0

>  <PUBCHEM_ISOTOPIC_ATOM_COUNT>  (1) 
0

>  <PUBCHEM_COMPONENT_COUNT>  (1) 
1

>  <PUBCHEM_CACTVS_TAUTO_COUNT>  (1) 
2

>  <PUBCHEM_CONFORMER_ID>  (1) 
00004FE700000001

>  <PUBCHEM_MMFF94_ENERGY>  (1) 
15.2411

>  <PUBCHEM_FEATURE_SELFOVERLAP>  (1) 
25.479

>  <PUBCHEM_SHAPE_FINGERPRINT>  (1) 
10465860 71 18411429422842194444
11206711 2 18335968827304641389
11769659 78 14261052307877520709
12032990 46 18270963548044559371
12186901 62 18410017606608762903
12932764 1 18409440388689627200
13024252 1 17385723599849562035
13296908 3 17918269878903205658
13380535 21 18339083666394696707
14325111 11 18409440375831170360
14911166 2 18411692184598793605
14993402 34 17967249805968549325
16945 1 18337940247395089161
18186145 218 18342172258897330376
19026448 4 16773787113028069697
19026448 5 16515674533630392635
20279233 1 17847054493845641938
20645476 183 17894915156660387522
20645477 70 16486971765718823548
23403322 49 17702677540577592286
23552423 10 18115859883636380729
23559900 14 18343299259117244656
2748010 2 18049428542316673275
3248919 1 17095515193388853698
369184 2 14476956817849316243
528716 315 18334298681763220175
7364860 26 18056193824372677272

>  <PUBCHEM_SHAPE_MULTIPOLES>  (1) 
232.01
6.13
1.29
0.87
4.03
0
-0.09
-0.16
-1.97
-0.96
0.02
0.68
-0.01
0.07

>  <PUBCHEM_SHAPE_SELFOVERLAP>  (1) 
503.678

>  <PUBCHEM_SHAPE_VOLUME>  (1) 
127.2

>  <PUBCHEM_COORDINATE_TYPE>  (1) 
2
5
10

$$$$
