20453
     RDKit          3D

 17 16  0  0  1  0  0  0  0  0999 V2000
    1.5128    1.5272    1.8811 Cl  0  0  0  0  0  0  0  0  0  0  0  0
    3.1502    1.5833   -0.5111 Cl  0  0  0  0  0  0  0  0  0  0  0  0
    1.0066    3.4956   -0.1968 Cl  0  0  0  0  0  0  0  0  0  0  0  0
    0.7551   -0.9456   -0.3357 P   0  0  0  0  0  0  0  0  0  0  0  0
   -0.8260    1.0083   -0.0893 O   0  0  0  0  0  0  0  0  0  0  0  0
    2.3058   -1.2115   -0.7193 O   0  0  0  0  0  0  0  0  0  0  0  0
    0.7162   -1.1467    1.2723 O   0  0  0  0  0  0  0  0  0  0  0  0
   -0.2212   -1.8254   -1.0632 O   0  0  0  0  0  0  0  0  0  0  0  0
   -1.8935   -0.2528   -1.7019 O   0  0  0  0  0  0  0  0  0  0  0  0
    0.5147    0.8239   -0.6006 C   0  0  0  0  0  0  0  0  0  0  0  0
   -2.8852    0.0407    0.5001 C   0  0  0  0  0  0  0  0  0  0  0  0
    1.4756    1.7947    0.1109 C   0  0  0  0  0  0  0  0  0  0  0  0
   -1.8310    0.2242   -0.5769 C   0  0  0  0  0  0  0  0  0  0  0  0
   -3.5560   -1.3245    0.3757 C   0  0  0  0  0  0  0  0  0  0  0  0
   -3.9116    1.1641    0.4083 C   0  0  0  0  0  0  0  0  0  0  0  0
    2.8143   -2.5298   -0.6140 C   0  0  0  0  0  0  0  0  0  0  0  0
    0.8733   -2.4258    1.8604 C   0  0  0  0  0  0  0  0  0  0  0  0
  1 12  1  0
  2 12  1  0
  3 12  1  0
  4  6  1  0
  4  7  1  0
  4  8  2  0
  4 10  1  0
  5 10  1  0
  5 13  1  0
  6 16  1  0
  7 17  1  0
  9 13  2  0
 10 12  1  0
 11 13  1  0
 11 14  1  0
 11 15  1  0
M  END
>  <PUBCHEM_COMPOUND_CID>  (1) 
20453

>  <PUBCHEM_CONFORMER_RMSD>  (1) 
0.8

>  <PUBCHEM_CONFORMER_DIVERSEORDER>  (1) 
8
10
17
15
14
19
12
5
18
13
16
1
11
4
9
2
3
7
6

>  <PUBCHEM_MMFF94_PARTIAL_CHARGES>  (1) 
15
1 -0.29
10 0.28
11 0.06
12 0.87
13 0.66
16 0.28
17 0.28
2 -0.29
3 -0.29
4 1.24
5 -0.43
6 -0.55
7 -0.55
8 -0.7
9 -0.57

>  <PUBCHEM_EFFECTIVE_ROTOR_COUNT>  (1) 
7

>  <PUBCHEM_PHARMACOPHORE_FEATURES>  (1) 
3
1 8 acceptor
1 9 acceptor
3 11 14 15 hydrophobe

>  <PUBCHEM_HEAVY_ATOM_COUNT>  (1) 
17

>  <PUBCHEM_ATOM_DEF_STEREO_COUNT>  (1) 
0

>  <PUBCHEM_ATOM_UDEF_STEREO_COUNT>  (1) 
1

>  <PUBCHEM_BOND_DEF_STEREO_COUNT>  (1) 
0

>  <PUBCHEM_BOND_UDEF_STEREO_COUNT>  (1) 
0

>  <PUBCHEM_ISOTOPIC_ATOM_COUNT>  (1) 
0

>  <PUBCHEM_COMPONENT_COUNT>  (1) 
1

>  <PUBCHEM_CACTVS_TAUTO_COUNT>  (1) 
1

>  <PUBCHEM_CONFORMER_ID>  (1) 
00004FE500000008

>  <PUBCHEM_MMFF94_ENERGY>  (1) 
37.9476

>  <PUBCHEM_FEATURE_SELFOVERLAP>  (1) 
15.257

>  <PUBCHEM_SHAPE_FINGERPRINT>  (1) 
14178342 30 18126830810473700393
14787075 74 18187374216236464342
15375462 189 17896893040771490411
15490181 8 18121492728813116708
16945 1 18270673306939409996
20600515 1 17911531895380624509
20645477 70 18410006642222193247
20711985 344 17619618086519352556
21041028 32 18267591212617040224
21524375 3 18047748479659147852
23419403 2 17100641125293189568
23526113 38 18261125083639533522
23557571 272 17550655631269143618
23558518 356 17761205918322805684
23598291 2 18272927181580826493
23598294 1 17326615799907036762
25 1 18337397153007347316
2748010 2 18195508334122530348
305870 269 18059285582075875177
3250762 1 18047493380303611266
3323516 105 18336562589184697478
528862 383 18410852178989445077
7364860 26 18413674608152841077
81228 2 17259039815274499064

>  <PUBCHEM_SHAPE_MULTIPOLES>  (1) 
329.96
5.17
3.34
1.46
4.53
0.29
-0.55
0.45
0.11
-2.72
-0.33
-0.34
-0.46
0.18

>  <PUBCHEM_SHAPE_SELFOVERLAP>  (1) 
596.793

>  <PUBCHEM_SHAPE_VOLUME>  (1) 
213.1

>  <PUBCHEM_COORDINATE_TYPE>  (1) 
2
5
10

$$$$
