2045
     RDKit          3D

 18 18  0  0  0  0  0  0  0  0999 V2000
    5.6160   -0.3484   -0.0709 O   0  0  0  0  0  0  0  0  0  0  0  0
   -2.8023    1.9481    0.4353 N   0  0  0  0  0  0  0  0  0  0  0  0
    0.2338    2.7244   -1.2828 N   0  0  0  0  0  0  0  0  0  0  0  0
   -5.5415   -0.4036    0.3355 N   0  0  0  0  0  0  0  0  0  0  0  0
   -1.8461   -2.6948   -0.5290 N   0  0  0  0  0  0  0  0  0  0  0  0
    1.5019   -0.2621    0.3355 C   0  0  0  0  0  0  0  0  0  0  0  0
    2.0658   -0.9049   -0.7566 C   0  0  0  0  0  0  0  0  0  0  0  0
    2.2948    0.3524    1.2937 C   0  0  0  0  0  0  0  0  0  0  0  0
    0.0394   -0.2320    0.4806 C   0  0  0  0  0  0  0  0  0  0  0  0
    3.4537   -0.9339   -0.8937 C   0  0  0  0  0  0  0  0  0  0  0  0
    3.6826    0.3234    1.1565 C   0  0  0  0  0  0  0  0  0  0  0  0
    4.2621   -0.3197    0.0629 C   0  0  0  0  0  0  0  0  0  0  0  0
   -0.7866    0.7241    0.0098 C   0  0  0  0  0  0  0  0  0  0  0  0
   -2.2491    0.7177    0.1634 C   0  0  0  0  0  0  0  0  0  0  0  0
   -2.9677   -0.4280    0.0371 C   0  0  0  0  0  0  0  0  0  0  0  0
   -0.2225    1.8283   -0.7033 C   0  0  0  0  0  0  0  0  0  0  0  0
   -4.3888   -0.4130    0.2019 C   0  0  0  0  0  0  0  0  0  0  0  0
   -2.3456   -1.6780   -0.2759 C   0  0  0  0  0  0  0  0  0  0  0  0
  1 12  1  0
  2 14  1  0
  3 16  3  0
  4 17  3  0
  5 18  3  0
  6  7  2  0
  6  8  1  0
  6  9  1  0
  7 10  1  0
  8 11  2  0
  9 13  2  0
 10 12  2  0
 11 12  1  0
 13 14  1  0
 13 16  1  0
 14 15  2  0
 15 17  1  0
 15 18  1  0
M  END
>  <PUBCHEM_COMPOUND_CID>  (1) 
2045

>  <PUBCHEM_CONFORMER_RMSD>  (1) 
0.6

>  <PUBCHEM_CONFORMER_DIVERSEORDER>  (1) 
1
2
3

>  <PUBCHEM_MMFF94_PARTIAL_CHARGES>  (1) 
26
1 -0.53
10 -0.15
11 -0.15
12 0.08
13 0.06
14 0.1
15 0.13
16 0.49
17 0.49
18 0.49
19 0.15
2 -0.9
20 0.15
21 0.15
22 0.15
23 0.15
24 0.4
25 0.4
26 0.45
3 -0.56
4 -0.56
5 -0.56
6 0.03
7 -0.15
8 -0.15
9 -0.18

>  <PUBCHEM_EFFECTIVE_ROTOR_COUNT>  (1) 
2

>  <PUBCHEM_PHARMACOPHORE_FEATURES>  (1) 
7
1 1 donor
1 2 cation
1 2 donor
1 3 acceptor
1 4 acceptor
1 5 acceptor
6 6 7 8 10 11 12 rings

>  <PUBCHEM_HEAVY_ATOM_COUNT>  (1) 
18

>  <PUBCHEM_ATOM_DEF_STEREO_COUNT>  (1) 
0

>  <PUBCHEM_ATOM_UDEF_STEREO_COUNT>  (1) 
0

>  <PUBCHEM_BOND_DEF_STEREO_COUNT>  (1) 
0

>  <PUBCHEM_BOND_UDEF_STEREO_COUNT>  (1) 
1

>  <PUBCHEM_ISOTOPIC_ATOM_COUNT>  (1) 
0

>  <PUBCHEM_COMPONENT_COUNT>  (1) 
1

>  <PUBCHEM_CACTVS_TAUTO_COUNT>  (1) 
4

>  <PUBCHEM_CONFORMER_ID>  (1) 
000007FD00000001

>  <PUBCHEM_MMFF94_ENERGY>  (1) 
51.8503

>  <PUBCHEM_FEATURE_SELFOVERLAP>  (1) 
35.522

>  <PUBCHEM_SHAPE_FINGERPRINT>  (1) 
10989021 7 18187083996168372973
11132069 177 18340194271949164232
12236239 1 17312821563464398978
12500047 106 18271803471616694112
12553582 1 18187631531473301051
13140716 1 18194123138919390579
13544592 145 18059867124979761278
13583140 156 17907535283084454346
17804303 29 18272652380724746387
17834074 16 18202002118731806182
1813 80 18186804685833840165
18175812 5 18060133280108365374
18222031 100 18334286591477767689
19141452 34 18202001066538782295
200 152 15574431016040006266
20510252 161 18059294262705791297
20871999 31 18041274383728375077
21029758 27 18186242844461879517
21033648 29 18130774643330645113
21267235 1 18336274495536815539
23402539 116 18335696156968929654
23557571 272 18411703149761193420
23559900 14 18060131093832907592
2748010 2 18194686956482442975
34934 24 17823694175112458289
4325135 7 18409450319577473780
4340502 62 13830141615815897349
69090 78 17917706916228874055
7364860 26 18195813083490295781
8272917 22 15769788917763872951

>  <PUBCHEM_SHAPE_MULTIPOLES>  (1) 
344.64
9.5
2.02
1.01
0.79
0.39
0.02
-2.49
1.18
-1.33
-0.78
0.66
0.24
0.18

>  <PUBCHEM_SHAPE_SELFOVERLAP>  (1) 
730.675

>  <PUBCHEM_SHAPE_VOLUME>  (1) 
186.3

>  <PUBCHEM_COORDINATE_TYPE>  (1) 
2
5
10

$$$$
