20462
     RDKit          3D

 14 14  0  0  0  0  0  0  0  0999 V2000
   -2.0869    3.5831    0.1168 Cl  0  0  0  0  0  0  0  0  0  0  0  0
    1.9169    0.7404   -0.1461 O   0  0  0  0  0  0  0  0  0  0  0  0
   -2.2367   -1.3618    0.0269 N   0  0  0  0  0  0  0  0  0  0  0  0
   -0.1275   -0.3403   -0.0629 N   0  0  0  0  0  0  0  0  0  0  0  0
   -2.1268    0.9803    0.0670 N   0  0  0  0  0  0  0  0  0  0  0  0
    0.0168    2.0546   -0.0243 N   0  0  0  0  0  0  0  0  0  0  0  0
   -1.6631   -2.6698   -0.0288 C   0  0  0  0  0  0  0  0  0  0  0  0
   -1.4592   -0.1834    0.0097 C   0  0  0  0  0  0  0  0  0  0  0  0
   -2.7359   -3.7432    0.0409 C   0  0  0  0  0  0  0  0  0  0  0  0
    0.5502    0.8212   -0.0757 C   0  0  0  0  0  0  0  0  0  0  0  0
    2.4804   -0.5627   -0.1982 C   0  0  0  0  0  0  0  0  0  0  0  0
   -1.3241    2.0565    0.0459 C   0  0  0  0  0  0  0  0  0  0  0  0
    3.9623   -0.4397   -0.3284 C   0  0  0  0  0  0  0  0  0  0  0  0
    4.8337   -0.9353    0.5570 C   0  0  0  0  0  0  0  0  0  0  0  0
  1 12  1  0
  2 10  1  0
  2 11  1  0
  3  7  1  0
  3  8  1  0
  4  8  2  0
  4 10  1  0
  5  8  1  0
  5 12  2  0
  6 10  2  0
  6 12  1  0
  7  9  1  0
 11 13  1  0
 13 14  2  0
M  END
>  <PUBCHEM_COMPOUND_CID>  (1) 
20462

>  <PUBCHEM_CONFORMER_RMSD>  (1) 
0.6

>  <PUBCHEM_CONFORMER_DIVERSEORDER>  (1) 
1
69
20
25
59
15
42
36
56
57
51
10
61
45
46
58
3
19
52
34
68
28
16
30
29
21
4
70
65
54
9
62
67
11
18
26
37
31
49
44
47
14
50
12
60
24
32
35
17
41
66
7
2
63
55
39
43
33
23
53
38
48
5
64
13
40
22
6
27
8

>  <PUBCHEM_MMFF94_PARTIAL_CHARGES>  (1) 
17
1 -0.18
10 0.7
11 0.42
12 0.8
13 -0.29
14 -0.3
17 0.4
2 -0.36
23 0.15
24 0.15
25 0.15
3 -0.87
4 -0.62
5 -0.62
6 -0.62
7 0.37
8 0.72

>  <PUBCHEM_EFFECTIVE_ROTOR_COUNT>  (1) 
5

>  <PUBCHEM_PHARMACOPHORE_FEATURES>  (1) 
4
1 14 hydrophobe
1 3 donor
4 3 4 5 8 cation
6 4 5 6 8 10 12 rings

>  <PUBCHEM_HEAVY_ATOM_COUNT>  (1) 
14

>  <PUBCHEM_ATOM_DEF_STEREO_COUNT>  (1) 
0

>  <PUBCHEM_ATOM_UDEF_STEREO_COUNT>  (1) 
0

>  <PUBCHEM_BOND_DEF_STEREO_COUNT>  (1) 
0

>  <PUBCHEM_BOND_UDEF_STEREO_COUNT>  (1) 
0

>  <PUBCHEM_ISOTOPIC_ATOM_COUNT>  (1) 
0

>  <PUBCHEM_COMPONENT_COUNT>  (1) 
1

>  <PUBCHEM_CACTVS_TAUTO_COUNT>  (1) 
4

>  <PUBCHEM_CONFORMER_ID>  (1) 
00004FEE00000001

>  <PUBCHEM_MMFF94_ENERGY>  (1) 
29.3943

>  <PUBCHEM_FEATURE_SELFOVERLAP>  (1) 
20.297

>  <PUBCHEM_SHAPE_FINGERPRINT>  (1) 
10616163 171 18410857638394759246
11357001 24 18409452483402175451
12500047 106 18267297626254307784
12532896 13 18053384297090143165
12553582 1 18194697083520019774
12757275 245 18410294688335381646
13955234 65 17114670069209738667
15042514 8 18409737261530645995
15279307 12 18043529413368068498
15442244 35 18052267481756757619
17539 30 18340757213317971383
20510252 161 18056480551825248856
20524608 308 18339644430109271066
20645477 56 18267588996741119024
20645477 70 17256233269338806127
20671657 53 18051977210223002383
20871998 184 18202284714547204030
20871998 22 18050846916353171179
212916 134 17909246011023236520
21426921 1 18410858759264444894
21452121 199 18120925376702625624
21650355 55 18411697707647057330
21665056 4 18193555571221816294
23402539 116 18342165627789578997
23557571 272 18202292364379784804
23559900 14 18127688224492867102
23728640 28 18336826364548635474
257057 1 18195244644615460885
2748010 2 18125713732667216509
3086196 2 18411130360027075962
3091708 16 9059257282247034635
43471831 8 17833554500937762377
54173680 148 18410575106164302183
58807428 26 17907867201581916937
7364860 26 17403178595753229459
81228 2 18411972585770552057
9709674 26 18271808961170864014

>  <PUBCHEM_SHAPE_MULTIPOLES>  (1) 
264.19
6.38
4.27
0.63
10.86
1.4
-0.01
2.38
-0.57
-6.79
-0.17
0.16
0.02
-0.17

>  <PUBCHEM_SHAPE_SELFOVERLAP>  (1) 
518.793

>  <PUBCHEM_SHAPE_VOLUME>  (1) 
157.8

>  <PUBCHEM_COORDINATE_TYPE>  (1) 
2
5
10

$$$$
