20468
     RDKit          3D

 19 20  0  0  0  0  0  0  0  0999 V2000
    4.8335   -0.4447    2.0766 Cl  0  0  0  0  0  0  0  0  0  0  0  0
   -4.8343    0.4446    2.0769 Cl  0  0  0  0  0  0  0  0  0  0  0  0
   -0.0004    0.0002   -1.9468 S   0  0  0  0  0  0  0  0  0  0  0  0
    0.4637   -2.1363    0.1470 O   0  0  0  0  0  0  0  0  0  0  0  0
   -0.4644    2.1363    0.1474 O   0  0  0  0  0  0  0  0  0  0  0  0
    1.3779   -0.1186   -0.8041 C   0  0  0  0  0  0  0  0  0  0  0  0
   -1.3712    0.1181   -0.8103 C   0  0  0  0  0  0  0  0  0  0  0  0
    2.3907    0.8402   -0.8188 C   0  0  0  0  0  0  0  0  0  0  0  0
   -2.3916   -0.8401   -0.8188 C   0  0  0  0  0  0  0  0  0  0  0  0
    1.4336   -1.1783    0.1013 C   0  0  0  0  0  0  0  0  0  0  0  0
   -1.4344    1.1783    0.1015 C   0  0  0  0  0  0  0  0  0  0  0  0
    3.4596    0.7393    0.0718 C   0  0  0  0  0  0  0  0  0  0  0  0
   -3.4604   -0.7393    0.0718 C   0  0  0  0  0  0  0  0  0  0  0  0
    2.3805    1.9968   -1.7673 C   0  0  0  0  0  0  0  0  0  0  0  0
   -2.3814   -1.9964   -1.7675 C   0  0  0  0  0  0  0  0  0  0  0  0
    2.5024   -1.2792    0.9920 C   0  0  0  0  0  0  0  0  0  0  0  0
   -2.5031    1.2791    0.9923 C   0  0  0  0  0  0  0  0  0  0  0  0
    3.5154   -0.3204    0.9773 C   0  0  0  0  0  0  0  0  0  0  0  0
   -3.5162    0.3202    0.9775 C   0  0  0  0  0  0  0  0  0  0  0  0
  1 18  1  0
  2 19  1  0
  3  6  1  0
  3  7  1  0
  4 10  1  0
  5 11  1  0
  6  8  2  0
  6 10  1  0
  7  9  2  0
  7 11  1  0
  8 12  1  0
  8 14  1  0
  9 13  1  0
  9 15  1  0
 10 16  2  0
 11 17  2  0
 12 18  2  0
 13 19  2  0
 16 18  1  0
 17 19  1  0
M  END
>  <PUBCHEM_COMPOUND_CID>  (1) 
20468

>  <PUBCHEM_CONFORMER_RMSD>  (1) 
0.6

>  <PUBCHEM_CONFORMER_DIVERSEORDER>  (1) 
2
8
10
6
7
1
5
9
3
4

>  <PUBCHEM_MMFF94_PARTIAL_CHARGES>  (1) 
25
1 -0.18
10 0.08
11 0.08
12 -0.15
13 -0.15
14 0.14
15 0.14
16 -0.15
17 -0.15
18 0.18
19 0.18
2 -0.18
20 0.15
21 0.15
28 0.15
29 0.15
3 -0.2
30 0.45
31 0.45
4 -0.53
5 -0.53
6 0.1
7 0.1
8 -0.14
9 -0.14

>  <PUBCHEM_EFFECTIVE_ROTOR_COUNT>  (1) 
2

>  <PUBCHEM_PHARMACOPHORE_FEATURES>  (1) 
4
1 4 donor
1 5 donor
6 6 8 10 12 16 18 rings
6 7 9 11 13 17 19 rings

>  <PUBCHEM_HEAVY_ATOM_COUNT>  (1) 
19

>  <PUBCHEM_ATOM_DEF_STEREO_COUNT>  (1) 
0

>  <PUBCHEM_ATOM_UDEF_STEREO_COUNT>  (1) 
0

>  <PUBCHEM_BOND_DEF_STEREO_COUNT>  (1) 
0

>  <PUBCHEM_BOND_UDEF_STEREO_COUNT>  (1) 
0

>  <PUBCHEM_ISOTOPIC_ATOM_COUNT>  (1) 
0

>  <PUBCHEM_COMPONENT_COUNT>  (1) 
1

>  <PUBCHEM_CACTVS_TAUTO_COUNT>  (1) 
17

>  <PUBCHEM_CONFORMER_ID>  (1) 
00004FF400000002

>  <PUBCHEM_MMFF94_ENERGY>  (1) 
52.4933

>  <PUBCHEM_FEATURE_SELFOVERLAP>  (1) 
20.297

>  <PUBCHEM_SHAPE_FINGERPRINT>  (1) 
10498660 4 16200436827870193697
11132069 177 18202561774107435061
11471102 22 17385439929859733230
11578080 2 18049970519866609413
11796584 16 14346893285756126632
12173636 292 17489312923924509569
12202030 40 15719114643005767893
12363563 72 15502382200915192384
12633257 1 18410575101842948611
12730499 353 14117800228055682373
13134695 92 17240471521051036212
13296908 3 15719390641915013455
13583140 156 18040442113846048957
13693222 15 17967529069068731348
13764800 53 16702305646061554043
13965767 371 17842573841917564449
14178342 30 17972599888016184440
14341114 328 18341899622773138105
14787075 74 17042325510661763311
15209294 21 18130213909332252794
15375462 189 18335994150474146345
16945 1 18410855417178489324
1813 80 18041843892540047126
19050596 39 18410856576846039321
19433438 48 18340476833252017611
200 152 18115004377485072350
20871999 31 11891333097913167658
22112679 90 18271523199320601501
231179 274 14261349163437852378
23419403 2 16910824826719480477
23557571 272 16844735359836532774
23559900 14 17131292189059890629
26918003 58 17603581907176096449
27216 239 16343123831650664515
2748010 2 17762055436946637422
31174 14 17168153368078826852
4072396 5 18339375059141899521
427121 178 17417547812637644547
463206 1 14562539491652167217
5262128 65 11675461581642847515
6442390 28 16128657470371947887
7097593 13 18268425741947855430
76465 3 15719113560800642739
77492 1 18338516442658406063
90316 7 18342454820553748129

>  <PUBCHEM_SHAPE_MULTIPOLES>  (1) 
386.86
8.23
2.04
1.88
0.01
0.09
0
5.99
0
0
0
0
-0.5
2.05

>  <PUBCHEM_SHAPE_SELFOVERLAP>  (1) 
799.31

>  <PUBCHEM_SHAPE_VOLUME>  (1) 
225.1

>  <PUBCHEM_COORDINATE_TYPE>  (1) 
2
5
10

$$$$
