20460
     RDKit          3D

 15 15  0  0  0  0  0  0  0  0999 V2000
   -0.5506   -4.3974   -0.0134 Cl  0  0  0  0  0  0  0  0  0  0  0  0
   -2.3726    0.1699   -0.0142 O   0  0  0  0  0  0  0  0  0  0  0  0
    2.2594   -0.3250    0.0308 N   0  0  0  0  0  0  0  0  0  0  0  0
   -0.0678   -0.0351    0.0073 N   0  0  0  0  0  0  0  0  0  0  0  0
    0.8958   -2.2326    0.0090 N   0  0  0  0  0  0  0  0  0  0  0  0
   -1.4890   -1.9683   -0.0159 N   0  0  0  0  0  0  0  0  0  0  0  0
    2.5117    1.0959    0.0386 C   0  0  0  0  0  0  0  0  0  0  0  0
    4.0097    1.3785   -0.0070 C   0  0  0  0  0  0  0  0  0  0  0  0
   -3.4673    2.2979    0.0086 C   0  0  0  0  0  0  0  0  0  0  0  0
   -2.1321    1.5697   -0.0038 C   0  0  0  0  0  0  0  0  0  0  0  0
    4.3287    2.8667   -0.0461 C   0  0  0  0  0  0  0  0  0  0  0  0
    0.9899   -0.8814    0.0154 C   0  0  0  0  0  0  0  0  0  0  0  0
   -3.2885    3.8055    0.0051 C   0  0  0  0  0  0  0  0  0  0  0  0
   -1.2642   -0.6445   -0.0080 C   0  0  0  0  0  0  0  0  0  0  0  0
   -0.3631   -2.6998   -0.0064 C   0  0  0  0  0  0  0  0  0  0  0  0
  1 15  1  0
  2 10  1  0
  2 14  1  0
  3  7  1  0
  3 12  1  0
  4 12  2  0
  4 14  1  0
  5 12  1  0
  5 15  2  0
  6 14  2  0
  6 15  1  0
  7  8  1  0
  8 11  1  0
  9 10  1  0
  9 13  1  0
M  END
>  <PUBCHEM_COMPOUND_CID>  (1) 
20460

>  <PUBCHEM_CONFORMER_RMSD>  (1) 
0.8

>  <PUBCHEM_CONFORMER_DIVERSEORDER>  (1) 
1
62
8
63
27
58
55
22
7
46
4
36
6
60
40
17
34
64
10
57
43
18
61
47
51
44
35
2
59
14
39
15
21
29
53
5
42
9
3
49
26
19
20
25
24
30
23
56
38
52
48
12
54
50
16
11
45
33
37
41
28
31
13
32

>  <PUBCHEM_MMFF94_PARTIAL_CHARGES>  (1) 
12
1 -0.18
10 0.28
12 0.72
14 0.7
15 0.8
2 -0.36
22 0.4
3 -0.87
4 -0.62
5 -0.62
6 -0.62
7 0.37

>  <PUBCHEM_EFFECTIVE_ROTOR_COUNT>  (1) 
6

>  <PUBCHEM_PHARMACOPHORE_FEATURES>  (1) 
5
1 11 hydrophobe
1 13 hydrophobe
1 3 donor
4 3 4 5 12 cation
6 4 5 6 12 14 15 rings

>  <PUBCHEM_HEAVY_ATOM_COUNT>  (1) 
15

>  <PUBCHEM_ATOM_DEF_STEREO_COUNT>  (1) 
0

>  <PUBCHEM_ATOM_UDEF_STEREO_COUNT>  (1) 
0

>  <PUBCHEM_BOND_DEF_STEREO_COUNT>  (1) 
0

>  <PUBCHEM_BOND_UDEF_STEREO_COUNT>  (1) 
0

>  <PUBCHEM_ISOTOPIC_ATOM_COUNT>  (1) 
0

>  <PUBCHEM_COMPONENT_COUNT>  (1) 
1

>  <PUBCHEM_CACTVS_TAUTO_COUNT>  (1) 
4

>  <PUBCHEM_CONFORMER_ID>  (1) 
00004FEC00000001

>  <PUBCHEM_MMFF94_ENERGY>  (1) 
25.7107

>  <PUBCHEM_FEATURE_SELFOVERLAP>  (1) 
25.371

>  <PUBCHEM_SHAPE_FINGERPRINT>  (1) 
10411042 1 17401769017715555270
12107183 9 18263348245450170048
12173636 292 18410855507520619004
13134695 92 17256242645066907311
138480 1 17474107600982034592
13955234 65 17977673009313547337
14123255 52 18410575050404203940
14178000 15 17259057390243562565
14508225 48 17550096408692876535
14648413 74 17976826389449353059
17134986 127 18339081462986673156
1741750 31 18411416232876412856
17834072 32 18410576180181244768
18785283 64 18119816802493421033
20510252 161 18269842071679504443
20621476 13 17831006932222854013
20671657 1 17979358560316998869
21041028 32 16680064415432717631
21426921 1 18122345950432317884
21524375 3 18410847733497879035
22182937 141 18270972369797051176
2306618 200 17984153822678484554
23402539 116 17839460325430048863
23557571 272 17910971449756951796
23558518 356 18189056546346928954
3071541 12 18051413967963423823
3091708 16 9194939207358178826
5939293 188 17617373987661130713
68521 5 17906453577700438606
7364860 26 17834957473289946159
8199 26 18410856551240532064
84936 182 18127965308932028321
9981440 41 18409722933324516385

>  <PUBCHEM_SHAPE_MULTIPOLES>  (1) 
284.77
6.5
5.64
0.59
5.53
2.55
0
-10.28
0.04
-3.51
0.04
0.01
-0.01
-0.05

>  <PUBCHEM_SHAPE_SELFOVERLAP>  (1) 
551.43

>  <PUBCHEM_SHAPE_VOLUME>  (1) 
172.5

>  <PUBCHEM_COORDINATE_TYPE>  (1) 
2
5
10

$$$$
