20477
     RDKit          3D

 23 25  0  0  0  0  0  0  0  0999 V2000
   -4.9196   -0.4289   -0.7677 O   0  0  0  0  0  0  0  0  0  0  0  0
    4.9106   -0.5876   -0.7077 O   0  0  0  0  0  0  0  0  0  0  0  0
   -3.7496   -1.2490   -2.5334 O   0  0  0  0  0  0  0  0  0  0  0  0
    3.7531   -1.1031   -2.5927 O   0  0  0  0  0  0  0  0  0  0  0  0
   -0.0010   -0.2602   -0.6477 C   0  0  0  0  0  0  0  0  0  0  0  0
    0.0044    1.2209   -0.2637 C   0  0  0  0  0  0  0  0  0  0  0  0
   -0.0048   -0.9261    0.7299 C   0  0  0  0  0  0  0  0  0  0  0  0
   -1.2649   -0.6199   -1.4365 C   0  0  0  0  0  0  0  0  0  0  0  0
    1.2623   -0.6292   -1.4335 C   0  0  0  0  0  0  0  0  0  0  0  0
    0.0048    1.3653    1.1422 C   0  0  0  0  0  0  0  0  0  0  0  0
   -0.0011    0.0522    1.7498 C   0  0  0  0  0  0  0  0  0  0  0  0
   -2.5350   -0.3716   -0.6399 C   0  0  0  0  0  0  0  0  0  0  0  0
    2.5334   -0.3635   -0.6444 C   0  0  0  0  0  0  0  0  0  0  0  0
    0.0091    2.3299   -1.0970 C   0  0  0  0  0  0  0  0  0  0  0  0
   -0.0109   -2.2790    1.0359 C   0  0  0  0  0  0  0  0  0  0  0  0
    0.0100    2.6237    1.7229 C   0  0  0  0  0  0  0  0  0  0  0  0
   -0.0035   -0.3195    3.0851 C   0  0  0  0  0  0  0  0  0  0  0  0
    0.0140    3.5970   -0.5113 C   0  0  0  0  0  0  0  0  0  0  0  0
   -0.0133   -2.6526    2.3810 C   0  0  0  0  0  0  0  0  0  0  0  0
    0.0146    3.7424    0.8852 C   0  0  0  0  0  0  0  0  0  0  0  0
   -0.0098   -1.6821    3.3958 C   0  0  0  0  0  0  0  0  0  0  0  0
   -3.7725   -0.7259   -1.4266 C   0  0  0  0  0  0  0  0  0  0  0  0
    3.7698   -0.7332   -1.4256 C   0  0  0  0  0  0  0  0  0  0  0  0
  1 22  1  0
  2 23  1  0
  3 22  2  0
  4 23  2  0
  5  6  1  0
  5  7  1  0
  5  8  1  0
  5  9  1  0
  6 10  2  0
  6 14  1  0
  7 11  2  0
  7 15  1  0
  8 12  1  0
  9 13  1  0
 10 11  1  0
 10 16  1  0
 11 17  1  0
 12 22  1  0
 13 23  1  0
 14 18  2  0
 15 19  2  0
 16 20  2  0
 17 21  2  0
 18 20  1  0
 19 21  1  0
M  END
>  <PUBCHEM_COMPOUND_CID>  (1) 
20477

>  <PUBCHEM_CONFORMER_RMSD>  (1) 
0.8

>  <PUBCHEM_CONFORMER_DIVERSEORDER>  (1) 
1
9
8
6
7
10
5
3
4
2

>  <PUBCHEM_MMFF94_PARTIAL_CHARGES>  (1) 
29
1 -0.65
12 0.06
13 0.06
14 -0.15
15 -0.15
16 -0.15
17 -0.15
18 -0.15
19 -0.15
2 -0.65
20 -0.15
21 -0.15
22 0.66
23 0.66
3 -0.57
32 0.15
33 0.15
34 0.15
35 0.15
36 0.15
37 0.15
38 0.15
39 0.15
4 -0.57
40 0.5
41 0.5
5 0.29
6 -0.14
7 -0.14

>  <PUBCHEM_EFFECTIVE_ROTOR_COUNT>  (1) 
6.2

>  <PUBCHEM_PHARMACOPHORE_FEATURES>  (1) 
9
1 1 acceptor
1 2 acceptor
1 3 acceptor
1 4 acceptor
3 1 3 22 anion
3 2 4 23 anion
5 5 6 7 10 11 rings
6 6 10 14 16 18 20 rings
6 7 11 15 17 19 21 rings

>  <PUBCHEM_HEAVY_ATOM_COUNT>  (1) 
23

>  <PUBCHEM_ATOM_DEF_STEREO_COUNT>  (1) 
0

>  <PUBCHEM_ATOM_UDEF_STEREO_COUNT>  (1) 
0

>  <PUBCHEM_BOND_DEF_STEREO_COUNT>  (1) 
0

>  <PUBCHEM_BOND_UDEF_STEREO_COUNT>  (1) 
0

>  <PUBCHEM_ISOTOPIC_ATOM_COUNT>  (1) 
0

>  <PUBCHEM_COMPONENT_COUNT>  (1) 
1

>  <PUBCHEM_CACTVS_TAUTO_COUNT>  (1) 
1

>  <PUBCHEM_CONFORMER_ID>  (1) 
00004FFD00000001

>  <PUBCHEM_MMFF94_ENERGY>  (1) 
67.4568

>  <PUBCHEM_FEATURE_SELFOVERLAP>  (1) 
45.947

>  <PUBCHEM_SHAPE_FINGERPRINT>  (1) 
10948715 1 14129059218228251254
11421498 54 17895476904492230693
11578080 2 17028854148190995509
11582403 64 17110477111111890204
12788726 201 18408606929407217492
13134695 92 14907887298017269035
13149001 5 18043537315675064230
14817 1 12561250822068934848
14943834 7 17466495716284274374
16945 1 18186519907984788295
17876694 64 16772420441428359011
17921350 177 17762379884237508489
17980427 23 16980742667570143384
20600515 1 17914585406864866395
20602899 9 17313396595182137242
21524375 3 14056717958791036574
23352939 185 17561368409054477708
23419403 2 17828229879329956401
23559900 14 17559091363845254639
266924 1 17826785937047307175
298252 57 15646772314200732982
3250762 1 17538858278775277247
3493558 16 17060619996847737369
394222 165 16516238522844632378
497634 4 16486431893120406628
5845 1 10959432336940822988
68419 9 17758944931510458944
70251023 43 18129958792786349718
81228 2 18265354840758340820
9981440 41 17119435335218980689

>  <PUBCHEM_SHAPE_MULTIPOLES>  (1) 
449.85
5.14
3.52
3.2
0.03
1.61
-0.64
-1.26
7.04
-0.02
-3.35
-0.01
-0.79
0.01

>  <PUBCHEM_SHAPE_SELFOVERLAP>  (1) 
983.734

>  <PUBCHEM_SHAPE_VOLUME>  (1) 
244

>  <PUBCHEM_COORDINATE_TYPE>  (1) 
2
5
10

$$$$
