20475
     RDKit          3D

 22 25  0  0  1  0  0  0  0  0999 V2000
    4.6013   -0.7755    1.1088 O   0  0  0  0  0  0  0  0  0  0  0  0
   -3.9331   -0.7823   -0.5309 O   0  0  0  0  0  0  0  0  0  0  0  0
   -5.6748   -0.2663    0.7995 O   0  0  0  0  0  0  0  0  0  0  0  0
    2.5996    0.4684    0.4529 C   0  0  0  0  0  0  0  0  0  0  0  0
    1.7989   -0.8542    0.3565 C   0  0  0  0  0  0  0  0  0  0  0  0
    0.2640   -0.6780    0.3940 C   0  0  0  0  0  0  0  0  0  0  0  0
   -0.2529    0.3861   -0.6072 C   0  0  0  0  0  0  0  0  0  0  0  0
   -1.8184    0.5531   -0.5739 C   0  0  0  0  0  0  0  0  0  0  0  0
    4.0247   -0.0132    0.0387 C   0  0  0  0  0  0  0  0  0  0  0  0
    2.0250    1.5229   -0.5255 C   0  0  0  0  0  0  0  0  0  0  0  0
    0.5116    1.7092   -0.4079 C   0  0  0  0  0  0  0  0  0  0  0  0
    2.3595   -1.5454   -0.9012 C   0  0  0  0  0  0  0  0  0  0  0  0
   -0.4507   -2.0215    0.1951 C   0  0  0  0  0  0  0  0  0  0  0  0
    3.7668   -0.9781   -1.1280 C   0  0  0  0  0  0  0  0  0  0  0  0
   -2.4945   -0.8320   -0.6890 C   0  0  0  0  0  0  0  0  0  0  0  0
   -1.9595   -1.8729    0.2978 C   0  0  0  0  0  0  0  0  0  0  0  0
    2.5747    1.0261    1.8897 C   0  0  0  0  0  0  0  0  0  0  0  0
   -2.3197    1.2074    0.7277 C   0  0  0  0  0  0  0  0  0  0  0  0
   -2.2626    1.4162   -1.7833 C   0  0  0  0  0  0  0  0  0  0  0  0
    5.0162    1.0891   -0.3229 C   0  0  0  0  0  0  0  0  0  0  0  0
   -3.8352    1.2524    0.8094 C   0  0  0  0  0  0  0  0  0  0  0  0
   -4.5408   -0.0117    0.3998 C   0  0  0  0  0  0  0  0  0  0  0  0
  1  9  1  0
  2 15  1  0
  2 22  1  0
  3 22  2  0
  4  5  1  0
  4  9  1  0
  4 10  1  0
  4 17  1  0
  5  6  1  0
  5 12  1  0
  6  7  1  0
  6 13  1  0
  7  8  1  0
  7 11  1  0
  8 15  1  0
  8 18  1  0
  8 19  1  0
  9 14  1  0
  9 20  1  0
 10 11  1  0
 12 14  1  0
 13 16  1  0
 15 16  1  0
 18 21  1  0
 21 22  1  0
M  END
>  <PUBCHEM_COMPOUND_CID>  (1) 
20475

>  <PUBCHEM_CONFORMER_RMSD>  (1) 
0.6

>  <PUBCHEM_CONFORMER_DIVERSEORDER>  (1) 
1
32
30
27
42
35
25
26
16
36
19
39
46
48
37
22
11
38
47
12
34
44
9
41
43
40
23
6
24
20
2
33
28
31
17
7
5
4
15
10
14
49
3
21
29
18
13
45
8

>  <PUBCHEM_MMFF94_PARTIAL_CHARGES>  (1) 
8
1 -0.68
15 0.28
2 -0.43
21 0.06
22 0.66
3 -0.57
52 0.4
9 0.28

>  <PUBCHEM_EFFECTIVE_ROTOR_COUNT>  (1) 
2

>  <PUBCHEM_PHARMACOPHORE_FEATURES>  (1) 
7
1 1 acceptor
1 1 donor
1 3 acceptor
5 4 5 9 12 14 rings
6 2 8 15 18 21 22 rings
6 4 5 6 7 10 11 rings
6 6 7 8 13 15 16 rings

>  <PUBCHEM_HEAVY_ATOM_COUNT>  (1) 
22

>  <PUBCHEM_ATOM_DEF_STEREO_COUNT>  (1) 
2

>  <PUBCHEM_ATOM_UDEF_STEREO_COUNT>  (1) 
5

>  <PUBCHEM_BOND_DEF_STEREO_COUNT>  (1) 
0

>  <PUBCHEM_BOND_UDEF_STEREO_COUNT>  (1) 
0

>  <PUBCHEM_ISOTOPIC_ATOM_COUNT>  (1) 
0

>  <PUBCHEM_COMPONENT_COUNT>  (1) 
1

>  <PUBCHEM_CACTVS_TAUTO_COUNT>  (1) 
1

>  <PUBCHEM_CONFORMER_ID>  (1) 
00004FFB00000001

>  <PUBCHEM_MMFF94_ENERGY>  (1) 
80.7467

>  <PUBCHEM_FEATURE_SELFOVERLAP>  (1) 
35.759

>  <PUBCHEM_SHAPE_FINGERPRINT>  (1) 
10366900 7 18060133279828790640
10498660 4 18187357680063632093
11132069 177 18409726274993428391
12011746 2 18261114062953684599
12173636 292 17989202608327131271
12236239 1 18273498966403242705
12251169 10 18409732876368685869
12403259 415 18410565189227747196
12403814 3 17748543736443328829
12553582 1 18187355558323329301
12633257 1 18408317813256308986
12670546 56 17561358479079325441
128620 24 17458063763653638788
12916748 109 18341901779062972403
13140716 1 18116436032129966715
13224815 77 17676486124924812132
13533116 47 17846221020971559455
13544592 145 18202013088052121214
13583140 156 16081356471133252085
13675066 3 17988642978083015585
14341114 176 18131361786549585251
14790565 3 18334869302581616557
14866123 147 16404529039417178270
15196674 1 18410577249342426933
15209289 33 18413109454949710337
15209294 21 18272653420302147385
15238133 3 17632029575563831088
15295992 7 17917426583270047779
15309172 13 18260546697504909507
15536298 74 18273217482245870783
15788980 27 17022899030274714974
15848702 151 18059019380224311471
1601671 61 18272373079376215596
16752209 62 17822837711256880133
16945 1 18040987453821282519
17349148 13 18409722997806820055
1813 80 17821739316167757245
18186145 218 18341326708495537918
19141452 34 18342459270350701271
19591789 44 18263928722178876835
19862831 5 12607404377533802373
200 152 17775001314722890495
20028762 73 18269278023012138039
20261772 1 18260830418744189395
20510252 161 18339923718937552865
21033648 29 18341600491698122361
21267235 1 18410022026030149686
22854114 59 18335139778346788377
23402539 116 18272080617635661815
23559900 14 18130222778344955400
2748010 2 18045487630502032767
296302 2 18343584062139773724
350125 39 18408044022219249213
3545911 37 18202286909037855195
4340502 62 15698009556735680943
465052 167 17603878822897859475
474 4 18408889567760850649
495365 180 17346308341324195058
5104073 3 18411135882969767674
542803 24 18272933834036774764
69090 78 18342736329816116919
7495541 125 16081382894062161661
8272917 22 16702030742305763414
9709674 26 18272655679012210222
9981440 41 17331112209686035257

>  <PUBCHEM_SHAPE_MULTIPOLES>  (1) 
435.14
9.63
1.88
1.27
1.82
0.26
0.03
-0.42
1.34
0
-0.13
-0.2
-0.31
0.28

>  <PUBCHEM_SHAPE_SELFOVERLAP>  (1) 
930.144

>  <PUBCHEM_SHAPE_VOLUME>  (1) 
239.4

>  <PUBCHEM_COORDINATE_TYPE>  (1) 
2
5
10

$$$$
