20470
     RDKit          3D

 11 11  0  0  0  0  0  0  0  0999 V2000
    0.2867   -1.8047   -0.0740 O   0  0  0  0  0  0  0  0  0  0  0  0
   -1.3043   -0.1306   -0.0116 N   0  0  0  0  0  0  0  0  0  0  0  0
   -3.6405   -0.1248    0.2741 C   0  0  0  0  0  0  0  0  0  0  0  0
   -3.2079    1.2381   -0.2518 C   0  0  0  0  0  0  0  0  0  0  0  0
   -2.4589   -1.0142   -0.0803 C   0  0  0  0  0  0  0  0  0  0  0  0
   -1.7183    1.2671    0.0600 C   0  0  0  0  0  0  0  0  0  0  0  0
   -0.0069   -0.6096   -0.0144 C   0  0  0  0  0  0  0  0  0  0  0  0
    1.0736    0.4397    0.0546 C   0  0  0  0  0  0  0  0  0  0  0  0
    2.4477   -0.2100    0.0447 C   0  0  0  0  0  0  0  0  0  0  0  0
    3.5854    0.8139    0.0442 C   0  0  0  0  0  0  0  0  0  0  0  0
    4.9435    0.1350   -0.0455 C   0  0  0  0  0  0  0  0  0  0  0  0
  1  7  2  0
  2  5  1  0
  2  6  1  0
  2  7  1  0
  3  4  1  0
  3  5  1  0
  4  6  1  0
  7  8  1  0
  8  9  1  0
  9 10  1  0
 10 11  1  0
M  END
>  <PUBCHEM_COMPOUND_CID>  (1) 
20470

>  <PUBCHEM_CONFORMER_RMSD>  (1) 
0.6

>  <PUBCHEM_CONFORMER_DIVERSEORDER>  (1) 
1
20
15
19
13
10
16
18
25
22
17
24
4
12
6
3
11
21
14
7
8
23
5
9
2

>  <PUBCHEM_MMFF94_PARTIAL_CHARGES>  (1) 
6
1 -0.57
2 -0.66
5 0.3
6 0.3
7 0.57
8 0.06

>  <PUBCHEM_EFFECTIVE_ROTOR_COUNT>  (1) 
5

>  <PUBCHEM_PHARMACOPHORE_FEATURES>  (1) 
3
1 1 acceptor
1 11 hydrophobe
5 2 3 4 5 6 rings

>  <PUBCHEM_HEAVY_ATOM_COUNT>  (1) 
11

>  <PUBCHEM_ATOM_DEF_STEREO_COUNT>  (1) 
0

>  <PUBCHEM_ATOM_UDEF_STEREO_COUNT>  (1) 
0

>  <PUBCHEM_BOND_DEF_STEREO_COUNT>  (1) 
0

>  <PUBCHEM_BOND_UDEF_STEREO_COUNT>  (1) 
0

>  <PUBCHEM_ISOTOPIC_ATOM_COUNT>  (1) 
0

>  <PUBCHEM_COMPONENT_COUNT>  (1) 
1

>  <PUBCHEM_CACTVS_TAUTO_COUNT>  (1) 
1

>  <PUBCHEM_CONFORMER_ID>  (1) 
00004FF600000001

>  <PUBCHEM_MMFF94_ENERGY>  (1) 
11.4249

>  <PUBCHEM_FEATURE_SELFOVERLAP>  (1) 
15.223

>  <PUBCHEM_SHAPE_FINGERPRINT>  (1) 
12346645 44 18409729530167175691
12932764 1 17417798548274889842
13214271 11 18334014991158248365
13380535 76 18409730651227895619
14325111 11 18410573976756695370
15775835 57 18409730646900870664
18186145 218 17775283880742587864
20645477 70 17417539012455579006
23402539 116 18272643558867338220
23402655 69 18199455590120786645
23559900 14 18131631201959787744
366044 4 18411136948317172810
6430166 295 18409726249350277088

>  <PUBCHEM_SHAPE_MULTIPOLES>  (1) 
215.52
8.08
1.34
0.62
7.16
0.15
0
-1.66
-0.04
-0.67
0.05
-0.04
-0.02
0.08

>  <PUBCHEM_SHAPE_SELFOVERLAP>  (1) 
414.785

>  <PUBCHEM_SHAPE_VOLUME>  (1) 
133.4

>  <PUBCHEM_COORDINATE_TYPE>  (1) 
2
5
10

$$$$
