20482
     RDKit          3D

 21 23  0  0  1  0  0  0  0  0999 V2000
   -0.0086   -2.6938    0.2110 O   0  0  0  0  0  0  0  0  0  0  0  0
    0.5435   -0.3492   -0.3643 C   0  0  0  0  0  0  0  0  0  0  0  0
   -0.3203   -1.3295    0.5144 C   0  0  0  0  0  0  0  0  0  0  0  0
    2.0189   -0.5094   -0.2155 C   0  0  0  0  0  0  0  0  0  0  0  0
    0.1084    1.1210   -0.2016 C   0  0  0  0  0  0  0  0  0  0  0  0
   -1.8116   -1.1690    0.2838 C   0  0  0  0  0  0  0  0  0  0  0  0
    2.8636   -0.2179   -1.2867 C   0  0  0  0  0  0  0  0  0  0  0  0
   -0.8552    1.6078   -1.0455 C   0  0  0  0  0  0  0  0  0  0  0  0
    2.5543   -0.9502    0.9949 C   0  0  0  0  0  0  0  0  0  0  0  0
    0.7067    1.8682    0.7793 C   0  0  0  0  0  0  0  0  0  0  0  0
   -2.5179   -0.2694    1.0596 C   0  0  0  0  0  0  0  0  0  0  0  0
   -2.4248   -1.9262   -0.6964 C   0  0  0  0  0  0  0  0  0  0  0  0
    4.2434   -0.3675   -1.1476 C   0  0  0  0  0  0  0  0  0  0  0  0
   -1.2491    2.9378   -0.8984 C   0  0  0  0  0  0  0  0  0  0  0  0
    3.9341   -1.0996    1.1338 C   0  0  0  0  0  0  0  0  0  0  0  0
    0.3126    3.1982    0.9265 C   0  0  0  0  0  0  0  0  0  0  0  0
   -3.8886   -0.1216    0.8475 C   0  0  0  0  0  0  0  0  0  0  0  0
   -3.7956   -1.7783   -0.9085 C   0  0  0  0  0  0  0  0  0  0  0  0
    4.7787   -0.8083    0.0626 C   0  0  0  0  0  0  0  0  0  0  0  0
   -0.6652    3.7329    0.0876 C   0  0  0  0  0  0  0  0  0  0  0  0
   -4.5273   -0.8759   -0.1364 C   0  0  0  0  0  0  0  0  0  0  0  0
  1  3  1  0
  2  3  1  0
  2  4  1  0
  2  5  1  0
  3  6  1  0
  4  7  2  0
  4  9  1  0
  5  8  2  0
  5 10  1  0
  6 11  2  0
  6 12  1  0
  7 13  1  0
  8 14  1  0
  9 15  2  0
 10 16  2  0
 11 17  1  0
 12 18  2  0
 13 19  2  0
 14 20  2  0
 15 19  1  0
 16 20  1  0
 17 21  2  0
 18 21  1  0
M  END
>  <PUBCHEM_COMPOUND_CID>  (1) 
20482

>  <PUBCHEM_CONFORMER_RMSD>  (1) 
0.6

>  <PUBCHEM_CONFORMER_DIVERSEORDER>  (1) 
1
5
3
6
7
8
2
9
4

>  <PUBCHEM_MMFF94_PARTIAL_CHARGES>  (1) 
37
1 -0.68
10 -0.15
11 -0.15
12 -0.15
13 -0.15
14 -0.15
15 -0.15
16 -0.15
17 -0.15
18 -0.15
19 -0.15
2 0.29
20 -0.15
21 -0.15
24 0.15
25 0.15
26 0.15
27 0.15
28 0.15
29 0.15
3 0.42
30 0.4
31 0.15
32 0.15
33 0.15
34 0.15
35 0.15
36 0.15
37 0.15
38 0.15
39 0.15
4 -0.14
5 -0.14
6 -0.14
7 -0.15
8 -0.15
9 -0.15

>  <PUBCHEM_EFFECTIVE_ROTOR_COUNT>  (1) 
4

>  <PUBCHEM_PHARMACOPHORE_FEATURES>  (1) 
5
1 1 acceptor
1 1 donor
6 4 7 9 13 15 19 rings
6 5 8 10 14 16 20 rings
6 6 11 12 17 18 21 rings

>  <PUBCHEM_HEAVY_ATOM_COUNT>  (1) 
21

>  <PUBCHEM_ATOM_DEF_STEREO_COUNT>  (1) 
0

>  <PUBCHEM_ATOM_UDEF_STEREO_COUNT>  (1) 
1

>  <PUBCHEM_BOND_DEF_STEREO_COUNT>  (1) 
0

>  <PUBCHEM_BOND_UDEF_STEREO_COUNT>  (1) 
0

>  <PUBCHEM_ISOTOPIC_ATOM_COUNT>  (1) 
0

>  <PUBCHEM_COMPONENT_COUNT>  (1) 
1

>  <PUBCHEM_CACTVS_TAUTO_COUNT>  (1) 
1

>  <PUBCHEM_CONFORMER_ID>  (1) 
0000500200000001

>  <PUBCHEM_MMFF94_ENERGY>  (1) 
72.7551

>  <PUBCHEM_FEATURE_SELFOVERLAP>  (1) 
25.373

>  <PUBCHEM_SHAPE_FINGERPRINT>  (1) 
104564 63 18262802856720910665
11680986 33 17977385263294337003
12553582 1 18409731772187882211
12643181 29 17331119391810870270
12714826 92 18334857182062048572
12788726 201 18336274457256506804
12954195 1 18124609591492041582
13009979 54 17988092217621294611
13134695 92 18337951319784076053
13140716 1 18338521936311915659
13583140 156 17557109889304938154
13965767 371 17410246939765633355
14081887 123 18270111288978002768
14181834 199 18126005111769894421
14347329 18 16517621726564783327
14347332 77 18267593403720592990
14787075 74 18263361546599751760
14955137 171 18196683815458827259
15420108 30 17483944249006122232
15848700 24 18342454863381627742
1601671 61 18340210683398971385
16752209 62 18261391101176671174
16945 1 18339922606355926148
17357779 13 18341316847493479525
17980427 23 17417816183954075841
1813 80 18342464767465423119
18222031 100 18272929457407376983
200 152 17894348869707034438
20510252 161 18339081480451287984
20567600 347 8574441919346412017
20600515 1 18129955575544172766
20642791 105 18044078073933712044
20691752 17 18187917447503984465
21029758 11 18411417349235223501
21285901 2 18130521733574752222
21330990 113 17560255625576759502
21339142 126 18338797818893365271
21339142 36 18339634560153391605
229495 10 14404625325352121346
23366157 5 17974284636024333933
23402539 116 18343018887019162582
23419403 2 17559084714381292321
23557571 272 18343023251364896022
23558518 356 17901109620434891106
23559900 14 17774442814250086426
283562 15 18335703789130979122
34934 24 18194687192657989668
350125 39 17906466424021558402
352729 6 17690831268501559371
4409770 3 18191855743805043165
5171179 24 18200013149299920753
68521 5 18409451349583472308
6992083 37 18201170922443266907
7164475 11 18263643974937889374
7364860 26 17911241933664633161
7495541 125 18042978755811794299
81228 2 18266479632194167360

>  <PUBCHEM_SHAPE_MULTIPOLES>  (1) 
426.3
7.58
3.48
1.21
2.41
3.96
-0.05
-5.37
-0.34
-1.59
0.07
0.32
0.06
-0.29

>  <PUBCHEM_SHAPE_SELFOVERLAP>  (1) 
932.507

>  <PUBCHEM_SHAPE_VOLUME>  (1) 
229

>  <PUBCHEM_COORDINATE_TYPE>  (1) 
2
5
10

$$$$
