20483
     RDKit          3D

  9  8  0  0  0  0  0  0  0  0999 V2000
    1.6309    1.5370   -0.0277 S   0  0  0  0  0  0  0  0  0  0  0  0
   -1.6334    1.5351   -0.0290 S   0  0  0  0  0  0  0  0  0  0  0  0
   -0.0014    0.9771    1.0864 S   0  0  0  0  0  0  0  0  0  0  0  0
    3.3643   -0.9215    0.6497 O   0  0  0  0  0  0  0  0  0  0  0  0
   -3.3595   -0.9209    0.6537 O   0  0  0  0  0  0  0  0  0  0  0  0
    1.9243    0.0538   -1.0210 C   0  0  0  0  0  0  0  0  0  0  0  0
   -1.9249    0.0520   -1.0230 C   0  0  0  0  0  0  0  0  0  0  0  0
    2.2079   -1.1552   -0.1434 C   0  0  0  0  0  0  0  0  0  0  0  0
   -2.2082   -1.1574   -0.1458 C   0  0  0  0  0  0  0  0  0  0  0  0
  1  3  1  0
  1  6  1  0
  2  3  1  0
  2  7  1  0
  4  8  1  0
  5  9  1  0
  6  8  1  0
  7  9  1  0
M  END
>  <PUBCHEM_COMPOUND_CID>  (1) 
20483

>  <PUBCHEM_CONFORMER_RMSD>  (1) 
0.6

>  <PUBCHEM_CONFORMER_DIVERSEORDER>  (1) 
8
243
289
337
125
51
257
108
359
222
305
105
93
344
205
242
31
231
168
55
239
23
196
361
267
124
380
68
226
375
123
234
96
376
394
5
209
62
245
201
294
327
40
388
202
270
386
18
46
224
276
44
317
282
255
373
4
1
250
198
121
253
246
286
300
184
233
10
383
98
134
119
76
111
384
22
66
216
247
367
104
232
3
21
264
89
358
84
43
293
272
342
9
377
73
244
213
195
326
14
27
301
306
110
392
114
348
17
338
169
193
116
334
127
308
20
314
341
186
248
366
39
71
13
390
163
174
129
171
200
362
59
230
309
240
312
320
90
52
54
345
49
148
219
278
339
101
315
191
179
77
360
275
152
141
335
56
122
146
393
100
303
175
107
254
35
280
79
19
147
82
279
221
189
369
262
85
178
288
225
227
350
265
182
112
379
223
268
298
352
321
53
106
271
181
165
382
283
319
269
115
325
188
29
161
41
28
310
117
197
102
206
156
12
332
103
372
131
307
391
16
204
311
136
78
207
218
385
324
157
135
260
151
57
113
153
277
63
340
302
318
313
166
26
258
328
144
343
284
74
357
290
60
162
140
333
11
217
281
155
287
349
137
389
185
228
48
387
194
381
395
323
190
42
346
61
296
75
220
214
263
154
304
87
329
354
67
150
238
160
297
139
261
180
130
351
6
292
24
92
259
249
58
336
347
36
295
7
235
118
94
158
37
70
322
256
88
142
80
355
187
83
210
50
2
199
109
138
285
97
64
396
95
252
145
353
38
33
159
215
203
164
69
208
229
167
128
273
86
251
177
30
15
81
364
172
266
120
173
211
183
374
368
143
291
126
363
45
356
47
370
237
149
133
331
99
365
274
236
176
378
72
65
241
316
170
299
212
91
132
192
371
330
25
32
34

>  <PUBCHEM_MMFF94_PARTIAL_CHARGES>  (1) 
10
1 -0.23
18 0.4
19 0.4
2 -0.23
4 -0.68
5 -0.68
6 0.23
7 0.23
8 0.28
9 0.28

>  <PUBCHEM_EFFECTIVE_ROTOR_COUNT>  (1) 
6

>  <PUBCHEM_PHARMACOPHORE_FEATURES>  (1) 
5
1 4 acceptor
1 4 donor
1 5 acceptor
1 5 donor
5 1 2 3 6 7 hydrophobe

>  <PUBCHEM_HEAVY_ATOM_COUNT>  (1) 
9

>  <PUBCHEM_ATOM_DEF_STEREO_COUNT>  (1) 
0

>  <PUBCHEM_ATOM_UDEF_STEREO_COUNT>  (1) 
0

>  <PUBCHEM_BOND_DEF_STEREO_COUNT>  (1) 
0

>  <PUBCHEM_BOND_UDEF_STEREO_COUNT>  (1) 
0

>  <PUBCHEM_ISOTOPIC_ATOM_COUNT>  (1) 
0

>  <PUBCHEM_COMPONENT_COUNT>  (1) 
1

>  <PUBCHEM_CACTVS_TAUTO_COUNT>  (1) 
1

>  <PUBCHEM_CONFORMER_ID>  (1) 
0000500300000008

>  <PUBCHEM_MMFF94_ENERGY>  (1) 
-9.6314

>  <PUBCHEM_FEATURE_SELFOVERLAP>  (1) 
25.371

>  <PUBCHEM_SHAPE_FINGERPRINT>  (1) 
10149128 76 8646503911435813791
14390081 3 8214140754858587053
15310529 11 18409732897522015973
19766037 51 18057072209413598486
20201158 50 18342171150658507511
20211469 16 18339645517057964718
20651381 6 17987524706037921988
20653091 64 18408605864149930408
20711978 1 18411695512982299941
20711983 138 18334579079230504595
20711985 344 18043228203101171549
21028194 46 11819265698222290301
21061003 4 17275098427495693256
23552333 60 18059306468718048504
23552423 10 18337113474596343149
75552 356 18200868453486818382

>  <PUBCHEM_SHAPE_MULTIPOLES>  (1) 
185.03
5.04
1.79
1.08
0.01
0.32
-0.02
-2.33
0.44
0
0.15
0
0.06
0

>  <PUBCHEM_SHAPE_SELFOVERLAP>  (1) 
294.804

>  <PUBCHEM_SHAPE_VOLUME>  (1) 
131.4

>  <PUBCHEM_COORDINATE_TYPE>  (1) 
2
5
10

$$$$
