20499
     RDKit          3D

 14 15  0  0  0  0  0  0  0  0999 V2000
   -0.0978   -1.0238   -0.7024 S   0  0  0  0  0  0  0  0  0  0  0  0
    0.0977    1.0235   -0.7027 S   0  0  0  0  0  0  0  0  0  0  0  0
   -3.0816    0.3500    1.0501 O   0  0  0  0  0  0  0  0  0  0  0  0
    3.0816   -0.3496    1.0502 O   0  0  0  0  0  0  0  0  0  0  0  0
   -2.6530   -0.5719    0.1700 C   0  0  0  0  0  0  0  0  0  0  0  0
    2.6531    0.5720    0.1698 C   0  0  0  0  0  0  0  0  0  0  0  0
   -1.3795   -1.2707    0.5500 C   0  0  0  0  0  0  0  0  0  0  0  0
    1.3796    1.2709    0.5497 C   0  0  0  0  0  0  0  0  0  0  0  0
   -3.4686   -0.6907   -0.9039 C   0  0  0  0  0  0  0  0  0  0  0  0
    3.4686    0.6904   -0.9041 C   0  0  0  0  0  0  0  0  0  0  0  0
   -4.5093    0.2425   -0.6825 C   0  0  0  0  0  0  0  0  0  0  0  0
    4.5093   -0.2426   -0.6825 C   0  0  0  0  0  0  0  0  0  0  0  0
   -4.2281    0.8501    0.5190 C   0  0  0  0  0  0  0  0  0  0  0  0
    4.2282   -0.8499    0.5193 C   0  0  0  0  0  0  0  0  0  0  0  0
  1  2  1  0
  1  7  1  0
  2  8  1  0
  3  5  1  0
  3 13  1  0
  4  6  1  0
  4 14  1  0
  5  7  1  0
  5  9  2  0
  6  8  1  0
  6 10  2  0
  9 11  1  0
 10 12  1  0
 11 13  2  0
 12 14  2  0
M  END
>  <PUBCHEM_COMPOUND_CID>  (1) 
20499

>  <PUBCHEM_CONFORMER_RMSD>  (1) 
0.6

>  <PUBCHEM_CONFORMER_DIVERSEORDER>  (1) 
1
71
97
35
210
8
80
155
94
163
13
22
191
178
120
177
9
154
176
30
187
132
127
21
197
76
31
167
203
112
215
48
67
96
69
122
110
70
15
195
142
77
145
12
164
124
209
116
85
50
149
170
18
55
107
161
118
194
16
162
4
17
44
53
51
151
11
72
39
24
100
25
33
133
200
10
160
36
68
19
61
62
40
115
14
213
52
20
204
172
34
182
190
29
54
183
26
206
175
148
2
28
83
184
90
173
211
84
99
144
43
192
126
134
179
166
165
104
81
98
138
91
202
212
42
74
171
49
185
152
158
181
135
128
146
45
75
147
129
156
60
141
196
93
198
188
150
174
201
114
143
37
101
189
157
64
121
117
86
78
208
159
137
89
169
111
109
207
79
41
92
140
153
5
103
59
125
214
87
88
63
186
46
136
65
130
56
193
32
199
57
23
119
139
113
6
102
58
205
180
3
82
27
108
168
131
38
106
66
7
95
123
73
47
105

>  <PUBCHEM_MMFF94_PARTIAL_CHARGES>  (1) 
20
1 -0.23
10 -0.15
11 -0.15
12 -0.15
13 -0.01
14 -0.01
19 0.15
2 -0.23
20 0.15
21 0.15
22 0.15
23 0.15
24 0.15
3 -0.28
4 -0.28
5 -0.04
6 -0.04
7 0.41
8 0.41
9 -0.15

>  <PUBCHEM_EFFECTIVE_ROTOR_COUNT>  (1) 
5

>  <PUBCHEM_PHARMACOPHORE_FEATURES>  (1) 
5
1 3 acceptor
1 4 acceptor
4 1 2 7 8 hydrophobe
5 3 5 9 11 13 rings
5 4 6 10 12 14 rings

>  <PUBCHEM_HEAVY_ATOM_COUNT>  (1) 
14

>  <PUBCHEM_ATOM_DEF_STEREO_COUNT>  (1) 
0

>  <PUBCHEM_ATOM_UDEF_STEREO_COUNT>  (1) 
0

>  <PUBCHEM_BOND_DEF_STEREO_COUNT>  (1) 
0

>  <PUBCHEM_BOND_UDEF_STEREO_COUNT>  (1) 
0

>  <PUBCHEM_ISOTOPIC_ATOM_COUNT>  (1) 
0

>  <PUBCHEM_COMPONENT_COUNT>  (1) 
1

>  <PUBCHEM_CACTVS_TAUTO_COUNT>  (1) 
1

>  <PUBCHEM_CONFORMER_ID>  (1) 
0000501300000001

>  <PUBCHEM_MMFF94_ENERGY>  (1) 
0.3284

>  <PUBCHEM_FEATURE_SELFOVERLAP>  (1) 
25.371

>  <PUBCHEM_SHAPE_FINGERPRINT>  (1) 
10062212 137 18202278126331161231
11370993 70 15697998530800102302
12346177 29 17774433996740477679
124424 183 18411702101435530817
14004511 7 18131072640708549331
14251731 8 18259983747809873326
14251764 18 18410856585409593354
14251764 38 15697998526489298355
15239154 128 16950285130418502916
15848700 24 17917710197531030148
16752209 62 18263070050699552512
17834072 14 15769776857463953379
17834072 33 16226053348569078003
17834072 8 18410575071783458605
18186145 218 14851600011925058876
18511873 20 18410856589704560680
190213 19 15719108071705805037
19107657 47 18408037425048787841
192875 21 16917351458758569417
19489759 90 16773795874814178835
200 152 13614525142829051047
20645477 70 17676482822522567474
22485316 2 18261109707782934804
23402539 116 15267060329019708177
23402655 69 17385446527256560332
23557571 272 15769783437981591745
23559900 14 17346312739270459984
265663 24 15697998530800088764
328317 168 11023818488022348094
3286 77 17274812610444443065
351380 180 16343981399085666465
522135 26 17967530173265683954
57812782 119 15770061643855167577
6333272 397 11887953267957387340
6430166 295 18412261718510245645
69090 78 14333405657679387692
74978 22 18266741470348181512
9971528 1 17989487420609813112

>  <PUBCHEM_SHAPE_MULTIPOLES>  (1) 
284.07
10.18
1.27
1.08
0
0
0.03
0
0.32
0
-0.03
0
0
-0.42

>  <PUBCHEM_SHAPE_SELFOVERLAP>  (1) 
572.074

>  <PUBCHEM_SHAPE_VOLUME>  (1) 
171

>  <PUBCHEM_COORDINATE_TYPE>  (1) 
2
5
10

$$$$
