20508
     RDKit          3D

  9  9  0  0  0  0  0  0  0  0999 V2000
   -3.8234    0.0397    0.1605 O   0  0  0  0  0  0  0  0  0  0  0  0
   -0.1125   -0.2769   -0.2751 C   0  0  0  0  0  0  0  0  0  0  0  0
    0.3283    1.0966    0.2492 C   0  0  0  0  0  0  0  0  0  0  0  0
    0.8730   -1.3697    0.1599 C   0  0  0  0  0  0  0  0  0  0  0  0
    1.7601    1.4257   -0.1669 C   0  0  0  0  0  0  0  0  0  0  0  0
    2.3040   -1.0365   -0.2558 C   0  0  0  0  0  0  0  0  0  0  0  0
    2.7354    0.3329    0.2596 C   0  0  0  0  0  0  0  0  0  0  0  0
   -1.5270   -0.6064    0.1984 C   0  0  0  0  0  0  0  0  0  0  0  0
   -2.5379    0.3947   -0.3298 C   0  0  0  0  0  0  0  0  0  0  0  0
  1  9  1  0
  2  3  1  0
  2  4  1  0
  2  8  1  0
  3  5  1  0
  4  6  1  0
  5  7  1  0
  6  7  1  0
  8  9  1  0
M  END
>  <PUBCHEM_COMPOUND_CID>  (1) 
20508

>  <PUBCHEM_CONFORMER_RMSD>  (1) 
0.6

>  <PUBCHEM_CONFORMER_DIVERSEORDER>  (1) 
1
12
11
9
8
6
13
2
10
7
3
4
5

>  <PUBCHEM_MMFF94_PARTIAL_CHARGES>  (1) 
3
1 -0.68
25 0.4
9 0.28

>  <PUBCHEM_EFFECTIVE_ROTOR_COUNT>  (1) 
3.2

>  <PUBCHEM_PHARMACOPHORE_FEATURES>  (1) 
3
1 1 acceptor
1 1 donor
6 2 3 4 5 6 7 rings

>  <PUBCHEM_HEAVY_ATOM_COUNT>  (1) 
9

>  <PUBCHEM_ATOM_DEF_STEREO_COUNT>  (1) 
0

>  <PUBCHEM_ATOM_UDEF_STEREO_COUNT>  (1) 
0

>  <PUBCHEM_BOND_DEF_STEREO_COUNT>  (1) 
0

>  <PUBCHEM_BOND_UDEF_STEREO_COUNT>  (1) 
0

>  <PUBCHEM_ISOTOPIC_ATOM_COUNT>  (1) 
0

>  <PUBCHEM_COMPONENT_COUNT>  (1) 
1

>  <PUBCHEM_CACTVS_TAUTO_COUNT>  (1) 
1

>  <PUBCHEM_CONFORMER_ID>  (1) 
0000501C00000001

>  <PUBCHEM_MMFF94_ENERGY>  (1) 
5.2644

>  <PUBCHEM_FEATURE_SELFOVERLAP>  (1) 
15.223

>  <PUBCHEM_SHAPE_FINGERPRINT>  (1) 
10219947 1 18202283576243609783
11062470 55 15770056137854845657
12932764 1 17748819709630307895
14325111 11 18410574028438747221
14390081 3 18411979182766277137
20201158 50 18335701624230065451
20871998 22 17983579602747183070
21040471 1 18122624113767534788
23235685 24 18338229461955789936
23402655 69 18341603803275734357
23552333 60 18342738486037009498
23552423 10 18335138730105840294
29004967 10 18408042905353133226

>  <PUBCHEM_SHAPE_MULTIPOLES>  (1) 
179.35
4.72
1.4
0.66
3.84
0.04
0.01
0.24
-0.06
-0.79
0
-0.03
0
0.09

>  <PUBCHEM_SHAPE_SELFOVERLAP>  (1) 
340.443

>  <PUBCHEM_SHAPE_VOLUME>  (1) 
109.8

>  <PUBCHEM_COORDINATE_TYPE>  (1) 
2
5
10

$$$$
