2050
     RDKit          3D

 20 22  0  0  0  0  0  0  0  0999 V2000
    4.3011   -2.2892   -0.6556 O   0  0  0  0  0  0  0  0  0  0  0  0
    6.0038   -0.2810    0.2340 O   0  0  0  0  0  0  0  0  0  0  0  0
   -0.3023   -0.4430    0.1363 N   0  0  0  0  0  0  0  0  0  0  0  0
   -1.3643    2.0790   -0.3450 N   0  0  0  0  0  0  0  0  0  0  0  0
   -1.6329   -0.2593    0.0764 C   0  0  0  0  0  0  0  0  0  0  0  0
   -3.8812   -1.1718    0.1985 C   0  0  0  0  0  0  0  0  0  0  0  0
   -4.4113    0.0870   -0.0420 C   0  0  0  0  0  0  0  0  0  0  0  0
   -2.1707    1.0178   -0.1674 C   0  0  0  0  0  0  0  0  0  0  0  0
   -2.4984   -1.3358    0.2559 C   0  0  0  0  0  0  0  0  0  0  0  0
   -3.5541    1.1710   -0.2228 C   0  0  0  0  0  0  0  0  0  0  0  0
    0.4871    0.6311   -0.0441 C   0  0  0  0  0  0  0  0  0  0  0  0
    1.9060    0.3933    0.0268 C   0  0  0  0  0  0  0  0  0  0  0  0
   -4.7652   -2.3580    0.3979 C   0  0  0  0  0  0  0  0  0  0  0  0
   -5.8865    0.3047   -0.1112 C   0  0  0  0  0  0  0  0  0  0  0  0
   -0.0364    1.8742   -0.2812 C   0  0  0  0  0  0  0  0  0  0  0  0
    2.4315   -0.8458   -0.3515 C   0  0  0  0  0  0  0  0  0  0  0  0
    2.7669    1.4001    0.4737 C   0  0  0  0  0  0  0  0  0  0  0  0
    3.8056   -1.0760   -0.2834 C   0  0  0  0  0  0  0  0  0  0  0  0
    4.1409    1.1699    0.5418 C   0  0  0  0  0  0  0  0  0  0  0  0
    4.6603   -0.0681    0.1631 C   0  0  0  0  0  0  0  0  0  0  0  0
  1 18  1  0
  2 20  1  0
  3  5  2  0
  3 11  1  0
  4  8  2  0
  4 15  1  0
  5  8  1  0
  5  9  1  0
  6  7  1  0
  6  9  2  0
  6 13  1  0
  7 10  2  0
  7 14  1  0
  8 10  1  0
 11 12  1  0
 11 15  2  0
 12 16  2  0
 12 17  1  0
 16 18  1  0
 17 19  2  0
 18 20  2  0
 19 20  1  0
M  END
>  <PUBCHEM_COMPOUND_CID>  (1) 
2050

>  <PUBCHEM_CONFORMER_RMSD>  (1) 
0.6

>  <PUBCHEM_CONFORMER_DIVERSEORDER>  (1) 
2
1
5
4
3
6

>  <PUBCHEM_MMFF94_PARTIAL_CHARGES>  (1) 
27
1 -0.53
10 -0.15
11 0.31
13 0.14
14 0.14
15 0.16
16 -0.15
17 -0.15
18 0.08
19 -0.15
2 -0.53
20 0.08
21 0.15
22 0.15
29 0.15
3 -0.62
30 0.15
31 0.15
32 0.15
33 0.45
34 0.45
4 -0.62
5 0.31
6 -0.14
7 -0.14
8 0.31
9 -0.15

>  <PUBCHEM_EFFECTIVE_ROTOR_COUNT>  (1) 
1

>  <PUBCHEM_PHARMACOPHORE_FEATURES>  (1) 
7
1 1 donor
1 2 donor
1 3 acceptor
1 4 acceptor
6 12 16 17 18 19 20 rings
6 3 4 5 8 11 15 rings
6 5 6 7 8 9 10 rings

>  <PUBCHEM_HEAVY_ATOM_COUNT>  (1) 
20

>  <PUBCHEM_ATOM_DEF_STEREO_COUNT>  (1) 
0

>  <PUBCHEM_ATOM_UDEF_STEREO_COUNT>  (1) 
0

>  <PUBCHEM_BOND_DEF_STEREO_COUNT>  (1) 
0

>  <PUBCHEM_BOND_UDEF_STEREO_COUNT>  (1) 
0

>  <PUBCHEM_ISOTOPIC_ATOM_COUNT>  (1) 
0

>  <PUBCHEM_COMPONENT_COUNT>  (1) 
1

>  <PUBCHEM_CACTVS_TAUTO_COUNT>  (1) 
15

>  <PUBCHEM_CONFORMER_ID>  (1) 
0000080200000002

>  <PUBCHEM_MMFF94_ENERGY>  (1) 
63.745

>  <PUBCHEM_FEATURE_SELFOVERLAP>  (1) 
35.566

>  <PUBCHEM_SHAPE_FINGERPRINT>  (1) 
10 15 18270386292462391656
10835480 77 18411128164988259389
11315181 36 18413111675237137256
12032990 46 18409451405576237601
12107183 9 17624426276600511162
12236239 1 17022901241882341385
12516196 113 18131067147450886497
13167823 11 18411979169607289522
13288520 33 18408604768780113797
13402501 40 18411984654391543222
13533116 47 17917429795958403562
13544653 18 18342742931154230121
13675066 3 18411416254303523113
14341114 176 18342182158659661096
14386348 63 18411136939399839766
14790565 3 17473827226129238721
14866123 147 17335629605000775152
15196674 1 18409449228027727593
15352361 1 18410012151926476071
15788980 27 17967253117546661289
15961568 22 17604430825144109708
17804303 29 18410857698328596313
17844677 252 18413114973830270057
1813 80 17458063780701782493
19141452 34 18342739645968569903
193927 3 17896050978199926227
200 152 17774999072644447353
20374829 77 18334010601221708379
20645477 70 18202283559417370158
21065198 57 18413670210001068793
21065201 7 18187358809629234272
21267235 1 18335427889201030187
21279426 13 18194117417817133165
221490 88 18335707207666405825
2215653 11 18341326721765451501
2297311 6 18412271622916008900
23402539 116 18408598188858600431
23557571 272 18187361000258175996
23559900 14 18410851075056548312
239999 70 18272093790759541422
26918003 58 18272650151473306409
2871803 45 18334011666489804698
3004659 81 18186521012355866308
335352 9 18408040719953420533
3545911 37 18411699881043089700
4073 2 18260833738643425570
4214541 1 18410573972504257433
5104073 3 18342737390577710928
5283173 99 18188199906255754293
542803 24 13551188875049042221
59755656 215 18261672580226978527
67856867 119 18042691770239081668
7495541 125 18342455971963381032
77779 3 18411982459615359920
9709674 26 18335988665421263691

>  <PUBCHEM_SHAPE_MULTIPOLES>  (1) 
389.89
12.69
2.06
0.69
1.75
0.39
-0.01
4.05
-0.58
-0.49
0.11
0.12
0.02
1

>  <PUBCHEM_SHAPE_SELFOVERLAP>  (1) 
870.036

>  <PUBCHEM_SHAPE_VOLUME>  (1) 
209.2

>  <PUBCHEM_COORDINATE_TYPE>  (1) 
2
5
10

$$$$
