20501
     RDKit          3D

 13 13  0  0  0  0  0  0  0  0999 V2000
    1.7520    2.4338    0.5256 O   0  0  0  0  0  0  0  0  0  0  0  0
    3.2947    0.5936   -0.4690 O   0  0  0  0  0  0  0  0  0  0  0  0
    0.5541   -3.0870    0.2351 O   0  0  0  0  0  0  0  0  0  0  0  0
   -2.7257    1.5916   -0.6340 O   0  0  0  0  0  0  0  0  0  0  0  0
   -3.4448   -0.3847    0.2645 O   0  0  0  0  0  0  0  0  0  0  0  0
   -1.1250    0.0816    0.0375 C   0  0  0  0  0  0  0  0  0  0  0  0
   -0.2431    1.1885    0.3071 C   0  0  0  0  0  0  0  0  0  0  0  0
    1.0936    1.2472    0.2243 C   0  0  0  0  0  0  0  0  0  0  0  0
   -0.8298   -1.2208   -0.0481 C   0  0  0  0  0  0  0  0  0  0  0  0
    1.9971    0.1844   -0.1677 C   0  0  0  0  0  0  0  0  0  0  0  0
    0.4961   -1.8738    0.0315 C   0  0  0  0  0  0  0  0  0  0  0  0
    1.7478   -1.1281   -0.2224 C   0  0  0  0  0  0  0  0  0  0  0  0
   -2.5672    0.3736   -0.0844 C   0  0  0  0  0  0  0  0  0  0  0  0
  1  8  1  0
  2 10  1  0
  3 11  2  0
  4 13  1  0
  5 13  2  0
  6  7  1  0
  6  9  2  0
  6 13  1  0
  7  8  2  0
  8 10  1  0
  9 11  1  0
 10 12  2  0
 11 12  1  0
M  END
>  <PUBCHEM_COMPOUND_CID>  (1) 
20501

>  <PUBCHEM_CONFORMER_RMSD>  (1) 
0.4

>  <PUBCHEM_CONFORMER_DIVERSEORDER>  (1) 
1
4
3
6
2
5

>  <PUBCHEM_MMFF94_PARTIAL_CHARGES>  (1) 
19
1 -0.53
10 0.08
11 0.54
12 -0.14
13 0.71
14 0.15
15 0.15
16 0.15
17 0.45
18 0.45
19 0.5
2 -0.53
3 -0.57
4 -0.65
5 -0.57
6 0.01
7 -0.15
8 0.08
9 -0.14

>  <PUBCHEM_EFFECTIVE_ROTOR_COUNT>  (1) 
1

>  <PUBCHEM_PHARMACOPHORE_FEATURES>  (1) 
7
1 1 donor
1 2 donor
1 3 acceptor
1 4 acceptor
1 5 acceptor
3 4 5 13 anion
7 6 7 8 9 10 11 12 rings

>  <PUBCHEM_HEAVY_ATOM_COUNT>  (1) 
13

>  <PUBCHEM_ATOM_DEF_STEREO_COUNT>  (1) 
0

>  <PUBCHEM_ATOM_UDEF_STEREO_COUNT>  (1) 
0

>  <PUBCHEM_BOND_DEF_STEREO_COUNT>  (1) 
0

>  <PUBCHEM_BOND_UDEF_STEREO_COUNT>  (1) 
0

>  <PUBCHEM_ISOTOPIC_ATOM_COUNT>  (1) 
0

>  <PUBCHEM_COMPONENT_COUNT>  (1) 
1

>  <PUBCHEM_CACTVS_TAUTO_COUNT>  (1) 
11

>  <PUBCHEM_CONFORMER_ID>  (1) 
0000501500000001

>  <PUBCHEM_MMFF94_ENERGY>  (1) 
43.1194

>  <PUBCHEM_FEATURE_SELFOVERLAP>  (1) 
35.586

>  <PUBCHEM_SHAPE_FINGERPRINT>  (1) 
1 1 18410853265531839935
11471102 20 18339641140496820141
12654215 9 18192141607863777253
13380535 76 18126559265714657008
13380536 305 18412267271781711568
15279308 132 18339643451057304728
15490181 7 18339349876978392519
15775835 57 18412269449461791709
16945 1 18412820266106247337
17775402 16 18267866086144491092
17990270 104 18265049124696054451
19021347 11 18410011009549844171
193761 8 17763183944151874688
20201158 50 18263923229025994343
20511035 2 17984140645792698996
20645476 183 17896619430148865622
20645477 70 18270677559531974743
21040471 1 18266176325882814744
21501502 16 18264485084121418837
2334 1 18051972824738990081
23402655 69 18268978797024679549
23419403 2 16533634862881111168
23552423 10 18192999205627352415
241688 4 17185031666181591570
25 1 18336548209597325597
2748010 2 18123474048729263902
5084963 1 18130790113322478377
528886 8 18411697703246556080
53812653 166 18341894129805352528
63268167 104 18341899541179217881
7364860 26 18267864978000906055
81228 2 17473820005776998339

>  <PUBCHEM_SHAPE_MULTIPOLES>  (1) 
238.19
4.13
2.53
0.66
1.81
0.99
-0.01
-1.26
-0.48
-0.97
0.3
0
-0.08
0.27

>  <PUBCHEM_SHAPE_SELFOVERLAP>  (1) 
503.12

>  <PUBCHEM_SHAPE_VOLUME>  (1) 
130.3

>  <PUBCHEM_COORDINATE_TYPE>  (1) 
2
5
10

$$$$
