20515
     RDKit          3D

 13 13  0  0  0  0  0  0  0  0999 V2000
   -3.1364    2.3815   -0.1399 Cl  0  0  0  0  0  0  0  0  0  0  0  0
   -1.6457   -2.2985    0.0978 O   0  0  0  0  0  0  0  0  0  0  0  0
    1.6171    1.0265    0.0865 N   0  0  0  0  0  0  0  0  0  0  0  0
    0.0040   -0.6758    0.0955 N   0  0  0  0  0  0  0  0  0  0  0  0
   -0.6461    1.6312   -0.0192 N   0  0  0  0  0  0  0  0  0  0  0  0
   -2.3200   -0.0880   -0.0111 N   0  0  0  0  0  0  0  0  0  0  0  0
    2.7141    0.0862    0.1655 C   0  0  0  0  0  0  0  0  0  0  0  0
    3.9491    0.7994    0.6997 C   0  0  0  0  0  0  0  0  0  0  0  0
    2.9710   -0.5125   -1.2113 C   0  0  0  0  0  0  0  0  0  0  0  0
    0.2859    0.6496    0.0532 C   0  0  0  0  0  0  0  0  0  0  0  0
   -1.3066   -0.9660    0.0598 C   0  0  0  0  0  0  0  0  0  0  0  0
   -1.9145    1.1916   -0.0473 C   0  0  0  0  0  0  0  0  0  0  0  0
   -0.5719   -3.2252    0.1708 C   0  0  0  0  0  0  0  0  0  0  0  0
  1 12  1  0
  2 11  1  0
  2 13  1  0
  3  7  1  0
  3 10  1  0
  4 10  2  0
  4 11  1  0
  5 10  1  0
  5 12  2  0
  6 11  2  0
  6 12  1  0
  7  8  1  0
  7  9  1  0
M  END
>  <PUBCHEM_COMPOUND_CID>  (1) 
20515

>  <PUBCHEM_CONFORMER_RMSD>  (1) 
0.6

>  <PUBCHEM_CONFORMER_DIVERSEORDER>  (1) 
1
12
15
11
10
8
9
14
5
13
16
4
6
3
2
7

>  <PUBCHEM_MMFF94_PARTIAL_CHARGES>  (1) 
12
1 -0.18
10 0.72
11 0.7
12 0.8
13 0.28
15 0.4
2 -0.36
3 -0.87
4 -0.62
5 -0.62
6 -0.62
7 0.37

>  <PUBCHEM_EFFECTIVE_ROTOR_COUNT>  (1) 
3

>  <PUBCHEM_PHARMACOPHORE_FEATURES>  (1) 
4
1 3 donor
3 7 8 9 hydrophobe
4 3 4 5 10 cation
6 4 5 6 10 11 12 rings

>  <PUBCHEM_HEAVY_ATOM_COUNT>  (1) 
13

>  <PUBCHEM_ATOM_DEF_STEREO_COUNT>  (1) 
0

>  <PUBCHEM_ATOM_UDEF_STEREO_COUNT>  (1) 
0

>  <PUBCHEM_BOND_DEF_STEREO_COUNT>  (1) 
0

>  <PUBCHEM_BOND_UDEF_STEREO_COUNT>  (1) 
0

>  <PUBCHEM_ISOTOPIC_ATOM_COUNT>  (1) 
0

>  <PUBCHEM_COMPONENT_COUNT>  (1) 
1

>  <PUBCHEM_CACTVS_TAUTO_COUNT>  (1) 
4

>  <PUBCHEM_CONFORMER_ID>  (1) 
0000502300000001

>  <PUBCHEM_MMFF94_ENERGY>  (1) 
31.8061

>  <PUBCHEM_FEATURE_SELFOVERLAP>  (1) 
20.297

>  <PUBCHEM_SHAPE_FINGERPRINT>  (1) 
1 1 18048876290894690791
10608611 8 18343578577498698560
12500047 106 18411134719482119924
12532896 13 18339638949678266949
12716758 59 18412268319880208854
13380535 76 18341607071059868663
14325111 11 18339641144396414840
15669948 3 18334857268420083394
16945 1 18337394936508400965
18186145 218 18200035010535406804
20279233 1 18202283593834948572
20510252 161 18343866614963742321
20524608 308 18411981381615517842
20645476 183 18041578961165281454
20645477 56 18410857659378809920
20671657 1 17836362649345195299
20711985 365 18264768938024675853
20871998 184 18128539451643725054
23402539 116 18269540780240700311
23526113 38 17846491509178944184
23552423 10 17971192779346464404
23557571 272 18271252728556810396
23559900 14 18270966748649484126
257057 1 17619056669911772119
2748010 2 18265627489255316175
3071541 12 17619065028118583721
3071541 37 17975136435824776413
43471831 8 18263362499739684723
6333449 129 18411695499986595720
7364860 26 17691120435907160823
81228 2 18265334091449333443
81539 233 17898571969441851629
88987 49 18336272314220904652

>  <PUBCHEM_SHAPE_MULTIPOLES>  (1) 
243.61
5.38
2.87
0.76
3.47
2.58
0.13
-3.29
0.03
-2.23
-0.21
0.53
-0.01
0.51

>  <PUBCHEM_SHAPE_SELFOVERLAP>  (1) 
479.213

>  <PUBCHEM_SHAPE_VOLUME>  (1) 
146.7

>  <PUBCHEM_COORDINATE_TYPE>  (1) 
2
5
10

$$$$
