2051
     RDKit          3D

 22 24  0  0  0  0  0  0  0  0999 V2000
    5.3867   -0.6973    2.1740 Cl  0  0  0  0  0  0  0  0  0  0  0  0
   -3.3174    2.3387    0.0317 O   0  0  0  0  0  0  0  0  0  0  0  0
   -4.9614    0.1517    0.5175 O   0  0  0  0  0  0  0  0  0  0  0  0
    1.3024    0.3786   -0.7394 N   0  0  0  0  0  0  0  0  0  0  0  0
   -1.2533   -2.7917    0.0003 N   0  0  0  0  0  0  0  0  0  0  0  0
    0.9428   -1.9340   -0.4978 N   0  0  0  0  0  0  0  0  0  0  0  0
   -0.9295   -0.4272   -0.2383 C   0  0  0  0  0  0  0  0  0  0  0  0
   -1.7487   -1.5416    0.0061 C   0  0  0  0  0  0  0  0  0  0  0  0
    0.4142   -0.6958   -0.4845 C   0  0  0  0  0  0  0  0  0  0  0  0
   -1.4585    0.8751   -0.2297 C   0  0  0  0  0  0  0  0  0  0  0  0
   -2.8120    1.0748    0.0235 C   0  0  0  0  0  0  0  0  0  0  0  0
   -3.0995   -1.3127    0.2567 C   0  0  0  0  0  0  0  0  0  0  0  0
   -3.6332   -0.0205    0.2670 C   0  0  0  0  0  0  0  0  0  0  0  0
    2.6738    0.5521   -0.4948 C   0  0  0  0  0  0  0  0  0  0  0  0
    0.0651   -2.9200   -0.2516 C   0  0  0  0  0  0  0  0  0  0  0  0
    3.2812   -0.0838    0.5923 C   0  0  0  0  0  0  0  0  0  0  0  0
    3.4424    1.3615   -1.3370 C   0  0  0  0  0  0  0  0  0  0  0  0
    4.6439    0.0878    0.8348 C   0  0  0  0  0  0  0  0  0  0  0  0
    4.8053    1.5332   -1.0944 C   0  0  0  0  0  0  0  0  0  0  0  0
    5.4060    0.8964   -0.0085 C   0  0  0  0  0  0  0  0  0  0  0  0
   -3.3111    3.0323    1.2785 C   0  0  0  0  0  0  0  0  0  0  0  0
   -5.8392    0.1421   -0.6064 C   0  0  0  0  0  0  0  0  0  0  0  0
  1 18  1  0
  2 11  1  0
  2 21  1  0
  3 13  1  0
  3 22  1  0
  4  9  1  0
  4 14  1  0
  5  8  2  0
  5 15  1  0
  6  9  1  0
  6 15  2  0
  7  8  1  0
  7  9  2  0
  7 10  1  0
  8 12  1  0
 10 11  2  0
 11 13  1  0
 12 13  2  0
 14 16  2  0
 14 17  1  0
 16 18  1  0
 17 19  2  0
 18 20  2  0
 19 20  1  0
M  END
>  <PUBCHEM_COMPOUND_CID>  (1) 
2051

>  <PUBCHEM_CONFORMER_RMSD>  (1) 
0.6

>  <PUBCHEM_CONFORMER_DIVERSEORDER>  (1) 
2
57
35
23
14
42
27
47
38
19
10
58
9
36
41
33
32
48
15
24
46
53
4
45
37
39
16
43
13
44
55
20
1
54
40
25
3
34
56
12
17
18
31
29
51
50
8
5
52
22
30
49
21
26
28
11
7
6

>  <PUBCHEM_MMFF94_PARTIAL_CHARGES>  (1) 
29
1 -0.18
10 -0.15
11 0.08
12 -0.15
13 0.08
14 0.1
15 0.47
16 -0.15
17 -0.15
18 0.18
19 -0.15
2 -0.36
20 -0.15
21 0.28
22 0.28
23 0.15
24 0.15
25 0.4
26 0.15
27 0.15
28 0.15
29 0.15
3 -0.36
30 0.15
4 -0.6
5 -0.62
6 -0.62
8 0.31
9 0.41

>  <PUBCHEM_EFFECTIVE_ROTOR_COUNT>  (1) 
4

>  <PUBCHEM_PHARMACOPHORE_FEATURES>  (1) 
8
1 2 acceptor
1 3 acceptor
1 4 donor
3 4 6 9 cation
3 5 6 15 cation
6 14 16 17 18 19 20 rings
6 5 6 7 8 9 15 rings
6 7 8 10 11 12 13 rings

>  <PUBCHEM_HEAVY_ATOM_COUNT>  (1) 
22

>  <PUBCHEM_ATOM_DEF_STEREO_COUNT>  (1) 
0

>  <PUBCHEM_ATOM_UDEF_STEREO_COUNT>  (1) 
0

>  <PUBCHEM_BOND_DEF_STEREO_COUNT>  (1) 
0

>  <PUBCHEM_BOND_UDEF_STEREO_COUNT>  (1) 
0

>  <PUBCHEM_ISOTOPIC_ATOM_COUNT>  (1) 
0

>  <PUBCHEM_COMPONENT_COUNT>  (1) 
1

>  <PUBCHEM_CACTVS_TAUTO_COUNT>  (1) 
3

>  <PUBCHEM_CONFORMER_ID>  (1) 
0000080300000002

>  <PUBCHEM_MMFF94_ENERGY>  (1) 
98.5242

>  <PUBCHEM_FEATURE_SELFOVERLAP>  (1) 
40.772

>  <PUBCHEM_SHAPE_FINGERPRINT>  (1) 
10411042 1 17547295961368065975
10670039 82 18339095799983614324
10692045 39 18058159524041622690
11552529 35 17388269098001397314
11725454 13 17203313521163457594
12107183 9 17899687965169901960
12236239 1 17894909658906517704
12390115 104 18129400232020537633
12403260 363 18411975888468540293
12596602 18 17530965825460647753
12788726 201 17901956562479998826
13140716 1 18123479533988031083
13533116 47 17312816074596279008
13914758 101 16950832614838444837
14420673 8 18190458265101899850
14466204 15 18341889650260445376
14767858 380 18341882022946614967
15042514 8 18193564582559770403
15256400 18 18338516331538115926
173720 79 18408314493093816135
17818456 19 18409448073050835592
1813 80 16588306030464015374
21033648 29 17275383201329261544
21065198 48 18113898299442838848
212916 134 18272641351454666562
23366157 5 18044384820239841327
23402539 116 18340762745383626207
23559900 14 18200890547305056798
23569917 315 18410012139369986071
314173 85 12107786293814411390
341906 21 18273213106228337648
469060 322 18198927897348319889
474229 33 18410857681164571047
495365 180 17346882230876090382
5104073 3 18193285096437073171
5486654 2 18342460365878253711
56633871 153 17972574642831999962
6371009 1 18411130342584066909
7064713 232 18410570652721442928
7097593 13 18114169853266953754
9981440 41 18409170978856715811

>  <PUBCHEM_SHAPE_MULTIPOLES>  (1) 
427.94
12.41
2.67
1.21
4.41
0.4
-0.42
-4.89
-2.46
-1.97
-0.21
1.63
-0.27
-1.78

>  <PUBCHEM_SHAPE_SELFOVERLAP>  (1) 
924.992

>  <PUBCHEM_SHAPE_VOLUME>  (1) 
236.7

>  <PUBCHEM_COORDINATE_TYPE>  (1) 
2
5
10

$$$$
