20518
     RDKit          3D

 30 35  0  0  1  0  0  0  0  0999 V2000
    2.8343   -0.0788    0.8393 O   0  0  0  0  0  0  0  0  0  0  0  0
   -7.0948   -0.3035   -1.0963 O   0  0  0  0  0  0  0  0  0  0  0  0
    5.8514   -0.0787   -1.1787 N   0  0  0  0  0  0  0  0  0  0  0  0
   -2.5806    0.0270   -0.3820 C   0  0  0  0  0  0  0  0  0  0  0  0
   -1.9665   -0.8836    0.6877 C   0  0  0  0  0  0  0  0  0  0  0  0
   -0.6745   -1.3354    0.0108 C   0  0  0  0  0  0  0  0  0  0  0  0
   -3.8575    0.7585    0.1281 C   0  0  0  0  0  0  0  0  0  0  0  0
    2.2236   -0.7103   -0.3371 C   0  0  0  0  0  0  0  0  0  0  0  0
   -0.1976   -0.0540   -0.6332 C   0  0  0  0  0  0  0  0  0  0  0  0
   -1.3868    0.8565   -0.8774 C   0  0  0  0  0  0  0  0  0  0  0  0
    0.3671   -1.9300    0.9437 C   0  0  0  0  0  0  0  0  0  0  0  0
    3.3934   -0.8687   -1.3906 C   0  0  0  0  0  0  0  0  0  0  0  0
    1.6710   -2.0752    0.1596 C   0  0  0  0  0  0  0  0  0  0  0  0
    1.1069    0.2598   -0.7866 C   0  0  0  0  0  0  0  0  0  0  0  0
   -2.9408   -1.9959    1.0582 C   0  0  0  0  0  0  0  0  0  0  0  0
    4.4495    0.0835   -0.8203 C   0  0  0  0  0  0  0  0  0  0  0  0
   -4.7689   -0.2578    0.8383 C   0  0  0  0  0  0  0  0  0  0  0  0
    4.2494   -0.1125    0.6663 C   0  0  0  0  0  0  0  0  0  0  0  0
   -4.5900    1.3516   -1.1060 C   0  0  0  0  0  0  0  0  0  0  0  0
   -4.3425   -1.4771    1.2285 C   0  0  0  0  0  0  0  0  0  0  0  0
   -3.5212    1.8920    1.1237 C   0  0  0  0  0  0  0  0  0  0  0  0
   -6.2027    0.1655    1.0843 C   0  0  0  0  0  0  0  0  0  0  0  0
   -6.0083    1.8437   -0.8065 C   0  0  0  0  0  0  0  0  0  0  0  0
    4.9936    0.9583    1.4450 C   0  0  0  0  0  0  0  0  0  0  0  0
   -6.8620    0.7513   -0.1641 C   0  0  0  0  0  0  0  0  0  0  0  0
    3.9379   -2.2912   -1.5862 C   0  0  0  0  0  0  0  0  0  0  0  0
    1.5208    1.6115   -1.3152 C   0  0  0  0  0  0  0  0  0  0  0  0
    6.4807    0.9077    1.0481 C   0  0  0  0  0  0  0  0  0  0  0  0
    6.6617    0.9372   -0.4871 C   0  0  0  0  0  0  0  0  0  0  0  0
    7.2533    2.0485    1.7058 C   0  0  0  0  0  0  0  0  0  0  0  0
  1  8  1  0
  1 18  1  0
  2 25  1  0
  3 16  1  0
  3 29  1  0
  4  5  1  0
  4  7  1  0
  4 10  1  0
  5  6  1  0
  5 15  1  0
  6  9  1  0
  6 11  1  0
  7 17  1  0
  7 19  1  0
  7 21  1  0
  8 12  1  0
  8 13  1  0
  8 14  1  0
  9 10  1  0
  9 14  2  0
 11 13  1  0
 12 16  1  0
 12 26  1  0
 14 27  1  0
 15 20  1  0
 16 18  1  0
 17 20  2  0
 17 22  1  0
 18 24  1  0
 19 23  1  0
 22 25  1  0
 23 25  1  0
 24 28  1  0
 28 29  1  0
 28 30  1  0
M  END
>  <PUBCHEM_COMPOUND_CID>  (1) 
20518

>  <PUBCHEM_CONFORMER_RMSD>  (1) 
0.8

>  <PUBCHEM_CONFORMER_DIVERSEORDER>  (1) 
2
4
3
1

>  <PUBCHEM_MMFF94_PARTIAL_CHARGES>  (1) 
21
1 -0.56
10 0.14
14 -0.28
15 0.14
16 0.27
17 -0.28
18 0.28
2 -0.68
20 -0.29
22 0.14
25 0.28
27 0.14
29 0.27
3 -0.9
47 0.15
6 0.14
64 0.36
7 0.14
71 0.4
8 0.42
9 -0.28

>  <PUBCHEM_EFFECTIVE_ROTOR_COUNT>  (1) 
2.8

>  <PUBCHEM_PHARMACOPHORE_FEATURES>  (1) 
11
1 1 acceptor
1 2 acceptor
1 2 donor
1 3 cation
1 3 donor
5 1 8 12 16 18 rings
5 4 5 6 9 10 rings
6 3 16 18 24 28 29 rings
6 4 5 7 15 17 20 rings
6 6 8 9 11 13 14 rings
6 7 17 19 22 23 25 rings

>  <PUBCHEM_HEAVY_ATOM_COUNT>  (1) 
30

>  <PUBCHEM_ATOM_DEF_STEREO_COUNT>  (1) 
7

>  <PUBCHEM_ATOM_UDEF_STEREO_COUNT>  (1) 
3

>  <PUBCHEM_BOND_DEF_STEREO_COUNT>  (1) 
0

>  <PUBCHEM_BOND_UDEF_STEREO_COUNT>  (1) 
0

>  <PUBCHEM_ISOTOPIC_ATOM_COUNT>  (1) 
0

>  <PUBCHEM_COMPONENT_COUNT>  (1) 
1

>  <PUBCHEM_CACTVS_TAUTO_COUNT>  (1) 
1

>  <PUBCHEM_CONFORMER_ID>  (1) 
0000502600000002

>  <PUBCHEM_MMFF94_ENERGY>  (1) 
76.9001

>  <PUBCHEM_FEATURE_SELFOVERLAP>  (1) 
56.07

>  <PUBCHEM_SHAPE_FINGERPRINT>  (1) 
10 15 17748831834148982716
10816530 90 18041012773566434796
11181472 205 16628853773176003233
11646440 116 18411991264277640337
11719270 70 17894911810907192490
11991303 11 15410602718408263309
12166972 35 14764623127366744283
12236239 1 17988363672607842245
12516196 113 18411700976354981805
12616971 3 15357700803095823978
12730499 353 18130794447562054926
12838862 33 18040704871618709445
13533116 47 18059581217686582254
13560911 43 17530973505527531893
14251764 18 16805324413600592787
14341114 328 17022904566661788986
14466204 15 17967251992054389029
15142383 8 15285349609319651710
15183329 4 17603869992376591917
15238133 3 17313110747970729038
15461852 350 18271805774078036791
17980427 23 17822010964575896814
18335252 98 17775283898313172079
19377110 9 16298107592505953132
20105231 36 11023827310197041061
20511986 3 18041267791048592635
20554085 129 18335127692024078979
21033648 29 18411420622121804570
21033650 10 12606863464973596835
21130935 74 18262238824773991187
21150785 3 16558747931702771381
21792934 111 17968649415567055380
22149856 69 18116173094791249113
22224240 67 18335696165621875506
23081809 10 15051741867266860270
23198884 109 15410896271117079417
23516275 100 18058999705428834504
23522609 53 14476422463836229378
23559900 14 18334298699581639613
24771293 8 18409445907707440964
2838139 119 17060337440230091264
3004659 81 17313116241265458774
3383291 50 18114753719901368771
34797466 226 16988849371513550740
350125 39 17967538999223297005
4073 2 18059855107877674918
4093350 32 17916874517090990191
4098825 35 15984834683479887497
4258327 124 17059770164759526452
4325135 7 14189577438360501673
4340502 62 18408885127429525798
44249763 50 18342729762673932214
5104073 3 18188495670335016299
59755656 215 18261116235896140527
7226269 152 18334013882956868577

>  <PUBCHEM_SHAPE_MULTIPOLES>  (1) 
600.67
19.15
2.1
1.54
2.13
0.4
-0.06
-8.97
-2.58
0.33
-0.2
1.07
-0.13
2.51

>  <PUBCHEM_SHAPE_SELFOVERLAP>  (1) 
1297.853

>  <PUBCHEM_SHAPE_VOLUME>  (1) 
327.9

>  <PUBCHEM_COORDINATE_TYPE>  (1) 
2
5
10

$$$$
