20519
     RDKit          3D

 21 22  0  0  0  0  0  0  0  0999 V2000
   -1.9720    1.7602   -0.0007 S   0  0  0  0  0  0  0  0  0  0  0  0
   -0.4729    1.0963   -0.0008 O   0  0  0  0  0  0  0  0  0  0  0  0
   -2.1704    2.4542   -1.2644 O   0  0  0  0  0  0  0  0  0  0  0  0
   -2.1367    2.4603    1.2659 O   0  0  0  0  0  0  0  0  0  0  0  0
    5.8774   -1.6151   -1.0978 O   0  0  0  0  0  0  0  0  0  0  0  0
    5.8777   -1.6144    1.0975 O   0  0  0  0  0  0  0  0  0  0  0  0
    5.3750   -1.2723   -0.0002 N   0  0  0  0  0  0  0  0  0  0  0  0
   -3.0635    0.3977   -0.0005 C   0  0  0  0  0  0  0  0  0  0  0  0
    0.6668    1.9424   -0.0011 C   0  0  0  0  0  0  0  0  0  0  0  0
    1.9055    1.0957   -0.0010 C   0  0  0  0  0  0  0  0  0  0  0  0
   -3.4990   -0.1462    1.2080 C   0  0  0  0  0  0  0  0  0  0  0  0
   -3.4999   -0.1475   -1.2080 C   0  0  0  0  0  0  0  0  0  0  0  0
   -4.8072   -1.7801    0.0016 C   0  0  0  0  0  0  0  0  0  0  0  0
   -4.3707   -1.2351    1.2091 C   0  0  0  0  0  0  0  0  0  0  0  0
   -4.3718   -1.2364   -1.2069 C   0  0  0  0  0  0  0  0  0  0  0  0
    2.4737    0.7070   -1.2088 C   0  0  0  0  0  0  0  0  0  0  0  0
    2.4741    0.7081    1.2072 C   0  0  0  0  0  0  0  0  0  0  0  0
    4.2019   -0.4724   -0.0004 C   0  0  0  0  0  0  0  0  0  0  0  0
    3.6256   -0.0798   -1.2085 C   0  0  0  0  0  0  0  0  0  0  0  0
    3.6260   -0.0785    1.2075 C   0  0  0  0  0  0  0  0  0  0  0  0
   -5.7397   -2.9441    0.0024 C   0  0  0  0  0  0  0  0  0  0  0  0
  1  2  1  0
  1  3  2  0
  1  4  2  0
  1  8  1  0
  2  9  1  0
  5  7  1  0
  6  7  2  0
  7 18  1  0
  8 11  2  0
  8 12  1  0
  9 10  1  0
 10 16  2  0
 10 17  1  0
 11 14  1  0
 12 15  2  0
 13 14  2  0
 13 15  1  0
 13 21  1  0
 16 19  1  0
 17 20  2  0
 18 19  2  0
 18 20  1  0
M  CHG  2   5  -1   7   1
M  END
>  <PUBCHEM_COMPOUND_CID>  (1) 
20519

>  <PUBCHEM_CONFORMER_RMSD>  (1) 
0.8

>  <PUBCHEM_CONFORMER_DIVERSEORDER>  (1) 
1
4
5
3
2

>  <PUBCHEM_MMFF94_PARTIAL_CHARGES>  (1) 
29
1 1.49
10 -0.14
11 -0.15
12 -0.15
13 -0.14
14 -0.15
15 -0.15
16 -0.15
17 -0.15
18 0.13
19 -0.15
2 -0.46
20 -0.15
21 0.14
24 0.15
25 0.15
26 0.15
27 0.15
28 0.15
29 0.15
3 -0.65
30 0.15
31 0.15
4 -0.65
5 -0.52
6 -0.52
7 0.91
8 -0.01
9 0.42

>  <PUBCHEM_EFFECTIVE_ROTOR_COUNT>  (1) 
5

>  <PUBCHEM_PHARMACOPHORE_FEATURES>  (1) 
7
1 3 acceptor
1 4 acceptor
1 5 acceptor
1 5 anion
1 6 acceptor
6 10 16 17 18 19 20 rings
6 8 11 12 13 14 15 rings

>  <PUBCHEM_HEAVY_ATOM_COUNT>  (1) 
21

>  <PUBCHEM_ATOM_DEF_STEREO_COUNT>  (1) 
0

>  <PUBCHEM_ATOM_UDEF_STEREO_COUNT>  (1) 
0

>  <PUBCHEM_BOND_DEF_STEREO_COUNT>  (1) 
0

>  <PUBCHEM_BOND_UDEF_STEREO_COUNT>  (1) 
0

>  <PUBCHEM_ISOTOPIC_ATOM_COUNT>  (1) 
0

>  <PUBCHEM_COMPONENT_COUNT>  (1) 
1

>  <PUBCHEM_CACTVS_TAUTO_COUNT>  (1) 
1

>  <PUBCHEM_CONFORMER_ID>  (1) 
0000502700000001

>  <PUBCHEM_MMFF94_ENERGY>  (1) 
45.1834

>  <PUBCHEM_FEATURE_SELFOVERLAP>  (1) 
35.621

>  <PUBCHEM_SHAPE_FINGERPRINT>  (1) 
10498660 4 11097850787452611023
10968037 57 18411983594072178139
11046707 91 18336263457660976692
11545043 162 18201995483096888056
11796584 16 18122905331373359278
11809386 21 18187357684405740627
12363563 72 18337394932635790573
12403259 118 12607403334342085259
12633257 1 15841269362944870503
12760667 363 18342173376142319015
12892183 10 15266798671169709901
12916754 54 18335139808232841589
13103583 49 17346611758877208523
13583140 156 16056879096352841953
14123255 352 9223228537881842724
14178342 30 18059023760943493773
1420 369 18340486759227341859
14251751 18 18272089383558547690
14251764 30 18340771558757120803
14341114 328 14764066826048959811
14848178 5 18409442604892887975
14848178 96 7853582300476611142
14950920 106 16415476086252072163
15188451 53 18342729719697722995
15342168 16 9078574598315496433
15880784 105 18202285831064387539
17780758 139 17704075053619868513
17834072 32 9871752394687418403
17870717 6 17530678827836605687
1813 80 18338527459935816165
193927 3 18410014350923429304
20281389 69 9439398030383110894
20403669 9 18340772628040245831
20621476 21 18201169737169775006
20645477 56 11458434509449546797
21054139 6 17967531247424610082
21401589 2 10519992586573307005
22393880 68 17458614610252212820
23559900 14 18188198901201751685
25122255 55 18341336578721138294
270888 7 9222966863111068167
2748736 6 9727092910134423587
2838139 119 11025798725691555006
3004659 81 17822285820944375167
312423 11 18337118937663180124
312425 83 14491291060762558827
341906 21 8790598165841114892
3472631 163 8574714593908571235
351380 3 18409731789610338035
4028521 119 11746927698976235933
44062 13 18261668199724184349
46194498 28 13769083522547431526
465052 167 18339931540336632775
484985 159 18412262805848965607
5104073 3 18060422434318199761
559249 180 18411417281417930725
56633871 153 18059294391740030743
59682541 52 14563072728868606594
59755656 520 18052814750695527509
7062679 13 18408601474208128778
7495541 125 18273211998348379744
76465 3 18410012165017255657
7808743 9 9655574106283058447
7970288 3 18410856611491464979
960060 61 15936402347390743946

>  <PUBCHEM_SHAPE_MULTIPOLES>  (1) 
401.69
14.47
2.59
1.4
6.42
0.14
0
-13.81
0
-2.07
0
0.09
0.04
0.01

>  <PUBCHEM_SHAPE_SELFOVERLAP>  (1) 
841.916

>  <PUBCHEM_SHAPE_VOLUME>  (1) 
228.4

>  <PUBCHEM_COORDINATE_TYPE>  (1) 
2
5
10

$$$$
