20517
     RDKit          2D

 28 32  0  0  0  0  0  0  0  0999 V2000
    0.0000    0.0000    0.0000 O   0  0  0  0  0  0  0  0  0  0  0  0
    0.0000    0.0000    0.0000 O   0  0  0  0  0  0  0  0  0  0  0  0
    0.0000    0.0000    0.0000 O   0  0  0  0  0  0  0  0  0  0  0  0
    0.0000    0.0000    0.0000 N   0  0  0  0  0  0  0  0  0  0  0  0
    0.0000    0.0000    0.0000 N   0  0  0  0  0  0  0  0  0  0  0  0
    0.0000    0.0000    0.0000 N   0  0  0  0  0  0  0  0  0  0  0  0
    0.0000    0.0000    0.0000 C   0  0  0  0  0  0  0  0  0  0  0  0
    0.0000    0.0000    0.0000 C   0  0  0  0  0  0  0  0  0  0  0  0
    0.0000    0.0000    0.0000 C   0  0  0  0  0  0  0  0  0  0  0  0
    0.0000    0.0000    0.0000 C   0  0  0  0  0  0  0  0  0  0  0  0
    0.0000    0.0000    0.0000 C   0  0  0  0  0  0  0  0  0  0  0  0
    0.0000    0.0000    0.0000 C   0  0  0  0  0  0  0  0  0  0  0  0
    0.0000    0.0000    0.0000 C   0  0  0  0  0  0  0  0  0  0  0  0
    0.0000    0.0000    0.0000 C   0  0  0  0  0  0  0  0  0  0  0  0
    0.0000    0.0000    0.0000 C   0  0  0  0  0  0  0  0  0  0  0  0
    0.0000    0.0000    0.0000 C   0  0  0  0  0  0  0  0  0  0  0  0
    0.0000    0.0000    0.0000 C   0  0  0  0  0  0  0  0  0  0  0  0
    0.0000    0.0000    0.0000 C   0  0  0  0  0  0  0  0  0  0  0  0
    0.0000    0.0000    0.0000 C   0  0  0  0  0  0  0  0  0  0  0  0
    0.0000    0.0000    0.0000 C   0  0  0  0  0  0  0  0  0  0  0  0
    0.0000    0.0000    0.0000 C   0  0  0  0  0  0  0  0  0  0  0  0
    0.0000    0.0000    0.0000 C   0  0  0  0  0  0  0  0  0  0  0  0
    0.0000    0.0000    0.0000 C   0  0  0  0  0  0  0  0  0  0  0  0
    0.0000    0.0000    0.0000 C   0  0  0  0  0  0  0  0  0  0  0  0
    0.0000    0.0000    0.0000 C   0  0  0  0  0  0  0  0  0  0  0  0
    0.0000    0.0000    0.0000 C   0  0  0  0  0  0  0  0  0  0  0  0
    0.0000    0.0000    0.0000 C   0  0  0  0  0  0  0  0  0  0  0  0
    0.0000    0.0000    0.0000 C   0  0  0  0  0  0  0  0  0  0  0  0
  1 22  1  0
  1 27  1  0
  2 18  1  0
  2 28  1  0
  3 23  1  0
  3 27  1  0
  4  7  1  0
  4  8  1  0
  4 11  1  0
  5  9  1  0
  5 10  1  0
  5 14  1  0
  6 16  1  0
  6 17  1  0
  7  9  1  0
  8 10  1  0
 11 12  1  0
 12 13  1  0
 13 15  1  0
 13 17  2  0
 14 18  2  0
 14 20  1  0
 15 16  2  0
 15 19  1  0
 16 21  1  0
 18 24  1  0
 19 22  2  0
 20 25  2  0
 21 23  2  0
 22 23  1  0
 24 26  2  0
 25 26  1  0
M  END
>  <PUBCHEM_COMPOUND_CID>  (1) 
20517

>  <PUBCHEM_CONFORMER_RMSD>  (1) 
0.8

>  <PUBCHEM_CONFORMER_DIVERSEORDER>  (1) 
12
52
203
147
213
111
109
134
133
82
235
106
229
187
95
214
137
107
70
77
162
81
146
69
34
236
71
132
49
200
36
218
101
96
129
208
149
185
226
228
211
212
136
67
80
87
223
233
64
42
54
155
225
143
191
196
44
209
112
98
204
135
51
108
198
94
144
131
186
221
150
232
215
102
41
29
140
142
168
128
216
124
113
79
122
30
78
88
24
35
120
201
172
125
104
157
119
210
220
84
177
89
206
173
83
61
93
151
127
153
7
161
63
199
207
25
192
5
19
59
154
28
39
16
17
38
50
202
11
97
115
117
156
86
222
20
13
99
55
166
43
190
85
227
178
6
114
26
141
188
73
18
66
15
37
139
171
165
163
194
8
21
60
48
217
90
65
2
170
74
31
9
116
100
164
121
176
4
158
40
195
32
123
62
159
175
126
180
75
197
56
58
91
92
160
103
14
53
219
224
45
189
22
33
181
234
27
110
152
184
57
105
148
46
182
68
193
76
145
23
230
169
167
118
72
47
138
205
179
1
10
174
231
3
183
130

>  <PUBCHEM_MMFF94_PARTIAL_CHARGES>  (1) 
35
1 -0.36
10 0.37
11 0.27
12 0.18
13 -0.18
14 0.1
16 -0.15
17 -0.3
18 0.08
19 -0.15
2 -0.36
20 -0.15
21 -0.15
22 0.08
23 0.08
24 -0.15
25 -0.15
26 -0.15
27 0.56
28 0.28
3 -0.36
4 -0.81
41 0.15
42 0.27
43 0.15
44 0.15
45 0.15
46 0.15
47 0.15
48 0.15
5 -0.84
6 0.03
7 0.27
8 0.27
9 0.37

>  <PUBCHEM_EFFECTIVE_ROTOR_COUNT>  (1) 
6.8

>  <PUBCHEM_PHARMACOPHORE_FEATURES>  (1) 
12
1 1 acceptor
1 2 acceptor
1 3 acceptor
1 4 cation
1 5 cation
1 6 cation
1 6 donor
5 1 3 22 23 27 rings
5 6 13 15 16 17 rings
6 14 18 20 24 25 26 rings
6 15 16 19 21 22 23 rings
6 4 5 7 8 9 10 rings

>  <PUBCHEM_HEAVY_ATOM_COUNT>  (1) 
28

>  <PUBCHEM_ATOM_DEF_STEREO_COUNT>  (1) 
0

>  <PUBCHEM_ATOM_UDEF_STEREO_COUNT>  (1) 
0

>  <PUBCHEM_BOND_DEF_STEREO_COUNT>  (1) 
0

>  <PUBCHEM_BOND_UDEF_STEREO_COUNT>  (1) 
0

>  <PUBCHEM_ISOTOPIC_ATOM_COUNT>  (1) 
0

>  <PUBCHEM_COMPONENT_COUNT>  (1) 
1

>  <PUBCHEM_CACTVS_TAUTO_COUNT>  (1) 
1

$$$$
