2052
     RDKit          3D

 14 14  0  0  0  0  0  0  0  0999 V2000
   -2.9812    0.9641   -1.7486 O   0  0  0  0  0  0  0  0  0  0  0  0
   -4.1600    0.0343    0.5905 O   0  0  0  0  0  0  0  0  0  0  0  0
    4.7407   -0.7390   -0.6050 N   0  0  0  0  0  0  0  0  0  0  0  0
    1.9123    2.2361    1.1513 N   0  0  0  0  0  0  0  0  0  0  0  0
   -0.1217   -0.6231   -0.1154 C   0  0  0  0  0  0  0  0  0  0  0  0
   -0.8869    0.0665   -1.0560 C   0  0  0  0  0  0  0  0  0  0  0  0
   -0.7134   -1.0891    1.0587 C   0  0  0  0  0  0  0  0  0  0  0  0
   -2.2439    0.2899   -0.8224 C   0  0  0  0  0  0  0  0  0  0  0  0
   -2.8355   -0.1763    0.3517 C   0  0  0  0  0  0  0  0  0  0  0  0
   -2.0703   -0.8658    1.2922 C   0  0  0  0  0  0  0  0  0  0  0  0
    1.2934   -0.8554   -0.3580 C   0  0  0  0  0  0  0  0  0  0  0  0
    2.3193   -0.0350   -0.0210 C   0  0  0  0  0  0  0  0  0  0  0  0
    3.6545   -0.4243   -0.3439 C   0  0  0  0  0  0  0  0  0  0  0  0
    2.0927    1.2170    0.6260 C   0  0  0  0  0  0  0  0  0  0  0  0
  1  8  1  0
  2  9  1  0
  3 13  3  0
  4 14  3  0
  5  6  2  0
  5  7  1  0
  5 11  1  0
  6  8  1  0
  7 10  2  0
  8  9  2  0
  9 10  1  0
 11 12  2  3
 12 13  1  0
 12 14  1  0
M  END
>  <PUBCHEM_COMPOUND_CID>  (1) 
2052

>  <PUBCHEM_CONFORMER_RMSD>  (1) 
0.4

>  <PUBCHEM_CONFORMER_DIVERSEORDER>  (1) 
1
5
3
4
6
2

>  <PUBCHEM_MMFF94_PARTIAL_CHARGES>  (1) 
20
1 -0.53
10 -0.15
11 -0.18
12 0.13
13 0.49
14 0.49
15 0.15
16 0.15
17 0.15
18 0.15
19 0.45
2 -0.53
20 0.45
3 -0.56
4 -0.56
5 0.03
6 -0.15
7 -0.15
8 0.08
9 0.08

>  <PUBCHEM_EFFECTIVE_ROTOR_COUNT>  (1) 
1

>  <PUBCHEM_PHARMACOPHORE_FEATURES>  (1) 
5
1 1 donor
1 2 donor
1 3 acceptor
1 4 acceptor
6 5 6 7 8 9 10 rings

>  <PUBCHEM_HEAVY_ATOM_COUNT>  (1) 
14

>  <PUBCHEM_ATOM_DEF_STEREO_COUNT>  (1) 
0

>  <PUBCHEM_ATOM_UDEF_STEREO_COUNT>  (1) 
0

>  <PUBCHEM_BOND_DEF_STEREO_COUNT>  (1) 
0

>  <PUBCHEM_BOND_UDEF_STEREO_COUNT>  (1) 
0

>  <PUBCHEM_ISOTOPIC_ATOM_COUNT>  (1) 
0

>  <PUBCHEM_COMPONENT_COUNT>  (1) 
1

>  <PUBCHEM_CACTVS_TAUTO_COUNT>  (1) 
10

>  <PUBCHEM_CONFORMER_ID>  (1) 
0000080400000001

>  <PUBCHEM_MMFF94_ENERGY>  (1) 
29.9003

>  <PUBCHEM_FEATURE_SELFOVERLAP>  (1) 
25.376

>  <PUBCHEM_SHAPE_FINGERPRINT>  (1) 
10857977 72 17458343074209418695
12186901 62 17312823749281038446
124424 183 18408600336537485522
12916754 54 18130781325956703511
12932764 1 18261101997916062754
15653759 3 18040997362463743760
15775835 57 17060059314652670408
16945 1 18271794696982775095
18175812 5 18336272339621585839
18186145 218 18271515463994765275
20510252 161 17531248322956189501
20645476 183 16917348113258445279
20653085 51 18202275935623228217
21119208 17 16845575292304732395
21130352 189 18343021107907449832
21639500 275 17916576673861999936
23175994 123 18340498785409953876
23236772 104 14707213218549141452
23402539 116 12823013062900947835
23598294 1 16298375851641713613
3286 77 18342742969803576523
74978 22 17916866940868744126
77492 1 16558753429340044426
81228 2 17611185248894086387

>  <PUBCHEM_SHAPE_MULTIPOLES>  (1) 
266.41
6.92
1.34
1.28
2.83
0.24
0.24
0.06
-0.79
-0.2
0.33
0.11
0.46
1.4

>  <PUBCHEM_SHAPE_SELFOVERLAP>  (1) 
562.318

>  <PUBCHEM_SHAPE_VOLUME>  (1) 
145.2

>  <PUBCHEM_COORDINATE_TYPE>  (1) 
2
5
10

$$$$
