20521
     RDKit          3D

 31 35  0  0  0  0  0  0  0  0999 V2000
    1.3037   -0.8318   -0.0034 O   0  0  0  0  0  0  0  0  0  0  0  0
    6.0377   -1.5748   -0.0231 N   0  0  0  0  0  0  0  0  0  0  0  0
    1.7055    2.0006    0.0596 N   0  0  0  0  0  0  0  0  0  0  0  0
   -3.3655   -0.0819    0.0187 N   0  0  0  0  0  0  0  0  0  0  0  0
   -0.6685    2.4268    0.0709 C   0  0  0  0  0  0  0  0  0  0  0  0
    0.5020    1.5143    0.0499 C   0  0  0  0  0  0  0  0  0  0  0  0
   -1.9776    1.9251    0.0604 C   0  0  0  0  0  0  0  0  0  0  0  0
    0.2337    0.0516    0.0174 C   0  0  0  0  0  0  0  0  0  0  0  0
   -2.1980    0.4603    0.0283 C   0  0  0  0  0  0  0  0  0  0  0  0
    4.9445   -0.6841   -0.0028 C   0  0  0  0  0  0  0  0  0  0  0  0
    2.5652   -0.2907    0.0077 C   0  0  0  0  0  0  0  0  0  0  0  0
    2.7734    1.0911    0.0384 C   0  0  0  0  0  0  0  0  0  0  0  0
   -1.0133   -0.4245    0.0078 C   0  0  0  0  0  0  0  0  0  0  0  0
    3.6418   -1.1787   -0.0126 C   0  0  0  0  0  0  0  0  0  0  0  0
    7.3963   -1.0698   -0.0130 C   0  0  0  0  0  0  0  0  0  0  0  0
    5.8172   -3.0074   -0.0404 C   0  0  0  0  0  0  0  0  0  0  0  0
    5.1665    0.6917    0.0273 C   0  0  0  0  0  0  0  0  0  0  0  0
    4.0855    1.5754    0.0480 C   0  0  0  0  0  0  0  0  0  0  0  0
   -0.4507    3.8137    0.1018 C   0  0  0  0  0  0  0  0  0  0  0  0
   -3.0545    2.8269    0.0809 C   0  0  0  0  0  0  0  0  0  0  0  0
   -3.6369   -1.5231   -0.0128 C   0  0  0  0  0  0  0  0  0  0  0  0
   -1.5285    4.6968    0.1221 C   0  0  0  0  0  0  0  0  0  0  0  0
   -2.8281    4.2041    0.1115 C   0  0  0  0  0  0  0  0  0  0  0  0
    7.8362   -0.6495   -1.4051 C   0  0  0  0  0  0  0  0  0  0  0  0
    5.5355   -3.5363    1.3558 C   0  0  0  0  0  0  0  0  0  0  0  0
   -5.1093   -1.8080   -0.0663 C   0  0  0  0  0  0  0  0  0  0  0  0
   -5.8249   -1.9569    1.1164 C   0  0  0  0  0  0  0  0  0  0  0  0
   -5.7445   -1.9198   -1.2980 C   0  0  0  0  0  0  0  0  0  0  0  0
   -7.1935   -2.2214    1.0669 C   0  0  0  0  0  0  0  0  0  0  0  0
   -7.1132   -2.1843   -1.3474 C   0  0  0  0  0  0  0  0  0  0  0  0
   -7.8376   -2.3351   -0.1650 C   0  0  0  0  0  0  0  0  0  0  0  0
  1  8  1  0
  1 11  1  0
  2 10  1  0
  2 15  1  0
  2 16  1  0
  3  6  2  0
  3 12  1  0
  4  9  2  0
  4 21  1  0
  5  6  1  0
  5  7  2  0
  5 19  1  0
  6  8  1  0
  7  9  1  0
  7 20  1  0
  8 13  2  0
  9 13  1  0
 10 14  2  0
 10 17  1  0
 11 12  2  0
 11 14  1  0
 12 18  1  0
 15 24  1  0
 16 25  1  0
 17 18  2  0
 19 22  2  0
 20 23  2  0
 21 26  1  0
 22 23  1  0
 26 27  2  0
 26 28  1  0
 27 29  1  0
 28 30  2  0
 29 31  2  0
 30 31  1  0
M  CHG  1   4   1
M  END
>  <PUBCHEM_COMPOUND_CID>  (1) 
20521

>  <PUBCHEM_CONFORMER_RMSD>  (1) 
0.8

>  <PUBCHEM_CONFORMER_DIVERSEORDER>  (1) 
1
11
7
9
6
13
5
4
2
12
10
8
3

>  <PUBCHEM_MMFF94_PARTIAL_CHARGES>  (1) 
43
1 -0.16
10 0.1
11 0.08
12 0.18
13 -0.14
14 -0.15
15 0.37
16 0.37
17 -0.15
18 -0.15
19 -0.15
2 -0.84
20 -0.15
21 0.49
22 -0.15
23 -0.15
26 -0.14
27 -0.15
28 -0.15
29 -0.15
3 -0.63
30 -0.15
31 -0.15
32 0.15
33 0.15
38 0.15
39 0.4
4 -0.15
40 0.15
41 0.15
42 0.15
45 0.15
46 0.15
5 0.09
53 0.15
54 0.15
55 0.15
56 0.15
57 0.15
6 0.35
7 0.09
8 0.09
9 0.3

>  <PUBCHEM_EFFECTIVE_ROTOR_COUNT>  (1) 
5

>  <PUBCHEM_PHARMACOPHORE_FEATURES>  (1) 
10
1 1 acceptor
1 2 cation
1 3 acceptor
1 4 acceptor
1 4 donor
6 1 3 6 8 11 12 rings
6 10 11 12 14 17 18 rings
6 26 27 28 29 30 31 rings
6 5 6 7 8 9 13 rings
6 5 7 19 20 22 23 rings

>  <PUBCHEM_HEAVY_ATOM_COUNT>  (1) 
31

>  <PUBCHEM_ATOM_DEF_STEREO_COUNT>  (1) 
0

>  <PUBCHEM_ATOM_UDEF_STEREO_COUNT>  (1) 
0

>  <PUBCHEM_BOND_DEF_STEREO_COUNT>  (1) 
0

>  <PUBCHEM_BOND_UDEF_STEREO_COUNT>  (1) 
0

>  <PUBCHEM_ISOTOPIC_ATOM_COUNT>  (1) 
0

>  <PUBCHEM_COMPONENT_COUNT>  (1) 
1

>  <PUBCHEM_CACTVS_TAUTO_COUNT>  (1) 
1

>  <PUBCHEM_CONFORMER_ID>  (1) 
0000502900000001

>  <PUBCHEM_MMFF94_ENERGY>  (1) 
108.413

>  <PUBCHEM_FEATURE_SELFOVERLAP>  (1) 
50.837

>  <PUBCHEM_SHAPE_FINGERPRINT>  (1) 
10 15 12175627286709418247
10411042 1 18411419548844431241
10595046 47 18335144159904416404
10622 236 18116701929445424594
11297750 10 18342165692030128241
11410812 94 16516231964978152758
12166972 35 17894912966137130173
12645989 146 18341047540876881135
12760667 363 18410855486663116443
12788726 201 18333724706971901915
12977781 61 17628932135512658991
13248334 5 17907576183827028689
13540713 4 18269816718752424089
13540713 5 18264790851154626853
13631057 29 18409730634448543992
13673619 4 18131915974606309616
13782708 43 17917986161763948254
13911852 28 18411697725338557877
14117953 113 18272932743869911175
14118638 360 18261111851436306882
14347332 77 18410853231240712186
15042514 8 18411420583894834265
15064981 194 18267315248063213604
15131766 46 15552173752920844712
15198563 99 18408882915521836845
15250474 111 18045493124203509026
15351339 4 17895461562753330515
15419008 47 17895464939098252181
15629462 23 18333739009766521979
15927050 60 17977103453536842235
16087824 20 18266740187562481693
16090146 7 17095820857574474450
16992752 21 18411147939254274948
17492 89 18410291368246222290
19301676 85 16902158093781033271
19301679 30 18412548687051340991
21130935 74 18266733573228164562
21267235 1 18412549825174956734
21478907 32 18411136944275517033
21639891 77 18130781210008963497
21703447 108 18339067268563040936
22311459 1 18051410970087768673
23522609 53 18124912089748857121
23536364 44 18261379041325021549
23559900 14 18269827628591568792
23569943 247 18412543202637126067
24771750 20 17177442248922870549
3004659 81 18040710406977056875
3103668 31 18261384513446504293
3534868 343 18263093252561909164
3633792 109 17385443237037337886
4073 2 18042417855079376024
46194498 28 17459178763181781557
50009960 94 17753595864121306874
5104073 3 18200870687118005768
513202 73 18342737382426041511
5219985 9 18342740741000373627
5969126 39 18412542107266386413
6057620 51 18260555541586188782
6698420 124 17410501982913211344
6700243 42 17771659834615207852
70251023 43 18336264621481225808
7970288 3 18339357582255762295

>  <PUBCHEM_SHAPE_MULTIPOLES>  (1) 
617.15
21.15
5.19
0.93
1.01
5.18
-0.08
-27.27
-2.44
-3.98
0.71
-0.43
-0.66
-1

>  <PUBCHEM_SHAPE_SELFOVERLAP>  (1) 
1360.922

>  <PUBCHEM_SHAPE_VOLUME>  (1) 
329.6

>  <PUBCHEM_COORDINATE_TYPE>  (1) 
2
5
10

$$$$
