20523
     RDKit          3D

 22 23  0  0  0  0  0  0  0  0999 V2000
    2.8031    2.5309    0.7082 O   0  0  0  0  0  0  0  0  0  0  0  0
   -3.5248    1.4540   -0.7382 O   0  0  0  0  0  0  0  0  0  0  0  0
    1.7319    1.0458   -0.7620 N   0  0  0  0  0  0  0  0  0  0  0  0
   -2.0279    0.4753    0.7781 N   0  0  0  0  0  0  0  0  0  0  0  0
   -0.3292    3.1788   -0.7167 C   0  0  0  0  0  0  0  0  0  0  0  0
   -0.8948    3.2042    0.7113 C   0  0  0  0  0  0  0  0  0  0  0  0
    1.1787    3.3750   -0.8558 C   0  0  0  0  0  0  0  0  0  0  0  0
   -2.3836    2.8676    0.8224 C   0  0  0  0  0  0  0  0  0  0  0  0
    2.0179    2.2872   -0.2018 C   0  0  0  0  0  0  0  0  0  0  0  0
   -2.7178    1.5246    0.1852 C   0  0  0  0  0  0  0  0  0  0  0  0
    2.3011   -0.2044   -0.4255 C   0  0  0  0  0  0  0  0  0  0  0  0
   -2.0975   -0.8979    0.4389 C   0  0  0  0  0  0  0  0  0  0  0  0
    1.8946   -1.3403   -1.1069 C   0  0  0  0  0  0  0  0  0  0  0  0
   -1.3311   -1.8089    1.1458 C   0  0  0  0  0  0  0  0  0  0  0  0
    3.2542   -0.2681    0.5782 C   0  0  0  0  0  0  0  0  0  0  0  0
   -2.9307   -1.2992   -0.5916 C   0  0  0  0  0  0  0  0  0  0  0  0
    2.4562   -2.5734   -0.7755 C   0  0  0  0  0  0  0  0  0  0  0  0
   -1.3997   -3.1615    0.8121 C   0  0  0  0  0  0  0  0  0  0  0  0
    3.8158   -1.5012    0.9094 C   0  0  0  0  0  0  0  0  0  0  0  0
   -2.9993   -2.6519   -0.9252 C   0  0  0  0  0  0  0  0  0  0  0  0
    3.4168   -2.6538    0.2326 C   0  0  0  0  0  0  0  0  0  0  0  0
   -2.2337   -3.5829   -0.2232 C   0  0  0  0  0  0  0  0  0  0  0  0
  1  9  2  0
  2 10  2  0
  3  9  1  0
  3 11  1  0
  4 10  1  0
  4 12  1  0
  5  6  1  0
  5  7  1  0
  6  8  1  0
  7  9  1  0
  8 10  1  0
 11 13  2  0
 11 15  1  0
 12 14  2  0
 12 16  1  0
 13 17  1  0
 14 18  1  0
 15 19  2  0
 16 20  2  0
 17 21  2  0
 18 22  2  0
 19 21  1  0
 20 22  1  0
M  END
>  <PUBCHEM_COMPOUND_CID>  (1) 
20523

>  <PUBCHEM_CONFORMER_RMSD>  (1) 
0.8

>  <PUBCHEM_CONFORMER_DIVERSEORDER>  (1) 
1
3
25
74
39
121
26
100
132
45
142
52
6
24
131
134
17
53
34
85
124
83
36
117
111
46
16
109
50
151
20
84
156
55
9
70
41
147
22
27
96
28
54
14
66
127
139
97
98
145
88
110
72
73
29
64
144
44
99
133
149
105
141
61
71
59
118
90
81
77
104
18
94
115
30
153
116
140
82
148
31
108
136
137
123
102
68
114
51
47
57
15
89
67
69
79
155
75
40
125
60
58
128
32
8
154
2
33
7
138
143
129
49
106
76
13
91
146
93
12
80
56
107
78
112
126
135
38
86
157
10
19
119
11
92
101
21
62
48
122
42
95
4
152
65
113
63
120
23
103
5
43
130
35
150
37
87

>  <PUBCHEM_MMFF94_PARTIAL_CHARGES>  (1) 
32
1 -0.57
10 0.57
11 0.12
12 0.12
13 -0.15
14 -0.15
15 -0.15
16 -0.15
17 -0.15
18 -0.15
19 -0.15
2 -0.57
20 -0.15
21 -0.15
22 -0.15
3 -0.55
31 0.37
32 0.37
33 0.15
34 0.15
35 0.15
36 0.15
37 0.15
38 0.15
39 0.15
4 -0.55
40 0.15
41 0.15
42 0.15
7 0.06
8 0.06
9 0.57

>  <PUBCHEM_EFFECTIVE_ROTOR_COUNT>  (1) 
9

>  <PUBCHEM_PHARMACOPHORE_FEATURES>  (1) 
7
1 1 acceptor
1 2 acceptor
1 3 donor
1 4 donor
4 5 6 7 8 hydrophobe
6 11 13 15 17 19 21 rings
6 12 14 16 18 20 22 rings

>  <PUBCHEM_HEAVY_ATOM_COUNT>  (1) 
22

>  <PUBCHEM_ATOM_DEF_STEREO_COUNT>  (1) 
0

>  <PUBCHEM_ATOM_UDEF_STEREO_COUNT>  (1) 
0

>  <PUBCHEM_BOND_DEF_STEREO_COUNT>  (1) 
0

>  <PUBCHEM_BOND_UDEF_STEREO_COUNT>  (1) 
0

>  <PUBCHEM_ISOTOPIC_ATOM_COUNT>  (1) 
0

>  <PUBCHEM_COMPONENT_COUNT>  (1) 
1

>  <PUBCHEM_CACTVS_TAUTO_COUNT>  (1) 
3

>  <PUBCHEM_CONFORMER_ID>  (1) 
0000502B00000001

>  <PUBCHEM_MMFF94_ENERGY>  (1) 
57.9657

>  <PUBCHEM_FEATURE_SELFOVERLAP>  (1) 
35.521

>  <PUBCHEM_SHAPE_FINGERPRINT>  (1) 
1100329 8 18410854326990129105
11014199 57 18339367460743898534
12038231 1 18194402182322002254
12156800 1 16817356266190310053
12553582 1 18338250352328700990
12633257 1 18269559338515051600
13122387 1 18121787127277621862
13140716 1 18410019797316526873
14081887 123 18340757183495994840
1420 336 18409173177436423889
14251740 79 16470688848862836310
14251757 17 17971723766691437407
14251757 5 17978536147411225158
15110567 62 17185314786347450291
192875 21 18339065086102852398
19591789 44 17545884823934145566
19930381 70 18122346774949883759
20028762 73 18056479453167883917
20905425 154 18196941182383048572
22113638 7 18264488395108791501
23184049 29 18410578413326030358
23559900 14 18194672889852540699
238 59 17331105608500083735
463206 1 17693654131573093247
484985 159 16092552691186738912
5309563 4 17545607111697140883

>  <PUBCHEM_SHAPE_MULTIPOLES>  (1) 
431.05
6.42
5.75
1.12
2.3
1.29
0
-2.56
0.3
-1.77
-0.23
0
-0.1
-0.54

>  <PUBCHEM_SHAPE_SELFOVERLAP>  (1) 
898.733

>  <PUBCHEM_SHAPE_VOLUME>  (1) 
242.8

>  <PUBCHEM_COORDINATE_TYPE>  (1) 
2
5
10

$$$$
