20535
     RDKit          3D

  8  7  0  0  0  0  0  0  0  0999 V2000
   -1.7066    0.4161    1.2860 O   0  0  0  0  0  0  0  0  0  0  0  0
    0.6173    0.7896   -0.2031 N   0  0  0  0  0  0  0  0  0  0  0  0
   -0.5519    0.2660   -0.7297 N   0  0  0  0  0  0  0  0  0  0  0  0
    1.7113   -0.1590   -0.3612 C   0  0  0  0  0  0  0  0  0  0  0  0
    1.3970   -1.4237    0.4270 C   0  0  0  0  0  0  0  0  0  0  0  0
    3.0110    0.4801    0.1104 C   0  0  0  0  0  0  0  0  0  0  0  0
   -1.6522    0.1206    0.0945 C   0  0  0  0  0  0  0  0  0  0  0  0
   -2.8259   -0.4897   -0.6238 C   0  0  0  0  0  0  0  0  0  0  0  0
  1  7  2  0
  2  3  1  0
  2  4  1  0
  3  7  1  0
  4  5  1  0
  4  6  1  0
  7  8  1  0
M  END
>  <PUBCHEM_COMPOUND_CID>  (1) 
20535

>  <PUBCHEM_CONFORMER_RMSD>  (1) 
0.6

>  <PUBCHEM_CONFORMER_DIVERSEORDER>  (1) 
1
3
5
4
2

>  <PUBCHEM_MMFF94_PARTIAL_CHARGES>  (1) 
8
1 -0.57
16 0.36
17 0.37
2 -0.64
3 -0.42
4 0.27
7 0.57
8 0.06

>  <PUBCHEM_EFFECTIVE_ROTOR_COUNT>  (1) 
3

>  <PUBCHEM_PHARMACOPHORE_FEATURES>  (1) 
4
1 1 acceptor
1 2 donor
1 3 donor
3 4 5 6 hydrophobe

>  <PUBCHEM_HEAVY_ATOM_COUNT>  (1) 
8

>  <PUBCHEM_ATOM_DEF_STEREO_COUNT>  (1) 
0

>  <PUBCHEM_ATOM_UDEF_STEREO_COUNT>  (1) 
0

>  <PUBCHEM_BOND_DEF_STEREO_COUNT>  (1) 
0

>  <PUBCHEM_BOND_UDEF_STEREO_COUNT>  (1) 
0

>  <PUBCHEM_ISOTOPIC_ATOM_COUNT>  (1) 
0

>  <PUBCHEM_COMPONENT_COUNT>  (1) 
1

>  <PUBCHEM_CACTVS_TAUTO_COUNT>  (1) 
2

>  <PUBCHEM_CONFORMER_ID>  (1) 
0000503700000001

>  <PUBCHEM_MMFF94_ENERGY>  (1) 
2.0812

>  <PUBCHEM_FEATURE_SELFOVERLAP>  (1) 
21.788

>  <PUBCHEM_SHAPE_FINGERPRINT>  (1) 
10857977 72 15913036651695875471
11062470 55 17313096462524315829
12932764 1 18341337699348620189
14390081 3 16128372666611017960
20096714 4 10879696689743903894
20201158 50 17385719184032513427
20651381 22 18131066052012459006
24536 1 16950856807624059148
29004967 10 17894639136249522512
3248919 1 17168150017877540444
5460574 1 12035443939191956716

>  <PUBCHEM_SHAPE_MULTIPOLES>  (1) 
148.8
4.35
1.02
0.9
0.06
0.36
0.18
0
-0.17
-0.45
0.06
0.42
-0.03
-0.21

>  <PUBCHEM_SHAPE_SELFOVERLAP>  (1) 
268.063

>  <PUBCHEM_SHAPE_VOLUME>  (1) 
96.8

>  <PUBCHEM_COORDINATE_TYPE>  (1) 
2
5
10

$$$$
