20536
     RDKit          3D

 20 23  0  0  0  0  0  0  0  0999 V2000
   -4.0940   -2.5512    0.0167 O   0  0  0  0  0  0  0  0  0  0  0  0
    0.3453   -0.0967   -0.0326 C   0  0  0  0  0  0  0  0  0  0  0  0
   -0.7515    0.8778   -0.0814 C   0  0  0  0  0  0  0  0  0  0  0  0
   -0.0376   -1.4673   -0.0714 C   0  0  0  0  0  0  0  0  0  0  0  0
    1.7875    0.1643    0.0514 C   0  0  0  0  0  0  0  0  0  0  0  0
   -2.0990    0.4401    0.0591 C   0  0  0  0  0  0  0  0  0  0  0  0
    2.7152   -0.9001   -0.1315 C   0  0  0  0  0  0  0  0  0  0  0  0
   -2.3876   -0.9168    0.1377 C   0  0  0  0  0  0  0  0  0  0  0  0
   -1.3751   -1.8551    0.0281 C   0  0  0  0  0  0  0  0  0  0  0  0
    0.9067   -2.4860   -0.2104 C   0  0  0  0  0  0  0  0  0  0  0  0
    2.2603   -2.2038   -0.2857 C   0  0  0  0  0  0  0  0  0  0  0  0
   -0.6078    2.2690   -0.3268 C   0  0  0  0  0  0  0  0  0  0  0  0
    2.3817    1.4136    0.3718 C   0  0  0  0  0  0  0  0  0  0  0  0
   -3.1723    1.3483    0.0852 C   0  0  0  0  0  0  0  0  0  0  0  0
    4.1041   -0.6794   -0.1253 C   0  0  0  0  0  0  0  0  0  0  0  0
   -1.6806    3.1687   -0.3148 C   0  0  0  0  0  0  0  0  0  0  0  0
   -2.9639    2.7098   -0.0855 C   0  0  0  0  0  0  0  0  0  0  0  0
    3.7655    1.6266    0.3917 C   0  0  0  0  0  0  0  0  0  0  0  0
    4.6288    0.5820    0.1200 C   0  0  0  0  0  0  0  0  0  0  0  0
   -3.7256   -1.4437    0.4037 C   0  0  0  0  0  0  0  0  0  0  0  0
  1 20  2  0
  2  3  2  0
  2  4  1  0
  2  5  1  0
  3  6  1  0
  3 12  1  0
  4  9  2  0
  4 10  1  0
  5  7  2  0
  5 13  1  0
  6  8  2  0
  6 14  1  0
  7 11  1  0
  7 15  1  0
  8  9  1  0
  8 20  1  0
 10 11  2  0
 12 16  2  0
 13 18  2  0
 14 17  2  0
 15 19  2  0
 16 17  1  0
 18 19  1  0
M  END
>  <PUBCHEM_COMPOUND_CID>  (1) 
20536

>  <PUBCHEM_CONFORMER_RMSD>  (1) 
0.6

>  <PUBCHEM_CONFORMER_DIVERSEORDER>  (1) 
1

>  <PUBCHEM_MMFF94_PARTIAL_CHARGES>  (1) 
26
1 -0.57
10 -0.15
11 -0.15
12 -0.15
13 -0.15
14 -0.15
15 -0.15
16 -0.15
17 -0.15
18 -0.15
19 -0.15
20 0.42
21 0.15
22 0.15
23 0.15
24 0.15
25 0.15
26 0.15
27 0.15
28 0.15
29 0.15
30 0.15
31 0.15
32 0.06
8 0.09
9 -0.15

>  <PUBCHEM_EFFECTIVE_ROTOR_COUNT>  (1) 
1

>  <PUBCHEM_PHARMACOPHORE_FEATURES>  (1) 
5
1 1 acceptor
6 2 3 4 6 8 9 rings
6 2 4 5 7 10 11 rings
6 3 6 12 14 16 17 rings
6 5 7 13 15 18 19 rings

>  <PUBCHEM_HEAVY_ATOM_COUNT>  (1) 
20

>  <PUBCHEM_ATOM_DEF_STEREO_COUNT>  (1) 
0

>  <PUBCHEM_ATOM_UDEF_STEREO_COUNT>  (1) 
0

>  <PUBCHEM_BOND_DEF_STEREO_COUNT>  (1) 
0

>  <PUBCHEM_BOND_UDEF_STEREO_COUNT>  (1) 
0

>  <PUBCHEM_ISOTOPIC_ATOM_COUNT>  (1) 
0

>  <PUBCHEM_COMPONENT_COUNT>  (1) 
1

>  <PUBCHEM_CACTVS_TAUTO_COUNT>  (1) 
1

>  <PUBCHEM_CONFORMER_ID>  (1) 
0000503800000001

>  <PUBCHEM_MMFF94_ENERGY>  (1) 
87.8658

>  <PUBCHEM_FEATURE_SELFOVERLAP>  (1) 
25.445

>  <PUBCHEM_SHAPE_FINGERPRINT>  (1) 
10319926 262 18267846356066937066
10411042 1 18193559097844192483
10498660 4 18408319982109506404
10608611 8 18339642231133566220
10616163 171 18410856542591802262
10646746 165 18410855422069607124
10670039 82 18261969534988491804
10906281 52 18190480418230988515
10967382 1 18194964032922181276
1100329 8 17760364392448353394
12173636 292 18337951182097280757
12390115 104 18271260377872569536
12403259 226 18413105082810295936
12403259 415 18131066065657243832
12403260 363 18409157836214292522
12553582 1 18192170384688206511
12623949 98 17559136425872432711
12633257 1 18193554458983496952
12730499 353 17395854264024256477
13140716 1 18338515222898249787
138480 1 16248563242123709453
14178342 30 18335973178259609896
14223421 5 18340771446559982598
14787075 74 17825669125281031634
14790565 3 17111297862710515221
15196674 1 18411138030886022354
15442244 35 18192991509325799282
16945 1 18122059806346128003
17357779 13 18266441269889021805
17492 89 18409446947327221546
18186145 218 18130797698588124952
19591789 44 18412263947835772510
20510252 161 18341614836397773777
20905425 154 18412829062183679374
21029758 11 18266173010574296135
21267235 1 18338526338711857642
21279426 13 18269843013364370126
21501502 16 18337105653444923378
221490 88 18340494357235887878
22182937 141 18270687441703375881
23227448 37 18339641123090162869
2334 1 18411418427324781829
23366157 5 18042128648608306698
23402539 116 18269548493780800943
23557571 272 18341623619632189814
23558518 356 18260834760766156595
23559900 14 18126281940151497726
238 59 16890012930994276317
23845131 108 17761789364673080209
2748010 2 18411141311972063279
2871803 45 18410288142272505111
335352 9 18050849918814886190
34934 24 18409725167250873895
350125 39 18411704313765967296
3524813 1 18058162998221252664
5104073 3 18411697665108861354
5283173 99 18115290212629055349
7097593 13 17608915496386051482
7364860 26 18053381003203524926
81228 2 18187093840596976913
9709674 26 18269837501866274839

>  <PUBCHEM_SHAPE_MULTIPOLES>  (1) 
405.72
7.47
3.44
0.66
3.07
0.54
0
0.23
0.54
-2.45
-0.23
0.03
0.03
0.62

>  <PUBCHEM_SHAPE_SELFOVERLAP>  (1) 
930.07

>  <PUBCHEM_SHAPE_VOLUME>  (1) 
209.5

>  <PUBCHEM_COORDINATE_TYPE>  (1) 
2
5
10

$$$$
