2054
     RDKit          3D

 15 15  0  0  0  0  0  0  0  0999 V2000
   -3.2316    0.0202   -1.9999 O   0  0  0  0  0  0  0  0  0  0  0  0
   -4.4043    0.3122    0.5033 O   0  0  0  0  0  0  0  0  0  0  0  0
    4.3248    0.5137   -0.1615 O   0  0  0  0  0  0  0  0  0  0  0  0
    3.7588   -1.6861   -0.1307 O   0  0  0  0  0  0  0  0  0  0  0  0
    1.5665    2.5518    0.0548 N   0  0  0  0  0  0  0  0  0  0  0  0
   -0.3641   -0.5896    0.1837 C   0  0  0  0  0  0  0  0  0  0  0  0
   -1.1333   -0.4333   -0.9694 C   0  0  0  0  0  0  0  0  0  0  0  0
   -0.9527   -0.4428    1.4398 C   0  0  0  0  0  0  0  0  0  0  0  0
   -2.4909   -0.1302   -0.8664 C   0  0  0  0  0  0  0  0  0  0  0  0
   -3.0794    0.0166    0.3896 C   0  0  0  0  0  0  0  0  0  0  0  0
   -2.3103   -0.1396    1.5428 C   0  0  0  0  0  0  0  0  0  0  0  0
    1.0515   -0.9056    0.0765 C   0  0  0  0  0  0  0  0  0  0  0  0
    2.0460    0.0095    0.0058 C   0  0  0  0  0  0  0  0  0  0  0  0
    3.4373   -0.5082   -0.1009 C   0  0  0  0  0  0  0  0  0  0  0  0
    1.7816    1.4116    0.0324 C   0  0  0  0  0  0  0  0  0  0  0  0
  1  9  1  0
  2 10  1  0
  3 14  1  0
  4 14  2  0
  5 15  3  0
  6  7  2  0
  6  8  1  0
  6 12  1  0
  7  9  1  0
  8 11  2  0
  9 10  2  0
 10 11  1  0
 12 13  2  0
 13 14  1  0
 13 15  1  0
M  END
>  <PUBCHEM_COMPOUND_CID>  (1) 
2054

>  <PUBCHEM_CONFORMER_RMSD>  (1) 
0.6

>  <PUBCHEM_CONFORMER_DIVERSEORDER>  (1) 
2
5
6
1
3
4

>  <PUBCHEM_MMFF94_PARTIAL_CHARGES>  (1) 
22
1 -0.53
10 0.08
11 -0.15
12 -0.18
13 0.08
14 0.71
15 0.49
16 0.15
17 0.15
18 0.15
19 0.15
2 -0.53
20 0.45
21 0.45
22 0.5
3 -0.65
4 -0.57
5 -0.56
6 0.03
7 -0.15
8 -0.15
9 0.08

>  <PUBCHEM_EFFECTIVE_ROTOR_COUNT>  (1) 
2

>  <PUBCHEM_PHARMACOPHORE_FEATURES>  (1) 
7
1 1 donor
1 2 donor
1 3 acceptor
1 4 acceptor
1 5 acceptor
3 3 4 14 anion
6 6 7 8 9 10 11 rings

>  <PUBCHEM_HEAVY_ATOM_COUNT>  (1) 
15

>  <PUBCHEM_ATOM_DEF_STEREO_COUNT>  (1) 
0

>  <PUBCHEM_ATOM_UDEF_STEREO_COUNT>  (1) 
0

>  <PUBCHEM_BOND_DEF_STEREO_COUNT>  (1) 
0

>  <PUBCHEM_BOND_UDEF_STEREO_COUNT>  (1) 
1

>  <PUBCHEM_ISOTOPIC_ATOM_COUNT>  (1) 
0

>  <PUBCHEM_COMPONENT_COUNT>  (1) 
1

>  <PUBCHEM_CACTVS_TAUTO_COUNT>  (1) 
10

>  <PUBCHEM_CONFORMER_ID>  (1) 
0000080600000002

>  <PUBCHEM_MMFF94_ENERGY>  (1) 
36.3977

>  <PUBCHEM_FEATURE_SELFOVERLAP>  (1) 
35.583

>  <PUBCHEM_SHAPE_FINGERPRINT>  (1) 
12186901 62 16008750169432940607
12236239 1 17704075083800742130
124424 183 17967525766565986866
12932764 1 17676198100291910219
13134695 92 18411697682331265532
13581323 91 15285360621647485747
14115302 16 17131832088261047599
14993402 34 18131073740431251766
15653759 3 17240204352040604328
15775835 57 17775571961067886729
16945 1 18335406959493126339
18186145 218 18335411387688713643
19049666 15 17676760959998062714
200 152 18343863342488650235
20279233 1 17821450162227364202
20510252 161 16515682213332747765
20645476 183 17775284976154557255
20645477 70 18335423414019843594
21119208 17 17704073984278434929
21639500 275 18339919436844362340
23175994 123 18187655665295184460
23402539 116 14692286188761418121
23559900 14 16950277361572042658
3286 77 18261962933053596539
74978 22 18341614879574325642
77492 1 17704357671126451218
81228 2 15806888364431260027

>  <PUBCHEM_SHAPE_MULTIPOLES>  (1) 
280.23
7.21
1.4
1.27
1.46
0.79
-0.14
-0.21
-0.61
1.53
0.07
-1.51
-0.09
0.21

>  <PUBCHEM_SHAPE_SELFOVERLAP>  (1) 
594.057

>  <PUBCHEM_SHAPE_VOLUME>  (1) 
154

>  <PUBCHEM_COORDINATE_TYPE>  (1) 
2
5
10

$$$$
