20544
     RDKit          3D

 10  9  0  0  0  0  0  0  0  0999 V2000
    1.6512   -1.1080   -0.0009 S   0  0  0  0  0  0  0  0  0  0  0  0
    2.6599    1.3363   -0.0006 O   0  0  0  0  0  0  0  0  0  0  0  0
   -2.3333    0.0248    0.0003 N   0  0  0  0  0  0  0  0  0  0  0  0
   -1.1152   -0.8875    0.0122 C   0  0  0  0  0  0  0  0  0  0  0  0
   -2.2683    0.9422   -1.2123 C   0  0  0  0  0  0  0  0  0  0  0  0
   -3.5980   -0.8189   -0.0691 C   0  0  0  0  0  0  0  0  0  0  0  0
   -2.3518    0.8633    1.2702 C   0  0  0  0  0  0  0  0  0  0  0  0
    0.1624   -0.0642   -0.0014 C   0  0  0  0  0  0  0  0  0  0  0  0
    2.8991    0.1348    0.0004 C   0  0  0  0  0  0  0  0  0  0  0  0
    4.2941   -0.4229    0.0011 C   0  0  0  0  0  0  0  0  0  0  0  0
  1  8  1  0
  1  9  1  0
  2  9  2  0
  3  4  1  0
  3  5  1  0
  3  6  1  0
  3  7  1  0
  4  8  1  0
  9 10  1  0
M  CHG  1   3   1
M  END
>  <PUBCHEM_COMPOUND_CID>  (1) 
20544

>  <PUBCHEM_CONFORMER_RMSD>  (1) 
0.6

>  <PUBCHEM_CONFORMER_DIVERSEORDER>  (1) 
1
7
6
4
2
5
3
8

>  <PUBCHEM_MMFF94_PARTIAL_CHARGES>  (1) 
10
1 -0.37
10 0.06
2 -0.57
3 -1.01
4 0.5
5 0.5
6 0.5
7 0.5
8 0.23
9 0.65

>  <PUBCHEM_EFFECTIVE_ROTOR_COUNT>  (1) 
4

>  <PUBCHEM_PHARMACOPHORE_FEATURES>  (1) 
1
1 3 cation

>  <PUBCHEM_HEAVY_ATOM_COUNT>  (1) 
10

>  <PUBCHEM_ATOM_DEF_STEREO_COUNT>  (1) 
0

>  <PUBCHEM_ATOM_UDEF_STEREO_COUNT>  (1) 
0

>  <PUBCHEM_BOND_DEF_STEREO_COUNT>  (1) 
0

>  <PUBCHEM_BOND_UDEF_STEREO_COUNT>  (1) 
0

>  <PUBCHEM_ISOTOPIC_ATOM_COUNT>  (1) 
0

>  <PUBCHEM_COMPONENT_COUNT>  (1) 
1

>  <PUBCHEM_CACTVS_TAUTO_COUNT>  (1) 
1

>  <PUBCHEM_CONFORMER_ID>  (1) 
0000504000000001

>  <PUBCHEM_MMFF94_ENERGY>  (1) 
26.3787

>  <PUBCHEM_FEATURE_SELFOVERLAP>  (1) 
5.074

>  <PUBCHEM_SHAPE_FINGERPRINT>  (1) 
11062470 55 8574716797200328930
12162725 195 18272937128419122208
124424 183 17603857867609886600
12932764 1 18113902624000412122
14144814 61 18341331106900849122
14325111 11 18410855468945034158
14390081 3 18187359913425175767
14577589 140 8286201656269194433
15310529 11 17060343985417157063
15775835 57 18260266313286361747
18186145 218 18413111632672345490
190213 19 17989205936652550326
20201158 50 18408040697750635378
20281407 28 11241970382402432094
20645464 45 18187089420833068571
21028194 46 18335421283293447982
22485316 2 11097853012578018378
23380061 127 17847059973849293811
23402539 116 17774995791516104943
3248919 1 18060133198219358006

>  <PUBCHEM_SHAPE_MULTIPOLES>  (1) 
198.79
7.25
1.23
0.93
3.95
0.07
0.03
-0.08
-0.01
-0.07
-0.02
-0.74
0.27
-0.02

>  <PUBCHEM_SHAPE_SELFOVERLAP>  (1) 
347.177

>  <PUBCHEM_SHAPE_VOLUME>  (1) 
134.5

>  <PUBCHEM_COORDINATE_TYPE>  (1) 
2
5
10

$$$$
