20555
     RDKit          3D

 11 11  0  0  0  0  0  0  0  0999 V2000
   -0.6647    2.7948    0.0003 Br  0  0  0  0  0  0  0  0  0  0  0  0
   -2.1218   -0.0479   -0.0001 C   0  0  0  0  0  0  0  0  0  0  0  0
   -0.6275   -0.0873    0.0007 C   0  0  0  0  0  0  0  0  0  0  0  0
   -2.7251   -0.6944    1.2597 C   0  0  0  0  0  0  0  0  0  0  0  0
   -2.7239   -0.6929   -1.2612 C   0  0  0  0  0  0  0  0  0  0  0  0
    0.1400    1.0774    0.0004 C   0  0  0  0  0  0  0  0  0  0  0  0
   -0.0026   -1.3344    0.0005 C   0  0  0  0  0  0  0  0  0  0  0  0
    2.1573   -0.2521    0.0000 C   0  0  0  0  0  0  0  0  0  0  0  0
    1.5324    0.9950    0.0002 C   0  0  0  0  0  0  0  0  0  0  0  0
    1.3898   -1.4169    0.0001 C   0  0  0  0  0  0  0  0  0  0  0  0
    3.6461   -0.3413   -0.0008 C   0  0  0  0  0  0  0  0  0  0  0  0
  1  6  1  0
  2  3  1  0
  2  4  1  0
  2  5  1  0
  3  6  2  0
  3  7  1  0
  6  9  1  0
  7 10  2  0
  8  9  2  0
  8 10  1  0
  8 11  1  0
M  END
>  <PUBCHEM_COMPOUND_CID>  (1) 
20555

>  <PUBCHEM_CONFORMER_RMSD>  (1) 
0.4

>  <PUBCHEM_CONFORMER_DIVERSEORDER>  (1) 
1
2

>  <PUBCHEM_MMFF94_PARTIAL_CHARGES>  (1) 
12
1 -0.11
10 -0.15
11 0.14
19 0.15
2 0.14
20 0.15
21 0.15
3 -0.14
6 0.11
7 -0.15
8 -0.14
9 -0.15

>  <PUBCHEM_EFFECTIVE_ROTOR_COUNT>  (1) 
1

>  <PUBCHEM_PHARMACOPHORE_FEATURES>  (1) 
3
1 1 hydrophobe
3 2 4 5 hydrophobe
6 3 6 7 8 9 10 rings

>  <PUBCHEM_HEAVY_ATOM_COUNT>  (1) 
11

>  <PUBCHEM_ATOM_DEF_STEREO_COUNT>  (1) 
0

>  <PUBCHEM_ATOM_UDEF_STEREO_COUNT>  (1) 
0

>  <PUBCHEM_BOND_DEF_STEREO_COUNT>  (1) 
0

>  <PUBCHEM_BOND_UDEF_STEREO_COUNT>  (1) 
0

>  <PUBCHEM_ISOTOPIC_ATOM_COUNT>  (1) 
0

>  <PUBCHEM_COMPONENT_COUNT>  (1) 
1

>  <PUBCHEM_CACTVS_TAUTO_COUNT>  (1) 
1

>  <PUBCHEM_CONFORMER_ID>  (1) 
0000504B00000001

>  <PUBCHEM_MMFF94_ENERGY>  (1) 
28.817

>  <PUBCHEM_FEATURE_SELFOVERLAP>  (1) 
15.223

>  <PUBCHEM_SHAPE_FINGERPRINT>  (1) 
10219947 1 18412267267470848530
10353120 184 18337128790422944254
11206711 2 18337673014477470620
12032990 46 18409176523342937698
12423570 1 12831693745867676225
12932764 1 17989202603916301154
13380535 21 17907876010870947036
13380535 76 17833824980529189372
14128692 85 17773581905425435023
14993402 34 18272927262652591686
16945 1 18410856564272503394
17844478 74 17967823768460736387
18534176 82 17167855370637144047
193761 8 17834394518999339970
20201158 50 18259701194501270907
20871998 184 18199473164309180117
21061003 4 18335432304274403873
21501502 16 18049155575638605338
23402539 116 18341321237208408366
23402655 69 18194665009379168805
23552423 10 18045507413258853118
241688 4 18269825557551376193
2748010 2 18122908904395765926
29004967 10 18335145297121391995
5084963 1 17988635324287594906
528886 8 18411696578107711747
63268167 104 18269549618951144117
81228 2 18264488377823823481

>  <PUBCHEM_SHAPE_MULTIPOLES>  (1) 
232.32
4.4
2.14
0.91
1.52
1.92
0
-1.52
0
-0.46
0
-0.77
-0.2
0

>  <PUBCHEM_SHAPE_SELFOVERLAP>  (1) 
459.018

>  <PUBCHEM_SHAPE_VOLUME>  (1) 
141.7

>  <PUBCHEM_COORDINATE_TYPE>  (1) 
2
5
10

$$$$
