20552
     RDKit          3D

 44 48  0  0  0  0  0  0  0  0999 V2000
    6.0410   -2.8463    1.4569 S   0  0  0  0  0  0  0  0  0  0  0  0
   -6.0362   -2.7725   -1.5027 S   0  0  0  0  0  0  0  0  0  0  0  0
    2.6431    3.1866   -0.5595 O   0  0  0  0  0  0  0  0  0  0  0  0
   -2.5785    3.2072    0.5720 O   0  0  0  0  0  0  0  0  0  0  0  0
    5.0000   -2.7457    2.7106 O   0  0  0  0  0  0  0  0  0  0  0  0
   -7.6075   -2.4458   -1.2033 O   0  0  0  0  0  0  0  0  0  0  0  0
    6.2412   -4.2577    1.1765 O   0  0  0  0  0  0  0  0  0  0  0  0
    7.1666   -1.9695    1.7262 O   0  0  0  0  0  0  0  0  0  0  0  0
   -5.6568   -2.0150   -2.6829 O   0  0  0  0  0  0  0  0  0  0  0  0
   -5.8496   -4.2113   -1.4445 O   0  0  0  0  0  0  0  0  0  0  0  0
    2.7639    0.5799   -0.5995 N   0  0  0  0  0  0  0  0  0  0  0  0
   -2.7255    0.6016    0.5859 N   0  0  0  0  0  0  0  0  0  0  0  0
    0.7081    1.8814   -0.1483 C   0  0  0  0  0  0  0  0  0  0  0  0
   -0.6568    1.8868    0.1469 C   0  0  0  0  0  0  0  0  0  0  0  0
    1.3846    0.6652   -0.3013 C   0  0  0  0  0  0  0  0  0  0  0  0
   -1.3453    0.6760    0.2885 C   0  0  0  0  0  0  0  0  0  0  0  0
    3.6291   -0.5119   -0.7915 C   0  0  0  0  0  0  0  0  0  0  0  0
   -3.6014   -0.4833    0.7677 C   0  0  0  0  0  0  0  0  0  0  0  0
    1.4466    3.1516   -0.3012 C   0  0  0  0  0  0  0  0  0  0  0  0
   -1.3828    3.1627    0.3116 C   0  0  0  0  0  0  0  0  0  0  0  0
    4.3198   -1.0682    0.2906 C   0  0  0  0  0  0  0  0  0  0  0  0
   -4.2976   -1.0226   -0.3196 C   0  0  0  0  0  0  0  0  0  0  0  0
    0.7207    4.4274   -0.1366 C   0  0  0  0  0  0  0  0  0  0  0  0
   -0.6442    4.4328    0.1590 C   0  0  0  0  0  0  0  0  0  0  0  0
    0.6947   -0.5391   -0.1592 C   0  0  0  0  0  0  0  0  0  0  0  0
   -0.6674   -0.5337    0.1350 C   0  0  0  0  0  0  0  0  0  0  0  0
    3.8066   -1.0509   -2.0703 C   0  0  0  0  0  0  0  0  0  0  0  0
   -3.7843   -1.0326    2.0413 C   0  0  0  0  0  0  0  0  0  0  0  0
    5.1778   -2.1506    0.0961 C   0  0  0  0  0  0  0  0  0  0  0  0
   -5.1663   -2.0982   -0.1353 C   0  0  0  0  0  0  0  0  0  0  0  0
    5.3503   -2.6831   -1.1815 C   0  0  0  0  0  0  0  0  0  0  0  0
   -5.3441   -2.6410    1.1373 C   0  0  0  0  0  0  0  0  0  0  0  0
    4.6647   -2.1331   -2.2647 C   0  0  0  0  0  0  0  0  0  0  0  0
   -4.6532   -2.1081    2.2255 C   0  0  0  0  0  0  0  0  0  0  0  0
    4.1286   -0.4916    1.6592 C   0  0  0  0  0  0  0  0  0  0  0  0
   -4.1005   -0.4350   -1.6827 C   0  0  0  0  0  0  0  0  0  0  0  0
    1.4090    5.6382   -0.2789 C   0  0  0  0  0  0  0  0  0  0  0  0
   -1.3207    5.6490    0.3122 C   0  0  0  0  0  0  0  0  0  0  0  0
    3.0864   -0.4823   -3.2499 C   0  0  0  0  0  0  0  0  0  0  0  0
   -3.0586   -0.4824    3.2262 C   0  0  0  0  0  0  0  0  0  0  0  0
    6.2600   -3.8425   -1.4288 C   0  0  0  0  0  0  0  0  0  0  0  0
   -6.2653   -3.7937    1.3736 C   0  0  0  0  0  0  0  0  0  0  0  0
    0.7310    6.8478   -0.1254 C   0  0  0  0  0  0  0  0  0  0  0  0
   -0.6309    6.8533    0.1693 C   0  0  0  0  0  0  0  0  0  0  0  0
  1  5  1  0
  1  7  2  0
  1  8  2  0
  1 29  1  0
  2  6  1  0
  2  9  2  0
  2 10  2  0
  2 30  1  0
  3 19  2  0
  4 20  2  0
 11 15  1  0
 11 17  1  0
 12 16  1  0
 12 18  1  0
 13 14  2  0
 13 15  1  0
 13 19  1  0
 14 16  1  0
 14 20  1  0
 15 25  2  0
 16 26  2  0
 17 21  2  0
 17 27  1  0
 18 22  2  0
 18 28  1  0
 19 23  1  0
 20 24  1  0
 21 29  1  0
 21 35  1  0
 22 30  1  0
 22 36  1  0
 23 24  2  0
 23 37  1  0
 24 38  1  0
 25 26  1  0
 27 33  2  0
 27 39  1  0
 28 34  2  0
 28 40  1  0
 29 31  2  0
 30 32  2  0
 31 33  1  0
 31 41  1  0
 32 34  1  0
 32 42  1  0
 37 43  2  0
 38 44  2  0
 43 44  1  0
M  END
>  <PUBCHEM_COMPOUND_CID>  (1) 
20552

>  <PUBCHEM_CONFORMER_RMSD>  (1) 
1

>  <PUBCHEM_CONFORMER_DIVERSEORDER>  (1) 
3
7
14
2
10
13
5
4
11
8
6
9
1
12

>  <PUBCHEM_MMFF94_PARTIAL_CHARGES>  (1) 
56
1 1.49
10 -0.65
11 -0.6
12 -0.6
13 0.09
14 0.09
15 0.1
16 0.1
17 0.1
18 0.1
19 0.4
2 1.49
20 0.4
21 -0.14
22 -0.14
23 0.09
24 0.09
25 -0.15
26 -0.15
27 -0.14
28 -0.14
29 -0.01
3 -0.57
30 -0.01
31 -0.14
32 -0.14
33 -0.15
34 -0.15
35 0.14
36 0.14
37 -0.15
38 -0.15
39 0.14
4 -0.57
40 0.14
41 0.14
42 0.14
43 -0.15
44 -0.15
45 0.4
46 0.4
47 0.15
48 0.15
49 0.15
5 -0.68
50 0.15
57 0.15
58 0.15
6 -0.68
7 -0.65
71 0.15
72 0.15
73 0.5
74 0.5
8 -0.65
9 -0.65

>  <PUBCHEM_EFFECTIVE_ROTOR_COUNT>  (1) 
6

>  <PUBCHEM_PHARMACOPHORE_FEATURES>  (1) 
19
1 10 acceptor
1 11 cation
1 11 donor
1 12 cation
1 12 donor
1 3 acceptor
1 4 acceptor
1 5 acceptor
1 6 acceptor
1 7 acceptor
1 8 acceptor
1 9 acceptor
4 1 5 7 8 anion
4 2 6 9 10 anion
6 13 14 15 16 25 26 rings
6 13 14 19 20 23 24 rings
6 17 21 27 29 31 33 rings
6 18 22 28 30 32 34 rings
6 23 24 37 38 43 44 rings

>  <PUBCHEM_HEAVY_ATOM_COUNT>  (1) 
44

>  <PUBCHEM_ATOM_DEF_STEREO_COUNT>  (1) 
0

>  <PUBCHEM_ATOM_UDEF_STEREO_COUNT>  (1) 
0

>  <PUBCHEM_BOND_DEF_STEREO_COUNT>  (1) 
0

>  <PUBCHEM_BOND_UDEF_STEREO_COUNT>  (1) 
0

>  <PUBCHEM_ISOTOPIC_ATOM_COUNT>  (1) 
0

>  <PUBCHEM_COMPONENT_COUNT>  (1) 
1

>  <PUBCHEM_CACTVS_TAUTO_COUNT>  (1) 
6

>  <PUBCHEM_CONFORMER_ID>  (1) 
0000504800000003

>  <PUBCHEM_MMFF94_ENERGY>  (1) 
188.7232

>  <PUBCHEM_FEATURE_SELFOVERLAP>  (1) 
96.583

>  <PUBCHEM_SHAPE_FINGERPRINT>  (1) 
10411042 1 18338811060235340764
10622 236 18114473249530071974
11062273 23 17910125615793372960
11135926 11 17765722708427796981
11136131 41 17979347895771336833
11331351 85 18272663324702889337
11763715 3 18120969215450264228
11991303 11 17754184080833748813
12106331 60 18337119960224385150
12422481 6 17346330253931075343
12633046 712 18043270100649445403
13782708 43 17986954060189778742
14068700 675 18335976489193955343
15200665 1 17906749006973335096
15320294 125 17319595478525798640
15484559 13 17621611930951649668
15790856 291 18194126205589818269
18470217 77 18197204867974718656
19311894 1 18338239250439919977
20691028 202 8790885198464133191
21133410 58 18267572689004063015
22311459 1 18049450244402142449
23569914 152 18194088912783984391
32027 91 18264208174848529067
3383291 50 17905894673443479137
3504750 166 18195524783916053506
3882209 13 18338782472975301081
4046055 4 18336824191316717716
50009960 94 18188473715290497458
6058803 2 17770808959282090993
613672 6 18410845564523531298
6673363 416 18267887051299252796
6691757 9 17761492487653222440
6695519 79 16900762294081093361
6697151 62 18337094774735984687
6700243 42 17554091720747899196

>  <PUBCHEM_SHAPE_MULTIPOLES>  (1) 
856.28
16.74
9.42
2.42
1.32
20.7
-0.01
-34.58
0.24
-0.46
-0.11
-0.1
-2.99
-1.84

>  <PUBCHEM_SHAPE_SELFOVERLAP>  (1) 
1879.516

>  <PUBCHEM_SHAPE_VOLUME>  (1) 
466.4

>  <PUBCHEM_COORDINATE_TYPE>  (1) 
2
5
10

$$$$
