20554
     RDKit          3D

 17 18  0  0  0  0  0  0  0  0999 V2000
    1.6943   -2.2388    0.6507 O   0  0  0  0  0  0  0  0  0  0  0  0
   -2.7362   -0.2229   -0.4548 N   0  0  0  0  0  0  0  0  0  0  0  0
   -3.0233   -0.4575    0.9673 C   0  0  0  0  0  0  0  0  0  0  0  0
   -3.9377    0.2264   -1.1722 C   0  0  0  0  0  0  0  0  0  0  0  0
   -3.5460    0.8120    1.6417 C   0  0  0  0  0  0  0  0  0  0  0  0
   -4.4904    1.5180   -0.5678 C   0  0  0  0  0  0  0  0  0  0  0  0
   -4.7740    1.3568    0.9213 C   0  0  0  0  0  0  0  0  0  0  0  0
   -2.1932   -1.4319   -1.0735 C   0  0  0  0  0  0  0  0  0  0  0  0
   -0.8855   -1.8344   -0.3888 C   0  0  0  0  0  0  0  0  0  0  0  0
    0.1817   -0.7408   -0.4862 C   0  0  0  0  0  0  0  0  0  0  0  0
    1.5186   -1.1452    0.1189 C   0  0  0  0  0  0  0  0  0  0  0  0
    2.6566   -0.1854    0.0421 C   0  0  0  0  0  0  0  0  0  0  0  0
    2.4571    1.0304   -0.5727 C   0  0  0  0  0  0  0  0  0  0  0  0
    3.8659   -0.5502    0.5908 C   0  0  0  0  0  0  0  0  0  0  0  0
    3.5221    1.9285   -0.6423 C   0  0  0  0  0  0  0  0  0  0  0  0
    4.9309    0.3479    0.5211 C   0  0  0  0  0  0  0  0  0  0  0  0
    4.7591    1.5872   -0.0955 C   0  0  0  0  0  0  0  0  0  0  0  0
  1 11  2  0
  2  3  1  0
  2  4  1  0
  2  8  1  0
  3  5  1  0
  4  6  1  0
  5  7  1  0
  6  7  1  0
  8  9  1  0
  9 10  1  0
 10 11  1  0
 11 12  1  0
 12 13  2  0
 12 14  1  0
 13 15  1  0
 14 16  2  0
 15 17  2  0
 16 17  1  0
M  END
>  <PUBCHEM_COMPOUND_CID>  (1) 
20554

>  <PUBCHEM_CONFORMER_RMSD>  (1) 
0.8

>  <PUBCHEM_CONFORMER_DIVERSEORDER>  (1) 
1
61
7
29
43
18
23
38
31
50
37
12
51
56
10
45
52
19
33
55
63
32
64
48
3
4
13
28
60
2
54
27
62
59
35
6
25
49
36
14
44
26
22
30
53
41
20
21
16
5
58
39
42
11
47
15
34
24
8
46
17
9
57
40

>  <PUBCHEM_MMFF94_PARTIAL_CHARGES>  (1) 
18
1 -0.57
10 0.06
11 0.42
12 0.09
13 -0.15
14 -0.15
15 -0.15
16 -0.15
17 -0.15
2 -0.81
3 0.27
34 0.15
35 0.15
36 0.15
37 0.15
38 0.15
4 0.27
8 0.27

>  <PUBCHEM_EFFECTIVE_ROTOR_COUNT>  (1) 
6.2

>  <PUBCHEM_PHARMACOPHORE_FEATURES>  (1) 
4
1 1 acceptor
1 2 cation
6 12 13 14 15 16 17 rings
6 2 3 4 5 6 7 rings

>  <PUBCHEM_HEAVY_ATOM_COUNT>  (1) 
17

>  <PUBCHEM_ATOM_DEF_STEREO_COUNT>  (1) 
0

>  <PUBCHEM_ATOM_UDEF_STEREO_COUNT>  (1) 
0

>  <PUBCHEM_BOND_DEF_STEREO_COUNT>  (1) 
0

>  <PUBCHEM_BOND_UDEF_STEREO_COUNT>  (1) 
0

>  <PUBCHEM_ISOTOPIC_ATOM_COUNT>  (1) 
0

>  <PUBCHEM_COMPONENT_COUNT>  (1) 
1

>  <PUBCHEM_CACTVS_TAUTO_COUNT>  (1) 
2

>  <PUBCHEM_CONFORMER_ID>  (1) 
0000504A00000001

>  <PUBCHEM_MMFF94_ENERGY>  (1) 
26.8527

>  <PUBCHEM_FEATURE_SELFOVERLAP>  (1) 
20.297

>  <PUBCHEM_SHAPE_FINGERPRINT>  (1) 
10465860 228 18410576171838794806
10498660 4 17203891842604319713
11089746 13 17846206774818005952
11370993 144 17168140096576868363
11552529 35 16951981754043160858
12670546 177 14117507774899781440
13103583 49 12396590577056538197
13583140 156 15430579766874247654
13675066 3 17313101938644651878
13887833 79 15482400776103950580
14123255 352 18412825802150507773
14123255 52 18410575088989909143
14123260 362 18060422413048668587
1420 369 10881402036531548665
14576447 43 9799692606322063808
15188451 53 15502667048274758841
15239191 94 10809342247738763759
15342168 16 18200320914335114485
15342816 4 9367077683362907272
15880784 105 13262686932246882108
1741750 31 18272653475757251711
17834072 32 18413673521478830749
1798214 20 9511461100119186649
18186145 218 18336267929133232766
19784866 9 18335698326027329402
20157964 124 18263637378084069487
21065199 12 17748831782857126347
21503847 285 18336270054994253578
21713013 43 12751227096023234349
231179 274 18408886217802423966
23402539 116 17132113537673819256
23402655 69 18342738559431345940
23403322 49 9511460018177792149
235170 7 14333411137989423177
27216 239 18260834808707096579
3268164 11 16486968501580633917
3472631 163 17775288248941040613
4028521 119 17346598564959272937
4259306 186 10231753383799772745
474 4 18408602560866431730
4921388 177 14836121091930390933
5104073 3 18115579487287175848
5924683 9 17313392291941386067
633830 44 18410012169713383950
76465 3 10809346658886435063
7970288 3 7925909270732829801

>  <PUBCHEM_SHAPE_MULTIPOLES>  (1) 
339
11.73
2.04
1.19
0.38
0.19
-0.16
-6.83
-1.23
0.32
0.13
-1.2
-0.12
-1.09

>  <PUBCHEM_SHAPE_SELFOVERLAP>  (1) 
694.997

>  <PUBCHEM_SHAPE_VOLUME>  (1) 
195.1

>  <PUBCHEM_COORDINATE_TYPE>  (1) 
2
5
10

$$$$
