20561
     RDKit          3D

 26 28  0  0  0  0  0  0  0  0999 V2000
   10.0170   -0.7397   -0.5450 Cl  0  0  0  0  0  0  0  0  0  0  0  0
   -2.2238    0.2867    0.2426 O   0  0  0  0  0  0  0  0  0  0  0  0
   -3.0049   -1.7519    0.9985 O   0  0  0  0  0  0  0  0  0  0  0  0
    1.4228    0.7331    0.5394 N   0  0  0  0  0  0  0  0  0  0  0  0
    4.2027    0.3231    0.0258 N   0  0  0  0  0  0  0  0  0  0  0  0
    1.8717   -0.4374   -0.2249 C   0  0  0  0  0  0  0  0  0  0  0  0
    2.3049    1.8747    0.2683 C   0  0  0  0  0  0  0  0  0  0  0  0
    3.3009   -0.8281    0.1583 C   0  0  0  0  0  0  0  0  0  0  0  0
    3.7491    1.5611    0.6668 C   0  0  0  0  0  0  0  0  0  0  0  0
    0.0381    1.0636    0.2049 C   0  0  0  0  0  0  0  0  0  0  0  0
    5.5729    0.0729   -0.1089 C   0  0  0  0  0  0  0  0  0  0  0  0
   -0.8906   -0.0840    0.5681 C   0  0  0  0  0  0  0  0  0  0  0  0
    6.4973    0.5716    0.8305 C   0  0  0  0  0  0  0  0  0  0  0  0
    6.0693   -0.6853   -1.1879 C   0  0  0  0  0  0  0  0  0  0  0  0
    7.8632    0.3222    0.6963 C   0  0  0  0  0  0  0  0  0  0  0  0
    7.4352   -0.9347   -1.3221 C   0  0  0  0  0  0  0  0  0  0  0  0
    8.3320   -0.4311   -0.3800 C   0  0  0  0  0  0  0  0  0  0  0  0
   -3.1829   -0.6465    0.5120 C   0  0  0  0  0  0  0  0  0  0  0  0
   -4.4932   -0.0847    0.1087 C   0  0  0  0  0  0  0  0  0  0  0  0
   -5.6054   -0.8120    0.2895 C   0  0  0  0  0  0  0  0  0  0  0  0
   -6.9187   -0.3503   -0.0526 C   0  0  0  0  0  0  0  0  0  0  0  0
   -7.0946    0.7032   -0.9662 C   0  0  0  0  0  0  0  0  0  0  0  0
   -8.0594   -0.9412    0.5176 C   0  0  0  0  0  0  0  0  0  0  0  0
   -8.3725    1.1524   -1.2996 C   0  0  0  0  0  0  0  0  0  0  0  0
   -9.3373   -0.4923    0.1842 C   0  0  0  0  0  0  0  0  0  0  0  0
   -9.4937    0.5546   -0.7244 C   0  0  0  0  0  0  0  0  0  0  0  0
  1 17  1  0
  2 12  1  0
  2 18  1  0
  3 18  2  0
  4  6  1  0
  4  7  1  0
  4 10  1  0
  5  8  1  0
  5  9  1  0
  5 11  1  0
  6  8  1  0
  7  9  1  0
 10 12  1  0
 11 13  2  0
 11 14  1  0
 13 15  1  0
 14 16  2  0
 15 17  2  0
 16 17  1  0
 18 19  1  0
 19 20  2  0
 20 21  1  0
 21 22  2  0
 21 23  1  0
 22 24  1  0
 23 25  2  0
 24 26  2  0
 25 26  1  0
M  END
>  <PUBCHEM_COMPOUND_CID>  (1) 
20561

>  <PUBCHEM_CONFORMER_RMSD>  (1) 
1

>  <PUBCHEM_CONFORMER_DIVERSEORDER>  (1) 
1
58
38
23
41
56
18
7
32
33
57
8
40
19
28
15
37
17
3
16
43
42
25
39
47
20
10
22
14
36
51
49
34
5
13
54
6
29
53
48
45
50
30
4
11
44
26
52
31
55
12
35
24
21
27
46
2
9

>  <PUBCHEM_MMFF94_PARTIAL_CHARGES>  (1) 
37
1 -0.18
10 0.27
11 0.1
12 0.28
13 -0.15
14 -0.15
15 -0.15
16 -0.15
17 0.18
18 0.71
19 -0.14
2 -0.43
20 -0.18
21 0.03
22 -0.15
23 -0.15
24 -0.15
25 -0.15
26 -0.15
3 -0.57
39 0.15
4 -0.81
40 0.15
41 0.15
42 0.15
43 0.15
44 0.15
45 0.15
46 0.15
47 0.15
48 0.15
49 0.15
5 -0.84
6 0.27
7 0.27
8 0.37
9 0.37

>  <PUBCHEM_EFFECTIVE_ROTOR_COUNT>  (1) 
8.2

>  <PUBCHEM_PHARMACOPHORE_FEATURES>  (1) 
6
1 3 acceptor
1 4 cation
1 5 cation
6 11 13 14 15 16 17 rings
6 21 22 23 24 25 26 rings
6 4 5 6 7 8 9 rings

>  <PUBCHEM_HEAVY_ATOM_COUNT>  (1) 
26

>  <PUBCHEM_ATOM_DEF_STEREO_COUNT>  (1) 
0

>  <PUBCHEM_ATOM_UDEF_STEREO_COUNT>  (1) 
0

>  <PUBCHEM_BOND_DEF_STEREO_COUNT>  (1) 
0

>  <PUBCHEM_BOND_UDEF_STEREO_COUNT>  (1) 
1

>  <PUBCHEM_ISOTOPIC_ATOM_COUNT>  (1) 
0

>  <PUBCHEM_COMPONENT_COUNT>  (1) 
1

>  <PUBCHEM_CACTVS_TAUTO_COUNT>  (1) 
1

>  <PUBCHEM_CONFORMER_ID>  (1) 
0000505100000001

>  <PUBCHEM_MMFF94_ENERGY>  (1) 
76.7132

>  <PUBCHEM_FEATURE_SELFOVERLAP>  (1) 
30.45

>  <PUBCHEM_SHAPE_FINGERPRINT>  (1) 
10299344 5 16081083788386931001
106641 1 11959728270147714018
10666366 153 18411136926694701836
10670039 82 18341047437982399337
10674148 151 17676483973309980888
10883706 142 8214145145148834164
11135609 127 16878515648073548236
11408170 108 17131845222456071718
11638347 137 13110971903358486676
12089408 11 15791728611708142169
12643181 29 16343698864196396679
12838862 33 18272076202098363266
13885169 127 18273498944717838665
13974486 27 17968660536109233957
14040221 8 17895200978550230028
14117953 113 18410294717882883220
14150022 121 11311789358425522435
14216079 64 18273217478631417950
14251764 18 15864068776308706271
14251764 46 18410856559639802574
14294032 229 17314222264112057597
14428016 248 15285361712774810287
14617042 71 12180140790985308062
15065858 18 18343297080635227066
15183329 4 18411417298597741913
15247644 1 16343705426563729110
15419008 47 18409440389276235245
15461852 350 17530970211498047419
15510794 2 18411701027530469114
155225 1 12035453848668212262
15690457 1 16200431364355210302
15773216 30 17241319162975730826
16120349 18 17131828798907150976
18335252 98 9799697008431680529
20238998 120 18333449845918513357
21095086 128 14979961355023389540
21095123 145 15647061482566411273
21792934 111 18343294891357590400
21792961 116 18413109438002073313
22224240 67 12535629375211808284
232437 2 18334013899767427083
249057 3 18410856589715123151
28498 318 18342458140320277132
3092352 35 15647052676917954139
335352 9 18412829101159943462
33684 2 18131351907813723907
5219985 9 15554447401248787155
5283156 175 17060623299745625928
5758199 1 10881397638669829201
58083652 198 18059582420973537376
59520757 100 17895202168473007514
59521270 166 17894909603241008103
59682541 35 9871746897176706903
6081469 158 18408041793188809756
636775 8 17023191578885624899
67123 10 18410856572524691468
9663363 56 18412261741113931200
9953998 17 8214138565354012133

>  <PUBCHEM_SHAPE_MULTIPOLES>  (1) 
515.24
38.06
1.31
1.02
20.03
0.26
0.2
-5.25
8.86
-0.29
-0.08
0.1
-0.03
2.44

>  <PUBCHEM_SHAPE_SELFOVERLAP>  (1) 
1075.083

>  <PUBCHEM_SHAPE_VOLUME>  (1) 
291.7

>  <PUBCHEM_COORDINATE_TYPE>  (1) 
2
5
10

$$$$
