20576
     RDKit          3D

  9 10  0  0  1  0  0  0  0  0999 V2000
    0.7001   -0.2714   -0.3317 N   0  0  0  0  0  0  0  0  0  0  0  0
   -1.1197    1.0661    0.3491 C   0  0  0  0  0  0  0  0  0  0  0  0
   -0.4084   -1.0242    0.3035 C   0  0  0  0  0  0  0  0  0  0  0  0
   -0.9462   -0.0624    1.3572 C   0  0  0  0  0  0  0  0  0  0  0  0
   -2.0481    0.4227   -0.6964 C   0  0  0  0  0  0  0  0  0  0  0  0
   -1.5585   -1.0343   -0.7218 C   0  0  0  0  0  0  0  0  0  0  0  0
    0.3008    1.1522   -0.2254 C   0  0  0  0  0  0  0  0  0  0  0  0
    1.9847   -0.5255    0.3110 C   0  0  0  0  0  0  0  0  0  0  0  0
    3.0954    0.2767   -0.3455 C   0  0  0  0  0  0  0  0  0  0  0  0
  1  3  1  0
  1  7  1  0
  1  8  1  0
  2  4  1  0
  2  5  1  0
  2  7  1  0
  3  4  1  0
  3  6  1  0
  5  6  1  0
  8  9  1  0
M  END
>  <PUBCHEM_COMPOUND_CID>  (1) 
20576

>  <PUBCHEM_CONFORMER_RMSD>  (1) 
0.4

>  <PUBCHEM_CONFORMER_DIVERSEORDER>  (1) 
1
4
5
2
6
3

>  <PUBCHEM_MMFF94_PARTIAL_CHARGES>  (1) 
4
1 -0.81
3 0.27
7 0.27
8 0.27

>  <PUBCHEM_EFFECTIVE_ROTOR_COUNT>  (1) 
2

>  <PUBCHEM_PHARMACOPHORE_FEATURES>  (1) 
2
1 1 cation
7 1 2 3 4 5 6 7 rings

>  <PUBCHEM_HEAVY_ATOM_COUNT>  (1) 
9

>  <PUBCHEM_ATOM_DEF_STEREO_COUNT>  (1) 
0

>  <PUBCHEM_ATOM_UDEF_STEREO_COUNT>  (1) 
2

>  <PUBCHEM_BOND_DEF_STEREO_COUNT>  (1) 
0

>  <PUBCHEM_BOND_UDEF_STEREO_COUNT>  (1) 
0

>  <PUBCHEM_ISOTOPIC_ATOM_COUNT>  (1) 
0

>  <PUBCHEM_COMPONENT_COUNT>  (1) 
1

>  <PUBCHEM_CACTVS_TAUTO_COUNT>  (1) 
1

>  <PUBCHEM_CONFORMER_ID>  (1) 
0000506000000001

>  <PUBCHEM_MMFF94_ENERGY>  (1) 
20.8698

>  <PUBCHEM_FEATURE_SELFOVERLAP>  (1) 
10.148

>  <PUBCHEM_SHAPE_FINGERPRINT>  (1) 
12423570 1 12696716418868518987
12897270 3 18201714068070150462
13024252 1 17167867464842854827
14128692 85 17914606404759250215
16945 1 18131056122143003057
20645464 45 13406791129944272332
20653085 51 17896034343321954021
21040471 1 18126281943744468289
23552423 10 18263077880698901876
29004967 10 15502382201236991136
369184 2 16081088186275264336
5084963 1 17989486312244188322

>  <PUBCHEM_SHAPE_MULTIPOLES>  (1) 
180.23
3.22
1.2
1
2.76
0.06
0.21
0.09
-0.62
-0.28
-0.05
-0.35
-0.05
-0.16

>  <PUBCHEM_SHAPE_SELFOVERLAP>  (1) 
372.004

>  <PUBCHEM_SHAPE_VOLUME>  (1) 
108.8

>  <PUBCHEM_COORDINATE_TYPE>  (1) 
2
5
10

$$$$
