20578
     RDKit          3D

 16 16  0  0  0  0  0  0  0  0999 V2000
    0.9130    0.5887    0.0158 O   0  0  0  0  0  0  0  0  0  0  0  0
   -0.2508   -1.3799    0.0092 O   0  0  0  0  0  0  0  0  0  0  0  0
    4.6046    0.0434   -0.0074 N   0  0  0  0  0  0  0  0  0  0  0  0
   -1.3294    0.6978    0.0070 N   0  0  0  0  0  0  0  0  0  0  0  0
    3.3013    0.8285    0.0266 C   0  0  0  0  0  0  0  0  0  0  0  0
    4.6390   -0.8291   -1.2538 C   0  0  0  0  0  0  0  0  0  0  0  0
    5.7790    1.0112   -0.0330 C   0  0  0  0  0  0  0  0  0  0  0  0
    4.6994   -0.8366    1.2306 C   0  0  0  0  0  0  0  0  0  0  0  0
    2.1341   -0.1389    0.0206 C   0  0  0  0  0  0  0  0  0  0  0  0
   -0.2427   -0.1550    0.0102 C   0  0  0  0  0  0  0  0  0  0  0  0
   -2.7017    0.3589    0.0009 C   0  0  0  0  0  0  0  0  0  0  0  0
   -3.6506    1.3689   -0.0016 C   0  0  0  0  0  0  0  0  0  0  0  0
   -3.0718   -0.9766   -0.0016 C   0  0  0  0  0  0  0  0  0  0  0  0
   -5.0048    1.0347   -0.0070 C   0  0  0  0  0  0  0  0  0  0  0  0
   -4.4260   -1.3108   -0.0070 C   0  0  0  0  0  0  0  0  0  0  0  0
   -5.3926   -0.3052   -0.0096 C   0  0  0  0  0  0  0  0  0  0  0  0
  1  9  1  0
  1 10  1  0
  2 10  2  0
  3  5  1  0
  3  6  1  0
  3  7  1  0
  3  8  1  0
  4 10  1  0
  4 11  1  0
  5  9  1  0
 11 12  2  0
 11 13  1  0
 12 14  1  0
 13 15  2  0
 14 16  2  0
 15 16  1  0
M  CHG  1   3   1
M  END
>  <PUBCHEM_COMPOUND_CID>  (1) 
20578

>  <PUBCHEM_CONFORMER_RMSD>  (1) 
0.8

>  <PUBCHEM_CONFORMER_DIVERSEORDER>  (1) 
1
13
7
10
12
2
11
8
3
14
9
15
4
5
6

>  <PUBCHEM_MMFF94_PARTIAL_CHARGES>  (1) 
22
1 -0.43
10 0.78
11 0.12
12 -0.15
13 -0.15
14 -0.15
15 -0.15
16 -0.15
2 -0.57
3 -1.01
30 0.37
31 0.15
32 0.15
33 0.15
34 0.15
35 0.15
4 -0.55
5 0.5
6 0.5
7 0.5
8 0.5
9 0.28

>  <PUBCHEM_EFFECTIVE_ROTOR_COUNT>  (1) 
6

>  <PUBCHEM_PHARMACOPHORE_FEATURES>  (1) 
4
1 2 acceptor
1 3 cation
1 4 donor
6 11 12 13 14 15 16 rings

>  <PUBCHEM_HEAVY_ATOM_COUNT>  (1) 
16

>  <PUBCHEM_ATOM_DEF_STEREO_COUNT>  (1) 
0

>  <PUBCHEM_ATOM_UDEF_STEREO_COUNT>  (1) 
0

>  <PUBCHEM_BOND_DEF_STEREO_COUNT>  (1) 
0

>  <PUBCHEM_BOND_UDEF_STEREO_COUNT>  (1) 
0

>  <PUBCHEM_ISOTOPIC_ATOM_COUNT>  (1) 
0

>  <PUBCHEM_COMPONENT_COUNT>  (1) 
1

>  <PUBCHEM_CACTVS_TAUTO_COUNT>  (1) 
2

>  <PUBCHEM_CONFORMER_ID>  (1) 
0000506200000001

>  <PUBCHEM_MMFF94_ENERGY>  (1) 
51.199

>  <PUBCHEM_FEATURE_SELFOVERLAP>  (1) 
20.297

>  <PUBCHEM_SHAPE_FINGERPRINT>  (1) 
10912923 1 18186238424676755544
11287383 113 18343584061992093608
12107183 9 17541087676097725448
12236239 1 17967530172812035904
12916748 109 18411985749776619016
13167823 11 18333446543087856906
13533116 47 17603860062718146170
13675066 3 17917989486142241484
14123238 8 18343864428830260172
1420 363 18334300881234875259
14251718 22 18411420639565339568
14573314 32 18201444648892592492
17834072 33 18259983781847858194
17834076 25 15647051573269691713
17844677 252 18341901783363656088
19489759 90 18407758136284264513
200 152 17346881143705609809
20281389 69 17968094184208481069
20645477 70 17632305528014153646
21267235 1 18337116756700157595
220451 1 18041003924999789706
2297311 6 18271816717665321053
23402539 116 18413383250593558597
23536379 177 18334856104362724632
23557571 272 18129953277520976605
23559900 14 18271239516599091640
239999 70 18202006508721198054
2916195 48 18271518788700632672
300161 21 17967525774797160288
3004659 81 18335704906497735078
34797466 226 17988370350839226708
3545911 37 18411420592579103717
4214541 1 18410855451923569929
42788 4 18410856568498866436
4990 188 18343588421431443422
5104073 3 18410293648420468961
522135 26 17313104142690627962
542803 24 18410575089079514940
57483677 66 18408602560887459234
90127 26 18335150790801392464

>  <PUBCHEM_SHAPE_MULTIPOLES>  (1) 
307.57
14.93
1.33
0.8
6.02
0.04
0.01
-0.68
0.08
-0.61
0
0.96
0.17
-0.01

>  <PUBCHEM_SHAPE_SELFOVERLAP>  (1) 
614.846

>  <PUBCHEM_SHAPE_VOLUME>  (1) 
183.6

>  <PUBCHEM_COORDINATE_TYPE>  (1) 
2
5
10

$$$$
