20575
     RDKit          3D

  9 10  0  0  1  0  0  0  0  0999 V2000
   -1.0158   -0.0710   -0.0591 N   0  0  0  0  0  0  0  0  0  0  0  0
    0.0833   -0.1433    1.0520 C   0  0  0  0  0  0  0  0  0  0  0  0
    1.1400    0.8231   -0.6521 C   0  0  0  0  0  0  0  0  0  0  0  0
    0.8630    1.1510    0.8107 C   0  0  0  0  0  0  0  0  0  0  0  0
   -0.2786    0.6552   -1.2115 C   0  0  0  0  0  0  0  0  0  0  0  0
    1.1429   -1.1876    0.6688 C   0  0  0  0  0  0  0  0  0  0  0  0
    1.8221   -0.5528   -0.5527 C   0  0  0  0  0  0  0  0  0  0  0  0
   -2.2052    0.7523    0.4371 C   0  0  0  0  0  0  0  0  0  0  0  0
   -1.5518   -1.4269   -0.4932 C   0  0  0  0  0  0  0  0  0  0  0  0
  1  2  1  0
  1  5  1  0
  1  8  1  0
  1  9  1  0
  2  4  1  0
  2  6  1  0
  3  4  1  0
  3  5  1  0
  3  7  1  0
  6  7  1  0
M  CHG  1   1   1
M  END
>  <PUBCHEM_COMPOUND_CID>  (1) 
20575

>  <PUBCHEM_CONFORMER_RMSD>  (1) 
0.4

>  <PUBCHEM_CONFORMER_DIVERSEORDER>  (1) 
1
2

>  <PUBCHEM_MMFF94_PARTIAL_CHARGES>  (1) 
5
1 -1.01
2 0.5
5 0.5
8 0.5
9 0.5

>  <PUBCHEM_EFFECTIVE_ROTOR_COUNT>  (1) 
1

>  <PUBCHEM_PHARMACOPHORE_FEATURES>  (1) 
2
1 1 cation
7 1 2 3 4 5 6 7 rings

>  <PUBCHEM_HEAVY_ATOM_COUNT>  (1) 
9

>  <PUBCHEM_ATOM_DEF_STEREO_COUNT>  (1) 
0

>  <PUBCHEM_ATOM_UDEF_STEREO_COUNT>  (1) 
2

>  <PUBCHEM_BOND_DEF_STEREO_COUNT>  (1) 
0

>  <PUBCHEM_BOND_UDEF_STEREO_COUNT>  (1) 
0

>  <PUBCHEM_ISOTOPIC_ATOM_COUNT>  (1) 
0

>  <PUBCHEM_COMPONENT_COUNT>  (1) 
1

>  <PUBCHEM_CACTVS_TAUTO_COUNT>  (1) 
1

>  <PUBCHEM_CONFORMER_ID>  (1) 
0000505F00000001

>  <PUBCHEM_MMFF94_ENERGY>  (1) 
37.1542

>  <PUBCHEM_FEATURE_SELFOVERLAP>  (1) 
10.148

>  <PUBCHEM_SHAPE_FINGERPRINT>  (1) 
12423570 1 8466765714750860888
13024252 1 13845934746817444730
137420 1 10371138292532875176
16945 1 18116164280700543268
18185500 45 18336263448886302378
21040471 1 18272090444336192529
21922407 69 17271129293376967287
24536 1 17916563440983098469
29004967 10 17386301890930402968
5084963 1 17898550227974403864
68250623 7 17987528172108184684

>  <PUBCHEM_SHAPE_MULTIPOLES>  (1) 
180.23
2.3
1.38
1.16
0.75
0.23
-0.03
0.15
-0.05
0.06
0.02
-0.11
-0.11
-0.2

>  <PUBCHEM_SHAPE_SELFOVERLAP>  (1) 
368.508

>  <PUBCHEM_SHAPE_VOLUME>  (1) 
109.3

>  <PUBCHEM_COORDINATE_TYPE>  (1) 
2
5
10

$$$$
