20589
     RDKit          3D

 13 14  0  0  0  0  0  0  0  0999 V2000
   -2.6347   -1.9749   -0.1760 O   0  0  0  0  0  0  0  0  0  0  0  0
    1.9748   -0.0631    0.2879 N   0  0  0  0  0  0  0  0  0  0  0  0
   -0.2268    0.8055    0.1092 C   0  0  0  0  0  0  0  0  0  0  0  0
   -0.7231   -0.5139    0.0324 C   0  0  0  0  0  0  0  0  0  0  0  0
    1.1509    0.9916    0.2386 C   0  0  0  0  0  0  0  0  0  0  0  0
    3.4096    0.1725    0.4242 C   0  0  0  0  0  0  0  0  0  0  0  0
    1.5347   -1.3246    0.2177 C   0  0  0  0  0  0  0  0  0  0  0  0
    0.1779   -1.5846    0.0882 C   0  0  0  0  0  0  0  0  0  0  0  0
   -2.1064   -0.7181   -0.0981 C   0  0  0  0  0  0  0  0  0  0  0  0
   -1.1189    1.8879    0.0543 C   0  0  0  0  0  0  0  0  0  0  0  0
    4.0348    0.2881   -0.9517 C   0  0  0  0  0  0  0  0  0  0  0  0
   -2.9829    0.3667   -0.1514 C   0  0  0  0  0  0  0  0  0  0  0  0
   -2.4900    1.6669   -0.0753 C   0  0  0  0  0  0  0  0  0  0  0  0
  1  9  1  0
  2  5  2  0
  2  6  1  0
  2  7  1  0
  3  4  2  0
  3  5  1  0
  3 10  1  0
  4  8  1  0
  4  9  1  0
  6 11  1  0
  7  8  2  0
  9 12  2  0
 10 13  2  0
 12 13  1  0
M  CHG  1   2   1
M  END
>  <PUBCHEM_COMPOUND_CID>  (1) 
20589

>  <PUBCHEM_CONFORMER_RMSD>  (1) 
0.4

>  <PUBCHEM_CONFORMER_DIVERSEORDER>  (1) 
1
4
3
2

>  <PUBCHEM_MMFF94_PARTIAL_CHARGES>  (1) 
17
1 -0.53
10 -0.15
12 -0.15
13 -0.15
14 0.15
17 0.15
18 0.15
19 0.15
2 -0.21
23 0.15
24 0.15
25 0.45
5 0.21
6 0.49
7 0.21
8 -0.15
9 0.08

>  <PUBCHEM_EFFECTIVE_ROTOR_COUNT>  (1) 
1

>  <PUBCHEM_PHARMACOPHORE_FEATURES>  (1) 
3
1 1 donor
6 2 3 4 5 7 8 rings
6 3 4 9 10 12 13 rings

>  <PUBCHEM_HEAVY_ATOM_COUNT>  (1) 
13

>  <PUBCHEM_ATOM_DEF_STEREO_COUNT>  (1) 
0

>  <PUBCHEM_ATOM_UDEF_STEREO_COUNT>  (1) 
0

>  <PUBCHEM_BOND_DEF_STEREO_COUNT>  (1) 
0

>  <PUBCHEM_BOND_UDEF_STEREO_COUNT>  (1) 
0

>  <PUBCHEM_ISOTOPIC_ATOM_COUNT>  (1) 
0

>  <PUBCHEM_COMPONENT_COUNT>  (1) 
1

>  <PUBCHEM_CACTVS_TAUTO_COUNT>  (1) 
3

>  <PUBCHEM_CONFORMER_ID>  (1) 
0000506D00000001

>  <PUBCHEM_MMFF94_ENERGY>  (1) 
35.5199

>  <PUBCHEM_FEATURE_SELFOVERLAP>  (1) 
15.251

>  <PUBCHEM_SHAPE_FINGERPRINT>  (1) 
10608611 8 18341887489791538416
10967382 1 18339075986818812209
11132069 177 18411131429268236880
11206711 2 18410287034112654373
12032990 46 18268433605906289442
12138202 97 18262788571812606861
12491281 212 18268436745516703817
12897270 3 18412258436981041232
12932764 1 17703779328026169194
13024252 1 17603587430683373977
13380535 21 18269282274226959258
13380535 76 18339635625384356587
14325111 11 18410291385289038832
14614273 12 18188199897448976613
14993402 34 18113339725834447092
15669948 3 18411129234265739310
15775835 57 18337394837750741320
16945 1 18411693262392933177
18186145 218 18060142037752566416
20510252 161 18271807968621695728
20645476 183 17967825976359140070
20871998 184 18201719582855878287
21501502 16 18266453213650005923
22802520 49 17986968361849878910
2334 1 18122620827859337441
23402539 116 18411694401165752932
23402655 69 18197199379396878461
23463225 33 18190172404519688570
23552423 10 18333447655531560283
23559900 14 18272651217600998764
2748010 2 18123457543391634385
3312278 4 18410856564019159563
369184 2 15936410013675330185
43471831 8 18334851697631944090
528886 8 18411410700784092075
53812653 166 18271798012929695040
6333449 129 18341608205073724441
7364860 26 18053659179635302858
77492 1 17748823016865759288

>  <PUBCHEM_SHAPE_MULTIPOLES>  (1) 
256.68
5.49
1.88
0.71
3.68
0.2
0.06
-0.6
0.92
-1.2
-0.01
0.34
-0.04
-0.16

>  <PUBCHEM_SHAPE_SELFOVERLAP>  (1) 
556.365

>  <PUBCHEM_SHAPE_VOLUME>  (1) 
142.3

>  <PUBCHEM_COORDINATE_TYPE>  (1) 
2
5
10

$$$$
