20584
     RDKit          3D

 16 18  0  0  0  0  0  0  0  0999 V2000
    3.6296   -1.5175    0.1660 Cl  0  0  0  0  0  0  0  0  0  0  0  0
    1.9295    1.2566   -0.1379 N   0  0  0  0  0  0  0  0  0  0  0  0
   -3.0735    0.2765    0.1876 N   0  0  0  0  0  0  0  0  0  0  0  0
   -0.0351    0.2057   -0.0532 C   0  0  0  0  0  0  0  0  0  0  0  0
   -0.2652    1.6098   -0.1484 C   0  0  0  0  0  0  0  0  0  0  0  0
    1.3468    0.0157   -0.0190 C   0  0  0  0  0  0  0  0  0  0  0  0
   -1.6077    2.2477   -0.1180 C   0  0  0  0  0  0  0  0  0  0  0  0
   -0.8891   -0.9138    0.0219 C   0  0  0  0  0  0  0  0  0  0  0  0
    0.9660    2.2258   -0.2143 C   0  0  0  0  0  0  0  0  0  0  0  0
   -2.5473    1.4834    0.8133 C   0  0  0  0  0  0  0  0  0  0  0  0
   -2.3639   -0.7527   -0.1193 C   0  0  0  0  0  0  0  0  0  0  0  0
    1.9322   -1.2464    0.1133 C   0  0  0  0  0  0  0  0  0  0  0  0
   -0.3105   -2.1862    0.1661 C   0  0  0  0  0  0  0  0  0  0  0  0
    3.3443    1.5623   -0.1669 C   0  0  0  0  0  0  0  0  0  0  0  0
    1.0751   -2.3439    0.2147 C   0  0  0  0  0  0  0  0  0  0  0  0
   -3.1314   -1.9228   -0.7061 C   0  0  0  0  0  0  0  0  0  0  0  0
  1 12  1  0
  2  6  1  0
  2  9  1  0
  2 14  1  0
  3 10  1  0
  3 11  2  0
  4  5  1  0
  4  6  2  0
  4  8  1  0
  5  7  1  0
  5  9  2  0
  6 12  1  0
  7 10  1  0
  8 11  1  0
  8 13  2  0
 11 16  1  0
 12 15  2  0
 13 15  1  0
M  END
>  <PUBCHEM_COMPOUND_CID>  (1) 
20584

>  <PUBCHEM_CONFORMER_RMSD>  (1) 
0.4

>  <PUBCHEM_CONFORMER_DIVERSEORDER>  (1) 
1
2

>  <PUBCHEM_MMFF94_PARTIAL_CHARGES>  (1) 
18
1 -0.18
10 0.25
11 0.3
12 0.18
13 -0.15
14 0.26
15 -0.15
16 0.06
19 0.15
2 0.05
22 0.15
26 0.15
3 -0.7
5 -0.18
6 -0.15
7 0.18
8 0.09
9 -0.3

>  <PUBCHEM_EFFECTIVE_ROTOR_COUNT>  (1) 
0.4

>  <PUBCHEM_PHARMACOPHORE_FEATURES>  (1) 
5
1 2 cation
1 3 acceptor
5 2 4 5 6 9 rings
6 4 6 8 12 13 15 rings
7 3 4 5 7 8 10 11 rings

>  <PUBCHEM_HEAVY_ATOM_COUNT>  (1) 
16

>  <PUBCHEM_ATOM_DEF_STEREO_COUNT>  (1) 
0

>  <PUBCHEM_ATOM_UDEF_STEREO_COUNT>  (1) 
0

>  <PUBCHEM_BOND_DEF_STEREO_COUNT>  (1) 
0

>  <PUBCHEM_BOND_UDEF_STEREO_COUNT>  (1) 
0

>  <PUBCHEM_ISOTOPIC_ATOM_COUNT>  (1) 
0

>  <PUBCHEM_COMPONENT_COUNT>  (1) 
1

>  <PUBCHEM_CACTVS_TAUTO_COUNT>  (1) 
1

>  <PUBCHEM_CONFORMER_ID>  (1) 
0000506800000001

>  <PUBCHEM_MMFF94_ENERGY>  (1) 
45.8323

>  <PUBCHEM_FEATURE_SELFOVERLAP>  (1) 
25.508

>  <PUBCHEM_SHAPE_FINGERPRINT>  (1) 
10967382 1 18121780787969215990
11132069 177 18195240027763196066
12251169 10 18196939876876436569
12382932 28 17979070483648454698
12423570 1 10567960039312124624
13132413 78 18267023847537127780
13140716 1 18410578340290526712
13172582 1 18195248806248886265
13380535 76 18192708075743722794
14617773 55 18202283615114443849
14790565 3 17404601978392053156
15196674 1 18410293618281577601
15442244 35 18411136905304040434
15536298 74 18343302570072806138
16945 1 18122342376365237509
193761 8 18410291372034813348
19591789 44 18410018706447821174
20510252 161 17548707730018240416
21267235 1 18411146800703254355
21501502 16 18411420605047345644
2334 1 18410013255865030860
23388829 49 18410565184774186547
23402539 116 18055346100627418166
23419403 2 16970473250467827425
23463225 33 18335984177565112856
23559900 14 17980493574931362884
2748010 2 18409165476576081308
2897 32 18409451418324002525
335352 9 18194120715945639708
34934 24 17974564702193534946
43471831 8 18336261344642367378
63268167 104 18410011056978931953
7364860 26 18342177743754839176

>  <PUBCHEM_SHAPE_MULTIPOLES>  (1) 
321.18
5
3.04
0.7
0.84
0.07
0.01
-0.66
-0.01
0.1
-0.1
-0.18
-0.01
-0.66

>  <PUBCHEM_SHAPE_SELFOVERLAP>  (1) 
699.657

>  <PUBCHEM_SHAPE_VOLUME>  (1) 
175.7

>  <PUBCHEM_COORDINATE_TYPE>  (1) 
2
5
10

$$$$
