20593
     RDKit          3D

 22 24  0  0  1  0  0  0  0  0999 V2000
    0.5376   -0.1647   -2.3943 O   0  0  0  0  0  0  0  0  0  0  0  0
    0.0709    0.7078    1.7619 O   0  0  0  0  0  0  0  0  0  0  0  0
   -3.2259   -2.1343    0.5713 N   0  0  0  0  0  0  0  0  0  0  0  0
    0.4059   -0.1380   -0.9595 C   0  0  0  0  0  0  0  0  0  0  0  0
   -0.6362   -1.2181   -0.5977 C   0  0  0  0  0  0  0  0  0  0  0  0
    1.7672   -0.5463   -0.3676 C   0  0  0  0  0  0  0  0  0  0  0  0
   -0.1032    1.2507   -0.5659 C   0  0  0  0  0  0  0  0  0  0  0  0
   -2.0099   -0.8389   -1.1332 C   0  0  0  0  0  0  0  0  0  0  0  0
    2.2288   -0.1781    0.9164 C   0  0  0  0  0  0  0  0  0  0  0  0
   -3.0501   -1.9143   -0.8376 C   0  0  0  0  0  0  0  0  0  0  0  0
   -0.2976    1.5886    0.7803 C   0  0  0  0  0  0  0  0  0  0  0  0
    1.4934    0.7236    1.8828 C   0  0  0  0  0  0  0  0  0  0  0  0
    2.5898   -1.4134   -1.1302 C   0  0  0  0  0  0  0  0  0  0  0  0
   -0.4650    2.2191   -1.5198 C   0  0  0  0  0  0  0  0  0  0  0  0
    3.4981   -0.6227    1.3518 C   0  0  0  0  0  0  0  0  0  0  0  0
   -0.8678    2.8031    1.1731 C   0  0  0  0  0  0  0  0  0  0  0  0
    3.8329   -1.8550   -0.6753 C   0  0  0  0  0  0  0  0  0  0  0  0
   -1.0131    3.4492   -1.1376 C   0  0  0  0  0  0  0  0  0  0  0  0
    4.2923   -1.4520    0.5665 C   0  0  0  0  0  0  0  0  0  0  0  0
   -1.2218    3.7376    0.2075 C   0  0  0  0  0  0  0  0  0  0  0  0
   -4.2847   -3.1225    0.8322 C   0  0  0  0  0  0  0  0  0  0  0  0
   -3.5416   -0.8811    1.2751 C   0  0  0  0  0  0  0  0  0  0  0  0
  1  4  1  0
  2 11  1  0
  2 12  1  0
  3 10  1  0
  3 21  1  0
  3 22  1  0
  4  5  1  0
  4  6  1  0
  4  7  1  0
  5  8  1  0
  6  9  2  0
  6 13  1  0
  7 11  2  0
  7 14  1  0
  8 10  1  0
  9 12  1  0
  9 15  1  0
 11 16  1  0
 13 17  2  0
 14 18  2  0
 15 19  2  0
 16 20  2  0
 17 19  1  0
 18 20  1  0
M  END
>  <PUBCHEM_COMPOUND_CID>  (1) 
20593

>  <PUBCHEM_CONFORMER_RMSD>  (1) 
0.8

>  <PUBCHEM_CONFORMER_DIVERSEORDER>  (1) 
1
3
13
15
6
9
11
20
14
10
19
18
17
22
5
7
21
16
12
4
2
8

>  <PUBCHEM_MMFF94_PARTIAL_CHARGES>  (1) 
29
1 -0.68
10 0.27
11 0.08
12 0.42
13 -0.15
14 -0.15
15 -0.15
16 -0.15
17 -0.15
18 -0.15
19 -0.15
2 -0.36
20 -0.15
21 0.27
22 0.27
3 -0.81
31 0.15
32 0.4
33 0.15
34 0.15
35 0.15
36 0.15
37 0.15
38 0.15
39 0.15
4 0.57
6 -0.14
7 -0.14
9 -0.14

>  <PUBCHEM_EFFECTIVE_ROTOR_COUNT>  (1) 
4.6

>  <PUBCHEM_PHARMACOPHORE_FEATURES>  (1) 
7
1 1 acceptor
1 1 donor
1 2 acceptor
1 3 cation
6 6 9 13 15 17 19 rings
6 7 11 14 16 18 20 rings
7 2 4 6 7 9 11 12 rings

>  <PUBCHEM_HEAVY_ATOM_COUNT>  (1) 
22

>  <PUBCHEM_ATOM_DEF_STEREO_COUNT>  (1) 
0

>  <PUBCHEM_ATOM_UDEF_STEREO_COUNT>  (1) 
1

>  <PUBCHEM_BOND_DEF_STEREO_COUNT>  (1) 
0

>  <PUBCHEM_BOND_UDEF_STEREO_COUNT>  (1) 
0

>  <PUBCHEM_ISOTOPIC_ATOM_COUNT>  (1) 
0

>  <PUBCHEM_COMPONENT_COUNT>  (1) 
1

>  <PUBCHEM_CACTVS_TAUTO_COUNT>  (1) 
1

>  <PUBCHEM_CONFORMER_ID>  (1) 
0000507100000001

>  <PUBCHEM_MMFF94_ENERGY>  (1) 
84.6185

>  <PUBCHEM_FEATURE_SELFOVERLAP>  (1) 
35.539

>  <PUBCHEM_SHAPE_FINGERPRINT>  (1) 
10764073 3 16483911734326779779
11244481 83 17608649749595051659
121448 382 17907277872155946709
12549972 3 17699826451008097066
12714826 92 18271527481682693566
12788726 201 18115606858322513714
13134695 92 18199457952025362029
13140716 1 18411138039249207589
13681431 1 18191021416174251253
14251757 17 14996856544468053987
14790565 3 17551780847864963992
14955137 171 17836092538783586048
16945 1 15907393708861648644
17357779 13 18128792232128365885
17980427 23 14620792747616122059
17980427 26 12853852263863729484
1813 80 18337677511044530475
20567600 347 17544473055842633841
20600515 1 18270977854412155174
20645476 183 17834661709162795968
20739085 24 18127412465083600850
21330990 113 18129673975929183539
21452121 199 18263365948329047149
22182313 1 17489013857120541442
23419403 2 17917129659449148809
2748010 2 17345453909288866638
3380486 145 17912895521685024919
35225 105 18046900481585128177
3759504 43 17908702826440615596
4340502 62 17481155496755777697
4921388 177 18194115210251252998
576247 118 18337376249116245567
6992083 37 17774713290016356655
7097593 13 17983292917911877591
81228 2 18338228246247936917
9981440 41 16910540963841095858

>  <PUBCHEM_SHAPE_MULTIPOLES>  (1) 
436.03
6.22
3.99
1.85
1.68
2.82
-0.06
-7.63
1.75
-4.44
-0.04
0.16
0.3
0.92

>  <PUBCHEM_SHAPE_SELFOVERLAP>  (1) 
935.345

>  <PUBCHEM_SHAPE_VOLUME>  (1) 
238.1

>  <PUBCHEM_COORDINATE_TYPE>  (1) 
2
5
10

$$$$
