20594
     RDKit          3D

  9  9  0  0  1  0  0  0  0  0999 V2000
    2.4111    0.9440    0.1289 O   0  0  0  0  0  0  0  0  0  0  0  0
   -1.5903   -1.5979    0.2336 O   0  0  0  0  0  0  0  0  0  0  0  0
   -2.3036    1.0551   -0.2277 O   0  0  0  0  0  0  0  0  0  0  0  0
    0.7334   -0.8078    0.3675 C   0  0  0  0  0  0  0  0  0  0  0  0
    0.0850    1.5759   -0.1218 C   0  0  0  0  0  0  0  0  0  0  0  0
    1.2328    0.6131    0.1230 C   0  0  0  0  0  0  0  0  0  0  0  0
   -0.7644   -0.7100    0.1864 C   0  0  0  0  0  0  0  0  0  0  0  0
   -1.1483    0.7161   -0.0784 C   0  0  0  0  0  0  0  0  0  0  0  0
    1.3443   -1.7885   -0.6115 C   0  0  0  0  0  0  0  0  0  0  0  0
  1  6  2  0
  2  7  2  0
  3  8  2  0
  4  6  1  0
  4  7  1  0
  4  9  1  0
  5  6  1  0
  5  8  1  0
  7  8  1  0
M  END
>  <PUBCHEM_COMPOUND_CID>  (1) 
20594

>  <PUBCHEM_CONFORMER_RMSD>  (1) 
0.4

>  <PUBCHEM_CONFORMER_DIVERSEORDER>  (1) 
1
2

>  <PUBCHEM_MMFF94_PARTIAL_CHARGES>  (1) 
8
1 -0.57
2 -0.57
3 -0.57
4 0.12
5 0.12
6 0.45
7 0.51
8 0.51

>  <PUBCHEM_EFFECTIVE_ROTOR_COUNT>  (1) 
0.4

>  <PUBCHEM_PHARMACOPHORE_FEATURES>  (1) 
6
1 1 acceptor
1 2 acceptor
1 3 acceptor
1 4 anion
1 5 anion
5 4 5 6 7 8 rings

>  <PUBCHEM_HEAVY_ATOM_COUNT>  (1) 
9

>  <PUBCHEM_ATOM_DEF_STEREO_COUNT>  (1) 
0

>  <PUBCHEM_ATOM_UDEF_STEREO_COUNT>  (1) 
1

>  <PUBCHEM_BOND_DEF_STEREO_COUNT>  (1) 
0

>  <PUBCHEM_BOND_UDEF_STEREO_COUNT>  (1) 
0

>  <PUBCHEM_ISOTOPIC_ATOM_COUNT>  (1) 
0

>  <PUBCHEM_COMPONENT_COUNT>  (1) 
1

>  <PUBCHEM_CACTVS_TAUTO_COUNT>  (1) 
15

>  <PUBCHEM_CONFORMER_ID>  (1) 
0000507200000001

>  <PUBCHEM_MMFF94_ENERGY>  (1) 
8.7936

>  <PUBCHEM_FEATURE_SELFOVERLAP>  (1) 
30.468

>  <PUBCHEM_SHAPE_FINGERPRINT>  (1) 
12423570 1 18191605222372642137
16945 1 18411139099800272024
21040471 1 18336543832936032065
23552423 10 18187368739957684194
241688 4 17116352862706626906
2748010 2 18410577283728766462
5084963 1 17914062155182937354

>  <PUBCHEM_SHAPE_MULTIPOLES>  (1) 
167.61
2.5
1.92
0.67
0.25
0.32
-0.02
-0.29
-0.17
-0.26
-0.09
-0.07
0.08
0.31

>  <PUBCHEM_SHAPE_SELFOVERLAP>  (1) 
344.08

>  <PUBCHEM_SHAPE_VOLUME>  (1) 
97.9

>  <PUBCHEM_COORDINATE_TYPE>  (1) 
2
5
10

$$$$
