20605
     RDKit          3D

 27 29  0  0  1  0  0  0  0  0999 V2000
    0.4253   -0.7169   -0.9094 O   0  0  0  0  0  0  0  0  0  0  0  0
    0.1997   -1.5060    1.2725 O   0  0  0  0  0  0  0  0  0  0  0  0
   -3.6302    2.0222   -1.5138 O   0  0  0  0  0  0  0  0  0  0  0  0
   -4.9342   -1.4769    1.4853 O   0  0  0  0  0  0  0  0  0  0  0  0
   -5.6081    0.6853   -0.1097 O   0  0  0  0  0  0  0  0  0  0  0  0
    4.6748    1.4370    0.8170 N   0  0  0  0  0  0  0  0  0  0  0  0
    3.5722    2.1040    0.1137 C   0  0  0  0  0  0  0  0  0  0  0  0
    2.3659    1.1634    0.0262 C   0  0  0  0  0  0  0  0  0  0  0  0
    5.1679    0.2963    0.0248 C   0  0  0  0  0  0  0  0  0  0  0  0
    2.7336   -0.2165   -0.4536 C   0  0  0  0  0  0  0  0  0  0  0  0
    4.0708   -0.6473   -0.4120 C   0  0  0  0  0  0  0  0  0  0  0  0
    5.7621    2.3769    1.0875 C   0  0  0  0  0  0  0  0  0  0  0  0
    1.7347   -1.0977   -0.8873 C   0  0  0  0  0  0  0  0  0  0  0  0
    4.3927   -1.9423   -0.8405 C   0  0  0  0  0  0  0  0  0  0  0  0
    6.8677    1.7194    1.8958 C   0  0  0  0  0  0  0  0  0  0  0  0
    2.0645   -2.3880   -1.3010 C   0  0  0  0  0  0  0  0  0  0  0  0
    3.3922   -2.8090   -1.2796 C   0  0  0  0  0  0  0  0  0  0  0  0
   -0.2663   -0.9759    0.2750 C   0  0  0  0  0  0  0  0  0  0  0  0
   -1.6804   -0.5350    0.1741 C   0  0  0  0  0  0  0  0  0  0  0  0
   -2.6446   -1.2201    0.8850 C   0  0  0  0  0  0  0  0  0  0  0  0
   -1.9871    0.5446   -0.6286 C   0  0  0  0  0  0  0  0  0  0  0  0
   -3.3161    0.9572   -0.7245 C   0  0  0  0  0  0  0  0  0  0  0  0
   -3.9735   -0.8075    0.7889 C   0  0  0  0  0  0  0  0  0  0  0  0
   -4.3093    0.2811   -0.0158 C   0  0  0  0  0  0  0  0  0  0  0  0
   -3.9514    1.7471   -2.8759 C   0  0  0  0  0  0  0  0  0  0  0  0
   -5.2207   -1.0134    2.8033 C   0  0  0  0  0  0  0  0  0  0  0  0
   -5.9023    2.0181    0.3024 C   0  0  0  0  0  0  0  0  0  0  0  0
  1 13  1  0
  1 18  1  0
  2 18  2  0
  3 22  1  0
  3 25  1  0
  4 23  1  0
  4 26  1  0
  5 24  1  0
  5 27  1  0
  6  7  1  0
  6  9  1  0
  6 12  1  0
  7  8  1  0
  8 10  1  0
  9 11  1  0
 10 11  2  0
 10 13  1  0
 11 14  1  0
 12 15  1  0
 13 16  2  0
 14 17  2  0
 16 17  1  0
 18 19  1  0
 19 20  2  0
 19 21  1  0
 20 23  1  0
 21 22  2  0
 22 24  1  0
 23 24  2  0
M  END
>  <PUBCHEM_COMPOUND_CID>  (1) 
20605

>  <PUBCHEM_CONFORMER_RMSD>  (1) 
0.8

>  <PUBCHEM_CONFORMER_DIVERSEORDER>  (1) 
1
159
107
141
224
104
187
142
136
133
237
26
147
163
145
16
130
131
148
80
94
236
113
69
37
55
7
156
75
89
165
182
10
234
215
222
103
194
183
101
178
231
167
158
186
97
126
24
41
223
173
11
229
152
59
220
72
144
166
239
36
71
208
100
153
195
151
54
180
200
114
82
91
62
124
199
40
4
160
39
174
225
52
5
189
83
168
175
181
134
238
201
44
43
119
30
162
48
233
204
85
120
135
212
143
33
77
129
132
185
3
139
227
157
219
190
99
27
140
74
88
150
9
191
193
123
92
232
57
137
111
110
184
106
121
198
125
235
29
67
73
218
205
105
12
122
51
96
34
214
216
226
118
171
6
207
63
64
197
203
13
79
149
49
42
78
154
211
38
192
169
18
108
164
28
70
176
19
22
58
45
228
115
177
240
86
90
15
25
213
188
8
128
87
155
179
35
20
61
161
217
23
210
196
146
230
117
109
202
170
2
138
127
209
221
32
112
95
17
47
116
68
102
84
93
65
31
53
46
172
21
14
98
60
66
206
56
81
76
50

>  <PUBCHEM_MMFF94_PARTIAL_CHARGES>  (1) 
31
1 -0.23
10 -0.14
11 -0.14
12 0.27
13 0.08
14 -0.15
16 -0.15
17 -0.15
18 0.63
19 0.09
2 -0.57
20 -0.15
21 -0.15
22 0.08
23 0.08
24 0.08
25 0.28
26 0.28
27 0.28
3 -0.36
36 0.15
4 -0.36
40 0.15
41 0.15
42 0.15
43 0.15
5 -0.36
6 -0.81
7 0.27
8 0.14
9 0.41

>  <PUBCHEM_EFFECTIVE_ROTOR_COUNT>  (1) 
7.8

>  <PUBCHEM_PHARMACOPHORE_FEATURES>  (1) 
8
1 2 acceptor
1 3 acceptor
1 4 acceptor
1 5 acceptor
1 6 cation
6 10 11 13 14 16 17 rings
6 19 20 21 22 23 24 rings
6 6 7 8 9 10 11 rings

>  <PUBCHEM_HEAVY_ATOM_COUNT>  (1) 
27

>  <PUBCHEM_ATOM_DEF_STEREO_COUNT>  (1) 
0

>  <PUBCHEM_ATOM_UDEF_STEREO_COUNT>  (1) 
0

>  <PUBCHEM_BOND_DEF_STEREO_COUNT>  (1) 
0

>  <PUBCHEM_BOND_UDEF_STEREO_COUNT>  (1) 
0

>  <PUBCHEM_ISOTOPIC_ATOM_COUNT>  (1) 
0

>  <PUBCHEM_COMPONENT_COUNT>  (1) 
1

>  <PUBCHEM_CACTVS_TAUTO_COUNT>  (1) 
1

>  <PUBCHEM_CONFORMER_ID>  (1) 
0000507D00000001

>  <PUBCHEM_MMFF94_ENERGY>  (1) 
110.2346

>  <PUBCHEM_FEATURE_SELFOVERLAP>  (1) 
40.628

>  <PUBCHEM_SHAPE_FINGERPRINT>  (1) 
10 15 18261389018360294952
10319926 262 17822007606074773842
10411042 1 17697606485956532390
10595046 47 17917987270303068477
11059845 2 16156768538157477332
11545043 162 17968104075053758038
11595378 159 15936407801935965357
12236239 1 16415200048650957191
12403259 415 18410302406027570238
12616971 3 16917073217887002974
13402501 40 18408039623756019525
13583140 156 18336829684643173607
13955234 65 18201446840044182358
14251757 17 18335984155721258120
15081414 286 18201444701086873168
15188451 53 16443623631341689203
15961568 22 17459483310559451700
16994733 274 14620509078285325770
17844677 252 18129672893660572495
17913733 40 18130792304114723018
20157964 124 18202283589223405262
20645477 56 18408890645892892959
21033648 144 18273490191405236478
21033648 29 18334297565003040934
21065201 7 17603874355631088207
21403212 168 17917702519089308786
22122407 14 17774452572938315193
22182313 1 18334297543602129447
23559900 14 18115602456023766494
23569914 2 17834629939132634265
268830 7 17845667962127439115
2838139 119 17418088858664376432
465052 167 12324242750365907520
495365 180 18201431481150824430
508706 21 17749102258581029981
5104073 3 18334579001393689947
543368 44 16845288388505275169
6697151 62 17907280067211718078
9995097 60 18411141328983049366

>  <PUBCHEM_SHAPE_MULTIPOLES>  (1) 
521.32
16
2.76
1.94
0.96
0.15
-0.07
-8.49
-5.5
3.18
0.41
-2.65
-0.22
4.63

>  <PUBCHEM_SHAPE_SELFOVERLAP>  (1) 
1113.307

>  <PUBCHEM_SHAPE_VOLUME>  (1) 
289.7

>  <PUBCHEM_COORDINATE_TYPE>  (1) 
2
5
10

$$$$
