20613
     RDKit          3D

  9  9  0  0  0  0  0  0  0  0999 V2000
   -2.7715    1.5449    0.0021 Br  0  0  0  0  0  0  0  0  0  0  0  0
    2.7706    1.5464    0.0020 Br  0  0  0  0  0  0  0  0  0  0  0  0
    1.2000   -0.7472   -0.0007 N   0  0  0  0  0  0  0  0  0  0  0  0
   -1.1996   -0.7478   -0.0008 N   0  0  0  0  0  0  0  0  0  0  0  0
   -0.0003    1.3305   -0.0014 N   0  0  0  0  0  0  0  0  0  0  0  0
    0.0009   -2.7625    0.0018 N   0  0  0  0  0  0  0  0  0  0  0  0
    0.0004   -1.3505   -0.0006 C   0  0  0  0  0  0  0  0  0  0  0  0
   -1.1223    0.5928   -0.0013 C   0  0  0  0  0  0  0  0  0  0  0  0
    1.1219    0.5933   -0.0012 C   0  0  0  0  0  0  0  0  0  0  0  0
  1  8  1  0
  2  9  1  0
  3  7  2  0
  3  9  1  0
  4  7  1  0
  4  8  2  0
  5  8  1  0
  5  9  2  0
  6  7  1  0
M  END
>  <PUBCHEM_COMPOUND_CID>  (1) 
20613

>  <PUBCHEM_CONFORMER_RMSD>  (1) 
0.4

>  <PUBCHEM_CONFORMER_DIVERSEORDER>  (1) 
1

>  <PUBCHEM_MMFF94_PARTIAL_CHARGES>  (1) 
11
1 -0.11
10 0.4
11 0.4
2 -0.11
3 -0.62
4 -0.62
5 -0.62
6 -0.9
7 0.72
8 0.73
9 0.73

>  <PUBCHEM_EFFECTIVE_ROTOR_COUNT>  (1) 
0

>  <PUBCHEM_PHARMACOPHORE_FEATURES>  (1) 
5
1 1 hydrophobe
1 2 hydrophobe
1 6 donor
4 3 4 6 7 cation
6 3 4 5 7 8 9 rings

>  <PUBCHEM_HEAVY_ATOM_COUNT>  (1) 
9

>  <PUBCHEM_ATOM_DEF_STEREO_COUNT>  (1) 
0

>  <PUBCHEM_ATOM_UDEF_STEREO_COUNT>  (1) 
0

>  <PUBCHEM_BOND_DEF_STEREO_COUNT>  (1) 
0

>  <PUBCHEM_BOND_UDEF_STEREO_COUNT>  (1) 
0

>  <PUBCHEM_ISOTOPIC_ATOM_COUNT>  (1) 
0

>  <PUBCHEM_COMPONENT_COUNT>  (1) 
1

>  <PUBCHEM_CACTVS_TAUTO_COUNT>  (1) 
3

>  <PUBCHEM_CONFORMER_ID>  (1) 
0000508500000001

>  <PUBCHEM_MMFF94_ENERGY>  (1) 
17.2217

>  <PUBCHEM_FEATURE_SELFOVERLAP>  (1) 
25.371

>  <PUBCHEM_SHAPE_FINGERPRINT>  (1) 
1 1 18337953368161664277
12716758 59 18269280221702187604
16945 1 18122344571225504941
20871998 184 17767976689678362062
21040471 1 18410855498914989604
23552423 10 18124032334701792133
23552449 1 17762898071060191572
241688 4 16897646784206168096
2748010 2 18409739455836525293
29004967 10 17903924348895530873

>  <PUBCHEM_SHAPE_MULTIPOLES>  (1) 
177.18
3.46
2.51
0.61
0
1.68
0
-3.09
0
0
0
0
-0.08
0

>  <PUBCHEM_SHAPE_SELFOVERLAP>  (1) 
334.557

>  <PUBCHEM_SHAPE_VOLUME>  (1) 
115.1

>  <PUBCHEM_COORDINATE_TYPE>  (1) 
2
5
10

$$$$
