20611
     RDKit          3D

 21 25  0  0  0  0  0  0  0  0999 V2000
    0.1981   -0.4073   -0.0002 C   0  0  0  0  0  0  0  0  0  0  0  0
    1.6107   -0.2316   -0.0001 C   0  0  0  0  0  0  0  0  0  0  0  0
   -0.6782    0.7106   -0.0003 C   0  0  0  0  0  0  0  0  0  0  0  0
   -0.3248   -1.7186    0.0000 C   0  0  0  0  0  0  0  0  0  0  0  0
    2.1649    1.0666   -0.0003 C   0  0  0  0  0  0  0  0  0  0  0  0
   -2.1004    0.4959   -0.0002 C   0  0  0  0  0  0  0  0  0  0  0  0
    2.4749   -1.3536    0.0001 C   0  0  0  0  0  0  0  0  0  0  0  0
    1.3082    2.1668   -0.0004 C   0  0  0  0  0  0  0  0  0  0  0  0
   -0.0780    1.9906   -0.0003 C   0  0  0  0  0  0  0  0  0  0  0  0
   -2.5977   -0.8310   -0.0002 C   0  0  0  0  0  0  0  0  0  0  0  0
   -1.7090   -1.9110   -0.0001 C   0  0  0  0  0  0  0  0  0  0  0  0
    0.5442   -2.8182    0.0004 C   0  0  0  0  0  0  0  0  0  0  0  0
    1.9261   -2.6390    0.0003 C   0  0  0  0  0  0  0  0  0  0  0  0
    3.5583    1.2310   -0.0002 C   0  0  0  0  0  0  0  0  0  0  0  0
    3.8643   -1.1616    0.0001 C   0  0  0  0  0  0  0  0  0  0  0  0
   -3.0645    1.5361    0.0000 C   0  0  0  0  0  0  0  0  0  0  0  0
    1.8194    3.5752    0.0010 C   0  0  0  0  0  0  0  0  0  0  0  0
    4.4016    0.1231   -0.0001 C   0  0  0  0  0  0  0  0  0  0  0  0
   -3.9823   -1.0758    0.0000 C   0  0  0  0  0  0  0  0  0  0  0  0
   -4.4382    1.2795    0.0002 C   0  0  0  0  0  0  0  0  0  0  0  0
   -4.8974   -0.0279    0.0002 C   0  0  0  0  0  0  0  0  0  0  0  0
  1  2  2  0
  1  3  1  0
  1  4  1  0
  2  5  1  0
  2  7  1  0
  3  6  1  0
  3  9  2  0
  4 11  2  0
  4 12  1  0
  5  8  2  0
  5 14  1  0
  6 10  2  0
  6 16  1  0
  7 13  1  0
  7 15  2  0
  8  9  1  0
  8 17  1  0
 10 11  1  0
 10 19  1  0
 12 13  2  0
 14 18  2  0
 15 18  1  0
 16 20  2  0
 19 21  2  0
 20 21  1  0
M  END
>  <PUBCHEM_COMPOUND_CID>  (1) 
20611

>  <PUBCHEM_CONFORMER_RMSD>  (1) 
0.6

>  <PUBCHEM_CONFORMER_DIVERSEORDER>  (1) 
1

>  <PUBCHEM_MMFF94_PARTIAL_CHARGES>  (1) 
24
11 -0.15
12 -0.15
13 -0.15
14 -0.15
15 -0.15
16 -0.15
17 0.14
18 -0.15
19 -0.15
20 -0.15
21 -0.15
22 0.15
23 0.15
24 0.15
25 0.15
26 0.15
27 0.15
28 0.15
32 0.15
33 0.15
34 0.15
35 0.15
8 -0.14
9 -0.15

>  <PUBCHEM_EFFECTIVE_ROTOR_COUNT>  (1) 
0

>  <PUBCHEM_PHARMACOPHORE_FEATURES>  (1) 
5
6 1 2 3 5 8 9 rings
6 1 2 4 7 12 13 rings
6 1 3 4 6 10 11 rings
6 2 5 7 14 15 18 rings
6 6 10 16 19 20 21 rings

>  <PUBCHEM_HEAVY_ATOM_COUNT>  (1) 
21

>  <PUBCHEM_ATOM_DEF_STEREO_COUNT>  (1) 
0

>  <PUBCHEM_ATOM_UDEF_STEREO_COUNT>  (1) 
0

>  <PUBCHEM_BOND_DEF_STEREO_COUNT>  (1) 
0

>  <PUBCHEM_BOND_UDEF_STEREO_COUNT>  (1) 
0

>  <PUBCHEM_ISOTOPIC_ATOM_COUNT>  (1) 
0

>  <PUBCHEM_COMPONENT_COUNT>  (1) 
1

>  <PUBCHEM_CACTVS_TAUTO_COUNT>  (1) 
1

>  <PUBCHEM_CONFORMER_ID>  (1) 
0000508300000001

>  <PUBCHEM_MMFF94_ENERGY>  (1) 
79.6868

>  <PUBCHEM_FEATURE_SELFOVERLAP>  (1) 
25.526

>  <PUBCHEM_SHAPE_FINGERPRINT>  (1) 
10411042 1 17906171750347109634
10616163 171 18339644559164486063
10906281 52 18337409187842937336
10967382 1 18338797814613949318
1100329 8 18339077202611126658
11370993 70 18267859665142081361
11471102 20 18410853256868006823
12011746 2 18410013217115334550
12236239 1 17775284950605987219
12403259 226 18407754837702233285
12403260 363 18267292317178994127
12553582 1 18338507530685668894
12592029 89 18409453591640849171
12838862 33 18338778071018905520
13132413 78 18341331102336888981
13140716 1 18265330805577754056
138480 1 18266740173542650534
13862211 1 18410569548777775706
14178342 30 17618489326533932896
14790565 3 18337399343641524492
15081414 286 18341623563750102920
15196674 1 18410855451548939110
15230672 131 13290807561659034739
15442244 35 18267868281146969041
15536298 74 18342738511469235238
1601671 61 18410575059114944664
16945 1 18194401323597613862
19591789 44 18266461082272711215
200 152 18131346415167555407
20028762 73 18129659832861224655
20739085 24 17907325181252198257
20905425 154 18052820243678260406
21197605 99 18050298256463644179
21267235 1 18411428284254029870
21421861 104 17753610144058143650
221490 88 18336272348301100475
23227448 37 18341611559654621351
2334 1 17617941773853209344
23402539 116 18343293761084586142
23558518 356 17757265256006495874
23559900 14 18341608248023715896
238 59 17829845998514691581
2748010 2 17833273399501802654
335352 9 18410573942233466110
34934 24 18339073800627944822
350125 39 18265619960214536977
3680242 22 18262798441463077442
474 4 18410011061263245851
484985 159 14572897685934387994
5104073 3 18410011030992838235
5939293 188 18411696595561822384
6138700 20 18338802204809536918
6443956 14 18337957792178653548
7364860 26 18412545418095262853
7832392 63 18412821412862859734
9709674 26 18410860983815430767
9981440 41 17545312446654468120

>  <PUBCHEM_SHAPE_MULTIPOLES>  (1) 
432.17
7.9
3.26
0.62
4.56
0.68
0
0.7
0
-1.7
0
0
0
0

>  <PUBCHEM_SHAPE_SELFOVERLAP>  (1) 
1014.33

>  <PUBCHEM_SHAPE_VOLUME>  (1) 
198.2

>  <PUBCHEM_COORDINATE_TYPE>  (1) 
2
5
10

$$$$
