20610
     RDKit          3D

 10  9  0  0  0  0  0  0  0  0999 V2000
   -0.0870   -0.2420    0.3018 O   0  0  0  0  0  0  0  0  0  0  0  0
    1.4981   -1.6956   -0.5183 O   0  0  0  0  0  0  0  0  0  0  0  0
   -3.2251    1.2973   -0.7781 N   0  0  0  0  0  0  0  0  0  0  0  0
   -1.0805   -1.2691    0.2161 C   0  0  0  0  0  0  0  0  0  0  0  0
   -2.4192   -0.7267    0.6967 C   0  0  0  0  0  0  0  0  0  0  0  0
    2.0831    0.5669    0.0466 C   0  0  0  0  0  0  0  0  0  0  0  0
    1.1640   -0.5962   -0.1000 C   0  0  0  0  0  0  0  0  0  0  0  0
    1.5713    1.8737    0.5705 C   0  0  0  0  0  0  0  0  0  0  0  0
    3.3642    0.3873   -0.3070 C   0  0  0  0  0  0  0  0  0  0  0  0
   -2.8688    0.4044   -0.1283 C   0  0  0  0  0  0  0  0  0  0  0  0
  1  4  1  0
  1  7  1  0
  2  7  2  0
  3 10  3  0
  4  5  1  0
  5 10  1  0
  6  7  1  0
  6  8  1  0
  6  9  2  0
M  END
>  <PUBCHEM_COMPOUND_CID>  (1) 
20610

>  <PUBCHEM_CONFORMER_RMSD>  (1) 
0.6

>  <PUBCHEM_CONFORMER_DIVERSEORDER>  (1) 
1
17
36
34
26
32
33
27
3
35
38
30
28
25
37
18
29
23
22
16
11
6
21
15
7
10
31
20
13
9
24
19
4
14
8
5
12
2

>  <PUBCHEM_MMFF94_PARTIAL_CHARGES>  (1) 
12
1 -0.43
10 0.36
18 0.15
19 0.15
2 -0.57
3 -0.56
4 0.28
5 0.2
6 -0.12
7 0.71
8 0.14
9 -0.3

>  <PUBCHEM_EFFECTIVE_ROTOR_COUNT>  (1) 
4

>  <PUBCHEM_PHARMACOPHORE_FEATURES>  (1) 
2
1 2 acceptor
1 3 acceptor

>  <PUBCHEM_HEAVY_ATOM_COUNT>  (1) 
10

>  <PUBCHEM_ATOM_DEF_STEREO_COUNT>  (1) 
0

>  <PUBCHEM_ATOM_UDEF_STEREO_COUNT>  (1) 
0

>  <PUBCHEM_BOND_DEF_STEREO_COUNT>  (1) 
0

>  <PUBCHEM_BOND_UDEF_STEREO_COUNT>  (1) 
0

>  <PUBCHEM_ISOTOPIC_ATOM_COUNT>  (1) 
0

>  <PUBCHEM_COMPONENT_COUNT>  (1) 
1

>  <PUBCHEM_CACTVS_TAUTO_COUNT>  (1) 
1

>  <PUBCHEM_CONFORMER_ID>  (1) 
0000508200000001

>  <PUBCHEM_MMFF94_ENERGY>  (1) 
11.1466

>  <PUBCHEM_FEATURE_SELFOVERLAP>  (1) 
10.149

>  <PUBCHEM_SHAPE_FINGERPRINT>  (1) 
124424 183 18260541217200421562
12897270 3 18272653471493530153
12932764 1 18338803419520182851
14325111 11 18339645667181204154
14390081 3 18408038528881633313
15775835 57 17894628119790381121
19973954 147 18263647427669556641
20201158 50 18412825772212291697
21028194 46 18338240486714715850
23402655 69 18271517612074726893
305870 269 17749381534054501691

>  <PUBCHEM_SHAPE_MULTIPOLES>  (1) 
189.08
5.41
1.67
0.77
1.32
0.18
-0.02
1.66
0.68
-0.09
0.03
0.18
0.08
0.75

>  <PUBCHEM_SHAPE_SELFOVERLAP>  (1) 
358.612

>  <PUBCHEM_SHAPE_VOLUME>  (1) 
114.9

>  <PUBCHEM_COORDINATE_TYPE>  (1) 
2
5
10

$$$$
