20617
     RDKit          3D

 10 10  0  0  0  0  0  0  0  0999 V2000
    1.5218    2.7592    0.0004 Br  0  0  0  0  0  0  0  0  0  0  0  0
    1.0624   -2.8134   -0.0001 Cl  0  0  0  0  0  0  0  0  0  0  0  0
   -3.3874    0.2172    0.0003 Cl  0  0  0  0  0  0  0  0  0  0  0  0
    2.4750   -0.1887    0.0005 O   0  0  0  0  0  0  0  0  0  0  0  0
    1.1131   -0.0911   -0.0004 C   0  0  0  0  0  0  0  0  0  0  0  0
    0.4998    1.1618   -0.0006 C   0  0  0  0  0  0  0  0  0  0  0  0
    0.3346   -1.2486    0.0000 C   0  0  0  0  0  0  0  0  0  0  0  0
   -0.8919    1.2571   -0.0004 C   0  0  0  0  0  0  0  0  0  0  0  0
   -1.0571   -1.1531    0.0002 C   0  0  0  0  0  0  0  0  0  0  0  0
   -1.6703    0.0997    0.0001 C   0  0  0  0  0  0  0  0  0  0  0  0
  1  6  1  0
  2  7  1  0
  3 10  1  0
  4  5  1  0
  5  6  2  0
  5  7  1  0
  6  8  1  0
  7  9  2  0
  8 10  2  0
  9 10  1  0
M  END
>  <PUBCHEM_COMPOUND_CID>  (1) 
20617

>  <PUBCHEM_CONFORMER_RMSD>  (1) 
0.4

>  <PUBCHEM_CONFORMER_DIVERSEORDER>  (1) 
1

>  <PUBCHEM_MMFF94_PARTIAL_CHARGES>  (1) 
13
1 -0.11
10 0.18
11 0.15
12 0.15
13 0.45
2 -0.18
3 -0.18
4 -0.53
5 0.08
6 0.11
7 0.18
8 -0.15
9 -0.15

>  <PUBCHEM_EFFECTIVE_ROTOR_COUNT>  (1) 
0

>  <PUBCHEM_PHARMACOPHORE_FEATURES>  (1) 
3
1 1 hydrophobe
1 4 donor
6 5 6 7 8 9 10 rings

>  <PUBCHEM_HEAVY_ATOM_COUNT>  (1) 
10

>  <PUBCHEM_ATOM_DEF_STEREO_COUNT>  (1) 
0

>  <PUBCHEM_ATOM_UDEF_STEREO_COUNT>  (1) 
0

>  <PUBCHEM_BOND_DEF_STEREO_COUNT>  (1) 
0

>  <PUBCHEM_BOND_UDEF_STEREO_COUNT>  (1) 
0

>  <PUBCHEM_ISOTOPIC_ATOM_COUNT>  (1) 
0

>  <PUBCHEM_COMPONENT_COUNT>  (1) 
1

>  <PUBCHEM_CACTVS_TAUTO_COUNT>  (1) 
3

>  <PUBCHEM_CONFORMER_ID>  (1) 
0000508900000001

>  <PUBCHEM_MMFF94_ENERGY>  (1) 
19.2892

>  <PUBCHEM_FEATURE_SELFOVERLAP>  (1) 
15.223

>  <PUBCHEM_SHAPE_FINGERPRINT>  (1) 
1 1 18410291449539384197
12423570 1 9222664415460352629
13380535 76 18052532471952465420
13380536 305 18338806709433398556
16945 1 18410855443175126437
18185500 45 18339923697340987743
193761 8 17906172107034259558
20871998 184 16686554355988469036
21040471 1 17978228584185680609
2334 1 18050286169770564165
23552423 10 18412260657864255223
23559900 14 17910409608491954724
241688 4 17834116342462385601
2748010 2 18120660381409915087
5084963 1 18131070475818256881

>  <PUBCHEM_SHAPE_MULTIPOLES>  (1) 
209.61
3.35
2.99
0.63
1.34
1.69
0
-2.25
0
-1.12
0
0
-0.03
0

>  <PUBCHEM_SHAPE_SELFOVERLAP>  (1) 
406.015

>  <PUBCHEM_SHAPE_VOLUME>  (1) 
133

>  <PUBCHEM_COORDINATE_TYPE>  (1) 
2
5
10

$$$$
