2062
     RDKit          3D

 27 29  0  0  0  0  0  0  0  0999 V2000
   -1.4479   -0.1380    1.1175 S   0  0  0  0  0  0  0  0  0  0  0  0
   -4.2333    0.6921    1.9824 S   0  0  0  0  0  0  0  0  0  0  0  0
    2.8012   -3.8378   -0.1074 O   0  0  0  0  0  0  0  0  0  0  0  0
    0.1011   -3.2384   -0.0991 O   0  0  0  0  0  0  0  0  0  0  0  0
    5.7616    2.7509   -1.6791 O   0  0  0  0  0  0  0  0  0  0  0  0
   -3.6092    0.0834   -0.4450 N   0  0  0  0  0  0  0  0  0  0  0  0
    5.9800    3.4036    0.4998 N   0  0  0  0  0  0  0  0  0  0  0  0
    3.8285    1.3574    2.4664 N   0  0  0  0  0  0  0  0  0  0  0  0
    0.6097   -0.9425   -0.5314 C   0  0  0  0  0  0  0  0  0  0  0  0
   -0.8529   -0.5926   -0.5322 C   0  0  0  0  0  0  0  0  0  0  0  0
    1.0183   -2.2526   -0.3145 C   0  0  0  0  0  0  0  0  0  0  0  0
    1.5406    0.0655   -0.7515 C   0  0  0  0  0  0  0  0  0  0  0  0
    2.9011   -0.2414   -0.7543 C   0  0  0  0  0  0  0  0  0  0  0  0
    2.3791   -2.5597   -0.3173 C   0  0  0  0  0  0  0  0  0  0  0  0
    3.3205   -1.5539   -0.5372 C   0  0  0  0  0  0  0  0  0  0  0  0
   -5.4843    0.7674    0.7982 C   0  0  0  0  0  0  0  0  0  0  0  0
   -4.9584    0.4061   -0.4459 C   0  0  0  0  0  0  0  0  0  0  0  0
   -3.1303    0.1991    0.7716 C   0  0  0  0  0  0  0  0  0  0  0  0
    3.8828    0.8072   -0.9835 C   0  0  0  0  0  0  0  0  0  0  0  0
   -6.8336    1.1209    0.9585 C   0  0  0  0  0  0  0  0  0  0  0  0
   -5.8157    0.3990   -1.5675 C   0  0  0  0  0  0  0  0  0  0  0  0
   -7.6605    1.1058   -0.1676 C   0  0  0  0  0  0  0  0  0  0  0  0
   -7.1602    0.7499   -1.4152 C   0  0  0  0  0  0  0  0  0  0  0  0
    4.4528    1.5913   -0.0342 C   0  0  0  0  0  0  0  0  0  0  0  0
    3.0548   -4.2232    1.2422 C   0  0  0  0  0  0  0  0  0  0  0  0
    5.4465    2.6197   -0.4983 C   0  0  0  0  0  0  0  0  0  0  0  0
    4.1077    1.4606    1.3446 C   0  0  0  0  0  0  0  0  0  0  0  0
  1 10  1  0
  1 18  1  0
  2 16  1  0
  2 18  1  0
  3 14  1  0
  3 25  1  0
  4 11  1  0
  5 26  2  0
  6 17  1  0
  6 18  2  0
  7 26  1  0
  8 27  3  0
  9 10  1  0
  9 11  2  0
  9 12  1  0
 11 14  1  0
 12 13  2  0
 13 15  1  0
 13 19  1  0
 14 15  2  0
 16 17  2  0
 16 20  1  0
 17 21  1  0
 19 24  2  0
 20 22  2  0
 21 23  2  0
 22 23  1  0
 24 26  1  0
 24 27  1  0
M  END
>  <PUBCHEM_COMPOUND_CID>  (1) 
2062

>  <PUBCHEM_CONFORMER_RMSD>  (1) 
0.8

>  <PUBCHEM_CONFORMER_DIVERSEORDER>  (1) 
1
133
198
144
196
73
211
86
152
19
210
215
75
41
60
147
77
239
192
23
90
70
187
186
189
111
235
218
183
6
225
95
240
113
236
143
199
205
136
219
142
227
72
149
150
157
33
122
232
204
21
129
99
110
27
223
234
206
109
35
89
100
10
71
241
63
119
158
195
22
228
230
85
212
172
53
216
231
188
134
175
112
128
44
120
11
2
203
200
15
32
169
178
202
46
162
224
220
28
176
126
151
233
57
214
130
229
43
194
25
17
42
217
62
103
184
242
209
153
140
36
54
190
177
67
148
97
135
101
167
166
78
49
161
69
92
107
55
180
124
131
108
207
156
48
40
58
74
138
9
65
118
14
4
145
185
237
208
173
37
191
104
13
76
102
47
182
137
91
141
165
56
87
50
179
163
213
52
116
132
127
105
168
8
222
59
226
154
5
31
51
193
197
106
155
181
45
88
38
82
20
125
83
164
79
93
243
26
7
61
84
96
123
39
24
117
146
12
94
81
29
30
3
221
66
159
170
139
16
121
174
114
98
64
160
201
68
80
171
18
115
238
34

>  <PUBCHEM_MMFF94_PARTIAL_CHARGES>  (1) 
37
1 -0.29
10 0.37
11 0.08
12 -0.15
13 0.03
14 0.08
15 -0.15
16 0.04
17 0.23
18 0.43
19 -0.18
2 -0.08
20 -0.15
21 -0.15
22 -0.15
23 -0.15
24 0.08
25 0.28
26 0.62
27 0.49
3 -0.36
30 0.15
31 0.15
32 0.15
33 0.15
34 0.15
35 0.15
36 0.15
37 0.45
4 -0.53
41 0.37
42 0.37
5 -0.57
6 -0.57
7 -0.8
8 -0.56
9 -0.14

>  <PUBCHEM_EFFECTIVE_ROTOR_COUNT>  (1) 
6

>  <PUBCHEM_PHARMACOPHORE_FEATURES>  (1) 
9
1 3 acceptor
1 4 donor
1 5 acceptor
1 6 acceptor
1 7 donor
1 8 acceptor
5 2 6 16 17 18 rings
6 16 17 20 21 22 23 rings
6 9 11 12 13 14 15 rings

>  <PUBCHEM_HEAVY_ATOM_COUNT>  (1) 
27

>  <PUBCHEM_ATOM_DEF_STEREO_COUNT>  (1) 
0

>  <PUBCHEM_ATOM_UDEF_STEREO_COUNT>  (1) 
0

>  <PUBCHEM_BOND_DEF_STEREO_COUNT>  (1) 
0

>  <PUBCHEM_BOND_UDEF_STEREO_COUNT>  (1) 
1

>  <PUBCHEM_ISOTOPIC_ATOM_COUNT>  (1) 
0

>  <PUBCHEM_COMPONENT_COUNT>  (1) 
1

>  <PUBCHEM_CACTVS_TAUTO_COUNT>  (1) 
6

>  <PUBCHEM_CONFORMER_ID>  (1) 
0000080E00000001

>  <PUBCHEM_MMFF94_ENERGY>  (1) 
75.1963

>  <PUBCHEM_FEATURE_SELFOVERLAP>  (1) 
45.744

>  <PUBCHEM_SHAPE_FINGERPRINT>  (1) 
10 15 17676773153874725605
10411042 1 17832989348120727958
10595046 47 18343021069716720965
11059845 2 12975258040353786287
11135609 127 18338507539967012029
11297750 10 17533489033544345862
11505856 67 17250918208802026246
11823591 26 18341048622992004096
12166972 35 18056476140904612723
12236239 1 17988645139279506815
12616971 3 18057885749988343423
13533116 47 18337955567586073715
13878862 14 18336814304264332367
13955234 65 18262237712161170346
14251764 30 10519992556134463241
14341114 176 10591748888903749199
14415360 78 18125148592313090548
14461889 52 18188215394313758947
14528608 73 17561083609646485993
14565420 104 18408885165851785104
14840074 17 18060702788936342693
14931854 50 17632590374271614200
16096371 109 18408037399542787562
16120349 189 18190465046379896060
1979834 28 17968104122155818412
20157964 124 18409168792359256231
20511986 3 17988631975015204429
20554085 129 18059845212863232200
21033648 144 18409450285048690303
21033648 29 17603869967049873893
21049683 118 18198041772822862386
21344244 78 17984970506626374634
21403212 168 18412535510666280762
21703447 108 17969497100451315731
23081809 10 17846213307853432135
23522609 53 17560257829744490753
23559900 14 17169003191872832163
23845131 108 18335705000470518922
244849 19 17024569119618357415
249057 25 17488752168156148891
249999 5 18335421240676526218
2748736 6 18411697716353647053
3004659 81 17916585324174300943
34797466 226 14404891505997906811
3918712 181 18272082859419751856
4073 2 18334582373708297579
513532 50 15482379924654556858
57091435 61 17917139593682345384
6327066 14 18266462186485852396
6697151 62 17611442169875308719
9849439 229 18198893894202857384
9962374 69 18269264682368885367

>  <PUBCHEM_SHAPE_MULTIPOLES>  (1) 
530.8
19.05
3.84
1.64
26.71
3.19
0.58
-15.91
-2.13
-10.34
0.5
0.38
-0.59
-0.65

>  <PUBCHEM_SHAPE_SELFOVERLAP>  (1) 
1123.288

>  <PUBCHEM_SHAPE_VOLUME>  (1) 
298.2

>  <PUBCHEM_COORDINATE_TYPE>  (1) 
2
5
10

$$$$
