20626
     RDKit          3D

 24 26  0  0  0  0  0  0  0  0999 V2000
    7.0813    2.1952   -0.3470 Cl  0  0  0  0  0  0  0  0  0  0  0  0
   -4.9377    1.7285    0.1302 S   0  0  0  0  0  0  0  0  0  0  0  0
    1.2544   -3.5058   -0.2264 O   0  0  0  0  0  0  0  0  0  0  0  0
   -5.5135    1.8108   -1.3977 O   0  0  0  0  0  0  0  0  0  0  0  0
   -5.8876    0.9386    0.9000 O   0  0  0  0  0  0  0  0  0  0  0  0
   -4.5790    3.0739    0.5507 O   0  0  0  0  0  0  0  0  0  0  0  0
    1.3604   -0.7571   -0.4938 N   0  0  0  0  0  0  0  0  0  0  0  0
    1.8882   -0.4606    0.6012 N   0  0  0  0  0  0  0  0  0  0  0  0
   -1.0611   -0.6430   -0.1770 C   0  0  0  0  0  0  0  0  0  0  0  0
   -2.2854   -1.3157    0.0493 C   0  0  0  0  0  0  0  0  0  0  0  0
   -3.4516    0.8193    0.0116 C   0  0  0  0  0  0  0  0  0  0  0  0
   -3.4719   -0.5699    0.1409 C   0  0  0  0  0  0  0  0  0  0  0  0
    0.1255   -1.3886   -0.2688 C   0  0  0  0  0  0  0  0  0  0  0  0
   -1.0592    0.7556   -0.3051 C   0  0  0  0  0  0  0  0  0  0  0  0
   -2.2871   -2.7143    0.1771 C   0  0  0  0  0  0  0  0  0  0  0  0
   -2.2475    1.4807   -0.2112 C   0  0  0  0  0  0  0  0  0  0  0  0
    0.1053   -2.7776   -0.1391 C   0  0  0  0  0  0  0  0  0  0  0  0
   -1.0988   -3.4392    0.0834 C   0  0  0  0  0  0  0  0  0  0  0  0
    3.1235    0.1708    0.3766 C   0  0  0  0  0  0  0  0  0  0  0  0
    3.1770    1.5545    0.2422 C   0  0  0  0  0  0  0  0  0  0  0  0
    4.2836   -0.5926    0.2894 C   0  0  0  0  0  0  0  0  0  0  0  0
    4.4027    2.1813    0.0183 C   0  0  0  0  0  0  0  0  0  0  0  0
    5.5094    0.0341    0.0654 C   0  0  0  0  0  0  0  0  0  0  0  0
    5.5691    1.4212   -0.0700 C   0  0  0  0  0  0  0  0  0  0  0  0
  1 24  1  0
  2  4  1  0
  2  5  2  0
  2  6  2  0
  2 11  1  0
  3 17  1  0
  7  8  2  0
  7 13  1  0
  8 19  1  0
  9 10  2  0
  9 13  1  0
  9 14  1  0
 10 12  1  0
 10 15  1  0
 11 12  2  0
 11 16  1  0
 13 17  2  0
 14 16  2  0
 15 18  2  0
 17 18  1  0
 19 20  2  0
 19 21  1  0
 20 22  1  0
 21 23  2  0
 22 24  2  0
 23 24  1  0
M  END
>  <PUBCHEM_COMPOUND_CID>  (1) 
20626

>  <PUBCHEM_CONFORMER_RMSD>  (1) 
0.6

>  <PUBCHEM_CONFORMER_DIVERSEORDER>  (1) 
1
5
3
2
6
4

>  <PUBCHEM_MMFF94_PARTIAL_CHARGES>  (1) 
33
1 -0.18
11 -0.01
12 -0.15
13 0.18
14 -0.15
15 -0.15
16 -0.15
17 0.08
18 -0.15
19 0.18
2 1.49
20 -0.15
21 -0.15
22 -0.15
23 -0.15
24 0.18
25 0.15
26 0.15
27 0.15
28 0.15
29 0.15
3 -0.53
30 0.45
31 0.5
32 0.15
33 0.15
34 0.15
35 0.15
4 -0.68
5 -0.65
6 -0.65
7 -0.18
8 -0.18

>  <PUBCHEM_EFFECTIVE_ROTOR_COUNT>  (1) 
3

>  <PUBCHEM_PHARMACOPHORE_FEATURES>  (1) 
8
1 3 donor
1 4 acceptor
1 5 acceptor
1 6 acceptor
4 2 4 5 6 anion
6 19 20 21 22 23 24 rings
6 9 10 11 12 14 16 rings
6 9 10 13 15 17 18 rings

>  <PUBCHEM_HEAVY_ATOM_COUNT>  (1) 
24

>  <PUBCHEM_ATOM_DEF_STEREO_COUNT>  (1) 
0

>  <PUBCHEM_ATOM_UDEF_STEREO_COUNT>  (1) 
0

>  <PUBCHEM_BOND_DEF_STEREO_COUNT>  (1) 
0

>  <PUBCHEM_BOND_UDEF_STEREO_COUNT>  (1) 
0

>  <PUBCHEM_ISOTOPIC_ATOM_COUNT>  (1) 
0

>  <PUBCHEM_COMPONENT_COUNT>  (1) 
1

>  <PUBCHEM_CACTVS_TAUTO_COUNT>  (1) 
3

>  <PUBCHEM_CONFORMER_ID>  (1) 
0000509200000001

>  <PUBCHEM_MMFF94_ENERGY>  (1) 
59.6543

>  <PUBCHEM_FEATURE_SELFOVERLAP>  (1) 
40.678

>  <PUBCHEM_SHAPE_FINGERPRINT>  (1) 
10 15 18187089464062316777
10050765 1 18411419475746227815
10165383 225 18412547608639808593
10411042 1 17546165659119803151
10493431 412 18410295804873722349
12107183 9 18263634092476786546
12173636 292 18267859665500823062
12390115 104 18342189872420697385
12422481 6 17240484659060667437
12769317 202 18270106899643024665
13540713 4 18338254673551811979
13785724 45 17834109741816135370
138480 1 17546445579217528267
14251764 75 18199197187392028521
14257110 125 18410011039530154265
14767858 380 18271225189553251373
14787075 74 18201714047112499425
14790565 3 18411422782422380129
15196674 1 18410572920463869856
15778101 99 18410295856656046460
16126227 98 18340211885484120240
17834072 32 18410573989668010016
17980427 23 17967536808900635719
18785283 64 18192992612779330370
19784866 170 18335423443820136491
21033648 29 18200586025317791840
21236236 1 18340767143525251311
21279426 13 18271536338337826870
21421861 104 17895458251929026890
21756936 100 18342450495790089460
23559900 14 18272654511614659358
283562 15 18265044920171693075
2838139 119 18059848441882566281
335352 9 18411418368065931414
350125 39 18339081618127572825
4073 2 18114466781815486210
4214541 1 18338797939901184954
474 4 18340201882652318083
5104073 3 18188761864603720554
59682541 35 18261405468522648721
59755656 520 18410007741042796070
6327066 14 18335414660464674341
633830 44 18271239430815667094
77188 2 17041761461171372838
7808743 9 18410291445249893032
9981440 41 18408604773054528371

>  <PUBCHEM_SHAPE_MULTIPOLES>  (1) 
466.19
14.38
3.77
0.75
12.3
2.22
0.05
-14.69
0
-2.48
0.08
-0.41
-0.18
-0.11

>  <PUBCHEM_SHAPE_SELFOVERLAP>  (1) 
1007.05

>  <PUBCHEM_SHAPE_VOLUME>  (1) 
257.5

>  <PUBCHEM_COORDINATE_TYPE>  (1) 
2
5
10

$$$$
