20621
     RDKit          3D

 10 10  0  0  0  0  0  0  0  0999 V2000
   -1.5112    2.7734   -0.0001 Br  0  0  0  0  0  0  0  0  0  0  0  0
    3.5412    0.1910   -0.0001 Br  0  0  0  0  0  0  0  0  0  0  0  0
   -1.1072   -2.8033   -0.0005 Cl  0  0  0  0  0  0  0  0  0  0  0  0
   -2.4935   -0.1643    0.0006 O   0  0  0  0  0  0  0  0  0  0  0  0
   -1.1307   -0.0807   -0.0003 C   0  0  0  0  0  0  0  0  0  0  0  0
   -0.5048    1.1660   -0.0003 C   0  0  0  0  0  0  0  0  0  0  0  0
   -0.3642   -1.2461    0.0001 C   0  0  0  0  0  0  0  0  0  0  0  0
    0.8878    1.2472   -0.0001 C   0  0  0  0  0  0  0  0  0  0  0  0
    1.0283   -1.1648    0.0003 C   0  0  0  0  0  0  0  0  0  0  0  0
    1.6543    0.0817    0.0002 C   0  0  0  0  0  0  0  0  0  0  0  0
  1  6  1  0
  2 10  1  0
  3  7  1  0
  4  5  1  0
  5  6  2  0
  5  7  1  0
  6  8  1  0
  7  9  2  0
  8 10  2  0
  9 10  1  0
M  END
>  <PUBCHEM_COMPOUND_CID>  (1) 
20621

>  <PUBCHEM_CONFORMER_RMSD>  (1) 
0.4

>  <PUBCHEM_CONFORMER_DIVERSEORDER>  (1) 
1

>  <PUBCHEM_MMFF94_PARTIAL_CHARGES>  (1) 
13
1 -0.11
10 0.11
11 0.15
12 0.15
13 0.45
2 -0.11
3 -0.18
4 -0.53
5 0.08
6 0.11
7 0.18
8 -0.15
9 -0.15

>  <PUBCHEM_EFFECTIVE_ROTOR_COUNT>  (1) 
0

>  <PUBCHEM_PHARMACOPHORE_FEATURES>  (1) 
4
1 1 hydrophobe
1 2 hydrophobe
1 4 donor
6 5 6 7 8 9 10 rings

>  <PUBCHEM_HEAVY_ATOM_COUNT>  (1) 
10

>  <PUBCHEM_ATOM_DEF_STEREO_COUNT>  (1) 
0

>  <PUBCHEM_ATOM_UDEF_STEREO_COUNT>  (1) 
0

>  <PUBCHEM_BOND_DEF_STEREO_COUNT>  (1) 
0

>  <PUBCHEM_BOND_UDEF_STEREO_COUNT>  (1) 
0

>  <PUBCHEM_ISOTOPIC_ATOM_COUNT>  (1) 
0

>  <PUBCHEM_COMPONENT_COUNT>  (1) 
1

>  <PUBCHEM_CACTVS_TAUTO_COUNT>  (1) 
3

>  <PUBCHEM_CONFORMER_ID>  (1) 
0000508D00000001

>  <PUBCHEM_MMFF94_ENERGY>  (1) 
19.4985

>  <PUBCHEM_FEATURE_SELFOVERLAP>  (1) 
20.297

>  <PUBCHEM_SHAPE_FINGERPRINT>  (1) 
1 1 17761775061639985132
12423570 1 12607395572824563011
12716758 59 18341337686969990654
13380535 76 18048311146134100097
16945 1 18410574002573978404
193761 8 17906171746235901191
20871998 184 18201161078183149766
21040471 1 18338517409300470624
2334 1 17834113422027068228
23402539 116 18342444963408066703
23552423 10 17762335812622748893
23559900 14 18128259992225209102
2748010 2 18122069706176972292
5084963 1 18131068195195910448

>  <PUBCHEM_SHAPE_MULTIPOLES>  (1) 
213.68
3.64
2.97
0.64
2.99
0.94
0
-1.57
0
-2.06
0
0.04
-0.04
0

>  <PUBCHEM_SHAPE_SELFOVERLAP>  (1) 
408.578

>  <PUBCHEM_SHAPE_VOLUME>  (1) 
137.5

>  <PUBCHEM_COORDINATE_TYPE>  (1) 
2
5
10

$$$$
