20622
     RDKit          3D

  8  8  0  0  0  0  0  0  0  0999 V2000
    1.0175    1.1791   -0.0236 O   0  0  0  0  0  0  0  0  0  0  0  0
    1.0149   -1.1486   -0.3301 O   0  0  0  0  0  0  0  0  0  0  0  0
    0.2645    0.0608   -0.5081 C   0  0  0  0  0  0  0  0  0  0  0  0
    2.3447    0.6765    0.1228 C   0  0  0  0  0  0  0  0  0  0  0  0
    2.1311   -0.7699    0.4757 C   0  0  0  0  0  0  0  0  0  0  0  0
   -1.0245   -0.0245    0.2312 C   0  0  0  0  0  0  0  0  0  0  0  0
   -2.2277    0.0564   -0.3546 C   0  0  0  0  0  0  0  0  0  0  0  0
   -3.5206   -0.0299    0.3867 C   0  0  0  0  0  0  0  0  0  0  0  0
  1  3  1  0
  1  4  1  0
  2  3  1  0
  2  5  1  0
  3  6  1  0
  4  5  1  0
  6  7  2  0
  7  8  1  0
M  END
>  <PUBCHEM_COMPOUND_CID>  (1) 
20622

>  <PUBCHEM_CONFORMER_RMSD>  (1) 
0.4

>  <PUBCHEM_CONFORMER_DIVERSEORDER>  (1) 
1
2

>  <PUBCHEM_MMFF94_PARTIAL_CHARGES>  (1) 
10
1 -0.56
14 0.15
15 0.15
2 -0.56
3 0.7
4 0.28
5 0.28
6 -0.29
7 -0.29
8 0.14

>  <PUBCHEM_EFFECTIVE_ROTOR_COUNT>  (1) 
2

>  <PUBCHEM_PHARMACOPHORE_FEATURES>  (1) 
4
1 1 acceptor
1 2 acceptor
1 8 hydrophobe
5 1 2 3 4 5 rings

>  <PUBCHEM_HEAVY_ATOM_COUNT>  (1) 
8

>  <PUBCHEM_ATOM_DEF_STEREO_COUNT>  (1) 
0

>  <PUBCHEM_ATOM_UDEF_STEREO_COUNT>  (1) 
0

>  <PUBCHEM_BOND_DEF_STEREO_COUNT>  (1) 
0

>  <PUBCHEM_BOND_UDEF_STEREO_COUNT>  (1) 
1

>  <PUBCHEM_ISOTOPIC_ATOM_COUNT>  (1) 
0

>  <PUBCHEM_COMPONENT_COUNT>  (1) 
1

>  <PUBCHEM_CACTVS_TAUTO_COUNT>  (1) 
1

>  <PUBCHEM_CONFORMER_ID>  (1) 
0000508E00000001

>  <PUBCHEM_MMFF94_ENERGY>  (1) 
7.8101

>  <PUBCHEM_FEATURE_SELFOVERLAP>  (1) 
20.338

>  <PUBCHEM_SHAPE_FINGERPRINT>  (1) 
11062470 55 18260546723395993561
12932764 1 18409163320655265215
14325111 11 18409729577849574771
14390081 3 13398631632674539555
20871998 22 17983298123470269310
21040471 1 18268707397534264468
23552333 60 18343022164142045456
29004967 10 18261109655916305680
3248919 1 17775567529173145175
5460574 1 10015866483320094821

>  <PUBCHEM_SHAPE_MULTIPOLES>  (1) 
152.9
4.62
1
0.71
3.39
0.01
0
0.02
0.75
-0.59
0
0.05
0.03
0

>  <PUBCHEM_SHAPE_SELFOVERLAP>  (1) 
294.969

>  <PUBCHEM_SHAPE_VOLUME>  (1) 
94.1

>  <PUBCHEM_COORDINATE_TYPE>  (1) 
2
5
10

$$$$
