20635
     RDKit          3D

 19 19  0  0  1  0  0  0  0  0999 V2000
    2.7199    0.0617   -0.4119 C   0  0  0  0  0  0  0  0  0  0  0  0
    2.9439    1.2486    0.5570 C   0  0  0  0  0  0  0  0  0  0  0  0
    1.6650    2.0575    0.8096 C   0  0  0  0  0  0  0  0  0  0  0  0
    1.1127    2.7360   -0.4480 C   0  0  0  0  0  0  0  0  0  0  0  0
   -0.1100    3.6368   -0.2374 C   0  0  0  0  0  0  0  0  0  0  0  0
   -1.3329    2.9641    0.3957 C   0  0  0  0  0  0  0  0  0  0  0  0
    4.0594   -0.6735   -0.6435 C   0  0  0  0  0  0  0  0  0  0  0  0
   -1.9216    1.8404   -0.4607 C   0  0  0  0  0  0  0  0  0  0  0  0
    1.6262   -0.8735    0.0836 C   0  0  0  0  0  0  0  0  0  0  0  0
   -3.0992    1.1201    0.2069 C   0  0  0  0  0  0  0  0  0  0  0  0
   -3.6326   -0.0553   -0.6179 C   0  0  0  0  0  0  0  0  0  0  0  0
    3.9618   -1.7899   -1.6765 C   0  0  0  0  0  0  0  0  0  0  0  0
    0.8029   -1.5304   -0.8312 C   0  0  0  0  0  0  0  0  0  0  0  0
    1.4473   -1.0745    1.4523 C   0  0  0  0  0  0  0  0  0  0  0  0
   -4.7627   -0.8206    0.0748 C   0  0  0  0  0  0  0  0  0  0  0  0
   -0.1993   -2.3877   -0.3772 C   0  0  0  0  0  0  0  0  0  0  0  0
    0.4451   -1.9320    1.9062 C   0  0  0  0  0  0  0  0  0  0  0  0
   -5.3479   -1.9393   -0.7732 C   0  0  0  0  0  0  0  0  0  0  0  0
   -0.3782   -2.5885    0.9914 C   0  0  0  0  0  0  0  0  0  0  0  0
  1  2  1  0
  1  7  1  0
  1  9  1  0
  2  3  1  0
  3  4  1  0
  4  5  1  0
  5  6  1  0
  6  8  1  0
  7 12  1  0
  8 10  1  0
  9 13  2  0
  9 14  1  0
 10 11  1  0
 11 15  1  0
 13 16  1  0
 14 17  2  0
 15 18  1  0
 16 19  2  0
 17 19  1  0
M  END
>  <PUBCHEM_COMPOUND_CID>  (1) 
20635

>  <PUBCHEM_CONFORMER_RMSD>  (1) 
1.2

>  <PUBCHEM_CONFORMER_DIVERSEORDER>  (1) 
2
54
114
119
13
7
86
98
92
96
83
116
9
99
51
4
93
81
29
62
104
105
73
24
94
97
58
18
1
33
36
108
82
79
85
72
118
71
89
66
28
41
49
112
39
34
63
117
12
50
109
64
113
78
20
106
25
115
67
8
23
37
60
74
17
3
31
21
26
5
19
42
103
32
111
53
16
91
46
76
22
77
15
100
110
14
65
61
57
6
10
55
40
101
84
80
69
107
45
90
52
87
43
47
88
56
75
68
35
95
59
27
102
38
11
120
48
70
30
44

>  <PUBCHEM_MMFF94_PARTIAL_CHARGES>  (1) 
12
1 0.14
13 -0.15
14 -0.15
16 -0.15
17 -0.15
19 -0.15
44 0.15
45 0.15
46 0.15
47 0.15
51 0.15
9 -0.14

>  <PUBCHEM_EFFECTIVE_ROTOR_COUNT>  (1) 
11

>  <PUBCHEM_PHARMACOPHORE_FEATURES>  (1) 
3
1 12 hydrophobe
1 18 hydrophobe
6 9 13 14 16 17 19 rings

>  <PUBCHEM_HEAVY_ATOM_COUNT>  (1) 
19

>  <PUBCHEM_ATOM_DEF_STEREO_COUNT>  (1) 
0

>  <PUBCHEM_ATOM_UDEF_STEREO_COUNT>  (1) 
1

>  <PUBCHEM_BOND_DEF_STEREO_COUNT>  (1) 
0

>  <PUBCHEM_BOND_UDEF_STEREO_COUNT>  (1) 
0

>  <PUBCHEM_ISOTOPIC_ATOM_COUNT>  (1) 
0

>  <PUBCHEM_COMPONENT_COUNT>  (1) 
1

>  <PUBCHEM_CACTVS_TAUTO_COUNT>  (1) 
1

>  <PUBCHEM_CONFORMER_ID>  (1) 
0000509B00000002

>  <PUBCHEM_MMFF94_ENERGY>  (1) 
23.5453

>  <PUBCHEM_FEATURE_SELFOVERLAP>  (1) 
15.223

>  <PUBCHEM_SHAPE_FINGERPRINT>  (1) 
10498660 4 18337666400449107799
108634 29 18263084469115703362
11221954 11 17614561874919528497
11578080 2 16556204903411009442
12293681 4 18408610274896935106
12553582 1 18194115223142033801
12596599 1 17845673446974534569
12778500 126 16845032134294055571
13032168 30 18269000782392620376
13464513 79 18412822520969566889
14178342 30 18195513818659072161
14251751 93 18052259496926894102
14251757 17 17340700599994324078
14787075 74 18334019418663018876
17492 54 18188218717974815469
20645477 70 18191857037102155301
20905425 154 18194961829535243860
21141583 151 18411422808223182696
21197605 99 17472700703541705275
22393880 68 18335692802773376261
22907989 373 17617152037300788462
2871803 45 18337103480339372653
6443956 14 18409164437764305605

>  <PUBCHEM_SHAPE_MULTIPOLES>  (1) 
391.01
7.86
4.22
1.33
8.4
2.91
-0.27
-4.06
3.04
0.51
-0.15
-0.79
-0.86
0.34

>  <PUBCHEM_SHAPE_SELFOVERLAP>  (1) 
754.686

>  <PUBCHEM_SHAPE_VOLUME>  (1) 
234.6

>  <PUBCHEM_COORDINATE_TYPE>  (1) 
2
5
10

$$$$
