2063
     RDKit          3D

 14 14  0  0  0  0  0  0  0  0999 V2000
    4.0366   -0.1372    0.3446 O   0  0  0  0  0  0  0  0  0  0  0  0
   -4.9004    0.8256   -0.3131 N   0  0  0  0  0  0  0  0  0  0  0  0
   -1.9988   -2.5068    0.3284 N   0  0  0  0  0  0  0  0  0  0  0  0
   -0.0254    0.6419   -0.0016 C   0  0  0  0  0  0  0  0  0  0  0  0
    2.7048    0.1180    0.2310 C   0  0  0  0  0  0  0  0  0  0  0  0
    0.5954    0.7169    1.2453 C   0  0  0  0  0  0  0  0  0  0  0  0
    0.7189    0.3049   -1.1322 C   0  0  0  0  0  0  0  0  0  0  0  0
    1.9605    0.4550    1.3615 C   0  0  0  0  0  0  0  0  0  0  0  0
    2.0840    0.0429   -1.0158 C   0  0  0  0  0  0  0  0  0  0  0  0
   -1.4486    0.9156   -0.1232 C   0  0  0  0  0  0  0  0  0  0  0  0
   -2.4577    0.0130   -0.0432 C   0  0  0  0  0  0  0  0  0  0  0  0
    4.7376   -0.4759   -0.8513 C   0  0  0  0  0  0  0  0  0  0  0  0
   -3.8047    0.4624   -0.1925 C   0  0  0  0  0  0  0  0  0  0  0  0
   -2.2023   -1.3763    0.1623 C   0  0  0  0  0  0  0  0  0  0  0  0
  1  5  1  0
  1 12  1  0
  2 13  3  0
  3 14  3  0
  4  6  2  0
  4  7  1  0
  4 10  1  0
  5  8  2  0
  5  9  1  0
  6  8  1  0
  7  9  2  0
 10 11  2  3
 11 13  1  0
 11 14  1  0
M  END
>  <PUBCHEM_COMPOUND_CID>  (1) 
2063

>  <PUBCHEM_CONFORMER_RMSD>  (1) 
0.6

>  <PUBCHEM_CONFORMER_DIVERSEORDER>  (1) 
1
3
2

>  <PUBCHEM_MMFF94_PARTIAL_CHARGES>  (1) 
19
1 -0.36
10 -0.18
11 0.13
12 0.28
13 0.49
14 0.49
15 0.15
16 0.15
17 0.15
18 0.15
19 0.15
2 -0.56
3 -0.56
4 0.03
5 0.08
6 -0.15
7 -0.15
8 -0.15
9 -0.15

>  <PUBCHEM_EFFECTIVE_ROTOR_COUNT>  (1) 
2

>  <PUBCHEM_PHARMACOPHORE_FEATURES>  (1) 
4
1 1 acceptor
1 2 acceptor
1 3 acceptor
6 4 5 6 7 8 9 rings

>  <PUBCHEM_HEAVY_ATOM_COUNT>  (1) 
14

>  <PUBCHEM_ATOM_DEF_STEREO_COUNT>  (1) 
0

>  <PUBCHEM_ATOM_UDEF_STEREO_COUNT>  (1) 
0

>  <PUBCHEM_BOND_DEF_STEREO_COUNT>  (1) 
0

>  <PUBCHEM_BOND_UDEF_STEREO_COUNT>  (1) 
0

>  <PUBCHEM_ISOTOPIC_ATOM_COUNT>  (1) 
0

>  <PUBCHEM_COMPONENT_COUNT>  (1) 
1

>  <PUBCHEM_CACTVS_TAUTO_COUNT>  (1) 
1

>  <PUBCHEM_CONFORMER_ID>  (1) 
0000080F00000001

>  <PUBCHEM_MMFF94_ENERGY>  (1) 
40.0612

>  <PUBCHEM_FEATURE_SELFOVERLAP>  (1) 
20.297

>  <PUBCHEM_SHAPE_FINGERPRINT>  (1) 
10219947 1 16271928224933141072
11471102 20 16774074077221177192
11471102 22 16773804718220328618
11543360 7 18261124010398655196
12236239 1 17312822654396765117
124424 183 17846499235635172888
12500047 106 18410851066593116735
12932764 1 17240748618918040573
13760787 19 18334297587016123086
14115302 16 18409173220264907525
14993402 34 17822009800307124709
15207287 21 17917712387885054831
15219456 202 18059007427235283672
15279308 132 18413668011373270355
15375358 24 17988923374827515727
17802600 8 10015578398199279274
18175812 5 18131064978307792068
18186145 218 15430036612541060284
18522853 276 11383829368027816146
19010151 120 14549018792764409865
19422 9 17240491359394095643
200 152 15123785180759854277
20201158 50 17775288252739707111
20279233 1 17847067687494526087
20645476 183 17675925408845235659
20645477 70 17060619975863036340
20681677 155 18113618997123546242
20871999 31 18115027523169422711
21119208 17 17894352167893537372
21618674 57 17917714565338463379
22485316 2 18409727374536698202
23402539 116 18341886369095172757
23402655 69 15430027743454758061
23559900 14 18413106178454165864
23598291 2 17459195234296705519
53748568 43 17313097579490255891
568465 68 17346047782558880974
57426455 114 18271799129694862915
58051976 100 17967253126321316231
69090 78 17561072627810418071
74978 22 18262234546912171493
81228 2 17630349470341403905
8809292 202 18343866636222014763

>  <PUBCHEM_SHAPE_MULTIPOLES>  (1) 
272.28
8.09
1.33
1.11
0.06
0.93
-0.09
0.35
1.43
-1.14
-0.28
0.68
-0.11
0.67

>  <PUBCHEM_SHAPE_SELFOVERLAP>  (1) 
567.245

>  <PUBCHEM_SHAPE_VOLUME>  (1) 
150.5

>  <PUBCHEM_COORDINATE_TYPE>  (1) 
2
5
10

$$$$
