20640
     RDKit          3D

 20 20  0  0  1  0  0  0  0  0999 V2000
   -2.9686   -0.9915   -0.3163 C   0  0  0  0  0  0  0  0  0  0  0  0
   -1.5987   -1.3961    0.2789 C   0  0  0  0  0  0  0  0  0  0  0  0
   -0.4204   -0.6471   -0.3563 C   0  0  0  0  0  0  0  0  0  0  0  0
    0.9111   -1.0907    0.2538 C   0  0  0  0  0  0  0  0  0  0  0  0
   -4.0741   -1.8919    0.2847 C   0  0  0  0  0  0  0  0  0  0  0  0
    2.0842   -0.3153   -0.3481 C   0  0  0  0  0  0  0  0  0  0  0  0
    3.4183   -0.7820    0.2368 C   0  0  0  0  0  0  0  0  0  0  0  0
   -3.2645    0.4876   -0.1229 C   0  0  0  0  0  0  0  0  0  0  0  0
    4.5891    0.0170   -0.3411 C   0  0  0  0  0  0  0  0  0  0  0  0
   -5.4517   -1.6555   -0.3446 C   0  0  0  0  0  0  0  0  0  0  0  0
    5.9237   -0.4722    0.2196 C   0  0  0  0  0  0  0  0  0  0  0  0
    7.1455    0.2900   -0.3053 C   0  0  0  0  0  0  0  0  0  0  0  0
   -3.9844    1.1572   -1.0921 C   0  0  0  0  0  0  0  0  0  0  0  0
   -2.8053    1.1178    1.0163 C   0  0  0  0  0  0  0  0  0  0  0  0
   -6.5032   -2.5704    0.2647 C   0  0  0  0  0  0  0  0  0  0  0  0
    8.4821   -0.1406    0.3062 C   0  0  0  0  0  0  0  0  0  0  0  0
   -4.2561    2.5138   -0.9148 C   0  0  0  0  0  0  0  0  0  0  0  0
   -3.0772    2.4743    1.1936 C   0  0  0  0  0  0  0  0  0  0  0  0
   -3.8027    3.1723    0.2280 C   0  0  0  0  0  0  0  0  0  0  0  0
    9.6528    0.7233   -0.1411 C   0  0  0  0  0  0  0  0  0  0  0  0
  1  2  1  0
  1  5  1  0
  1  8  1  0
  2  3  1  0
  3  4  1  0
  4  6  1  0
  5 10  1  0
  6  7  1  0
  7  9  1  0
  8 13  2  0
  8 14  1  0
  9 11  1  0
 10 15  1  0
 11 12  1  0
 12 16  1  0
 13 17  1  0
 14 18  2  0
 16 20  1  0
 17 19  2  0
 18 19  1  0
M  END
>  <PUBCHEM_COMPOUND_CID>  (1) 
20640

>  <PUBCHEM_CONFORMER_RMSD>  (1) 
1.2

>  <PUBCHEM_CONFORMER_DIVERSEORDER>  (1) 
1
56
5
132
284
59
13
95
503
42
510
67
183
258
53
164
156
429
130
191
357
188
269
210
312
134
262
422
170
310
213
363
26
401
15
55
279
146
16
4
149
424
22
483
328
139
29
305
206
202
58
257
43
47
410
250
232
18
2
449
390
504
64
197
20
115
75
339
90
28
436
270
280
227
371
44
393
109
177
96
295
102
32
248
508
373
425
46
21
3
347
165
376
8
87
286
366
61
171
469
348
345
31
233
14
81
150
231
118
7
480
218
135
447
80
12
19
38
101
184
439
324
297
9
495
196
391
387
116
152
493
189
63
66
327

>  <PUBCHEM_MMFF94_PARTIAL_CHARGES>  (1) 
12
1 0.14
13 -0.15
14 -0.15
17 -0.15
18 -0.15
19 -0.15
42 0.15
43 0.15
49 0.15
50 0.15
51 0.15
8 -0.14

>  <PUBCHEM_EFFECTIVE_ROTOR_COUNT>  (1) 
12

>  <PUBCHEM_PHARMACOPHORE_FEATURES>  (1) 
3
1 15 hydrophobe
1 20 hydrophobe
6 8 13 14 17 18 19 rings

>  <PUBCHEM_HEAVY_ATOM_COUNT>  (1) 
20

>  <PUBCHEM_ATOM_DEF_STEREO_COUNT>  (1) 
0

>  <PUBCHEM_ATOM_UDEF_STEREO_COUNT>  (1) 
1

>  <PUBCHEM_BOND_DEF_STEREO_COUNT>  (1) 
0

>  <PUBCHEM_BOND_UDEF_STEREO_COUNT>  (1) 
0

>  <PUBCHEM_ISOTOPIC_ATOM_COUNT>  (1) 
0

>  <PUBCHEM_COMPONENT_COUNT>  (1) 
1

>  <PUBCHEM_CACTVS_TAUTO_COUNT>  (1) 
1

>  <PUBCHEM_CONFORMER_ID>  (1) 
000050A000000001

>  <PUBCHEM_MMFF94_ENERGY>  (1) 
23.2511

>  <PUBCHEM_FEATURE_SELFOVERLAP>  (1) 
15.223

>  <PUBCHEM_SHAPE_FINGERPRINT>  (1) 
100830 39 18411418410735801780
10411042 1 18194682799408242063
10669705 176 18412545380274345174
10670039 82 18409162212633083984
11101153 10 18263085572843508677
11135926 11 15123792868999124404
11315181 36 17821729459233610494
12082328 90 18413670202065249214
12091667 2 18412544327833323022
13073987 5 18409730630185829178
13631057 29 18408318917564473227
14118638 360 18408601444555210634
14251764 18 17967812761129749106
14251764 46 16415204498253348214
14729087 3 18341609305577220056
15419008 47 17704348884056238656
155225 5 18126567813159590792
15778101 99 18340208479532375513
17093844 174 18259702294413656376
17844677 252 18411143562777467420
19427546 20 18407758123858181725
19489759 90 18408323293624217538
20281389 69 18410855469672937128
21315763 28 18409166636987306470
23081809 10 17822013095459780638
249057 25 17822020838905826038
283562 15 18407760323050983027
445580 37 18411425012237601628
54446538 1 18335140925377337196
59567204 34 18411135815210723717
6327066 14 18191581948436144789

>  <PUBCHEM_SHAPE_MULTIPOLES>  (1) 
411.59
23.91
2.83
0.9
70.62
1.61
0.03
-0.5
-0.69
-8.09
0.29
-0.74
0.37
-0.01

>  <PUBCHEM_SHAPE_SELFOVERLAP>  (1) 
793.243

>  <PUBCHEM_SHAPE_VOLUME>  (1) 
247.5

>  <PUBCHEM_COORDINATE_TYPE>  (1) 
2
5
10

$$$$
