2064
     RDKit          3D

 20 21  0  0  0  0  0  0  0  0999 V2000
    2.9129    2.4575   -0.3860 O   0  0  0  0  0  0  0  0  0  0  0  0
    5.6267   -2.2990    0.2520 O   0  0  0  0  0  0  0  0  0  0  0  0
   -5.6231   -0.3965   -0.8671 O   0  0  0  0  0  0  0  0  0  0  0  0
   -5.5999    0.3294    1.3173 O   0  0  0  0  0  0  0  0  0  0  0  0
    0.6273   -0.0962   -0.2535 N   0  0  0  0  0  0  0  0  0  0  0  0
    1.5155    0.2693    0.8063 C   0  0  0  0  0  0  0  0  0  0  0  0
    2.9455    0.1770    0.3511 C   0  0  0  0  0  0  0  0  0  0  0  0
   -0.7765   -0.0717   -0.1191 C   0  0  0  0  0  0  0  0  0  0  0  0
    3.5724    1.2765   -0.2222 C   0  0  0  0  0  0  0  0  0  0  0  0
    3.6256   -1.0242    0.5131 C   0  0  0  0  0  0  0  0  0  0  0  0
   -1.3552    0.3216    1.0876 C   0  0  0  0  0  0  0  0  0  0  0  0
   -1.5862   -0.4423   -1.1926 C   0  0  0  0  0  0  0  0  0  0  0  0
   -3.5531   -0.0263    0.1472 C   0  0  0  0  0  0  0  0  0  0  0  0
    4.9526   -1.1269    0.0954 C   0  0  0  0  0  0  0  0  0  0  0  0
    4.8993    1.1738   -0.6399 C   0  0  0  0  0  0  0  0  0  0  0  0
   -2.7435    0.3442    1.2208 C   0  0  0  0  0  0  0  0  0  0  0  0
   -2.9745   -0.4196   -1.0597 C   0  0  0  0  0  0  0  0  0  0  0  0
    5.5894   -0.0281   -0.4811 C   0  0  0  0  0  0  0  0  0  0  0  0
   -5.0007   -0.0038    0.2863 C   0  0  0  0  0  0  0  0  0  0  0  0
   -7.0546   -0.4148   -0.8558 C   0  0  0  0  0  0  0  0  0  0  0  0
  1  9  1  0
  2 14  1  0
  3 19  1  0
  3 20  1  0
  4 19  2  0
  5  6  1  0
  5  8  1  0
  6  7  1  0
  7  9  2  0
  7 10  1  0
  8 11  2  0
  8 12  1  0
  9 15  1  0
 10 14  2  0
 11 16  1  0
 12 17  2  0
 13 16  2  0
 13 17  1  0
 13 19  1  0
 14 18  1  0
 15 18  2  0
M  END
>  <PUBCHEM_COMPOUND_CID>  (1) 
2064

>  <PUBCHEM_CONFORMER_RMSD>  (1) 
0.8

>  <PUBCHEM_CONFORMER_DIVERSEORDER>  (1) 
1
26
17
6
39
36
3
44
40
4
29
7
5
41
31
32
28
2
23
30
43
24
13
33
25
38
21
9
37
18
15
27
42
8
16
22
10
20
34
14
35
19
12
11

>  <PUBCHEM_MMFF94_PARTIAL_CHARGES>  (1) 
30
1 -0.53
10 -0.15
11 -0.15
12 -0.15
13 0.09
14 0.08
15 -0.15
16 -0.15
17 -0.15
18 -0.15
19 0.63
2 -0.53
20 0.28
23 0.4
24 0.15
25 0.15
26 0.15
27 0.15
28 0.15
29 0.15
3 -0.43
30 0.15
31 0.45
32 0.45
4 -0.57
5 -0.87
6 0.51
7 -0.14
8 0.1
9 0.08

>  <PUBCHEM_EFFECTIVE_ROTOR_COUNT>  (1) 
5

>  <PUBCHEM_PHARMACOPHORE_FEATURES>  (1) 
7
1 1 donor
1 2 donor
1 4 acceptor
1 5 cation
1 5 donor
6 7 9 10 14 15 18 rings
6 8 11 12 13 16 17 rings

>  <PUBCHEM_HEAVY_ATOM_COUNT>  (1) 
20

>  <PUBCHEM_ATOM_DEF_STEREO_COUNT>  (1) 
0

>  <PUBCHEM_ATOM_UDEF_STEREO_COUNT>  (1) 
0

>  <PUBCHEM_BOND_DEF_STEREO_COUNT>  (1) 
0

>  <PUBCHEM_BOND_UDEF_STEREO_COUNT>  (1) 
0

>  <PUBCHEM_ISOTOPIC_ATOM_COUNT>  (1) 
0

>  <PUBCHEM_COMPONENT_COUNT>  (1) 
1

>  <PUBCHEM_CACTVS_TAUTO_COUNT>  (1) 
14

>  <PUBCHEM_CONFORMER_ID>  (1) 
0000081000000001

>  <PUBCHEM_MMFF94_ENERGY>  (1) 
65.2639

>  <PUBCHEM_FEATURE_SELFOVERLAP>  (1) 
35.522

>  <PUBCHEM_SHAPE_FINGERPRINT>  (1) 
11045977 3 17749112231315443841
12107183 9 17621608211134547826
12166972 35 18131070450112374137
12236239 1 18131071528037758665
12390115 104 16154257296902114621
12616971 3 18272366477388846799
12730499 353 17458067058131094530
13533116 47 18341612594862889914
13862211 1 16988837307303675039
13914758 101 18337952295306219349
1420 363 16805045116256664955
14251752 14 18202281360531303401
14251764 18 17918273160553657810
14341114 176 18114187436061210244
14386348 63 16877948243347379744
15048467 5 11530484423985462779
15183329 4 18131073731503882461
15475509 35 15410342023648628670
17834072 33 18411418435856687635
17844677 252 18259705570972803469
19489759 90 15985389975844067763
200 152 18412824676869004880
20645477 70 18259984839059016802
21033648 29 17676474081842256909
21267235 1 16917068906472781391
221357 26 18113614569424097564
2215653 11 17603584127589889571
2297311 6 16225771787397538175
2303208 19 17240493502350707259
23035841 295 17418373619507079695
23081809 10 18131356310550854449
23402539 116 16128653038155829177
23522609 53 17915487014990039105
23536379 177 18410573977009948505
23557571 272 16008746857949982206
23559900 14 17603870043684266113
29717793 49 18342460322453749044
3004659 81 17560806545738331776
3014965 18 18261107435518732694
34797466 226 16153723015634159318
465052 167 18412831282998438422
5104073 3 16845286211242141219
522135 26 18408886244147091112
5281201 14 17749108868672627364
542803 24 18342178868709262177
59755656 215 17095239189952987011
59755656 520 18412256256061477631

>  <PUBCHEM_SHAPE_MULTIPOLES>  (1) 
383.13
16.67
1.37
1.12
9.48
0.1
-0.06
-3.07
2.04
-2.77
0.08
1
0.04
-1.24

>  <PUBCHEM_SHAPE_SELFOVERLAP>  (1) 
819.745

>  <PUBCHEM_SHAPE_VOLUME>  (1) 
212.9

>  <PUBCHEM_COORDINATE_TYPE>  (1) 
2
5
10

$$$$
