20646
     RDKit          3D

 10  9  0  0  0  0  0  0  0  0999 V2000
    3.7778    1.2311    0.1896 Cl  0  0  0  0  0  0  0  0  0  0  0  0
   -0.0347    0.0041   -0.2511 N   0  0  0  0  0  0  0  0  0  0  0  0
   -0.7214    1.1989    0.2252 C   0  0  0  0  0  0  0  0  0  0  0  0
   -0.7185   -1.2037    0.2146 C   0  0  0  0  0  0  0  0  0  0  0  0
    1.3606    0.0003    0.1921 C   0  0  0  0  0  0  0  0  0  0  0  0
   -2.1574    1.2263   -0.2922 C   0  0  0  0  0  0  0  0  0  0  0  0
    0.0060   -2.4499   -0.2879 C   0  0  0  0  0  0  0  0  0  0  0  0
    2.0751    1.2377   -0.3287 C   0  0  0  0  0  0  0  0  0  0  0  0
   -2.8900    2.4752    0.1735 C   0  0  0  0  0  0  0  0  0  0  0  0
   -0.6974   -3.7200    0.1649 C   0  0  0  0  0  0  0  0  0  0  0  0
  1  8  1  0
  2  3  1  0
  2  4  1  0
  2  5  1  0
  3  6  1  0
  4  7  1  0
  5  8  1  0
  6  9  1  0
  7 10  1  0
M  END
>  <PUBCHEM_COMPOUND_CID>  (1) 
20646

>  <PUBCHEM_CONFORMER_RMSD>  (1) 
0.6

>  <PUBCHEM_CONFORMER_DIVERSEORDER>  (1) 
1
9
11
36
26
8
27
19
15
22
13
17
2
32
14
18
12
21
23
6
20
35
25
24
16
31
5
10
7
33
29
3
28
4
34
30

>  <PUBCHEM_MMFF94_PARTIAL_CHARGES>  (1) 
6
1 -0.29
2 -0.81
3 0.27
4 0.27
5 0.27
8 0.29

>  <PUBCHEM_EFFECTIVE_ROTOR_COUNT>  (1) 
6

>  <PUBCHEM_PHARMACOPHORE_FEATURES>  (1) 
3
1 10 hydrophobe
1 2 cation
1 9 hydrophobe

>  <PUBCHEM_HEAVY_ATOM_COUNT>  (1) 
10

>  <PUBCHEM_ATOM_DEF_STEREO_COUNT>  (1) 
0

>  <PUBCHEM_ATOM_UDEF_STEREO_COUNT>  (1) 
0

>  <PUBCHEM_BOND_DEF_STEREO_COUNT>  (1) 
0

>  <PUBCHEM_BOND_UDEF_STEREO_COUNT>  (1) 
0

>  <PUBCHEM_ISOTOPIC_ATOM_COUNT>  (1) 
0

>  <PUBCHEM_COMPONENT_COUNT>  (1) 
1

>  <PUBCHEM_CACTVS_TAUTO_COUNT>  (1) 
1

>  <PUBCHEM_CONFORMER_ID>  (1) 
000050A600000001

>  <PUBCHEM_MMFF94_ENERGY>  (1) 
9.1

>  <PUBCHEM_FEATURE_SELFOVERLAP>  (1) 
15.223

>  <PUBCHEM_SHAPE_FINGERPRINT>  (1) 
1 1 18194120711666613412
19021347 4 18410575080373386378
20524608 308 18339645645864616692
20645477 70 17903631883757360485
20711985 344 18123736814992145586
20871998 22 17258494968692574546
21040471 1 18410855460313128916
21426921 1 18194405726393032884
21499 59 18337100168909206997
21524375 3 18260544506929508040
23526114 1 17257933689238617366
23552423 10 17980757143523978829
2748010 2 18337125474549962039
305870 269 18266175028692311296
7364860 26 17907576926312194349
81228 2 18122626316632070675

>  <PUBCHEM_SHAPE_MULTIPOLES>  (1) 
202.68
4.3
4.01
0.67
5.09
3.14
0
-3.27
-0.2
-4.32
-0.15
0.02
-0.01
-0.01

>  <PUBCHEM_SHAPE_SELFOVERLAP>  (1) 
353.213

>  <PUBCHEM_SHAPE_VOLUME>  (1) 
135.3

>  <PUBCHEM_COORDINATE_TYPE>  (1) 
2
5
10

$$$$
