2065
     RDKit          3D

 15 15  0  0  0  0  0  0  0  0999 V2000
   -3.2321    0.2868   -1.9830 O   0  0  0  0  0  0  0  0  0  0  0  0
   -4.4242    0.2272    0.5273 O   0  0  0  0  0  0  0  0  0  0  0  0
    3.7015   -1.6916   -0.2946 O   0  0  0  0  0  0  0  0  0  0  0  0
    4.4374    0.4650   -0.1263 N   0  0  0  0  0  0  0  0  0  0  0  0
    1.5870    2.5523    0.3234 N   0  0  0  0  0  0  0  0  0  0  0  0
   -0.3748   -0.5940    0.1200 C   0  0  0  0  0  0  0  0  0  0  0  0
   -1.1372   -0.2877   -1.0072 C   0  0  0  0  0  0  0  0  0  0  0  0
   -0.9731   -0.6236    1.3797 C   0  0  0  0  0  0  0  0  0  0  0  0
   -2.4979   -0.0111   -0.8747 C   0  0  0  0  0  0  0  0  0  0  0  0
   -3.0962   -0.0408    0.3849 C   0  0  0  0  0  0  0  0  0  0  0  0
   -2.3337   -0.3469    1.5122 C   0  0  0  0  0  0  0  0  0  0  0  0
    1.0441   -0.8823   -0.0181 C   0  0  0  0  0  0  0  0  0  0  0  0
    2.0526    0.0248    0.0185 C   0  0  0  0  0  0  0  0  0  0  0  0
    3.4526   -0.4968   -0.1494 C   0  0  0  0  0  0  0  0  0  0  0  0
    1.7940    1.4185    0.1872 C   0  0  0  0  0  0  0  0  0  0  0  0
  1  9  1  0
  2 10  1  0
  3 14  2  0
  4 14  1  0
  5 15  3  0
  6  7  2  0
  6  8  1  0
  6 12  1  0
  7  9  1  0
  8 11  2  0
  9 10  2  0
 10 11  1  0
 12 13  2  0
 13 14  1  0
 13 15  1  0
M  END
>  <PUBCHEM_COMPOUND_CID>  (1) 
2065

>  <PUBCHEM_CONFORMER_RMSD>  (1) 
0.6

>  <PUBCHEM_CONFORMER_DIVERSEORDER>  (1) 
1
11
5
4
8
10
2
12
6
3
9
7

>  <PUBCHEM_MMFF94_PARTIAL_CHARGES>  (1) 
23
1 -0.53
10 0.08
11 -0.15
12 -0.18
13 0.08
14 0.62
15 0.49
16 0.15
17 0.15
18 0.15
19 0.15
2 -0.53
20 0.45
21 0.45
22 0.37
23 0.37
3 -0.57
4 -0.8
5 -0.56
6 0.03
7 -0.15
8 -0.15
9 0.08

>  <PUBCHEM_EFFECTIVE_ROTOR_COUNT>  (1) 
2

>  <PUBCHEM_PHARMACOPHORE_FEATURES>  (1) 
6
1 1 donor
1 2 donor
1 3 acceptor
1 4 donor
1 5 acceptor
6 6 7 8 9 10 11 rings

>  <PUBCHEM_HEAVY_ATOM_COUNT>  (1) 
15

>  <PUBCHEM_ATOM_DEF_STEREO_COUNT>  (1) 
0

>  <PUBCHEM_ATOM_UDEF_STEREO_COUNT>  (1) 
0

>  <PUBCHEM_BOND_DEF_STEREO_COUNT>  (1) 
0

>  <PUBCHEM_BOND_UDEF_STEREO_COUNT>  (1) 
1

>  <PUBCHEM_ISOTOPIC_ATOM_COUNT>  (1) 
0

>  <PUBCHEM_COMPONENT_COUNT>  (1) 
1

>  <PUBCHEM_CACTVS_TAUTO_COUNT>  (1) 
20

>  <PUBCHEM_CONFORMER_ID>  (1) 
0000081100000001

>  <PUBCHEM_MMFF94_ENERGY>  (1) 
37.8242

>  <PUBCHEM_FEATURE_SELFOVERLAP>  (1) 
30.45

>  <PUBCHEM_SHAPE_FINGERPRINT>  (1) 
12186901 62 16370726989503923799
12236239 1 17489872630797775194
124424 183 18113611275189137754
12932764 1 17822282513698400619
13134695 92 18413668007168246556
14993402 34 17988928877208201270
15653759 3 17458346359490277976
16945 1 18337377280093136379
18186145 218 18409719682044523299
19049666 15 17822847572411951962
200 152 18201436999967541467
20279233 1 17967817150116931258
20510252 161 16877941603549681237
20645476 183 17561081419350257071
20645477 70 18337393738851549950
21119208 17 17489872626502691001
21639500 275 18270113642609563612
23175994 123 18261965063441784420
232386 152 15913322524291744797
23402539 116 14189291509175488929
23559900 14 17458620070010318202
3286 77 18335989756711838571
74978 22 18271809085350069974
77492 1 17418096520300092762
81228 2 15952414217351494091

>  <PUBCHEM_SHAPE_MULTIPOLES>  (1) 
281.12
7.33
1.41
1.27
1.63
0.73
-0.16
-0.12
-0.63
1.4
0.21
-1.37
-0.02
0.68

>  <PUBCHEM_SHAPE_SELFOVERLAP>  (1) 
593.951

>  <PUBCHEM_SHAPE_VOLUME>  (1) 
155.1

>  <PUBCHEM_COORDINATE_TYPE>  (1) 
2
5
10

$$$$
