20668
     RDKit          3D

 15 15  0  0  0  0  0  0  0  0999 V2000
   -0.4118   -1.4324    1.2865 O   0  0  0  0  0  0  0  0  0  0  0  0
   -2.4902    1.2180   -0.8959 O   0  0  0  0  0  0  0  0  0  0  0  0
   -4.4218    1.8660    0.8766 O   0  0  0  0  0  0  0  0  0  0  0  0
   -1.3466   -1.2907   -0.8337 N   0  0  0  0  0  0  0  0  0  0  0  0
   -4.0235    0.5353    0.6908 N   0  0  0  0  0  0  0  0  0  0  0  0
    1.0424   -1.5775   -0.6442 C   0  0  0  0  0  0  0  0  0  0  0  0
    2.0280   -0.5115   -0.3023 C   0  0  0  0  0  0  0  0  0  0  0  0
   -0.2968   -1.4271    0.0636 C   0  0  0  0  0  0  0  0  0  0  0  0
    2.0801    0.6589   -1.0593 C   0  0  0  0  0  0  0  0  0  0  0  0
    2.8979   -0.6851    0.7742 C   0  0  0  0  0  0  0  0  0  0  0  0
   -2.7182   -1.1369   -0.4086 C   0  0  0  0  0  0  0  0  0  0  0  0
    3.0017    1.6559   -0.7397 C   0  0  0  0  0  0  0  0  0  0  0  0
    3.8196    0.3119    1.0937 C   0  0  0  0  0  0  0  0  0  0  0  0
    3.8716    1.4824    0.3369 C   0  0  0  0  0  0  0  0  0  0  0  0
   -3.0323    0.3328   -0.2384 C   0  0  0  0  0  0  0  0  0  0  0  0
  1  8  2  0
  2 15  2  0
  3  5  1  0
  4  8  1  0
  4 11  1  0
  5 15  1  0
  6  7  1  0
  6  8  1  0
  7  9  2  0
  7 10  1  0
  9 12  1  0
 10 13  2  0
 11 15  1  0
 12 14  2  0
 13 14  1  0
M  END
>  <PUBCHEM_COMPOUND_CID>  (1) 
20668

>  <PUBCHEM_CONFORMER_RMSD>  (1) 
0.6

>  <PUBCHEM_CONFORMER_DIVERSEORDER>  (1) 
1
14
22
37
25
35
9
3
7
21
11
8
30
13
20
18
36
19
29
6
24
32
26
4
12
34
15
28
5
17
31
27
2
23
16
10
33

>  <PUBCHEM_MMFF94_PARTIAL_CHARGES>  (1) 
23
1 -0.57
10 -0.15
11 0.36
12 -0.15
13 -0.15
14 -0.15
15 0.57
18 0.37
2 -0.57
21 0.15
22 0.15
23 0.15
24 0.15
25 0.15
26 0.37
27 0.4
3 -0.44
4 -0.73
5 -0.39
6 0.2
7 -0.14
8 0.57
9 -0.15

>  <PUBCHEM_EFFECTIVE_ROTOR_COUNT>  (1) 
6

>  <PUBCHEM_PHARMACOPHORE_FEATURES>  (1) 
5
1 1 acceptor
1 2 acceptor
1 4 donor
1 5 donor
6 7 9 10 12 13 14 rings

>  <PUBCHEM_HEAVY_ATOM_COUNT>  (1) 
15

>  <PUBCHEM_ATOM_DEF_STEREO_COUNT>  (1) 
0

>  <PUBCHEM_ATOM_UDEF_STEREO_COUNT>  (1) 
0

>  <PUBCHEM_BOND_DEF_STEREO_COUNT>  (1) 
0

>  <PUBCHEM_BOND_UDEF_STEREO_COUNT>  (1) 
0

>  <PUBCHEM_ISOTOPIC_ATOM_COUNT>  (1) 
0

>  <PUBCHEM_COMPONENT_COUNT>  (1) 
1

>  <PUBCHEM_CACTVS_TAUTO_COUNT>  (1) 
6

>  <PUBCHEM_CONFORMER_ID>  (1) 
000050BC00000001

>  <PUBCHEM_MMFF94_ENERGY>  (1) 
31.4371

>  <PUBCHEM_FEATURE_SELFOVERLAP>  (1) 
25.372

>  <PUBCHEM_SHAPE_FINGERPRINT>  (1) 
10465860 228 18411699859689741510
10498660 4 17632860806755011961
10646746 165 18201715215037531888
11046707 91 7853582313393128858
11132069 177 18334289872911825501
11769659 78 8790891782542775318
12006461 19 11458421332099031264
12162725 195 18262510511161108878
12173636 292 17917711271578517271
122479 349 18410296921317364579
12251169 10 17676762167131909758
14123260 362 17988654003253385401
1420 369 11386380248485465305
14251710 61 7853565821072328505
14251764 38 17770768311079066712
15239191 94 8142090865949770600
15775835 57 18411138056102022685
1741750 31 18202565090038777215
17810953 82 18054236423387857929
1798214 20 9943804469766327985
1798214 55 18272654540903645357
18186145 218 18408885109648283062
19107657 162 12468627335632833658
19107657 9 18410296938433871868
20233049 118 18201713003234986832
20871999 31 14548728543507149653
21524375 3 18337102453562633511
21665062 11 18040714771049075092
21713013 43 14692283023328388253
22485316 2 8935011373144810334
22646028 28 8430317935103388357
23402655 69 12463031955704195394
23500284 214 18336269019416531483
23503958 8 12901809593839059020
23557571 272 17560799999728163927
474 4 18334294270953080955
49207404 50 18114763576233640483
76465 3 10953742226796317697
94968 8 9439396930581280556
960060 61 11167934745524085561

>  <PUBCHEM_SHAPE_MULTIPOLES>  (1) 
281.12
8.25
1.94
1.13
3.99
0.23
-0.09
4.96
-1.98
0.51
0.01
-0.22
0.04
-0.71

>  <PUBCHEM_SHAPE_SELFOVERLAP>  (1) 
573.013

>  <PUBCHEM_SHAPE_VOLUME>  (1) 
161.9

>  <PUBCHEM_COORDINATE_TYPE>  (1) 
2
5
10

$$$$
