20665
     RDKit          3D

 12 11  0  0  0  0  0  0  0  0999 V2000
    0.6346   -0.2758    0.0042 O   0  0  0  0  0  0  0  0  0  0  0  0
    6.7284    0.1840   -0.0089 O   0  0  0  0  0  0  0  0  0  0  0  0
   -3.0471    0.4736   -0.0180 C   0  0  0  0  0  0  0  0  0  0  0  0
   -1.7597   -0.3492   -0.0108 C   0  0  0  0  0  0  0  0  0  0  0  0
   -4.3168   -0.3823   -0.0094 C   0  0  0  0  0  0  0  0  0  0  0  0
   -0.5262    0.5438    0.0136 C   0  0  0  0  0  0  0  0  0  0  0  0
   -5.6051    0.4409   -0.0415 C   0  0  0  0  0  0  0  0  0  0  0  0
    3.0243   -0.4324    0.0147 C   0  0  0  0  0  0  0  0  0  0  0  0
    1.8235    0.5027    0.0260 C   0  0  0  0  0  0  0  0  0  0  0  0
    4.3391    0.3397    0.0215 C   0  0  0  0  0  0  0  0  0  0  0  0
   -6.8348   -0.4509    0.0416 C   0  0  0  0  0  0  0  0  0  0  0  0
    5.5397   -0.5942   -0.0331 C   0  0  0  0  0  0  0  0  0  0  0  0
  1  6  1  0
  1  9  1  0
  2 12  1  0
  3  4  1  0
  3  5  1  0
  4  6  1  0
  5  7  1  0
  7 11  1  0
  8  9  1  0
  8 10  1  0
 10 12  1  0
M  END
>  <PUBCHEM_COMPOUND_CID>  (1) 
20665

>  <PUBCHEM_CONFORMER_RMSD>  (1) 
0.8

>  <PUBCHEM_CONFORMER_DIVERSEORDER>  (1) 
1
373
402
341
202
431
64
382
258
48
433
29
253
369
6
424
36
4
300
114
438
229
395
406
86
96
303
296
5
155
243
73
367
143
423
254
220
355
211
314
160
94
425
154
16
245
319
339
47
393
192
321
134
157
252
89
429
372
368
326
170
150
98
311
102
190
81
411
90
304
363
58
210
388
197
141
422
213
2
9
277
12
219
428
99
426
273
117
10
26
270
33
336
255
418
271
364
18
71
269
137
183
59
278
21
419
226
3
390
206
334
153
324
434
267
31
404
75
335
179
178
142
384
218
24
345
88
284
87
27
207
140
435
313
166
276
184
257
95
315
268
349
127
354
392
116
65
174
162
72
365
144
97
251
287
167
256
7
173
329
199
182
126
49
309
175
209
421
427
76
45
397
69
410
42
330
221
375
371
60
240
328
310
275
107
356
283
203
186
264
22
366
387
147
298
302
57
327
19
282
351
67
436
225
28
246
224
437
159
374
156
181
188
228
11
389
409
342
399
248
8
214
135
353
78
259
92
46
274
91
13
400
439
146
294
244
359
407
263
118
420
20
56
432
130
193
187
265
235
288
290
232
161
323
234
291
325
386
120
131
247
80
39
357
361
43
279
237
77
307
212
391
297
62
370
115
113
249
189
100
176
343
305
32
340
61
23
164
350
322
121
230
385
403
272
281
40
30
262
70
109
124
215
266
285
163
84
440
280
405
145
17
169
299
332
333
415
306
346
83
37
286
260
430
217
317
208
362
106
394
93
128
82
233
380
54
79
231
312
358
15
236
308
111
180
171
292
379
360
152
381
74
185
223
205
51
66
139
196
293
416
85
261
125
101
337
129
148
316
172
318
105
331
198
408
165
352
383
68
151
376
119
168
41
122
227
412
289
14
138
110
414
35
417
194
104
413
295
108
38
320
132
195
34
347
239
241
301
344
123
25
401
44
55
50
204
149
396
136
216
191
201
242
378
52
238
338
177
112
377
63
53
398
158
348
133
103
222
250
200

>  <PUBCHEM_MMFF94_PARTIAL_CHARGES>  (1) 
6
1 -0.56
12 0.28
2 -0.68
34 0.4
6 0.28
9 0.28

>  <PUBCHEM_EFFECTIVE_ROTOR_COUNT>  (1) 
9

>  <PUBCHEM_PHARMACOPHORE_FEATURES>  (1) 
5
1 1 acceptor
1 11 hydrophobe
1 2 acceptor
1 2 donor
4 3 4 5 7 hydrophobe

>  <PUBCHEM_HEAVY_ATOM_COUNT>  (1) 
12

>  <PUBCHEM_ATOM_DEF_STEREO_COUNT>  (1) 
0

>  <PUBCHEM_ATOM_UDEF_STEREO_COUNT>  (1) 
0

>  <PUBCHEM_BOND_DEF_STEREO_COUNT>  (1) 
0

>  <PUBCHEM_BOND_UDEF_STEREO_COUNT>  (1) 
0

>  <PUBCHEM_ISOTOPIC_ATOM_COUNT>  (1) 
0

>  <PUBCHEM_COMPONENT_COUNT>  (1) 
1

>  <PUBCHEM_CACTVS_TAUTO_COUNT>  (1) 
1

>  <PUBCHEM_CONFORMER_ID>  (1) 
000050B900000001

>  <PUBCHEM_MMFF94_ENERGY>  (1) 
3.7233

>  <PUBCHEM_FEATURE_SELFOVERLAP>  (1) 
25.372

>  <PUBCHEM_SHAPE_FINGERPRINT>  (1) 
12091667 2 18040716966230628009
12714333 28 11602821302408200029
13533116 47 18339637842062599330
14123238 8 18410011026613389485
1420 363 18341898488975618191
14251718 22 18260266339108848017
14251764 46 17822009813366015331
17834076 25 18410293609686368263
187816 3 15936129659933204921
20645477 70 18339080363887034662
21130983 4 10879989177069749386
23402539 116 17917705808269418341
23521765 1 18341894095129018373
33684 2 18410572881344869067
42788 4 18410292510501898541
57583515 80 9511461130658620573
8209 1 18410573985156732396

>  <PUBCHEM_SHAPE_MULTIPOLES>  (1) 
235.22
18.42
0.79
0.6
0.35
0
0
-1.72
-0.04
-0.07
0
-0.06
0
0.03

>  <PUBCHEM_SHAPE_SELFOVERLAP>  (1) 
416.609

>  <PUBCHEM_SHAPE_VOLUME>  (1) 
154

>  <PUBCHEM_COORDINATE_TYPE>  (1) 
2
5
10

$$$$
