20662
     RDKit          3D

  5  5  0  0  1  0  0  0  0  0999 V2000
    1.2520   -0.7561   -0.1851 O   0  0  0  0  0  0  0  0  0  0  0  0
   -2.0784    0.0010   -0.2549 N   0  0  0  0  0  0  0  0  0  0  0  0
    0.3678    0.0638    0.5897 C   0  0  0  0  0  0  0  0  0  0  0  0
    1.4405    0.6622   -0.2733 C   0  0  0  0  0  0  0  0  0  0  0  0
   -0.9820    0.0291    0.1236 C   0  0  0  0  0  0  0  0  0  0  0  0
  1  3  1  0
  1  4  1  0
  2  5  3  0
  3  4  1  0
  3  5  1  0
M  END
>  <PUBCHEM_COMPOUND_CID>  (1) 
20662

>  <PUBCHEM_CONFORMER_RMSD>  (1) 
0.4

>  <PUBCHEM_CONFORMER_DIVERSEORDER>  (1) 
1
2

>  <PUBCHEM_MMFF94_PARTIAL_CHARGES>  (1) 
8
1 -0.3
2 -0.56
3 0.15
4 -0.05
5 0.45
6 0.1
7 0.1
8 0.1

>  <PUBCHEM_EFFECTIVE_ROTOR_COUNT>  (1) 
0.6

>  <PUBCHEM_PHARMACOPHORE_FEATURES>  (1) 
2
1 1 acceptor
1 2 acceptor

>  <PUBCHEM_HEAVY_ATOM_COUNT>  (1) 
5

>  <PUBCHEM_ATOM_DEF_STEREO_COUNT>  (1) 
0

>  <PUBCHEM_ATOM_UDEF_STEREO_COUNT>  (1) 
1

>  <PUBCHEM_BOND_DEF_STEREO_COUNT>  (1) 
0

>  <PUBCHEM_BOND_UDEF_STEREO_COUNT>  (1) 
0

>  <PUBCHEM_ISOTOPIC_ATOM_COUNT>  (1) 
0

>  <PUBCHEM_COMPONENT_COUNT>  (1) 
1

>  <PUBCHEM_CACTVS_TAUTO_COUNT>  (1) 
1

>  <PUBCHEM_CONFORMER_ID>  (1) 
000050B600000001

>  <PUBCHEM_MMFF94_ENERGY>  (1) 
2.9227

>  <PUBCHEM_FEATURE_SELFOVERLAP>  (1) 
10.149

>  <PUBCHEM_SHAPE_FINGERPRINT>  (1) 
139733 1 15936411156147069969
20096714 4 17167865295900324645
21015797 1 7997102605743994664
24536 1 18335696143999358889
29004967 10 18413395340588847682
5460574 1 8935005871249155313
5943 1 14806632516132204728

>  <PUBCHEM_SHAPE_MULTIPOLES>  (1) 
92.05
2.27
0.77
0.69
0.85
0
-0.06
0.16
0.34
-0.25
0.04
-0.04
0
0.01

>  <PUBCHEM_SHAPE_SELFOVERLAP>  (1) 
172.957

>  <PUBCHEM_SHAPE_VOLUME>  (1) 
56.4

>  <PUBCHEM_COORDINATE_TYPE>  (1) 
2
5
10

$$$$
