20675
     RDKit          3D

 16 16  0  0  0  0  0  0  0  0999 V2000
    2.0084    0.7882    0.6445 O   0  0  0  0  0  0  0  0  0  0  0  0
   -5.4172   -1.0258   -0.4664 O   0  0  0  0  0  0  0  0  0  0  0  0
   -3.3253   -1.6558   -1.0839 O   0  0  0  0  0  0  0  0  0  0  0  0
    4.1195   -0.0952   -0.0597 C   0  0  0  0  0  0  0  0  0  0  0  0
    2.7613   -0.4130    0.5492 C   0  0  0  0  0  0  0  0  0  0  0  0
    4.9784   -1.3480   -0.2067 C   0  0  0  0  0  0  0  0  0  0  0  0
    0.6448    0.6713    0.5679 C   0  0  0  0  0  0  0  0  0  0  0  0
   -0.0622    1.3174   -0.4403 C   0  0  0  0  0  0  0  0  0  0  0  0
   -2.1218    0.4139    0.4422 C   0  0  0  0  0  0  0  0  0  0  0  0
   -1.4496    1.1883   -0.5033 C   0  0  0  0  0  0  0  0  0  0  0  0
   -0.0189   -0.1025    1.5137 C   0  0  0  0  0  0  0  0  0  0  0  0
   -1.4064   -0.2316    1.4508 C   0  0  0  0  0  0  0  0  0  0  0  0
   -3.6050    0.2745    0.3743 C   0  0  0  0  0  0  0  0  0  0  0  0
    6.3170   -1.0330   -0.8548 C   0  0  0  0  0  0  0  0  0  0  0  0
    0.6408    2.1512   -1.4598 C   0  0  0  0  0  0  0  0  0  0  0  0
   -4.0638   -0.8998   -0.4678 C   0  0  0  0  0  0  0  0  0  0  0  0
  1  5  1  0
  1  7  1  0
  2 16  1  0
  3 16  2  0
  4  5  1  0
  4  6  1  0
  6 14  1  0
  7  8  2  0
  7 11  1  0
  8 10  1  0
  8 15  1  0
  9 10  2  0
  9 12  1  0
  9 13  1  0
 11 12  2  0
 13 16  1  0
M  END
>  <PUBCHEM_COMPOUND_CID>  (1) 
20675

>  <PUBCHEM_CONFORMER_RMSD>  (1) 
0.8

>  <PUBCHEM_CONFORMER_DIVERSEORDER>  (1) 
1
16
39
57
36
22
32
37
28
5
31
29
53
6
2
42
45
33
3
60
40
54
61
24
52
50
55
10
62
47
63
41
18
14
21
43
44
35
58
4
12
13
20
11
49
7
38
30
25
26
51
34
27
56
8
48
23
59
17
19
15
46
9

>  <PUBCHEM_MMFF94_PARTIAL_CHARGES>  (1) 
17
1 -0.36
10 -0.15
11 -0.15
12 -0.15
13 0.2
15 0.14
16 0.66
2 -0.65
23 0.15
24 0.15
25 0.15
3 -0.57
34 0.5
5 0.28
7 0.08
8 -0.14
9 -0.14

>  <PUBCHEM_EFFECTIVE_ROTOR_COUNT>  (1) 
6

>  <PUBCHEM_PHARMACOPHORE_FEATURES>  (1) 
6
1 1 acceptor
1 14 hydrophobe
1 2 acceptor
1 3 acceptor
3 2 3 16 anion
6 7 8 9 10 11 12 rings

>  <PUBCHEM_HEAVY_ATOM_COUNT>  (1) 
16

>  <PUBCHEM_ATOM_DEF_STEREO_COUNT>  (1) 
0

>  <PUBCHEM_ATOM_UDEF_STEREO_COUNT>  (1) 
0

>  <PUBCHEM_BOND_DEF_STEREO_COUNT>  (1) 
0

>  <PUBCHEM_BOND_UDEF_STEREO_COUNT>  (1) 
0

>  <PUBCHEM_ISOTOPIC_ATOM_COUNT>  (1) 
0

>  <PUBCHEM_COMPONENT_COUNT>  (1) 
1

>  <PUBCHEM_CACTVS_TAUTO_COUNT>  (1) 
1

>  <PUBCHEM_CONFORMER_ID>  (1) 
000050C300000001

>  <PUBCHEM_MMFF94_ENERGY>  (1) 
34.3156

>  <PUBCHEM_FEATURE_SELFOVERLAP>  (1) 
30.504

>  <PUBCHEM_SHAPE_FINGERPRINT>  (1) 
10014705 185 14490769974356173990
10465860 250 16702302364801368915
106641 1 12966834771856858863
12251169 10 13470680434993449568
12596602 18 13326561978221258534
12670543 26 17458337503325742327
13288520 33 18202846547866922851
13675066 3 15482670152553173984
14178000 29 18409728490964626644
14350574 20 17386011714977691867
14739800 52 10881669265201927110
14911166 2 17313100869392889585
14993402 34 17749105603927763433
16945 1 17240751913601211449
17834072 33 18130790088069775712
17959699 21 14273747269706744526
18186145 218 17241031232725638285
18222031 100 18334571352389315968
187816 3 17312824861877826760
19784866 240 18343587369343829823
200 152 18409170983072119616
20300324 65 18114466652481202604
20374829 77 18335415734290556234
20871999 31 17458343005237000916
21637258 2 17846205657504198534
22224240 67 12103842363260117309
22620623 9 18189888734313874396
22713019 99 18260264165871383291
23379529 103 17974855274376131315
23402539 116 17894913980092075396
23559900 14 17988914613157769952
26918003 58 16917067737281594082
2838139 119 12612749138043416782
2916195 48 8358251536403713358
3286 77 18131911568276052832
4325135 7 18343021125720159436
465052 167 16486972950749865295
58807428 26 12967129406645253684
76465 3 16916490588815255863

>  <PUBCHEM_SHAPE_MULTIPOLES>  (1) 
311.66
11.15
1.63
1.26
10.3
0.69
0.12
-7.2
-4.6
-0.14
-0.7
-0.3
-0.12
-0.28

>  <PUBCHEM_SHAPE_SELFOVERLAP>  (1) 
629.088

>  <PUBCHEM_SHAPE_VOLUME>  (1) 
183.7

>  <PUBCHEM_COORDINATE_TYPE>  (1) 
2
5
10

$$$$
