20680
     RDKit          3D

  9  8  0  0  0  0  0  0  0  0999 V2000
   -1.7878   -1.9132    0.5972 O   0  0  0  0  0  0  0  0  0  0  0  0
   -0.9841   -0.0786   -0.0643 N   0  0  0  0  0  0  0  0  0  0  0  0
   -1.8949   -1.0175   -0.2490 N   0  0  0  0  0  0  0  0  0  0  0  0
    1.4404    0.1218    0.2338 C   0  0  0  0  0  0  0  0  0  0  0  0
    0.3101   -0.3628   -0.6726 C   0  0  0  0  0  0  0  0  0  0  0  0
    2.8085   -0.1860   -0.3761 C   0  0  0  0  0  0  0  0  0  0  0  0
   -1.4678    1.2359   -0.5099 C   0  0  0  0  0  0  0  0  0  0  0  0
    3.9386    0.3249    0.5034 C   0  0  0  0  0  0  0  0  0  0  0  0
   -2.3631    1.8755    0.5376 C   0  0  0  0  0  0  0  0  0  0  0  0
  1  3  2  0
  2  3  1  0
  2  5  1  0
  2  7  1  0
  4  5  1  0
  4  6  1  0
  6  8  1  0
  7  9  1  0
M  END
>  <PUBCHEM_COMPOUND_CID>  (1) 
20680

>  <PUBCHEM_CONFORMER_RMSD>  (1) 
0.6

>  <PUBCHEM_CONFORMER_DIVERSEORDER>  (1) 
1
35
131
114
4
19
69
56
106
3
18
72
119
121
41
105
87
73
2
113
130
46
55
53
138
7
62
107
32
104
129
21
51
68
93
100
15
29
76
54
110
98
141
34
42
83
16
20
99
33
112
17
79
59
47
49
67
88
74
86
125
70
135
44
101
8
39
81
97
102
91
123
71
48
38
13
117
127
23
118
37
12
136
58
31
6
65
90
10
84
50
14
52
30
64
133
28
60
128
120
77
92
43
45
63
137
27
82
24
95
25
5
75
11
78
9
26
126
57
85
134
132
116
22
111
139
66
109
94
89
122
115
140
108
96
36
40
103
61
124
80

>  <PUBCHEM_MMFF94_PARTIAL_CHARGES>  (1) 
5
1 -0.16
2 -0.36
3 -0.01
5 0.27
7 0.27

>  <PUBCHEM_EFFECTIVE_ROTOR_COUNT>  (1) 
5

>  <PUBCHEM_PHARMACOPHORE_FEATURES>  (1) 
1
1 8 hydrophobe

>  <PUBCHEM_HEAVY_ATOM_COUNT>  (1) 
9

>  <PUBCHEM_ATOM_DEF_STEREO_COUNT>  (1) 
0

>  <PUBCHEM_ATOM_UDEF_STEREO_COUNT>  (1) 
0

>  <PUBCHEM_BOND_DEF_STEREO_COUNT>  (1) 
0

>  <PUBCHEM_BOND_UDEF_STEREO_COUNT>  (1) 
0

>  <PUBCHEM_ISOTOPIC_ATOM_COUNT>  (1) 
0

>  <PUBCHEM_COMPONENT_COUNT>  (1) 
1

>  <PUBCHEM_CACTVS_TAUTO_COUNT>  (1) 
1

>  <PUBCHEM_CONFORMER_ID>  (1) 
000050C800000001

>  <PUBCHEM_MMFF94_ENERGY>  (1) 
7.0003

>  <PUBCHEM_FEATURE_SELFOVERLAP>  (1) 
5.074

>  <PUBCHEM_SHAPE_FINGERPRINT>  (1) 
12932741 1 17989216906225767580
12932764 1 17385720266997216340
14325111 11 18412542103034638134
14390081 3 18130782318125855468
19973954 147 18341049713523560480
20645464 45 18270684164590100580
20653085 51 16629410112362482705
20871998 184 18343025527196786455
21040471 1 18193567670440120797
23500284 214 18059017176700529216
3248919 1 18335977623608608182

>  <PUBCHEM_SHAPE_MULTIPOLES>  (1) 
169.38
5.32
1.63
0.8
5.21
0.16
0.01
-1.33
-0.91
-1.91
-0.32
0
-0.01
0.17

>  <PUBCHEM_SHAPE_SELFOVERLAP>  (1) 
302.029

>  <PUBCHEM_SHAPE_VOLUME>  (1) 
111.7

>  <PUBCHEM_COORDINATE_TYPE>  (1) 
2
5
10

$$$$
