20683
     RDKit          3D

 24 24  0  0  1  0  0  0  0  0999 V2000
   -3.7145    0.6050   -0.3254 O   0  0  0  0  0  0  0  0  0  0  0  0
    0.2859    1.7529   -1.0120 O   0  0  0  0  0  0  0  0  0  0  0  0
   -2.2513    1.7573   -1.6725 O   0  0  0  0  0  0  0  0  0  0  0  0
    1.0006    0.6378    0.8782 N   0  0  0  0  0  0  0  0  0  0  0  0
    4.5220    0.2696   -0.2739 N   0  0  0  0  0  0  0  0  0  0  0  0
   -1.4127    0.6130    0.3450 C   0  0  0  0  0  0  0  0  0  0  0  0
   -1.8110    1.2841    1.7006 C   0  0  0  0  0  0  0  0  0  0  0  0
   -1.4214   -0.9322    0.3677 C   0  0  0  0  0  0  0  0  0  0  0  0
    0.0323    1.0682   -0.0215 C   0  0  0  0  0  0  0  0  0  0  0  0
    2.3987    0.9628    0.7218 C   0  0  0  0  0  0  0  0  0  0  0  0
    3.1205   -0.0917   -0.1043 C   0  0  0  0  0  0  0  0  0  0  0  0
   -2.4792    1.0801   -0.6781 C   0  0  0  0  0  0  0  0  0  0  0  0
   -1.8313    2.8124    1.6699 C   0  0  0  0  0  0  0  0  0  0  0  0
   -1.0922   -1.5945   -0.7841 C   0  0  0  0  0  0  0  0  0  0  0  0
   -1.7575   -1.5570    1.5383 C   0  0  0  0  0  0  0  0  0  0  0  0
    5.2143   -0.7215   -1.1000 C   0  0  0  0  0  0  0  0  0  0  0  0
    5.1836    0.3969    1.0262 C   0  0  0  0  0  0  0  0  0  0  0  0
   -1.0998   -2.9892   -0.7637 C   0  0  0  0  0  0  0  0  0  0  0  0
   -1.7650   -2.9516    1.5585 C   0  0  0  0  0  0  0  0  0  0  0  0
    4.5445   -0.8706   -2.4555 C   0  0  0  0  0  0  0  0  0  0  0  0
    6.6283    0.8387    0.8660 C   0  0  0  0  0  0  0  0  0  0  0  0
   -1.4361   -3.6678    0.4074 C   0  0  0  0  0  0  0  0  0  0  0  0
   -4.7865    0.9475   -1.2093 C   0  0  0  0  0  0  0  0  0  0  0  0
   -6.0725    0.3498   -0.6795 C   0  0  0  0  0  0  0  0  0  0  0  0
  1 12  1  0
  1 23  1  0
  2  9  2  0
  3 12  2  0
  4  9  1  0
  4 10  1  0
  5 11  1  0
  5 16  1  0
  5 17  1  0
  6  7  1  0
  6  8  1  0
  6  9  1  0
  6 12  1  0
  7 13  1  0
  8 14  2  0
  8 15  1  0
 10 11  1  0
 14 18  1  0
 15 19  2  0
 16 20  1  0
 17 21  1  0
 18 22  2  0
 19 22  1  0
 23 24  1  0
M  END
>  <PUBCHEM_COMPOUND_CID>  (1) 
20683

>  <PUBCHEM_CONFORMER_RMSD>  (1) 
1

>  <PUBCHEM_CONFORMER_DIVERSEORDER>  (1) 
1
177
170
129
103
55
106
155
105
176
181
152
43
28
110
186
117
80
108
166
185
145
131
109
24
98
157
95
136
184
150
147
162
60
29
66
56
154
153
19
107
156
160
167
39
143
151
133
86
138
118
88
102
134
169
33
164
100
187
119
146
189
161
11
132
67
125
194
158
38
101
42
75
171
175
193
89
71
120
31
124
192
168
122
130
85
51
174
45
180
87
82
26
14
18
163
173
139
40
70
191
96
74
172
59
115
114
83
104
9
13
178
50
54
8
73
41
126
123
140
121
111
190
195
62
7
34
64
179
78
142
188
149
113
63
144
94
25
20
159
165
35
30
127
17
57
116
99
32
77
135
183
5
53
47
10
93
23
37
21
182
79
76
49
22
12
90
97
46
92
69
61
3
91
81
148
65
58
137
15
6
112
52
36
128
141
44
2
4
16
84
68
72
48
27

>  <PUBCHEM_MMFF94_PARTIAL_CHARGES>  (1) 
25
1 -0.43
10 0.3
11 0.27
12 0.66
14 -0.15
15 -0.15
16 0.27
17 0.27
18 -0.15
19 -0.15
2 -0.57
22 -0.15
23 0.28
3 -0.57
31 0.37
39 0.15
4 -0.73
40 0.15
41 0.15
42 0.15
49 0.15
5 -0.81
6 0.27
8 -0.14
9 0.57

>  <PUBCHEM_EFFECTIVE_ROTOR_COUNT>  (1) 
12

>  <PUBCHEM_PHARMACOPHORE_FEATURES>  (1) 
6
1 13 hydrophobe
1 2 acceptor
1 3 acceptor
1 4 donor
1 5 cation
6 8 14 15 18 19 22 rings

>  <PUBCHEM_HEAVY_ATOM_COUNT>  (1) 
24

>  <PUBCHEM_ATOM_DEF_STEREO_COUNT>  (1) 
0

>  <PUBCHEM_ATOM_UDEF_STEREO_COUNT>  (1) 
1

>  <PUBCHEM_BOND_DEF_STEREO_COUNT>  (1) 
0

>  <PUBCHEM_BOND_UDEF_STEREO_COUNT>  (1) 
0

>  <PUBCHEM_ISOTOPIC_ATOM_COUNT>  (1) 
0

>  <PUBCHEM_COMPONENT_COUNT>  (1) 
1

>  <PUBCHEM_CACTVS_TAUTO_COUNT>  (1) 
2

>  <PUBCHEM_CONFORMER_ID>  (1) 
000050CB00000001

>  <PUBCHEM_MMFF94_ENERGY>  (1) 
50.6668

>  <PUBCHEM_FEATURE_SELFOVERLAP>  (1) 
30.456

>  <PUBCHEM_SHAPE_FINGERPRINT>  (1) 
10366900 7 17418088841436631752
105312 117 18114454578911233871
10906281 52 17988939893325140009
11135609 187 18339918221416298329
11315181 36 18272367603461894088
11370993 144 17274003310157654730
11578080 2 17839458126902529425
12035758 1 18335998535915343795
12596599 1 18262813946838418764
12596602 18 13614234855223300486
12616971 3 16008744737042739286
12788726 201 17988635259889745840
13135754 10 18047509782678233282
133893 2 17612590025685707787
13533116 47 16773794771382046022
15163728 17 17534342241371368405
15849732 13 17603578630137187805
187816 3 18273206500463147705
19433438 15 16877946049162397324
20602899 9 18410573977025753465
20645477 70 17203329958509578708
22849339 104 18262534674652871838
23419403 2 16197599177438210995
23557571 272 18268988851226081962
23559900 14 18129649941561688696
283562 15 18270677559368938073
3759504 43 17967247603093743283
4015057 19 17845923130582585520
404807 14 15836239947445956702
59755656 215 18271804567571943877
81228 2 17396670535537584299
9709674 26 17918000451800435620

>  <PUBCHEM_SHAPE_MULTIPOLES>  (1) 
466.34
11.68
3.17
1.81
15.29
2.67
0.25
-2.98
3.04
-3.01
-0.98
0.26
0.02
1.71

>  <PUBCHEM_SHAPE_SELFOVERLAP>  (1) 
936.613

>  <PUBCHEM_SHAPE_VOLUME>  (1) 
275

>  <PUBCHEM_COORDINATE_TYPE>  (1) 
2
5
10

$$$$
