20685
     RDKit          3D

 24 25  0  0  0  0  0  0  0  0999 V2000
   -2.4533   -2.2351    1.8156 S   0  0  0  0  0  0  0  0  0  0  0  0
    1.4509   -3.0026   -0.7487 O   0  0  0  0  0  0  0  0  0  0  0  0
   -2.6464   -0.0399    0.1683 N   0  0  0  0  0  0  0  0  0  0  0  0
    3.3289   -1.5943   -0.6776 N   0  0  0  0  0  0  0  0  0  0  0  0
   -0.6195   -1.2788    0.1176 N   0  0  0  0  0  0  0  0  0  0  0  0
    0.2256   -0.6623    0.8196 N   0  0  0  0  0  0  0  0  0  0  0  0
   -4.0112    0.2684    0.6007 C   0  0  0  0  0  0  0  0  0  0  0  0
   -2.0985    0.9003   -0.8096 C   0  0  0  0  0  0  0  0  0  0  0  0
   -5.0645   -0.3411   -0.3183 C   0  0  0  0  0  0  0  0  0  0  0  0
   -1.4362    2.1055   -0.1502 C   0  0  0  0  0  0  0  0  0  0  0  0
   -6.4919    0.0018    0.1145 C   0  0  0  0  0  0  0  0  0  0  0  0
   -0.8859    3.1051   -1.1700 C   0  0  0  0  0  0  0  0  0  0  0  0
    3.6855   -0.3592   -0.1849 C   0  0  0  0  0  0  0  0  0  0  0  0
   -1.8951   -1.1421    0.6368 C   0  0  0  0  0  0  0  0  0  0  0  0
    2.5608    0.1695    0.4521 C   0  0  0  0  0  0  0  0  0  0  0  0
    1.5184   -0.7908    0.3243 C   0  0  0  0  0  0  0  0  0  0  0  0
    2.0212   -1.8639   -0.3748 C   0  0  0  0  0  0  0  0  0  0  0  0
   -7.5174   -0.5681   -0.8531 C   0  0  0  0  0  0  0  0  0  0  0  0
   -0.2859    4.3233   -0.4852 C   0  0  0  0  0  0  0  0  0  0  0  0
    4.9051    0.3234   -0.2537 C   0  0  0  0  0  0  0  0  0  0  0  0
    2.6555    1.4416    1.0505 C   0  0  0  0  0  0  0  0  0  0  0  0
    4.2096   -2.4808   -1.4101 C   0  0  0  0  0  0  0  0  0  0  0  0
    4.9753    1.5837    0.3469 C   0  0  0  0  0  0  0  0  0  0  0  0
    3.8691    2.1362    0.9893 C   0  0  0  0  0  0  0  0  0  0  0  0
  1 14  2  0
  2 17  1  0
  3  7  1  0
  3  8  1  0
  3 14  1  0
  4 13  1  0
  4 17  1  0
  4 22  1  0
  5  6  2  0
  5 14  1  0
  6 16  1  0
  7  9  1  0
  8 10  1  0
  9 11  1  0
 10 12  1  0
 11 18  1  0
 12 19  1  0
 13 15  2  0
 13 20  1  0
 15 16  1  0
 15 21  1  0
 16 17  2  0
 20 23  2  0
 21 24  2  0
 23 24  1  0
M  END
>  <PUBCHEM_COMPOUND_CID>  (1) 
20685

>  <PUBCHEM_CONFORMER_RMSD>  (1) 
1

>  <PUBCHEM_CONFORMER_DIVERSEORDER>  (1) 
1
6
9
49
14
89
68
84
3
53
25
88
24
5
32
19
28
60
43
62
10
39
78
7
38
12
50
48
35
93
2
51
63
86
21
31
58
46
23
13
16
33
59
30
4
77
83
45
81
90
69
27
22
11
20
70
54
74
80
41
61
79
15
66
75
18
40
82
57
37
91
34
47
42
72
36
8
87
26
52
44
92
76
56
17
55
85
64
71
73
29
65
67

>  <PUBCHEM_MMFF94_PARTIAL_CHARGES>  (1) 
22
1 -0.38
13 -0.15
14 0.65
16 0.12
17 -0.09
2 -0.51
20 -0.15
21 -0.15
22 0.26
23 -0.15
24 -0.15
3 -0.66
4 0.05
43 0.15
44 0.15
48 0.15
49 0.15
5 -0.21
50 0.45
6 -0.12
7 0.3
8 0.3

>  <PUBCHEM_EFFECTIVE_ROTOR_COUNT>  (1) 
9

>  <PUBCHEM_PHARMACOPHORE_FEATURES>  (1) 
7
1 1 acceptor
1 18 hydrophobe
1 19 hydrophobe
1 2 donor
1 4 cation
5 4 13 15 16 17 rings
6 13 15 20 21 23 24 rings

>  <PUBCHEM_HEAVY_ATOM_COUNT>  (1) 
24

>  <PUBCHEM_ATOM_DEF_STEREO_COUNT>  (1) 
0

>  <PUBCHEM_ATOM_UDEF_STEREO_COUNT>  (1) 
0

>  <PUBCHEM_BOND_DEF_STEREO_COUNT>  (1) 
0

>  <PUBCHEM_BOND_UDEF_STEREO_COUNT>  (1) 
0

>  <PUBCHEM_ISOTOPIC_ATOM_COUNT>  (1) 
0

>  <PUBCHEM_COMPONENT_COUNT>  (1) 
1

>  <PUBCHEM_CACTVS_TAUTO_COUNT>  (1) 
4

>  <PUBCHEM_CONFORMER_ID>  (1) 
000050CD00000001

>  <PUBCHEM_MMFF94_ENERGY>  (1) 
39.0936

>  <PUBCHEM_FEATURE_SELFOVERLAP>  (1) 
35.612

>  <PUBCHEM_SHAPE_FINGERPRINT>  (1) 
10165383 225 18201435943574664936
10366900 7 18263376814523063498
10411042 1 17912370832298139926
10498660 4 18115302255084603509
10693767 8 17345489098183524358
10906281 52 18261406571759621637
11646440 116 18260838111600679753
12236239 1 16343710919162150922
12516196 113 18408322203277478853
12623949 98 17917441877865068359
12730499 353 18341898510377050091
13402501 40 18408881862595147312
13533116 47 17989207044996732043
1361 2 18341889723491056567
140371 6 18335150816629530177
15081414 286 18410017649928311281
15840311 113 18058745607036865345
20600515 1 17386573594751085094
20645477 70 18060424569175590086
21285901 2 18411418375943547021
21618674 68 18410855443075127140
221357 26 18342461392079908390
23557571 272 18260267434510378372
23559900 14 18186813464916116250
24771750 20 17609794341579791093
3524813 1 18342170090255467576
46194498 28 18059017172922332182
59554788 170 18341332188916005845
59755656 215 18408325475857838038
6004065 56 18338792442432872917
621550 34 18412820270337950284

>  <PUBCHEM_SHAPE_MULTIPOLES>  (1) 
471.96
13.21
3.69
1.2
17.91
2.81
-0.14
-1.69
1.86
-1.97
0.82
-0.05
-0.38
2.24

>  <PUBCHEM_SHAPE_SELFOVERLAP>  (1) 
958.546

>  <PUBCHEM_SHAPE_VOLUME>  (1) 
279.9

>  <PUBCHEM_COORDINATE_TYPE>  (1) 
2
5
10

$$$$
