20686
     RDKit          3D

  8  7  0  0  1  0  0  0  0  0999 V2000
    2.2914   -1.7354    0.2535 N   0  0  0  0  0  0  0  0  0  0  0  0
   -3.6039   -0.0603    0.3363 N   0  0  0  0  0  0  0  0  0  0  0  0
    1.2445    0.6012   -0.3729 C   0  0  0  0  0  0  0  0  0  0  0  0
   -0.2110    0.7110    0.1143 C   0  0  0  0  0  0  0  0  0  0  0  0
   -1.1298   -0.3456   -0.5094 C   0  0  0  0  0  0  0  0  0  0  0  0
    2.0902    1.7211    0.2355 C   0  0  0  0  0  0  0  0  0  0  0  0
    1.8305   -0.7064   -0.0213 C   0  0  0  0  0  0  0  0  0  0  0  0
   -2.5119   -0.1855   -0.0360 C   0  0  0  0  0  0  0  0  0  0  0  0
  1  7  3  0
  2  8  3  0
  3  4  1  0
  3  6  1  0
  3  7  1  0
  4  5  1  0
  5  8  1  0
M  END
>  <PUBCHEM_COMPOUND_CID>  (1) 
20686

>  <PUBCHEM_CONFORMER_RMSD>  (1) 
0.4

>  <PUBCHEM_CONFORMER_DIVERSEORDER>  (1) 
5
9
3
13
11
7
2
12
6
14
10
1
4
8

>  <PUBCHEM_MMFF94_PARTIAL_CHARGES>  (1) 
6
1 -0.56
2 -0.56
3 0.2
5 0.2
7 0.36
8 0.36

>  <PUBCHEM_EFFECTIVE_ROTOR_COUNT>  (1) 
2

>  <PUBCHEM_PHARMACOPHORE_FEATURES>  (1) 
3
1 1 acceptor
1 2 acceptor
1 6 hydrophobe

>  <PUBCHEM_HEAVY_ATOM_COUNT>  (1) 
8

>  <PUBCHEM_ATOM_DEF_STEREO_COUNT>  (1) 
0

>  <PUBCHEM_ATOM_UDEF_STEREO_COUNT>  (1) 
1

>  <PUBCHEM_BOND_DEF_STEREO_COUNT>  (1) 
0

>  <PUBCHEM_BOND_UDEF_STEREO_COUNT>  (1) 
0

>  <PUBCHEM_ISOTOPIC_ATOM_COUNT>  (1) 
0

>  <PUBCHEM_COMPONENT_COUNT>  (1) 
1

>  <PUBCHEM_CACTVS_TAUTO_COUNT>  (1) 
1

>  <PUBCHEM_CONFORMER_ID>  (1) 
000050CE00000005

>  <PUBCHEM_MMFF94_ENERGY>  (1) 
3.7959

>  <PUBCHEM_FEATURE_SELFOVERLAP>  (1) 
15.223

>  <PUBCHEM_SHAPE_FINGERPRINT>  (1) 
12932764 1 18342460369809289133
14325111 11 18411983594035163855
14390081 3 17988082330337696457
20645477 70 18411132533402172111
20651381 32 18409157793211820325
20653091 64 18411704244819546512
20711978 78 18341038653845149468
20871998 22 18127132970451122334
21040471 1 17905887333797141164
23552333 60 18202288013050302288
23552423 10 18409449227853647989
23552449 11 18412260618951060686
29004967 10 18186801421669146957
3248919 1 17531528793021153621

>  <PUBCHEM_SHAPE_MULTIPOLES>  (1) 
154.67
4.69
1.49
0.67
4.04
0.1
-0.03
0.34
0.6
-1.65
0.16
0.02
-0.01
-0.09

>  <PUBCHEM_SHAPE_SELFOVERLAP>  (1) 
283.666

>  <PUBCHEM_SHAPE_VOLUME>  (1) 
94.5

>  <PUBCHEM_COORDINATE_TYPE>  (1) 
2
5
10

$$$$
