20695
     RDKit          3D

  7  7  0  0  0  0  0  0  0  0999 V2000
    2.2931    0.0162    0.0000 O   0  0  0  0  0  0  0  0  0  0  0  0
    0.2868    1.1721    0.0000 N   0  0  0  0  0  0  0  0  0  0  0  0
   -1.7847    0.0261   -0.0001 N   0  0  0  0  0  0  0  0  0  0  0  0
    1.0670    0.0316    0.0000 C   0  0  0  0  0  0  0  0  0  0  0  0
    0.2815   -1.2249    0.0001 C   0  0  0  0  0  0  0  0  0  0  0  0
   -1.0889    1.1156    0.0001 C   0  0  0  0  0  0  0  0  0  0  0  0
   -1.0548   -1.1368    0.0000 C   0  0  0  0  0  0  0  0  0  0  0  0
  1  4  2  0
  2  4  1  0
  2  6  1  0
  3  6  2  0
  3  7  1  0
  4  5  1  0
  5  7  2  0
M  END
>  <PUBCHEM_COMPOUND_CID>  (1) 
20695

>  <PUBCHEM_CONFORMER_RMSD>  (1) 
0.4

>  <PUBCHEM_CONFORMER_DIVERSEORDER>  (1) 
1

>  <PUBCHEM_MMFF94_PARTIAL_CHARGES>  (1) 
11
1 -0.57
10 0.06
11 0.15
2 -0.49
3 -0.62
4 0.62
5 -0.14
6 0.45
7 0.02
8 0.37
9 0.15

>  <PUBCHEM_EFFECTIVE_ROTOR_COUNT>  (1) 
0

>  <PUBCHEM_PHARMACOPHORE_FEATURES>  (1) 
3
1 1 acceptor
1 2 donor
6 2 3 4 5 6 7 rings

>  <PUBCHEM_HEAVY_ATOM_COUNT>  (1) 
7

>  <PUBCHEM_ATOM_DEF_STEREO_COUNT>  (1) 
0

>  <PUBCHEM_ATOM_UDEF_STEREO_COUNT>  (1) 
0

>  <PUBCHEM_BOND_DEF_STEREO_COUNT>  (1) 
0

>  <PUBCHEM_BOND_UDEF_STEREO_COUNT>  (1) 
0

>  <PUBCHEM_ISOTOPIC_ATOM_COUNT>  (1) 
0

>  <PUBCHEM_COMPONENT_COUNT>  (1) 
1

>  <PUBCHEM_CACTVS_TAUTO_COUNT>  (1) 
3

>  <PUBCHEM_CONFORMER_ID>  (1) 
000050D700000001

>  <PUBCHEM_MMFF94_ENERGY>  (1) 
14.1622

>  <PUBCHEM_FEATURE_SELFOVERLAP>  (1) 
15.223

>  <PUBCHEM_SHAPE_FINGERPRINT>  (1) 
16714656 1 18410580590990520038
20096714 4 18266741285717413283
21040471 1 18266740186158332197
23552423 10 18260554398650595454
29004967 10 18187375328131386065

>  <PUBCHEM_SHAPE_MULTIPOLES>  (1) 
128.23
2.14
1.39
0.58
0.66
0.07
0
-0.11
0
-0.29
0
-0.02
0.02
0

>  <PUBCHEM_SHAPE_SELFOVERLAP>  (1) 
263.234

>  <PUBCHEM_SHAPE_VOLUME>  (1) 
72.3

>  <PUBCHEM_COORDINATE_TYPE>  (1) 
2
5
10

$$$$
