20700
     RDKit          3D

 18 21  0  0  0  0  0  0  0  0999 V2000
    0.6691    2.0539   -0.0003 S   0  0  0  0  0  0  0  0  0  0  0  0
    0.4749   -0.5101    0.0000 C   0  0  0  0  0  0  0  0  0  0  0  0
   -0.3214    0.6404    0.0000 C   0  0  0  0  0  0  0  0  0  0  0  0
    1.8951   -0.2046    0.0000 C   0  0  0  0  0  0  0  0  0  0  0  0
   -1.7537    0.5597   -0.0001 C   0  0  0  0  0  0  0  0  0  0  0  0
   -0.1766   -1.7691    0.0001 C   0  0  0  0  0  0  0  0  0  0  0  0
   -2.3616   -0.7189   -0.0001 C   0  0  0  0  0  0  0  0  0  0  0  0
    2.1326    1.1682    0.0001 C   0  0  0  0  0  0  0  0  0  0  0  0
   -1.5693   -1.8640    0.0001 C   0  0  0  0  0  0  0  0  0  0  0  0
    3.0218   -1.0689   -0.0002 C   0  0  0  0  0  0  0  0  0  0  0  0
   -2.5717    1.7122    0.0001 C   0  0  0  0  0  0  0  0  0  0  0  0
    0.5561   -3.0789    0.0003 C   0  0  0  0  0  0  0  0  0  0  0  0
   -3.7626   -0.8122   -0.0002 C   0  0  0  0  0  0  0  0  0  0  0  0
    3.4398    1.6957    0.0003 C   0  0  0  0  0  0  0  0  0  0  0  0
    4.3201   -0.5522   -0.0003 C   0  0  0  0  0  0  0  0  0  0  0  0
   -3.9618    1.5942    0.0002 C   0  0  0  0  0  0  0  0  0  0  0  0
   -4.5556    0.3359    0.0000 C   0  0  0  0  0  0  0  0  0  0  0  0
    4.5248    0.8186    0.0001 C   0  0  0  0  0  0  0  0  0  0  0  0
  1  3  1  0
  1  8  1  0
  2  3  2  0
  2  4  1  0
  2  6  1  0
  3  5  1  0
  4  8  2  0
  4 10  1  0
  5  7  2  0
  5 11  1  0
  6  9  2  0
  6 12  1  0
  7  9  1  0
  7 13  1  0
  8 14  1  0
 10 15  2  0
 11 16  2  0
 13 17  2  0
 14 18  2  0
 15 18  1  0
 16 17  1  0
M  END
>  <PUBCHEM_COMPOUND_CID>  (1) 
20700

>  <PUBCHEM_CONFORMER_RMSD>  (1) 
0.4

>  <PUBCHEM_CONFORMER_DIVERSEORDER>  (1) 
1

>  <PUBCHEM_MMFF94_PARTIAL_CHARGES>  (1) 
23
1 -0.08
10 -0.15
11 -0.15
12 0.14
13 -0.15
14 -0.15
15 -0.15
16 -0.15
17 -0.15
18 -0.15
19 0.15
20 0.15
21 0.15
25 0.15
26 0.15
27 0.15
28 0.15
29 0.15
3 0.04
30 0.15
6 -0.14
8 0.04
9 -0.15

>  <PUBCHEM_EFFECTIVE_ROTOR_COUNT>  (1) 
0

>  <PUBCHEM_PHARMACOPHORE_FEATURES>  (1) 
4
5 1 2 3 4 8 rings
6 2 3 5 6 7 9 rings
6 4 8 10 14 15 18 rings
6 5 7 11 13 16 17 rings

>  <PUBCHEM_HEAVY_ATOM_COUNT>  (1) 
18

>  <PUBCHEM_ATOM_DEF_STEREO_COUNT>  (1) 
0

>  <PUBCHEM_ATOM_UDEF_STEREO_COUNT>  (1) 
0

>  <PUBCHEM_BOND_DEF_STEREO_COUNT>  (1) 
0

>  <PUBCHEM_BOND_UDEF_STEREO_COUNT>  (1) 
0

>  <PUBCHEM_ISOTOPIC_ATOM_COUNT>  (1) 
0

>  <PUBCHEM_COMPONENT_COUNT>  (1) 
1

>  <PUBCHEM_CACTVS_TAUTO_COUNT>  (1) 
1

>  <PUBCHEM_CONFORMER_ID>  (1) 
000050DC00000001

>  <PUBCHEM_MMFF94_ENERGY>  (1) 
57.6467

>  <PUBCHEM_FEATURE_SELFOVERLAP>  (1) 
20.434

>  <PUBCHEM_SHAPE_FINGERPRINT>  (1) 
10062212 137 18411971451677685179
10411042 1 16825308325884747182
10608611 8 18340766060961384152
10616163 171 18410857706454612615
10967382 1 18338516343905825702
11132069 177 18410289211692786664
11471102 20 18411133615111016012
11578080 2 13684370502387620504
12173636 292 18339074998881421412
12236239 1 17821728347480386176
12403259 226 18340481291892483025
12592029 89 18336267851259507771
12644460 14 18117000987690723387
13140716 1 18410007715504808544
13380535 76 18409450271699765659
13544592 145 18272099270979432246
13583140 156 16878212143434018129
138480 1 17762055437021321318
14178342 30 17977929513371205656
14790565 3 18410582768434210516
15042514 8 18121222240600736819
15099037 51 18411703162545849070
15196674 1 18410855464423148580
15309172 13 18411145748572994907
15442244 35 18410009936119042184
15536298 74 18342458136331212988
16945 1 18050286169802206184
17804303 29 18411704317491202861
18186145 218 18412547578622321796
19591789 44 18410573968014137286
19784866 9 18339924805637670857
200 152 18060132150853856413
20028762 73 18129381682305323527
20510252 161 18343867731528547721
20645477 70 18271807874053397798
21267235 1 18410583889599457682
21421861 104 17754456750789379506
21524375 3 18409729564717019375
2334 1 18410856607074431328
23366157 5 17970072132100832890
23402539 116 18271799142284398308
23463225 33 18335700511975791618
23558518 356 17756423021451389834
23559900 14 18272090487992617278
25 1 18409163277552734727
2748010 2 18410298024981339942
3004659 81 18261963938952157158
3091708 16 9193251444352033331
335352 9 18338797789176539806
34934 24 18338792425110487912
350125 39 18337959016539621409
4214541 1 18410855460139029601
43471831 8 18335699390910674010
495365 180 17346306146727652160
5104073 3 18410574002341890288
6138700 20 18266745667391871950
633830 44 18343584010146473021
69090 78 18412823616027874398
7364860 26 18196653995089538047
77779 3 18410294717883103524
9709674 26 18341056297555496654

>  <PUBCHEM_SHAPE_MULTIPOLES>  (1) 
374.28
8.2
2.56
0.62
0.38
1.02
0
-2.4
0
0.03
0
0
-0.01
0

>  <PUBCHEM_SHAPE_SELFOVERLAP>  (1) 
841.702

>  <PUBCHEM_SHAPE_VOLUME>  (1) 
198.4

>  <PUBCHEM_COORDINATE_TYPE>  (1) 
2
5
10

$$$$
