20716
     RDKit          3D

 17 18  0  0  1  0  0  0  0  0999 V2000
   -5.7507    0.2143    0.4482 Cl  0  0  0  0  0  0  0  0  0  0  0  0
    0.0066    0.0705   -0.6966 O   0  0  0  0  0  0  0  0  0  0  0  0
    1.7481   -0.7083    2.2110 O   0  0  0  0  0  0  0  0  0  0  0  0
    3.7001    2.1381   -0.8063 O   0  0  0  0  0  0  0  0  0  0  0  0
    2.7377    0.0202   -1.0380 N   0  0  0  0  0  0  0  0  0  0  0  0
    2.7866    0.9600    0.9783 N   0  0  0  0  0  0  0  0  0  0  0  0
    2.0981   -0.9697   -0.1954 C   0  0  0  0  0  0  0  0  0  0  0  0
    0.6485   -1.1895   -0.6069 C   0  0  0  0  0  0  0  0  0  0  0  0
    2.1724   -0.2558    1.1562 C   0  0  0  0  0  0  0  0  0  0  0  0
    2.8973   -2.2654   -0.1619 C   0  0  0  0  0  0  0  0  0  0  0  0
    3.1398    1.1573   -0.3369 C   0  0  0  0  0  0  0  0  0  0  0  0
   -1.3392    0.1040   -0.4288 C   0  0  0  0  0  0  0  0  0  0  0  0
   -2.1206   -1.0119   -0.7002 C   0  0  0  0  0  0  0  0  0  0  0  0
   -1.9029    1.2537    0.1102 C   0  0  0  0  0  0  0  0  0  0  0  0
   -3.4881   -0.9777   -0.4283 C   0  0  0  0  0  0  0  0  0  0  0  0
   -3.2705    1.2880    0.3822 C   0  0  0  0  0  0  0  0  0  0  0  0
   -4.0633    0.1722    0.1130 C   0  0  0  0  0  0  0  0  0  0  0  0
  1 17  1  0
  2  8  1  0
  2 12  1  0
  3  9  2  0
  4 11  2  0
  5  7  1  0
  5 11  1  0
  6  9  1  0
  6 11  1  0
  7  8  1  0
  7  9  1  0
  7 10  1  0
 12 13  2  0
 12 14  1  0
 13 15  1  0
 14 16  2  0
 15 17  2  0
 16 17  1  0
M  END
>  <PUBCHEM_COMPOUND_CID>  (1) 
20716

>  <PUBCHEM_CONFORMER_RMSD>  (1) 
0.6

>  <PUBCHEM_CONFORMER_DIVERSEORDER>  (1) 
1
18
12
25
5
22
4
15
19
9
21
6
26
10
11
13
24
7
16
23
2
14
8
20
17
3

>  <PUBCHEM_MMFF94_PARTIAL_CHARGES>  (1) 
22
1 -0.18
11 0.69
12 0.08
13 -0.15
14 -0.15
15 -0.15
16 -0.15
17 0.18
2 -0.36
20 0.37
24 0.37
25 0.15
26 0.15
27 0.15
28 0.15
3 -0.57
4 -0.57
5 -0.73
6 -0.49
7 0.36
8 0.28
9 0.57

>  <PUBCHEM_EFFECTIVE_ROTOR_COUNT>  (1) 
3.6

>  <PUBCHEM_PHARMACOPHORE_FEATURES>  (1) 
7
1 2 acceptor
1 3 acceptor
1 4 acceptor
1 5 donor
1 6 donor
5 5 6 7 9 11 rings
6 12 13 14 15 16 17 rings

>  <PUBCHEM_HEAVY_ATOM_COUNT>  (1) 
17

>  <PUBCHEM_ATOM_DEF_STEREO_COUNT>  (1) 
0

>  <PUBCHEM_ATOM_UDEF_STEREO_COUNT>  (1) 
1

>  <PUBCHEM_BOND_DEF_STEREO_COUNT>  (1) 
0

>  <PUBCHEM_BOND_UDEF_STEREO_COUNT>  (1) 
0

>  <PUBCHEM_ISOTOPIC_ATOM_COUNT>  (1) 
0

>  <PUBCHEM_COMPONENT_COUNT>  (1) 
1

>  <PUBCHEM_CACTVS_TAUTO_COUNT>  (1) 
5

>  <PUBCHEM_CONFORMER_ID>  (1) 
000050EC00000001

>  <PUBCHEM_MMFF94_ENERGY>  (1) 
48.5396

>  <PUBCHEM_FEATURE_SELFOVERLAP>  (1) 
35.593

>  <PUBCHEM_SHAPE_FINGERPRINT>  (1) 
10498660 4 18202561812973494537
12596602 18 18262254261371275881
12670546 56 17458340794014652173
12932764 1 17458621155850937271
13296908 3 17167857522241621207
13533116 47 17168141170999207227
13955234 65 18410578370677486314
14289901 80 18413107256074316691
15238133 3 16916514627272425675
18186145 218 17603865568365182519
19050596 39 18342170072758846599
20233049 118 17132114624310925840
20279233 1 14996285820802888849
20281475 54 18271800238076266551
20369508 70 8070027744394460455
204376 136 16733551653599556972
20528008 55 18060133224632486767
20559304 39 18272084951210125490
212847 35 17775287127779970579
21503847 285 18261116227316670764
21524375 3 17970625406183597676
21652331 79 18413111662774345205
2255824 54 18335984169070779966
22854114 111 17846491526205949250
23048698 100 18260267430278506569
23559900 14 18272087132958897807
2637199 183 18341624762557915644
3060560 45 15410896262427184668
3286 77 16805872979866730914
44154327 71 18342742931180649581
449060 62 18343024410299223285
474 4 17895764035466337660
5104073 3 18343024372277826171
5374978 207 18411416190132097929
633830 44 18262233323004708815
7364860 26 18341050735947193390
81228 2 14635973566620355759
9882013 296 18260264174656509413

>  <PUBCHEM_SHAPE_MULTIPOLES>  (1) 
324.15
9.23
1.77
1.16
8.94
0.04
0.53
-1.56
0.56
-1.57
-0.25
-0.91
0.02
-0.65

>  <PUBCHEM_SHAPE_SELFOVERLAP>  (1) 
683.612

>  <PUBCHEM_SHAPE_VOLUME>  (1) 
184.4

>  <PUBCHEM_COORDINATE_TYPE>  (1) 
2
5
10

$$$$
