20718
     RDKit          3D

 10 10  0  0  0  0  0  0  0  0999 V2000
   -3.0638   -0.4347    0.1479 Br  0  0  0  0  0  0  0  0  0  0  0  0
   -1.2511    1.9729    0.2693 O   0  0  0  0  0  0  0  0  0  0  0  0
    1.3800    2.0886   -0.4919 O   0  0  0  0  0  0  0  0  0  0  0  0
   -0.5281    0.8062    0.0467 C   0  0  0  0  0  0  0  0  0  0  0  0
   -1.1758   -0.3708   -0.0521 C   0  0  0  0  0  0  0  0  0  0  0  0
    0.9453    1.0107   -0.0873 C   0  0  0  0  0  0  0  0  0  0  0  0
   -0.6005   -1.6549   -0.3973 C   0  0  0  0  0  0  0  0  0  0  0  0
    1.8979   -0.0110    0.4019 C   0  0  0  0  0  0  0  0  0  0  0  0
    0.6565   -2.0707   -0.2127 C   0  0  0  0  0  0  0  0  0  0  0  0
    1.7397   -1.3363    0.3756 C   0  0  0  0  0  0  0  0  0  0  0  0
  1  5  1  0
  2  4  1  0
  3  6  2  0
  4  5  2  0
  4  6  1  0
  5  7  1  0
  6  8  1  0
  7  9  2  0
  8 10  2  0
  9 10  1  0
M  END
>  <PUBCHEM_COMPOUND_CID>  (1) 
20718

>  <PUBCHEM_CONFORMER_RMSD>  (1) 
0.4

>  <PUBCHEM_CONFORMER_DIVERSEORDER>  (1) 
1
2

>  <PUBCHEM_MMFF94_PARTIAL_CHARGES>  (1) 
15
1 -0.11
10 -0.15
11 0.15
12 0.15
13 0.15
14 0.15
15 0.45
2 -0.53
3 -0.57
4 0.09
5 0.11
6 0.54
7 -0.15
8 -0.14
9 -0.15

>  <PUBCHEM_EFFECTIVE_ROTOR_COUNT>  (1) 
0

>  <PUBCHEM_PHARMACOPHORE_FEATURES>  (1) 
4
1 1 hydrophobe
1 2 donor
1 3 acceptor
7 4 5 6 7 8 9 10 rings

>  <PUBCHEM_HEAVY_ATOM_COUNT>  (1) 
10

>  <PUBCHEM_ATOM_DEF_STEREO_COUNT>  (1) 
0

>  <PUBCHEM_ATOM_UDEF_STEREO_COUNT>  (1) 
0

>  <PUBCHEM_BOND_DEF_STEREO_COUNT>  (1) 
0

>  <PUBCHEM_BOND_UDEF_STEREO_COUNT>  (1) 
0

>  <PUBCHEM_ISOTOPIC_ATOM_COUNT>  (1) 
0

>  <PUBCHEM_COMPONENT_COUNT>  (1) 
1

>  <PUBCHEM_CACTVS_TAUTO_COUNT>  (1) 
5

>  <PUBCHEM_CONFORMER_ID>  (1) 
000050EE00000001

>  <PUBCHEM_MMFF94_ENERGY>  (1) 
32.0638

>  <PUBCHEM_FEATURE_SELFOVERLAP>  (1) 
20.297

>  <PUBCHEM_SHAPE_FINGERPRINT>  (1) 
12423570 1 8611154427761167786
16945 1 18410009935739409443
18185500 45 18051403264931295886
21040471 1 17979352289348124930
23552423 10 18408325467004042407
241688 4 17905609904199536666
2748010 2 18124027923432860022
5084963 1 18059579061538808699
528862 383 18261668298049281603
66348 1 18051688841538483711

>  <PUBCHEM_SHAPE_MULTIPOLES>  (1) 
200
3.13
2.32
0.69
2.04
0.26
-0.01
-0.18
-0.36
-0.62
0.23
-0.02
-0.04
-0.25

>  <PUBCHEM_SHAPE_SELFOVERLAP>  (1) 
399.495

>  <PUBCHEM_SHAPE_VOLUME>  (1) 
117.8

>  <PUBCHEM_COORDINATE_TYPE>  (1) 
2
5
10

$$$$
