20713
     RDKit          3D

  9  9  0  0  1  0  0  0  0  0999 V2000
    1.5438    1.6770    0.0331 O   0  0  0  0  0  0  0  0  0  0  0  0
    0.1465   -0.3294   -0.6526 C   0  0  0  0  0  0  0  0  0  0  0  0
   -1.1803    0.0364    0.0103 C   0  0  0  0  0  0  0  0  0  0  0  0
    0.8522   -1.5731   -0.0595 C   0  0  0  0  0  0  0  0  0  0  0  0
    2.1723   -0.7822    0.1074 C   0  0  0  0  0  0  0  0  0  0  0  0
    1.3414    0.4937   -0.1326 C   0  0  0  0  0  0  0  0  0  0  0  0
   -2.2491   -0.9923   -0.3856 C   0  0  0  0  0  0  0  0  0  0  0  0
   -1.6157    1.4327   -0.4568 C   0  0  0  0  0  0  0  0  0  0  0  0
   -1.0111    0.0370    1.5363 C   0  0  0  0  0  0  0  0  0  0  0  0
  1  6  2  0
  2  3  1  0
  2  4  1  0
  2  6  1  0
  3  7  1  0
  3  8  1  0
  3  9  1  0
  4  5  1  0
  5  6  1  0
M  END
>  <PUBCHEM_COMPOUND_CID>  (1) 
20713

>  <PUBCHEM_CONFORMER_RMSD>  (1) 
0.4

>  <PUBCHEM_CONFORMER_DIVERSEORDER>  (1) 
2
1
4
3

>  <PUBCHEM_MMFF94_PARTIAL_CHARGES>  (1) 
4
1 -0.57
2 0.05
5 0.05
6 0.46

>  <PUBCHEM_EFFECTIVE_ROTOR_COUNT>  (1) 
1.6

>  <PUBCHEM_PHARMACOPHORE_FEATURES>  (1) 
3
1 1 acceptor
4 2 4 5 6 rings
4 3 7 8 9 hydrophobe

>  <PUBCHEM_HEAVY_ATOM_COUNT>  (1) 
9

>  <PUBCHEM_ATOM_DEF_STEREO_COUNT>  (1) 
0

>  <PUBCHEM_ATOM_UDEF_STEREO_COUNT>  (1) 
1

>  <PUBCHEM_BOND_DEF_STEREO_COUNT>  (1) 
0

>  <PUBCHEM_BOND_UDEF_STEREO_COUNT>  (1) 
0

>  <PUBCHEM_ISOTOPIC_ATOM_COUNT>  (1) 
0

>  <PUBCHEM_COMPONENT_COUNT>  (1) 
1

>  <PUBCHEM_CACTVS_TAUTO_COUNT>  (1) 
3

>  <PUBCHEM_CONFORMER_ID>  (1) 
000050E900000002

>  <PUBCHEM_MMFF94_ENERGY>  (1) 
21.1352

>  <PUBCHEM_FEATURE_SELFOVERLAP>  (1) 
15.223

>  <PUBCHEM_SHAPE_FINGERPRINT>  (1) 
12423570 1 9040800304358532910
12897270 3 18337947999684568455
16945 1 18338510850795732495
18185500 45 18271526381807023314
21040471 1 18194119844325799644
21922407 69 17916606309009605563
23552333 60 18272933868533832219
23552423 10 18407758135957320903
24536 1 17274832289688765407
29004967 10 18264494983699386786
369184 2 18410852118707052043
5084963 1 18201721781720715538

>  <PUBCHEM_SHAPE_MULTIPOLES>  (1) 
179.35
2.8
1.57
0.97
0.05
0.26
0.37
-0.19
-0.15
0.14
-0.16
-0.34
-0.01
0.01

>  <PUBCHEM_SHAPE_SELFOVERLAP>  (1) 
353.212

>  <PUBCHEM_SHAPE_VOLUME>  (1) 
107.2

>  <PUBCHEM_COORDINATE_TYPE>  (1) 
2
5
10

$$$$
