20714
     RDKit          3D

 22 24  0  0  1  0  0  0  0  0999 V2000
    6.4963    0.0206    0.5182 Cl  0  0  0  0  0  0  0  0  0  0  0  0
    0.7803    0.6320   -0.6762 O   0  0  0  0  0  0  0  0  0  0  0  0
   -1.6450    0.8886   -2.2270 O   0  0  0  0  0  0  0  0  0  0  0  0
   -4.1246    2.6665    1.1955 O   0  0  0  0  0  0  0  0  0  0  0  0
   -2.3449    1.1496    1.1691 N   0  0  0  0  0  0  0  0  0  0  0  0
   -3.0659    1.9901   -0.7615 N   0  0  0  0  0  0  0  0  0  0  0  0
   -1.4551    0.5377    0.1920 C   0  0  0  0  0  0  0  0  0  0  0  0
   -0.0461    1.1184    0.3678 C   0  0  0  0  0  0  0  0  0  0  0  0
   -1.5712   -0.9798    0.2144 C   0  0  0  0  0  0  0  0  0  0  0  0
   -2.0423    1.1356   -1.0958 C   0  0  0  0  0  0  0  0  0  0  0  0
   -3.2773    2.0172    0.5981 C   0  0  0  0  0  0  0  0  0  0  0  0
   -2.6266   -1.6096   -0.4463 C   0  0  0  0  0  0  0  0  0  0  0  0
   -0.6223   -1.7428    0.8961 C   0  0  0  0  0  0  0  0  0  0  0  0
   -2.7329   -3.0003   -0.4253 C   0  0  0  0  0  0  0  0  0  0  0  0
   -0.7287   -3.1334    0.9169 C   0  0  0  0  0  0  0  0  0  0  0  0
    2.1162    0.4891   -0.3967 C   0  0  0  0  0  0  0  0  0  0  0  0
   -1.7840   -3.7622    0.2561 C   0  0  0  0  0  0  0  0  0  0  0  0
    2.7172    1.3311    0.5305 C   0  0  0  0  0  0  0  0  0  0  0  0
    2.8510   -0.4954   -1.0451 C   0  0  0  0  0  0  0  0  0  0  0  0
    4.0753    1.1864    0.8136 C   0  0  0  0  0  0  0  0  0  0  0  0
    4.2092   -0.6402   -0.7619 C   0  0  0  0  0  0  0  0  0  0  0  0
    4.8213    0.2008    0.1675 C   0  0  0  0  0  0  0  0  0  0  0  0
  1 22  1  0
  2  8  1  0
  2 16  1  0
  3 10  2  0
  4 11  2  0
  5  7  1  0
  5 11  1  0
  6 10  1  0
  6 11  1  0
  7  8  1  0
  7  9  1  0
  7 10  1  0
  9 12  2  0
  9 13  1  0
 12 14  1  0
 13 15  2  0
 14 17  2  0
 15 17  1  0
 16 18  2  0
 16 19  1  0
 18 20  1  0
 19 21  2  0
 20 22  2  0
 21 22  1  0
M  END
>  <PUBCHEM_COMPOUND_CID>  (1) 
20714

>  <PUBCHEM_CONFORMER_RMSD>  (1) 
0.8

>  <PUBCHEM_CONFORMER_DIVERSEORDER>  (1) 
3
21
18
20
8
16
11
6
19
7
22
15
4
5
12
23
17
24
10
1
2
9
14
13

>  <PUBCHEM_MMFF94_PARTIAL_CHARGES>  (1) 
33
1 -0.18
10 0.57
11 0.69
12 -0.15
13 -0.15
14 -0.15
15 -0.15
16 0.08
17 -0.15
18 -0.15
19 -0.15
2 -0.36
20 -0.15
21 -0.15
22 0.18
25 0.37
26 0.37
27 0.15
28 0.15
29 0.15
3 -0.57
30 0.15
31 0.15
32 0.15
33 0.15
34 0.15
35 0.15
4 -0.57
5 -0.73
6 -0.49
7 0.5
8 0.28
9 -0.14

>  <PUBCHEM_EFFECTIVE_ROTOR_COUNT>  (1) 
4.6

>  <PUBCHEM_PHARMACOPHORE_FEATURES>  (1) 
8
1 2 acceptor
1 3 acceptor
1 4 acceptor
1 5 donor
1 6 donor
5 5 6 7 10 11 rings
6 16 18 19 20 21 22 rings
6 9 12 13 14 15 17 rings

>  <PUBCHEM_HEAVY_ATOM_COUNT>  (1) 
22

>  <PUBCHEM_ATOM_DEF_STEREO_COUNT>  (1) 
0

>  <PUBCHEM_ATOM_UDEF_STEREO_COUNT>  (1) 
1

>  <PUBCHEM_BOND_DEF_STEREO_COUNT>  (1) 
0

>  <PUBCHEM_BOND_UDEF_STEREO_COUNT>  (1) 
0

>  <PUBCHEM_ISOTOPIC_ATOM_COUNT>  (1) 
0

>  <PUBCHEM_COMPONENT_COUNT>  (1) 
1

>  <PUBCHEM_CACTVS_TAUTO_COUNT>  (1) 
5

>  <PUBCHEM_CONFORMER_ID>  (1) 
000050EA00000003

>  <PUBCHEM_MMFF94_ENERGY>  (1) 
67.3206

>  <PUBCHEM_FEATURE_SELFOVERLAP>  (1) 
40.67

>  <PUBCHEM_SHAPE_FINGERPRINT>  (1) 
10493431 412 18338524032150688209
11315181 36 18336259137609432256
11322862 65 18337401465164938559
11405975 8 18411698799217915592
12173636 292 18338798901510129541
12293681 4 18130791131562576640
12346177 29 18335697269428457550
12422481 6 18049480082278160747
12500047 106 18408882919599843348
12553582 1 17760387860075733902
12616971 3 17312827083156809548
12633257 1 18199486513230793930
12788726 201 18121234317979571155
12969540 37 16609688610239784855
13004483 165 18052537969616443655
13134695 92 17477483579117028935
13583140 156 17489866072741325992
14178342 30 18410295830632898710
14251740 79 18335972160004434807
14866123 147 18410577318590126363
15042514 8 18191594249306759587
16752209 62 18115853243538183715
167882 2 17755563959325623023
17913733 40 18053970371933749817
21033648 29 18265603308606225432
22224240 67 18270694069703077257
23419403 2 17272278326594806203
23557571 272 18121488317881652018
23558518 356 18117847817839554920
23559900 14 18195234749227563112
23728640 28 18335427884531861171
3027735 51 18411416245582531663
312423 11 17750243676099087492
3729539 64 17690019846364653990
4073 2 18342175575529565002
4340502 62 18269850718261392305
4921388 177 18410008862145025128
5104073 3 18341323479656214520
559249 180 18187918453143860850
5924683 9 18339076098815334322
59755656 520 18339358574392740053
7615 1 17823145695035499204
81228 2 18116434941150082339
9709674 26 18343588473139999030
9862522 239 17750224820892075253

>  <PUBCHEM_SHAPE_MULTIPOLES>  (1) 
427.05
9.62
3.49
1.24
16.75
2.61
0.32
-1.98
-1.13
-5.71
-0.78
-0.44
-0.32
0.01

>  <PUBCHEM_SHAPE_SELFOVERLAP>  (1) 
925.341

>  <PUBCHEM_SHAPE_VOLUME>  (1) 
234.1

>  <PUBCHEM_COORDINATE_TYPE>  (1) 
2
5
10

$$$$
