20711
     RDKit          3D

 11 11  0  0  0  0  0  0  0  0999 V2000
    4.6365    0.0134    0.1926 Br  0  0  0  0  0  0  0  0  0  0  0  0
   -0.1574   -1.2034   -0.2279 N   0  0  0  0  0  0  0  0  0  0  0  0
   -0.1419    1.1962   -0.2293 N   0  0  0  0  0  0  0  0  0  0  0  0
   -2.1857    0.0098    0.1865 N   0  0  0  0  0  0  0  0  0  0  0  0
   -2.1694   -2.3354    0.1835 N   0  0  0  0  0  0  0  0  0  0  0  0
   -2.1393    2.3543    0.1805 N   0  0  0  0  0  0  0  0  0  0  0  0
    1.9024   -0.0169   -0.6450 C   0  0  0  0  0  0  0  0  0  0  0  0
    0.4412   -0.0074   -0.3491 C   0  0  0  0  0  0  0  0  0  0  0  0
    2.7400   -0.0206    0.6300 C   0  0  0  0  0  0  0  0  0  0  0  0
   -1.4704   -1.1171    0.0398 C   0  0  0  0  0  0  0  0  0  0  0  0
   -1.4559    1.1271    0.0384 C   0  0  0  0  0  0  0  0  0  0  0  0
  1  9  1  0
  2  8  2  0
  2 10  1  0
  3  8  1  0
  3 11  2  0
  4 10  2  0
  4 11  1  0
  5 10  1  0
  6 11  1  0
  7  8  1  0
  7  9  1  0
M  END
>  <PUBCHEM_COMPOUND_CID>  (1) 
20711

>  <PUBCHEM_CONFORMER_RMSD>  (1) 
0.4

>  <PUBCHEM_CONFORMER_DIVERSEORDER>  (1) 
1
7
8
4
10
3
6
2
5
9

>  <PUBCHEM_MMFF94_PARTIAL_CHARGES>  (1) 
15
1 -0.23
10 0.72
11 0.72
16 0.4
17 0.4
18 0.4
19 0.4
2 -0.62
3 -0.62
4 -0.62
5 -0.9
6 -0.9
7 0.14
8 0.48
9 0.23

>  <PUBCHEM_EFFECTIVE_ROTOR_COUNT>  (1) 
2

>  <PUBCHEM_PHARMACOPHORE_FEATURES>  (1) 
6
1 1 hydrophobe
1 5 donor
1 6 donor
4 2 4 5 10 cation
4 3 4 6 11 cation
6 2 3 4 8 10 11 rings

>  <PUBCHEM_HEAVY_ATOM_COUNT>  (1) 
11

>  <PUBCHEM_ATOM_DEF_STEREO_COUNT>  (1) 
0

>  <PUBCHEM_ATOM_UDEF_STEREO_COUNT>  (1) 
0

>  <PUBCHEM_BOND_DEF_STEREO_COUNT>  (1) 
0

>  <PUBCHEM_BOND_UDEF_STEREO_COUNT>  (1) 
0

>  <PUBCHEM_ISOTOPIC_ATOM_COUNT>  (1) 
0

>  <PUBCHEM_COMPONENT_COUNT>  (1) 
1

>  <PUBCHEM_CACTVS_TAUTO_COUNT>  (1) 
10

>  <PUBCHEM_CONFORMER_ID>  (1) 
000050E700000001

>  <PUBCHEM_MMFF94_ENERGY>  (1) 
26.5961

>  <PUBCHEM_FEATURE_SELFOVERLAP>  (1) 
30.489

>  <PUBCHEM_SHAPE_FINGERPRINT>  (1) 
10857977 72 18270677692132511650
12716758 59 18269282270053298334
13024252 1 14273735131617358821
13380535 76 18269551641732995743
14325111 11 18340204099140233892
15219456 202 17988087686462406790
16945 1 18410584980505092903
20645464 45 18060142011745203716
20871998 184 18272653484357612614
21040471 1 18194131724136827101
21061003 4 17131557244734980386
23402539 116 18341601621305507085
23500284 214 18059299738356719824
23552423 10 17898859207747605068
2748010 2 17976839596462998349
6333449 129 18342173345376116204
75552 356 18409446990360315880

>  <PUBCHEM_SHAPE_MULTIPOLES>  (1) 
207.41
5.86
1.89
0.7
8.27
0.03
-0.01
0
0.85
-2.43
0.13
0.27
0
0

>  <PUBCHEM_SHAPE_SELFOVERLAP>  (1) 
405.178

>  <PUBCHEM_SHAPE_VOLUME>  (1) 
129.3

>  <PUBCHEM_COORDINATE_TYPE>  (1) 
2
5
10

$$$$
