20710
     RDKit          3D

 22 24  0  0  1  0  0  0  0  0999 V2000
   -3.7440    0.0323    1.9731 O   0  0  0  0  0  0  0  0  0  0  0  0
   -0.3166   -0.9633    0.0875 O   0  0  0  0  0  0  0  0  0  0  0  0
    0.7819    0.8609   -0.7895 O   0  0  0  0  0  0  0  0  0  0  0  0
    3.2971   -2.9059    0.5165 O   0  0  0  0  0  0  0  0  0  0  0  0
   -4.1902    0.3173    0.7158 N   0  0  0  0  0  0  0  0  0  0  0  0
   -3.3182    1.3306   -0.0081 C   0  0  0  0  0  0  0  0  0  0  0  0
   -4.0719   -0.8610   -0.2376 C   0  0  0  0  0  0  0  0  0  0  0  0
   -3.7682    1.2168   -1.4721 C   0  0  0  0  0  0  0  0  0  0  0  0
   -4.2644   -0.2276   -1.6234 C   0  0  0  0  0  0  0  0  0  0  0  0
   -1.8380    0.9257    0.1448 C   0  0  0  0  0  0  0  0  0  0  0  0
   -2.6651   -1.4788   -0.1067 C   0  0  0  0  0  0  0  0  0  0  0  0
   -1.5493   -0.4711   -0.4259 C   0  0  0  0  0  0  0  0  0  0  0  0
   -5.6128    0.7920    0.8492 C   0  0  0  0  0  0  0  0  0  0  0  0
    0.7881   -0.1932   -0.1667 C   0  0  0  0  0  0  0  0  0  0  0  0
    2.0264   -0.8494    0.4373 C   0  0  0  0  0  0  0  0  0  0  0  0
    2.1996   -2.2663   -0.1279 C   0  0  0  0  0  0  0  0  0  0  0  0
    3.2612    0.0128    0.2280 C   0  0  0  0  0  0  0  0  0  0  0  0
    4.0178   -0.1689   -0.9126 C   0  0  0  0  0  0  0  0  0  0  0  0
    3.5902    0.9529    1.1841 C   0  0  0  0  0  0  0  0  0  0  0  0
    5.1505    0.6220   -1.1048 C   0  0  0  0  0  0  0  0  0  0  0  0
    4.7229    1.7439    0.9917 C   0  0  0  0  0  0  0  0  0  0  0  0
    5.5030    1.5784   -0.1529 C   0  0  0  0  0  0  0  0  0  0  0  0
  1  5  1  0
  2 12  1  0
  2 14  1  0
  3 14  2  0
  4 16  1  0
  5  6  1  0
  5  7  1  0
  5 13  1  0
  6  8  1  0
  6 10  1  0
  7  9  1  0
  7 11  1  0
  8  9  1  0
 10 12  1  0
 11 12  1  0
 14 15  1  0
 15 16  1  0
 15 17  1  0
 17 18  2  0
 17 19  1  0
 18 20  1  0
 19 21  2  0
 20 22  2  0
 21 22  1  0
M  CHG  2   1  -1   5   1
M  END
>  <PUBCHEM_COMPOUND_CID>  (1) 
20710

>  <PUBCHEM_CONFORMER_RMSD>  (1) 
0.8

>  <PUBCHEM_CONFORMER_DIVERSEORDER>  (1) 
1
91
90
45
33
36
75
14
71
77
103
27
42
39
87
51
84
7
50
65
38
95
105
81
2
62
24
37
66
55
86
61
97
5
83
12
78
101
99
52
26
56
4
35
98
30
104
20
28
108
58
18
96
69
54
31
92
94
85
41
9
100
112
109
19
11
3
80
73
70
82
6
29
79
63
89
34
43
47
68
111
49
57
88
32
64
60
13
22
8
72
21
44
46
59
53
110
40
106
67
93
25
15
17
23
107
74
102
16
48
76
10

>  <PUBCHEM_MMFF94_PARTIAL_CHARGES>  (1) 
24
1 -0.75
12 0.28
13 0.26
14 0.66
15 0.2
16 0.28
17 -0.14
18 -0.15
19 -0.15
2 -0.43
20 -0.15
21 -0.15
22 -0.15
3 -0.57
4 -0.68
40 0.15
41 0.15
42 0.4
43 0.15
44 0.15
45 0.15
5 -0.02
6 0.26
7 0.26

>  <PUBCHEM_EFFECTIVE_ROTOR_COUNT>  (1) 
6.2

>  <PUBCHEM_PHARMACOPHORE_FEATURES>  (1) 
6
1 1 anion
1 3 acceptor
1 4 acceptor
1 4 donor
6 17 18 19 20 21 22 rings
8 5 6 7 8 9 10 11 12 rings

>  <PUBCHEM_HEAVY_ATOM_COUNT>  (1) 
22

>  <PUBCHEM_ATOM_DEF_STEREO_COUNT>  (1) 
0

>  <PUBCHEM_ATOM_UDEF_STEREO_COUNT>  (1) 
3

>  <PUBCHEM_BOND_DEF_STEREO_COUNT>  (1) 
0

>  <PUBCHEM_BOND_UDEF_STEREO_COUNT>  (1) 
0

>  <PUBCHEM_ISOTOPIC_ATOM_COUNT>  (1) 
0

>  <PUBCHEM_COMPONENT_COUNT>  (1) 
1

>  <PUBCHEM_CACTVS_TAUTO_COUNT>  (1) 
1

>  <PUBCHEM_CONFORMER_ID>  (1) 
000050E600000001

>  <PUBCHEM_MMFF94_ENERGY>  (1) 
71.1065

>  <PUBCHEM_FEATURE_SELFOVERLAP>  (1) 
30.446

>  <PUBCHEM_SHAPE_FINGERPRINT>  (1) 
10366900 7 18342169007501254633
10498660 4 18412257346439552448
10912923 1 17989199331177712255
11089746 13 17989480832061103992
11128504 68 17060336353265670068
11405975 8 17971185933036654505
11595378 159 17168133516819333308
11796584 16 13542470856227561284
12107183 9 17622168966317398338
12236239 1 17988927764785245709
12403259 415 18041561321839955351
12507557 5 16950562216118173629
12507560 40 18115027403189575615
12616971 3 18201151044944484119
12730499 353 18410583885589528634
12788726 201 17059785394913551425
128620 24 18187083948865158061
13224815 77 18410007736663152998
13533116 47 18339359656756413531
13631057 29 18126839632743448999
13675066 3 17894631426741008727
13914758 101 8358270220286800427
13955234 65 18336825300072187226
14528608 73 18130783490504013532
15183329 4 16988575584802554356
15188451 53 13190340218491149913
15239154 128 18413106160646678984
15375358 24 17894345579413809226
15788980 27 11241964880285464860
1601671 61 18260266374017433828
17349148 13 17749110014853992636
17834072 33 17418374718264197060
17844677 252 18336551508142810564
18186145 218 18131067130059812762
18335252 98 18335139822003895211
18927931 339 9223238472215220369
19784866 170 18259703415257507486
20325693 3 15123510320264862093
20645477 56 18260263049596416165
20645477 70 18338232648611085870
21033648 29 18114174207815347749
23402539 116 16773799203245236029
23559900 14 18196358231020488218
268830 7 18272088241170840305
300161 21 18412539899431585205
3004659 81 14548751582128879292
34797466 226 17131276882107605716
350125 39 18263077735340017750
3545911 37 18408325483920200046
474 4 18337951311378880832
497634 4 17775001323824547765
5104073 3 18188773838518971513
542803 24 17632579348815602309
543368 44 17917991723836384585
559249 180 9439140731555763037
5924683 9 14129063655457040929
633830 44 17561083596434276902
6442390 28 18338797922721679606
7495541 125 12247676106455688326
7808743 9 18120090848058145096
90127 26 17896038758785665335
960060 61 14764352647928459756
9841814 1 18044930182961744498

>  <PUBCHEM_SHAPE_MULTIPOLES>  (1) 
424.29
13.42
1.95
1.29
1.54
1.03
0.02
-4.91
0.02
1.76
-0.25
-0.74
-0.27
-0.02

>  <PUBCHEM_SHAPE_SELFOVERLAP>  (1) 
900.721

>  <PUBCHEM_SHAPE_VOLUME>  (1) 
236.7

>  <PUBCHEM_COORDINATE_TYPE>  (1) 
2
5
10

$$$$
