20729
     RDKit          3D

 22 26  0  0  0  0  0  0  0  0999 V2000
   -1.8349   -2.5973   -0.0011 O   0  0  0  0  0  0  0  0  0  0  0  0
   -0.8223   -0.3829    0.0002 C   0  0  0  0  0  0  0  0  0  0  0  0
   -1.4422    0.8788    0.0004 C   0  0  0  0  0  0  0  0  0  0  0  0
    0.5703   -0.5560    0.0007 C   0  0  0  0  0  0  0  0  0  0  0  0
    1.3850    0.6109    0.0007 C   0  0  0  0  0  0  0  0  0  0  0  0
   -2.8799    0.7258    0.0000 C   0  0  0  0  0  0  0  0  0  0  0  0
   -3.1959   -0.6385   -0.0010 C   0  0  0  0  0  0  0  0  0  0  0  0
   -1.9253   -1.3890   -0.0007 C   0  0  0  0  0  0  0  0  0  0  0  0
    2.8193    0.4676    0.0003 C   0  0  0  0  0  0  0  0  0  0  0  0
   -0.6699    2.0182    0.0006 C   0  0  0  0  0  0  0  0  0  0  0  0
    0.7233    1.8771    0.0006 C   0  0  0  0  0  0  0  0  0  0  0  0
    1.1772   -1.8215    0.0012 C   0  0  0  0  0  0  0  0  0  0  0  0
    3.3893   -0.8317    0.0012 C   0  0  0  0  0  0  0  0  0  0  0  0
    2.5618   -1.9547    0.0017 C   0  0  0  0  0  0  0  0  0  0  0  0
   -3.8985    1.6632    0.0010 C   0  0  0  0  0  0  0  0  0  0  0  0
   -4.4914   -1.1170   -0.0017 C   0  0  0  0  0  0  0  0  0  0  0  0
    3.7296    1.5555   -0.0013 C   0  0  0  0  0  0  0  0  0  0  0  0
    4.7842   -1.0049    0.0004 C   0  0  0  0  0  0  0  0  0  0  0  0
   -5.2224    1.2064    0.0007 C   0  0  0  0  0  0  0  0  0  0  0  0
   -5.5153   -0.1701   -0.0005 C   0  0  0  0  0  0  0  0  0  0  0  0
    5.1153    1.3706   -0.0021 C   0  0  0  0  0  0  0  0  0  0  0  0
    5.6429    0.0893   -0.0012 C   0  0  0  0  0  0  0  0  0  0  0  0
  1  8  2  0
  2  3  2  0
  2  4  1  0
  2  8  1  0
  3  6  1  0
  3 10  1  0
  4  5  2  0
  4 12  1  0
  5  9  1  0
  5 11  1  0
  6  7  2  0
  6 15  1  0
  7  8  1  0
  7 16  1  0
  9 13  2  0
  9 17  1  0
 10 11  2  0
 12 14  2  0
 13 14  1  0
 13 18  1  0
 15 19  2  0
 16 20  2  0
 17 21  2  0
 18 22  2  0
 19 20  1  0
 21 22  1  0
M  END
>  <PUBCHEM_COMPOUND_CID>  (1) 
20729

>  <PUBCHEM_CONFORMER_RMSD>  (1) 
0.6

>  <PUBCHEM_CONFORMER_DIVERSEORDER>  (1) 
1

>  <PUBCHEM_MMFF94_PARTIAL_CHARGES>  (1) 
28
1 -0.57
10 -0.15
11 -0.15
12 -0.15
14 -0.15
15 -0.15
16 -0.15
17 -0.15
18 -0.15
19 -0.15
2 0.09
20 -0.15
21 -0.15
22 -0.15
23 0.15
24 0.15
25 0.15
26 0.15
27 0.15
28 0.15
29 0.15
30 0.15
31 0.15
32 0.15
33 0.15
34 0.15
7 0.09
8 0.4

>  <PUBCHEM_EFFECTIVE_ROTOR_COUNT>  (1) 
0

>  <PUBCHEM_PHARMACOPHORE_FEATURES>  (1) 
6
1 1 acceptor
5 2 3 6 7 8 rings
6 2 3 4 5 10 11 rings
6 4 5 9 12 13 14 rings
6 6 7 15 16 19 20 rings
6 9 13 17 18 21 22 rings

>  <PUBCHEM_HEAVY_ATOM_COUNT>  (1) 
22

>  <PUBCHEM_ATOM_DEF_STEREO_COUNT>  (1) 
0

>  <PUBCHEM_ATOM_UDEF_STEREO_COUNT>  (1) 
0

>  <PUBCHEM_BOND_DEF_STEREO_COUNT>  (1) 
0

>  <PUBCHEM_BOND_UDEF_STEREO_COUNT>  (1) 
0

>  <PUBCHEM_ISOTOPIC_ATOM_COUNT>  (1) 
0

>  <PUBCHEM_COMPONENT_COUNT>  (1) 
1

>  <PUBCHEM_CACTVS_TAUTO_COUNT>  (1) 
1

>  <PUBCHEM_CONFORMER_ID>  (1) 
000050F900000001

>  <PUBCHEM_MMFF94_ENERGY>  (1) 
85.66

>  <PUBCHEM_FEATURE_SELFOVERLAP>  (1) 
30.657

>  <PUBCHEM_SHAPE_FINGERPRINT>  (1) 
10 15 18262232326704483696
10616163 171 18411983606451041646
10906281 52 18339380602968543847
10967382 1 18410573989499263394
11112241 14 16412640549096532832
11578080 2 16986576813690401154
12011746 2 18413107251468015717
12107183 9 17619632384418067249
12236239 1 17989487411597560481
12403814 3 17676483943403250917
12516196 113 18131628997655446169
12788726 201 17560244617586409025
12838862 33 18338497703753341132
13140716 1 18266741478996495921
13402501 40 18410855460133436544
138480 1 17689997834335598914
13862211 1 18410851066382159079
14251764 18 18343587344043453169
14528608 73 18412545431323160268
14790565 3 18411142411341597449
15196674 1 18410855455833213991
15536298 74 18413671292242864230
15788980 27 18259706700517306640
1601671 61 18412262839565424600
1813 80 17095244709096440092
18681886 176 18340766031339607912
19141452 34 18341894125452525343
200 152 18131067130175922225
20645477 70 18343022147257926078
21033648 29 18335404756460402649
21267235 1 18410864256226757575
21279426 13 18267585710621249860
21421861 104 17896873271158340090
23402539 116 18343014497825901559
23559900 14 18342452681770752840
239999 70 18272375248508721838
2871803 45 18408040689392679406
3004659 81 18334296444834143796
335352 9 18410575072358517118
34797466 226 16773521070053878892
34934 24 18410852170262626662
350125 39 18410856542523743600
3545911 37 18410857663467509652
3680242 22 18262515893066276706
4073 2 18041003976587123794
4214541 1 18410856559798272485
474 4 17822016445022458252
5104073 3 18409730646863909235
5283173 99 18115298969577241941
59755656 215 18340211804507092990
59755656 520 17167860881112217130
9709674 26 18412269410728549366

>  <PUBCHEM_SHAPE_MULTIPOLES>  (1) 
446.88
11.93
2.26
0.61
0.37
0.29
0
-1.43
0
-0.01
0
0.01
-0.01
0

>  <PUBCHEM_SHAPE_SELFOVERLAP>  (1) 
1044.139

>  <PUBCHEM_SHAPE_VOLUME>  (1) 
228.3

>  <PUBCHEM_COORDINATE_TYPE>  (1) 
2
5
10

$$$$
