20725
     RDKit          3D

 15 16  0  0  0  0  0  0  0  0999 V2000
   -2.4782    1.5104   -0.2485 O   0  0  0  0  0  0  0  0  0  0  0  0
   -2.8381   -1.2008    0.2340 O   0  0  0  0  0  0  0  0  0  0  0  0
    3.4172    0.0769   -0.0395 N   0  0  0  0  0  0  0  0  0  0  0  0
    1.0037    0.3745   -0.0738 C   0  0  0  0  0  0  0  0  0  0  0  0
    0.8254   -1.0028    0.1712 C   0  0  0  0  0  0  0  0  0  0  0  0
   -0.1169    1.2098   -0.2133 C   0  0  0  0  0  0  0  0  0  0  0  0
    2.3140    0.8481   -0.1674 C   0  0  0  0  0  0  0  0  0  0  0  0
   -0.4781   -1.5159    0.2716 C   0  0  0  0  0  0  0  0  0  0  0  0
   -1.4043    0.6835   -0.1104 C   0  0  0  0  0  0  0  0  0  0  0  0
   -1.5844   -0.6765    0.1314 C   0  0  0  0  0  0  0  0  0  0  0  0
    1.9549   -1.8184    0.3069 C   0  0  0  0  0  0  0  0  0  0  0  0
    2.5998    2.2938   -0.4253 C   0  0  0  0  0  0  0  0  0  0  0  0
    3.2082   -1.2362    0.1944 C   0  0  0  0  0  0  0  0  0  0  0  0
   -2.9796    2.1249    0.9368 C   0  0  0  0  0  0  0  0  0  0  0  0
   -3.4438   -1.6711   -0.9683 C   0  0  0  0  0  0  0  0  0  0  0  0
  1  9  1  0
  1 14  1  0
  2 10  1  0
  2 15  1  0
  3  7  2  0
  3 13  1  0
  4  5  2  0
  4  6  1  0
  4  7  1  0
  5  8  1  0
  5 11  1  0
  6  9  2  0
  7 12  1  0
  8 10  2  0
  9 10  1  0
 11 13  2  0
M  END
>  <PUBCHEM_COMPOUND_CID>  (1) 
20725

>  <PUBCHEM_CONFORMER_RMSD>  (1) 
0.6

>  <PUBCHEM_CONFORMER_DIVERSEORDER>  (1) 
1
2

>  <PUBCHEM_MMFF94_PARTIAL_CHARGES>  (1) 
17
1 -0.36
10 0.08
11 -0.15
12 0.14
13 0.16
14 0.28
15 0.28
16 0.15
17 0.15
18 0.15
2 -0.36
22 0.15
3 -0.62
6 -0.15
7 0.17
8 -0.15
9 0.08

>  <PUBCHEM_EFFECTIVE_ROTOR_COUNT>  (1) 
2

>  <PUBCHEM_PHARMACOPHORE_FEATURES>  (1) 
5
1 1 acceptor
1 2 acceptor
1 3 acceptor
6 3 4 5 7 11 13 rings
6 4 5 6 8 9 10 rings

>  <PUBCHEM_HEAVY_ATOM_COUNT>  (1) 
15

>  <PUBCHEM_ATOM_DEF_STEREO_COUNT>  (1) 
0

>  <PUBCHEM_ATOM_UDEF_STEREO_COUNT>  (1) 
0

>  <PUBCHEM_BOND_DEF_STEREO_COUNT>  (1) 
0

>  <PUBCHEM_BOND_UDEF_STEREO_COUNT>  (1) 
0

>  <PUBCHEM_ISOTOPIC_ATOM_COUNT>  (1) 
0

>  <PUBCHEM_COMPONENT_COUNT>  (1) 
1

>  <PUBCHEM_CACTVS_TAUTO_COUNT>  (1) 
1

>  <PUBCHEM_CONFORMER_ID>  (1) 
000050F500000001

>  <PUBCHEM_MMFF94_ENERGY>  (1) 
65.0887

>  <PUBCHEM_FEATURE_SELFOVERLAP>  (1) 
25.403

>  <PUBCHEM_SHAPE_FINGERPRINT>  (1) 
10608611 8 18408319986452004724
10967382 1 18408604755557523792
11132069 177 18265044743903005754
11206711 2 18334576845304354215
12251169 10 18337958865830618353
12491281 212 18337119981318549576
12932764 1 17560797783535309178
13140716 1 18336547118596414016
13380535 21 18337403633811894084
14178342 30 18267851818410801274
14325111 11 18409449184993788532
14576447 43 17767672125137544103
14617773 55 18343585157340519107
15375462 189 17678457455285469778
15442244 35 18338234839054378090
15536298 74 18413388744046517006
15775835 57 18262810570487572492
16945 1 18265057022940263266
17990270 104 18410293575780635342
19591789 44 15675493349141143790
200 152 18342162410700747183
20510252 161 18271528696810246569
20525323 117 18411419522747320067
20645477 70 18338229470446017823
21267235 1 18409738356362320867
21501502 16 18409731754960176424
21501925 9 18335968844621770994
2334 1 18408605880817888808
23388829 49 18266177416883609965
23402539 116 18341038730991361679
23463225 33 18335421240343638566
23552423 10 18333731312378141498
23557571 272 17704068495257658626
25610 137 18264210394976887927
2748010 2 18408040706129391614
353137 74 18262229053437827907
5104073 3 18409727336077185266
528886 8 18337387115620881490
57096353 35 18337955726098567206
58051976 378 18194687205443067556
69090 78 18267020566535671329
7364860 26 18340206392737295908
74978 22 18339644429935379668
7832392 63 18267304231455001608
9709674 26 18410296934207950374

>  <PUBCHEM_SHAPE_MULTIPOLES>  (1) 
291.97
5.7
2.47
0.77
0.64
0.62
0.01
-0.05
0.26
0.44
-0.05
0.35
0.03
-1.04

>  <PUBCHEM_SHAPE_SELFOVERLAP>  (1) 
628.615

>  <PUBCHEM_SHAPE_VOLUME>  (1) 
163.2

>  <PUBCHEM_COORDINATE_TYPE>  (1) 
2
5
10

$$$$
