20722
     RDKit          3D

 19 19  0  0  0  0  0  0  0  0999 V2000
   -0.1174   -3.5279   -0.2145 O   0  0  0  0  0  0  0  0  0  0  0  0
    0.0305    3.4984   -0.2491 O   0  0  0  0  0  0  0  0  0  0  0  0
    1.8119   -2.5140   -0.4760 O   0  0  0  0  0  0  0  0  0  0  0  0
    1.9157    2.4016   -0.4992 O   0  0  0  0  0  0  0  0  0  0  0  0
   -4.1621   -1.0233    0.3230 O   0  0  0  0  0  0  0  0  0  0  0  0
   -4.1157    1.1715    0.3132 O   0  0  0  0  0  0  0  0  0  0  0  0
    4.1214    0.0090    0.3434 O   0  0  0  0  0  0  0  0  0  0  0  0
    2.3499    0.0576    1.6487 O   0  0  0  0  0  0  0  0  0  0  0  0
    2.0388   -0.0600   -0.5110 N   0  0  0  0  0  0  0  0  0  0  0  0
    0.5705   -2.4848   -0.3088 N   0  0  0  0  0  0  0  0  0  0  0  0
    0.6739    2.4264   -0.3329 N   0  0  0  0  0  0  0  0  0  0  0  0
   -3.5367    0.0610    0.2373 N   0  0  0  0  0  0  0  0  0  0  0  0
    2.9023   -0.0180    0.5459 N   0  0  0  0  0  0  0  0  0  0  0  0
    0.6351   -0.0296   -0.3223 C   0  0  0  0  0  0  0  0  0  0  0  0
   -0.0815   -1.2223   -0.2235 C   0  0  0  0  0  0  0  0  0  0  0  0
   -0.0306    1.1932   -0.2354 C   0  0  0  0  0  0  0  0  0  0  0  0
   -2.1294    0.0304    0.0490 C   0  0  0  0  0  0  0  0  0  0  0  0
   -1.4637   -1.1922   -0.0379 C   0  0  0  0  0  0  0  0  0  0  0  0
   -1.4129    1.2231   -0.0499 C   0  0  0  0  0  0  0  0  0  0  0  0
  1 10  1  0
  2 11  1  0
  3 10  2  0
  4 11  2  0
  5 12  1  0
  6 12  2  0
  7 13  1  0
  8 13  2  0
  9 13  1  0
  9 14  1  0
 10 15  1  0
 11 16  1  0
 12 17  1  0
 14 15  2  0
 14 16  1  0
 15 18  1  0
 16 19  2  0
 17 18  2  0
 17 19  1  0
M  CHG  8   1  -1   2  -1   5  -1   7  -1  10   1  11   1  12   1  13   1
M  END
>  <PUBCHEM_COMPOUND_CID>  (1) 
20722

>  <PUBCHEM_CONFORMER_RMSD>  (1) 
0.6

>  <PUBCHEM_CONFORMER_DIVERSEORDER>  (1) 
1

>  <PUBCHEM_MMFF94_PARTIAL_CHARGES>  (1) 
22
1 -0.52
10 0.91
11 0.91
12 0.91
13 1.04
14 0.1
15 0.13
16 0.13
17 0.13
18 -0.15
19 -0.15
2 -0.52
20 0.15
21 0.15
22 0.4
3 -0.52
4 -0.52
5 -0.52
6 -0.52
7 -0.52
8 -0.52
9 -0.5

>  <PUBCHEM_EFFECTIVE_ROTOR_COUNT>  (1) 
5

>  <PUBCHEM_PHARMACOPHORE_FEATURES>  (1) 
13
1 1 acceptor
1 1 anion
1 2 acceptor
1 2 anion
1 3 acceptor
1 4 acceptor
1 5 acceptor
1 5 anion
1 6 acceptor
1 7 acceptor
1 8 acceptor
1 9 donor
6 14 15 16 17 18 19 rings

>  <PUBCHEM_HEAVY_ATOM_COUNT>  (1) 
19

>  <PUBCHEM_ATOM_DEF_STEREO_COUNT>  (1) 
0

>  <PUBCHEM_ATOM_UDEF_STEREO_COUNT>  (1) 
0

>  <PUBCHEM_BOND_DEF_STEREO_COUNT>  (1) 
0

>  <PUBCHEM_BOND_UDEF_STEREO_COUNT>  (1) 
0

>  <PUBCHEM_ISOTOPIC_ATOM_COUNT>  (1) 
0

>  <PUBCHEM_COMPONENT_COUNT>  (1) 
1

>  <PUBCHEM_CACTVS_TAUTO_COUNT>  (1) 
1

>  <PUBCHEM_CONFORMER_ID>  (1) 
000050F200000001

>  <PUBCHEM_MMFF94_ENERGY>  (1) 
92.7702

>  <PUBCHEM_FEATURE_SELFOVERLAP>  (1) 
66.303

>  <PUBCHEM_SHAPE_FINGERPRINT>  (1) 
10967382 1 18410859896861059719
13140716 1 18266745873148602643
13172582 1 18410006671521813092
14178342 30 18341334392772227523
14790565 3 18338249227338050124
15490181 8 18196653110463412303
161256 15 18053386504740327934
16945 1 18410579483089372349
193761 8 17762338419499105486
20028762 73 18057043729992757407
20511035 2 17770778219451813236
20645477 70 18334574694364469543
20671657 1 18046633579121729237
21501502 16 17978790434701125999
2334 1 17978512267065407095
23388829 49 18413101749783837877
23402539 116 18343009000257369022
23419403 2 15520023697458151620
23463225 33 18335419066884497488
2748010 2 18050565149424004213
3250762 1 17618498788135453860
34934 24 18338792296161216301
465052 167 18040720307240762499
53812653 166 18272086076185647507
589210 1 17762055849453420860
7364860 26 18411146831242311517
7832392 63 18122907805037365860
81228 2 17755877315765885665

>  <PUBCHEM_SHAPE_MULTIPOLES>  (1) 
319.15
5.33
3.32
0.77
2.65
0.17
0.19
-0.17
1.35
-0.79
-0.7
-0.38
-0.01
-0.01

>  <PUBCHEM_SHAPE_SELFOVERLAP>  (1) 
684.075

>  <PUBCHEM_SHAPE_VOLUME>  (1) 
176.7

>  <PUBCHEM_COORDINATE_TYPE>  (1) 
2
5
10

$$$$
