20738
     RDKit          3D

 16 16  0  0  0  0  0  0  0  0999 V2000
    0.5407   -0.3960    0.1361 O   0  0  0  0  0  0  0  0  0  0  0  0
    3.5885   -1.2963   -0.8947 O   0  0  0  0  0  0  0  0  0  0  0  0
    1.8122    1.5490   -1.3216 O   0  0  0  0  0  0  0  0  0  0  0  0
   -0.0425    1.6241    1.0737 O   0  0  0  0  0  0  0  0  0  0  0  0
    1.9074   -0.1442    0.3932 C   0  0  0  0  0  0  0  0  0  0  0  0
    2.6865   -1.3640   -0.0604 C   0  0  0  0  0  0  0  0  0  0  0  0
    2.3181    1.1607   -0.2689 C   0  0  0  0  0  0  0  0  0  0  0  0
   -1.7355    0.1881    0.2037 C   0  0  0  0  0  0  0  0  0  0  0  0
   -0.3384    0.5727    0.5274 C   0  0  0  0  0  0  0  0  0  0  0  0
    2.2969   -2.6841    0.5547 C   0  0  0  0  0  0  0  0  0  0  0  0
    3.3747    1.9766    0.4319 C   0  0  0  0  0  0  0  0  0  0  0  0
   -2.6537    1.1808   -0.0714 C   0  0  0  0  0  0  0  0  0  0  0  0
   -2.0723   -1.1499    0.1875 C   0  0  0  0  0  0  0  0  0  0  0  0
   -3.9661    0.8197   -0.3757 C   0  0  0  0  0  0  0  0  0  0  0  0
   -3.3848   -1.5110   -0.1170 C   0  0  0  0  0  0  0  0  0  0  0  0
   -4.3317   -0.5261   -0.3986 C   0  0  0  0  0  0  0  0  0  0  0  0
  1  5  1  0
  1  9  1  0
  2  6  2  0
  3  7  2  0
  4  9  2  0
  5  6  1  0
  5  7  1  0
  6 10  1  0
  7 11  1  0
  8  9  1  0
  8 12  2  0
  8 13  1  0
 12 14  1  0
 13 15  2  0
 14 16  2  0
 15 16  1  0
M  END
>  <PUBCHEM_COMPOUND_CID>  (1) 
20738

>  <PUBCHEM_CONFORMER_RMSD>  (1) 
0.6

>  <PUBCHEM_CONFORMER_DIVERSEORDER>  (1) 
1
108
58
120
4
46
129
81
131
91
96
127
66
41
86
94
105
103
128
134
109
101
115
10
111
116
126
93
53
106
100
135
67
112
26
37
137
97
48
40
51
123
98
125
39
83
56
95
114
87
77
118
11
133
89
64
99
71
90
136
85
74
69
121
62
25
72
60
117
43
119
63
102
79
12
124
16
104
92
76
29
88
70
54
122
84
73
47
34
44
22
80
50
57
82
68
35
110
31
23
78
33
113
2
19
36
130
30
65
27
38
55
13
75
8
42
15
6
107
61
49
45
132
5
52
18
21
7
20
9
24
59
3
32
28
14
17

>  <PUBCHEM_MMFF94_PARTIAL_CHARGES>  (1) 
21
1 -0.43
10 0.06
11 0.06
12 -0.15
13 -0.15
14 -0.15
15 -0.15
16 -0.15
2 -0.57
24 0.15
25 0.15
26 0.15
27 0.15
28 0.15
3 -0.57
4 -0.57
5 0.4
6 0.45
7 0.45
8 0.09
9 0.63

>  <PUBCHEM_EFFECTIVE_ROTOR_COUNT>  (1) 
5

>  <PUBCHEM_PHARMACOPHORE_FEATURES>  (1) 
5
1 2 acceptor
1 3 acceptor
1 4 acceptor
1 5 anion
6 8 12 13 14 15 16 rings

>  <PUBCHEM_HEAVY_ATOM_COUNT>  (1) 
16

>  <PUBCHEM_ATOM_DEF_STEREO_COUNT>  (1) 
0

>  <PUBCHEM_ATOM_UDEF_STEREO_COUNT>  (1) 
0

>  <PUBCHEM_BOND_DEF_STEREO_COUNT>  (1) 
0

>  <PUBCHEM_BOND_UDEF_STEREO_COUNT>  (1) 
0

>  <PUBCHEM_ISOTOPIC_ATOM_COUNT>  (1) 
0

>  <PUBCHEM_COMPONENT_COUNT>  (1) 
1

>  <PUBCHEM_CACTVS_TAUTO_COUNT>  (1) 
5

>  <PUBCHEM_CONFORMER_ID>  (1) 
0000510200000001

>  <PUBCHEM_MMFF94_ENERGY>  (1) 
36.5653

>  <PUBCHEM_FEATURE_SELFOVERLAP>  (1) 
25.373

>  <PUBCHEM_SHAPE_FINGERPRINT>  (1) 
10608611 8 18408880737561499045
10616163 171 18339361993229392855
10922523 26 18187079529649902197
11806522 49 18341334418695135054
12932764 1 17385998430221741345
13296908 3 18343582949521723955
14350558 41 18342740693370754342
15375462 6 18409728486616833813
15442244 35 18266176123908647153
15536298 74 18412544318741897132
17834074 16 18409166636423050915
18186145 218 17967811630957004451
18619055 16 18413668011146358451
19422 9 18343023285471381257
200 152 18273213097020886498
20281475 54 18271807964775088459
20645477 56 18261106392348296429
20645477 70 18272369771782036031
20671657 53 18268153067553981926
21501502 16 18413389822067581569
21618674 54 18409443730517061519
221490 88 18409175432315918506
2255824 54 18260270746083118214
23463225 33 18341048523759428327
23557571 272 18113888386379388229
23559900 14 18342166722874097650
23598291 2 18269009608302162172
3082319 5 18410012147937424909
5104073 3 18411136940017019187
58051976 100 18336829702181134511
58051976 378 18266175217580746974
7364860 26 18413669115163917664
74978 22 18338519638224882667
81228 2 16270539429967445481
93112 12 18335984194655415263
9709674 26 18335985371408304883

>  <PUBCHEM_SHAPE_MULTIPOLES>  (1) 
305.8
7.65
2.31
0.86
3.75
0.68
-0.07
0.71
-1.23
-1.99
0.17
-0.34
-0.16
0

>  <PUBCHEM_SHAPE_SELFOVERLAP>  (1) 
634.955

>  <PUBCHEM_SHAPE_VOLUME>  (1) 
173.4

>  <PUBCHEM_COORDINATE_TYPE>  (1) 
2
5
10

$$$$
