20758
     RDKit          3D

 11 12  0  0  1  0  0  0  0  0999 V2000
   -2.3101    0.6443    1.1455 O   0  0  0  0  0  0  0  0  0  0  0  0
   -1.8947   -1.8292    0.1248 O   0  0  0  0  0  0  0  0  0  0  0  0
   -1.9556    0.5996   -0.2388 C   0  0  0  0  0  0  0  0  0  0  0  0
   -1.3236   -0.7596   -0.5987 C   0  0  0  0  0  0  0  0  0  0  0  0
   -0.8653    1.6560   -0.4891 C   0  0  0  0  0  0  0  0  0  0  0  0
    0.1142   -0.5155   -0.2479 C   0  0  0  0  0  0  0  0  0  0  0  0
    0.3756    0.8609   -0.1997 C   0  0  0  0  0  0  0  0  0  0  0  0
    1.1252   -1.4401   -0.0453 C   0  0  0  0  0  0  0  0  0  0  0  0
    1.6506    1.3384    0.0534 C   0  0  0  0  0  0  0  0  0  0  0  0
    2.4115   -0.9668    0.2235 C   0  0  0  0  0  0  0  0  0  0  0  0
    2.6723    0.4120    0.2722 C   0  0  0  0  0  0  0  0  0  0  0  0
  1  3  1  0
  2  4  1  0
  3  4  1  0
  3  5  1  0
  4  6  1  0
  5  7  1  0
  6  7  2  0
  6  8  1  0
  7  9  1  0
  8 10  2  0
  9 11  2  0
 10 11  1  0
M  END
>  <PUBCHEM_COMPOUND_CID>  (1) 
20758

>  <PUBCHEM_CONFORMER_RMSD>  (1) 
0.4

>  <PUBCHEM_CONFORMER_DIVERSEORDER>  (1) 
1
2

>  <PUBCHEM_MMFF94_PARTIAL_CHARGES>  (1) 
17
1 -0.68
10 -0.15
11 -0.15
16 0.15
17 0.15
18 0.4
19 0.4
2 -0.68
20 0.15
21 0.15
3 0.28
4 0.42
5 0.14
6 -0.14
7 -0.14
8 -0.15
9 -0.15

>  <PUBCHEM_EFFECTIVE_ROTOR_COUNT>  (1) 
0.6

>  <PUBCHEM_PHARMACOPHORE_FEATURES>  (1) 
6
1 1 acceptor
1 1 donor
1 2 acceptor
1 2 donor
5 3 4 5 6 7 rings
6 6 7 8 9 10 11 rings

>  <PUBCHEM_HEAVY_ATOM_COUNT>  (1) 
11

>  <PUBCHEM_ATOM_DEF_STEREO_COUNT>  (1) 
2

>  <PUBCHEM_ATOM_UDEF_STEREO_COUNT>  (1) 
0

>  <PUBCHEM_BOND_DEF_STEREO_COUNT>  (1) 
0

>  <PUBCHEM_BOND_UDEF_STEREO_COUNT>  (1) 
0

>  <PUBCHEM_ISOTOPIC_ATOM_COUNT>  (1) 
0

>  <PUBCHEM_COMPONENT_COUNT>  (1) 
1

>  <PUBCHEM_CACTVS_TAUTO_COUNT>  (1) 
1

>  <PUBCHEM_CONFORMER_ID>  (1) 
0000511600000001

>  <PUBCHEM_MMFF94_ENERGY>  (1) 
30.5333

>  <PUBCHEM_FEATURE_SELFOVERLAP>  (1) 
30.541

>  <PUBCHEM_SHAPE_FINGERPRINT>  (1) 
10857977 72 18265601251189218258
12423570 1 11849162003433645478
12524768 44 18269835315791120702
16945 1 18337951190818882404
18185500 45 18195239151199373646
20653085 51 13973963181929955715
21040471 1 18266171725994030844
23552423 10 18260545658207122614
241688 4 18335975467018164737
2748010 2 18338229483235285460
29004967 10 18040439854181255816
369184 2 18188199931724149672
5084963 1 18271794718531347624
528886 8 18410846672820259584

>  <PUBCHEM_SHAPE_MULTIPOLES>  (1) 
214.64
3.45
1.78
0.77
0.63
0.17
-0.08
0.12
-0.58
-0.17
0.08
-0.27
-0.07
-0.03

>  <PUBCHEM_SHAPE_SELFOVERLAP>  (1) 
464.264

>  <PUBCHEM_SHAPE_VOLUME>  (1) 
120

>  <PUBCHEM_COORDINATE_TYPE>  (1) 
2
5
10

$$$$
