20752
     RDKit          3D

 17 18  0  0  0  0  0  0  0  0999 V2000
    1.2992    0.2957    1.0697 N   0  0  0  0  0  0  0  0  0  0  0  0
   -1.0631    0.2224    0.6884 N   0  0  0  0  0  0  0  0  0  0  0  0
    1.7570   -0.0038   -0.2651 C   0  0  0  0  0  0  0  0  0  0  0  0
    3.2591   -0.0555   -0.3080 C   0  0  0  0  0  0  0  0  0  0  0  0
   -3.5054    0.1234    0.4705 C   0  0  0  0  0  0  0  0  0  0  0  0
   -2.3375    0.3754    1.3826 C   0  0  0  0  0  0  0  0  0  0  0  0
    3.9772    1.1018   -0.5807 C   0  0  0  0  0  0  0  0  0  0  0  0
    3.9106   -1.2597   -0.0741 C   0  0  0  0  0  0  0  0  0  0  0  0
   -4.0589    1.1791   -0.2428 C   0  0  0  0  0  0  0  0  0  0  0  0
   -4.0173   -1.1624    0.3510 C   0  0  0  0  0  0  0  0  0  0  0  0
   -0.0230    0.3804    1.4306 C   0  0  0  0  0  0  0  0  0  0  0  0
    5.3706    1.0541   -0.6204 C   0  0  0  0  0  0  0  0  0  0  0  0
    5.3040   -1.3073   -0.1137 C   0  0  0  0  0  0  0  0  0  0  0  0
    6.0340   -0.1504   -0.3868 C   0  0  0  0  0  0  0  0  0  0  0  0
   -5.1424    0.9453   -1.0893 C   0  0  0  0  0  0  0  0  0  0  0  0
   -5.1008   -1.3962   -0.4959 C   0  0  0  0  0  0  0  0  0  0  0  0
   -5.6634   -0.3422   -1.2160 C   0  0  0  0  0  0  0  0  0  0  0  0
  1  3  1  0
  1 11  1  0
  2  6  1  0
  2 11  2  0
  3  4  1  0
  4  7  2  0
  4  8  1  0
  5  6  1  0
  5  9  2  0
  5 10  1  0
  7 12  1  0
  8 13  2  0
  9 15  1  0
 10 16  2  0
 12 14  2  0
 13 14  1  0
 15 17  2  0
 16 17  1  0
M  END
>  <PUBCHEM_COMPOUND_CID>  (1) 
20752

>  <PUBCHEM_CONFORMER_RMSD>  (1) 
0.6

>  <PUBCHEM_CONFORMER_DIVERSEORDER>  (1) 
1
140
138
18
126
119
83
63
64
149
59
75
127
153
146
141
95
104
130
143
99
52
132
20
142
92
56
118
93
8
154
87
21
94
72
78
110
114
23
97
136
39
16
44
108
91
106
85
120
33
115
58
121
145
10
88
42
61
90
107
17
124
69
73
31
71
35
137
47
43
27
79
12
89
19
101
68
82
129
131
84
9
22
112
128
6
133
144
5
25
65
50
11
113
76
151
29
41
81
116
147
109
26
40
102
66
155
38
7
103
48
32
125
14
57
74
30
80
49
51
70
13
36
123
96
67
122
3
105
77
2
37
15
24
4
45
134
62
139
111
53
28
55
135
117
148
86
54
98
100
152
34
46
60
150

>  <PUBCHEM_MMFF94_PARTIAL_CHARGES>  (1) 
29
1 -0.82
10 -0.15
11 0.44
12 -0.15
13 -0.15
14 -0.15
15 -0.15
16 -0.15
17 -0.15
2 -0.7
22 0.4
23 0.15
24 0.15
25 0.15
26 0.15
27 0.06
28 0.15
29 0.15
3 0.51
30 0.15
31 0.15
32 0.15
33 0.15
4 -0.14
5 -0.14
6 0.39
7 -0.15
8 -0.15
9 -0.15

>  <PUBCHEM_EFFECTIVE_ROTOR_COUNT>  (1) 
5

>  <PUBCHEM_PHARMACOPHORE_FEATURES>  (1) 
4
1 1 donor
3 1 2 11 cation
6 4 7 8 12 13 14 rings
6 5 9 10 15 16 17 rings

>  <PUBCHEM_HEAVY_ATOM_COUNT>  (1) 
17

>  <PUBCHEM_ATOM_DEF_STEREO_COUNT>  (1) 
0

>  <PUBCHEM_ATOM_UDEF_STEREO_COUNT>  (1) 
0

>  <PUBCHEM_BOND_DEF_STEREO_COUNT>  (1) 
0

>  <PUBCHEM_BOND_UDEF_STEREO_COUNT>  (1) 
0

>  <PUBCHEM_ISOTOPIC_ATOM_COUNT>  (1) 
0

>  <PUBCHEM_COMPONENT_COUNT>  (1) 
1

>  <PUBCHEM_CACTVS_TAUTO_COUNT>  (1) 
1

>  <PUBCHEM_CONFORMER_ID>  (1) 
0000511000000001

>  <PUBCHEM_MMFF94_ENERGY>  (1) 
40.876

>  <PUBCHEM_FEATURE_SELFOVERLAP>  (1) 
20.297

>  <PUBCHEM_SHAPE_FINGERPRINT>  (1) 
100836 57 13551474752150972963
10354089 29 9079112259343372474
10447042 23 18131068217203607334
10595046 47 18409731759434699700
10803635 8 18272083894854055159
10912923 1 18060148608999593680
11089746 13 16950561108195945728
13668630 136 18060143128563529030
13862211 1 16774077362675817598
1420 363 15554729975420535662
14251718 22 18341613741154622230
14528608 73 17967812760348858522
14849402 71 11527360742038689946
15183329 4 18040994012130848466
15188451 53 12463274926663191765
15348495 7 10663809789111485878
15537594 2 16272209682592729415
15716309 27 14476962285131674413
17780758 139 12751238121415149967
17834072 33 18413671331203512022
17834072 8 16950285104733016780
17870717 6 18272085003256193679
18222031 100 16630806604009800872
193927 3 16343707659635147649
19489759 90 17822010912930481589
200 152 18343586230671061920
20281389 69 13118000015267366063
20645477 70 18336551525934791098
20871999 31 18413107256216813177
21054139 6 18131069338084998958
23198884 109 17967248689973384359
23402539 116 18113900455010175284
23536379 177 18334294249298837974
23559900 14 18129652119056976977
2767999 5 15213014964163369773
29717793 49 18272376334929550302
3004659 81 18411136909994828506
314173 85 15267346210490342745
351380 3 16487255478099032623
3545911 37 15864074260839629105
441001 317 17240483615562974497
5283173 99 18260263010435944917
5385378 56 14635140171382757617
542803 24 11025799803564536664
7495541 125 17704069612286727016
8272917 22 11169903988478025744

>  <PUBCHEM_SHAPE_MULTIPOLES>  (1) 
339.89
17.27
1.32
1.18
3.17
0.17
-0.23
1.46
6.52
0
0.21
-1.01
-0.14
-0.16

>  <PUBCHEM_SHAPE_SELFOVERLAP>  (1) 
712.603

>  <PUBCHEM_SHAPE_VOLUME>  (1) 
189.2

>  <PUBCHEM_COORDINATE_TYPE>  (1) 
2
5
10

$$$$
