20751
     RDKit          3D

  9  9  0  0  0  0  0  0  0  0999 V2000
    2.9299    0.4989   -0.0299 O   0  0  0  0  0  0  0  0  0  0  0  0
   -2.8450    0.5233   -0.0392 O   0  0  0  0  0  0  0  0  0  0  0  0
    1.5786    0.1702   -0.0035 C   0  0  0  0  0  0  0  0  0  0  0  0
    0.6799    1.2947    0.0297 C   0  0  0  0  0  0  0  0  0  0  0  0
    1.2574   -1.1298   -0.0090 C   0  0  0  0  0  0  0  0  0  0  0  0
   -0.6555    1.3346    0.0261 C   0  0  0  0  0  0  0  0  0  0  0  0
   -0.0422   -1.7423    0.0167 C   0  0  0  0  0  0  0  0  0  0  0  0
   -1.6468    0.2379   -0.0052 C   0  0  0  0  0  0  0  0  0  0  0  0
   -1.2563   -1.1876    0.0143 C   0  0  0  0  0  0  0  0  0  0  0  0
  1  3  1  0
  2  8  2  0
  3  4  1  0
  3  5  2  0
  4  6  2  0
  5  7  1  0
  6  8  1  0
  7  9  2  0
  8  9  1  0
M  END
>  <PUBCHEM_COMPOUND_CID>  (1) 
20751

>  <PUBCHEM_CONFORMER_RMSD>  (1) 
0.4

>  <PUBCHEM_CONFORMER_DIVERSEORDER>  (1) 
1

>  <PUBCHEM_MMFF94_PARTIAL_CHARGES>  (1) 
15
1 -0.53
10 0.15
11 0.15
12 0.15
13 0.15
14 0.15
15 0.45
2 -0.57
3 0.08
4 -0.15
5 -0.15
6 -0.14
7 -0.15
8 0.54
9 -0.14

>  <PUBCHEM_EFFECTIVE_ROTOR_COUNT>  (1) 
0

>  <PUBCHEM_PHARMACOPHORE_FEATURES>  (1) 
3
1 1 donor
1 2 acceptor
7 3 4 5 6 7 8 9 rings

>  <PUBCHEM_HEAVY_ATOM_COUNT>  (1) 
9

>  <PUBCHEM_ATOM_DEF_STEREO_COUNT>  (1) 
0

>  <PUBCHEM_ATOM_UDEF_STEREO_COUNT>  (1) 
0

>  <PUBCHEM_BOND_DEF_STEREO_COUNT>  (1) 
0

>  <PUBCHEM_BOND_UDEF_STEREO_COUNT>  (1) 
0

>  <PUBCHEM_ISOTOPIC_ATOM_COUNT>  (1) 
0

>  <PUBCHEM_COMPONENT_COUNT>  (1) 
1

>  <PUBCHEM_CACTVS_TAUTO_COUNT>  (1) 
2

>  <PUBCHEM_CONFORMER_ID>  (1) 
0000510F00000001

>  <PUBCHEM_MMFF94_ENERGY>  (1) 
28.9073

>  <PUBCHEM_FEATURE_SELFOVERLAP>  (1) 
15.223

>  <PUBCHEM_SHAPE_FINGERPRINT>  (1) 
16945 1 18411136935110218672
18185500 45 18410852165941090743
193761 8 17618222153439303145
21040471 1 18410574006647406122
23235685 24 18410851062102925093
23402655 69 18195790896564854181
23552423 10 18116433833159263646
241688 4 16825871760361884067
2748010 2 18122906700687224484
29004967 10 18260276221823483977
5084963 1 17985542260618751554
66348 1 18410856542465195193

>  <PUBCHEM_SHAPE_MULTIPOLES>  (1) 
173.48
3.11
1.74
0.6
0.14
0.35
0
-0.63
0.05
-0.05
-0.02
0
0.01
0.01

>  <PUBCHEM_SHAPE_SELFOVERLAP>  (1) 
355.986

>  <PUBCHEM_SHAPE_VOLUME>  (1) 
97.3

>  <PUBCHEM_COORDINATE_TYPE>  (1) 
2
5
10

$$$$
