20766
     RDKit          3D

  6  5  0  0  0  0  0  0  0  0999 V2000
    1.8120    0.5048    0.0779 O   0  0  0  0  0  0  0  0  0  0  0  0
   -2.9074    0.0382   -0.1441 O   0  0  0  0  0  0  0  0  0  0  0  0
    0.6084   -0.1319    0.2212 C   0  0  0  0  0  0  0  0  0  0  0  0
    2.8532   -0.4209   -0.1862 C   0  0  0  0  0  0  0  0  0  0  0  0
   -0.5735    0.4064   -0.0880 C   0  0  0  0  0  0  0  0  0  0  0  0
   -1.7927   -0.3965    0.1192 C   0  0  0  0  0  0  0  0  0  0  0  0
  1  3  1  0
  1  4  1  0
  2  6  2  0
  3  5  2  0
  5  6  1  0
M  END
>  <PUBCHEM_COMPOUND_CID>  (1) 
20766

>  <PUBCHEM_CONFORMER_RMSD>  (1) 
0.4

>  <PUBCHEM_CONFORMER_DIVERSEORDER>  (1) 
1
3
4
2

>  <PUBCHEM_MMFF94_PARTIAL_CHARGES>  (1) 
9
1 -0.36
11 0.15
12 0.06
2 -0.57
3 -0.07
4 0.28
5 -0.14
6 0.5
7 0.15

>  <PUBCHEM_EFFECTIVE_ROTOR_COUNT>  (1) 
2

>  <PUBCHEM_PHARMACOPHORE_FEATURES>  (1) 
2
1 1 acceptor
1 2 acceptor

>  <PUBCHEM_HEAVY_ATOM_COUNT>  (1) 
6

>  <PUBCHEM_ATOM_DEF_STEREO_COUNT>  (1) 
0

>  <PUBCHEM_ATOM_UDEF_STEREO_COUNT>  (1) 
0

>  <PUBCHEM_BOND_DEF_STEREO_COUNT>  (1) 
0

>  <PUBCHEM_BOND_UDEF_STEREO_COUNT>  (1) 
1

>  <PUBCHEM_ISOTOPIC_ATOM_COUNT>  (1) 
0

>  <PUBCHEM_COMPONENT_COUNT>  (1) 
1

>  <PUBCHEM_CACTVS_TAUTO_COUNT>  (1) 
1

>  <PUBCHEM_CONFORMER_ID>  (1) 
0000511E00000001

>  <PUBCHEM_MMFF94_ENERGY>  (1) 
11.3069

>  <PUBCHEM_FEATURE_SELFOVERLAP>  (1) 
10.149

>  <PUBCHEM_SHAPE_FINGERPRINT>  (1) 
14390081 3 11458425751699662694
16714656 1 18113336414198286295
29004967 10 17489873743204808938
5460574 1 9295291642188699136

>  <PUBCHEM_SHAPE_MULTIPOLES>  (1) 
111.74
4.35
0.71
0.61
0.21
0.01
0
0.48
0.34
0.08
0
0.03
0.01
0.06

>  <PUBCHEM_SHAPE_SELFOVERLAP>  (1) 
200.029

>  <PUBCHEM_SHAPE_VOLUME>  (1) 
72.5

>  <PUBCHEM_COORDINATE_TYPE>  (1) 
2
5
10

$$$$
