20760
     RDKit          3D

 20 22  0  0  0  0  0  0  0  0999 V2000
    0.4201   -2.1382   -0.2160 O   0  0  0  0  0  0  0  0  0  0  0  0
    1.0243    2.4613    0.2438 O   0  0  0  0  0  0  0  0  0  0  0  0
   -4.7280   -1.9145   -0.1586 O   0  0  0  0  0  0  0  0  0  0  0  0
   -5.7607    0.1042   -0.0003 O   0  0  0  0  0  0  0  0  0  0  0  0
    1.2304    0.0953    0.0089 N   0  0  0  0  0  0  0  0  0  0  0  0
   -1.0170   -0.3057   -0.0241 C   0  0  0  0  0  0  0  0  0  0  0  0
   -0.8379    1.0593    0.0812 C   0  0  0  0  0  0  0  0  0  0  0  0
    0.3000   -0.9342   -0.0781 C   0  0  0  0  0  0  0  0  0  0  0  0
    0.5969    1.3288    0.1102 C   0  0  0  0  0  0  0  0  0  0  0  0
    2.6517   -0.0902   -0.0038 C   0  0  0  0  0  0  0  0  0  0  0  0
   -2.2740   -0.8757   -0.0715 C   0  0  0  0  0  0  0  0  0  0  0  0
   -1.9056    1.9325    0.1499 C   0  0  0  0  0  0  0  0  0  0  0  0
   -3.3711   -0.0125   -0.0049 C   0  0  0  0  0  0  0  0  0  0  0  0
   -3.1885    1.3799    0.1051 C   0  0  0  0  0  0  0  0  0  0  0  0
    3.4840    0.9030   -0.5258 C   0  0  0  0  0  0  0  0  0  0  0  0
    3.2109   -1.2644    0.5062 C   0  0  0  0  0  0  0  0  0  0  0  0
    4.8672    0.7231   -0.5379 C   0  0  0  0  0  0  0  0  0  0  0  0
    4.5941   -1.4442    0.4941 C   0  0  0  0  0  0  0  0  0  0  0  0
   -4.7190   -0.5576   -0.0504 C   0  0  0  0  0  0  0  0  0  0  0  0
    5.4222   -0.4505   -0.0280 C   0  0  0  0  0  0  0  0  0  0  0  0
  1  8  2  0
  2  9  2  0
  3 19  1  0
  4 19  2  0
  5  8  1  0
  5  9  1  0
  5 10  1  0
  6  7  2  0
  6  8  1  0
  6 11  1  0
  7  9  1  0
  7 12  1  0
 10 15  2  0
 10 16  1  0
 11 13  2  0
 12 14  2  0
 13 14  1  0
 13 19  1  0
 15 17  1  0
 16 18  2  0
 17 20  2  0
 18 20  1  0
M  END
>  <PUBCHEM_COMPOUND_CID>  (1) 
20760

>  <PUBCHEM_CONFORMER_RMSD>  (1) 
0.6

>  <PUBCHEM_CONFORMER_DIVERSEORDER>  (1) 
1
2

>  <PUBCHEM_MMFF94_PARTIAL_CHARGES>  (1) 
29
1 -0.57
10 0.12
11 -0.15
12 -0.15
13 0.09
14 -0.15
15 -0.15
16 -0.15
17 -0.15
18 -0.15
19 0.63
2 -0.57
20 -0.15
21 0.15
22 0.15
23 0.15
24 0.15
25 0.15
26 0.15
27 0.15
28 0.15
29 0.5
3 -0.65
4 -0.57
5 -0.24
6 0.09
7 0.09
8 0.54
9 0.54

>  <PUBCHEM_EFFECTIVE_ROTOR_COUNT>  (1) 
2.2

>  <PUBCHEM_PHARMACOPHORE_FEATURES>  (1) 
8
1 1 acceptor
1 2 acceptor
1 3 acceptor
1 4 acceptor
3 3 4 19 anion
5 5 6 7 8 9 rings
6 10 15 16 17 18 20 rings
6 6 7 11 12 13 14 rings

>  <PUBCHEM_HEAVY_ATOM_COUNT>  (1) 
20

>  <PUBCHEM_ATOM_DEF_STEREO_COUNT>  (1) 
0

>  <PUBCHEM_ATOM_UDEF_STEREO_COUNT>  (1) 
0

>  <PUBCHEM_BOND_DEF_STEREO_COUNT>  (1) 
0

>  <PUBCHEM_BOND_UDEF_STEREO_COUNT>  (1) 
0

>  <PUBCHEM_ISOTOPIC_ATOM_COUNT>  (1) 
0

>  <PUBCHEM_COMPONENT_COUNT>  (1) 
1

>  <PUBCHEM_CACTVS_TAUTO_COUNT>  (1) 
1

>  <PUBCHEM_CONFORMER_ID>  (1) 
0000511800000001

>  <PUBCHEM_MMFF94_ENERGY>  (1) 
69.3772

>  <PUBCHEM_FEATURE_SELFOVERLAP>  (1) 
40.746

>  <PUBCHEM_SHAPE_FINGERPRINT>  (1) 
10062212 137 18411132506998871535
10906281 52 18338818740164107451
11045515 52 17967530173166178941
11806522 49 18409167727117702389
11963148 33 18341325678037086935
12107183 9 17542500540160252170
12236239 1 18186802457431212710
12403259 226 18410284817915460133
12403259 415 18342165661658992536
12839892 36 18269260284253516314
13140716 1 18198060472651766315
13167823 11 18408602539618441978
13288520 33 18412827975667586725
13533116 47 17313376787188549386
13690532 89 18410292514475002024
13862211 1 18412541020165218639
14787075 74 18334859424177388994
15196674 1 18410293575590536392
15927050 60 17551229996633370124
17492 89 18193554463532490098
17804303 29 18343863329181729337
17834072 33 18334295374817672366
17862501 102 18410854352063522771
18186145 218 13470398942726158100
18681886 176 18411418411220968618
200 152 18409728456462268361
20028762 73 17916862547081096391
20645477 70 18261110730217747058
21029758 11 18413388747877722081
21267235 1 18410300185867088246
221490 88 18191309488421162699
2297311 6 18131080298946656500
23402539 116 18412539925275404639
23463225 33 18336546010953644200
23522609 53 18123221045608658673
23557571 272 17917439678788967012
23559900 14 18337947999526618185
3004659 81 18259705571721610046
335352 9 18411698790775466181
34797466 226 17346324842836849100
34934 24 18268989959554549356
350125 39 18411420605343316473
4214541 1 18336827502641050484
4340502 62 16660362597497961362
4463277 17 18410856559940736297
465052 167 18341337781016562383
474 4 17386860568214603188
474229 33 18412263934566034679
5104073 3 18411700963121713120
537710 114 18410296917333653020
7495541 125 18131629015077655296
9709674 26 18336836294845612138

>  <PUBCHEM_SHAPE_MULTIPOLES>  (1) 
383.13
11.33
1.99
0.66
0.46
0.25
0
-2.92
0.4
0.29
-0.09
-0.24
0
-0.58

>  <PUBCHEM_SHAPE_SELFOVERLAP>  (1) 
862.007

>  <PUBCHEM_SHAPE_VOLUME>  (1) 
201.3

>  <PUBCHEM_COORDINATE_TYPE>  (1) 
2
5
10

$$$$
