20762
     RDKit          3D

 15 16  0  0  0  0  0  0  0  0999 V2000
   -4.7072   -0.3284   -0.0009 O   0  0  0  0  0  0  0  0  0  0  0  0
   -2.8021    0.9146   -0.0143 N   0  0  0  0  0  0  0  0  0  0  0  0
   -0.9048    2.3270   -0.0161 N   0  0  0  0  0  0  0  0  0  0  0  0
   -2.7209   -1.4553    0.0244 N   0  0  0  0  0  0  0  0  0  0  0  0
    4.9963   -0.1572    0.0045 N   0  0  0  0  0  0  0  0  0  0  0  0
    0.7959   -0.0869   -0.0028 C   0  0  0  0  0  0  0  0  0  0  0  0
   -0.6736   -0.0622   -0.0058 C   0  0  0  0  0  0  0  0  0  0  0  0
   -1.4271    1.0592   -0.0150 C   0  0  0  0  0  0  0  0  0  0  0  0
    1.4964   -0.1257   -1.2092 C   0  0  0  0  0  0  0  0  0  0  0  0
    1.4926   -0.0712    1.2061 C   0  0  0  0  0  0  0  0  0  0  0  0
   -1.4346   -1.3362    0.0217 C   0  0  0  0  0  0  0  0  0  0  0  0
    3.5865   -0.1333    0.0025 C   0  0  0  0  0  0  0  0  0  0  0  0
    2.8910   -0.1489   -1.2065 C   0  0  0  0  0  0  0  0  0  0  0  0
    2.8873   -0.0945    1.2088 C   0  0  0  0  0  0  0  0  0  0  0  0
   -3.4757   -0.3010    0.0025 C   0  0  0  0  0  0  0  0  0  0  0  0
  1 15  2  0
  2  8  1  0
  2 15  1  0
  3  8  1  0
  4 11  2  0
  4 15  1  0
  5 12  1  0
  6  7  1  0
  6  9  2  0
  6 10  1  0
  7  8  2  0
  7 11  1  0
  9 13  1  0
 10 14  2  0
 12 13  2  0
 12 14  1  0
M  END
>  <PUBCHEM_COMPOUND_CID>  (1) 
20762

>  <PUBCHEM_CONFORMER_RMSD>  (1) 
0.4

>  <PUBCHEM_CONFORMER_DIVERSEORDER>  (1) 
1
2
3

>  <PUBCHEM_MMFF94_PARTIAL_CHARGES>  (1) 
25
1 -0.57
10 -0.15
11 0.38
12 0.1
13 -0.15
14 -0.15
15 0.84
16 0.15
17 0.15
18 0.06
19 0.15
2 -0.54
20 0.15
21 0.37
22 0.4
23 0.4
24 0.4
25 0.4
3 -0.9
4 -0.66
5 -0.9
6 0.03
7 -0.01
8 0.21
9 -0.15

>  <PUBCHEM_EFFECTIVE_ROTOR_COUNT>  (1) 
1

>  <PUBCHEM_PHARMACOPHORE_FEATURES>  (1) 
10
1 1 acceptor
1 2 donor
1 3 cation
1 3 donor
1 4 acceptor
1 4 donor
1 5 cation
1 5 donor
6 2 4 7 8 11 15 rings
6 6 9 10 12 13 14 rings

>  <PUBCHEM_HEAVY_ATOM_COUNT>  (1) 
15

>  <PUBCHEM_ATOM_DEF_STEREO_COUNT>  (1) 
0

>  <PUBCHEM_ATOM_UDEF_STEREO_COUNT>  (1) 
0

>  <PUBCHEM_BOND_DEF_STEREO_COUNT>  (1) 
0

>  <PUBCHEM_BOND_UDEF_STEREO_COUNT>  (1) 
0

>  <PUBCHEM_ISOTOPIC_ATOM_COUNT>  (1) 
0

>  <PUBCHEM_COMPONENT_COUNT>  (1) 
1

>  <PUBCHEM_CACTVS_TAUTO_COUNT>  (1) 
9

>  <PUBCHEM_CONFORMER_ID>  (1) 
0000511A00000001

>  <PUBCHEM_MMFF94_ENERGY>  (1) 
57.7503

>  <PUBCHEM_FEATURE_SELFOVERLAP>  (1) 
50.875

>  <PUBCHEM_SHAPE_FINGERPRINT>  (1) 
11471102 20 16128656358065120778
11578080 2 17315882650970583212
12236239 1 17676205770976737610
13538477 17 17895195544830784011
13581323 91 18408599241067507042
14115302 16 17749114429943281035
14993402 34 17240484706336851218
15219456 202 17632580405277213582
15342168 16 15911616151360663464
15653759 3 18202842149931162210
16945 1 18410293592796714373
17844478 74 17632579331493438400
18175812 5 17703787067372412470
18186145 218 17022898007808910342
19049666 15 17630615505057799750
200 152 16587740940851534467
20201158 50 17561086899354044926
20279233 1 17775290473211607390
20344682 1 17918276449971229236
20510252 161 18270963436285921057
20645476 183 17603585257446246779
20645477 70 14562798925156855536
21119208 17 17458062672563250814
2297311 6 18342469123079167460
23048698 100 17167867469454326972
23402539 116 18341604915207838935
23402655 69 15502363526534870943
23557571 272 18272939289062329404
23559900 14 18271247106465472262
474 4 17096942467246786404
69090 78 17275098449176401111
7364860 26 18127410283140565793
77492 1 17675925386958584938
81228 2 18268728137831584505

>  <PUBCHEM_SHAPE_MULTIPOLES>  (1) 
282.9
7.72
1.28
1.01
0.47
0.5
0
-1.16
0.02
-1.09
-0.01
0.92
-0.04
0.05

>  <PUBCHEM_SHAPE_SELFOVERLAP>  (1) 
613.676

>  <PUBCHEM_SHAPE_VOLUME>  (1) 
153.8

>  <PUBCHEM_COORDINATE_TYPE>  (1) 
2
5
10

$$$$
