20769
     RDKit          3D

  9  8  0  0  0  0  0  0  0  0999 V2000
   -0.5576    0.3922    0.4501 O   0  0  0  0  0  0  0  0  0  0  0  0
    0.4546   -1.6745    0.5002 O   0  0  0  0  0  0  0  0  0  0  0  0
   -1.8457   -0.1575    0.1537 C   0  0  0  0  0  0  0  0  0  0  0  0
   -2.9075    0.9100    0.3702 C   0  0  0  0  0  0  0  0  0  0  0  0
   -1.8506   -0.6801   -1.2748 C   0  0  0  0  0  0  0  0  0  0  0  0
    0.4924   -0.4647    0.3260 C   0  0  0  0  0  0  0  0  0  0  0  0
    1.7142    0.2960   -0.0576 C   0  0  0  0  0  0  0  0  0  0  0  0
    1.6527    1.7807   -0.2466 C   0  0  0  0  0  0  0  0  0  0  0  0
    2.8476   -0.4022   -0.2212 C   0  0  0  0  0  0  0  0  0  0  0  0
  1  3  1  0
  1  6  1  0
  2  6  2  0
  3  4  1  0
  3  5  1  0
  6  7  1  0
  7  8  1  0
  7  9  2  0
M  END
>  <PUBCHEM_COMPOUND_CID>  (1) 
20769

>  <PUBCHEM_CONFORMER_RMSD>  (1) 
0.6

>  <PUBCHEM_CONFORMER_DIVERSEORDER>  (1) 
1
6
2
8
9
10
3
5
4
7

>  <PUBCHEM_MMFF94_PARTIAL_CHARGES>  (1) 
9
1 -0.43
2 -0.57
20 0.15
21 0.15
3 0.28
6 0.71
7 -0.12
8 0.14
9 -0.3

>  <PUBCHEM_EFFECTIVE_ROTOR_COUNT>  (1) 
3

>  <PUBCHEM_PHARMACOPHORE_FEATURES>  (1) 
2
1 2 acceptor
3 3 4 5 hydrophobe

>  <PUBCHEM_HEAVY_ATOM_COUNT>  (1) 
9

>  <PUBCHEM_ATOM_DEF_STEREO_COUNT>  (1) 
0

>  <PUBCHEM_ATOM_UDEF_STEREO_COUNT>  (1) 
0

>  <PUBCHEM_BOND_DEF_STEREO_COUNT>  (1) 
0

>  <PUBCHEM_BOND_UDEF_STEREO_COUNT>  (1) 
0

>  <PUBCHEM_ISOTOPIC_ATOM_COUNT>  (1) 
0

>  <PUBCHEM_COMPONENT_COUNT>  (1) 
1

>  <PUBCHEM_CACTVS_TAUTO_COUNT>  (1) 
1

>  <PUBCHEM_CONFORMER_ID>  (1) 
0000512100000001

>  <PUBCHEM_MMFF94_ENERGY>  (1) 
16.0856

>  <PUBCHEM_FEATURE_SELFOVERLAP>  (1) 
10.148

>  <PUBCHEM_SHAPE_FINGERPRINT>  (1) 
10857977 72 15430326849340887733
11062470 55 13973963177460856371
12897270 3 18334565876184609919
12932764 1 16877937260889209019
14325111 11 18408890667256647752
14390081 3 18409729573375551849
15310529 11 17773879877133951317
18185500 45 18342451496053265121
20653085 51 18270695241152644224
21040471 1 18191027996174820984
23235685 24 18113622278510273632
23552423 10 18342735238762399015
29004967 10 17968382247158017433
5084963 1 18341608252207568912
9939556 21 18202563994568617013

>  <PUBCHEM_SHAPE_MULTIPOLES>  (1) 
173.48
4.12
1.43
0.87
0.54
0.23
0.21
0.7
0.3
-0.36
-0.01
0.34
-0.14
-0.44

>  <PUBCHEM_SHAPE_SELFOVERLAP>  (1) 
325.551

>  <PUBCHEM_SHAPE_VOLUME>  (1) 
109.1

>  <PUBCHEM_COORDINATE_TYPE>  (1) 
2
5
10

$$$$
