20774
     RDKit          3D

 26 28  0  0  0  0  0  0  0  0999 V2000
   -2.0483   -1.1026    0.8557 Si  0  0  0  0  0  4  0  0  0  0  0  0
    2.0535   -1.1525   -0.7712 Si  0  0  0  0  0  4  0  0  0  0  0  0
   -0.8174   -1.6132   -2.0142 Si  0  0  0  0  0  4  0  0  0  0  0  0
    0.8246   -1.4541    2.1292 Si  0  0  0  0  0  4  0  0  0  0  0  0
   -1.6879   -1.8400   -0.5996 O   0  0  0  0  0  0  0  0  0  0  0  0
   -0.6520   -0.7830    1.7133 O   0  0  0  0  0  0  0  0  0  0  0  0
    0.6556   -0.9051   -1.6498 O   0  0  0  0  0  0  0  0  0  0  0  0
    1.6967   -1.7810    0.7352 O   0  0  0  0  0  0  0  0  0  0  0  0
   -2.8099    0.5686    0.4206 C   0  0  0  0  0  0  0  0  0  0  0  0
    2.8071    0.5502   -0.4625 C   0  0  0  0  0  0  0  0  0  0  0  0
   -3.2441   -2.1200    1.8640 C   0  0  0  0  0  0  0  0  0  0  0  0
    3.2550   -2.2360   -1.7008 C   0  0  0  0  0  0  0  0  0  0  0  0
   -1.7755   -0.5026   -3.1925 C   0  0  0  0  0  0  0  0  0  0  0  0
   -0.5578   -3.2652   -2.8733 C   0  0  0  0  0  0  0  0  0  0  0  0
    1.7764   -0.2538    3.2215 C   0  0  0  0  0  0  0  0  0  0  0  0
    0.5735   -3.0391    3.1090 C   0  0  0  0  0  0  0  0  0  0  0  0
   -4.0056    0.6628   -0.3325 C   0  0  0  0  0  0  0  0  0  0  0  0
    4.2045    0.7239   -0.3104 C   0  0  0  0  0  0  0  0  0  0  0  0
   -2.2106    1.7836    0.8329 C   0  0  0  0  0  0  0  0  0  0  0  0
    2.0001    1.7104   -0.3731 C   0  0  0  0  0  0  0  0  0  0  0  0
   -4.5683    1.8980   -0.6539 C   0  0  0  0  0  0  0  0  0  0  0  0
    4.7613    1.9823   -0.0824 C   0  0  0  0  0  0  0  0  0  0  0  0
   -2.7733    3.0189    0.5116 C   0  0  0  0  0  0  0  0  0  0  0  0
    2.5568    2.9689   -0.1452 C   0  0  0  0  0  0  0  0  0  0  0  0
   -3.9521    3.0760   -0.2317 C   0  0  0  0  0  0  0  0  0  0  0  0
    3.9374    3.1047    0.0002 C   0  0  0  0  0  0  0  0  0  0  0  0
  1  5  1  0
  1  6  1  0
  1  9  1  0
  1 11  1  0
  2  7  1  0
  2  8  1  0
  2 10  1  0
  2 12  1  0
  3  5  1  0
  3  7  1  0
  3 13  1  0
  3 14  1  0
  4  6  1  0
  4  8  1  0
  4 15  1  0
  4 16  1  0
  9 17  2  0
  9 19  1  0
 10 18  2  0
 10 20  1  0
 17 21  1  0
 18 22  1  0
 19 23  2  0
 20 24  2  0
 21 25  2  0
 22 26  2  0
 23 25  1  0
 24 26  1  0
M  END
>  <PUBCHEM_COMPOUND_CID>  (1) 
20774

>  <PUBCHEM_CONFORMER_RMSD>  (1) 
0.8

>  <PUBCHEM_CONFORMER_DIVERSEORDER>  (1) 
10
9
5
13
8
4
7
3
2
1
6
12
11

>  <PUBCHEM_MMFF94_PARTIAL_CHARGES>  (1) 
36
1 0.9
10 -0.22
11 -0.08
12 -0.08
13 -0.08
14 -0.08
15 -0.08
16 -0.08
17 -0.15
18 -0.15
19 -0.15
2 0.9
20 -0.15
21 -0.15
22 -0.15
23 -0.15
24 -0.15
25 -0.15
26 -0.15
3 0.76
4 0.76
45 0.15
46 0.15
47 0.15
48 0.15
49 0.15
5 -0.59
50 0.15
51 0.15
52 0.15
53 0.15
54 0.15
6 -0.59
7 -0.59
8 -0.59
9 -0.22

>  <PUBCHEM_EFFECTIVE_ROTOR_COUNT>  (1) 
3.6

>  <PUBCHEM_PHARMACOPHORE_FEATURES>  (1) 
2
6 10 18 20 22 24 26 rings
6 9 17 19 21 23 25 rings

>  <PUBCHEM_HEAVY_ATOM_COUNT>  (1) 
26

>  <PUBCHEM_ATOM_DEF_STEREO_COUNT>  (1) 
0

>  <PUBCHEM_ATOM_UDEF_STEREO_COUNT>  (1) 
0

>  <PUBCHEM_BOND_DEF_STEREO_COUNT>  (1) 
0

>  <PUBCHEM_BOND_UDEF_STEREO_COUNT>  (1) 
0

>  <PUBCHEM_ISOTOPIC_ATOM_COUNT>  (1) 
0

>  <PUBCHEM_COMPONENT_COUNT>  (1) 
1

>  <PUBCHEM_CACTVS_TAUTO_COUNT>  (1) 
1

>  <PUBCHEM_CONFORMER_ID>  (1) 
000051260000000A

>  <PUBCHEM_MMFF94_ENERGY>  (1) 
28.2517

>  <PUBCHEM_FEATURE_SELFOVERLAP>  (1) 
10.149

>  <PUBCHEM_SHAPE_FINGERPRINT>  (1) 
10165383 225 17345213266134047467
10382601 240 15503520139737153002
10871710 139 17767407155281977213
11370993 70 18202003209263311004
11552529 35 17100877722499385514
11582403 64 18409162203636818031
12107698 1 18409738373499842635
12156800 1 17414114153503549376
12166972 35 17201642138592562094
12403814 3 17914912060581373555
12633257 1 17676753298140514504
12788726 201 18196631090625203711
13383661 66 10512608476613794352
13583140 156 18267322978914065047
13994607 96 17902805389508516132
14142880 1 17459183144032403379
14178342 30 17240773916528732187
14251751 93 18341049743535532128
14468879 13 18341338863337407585
15082195 135 17769641015861714669
15219462 58 18041290898036312435
17921350 177 17686890627407457044
17974551 9 16953385573105223409
17980427 23 17905580252056347307
17980427 26 18114172004650209454
19930381 70 16037166347309566060
20600515 1 15223694189907898110
20691752 17 15140685773811421970
21033648 29 16154272672822094125
21475661 188 18333735714767443708
21860390 5 17977381633925340815
22907989 373 17846494859701762879
229495 10 17987539132728158614
23227448 37 18408608088789937521
23559900 14 17913766116367985845
238 59 17059766694636467023
35225 105 16953922452543750552
392239 28 17825121543131773571
469060 322 17408253919973955702
5081480 168 16841676394351104452
539174 4 17167854244954669225
550186 7 18046371861347332414
5895379 119 18125997174749791088
5951187 136 17833548995017198773
7288768 16 18042122227415655012

>  <PUBCHEM_SHAPE_MULTIPOLES>  (1) 
584.44
7.68
4.25
3.17
0.53
1.88
0.47
7.42
-0.82
-0.02
-0.19
-0.15
-3.55
0.07

>  <PUBCHEM_SHAPE_SELFOVERLAP>  (1) 
1146.877

>  <PUBCHEM_SHAPE_VOLUME>  (1) 
348.7

>  <PUBCHEM_COORDINATE_TYPE>  (1) 
2
5
10

$$$$
