20787
     RDKit          3D

 14 14  0  0  0  0  0  0  0  0999 V2000
    2.4904    0.1649   -0.3472 O   0  0  0  0  0  0  0  0  0  0  0  0
    4.2732   -1.9961   -0.2323 O   0  0  0  0  0  0  0  0  0  0  0  0
    1.2097    1.3961    1.1084 O   0  0  0  0  0  0  0  0  0  0  0  0
    0.4444    0.8146   -1.0030 N   0  0  0  0  0  0  0  0  0  0  0  0
   -0.8553    1.4419   -0.9340 C   0  0  0  0  0  0  0  0  0  0  0  0
   -1.9009    0.5072   -0.3865 C   0  0  0  0  0  0  0  0  0  0  0  0
   -2.6198   -0.2994   -1.2576 C   0  0  0  0  0  0  0  0  0  0  0  0
   -2.1315    0.4654    0.9814 C   0  0  0  0  0  0  0  0  0  0  0  0
   -3.5886   -1.1653   -0.7505 C   0  0  0  0  0  0  0  0  0  0  0  0
   -3.1004   -0.4006    1.4884 C   0  0  0  0  0  0  0  0  0  0  0  0
    3.5385    0.1140    0.6273 C   0  0  0  0  0  0  0  0  0  0  0  0
    1.3648    0.8455    0.0234 C   0  0  0  0  0  0  0  0  0  0  0  0
   -3.8289   -1.2159    0.6226 C   0  0  0  0  0  0  0  0  0  0  0  0
    4.7043   -0.6724    0.0595 C   0  0  0  0  0  0  0  0  0  0  0  0
  1 11  1  0
  1 12  1  0
  2 14  1  0
  3 12  2  0
  4  5  1  0
  4 12  1  0
  5  6  1  0
  6  7  2  0
  6  8  1  0
  7  9  1  0
  8 10  2  0
  9 13  2  0
 10 13  1  0
 11 14  1  0
M  END
>  <PUBCHEM_COMPOUND_CID>  (1) 
20787

>  <PUBCHEM_CONFORMER_RMSD>  (1) 
0.6

>  <PUBCHEM_CONFORMER_DIVERSEORDER>  (1) 
1
142
14
36
73
124
76
27
149
140
136
163
24
148
67
44
113
17
122
155
60
33
30
5
130
169
45
66
107
138
38
168
104
129
13
94
31
128
71
50
84
90
7
52
97
100
162
95
3
171
83
110
51
23
57
141
77
20
103
29
25
79
35
125
28
54
152
41
15
147
119
144
46
48
106
158
96
59
131
127
160
58
9
26
8
64
88
32
6
153
18
150
81
68
133
111
164
98
161
21
75
80
82
154
170
63
108
86
143
65
109
42
4
49
145
37
156
132
134
139
78
2
166
55
93
120
22
47
85
10
116
115
167
99
34
112
61
53
105
87
92
146
118
11
70
40
16
101
43
137
114
69
102
72
74
39
62
91
123
165
121
126
89
159
151
117
12
135
157
56
19

>  <PUBCHEM_MMFF94_PARTIAL_CHARGES>  (1) 
21
1 -0.43
10 -0.15
11 0.28
12 0.78
13 -0.15
14 0.28
17 0.37
18 0.15
19 0.15
2 -0.68
22 0.15
23 0.15
24 0.15
27 0.4
3 -0.57
4 -0.73
5 0.44
6 -0.14
7 -0.15
8 -0.15
9 -0.15

>  <PUBCHEM_EFFECTIVE_ROTOR_COUNT>  (1) 
6

>  <PUBCHEM_PHARMACOPHORE_FEATURES>  (1) 
5
1 2 acceptor
1 2 donor
1 3 acceptor
1 4 donor
6 6 7 8 9 10 13 rings

>  <PUBCHEM_HEAVY_ATOM_COUNT>  (1) 
14

>  <PUBCHEM_ATOM_DEF_STEREO_COUNT>  (1) 
0

>  <PUBCHEM_ATOM_UDEF_STEREO_COUNT>  (1) 
0

>  <PUBCHEM_BOND_DEF_STEREO_COUNT>  (1) 
0

>  <PUBCHEM_BOND_UDEF_STEREO_COUNT>  (1) 
0

>  <PUBCHEM_ISOTOPIC_ATOM_COUNT>  (1) 
0

>  <PUBCHEM_COMPONENT_COUNT>  (1) 
1

>  <PUBCHEM_CACTVS_TAUTO_COUNT>  (1) 
2

>  <PUBCHEM_CONFORMER_ID>  (1) 
0000513300000001

>  <PUBCHEM_MMFF94_ENERGY>  (1) 
22.4061

>  <PUBCHEM_FEATURE_SELFOVERLAP>  (1) 
25.371

>  <PUBCHEM_SHAPE_FINGERPRINT>  (1) 
10465860 71 16370724846130412573
11127187 94 16588022433382667283
11543360 7 13984669169678469418
12006461 19 18409168847988245594
12251169 10 16702026417352843085
13296908 3 17603861264713110333
13675066 3 14620799297245848444
14123255 352 11312049950853819234
14123260 362 8358257063878891086
14251710 61 18260270758640953026
15239191 94 18412825781029047174
15375462 189 18131069338047542786
15775835 57 12247687062664195741
17870717 6 17167863032574171183
18186145 218 15357987767341263732
19107657 162 18186517709272769098
19782 4 12175627239337748811
200 152 17988913492656335749
20112054 13 12751243605260179289
20281407 28 18409163299180630044
20281475 54 18412547630314715308
20325693 3 15719389525819790687
20432913 95 18342173367215034042
20645476 183 13623525788174786585
20645477 70 18115297998713549271
20671657 53 17022900172609753284
20871999 31 15430033266719345031
21650355 55 16845290600993615971
22485316 2 18411696578229037348
22926399 37 8574718983686978719
23382010 3 13551484686858922940
23402539 116 13479131290228874230
23402655 69 13262670418429827702
23403322 49 17821725031106465251
23500284 214 11600007669248201127
23559900 14 17023455456231355916
27216 239 12895350010571176007
3286 77 18130504235930507865
4028521 119 8718833080350647919
5352402 22 18202290169372136022
548570 60 10735873963403457274
90316 7 17346609573050507265

>  <PUBCHEM_SHAPE_MULTIPOLES>  (1) 
265.52
8.94
1.49
1.28
8.17
0.21
-0.16
5.49
-0.22
0.45
0.17
-0.96
-0.05
0.47

>  <PUBCHEM_SHAPE_SELFOVERLAP>  (1) 
536.256

>  <PUBCHEM_SHAPE_VOLUME>  (1) 
154.7

>  <PUBCHEM_COORDINATE_TYPE>  (1) 
2
5
10

$$$$
