20780
     RDKit          3D

 14 14  0  0  1  0  0  0  0  0999 V2000
   -3.1310   -2.7334    0.0979 Cl  0  0  0  0  0  0  0  0  0  0  0  0
   -2.3488    2.4730    0.0031 S   0  0  0  0  0  0  0  0  0  0  0  0
    1.4219   -0.8216   -0.2200 N   0  0  0  0  0  0  0  0  0  0  0  0
   -0.3775    0.6782   -0.1131 N   0  0  0  0  0  0  0  0  0  0  0  0
   -0.7502   -1.6918   -0.0685 N   0  0  0  0  0  0  0  0  0  0  0  0
   -2.6120   -0.1822    0.0424 N   0  0  0  0  0  0  0  0  0  0  0  0
    2.3986    0.2648   -0.2957 C   0  0  0  0  0  0  0  0  0  0  0  0
    3.8033   -0.2170    0.1000 C   0  0  0  0  0  0  0  0  0  0  0  0
    2.4065    0.8212   -1.7189 C   0  0  0  0  0  0  0  0  0  0  0  0
    3.8828   -0.7678    1.5181 C   0  0  0  0  0  0  0  0  0  0  0  0
    0.0664   -0.6067   -0.1318 C   0  0  0  0  0  0  0  0  0  0  0  0
   -1.7108    0.8109   -0.0255 C   0  0  0  0  0  0  0  0  0  0  0  0
   -2.0595   -1.4058    0.0161 C   0  0  0  0  0  0  0  0  0  0  0  0
   -0.9895    3.3782    0.7958 C   0  0  0  0  0  0  0  0  0  0  0  0
  1 13  1  0
  2 12  1  0
  2 14  1  0
  3  7  1  0
  3 11  1  0
  4 11  2  0
  4 12  1  0
  5 11  1  0
  5 13  2  0
  6 12  2  0
  6 13  1  0
  7  8  1  0
  7  9  1  0
  8 10  1  0
M  END
>  <PUBCHEM_COMPOUND_CID>  (1) 
20780

>  <PUBCHEM_CONFORMER_RMSD>  (1) 
0.6

>  <PUBCHEM_CONFORMER_DIVERSEORDER>  (1) 
1
177
172
128
167
68
171
175
133
150
54
88
56
151
163
122
106
43
119
15
152
33
103
112
166
116
170
129
66
162
94
157
101
73
114
154
95
83
173
127
6
165
82
100
169
80
22
41
161
135
97
159
174
121
76
59
26
42
164
168
141
131
113
147
134
98
38
85
140
109
47
132
45
81
74
156
57
89
115
176
84
99
111
107
53
92
77
65
93
118
137
178
91
142
155
79
62
87
125
17
148
37
78
63
72
40
160
55
143
75
25
36
138
48
139
51
8
3
145
96
130
31
30
108
120
104
10
35
144
126
11
60
64
146
18
5
110
69
16
58
158
105
21
153
124
9
86
20
149
52
44
28
136
67
102
23
50
32
49
117
4
7
46
27
61
71
2
123
19
90
14
24
70
34
29
12
39
13

>  <PUBCHEM_MMFF94_PARTIAL_CHARGES>  (1) 
12
1 -0.18
11 0.72
12 0.72
13 0.8
14 0.23
2 -0.33
21 0.4
3 -0.87
4 -0.62
5 -0.62
6 -0.62
7 0.37

>  <PUBCHEM_EFFECTIVE_ROTOR_COUNT>  (1) 
4

>  <PUBCHEM_PHARMACOPHORE_FEATURES>  (1) 
5
1 10 hydrophobe
1 14 hydrophobe
1 3 donor
4 3 4 5 11 cation
6 4 5 6 11 12 13 rings

>  <PUBCHEM_HEAVY_ATOM_COUNT>  (1) 
14

>  <PUBCHEM_ATOM_DEF_STEREO_COUNT>  (1) 
0

>  <PUBCHEM_ATOM_UDEF_STEREO_COUNT>  (1) 
1

>  <PUBCHEM_BOND_DEF_STEREO_COUNT>  (1) 
0

>  <PUBCHEM_BOND_UDEF_STEREO_COUNT>  (1) 
0

>  <PUBCHEM_ISOTOPIC_ATOM_COUNT>  (1) 
0

>  <PUBCHEM_COMPONENT_COUNT>  (1) 
1

>  <PUBCHEM_CACTVS_TAUTO_COUNT>  (1) 
4

>  <PUBCHEM_CONFORMER_ID>  (1) 
0000512C00000001

>  <PUBCHEM_MMFF94_ENERGY>  (1) 
24.631

>  <PUBCHEM_FEATURE_SELFOVERLAP>  (1) 
25.372

>  <PUBCHEM_SHAPE_FINGERPRINT>  (1) 
13380535 76 18196367022728261709
14178342 30 18263635187334867490
16945 1 18412273817480493919
1741750 31 18126847101353427369
20510252 161 18341897406770375984
20871998 184 18201722881269598319
21524375 3 17767681664022069821
21650355 55 18339633537993347251
2306618 200 18040981917671696389
23402539 116 18270666598601245061
23419403 2 17831825269594723405
23557571 272 18131075908978409596
23559900 14 18129102222105182382
23598291 2 18040162807769469406
23598294 1 18338529619660358818
2748010 2 18125714841074642965
305870 269 17761212115918363920
3071541 236 18336824174241680897
3091708 16 8988041918606161745
6992083 37 17969221136176154108
7364860 26 17406846553864316685
7615 1 18040720281407466668
77492 1 17894634751341023558
81228 2 18270978881183151865

>  <PUBCHEM_SHAPE_MULTIPOLES>  (1) 
273.91
6.14
3.17
1.06
5.19
1.63
-0.09
-2
1.05
-4.23
0.68
1.16
0.22
-0.74

>  <PUBCHEM_SHAPE_SELFOVERLAP>  (1) 
519.927

>  <PUBCHEM_SHAPE_VOLUME>  (1) 
170.7

>  <PUBCHEM_COORDINATE_TYPE>  (1) 
2
5
10

$$$$
