20784
     RDKit          3D

 22 24  0  0  1  0  0  0  0  0999 V2000
   -1.9248   -0.7346   -1.6105 O   0  0  0  0  0  0  0  0  0  0  0  0
    0.0592    1.0458   -2.1472 O   0  0  0  0  0  0  0  0  0  0  0  0
   -3.1395    1.5773    0.7136 N   0  0  0  0  0  0  0  0  0  0  0  0
   -1.4824   -0.6786   -0.2439 C   0  0  0  0  0  0  0  0  0  0  0  0
   -0.9162    0.7427    0.0033 C   0  0  0  0  0  0  0  0  0  0  0  0
   -2.7410   -0.8650    0.6369 C   0  0  0  0  0  0  0  0  0  0  0  0
   -1.9946    1.8247   -0.1732 C   0  0  0  0  0  0  0  0  0  0  0  0
   -3.7529    0.2714    0.4410 C   0  0  0  0  0  0  0  0  0  0  0  0
   -0.4432   -1.7675    0.0357 C   0  0  0  0  0  0  0  0  0  0  0  0
    0.2244    1.0428   -0.9295 C   0  0  0  0  0  0  0  0  0  0  0  0
   -4.1302    2.6454    0.5813 C   0  0  0  0  0  0  0  0  0  0  0  0
    0.0883   -1.9043    1.3152 C   0  0  0  0  0  0  0  0  0  0  0  0
   -0.0358   -2.6153   -0.9906 C   0  0  0  0  0  0  0  0  0  0  0  0
    1.5685    1.3397   -0.3586 C   0  0  0  0  0  0  0  0  0  0  0  0
    1.0350   -2.8966    1.5702 C   0  0  0  0  0  0  0  0  0  0  0  0
    0.9107   -3.6076   -0.7354 C   0  0  0  0  0  0  0  0  0  0  0  0
    1.6436    1.9361    0.8806 C   0  0  0  0  0  0  0  0  0  0  0  0
    2.6865    1.0063   -1.0906 C   0  0  0  0  0  0  0  0  0  0  0  0
    1.4462   -3.7482    0.5450 C   0  0  0  0  0  0  0  0  0  0  0  0
    2.9016    2.2138    1.4152 C   0  0  0  0  0  0  0  0  0  0  0  0
    3.9445    1.2840   -0.5557 C   0  0  0  0  0  0  0  0  0  0  0  0
    4.0520    1.8877    0.6972 C   0  0  0  0  0  0  0  0  0  0  0  0
  1  4  1  0
  2 10  2  0
  3  7  1  0
  3  8  1  0
  3 11  1  0
  4  5  1  0
  4  6  1  0
  4  9  1  0
  5  7  1  0
  5 10  1  0
  6  8  1  0
  9 12  2  0
  9 13  1  0
 10 14  1  0
 12 15  1  0
 13 16  2  0
 14 17  2  0
 14 18  1  0
 15 19  2  0
 16 19  1  0
 17 20  1  0
 18 21  2  0
 20 22  2  0
 21 22  1  0
M  END
>  <PUBCHEM_COMPOUND_CID>  (1) 
20784

>  <PUBCHEM_CONFORMER_RMSD>  (1) 
0.6

>  <PUBCHEM_CONFORMER_DIVERSEORDER>  (1) 
1
36
59
50
53
40
21
18
47
41
37
12
46
49
17
30
35
29
38
26
45
55
52
48
31
8
16
54
23
24
3
14
57
39
43
33
25
2
51
7
32
13
28
42
44
19
56
6
27
9
11
5
58
4
34
10
22
15
20

>  <PUBCHEM_MMFF94_PARTIAL_CHARGES>  (1) 
32
1 -0.68
10 0.42
11 0.27
12 -0.15
13 -0.15
14 0.09
15 -0.15
16 -0.15
17 -0.15
18 -0.15
19 -0.15
2 -0.57
20 -0.15
21 -0.15
22 -0.15
3 -0.81
30 0.4
34 0.15
35 0.15
36 0.15
37 0.15
38 0.15
39 0.15
4 0.42
40 0.15
41 0.15
42 0.15
43 0.15
5 0.06
7 0.27
8 0.27
9 -0.14

>  <PUBCHEM_EFFECTIVE_ROTOR_COUNT>  (1) 
4.2

>  <PUBCHEM_PHARMACOPHORE_FEATURES>  (1) 
7
1 1 acceptor
1 1 donor
1 2 acceptor
1 3 cation
6 14 17 18 20 21 22 rings
6 3 4 5 6 7 8 rings
6 9 12 13 15 16 19 rings

>  <PUBCHEM_HEAVY_ATOM_COUNT>  (1) 
22

>  <PUBCHEM_ATOM_DEF_STEREO_COUNT>  (1) 
0

>  <PUBCHEM_ATOM_UDEF_STEREO_COUNT>  (1) 
2

>  <PUBCHEM_BOND_DEF_STEREO_COUNT>  (1) 
0

>  <PUBCHEM_BOND_UDEF_STEREO_COUNT>  (1) 
0

>  <PUBCHEM_ISOTOPIC_ATOM_COUNT>  (1) 
0

>  <PUBCHEM_COMPONENT_COUNT>  (1) 
1

>  <PUBCHEM_CACTVS_TAUTO_COUNT>  (1) 
2

>  <PUBCHEM_CONFORMER_ID>  (1) 
0000513000000001

>  <PUBCHEM_MMFF94_ENERGY>  (1) 
67.3795

>  <PUBCHEM_FEATURE_SELFOVERLAP>  (1) 
35.527

>  <PUBCHEM_SHAPE_FINGERPRINT>  (1) 
10366900 7 17626943432896167840
10382601 240 18041848298379810232
11578080 2 17097213818768861039
12035759 4 18127948958408101743
12156800 1 15289350788553324698
12173636 292 18267583683381199356
12422481 6 17971454227302157240
12592029 89 18337119998603771187
12788726 201 17541952321733925162
12930653 34 18410022048164161521
13004483 165 17049909907996239958
13140716 1 18409164372917023520
13149001 5 17033006634315498261
13294875 104 18130498618229719136
133893 2 17971726927249328767
14081887 123 17547562043397739672
14178342 30 18261968413627239897
14955137 171 16972831432896446209
15309172 13 18187922940677783669
16945 1 18125720342453099596
19591789 44 18410859867002250722
20028762 73 17982183515322773423
20691752 17 17096381544359133523
20832881 197 18056216691136536406
20905425 154 18122075203624354655
21524375 3 18340212976389300303
21731228 192 18339088197305424425
22182313 1 17387975275304940229
22956985 138 17895191056527378091
23184049 29 17183904112775389810
23366157 5 18042416720358813231
23419403 2 17536301545074016781
23559900 14 18272382979466179156
23728640 28 18120374525851776210
3411729 13 18264214603907896097
352729 6 17900279781545758611
43471831 8 18408042931138956123
465052 167 16734397221075464139
469060 322 12037975213060648456
5265222 85 18264789803973001452
57527452 28 15515530375945887226
5845 1 11546344681536664930
58807428 26 18410298042166484113
5895379 119 16264904287047249937
59755656 215 18335990835128710967
69474 34 17831855746772027371
7364860 26 18196658397578248195
81228 2 17762330718596376360

>  <PUBCHEM_SHAPE_MULTIPOLES>  (1) 
436.03
5.93
4.47
1.47
0.41
4.37
-0.2
-6.33
1.24
-1.27
0.88
-0.42
0.16
-0.19

>  <PUBCHEM_SHAPE_SELFOVERLAP>  (1) 
941.572

>  <PUBCHEM_SHAPE_VOLUME>  (1) 
237.6

>  <PUBCHEM_COORDINATE_TYPE>  (1) 
2
5
10

$$$$
