20799
     RDKit          3D

  6  5  0  0  0  0  0  0  0  0999 V2000
    2.2583   -0.1876    0.5640 O   0  0  0  0  0  0  0  0  0  0  0  0
    0.0100    0.0402   -0.2079 C   0  0  0  0  0  0  0  0  0  0  0  0
    1.3698   -0.5401   -0.4885 C   0  0  0  0  0  0  0  0  0  0  0  0
   -0.0254    1.5424   -0.0858 C   0  0  0  0  0  0  0  0  0  0  0  0
   -1.1185   -0.6764   -0.0436 C   0  0  0  0  0  0  0  0  0  0  0  0
   -2.4943   -0.1786    0.2619 C   0  0  0  0  0  0  0  0  0  0  0  0
  1  3  1  0
  2  3  1  0
  2  4  1  0
  2  5  2  0
  5  6  1  0
M  END
>  <PUBCHEM_COMPOUND_CID>  (1) 
20799

>  <PUBCHEM_CONFORMER_RMSD>  (1) 
0.4

>  <PUBCHEM_CONFORMER_DIVERSEORDER>  (1) 
2
3
1

>  <PUBCHEM_MMFF94_PARTIAL_CHARGES>  (1) 
8
1 -0.68
12 0.15
16 0.4
2 -0.28
3 0.42
4 0.14
5 -0.29
6 0.14

>  <PUBCHEM_EFFECTIVE_ROTOR_COUNT>  (1) 
1

>  <PUBCHEM_PHARMACOPHORE_FEATURES>  (1) 
4
1 1 acceptor
1 1 donor
1 4 hydrophobe
1 6 hydrophobe

>  <PUBCHEM_HEAVY_ATOM_COUNT>  (1) 
6

>  <PUBCHEM_ATOM_DEF_STEREO_COUNT>  (1) 
0

>  <PUBCHEM_ATOM_UDEF_STEREO_COUNT>  (1) 
0

>  <PUBCHEM_BOND_DEF_STEREO_COUNT>  (1) 
0

>  <PUBCHEM_BOND_UDEF_STEREO_COUNT>  (1) 
1

>  <PUBCHEM_ISOTOPIC_ATOM_COUNT>  (1) 
0

>  <PUBCHEM_COMPONENT_COUNT>  (1) 
1

>  <PUBCHEM_CACTVS_TAUTO_COUNT>  (1) 
1

>  <PUBCHEM_CONFORMER_ID>  (1) 
0000513F00000002

>  <PUBCHEM_MMFF94_ENERGY>  (1) 
3.8836

>  <PUBCHEM_FEATURE_SELFOVERLAP>  (1) 
20.298

>  <PUBCHEM_SHAPE_FINGERPRINT>  (1) 
139733 1 9943807776648292927
16714656 1 18340494382472493526
20096714 4 18053112997128235901
23552449 11 18264485251187274065
29004967 10 18408890645792393291
5460574 1 8070031060204281687
5943 1 9143228312226003308

>  <PUBCHEM_SHAPE_MULTIPOLES>  (1) 
117.61
2.86
1.16
0.7
0.49
0.55
0
-0.64
-0.5
-0.02
0.06
-0.12
-0.03
0.03

>  <PUBCHEM_SHAPE_SELFOVERLAP>  (1) 
207.717

>  <PUBCHEM_SHAPE_VOLUME>  (1) 
78.1

>  <PUBCHEM_COORDINATE_TYPE>  (1) 
2
5
10

$$$$
