20804
     RDKit          3D

 47 51  0  0  1  0  0  0  0  0999 V2000
    3.3690   -4.0500   -0.0982 S   0  0  0  0  0  0  0  0  0  0  0  0
   -6.6511    0.3402   -2.2800 S   0  0  0  0  0  0  0  0  0  0  0  0
    2.1612   -3.5503   -1.0803 O   0  0  0  0  0  0  0  0  0  0  0  0
   -8.0633    0.9706   -1.7495 O   0  0  0  0  0  0  0  0  0  0  0  0
    3.6539   -5.4345   -0.4464 O   0  0  0  0  0  0  0  0  0  0  0  0
    3.0217   -3.6848    1.2663 O   0  0  0  0  0  0  0  0  0  0  0  0
   -5.6250    1.3476   -2.0537 O   0  0  0  0  0  0  0  0  0  0  0  0
   -6.8723   -0.2077   -3.6092 O   0  0  0  0  0  0  0  0  0  0  0  0
    5.6924    1.2966   -0.2883 N   0  0  0  0  0  0  0  0  0  0  0  0
   -3.0824   -1.8711    1.8224 N   0  0  0  0  0  0  0  0  0  0  0  0
    6.3513    0.2168    0.4192 C   0  0  0  0  0  0  0  0  0  0  0  0
   -4.5381   -1.6850    2.0532 C   0  0  0  0  0  0  0  0  0  0  0  0
    4.3200    1.5508   -0.0854 C   0  0  0  0  0  0  0  0  0  0  0  0
   -2.3196   -0.8841    1.5183 C   0  0  0  0  0  0  0  0  0  0  0  0
    0.1590    2.3219    0.5289 C   0  0  0  0  0  0  0  0  0  0  0  0
    1.6054    2.0533    0.3154 C   0  0  0  0  0  0  0  0  0  0  0  0
   -0.6392    1.2894    0.8470 C   0  0  0  0  0  0  0  0  0  0  0  0
    6.4587    2.1032   -1.2174 C   0  0  0  0  0  0  0  0  0  0  0  0
   -2.5497   -3.2510    1.9593 C   0  0  0  0  0  0  0  0  0  0  0  0
    6.0963   -1.0963   -0.2675 C   0  0  0  0  0  0  0  0  0  0  0  0
   -5.3291   -1.8934    0.7950 C   0  0  0  0  0  0  0  0  0  0  0  0
    3.4316    1.4785   -1.1584 C   0  0  0  0  0  0  0  0  0  0  0  0
    3.8512    1.8740    1.1879 C   0  0  0  0  0  0  0  0  0  0  0  0
   -2.8750    0.4887    1.3856 C   0  0  0  0  0  0  0  0  0  0  0  0
   -0.8651   -1.0941    1.2917 C   0  0  0  0  0  0  0  0  0  0  0  0
    2.0742    1.7298   -0.9579 C   0  0  0  0  0  0  0  0  0  0  0  0
    2.4940    2.1254    1.3883 C   0  0  0  0  0  0  0  0  0  0  0  0
   -2.0615    1.5046    1.0664 C   0  0  0  0  0  0  0  0  0  0  0  0
   -0.0865   -0.0507    0.9744 C   0  0  0  0  0  0  0  0  0  0  0  0
   -0.4499    3.6729    0.4098 C   0  0  0  0  0  0  0  0  0  0  0  0
    7.0392    3.3101   -0.5057 C   0  0  0  0  0  0  0  0  0  0  0  0
   -2.0978   -3.4725    3.3868 C   0  0  0  0  0  0  0  0  0  0  0  0
    4.9896   -1.8665    0.0897 C   0  0  0  0  0  0  0  0  0  0  0  0
   -5.5888   -0.8158   -0.0519 C   0  0  0  0  0  0  0  0  0  0  0  0
    6.9668   -1.5444   -1.2611 C   0  0  0  0  0  0  0  0  0  0  0  0
   -5.8053   -3.1643    0.4729 C   0  0  0  0  0  0  0  0  0  0  0  0
    4.7535   -3.0853   -0.5467 C   0  0  0  0  0  0  0  0  0  0  0  0
   -6.3248   -1.0091   -1.2209 C   0  0  0  0  0  0  0  0  0  0  0  0
   -0.9455    4.1085   -0.8193 C   0  0  0  0  0  0  0  0  0  0  0  0
   -0.5256    4.5050    1.5268 C   0  0  0  0  0  0  0  0  0  0  0  0
    6.7307   -2.7629   -1.8973 C   0  0  0  0  0  0  0  0  0  0  0  0
   -6.5412   -3.3575   -0.6960 C   0  0  0  0  0  0  0  0  0  0  0  0
    5.6241   -3.5334   -1.5401 C   0  0  0  0  0  0  0  0  0  0  0  0
   -6.8011   -2.2801   -1.5429 C   0  0  0  0  0  0  0  0  0  0  0  0
   -1.5165    5.3762   -0.9314 C   0  0  0  0  0  0  0  0  0  0  0  0
   -1.0969    5.7727    1.4145 C   0  0  0  0  0  0  0  0  0  0  0  0
   -1.5923    6.2081    0.1854 C   0  0  0  0  0  0  0  0  0  0  0  0
  1  3  1  0
  1  5  2  0
  1  6  2  0
  1 37  1  0
  2  4  1  0
  2  7  2  0
  2  8  2  0
  2 38  1  0
  9 11  1  0
  9 13  1  0
  9 18  1  0
 10 12  1  0
 10 14  2  3
 10 19  1  0
 11 20  1  0
 12 21  1  0
 13 22  2  0
 13 23  1  0
 14 24  1  0
 14 25  1  0
 15 16  1  0
 15 17  2  3
 15 30  1  0
 16 26  2  0
 16 27  1  0
 17 28  1  0
 17 29  1  0
 18 31  1  0
 19 32  1  0
 20 33  2  0
 20 35  1  0
 21 34  2  0
 21 36  1  0
 22 26  1  0
 23 27  2  0
 24 28  2  0
 25 29  2  0
 30 39  2  0
 30 40  1  0
 33 37  1  0
 34 38  1  0
 35 41  2  0
 36 42  2  0
 37 43  2  0
 38 44  2  0
 39 45  1  0
 40 46  2  0
 41 43  1  0
 42 44  1  0
 45 47  2  0
 46 47  1  0
M  CHG  1  10   1
M  END
>  <PUBCHEM_COMPOUND_CID>  (1) 
20804

>  <PUBCHEM_CONFORMER_RMSD>  (1) 
1.6

>  <PUBCHEM_CONFORMER_DIVERSEORDER>  (1) 
1
26
66
10
47
76
34
58
55
54
22
23
8
28
48
67
62
84
51
45
9
41
19
59
75
14
65
82
60
53
30
16
72
40
52
63
68
77
85
81
69
2
36
15
71
46
74
25
79
13
50
38
33
35
80
39
20
83
86
64
12
27
73
21
37
44
56
29
7
43
57
24
18
3
32
6
42
61
5
78
49
11
4
70
31
17

>  <PUBCHEM_MMFF94_PARTIAL_CHARGES>  (1) 
67
1 1.49
10 -0.09
11 0.51
12 0.49
13 0.1
14 0.37
15 -0.06
16 0.03
18 0.37
19 0.35
2 1.49
20 -0.14
21 -0.14
22 -0.15
23 -0.15
24 -0.14
25 -0.14
26 -0.15
27 -0.15
28 -0.15
29 -0.15
3 -0.68
30 0.03
33 -0.15
34 -0.15
35 -0.15
36 -0.15
37 -0.01
38 -0.01
39 -0.15
4 -0.68
40 -0.15
41 -0.15
42 -0.15
43 -0.15
44 -0.15
45 -0.15
46 -0.15
47 -0.15
5 -0.65
56 0.15
57 0.15
58 0.15
59 0.15
6 -0.65
60 0.15
61 0.15
62 0.15
63 0.15
7 -0.65
70 0.15
71 0.15
72 0.15
73 0.15
74 0.15
75 0.15
76 0.15
77 0.15
78 0.15
79 0.15
8 -0.65
80 0.15
81 0.15
82 0.15
83 0.5
84 0.5
9 -0.84

>  <PUBCHEM_EFFECTIVE_ROTOR_COUNT>  (1) 
11

>  <PUBCHEM_PHARMACOPHORE_FEATURES>  (1) 
14
1 3 acceptor
1 4 acceptor
1 5 acceptor
1 6 acceptor
1 7 acceptor
1 8 acceptor
1 9 cation
4 1 3 5 6 anion
4 2 4 7 8 anion
6 13 16 22 23 26 27 rings
6 14 17 24 25 28 29 rings
6 20 33 35 37 41 43 rings
6 21 34 36 38 42 44 rings
6 30 39 40 45 46 47 rings

>  <PUBCHEM_HEAVY_ATOM_COUNT>  (1) 
47

>  <PUBCHEM_ATOM_DEF_STEREO_COUNT>  (1) 
0

>  <PUBCHEM_ATOM_UDEF_STEREO_COUNT>  (1) 
0

>  <PUBCHEM_BOND_DEF_STEREO_COUNT>  (1) 
0

>  <PUBCHEM_BOND_UDEF_STEREO_COUNT>  (1) 
0

>  <PUBCHEM_ISOTOPIC_ATOM_COUNT>  (1) 
0

>  <PUBCHEM_COMPONENT_COUNT>  (1) 
1

>  <PUBCHEM_CACTVS_TAUTO_COUNT>  (1) 
1

>  <PUBCHEM_CONFORMER_ID>  (1) 
0000514400000001

>  <PUBCHEM_MMFF94_ENERGY>  (1) 
158.4716

>  <PUBCHEM_FEATURE_SELFOVERLAP>  (1) 
71.163

>  <PUBCHEM_SHAPE_FINGERPRINT>  (1) 
10771551 21 18044094557818241146
11227688 84 18342453738274555437
13782708 43 17918279748743768640
14068700 686 18410865373942050512
15629462 23 18343300328375015701
16067689 391 18341610383244551951
19315092 285 17560808748755920698
23559900 14 17903642126869324713
24771750 20 17323534350030539925
4403749 210 10231758877748798529
508180 173 18115017632688338089

>  <PUBCHEM_SHAPE_MULTIPOLES>  (1) 
929.76
20.54
8.51
2.39
3.88
6.57
0.24
-15.4
14.73
-2.5
-1.03
4.19
-1.14
2.75

>  <PUBCHEM_SHAPE_SELFOVERLAP>  (1) 
1989.959

>  <PUBCHEM_SHAPE_VOLUME>  (1) 
515.5

>  <PUBCHEM_COORDINATE_TYPE>  (1) 
2
5
10

$$$$
