2080
     RDKit          3D

 17 17  0  0  1  0  0  0  0  0999 V2000
   -2.6511    2.4308   -0.5612 O   0  0  0  0  0  0  0  0  0  0  0  0
   -1.3456   -0.9797    1.6151 O   0  0  0  0  0  0  0  0  0  0  0  0
   -1.0078    3.6639    0.3818 O   0  0  0  0  0  0  0  0  0  0  0  0
   -1.3533    0.1643   -0.4033 N   0  0  0  0  0  0  0  0  0  0  0  0
   -3.3618   -2.6114    0.6779 N   0  0  0  0  0  0  0  0  0  0  0  0
   -0.5876    1.3066    0.0387 C   0  0  0  0  0  0  0  0  0  0  0  0
    0.6885    1.4738   -0.7965 C   0  0  0  0  0  0  0  0  0  0  0  0
    1.7846    0.5163   -0.3954 C   0  0  0  0  0  0  0  0  0  0  0  0
   -2.4727   -1.9735   -0.2896 C   0  0  0  0  0  0  0  0  0  0  0  0
   -1.6723   -0.8972    0.4329 C   0  0  0  0  0  0  0  0  0  0  0  0
   -1.4182    2.5803   -0.0207 C   0  0  0  0  0  0  0  0  0  0  0  0
    2.6924    0.8940    0.5813 C   0  0  0  0  0  0  0  0  0  0  0  0
    1.8629   -0.7231   -1.0107 C   0  0  0  0  0  0  0  0  0  0  0  0
   -1.5354   -3.0053   -0.9047 C   0  0  0  0  0  0  0  0  0  0  0  0
    3.7051    0.0094    0.9522 C   0  0  0  0  0  0  0  0  0  0  0  0
    2.8756   -1.6077   -0.6395 C   0  0  0  0  0  0  0  0  0  0  0  0
    3.7967   -1.2414    0.3419 C   0  0  0  0  0  0  0  0  0  0  0  0
  1 11  1  0
  2 10  2  0
  3 11  2  0
  4  6  1  0
  4 10  1  0
  5  9  1  0
  6  7  1  0
  6 11  1  0
  7  8  1  0
  8 12  2  0
  8 13  1  0
  9 10  1  0
  9 14  1  0
 12 15  1  0
 13 16  2  0
 15 17  2  0
 16 17  1  0
M  END
>  <PUBCHEM_COMPOUND_CID>  (1) 
2080

>  <PUBCHEM_CONFORMER_RMSD>  (1) 
0.8

>  <PUBCHEM_CONFORMER_DIVERSEORDER>  (1) 
1
25
32
66
62
68
30
37
33
52
31
63
2
19
58
39
18
67
70
12
59
21
50
7
24
40
51
29
26
20
53
10
9
56
64
69
4
34
45
36
3
49
17
54
38
11
35
27
55
42
28
44
65
61
43
48
6
5
14
60
8
47
15
46
16
13
41
22
23
57

>  <PUBCHEM_MMFF94_PARTIAL_CHARGES>  (1) 
25
1 -0.65
10 0.57
11 0.66
12 -0.15
13 -0.15
15 -0.15
16 -0.15
17 -0.15
2 -0.57
21 0.37
23 0.15
24 0.15
28 0.15
29 0.15
3 -0.57
30 0.36
31 0.36
32 0.15
33 0.5
4 -0.73
5 -0.99
6 0.36
7 0.14
8 -0.14
9 0.33

>  <PUBCHEM_EFFECTIVE_ROTOR_COUNT>  (1) 
6

>  <PUBCHEM_PHARMACOPHORE_FEATURES>  (1) 
8
1 1 acceptor
1 2 acceptor
1 3 acceptor
1 4 donor
1 5 cation
1 5 donor
3 1 3 11 anion
6 8 12 13 15 16 17 rings

>  <PUBCHEM_HEAVY_ATOM_COUNT>  (1) 
17

>  <PUBCHEM_ATOM_DEF_STEREO_COUNT>  (1) 
0

>  <PUBCHEM_ATOM_UDEF_STEREO_COUNT>  (1) 
2

>  <PUBCHEM_BOND_DEF_STEREO_COUNT>  (1) 
0

>  <PUBCHEM_BOND_UDEF_STEREO_COUNT>  (1) 
0

>  <PUBCHEM_ISOTOPIC_ATOM_COUNT>  (1) 
0

>  <PUBCHEM_COMPONENT_COUNT>  (1) 
1

>  <PUBCHEM_CACTVS_TAUTO_COUNT>  (1) 
2

>  <PUBCHEM_CONFORMER_ID>  (1) 
0000082000000001

>  <PUBCHEM_MMFF94_ENERGY>  (1) 
31.5124

>  <PUBCHEM_FEATURE_SELFOVERLAP>  (1) 
40.657

>  <PUBCHEM_SHAPE_FINGERPRINT>  (1) 
11322862 65 18192714449274477007
116883 192 18410575102096162447
12500047 106 18194398880061837924
12553582 1 18195532725062384742
13004483 165 18268130093473657454
13083527 12 18048581905526148864
14178342 30 18263352617241346362
15279308 132 17908142084121528876
15885798 251 18335429018893642611
20524608 308 18267302036716137824
20645477 70 17400065870046488599
20711985 365 18409168805138682581
21501502 16 18334017177349654868
21524375 3 17756992207544454377
2255824 54 17329718029231203631
23184049 29 18409730677171318020
23388829 49 18122907800468027180
23419403 2 17344603028891254377
23557571 272 18411415124785120786
23559900 14 18339631279389409440
23728640 28 18193268603061406346
257057 1 18194676188455943895
2748010 2 17906753413525046959
3091708 16 9133280794591233297
43471831 8 17544477453477519317
549884 4 11819815462753129454
5845 1 10014419538781693149
6338986 31 18266738176224492039
69090 78 18268984285291068533
7364860 26 17547011187971444529
81228 2 18334299764216506073
8809292 202 18125721180493669268
9709674 26 18271238314387647622

>  <PUBCHEM_SHAPE_MULTIPOLES>  (1) 
322.28
5.76
3.76
1.06
3.13
1.49
0.13
-3.07
1.06
-3.89
-0.31
0.08
-0.29
0.45

>  <PUBCHEM_SHAPE_SELFOVERLAP>  (1) 
656.678

>  <PUBCHEM_SHAPE_VOLUME>  (1) 
186.2

>  <PUBCHEM_COORDINATE_TYPE>  (1) 
2
5
10

$$$$
