20813
     RDKit          3D

 13 14  0  0  0  0  0  0  0  0999 V2000
    2.0918    1.0496   -0.0003 O   0  0  0  0  0  0  0  0  0  0  0  0
   -0.6501   -1.2398    0.0003 N   0  0  0  0  0  0  0  0  0  0  0  0
   -0.5269    1.1567    0.0004 N   0  0  0  0  0  0  0  0  0  0  0  0
   -2.6638    0.0651    0.0003 N   0  0  0  0  0  0  0  0  0  0  0  0
   -2.7527   -2.2781   -0.0010 N   0  0  0  0  0  0  0  0  0  0  0  0
   -2.5115    2.4052   -0.0005 N   0  0  0  0  0  0  0  0  0  0  0  0
    1.4468   -0.1464    0.0003 C   0  0  0  0  0  0  0  0  0  0  0  0
    0.0134   -0.0725    0.0003 C   0  0  0  0  0  0  0  0  0  0  0  0
    2.3511   -1.1830    0.0004 C   0  0  0  0  0  0  0  0  0  0  0  0
    3.6340   -0.5853   -0.0001 C   0  0  0  0  0  0  0  0  0  0  0  0
   -1.9849   -1.0933    0.0001 C   0  0  0  0  0  0  0  0  0  0  0  0
   -1.8696    1.1479    0.0003 C   0  0  0  0  0  0  0  0  0  0  0  0
    3.4224    0.7738   -0.0006 C   0  0  0  0  0  0  0  0  0  0  0  0
  1  7  1  0
  1 13  1  0
  2  8  2  0
  2 11  1  0
  3  8  1  0
  3 12  2  0
  4 11  2  0
  4 12  1  0
  5 11  1  0
  6 12  1  0
  7  8  1  0
  7  9  2  0
  9 10  1  0
 10 13  2  0
M  END
>  <PUBCHEM_COMPOUND_CID>  (1) 
20813

>  <PUBCHEM_CONFORMER_RMSD>  (1) 
0.4

>  <PUBCHEM_CONFORMER_DIVERSEORDER>  (1) 
1
2

>  <PUBCHEM_MMFF94_PARTIAL_CHARGES>  (1) 
20
1 -0.28
10 -0.15
11 0.72
12 0.72
13 -0.01
14 0.15
15 0.15
16 0.15
17 0.4
18 0.4
19 0.4
2 -0.62
20 0.4
3 -0.62
4 -0.62
5 -0.9
6 -0.9
7 0.09
8 0.67
9 -0.15

>  <PUBCHEM_EFFECTIVE_ROTOR_COUNT>  (1) 
1

>  <PUBCHEM_PHARMACOPHORE_FEATURES>  (1) 
7
1 1 acceptor
1 5 donor
1 6 donor
4 2 4 5 11 cation
4 3 4 6 12 cation
5 1 7 9 10 13 rings
6 2 3 4 8 11 12 rings

>  <PUBCHEM_HEAVY_ATOM_COUNT>  (1) 
13

>  <PUBCHEM_ATOM_DEF_STEREO_COUNT>  (1) 
0

>  <PUBCHEM_ATOM_UDEF_STEREO_COUNT>  (1) 
0

>  <PUBCHEM_BOND_DEF_STEREO_COUNT>  (1) 
0

>  <PUBCHEM_BOND_UDEF_STEREO_COUNT>  (1) 
0

>  <PUBCHEM_ISOTOPIC_ATOM_COUNT>  (1) 
0

>  <PUBCHEM_COMPONENT_COUNT>  (1) 
1

>  <PUBCHEM_CACTVS_TAUTO_COUNT>  (1) 
5

>  <PUBCHEM_CONFORMER_ID>  (1) 
0000514D00000001

>  <PUBCHEM_MMFF94_ENERGY>  (1) 
27.0461

>  <PUBCHEM_FEATURE_SELFOVERLAP>  (1) 
35.564

>  <PUBCHEM_SHAPE_FINGERPRINT>  (1) 
10608611 8 18413385436790259128
12932764 1 18409176493325269210
13380535 21 18339935805022671702
13380535 76 18197775510034809375
14144814 61 18409448059812402018
14325111 11 18410856529902241504
14965852 173 18410292488995407058
15442244 35 18265049120606750522
15775835 57 18188495644691714816
16945 1 18410855460149293287
19973954 147 18410857680874433540
20510252 161 18343304781506249329
20871998 184 18201441414940786015
21501502 16 18408323281002819270
21524375 3 18046063753352616345
23402539 116 18342446029219352141
23552423 10 18260267473085826142
23559900 14 18199746943770125994
25610 137 18192153917255754694
2748010 2 18413108346805975942
3248919 1 18339349799790170630
3312278 4 18341897372584704304
369184 2 18411700980280255027
57096353 35 18263365965778072086
6333449 129 18411697660455268493
69090 78 18340764845590822589
93112 12 18410856525612399732

>  <PUBCHEM_SHAPE_MULTIPOLES>  (1) 
236.76
5.73
1.98
0.57
2.68
0.09
0
-0.09
0
-1.87
0
0.05
-0.01
0

>  <PUBCHEM_SHAPE_SELFOVERLAP>  (1) 
515.724

>  <PUBCHEM_SHAPE_VOLUME>  (1) 
126

>  <PUBCHEM_COORDINATE_TYPE>  (1) 
2
5
10

$$$$
