20815
     RDKit          3D

 23 25  0  0  0  0  0  0  0  0999 V2000
    4.0456   -0.6931   -0.2221 N   0  0  0  0  0  0  0  0  0  0  0  0
   -0.7974   -0.2835    0.3770 C   0  0  0  0  0  0  0  0  0  0  0  0
   -3.0977    0.5788   -1.5467 C   0  0  0  0  0  0  0  0  0  0  0  0
   -1.7388    1.1588   -1.9413 C   0  0  0  0  0  0  0  0  0  0  0  0
   -2.1123   -0.9748    0.3095 C   0  0  0  0  0  0  0  0  0  0  0  0
   -0.6360    1.1849    0.3290 C   0  0  0  0  0  0  0  0  0  0  0  0
   -3.1485   -0.5785   -0.5648 C   0  0  0  0  0  0  0  0  0  0  0  0
   -1.0881    1.8928   -0.7969 C   0  0  0  0  0  0  0  0  0  0  0  0
    1.7053   -0.4182    0.4524 C   0  0  0  0  0  0  0  0  0  0  0  0
    2.7193   -1.2974   -0.2785 C   0  0  0  0  0  0  0  0  0  0  0  0
    0.3351   -1.0134    0.3867 C   0  0  0  0  0  0  0  0  0  0  0  0
   -2.3498   -2.0441    1.2016 C   0  0  0  0  0  0  0  0  0  0  0  0
   -0.0442    1.8792    1.3953 C   0  0  0  0  0  0  0  0  0  0  0  0
    5.0228   -1.5300   -0.9204 C   0  0  0  0  0  0  0  0  0  0  0  0
    4.4573   -0.4829    1.1668 C   0  0  0  0  0  0  0  0  0  0  0  0
   -4.3760   -1.2769   -0.5183 C   0  0  0  0  0  0  0  0  0  0  0  0
   -0.9339    3.2858   -0.8418 C   0  0  0  0  0  0  0  0  0  0  0  0
   -3.5674   -2.7235    1.2207 C   0  0  0  0  0  0  0  0  0  0  0  0
    0.1030    3.2648    1.3384 C   0  0  0  0  0  0  0  0  0  0  0  0
   -4.5822   -2.3406    0.3577 C   0  0  0  0  0  0  0  0  0  0  0  0
   -0.3403    3.9669    0.2208 C   0  0  0  0  0  0  0  0  0  0  0  0
    4.6146   -1.7610   -2.3655 C   0  0  0  0  0  0  0  0  0  0  0  0
    5.8095    0.2058    1.2404 C   0  0  0  0  0  0  0  0  0  0  0  0
  1 10  1  0
  1 14  1  0
  1 15  1  0
  2  5  1  0
  2  6  1  0
  2 11  2  3
  3  4  1  0
  3  7  1  0
  4  8  1  0
  5  7  2  0
  5 12  1  0
  6  8  2  0
  6 13  1  0
  7 16  1  0
  8 17  1  0
  9 10  1  0
  9 11  1  0
 12 18  2  0
 13 19  2  0
 14 22  1  0
 15 23  1  0
 16 20  2  0
 17 21  2  0
 18 20  1  0
 19 21  1  0
M  END
>  <PUBCHEM_COMPOUND_CID>  (1) 
20815

>  <PUBCHEM_CONFORMER_RMSD>  (1) 
0.8

>  <PUBCHEM_CONFORMER_DIVERSEORDER>  (1) 
1
25
22
6
11
12
21
17
5
23
19
14
16
3
18
24
10
13
20
15
8
2
7
9
4

>  <PUBCHEM_MMFF94_PARTIAL_CHARGES>  (1) 
30
1 -0.81
10 0.27
11 -0.29
12 -0.15
13 -0.15
14 0.27
15 0.27
16 -0.15
17 -0.15
18 -0.15
19 -0.15
2 -0.06
20 -0.15
21 -0.15
3 0.14
32 0.15
37 0.15
38 0.15
39 0.15
4 0.14
40 0.15
41 0.15
42 0.15
43 0.15
44 0.15
5 0.03
6 0.03
7 -0.14
8 -0.14
9 0.14

>  <PUBCHEM_EFFECTIVE_ROTOR_COUNT>  (1) 
5.4

>  <PUBCHEM_PHARMACOPHORE_FEATURES>  (1) 
4
1 1 cation
6 5 7 12 16 18 20 rings
6 6 8 13 17 19 21 rings
7 2 3 4 5 6 7 8 rings

>  <PUBCHEM_HEAVY_ATOM_COUNT>  (1) 
23

>  <PUBCHEM_ATOM_DEF_STEREO_COUNT>  (1) 
0

>  <PUBCHEM_ATOM_UDEF_STEREO_COUNT>  (1) 
0

>  <PUBCHEM_BOND_DEF_STEREO_COUNT>  (1) 
0

>  <PUBCHEM_BOND_UDEF_STEREO_COUNT>  (1) 
0

>  <PUBCHEM_ISOTOPIC_ATOM_COUNT>  (1) 
0

>  <PUBCHEM_COMPONENT_COUNT>  (1) 
1

>  <PUBCHEM_CACTVS_TAUTO_COUNT>  (1) 
1

>  <PUBCHEM_CONFORMER_ID>  (1) 
0000514F00000001

>  <PUBCHEM_MMFF94_ENERGY>  (1) 
72.0963

>  <PUBCHEM_FEATURE_SELFOVERLAP>  (1) 
20.311

>  <PUBCHEM_SHAPE_FINGERPRINT>  (1) 
10670039 82 18339375115282695908
10764073 3 16266904392938768275
12173636 292 17903353702081556124
12293681 160 17906986531813768021
12597179 24 10519719898873031469
12623949 98 17760380185402108643
12788726 201 18192144902425420763
13540713 4 17680697431608258331
14790565 3 17833542397852635469
14840074 17 17560518533932264140
17357779 13 18271512152611961800
17980427 23 17274837852404767433
1813 80 18058745696223219711
20600515 1 18338535121761722435
21304303 282 17611994141622809076
22182313 1 18192688241447781825
22907989 373 18265067859469747294
23175994 123 18413109489547033227
23419403 2 18267287906390187757
23557571 272 18340210687430253166
23558518 356 17547273524458262051
23559900 14 17969208087675008120
238078 22 18334299746994159511
2748010 2 17752747298793974303
283562 15 18335988575569933058
314173 85 18411987974300919603
437815 12 18341895208227350079
469060 322 18041856029336799928
57262259 84 18339932514845529980
621550 34 17988922289039819802
7399639 24 18131348601491012638
81228 2 18267601108216091017
84936 31 17841148067552116741

>  <PUBCHEM_SHAPE_MULTIPOLES>  (1) 
468.35
9.91
3.97
1.72
12.79
4.01
-0.62
-9.5
-0.83
-2.4
0.6
0.86
-0.05
2.44

>  <PUBCHEM_SHAPE_SELFOVERLAP>  (1) 
992.638

>  <PUBCHEM_SHAPE_VOLUME>  (1) 
259.4

>  <PUBCHEM_COORDINATE_TYPE>  (1) 
2
5
10

$$$$
