20828
     RDKit          3D

 18 19  0  0  0  0  0  0  0  0999 V2000
    5.9993   -0.5225    0.0637 O   0  0  0  0  0  0  0  0  0  0  0  0
   -5.9970    0.5230    0.0637 O   0  0  0  0  0  0  0  0  0  0  0  0
    1.9148    0.2149    0.0381 C   0  0  0  0  0  0  0  0  0  0  0  0
   -1.9315   -0.2126    0.0383 C   0  0  0  0  0  0  0  0  0  0  0  0
    0.4836    0.4740    0.0285 C   0  0  0  0  0  0  0  0  0  0  0  0
   -0.4817   -0.4756    0.0284 C   0  0  0  0  0  0  0  0  0  0  0  0
    2.3973   -1.0235    0.4610 C   0  0  0  0  0  0  0  0  0  0  0  0
   -2.3948    1.0226    0.4610 C   0  0  0  0  0  0  0  0  0  0  0  0
    2.8049    1.2059   -0.3762 C   0  0  0  0  0  0  0  0  0  0  0  0
   -2.8032   -1.2066   -0.3763 C   0  0  0  0  0  0  0  0  0  0  0  0
    4.6603   -0.2803    0.0553 C   0  0  0  0  0  0  0  0  0  0  0  0
   -4.6580    0.2802    0.0553 C   0  0  0  0  0  0  0  0  0  0  0  0
    3.7700   -1.2711    0.4697 C   0  0  0  0  0  0  0  0  0  0  0  0
   -3.7674    1.2707    0.4699 C   0  0  0  0  0  0  0  0  0  0  0  0
    4.1775    0.9583   -0.3676 C   0  0  0  0  0  0  0  0  0  0  0  0
   -4.1758   -0.9585   -0.3677 C   0  0  0  0  0  0  0  0  0  0  0  0
    6.8533    0.5341   -0.3725 C   0  0  0  0  0  0  0  0  0  0  0  0
   -6.8514   -0.5332   -0.3726 C   0  0  0  0  0  0  0  0  0  0  0  0
  1 11  1  0
  1 17  1  0
  2 12  1  0
  2 18  1  0
  3  5  1  0
  3  7  2  0
  3  9  1  0
  4  6  1  0
  4  8  2  0
  4 10  1  0
  5  6  2  0
  7 13  1  0
  8 14  1  0
  9 15  2  0
 10 16  2  0
 11 13  2  0
 11 15  1  0
 12 14  2  0
 12 16  1  0
M  END
>  <PUBCHEM_COMPOUND_CID>  (1) 
20828

>  <PUBCHEM_CONFORMER_RMSD>  (1) 
0.6

>  <PUBCHEM_CONFORMER_DIVERSEORDER>  (1) 
3
2
1

>  <PUBCHEM_MMFF94_PARTIAL_CHARGES>  (1) 
28
1 -0.36
10 -0.15
11 0.08
12 0.08
13 -0.15
14 -0.15
15 -0.15
16 -0.15
17 0.28
18 0.28
19 0.15
2 -0.36
20 0.15
21 0.15
22 0.15
23 0.15
24 0.15
25 0.15
26 0.15
27 0.15
28 0.15
3 0.03
4 0.03
5 -0.18
6 -0.18
7 -0.15
8 -0.15
9 -0.15

>  <PUBCHEM_EFFECTIVE_ROTOR_COUNT>  (1) 
4

>  <PUBCHEM_PHARMACOPHORE_FEATURES>  (1) 
4
1 1 acceptor
1 2 acceptor
6 3 7 9 11 13 15 rings
6 4 8 10 12 14 16 rings

>  <PUBCHEM_HEAVY_ATOM_COUNT>  (1) 
18

>  <PUBCHEM_ATOM_DEF_STEREO_COUNT>  (1) 
0

>  <PUBCHEM_ATOM_UDEF_STEREO_COUNT>  (1) 
0

>  <PUBCHEM_BOND_DEF_STEREO_COUNT>  (1) 
0

>  <PUBCHEM_BOND_UDEF_STEREO_COUNT>  (1) 
1

>  <PUBCHEM_ISOTOPIC_ATOM_COUNT>  (1) 
0

>  <PUBCHEM_COMPONENT_COUNT>  (1) 
1

>  <PUBCHEM_CACTVS_TAUTO_COUNT>  (1) 
1

>  <PUBCHEM_CONFORMER_ID>  (1) 
0000515C00000003

>  <PUBCHEM_MMFF94_ENERGY>  (1) 
72.1243

>  <PUBCHEM_FEATURE_SELFOVERLAP>  (1) 
20.297

>  <PUBCHEM_SHAPE_FINGERPRINT>  (1) 
10354089 29 18333732416643510114
10595046 47 18410855477308063496
10968037 39 18410573994332209967
11315181 36 17989210369095788433
11524674 6 15339117966212980015
12091667 2 17561083605836477451
12107183 9 17618221710962590464
12236239 1 18410573972266549336
12516196 113 17704069599000989368
13167823 11 18411417314891614699
13288520 33 18202562895900884381
13533116 47 18335696100913017042
14251718 22 18342739615391855418
14251764 18 18410855464423129106
14251764 46 18410573989446431427
17834072 33 18410009948592409478
17834076 25 18410293613986629806
18681886 176 18201715197952465514
19489759 90 16702304542539737299
200 152 18413669110388947969
20612939 158 17968103057568593396
20645477 70 18260827042984823466
21065198 48 18338516330983981433
21267235 1 18412832395326006371
21641784 216 17023479538613892148
22224240 67 16370724863900943632
2297311 6 17489593350607485737
23035841 295 18130788945007166130
23402539 116 18131063844963751989
23521765 1 18341895194640646157
23536379 177 18410575071778177216
23559900 14 18271237330476432401
26918003 58 17676211277156505401
29717793 49 18202006525547282052
300161 21 18408879642149412914
3004659 81 18410009944540288792
34797466 226 17275109457483652284
3545911 37 18410575088958046211
4073 2 17895480336049807306
4214541 1 18411699876737611905
42788 4 18410855460133449553
4340502 62 15068618302060408544
5104073 3 18338799017141470128
542803 24 18410292510180015256
54446538 1 18409730659786155717
59755656 215 17988931045982433670
59755656 520 17240480334245183163
67856867 119 18339641268934824164
8209 1 18410573989446424956

>  <PUBCHEM_SHAPE_MULTIPOLES>  (1) 
358.69
17.08
1.28
0.7
0.04
0
0
0
1.65
0
-0.04
0
0
-0.87

>  <PUBCHEM_SHAPE_SELFOVERLAP>  (1) 
763.431

>  <PUBCHEM_SHAPE_VOLUME>  (1) 
201.7

>  <PUBCHEM_COORDINATE_TYPE>  (1) 
2
5
10

$$$$
