20827
     RDKit          3D

  6  5  0  0  1  0  0  0  0  0999 V2000
   -2.7912   -0.0568   -0.3120 Br  0  0  0  0  0  0  0  0  0  0  0  0
    0.0335   -1.3199    0.3226 O   0  0  0  0  0  0  0  0  0  0  0  0
    2.4615   -0.0629   -0.3271 O   0  0  0  0  0  0  0  0  0  0  0  0
    0.0645    0.0030   -0.2171 C   0  0  0  0  0  0  0  0  0  0  0  0
    1.3677    0.6680    0.2171 C   0  0  0  0  0  0  0  0  0  0  0  0
   -1.1359    0.7687    0.3164 C   0  0  0  0  0  0  0  0  0  0  0  0
  1  6  1  0
  2  4  1  0
  3  5  1  0
  4  5  1  0
  4  6  1  0
M  END
>  <PUBCHEM_COMPOUND_CID>  (1) 
20827

>  <PUBCHEM_CONFORMER_RMSD>  (1) 
0.4

>  <PUBCHEM_CONFORMER_DIVERSEORDER>  (1) 
1
8
13
18
4
14
9
15
2
10
6
17
7
12
11
5
3
16

>  <PUBCHEM_MMFF94_PARTIAL_CHARGES>  (1) 
8
1 -0.23
12 0.4
13 0.4
2 -0.68
3 -0.68
4 0.28
5 0.28
6 0.23

>  <PUBCHEM_EFFECTIVE_ROTOR_COUNT>  (1) 
2

>  <PUBCHEM_PHARMACOPHORE_FEATURES>  (1) 
5
1 1 hydrophobe
1 2 acceptor
1 2 donor
1 3 acceptor
1 3 donor

>  <PUBCHEM_HEAVY_ATOM_COUNT>  (1) 
6

>  <PUBCHEM_ATOM_DEF_STEREO_COUNT>  (1) 
0

>  <PUBCHEM_ATOM_UDEF_STEREO_COUNT>  (1) 
1

>  <PUBCHEM_BOND_DEF_STEREO_COUNT>  (1) 
0

>  <PUBCHEM_BOND_UDEF_STEREO_COUNT>  (1) 
0

>  <PUBCHEM_ISOTOPIC_ATOM_COUNT>  (1) 
0

>  <PUBCHEM_COMPONENT_COUNT>  (1) 
1

>  <PUBCHEM_CACTVS_TAUTO_COUNT>  (1) 
1

>  <PUBCHEM_CONFORMER_ID>  (1) 
0000515B00000001

>  <PUBCHEM_MMFF94_ENERGY>  (1) 
6.0942

>  <PUBCHEM_FEATURE_SELFOVERLAP>  (1) 
25.379

>  <PUBCHEM_SHAPE_FINGERPRINT>  (1) 
16714656 1 18335140916339100533
20096714 4 18411419514004443672
21040471 1 18335418001711463616
29004967 10 10952051173364571373
5460574 1 8430317939329790413

>  <PUBCHEM_SHAPE_MULTIPOLES>  (1) 
117.68
3.61
1.01
0.69
0.82
0.15
-0.01
-0.05
-0.56
0.02
0.13
0.09
0
-0.02

>  <PUBCHEM_SHAPE_SELFOVERLAP>  (1) 
193.913

>  <PUBCHEM_SHAPE_VOLUME>  (1) 
82.9

>  <PUBCHEM_COORDINATE_TYPE>  (1) 
2
5
10

$$$$
