20825
     RDKit          3D

 15 16  0  0  0  0  0  0  0  0999 V2000
   -0.4532    2.3204    0.4483 O   0  0  0  0  0  0  0  0  0  0  0  0
   -0.4560   -2.3128    0.4615 O   0  0  0  0  0  0  0  0  0  0  0  0
   -2.4633   -0.0250   -1.5219 O   0  0  0  0  0  0  0  0  0  0  0  0
   -4.3849    0.0069   -0.3161 O   0  0  0  0  0  0  0  0  0  0  0  0
   -0.8728    0.0053    0.5527 N   0  0  0  0  0  0  0  0  0  0  0  0
    1.2355    0.6946    0.0951 C   0  0  0  0  0  0  0  0  0  0  0  0
    1.2334   -0.6925    0.0993 C   0  0  0  0  0  0  0  0  0  0  0  0
   -0.1236    1.1507    0.3837 C   0  0  0  0  0  0  0  0  0  0  0  0
   -0.1271   -1.1432    0.3908 C   0  0  0  0  0  0  0  0  0  0  0  0
   -2.2880    0.0082    0.8659 C   0  0  0  0  0  0  0  0  0  0  0  0
    2.3811    1.4223   -0.1529 C   0  0  0  0  0  0  0  0  0  0  0  0
    2.3771   -1.4250   -0.1444 C   0  0  0  0  0  0  0  0  0  0  0  0
    3.5524    0.7012   -0.4017 C   0  0  0  0  0  0  0  0  0  0  0  0
    3.5503   -0.7087   -0.3977 C   0  0  0  0  0  0  0  0  0  0  0  0
   -3.1609   -0.0025   -0.3625 C   0  0  0  0  0  0  0  0  0  0  0  0
  1  8  2  0
  2  9  2  0
  3 15  1  0
  4 15  2  0
  5  8  1  0
  5  9  1  0
  5 10  1  0
  6  7  2  0
  6  8  1  0
  6 11  1  0
  7  9  1  0
  7 12  1  0
 10 15  1  0
 11 13  2  0
 12 14  2  0
 13 14  1  0
M  END
>  <PUBCHEM_COMPOUND_CID>  (1) 
20825

>  <PUBCHEM_CONFORMER_RMSD>  (1) 
0.6

>  <PUBCHEM_CONFORMER_DIVERSEORDER>  (1) 
1
3
2

>  <PUBCHEM_MMFF94_PARTIAL_CHARGES>  (1) 
20
1 -0.57
10 0.36
11 -0.15
12 -0.15
13 -0.15
14 -0.15
15 0.66
18 0.15
19 0.15
2 -0.57
20 0.15
21 0.15
22 0.5
3 -0.65
4 -0.57
5 -0.42
6 0.09
7 0.09
8 0.54
9 0.54

>  <PUBCHEM_EFFECTIVE_ROTOR_COUNT>  (1) 
2.2

>  <PUBCHEM_PHARMACOPHORE_FEATURES>  (1) 
7
1 1 acceptor
1 2 acceptor
1 3 acceptor
1 4 acceptor
3 3 4 15 anion
5 5 6 7 8 9 rings
6 6 7 11 12 13 14 rings

>  <PUBCHEM_HEAVY_ATOM_COUNT>  (1) 
15

>  <PUBCHEM_ATOM_DEF_STEREO_COUNT>  (1) 
0

>  <PUBCHEM_ATOM_UDEF_STEREO_COUNT>  (1) 
0

>  <PUBCHEM_BOND_DEF_STEREO_COUNT>  (1) 
0

>  <PUBCHEM_BOND_UDEF_STEREO_COUNT>  (1) 
0

>  <PUBCHEM_ISOTOPIC_ATOM_COUNT>  (1) 
0

>  <PUBCHEM_COMPONENT_COUNT>  (1) 
1

>  <PUBCHEM_CACTVS_TAUTO_COUNT>  (1) 
1

>  <PUBCHEM_CONFORMER_ID>  (1) 
0000515900000001

>  <PUBCHEM_MMFF94_ENERGY>  (1) 
31.2934

>  <PUBCHEM_FEATURE_SELFOVERLAP>  (1) 
35.673

>  <PUBCHEM_SHAPE_FINGERPRINT>  (1) 
10967382 1 18410580586890803058
11206711 2 18264499386051421324
11401426 45 18342451547793397704
11471102 20 18409166610283741652
12423570 1 11876605040563520472
13380535 76 18411422834441593794
13571099 22 18408608062925038822
13897977 150 18267870669180603040
14576447 43 18130495448670305983
14617773 55 17916881105307013392
14911166 2 18409737261588356502
14943859 89 16008750216592905388
14993402 34 18060702805355984741
16945 1 18410586084622898336
17844478 74 17822302296486375993
18186145 218 18334293149866325167
193761 8 17689158911389448248
19422 9 18060423495433174695
200 152 18201717323639575420
20201158 50 18410015437861430530
20645477 70 18411138000457735311
21501502 16 18195535796348941216
2334 1 18050857920449734666
23402539 116 18341889658865664684
23402655 69 18341611499403467413
23493267 7 17385727988768309104
23559900 14 18269282421448396148
25 1 18334008368060312415
2748010 2 18051987110311913104
353137 74 18336262349416775208
528886 8 18411981381541593642
63268167 104 18342175587528327969
77492 1 17703515432534996739

>  <PUBCHEM_SHAPE_MULTIPOLES>  (1) 
280.23
5.97
1.78
0.86
2.24
0.01
0.15
0
1.59
-0.62
-0.27
0.46
0
-0.01

>  <PUBCHEM_SHAPE_SELFOVERLAP>  (1) 
615.968

>  <PUBCHEM_SHAPE_VOLUME>  (1) 
153

>  <PUBCHEM_COORDINATE_TYPE>  (1) 
2
5
10

$$$$
