20834
     RDKit          3D

 14 14  0  0  0  0  0  0  0  0999 V2000
    1.7616    2.3293    0.4839 O   0  0  0  0  0  0  0  0  0  0  0  0
    3.0758   -2.2238    0.0005 O   0  0  0  0  0  0  0  0  0  0  0  0
   -1.0828    2.2579   -1.3160 O   0  0  0  0  0  0  0  0  0  0  0  0
   -1.6073    2.0481    0.8857 O   0  0  0  0  0  0  0  0  0  0  0  0
   -1.6145   -1.0644   -0.6399 C   0  0  0  0  0  0  0  0  0  0  0  0
   -0.2122   -0.6535   -0.3293 C   0  0  0  0  0  0  0  0  0  0  0  0
   -2.4005   -1.4408    0.6227 C   0  0  0  0  0  0  0  0  0  0  0  0
    0.1085    0.6778   -0.0643 C   0  0  0  0  0  0  0  0  0  0  0  0
    0.7849   -1.6286   -0.3075 C   0  0  0  0  0  0  0  0  0  0  0  0
    1.4263    1.0342    0.2226 C   0  0  0  0  0  0  0  0  0  0  0  0
   -3.8362   -1.8255    0.3024 C   0  0  0  0  0  0  0  0  0  0  0  0
    2.1028   -1.2724   -0.0206 C   0  0  0  0  0  0  0  0  0  0  0  0
    2.4235    0.0591    0.2445 C   0  0  0  0  0  0  0  0  0  0  0  0
   -0.9300    1.7024   -0.0845 C   0  0  0  0  0  0  0  0  0  0  0  0
  1 10  1  0
  2 12  1  0
  3 14  1  0
  4 14  2  0
  5  6  1  0
  5  7  1  0
  6  8  2  0
  6  9  1  0
  7 11  1  0
  8 10  1  0
  8 14  1  0
  9 12  2  0
 10 13  2  0
 12 13  1  0
M  END
>  <PUBCHEM_COMPOUND_CID>  (1) 
20834

>  <PUBCHEM_CONFORMER_RMSD>  (1) 
0.6

>  <PUBCHEM_CONFORMER_DIVERSEORDER>  (1) 
1
4
7
5
3
6
2
8

>  <PUBCHEM_MMFF94_PARTIAL_CHARGES>  (1) 
17
1 -0.53
10 0.08
12 0.08
13 -0.15
14 0.63
19 0.15
2 -0.53
23 0.15
24 0.45
25 0.45
26 0.5
3 -0.65
4 -0.57
5 0.14
6 -0.14
8 0.09
9 -0.15

>  <PUBCHEM_EFFECTIVE_ROTOR_COUNT>  (1) 
3

>  <PUBCHEM_PHARMACOPHORE_FEATURES>  (1) 
7
1 1 donor
1 11 hydrophobe
1 2 donor
1 3 acceptor
1 4 acceptor
3 3 4 14 anion
6 6 8 9 10 12 13 rings

>  <PUBCHEM_HEAVY_ATOM_COUNT>  (1) 
14

>  <PUBCHEM_ATOM_DEF_STEREO_COUNT>  (1) 
0

>  <PUBCHEM_ATOM_UDEF_STEREO_COUNT>  (1) 
0

>  <PUBCHEM_BOND_DEF_STEREO_COUNT>  (1) 
0

>  <PUBCHEM_BOND_UDEF_STEREO_COUNT>  (1) 
0

>  <PUBCHEM_ISOTOPIC_ATOM_COUNT>  (1) 
0

>  <PUBCHEM_COMPONENT_COUNT>  (1) 
1

>  <PUBCHEM_CACTVS_TAUTO_COUNT>  (1) 
25

>  <PUBCHEM_CONFORMER_ID>  (1) 
0000516200000001

>  <PUBCHEM_MMFF94_ENERGY>  (1) 
36.3272

>  <PUBCHEM_FEATURE_SELFOVERLAP>  (1) 
35.578

>  <PUBCHEM_SHAPE_FINGERPRINT>  (1) 
10219947 1 18123190370729885467
10980938 120 18123189271181438315
11086676 242 18341346551429198507
11471102 22 18265343978380023291
11680611 10 17969487226405918026
11680986 33 18341315713590445072
12138202 97 17828485764838854455
12423570 1 10850009789768362966
13140716 1 18196927774012128418
15501101 241 18266741466348704287
161256 15 18339927111992884534
16945 1 18270390724019255886
193761 8 18411980243565306888
20871998 22 18341620308381709654
21501502 16 18337963302584394096
2334 1 18340198605792880654
23559900 14 17838332983543335806
2748010 2 18270950238199326542
54173680 148 18051132493171712706
81228 2 18262243222598312651
8809292 202 18263362499628901667

>  <PUBCHEM_SHAPE_MULTIPOLES>  (1) 
264.64
4.39
2.87
0.84
2.77
0.94
0.09
-2.85
-0.83
-0.49
0.07
0.25
0.26
0.32

>  <PUBCHEM_SHAPE_SELFOVERLAP>  (1) 
551.315

>  <PUBCHEM_SHAPE_VOLUME>  (1) 
150.9

>  <PUBCHEM_COORDINATE_TYPE>  (1) 
2
5
10

$$$$
