20839
     RDKit          3D

 15 15  0  0  0  0  0  0  0  0999 V2000
   -5.2514   -0.4710   -0.2889 O   0  0  0  0  0  0  0  0  0  0  0  0
    2.0833    4.2517   -0.2783 O   0  0  0  0  0  0  0  0  0  0  0  0
    4.1129   -2.7867   -0.3014 O   0  0  0  0  0  0  0  0  0  0  0  0
   -1.2243    0.7391   -0.1171 N   0  0  0  0  0  0  0  0  0  0  0  0
   -0.5595   -1.5906   -0.1056 N   0  0  0  0  0  0  0  0  0  0  0  0
    1.1214    0.1540   -0.1138 N   0  0  0  0  0  0  0  0  0  0  0  0
   -1.5592   -0.6127    0.3502 C   0  0  0  0  0  0  0  0  0  0  0  0
    0.1162    1.1213    0.3472 C   0  0  0  0  0  0  0  0  0  0  0  0
    0.7811   -1.1962    0.3538 C   0  0  0  0  0  0  0  0  0  0  0  0
   -2.9278   -1.0061   -0.2022 C   0  0  0  0  0  0  0  0  0  0  0  0
    0.4616    2.5031   -0.2043 C   0  0  0  0  0  0  0  0  0  0  0  0
    1.8061   -2.1870   -0.1946 C   0  0  0  0  0  0  0  0  0  0  0  0
   -4.0076   -0.0379    0.2443 C   0  0  0  0  0  0  0  0  0  0  0  0
    1.8347    2.9583    0.2548 C   0  0  0  0  0  0  0  0  0  0  0  0
    3.2128   -1.8391    0.2559 C   0  0  0  0  0  0  0  0  0  0  0  0
  1 13  1  0
  2 14  1  0
  3 15  1  0
  4  7  1  0
  4  8  1  0
  5  7  1  0
  5  9  1  0
  6  8  1  0
  6  9  1  0
  7 10  1  0
  8 11  1  0
  9 12  1  0
 10 13  1  0
 11 14  1  0
 12 15  1  0
M  END
>  <PUBCHEM_COMPOUND_CID>  (1) 
20839

>  <PUBCHEM_CONFORMER_RMSD>  (1) 
0.8

>  <PUBCHEM_CONFORMER_DIVERSEORDER>  (1) 
1
17
23
2
19
13
20
14
24
15
16
12
9
21
10
3
22
18
7
5
8
4
6
11

>  <PUBCHEM_MMFF94_PARTIAL_CHARGES>  (1) 
18
1 -0.68
13 0.28
14 0.28
15 0.28
19 0.36
2 -0.68
20 0.36
21 0.36
3 -0.68
34 0.4
35 0.4
36 0.4
4 -0.9
5 -0.9
6 -0.9
7 0.54
8 0.54
9 0.54

>  <PUBCHEM_EFFECTIVE_ROTOR_COUNT>  (1) 
7.2

>  <PUBCHEM_PHARMACOPHORE_FEATURES>  (1) 
13
1 1 acceptor
1 1 donor
1 2 acceptor
1 2 donor
1 3 acceptor
1 3 donor
1 4 cation
1 4 donor
1 5 cation
1 5 donor
1 6 cation
1 6 donor
6 4 5 6 7 8 9 rings

>  <PUBCHEM_HEAVY_ATOM_COUNT>  (1) 
15

>  <PUBCHEM_ATOM_DEF_STEREO_COUNT>  (1) 
0

>  <PUBCHEM_ATOM_UDEF_STEREO_COUNT>  (1) 
0

>  <PUBCHEM_BOND_DEF_STEREO_COUNT>  (1) 
0

>  <PUBCHEM_BOND_UDEF_STEREO_COUNT>  (1) 
0

>  <PUBCHEM_ISOTOPIC_ATOM_COUNT>  (1) 
0

>  <PUBCHEM_COMPONENT_COUNT>  (1) 
1

>  <PUBCHEM_CACTVS_TAUTO_COUNT>  (1) 
1

>  <PUBCHEM_CONFORMER_ID>  (1) 
0000516700000001

>  <PUBCHEM_MMFF94_ENERGY>  (1) 
2.53

>  <PUBCHEM_FEATURE_SELFOVERLAP>  (1) 
66.146

>  <PUBCHEM_SHAPE_FINGERPRINT>  (1) 
10756046 70 18060128873582904607
10989021 7 18411700950336874794
11680986 33 18335988687196741739
12500047 106 17475796932174502656
12841375 25 18338796710833961871
14178000 29 18343580711854806183
15042514 8 17762057640301939042
167882 2 18265051508271021876
18785283 64 18189336946990790024
20645477 70 18336254752305547687
20671657 1 18339084886291794903
20671657 53 18341052908778521783
20711985 327 18341619157288061903
21029758 11 18337671910385967083
21029758 27 18337679607104628463
212916 134 17624400274964213232
21296965 67 18339640019051510915
21339142 36 18120367666366718927
21426921 1 17762340219792535590
21524375 3 17612580533713297513
21665056 4 17401485343746938868
221490 88 18264212577058209995
23352939 185 18272658905133510178
23366157 5 18115582789357630290
23402539 116 18198335148437109343
23419403 2 18042944558833368716
23557571 272 18055359037560017774
23558518 356 17325499804401156538
2748010 2 18195505031313492584
305870 269 18050005785678831337
3071541 12 18338519741314757609
3071541 158 18334293137108121317
3071541 250 18410017606693210614
3071541 37 18264211481376858061
3091708 16 9430489782552705354
3250762 1 17972893723787830699
458136 41 18121511407863413433
532947 4 18268438017549742212
58734987 36 18410292484552967591
68521 5 18121502353924497926
7364860 26 18339642338328452585
81228 2 17981059513084009634
81539 233 18118679053078017045
84936 182 18057889241353910289

>  <PUBCHEM_SHAPE_MULTIPOLES>  (1) 
276.14
6.7
4.17
0.64
6.96
4.55
-0.03
-4.14
0.46
-6.25
0.37
0
0
0

>  <PUBCHEM_SHAPE_SELFOVERLAP>  (1) 
527.773

>  <PUBCHEM_SHAPE_VOLUME>  (1) 
166.3

>  <PUBCHEM_COORDINATE_TYPE>  (1) 
2
5
10

$$$$
