20830
     RDKit          3D

 18 20  0  0  1  0  0  0  0  0999 V2000
    1.0215    2.3264    0.3772 O   0  0  0  0  0  0  0  0  0  0  0  0
   -2.5927    0.2075   -0.3154 N   0  0  0  0  0  0  0  0  0  0  0  0
   -0.1801    0.2392    0.1874 C   0  0  0  0  0  0  0  0  0  0  0  0
   -1.3907    1.0404   -0.2866 C   0  0  0  0  0  0  0  0  0  0  0  0
   -2.8743   -0.3347    1.0212 C   0  0  0  0  0  0  0  0  0  0  0  0
   -3.7367    0.9733   -0.8298 C   0  0  0  0  0  0  0  0  0  0  0  0
    0.0327   -0.9796   -0.7092 C   0  0  0  0  0  0  0  0  0  0  0  0
   -4.1007   -1.2482    0.9988 C   0  0  0  0  0  0  0  0  0  0  0  0
   -4.9914    0.1025   -0.9128 C   0  0  0  0  0  0  0  0  0  0  0  0
   -5.3200   -0.5263    0.4364 C   0  0  0  0  0  0  0  0  0  0  0  0
    1.2246   -1.7968   -0.2258 C   0  0  0  0  0  0  0  0  0  0  0  0
    1.0714    1.1106    0.2121 C   0  0  0  0  0  0  0  0  0  0  0  0
    2.4627   -0.9497   -0.1167 C   0  0  0  0  0  0  0  0  0  0  0  0
    2.3915    0.4352    0.0972 C   0  0  0  0  0  0  0  0  0  0  0  0
    3.7224   -1.5619   -0.1881 C   0  0  0  0  0  0  0  0  0  0  0  0
    3.5633    1.1943    0.2084 C   0  0  0  0  0  0  0  0  0  0  0  0
    4.8884   -0.8044   -0.0747 C   0  0  0  0  0  0  0  0  0  0  0  0
    4.8083    0.5721    0.1203 C   0  0  0  0  0  0  0  0  0  0  0  0
  1 12  2  0
  2  4  1  0
  2  5  1  0
  2  6  1  0
  3  4  1  0
  3  7  1  0
  3 12  1  0
  5  8  1  0
  6  9  1  0
  7 11  1  0
  8 10  1  0
  9 10  1  0
 11 13  1  0
 12 14  1  0
 13 14  2  0
 13 15  1  0
 14 16  1  0
 15 17  2  0
 16 18  2  0
 17 18  1  0
M  END
>  <PUBCHEM_COMPOUND_CID>  (1) 
20830

>  <PUBCHEM_CONFORMER_RMSD>  (1) 
0.6

>  <PUBCHEM_CONFORMER_DIVERSEORDER>  (1) 
1
9
3
6
4
8
7
5
2

>  <PUBCHEM_MMFF94_PARTIAL_CHARGES>  (1) 
18
1 -0.57
11 0.14
12 0.42
13 -0.14
14 0.09
15 -0.15
16 -0.15
17 -0.15
18 -0.15
2 -0.81
3 0.06
36 0.15
37 0.15
38 0.15
39 0.15
4 0.27
5 0.27
6 0.27

>  <PUBCHEM_EFFECTIVE_ROTOR_COUNT>  (1) 
3.8

>  <PUBCHEM_PHARMACOPHORE_FEATURES>  (1) 
5
1 1 acceptor
1 2 cation
6 13 14 15 16 17 18 rings
6 2 5 6 8 9 10 rings
6 3 7 11 12 13 14 rings

>  <PUBCHEM_HEAVY_ATOM_COUNT>  (1) 
18

>  <PUBCHEM_ATOM_DEF_STEREO_COUNT>  (1) 
0

>  <PUBCHEM_ATOM_UDEF_STEREO_COUNT>  (1) 
1

>  <PUBCHEM_BOND_DEF_STEREO_COUNT>  (1) 
0

>  <PUBCHEM_BOND_UDEF_STEREO_COUNT>  (1) 
0

>  <PUBCHEM_ISOTOPIC_ATOM_COUNT>  (1) 
0

>  <PUBCHEM_COMPONENT_COUNT>  (1) 
1

>  <PUBCHEM_CACTVS_TAUTO_COUNT>  (1) 
2

>  <PUBCHEM_CONFORMER_ID>  (1) 
0000515E00000001

>  <PUBCHEM_MMFF94_ENERGY>  (1) 
30.5373

>  <PUBCHEM_FEATURE_SELFOVERLAP>  (1) 
25.393

>  <PUBCHEM_SHAPE_FINGERPRINT>  (1) 
10 15 18263071258682635024
11287383 113 17968097542439908972
11471102 20 18413386536322622084
11615757 297 17988924474697839771
11796584 16 17167859734076231458
12011746 2 18408887334325232783
12032990 46 18411423873717801046
12236239 1 17132114645574791497
12596602 18 16558744650369155195
13760787 5 18131631188019961389
13862211 1 18342733001401072318
14252887 29 17846504694976553702
14341114 176 18410018740838915865
14386348 63 18260551125832469579
14573314 32 17894910711337146063
15196674 1 18412262796462699364
15219456 202 18335420171070835683
15375358 24 18259703393740648387
15788980 27 18409445886453572191
15961568 22 16805889614518500332
17834072 33 17988920097978524135
17844677 252 18333456434503287981
18785283 64 18119246405410385584
19489759 90 17167859755830252183
200 152 18131628981039637449
20261772 1 18202843274870014350
20279233 1 18259708891261831499
20645477 70 18342453695187654574
21267235 1 18342183233060887614
21682296 61 18057893437658446550
221490 88 18263931101695864267
22854114 59 18413671318049656259
23402539 116 16298099887160635351
23557571 272 17603582989402574757
23559900 14 18040713653850792507
239999 70 18335423461343195834
26918003 58 18411702088930430827
2871803 45 18334574603405206890
33824 294 18410572864761482202
34797466 226 16805617974594351238
4214541 1 18334575711865738237
465052 167 18412832403536522654
474 4 16915358125824073008
5104073 3 18339921511202797344
5283173 99 17969213456891063485
537710 114 18342460348540310636
542803 24 16487256577710886985
602551 16 16950849205521701435
7495541 125 18040720302565843676

>  <PUBCHEM_SHAPE_MULTIPOLES>  (1) 
359.58
11.37
1.71
0.88
5.08
0.12
-0.02
-1.59
-0.11
-0.94
-0.05
0.8
-0.07
0.93

>  <PUBCHEM_SHAPE_SELFOVERLAP>  (1) 
762.106

>  <PUBCHEM_SHAPE_VOLUME>  (1) 
200

>  <PUBCHEM_COORDINATE_TYPE>  (1) 
2
5
10

$$$$
