20849
     RDKit          3D

  9  9  0  0  0  0  0  0  0  0999 V2000
    2.4590    1.0876    0.0310 O   0  0  0  0  0  0  0  0  0  0  0  0
   -2.0928    1.5169   -0.3181 O   0  0  0  0  0  0  0  0  0  0  0  0
    0.1708    1.1497   -0.1308 N   0  0  0  0  0  0  0  0  0  0  0  0
    0.3887   -1.7419   -0.6080 C   0  0  0  0  0  0  0  0  0  0  0  0
   -1.0524   -1.7408   -0.1054 C   0  0  0  0  0  0  0  0  0  0  0  0
    1.3526   -1.0091    0.3135 C   0  0  0  0  0  0  0  0  0  0  0  0
   -1.4421   -0.5294    0.7249 C   0  0  0  0  0  0  0  0  0  0  0  0
    1.3838    0.4820    0.0531 C   0  0  0  0  0  0  0  0  0  0  0  0
   -1.1676    0.7850    0.0397 C   0  0  0  0  0  0  0  0  0  0  0  0
  1  8  2  0
  2  9  2  0
  3  8  1  0
  3  9  1  0
  4  5  1  0
  4  6  1  0
  5  7  1  0
  6  8  1  0
  7  9  1  0
M  END
>  <PUBCHEM_COMPOUND_CID>  (1) 
20849

>  <PUBCHEM_CONFORMER_RMSD>  (1) 
0.4

>  <PUBCHEM_CONFORMER_DIVERSEORDER>  (1) 
1
3
2

>  <PUBCHEM_MMFF94_PARTIAL_CHARGES>  (1) 
8
1 -0.57
18 0.37
2 -0.57
3 -0.49
6 0.06
7 0.06
8 0.57
9 0.57

>  <PUBCHEM_EFFECTIVE_ROTOR_COUNT>  (1) 
1

>  <PUBCHEM_PHARMACOPHORE_FEATURES>  (1) 
4
1 1 acceptor
1 2 acceptor
1 3 donor
7 3 4 5 6 7 8 9 rings

>  <PUBCHEM_HEAVY_ATOM_COUNT>  (1) 
9

>  <PUBCHEM_ATOM_DEF_STEREO_COUNT>  (1) 
0

>  <PUBCHEM_ATOM_UDEF_STEREO_COUNT>  (1) 
0

>  <PUBCHEM_BOND_DEF_STEREO_COUNT>  (1) 
0

>  <PUBCHEM_BOND_UDEF_STEREO_COUNT>  (1) 
0

>  <PUBCHEM_ISOTOPIC_ATOM_COUNT>  (1) 
0

>  <PUBCHEM_COMPONENT_COUNT>  (1) 
1

>  <PUBCHEM_CACTVS_TAUTO_COUNT>  (1) 
2

>  <PUBCHEM_CONFORMER_ID>  (1) 
0000517100000001

>  <PUBCHEM_MMFF94_ENERGY>  (1) 
19.7957

>  <PUBCHEM_FEATURE_SELFOVERLAP>  (1) 
20.297

>  <PUBCHEM_SHAPE_FINGERPRINT>  (1) 
16714656 1 18052266377343169590
16945 1 18264489670561006530
18185500 45 17474951407431373862
21040471 1 18411135814229301432
21922407 69 15720262571831630467
23552423 10 18260832652449111942
241688 4 16611107435473812210
2748010 2 18410579452644890543
5084963 1 18129107894976199962

>  <PUBCHEM_SHAPE_MULTIPOLES>  (1) 
168.5
2.53
2
0.72
0.56
0.4
-0.03
-0.95
-0.12
-0.33
0.29
-0.09
0.12
0.14

>  <PUBCHEM_SHAPE_SELFOVERLAP>  (1) 
333.553

>  <PUBCHEM_SHAPE_VOLUME>  (1) 
97

>  <PUBCHEM_COORDINATE_TYPE>  (1) 
2
5
10

$$$$
