20842
     RDKit          3D

 29 32  0  0  1  0  0  0  0  0999 V2000
    2.6568   -1.5460    0.6094 O   0  0  0  0  0  0  0  0  0  0  0  0
   -0.7878    2.5216    1.3551 O   0  0  0  0  0  0  0  0  0  0  0  0
   -2.1926   -1.4852    0.8316 O   0  0  0  0  0  0  0  0  0  0  0  0
    2.6855    2.9282   -1.0562 O   0  0  0  0  0  0  0  0  0  0  0  0
   -1.8073   -2.2586   -1.9127 O   0  0  0  0  0  0  0  0  0  0  0  0
   -4.5842   -0.1818    1.6297 O   0  0  0  0  0  0  0  0  0  0  0  0
    4.8775   -1.7037   -0.0075 O   0  0  0  0  0  0  0  0  0  0  0  0
    0.9573   -0.0592   -0.4390 C   0  0  0  0  0  0  0  0  0  0  0  0
    0.5924    0.4836    0.9984 C   0  0  0  0  0  0  0  0  0  0  0  0
    2.4195   -0.6143   -0.4307 C   0  0  0  0  0  0  0  0  0  0  0  0
   -0.8610    1.0761    1.2847 C   0  0  0  0  0  0  0  0  0  0  0  0
   -1.9564    0.8554    0.2059 C   0  0  0  0  0  0  0  0  0  0  0  0
   -2.3102   -0.5769   -0.2630 C   0  0  0  0  0  0  0  0  0  0  0  0
    3.2408    0.6591   -0.3086 C   0  0  0  0  0  0  0  0  0  0  0  0
    1.1024    1.0952   -1.4642 C   0  0  0  0  0  0  0  0  0  0  0  0
    0.0901   -1.2527   -0.9043 C   0  0  0  0  0  0  0  0  0  0  0  0
    2.5896    1.5501   -1.3963 C   0  0  0  0  0  0  0  0  0  0  0  0
    1.6762    1.4898    1.5139 C   0  0  0  0  0  0  0  0  0  0  0  0
   -1.3423   -1.0158   -1.3724 C   0  0  0  0  0  0  0  0  0  0  0  0
   -3.8257   -0.4830   -0.6877 C   0  0  0  0  0  0  0  0  0  0  0  0
    3.1187    1.1844    1.1246 C   0  0  0  0  0  0  0  0  0  0  0  0
   -3.3150    1.5430    0.5466 C   0  0  0  0  0  0  0  0  0  0  0  0
   -4.3921    0.4788    0.3819 C   0  0  0  0  0  0  0  0  0  0  0  0
   -1.2822    0.6177    2.7043 C   0  0  0  0  0  0  0  0  0  0  0  0
    3.2788    1.3726   -2.7542 C   0  0  0  0  0  0  0  0  0  0  0  0
   -4.5900   -1.8209   -0.6640 C   0  0  0  0  0  0  0  0  0  0  0  0
   -4.0179    0.1465   -2.0871 C   0  0  0  0  0  0  0  0  0  0  0  0
    3.9389   -2.0167    0.7122 C   0  0  0  0  0  0  0  0  0  0  0  0
    4.0406   -2.9874    1.8496 C   0  0  0  0  0  0  0  0  0  0  0  0
  1 10  1  0
  1 28  1  0
  2 11  1  0
  3 13  1  0
  4 17  1  0
  5 19  1  0
  6 23  1  0
  7 28  2  0
  8  9  1  0
  8 10  1  0
  8 15  1  0
  8 16  1  0
  9 11  1  0
  9 18  1  0
 10 14  1  0
 11 12  1  0
 11 24  1  0
 12 13  1  0
 12 22  1  0
 13 19  1  0
 13 20  1  0
 14 17  1  0
 14 21  1  0
 15 17  1  0
 16 19  1  0
 17 25  1  0
 18 21  1  0
 20 23  1  0
 20 26  1  0
 20 27  1  0
 22 23  1  0
 28 29  1  0
M  END
>  <PUBCHEM_COMPOUND_CID>  (1) 
20842

>  <PUBCHEM_CONFORMER_RMSD>  (1) 
0.8

>  <PUBCHEM_CONFORMER_DIVERSEORDER>  (1) 
1
7
2
5
3
4
6

>  <PUBCHEM_MMFF94_PARTIAL_CHARGES>  (1) 
20
1 -0.43
10 0.28
11 0.28
13 0.28
17 0.28
19 0.28
2 -0.68
23 0.28
28 0.66
29 0.06
3 -0.68
4 -0.68
5 -0.68
58 0.4
59 0.4
6 -0.68
60 0.4
61 0.4
62 0.4
7 -0.57

>  <PUBCHEM_EFFECTIVE_ROTOR_COUNT>  (1) 
4.2

>  <PUBCHEM_PHARMACOPHORE_FEATURES>  (1) 
15
1 2 acceptor
1 2 donor
1 3 acceptor
1 3 donor
1 4 acceptor
1 4 donor
1 5 acceptor
1 5 donor
1 6 acceptor
1 6 donor
1 7 acceptor
3 20 26 27 hydrophobe
5 12 13 20 22 23 rings
7 8 9 11 12 13 16 19 rings
8 8 9 10 14 15 17 18 21 rings

>  <PUBCHEM_HEAVY_ATOM_COUNT>  (1) 
29

>  <PUBCHEM_ATOM_DEF_STEREO_COUNT>  (1) 
8

>  <PUBCHEM_ATOM_UDEF_STEREO_COUNT>  (1) 
2

>  <PUBCHEM_BOND_DEF_STEREO_COUNT>  (1) 
0

>  <PUBCHEM_BOND_UDEF_STEREO_COUNT>  (1) 
0

>  <PUBCHEM_ISOTOPIC_ATOM_COUNT>  (1) 
0

>  <PUBCHEM_COMPONENT_COUNT>  (1) 
1

>  <PUBCHEM_CACTVS_TAUTO_COUNT>  (1) 
1

>  <PUBCHEM_CONFORMER_ID>  (1) 
0000516A00000001

>  <PUBCHEM_MMFF94_ENERGY>  (1) 
151.0536

>  <PUBCHEM_FEATURE_SELFOVERLAP>  (1) 
76.159

>  <PUBCHEM_SHAPE_FINGERPRINT>  (1) 
10062212 137 18130500864850763215
10369192 42 15866631858309268164
10759866 29 18339086007109616596
10863032 1 18042415779708149949
11578080 2 18194937726664828776
12166972 35 18339625794483538167
12236239 1 18413392021301905270
12422481 6 17771641057154689587
12553582 1 17704081698213823829
12596599 1 17095240349889179131
12633257 1 17489586744910686033
12788726 201 17131847446932613577
13009979 54 18340494352761104752
13134695 92 18114749239796609356
13140716 1 16838276536751760355
13224815 77 17846222184796712333
13533116 47 18114184168081851259
13583140 156 18264771132826797803
13726171 33 17486798495018599065
15219462 58 17462892805785636384
15238133 3 17988092075860993497
16752209 62 17703241628148453893
16945 1 18058445581436629701
17349148 13 18272933782486812686
17980427 23 18200868475009426436
1813 80 18190181183628403846
18186145 218 16588024606557322497
19078846 21 17917713499980748009
192875 21 18340204094238806509
19862831 5 17987816192467634469
20600515 1 17346874554967295835
20691752 17 18270954747788523361
20715895 44 18053943944842000253
21069387 34 18114465569648232506
23419403 2 15029451111633403649
23557571 272 16343984719132445839
23559900 14 18260258651059599954
25222932 49 17555718155748109271
3004659 81 18342457019397246535
312423 11 18410579504369380855
34797466 226 17022903501842189375
394222 165 18265897046024724056
46194498 28 16877955948619234566
474 4 17971193874737744324
5104073 3 17989484143407374739
57527295 17 16516514500300354635
633830 44 16950275205149956381
9981440 41 17684368738928959392

>  <PUBCHEM_SHAPE_MULTIPOLES>  (1) 
555.72
8.91
2.6
2.28
2.33
0.6
-0.06
3.34
-0.47
-2.69
0.16
0
-0.51
-2.26

>  <PUBCHEM_SHAPE_SELFOVERLAP>  (1) 
1189.745

>  <PUBCHEM_SHAPE_VOLUME>  (1) 
307.6

>  <PUBCHEM_COORDINATE_TYPE>  (1) 
2
5
10

$$$$
