2084
     RDKit          3D

 15 15  0  0  0  0  0  0  0  0999 V2000
   -1.2113   -2.5448   -1.0332 Cl  0  0  0  0  0  0  0  0  0  0  0  0
   -2.4868   -0.3897    0.6285 O   0  0  0  0  0  0  0  0  0  0  0  0
    5.0805    0.6751   -0.4996 O   0  0  0  0  0  0  0  0  0  0  0  0
    3.0621    1.1912   -1.4019 O   0  0  0  0  0  0  0  0  0  0  0  0
    1.6645   -0.2879    0.5780 C   0  0  0  0  0  0  0  0  0  0  0  0
   -3.1586    0.7712    0.1451 C   0  0  0  0  0  0  0  0  0  0  0  0
   -4.5085    0.3582   -0.4211 C   0  0  0  0  0  0  0  0  0  0  0  0
   -1.1238   -0.3726    0.6008 C   0  0  0  0  0  0  0  0  0  0  0  0
    3.1549   -0.2411    0.5655 C   0  0  0  0  0  0  0  0  0  0  0  0
    0.9907   -1.2731   -0.1439 C   0  0  0  0  0  0  0  0  0  0  0  0
    0.9440    0.6550    1.3112 C   0  0  0  0  0  0  0  0  0  0  0  0
   -0.4034   -1.3154   -0.1324 C   0  0  0  0  0  0  0  0  0  0  0  0
   -0.4501    0.6128    1.3226 C   0  0  0  0  0  0  0  0  0  0  0  0
   -5.2777    1.5460   -0.9706 C   0  0  0  0  0  0  0  0  0  0  0  0
    3.7235    0.6151   -0.5491 C   0  0  0  0  0  0  0  0  0  0  0  0
  1 12  1  0
  2  6  1  0
  2  8  1  0
  3 15  1  0
  4 15  2  0
  5  9  1  0
  5 10  2  0
  5 11  1  0
  6  7  1  0
  7 14  1  0
  8 12  2  0
  8 13  1  0
  9 15  1  0
 10 12  1  0
 11 13  2  0
M  END
>  <PUBCHEM_COMPOUND_CID>  (1) 
2084

>  <PUBCHEM_CONFORMER_RMSD>  (1) 
0.6

>  <PUBCHEM_CONFORMER_DIVERSEORDER>  (1) 
1
49
21
26
102
55
61
15
122
4
99
75
65
68
103
121
56
111
78
89
104
85
63
62
83
71
116
125
110
105
76
69
84
44
74
117
23
9
112
90
46
20
113
5
118
86
93
119
2
14
124
100
106
25
33
82
66
67
41
70
73
108
36
79
107
80
98
45
39
47
40
115
7
28
11
42
10
97
91
123
64
19
77
18
6
101
120
43
27
35
95
92
60
24
13
50
52
59
72
32
88
87
30
54
17
94
81
3
48
38
53
22
114
12
16
51
57
37
58
31
8
29
34
109
96

>  <PUBCHEM_MMFF94_PARTIAL_CHARGES>  (1) 
17
1 -0.18
10 -0.15
11 -0.15
12 0.18
13 -0.15
15 0.66
2 -0.36
22 0.15
23 0.15
24 0.15
28 0.5
3 -0.65
4 -0.57
5 -0.14
6 0.28
8 0.08
9 0.2

>  <PUBCHEM_EFFECTIVE_ROTOR_COUNT>  (1) 
5

>  <PUBCHEM_PHARMACOPHORE_FEATURES>  (1) 
6
1 14 hydrophobe
1 2 acceptor
1 3 acceptor
1 4 acceptor
3 3 4 15 anion
6 5 8 10 11 12 13 rings

>  <PUBCHEM_HEAVY_ATOM_COUNT>  (1) 
15

>  <PUBCHEM_ATOM_DEF_STEREO_COUNT>  (1) 
0

>  <PUBCHEM_ATOM_UDEF_STEREO_COUNT>  (1) 
0

>  <PUBCHEM_BOND_DEF_STEREO_COUNT>  (1) 
0

>  <PUBCHEM_BOND_UDEF_STEREO_COUNT>  (1) 
0

>  <PUBCHEM_ISOTOPIC_ATOM_COUNT>  (1) 
0

>  <PUBCHEM_COMPONENT_COUNT>  (1) 
1

>  <PUBCHEM_CACTVS_TAUTO_COUNT>  (1) 
1

>  <PUBCHEM_CONFORMER_ID>  (1) 
0000082400000001

>  <PUBCHEM_MMFF94_ENERGY>  (1) 
32.8912

>  <PUBCHEM_FEATURE_SELFOVERLAP>  (1) 
30.504

>  <PUBCHEM_SHAPE_FINGERPRINT>  (1) 
10014705 185 18341050843294923952
106641 1 11963689831870026980
10756046 5 17913204544561138992
12138202 97 18202289133847265223
12251169 10 12251908087850629265
12555020 224 17845948342172397510
12633257 1 14490752450652632660
12670543 26 17917152693263661980
12670546 177 17489584605785305476
13705890 14 14189571931695242912
13760787 5 18201729400866208931
14115302 16 18272090517582712554
14252887 29 12324520883673698849
14911166 2 17918274263822182920
14993402 34 18202565081226984913
15209294 21 15502372322712074565
16945 1 17846788416020856210
17834072 8 18410301281273581758
18186145 218 17632569466449172081
187816 3 17704075087884596089
19868273 293 18342739654168166186
200 152 13398636043500346898
20645476 183 18336548312734894202
20871999 31 18200590435663732903
21069387 34 14261357984931406589
21637258 2 13182732602759188741
22218785 32 18060419109986891495
22713019 99 16630525137359091975
231179 274 17967534549357466597
23402539 116 17894627071506910057
23402655 69 18130497523624741201
26918003 58 10231758877252757409
2838139 119 17967527978063233941
298252 57 18411699885201154291
3060560 45 17774989168644892341
3071541 37 18270960129335228067
316301 35 10950322750304065677
33382 64 13326852253749053757
3759504 43 18334013925579753731
4047638 21 17385725763954020560
4175511 318 18412268362634716127
4325135 7 18113900481834877623
4990 188 16845288337160820053
58779409 8 18129934693603707871
76465 3 15266791996790571300
81539 233 18337104554276414247
8272917 22 17750229214438014394

>  <PUBCHEM_SHAPE_MULTIPOLES>  (1) 
292.95
8.98
1.76
1.22
3.36
1.32
-0.06
-5.21
-4.22
0.87
-0.52
-0.26
-0.33
-0.09

>  <PUBCHEM_SHAPE_SELFOVERLAP>  (1) 
587.479

>  <PUBCHEM_SHAPE_VOLUME>  (1) 
173.2

>  <PUBCHEM_COORDINATE_TYPE>  (1) 
2
5
10

$$$$
