20859
     RDKit          3D

  7  6  0  0  0  0  0  0  0  0999 V2000
   -1.2769    0.5441   -0.2589 O   0  0  0  0  0  0  0  0  0  0  0  0
    0.1385   -1.3421   -0.2563 O   0  0  0  0  0  0  0  0  0  0  0  0
   -0.0536   -0.0097    0.2375 C   0  0  0  0  0  0  0  0  0  0  0  0
    1.1137    0.8482   -0.2650 C   0  0  0  0  0  0  0  0  0  0  0  0
    2.4669    0.3148    0.1818 C   0  0  0  0  0  0  0  0  0  0  0  0
   -1.5026    1.8743    0.1880 C   0  0  0  0  0  0  0  0  0  0  0  0
   -0.8859   -2.2295    0.1729 C   0  0  0  0  0  0  0  0  0  0  0  0
  1  3  1  0
  1  6  1  0
  2  3  1  0
  2  7  1  0
  3  4  1  0
  4  5  1  0
M  END
>  <PUBCHEM_COMPOUND_CID>  (1) 
20859

>  <PUBCHEM_CONFORMER_RMSD>  (1) 
0.4

>  <PUBCHEM_CONFORMER_DIVERSEORDER>  (1) 
6
10
3
8
2
7
11
4
9
5
1

>  <PUBCHEM_MMFF94_PARTIAL_CHARGES>  (1) 
5
1 -0.56
2 -0.56
3 0.56
6 0.28
7 0.28

>  <PUBCHEM_EFFECTIVE_ROTOR_COUNT>  (1) 
3

>  <PUBCHEM_PHARMACOPHORE_FEATURES>  (1) 
3
1 1 acceptor
1 2 acceptor
1 5 hydrophobe

>  <PUBCHEM_HEAVY_ATOM_COUNT>  (1) 
7

>  <PUBCHEM_ATOM_DEF_STEREO_COUNT>  (1) 
0

>  <PUBCHEM_ATOM_UDEF_STEREO_COUNT>  (1) 
0

>  <PUBCHEM_BOND_DEF_STEREO_COUNT>  (1) 
0

>  <PUBCHEM_BOND_UDEF_STEREO_COUNT>  (1) 
0

>  <PUBCHEM_ISOTOPIC_ATOM_COUNT>  (1) 
0

>  <PUBCHEM_COMPONENT_COUNT>  (1) 
1

>  <PUBCHEM_CACTVS_TAUTO_COUNT>  (1) 
1

>  <PUBCHEM_CONFORMER_ID>  (1) 
0000517B00000006

>  <PUBCHEM_MMFF94_ENERGY>  (1) 
15.2067

>  <PUBCHEM_FEATURE_SELFOVERLAP>  (1) 
15.262

>  <PUBCHEM_SHAPE_FINGERPRINT>  (1) 
16714656 1 18338520866474733385
18185500 45 17402337469326501254
20096714 4 18268148652032410276
21040471 1 18338519646957404332
23552449 1 18196087970060663632
23552449 11 17324077040569991409
29004967 10 17254555418467014642
5943 1 16761352551192989508

>  <PUBCHEM_SHAPE_MULTIPOLES>  (1) 
132.32
2.39
2.26
0.64
1.63
0.41
0.02
-0.52
0.13
-1.63
0.12
0.02
0.01
-0.03

>  <PUBCHEM_SHAPE_SELFOVERLAP>  (1) 
230.227

>  <PUBCHEM_SHAPE_VOLUME>  (1) 
88.4

>  <PUBCHEM_COORDINATE_TYPE>  (1) 
2
5
10

$$$$
