20854
     RDKit          3D

 30 34  0  0  1  0  0  0  0  0999 V2000
    1.6964   -0.7068   -1.5632 Cl  0  0  0  0  0  0  0  0  0  0  0  0
    1.1675   -3.0628    0.6797 Cl  0  0  0  0  0  0  0  0  0  0  0  0
   -3.4645   -1.0190   -0.0526 O   0  0  0  0  0  0  0  0  0  0  0  0
   -5.6444   -0.0863    0.1699 O   0  0  0  0  0  0  0  0  0  0  0  0
   -3.3515    2.4469    0.7284 O   0  0  0  0  0  0  0  0  0  0  0  0
    6.6064   -0.4326   -1.5985 O   0  0  0  0  0  0  0  0  0  0  0  0
   -1.4646    0.1248    0.6718 C   0  0  0  0  0  0  0  0  0  0  0  0
   -0.5873    1.2374    0.0700 C   0  0  0  0  0  0  0  0  0  0  0  0
    0.9212    1.1243    0.3960 C   0  0  0  0  0  0  0  0  0  0  0  0
    1.6115   -0.2910    0.2185 C   0  0  0  0  0  0  0  0  0  0  0  0
   -2.7994    0.2332   -0.1553 C   0  0  0  0  0  0  0  0  0  0  0  0
   -0.7904   -1.2614    0.4664 C   0  0  0  0  0  0  0  0  0  0  0  0
   -1.0010    1.3396   -1.4075 C   0  0  0  0  0  0  0  0  0  0  0  0
    0.6814   -1.3447    0.9169 C   0  0  0  0  0  0  0  0  0  0  0  0
   -2.2820    0.5165   -1.5748 C   0  0  0  0  0  0  0  0  0  0  0  0
    3.1323   -0.2052    0.7629 C   0  0  0  0  0  0  0  0  0  0  0  0
    1.7069    2.2744   -0.2609 C   0  0  0  0  0  0  0  0  0  0  0  0
   -1.7006    0.3113    2.1857 C   0  0  0  0  0  0  0  0  0  0  0  0
    3.1365    2.3416    0.2570 C   0  0  0  0  0  0  0  0  0  0  0  0
    3.8174    1.0077    0.0982 C   0  0  0  0  0  0  0  0  0  0  0  0
   -3.7454    1.3833    0.2506 C   0  0  0  0  0  0  0  0  0  0  0  0
    3.1894   -0.0124    2.3014 C   0  0  0  0  0  0  0  0  0  0  0  0
    3.9555   -1.4691    0.5227 C   0  0  0  0  0  0  0  0  0  0  0  0
   -4.8370   -1.0970   -0.4337 C   0  0  0  0  0  0  0  0  0  0  0  0
   -5.2030    1.2227   -0.1098 C   0  0  0  0  0  0  0  0  0  0  0  0
    4.9319    0.9256   -0.6468 C   0  0  0  0  0  0  0  0  0  0  0  0
    5.0653   -1.5539   -0.2177 C   0  0  0  0  0  0  0  0  0  0  0  0
    5.6128   -0.3614   -0.8837 C   0  0  0  0  0  0  0  0  0  0  0  0
   -5.3347   -2.4207    0.1603 C   0  0  0  0  0  0  0  0  0  0  0  0
   -5.0268   -1.1652   -1.9518 C   0  0  0  0  0  0  0  0  0  0  0  0
  1 10  1  0
  2 14  1  0
  3 11  1  0
  3 24  1  0
  4 24  1  0
  4 25  1  0
  5 21  2  0
  6 28  2  0
  7  8  1  0
  7 11  1  0
  7 12  1  0
  7 18  1  0
  8  9  1  0
  8 13  1  0
  9 10  1  0
  9 17  1  0
 10 14  1  0
 10 16  1  0
 11 15  1  0
 11 21  1  0
 12 14  1  0
 13 15  1  0
 16 20  1  0
 16 22  1  0
 16 23  1  0
 17 19  1  0
 19 20  1  0
 20 26  2  0
 21 25  1  0
 23 27  2  0
 24 29  1  0
 24 30  1  0
 26 28  1  0
 27 28  1  0
M  END
>  <PUBCHEM_COMPOUND_CID>  (1) 
20854

>  <PUBCHEM_CONFORMER_RMSD>  (1) 
0.6

>  <PUBCHEM_CONFORMER_DIVERSEORDER>  (1) 
1
39
74
71
29
59
48
67
50
24
20
27
57
37
63
43
31
32
64
33
12
17
9
40
38
16
72
35
15
11
53
44
13
41
77
56
25
21
10
3
28
65
58
49
47
14
4
6
26
8
22
70
60
61
51
2
69
62
42
34
55
7
73
36
30
46
75
54
19
52
78
45
68
5
23
76
18
66

>  <PUBCHEM_MMFF94_PARTIAL_CHARGES>  (1) 
22
1 -0.29
10 0.29
11 0.34
14 0.29
16 0.28
19 0.14
2 -0.29
20 -0.28
21 0.45
23 -0.29
24 0.56
25 0.34
26 -0.14
27 -0.14
28 0.54
3 -0.56
4 -0.56
5 -0.57
50 0.15
53 0.15
54 0.15
6 -0.57

>  <PUBCHEM_EFFECTIVE_ROTOR_COUNT>  (1) 
2

>  <PUBCHEM_PHARMACOPHORE_FEATURES>  (1) 
10
1 3 acceptor
1 4 acceptor
1 5 acceptor
1 6 acceptor
3 24 29 30 hydrophobe
5 7 8 11 13 15 rings
6 16 20 23 26 27 28 rings
6 3 4 11 21 24 25 rings
6 7 8 9 10 12 14 rings
6 9 10 16 17 19 20 rings

>  <PUBCHEM_HEAVY_ATOM_COUNT>  (1) 
30

>  <PUBCHEM_ATOM_DEF_STEREO_COUNT>  (1) 
2

>  <PUBCHEM_ATOM_UDEF_STEREO_COUNT>  (1) 
5

>  <PUBCHEM_BOND_DEF_STEREO_COUNT>  (1) 
0

>  <PUBCHEM_BOND_UDEF_STEREO_COUNT>  (1) 
0

>  <PUBCHEM_ISOTOPIC_ATOM_COUNT>  (1) 
0

>  <PUBCHEM_COMPONENT_COUNT>  (1) 
1

>  <PUBCHEM_CACTVS_TAUTO_COUNT>  (1) 
6

>  <PUBCHEM_CONFORMER_ID>  (1) 
0000517600000001

>  <PUBCHEM_MMFF94_ENERGY>  (1) 
117.9031

>  <PUBCHEM_FEATURE_SELFOVERLAP>  (1) 
50.964

>  <PUBCHEM_SHAPE_FINGERPRINT>  (1) 
10366900 7 17676488354308393936
10906281 52 17458921344079232149
11545043 162 17489867120143822584
11578080 2 17242723187636164205
11961588 58 16950567726988189390
12011746 2 18114184150922639532
12107183 9 17763745386714447481
12166972 35 18202285831217861768
12236239 1 17846500348068989632
12403259 415 18040989648497148357
12422481 6 10087655770830162984
12788726 201 18190180079458247192
13224815 77 17749104482920160937
13533116 47 18129663135495330776
13583140 156 12468648243808106109
13782708 43 17822008675521994378
13944108 23 16097387007259949229
14341114 176 18413110580226172297
14528608 73 18334293175720635210
14787075 74 18040998414688708706
14790565 3 18334585598843829212
14840074 17 17603589625121830679
14955137 171 17704353281554174640
15142383 8 13614254658494712570
15183329 4 18409167701200166590
15196674 1 18409165515072453433
15788980 27 16486969596317239916
17349148 13 18202284718604540761
1813 80 13901913336013030121
18681886 176 18341891935340957864
200 152 18343018908794244169
20028762 73 18271800250566198830
21033648 144 17240769544030271205
21033648 29 15068615011419231373
21267235 1 18410016572323653411
21709351 56 18411696586850848253
221357 26 18408602556909068156
22393880 68 18410288103686189317
23522609 53 18044401377602739348
23559900 14 18341046406087473985
350125 39 18408605863674897443
3886686 26 11522381981651868308
4280585 95 17551519842818599286
465052 167 18202569484180419254
484989 97 18190191259463619474
497634 4 18408041793152061981
5104073 3 18343861117215472401
59755656 215 18409450262956805015

>  <PUBCHEM_SHAPE_MULTIPOLES>  (1) 
597.65
13.06
2.45
1.57
0.95
0.4
0.07
2.61
-3.84
0.34
0.25
-0.23
0.1
-0.42

>  <PUBCHEM_SHAPE_SELFOVERLAP>  (1) 
1277.493

>  <PUBCHEM_SHAPE_VOLUME>  (1) 
330.3

>  <PUBCHEM_COORDINATE_TYPE>  (1) 
2
5
10

$$$$
