20853
     RDKit          3D

 13 14  0  0  0  0  0  0  0  0999 V2000
   -4.1926   -1.1707   -0.3204 N   0  0  0  0  0  0  0  0  0  0  0  0
   -0.8672    0.5448    0.3358 C   0  0  0  0  0  0  0  0  0  0  0  0
    0.3316   -0.1692    0.1757 C   0  0  0  0  0  0  0  0  0  0  0  0
   -2.1639   -0.1392    0.6425 C   0  0  0  0  0  0  0  0  0  0  0  0
    1.5237    0.5365   -0.1135 C   0  0  0  0  0  0  0  0  0  0  0  0
   -0.8903    1.9344    0.2130 C   0  0  0  0  0  0  0  0  0  0  0  0
   -2.9207   -0.5276   -0.6326 C   0  0  0  0  0  0  0  0  0  0  0  0
    0.3734   -1.5677    0.2960 C   0  0  0  0  0  0  0  0  0  0  0  0
    1.4821    1.9351   -0.2342 C   0  0  0  0  0  0  0  0  0  0  0  0
    0.2821    2.6283   -0.0718 C   0  0  0  0  0  0  0  0  0  0  0  0
    2.7225   -0.1772   -0.2739 C   0  0  0  0  0  0  0  0  0  0  0  0
    1.5734   -2.2607    0.1338 C   0  0  0  0  0  0  0  0  0  0  0  0
    2.7458   -1.5668   -0.1505 C   0  0  0  0  0  0  0  0  0  0  0  0
  1  7  1  0
  2  3  2  0
  2  4  1  0
  2  6  1  0
  3  5  1  0
  3  8  1  0
  4  7  1  0
  5  9  2  0
  5 11  1  0
  6 10  2  0
  8 12  2  0
  9 10  1  0
 11 13  2  0
 12 13  1  0
M  END
>  <PUBCHEM_COMPOUND_CID>  (1) 
20853

>  <PUBCHEM_CONFORMER_RMSD>  (1) 
0.6

>  <PUBCHEM_CONFORMER_DIVERSEORDER>  (1) 
2
3
1

>  <PUBCHEM_MMFF94_PARTIAL_CHARGES>  (1) 
20
1 -0.99
10 -0.15
11 -0.15
12 -0.15
13 -0.15
16 0.15
19 0.15
2 -0.14
20 0.15
21 0.15
22 0.15
23 0.15
24 0.15
25 0.36
26 0.36
4 0.14
6 -0.15
7 0.27
8 -0.15
9 -0.15

>  <PUBCHEM_EFFECTIVE_ROTOR_COUNT>  (1) 
2

>  <PUBCHEM_PHARMACOPHORE_FEATURES>  (1) 
4
1 1 cation
1 1 donor
6 2 3 5 6 9 10 rings
6 3 5 8 11 12 13 rings

>  <PUBCHEM_HEAVY_ATOM_COUNT>  (1) 
13

>  <PUBCHEM_ATOM_DEF_STEREO_COUNT>  (1) 
0

>  <PUBCHEM_ATOM_UDEF_STEREO_COUNT>  (1) 
0

>  <PUBCHEM_BOND_DEF_STEREO_COUNT>  (1) 
0

>  <PUBCHEM_BOND_UDEF_STEREO_COUNT>  (1) 
0

>  <PUBCHEM_ISOTOPIC_ATOM_COUNT>  (1) 
0

>  <PUBCHEM_COMPONENT_COUNT>  (1) 
1

>  <PUBCHEM_CACTVS_TAUTO_COUNT>  (1) 
1

>  <PUBCHEM_CONFORMER_ID>  (1) 
0000517500000002

>  <PUBCHEM_MMFF94_ENERGY>  (1) 
33.2

>  <PUBCHEM_FEATURE_SELFOVERLAP>  (1) 
20.324

>  <PUBCHEM_SHAPE_FINGERPRINT>  (1) 
1 1 18121496027516805245
10967382 1 18338519762810595634
11206711 2 18262530169231450772
11471102 20 18337668719763096047
11578080 2 17631144482263652313
11806522 49 18413105082594030982
13380535 76 18050285070454355656
14128692 85 18343304725624194826
14251717 144 18338794636660092135
15477762 27 18339640139606026863
15757776 16 18411415124484667631
16945 1 18336839661898953512
193761 8 18265617576486984944
20201158 50 18333450958456622907
20645477 70 18338508764090830583
20871998 184 17764597512235915465
21501502 16 18120661236382694066
221490 88 18191873542181711635
2334 1 17761782066873900642
23388829 49 18412263917501898144
23402539 116 18338510833943222734
23419403 2 17465330423412380236
23552423 10 17972332724049462036
23559900 14 16973364666330894846
241688 4 18265337196689765016
257057 1 18192419775778999386
2748010 2 18265897952020262836
6338986 31 18265601092244072011
7364860 26 18270960270752384529
81228 2 17976824185687979673

>  <PUBCHEM_SHAPE_MULTIPOLES>  (1) 
262.55
4.56
2.67
0.72
3.61
0.98
0
-2.85
0.79
-0.72
0.03
0.16
-0.03
-0.3

>  <PUBCHEM_SHAPE_SELFOVERLAP>  (1) 
565.093

>  <PUBCHEM_SHAPE_VOLUME>  (1) 
143.9

>  <PUBCHEM_COORDINATE_TYPE>  (1) 
2
5
10

$$$$
