20862
     RDKit          3D

  7  6  0  0  0  0  0  0  0  0999 V2000
   -1.2583    1.4628    0.7981 Cl  0  0  0  0  0  0  0  0  0  0  0  0
   -1.2704   -1.4245    0.8485 Cl  0  0  0  0  0  0  0  0  0  0  0  0
   -1.1924   -0.0654   -1.6901 Cl  0  0  0  0  0  0  0  0  0  0  0  0
    0.9421    0.0680    0.0122 C   0  0  0  0  0  0  0  0  0  0  0  0
   -0.5807    0.0022   -0.0009 C   0  0  0  0  0  0  0  0  0  0  0  0
    1.6951   -1.2462    0.0444 C   0  0  0  0  0  0  0  0  0  0  0  0
    1.6645    1.2031   -0.0122 C   0  0  0  0  0  0  0  0  0  0  0  0
  1  5  1  0
  2  5  1  0
  3  5  1  0
  4  5  1  0
  4  6  1  0
  4  7  2  0
M  END
>  <PUBCHEM_COMPOUND_CID>  (1) 
20862

>  <PUBCHEM_CONFORMER_RMSD>  (1) 
0.4

>  <PUBCHEM_CONFORMER_DIVERSEORDER>  (1) 
1

>  <PUBCHEM_MMFF94_PARTIAL_CHARGES>  (1) 
9
1 -0.29
11 0.15
12 0.15
2 -0.29
3 -0.29
4 -0.28
5 1.01
6 0.14
7 -0.3

>  <PUBCHEM_EFFECTIVE_ROTOR_COUNT>  (1) 
1

>  <PUBCHEM_PHARMACOPHORE_FEATURES>  (1) 
0

>  <PUBCHEM_HEAVY_ATOM_COUNT>  (1) 
7

>  <PUBCHEM_ATOM_DEF_STEREO_COUNT>  (1) 
0

>  <PUBCHEM_ATOM_UDEF_STEREO_COUNT>  (1) 
0

>  <PUBCHEM_BOND_DEF_STEREO_COUNT>  (1) 
0

>  <PUBCHEM_BOND_UDEF_STEREO_COUNT>  (1) 
0

>  <PUBCHEM_ISOTOPIC_ATOM_COUNT>  (1) 
0

>  <PUBCHEM_COMPONENT_COUNT>  (1) 
1

>  <PUBCHEM_CACTVS_TAUTO_COUNT>  (1) 
1

>  <PUBCHEM_CONFORMER_ID>  (1) 
0000517E00000001

>  <PUBCHEM_MMFF94_ENERGY>  (1) 
8.9839

>  <PUBCHEM_FEATURE_SELFOVERLAP>  (1) 
0

>  <PUBCHEM_SHAPE_FINGERPRINT>  (1) 
137420 1 12380167042474491109
20711978 78 18271818946473896206
21040471 1 18194136126357096680
23552333 60 16986851665932925423
24536 1 18409721872425064280
29004967 10 18122914397358283411
5084963 1 17984706610512663745
5943 1 9314521319206775861

>  <PUBCHEM_SHAPE_MULTIPOLES>  (1) 
149.67
2.27
1.67
1.27
0.7
0.01
-0.56
-0.04
0.05
-0.07
0.52
-0.76
-0.05
-0.03

>  <PUBCHEM_SHAPE_SELFOVERLAP>  (1) 
250.029

>  <PUBCHEM_SHAPE_VOLUME>  (1) 
100.8

>  <PUBCHEM_COORDINATE_TYPE>  (1) 
2
5
10

$$$$
